#------------------------------------------------------------------------------
#$Date: 2016-03-21 01:21:50 +0200 (Mon, 21 Mar 2016) $
#$Revision: 178377 $
#$URL: svn://www.crystallography.net/cod/cif/4/00/21/4002116.cif $
#------------------------------------------------------------------------------
#
# This file is available in the Crystallography Open Database (COD),
# http://www.crystallography.net/
#
# All data on this site have been placed in the public domain by the
# contributors.
#
data_4002116
loop_
_publ_author_name
'Nanthamathee, Chompoonoot'
'Ling, Sanliang'
'Slater, Ben'
'Attfield, Martin P.'
_publ_section_title
;
 Contradistinct Thermoresponsive Behavior of Isostructural MIL-53 Type
 Metal--Organic Frameworks by Modifying the Framework Inorganic Anion
;
_journal_name_full               'Chemistry of Materials'
_journal_page_first              141223143002002
_journal_paper_doi               10.1021/cm503311x
_journal_year                    2014
_chemical_formula_sum            'C8 Al O5'
_chemical_formula_weight         203.07
_chemical_name_systematic        ' ?'
_space_group_IT_number           74
_symmetry_cell_setting           orthorhombic
_symmetry_space_group_name_Hall  '-I 2b 2'
_symmetry_space_group_name_H-M   'I m m a'
_audit_creation_date             2014-08-28T12:16
_audit_creation_method           'from EXP file using GSAS2CIF'
_audit_update_record
' 2014-08-28T12:16  Initial CIF as created by GSAS2CIF'
_cell_angle_alpha                90.0
_cell_angle_beta                 90.0
_cell_angle_gamma                90.0
_cell_formula_units_Z            4
_cell_length_a                   6.62947(6)
_cell_length_b                   16.75793(17)
_cell_length_c                   12.79359(23)
_cell_volume                     1421.32(3)
_computing_structure_refinement  GSAS
_diffrn_radiation_polarisn_ratio 0.95
_diffrn_radiation_probe          x-ray
_diffrn_radiation_wavelength     0.825993
_exptl_absorpt_correction_T_max  1.00000
_exptl_absorpt_correction_T_min  1.00000
_exptl_absorpt_process_details
;   GSAS Absorption/surface roughness correction: function number 0
 No correction is applied.
;
_pd_block_id                     2014-08-28T12:16|300K|300k|i11
_pd_calc_method                  'Rietveld Refinement'
_pd_instr_location               ' ?'
_pd_meas_2theta_range_inc        0.003
_pd_meas_2theta_range_max        149.9955
_pd_meas_2theta_range_min        0.0015
_pd_meas_number_of_points        49999
_pd_phase_name                   300K
_pd_proc_2theta_range_inc        0.003
_pd_proc_2theta_range_max        150.00459
_pd_proc_2theta_range_min        0.010597
_pd_proc_info_datetime           2014-08-28T12:16:06
_pd_proc_info_excluded_regions   ' ?'
_pd_proc_ls_background_function
;   GSAS Background function number 1 with  2 terms.
 Shifted Chebyshev function of 1st kind
      1:    0.00000     2:    0.00000    
;
_pd_proc_ls_peak_cutoff          0.00100
_pd_proc_ls_profile_function
;
 CW Profile function number 4 with  18 terms
 Pseudovoigt profile coefficients as parameterized in
 P. Thompson, D.E. Cox & J.B. Hastings (1987). J. Appl. Cryst.,20,79-83.
 Asymmetry correction of L.W. Finger, D.E. Cox & A. P. Jephcoat (1994).
 J. Appl. Cryst.,27,892-900.
 Microstrain broadening by P.W. Stephens,  (1999). J. Appl. Cryst.,32,281-289.
 Peak tails are ignored  where the intensity is below 0.0010 times the peak
   Aniso. broadening axis   1.0   0.0   1.0
;
_pd_proc_ls_prof_R_factor        0.0354
_pd_proc_ls_prof_wR_expected     0.0232
_pd_proc_ls_prof_wR_factor       0.0471
_pd_proc_number_of_points        49999
_pd_spec_mounting                ' ?'
_refine_ls_goodness_of_fit_all   2.03
_refine_ls_matrix_type           full
_refine_ls_number_parameters     28
_refine_ls_number_restraints     0
_refine_ls_R_Fsqd_factor         0.23905
_refine_ls_shift/su_max          0.05
_refine_ls_shift/su_mean         0.01
_reflns_d_resolution_high        1.208
_reflns_d_resolution_low         8.379
_reflns_limit_h_max              5
_reflns_limit_h_min              0
_reflns_limit_k_max              13
_reflns_limit_k_min              0
_reflns_limit_l_max              10
_reflns_limit_l_min              0
_reflns_number_total             252
_cod_data_source_file            aloh300K.cif
_cod_data_source_block           300K_publ
_cod_depositor_comments
;
The following automatic conversions were performed:

'_geom_bond_publ_flag' value 'N' changed to 'n' according to
/home/saulius/struct/COD-crude-data--automatic-downloads/rss-feeds/ACS/lib/dictionaries/cif_core.dic
dictionary named 'cif_core.dic' version 2.4.2 from 2011-04-26 (18
times).

'_geom_angle_publ_flag' value 'N' changed to 'n' according
to
/home/saulius/struct/COD-crude-data--automatic-downloads/rss-feeds/ACS/lib/dictionaries/cif_core.dic
dictionary named 'cif_core.dic' version 2.4.2 from 2011-04-26 (24
times).

Automatic conversion script
Id: cif_fix_values 2935 2014-11-11 08:27:57Z andrius 
;
_cod_original_cell_volume        1421.319(32)
_cod_database_code               4002116
#BEGIN Tags that were not found in dictionaries:
_gsas_exptl_extinct_corr_t_min   1.00000
_gsas_exptl_extinct_corr_t_max   1.00000
#END Tags that were not found in dictionaries
loop_
_symmetry_equiv_pos_site_id
_symmetry_equiv_pos_as_xyz
1 +x,+y,+z
2 -x,+y,+z
3 +x,-y+1/2,+z
4 -x,-y+1/2,+z
-1 -x,-y,-z
-2 +x,-y,-z
-3 -x,+y+1/2,-z
-4 +x,+y+1/2,-z
101 +x+1/2,+y+1/2,+z+1/2
102 -x+1/2,+y+1/2,+z+1/2
103 +x+1/2,-y,+z+1/2
104 -x+1/2,-y,+z+1/2
-101 -x+1/2,-y+1/2,-z+1/2
-102 +x+1/2,-y+1/2,-z+1/2
-103 -x+1/2,+y,-z+1/2
-104 +x+1/2,+y,-z+1/2
loop_
_atom_site_type_symbol
_atom_site_label
_atom_site_fract_x
_atom_site_fract_y
_atom_site_fract_z
_atom_site_occupancy
_atom_site_thermal_displace_type
_atom_site_U_iso_or_equiv
_atom_site_symmetry_multiplicity
Al Al1 0.25 0.25 0.75 1.0 Uiso 0.0217(10) 4
O O2 0.0 0.25 0.6847(4) 1.0 Uiso 0.0170(8) 4
O O1 0.16677(31) 0.16770(14) 0.84362(21) 1.0 Uiso 0.0170(8) 16
C C3 -0.1922(4) 0.03544(29) 0.9679(4) 1.0 Uiso 0.0368(14) 16
C C2 0.0 0.0620(4) 0.9448(5) 1.0 Uiso 0.0368(14) 8
C C1 0.0 0.1382(4) 0.8703(6) 1.0 Uiso 0.0368(14) 8
loop_
_atom_type_symbol
_atom_type_number_in_cell
_atom_type_scat_dispersion_real
_atom_type_scat_dispersion_imag
_atom_type_scat_Cromer_Mann_a1
_atom_type_scat_Cromer_Mann_a2
_atom_type_scat_Cromer_Mann_a3
_atom_type_scat_Cromer_Mann_a4
_atom_type_scat_Cromer_Mann_b1
_atom_type_scat_Cromer_Mann_b2
_atom_type_scat_Cromer_Mann_b3
_atom_type_scat_Cromer_Mann_b4
_atom_type_scat_Cromer_Mann_c
_atom_type_scat_source
Al 4.0 0.000 0.000 6.42020 3.03870 1.90020 0.74260 1.59360 31.5472 1.96460
85.0886 1.11510 International_Tables_Vol_C
O 20.0 0.000 0.000 3.04850 13.2771 2.28680 5.70110 1.54630 0.32390 0.86700
32.9089 0.25080 International_Tables_Vol_C
C 32.0 0.000 0.000 2.31000 20.8439 1.02000 10.2075 1.58860 0.56870 0.86500
51.6512 0.21560 International_Tables_Vol_C
loop_
_geom_angle_atom_site_label_1
_geom_angle_atom_site_label_2
_geom_angle_atom_site_label_3
_geom_angle
_geom_angle_site_symmetry_1
_geom_angle_site_symmetry_3
_geom_angle_publ_flag
O2 Al1 O2 180.0 1_555 -101_546 n
O2 Al1 O1 91.39(12) 1_555 1_555 n
O2 Al1 O1 91.39(12) 1_555 3_555 n
O2 Al1 O1 88.61(12) 1_555 -101_566 n
O2 Al1 O1 88.61(12) 1_555 -103_566 n
O2 Al1 O1 88.61(12) -101_566 1_555 n
O2 Al1 O1 88.61(12) -101_566 3_555 n
O2 Al1 O1 91.39(12) -101_566 -101_566 n
O2 Al1 O1 91.39(12) -101_566 -103_566 n
O1 Al1 O1 92.57(17) 1_555 3_555 n
O1 Al1 O1 180.0 1_555 -101_566 n
O1 Al1 O1 87.43(17) 1_555 -103_566 n
O1 Al1 O1 87.43(17) 3_555 -101_566 n
O1 Al1 O1 180.0 3_555 -103_566 n
O1 Al1 O1 92.57(17) -101_566 -103_566 n
Al1 O2 Al1 126.52(30) 1_555 2_555 n
Al1 O1 C1 135.11(35) 1_555 1_555 n
C3 C3 C2 112.76(35) -2_557 1_555 n
C3 C2 C3 134.5(7) 1_555 2_555 n
C3 C2 C1 112.73(34) 1_555 1_555 n
C3 C2 C1 112.73(34) 2_555 1_555 n
O1 C1 O1 122.9(6) 1_555 2_555 n
O1 C1 C2 118.51(31) 1_555 1_555 n
O1 C1 C2 118.51(31) 2_555 1_555 n
loop_
_geom_bond_atom_site_label_1
_geom_bond_atom_site_label_2
_geom_bond_distance
_geom_bond_site_symmetry_2
_geom_bond_publ_flag
Al1 O2 1.8558(25) 1_555 n
Al1 O2 1.8558(25) -101_445 n
Al1 O1 1.9082(20) 1_555 n
Al1 O1 1.9082(20) 3_555 n
Al1 O1 1.9082(20) -101_445 n
Al1 O1 1.9082(20) -103_445 n
O2 Al1 1.8558(25) 1_555 n
O2 Al1 1.8558(25) 2_555 n
O1 Al1 1.9082(20) 1_555 n
O1 C1 1.2584(31) 1_555 n
C3 C3 1.445(7) -2_557 n
C3 C2 1.3815(30) 1_555 n
C2 C3 1.3815(30) 1_555 n
C2 C3 1.3815(30) 2_555 n
C2 C1 1.593(6) 1_555 n
C1 O1 1.2584(31) 1_555 n
C1 O1 1.2584(31) 2_555 n
C1 C2 1.593(6) 1_555 n
loop_
_pd_meas_intensity_total
_pd_proc_ls_weight
_pd_proc_intensity_bkg_calc
_pd_calc_intensity_total
18.5(22) 0.0 0.00 .
14.4(20) 0.0 0.00 .
12.2(18) 0.0 0.00 .
18.1(23) 0.0 0.00 .
37.9(32) 0.0 0.00 .
129(7) 0.0 0.0 .
103(6) 0.0 0.0 .
671(14) 0.0 0.0 .
1201(18) 0.0 0.0 .
2398(27) 0.0 0.0 .
2732(28) 0.0 0.0 .
2788(27) 0.0 0.0 .
2885(28) 0.0 0.0 .
1061(19) 0.0 0.0 .
96(5) 0.0 0.0 .
48(4) 0.0 0.0 .
37.3(32) 0.0 0.00 .
37.8(32) 0.0 0.00 .
32.9(30) 0.0 0.00 .
47(4) 0.0 0.0 .
193(8) 0.0 0.0 .
326(9) 0.0 0.0 .
681(14) 0.0 0.0 .
891(16) 0.0 0.0 .
967(17) 0.0 0.0 .
1175(19) 0.0 0.0 .
1238(18) 0.0 0.0 .
1420(20) 0.0 0.0 .
1714(22) 0.0 0.0 .
1786(23) 0.0 0.0 .
2034(25) 0.0 0.0 .
2077(24) 0.0 0.0 .
1771(22) 0.0 0.0 .
1602(22) 0.0 0.0 .
1145(18) 0.0 0.0 .
657(13) 0.0 0.0 .
339(10) 0.0 0.0 .
223(8) 0.0 0.0 .
143(6) 0.0 0.0 .
71(4) 0.0 0.0 .
48(4) 0.0 0.0 .
30.7(29) 0.0 0.00 .
28.5(28) 0.0 0.00 .
32.9(32) 0.0 0.00 .
28.6(29) 0.0 0.00 .
29.5(28) 0.0 0.00 .
27.2(27) 0.0 0.00 .
25.1(27) 0.0 0.00 .
31.1(30) 0.0 0.00 .
29.6(28) 0.0 0.00 .
28.9(28) 0.0 0.00 .
34.6(31) 0.0 0.00 .
27.2(29) 0.0 0.00 .
25.9(27) 0.0 0.00 .
33.1(31) 0.0 0.00 .
29.1(28) 0.0 0.00 .
28.0(28) 0.0 0.00 .
25.7(28) 0.0 0.00 .
41(4) 0.0 0.0 .
36.3(32) 0.0 0.00 .
30.3(29) 0.0 0.00 .
29.1(28) 0.0 0.00 .
37.6(33) 0.0 0.00 .
38.9(34) 0.0 0.00 .
34.8(31) 0.0 0.00 .
34.3(31) 0.0 0.00 .
34.0(30) 0.0 0.00 .
29.2(28) 0.0 0.00 .
33.4(33) 0.0 0.00 .
22.2(24) 0.0 0.00 .
38.9(33) 0.0 0.00 .
32.6(30) 0.0 0.00 .
34.3(31) 0.0 0.00 .
32.0(31) 0.0 0.00 .
34.6(31) 0.0 0.00 .
34.1(31) 0.0 0.00 .
29.9(29) 0.0 0.00 .
37.9(33) 0.0 0.00 .
36.8(34) 0.0 0.00 .
30.7(30) 0.0 0.00 .
32.8(30) 0.0 0.00 .
35.9(32) 0.0 0.00 .
42(4) 0.0 0.0 .
39.8(35) 0.0 0.00 .
32.5(31) 0.0 0.00 .
41.0(33) 0.0 0.00 .
33.6(30) 0.0 0.00 .
35.0(32) 0.0 0.00 .
43(4) 0.0 0.0 .
41(4) 0.0 0.0 .
44.3(35) 0.0 0.00 .
40.2(33) 0.0 0.00 .
45(4) 0.0 0.0 .
47(4) 0.0 0.0 .
61(4) 0.0 0.0 .
45(4) 0.0 0.0 .
74(5) 0.0 0.0 .
75(5) 0.0 0.0 .
84(5) 0.0 0.0 .
90(5) 0.0 0.0 .
110(5) 0.0 0.0 .
120(6) 0.0 0.0 .
111(6) 0.0 0.0 .
136(6) 0.0 0.0 .
129(6) 0.0 0.0 .
149(6) 0.0 0.0 .
132(6) 0.0 0.0 .
160(7) 0.0 0.0 .
171(7) 0.0 0.0 .
176(7) 0.0 0.0 .
172(7) 0.0 0.0 .
184(7) 0.0 0.0 .
219(8) 0.0 0.0 .
202(8) 0.0 0.0 .
210(8) 0.0 0.0 .
222(8) 0.0 0.0 .
245(8) 0.0 0.0 .
275(9) 0.0 0.0 .
255(8) 0.0 0.0 .
262(8) 0.0 0.0 .
274(9) 0.0 0.0 .
308(9) 0.0 0.0 .
306(10) 0.0 0.0 .
299(9) 0.0 0.0 .
296(9) 0.0 0.0 .
345(10) 0.0 0.0 .
328(10) 0.0 0.0 .
335(10) 0.0 0.0 .
337(10) 0.0 0.0 .
367(10) 0.0 0.0 .
358(10) 0.0 0.0 .
363(10) 0.0 0.0 .
383(11) 0.0 0.0 .
348(10) 0.0 0.0 .
407(10) 0.0 0.0 .
413(11) 0.0 0.0 .
454(12) 0.0 0.0 .
447(11) 0.0 0.0 .
408(11) 0.0 0.0 .
432(11) 0.0 0.0 .
438(11) 0.0 0.0 .
450(11) 0.0 0.0 .
469(12) 0.0 0.0 .
493(12) 0.0 0.0 .
480(11) 0.0 0.0 .
507(12) 0.0 0.0 .
503(12) 0.0 0.0 .
467(11) 0.0 0.0 .
488(12) 0.0 0.0 .
493(11) 0.0 0.0 .
533(12) 0.0 0.0 .
506(12) 0.0 0.0 .
510(12) 0.0 0.0 .
541(12) 0.0 0.0 .
512(12) 0.0 0.0 .
522(12) 0.0 0.0 .
543(13) 0.0 0.0 .
516(12) 0.0 0.0 .
532(12) 0.0 0.0 .
537(12) 0.0 0.0 .
558(13) 0.0 0.0 .
572(13) 0.0 0.0 .
570(13) 0.0 0.0 .
546(12) 0.0 0.0 .
541(12) 0.0 0.0 .
565(13) 0.0 0.0 .
582(13) 0.0 0.0 .
600(13) 0.0 0.0 .
575(12) 0.0 0.0 .
612(13) 0.0 0.0 .
597(13) 0.0 0.0 .
571(13) 0.0 0.0 .
606(13) 0.0 0.0 .
565(12) 0.0 0.0 .
595(13) 0.0 0.0 .
611(13) 0.0 0.0 .
619(14) 0.0 0.0 .
566(13) 0.0 0.0 .
630(13) 0.0 0.0 .
663(14) 0.0 0.0 .
625(13) 0.0 0.0 .
596(13) 0.0 0.0 .
608(13) 0.0 0.0 .
627(13) 0.0 0.0 .
669(14) 0.0 0.0 .
649(14) 0.0 0.0 .
626(14) 0.0 0.0 .
613(13) 0.0 0.0 .
608(13) 0.0 0.0 .
658(14) 0.0 0.0 .
671(14) 0.0 0.0 .
664(14) 0.0 0.0 .
670(14) 0.0 0.0 .
653(13) 0.0 0.0 .
663(14) 0.0 0.0 .
640(14) 0.0 0.0 .
635(14) 0.0 0.0 .
683(14) 0.0 0.0 .
702(14) 0.0 0.0 .
627(13) 0.0 0.0 .
682(14) 0.0 0.0 .
659(13) 0.0 0.0 .
670(13) 0.0 0.0 .
664(13) 0.0 0.0 .
697(14) 0.0 0.0 .
688(14) 0.0 0.0 .
684(14) 0.0 0.0 .
667(14) 0.0 0.0 .
710(14) 0.0 0.0 .
702(14) 0.0 0.0 .
711(15) 0.0 0.0 .
685(14) 0.0 0.0 .
731(14) 0.0 0.0 .
712(14) 0.0 0.0 .
703(15) 0.0 0.0 .
702(15) 0.0 0.0 .
722(15) 0.0 0.0 .
731(14) 0.0 0.0 .
742(14) 0.0 0.0 .
743(15) 0.0 0.0 .
702(14) 0.0 0.0 .
737(14) 0.0 0.0 .
777(14) 0.0 0.0 .
748(14) 0.0 0.0 .
724(14) 0.0 0.0 .
760(15) 0.0 0.0 .
766(15) 0.0 0.0 .
791(15) 0.0 0.0 .
777(15) 0.0 0.0 .
804(15) 0.0 0.0 .
810(16) 0.0 0.0 .
821(15) 0.0 0.0 .
763(14) 0.0 0.0 .
769(15) 0.0 0.0 .
762(15) 0.0 0.0 .
773(15) 0.0 0.0 .
821(15) 0.0 0.0 .
819(15) 0.0 0.0 .
805(15) 0.0 0.0 .
800(15) 0.0 0.0 .
842(16) 0.0 0.0 .
808(15) 0.0 0.0 .
787(15) 0.0 0.0 .
832(15) 0.0 0.0 .
828(16) 0.0 0.0 .
808(15) 0.0 0.0 .
823(15) 0.0 0.0 .
827(15) 0.0 0.0 .
855(16) 0.0 0.0 .
833(16) 0.0 0.0 .
866(16) 0.0 0.0 .
846(15) 0.0 0.0 .
874(15) 0.0 0.0 .
837(15) 0.0 0.0 .
836(16) 0.0 0.0 .
828(15) 0.0 0.0 .
853(15) 0.0 0.0 .
886(15) 0.0 0.0 .
871(16) 0.0 0.0 .
876(16) 0.0 0.0 .
840(15) 0.0 0.0 .
858(15) 0.0 0.0 .
895(15) 0.0 0.0 .
852(16) 0.0 0.0 .
852(16) 0.0 0.0 .
877(16) 0.0 0.0 .
852(15) 0.0 0.0 .
881(15) 0.0 0.0 .
873(16) 0.0 0.0 .
886(17) 0.0 0.0 .
880(16) 0.0 0.0 .
860(15) 0.0 0.0 .
844(15) 0.0 0.0 .
910(16) 0.0 0.0 .
883(16) 0.0 0.0 .
897(16) 0.0 0.0 .
911(16) 0.0 0.0 .
917(16) 0.0 0.0 .
915(16) 0.0 0.0 .
918(17) 0.0 0.0 .
895(16) 0.0 0.0 .
914(16) 0.0 0.0 .
922(16) 0.0 0.0 .
936(16) 0.0 0.0 .
922(17) 0.0 0.0 .
896(16) 0.0 0.0 .
873(15) 0.0 0.0 .
912(16) 0.0 0.0 .
924(17) 0.0 0.0 .
932(17) 0.0 0.0 .
918(16) 0.0 0.0 .
936(16) 0.0 0.0 .
956(17) 0.0 0.0 .
929(16) 0.0 0.0 .
882(16) 0.0 0.0 .
934(16) 0.0 0.0 .
956(16) 0.0 0.0 .
951(17) 0.0 0.0 .
921(16) 0.0 0.0 .
907(16) 0.0 0.0 .
911(16) 0.0 0.0 .
911(16) 0.0 0.0 .
955(17) 0.0 0.0 .
960(17) 0.0 0.0 .
966(17) 0.0 0.0 .
937(16) 0.0 0.0 .
922(16) 0.0 0.0 .
959(17) 0.0 0.0 .
970(17) 0.0 0.0 .
986(17) 0.0 0.0 .
965(16) 0.0 0.0 .
981(16) 0.0 0.0 .
959(16) 0.0 0.0 .
996(18) 0.0 0.0 .
938(16) 0.0 0.0 .
973(16) 0.0 0.0 .
981(16) 0.0 0.0 .
958(17) 0.0 0.0 .
956(17) 0.0 0.0 .
937(17) 0.0 0.0 .
923(16) 0.0 0.0 .
938(16) 0.0 0.0 .
974(17) 0.0 0.0 .
967(17) 0.0 0.0 .
984(17) 0.0 0.0 .
1001(16) 0.0 0.0 .
962(16) 0.0 0.0 .
993(17) 0.0 0.0 .
978(17) 0.0 0.0 .
952(17) 0.0 0.0 .
973(16) 0.0 0.0 .
938(16) 0.0 0.0 .
1009(17) 0.0 0.0 .
978(17) 0.0 0.0 .
995(17) 0.0 0.0 .
981(16) 0.0 0.0 .
996(17) 0.0 0.0 .
998(17) 0.0 0.0 .
1037(18) 0.0 0.0 .
1006(17) 0.0 0.0 .
992(16) 0.0 0.0 .
1023(17) 0.0 0.0 .
945(17) 0.0 0.0 .
969(17) 0.0 0.0 .
1024(17) 0.0 0.0 .
1018(17) 0.0 0.0 .
1013(17) 0.0 0.0 .
989(17) 0.0 0.0 .
979(17) 0.0 0.0 .
979(16) 0.0 0.0 .
1006(16) 0.0 0.0 .
1027(17) 0.0 0.0 .
1026(18) 0.0 0.0 .
1042(17) 0.0 0.0 .
1068(17) 0.0 0.0 .
1019(17) 0.0 0.0 .
1100(18) 0.0 0.0 .
1083(18) 0.0 0.0 .
1065(17) 0.0 0.0 .
1094(17) 0.0 0.0 .
1076(17) 0.0 0.0 .
1071(18) 0.0 0.0 .
1084(18) 0.0 0.0 .
1111(18) 0.0 0.0 .
1085(17) 0.0 0.0 .
1103(17) 0.0 0.0 .
1119(18) 0.0 0.0 .
1101(19) 0.0 0.0 .
1107(18) 0.0 0.0 .
1073(17) 0.0 0.0 .
1101(17) 0.0 0.0 .
1124(18) 0.0 0.0 .
1093(18) 0.0 0.0 .
1111(18) 0.0 0.0 .
1157(18) 0.0 0.0 .
1110(17) 0.0 0.0 .
1092(18) 0.0 0.0 .
1154(19) 0.0 0.0 .
1144(18) 0.0 0.0 .
1192(18) 0.0 0.0 .
1152(18) 0.0 0.0 .
1120(18) 0.0 0.0 .
1164(19) 0.0 0.0 .
1169(18) 0.0 0.0 .
1175(18) 0.0 0.0 .
1180(18) 0.0 0.0 .
1178(19) 0.0 0.0 .
1134(18) 0.0 0.0 .
1182(18) 0.0 0.0 .
1190(18) 0.0 0.0 .
1177(18) 0.0 0.0 .
1190(19) 0.0 0.0 .
1215(19) 0.0 0.0 .
1233(18) 0.0 0.0 .
1160(18) 0.0 0.0 .
1214(19) 0.0 0.0 .
1176(19) 0.0 0.0 .
1182(18) 0.0 0.0 .
1247(19) 0.0 0.0 .
1212(18) 0.0 0.0 .
1189(19) 0.0 0.0 .
1241(19) 0.0 0.0 .
1253(19) 0.0 0.0 .
1225(18) 0.0 0.0 .
1219(18) 0.0 0.0 .
1242(19) 0.0 0.0 .
1179(19) 0.0 0.0 .
1210(19) 0.0 0.0 .
1164(18) 0.0 0.0 .
1247(18) 0.0 0.0 .
1252(19) 0.0 0.0 .
1276(20) 0.0 0.0 .
1254(19) 0.0 0.0 .
1220(18) 0.0 0.0 .
1223(18) 0.0 0.0 .
1277(19) 0.0 0.0 .
1223(19) 0.0 0.0 .
1193(19) 0.0 0.0 .
1269(18) 0.0 0.0 .
1263(18) 0.0 0.0 .
1254(19) 0.0 0.0 .
1237(20) 0.0 0.0 .
1245(19) 0.0 0.0 .
1269(19) 0.0 0.0 .
1263(18) 0.0 0.0 .
1241(19) 0.0 0.0 .
1265(20) 0.0 0.0 .
1266(19) 0.0 0.0 .
1241(18) 0.0 0.0 .
1267(19) 0.0 0.0 .
1255(19) 0.0 0.0 .
1235(19) 0.0 0.0 .
1273(19) 0.0 0.0 .
1285(19) 0.0 0.0 .
1313(19) 0.0 0.0 .
1256(19) 0.0 0.0 .
1263(19) 0.0 0.0 .
1287(19) 0.0 0.0 .
1228(18) 0.0 0.0 .
1264(19) 0.0 0.0 .
1287(19) 0.0 0.0 .
1282(19) 0.0 0.0 .
1290(19) 0.0 0.0 .
1249(18) 0.0 0.0 .
1277(19) 0.0 0.0 .
1296(19) 0.0 0.0 .
1273(19) 0.0 0.0 .
1262(19) 0.0 0.0 .
1224(18) 0.0 0.0 .
1219(19) 0.0 0.0 .
1233(19) 0.0 0.0 .
1285(19) 0.0 0.0 .
1271(19) 0.0 0.0 .
1244(18) 0.0 0.0 .
1270(19) 0.0 0.0 .
1242(19) 0.0 0.0 .
1261(19) 0.0 0.0 .
1321(19) 0.0 0.0 .
1318(19) 0.0 0.0 .
1259(19) 0.0 0.0 .
1248(19) 0.0 0.0 .
1280(19) 0.0 0.0 .
1264(18) 0.0 0.0 .
1281(19) 0.0 0.0 .
1288(19) 0.0 0.0 .
1296(20) 0.0 0.0 .
1243(19) 0.0 0.0 .
1261(18) 0.0 0.0 .
1267(18) 0.0 0.0 .
1237(19) 0.0 0.0 .
1289(20) 0.0 0.0 .
1228(19) 0.0 0.0 .
1287(19) 0.0 0.0 .
1283(19) 0.0 0.0 .
1284(19) 0.0 0.0 .
1276(20) 0.0 0.0 .
1315(20) 0.0 0.0 .
1227(18) 0.0 0.0 .
1259(19) 0.0 0.0 .
1273(19) 0.0 0.0 .
1279(20) 0.0 0.0 .
1320(20) 0.0 0.0 .
1252(18) 0.0 0.0 .
1309(19) 0.0 0.0 .
1274(19) 0.0 0.0 .
1237(19) 0.0 0.0 .
1240(19) 0.0 0.0 .
1263(18) 0.0 0.0 .
1260(19) 0.0 0.0 .
1261(19) 0.0 0.0 .
1289(20) 0.0 0.0 .
1251(19) 0.0 0.0 .
1244(18) 0.0 0.0 .
1297(19) 0.0 0.0 .
1292(20) 0.0 0.0 .
1267(19) 0.0 0.0 .
1330(19) 0.0 0.0 .
1244(18) 0.0 0.0 .
1239(19) 0.0 0.0 .
1252(19) 0.0 0.0 .
1255(19) 0.0 0.0 .
1293(19) 0.0 0.0 .
1285(19) 0.0 0.0 .
1303(19) 0.0 0.0 .
1317(20) 0.0 0.0 .
1240(19) 0.0 0.0 .
1310(19) 0.0 0.0 .
1294(19) 0.0 0.0 .
1265(19) 0.0 0.0 .
1275(20) 0.0 0.0 .
1285(19) 0.0 0.0 .
1271(19) 0.0 0.0 .
1289(19) 0.0 0.0 .
1246(19) 0.0 0.0 .
1283(20) 0.0 0.0 .
1305(19) 0.0 0.0 .
1261(18) 0.0 0.0 .
1230(18) 0.0 0.0 .
1283(19) 0.0 0.0 .
1280(20) 0.0 0.0 .
1281(19) 0.0 0.0 .
1311(19) 0.0 0.0 .
1265(18) 0.0 0.0 .
1244(19) 0.0 0.0 .
1273(20) 0.0 0.0 .
1284(19) 0.0 0.0 .
1285(19) 0.0 0.0 .
1257(19) 0.0 0.0 .
1217(19) 0.0 0.0 .
1263(20) 0.0 0.0 .
1284(19) 0.0 0.0 .
1248(18) 0.0 0.0 .
1225(18) 0.0 0.0 .
1233(19) 0.0 0.0 .
1262(19) 0.0 0.0 .
1252(19) 0.0 0.0 .
1258(18) 0.0 0.0 .
1259(19) 0.0 0.0 .
1227(19) 0.0 0.0 .
1223(19) 0.0 0.0 .
1237(19) 0.0 0.0 .
1225(18) 0.0 0.0 .
1237(19) 0.0 0.0 .
1241(19) 0.0 0.0 .
1290(19) 0.0 0.0 .
1210(18) 0.0 0.0 .
1213(18) 0.0 0.0 .
1241(19) 0.0 0.0 .
1236(19) 0.0 0.0 .
1237(19) 0.0 0.0 .
1254(19) 0.0 0.0 .
1242(18) 0.0 0.0 .
1261(19) 0.0 0.0 .
1232(19) 0.0 0.0 .
1222(19) 0.0 0.0 .
1226(18) 0.0 0.0 .
1225(18) 0.0 0.0 .
1247(19) 0.0 0.0 .
1230(19) 0.0 0.0 .
1269(19) 0.0 0.0 .
1217(18) 0.0 0.0 .
1194(18) 0.0 0.0 .
1231(19) 0.0 0.0 .
1223(20) 0.0 0.0 .
1176(18) 0.0 0.0 .
1200(18) 0.0 0.0 .
1178(18) 0.0 0.0 .
1268(19) 0.0 0.0 .
1224(20) 0.0 0.0 .
1196(19) 0.0 0.0 .
1188(18) 0.0 0.0 .
1228(18) 0.0 0.0 .
1246(19) 0.0 0.0 .
1227(19) 0.0 0.0 .
1209(19) 0.0 0.0 .
1221(18) 0.0 0.0 .
1204(18) 0.0 0.0 .
1237(19) 0.0 0.0 .
1267(20) 0.0 0.0 .
1224(19) 0.0 0.0 .
1212(18) 0.0 0.0 .
1218(18) 0.0 0.0 .
1218(19) 0.0 0.0 .
1179(19) 0.0 0.0 .
1206(19) 0.0 0.0 .
1243(18) 0.0 0.0 .
1162(18) 0.0 0.0 .
1208(19) 0.0 0.0 .
1248(19) 0.0 0.0 .
1266(19) 0.0 0.0 .
1229(18) 0.0 0.0 .
1221(19) 0.0 0.0 .
1212(19) 0.0 0.0 .
1219(19) 0.0 0.0 .
1239(19) 0.0 0.0 .
1210(18) 0.0 0.0 .
1217(19) 0.0 0.0 .
1181(19) 0.0 0.0 .
1231(19) 0.0 0.0 .
1262(19) 0.0 0.0 .
1234(18) 0.0 0.0 .
1245(19) 0.0 0.0 .
1198(19) 0.0 0.0 .
1258(19) 0.0 0.0 .
1197(18) 0.0 0.0 .
1234(18) 0.0 0.0 .
1227(19) 0.0 0.0 .
1196(19) 0.0 0.0 .
1179(18) 0.0 0.0 .
1217(18) 0.0 0.0 .
1192(18) 0.0 0.0 .
1170(18) 0.0 0.0 .
1196(19) 0.0 0.0 .
1235(19) 0.0 0.0 .
1152(18) 0.0 0.0 .
1155(18) 0.0 0.0 .
1196(18) 0.0 0.0 .
1199(19) 0.0 0.0 .
1206(19) 0.0 0.0 .
1208(18) 0.0 0.0 .
1187(18) 0.0 0.0 .
1194(19) 0.0 0.0 .
1135(19) 0.0 0.0 .
1151(18) 0.0 0.0 .
1144(18) 0.0 0.0 .
1158(18) 0.0 0.0 .
1207(19) 0.0 0.0 .
1202(19) 0.0 0.0 .
1206(19) 0.0 0.0 .
1222(18) 0.0 0.0 .
1177(18) 0.0 0.0 .
1185(18) 0.0 0.0 .
1203(19) 0.0 0.0 .
1211(19) 0.0 0.0 .
1167(18) 0.0 0.0 .
1207(18) 0.0 0.0 .
1209(19) 0.0 0.0 .
1142(18) 0.0 0.0 .
1196(19) 0.0 0.0 .
1210(18) 0.0 0.0 .
1161(18) 0.0 0.0 .
1178(19) 0.0 0.0 .
1139(18) 0.0 0.0 .
1178(18) 0.0 0.0 .
1129(17) 0.0 0.0 .
1196(18) 0.0 0.0 .
1175(18) 0.0 0.0 .
1155(18) 0.0 0.0 .
1159(18) 0.0 0.0 .
1123(17) 0.0 0.0 .
1148(18) 0.0 0.0 .
1195(19) 0.0 0.0 .
1191(18) 0.0 0.0 .
1167(18) 0.0 0.0 .
1158(18) 0.0 0.0 .
1137(18) 0.0 0.0 .
1161(19) 0.0 0.0 .
1156(18) 0.0 0.0 .
1088(17) 0.0 0.0 .
1122(17) 0.0 0.0 .
1139(18) 0.0 0.0 .
1134(19) 0.0 0.0 .
1153(18) 0.0 0.0 .
1129(18) 0.0 0.0 .
1174(18) 0.0 0.0 .
1115(18) 0.0 0.0 .
1113(18) 0.0 0.0 .
1156(18) 0.0 0.0 .
1066(17) 0.0 0.0 .
1113(17) 0.0 0.0 .
1115(18) 0.0 0.0 .
1144(19) 0.0 0.0 .
1160(18) 0.0 0.0 .
1161(18) 0.0 0.0 .
1139(18) 0.0 0.0 .
1129(18) 0.0 0.0 .
1114(18) 0.0 0.0 .
1165(18) 0.0 0.0 .
1180(18) 0.0 0.0 .
1156(18) 0.0 0.0 .
1090(18) 0.0 0.0 .
1095(18) 0.0 0.0 .
1146(18) 0.0 0.0 .
1164(18) 0.0 0.0 .
1135(18) 0.0 0.0 .
1109(18) 0.0 0.0 .
1091(18) 0.0 0.0 .
1126(18) 0.0 0.0 .
1152(18) 0.0 0.0 .
1166(18) 0.0 0.0 .
1093(18) 0.0 0.0 .
1118(18) 0.0 0.0 .
1129(18) 0.0 0.0 .
1141(17) 0.0 0.0 .
1080(17) 0.0 0.0 .
1139(18) 0.0 0.0 .
1106(18) 0.0 0.0 .
1136(18) 0.0 0.0 .
1078(17) 0.0 0.0 .
1089(18) 0.0 0.0 .
1102(18) 0.0 0.0 .
1079(18) 0.0 0.0 .
1082(17) 0.0 0.0 .
1107(17) 0.0 0.0 .
1092(18) 0.0 0.0 .
1083(18) 0.0 0.0 .
1122(18) 0.0 0.0 .
1116(17) 0.0 0.0 .
1141(17) 0.0 0.0 .
1100(18) 0.0 0.0 .
1039(18) 0.0 0.0 .
1118(18) 0.0 0.0 .
1084(17) 0.0 0.0 .
1128(17) 0.0 0.0 .
1058(17) 0.0 0.0 .
1057(18) 0.0 0.0 .
1087(18) 0.0 0.0 .
1046(17) 0.0 0.0 .
1085(17) 0.0 0.0 .
1098(18) 0.0 0.0 .
1083(18) 0.0 0.0 .
1087(18) 0.0 0.0 .
1026(17) 0.0 0.0 .
1096(17) 0.0 0.0 .
1090(18) 0.0 0.0 .
1111(18) 0.0 0.0 .
1076(18) 0.0 0.0 .
1066(17) 0.0 0.0 .
1072(17) 0.0 0.0 .
1059(17) 0.0 0.0 .
1056(18) 0.0 0.0 .
1037(17) 0.0 0.0 .
1052(17) 0.0 0.0 .
1059(17) 0.0 0.0 .
1041(17) 0.0 0.0 .
1035(18) 0.0 0.0 .
1067(18) 0.0 0.0 .
1065(17) 0.0 0.0 .
1067(17) 0.0 0.0 .
1113(18) 0.0 0.0 .
1090(18) 0.0 0.0 .
1055(17) 0.0 0.0 .
1034(17) 0.0 0.0 .
1094(18) 0.0 0.0 .
1092(18) 0.0 0.0 .
1054(17) 0.0 0.0 .
1088(17) 0.0 0.0 .
1047(17) 0.0 0.0 .
1012(17) 0.0 0.0 .
1042(17) 0.0 0.0 .
1046(17) 0.0 0.0 .
997(17) 0.0 0.0 .
1058(17) 0.0 0.0 .
1087(18) 0.0 0.0 .
1057(18) 0.0 0.0 .
1065(17) 0.0 0.0 .
1039(17) 0.0 0.0 .
1009(16) 0.0 0.0 .
1027(17) 0.0 0.0 .
1091(18) 0.0 0.0 .
1053(17) 0.0 0.0 .
1050(17) 0.0 0.0 .
1045(17) 0.0 0.0 .
1063(17) 0.0 0.0 .
1033(18) 0.0 0.0 .
1042(17) 0.0 0.0 .
1068(17) 0.0 0.0 .
1021(17) 0.0 0.0 .
1098(18) 0.0 0.0 .
1030(18) 0.0 0.0 .
1038(17) 0.0 0.0 .
983(16) 0.0 0.0 .
996(16) 0.0 0.0 .
993(17) 0.0 0.0 .
1014(18) 0.0 0.0 .
1010(17) 0.0 0.0 .
1026(17) 0.0 0.0 .
1081(17) 0.0 0.0 .
1027(17) 0.0 0.0 .
1031(17) 0.0 0.0 .
1050(17) 0.0 0.0 .
1035(17) 0.0 0.0 .
991(17) 0.0 0.0 .
987(17) 0.0 0.0 .
985(17) 0.0 0.0 .
1010(17) 0.0 0.0 .
1041(17) 0.0 0.0 .
1016(17) 0.0 0.0 .
1027(17) 0.0 0.0 .
1046(18) 0.0 0.0 .
1023(17) 0.0 0.0 .
1034(17) 0.0 0.0 .
1060(17) 0.0 0.0 .
1030(17) 0.0 0.0 .
1023(17) 0.0 0.0 .
1033(17) 0.0 0.0 .
1036(17) 0.0 0.0 .
991(17) 0.0 0.0 .
1054(18) 0.0 0.0 .
1051(17) 0.0 0.0 .
1019(17) 0.0 0.0 .
993(16) 0.0 0.0 .
1039(17) 0.0 0.0 .
1023(17) 0.0 0.0 .
1010(17) 0.0 0.0 .
1005(17) 0.0 0.0 .
994(16) 0.0 0.0 .
1024(17) 0.0 0.0 .
1069(18) 0.0 0.0 .
991(17) 0.0 0.0 .
1012(17) 0.0 0.0 .
987(16) 0.0 0.0 .
971(17) 0.0 0.0 .
1016(18) 0.0 0.0 .
1043(17) 0.0 0.0 .
983(16) 0.0 0.0 .
1020(17) 0.0 0.0 .
979(17) 0.0 0.0 .
995(17) 0.0 0.0 .
999(17) 0.0 0.0 .
950(16) 0.0 0.0 .
989(16) 0.0 0.0 .
1013(17) 0.0 0.0 .
1004(17) 0.0 0.0 .
1031(17) 0.0 0.0 .
1033(17) 0.0 0.0 .
1005(16) 0.0 0.0 .
1003(17) 0.0 0.0 .
963(17) 0.0 0.0 .
1035(17) 0.0 0.0 .
981(16) 0.0 0.0 .
1012(17) 0.0 0.0 .
972(17) 0.0 0.0 .
964(17) 0.0 0.0 .
1023(17) 0.0 0.0 .
973(16) 0.0 0.0 .
975(16) 0.0 0.0 .
1000(17) 0.0 0.0 .
935(17) 0.0 0.0 .
953(16) 0.0 0.0 .
1014(17) 0.0 0.0 .
1044(17) 0.0 0.0 .
988(17) 0.0 0.0 .
989(17) 0.0 0.0 .
977(17) 0.0 0.0 .
1004(16) 0.0 0.0 .
961(16) 0.0 0.0 .
1012(17) 0.0 0.0 .
1002(17) 0.0 0.0 .
988(17) 0.0 0.0 .
981(16) 0.0 0.0 .
945(16) 0.0 0.0 .
978(17) 0.0 0.0 .
1009(17) 0.0 0.0 .
1007(17) 0.0 0.0 .
960(16) 0.0 0.0 .
993(17) 0.0 0.0 .
959(17) 0.0 0.0 .
968(17) 0.0 0.0 .
994(16) 0.0 0.0 .
963(16) 0.0 0.0 .
987(17) 0.0 0.0 .
931(17) 0.0 0.0 .
989(17) 0.0 0.0 .
965(16) 0.0 0.0 .
944(16) 0.0 0.0 .
1011(17) 0.0 0.0 .
957(17) 0.0 0.0 .
942(16) 0.0 0.0 .
986(16) 0.0 0.0 .
946(16) 0.0 0.0 .
981(17) 0.0 0.0 .
969(17) 0.0 0.0 .
940(16) 0.0 0.0 .
1006(16) 0.0 0.0 .
961(16) 0.0 0.0 .
932(16) 0.0 0.0 .
965(17) 0.0 0.0 .
922(16) 0.0 0.0 .
953(16) 0.0 0.0 .
997(17) 0.0 0.0 .
957(17) 0.0 0.0 .
962(17) 0.0 0.0 .
933(16) 0.0 0.0 .
937(16) 0.0 0.0 .
951(16) 0.0 0.0 .
930(16) 0.0 0.0 .
940(17) 0.0 0.0 .
922(16) 0.0 0.0 .
964(16) 0.0 0.0 .
915(16) 0.0 0.0 .
925(16) 0.0 0.0 .
929(17) 0.0 0.0 .
951(16) 0.0 0.0 .
931(16) 0.0 0.0 .
963(16) 0.0 0.0 .
947(17) 0.0 0.0 .
955(17) 0.0 0.0 .
1012(17) 0.0 0.0 .
919(16) 0.0 0.0 .
941(16) 0.0 0.0 .
946(17) 0.0 0.0 .
968(17) 0.0 0.0 .
926(16) 0.0 0.0 .
954(16) 0.0 0.0 .
936(16) 0.0 0.0 .
932(17) 0.0 0.0 .
925(16) 0.0 0.0 .
940(16) 0.0 0.0 .
908(16) 0.0 0.0 .
936(16) 0.0 0.0 .
981(17) 0.0 0.0 .
913(16) 0.0 0.0 .
915(16) 0.0 0.0 .
923(16) 0.0 0.0 .
950(17) 0.0 0.0 .
981(17) 0.0 0.0 .
959(16) 0.0 0.0 .
977(16) 0.0 0.0 .
956(16) 0.0 0.0 .
897(16) 0.0 0.0 .
912(17) 0.0 0.0 .
943(17) 0.0 0.0 .
892(16) 0.0 0.0 .
917(16) 0.0 0.0 .
933(16) 0.0 0.0 .
968(17) 0.0 0.0 .
877(16) 0.0 0.0 .
881(15) 0.0 0.0 .
926(16) 0.0 0.0 .
936(16) 0.0 0.0 .
923(17) 0.0 0.0 .
912(16) 0.0 0.0 .
922(16) 0.0 0.0 .
884(16) 0.0 0.0 .
889(16) 0.0 0.0 .
880(16) 0.0 0.0 .
897(16) 0.0 0.0 .
943(16) 0.0 0.0 .
928(16) 0.0 0.0 .
893(16) 0.0 0.0 .
890(16) 0.0 0.0 .
885(16) 0.0 0.0 .
922(16) 0.0 0.0 .
886(16) 0.0 0.0 .
944(17) 0.0 0.0 .
907(16) 0.0 0.0 .
943(16) 0.0 0.0 .
918(16) 0.0 0.0 .
928(16) 0.0 0.0 .
898(16) 0.0 0.0 .
922(16) 0.0 0.0 .
941(16) 0.0 0.0 .
909(16) 0.0 0.0 .
859(16) 0.0 0.0 .
897(16) 0.0 0.0 .
867(16) 0.0 0.0 .
863(15) 0.0 0.0 .
912(16) 0.0 0.0 .
887(16) 0.0 0.0 .
889(16) 0.0 0.0 .
892(16) 0.0 0.0 .
864(15) 0.0 0.0 .
900(16) 0.0 0.0 .
890(16) 0.0 0.0 .
899(17) 0.0 0.0 .
904(16) 0.0 0.0 .
916(16) 0.0 0.0 .
864(15) 0.0 0.0 .
910(16) 0.0 0.0 .
925(17) 0.0 0.0 .
883(16) 0.0 0.0 .
872(15) 0.0 0.0 .
847(15) 0.0 0.0 .
877(16) 0.0 0.0 .
904(17) 0.0 0.0 .
889(16) 0.0 0.0 .
898(16) 0.0 0.0 .
861(15) 0.0 0.0 .
895(16) 0.0 0.0 .
874(16) 0.0 0.0 .
855(16) 0.0 0.0 .
889(15) 0.0 0.0 .
913(16) 0.0 0.0 .
872(16) 0.0 0.0 .
884(16) 0.0 0.0 .
888(16) 0.0 0.0 .
894(16) 0.0 0.0 .
877(16) 0.0 0.0 .
870(16) 0.0 0.0 .
866(16) 0.0 0.0 .
896(16) 0.0 0.0 .
867(15) 0.0 0.0 .
882(16) 0.0 0.0 .
873(16) 0.0 0.0 .
836(15) 0.0 0.0 .
894(16) 0.0 0.0 .
888(15) 0.0 0.0 .
839(16) 0.0 0.0 .
865(16) 0.0 0.0 .
884(16) 0.0 0.0 .
899(16) 0.0 0.0 .
868(15) 0.0 0.0 .
845(16) 0.0 0.0 .
870(16) 0.0 0.0 .
828(15) 0.0 0.0 .
844(15) 0.0 0.0 .
844(15) 0.0 0.0 .
897(16) 0.0 0.0 .
802(15) 0.0 0.0 .
848(16) 0.0 0.0 .
829(15) 0.0 0.0 .
868(15) 0.0 0.0 .
861(16) 0.0 0.0 .
862(16) 0.0 0.0 .
839(16) 0.0 0.0 .
844(15) 0.0 0.0 .
816(15) 0.0 0.0 .
880(16) 0.0 0.0 .
851(16) 0.0 0.0 .
810(15) 0.0 0.0 .
861(15) 0.0 0.0 .
881(15) 0.0 0.0 .
855(16) 0.0 0.0 .
813(16) 0.0 0.0 .
855(16) 0.0 0.0 .
825(15) 0.0 0.0 .
833(15) 0.0 0.0 .
878(16) 0.0 0.0 .
821(16) 0.0 0.0 .
827(15) 0.0 0.0 .
812(15) 0.0 0.0 .
823(15) 0.0 0.0 .
848(16) 0.0 0.0 .
834(16) 0.0 0.0 .
864(16) 0.0 0.0 .
830(15) 0.0 0.0 .
855(15) 0.0 0.0 .
822(15) 0.0 0.0 .
832(16) 0.0 0.0 .
812(15) 0.0 0.0 .
796(15) 0.0 0.0 .
814(15) 0.0 0.0 .
798(15) 0.0 0.0 .
819(16) 0.0 0.0 .
825(15) 0.0 0.0 .
836(15) 0.0 0.0 .
843(15) 0.0 0.0 .
795(15) 0.0 0.0 .
833(16) 0.0 0.0 .
838(15) 0.0 0.0 .
745(14) 0.0 0.0 .
834(16) 0.0 0.0 .
825(16) 0.0 0.0 .
812(15) 0.0 0.0 .
856(16) 0.0 0.0 .
797(15) 0.0 0.0 .
822(16) 0.0 0.0 .
779(15) 0.0 0.0 .
823(16) 0.0 0.0 .
803(15) 0.0 0.0 .
818(15) 0.0 0.0 .
763(15) 0.0 0.0 .
807(15) 0.0 0.0 .
794(15) 0.0 0.0 .
805(15) 0.0 0.0 .
784(15) 0.0 0.0 .
824(16) 0.0 0.0 .
799(16) 0.0 0.0 .
784(15) 0.0 0.0 .
785(15) 0.0 0.0 .
799(15) 0.0 0.0 .
825(15) 0.0 0.0 .
793(16) 0.0 0.0 .
795(15) 0.0 0.0 .
784(15) 0.0 0.0 .
744(14) 0.0 0.0 .
781(15) 0.0 0.0 .
805(16) 0.0 0.0 .
819(16) 0.0 0.0 .
808(15) 0.0 0.0 .
825(15) 0.0 0.0 .
783(15) 0.0 0.0 .
802(16) 0.0 0.0 .
836(16) 0.0 0.0 .
772(14) 0.0 0.0 .
789(15) 0.0 0.0 .
790(15) 0.0 0.0 .
782(15) 0.0 0.0 .
823(16) 0.0 0.0 .
765(14) 0.0 0.0 .
764(15) 0.0 0.0 .
796(15) 0.0 0.0 .
818(16) 0.0 0.0 .
786(15) 0.0 0.0 .
794(15) 0.0 0.0 .
843(15) 0.0 0.0 .
791(15) 0.0 0.0 .
791(15) 0.0 0.0 .
813(15) 0.0 0.0 .
762(14) 0.0 0.0 .
785(15) 0.0 0.0 .
802(15) 0.0 0.0 .
781(15) 0.0 0.0 .
735(14) 0.0 0.0 .
765(14) 0.0 0.0 .
840(16) 0.0 0.0 .
815(15) 0.0 0.0 .
776(15) 0.0 0.0 .
780(15) 0.0 0.0 .
740(14) 0.0 0.0 .
746(15) 0.0 0.0 .
813(16) 0.0 0.0 .
760(15) 0.0 0.0 .
758(14) 0.0 0.0 .
787(15) 0.0 0.0 .
826(15) 0.0 0.0 .
742(15) 0.0 0.0 .
746(15) 0.0 0.0 .
768(14) 0.0 0.0 .
808(15) 0.0 0.0 .
821(15) 0.0 0.0 .
756(15) 0.0 0.0 .
784(15) 0.0 0.0 .
766(14) 0.0 0.0 .
757(14) 0.0 0.0 .
771(15) 0.0 0.0 .
761(15) 0.0 0.0 .
780(15) 0.0 0.0 .
785(15) 0.0 0.0 .
753(14) 0.0 0.0 .
771(15) 0.0 0.0 .
770(15) 0.0 0.0 .
770(15) 0.0 0.0 .
721(14) 0.0 0.0 .
740(14) 0.0 0.0 .
751(15) 0.0 0.0 .
785(15) 0.0 0.0 .
777(15) 0.0 0.0 .
775(14) 0.0 0.0 .
783(15) 0.0 0.0 .
766(15) 0.0 0.0 .
820(16) 0.0 0.0 .
742(14) 0.0 0.0 .
808(15) 0.0 0.0 .
749(14) 0.0 0.0 .
733(15) 0.0 0.0 .
735(15) 0.0 0.0 .
771(15) 0.0 0.0 .
760(14) 0.0 0.0 .
739(14) 0.0 0.0 .
789(15) 0.0 0.0 .
760(15) 0.0 0.0 .
741(14) 0.0 0.0 .
748(14) 0.0 0.0 .
745(15) 0.0 0.0 .
772(15) 0.0 0.0 .
749(15) 0.0 0.0 .
758(15) 0.0 0.0 .
747(14) 0.0 0.0 .
763(15) 0.0 0.0 .
763(15) 0.0 0.0 .
758(15) 0.0 0.0 .
743(14) 0.0 0.0 .
769(14) 0.0 0.0 .
727(14) 0.0 0.0 .
792(16) 0.0 0.0 .
717(14) 0.0 0.0 .
729(14) 0.0 0.0 .
729(14) 0.0 0.0 .
725(14) 0.0 0.0 .
724(15) 0.0 0.0 .
749(15) 0.0 0.0 .
762(14) 0.0 0.0 .
732(14) 0.0 0.0 .
733(14) 0.0 0.0 .
758(15) 0.0 0.0 .
754(15) 0.0 0.0 .
725(14) 0.0 0.0 .
735(14) 0.0 0.0 .
743(15) 0.0 0.0 .
685(14) 0.0 0.0 .
757(15) 0.0 0.0 .
730(14) 0.0 0.0 .
751(14) 0.0 0.0 .
774(15) 0.0 0.0 .
724(15) 0.0 0.0 .
735(15) 0.0 0.0 .
727(14) 0.0 0.0 .
737(14) 0.0 0.0 .
719(14) 0.0 0.0 .
713(15) 0.0 0.0 .
751(15) 0.0 0.0 .
741(14) 0.0 0.0 .
729(14) 0.0 0.0 .
773(15) 0.0 0.0 .
743(15) 0.0 0.0 .
724(14) 0.0 0.0 .
723(14) 0.0 0.0 .
740(15) 0.0 0.0 .
757(15) 0.0 0.0 .
717(14) 0.0 0.0 .
737(14) 0.0 0.0 .
713(14) 0.0 0.0 .
719(14) 0.0 0.0 .
745(15) 0.0 0.0 .
748(15) 0.0 0.0 .
729(14) 0.0 0.0 .
705(14) 0.0 0.0 .
754(15) 0.0 0.0 .
744(15) 0.0 0.0 .
719(14) 0.0 0.0 .
745(14) 0.0 0.0 .
712(14) 0.0 0.0 .
726(14) 0.0 0.0 .
748(15) 0.0 0.0 .
712(14) 0.0 0.0 .
727(14) 0.0 0.0 .
720(14) 0.0 0.0 .
713(14) 0.0 0.0 .
712(15) 0.0 0.0 .
693(14) 0.0 0.0 .
723(14) 0.0 0.0 .
705(14) 0.0 0.0 .
704(14) 0.0 0.0 .
709(15) 0.0 0.0 .
687(14) 0.0 0.0 .
729(14) 0.0 0.0 .
698(14) 0.0 0.0 .
724(15) 0.0 0.0 .
750(15) 0.0 0.0 .
726(14) 0.0 0.0 .
732(14) 0.0 0.0 .
732(14) 0.0 0.0 .
749(15) 0.0 0.0 .
722(15) 0.0 0.0 .
699(14) 0.0 0.0 .
703(14) 0.0 0.0 .
713(14) 0.0 0.0 .
739(15) 0.0 0.0 .
667(14) 0.0 0.0 .
723(14) 0.0 0.0 .
694(14) 0.0 0.0 .
725(14) 0.0 0.0 .
703(14) 0.0 0.0 .
695(14) 0.0 0.0 .
716(14) 0.0 0.0 .
670(13) 0.0 0.0 .
697(14) 0.0 0.0 .
741(15) 0.0 0.0 .
735(15) 0.0 0.0 .
698(14) 0.0 0.0 .
709(14) 0.0 0.0 .
727(14) 0.0 0.0 .
718(15) 0.0 0.0 .
696(14) 0.0 0.0 .
737(14) 0.0 0.0 .
697(14) 0.0 0.0 .
707(14) 0.0 0.0 .
696(15) 0.0 0.0 .
687(14) 0.0 0.0 .
732(14) 0.0 0.0 .
658(13) 0.0 0.0 .
684(14) 0.0 0.0 .
696(15) 0.0 0.0 .
694(14) 0.0 0.0 .
708(14) 0.0 0.0 .
706(14) 0.0 0.0 .
682(14) 0.0 0.0 .
700(15) 0.0 0.0 .
690(14) 0.0 0.0 .
716(14) 0.0 0.0 .
724(14) 0.0 0.0 .
695(14) 0.0 0.0 .
712(15) 0.0 0.0 .
706(14) 0.0 0.0 .
700(14) 0.0 0.0 .
705(14) 0.0 0.0 .
699(14) 0.0 0.0 .
701(15) 0.0 0.0 .
755(15) 0.0 0.0 .
686(14) 0.0 0.0 .
684(14) 0.0 0.0 .
695(14) 0.0 0.0 .
712(15) 0.0 0.0 .
735(14) 0.0 0.0 .
750(14) 0.0 0.0 .
693(14) 0.0 0.0 .
666(14) 0.0 0.0 .
692(14) 0.0 0.0 .
667(14) 0.0 0.0 .
716(14) 0.0 0.0 .
694(14) 0.0 0.0 .
729(14) 0.0 0.0 .
687(14) 0.0 0.0 .
708(14) 0.0 0.0 .
695(14) 0.0 0.0 .
699(14) 0.0 0.0 .
704(14) 0.0 0.0 .
697(14) 0.0 0.0 .
701(14) 0.0 0.0 .
719(14) 0.0 0.0 .
703(14) 0.0 0.0 .
679(14) 0.0 0.0 .
702(14) 0.0 0.0 .
684(14) 0.0 0.0 .
729(14) 0.0 0.0 .
721(15) 0.0 0.0 .
672(14) 0.0 0.0 .
690(14) 0.0 0.0 .
682(14) 0.0 0.0 .
721(14) 0.0 0.0 .
687(14) 0.0 0.0 .
686(14) 0.0 0.0 .
669(14) 0.0 0.0 .
682(14) 0.0 0.0 .
727(14) 0.0 0.0 .
702(14) 0.0 0.0 .
681(14) 0.0 0.0 .
695(14) 0.0 0.0 .
671(13) 0.0 0.0 .
693(14) 0.0 0.0 .
698(14) 0.0 0.0 .
692(15) 0.0 0.0 .
735(15) 0.0 0.0 .
703(14) 0.0 0.0 .
680(14) 0.0 0.0 .
665(14) 0.0 0.0 .
675(14) 0.0 0.0 .
683(14) 0.0 0.0 .
653(13) 0.0 0.0 .
666(13) 0.0 0.0 .
704(14) 0.0 0.0 .
705(15) 0.0 0.0 .
732(15) 0.0 0.0 .
693(14) 0.0 0.0 .
652(13) 0.0 0.0 .
683(14) 0.0 0.0 .
693(14) 0.0 0.0 .
690(14) 0.0 0.0 .
663(13) 0.0 0.0 .
668(14) 0.0 0.0 .
687(14) 0.0 0.0 .
716(15) 0.0 0.0 .
679(14) 0.0 0.0 .
642(13) 0.0 0.0 .
687(14) 0.0 0.0 .
680(14) 0.0 0.0 .
704(14) 0.0 0.0 .
689(14) 0.0 0.0 .
704(14) 0.0 0.0 .
663(14) 0.0 0.0 .
634(14) 0.0 0.0 .
691(14) 0.0 0.0 .
680(14) 0.0 0.0 .
669(13) 0.0 0.0 .
728(15) 0.0 0.0 .
667(14) 0.0 0.0 .
661(14) 0.0 0.0 .
661(14) 0.0 0.0 .
684(14) 0.0 0.0 .
704(14) 0.0 0.0 .
713(15) 0.0 0.0 .
681(14) 0.0 0.0 .
705(14) 0.0 0.0 .
669(13) 0.0 0.0 .
651(13) 0.0 0.0 .
704(14) 0.0 0.0 .
680(14) 0.0 0.0 .
685(14) 0.0 0.0 .
690(14) 0.0 0.0 .
683(14) 0.0 0.0 .
671(15) 0.0 0.0 .
667(14) 0.0 0.0 .
665(13) 0.0 0.0 .
672(13) 0.0 0.0 .
693(14) 0.0 0.0 .
663(14) 0.0 0.0 .
711(14) 0.0 0.0 .
683(14) 0.0 0.0 .
677(14) 0.0 0.0 .
666(14) 0.0 0.0 .
677(14) 0.0 0.0 .
660(14) 0.0 0.0 .
660(13) 0.0 0.0 .
705(14) 0.0 0.0 .
685(14) 0.0 0.0 .
702(14) 0.0 0.0 .
700(14) 0.0 0.0 .
704(14) 0.0 0.0 .
722(14) 0.0 0.0 .
684(14) 0.0 0.0 .
686(14) 0.0 0.0 .
659(14) 0.0 0.0 .
705(14) 0.0 0.0 .
685(14) 0.0 0.0 .
681(14) 0.0 0.0 .
674(14) 0.0 0.0 .
683(14) 0.0 0.0 .
670(13) 0.0 0.0 .
694(14) 0.0 0.0 .
688(14) 0.0 0.0 .
674(14) 0.0 0.0 .
666(14) 0.0 0.0 .
695(14) 0.0 0.0 .
642(14) 0.0 0.0 .
678(14) 0.0 0.0 .
688(14) 0.0 0.0 .
663(14) 0.0 0.0 .
704(14) 0.0 0.0 .
686(14) 0.0 0.0 .
667(14) 0.0 0.0 .
669(14) 0.0 0.0 .
665(13) 0.0 0.0 .
721(14) 0.0 0.0 .
657(14) 0.0 0.0 .
696(15) 0.0 0.0 .
662(14) 0.0 0.0 .
715(14) 0.0 0.0 .
683(14) 0.0 0.0 .
657(14) 0.0 0.0 .
671(14) 0.0 0.0 .
690(14) 0.0 0.0 .
726(14) 0.0 0.0 .
686(14) 0.0 0.0 .
720(14) 0.0 0.0 .
685(14) 0.0 0.0 .
676(14) 0.0 0.0 .
684(13) 0.0 0.0 .
675(14) 0.0 0.0 .
724(15) 0.0 0.0 .
684(14) 0.0 0.0 .
682(14) 0.0 0.0 .
670(13) 0.0 0.0 .
700(14) 0.0 0.0 .
713(14) 0.0 0.0 .
705(15) 0.0 0.0 .
701(14) 0.0 0.0 .
695(14) 0.0 0.0 .
707(14) 0.0 0.0 .
713(15) 0.0 0.0 .
706(15) 0.0 0.0 .
676(14) 0.0 0.0 .
683(14) 0.0 0.0 .
688(14) 0.0 0.0 .
710(15) 0.0 0.0 .
749(15) 0.0 0.0 .
718(14) 0.0 0.0 .
696(14) 0.0 0.0 .
721(14) 0.0 0.0 .
711(14) 0.0 0.0 .
700(14) 0.0 0.0 .
670(14) 0.0 0.0 .
720(14) 0.0 0.0 .
687(14) 0.0 0.0 .
734(15) 0.0 0.0 .
697(14) 0.0 0.0 .
676(14) 0.0 0.0 .
683(14) 0.0 0.0 .
661(14) 0.0 0.0 .
693(14) 0.0 0.0 .
720(14) 0.0 0.0 .
738(14) 0.0 0.0 .
726(14) 0.0 0.0 .
721(14) 0.0 0.0 .
740(15) 0.0 0.0 .
715(14) 0.0 0.0 .
739(14) 0.0 0.0 .
727(14) 0.0 0.0 .
723(15) 0.0 0.0 .
701(15) 0.0 0.0 .
731(15) 0.0 0.0 .
708(14) 0.0 0.0 .
733(14) 0.0 0.0 .
730(14) 0.0 0.0 .
759(15) 0.0 0.0 .
756(15) 0.0 0.0 .
745(14) 0.0 0.0 .
752(14) 0.0 0.0 .
739(15) 0.0 0.0 .
749(15) 0.0 0.0 .
750(15) 0.0 0.0 .
758(14) 0.0 0.0 .
769(14) 0.0 0.0 .
774(15) 0.0 0.0 .
794(15) 0.0 0.0 .
762(15) 0.0 0.0 .
787(15) 0.0 0.0 .
793(15) 0.0 0.0 .
790(15) 0.0 0.0 .
761(15) 0.0 0.0 .
795(15) 0.0 0.0 .
832(15) 0.0 0.0 .
811(15) 0.0 0.0 .
811(15) 0.0 0.0 .
831(16) 0.0 0.0 .
850(16) 0.0 0.0 .
834(15) 0.0 0.0 .
836(15) 0.0 0.0 .
850(16) 0.0 0.0 .
868(16) 0.0 0.0 .
894(16) 0.0 0.0 .
893(15) 0.0 0.0 .
889(16) 0.0 0.0 .
903(16) 0.0 0.0 .
923(16) 0.0 0.0 .
983(16) 0.0 0.0 .
948(16) 0.0 0.0 .
983(17) 0.0 0.0 .
972(17) 0.0 0.0 .
1070(18) 0.0 0.0 .
1029(17) 0.0 0.0 .
1057(17) 0.0 0.0 .
1085(18) 0.0 0.0 .
1094(18) 0.0 0.0 .
1135(18) 0.0 0.0 .
1200(18) 0.0 0.0 .
1223(18) 0.0 0.0 .
1320(20) 0.0 0.0 .
1367(20) 0.0 0.0 .
1431(20) 0.0 0.0 .
1636(21) 0.0 0.0 .
1762(22) 0.0 0.0 .
1852(23) 0.0 0.0 .
2095(25) 0.0 0.0 .
2404(26) 0.0 0.0 .
2834(28) 0.0 0.0 .
3410(30) 0.0 0.0 .
4226(35) 0.0 0.0 .
5167(40) 0.0 0. .
6497(44) 0.0 0. .
8101(47) 0.0 0. .
9722(52) 0.0 0. .
11820(59) 0.0 0. .
14125(66) 0.0 0. .
16614(71) 0.0 0. .
19178(73) 0.0 0. .
21836(79) 0.0 0. .
24341(85) 0.0 0. .
26633(91) 0.0 0. .
29413(95) 0.0 0. .
32528(96) 0.0 0. .
36510(100) 0.0 0. .
41520(110) 0.0 0. .
47800(120) 0.0 0. .
55120(130) 0.0 0. .
64780(140) 0.0 0. .
75540(150) 0.0 0. .
85440(170) 0.0 0. .
89440(170) 0.0 0. .
82460(160) 0.0 0. .
67930(140) 0.0 0. .
51610(130) 0.0 0. .
37980(110) 0.0 0. .
27848(92) 0.0 0. .
20888(77) 0.0 0. .
15674(66) 0.0 0. .
12180(60) 0.0 0. .
9727(54) 0.0 0. .
8113(49) 0.0 0. .
6842(43) 0.0 0. .
5875(40) 0.0 0. .
4910(38) 0.0 0. .
4366(36) 0.0 0. .
3837(33) 0.0 0.0 .
3383(30) 0.0 0.0 .
3153(29) 0.0 0.0 .
2898(29) 0.0 0.0 .
2672(29) 0.0 0.0 .
2404(26) 0.0 0.0 .
2184(24) 0.0 0.0 .
2079(24) 0.0 0.0 .
1902(23) 0.0 0.0 .
1802(24) 0.0 0.0 .
1735(22) 0.0 0.0 .
1641(21) 0.0 0.0 .
1499(20) 0.0 0.0 .
1450(20) 0.0 0.0 .
1367(20) 0.0 0.0 .
1323(19) 0.0 0.0 .
1291(19) 0.0 0.0 .
1242(18) 0.0 0.0 .
1243(19) 0.0 0.0 .
1154(19) 0.0 0.0 .
1134(18) 0.0 0.0 .
1079(17) 0.0 0.0 .
1039(17) 0.0 0.0 .
985(17) 0.0 0.0 .
1016(17) 0.0 0.0 .
1006(17) 0.0 0.0 .
958(16) 0.0 0.0 .
954(16) 0.0 0.0 .
949(17) 0.0 0.0 .
867(16) 0.0 0.0 .
881(16) 0.0 0.0 .
883(15) 0.0 0.0 .
825(15) 0.0 0.0 .
866(16) 0.0 0.0 .
881(16) 0.0 0.0 .
829(15) 0.0 0.0 .
884(15) 0.0 0.0 .
804(15) 0.0 0.0 .
845(16) 0.0 0.0 .
801(15) 0.0 0.0 .
808(15) 0.0 0.0 .
812(15) 0.0 0.0 .
786(15) 0.0 0.0 .
781(15) 0.0 0.0 .
757(15) 0.0 0.0 .
731(14) 0.0 0.0 .
770(14) 0.0 0.0 .
725(14) 0.0 0.0 .
738(15) 0.0 0.0 .
768(15) 0.0 0.0 .
757(14) 0.0 0.0 .
796(15) 0.0 0.0 .
756(15) 0.0 0.0 .
756(15) 0.0 0.0 .
751(15) 0.0 0.0 .
716(14) 0.0 0.0 .
743(14) 0.0 0.0 .
731(15) 0.0 0.0 .
709(15) 0.0 0.0 .
683(14) 0.0 0.0 .
723(14) 0.0 0.0 .
694(14) 0.0 0.0 .
691(14) 0.0 0.0 .
685(14) 0.0 0.0 .
713(14) 0.0 0.0 .
667(13) 0.0 0.0 .
700(14) 0.0 0.0 .
695(14) 0.0 0.0 .
704(15) 0.0 0.0 .
716(14) 0.0 0.0 .
665(13) 0.0 0.0 .
714(14) 0.0 0.0 .
658(14) 0.0 0.0 .
668(14) 0.0 0.0 .
697(14) 0.0 0.0 .
687(14) 0.0 0.0 .
657(13) 0.0 0.0 .
656(14) 0.0 0.0 .
666(14) 0.0 0.0 .
663(14) 0.0 0.0 .
691(14) 0.0 0.0 .
697(14) 0.0 0.0 .
713(14) 0.0 0.0 .
692(14) 0.0 0.0 .
670(14) 0.0 0.0 .
693(14) 0.0 0.0 .
677(14) 0.0 0.0 .
674(14) 0.0 0.0 .
650(14) 0.0 0.0 .
645(13) 0.0 0.0 .
623(13) 0.0 0.0 .
703(14) 0.0 0.0 .
693(14) 0.0 0.0 .
661(14) 0.0 0.0 .
661(14) 0.0 0.0 .
664(13) 0.0 0.0 .
668(14) 0.0 0.0 .
657(14) 0.0 0.0 .
667(14) 0.0 0.0 .
671(14) 0.0 0.0 .
639(13) 0.0 0.0 .
657(14) 0.0 0.0 .
687(14) 0.0 0.0 .
648(14) 0.00515 635.8 62.8
637(13) 0.00553 635.6 61.7
651(13) 0.00541 635.2 60.7
617(13) 0.00550 634.7 59.7
644(14) 0.00490 634.2 58.7
632(13) 0.00531 633.8 57.8
629(13) 0.00567 633.3 56.9
678(14) 0.00518 632.8 0.0
629(13) 0.00538 632.4 0.0
666(14) 0.00468 631.9 0.0
668(14) 0.00494 631.5 0.0
639(13) 0.00552 631.0 0.0
609(13) 0.00577 630.5 0.0
615(13) 0.00534 630.1 0.0
641(14) 0.00482 629.6 0.0
623(13) 0.00540 629.1 0.0
645(13) 0.00551 628.7 0.0
600(13) 0.00576 628.2 0.0
609(13) 0.00536 627.8 0.0
634(14) 0.00493 627.3 0.0
666(14) 0.00487 626.8 0.0
595(13) 0.00592 626.4 0.0
622(13) 0.00549 625.9 0.0
656(14) 0.00499 625.4 0.0
602(13) 0.00531 625.0 0.0
639(14) 0.00515 624.5 0.0
619(13) 0.00568 624.1 0.0
615(13) 0.00567 623.6 0.0
610(13) 0.00535 623.1 0.0
600(13) 0.00537 622.7 0.0
607(13) 0.00557 622.2 0.0
637(13) 0.00557 621.7 0.0
639(13) 0.00528 621.3 0.0
634(14) 0.00516 620.8 0.0
631(13) 0.00524 620.4 0.0
609(13) 0.00547 619.9 0.0
623(13) 0.00572 619.4 0.0
616(13) 0.00550 619.0 0.0
623(14) 0.00518 618.5 0.0
610(13) 0.00544 618.0 0.0
621(13) 0.00557 617.6 0.0
617(13) 0.00567 617.1 0.0
627(14) 0.00520 616.7 0.0
595(13) 0.00547 616.2 0.0
603(13) 0.00547 615.7 0.0
633(13) 0.00543 615.3 0.0
634(13) 0.00559 614.8 0.0
624(13) 0.00530 614.3 0.0
602(13) 0.00533 613.9 0.0
627(13) 0.00532 613.4 0.0
609(13) 0.00578 613.0 0.0
605(13) 0.00585 612.5 0.0
607(13) 0.00556 612.0 0.0
604(14) 0.00521 611.6 0.0
619(14) 0.00522 611.1 0.0
612(13) 0.00568 610.6 0.0
626(13) 0.00567 610.2 0.0
583(13) 0.00570 609.7 0.0
604(14) 0.00511 609.3 0.0
588(13) 0.00569 608.8 0.0
612(13) 0.00578 608.3 0.0
607(13) 0.00573 607.9 0.0
595(13) 0.00563 607.4 0.0
578(13) 0.00549 606.9 0.0
606(13) 0.00547 606.5 0.0
625(13) 0.00565 606.0 0.0
604(13) 0.00576 605.6 0.0
624(13) 0.00542 605.1 0.0
607(14) 0.00513 604.6 0.0
592(13) 0.00560 604.2 0.0
619(13) 0.00575 603.7 0.0
596(13) 0.00572 603.2 0.0
617(13) 0.00531 602.8 0.0
614(14) 0.00521 602.3 0.0
568(13) 0.00569 601.9 0.0
615(13) 0.00576 601.4 0.0
638(13) 0.00535 600.9 0.0
620(13) 0.00529 600.5 0.0
569(13) 0.00585 600.0 0.0
640(14) 0.00508 599.5 0.0
614(13) 0.00578 599.1 0.0
599(13) 0.00570 598.6 0.0
590(13) 0.00556 598.2 0.0
623(14) 0.00516 597.7 0.0
582(13) 0.00587 597.2 0.0
608(13) 0.00580 596.8 0.0
611(13) 0.00542 596.3 0.0
574(13) 0.00562 595.8 0.8
609(13) 0.00536 595.4 0.8
633(13) 0.00543 594.9 0.8
583(12) 0.00605 594.4 0.8
613(13) 0.00535 594.0 0.8
554(13) 0.00587 593.5 0.9
596(13) 0.00542 593.1 0.9
583(13) 0.00597 592.6 0.9
597(13) 0.00590 592.1 0.9
589(13) 0.00574 591.7 0.9
596(13) 0.00531 591.2 0.9
618(13) 0.00529 590.7 0.9
611(13) 0.00566 590.3 1.0
593(13) 0.00588 589.8 1.0
605(13) 0.00562 589.4 1.0
629(14) 0.00500 588.9 1.0
620(13) 0.00540 588.4 1.0
583(12) 0.00606 588.0 1.1
611(13) 0.00577 587.5 1.1
636(14) 0.00520 587.0 1.1
596(14) 0.00521 586.6 1.1
580(13) 0.00568 586.1 1.1
587(13) 0.00600 585.7 1.2
581(12) 0.00605 585.2 1.2
591(13) 0.00568 584.7 1.2
599(14) 0.00522 584.3 1.2
591(13) 0.00557 583.8 1.2
558(12) 0.00628 583.3 1.3
569(12) 0.00613 582.9 1.3
597(13) 0.00554 582.4 1.3
564(13) 0.00570 582.0 1.4
585(13) 0.00566 581.5 1.4
568(12) 0.00614 581.0 1.4
589(13) 0.00586 580.6 1.4
608(13) 0.00546 580.1 1.5
571(13) 0.00567 579.6 1.5
585(13) 0.00567 579.5 1.5
587(13) 0.00597 579.3 1.6
597(13) 0.00580 579.2 1.6
576(13) 0.00580 579.1 1.6
617(14) 0.00511 578.9 1.7
600(13) 0.00562 578.8 1.7
605(13) 0.00586 578.7 1.8
601(13) 0.00555 578.5 1.8
582(13) 0.00571 578.4 1.9
598(13) 0.00552 578.3 1.9
588(13) 0.00571 578.1 1.9
583(12) 0.00606 578.0 2.0
553(12) 0.00618 577.9 2.0
578(13) 0.00550 577.7 2.1
603(13) 0.00529 577.6 2.2
621(13) 0.00550 577.5 2.2
570(12) 0.00620 577.3 2.3
578(13) 0.00562 577.2 2.3
579(13) 0.00542 577.0 2.4
517(12) 0.00651 576.9 2.5
527(12) 0.00646 576.8 2.5
598(13) 0.00594 576.6 2.6
579(13) 0.00543 576.5 2.7
578(13) 0.00539 576.4 2.8
543(12) 0.00617 576.2 2.9
594(13) 0.00579 576.1 2.9
545(12) 0.00641 576.0 3.0
583(13) 0.00572 575.8 3.1
597(13) 0.00523 575.7 3.2
605(13) 0.00548 575.6 3.3
589(13) 0.00587 575.4 3.5
575(12) 0.00623 575.3 3.6
565(13) 0.00590 575.2 3.7
564(13) 0.00555 575.0 3.8
579(13) 0.00586 574.9 4.0
579(12) 0.00610 574.8 4.1
585(13) 0.00601 574.6 4.3
577(13) 0.00586 574.5 4.4
579(13) 0.00525 574.4 4.6
573(13) 0.00571 574.2 4.8
586(13) 0.00598 574.1 5.0
608(13) 0.00571 574.0 5.2
563(13) 0.00589 573.8 5.4
582(13) 0.00542 573.7 5.6
603(13) 0.00551 573.6 5.9
596(13) 0.00592 573.4 6.1
585(13) 0.00582 573.3 6.4
574(13) 0.00572 573.2 6.7
574(13) 0.00545 573.0 7.0
557(13) 0.00592 572.9 7.3
524(12) 0.00671 572.8 7.7
578(13) 0.00589 572.6 8.1
581(13) 0.00557 572.5 8.5
581(13) 0.00558 572.4 9.0
590(13) 0.00564 572.2 9.5
591(13) 0.00597 572.1 10.0
593(13) 0.00579 572.0 10.6
568(13) 0.00584 571.8 11.3
598(13) 0.00543 571.7 12.0
616(13) 0.00540 571.6 12.7
615(13) 0.00576 571.4 13.6
580(13) 0.00585 571.3 14.5
609(13) 0.00528 571.2 15.5
570(13) 0.00580 571.0 16.7
604(13) 0.00556 570.9 17.9
591(13) 0.00599 570.8 19.3
620(13) 0.00529 570.6 20.9
624(14) 0.00512 570.5 22.7
606(13) 0.00537 570.4 24.7
597(13) 0.00587 570.2 27.0
653(13) 0.00544 570.1 29.6
650(14) 0.00517 570.0 32.6
673(14) 0.00473 569.8 36.1
662(14) 0.00496 569.7 40.3
642(13) 0.00536 569.6 45.3
724(14) 0.00492 569.4 51.4
707(14) 0.00473 569.3 59.3
734(15) 0.00432 569.1 69.7
771(15) 0.00426 569.0 84.0
827(15) 0.00427 568.9 103.9
837(15) 0.00429 568.7 131.9
893(16) 0.00379 568.6 170.9
926(17) 0.003347 568.5 224.0
929(16) 0.00362 568.3 294.0
990(16) 0.00362 568.2 382.2
1011(16) 0.00357 568.1 488.1
1100(18) 0.003060 567.9 607.4
1146(19) 0.002746 567.8 731.2
1231(19) 0.002827 567.7 844.1
1303(19) 0.002753 567.5 924.0
1311(19) 0.002744 567.4 950.0
1325(19) 0.002643 567.3 913.9
1306(20) 0.002447 567.1 826.8
1215(19) 0.002753 567.0 710.7
1017(17) 0.00356 566.9 586.7
900(16) 0.00394 566.7 469.2
827(16) 0.00400 566.6 366.1
749(15) 0.00428 566.5 281.0
703(14) 0.00475 566.3 214.0
642(13) 0.00549 566.2 163.5
619(13) 0.00561 566.1 126.5
630(14) 0.00511 565.9 100.1
580(13) 0.00563 565.8 81.3
583(13) 0.00571 565.7 67.7
585(13) 0.00604 565.5 57.8
588(13) 0.00589 565.4 50.3
595(13) 0.00552 565.3 44.3
603(13) 0.00530 565.1 39.5
609(13) 0.00547 565.0 35.5
592(13) 0.00593 564.9 32.1
583(13) 0.00571 564.7 29.1
581(13) 0.00550 564.6 26.6
562(13) 0.00576 564.5 24.3
577(13) 0.00564 564.3 22.4
594(13) 0.00599 564.2 20.6
576(13) 0.00566 564.1 19.1
543(13) 0.00595 563.9 17.7
550(13) 0.00591 563.8 16.5
540(12) 0.00633 563.7 15.3
564(12) 0.00626 563.5 14.3
599(13) 0.00532 563.4 13.4
592(13) 0.00532 563.3 12.6
545(12) 0.00614 563.1 11.8
574(13) 0.00595 563.0 11.2
543(12) 0.00648 562.9 10.5
574(13) 0.00596 562.7 9.9
558(13) 0.00569 562.6 9.4
580(13) 0.00568 562.5 8.9
607(13) 0.00573 562.3 8.5
548(12) 0.00646 562.2 8.0
576(13) 0.00575 562.1 7.7
593(13) 0.00525 561.9 7.3
590(13) 0.00563 561.8 7.0
545(12) 0.00647 561.7 6.6
556(12) 0.00636 561.5 6.3
586(13) 0.00561 561.4 6.1
581(13) 0.00529 561.3 5.8
588(13) 0.00569 561.1 5.6
544(12) 0.00626 561.0 5.3
601(13) 0.00577 560.8 5.1
560(13) 0.00589 560.7 4.9
567(13) 0.00542 560.6 4.7
560(13) 0.00599 560.4 4.6
571(12) 0.00618 560.3 4.4
570(12) 0.00608 560.2 4.2
585(13) 0.00567 560.0 4.1
565(13) 0.00582 559.9 3.9
536(12) 0.00614 559.8 3.8
521(12) 0.00670 559.6 3.7
549(12) 0.00627 559.5 3.6
585(13) 0.00562 559.4 3.4
563(13) 0.00561 559.2 3.3
543(12) 0.00615 559.1 3.2
556(12) 0.00628 559.0 3.1
537(12) 0.00633 558.8 3.0
564(13) 0.00588 558.7 2.9
555(13) 0.00578 558.6 2.8
563(13) 0.00593 558.4 2.8
584(12) 0.00610 558.3 2.7
555(13) 0.00597 558.2 2.6
571(13) 0.00569 558.0 2.5
554(13) 0.00598 557.9 2.5
570(13) 0.00587 557.8 2.4
568(12) 0.00620 557.6 2.3
550(12) 0.00617 557.5 2.3
587(13) 0.00542 557.4 2.2
553(13) 0.00591 557.2 2.1
517(12) 0.00639 557.1 2.1
593(13) 0.00593 557.0 2.0
588(13) 0.00551 556.8 2.0
555(13) 0.00572 556.7 1.9
553(13) 0.00593 556.6 1.9
576(13) 0.00596 556.4 1.8
560(12) 0.00626 556.3 1.8
559(13) 0.00588 556.2 1.8
584(13) 0.00530 556.0 1.7
571(13) 0.00570 555.9 1.7
576(13) 0.00598 555.8 1.6
530(12) 0.00659 555.7 1.6
592(13) 0.00546 555.6 1.6
542(13) 0.00573 555.4 1.5
570(13) 0.00585 555.3 1.5
579(13) 0.00602 555.2 1.5
562(12) 0.00625 555.1 1.4
552(13) 0.00597 555.0 1.4
549(13) 0.00563 554.9 1.4
562(13) 0.00581 554.8 1.3
566(12) 0.00623 554.7 1.3
549(12) 0.00634 554.6 1.3
580(13) 0.00557 554.5 1.3
558(13) 0.00548 554.4 1.2
536(12) 0.00612 554.3 1.2
538(12) 0.00646 554.2 1.2
551(12) 0.00632 554.1 1.2
542(12) 0.00623 554.0 1.1
552(13) 0.00559 553.9 1.1
544(13) 0.00597 553.8 1.1
555(12) 0.00628 553.7 1.1
557(12) 0.00618 553.6 1.1
549(12) 0.00605 553.5 1.0
574(13) 0.00552 553.4 1.0
569(13) 0.00590 553.3 1.0
567(12) 0.00619 553.2 1.0
535(12) 0.00631 553.1 1.0
561(13) 0.00598 553.0 1.0
586(13) 0.00545 552.9 0.9
587(13) 0.00557 552.8 0.9
579(12) 0.00610 552.7 0.9
558(12) 0.00605 552.6 0.9
564(13) 0.00561 552.5 0.9
557(13) 0.00578 552.4 0.9
600(13) 0.00549 552.3 0.9
544(12) 0.00644 552.2 0.8
554(13) 0.00597 552.1 0.8
543(13) 0.00594 552.0 0.8
554(13) 0.00587 551.9 0.8
561(13) 0.00598 551.8 0.0
540(12) 0.00653 551.6 0.0
560(13) 0.00572 551.5 0.0
521(12) 0.00625 551.4 0.0
544(13) 0.00588 551.3 0.0
516(12) 0.00660 551.2 0.0
552(12) 0.00633 551.1 0.0
576(13) 0.00581 551.0 0.0
573(13) 0.00551 550.9 0.0
528(12) 0.00633 550.8 0.0
564(12) 0.00609 550.7 0.0
540(12) 0.00650 550.6 0.0
552(12) 0.00606 550.5 0.0
548(13) 0.00588 550.4 0.0
584(13) 0.00568 550.3 0.0
574(12) 0.00605 550.2 0.0
577(12) 0.00608 550.1 0.0
547(12) 0.00609 550.0 0.0
556(13) 0.00559 549.9 0.0
543(12) 0.00611 549.8 0.0
561(12) 0.00622 549.7 0.0
586(13) 0.00603 549.6 0.0
521(12) 0.00636 549.5 0.0
551(13) 0.00550 549.4 0.0
579(13) 0.00566 549.3 0.0
533(12) 0.00656 549.2 0.0
541(12) 0.00640 549.1 0.0
557(13) 0.00593 549.0 0.0
560(13) 0.00556 548.9 0.0
546(13) 0.00594 548.8 0.0
552(12) 0.00632 548.7 0.0
575(13) 0.00593 548.6 0.0
554(13) 0.00601 548.5 0.0
530(13) 0.00588 548.4 0.0
550(13) 0.00579 548.3 0.0
514(12) 0.00673 548.2 0.0
547(12) 0.00624 548.1 0.0
556(13) 0.00584 548.0 0.0
541(13) 0.00592 547.9 0.0
576(13) 0.00557 547.7 0.0
511(12) 0.00680 547.6 0.0
548(12) 0.00608 547.5 0.0
533(12) 0.00606 547.4 0.0
535(13) 0.00593 547.3 0.0
532(12) 0.00618 547.2 0.0
527(12) 0.00672 547.1 0.0
554(13) 0.00603 547.0 0.0
567(13) 0.00575 546.9 0.0
556(13) 0.00595 546.8 0.0
533(12) 0.00632 546.7 0.0
553(12) 0.00634 546.6 0.0
545(12) 0.00610 546.5 0.0
547(13) 0.00581 546.4 0.0
530(13) 0.00602 546.3 0.0
580(13) 0.00586 546.2 0.0
569(12) 0.00619 546.1 0.0
568(13) 0.00571 546.0 0.0
508(12) 0.00640 545.9 0.0
595(13) 0.00551 545.8 0.0
556(12) 0.00619 545.7 0.0
497(12) 0.00703 545.6 0.0
538(13) 0.00604 545.5 0.0
553(13) 0.00552 545.4 0.0
549(13) 0.00602 545.3 0.0
559(12) 0.00621 545.2 0.0
547(12) 0.00641 545.1 0.0
578(13) 0.00588 545.0 0.0
553(13) 0.00585 544.9 0.0
539(12) 0.00606 544.8 0.0
556(12) 0.00625 544.7 0.0
556(12) 0.00638 544.6 0.0
568(13) 0.00584 544.5 0.0
554(13) 0.00553 544.4 0.0
531(12) 0.00628 544.3 0.0
560(12) 0.00619 544.2 0.0
558(12) 0.00624 544.1 0.0
548(12) 0.00629 543.9 0.0
561(13) 0.00561 543.8 0.0
538(12) 0.00617 543.7 0.0
574(12) 0.00611 543.6 0.0
559(12) 0.00614 543.5 0.0
530(12) 0.00626 543.4 0.0
538(13) 0.00598 543.4 0.0
561(13) 0.00597 543.4 0.0
554(12) 0.00635 543.4 0.0
578(13) 0.00590 543.4 0.0
549(13) 0.00591 543.4 0.0
554(13) 0.00571 543.4 0.0
555(13) 0.00584 543.4 0.0
538(12) 0.00646 543.4 0.0
528(12) 0.00652 543.4 0.0
555(13) 0.00585 543.4 0.0
554(13) 0.00585 543.4 0.0
543(12) 0.00617 543.4 0.0
545(12) 0.00646 543.4 0.0
515(12) 0.00641 543.4 0.0
523(13) 0.00605 543.4 0.0
546(13) 0.00591 543.4 0.0
557(13) 0.00587 543.4 0.0
521(12) 0.00670 543.4 0.0
556(13) 0.00588 543.4 0.0
539(13) 0.00602 543.5 0.0
557(13) 0.00589 543.5 0.0
543(12) 0.00616 543.5 0.0
541(12) 0.00646 543.5 0.0
565(13) 0.00569 543.5 0.0
522(12) 0.00620 543.5 0.0
538(12) 0.00610 543.5 0.0
496(12) 0.00700 543.5 0.0
549(12) 0.00628 543.5 0.0
566(13) 0.00574 543.5 0.0
535(13) 0.00596 543.5 0.0
522(12) 0.00642 543.5 0.0
573(12) 0.00607 543.5 0.0
570(12) 0.00610 543.5 0.0
565(13) 0.00581 543.5 0.0
554(13) 0.00564 543.5 0.0
551(13) 0.00597 543.5 0.0
549(12) 0.00617 543.5 0.0
555(12) 0.00634 543.6 0.0
553(13) 0.00578 543.6 0.0
531(13) 0.00547 543.6 0.0
510(12) 0.00637 543.6 0.0
542(12) 0.00639 543.6 0.0
577(13) 0.00599 543.6 0.0
534(12) 0.00614 543.6 0.0
559(13) 0.00541 543.6 0.0
537(12) 0.00608 543.6 0.0
544(12) 0.00643 543.6 0.0
574(12) 0.00607 543.6 0.0
534(12) 0.00621 543.6 0.0
536(13) 0.00582 543.6 0.0
539(12) 0.00609 543.6 0.0
560(12) 0.00628 543.6 0.0
543(12) 0.00636 543.6 0.0
591(13) 0.00557 543.6 0.0
593(13) 0.00538 543.6 0.0
586(13) 0.00559 543.6 0.0
538(12) 0.00650 543.7 0.0
561(12) 0.00614 543.7 0.0
565(13) 0.00597 543.7 0.0
551(13) 0.00583 543.7 0.0
552(13) 0.00586 543.7 0.0
534(12) 0.00662 543.7 0.0
567(13) 0.00586 543.7 0.0
527(12) 0.00624 543.7 0.0
545(13) 0.00590 543.7 0.0
545(12) 0.00608 543.7 0.0
550(12) 0.00639 543.7 0.0
515(12) 0.00636 543.7 0.0
561(13) 0.00571 543.7 0.0
542(13) 0.00589 543.7 0.0
562(12) 0.00607 543.7 0.0
563(12) 0.00622 543.7 0.0
559(13) 0.00573 543.7 0.0
562(13) 0.00564 543.7 0.0
541(13) 0.00600 543.8 0.0
536(12) 0.00647 543.8 0.0
558(12) 0.00632 543.8 0.0
559(13) 0.00595 543.8 0.0
569(13) 0.00559 543.8 0.0
547(13) 0.00602 543.8 0.0
550(12) 0.00630 543.8 0.0
531(12) 0.00664 543.8 0.0
569(13) 0.00569 543.8 0.0
566(13) 0.00550 543.8 0.0
543(12) 0.00618 543.8 0.0
545(12) 0.00637 543.8 0.0
525(12) 0.00668 543.8 0.0
537(12) 0.00609 543.8 0.0
508(12) 0.00609 543.8 0.0
541(12) 0.00614 543.8 0.0
555(12) 0.00633 543.8 0.0
557(12) 0.00630 543.8 0.0
535(12) 0.00624 543.9 0.0
529(13) 0.00595 543.9 0.0
570(13) 0.00584 543.9 0.0
531(12) 0.00659 543.9 0.0
547(12) 0.00645 543.9 0.0
559(13) 0.00602 543.9 0.0
547(13) 0.00572 543.9 0.0
572(13) 0.00573 543.9 0.0
559(12) 0.00633 543.9 0.0
537(12) 0.00643 543.9 0.0
527(12) 0.00617 543.9 0.0
574(13) 0.00542 543.9 0.0
527(12) 0.00615 543.9 0.0
550(12) 0.00642 543.9 0.0
518(12) 0.00659 543.9 0.0
534(12) 0.00616 543.9 0.0
568(13) 0.00563 543.9 0.0
522(12) 0.00617 543.9 0.0
531(12) 0.00661 543.9 0.0
542(12) 0.00626 544.0 0.0
561(13) 0.00581 544.0 0.0
561(13) 0.00579 544.0 0.0
556(13) 0.00596 544.0 0.0
548(12) 0.00637 544.0 0.0
596(13) 0.00556 544.0 0.0
579(13) 0.00558 544.0 0.0
524(12) 0.00637 544.0 0.0
544(12) 0.00613 544.0 0.0
545(12) 0.00644 544.0 0.0
542(12) 0.00610 544.0 0.0
541(13) 0.00595 544.0 0.0
533(12) 0.00624 544.0 0.0
568(13) 0.00605 544.0 0.0
579(12) 0.00606 544.0 0.0
541(13) 0.00598 544.0 0.0
542(13) 0.00590 544.0 0.0
547(13) 0.00601 544.0 0.0
533(12) 0.00646 544.1 0.0
560(12) 0.00624 544.1 0.0
534(13) 0.00600 544.1 0.0
540(13) 0.00593 544.1 0.0
572(13) 0.00590 544.1 0.0
606(13) 0.00578 544.1 0.0
558(12) 0.00628 544.1 0.0
523(12) 0.00640 544.1 0.0
545(13) 0.00564 544.1 0.0
540(12) 0.00609 544.1 0.0
563(12) 0.00619 544.1 0.0
560(12) 0.00624 544.1 0.0
544(13) 0.00602 544.1 0.0
533(13) 0.00570 544.1 0.0
561(13) 0.00572 544.1 0.0
494(11) 0.00709 544.1 0.0
538(12) 0.00636 544.1 0.0
537(12) 0.00620 544.1 0.0
540(13) 0.00576 544.1 0.0
532(12) 0.00627 544.2 0.0
551(12) 0.00638 544.2 0.0
532(12) 0.00650 544.2 0.0
524(12) 0.00634 544.2 0.0
548(13) 0.00566 544.2 0.0
526(12) 0.00625 544.2 0.0
574(12) 0.00611 544.2 0.0
567(12) 0.00609 544.2 0.0
545(12) 0.00606 544.2 0.0
545(13) 0.00585 544.2 0.0
553(12) 0.00607 544.2 0.0
556(12) 0.00634 544.2 0.0
519(12) 0.00670 544.2 0.0
578(13) 0.00554 544.2 0.0
570(13) 0.00568 544.2 0.0
532(12) 0.00627 544.2 0.0
551(12) 0.00640 544.2 0.0
568(13) 0.00586 544.2 0.0
541(12) 0.00608 544.3 0.0
581(13) 0.00554 544.3 0.0
521(12) 0.00653 544.3 0.0
524(12) 0.00673 544.3 0.0
569(13) 0.00568 544.3 0.0
548(13) 0.00580 544.3 0.0
564(13) 0.00561 544.3 0.0
541(12) 0.00621 544.3 0.0
547(12) 0.00638 544.3 0.0
570(13) 0.00586 544.3 0.0
559(13) 0.00571 544.4 0.0
562(13) 0.00572 544.4 0.0
559(12) 0.00616 544.5 0.0
580(12) 0.00611 544.6 0.0
541(12) 0.00605 544.6 0.0
533(13) 0.00593 544.7 0.0
527(12) 0.00622 544.7 0.0
516(12) 0.00663 544.8 0.0
548(12) 0.00635 544.9 0.0
530(12) 0.00612 544.9 0.0
561(13) 0.00541 545.0 0.0
517(12) 0.00632 545.1 0.0
554(12) 0.00633 545.1 0.0
536(12) 0.00639 545.2 0.0
541(13) 0.00597 545.2 0.0
522(13) 0.00604 545.3 0.0
537(12) 0.00616 545.4 0.0
533(12) 0.00644 545.4 0.0
560(12) 0.00627 545.5 0.0
581(13) 0.00565 545.6 0.0
551(13) 0.00554 545.6 0.0
552(13) 0.00587 545.7 0.0
563(12) 0.00627 545.7 0.0
576(12) 0.00606 545.8 0.0
538(13) 0.00595 545.9 0.0
553(13) 0.00549 545.9 0.0
527(12) 0.00621 546.0 0.0
543(12) 0.00644 546.1 0.0
543(12) 0.00635 546.1 0.0
519(12) 0.00641 546.2 0.0
559(13) 0.00554 546.2 0.0
530(12) 0.00619 546.3 0.0
557(12) 0.00627 546.4 0.0
566(13) 0.00591 546.4 0.0
562(13) 0.00574 546.5 0.0
568(13) 0.00552 546.6 0.0
569(13) 0.00581 546.6 0.0
582(12) 0.00607 546.7 0.0
576(13) 0.00582 546.7 0.0
553(13) 0.00596 546.8 0.0
552(13) 0.00591 546.9 0.0
584(13) 0.00565 546.9 0.0
562(12) 0.00627 547.0 0.0
541(13) 0.00605 547.1 0.0
553(13) 0.00572 547.1 0.0
561(13) 0.00586 547.2 0.0
529(12) 0.00620 547.2 0.0
558(12) 0.00631 547.3 0.0
558(13) 0.00593 547.4 0.0
563(13) 0.00583 547.4 0.0
573(13) 0.00574 547.5 0.0
578(13) 0.00594 547.6 0.0
562(12) 0.00626 547.6 0.0
532(12) 0.00632 547.7 0.0
566(13) 0.00555 547.7 0.0
535(12) 0.00613 547.8 0.0
552(12) 0.00628 547.9 0.0
530(12) 0.00658 547.9 0.0
596(13) 0.00549 548.0 0.0
533(13) 0.00592 548.1 0.0
545(12) 0.00606 548.1 0.0
557(12) 0.00617 548.2 0.0
533(12) 0.00655 548.2 0.0
565(13) 0.00578 548.3 0.0
578(13) 0.00527 548.4 0.0
571(13) 0.00576 548.4 0.0
556(12) 0.00620 548.5 0.0
574(12) 0.00614 548.6 0.0
584(13) 0.00563 548.6 0.0
554(13) 0.00565 548.7 0.0
561(13) 0.00595 548.7 0.0
599(13) 0.00588 548.8 0.0
576(13) 0.00605 548.9 0.0
553(13) 0.00577 548.9 0.0
545(13) 0.00568 549.0 0.0
553(12) 0.00607 549.1 0.0
579(13) 0.00603 549.1 0.0
567(13) 0.00604 549.2 0.0
561(13) 0.00572 549.2 0.0
562(13) 0.00551 549.3 0.0
561(13) 0.00583 549.4 0.0
631(13) 0.00564 549.4 0.0
587(13) 0.00586 549.5 0.0
547(13) 0.00603 549.6 0.0
563(13) 0.00576 549.6 0.0
569(13) 0.00589 549.7 0.0
575(12) 0.00611 549.7 0.0
565(13) 0.00596 549.8 0.0
567(13) 0.00582 549.9 0.0
571(13) 0.00576 549.9 0.0
578(13) 0.00577 550.0 0.0
579(12) 0.00609 550.1 0.0
575(13) 0.00581 550.1 0.0
545(13) 0.00594 550.2 0.0
585(13) 0.00547 550.2 0.0
539(12) 0.00628 550.3 0.0
547(12) 0.00642 550.4 0.0
578(13) 0.00556 550.4 0.0
567(13) 0.00561 550.5 0.0
565(13) 0.00585 550.6 0.0
572(13) 0.00591 550.6 0.0
572(12) 0.00618 550.7 0.0
596(13) 0.00549 550.7 0.0
576(13) 0.00545 550.8 0.0
577(13) 0.00584 550.9 0.0
573(13) 0.00593 550.9 0.0
546(12) 0.00645 551.0 0.0
562(13) 0.00593 551.1 0.0
592(13) 0.00529 551.1 0.0
565(13) 0.00594 551.2 0.0
596(13) 0.00581 551.2 0.0
570(12) 0.00628 551.3 0.0
548(13) 0.00600 551.4 0.0
574(13) 0.00529 551.4 0.0
567(13) 0.00589 551.5 0.0
550(12) 0.00634 551.6 0.0
544(12) 0.00644 551.6 0.0
554(13) 0.00591 551.7 0.0
560(13) 0.00551 551.7 0.0
565(13) 0.00593 551.8 0.0
578(13) 0.00603 551.9 0.0
577(13) 0.00598 551.9 0.0
550(12) 0.00607 552.0 0.0
568(13) 0.00542 552.0 0.0
548(13) 0.00603 552.1 0.0
551(12) 0.00641 552.2 0.0
570(13) 0.00602 552.2 0.0
575(13) 0.00579 552.3 0.0
569(13) 0.00577 552.4 0.0
549(12) 0.00611 552.4 0.0
566(12) 0.00617 552.5 0.0
555(12) 0.00619 552.5 0.0
555(13) 0.00577 552.6 0.1
530(13) 0.00603 552.7 0.1
529(12) 0.00609 552.7 0.1
559(12) 0.00628 552.8 0.1
568(13) 0.00602 552.9 0.1
584(13) 0.00554 552.9 0.1
536(12) 0.00614 553.0 0.1
551(12) 0.00610 553.0 0.1
583(12) 0.00607 553.1 0.1
552(12) 0.00615 553.2 0.1
561(13) 0.00575 553.2 0.1
564(13) 0.00586 553.3 0.1
559(12) 0.00606 553.4 0.1
566(12) 0.00625 553.4 0.1
552(13) 0.00597 553.5 0.1
588(13) 0.00541 553.5 0.1
567(13) 0.00597 553.6 0.1
572(13) 0.00599 553.7 0.1
581(12) 0.00606 553.7 0.1
546(13) 0.00598 553.8 0.1
532(13) 0.00603 553.9 0.1
540(12) 0.00610 553.9 0.1
557(12) 0.00609 554.0 0.1
561(12) 0.00630 554.0 0.1
551(13) 0.00600 554.1 0.1
554(13) 0.00562 554.2 0.1
540(12) 0.00617 554.2 0.1
545(12) 0.00635 554.3 0.1
569(12) 0.00621 554.4 0.1
539(12) 0.00619 554.4 0.1
568(13) 0.00534 554.5 0.2
575(13) 0.00578 554.5 0.2
568(12) 0.00609 554.6 0.2
579(12) 0.00610 554.7 0.2
526(12) 0.00639 554.7 0.2
553(13) 0.00546 554.8 0.2
540(13) 0.00597 554.9 0.2
573(12) 0.00616 554.9 0.2
578(13) 0.00604 555.0 0.2
586(13) 0.00573 555.0 0.3
591(14) 0.00515 555.1 0.3
519(12) 0.00630 555.2 0.3
568(12) 0.00610 555.2 0.3
551(12) 0.00624 555.3 0.3
561(13) 0.00588 555.4 0.4
584(13) 0.00536 555.4 0.4
562(13) 0.00583 555.5 0.4
582(13) 0.00596 555.5 0.5
549(12) 0.00632 555.6 0.5
568(13) 0.00570 555.7 0.6
554(13) 0.00574 555.7 0.7
574(13) 0.00580 555.8 0.8
586(13) 0.00597 555.9 0.9
573(13) 0.00591 555.9 1.0
549(13) 0.00596 556.0 1.1
563(13) 0.00580 556.0 1.2
557(12) 0.00610 556.1 1.4
583(12) 0.00608 556.2 1.5
555(13) 0.00586 556.2 1.7
567(13) 0.00564 556.3 1.9
557(13) 0.00568 556.4 2.1
559(13) 0.00602 556.4 2.3
581(12) 0.00607 556.5 2.6
576(13) 0.00568 556.5 2.8
569(13) 0.00579 556.6 3.0
560(13) 0.00583 556.7 3.2
570(13) 0.00594 556.7 3.3
528(12) 0.00663 556.8 3.4
543(13) 0.00603 556.9 3.4
549(13) 0.00586 556.9 3.4
535(12) 0.00612 557.0 3.4
573(13) 0.00602 557.0 3.2
593(13) 0.00599 557.1 3.1
558(13) 0.00588 557.2 2.9
595(13) 0.00532 557.2 2.7
555(13) 0.00600 557.3 2.5
555(12) 0.00623 557.4 2.2
568(12) 0.00620 557.4 2.0
567(13) 0.00589 557.5 1.8
553(13) 0.00544 557.5 1.6
540(12) 0.00607 557.6 1.5
572(12) 0.00609 557.7 1.3
570(12) 0.00615 557.7 1.2
580(13) 0.00574 557.8 1.0
588(14) 0.00501 557.9 0.9
536(13) 0.00604 557.9 0.8
543(12) 0.00645 558.0 0.7
564(12) 0.00617 558.0 0.6
599(13) 0.00550 558.1 0.6
565(13) 0.00548 558.2 0.5
558(13) 0.00589 558.2 0.5
547(12) 0.00634 558.3 0.4
568(12) 0.00616 558.4 0.4
556(13) 0.00591 558.4 0.4
562(13) 0.00551 558.5 0.3
530(12) 0.00621 558.5 0.3
572(12) 0.00619 558.6 0.3
569(12) 0.00609 558.7 0.3
567(13) 0.00584 558.7 0.2
535(12) 0.00607 558.8 0.2
571(13) 0.00579 558.9 0.2
584(13) 0.00603 558.9 0.2
561(13) 0.00603 559.0 0.2
577(13) 0.00565 559.0 0.2
603(13) 0.00534 559.1 0.2
587(13) 0.00575 559.2 0.2
566(12) 0.00626 559.2 0.2
569(13) 0.00597 559.3 0.2
574(13) 0.00564 559.4 0.1
544(13) 0.00596 559.4 0.1
560(13) 0.00595 559.5 0.1
567(12) 0.00615 559.5 0.1
562(13) 0.00584 559.8 0.1
565(13) 0.00571 560.0 0.1
572(13) 0.00595 560.3 0.1
537(12) 0.00630 560.5 0.1
526(12) 0.00663 560.8 0.1
555(13) 0.00593 561.0 0.1
593(13) 0.00529 561.3 0.1
571(13) 0.00571 561.5 0.1
566(13) 0.00600 561.8 0.1
560(12) 0.00631 562.1 0.1
582(13) 0.00560 562.3 0.1
583(13) 0.00539 562.6 0.1
572(13) 0.00570 562.8 0.1
570(12) 0.00611 563.1 0.1
574(12) 0.00615 563.3 0.1
581(13) 0.00578 563.6 0.1
615(14) 0.00505 563.8 0.1
551(12) 0.00613 564.1 0.1
577(13) 0.00603 564.3 0.1
578(12) 0.00609 564.6 0.1
585(13) 0.00555 564.9 0.1
570(13) 0.00546 565.1 0.1
574(13) 0.00580 565.4 0.1
586(13) 0.00585 565.6 0.1
563(12) 0.00629 565.9 0.1
581(13) 0.00577 566.1 0.0
575(13) 0.00546 566.4 0.0
578(13) 0.00566 566.6 0.0
567(12) 0.00617 566.9 0.0
551(12) 0.00635 567.1 0.0
562(13) 0.00589 567.4 0.0
575(13) 0.00542 567.7 0.0
564(13) 0.00584 567.9 0.0
567(12) 0.00624 568.2 0.0
591(13) 0.00584 568.4 0.0
561(13) 0.00584 568.7 0.0
554(13) 0.00584 568.9 0.0
563(13) 0.00581 569.2 0.0
578(12) 0.00615 569.4 0.0
582(13) 0.00578 569.7 0.0
592(13) 0.00538 569.9 0.0
584(13) 0.00540 570.2 0.0
561(13) 0.00588 570.5 0.0
597(13) 0.00592 570.7 0.0
600(13) 0.00548 571.0 6.9
571(13) 0.00562 571.2 7.0
568(13) 0.00563 571.5 7.1
566(13) 0.00583 571.7 7.2
547(12) 0.00643 572.0 7.3
576(13) 0.00583 572.2 7.5
586(13) 0.00543 572.5 7.6
605(13) 0.00531 572.7 7.7
571(13) 0.00592 573.0 7.8
597(13) 0.00587 573.3 8.0
617(13) 0.00535 573.5 8.1
577(13) 0.00565 573.8 8.2
616(13) 0.00536 574.0 8.4
562(12) 0.00610 574.3 8.5
583(13) 0.00603 574.5 8.7
581(13) 0.00562 574.8 8.8
553(13) 0.00578 575.0 9.0
553(13) 0.00604 575.3 9.2
573(13) 0.00604 575.5 9.3
573(12) 0.00617 575.8 9.5
604(13) 0.00536 576.1 9.7
586(13) 0.00531 576.3 9.9
602(13) 0.00539 576.6 10.0
553(12) 0.00627 576.8 10.2
563(12) 0.00628 577.1 10.4
537(12) 0.00625 577.3 10.6
566(13) 0.00544 577.6 10.9
593(13) 0.00535 577.8 11.1
592(13) 0.00595 578.1 11.3
576(13) 0.00602 578.3 11.5
567(13) 0.00588 578.6 11.8
578(13) 0.00537 578.8 12.0
570(13) 0.00578 579.1 12.3
558(12) 0.00634 579.4 12.5
585(13) 0.00598 579.6 12.8
593(13) 0.00549 579.9 13.1
579(13) 0.00535 580.1 13.4
587(13) 0.00567 580.4 13.7
578(12) 0.00611 580.6 14.0
573(12) 0.00608 580.9 14.3
588(13) 0.00564 581.1 14.6
576(13) 0.00548 581.4 15.0
586(13) 0.00558 581.6 15.3
581(13) 0.00605 581.9 15.7
571(12) 0.00606 582.2 16.1
555(13) 0.00604 582.4 16.5
601(13) 0.00539 582.7 16.9
580(13) 0.00581 582.9 17.3
602(13) 0.00585 583.2 17.7
589(13) 0.00575 583.4 18.2
602(13) 0.00528 583.7 18.7
581(13) 0.00547 583.9 19.2
605(13) 0.00544 584.2 19.7
563(12) 0.00623 584.4 20.2
580(13) 0.00587 584.7 20.8
579(13) 0.00578 585.0 21.4
645(14) 0.00501 585.2 22.0
617(13) 0.00551 585.5 22.6
609(13) 0.00584 585.7 23.2
588(13) 0.00565 586.0 23.9
623(14) 0.00510 586.2 24.7
621(13) 0.00530 586.5 25.4
610(13) 0.00567 586.7 26.2
609(13) 0.00580 587.0 27.0
588(13) 0.00567 587.2 27.9
575(13) 0.00561 587.5 28.8
577(13) 0.00585 587.8 29.7
594(13) 0.00580 588.0 30.7
613(13) 0.00571 588.3 31.8
587(13) 0.00551 588.5 32.9
583(13) 0.00543 588.8 34.0
605(13) 0.00544 589.0 35.3
605(13) 0.00560 589.3 36.6
599(13) 0.00591 589.5 37.9
605(13) 0.00553 589.8 39.4
629(14) 0.00486 590.0 40.9
625(13) 0.00535 590.3 42.5
599(13) 0.00587 590.6 44.2
603(13) 0.00587 590.8 46.0
606(13) 0.00541 591.1 48.0
598(14) 0.00520 591.3 50.0
614(13) 0.00551 591.6 52.2
619(13) 0.00576 591.8 54.6
626(13) 0.00561 592.1 57.1
594(13) 0.00549 592.3 59.7
622(14) 0.00500 592.6 62.6
608(13) 0.00544 592.8 65.7
610(13) 0.00580 593.1 69.0
631(13) 0.00548 593.4 72.5
609(13) 0.00543 593.6 76.4
608(14) 0.00509 593.9 80.5
630(14) 0.00519 594.1 85.0
628(13) 0.00568 594.4 89.9
621(13) 0.00551 594.6 95.2
650(14) 0.00516 594.9 101.1
637(14) 0.00515 595.1 107.4
659(14) 0.00508 595.4 114.4
664(13) 0.00530 595.6 122.0
630(13) 0.00546 595.9 130.5
642(14) 0.00505 596.2 139.8
670(14) 0.00478 596.4 150.2
691(14) 0.00488 596.7 161.7
680(14) 0.00518 596.9 174.6
660(14) 0.00520 597.2 189.2
667(14) 0.00494 597.4 205.6
707(14) 0.00471 597.7 224.1
758(15) 0.00452 597.9 245.3
767(14) 0.00468 598.2 269.6
808(15) 0.00413 598.4 297.6
807(15) 0.00406 598.7 330.2
850(16) 0.00387 599.0 368.3
882(16) 0.00393 599.2 413.7
965(16) 0.00372 599.5 468.5
1099(18) 0.003048 599.7 536.6
1211(19) 0.002679 600.0 624.5
1413(20) 0.002347 600.2 743.0
1769(22) 0.001975 600.5 910.1
2185(24) 0.001672 600.7 1153.1
2665(28) 0.001294 601.0 1510.9
3276(32) 0.000993 601.2 2031.4
4033(34) 0.000844 601.5 2764.9
4834(37) 0.000737 602. 3753.
5587(39) 0.000659 602. 5006.
6608(44) 0.000515 602. 6489.
7669(49) 0.000421 603. 8083.
9152(52) 0.000372 603. 9557.
10855(55) 0.0003304 603. 10565.
12059(57) 0.0003024 603. 10768.
11894(59) 0.0002838 604. 10087.
10084(56) 0.0003132 604. 8773.
8006(48) 0.000432 604. 7197.
6022(40) 0.000611 604. 5644.
4455(35) 0.000810 604.6 4280.1
3332(31) 0.001042 604.8 3172.5
2762(29) 0.001169 605.1 2329.2
2319(26) 0.001486 605.3 1719.9
1924(23) 0.001891 605.6 1295.9
1662(21) 0.002150 605.8 1007.1
1451(21) 0.002313 606.1 810.1
1309(20) 0.002466 606.3 672.7
1176(18) 0.002873 606.6 572.9
1120(17) 0.003251 606.8 496.9
1044(17) 0.003394 607.1 436.8
962(17) 0.00353 607.4 387.6
943(17) 0.003417 607.6 346.4
893(16) 0.00376 607.9 311.5
849(15) 0.00420 608.1 281.6
819(15) 0.00425 608.4 255.7
801(15) 0.00418 608.6 233.2
777(15) 0.00423 608.9 213.6
783(15) 0.00426 609.1 196.2
748(14) 0.00477 609.4 180.9
739(15) 0.00454 609.6 167.3
712(14) 0.00467 609.9 155.2
718(14) 0.00459 610.2 144.3
751(15) 0.00451 610.4 134.5
703(14) 0.00511 610.7 125.7
695(14) 0.00489 610.9 117.7
666(14) 0.00497 611.2 110.4
672(14) 0.00475 611.4 103.8
658(14) 0.00522 611.7 97.8
659(13) 0.00533 611.9 92.2
643(14) 0.00512 612.2 87.2
660(14) 0.00487 612.4 82.5
664(14) 0.00509 612.7 78.2
657(13) 0.00527 613.0 74.2
629(13) 0.00562 613.2 70.5
702(14) 0.00469 613.5 67.1
624(14) 0.00519 613.7 63.9
622(13) 0.00545 614.0 61.0
674(14) 0.00514 614.2 58.2
667(13) 0.00535 614.5 55.7
619(13) 0.00532 614.7 53.2
671(14) 0.00456 615.0 51.0
624(13) 0.00545 615.2 48.9
654(13) 0.00534 615.5 46.9
638(13) 0.00557 615.8 45.0
628(13) 0.00533 616.0 43.3
611(14) 0.00518 616.3 41.6
606(13) 0.00558 616.5 40.0
656(13) 0.00543 616.8 38.6
618(13) 0.00565 617.0 37.2
651(14) 0.00505 617.3 35.8
623(14) 0.00504 617.5 34.6
636(13) 0.00527 617.8 33.4
630(13) 0.00558 618.0 32.3
641(13) 0.00544 618.3 31.2
629(14) 0.00512 618.6 30.2
631(14) 0.00488 618.8 29.2
638(14) 0.00520 619.1 28.3
627(13) 0.00570 619.3 27.4
635(13) 0.00533 619.6 26.5
616(13) 0.00536 619.8 25.7
602(13) 0.00533 620.1 25.0
635(14) 0.00523 620.3 24.2
635(13) 0.00555 620.6 23.5
604(13) 0.00566 620.8 22.9
621(13) 0.00529 621.1 22.2
629(14) 0.00510 621.4 21.6
645(14) 0.00515 621.6 21.0
650(13) 0.00537 621.9 20.4
623(13) 0.00546 622.1 19.9
632(14) 0.00514 622.4 19.4
609(14) 0.00521 622.6 18.9
580(13) 0.00577 622.9 18.4
633(13) 0.00554 623.1 17.9
612(13) 0.00552 623.4 17.5
659(14) 0.00478 623.6 17.0
643(14) 0.00511 623.9 16.6
638(13) 0.00533 624.2 16.2
652(13) 0.00544 624.4 15.8
640(13) 0.00524 624.7 15.5
619(13) 0.00527 624.9 15.1
613(13) 0.00539 625.2 14.8
609(13) 0.00557 625.4 14.4
616(13) 0.00571 625.7 14.1
613(13) 0.00547 625.9 13.8
658(14) 0.00478 626.2 13.5
610(13) 0.00543 626.4 13.2
611(13) 0.00574 626.7 12.9
637(13) 0.00551 627.0 12.6
598(13) 0.00542 627.2 12.4
614(14) 0.00514 627.5 12.1
629(14) 0.00522 627.7 11.9
614(13) 0.00564 628.0 11.6
621(13) 0.00575 628.2 11.4
640(14) 0.00517 628.5 11.2
646(14) 0.00479 628.7 10.9
610(13) 0.00555 629.0 10.7
614(13) 0.00574 629.2 10.5
651(13) 0.00543 629.5 10.3
636(13) 0.00533 629.8 10.1
652(14) 0.00470 630.0 9.9
634(13) 0.00532 630.3 9.7
611(13) 0.00577 630.5 9.6
642(13) 0.00545 630.8 9.4
638(13) 0.00524 631.0 9.2
646(14) 0.00485 631.3 9.0
645(14) 0.00503 631.5 8.9
629(13) 0.00557 631.8 8.7
652(13) 0.00541 632.0 8.6
660(14) 0.00506 632.3 8.4
628(14) 0.00509 632.5 8.3
642(14) 0.00509 632.8 8.1
642(13) 0.00550 633.1 8.0
628(13) 0.00552 633.3 7.9
644(13) 0.00524 633.6 7.7
642(14) 0.00508 633.8 7.6
671(14) 0.00492 634.1 7.5
670(13) 0.00530 634.3 7.4
658(14) 0.00516 634.6 7.2
616(13) 0.00535 634.8 7.1
614(13) 0.00527 635.1 7.0
639(13) 0.00526 635.3 0.0
682(13) 0.00523 635.6 0.0
648(13) 0.00524 635.9 0.0
659(14) 0.00501 636.1 0.0
630(14) 0.00517 636.4 0.0
627(13) 0.00541 636.6 0.0
633(13) 0.00562 636.9 0.0
620(13) 0.00549 637.1 0.0
663(14) 0.00501 637.4 0.0
664(14) 0.00488 637.6 0.0
665(14) 0.00515 637.9 0.0
615(13) 0.00570 638.1 0.0
616(13) 0.00524 638.4 0.0
630(14) 0.00508 638.7 0.0
655(14) 0.00494 638.9 0.0
644(13) 0.00542 639.2 0.0
620(13) 0.00569 639.4 0.0
636(13) 0.00527 639.7 0.0
605(14) 0.00515 639.9 0.0
631(14) 0.00512 640.2 0.0
632(13) 0.00555 640.4 0.0
621(13) 0.00568 640.7 0.0
609(13) 0.00532 640.9 0.0
612(14) 0.00496 641.2 0.0
641(14) 0.00522 641.5 0.0
674(14) 0.00520 641.7 0.0
685(14) 0.00514 642.0 0.0
670(14) 0.00491 642.2 0.0
658(14) 0.00465 642.5 0.0
636(14) 0.00511 642.7 0.0
667(13) 0.00533 643.0 0.0
641(13) 0.00552 643.2 0.0
647(14) 0.00515 643.5 0.0
644(14) 0.00484 643.7 0.0
650(14) 0.00515 644.0 0.0
656(13) 0.00539 644.3 0.0
644(13) 0.00539 644.5 0.0
640(14) 0.00515 644.8 0.0
621(14) 0.00510 645.0 0.0
641(14) 0.00512 645.3 0.0
633(13) 0.00558 645.5 0.0
640(13) 0.00545 645.8 0.0
653(14) 0.00508 646.0 0.0
648(14) 0.00494 646.3 0.0
618(13) 0.00530 646.5 0.0
653(13) 0.00543 646.8 0.0
675(14) 0.00498 647.1 0.0
627(14) 0.00523 647.3 0.0
660(14) 0.00482 647.6 0.0
647(14) 0.00517 647.8 0.0
639(13) 0.00556 648.1 0.0
673(14) 0.00504 648.3 0.0
655(14) 0.00501 648.6 0.0
664(14) 0.00475 648.8 0.0
622(13) 0.00539 649.1 0.0
665(13) 0.00531 649.3 0.0
665(14) 0.00518 649.6 0.0
670(14) 0.00491 649.9 0.0
653(14) 0.00510 650.1 0.0
670(14) 0.00515 650.4 0.0
647(13) 0.00549 650.6 0.0
643(14) 0.00518 650.9 0.0
672(14) 0.00479 651.1 0.0
659(14) 0.00499 651.4 0.0
626(13) 0.00553 651.6 0.0
627(13) 0.00561 651.9 0.0
658(14) 0.00507 652.1 0.0
672(14) 0.00464 652.4 0.0
647(14) 0.00518 652.7 0.0
660(13) 0.00537 652.9 0.0
685(14) 0.00516 653.2 0.0
672(14) 0.00501 653.4 0.0
653(14) 0.00500 653.7 0.0
667(14) 0.00504 653.9 0.0
650(13) 0.00537 654.2 0.0
676(14) 0.00521 654.4 0.0
653(14) 0.00516 654.7 0.0
654(14) 0.00462 654.9 0.0
664(14) 0.00494 655.2 0.0
677(14) 0.00515 655.5 0.0
664(13) 0.00532 655.7 0.0
662(14) 0.00515 656.0 0.0
640(14) 0.00495 656.2 0.0
641(14) 0.00518 656.5 0.0
658(13) 0.00538 656.7 0.0
671(13) 0.00528 657.3 0.0
700(14) 0.00472 657.9 0.0
689(15) 0.00452 658.5 0.0
664(14) 0.00496 659.1 0.0
691(14) 0.00512 659.7 0.0
662(13) 0.00527 660.3 0.0
653(14) 0.00505 660.9 0.0
645(14) 0.00491 661.5 0.0
671(14) 0.00499 662.1 0.0
673(13) 0.00528 662.7 0.0
698(14) 0.00495 663.3 0.0
690(14) 0.00473 663.9 0.0
679(14) 0.00470 664.5 0.0
672(14) 0.00498 665.1 0.0
676(13) 0.00525 665.7 0.0
665(14) 0.00506 666.3 0.0
697(14) 0.00467 667.0 0.0
666(14) 0.00485 667.6 0.0
678(14) 0.00488 668.2 0.0
695(14) 0.00509 668.8 0.0
675(14) 0.00499 669.4 0.0
704(14) 0.00458 670.0 0.0
701(14) 0.00468 670.6 0.0
656(13) 0.00533 671.2 0.0
671(13) 0.00526 671.8 0.0
698(14) 0.00478 672.4 0.0
706(15) 0.00455 673.0 0.0
679(14) 0.00494 673.6 0.0
675(14) 0.00511 674.2 0.0
695(14) 0.00511 674.8 0.0
688(14) 0.00474 675.4 0.0
674(14) 0.00470 676.0 0.0
658(14) 0.00499 676.6 0.0
687(14) 0.00509 677.2 0.0
673(13) 0.00528 677.8 0.0
667(14) 0.00505 678.4 0.0
655(14) 0.00488 679.1 9.4
670(14) 0.00502 679.7 9.5
692(14) 0.00509 680.3 9.6
682(14) 0.00510 680.9 9.7
665(14) 0.00497 681.5 9.9
662(14) 0.00464 682.1 10.0
679(14) 0.00491 682.7 10.1
663(13) 0.00532 683.3 10.2
680(14) 0.00518 683.9 10.3
701(14) 0.00467 684.5 10.4
669(14) 0.00460 685.1 10.6
692(14) 0.00476 685.7 10.7
665(13) 0.00533 686.3 10.8
698(14) 0.00500 686.9 11.0
710(14) 0.00465 687.5 11.1
736(15) 0.00425 688.1 11.2
707(14) 0.00477 688.7 11.4
683(14) 0.00522 689.3 11.5
690(14) 0.00508 689.9 11.7
715(14) 0.00467 690.5 11.8
720(15) 0.00449 691.2 12.0
677(14) 0.00494 691.8 12.1
717(14) 0.00499 692.4 12.3
680(14) 0.00512 693.0 12.4
692(14) 0.00494 693.6 12.6
693(14) 0.00472 694.2 12.8
695(14) 0.00486 694.8 12.9
727(14) 0.00492 695.4 13.1
699(14) 0.00485 696.0 13.3
718(14) 0.00460 696.6 14.0
731(15) 0.00439 697.2 14.2
708(14) 0.00478 697.8 14.4
692(14) 0.00516 698.4 14.6
709(14) 0.00471 699.0 14.8
678(14) 0.00487 699.6 15.0
745(15) 0.00443 700.2 15.2
718(14) 0.00483 700.8 15.4
684(14) 0.00521 701.4 15.6
681(14) 0.00486 702.0 15.8
707(14) 0.00457 702.6 16.1
710(14) 0.00471 703.3 16.3
708(14) 0.00485 703.9 16.6
711(14) 0.00498 704.5 16.8
697(14) 0.00483 705.1 17.1
705(15) 0.00448 705.7 17.3
678(14) 0.00489 706.3 17.6
701(14) 0.00494 706.9 17.9
732(14) 0.00487 707.5 18.1
684(14) 0.00485 708.1 18.4
688(14) 0.00460 708.7 18.7
704(14) 0.00476 709.3 19.0
661(13) 0.00536 709.9 19.3
712(14) 0.00495 710.5 19.6
691(14) 0.00476 711.1 19.9
695(15) 0.00451 711.7 20.3
711(14) 0.00480 712.3 20.6
691(14) 0.00510 712.9 21.0
706(14) 0.00510 713.5 21.3
728(14) 0.00463 714.1 21.7
723(15) 0.00421 714.7 22.0
757(15) 0.00439 715.4 22.4
747(14) 0.00480 716.0 22.8
695(14) 0.00499 716.6 23.2
695(14) 0.00490 717.2 23.6
727(15) 0.00439 717.8 24.1
743(15) 0.00455 718.4 24.5
767(14) 0.00464 719.0 24.9
759(14) 0.00462 719.6 25.4
754(15) 0.00445 720.2 25.9
729(15) 0.00442 720.8 26.4
757(15) 0.00434 721.4 26.9
719(14) 0.00497 722.0 27.4
745(14) 0.00474 722.6 27.9
693(14) 0.00489 723.2 28.5
729(15) 0.00441 723.8 29.0
749(15) 0.00440 724.4 29.6
716(14) 0.00493 725.0 30.2
702(14) 0.00500 725.6 30.8
725(14) 0.00459 726.2 31.4
719(14) 0.00460 726.8 32.1
743(14) 0.00457 727.5 32.8
721(14) 0.00495 728.1 33.5
755(15) 0.00453 728.7 34.2
775(15) 0.00426 729.3 34.9
734(15) 0.00455 729.9 35.7
744(15) 0.00452 730.5 36.5
727(14) 0.00492 731.1 37.3
729(14) 0.00463 731.7 38.1
716(14) 0.00463 732.3 39.0
753(15) 0.00434 732.9 39.9
744(14) 0.00466 733.5 40.9
765(14) 0.00462 734.1 41.8
770(15) 0.00430 734.7 42.8
763(15) 0.00416 735.3 43.9
739(15) 0.00443 735.9 45.0
736(14) 0.00478 736.5 46.1
769(14) 0.00463 737.1 47.2
810(15) 0.00407 737.7 48.4
786(16) 0.00401 738.3 49.7
771(15) 0.00427 738.9 51.0
722(14) 0.00494 739.6 52.4
769(14) 0.00465 740.2 53.8
792(15) 0.00423 740.8 55.3
799(16) 0.00393 741.4 56.8
749(15) 0.00441 742.0 58.4
767(14) 0.00460 742.6 60.0
759(14) 0.00469 743.2 61.8
745(15) 0.00456 743.8 63.6
775(15) 0.00406 744.4 65.5
803(15) 0.00416 745.0 67.5
799(15) 0.00443 745.6 69.6
753(14) 0.00472 746.2 71.7
795(15) 0.00418 746.8 74.0
787(16) 0.00400 747.4 76.4
761(15) 0.00442 748.0 78.9
798(15) 0.00449 748.6 81.6
799(15) 0.00441 749.2 84.3
766(15) 0.00441 749.8 87.2
779(15) 0.00412 750.4 90.3
753(15) 0.00445 751.0 93.6
804(15) 0.00443 751.6 97.0
833(15) 0.00424 752.3 100.6
819(15) 0.00410 752.9 104.4
822(16) 0.00389 753.5 108.5
774(15) 0.00430 754.1 112.8
825(15) 0.00432 754.7 117.3
875(15) 0.00402 755.3 122.2
812(15) 0.00418 755.9 127.4
808(15) 0.00409 756.5 132.9
840(15) 0.00404 757.1 138.8
804(15) 0.00445 757.7 145.1
863(16) 0.00394 758.3 151.8
852(16) 0.00398 758.9 159.1
840(15) 0.00407 759.5 166.9
872(16) 0.00388 760.1 175.4
876(15) 0.00411 760.7 184.5
859(16) 0.00394 761.3 194.5
908(16) 0.00360 761.9 205.3
944(17) 0.00352 762.5 217.1
935(16) 0.00372 763.1 230.1
915(16) 0.00391 763.7 244.6
938(16) 0.00359 764.4 260.8
968(17) 0.003462 765.0 279.2
1030(17) 0.003266 765.6 300.6
1021(17) 0.003435 766.2 326.3
1093(17) 0.003293 766.8 357.9
1134(18) 0.002972 767.4 397.5
1139(18) 0.002849 768.0 448.0
1197(19) 0.002812 768.6 512.1
1293(19) 0.002721 769.2 592.4
1401(19) 0.002608 769.8 690.0
1433(20) 0.002368 770.4 804.1
1628(22) 0.001969 771.0 930.5
1775(23) 0.001924 771.6 1060.0
1831(22) 0.001977 772.2 1178.1
1895(23) 0.001930 772.8 1266.6
1990(24) 0.001730 773.4 1313.6
2087(25) 0.001539 774.0 1324.0
2098(24) 0.001651 774.6 1316.5
2006(23) 0.001818 775.2 1313.6
1999(23) 0.001831 775.8 1334.3
2000(24) 0.001724 776.5 1393.6
2060(25) 0.001564 777.1 1504.6
2373(26) 0.001422 777.7 1680.1
2641(27) 0.001390 778.3 1933.5
2962(28) 0.001231 778.9 2279.6
3552(32) 0.000972 779.5 2733.6
4162(35) 0.000788 780. 3311.
4952(38) 0.000687 781. 4024.
6007(40) 0.000610 781. 4881.
7082(44) 0.000511 782. 5877.
8163(49) 0.000421 783. 6996.
9444(54) 0.0003453 783. 8200.
10644(56) 0.0003156 784. 9419.
11808(57) 0.0003088 784. 10545.
12893(60) 0.0002729 785. 11433.
13110(62) 0.0002584 786. 11931.
13109(63) 0.0002518 786. 11937.
12308(60) 0.0002775 787. 11450.
11132(55) 0.0003286 787. 10568.
9974(53) 0.0003488 788. 9444.
8793(51) 0.000381 789. 8223.
7680(48) 0.000439 789. 7013.
6594(43) 0.000534 790. 5886.
5768(40) 0.000634 790. 4879.
4829(37) 0.000718 791. 4011.
4133(35) 0.000821 791.6 3284.2
3727(33) 0.000921 792.2 2688.9
3307(30) 0.001082 792.8 2211.9
3002(29) 0.001216 793.4 1835.2
2597(28) 0.001302 794.0 1540.8
2487(27) 0.001324 794.6 1311.7
2243(25) 0.001531 795.2 1132.7
2066(24) 0.001734 795.8 991.7
1886(23) 0.001927 796.4 878.9
1762(23) 0.001936 797.0 786.9
1682(22) 0.001949 797.6 710.6
1540(21) 0.002216 798.2 646.1
1467(20) 0.002438 798.8 590.7
1469(20) 0.002470 799.4 542.5
1367(20) 0.002469 800.0 500.1
1314(20) 0.002467 800.7 462.6
1292(19) 0.002647 801.3 429.1
1196(18) 0.003019 801.9 399.1
1198(18) 0.002996 802.5 372.1
1166(18) 0.002922 803.1 347.8
1128(18) 0.002849 803.7 325.7
1108(18) 0.003127 804.3 305.6
1103(17) 0.003265 804.9 287.3
1065(17) 0.003370 805.5 270.6
1059(17) 0.003238 806.1 255.3
1032(18) 0.003088 806.7 241.3
1017(17) 0.003347 807.3 228.3
1031(17) 0.003474 807.9 216.4
976(16) 0.00364 808.5 205.4
930(16) 0.00358 809.1 195.1
1025(18) 0.003036 809.7 185.7
971(17) 0.003437 810.3 176.9
981(16) 0.00369 810.9 168.7
956(16) 0.00367 811.5 161.0
938(16) 0.00357 812.1 153.9
910(17) 0.00353 812.8 147.2
942(17) 0.003498 813.4 141.0
922(16) 0.00390 814.0 135.1
947(16) 0.00373 814.6 129.6
911(16) 0.00372 815.2 124.4
871(16) 0.00371 815.8 119.5
868(16) 0.00389 816.4 114.9
887(15) 0.00404 817.0 110.6
920(16) 0.00375 817.6 106.5
900(16) 0.00373 818.2 102.6
933(17) 0.003463 818.8 98.9
869(16) 0.00395 819.4 95.5
877(15) 0.00409 820.0 92.2
888(16) 0.00387 820.6 89.0
850(16) 0.00393 821.2 86.1
884(16) 0.00373 821.8 83.2
847(15) 0.00402 822.4 80.6
883(15) 0.00408 823.0 78.0
854(16) 0.00393 823.6 75.6
815(15) 0.00403 824.2 73.2
842(16) 0.00397 824.9 71.0
903(16) 0.00386 825.5 68.9
833(15) 0.00429 826.1 66.8
861(16) 0.00387 826.7 64.9
847(16) 0.00382 827.3 63.0
849(16) 0.00394 827.9 61.3
841(15) 0.00425 828.5 59.6
880(15) 0.00409 829.1 57.9
883(16) 0.00377 829.7 56.4
911(17) 0.003451 830.3 54.8
884(16) 0.00379 830.9 53.4
823(15) 0.00429 831.5 52.0
781(14) 0.00456 832.1 50.7
856(16) 0.00396 832.7 49.4
882(17) 0.00352 833.3 48.1
868(16) 0.00388 833.9 47.0
835(15) 0.00425 834.5 45.8
815(15) 0.00438 835.1 44.7
839(16) 0.00395 835.7 43.6
842(16) 0.00373 836.3 42.6
844(16) 0.00395 837.0 41.6
806(15) 0.00443 837.6 40.6
838(15) 0.00425 838.2 39.7
838(15) 0.00404 838.8 38.8
846(16) 0.00370 839.4 39.4
810(15) 0.00414 840.0 38.5
852(15) 0.00421 840.6 37.8
859(15) 0.00411 841.2 37.0
889(16) 0.00383 841.8 36.3
852(16) 0.00374 842.4 35.6
850(16) 0.00389 843.0 34.9
848(15) 0.00424 843.6 34.3
821(15) 0.00430 844.2 33.7
866(16) 0.00384 844.8 33.1
837(16) 0.00383 845.4 32.5
847(16) 0.00385 846.0 31.9
859(15) 0.00417 846.6 31.4
864(16) 0.00398 847.2 30.9
876(16) 0.00375 847.8 30.4
859(16) 0.00383 848.4 29.9
848(16) 0.00387 849.0 29.4
862(15) 0.00417 849.7 29.0
868(16) 0.00396 850.3 28.5
885(16) 0.00369 850.9 28.1
888(16) 0.00367 851.5 27.7
865(15) 0.00406 852.1 27.3
912(16) 0.00394 852.7 27.0
879(16) 0.00387 853.3 26.6
831(16) 0.00396 853.9 26.3
842(16) 0.00397 854.5 26.0
865(15) 0.00402 855.1 25.6
891(15) 0.00403 855.7 25.4
877(16) 0.00385 856.3 25.1
877(16) 0.00370 856.9 24.8
854(16) 0.00392 857.5 24.6
877(16) 0.00400 858.0 24.4
873(15) 0.00413 858.6 24.1
843(16) 0.00394 859.2 23.9
859(16) 0.00376 859.8 23.8
888(16) 0.00379 860.4 23.6
844(15) 0.00416 861.0 23.5
842(15) 0.00422 861.6 23.3
862(16) 0.00384 862.2 23.2
840(16) 0.00379 862.7 23.1
867(16) 0.00383 863.3 23.1
858(15) 0.00414 863.9 23.0
846(15) 0.00419 864.5 23.0
849(16) 0.00394 865.1 23.0
871(17) 0.00353 865.7 23.0
888(16) 0.00377 866.3 23.1
865(15) 0.00411 866.9 23.1
875(15) 0.00406 867.4 23.2
891(16) 0.00382 868.0 23.4
841(16) 0.00396 868.6 23.6
915(16) 0.00372 869.2 23.8
869(15) 0.00415 869.8 24.1
834(15) 0.00424 870.4 24.4
831(15) 0.00410 871.0 24.7
871(16) 0.00360 871.6 25.2
863(16) 0.00379 872.1 25.7
824(15) 0.00437 872.7 26.3
876(15) 0.00403 873.3 26.9
901(16) 0.00382 873.9 27.7
895(16) 0.00360 874.5 28.6
876(16) 0.00383 875.1 29.6
892(15) 0.00402 875.7 30.7
901(16) 0.00388 876.3 32.1
926(17) 0.003461 876.8 33.7
871(16) 0.00380 877.4 35.5
900(16) 0.00376 878.0 37.6
905(16) 0.00395 878.6 40.0
894(16) 0.00384 879.2 43.0
918(16) 0.00361 879.8 46.4
900(16) 0.00374 880.4 50.5
942(16) 0.00365 881.0 55.5
937(16) 0.00383 881.5 61.5
948(16) 0.00359 882.1 69.0
948(17) 0.003478 882.7 78.7
1016(17) 0.003243 883.3 91.7
1003(17) 0.003461 883.9 111.2
1130(17) 0.003197 884.5 143.3
1264(19) 0.002679 885.1 200.1
1349(20) 0.002476 885.7 301.5
1585(22) 0.002081 886.2 474.5
1733(22) 0.002056 886.8 745.0
1977(23) 0.001836 887.4 1123.5
2229(25) 0.001536 888.0 1585.9
2495(27) 0.001312 888.6 2057.5
2921(29) 0.001162 889.2 2407.6
3388(30) 0.001066 889.8 2489.4
3658(31) 0.001000 890.4 2261.0
3082(30) 0.001082 891.0 1822.0
2200(26) 0.001455 891.5 1341.9
1650(22) 0.002102 892.1 914.5
1378(19) 0.002610 892.7 588.3
1220(18) 0.002956 893.3 368.3
1180(18) 0.002854 893.9 233.8
1067(18) 0.002986 894.5 157.2
1056(18) 0.003171 895.1 114.3
1026(17) 0.003472 895.7 89.3
967(16) 0.00372 896.2 73.4
967(17) 0.003500 896.8 62.1
933(17) 0.003426 897.4 53.5
940(16) 0.00358 898.0 46.6
905(16) 0.00394 898.6 40.9
862(15) 0.00416 899.2 36.3
914(16) 0.00369 899.8 32.3
910(17) 0.003501 900.4 29.0
915(16) 0.00369 900.9 26.2
888(15) 0.00405 901.5 23.7
925(16) 0.00377 902.1 21.6
906(16) 0.00373 902.7 19.7
921(17) 0.00352 903.3 18.1
954(17) 0.003500 903.9 16.7
900(16) 0.00400 904.5 15.4
880(16) 0.00401 905.1 14.3
877(16) 0.00388 905.6 13.3
912(17) 0.00354 906.2 12.4
892(16) 0.00377 906.8 11.5
898(16) 0.00399 907.4 10.8
930(16) 0.00375 908.0 10.1
939(17) 0.003459 908.6 9.5
903(16) 0.00370 909.2 9.0
931(16) 0.00370 909.8 8.4
895(15) 0.00403 910.3 8.0
902(16) 0.00382 910.9 7.5
905(16) 0.00370 911.5 7.2
882(16) 0.00386 912.1 6.8
899(16) 0.00386 912.7 6.4
920(16) 0.00389 913.3 6.1
904(16) 0.00375 913.9 5.8
922(17) 0.00355 914.5 5.6
910(16) 0.00374 915.0 5.3
889(16) 0.00396 915.6 5.1
914(16) 0.00391 916.2 6.2
883(16) 0.00376 916.8 6.1
909(16) 0.00359 917.4 5.9
911(16) 0.00374 918.0 5.7
901(16) 0.00388 918.6 5.5
900(16) 0.00399 919.2 5.4
898(16) 0.00374 919.7 5.3
954(17) 0.003324 920.3 5.1
922(16) 0.00370 920.9 5.0
937(16) 0.00381 921.5 4.9
879(15) 0.00408 922.1 4.8
953(17) 0.003448 922.7 4.7
924(17) 0.003359 923.3 4.6
940(17) 0.00355 923.9 4.5
930(16) 0.00384 924.4 4.4
924(16) 0.00390 925.0 4.3
936(16) 0.00369 925.6 4.3
958(17) 0.003274 926.2 4.2
918(16) 0.00362 926.8 4.1
908(16) 0.00395 927.4 4.1
913(16) 0.00392 928.0 4.0
933(17) 0.003498 928.6 3.9
916(17) 0.003392 929.1 3.9
917(16) 0.00369 929.7 3.9
949(16) 0.00377 930.3 3.8
901(16) 0.00393 930.9 3.8
965(17) 0.003439 931.5 3.7
886(16) 0.00367 932.1 3.7
936(17) 0.00355 932.7 3.7
904(16) 0.00397 933.3 3.6
959(16) 0.00369 933.9 3.6
941(17) 0.00353 934.4 3.6
917(16) 0.00358 935.0 3.5
946(17) 0.00352 935.6 3.5
919(16) 0.00392 936.2 3.5
914(16) 0.00372 936.8 3.5
892(16) 0.00375 937.4 3.5
917(16) 0.00361 938.0 3.4
944(16) 0.00363 938.6 3.4
915(16) 0.00392 939.1 2.0
901(16) 0.00377 939.7 2.0
928(17) 0.00352 940.3 2.0
955(17) 0.00351 940.9 2.1
945(16) 0.00365 941.5 2.1
875(15) 0.00408 942.1 2.1
930(16) 0.00365 942.7 2.1
971(17) 0.003368 943.3 2.1
965(17) 0.003507 943.8 2.2
943(16) 0.00371 944.4 2.2
905(16) 0.00396 945.0 2.2
989(17) 0.003408 945.6 2.2
960(17) 0.003407 946.2 2.3
928(16) 0.00365 946.8 2.3
952(16) 0.00370 947.4 2.3
933(16) 0.00383 948.0 2.3
920(16) 0.00370 948.5 2.4
942(17) 0.003442 949.1 2.4
940(16) 0.00364 949.7 2.4
943(16) 0.00374 950.3 2.5
934(16) 0.00383 950.9 2.5
982(17) 0.003427 951.5 2.5
957(17) 0.003333 952.1 2.5
939(16) 0.00360 952.7 2.6
954(16) 0.00375 953.2 2.6
947(16) 0.00378 953.8 2.6
927(16) 0.00366 954.4 2.7
990(18) 0.003137 955.0 2.7
952(17) 0.00355 955.6 2.7
933(16) 0.00384 956.2 2.8
968(16) 0.00372 956.8 2.8
983(17) 0.003432 957.4 2.8
989(17) 0.003209 957.9 2.9
980(17) 0.003469 958.5 2.9
955(16) 0.00375 959.1 2.9
945(16) 0.00373 959.7 3.0
964(17) 0.003483 960.3 3.0
963(17) 0.003362 960.9 3.0
944(16) 0.00361 961.5 3.1
971(16) 0.00371 962.1 3.1
1001(17) 0.00354 962.6 3.2
997(17) 0.003385 963.2 3.2
941(17) 0.00351 963.8 3.2
951(17) 0.00353 964.4 3.3
939(16) 0.00381 965.0 3.3
974(17) 0.00352 965.6 3.4
962(17) 0.003484 966.2 3.4
990(17) 0.003359 966.8 3.5
992(17) 0.003472 967.4 3.5
966(16) 0.00371 968.0 3.6
933(16) 0.00367 968.5 3.6
974(17) 0.003356 969.1 3.7
962(17) 0.00352 969.7 3.7
1023(17) 0.003370 970.3 3.8
1000(16) 0.00362 970.9 3.8
989(17) 0.003421 971.5 3.9
995(17) 0.003271 972.1 3.9
958(17) 0.003494 972.7 4.0
971(16) 0.00359 973.3 4.0
1039(17) 0.003463 973.9 4.1
1008(17) 0.003309 974.5 4.2
984(17) 0.003340 975.1 4.2
986(17) 0.003435 975.6 4.3
1012(17) 0.003451 976.2 4.3
962(16) 0.00378 976.8 4.4
941(16) 0.00359 977.4 4.5
969(17) 0.003313 978.0 4.5
974(17) 0.003473 978.6 4.6
999(16) 0.00357 979.2 4.7
952(16) 0.00377 979.8 4.8
953(17) 0.00354 980.4 4.8
1019(18) 0.003083 981.0 4.9
999(17) 0.003364 981.6 5.0
990(16) 0.00362 982.1 5.1
976(16) 0.00367 982.7 5.2
979(17) 0.003413 983.3 5.2
975(17) 0.003176 983.9 5.3
975(17) 0.003465 984.5 5.4
980(16) 0.00368 985.1 5.5
968(16) 0.00366 985.7 5.6
971(17) 0.003435 986.3 5.7
977(17) 0.003244 986.9 5.8
1027(17) 0.003278 987.5 5.9
986(16) 0.00365 988.1 6.0
976(16) 0.00362 988.7 6.1
963(17) 0.003437 989.2 6.2
1040(18) 0.003010 989.8 6.4
994(17) 0.003403 990.4 6.5
958(16) 0.00375 991.0 6.6
999(17) 0.00352 991.6 6.7
1024(17) 0.003291 992.2 6.8
1039(18) 0.003125 992.8 7.0
1033(17) 0.003195 993.4 7.1
1075(17) 0.003346 994.0 7.2
1020(17) 0.003412 994.6 7.4
969(17) 0.003457 995.2 7.5
983(17) 0.003324 995.7 7.7
976(17) 0.003463 996.3 7.8
997(16) 0.00361 996.9 8.0
960(16) 0.00360 997.5 8.2
979(17) 0.003415 998.1 8.3
982(17) 0.003408 998.7 8.5
1054(17) 0.003271 999.3 8.7
986(16) 0.00365 999.9 8.9
967(17) 0.003492 1000.5 9.1
997(17) 0.003226 1001.1 9.3
1004(17) 0.003340 1001.7 9.5
1031(17) 0.003388 1002.3 9.7
1005(16) 0.00358 1002.8 9.9
995(17) 0.003350 1003.4 10.2
1026(17) 0.003195 1004.0 10.4
1062(18) 0.003145 1004.6 10.6
1027(17) 0.003421 1005.2 10.9
1025(17) 0.00351 1005.8 11.2
1008(17) 0.003358 1006.4 11.4
1001(17) 0.003277 1007.0 11.7
1045(17) 0.003238 1007.6 12.0
1045(17) 0.003325 1008.2 12.3
1025(17) 0.00352 1008.8 12.6
983(17) 0.003426 1009.3 13.0
1063(18) 0.002982 1009.9 13.3
1083(18) 0.003107 1010.5 13.6
978(16) 0.00366 1011.1 14.0
1018(17) 0.00352 1011.7 14.4
974(17) 0.003449 1012.3 14.8
972(17) 0.003313 1012.9 15.2
1057(17) 0.003194 1013.5 15.7
1046(17) 0.003427 1014.1 16.1
1028(17) 0.00351 1014.7 16.6
1002(17) 0.003412 1015.3 17.1
1038(18) 0.003036 1015.9 17.6
1019(17) 0.003342 1016.4 18.1
1028(17) 0.00352 1017.0 18.7
1011(17) 0.003507 1017.6 19.3
996(17) 0.003371 1018.2 19.9
1037(18) 0.003084 1018.8 20.6
1076(17) 0.003173 1019.4 21.3
1064(17) 0.003389 1020.0 22.0
1063(17) 0.003308 1020.6 22.7
1062(18) 0.003120 1021.2 23.5
1076(18) 0.002988 1021.8 24.4
1012(17) 0.003393 1022.4 25.3
1066(17) 0.003378 1022.9 26.2
1038(17) 0.003389 1023.5 27.2
1085(18) 0.003077 1024.1 28.2
1039(18) 0.003110 1024.7 29.3
1032(17) 0.003209 1025.3 30.5
1042(17) 0.003482 1025.9 31.8
1056(17) 0.003225 1026.5 33.1
1032(17) 0.003183 1027.1 34.5
1059(18) 0.003088 1027.7 36.0
1098(18) 0.003138 1028.3 37.6
1039(17) 0.003452 1028.9 39.2
1040(17) 0.003295 1029.5 41.1
1064(18) 0.003074 1030.0 43.0
1081(18) 0.003059 1030.6 45.1
1060(17) 0.003207 1031.2 47.3
1089(17) 0.003340 1031.8 49.7
1083(18) 0.003118 1032.4 52.3
1077(18) 0.002990 1033.0 55.1
1095(18) 0.003026 1033.6 58.1
1081(17) 0.003247 1034.2 61.3
1075(17) 0.003380 1034.8 64.9
1134(18) 0.002883 1035.4 68.7
1076(18) 0.003054 1036.0 72.9
1108(18) 0.003009 1036.6 77.5
1101(17) 0.003266 1037.1 82.5
1121(17) 0.003195 1037.7 88.0
1112(18) 0.003041 1038.3 94.1
1120(19) 0.002844 1038.9 100.9
1063(17) 0.003201 1039.5 108.4
1140(18) 0.003152 1040.1 116.9
1163(18) 0.003109 1040.7 126.4
1140(18) 0.002968 1041.3 137.3
1190(19) 0.002638 1041.9 149.9
1204(19) 0.002837 1042.5 164.5
1212(18) 0.002978 1043.1 181.9
1233(18) 0.002914 1043.6 202.6
1239(19) 0.002791 1044.2 227.6
1270(20) 0.002485 1044.8 258.1
1290(19) 0.002663 1045.4 295.4
1338(19) 0.002697 1046.0 341.2
1352(19) 0.002646 1046.6 397.2
1422(20) 0.002403 1047.2 465.3
1464(21) 0.002225 1047.8 547.3
1591(21) 0.002124 1048.4 644.8
1738(22) 0.002108 1049.0 759.1
1882(23) 0.001915 1049.6 890.8
2115(25) 0.001602 1050.2 1039.5
2242(26) 0.001454 1050.7 1203.3
2462(27) 0.001372 1051.3 1378.5
2613(27) 0.001401 1051.9 1558.4
2877(28) 0.001245 1052.5 1732.5
2986(29) 0.001152 1053.1 1886.5
3123(31) 0.001058 1053.7 2003.5
3145(30) 0.001081 1054.3 2067.5
3003(28) 0.001222 1054.9 2068.2
2921(29) 0.001216 1055.5 2005.6
2785(29) 0.001214 1056.1 1889.6
2649(28) 0.001256 1056.7 1736.2
2435(26) 0.001420 1057.2 1562.5
2337(25) 0.001571 1057.8 1382.6
2142(25) 0.001616 1058.4 1207.2
2080(25) 0.001593 1059.0 1043.0
1893(23) 0.001791 1059.6 894.0
1736(22) 0.002024 1060.2 761.9
1697(21) 0.002158 1060.8 647.2
1575(21) 0.002176 1061.4 549.3
1587(22) 0.002108 1062.0 467.0
1463(20) 0.002357 1062.6 398.7
1450(20) 0.002412 1063.2 342.4
1370(19) 0.002649 1063.8 296.4
1355(20) 0.002499 1064.3 258.9
1339(20) 0.002434 1064.9 228.2
1303(20) 0.002567 1065.5 203.1
1299(19) 0.002708 1066.1 182.3
1299(19) 0.002799 1066.7 164.9
1238(19) 0.002717 1067.3 150.2
1203(19) 0.002730 1067.9 137.6
1190(18) 0.002862 1068.5 126.7
1173(18) 0.003050 1069.1 117.2
1164(18) 0.003125 1069.7 108.7
1207(19) 0.002793 1070.3 101.2
1150(19) 0.002716 1070.8 94.4
1176(19) 0.002827 1071.4 88.3
1195(18) 0.003024 1072.0 82.8
1153(18) 0.003133 1072.6 77.7
1135(18) 0.002968 1073.2 73.1
1155(19) 0.002653 1073.8 68.9
1147(18) 0.002963 1074.4 65.1
1127(17) 0.003182 1075.0 61.5
1119(17) 0.003205 1075.6 58.3
1098(18) 0.003099 1076.2 55.3
1113(19) 0.002813 1076.8 52.5
1135(18) 0.002942 1077.4 49.9
1160(18) 0.003120 1077.9 47.5
1150(18) 0.003088 1078.5 45.3
1116(18) 0.002986 1079.1 43.2
1114(18) 0.002896 1079.7 41.2
1108(18) 0.003036 1080.3 39.4
1132(17) 0.003195 1080.9 37.7
1123(18) 0.003124 1081.5 36.1
1114(18) 0.003014 1082.1 34.6
1137(18) 0.002868 1082.7 33.2
1125(18) 0.003037 1083.3 31.9
1108(17) 0.003263 1083.9 30.7
1140(18) 0.003063 1084.4 29.5
1136(18) 0.002988 1085.0 28.4
1122(18) 0.002935 1085.6 27.4
1108(18) 0.003012 1086.2 26.4
1163(18) 0.003108 1086.8 25.5
1103(18) 0.003147 1087.4 24.6
1127(18) 0.002974 1088.0 23.7
1139(18) 0.002930 1088.6 22.9
1104(18) 0.003085 1089.2 22.2
1141(18) 0.003165 1089.8 21.5
1059(17) 0.003243 1090.4 20.8
1104(18) 0.003013 1091.0 20.1
1101(18) 0.003072 1091.5 19.5
1086(17) 0.003221 1092.1 18.9
1119(17) 0.003219 1092.7 18.3
1152(18) 0.002953 1093.3 17.8
1106(18) 0.002997 1093.9 17.3
1136(18) 0.002917 1094.5 16.8
1120(18) 0.003139 1095.1 16.3
1159(18) 0.003128 1095.7 15.9
1127(18) 0.003019 1096.3 15.4
1135(19) 0.002832 1096.9 15.0
1096(18) 0.003074 1097.5 14.6
1123(17) 0.003195 1098.0 14.2
1143(18) 0.003166 1098.6 13.9
1153(18) 0.002915 1099.2 13.5
1127(19) 0.002784 1099.8 13.2
1113(18) 0.003042 1100.4 12.8
1153(18) 0.003121 1101.0 12.5
1090(17) 0.003320 1101.6 12.2
1125(18) 0.003013 1102.2 11.9
1147(19) 0.002727 1102.8 11.7
1086(18) 0.003105 1103.4 11.4
1085(17) 0.003286 1104.0 11.1
1064(17) 0.003395 1104.6 10.9
1115(18) 0.003022 1105.1 10.6
1105(19) 0.002816 1105.7 10.4
1127(18) 0.002991 1106.3 10.2
1155(18) 0.003145 1106.9 10.0
1153(18) 0.003091 1107.5 9.8
1084(18) 0.003125 1108.1 9.5
1125(18) 0.002895 1108.7 9.4
1171(18) 0.002888 1109.3 9.2
1162(18) 0.003115 1109.9 9.0
1139(18) 0.003077 1110.5 8.8
1119(18) 0.003038 1111.1 8.6
1134(18) 0.002861 1111.7 8.5
1172(18) 0.002904 1112.2 8.3
1124(17) 0.003231 1112.8 8.1
1106(18) 0.003151 1113.4 8.0
1112(18) 0.003051 1114.0 7.9
1134(18) 0.002865 1114.6 7.7
1103(18) 0.003081 1115.2 7.6
1107(17) 0.003277 1115.8 7.4
1150(18) 0.003035 1116.4 7.3
1143(18) 0.002918 1117.0 7.2
1113(18) 0.002951 1117.6 7.1
1105(18) 0.003104 1118.2 6.9
1099(17) 0.003290 1118.7 6.8
1137(18) 0.002999 1119.3 6.7
1120(18) 0.003040 1119.9 6.6
1124(18) 0.002985 1120.5 6.5
1120(18) 0.003105 1121.1 6.4
1116(17) 0.003227 1121.7 6.3
1146(18) 0.002965 1122.3 6.2
1104(18) 0.002969 1122.9 6.1
1172(19) 0.002817 1123.5 6.0
1126(17) 0.003191 1124.1 6.0
1140(18) 0.003148 1124.7 5.9
1090(18) 0.003080 1125.3 5.8
1160(19) 0.002778 1125.8 5.7
1154(18) 0.002886 1126.4 5.6
1092(17) 0.003234 1126.8 5.6
1125(17) 0.003230 1127.0 5.5
1109(18) 0.003048 1127.2 5.4
1113(18) 0.002927 1127.5 5.4
1114(18) 0.003070 1127.7 5.3
1094(17) 0.003284 1127.9 5.2
1145(18) 0.003137 1128.1 5.2
1141(18) 0.002974 1128.3 5.1
1114(19) 0.002804 1128.5 5.1
1106(18) 0.002999 1128.7 5.0
1136(18) 0.003138 1128.9 5.0
1134(18) 0.003149 1129.1 4.9
1134(18) 0.003000 1129.3 4.9
1115(18) 0.002873 1129.5 4.8
1150(18) 0.003001 1129.7 4.8
1139(17) 0.003175 1129.9 4.7
1186(18) 0.002998 1130.1 4.7
1163(18) 0.002897 1130.3 4.6
1103(18) 0.002906 1130.5 4.6
1099(18) 0.003019 1130.8 4.6
1207(18) 0.002991 1131.0 4.5
1115(17) 0.003178 1131.2 4.5
1112(18) 0.003040 1131.4 4.5
1129(18) 0.002905 1131.6 4.5
1137(18) 0.002934 1131.8 4.4
1139(17) 0.003173 1132.0 4.4
1097(17) 0.003206 1132.2 4.4
1150(18) 0.002908 1132.4 4.4
1141(18) 0.002915 1132.6 4.4
1147(18) 0.002962 1132.8 4.4
1170(18) 0.003083 1133.0 4.3
1159(18) 0.002994 1133.2 4.3
1141(18) 0.002934 1133.4 4.3
1129(18) 0.003047 1133.6 4.3
1201(18) 0.002849 1133.9 4.3
1174(18) 0.003084 1134.1 4.3
1173(18) 0.002901 1134.3 4.3
1115(18) 0.002972 1134.5 4.3
1146(18) 0.002923 1134.7 4.4
1142(18) 0.003036 1134.9 4.4
1152(18) 0.003142 1135.1 4.4
1110(18) 0.002958 1135.3 4.4
1110(18) 0.002931 1135.5 4.4
1150(18) 0.002922 1135.7 4.5
1167(18) 0.003011 1135.9 4.5
1171(18) 0.003076 1136.1 4.6
1142(18) 0.002967 1136.3 4.6
1168(19) 0.002739 1136.5 4.7
1075(17) 0.003188 1136.7 4.7
1165(18) 0.003012 1137.0 4.8
1152(18) 0.003139 1137.2 4.9
1185(18) 0.002863 1137.4 4.9
1145(18) 0.002885 1137.6 5.0
1162(18) 0.002920 1137.8 5.1
1155(18) 0.003092 1138.0 5.2
1254(18) 0.002889 1138.2 5.4
1174(18) 0.002866 1138.4 5.5
1148(19) 0.002744 1138.6 5.7
1148(18) 0.002995 1138.8 5.8
1153(18) 0.003092 1139.0 6.0
1146(18) 0.003134 1139.2 6.2
1145(18) 0.002938 1139.4 6.4
1165(19) 0.002698 1139.6 6.7
1183(18) 0.002914 1139.8 7.0
1180(18) 0.003072 1140.0 7.3
1135(18) 0.003145 1140.3 7.7
1151(18) 0.002948 1140.5 8.1
1195(19) 0.002650 1140.7 8.6
1179(18) 0.002885 1140.9 9.1
1166(18) 0.003100 1141.1 9.8
1209(18) 0.002937 1141.3 10.6
1201(19) 0.002843 1141.5 11.6
1214(19) 0.002629 1141.7 12.7
1210(19) 0.002777 1141.9 14.2
1148(18) 0.003148 1142.1 15.9
1165(18) 0.003012 1142.3 17.9
1192(18) 0.002878 1142.5 20.4
1248(19) 0.002627 1142.7 23.3
1160(18) 0.002918 1142.9 26.7
1203(18) 0.003013 1143.1 30.7
1195(18) 0.002876 1143.4 35.3
1212(19) 0.002758 1143.6 40.5
1177(19) 0.002839 1143.8 46.2
1222(19) 0.002777 1144.0 52.4
1255(18) 0.002892 1144.2 59.0
1231(19) 0.002781 1144.4 65.7
1247(19) 0.002677 1144.6 72.2
1301(19) 0.002606 1144.8 78.1
1304(19) 0.002713 1145.0 82.8
1238(18) 0.002938 1145.2 86.0
1258(19) 0.002741 1145.4 87.1
1269(19) 0.002654 1145.6 86.1
1304(20) 0.002566 1145.8 83.0
1211(18) 0.002930 1146.0 78.3
1285(19) 0.002822 1146.2 72.5
1170(18) 0.002923 1146.4 66.0
1246(19) 0.002588 1146.7 59.3
1211(19) 0.002794 1146.9 52.7
1172(18) 0.003009 1147.1 46.4
1225(18) 0.002963 1147.3 40.7
1194(19) 0.002822 1147.5 35.4
1214(19) 0.002655 1147.7 30.8
1191(18) 0.002902 1147.9 26.8
1219(18) 0.002960 1148.1 23.3
1147(18) 0.003161 1148.3 20.3
1177(18) 0.002904 1148.5 17.8
1166(19) 0.002726 1148.7 15.8
1158(18) 0.002930 1148.9 14.0
1153(18) 0.003086 1149.1 12.6
1150(18) 0.003133 1149.3 11.4
1130(18) 0.003034 1149.5 10.5
1162(19) 0.002682 1149.8 9.7
1146(18) 0.002996 1150.0 7.6
1141(18) 0.003154 1150.2 7.1
1094(17) 0.003283 1150.4 6.6
1173(18) 0.002875 1150.6 6.2
1136(19) 0.002811 1150.8 5.9
1195(18) 0.002863 1151.0 5.6
1228(18) 0.002956 1151.2 5.4
1162(18) 0.003046 1151.4 5.2
1176(18) 0.002876 1151.6 5.1
1177(19) 0.002752 1151.8 5.0
1190(19) 0.002803 1152.0 4.9
1187(18) 0.003063 1152.2 4.8
1198(18) 0.002960 1152.4 4.8
1228(19) 0.002702 1152.6 4.8
1209(19) 0.002669 1152.9 4.8
1162(18) 0.002918 1153.1 4.9
1160(18) 0.003101 1153.3 4.9
1172(18) 0.003004 1153.5 5.0
1169(18) 0.002856 1153.7 5.1
1204(19) 0.002673 1153.9 5.2
1193(18) 0.002861 1154.1 5.4
1224(18) 0.002973 1154.3 5.5
1223(19) 0.002844 1154.5 5.7
1223(19) 0.002716 1154.7 5.8
1184(19) 0.002839 1154.9 5.9
1150(18) 0.002986 1155.1 6.1
1212(18) 0.002990 1155.3 6.2
1196(19) 0.002819 1155.5 6.3
1212(19) 0.002703 1155.7 6.3
1182(18) 0.002857 1155.9 6.3
1189(18) 0.002916 1156.2 6.3
1200(18) 0.003033 1156.4 6.2
1215(19) 0.002773 1156.6 6.1
1211(19) 0.002697 1156.8 5.9
1176(18) 0.002913 1157.0 5.7
1177(18) 0.003015 1157.2 5.5
1190(18) 0.003002 1157.4 5.3
1187(19) 0.002830 1157.6 5.0
1151(18) 0.002883 1157.8 4.8
1165(18) 0.002881 1158.0 4.5
1216(18) 0.002898 1158.2 4.3
1166(18) 0.003093 1158.4 4.0
1217(19) 0.002747 1158.6 3.7
1251(20) 0.002555 1158.8 3.5
1216(19) 0.002771 1159.0 3.3
1166(18) 0.003081 1159.3 3.1
1207(18) 0.002973 1159.5 2.9
1187(18) 0.002887 1159.7 2.7
1187(19) 0.002670 1159.9 2.5
1239(19) 0.002706 1160.1 2.3
1186(18) 0.003039 1160.3 2.2
1200(18) 0.002987 1160.5 2.0
1170(18) 0.002916 1160.7 1.9
1203(19) 0.002615 1160.9 1.8
1152(18) 0.002947 1161.1 1.7
1214(18) 0.002960 1161.3 1.6
1212(18) 0.002956 1161.5 1.5
1214(19) 0.002800 1161.7 1.4
1156(19) 0.002784 1161.9 1.3
1172(19) 0.002833 1162.1 1.3
1203(18) 0.003024 1162.3 1.2
1197(18) 0.002956 1162.6 1.1
1174(18) 0.002891 1162.8 1.1
1185(19) 0.002723 1163.0 1.0
1170(18) 0.002891 1163.2 1.0
1209(18) 0.003000 1163.4 1.0
1199(18) 0.002954 1163.6 0.9
1236(19) 0.002683 1163.8 0.9
1171(18) 0.002866 1164.0 0.9
1184(18) 0.002912 1164.2 0.8
1216(18) 0.002978 1164.4 0.8
1173(18) 0.003015 1164.6 0.8
1215(19) 0.002762 1164.8 0.7
1146(18) 0.002900 1165.0 0.7
1145(18) 0.003006 1165.2 0.7
1182(18) 0.003061 1165.4 0.7
1160(18) 0.002995 1165.7 0.7
1184(19) 0.002839 1165.9 0.6
1208(19) 0.002747 1166.1 0.6
1129(18) 0.003090 1166.3 0.6
1177(18) 0.003075 1166.5 0.6
1147(18) 0.002954 1166.7 0.6
1175(19) 0.002791 1166.9 0.6
1136(18) 0.003026 1167.1 0.6
1189(18) 0.002904 1167.3 0.5
1178(18) 0.003080 1167.5 0.5
1160(18) 0.002915 1167.7 0.5
1208(19) 0.002693 1167.9 0.5
1178(18) 0.002853 1168.1 0.5
1176(18) 0.003009 1168.3 0.5
1188(18) 0.003064 1168.5 0.5
1161(18) 0.002902 1168.8 0.5
1159(19) 0.002751 1169.0 0.4
1168(19) 0.002821 1169.2 0.4
1142(18) 0.003113 1169.4 0.4
1217(18) 0.002978 1169.6 0.4
1211(19) 0.002787 1169.8 0.4
1185(19) 0.002670 1170.0 0.4
1168(18) 0.002939 1170.2 0.4
1201(18) 0.003004 1170.4 0.4
1164(18) 0.003104 1170.6 0.4
1197(19) 0.002814 1170.8 0.4
1199(19) 0.002665 1171.0 0.4
1175(18) 0.002876 1171.2 0.4
1156(18) 0.003137 1171.4 0.3
1178(18) 0.003020 1171.6 0.3
1142(18) 0.002972 1171.8 0.3
1162(19) 0.002752 1172.1 0.3
1200(19) 0.002800 1172.3 0.3
1137(17) 0.003195 1172.5 0.3
1181(18) 0.003004 1172.4 0.3
1180(18) 0.002936 1172.1 0.3
1167(19) 0.002788 1171.8 0.3
1143(18) 0.002945 1171.4 0.3
1178(18) 0.003073 1171.1 0.3
1191(18) 0.002994 1170.8 0.3
1203(19) 0.002806 1170.5 0.3
1178(19) 0.002763 1170.1 0.3
1176(19) 0.002820 1169.8 0.3
1203(18) 0.003003 1169.5 0.3
1097(17) 0.003185 1169.2 0.3
1171(18) 0.002853 1168.8 0.3
1175(18) 0.002864 1168.5 0.3
1137(18) 0.003038 1168.2 0.2
1187(18) 0.003040 1167.9 0.2
1176(18) 0.002972 1167.5 0.2
1162(18) 0.002948 1167.2 0.2
1203(19) 0.002751 1166.9 0.2
1164(18) 0.003002 1166.6 0.2
1204(18) 0.003004 1166.2 0.2
1171(18) 0.002922 1165.9 0.2
1171(19) 0.002817 1165.6 0.2
1186(18) 0.002849 1165.3 0.2
1158(18) 0.003039 1164.9 0.2
1174(18) 0.003086 1164.6 0.2
1202(19) 0.002773 1164.3 0.2
1174(19) 0.002806 1164.0 0.2
1182(18) 0.002873 1163.6 0.2
1172(18) 0.003034 1163.3 0.2
1185(18) 0.003056 1163.0 0.2
1226(19) 0.002739 1162.7 0.2
1136(18) 0.002850 1162.3 0.2
1200(19) 0.002823 1162.0 0.2
1179(18) 0.003049 1161.7 0.2
1162(18) 0.003112 1161.4 0.2
1169(18) 0.002867 1161.0 0.2
1151(19) 0.002793 1160.7 0.2
1160(18) 0.002981 1160.4 0.2
1152(18) 0.003110 1160.0 0.2
1173(18) 0.003081 1159.7 0.2
1175(19) 0.002806 1159.4 0.2
1165(19) 0.002674 1159.1 0.2
1162(18) 0.002957 1158.7 0.2
1202(18) 0.003002 1158.4 0.2
1153(18) 0.003143 1158.1 0.2
1147(18) 0.002981 1157.8 0.2
1196(19) 0.002661 1157.4 0.2
1227(19) 0.002734 1157.1 0.2
1174(18) 0.003063 1156.8 0.2
1209(18) 0.002972 1156.5 0.2
1139(18) 0.002988 1156.1 0.1
1197(19) 0.002653 1155.8 0.1
1178(19) 0.002800 1155.5 0.1
1167(18) 0.003118 1155.2 0.1
1182(18) 0.002995 1154.8 0.1
1167(18) 0.002950 1154.5 0.1
1179(19) 0.002767 1154.2 0.1
1174(19) 0.002835 1153.9 0.1
1127(17) 0.003197 1153.5 0.1
1201(18) 0.002911 1153.2 0.1
1161(18) 0.002891 1152.9 0.1
1145(18) 0.002905 1152.6 0.1
1156(18) 0.002946 1152.2 0.1
1134(17) 0.003204 1151.9 0.1
1159(18) 0.002957 1151.6 0.1
1197(19) 0.002782 1151.3 0.1
1173(18) 0.002884 1150.9 0.1
1165(18) 0.003010 1150.6 0.1
1138(17) 0.003184 1150.3 0.1
1159(18) 0.002962 1150.0 0.1
1181(19) 0.002801 1149.6 0.1
1175(18) 0.002853 1149.3 0.1
1210(18) 0.002860 1149.0 0.1
1172(18) 0.003104 1148.7 0.1
1200(19) 0.002776 1148.3 0.1
1187(19) 0.002753 1148.0 0.1
1169(18) 0.002902 1147.7 0.1
1161(18) 0.003072 1147.4 0.1
1173(18) 0.003084 1147.0 0.1
1221(19) 0.002736 1146.7 0.1
1161(19) 0.002830 1146.4 0.1
1191(19) 0.002819 1146.1 0.1
1198(18) 0.002967 1145.7 0.1
1192(18) 0.003030 1145.4 0.1
1191(18) 0.002889 1145.1 0.1
1207(19) 0.002648 1144.8 0.1
1172(18) 0.002921 1144.4 0.1
1194(18) 0.002998 1144.1 0.1
1202(18) 0.002984 1143.8 0.1
1111(18) 0.003116 1143.5 0.1
1149(19) 0.002748 1143.1 0.1
1156(18) 0.002961 1142.8 0.1
1189(18) 0.003046 1142.5 0.1
1210(18) 0.002952 1142.2 0.1
1179(18) 0.002879 1141.8 0.1
1170(19) 0.002741 1141.5 0.1
1217(19) 0.002784 1141.2 0.1
1128(17) 0.003201 1140.9 0.1
1166(18) 0.003080 1140.5 0.1
1168(18) 0.002913 1140.2 0.1
1167(19) 0.002758 1139.9 0.1
1125(18) 0.003065 1139.6 0.1
1165(18) 0.003104 1139.2 0.1
1134(18) 0.003126 1138.9 0.1
1165(18) 0.002896 1138.6 0.1
1201(19) 0.002716 1138.3 0.1
1154(18) 0.002934 1137.9 0.1
1178(18) 0.003057 1137.6 0.1
1165(18) 0.003027 1137.3 0.1
1141(18) 0.002953 1137.0 0.1
1128(18) 0.002868 1136.6 0.1
1090(18) 0.003093 1136.3 0.1
1183(18) 0.003063 1136.0 0.1
1218(19) 0.002822 1135.7 0.1
1165(18) 0.002903 1135.3 0.1
1154(18) 0.002887 1135.0 0.1
1148(18) 0.003026 1134.7 0.1
1152(18) 0.003147 1134.4 0.1
1111(18) 0.003118 1134.0 0.1
1177(19) 0.002762 1133.7 0.1
1143(18) 0.002915 1133.4 0.1
1153(18) 0.003017 1133.1 0.1
1158(18) 0.003121 1132.7 0.1
1178(19) 0.002843 1132.4 0.1
1119(18) 0.002937 1132.1 0.1
1120(18) 0.002977 1131.8 0.1
1112(17) 0.003186 1131.4 0.1
1179(18) 0.003070 1131.1 0.1
1133(18) 0.002988 1130.8 0.1
1148(19) 0.002797 1130.5 0.1
1155(18) 0.002916 1130.1 0.1
1152(18) 0.003131 1129.8 0.1
1173(18) 0.003079 1129.5 0.1
1146(18) 0.002974 1129.2 0.1
1159(19) 0.002752 1128.8 0.1
1163(18) 0.002881 1128.5 0.1
1164(18) 0.003065 1128.2 0.1
1149(18) 0.003149 1127.9 0.1
1182(18) 0.002870 1127.5 0.1
1135(19) 0.002778 1127.2 0.1
1130(18) 0.002957 1126.9 0.1
1132(17) 0.003196 1126.6 0.1
1180(18) 0.003055 1126.2 0.1
1197(18) 0.002853 1125.9 0.1
1211(19) 0.002643 1125.6 0.1
1142(18) 0.002965 1125.3 0.1
1119(17) 0.003217 1124.9 0.1
1162(18) 0.003063 1124.6 0.1
1157(18) 0.002917 1124.3 0.1
1136(19) 0.002832 1124.0 0.1
1179(18) 0.002860 1123.6 0.1
1176(18) 0.003080 1123.3 0.1
1178(18) 0.002992 1123.0 0.1
1113(18) 0.003017 1122.6 0.1
1113(18) 0.002878 1122.3 0.1
1118(18) 0.003003 1122.0 0.1
1116(17) 0.003236 1121.7 0.1
1124(18) 0.003093 1121.3 0.1
1115(18) 0.003043 1121.0 0.1
1131(19) 0.002837 1120.7 0.1
1070(17) 0.003224 1120.4 0.1
1177(18) 0.003067 1120.0 0.1
1175(18) 0.003005 1119.7 0.1
1160(18) 0.002891 1119.4 0.1
1133(18) 0.002911 1119.1 0.1
1133(18) 0.003049 1118.7 0.1
1120(17) 0.003229 1118.4 0.1
1116(18) 0.003068 1118.1 0.1
1116(18) 0.002983 1117.8 0.1
1121(18) 0.003014 1117.4 0.1
1151(18) 0.003051 1117.1 0.1
1193(18) 0.003035 1116.8 0.1
1127(18) 0.003019 1116.5 0.1
1135(18) 0.002876 1116.1 0.1
1154(18) 0.002847 1115.8 0.1
1124(18) 0.003132 1115.5 0.1
1105(17) 0.003284 1115.2 0.1
1122(18) 0.003039 1114.8 0.1
1109(18) 0.002921 1114.5 0.1
1118(18) 0.002997 1114.2 0.1
1095(17) 0.003266 1113.9 0.1
1086(17) 0.003314 1113.5 0.1
1124(18) 0.002962 1113.2 0.1
1127(18) 0.002899 1112.9 0.1
1153(18) 0.003012 1112.6 0.1
1089(17) 0.003312 1112.2 0.1
1123(17) 0.003199 1111.9 0.1
1080(18) 0.003130 1111.6 0.1
1163(19) 0.002742 1111.3 0.1
1132(18) 0.003022 1110.9 0.1
1112(17) 0.003218 1110.6 0.1
1164(18) 0.003066 1110.3 0.1
1090(18) 0.003166 1110.0 0.1
1089(18) 0.002899 1109.6 0.1
1119(18) 0.003039 1109.3 0.1
1149(18) 0.003154 1109.0 0.1
1112(17) 0.003238 1108.7 0.1
1093(18) 0.003139 1108.3 0.1
1101(18) 0.002881 1108.0 0.1
1097(18) 0.003095 1107.7 0.1
1139(18) 0.003168 1107.4 0.1
1151(18) 0.003070 1107.0 0.1
1114(18) 0.003073 1106.7 0.1
1108(18) 0.002895 1106.4 0.1
1073(18) 0.003163 1106.1 0.1
1131(17) 0.003185 1105.7 0.1
1080(17) 0.003220 1105.4 0.1
1097(18) 0.003041 1105.1 0.1
1048(18) 0.003161 1104.8 0.1
1062(18) 0.003161 1104.4 0.1
1113(17) 0.003242 1104.1 0.1
1146(18) 0.003032 1103.7 0.1
1113(18) 0.003004 1103.1 0.1
1144(19) 0.002818 1102.5 0.1
1102(18) 0.003063 1101.9 0.1
1109(17) 0.003264 1101.3 0.1
1102(18) 0.003111 1100.7 0.1
1088(18) 0.003027 1100.1 0.1
1061(18) 0.003158 1099.5 0.1
1127(18) 0.003098 1098.9 0.1
1120(17) 0.003226 1098.3 0.1
1120(18) 0.003003 1097.7 0.1
1055(18) 0.003144 1097.1 0.1
1071(18) 0.003085 1096.5 0.1
1025(17) 0.003402 1095.9 0.1
1095(17) 0.003312 1095.3 0.1
1106(18) 0.003011 1094.7 0.1
1100(18) 0.003008 1094.1 0.1
1125(18) 0.003067 1093.5 0.1
1110(18) 0.003171 1092.9 0.1
1076(17) 0.003332 1092.3 0.1
1114(18) 0.003002 1091.7 0.1
1081(18) 0.002971 1091.1 0.1
1111(18) 0.003005 1090.6 0.1
1105(17) 0.003212 1090.0 0.1
1092(17) 0.003301 1089.4 0.1
1061(18) 0.003144 1088.8 0.1
1086(18) 0.002904 1088.2 0.1
1093(18) 0.003129 1087.6 0.1
1131(17) 0.003189 1087.0 0.1
1108(17) 0.003216 1086.4 0.1
1076(18) 0.003168 1085.8 0.1
1130(19) 0.002716 1085.2 0.1
1089(18) 0.003164 1084.6 0.1
1094(17) 0.003299 1084.0 0.1
1154(18) 0.003102 1083.4 0.1
1074(17) 0.003202 1082.8 0.1
1100(18) 0.002871 1082.2 0.1
1090(18) 0.003043 1081.6 0.1
1119(17) 0.003224 1081.0 0.1
1122(18) 0.003158 1080.4 0.1
1095(18) 0.003068 1079.8 0.1
1078(18) 0.003032 1079.2 0.1
1162(18) 0.002863 1078.6 0.1
1072(17) 0.003349 1078.1 0.1
1039(17) 0.003413 1077.5 0.1
1089(18) 0.003122 1076.9 0.1
1065(18) 0.003061 1076.3 0.1
1067(18) 0.003111 1075.7 0.1
1080(17) 0.003335 1075.1 0.1
1106(18) 0.003152 1074.5 0.1
1033(17) 0.003284 1073.9 0.1
1107(18) 0.002903 1073.3 0.1
1038(17) 0.003321 1072.7 0.1
1073(17) 0.003374 1072.1 0.1
1126(18) 0.003056 1071.5 0.1
1094(18) 0.002957 1070.9 0.1
1065(18) 0.003065 1070.3 0.1
1095(18) 0.003152 1069.7 0.1
1135(17) 0.003205 1069.1 0.1
1030(17) 0.003283 1068.5 0.1
1119(18) 0.002953 1067.9 0.1
1111(18) 0.003014 1067.3 0.1
1098(17) 0.003186 1066.7 0.1
1058(17) 0.003403 1066.1 0.1
1073(18) 0.003106 1065.5 0.1
1082(18) 0.002966 1065.0 0.1
1088(18) 0.003050 1064.4 0.1
1106(17) 0.003183 1063.8 0.1
1041(17) 0.003445 1063.2 0.1
1047(17) 0.003233 1062.6 0.1
1060(18) 0.003057 1062.0 0.1
1070(18) 0.003162 1061.4 0.1
1104(17) 0.003225 1060.8 0.1
1075(17) 0.003351 1060.2 0.1
1043(18) 0.003159 1059.6 0.1
1035(18) 0.003085 1059.0 0.1
1071(17) 0.003183 1058.4 0.1
1035(17) 0.003487 1057.8 0.1
1041(17) 0.003467 1057.2 0.1
1033(17) 0.003296 1056.6 0.1
1084(19) 0.002824 1056.0 0.1
1045(18) 0.003165 1055.4 0.1
1058(17) 0.003399 1054.8 0.1
1059(17) 0.003370 1054.2 0.1
1105(18) 0.003056 1053.6 0.1
1074(18) 0.002983 1053.0 0.1
1032(17) 0.003286 1052.5 0.1
1085(17) 0.003324 1051.9 0.1
1083(17) 0.003264 1051.3 0.1
1038(17) 0.003205 1050.7 0.1
1046(18) 0.003032 1050.1 0.1
1051(17) 0.003200 1049.5 0.1
1059(17) 0.003403 1048.9 0.1
1047(17) 0.003343 1048.3 0.1
1051(17) 0.003235 1047.7 0.1
1034(18) 0.003140 1047.1 0.1
1066(18) 0.003150 1046.5 0.1
1076(17) 0.003359 1045.9 0.1
1036(17) 0.003401 1045.3 0.1
1051(17) 0.003218 1044.7 0.1
1085(18) 0.003004 1044.1 0.1
1029(17) 0.003249 1043.5 0.1
1080(17) 0.003337 1042.9 0.1
981(17) 0.00352 1042.3 0.1
1006(17) 0.003224 1041.7 0.1
1062(18) 0.003129 1041.1 0.1
1071(17) 0.003179 1040.5 0.1
967(16) 0.00373 1039.9 0.1
1037(17) 0.003292 1039.4 0.1
1062(18) 0.003083 1038.8 0.1
1004(17) 0.003368 1038.2 0.1
1075(17) 0.003266 1037.6 0.1
1092(17) 0.003305 1037.0 0.1
993(17) 0.003420 1036.4 0.1
1034(18) 0.003137 1035.8 0.1
1027(17) 0.003247 1035.2 0.1
1043(17) 0.003387 1034.6 0.1
1066(17) 0.003365 1034.0 0.1
1022(17) 0.003323 1033.4 0.1
1024(18) 0.003164 1032.8 0.1
1011(17) 0.003351 1032.2 0.1
993(16) 0.00356 1031.6 0.1
1050(17) 0.003433 1031.0 0.1
1064(18) 0.003166 1030.4 0.1
994(18) 0.003171 1029.8 0.1
1000(17) 0.003374 1029.2 0.1
1022(17) 0.003492 1028.6 0.1
1007(16) 0.00357 1028.0 0.1
1056(17) 0.003252 1027.4 0.1
1073(18) 0.002896 1026.9 0.1
1010(17) 0.003326 1026.3 0.1
976(16) 0.00368 1025.7 0.1
1016(17) 0.003462 1025.1 0.1
1027(17) 0.003269 1024.5 0.1
1011(18) 0.003058 1023.9 0.1
1009(17) 0.003350 1023.3 0.1
999(16) 0.00360 1022.7 0.1
1039(17) 0.003437 1022.1 0.1
1045(17) 0.003193 1021.5 0.1
1031(18) 0.003029 1020.9 0.1
1052(18) 0.003121 1020.3 0.1
1037(17) 0.003477 1019.7 0.1
1027(17) 0.003436 1019.1 0.1
1031(17) 0.003246 1018.5 0.1
1038(18) 0.003111 1017.9 0.1
1020(17) 0.003307 1017.3 0.1
998(16) 0.00359 1016.7 0.1
997(17) 0.003474 1016.1 0.1
1022(17) 0.003288 1015.5 0.1
999(17) 0.003342 1014.9 0.1
999(17) 0.003379 1014.3 0.1
1006(16) 0.00359 1013.8 0.1
1016(17) 0.003395 1013.2 0.1
996(17) 0.003284 1012.6 0.1
989(17) 0.003312 1012.0 0.1
1051(17) 0.003210 1011.4 0.1
990(16) 0.00363 1010.8 0.1
1024(17) 0.003391 1010.2 0.1
1010(17) 0.003265 1009.6 0.1
995(17) 0.003360 1009.0 0.1
999(17) 0.003424 1008.4 0.1
1011(17) 0.00355 1007.8 0.1
1032(17) 0.003214 1007.2 0.1
1057(18) 0.003091 1006.6 0.1
1002(17) 0.003341 1006.0 0.2
1036(17) 0.003360 1005.4 0.2
1038(17) 0.003457 1004.8 0.2
988(17) 0.003391 1004.2 0.2
996(17) 0.003227 1003.6 0.2
1031(17) 0.003230 1003.0 0.2
1038(17) 0.003424 1002.4 0.2
1033(17) 0.003486 1001.8 0.2
971(17) 0.003480 1001.3 0.2
970(17) 0.003291 1000.7 0.2
993(17) 0.003392 1000.1 0.2
1039(17) 0.003458 999.5 0.2
1008(16) 0.00359 998.9 0.2
1035(17) 0.003223 998.3 0.2
1006(18) 0.003096 997.7 0.2
993(17) 0.003402 997.1 0.2
1038(17) 0.003435 996.5 0.2
975(16) 0.00370 995.9 0.2
1024(17) 0.003290 995.3 0.2
984(17) 0.003245 994.7 0.2
1004(17) 0.003378 994.1 0.2
983(16) 0.00366 993.5 0.2
956(16) 0.00372 992.9 0.2
994(17) 0.003362 992.3 0.2
966(17) 0.003279 991.7 0.2
992(17) 0.003362 991.1 0.2
979(16) 0.00368 990.5 0.2
974(16) 0.00363 989.9 0.2
1006(17) 0.003284 989.3 0.2
1023(18) 0.003124 988.7 0.2
1005(17) 0.003366 988.2 0.3
992(16) 0.00361 987.6 0.3
1005(17) 0.003466 987.0 0.3
918(16) 0.00372 986.4 0.3
996(17) 0.003235 985.8 0.3
1006(17) 0.003325 985.2 0.3
943(16) 0.00381 984.6 0.3
971(17) 0.00354 984.0 0.3
961(17) 0.003488 983.4 0.3
1010(17) 0.003232 982.8 0.3
974(17) 0.00351 982.2 0.3
974(16) 0.00368 981.6 0.3
1015(17) 0.003318 981.0 0.3
1017(17) 0.003268 980.4 0.3
1025(17) 0.003263 979.8 0.3
971(16) 0.00359 979.2 0.3
976(16) 0.00367 978.6 1.5
1024(17) 0.003298 978.0 1.5
957(17) 0.003475 977.4 1.5
952(17) 0.003491 976.8 1.5
953(16) 0.00362 976.2 1.6
984(16) 0.00366 975.6 1.6
957(17) 0.003455 975.0 1.6
943(17) 0.003490 974.4 1.7
1008(17) 0.003299 973.7 1.7
998(17) 0.00351 973.1 1.7
983(16) 0.00367 972.5 1.8
979(17) 0.003465 971.9 1.8
982(17) 0.003254 971.3 1.8
958(17) 0.00351 970.7 1.9
995(17) 0.00355 970.1 1.9
979(16) 0.00369 969.5 1.9
1020(17) 0.003278 968.9 2.0
997(18) 0.003166 968.3 2.0
998(17) 0.003446 967.7 2.1
967(16) 0.00368 967.1 2.1
997(16) 0.00362 966.5 2.2
993(17) 0.003400 965.9 2.2
990(18) 0.003156 965.3 2.3
967(17) 0.00351 964.7 2.3
988(16) 0.00365 964.1 2.4
945(16) 0.00382 963.5 2.4
990(17) 0.003416 962.8 2.5
965(17) 0.003331 962.2 2.5
953(17) 0.00353 961.6 2.6
980(16) 0.00368 961.0 2.7
941(16) 0.00379 960.4 2.7
983(17) 0.003374 959.8 2.8
982(17) 0.003223 959.2 2.9
957(17) 0.003500 958.6 3.0
983(16) 0.00365 958.0 3.0
972(16) 0.00363 957.4 3.1
963(17) 0.003479 956.8 3.2
962(17) 0.003357 956.2 3.3
950(16) 0.00357 955.6 3.4
968(16) 0.00370 955.0 3.5
987(17) 0.003460 954.4 3.6
956(17) 0.00355 953.8 3.7
941(17) 0.00353 953.2 3.8
962(16) 0.00358 952.6 4.0
951(16) 0.00377 952.0 4.1
927(16) 0.00372 951.3 4.2
931(16) 0.00358 950.7 4.4
973(17) 0.003420 950.1 4.5
972(17) 0.003501 949.5 4.7
982(16) 0.00367 948.9 4.9
988(17) 0.003404 948.3 5.1
942(17) 0.00351 947.7 5.3
904(16) 0.00366 947.1 5.5
936(16) 0.00367 946.5 5.7
950(16) 0.00377 945.9 6.0
914(16) 0.00370 945.3 6.3
929(16) 0.00359 944.7 6.6
936(16) 0.00360 944.1 6.9
942(16) 0.00372 943.5 7.3
973(16) 0.00369 942.9 7.7
922(16) 0.00369 942.3 8.2
949(17) 0.003355 941.7 8.7
960(17) 0.003443 941.1 9.3
930(16) 0.00376 940.4 9.9
947(16) 0.00382 939.8 10.5
919(16) 0.00365 939.2 11.3
961(17) 0.003277 938.6 12.1
985(17) 0.003414 938.0 12.9
967(16) 0.00365 937.4 13.9
941(16) 0.00379 936.8 14.9
938(16) 0.00362 936.2 15.9
915(17) 0.003505 935.6 17.1
922(16) 0.00370 935.0 18.3
951(16) 0.00378 934.4 19.6
937(16) 0.00381 933.8 20.9
953(17) 0.003504 933.2 22.3
942(17) 0.003341 932.6 23.6
926(16) 0.00367 932.0 25.0
965(16) 0.00375 931.4 26.4
936(16) 0.00377 930.8 27.6
960(17) 0.00353 930.2 28.8
978(17) 0.003273 929.6 29.9
955(17) 0.00355 928.9 30.8
960(16) 0.00375 928.3 31.5
969(16) 0.00365 927.7 31.9
960(17) 0.00355 927.1 32.2
953(17) 0.003416 926.5 32.3
938(16) 0.00365 925.9 32.3
926(16) 0.00389 925.3 32.1
894(16) 0.00393 924.7 31.8
971(17) 0.003379 924.1 31.5
953(17) 0.003398 923.5 31.1
918(16) 0.00371 922.9 30.9
955(16) 0.00380 922.3 30.7
916(16) 0.00378 921.7 30.5
961(17) 0.003467 921.1 30.6
976(17) 0.003344 920.5 30.7
954(16) 0.00364 919.9 31.1
975(16) 0.00367 919.3 31.6
930(16) 0.00373 918.7 32.3
919(16) 0.00366 918.1 33.3
954(17) 0.003484 917.4 34.6
942(16) 0.00365 916.8 36.2
947(16) 0.00380 916.2 38.1
946(16) 0.00357 915.6 40.4
952(17) 0.003416 915.0 43.1
960(17) 0.003428 914.4 47.6
932(16) 0.00376 913.8 51.5
943(16) 0.00383 913.2 56.1
951(17) 0.00351 912.6 61.6
972(17) 0.003326 912.0 68.1
970(17) 0.003471 911.4 76.0
968(16) 0.00366 910.8 85.6
1026(17) 0.003496 910.2 97.6
1014(17) 0.003368 909.6 113.3
1031(18) 0.003103 909.0 134.9
1050(17) 0.003186 908.4 166.5
1145(18) 0.003092 907.8 215.0
1164(18) 0.003115 907.2 290.6
1326(20) 0.002566 906.5 407.2
1401(21) 0.002264 905.9 579.9
1602(22) 0.002100 905.3 820.7
1967(23) 0.001837 904.7 1131.7
2190(24) 0.001658 904.1 1497.3
2563(27) 0.001341 903.5 1876.3
2979(31) 0.001062 902.9 2193.2
3270(31) 0.001047 902.3 2348.6
3406(30) 0.001077 901.7 2278.2
3052(29) 0.001184 901.1 2012.5
2617(28) 0.001293 900.5 1646.8
2141(26) 0.001507 899.9 1269.0
1816(23) 0.001888 899.3 933.5
1521(20) 0.002401 898.7 665.0
1409(20) 0.002508 898.1 466.8
1266(19) 0.002695 897.5 329.9
1192(19) 0.002730 896.9 239.9
1165(18) 0.002871 896.3 182.2
1107(17) 0.003273 895.7 144.9
1092(17) 0.003197 895.0 119.9
985(17) 0.003400 894.4 102.0
994(17) 0.003286 893.8 88.6
1032(17) 0.003200 893.2 77.9
979(16) 0.00366 892.6 69.2
996(17) 0.003454 892.0 61.9
907(16) 0.00363 891.4 55.8
938(16) 0.00357 890.8 50.5
994(17) 0.003441 890.2 46.0
941(16) 0.00384 889.6 42.1
945(16) 0.00360 889.0 38.7
954(17) 0.003444 888.4 35.7
935(16) 0.00358 887.8 33.1
914(16) 0.00379 887.2 30.8
902(16) 0.00400 886.6 28.7
960(17) 0.003475 886.0 26.9
944(17) 0.003469 885.4 25.2
906(16) 0.00370 884.8 23.8
896(16) 0.00392 884.1 22.4
911(16) 0.00396 883.5 21.2
899(16) 0.00370 882.9 20.1
890(16) 0.00369 882.3 19.1
889(16) 0.00380 881.7 18.2
873(15) 0.00403 881.1 17.4
891(15) 0.00402 880.5 16.6
909(16) 0.00371 879.9 15.9
902(16) 0.00363 879.3 15.3
933(16) 0.00365 878.7 14.7
860(15) 0.00412 878.1 14.1
873(15) 0.00410 877.5 13.6
906(16) 0.00365 876.9 13.1
911(17) 0.003417 876.3 12.7
874(16) 0.00387 875.7 12.3
874(15) 0.00408 875.1 12.1
893(15) 0.00403 874.5 11.8
862(16) 0.00386 873.9 11.5
853(16) 0.00370 873.3 11.2
883(16) 0.00378 872.6 10.9
861(15) 0.00419 872.0 10.7
893(16) 0.00396 871.4 10.4
908(16) 0.00372 870.8 10.2
883(16) 0.00358 870.2 10.1
878(16) 0.00384 869.6 10.0
855(15) 0.00420 869.0 10.0
853(15) 0.00412 868.4 10.0
859(16) 0.00387 867.8 10.3
876(16) 0.00364 867.2 10.7
882(16) 0.00384 866.6 11.1
886(15) 0.00403 866.0 11.4
902(16) 0.00386 865.4 11.5
858(16) 0.00387 864.8 11.3
896(16) 0.00359 864.2 10.7
901(16) 0.00374 863.6 10.1
894(15) 0.00402 863.0 9.5
835(15) 0.00412 862.4 9.0
881(16) 0.00376 861.7 8.6
870(16) 0.00380 861.1 8.4
900(16) 0.00377 860.5 8.2
863(15) 0.00416 859.9 8.1
901(16) 0.00371 859.3 8.0
837(16) 0.00394 858.7 8.0
841(16) 0.00397 858.1 7.9
856(16) 0.00399 857.5 7.9
896(16) 0.00400 856.9 7.9
834(15) 0.00410 856.3 7.8
871(16) 0.00375 855.7 7.8
879(16) 0.00382 855.1 7.8
874(16) 0.00399 854.5 7.8
844(15) 0.00421 853.9 7.8
860(16) 0.00387 853.3 7.8
923(17) 0.003404 852.7 7.8
870(16) 0.00380 852.1 7.8
855(15) 0.00409 851.5 7.8
878(15) 0.00410 850.9 7.8
841(15) 0.00401 850.2 7.9
841(16) 0.00382 849.6 7.9
840(16) 0.00396 849.0 7.9
845(15) 0.00413 848.4 8.0
882(15) 0.00407 847.9 8.0
856(15) 0.00402 847.4 8.0
879(16) 0.00357 846.9 8.1
837(16) 0.00401 846.4 8.1
858(15) 0.00414 845.9 8.2
821(15) 0.00433 845.4 8.3
870(16) 0.00379 844.8 8.3
826(16) 0.00386 844.3 8.4
844(16) 0.00396 843.8 8.5
868(15) 0.00407 843.3 8.5
853(15) 0.00417 842.8 8.6
829(15) 0.00404 842.3 8.7
855(16) 0.00373 841.8 8.8
821(15) 0.00411 841.3 8.9
837(15) 0.00427 840.8 9.0
868(15) 0.00408 840.2 9.1
853(16) 0.00397 839.7 9.2
858(16) 0.00379 839.2 9.3
834(15) 0.00402 838.7 9.5
817(15) 0.00435 838.2 9.6
880(16) 0.00398 837.7 9.7
868(16) 0.00389 837.2 9.8
847(16) 0.00380 836.7 10.0
868(16) 0.00369 836.2 10.1
842(15) 0.00426 835.6 10.3
816(15) 0.00425 835.1 10.5
854(16) 0.00396 834.6 10.6
891(16) 0.00362 834.1 10.8
826(16) 0.00398 833.6 11.0
822(15) 0.00433 833.1 11.2
844(15) 0.00408 832.6 11.4
805(15) 0.00407 832.1 11.6
847(16) 0.00384 831.6 11.8
856(16) 0.00391 831.1 12.0
811(15) 0.00441 830.5 12.3
867(16) 0.00385 830.0 12.5
841(16) 0.00388 829.5 12.8
845(16) 0.00393 829.0 13.1
881(16) 0.00390 828.5 13.3
816(15) 0.00437 828.0 13.6
854(16) 0.00388 827.5 13.9
848(16) 0.00379 827.0 14.3
876(16) 0.00376 826.5 14.6
831(15) 0.00421 825.9 15.0
834(15) 0.00429 825.4 15.3
812(15) 0.00409 824.9 15.7
895(16) 0.00357 824.4 16.1
812(15) 0.00420 823.9 16.5
825(15) 0.00418 823.4 17.0
830(15) 0.00432 822.9 17.5
793(15) 0.00424 822.4 18.0
839(16) 0.00379 821.9 18.5
851(16) 0.00394 821.4 19.0
808(15) 0.00439 820.8 19.6
832(15) 0.00427 820.3 20.2
871(16) 0.00388 819.8 20.9
824(16) 0.00379 819.3 21.6
814(15) 0.00407 818.8 22.3
815(15) 0.00436 818.3 23.1
826(15) 0.00438 817.8 23.9
860(16) 0.00386 817.3 24.8
797(16) 0.00401 816.8 25.7
813(15) 0.00413 816.2 26.7
829(15) 0.00434 815.7 27.8
811(15) 0.00433 815.2 28.9
804(15) 0.00421 814.7 30.2
820(16) 0.00387 814.2 31.5
812(15) 0.00413 813.7 33.0
866(15) 0.00414 813.2 34.5
842(15) 0.00411 812.7 36.3
897(16) 0.00365 812.2 38.2
843(16) 0.00382 811.6 40.2
856(16) 0.00390 811.1 42.5
860(15) 0.00416 810.6 45.1
908(16) 0.00383 810.1 48.1
872(16) 0.00384 809.6 51.4
845(16) 0.00386 809.1 55.4
842(16) 0.00399 808.6 60.1
875(15) 0.00408 808.1 65.8
912(16) 0.00372 807.6 72.9
870(16) 0.00382 807.1 81.7
869(16) 0.00381 806.5 92.7
939(16) 0.00361 806.0 106.4
938(16) 0.00384 805.5 123.4
919(16) 0.00367 805.0 143.9
974(17) 0.003387 804.5 168.5
992(17) 0.003378 804.0 197.0
997(17) 0.003470 803.5 229.2
1025(17) 0.00351 803.0 264.2
1090(18) 0.003046 802.5 300.2
1113(18) 0.002928 801.9 334.5
1183(19) 0.002821 801.4 363.2
1151(18) 0.003069 800.9 381.9
1204(18) 0.002987 800.4 387.7
1177(18) 0.002862 799.9 379.9
1184(19) 0.002729 799.4 361.2
1144(18) 0.003007 798.9 335.7
1143(18) 0.003168 798.4 307.8
1097(17) 0.003278 797.9 280.6
1053(18) 0.003158 797.3 256.3
986(17) 0.003179 796.8 236.1
963(17) 0.003493 796.3 220.8
967(16) 0.00371 795.8 210.7
966(16) 0.00371 795.3 205.8
972(17) 0.003444 794.8 206.1
911(17) 0.003437 794.3 211.7
915(16) 0.00367 793.8 222.4
973(16) 0.00369 793.3 238.5
964(16) 0.00369 792.8 260.3
1055(17) 0.003212 792.2 288.2
1077(18) 0.002936 791.7 322.7
1071(17) 0.003182 791.2 364.6
1159(18) 0.003107 790.7 414.4
1229(18) 0.002934 790.2 472.6
1227(19) 0.002803 789.7 539.9
1331(20) 0.002404 789.2 616.2
1485(21) 0.002250 788.7 701.5
1586(21) 0.002288 788.2 795.1
1656(21) 0.002176 787.6 895.5
1873(23) 0.001821 787.1 1000.5
1961(24) 0.001649 786.6 1106.5
2150(25) 0.001554 786.1 1208.4
2232(25) 0.001630 785.6 1299.8
2267(25) 0.001574 785.1 1373.0
2315(26) 0.001480 784.6 1420.8
2295(26) 0.001460 784.1 1437.6
2163(25) 0.001593 783.6 1421.2
2107(24) 0.001732 783.1 1373.6
2052(24) 0.001711 782.5 1300.3
1875(23) 0.001804 782.0 1208.6
1812(23) 0.001828 781.5 1106.0
1722(22) 0.002020 781.0 999.1
1645(21) 0.002217 780.5 893.0
1587(21) 0.002134 780.0 791.2
1555(22) 0.002115 779.5 696.1
1389(20) 0.002464 779.0 609.2
1323(19) 0.002628 778.5 531.0
1300(19) 0.002786 777.9 461.9
1254(19) 0.002673 777.4 401.4
1167(19) 0.002843 776.9 349.1
1146(18) 0.002894 776.4 304.4
1045(17) 0.003341 775.9 266.4
1054(17) 0.003419 775.4 234.4
1033(17) 0.003258 774.9 207.5
1002(17) 0.003295 774.4 184.9
1028(17) 0.003293 773.9 166.0
963(16) 0.00365 773.3 150.0
939(16) 0.00382 772.8 136.5
914(16) 0.00362 772.3 125.0
913(17) 0.003476 771.8 115.1
935(17) 0.00352 771.3 106.6
924(16) 0.00380 770.8 99.0
898(16) 0.00397 770.3 92.4
886(16) 0.00373 769.8 86.5
858(16) 0.00368 769.3 81.2
838(15) 0.00402 768.8 76.4
807(15) 0.00439 768.2 72.1
819(15) 0.00440 767.7 68.1
835(15) 0.00409 767.2 64.5
852(16) 0.00368 766.7 61.2
859(16) 0.00391 766.2 58.1
761(14) 0.00474 765.7 55.3
817(15) 0.00433 765.2 52.7
813(15) 0.00414 764.7 50.2
820(16) 0.00383 764.2 48.0
817(15) 0.00415 763.6 45.9
825(15) 0.00433 763.1 44.0
825(15) 0.00431 762.6 42.2
744(15) 0.00450 762.1 40.5
811(16) 0.00389 761.6 38.9
799(15) 0.00420 761.1 37.4
810(15) 0.00442 760.6 36.1
799(15) 0.00438 760.1 34.8
796(15) 0.00409 759.6 33.6
775(15) 0.00419 759.0 32.4
790(15) 0.00419 758.5 31.4
751(14) 0.00476 758.0 30.4
764(15) 0.00444 757.5 29.4
803(15) 0.00406 757.0 28.5
778(15) 0.00417 756.5 27.7
778(15) 0.00440 756.0 27.3
786(15) 0.00451 755.5 26.5
790(15) 0.00435 755.0 25.9
758(15) 0.00437 754.5 25.2
782(15) 0.00405 753.9 24.6
770(15) 0.00439 753.4 24.1
773(14) 0.00462 752.9 23.6
785(15) 0.00426 752.4 23.1
764(15) 0.00423 751.9 22.6
770(15) 0.00435 751.4 22.2
789(15) 0.00440 750.9 21.8
746(14) 0.00477 750.4 21.4
766(15) 0.00433 749.9 21.1
760(15) 0.00423 749.3 20.8
765(15) 0.00425 748.8 20.5
744(14) 0.00469 748.3 20.3
737(14) 0.00483 747.8 20.0
720(14) 0.00462 747.3 19.8
747(15) 0.00425 746.8 19.7
803(15) 0.00413 746.3 19.5
779(15) 0.00448 745.8 19.4
718(14) 0.00492 745.3 19.3
726(15) 0.00448 744.8 19.2
753(15) 0.00409 744.2 19.2
747(15) 0.00439 743.7 19.2
778(15) 0.00455 743.2 19.2
750(14) 0.00473 742.7 19.3
764(15) 0.00438 742.2 19.4
766(16) 0.00398 741.7 19.5
737(15) 0.00446 741.2 19.7
753(14) 0.00463 740.7 20.0
761(14) 0.00467 740.2 20.2
777(15) 0.00434 739.6 20.6
738(15) 0.00427 739.1 21.0
746(15) 0.00448 738.6 21.5
744(14) 0.00478 738.1 22.1
754(14) 0.00468 737.6 22.7
744(15) 0.00446 737.1 23.6
744(15) 0.00430 736.6 24.5
757(15) 0.00442 736.1 25.7
705(14) 0.00503 735.6 27.2
735(14) 0.00477 735.0 29.2
780(15) 0.00427 734.5 32.2
788(15) 0.00407 734.0 37.5
776(15) 0.00426 733.5 48.2
795(15) 0.00451 733.0 69.5
836(15) 0.00417 732.5 109.1
897(16) 0.00372 732.0 173.4
924(17) 0.003472 731.5 262.5
991(17) 0.003337 731.0 363.6
1065(17) 0.003374 730.5 449.4
1267(19) 0.002710 729.9 485.1
1328(20) 0.002504 729.4 453.0
1176(18) 0.002866 728.9 371.0
993(17) 0.003412 728.4 273.7
834(15) 0.00432 727.9 188.6
814(15) 0.00416 727.4 128.6
788(15) 0.00416 726.9 93.9
787(15) 0.00424 726.4 77.9
790(15) 0.00432 725.9 73.1
774(14) 0.00462 725.3 74.4
787(15) 0.00423 724.8 78.7
789(15) 0.00409 724.3 84.9
828(16) 0.00400 723.8 92.3
783(15) 0.00448 723.3 101.0
800(15) 0.00444 722.8 110.9
829(15) 0.00403 722.3 121.7
859(16) 0.00374 721.8 133.6
852(16) 0.00391 721.3 146.1
889(16) 0.00398 720.7 159.3
902(16) 0.00398 720.2 172.7
877(16) 0.00381 719.7 185.9
878(16) 0.00360 719.2 198.5
924(16) 0.00367 718.7 209.7
877(15) 0.00405 718.2 218.9
923(16) 0.00389 717.7 225.5
909(16) 0.00372 717.2 228.9
896(17) 0.003458 716.7 228.7
872(16) 0.00378 716.2 225.1
891(16) 0.00395 715.6 218.2
915(16) 0.00391 715.1 208.7
878(16) 0.00381 714.6 197.1
863(16) 0.00357 714.1 184.2
835(15) 0.00405 713.6 170.5
827(15) 0.00436 713.1 156.7
819(15) 0.00432 712.6 143.0
795(15) 0.00426 712.1 129.9
792(16) 0.00398 711.6 117.5
778(15) 0.00433 711.0 105.9
769(14) 0.00459 710.5 95.2
743(14) 0.00479 710.0 85.5
763(15) 0.00440 709.5 76.7
811(16) 0.00386 709.0 68.8
788(15) 0.00418 708.5 61.8
726(14) 0.00491 708.0 55.6
764(15) 0.00452 707.5 50.1
764(15) 0.00434 707.0 45.3
740(15) 0.00440 706.5 41.2
787(15) 0.00421 705.9 37.6
696(14) 0.00510 705.4 34.4
714(14) 0.00482 704.9 31.7
745(15) 0.00434 704.4 29.3
701(14) 0.00468 703.9 27.2
716(14) 0.00486 703.4 25.4
744(14) 0.00480 702.9 23.8
711(14) 0.00478 702.4 22.4
724(15) 0.00448 701.9 21.1
658(14) 0.00501 701.3 20.0
702(14) 0.00491 700.8 18.9
697(14) 0.00509 700.3 18.0
733(15) 0.00455 699.8 17.2
706(14) 0.00460 699.3 16.4
723(14) 0.00468 698.8 15.7
721(14) 0.00491 698.3 15.0
696(14) 0.00509 697.8 14.4
711(14) 0.00463 697.3 13.9
708(15) 0.00449 696.7 13.4
723(15) 0.00455 696.2 12.9
717(14) 0.00491 695.7 12.5
694(14) 0.00512 695.2 12.1
678(14) 0.00485 694.7 11.7
675(14) 0.00468 694.2 11.3
693(14) 0.00484 693.7 10.9
704(14) 0.00490 693.2 10.6
693(14) 0.00511 692.7 10.3
704(14) 0.00476 692.2 10.0
700(15) 0.00451 691.6 9.8
738(15) 0.00447 691.1 9.5
684(14) 0.00517 690.6 9.3
685(14) 0.00516 690.1 9.1
700(14) 0.00484 689.6 8.9
713(15) 0.00442 689.1 8.7
735(14) 0.00459 688.6 8.5
677(13) 0.00523 688.1 8.4
698(14) 0.00501 687.6 8.2
666(14) 0.00503 687.0 8.1
651(14) 0.00486 686.5 8.0
669(14) 0.00489 686.0 7.9
709(14) 0.00500 685.5 7.8
706(14) 0.00494 685.0 7.8
705(14) 0.00464 684.5 7.8
673(14) 0.00479 684.0 7.8
711(14) 0.00462 683.5 7.9
728(14) 0.00487 683.0 8.0
672(14) 0.00513 682.5 8.2
657(14) 0.00508 681.9 8.4
712(15) 0.00444 681.4 8.7
674(14) 0.00492 680.9 9.0
673(13) 0.00528 680.4 9.4
681(14) 0.00512 679.9 9.9
694(14) 0.00467 679.4 10.4
721(15) 0.00445 678.9 11.0
688(14) 0.00485 678.4 11.6
688(14) 0.00515 677.9 12.2
690(14) 0.00490 677.3 12.8
683(14) 0.00490 676.8 13.4
716(15) 0.00448 676.3 13.9
687(14) 0.00491 675.8 14.2
683(14) 0.00519 675.3 14.3
704(14) 0.00474 674.8 14.2
703(15) 0.00455 674.3 13.9
657(14) 0.00514 673.8 13.4
697(14) 0.00488 673.3 12.7
696(14) 0.00507 672.7 12.0
668(14) 0.00499 672.2 11.3
660(14) 0.00473 671.7 10.5
671(14) 0.00486 671.2 9.7
655(13) 0.00525 670.7 9.0
653(13) 0.00544 670.2 8.4
687(14) 0.00482 669.7 7.8
670(14) 0.00474 669.2 7.3
652(14) 0.00518 668.7 6.8
658(14) 0.00522 668.2 6.4
659(13) 0.00543 667.6 6.0
677(14) 0.00503 667.1 5.7
696(15) 0.00445 666.6 5.5
636(13) 0.00525 666.1 5.3
672(14) 0.00521 665.6 5.1
665(13) 0.00534 665.1 4.9
667(14) 0.00503 664.6 4.8
659(14) 0.00459 664.1 4.7
681(14) 0.00485 663.6 4.6
688(14) 0.00516 663.0 4.5
680(14) 0.00514 662.7 4.5
666(14) 0.00503 662.3 4.4
664(14) 0.00477 662.0 4.4
683(14) 0.00485 661.7 4.3
639(13) 0.00554 661.3 4.3
686(14) 0.00512 661.0 4.3
656(14) 0.00494 660.6 4.3
630(14) 0.00491 660.3 4.3
682(14) 0.00487 659.9 4.3
657(13) 0.00538 659.6 4.3
687(14) 0.00507 659.3 4.3
665(14) 0.00510 658.9 4.3
691(14) 0.00472 658.6 4.4
667(14) 0.00504 658.2 4.4
635(13) 0.00554 657.9 4.5
693(14) 0.00505 657.6 4.5
652(14) 0.00516 657.2 4.6
649(14) 0.00502 656.9 4.7
656(14) 0.00516 656.5 4.8
647(13) 0.00551 656.2 4.9
668(14) 0.00493 655.8 5.0
650(14) 0.00510 655.5 5.1
612(13) 0.00538 655.2 5.2
656(14) 0.00509 654.8 5.3
693(14) 0.00515 654.5 5.5
700(14) 0.00473 654.1 5.6
694(15) 0.00452 653.8 5.8
697(14) 0.00466 653.5 5.9
714(14) 0.00482 653.1 6.1
658(13) 0.00537 652.8 6.2
670(14) 0.00491 652.4 6.4
671(14) 0.00475 652.1 6.6
673(14) 0.00494 651.8 7.2
696(14) 0.00495 651.4 7.3
679(14) 0.00522 651.1 7.5
694(14) 0.00485 650.7 7.7
702(15) 0.00447 650.4 7.8
668(14) 0.00500 650.0 7.9
670(13) 0.00526 649.7 8.0
656(13) 0.00539 649.4 8.1
651(14) 0.00520 649.0 8.2
681(14) 0.00458 648.7 8.3
694(14) 0.00474 648.3 8.3
697(14) 0.00499 648.0 8.3
653(13) 0.00546 647.7 8.3
644(14) 0.00510 647.3 8.2
661(14) 0.00466 647.0 8.1
663(14) 0.00494 646.6 8.0
652(13) 0.00534 646.3 7.9
673(14) 0.00522 646.0 7.8
648(14) 0.00517 645.6 7.6
665(14) 0.00466 645.3 7.4
649(14) 0.00519 644.9 7.3
684(14) 0.00517 644.6 7.1
635(13) 0.00548 644.2 6.9
656(14) 0.00494 643.9 6.7
632(14) 0.00495 643.6 6.6
638(14) 0.00518 643.2 6.4
689(14) 0.00511 642.9 6.2
634(13) 0.00550 642.5 6.1
639(14) 0.00520 642.2 5.9
658(14) 0.00486 641.9 5.7
634(13) 0.00528 641.5 5.6
628(13) 0.00562 641.2 5.5
626(13) 0.00545 640.8 5.3
637(14) 0.00507 640.5 5.2
651(14) 0.00492 640.1 5.1
608(13) 0.00540 639.8 5.0
621(13) 0.00567 639.5 4.9
672(14) 0.00502 639.1 4.9
675(14) 0.00478 638.8 4.8
647(14) 0.00507 638.4 4.8
639(13) 0.00532 638.1 4.7
631(13) 0.00562 637.8 4.7
639(14) 0.00516 637.4 4.7
647(14) 0.00499 637.1 4.7
645(14) 0.00507 636.7 4.7
652(14) 0.00522 636.4 4.7
646(13) 0.00546 636.1 4.7
617(13) 0.00538 635.7 4.8
632(14) 0.00494 635.4 4.8
648(14) 0.00508 635.0 4.9
646(13) 0.00535 634.7 5.0
618(13) 0.00568 634.3 5.1
626(14) 0.00521 634.0 5.2
635(14) 0.00512 633.7 5.3
654(13) 0.00523 633.3 5.5
657(13) 0.00535 633.0 5.7
651(13) 0.00540 632.6 5.9
637(14) 0.00505 632.3 6.1
622(14) 0.00503 632.0 6.4
639(14) 0.00499 631.6 6.7
619(13) 0.00565 631.3 7.1
625(13) 0.00558 630.9 7.5
589(13) 0.00553 630.6 8.0
635(14) 0.00472 630.2 8.5
649(14) 0.00500 629.9 9.1
620(13) 0.00573 629.6 9.8
669(13) 0.00527 629.2 10.7
639(13) 0.00528 628.9 11.6
656(14) 0.00473 628.5 12.8
646(14) 0.00515 628.2 14.2
649(13) 0.00546 627.9 15.8
662(14) 0.00517 627.5 17.8
675(14) 0.00504 627.2 20.4
660(14) 0.00481 626.8 23.7
701(14) 0.00470 626.5 28.4
653(13) 0.00538 626.2 35.6
682(14) 0.00512 625.8 47.2
654(14) 0.00515 625.5 66.6
695(15) 0.00453 625.1 98.0
720(14) 0.00463 624.8 146.3
796(15) 0.00447 624.4 214.7
824(15) 0.00427 624.1 302.2
932(16) 0.00361 623.8 401.0
1057(18) 0.003087 623.4 493.6
1158(18) 0.002871 623.1 552.4
1220(18) 0.002975 622.7 552.4
1152(18) 0.002944 622.4 493.6
1027(17) 0.003238 622.1 401.1
879(16) 0.00381 621.7 302.2
822(15) 0.00403 621.4 214.6
717(14) 0.00495 621.0 146.2
687(14) 0.00496 620.7 97.9
691(14) 0.00469 620.4 66.4
703(14) 0.00463 620.0 47.1
681(14) 0.00506 619.7 35.4
660(13) 0.00537 619.3 28.2
644(14) 0.00521 619.0 23.4
636(14) 0.00521 618.6 20.1
646(14) 0.00521 618.3 17.5
641(13) 0.00543 618.0 15.5
650(13) 0.00546 617.6 13.8
636(14) 0.00516 617.3 12.4
622(14) 0.00508 616.9 11.2
619(13) 0.00529 616.6 10.2
610(13) 0.00570 616.3 9.3
649(13) 0.00547 615.9 8.6
622(13) 0.00529 615.6 7.9
614(14) 0.00518 615.2 7.4
612(13) 0.00553 614.9 6.9
623(13) 0.00561 614.5 6.4
622(13) 0.00567 614.2 6.0
638(14) 0.00523 613.9 5.7
623(14) 0.00503 613.5 5.4
606(13) 0.00543 613.2 5.1
584(13) 0.00601 612.8 4.9
607(13) 0.00577 612.5 4.7
626(13) 0.00527 612.2 4.4
662(14) 0.00473 611.8 4.2
658(14) 0.00504 611.5 4.1
591(13) 0.00596 611.1 3.9
598(13) 0.00576 610.8 3.8
593(13) 0.00567 610.5 3.6
630(14) 0.00509 610.1 3.5
629(13) 0.00528 609.8 3.4
636(13) 0.00550 609.4 3.3
620(13) 0.00563 609.1 3.2
569(13) 0.00583 608.7 3.1
630(14) 0.00494 608.4 3.0
617(14) 0.00523 608.1 2.9
605(13) 0.00581 607.7 2.9
590(13) 0.00568 607.4 2.8
598(13) 0.00547 607.0 2.7
617(14) 0.00512 606.7 2.7
607(13) 0.00536 606.4 2.6
582(12) 0.00607 606.0 2.5
590(13) 0.00573 605.7 2.5
616(13) 0.00532 605.3 2.5
600(13) 0.00546 605.0 2.4
617(13) 0.00533 604.6 2.4
613(13) 0.00579 604.3 2.3
611(13) 0.00553 604.0 2.3
623(14) 0.00519 603.6 2.3
590(13) 0.00573 603.3 2.2
623(13) 0.00554 602.9 2.2
607(13) 0.00575 602.6 2.2
563(13) 0.00599 602.3 2.1
579(13) 0.00543 601.9 2.1
580(13) 0.00553 601.6 2.1
584(13) 0.00573 601.2 2.1
644(13) 0.00548 600.9 2.1
582(13) 0.00564 600.6 2.0
593(13) 0.00543 600.2 2.0
617(13) 0.00547 599.9 2.0
680(14) 0.00509 599.5 2.0
602(13) 0.00582 599.2 2.0
624(13) 0.00543 598.8 2.0
601(14) 0.00517 598.5 2.0
581(13) 0.00564 598.2 1.9
635(13) 0.00551 597.8 1.9
615(13) 0.00573 597.5 1.9
602(13) 0.00537 597.1 1.9
613(14) 0.00505 596.8 1.9
589(13) 0.00547 596.5 1.9
575(12) 0.00607 596.1 1.9
580(13) 0.00596 595.8 1.9
613(13) 0.00536 595.4 1.9
592(14) 0.00519 595.1 1.9
577(13) 0.00585 594.8 1.9
577(12) 0.00608 594.4 2.0
565(12) 0.00622 594.1 2.0
611(13) 0.00544 593.7 2.0
580(13) 0.00541 593.4 2.0
605(13) 0.00544 593.0 2.0
608(13) 0.00580 592.7 2.1
576(13) 0.00593 592.4 2.1
572(13) 0.00567 592.0 2.1
581(13) 0.00550 591.7 2.2
582(13) 0.00564 591.3 2.2
620(13) 0.00571 591.0 2.3
590(13) 0.00585 590.7 2.3
587(13) 0.00566 590.3 2.4
634(14) 0.00494 590.0 2.5
602(13) 0.00537 589.6 2.6
599(13) 0.00585 589.3 2.8
578(13) 0.00600 588.9 2.9
582(13) 0.00569 588.6 3.2
633(14) 0.00510 588.3 3.4
595(13) 0.00561 587.9 3.8
588(13) 0.00594 587.6 4.4
603(13) 0.00566 587.2 5.3
572(13) 0.00560 586.9 6.7
606(13) 0.00526 586.6 9.1
589(13) 0.00582 586.2 12.7
617(13) 0.00567 585.9 17.9
605(13) 0.00556 585.5 24.8
577(13) 0.00574 585.2 32.9
611(13) 0.00540 584.9 41.1
633(13) 0.00535 584.5 47.5
572(12) 0.00605 584.2 49.7
648(14) 0.00511 583.8 46.6
619(14) 0.00516 583.5 39.8
587(13) 0.00569 583.1 31.5
597(13) 0.00581 582.8 23.5
597(13) 0.00583 582.5 16.9
589(13) 0.00560 582.3 12.0
590(13) 0.00533 582.0 8.6
591(13) 0.00561 581.8 6.5
565(12) 0.00613 581.6 5.1
596(13) 0.00586 581.3 4.3
584(13) 0.00577 581.1 3.8
573(13) 0.00555 580.9 3.4
575(13) 0.00577 580.7 3.2
601(13) 0.00589 580.4 3.0
594(13) 0.00593 580.2 2.8
594(13) 0.00561 580.0 2.7
569(13) 0.00549 579.8 2.6
571(13) 0.00588 579.5 2.5
597(13) 0.00589 579.3 2.4
610(13) 0.00573 579.1 2.3
586(13) 0.00548 578.8 2.3
555(13) 0.00559 578.6 2.2
571(13) 0.00584 578.4 2.2
603(13) 0.00581 578.2 2.2
566(12) 0.00614 577.9 2.1
580(13) 0.00558 577.7 2.1
561(13) 0.00550 577.5 2.1
573(13) 0.00565 577.3 2.1
604(13) 0.00581 577.0 2.1
602(13) 0.00572 576.8 2.0
607(13) 0.00539 576.6 2.0
559(13) 0.00563 576.3 2.0
602(13) 0.00542 576.1 2.0
590(13) 0.00591 575.9 2.0
586(13) 0.00578 575.7 2.0
606(13) 0.00545 575.4 2.0
576(13) 0.00575 575.2 2.0
560(13) 0.00599 575.0 2.0
571(12) 0.00612 574.8 2.0
601(13) 0.00564 574.5 2.0
544(12) 0.00605 574.3 2.1
596(13) 0.00533 574.1 2.1
575(13) 0.00584 573.8 2.1
602(13) 0.00587 573.6 2.1
571(13) 0.00586 573.4 2.1
602(13) 0.00523 573.2 2.1
551(13) 0.00580 572.9 2.1
580(13) 0.00577 572.7 2.1
584(13) 0.00600 572.5 2.2
568(13) 0.00579 572.3 2.2
583(13) 0.00545 572.0 2.2
589(13) 0.00539 571.8 2.2
588(13) 0.00582 571.6 2.2
591(13) 0.00596 571.3 2.3
539(12) 0.00612 571.1 2.3
554(13) 0.00577 570.9 2.3
570(13) 0.00587 570.7 2.3
576(13) 0.00602 570.4 2.4
573(12) 0.00612 570.2 2.4
578(13) 0.00569 570.0 2.4
571(13) 0.00550 569.8 2.4
540(12) 0.00623 569.5 2.5
579(13) 0.00603 569.3 2.5
584(13) 0.00598 569.1 2.5
580(13) 0.00566 568.8 2.6
566(13) 0.00560 568.6 2.6
623(13) 0.00524 568.4 2.6
582(13) 0.00603 568.2 2.7
547(12) 0.00634 567.9 2.8
567(13) 0.00576 567.7 2.8
586(13) 0.00541 567.5 2.8
578(13) 0.00570 567.3 2.9
535(12) 0.00660 567.0 2.9
592(13) 0.00598 566.8 3.0
567(13) 0.00589 566.6 3.0
566(13) 0.00556 566.3 3.1
589(13) 0.00554 566.1 3.1
578(12) 0.00605 565.9 3.2
572(13) 0.00600 565.7 3.2
546(13) 0.00580 565.4 3.3
542(13) 0.00570 565.2 3.4
568(13) 0.00577 565.0 3.4
564(12) 0.00620 564.8 3.5
568(13) 0.00598 564.5 3.6
570(13) 0.00564 564.3 3.6
587(13) 0.00542 564.1 3.7
553(13) 0.00600 563.8 3.8
548(12) 0.00635 563.6 3.9
549(12) 0.00636 563.4 4.0
560(13) 0.00584 563.2 4.0
546(13) 0.00588 562.9 4.1
574(13) 0.00584 562.7 4.2
577(12) 0.00611 562.5 4.3
575(13) 0.00592 562.3 4.4
594(13) 0.00524 562.0 4.5
560(13) 0.00572 561.8 4.6
551(13) 0.00605 561.6 4.8
555(12) 0.00627 561.3 4.9
578(13) 0.00554 561.1 5.0
565(13) 0.00578 560.9 5.1
567(13) 0.00578 560.7 5.3
548(12) 0.00628 560.4 5.4
550(12) 0.00632 560.2 5.6
558(13) 0.00594 560.0 5.7
551(13) 0.00585 559.8 5.9
568(13) 0.00578 559.5 6.1
536(12) 0.00640 559.3 6.3
539(12) 0.00656 559.1 6.5
533(13) 0.00597 558.8 6.7
544(13) 0.00564 558.6 6.9
555(12) 0.00608 558.4 7.1
576(13) 0.00601 558.2 7.4
546(12) 0.00648 557.9 7.6
616(13) 0.00532 557.7 7.9
535(13) 0.00590 557.5 8.2
585(13) 0.00548 557.3 8.5
554(12) 0.00641 557.0 8.9
562(12) 0.00615 556.8 9.3
568(13) 0.00584 556.6 9.7
557(13) 0.00550 556.3 10.1
578(13) 0.00568 556.1 10.6
589(13) 0.00589 555.9 11.1
540(12) 0.00648 555.7 11.6
581(13) 0.00566 555.4 12.2
551(13) 0.00560 555.2 12.9
534(12) 0.00622 555.0 13.6
531(12) 0.00652 554.8 14.4
532(12) 0.00641 554.5 15.2
577(13) 0.00561 554.3 16.2
570(13) 0.00552 554.1 17.2
555(13) 0.00591 553.8 18.3
519(12) 0.00674 553.6 19.5
577(13) 0.00591 553.4 20.8
560(13) 0.00569 553.2 22.2
546(13) 0.00582 552.9 23.8
569(13) 0.00572 552.7 25.5
546(12) 0.00642 552.5 27.3
559(12) 0.00611 552.3 29.3
568(13) 0.00572 552.0 31.4
575(13) 0.00566 551.8 33.7
580(13) 0.00578 551.6 36.1
595(13) 0.00593 551.3 38.7
573(13) 0.00592 551.1 41.5
575(13) 0.00562 550.9 44.4
606(13) 0.00539 550.7 47.5
578(13) 0.00595 550.4 50.8
588(13) 0.00595 550.2 54.2
614(13) 0.00548 550.0 57.7
592(13) 0.00549 549.8 61.4
599(13) 0.00545 549.5 65.2
591(13) 0.00589 549.3 69.0
621(13) 0.00571 549.1 72.8
611(13) 0.00540 548.8 76.7
626(14) 0.00509 548.6 80.4
633(14) 0.00514 548.4 84.1
636(13) 0.00549 548.2 87.6
597(13) 0.00594 547.9 90.7
600(13) 0.00557 547.7 93.6
626(14) 0.00499 547.5 96.1
603(13) 0.00560 547.3 98.0
647(13) 0.00544 547.0 99.4
641(13) 0.00552 546.8 100.2
648(14) 0.00514 546.6 100.4
651(14) 0.00472 546.3 100.0
649(14) 0.00506 546.1 98.9
622(13) 0.00564 545.9 97.3
634(13) 0.00561 545.7 95.1
654(14) 0.00511 545.4 92.5
618(14) 0.00492 545.2 89.5
596(13) 0.00555 545.0 86.1
632(13) 0.00561 544.8 82.6
614(13) 0.00574 544.5 78.9
628(13) 0.00523 544.3 75.1
541(13) 0.00595 544.1 71.3
625(14) 0.00508 543.8 67.4
603(13) 0.00586 543.6 63.6
584(13) 0.00600 543.4 59.9
605(13) 0.00541 543.2 56.3
571(13) 0.00550 542.9 52.8
624(13) 0.00527 542.7 49.5
580(12) 0.00613 542.5 46.3
597(13) 0.00584 542.3 43.3
582(13) 0.00579 542.0 40.5
566(13) 0.00558 541.8 37.8
598(13) 0.00538 541.6 35.2
560(12) 0.00630 541.4 32.9
578(13) 0.00590 541.1 30.7
555(13) 0.00581 540.9 28.6
545(13) 0.00584 540.7 26.7
550(13) 0.00577 540.4 25.0
513(12) 0.00685 540.2 23.4
591(13) 0.00579 540.0 21.9
582(13) 0.00566 539.8 20.5
576(13) 0.00553 539.5 19.3
561(13) 0.00595 539.3 18.1
566(12) 0.00623 539.1 17.1
548(12) 0.00610 538.9 16.1
561(13) 0.00568 538.6 15.3
554(13) 0.00583 538.4 14.5
542(12) 0.00624 538.2 13.7
548(12) 0.00640 537.9 13.1
585(13) 0.00549 537.7 12.5
545(13) 0.00573 537.5 11.9
531(12) 0.00626 537.3 11.4
560(12) 0.00617 537.0 11.0
559(12) 0.00625 536.8 10.6
554(12) 0.00612 536.6 10.2
530(12) 0.00616 536.4 9.8
559(13) 0.00604 536.1 9.5
559(12) 0.00618 535.9 9.2
552(12) 0.00633 535.7 9.0
535(12) 0.00611 535.4 8.8
529(13) 0.00595 535.2 8.6
546(13) 0.00595 535.0 8.4
519(12) 0.00678 534.8 8.2
521(12) 0.00668 534.5 8.1
557(13) 0.00585 534.3 8.0
541(13) 0.00562 534.1 7.9
554(13) 0.00585 533.9 7.8
522(12) 0.00666 533.6 7.8
541(12) 0.00650 533.4 7.7
526(12) 0.00611 533.2 7.8
512(13) 0.00605 532.9 7.8
554(13) 0.00577 532.7 7.9
544(12) 0.00639 532.5 8.0
527(12) 0.00658 532.3 8.2
565(13) 0.00570 532.0 8.4
549(13) 0.00584 531.8 8.8
568(13) 0.00584 531.6 9.2
537(12) 0.00650 531.4 9.9
510(12) 0.00676 531.1 10.7
507(12) 0.00658 530.9 11.8
523(12) 0.00608 530.7 13.2
548(13) 0.00589 530.4 15.1
569(12) 0.00618 530.2 17.5
573(13) 0.00587 530.0 20.4
515(12) 0.00634 529.8 23.9
560(13) 0.00570 529.5 28.0
582(13) 0.00550 529.3 32.7
590(13) 0.00600 529.1 37.7
616(13) 0.00547 528.9 42.7
580(13) 0.00569 528.6 47.3
582(13) 0.00550 528.4 50.8
568(13) 0.00588 528.2 52.6
559(12) 0.00628 527.9 52.2
567(13) 0.00572 527.7 49.8
568(13) 0.00563 527.5 45.7
559(13) 0.00584 527.3 40.8
570(13) 0.00590 527.0 35.6
554(12) 0.00633 526.8 30.5
534(12) 0.00612 526.6 25.9
552(13) 0.00570 526.4 21.8
541(13) 0.00602 526.1 18.3
550(12) 0.00611 525.9 15.4
554(12) 0.00627 525.7 13.1
571(13) 0.00565 525.4 11.2
549(13) 0.00576 525.2 9.7
524(12) 0.00635 525.0 8.5
528(12) 0.00651 524.8 7.6
580(13) 0.00604 524.5 6.9
531(12) 0.00627 524.3 6.3
507(12) 0.00624 524.1 5.8
528(12) 0.00629 523.9 5.4
524(12) 0.00665 523.6 5.1
539(12) 0.00644 523.4 4.8
505(12) 0.00677 523.2 4.5
548(13) 0.00554 522.9 4.3
527(12) 0.00623 522.7 4.1
525(12) 0.00660 522.5 3.9
480(11) 0.00730 522.3 3.7
527(12) 0.00623 522.0 3.6
530(13) 0.00567 521.8 3.4
518(12) 0.00652 521.6 3.3
523(12) 0.00677 521.4 3.2
507(12) 0.00668 521.1 3.1
503(12) 0.00660 520.9 3.0
542(13) 0.00559 520.7 2.9
514(12) 0.00636 520.4 2.8
484(11) 0.00720 520.2 2.7
504(12) 0.00685 520.0 2.6
530(12) 0.00612 519.8 2.6
516(13) 0.00604 519.5 2.5
521(12) 0.00628 519.3 2.4
509(12) 0.00680 519.1 2.4
512(12) 0.00674 518.9 2.3
505(12) 0.00643 518.6 2.3
508(12) 0.00624 518.4 2.2
512(12) 0.00648 518.2 2.2
510(12) 0.00684 517.9 2.1
508(12) 0.00669 517.7 2.1
496(12) 0.00652 517.5 2.0
512(12) 0.00626 517.3 2.0
512(12) 0.00644 517.0 2.0
510(12) 0.00689 516.8 1.9
540(12) 0.00615 516.6 1.9
497(12) 0.00635 516.4 1.9
519(12) 0.00615 516.1 1.8
523(12) 0.00642 515.9 1.8
516(12) 0.00673 515.7 1.8
535(12) 0.00617 515.4 1.7
525(13) 0.00604 515.2 1.7
525(12) 0.00612 515.0 1.7
510(12) 0.00675 514.8 1.7
539(12) 0.00646 514.5 1.6
521(12) 0.00619 514.3 1.6
464(12) 0.00684 514.1 1.6
507(12) 0.00634 513.9 1.6
505(12) 0.00671 513.6 1.5
511(12) 0.00680 513.4 1.5
493(12) 0.00653 513.2 1.5
537(13) 0.00562 512.9 1.5
525(12) 0.00615 512.7 1.5
509(12) 0.00678 512.5 1.4
501(12) 0.00694 512.3 1.4
494(12) 0.00659 512.0 1.4
504(12) 0.00611 511.8 1.4
507(12) 0.00641 511.6 1.4
502(12) 0.00692 511.4 1.4
521(12) 0.00675 511.1 1.3
495(12) 0.00659 510.9 1.3
504(13) 0.00602 510.7 1.3
477(12) 0.00698 510.4 1.3
484(11) 0.00715 510.2 1.3
498(12) 0.00683 510.0 1.3
468(12) 0.00677 509.8 1.3
492(12) 0.00633 509.5 1.2
496(12) 0.00663 509.3 1.2
514(12) 0.00671 509.1 1.2
510(12) 0.00687 508.9 1.2
519(12) 0.00639 508.6 1.2
511(12) 0.00613 508.4 1.2
521(12) 0.00624 508.2 1.2
502(12) 0.00697 507.9 1.2
511(12) 0.00674 507.7 1.2
504(12) 0.00675 507.5 1.2
539(13) 0.00578 507.3 1.1
515(12) 0.00630 507.0 1.1
549(12) 0.00637 506.8 1.1
515(12) 0.00651 506.6 1.1
494(12) 0.00663 506.4 1.1
531(12) 0.00608 506.1 1.1
512(12) 0.00650 505.9 1.1
522(12) 0.00668 505.7 1.1
521(12) 0.00650 505.4 1.1
518(12) 0.00625 505.2 1.1
469(12) 0.00686 505.0 1.1
506(12) 0.00665 504.8 1.1
521(12) 0.00673 504.5 1.1
553(13) 0.00602 504.3 1.0
522(12) 0.00612 504.1 1.0
528(12) 0.00610 503.9 1.0
516(12) 0.00661 503.6 1.0
533(12) 0.00655 503.4 1.0
500(12) 0.00646 503.2 1.0
521(13) 0.00600 502.9 1.0
500(12) 0.00674 502.7 1.0
508(12) 0.00680 502.5 1.0
516(12) 0.00671 502.3 1.0
509(12) 0.00639 502.0 1.0
494(12) 0.00645 501.8 1.0
510(12) 0.00647 501.6 1.0
499(12) 0.00696 501.4 1.0
514(12) 0.00685 501.1 0.8
503(12) 0.00647 500.9 0.8
516(13) 0.00588 500.7 0.8
523(12) 0.00629 500.4 0.8
496(12) 0.00707 500.2 0.8
478(11) 0.00727 500.0 0.8
534(13) 0.00600 499.8 0.8
477(12) 0.00631 499.7 0.8
530(13) 0.00595 499.5 0.8
508(12) 0.00688 499.3 0.8
473(11) 0.00729 499.1 0.8
498(12) 0.00656 498.9 0.8
510(13) 0.00602 498.8 0.8
508(12) 0.00650 498.6 0.8
511(12) 0.00674 498.4 0.8
479(11) 0.00731 498.2 0.8
468(12) 0.00674 498.0 0.8
490(12) 0.00614 497.9 0.8
491(12) 0.00663 497.7 0.8
498(12) 0.00706 497.5 0.8
517(12) 0.00664 497.3 0.8
523(13) 0.00602 497.1 0.8
503(12) 0.00632 497.0 0.8
493(12) 0.00671 496.8 0.9
520(12) 0.00671 496.6 0.9
509(12) 0.00673 496.4 0.9
495(12) 0.00647 496.2 0.9
491(12) 0.00647 496.1 0.9
484(12) 0.00687 495.9 0.9
505(12) 0.00682 495.7 0.9
524(12) 0.00651 495.5 0.9
491(12) 0.00673 495.3 0.9
496(12) 0.00647 495.1 0.9
474(12) 0.00688 495.0 0.9
481(11) 0.00725 494.8 0.9
506(12) 0.00638 494.6 0.9
506(12) 0.00622 494.4 1.0
486(12) 0.00668 494.2 1.0
463(11) 0.00724 494.1 1.0
505(12) 0.00689 493.9 1.0
495(12) 0.00666 493.7 1.0
507(12) 0.00613 493.5 1.0
500(12) 0.00661 493.3 1.1
495(12) 0.00690 493.2 1.1
497(12) 0.00706 493.0 1.1
517(12) 0.00637 492.8 1.1
526(13) 0.00595 492.6 1.2
524(12) 0.00616 492.4 1.2
501(12) 0.00692 492.3 1.2
512(12) 0.00679 492.1 1.3
514(12) 0.00635 491.9 1.3
514(13) 0.00594 491.7 1.4
483(12) 0.00673 491.5 1.4
470(11) 0.00739 491.4 1.5
526(12) 0.00663 491.2 1.5
489(12) 0.00675 491.0 1.6
503(12) 0.00612 490.8 1.7
528(12) 0.00608 490.6 1.7
487(11) 0.00716 490.4 1.8
498(12) 0.00700 490.3 1.9
502(12) 0.00655 490.1 2.0
500(12) 0.00623 489.9 2.1
488(12) 0.00677 489.7 2.2
493(11) 0.00714 489.5 2.3
516(12) 0.00667 489.4 2.4
500(12) 0.00658 489.2 2.5
476(12) 0.00654 489.0 2.6
475(12) 0.00680 488.8 2.7
488(11) 0.00716 488.6 3.0
498(12) 0.00690 488.5 3.2
493(12) 0.00658 488.3 3.3
452(12) 0.00707 488.1 3.4
490(12) 0.00671 487.9 3.5
476(11) 0.00734 487.7 3.6
494(12) 0.00680 487.6 3.7
497(12) 0.00641 487.4 3.8
508(12) 0.00635 487.2 3.9
514(12) 0.00636 487.0 4.0
474(11) 0.00725 486.8 4.0
515(12) 0.00643 486.7 4.7
502(12) 0.00657 486.5 4.7
477(12) 0.00689 486.3 4.8
508(12) 0.00648 486.1 4.7
533(12) 0.00656 485.9 4.7
514(12) 0.00640 485.7 4.7
480(12) 0.00673 485.6 4.6
471(12) 0.00689 485.4 4.6
483(12) 0.00687 485.2 4.5
477(11) 0.00728 485.0 4.4
466(11) 0.00716 484.8 4.4
512(12) 0.00611 484.7 4.3
470(12) 0.00701 484.5 4.2
479(11) 0.00715 484.3 4.1
502(12) 0.00697 484.1 4.0
514(12) 0.00633 483.9 4.0
526(13) 0.00597 483.8 3.9
494(12) 0.00671 483.6 3.8
509(12) 0.00673 483.4 3.8
500(12) 0.00688 483.2 3.7
515(12) 0.00629 483.0 3.7
471(12) 0.00655 482.9 3.6
504(12) 0.00647 482.7 3.6
486(11) 0.00714 482.5 3.5
471(11) 0.00729 482.3 3.5
471(12) 0.00688 482.1 3.5
505(13) 0.00597 482.0 3.5
473(12) 0.00701 481.8 3.5
472(11) 0.00724 481.6 3.5
467(11) 0.00742 481.4 3.5
498(12) 0.00651 481.2 3.5
479(12) 0.00630 481.0 3.5
477(12) 0.00670 480.9 3.6
505(12) 0.00693 480.7 3.6
512(12) 0.00659 480.5 3.6
491(12) 0.00686 480.3 3.7
482(12) 0.00650 480.1 3.7
491(12) 0.00670 480.0 3.8
481(11) 0.00720 479.8 3.9
511(12) 0.00669 479.6 4.0
475(12) 0.00692 479.4 4.0
468(12) 0.00658 479.2 4.1
456(11) 0.00709 479.1 4.2
464(11) 0.00745 478.9 4.3
487(12) 0.00694 478.7 4.4
490(12) 0.00674 478.5 4.5
501(12) 0.00632 478.3 4.6
494(12) 0.00669 478.2 4.8
477(11) 0.00721 478.0 4.9
468(11) 0.00730 477.8 5.0
470(12) 0.00672 477.6 5.2
472(12) 0.00681 477.4 5.3
483(12) 0.00688 477.3 5.5
500(12) 0.00699 477.1 5.7
482(12) 0.00692 476.9 5.9
509(12) 0.00609 476.7 6.1
488(12) 0.00660 476.5 6.3
506(12) 0.00647 476.3 6.5
491(11) 0.00713 476.2 6.8
486(12) 0.00679 476.0 7.1
470(12) 0.00685 475.8 7.4
511(12) 0.00634 475.6 8.5
485(12) 0.00688 475.4 8.9
458(11) 0.00753 475.3 9.3
448(11) 0.00710 475.1 9.8
444(11) 0.00722 474.9 10.2
476(12) 0.00683 474.7 10.8
499(12) 0.00688 474.5 11.4
508(12) 0.00693 474.4 12.1
489(12) 0.00681 474.2 12.8
499(12) 0.00625 474.0 13.6
493(12) 0.00652 473.8 14.6
470(11) 0.00727 473.6 15.6
493(12) 0.00699 473.5 16.8
504(12) 0.00653 473.3 18.1
500(12) 0.00615 473.1 19.6
509(12) 0.00656 472.9 21.2
509(12) 0.00687 472.7 23.0
511(12) 0.00675 472.6 24.9
495(12) 0.00664 472.4 27.1
487(12) 0.00628 472.2 29.4
478(12) 0.00706 472.0 31.9
518(12) 0.00662 471.8 34.6
502(12) 0.00697 471.6 37.4
489(12) 0.00684 471.5 40.4
509(12) 0.00609 471.3 43.5
506(12) 0.00656 471.1 46.7
520(12) 0.00669 470.9 49.9
512(12) 0.00679 470.7 53.0
511(12) 0.00648 470.6 56.0
530(13) 0.00591 470.4 58.8
514(12) 0.00642 470.2 61.2
499(12) 0.00697 470.0 63.2
506(12) 0.00671 469.8 65.1
520(12) 0.00638 469.7 66.1
530(12) 0.00612 469.5 66.7
545(13) 0.00594 469.3 66.8
532(12) 0.00654 469.1 66.6
524(12) 0.00654 468.9 66.2
506(12) 0.00646 468.8 65.8
519(12) 0.00610 468.6 65.5
514(12) 0.00645 468.4 65.5
543(12) 0.00639 468.2 66.0
535(12) 0.00615 468.0 67.3
521(12) 0.00624 467.9 69.8
546(13) 0.00592 467.7 74.3
554(13) 0.00602 467.5 81.7
550(12) 0.00638 467.3 93.5
591(13) 0.00556 467.1 111.8
558(13) 0.00575 466.9 138.3
626(13) 0.00525 466.8 174.6
647(13) 0.00526 466.6 220.8
712(14) 0.00498 466.4 274.9
757(15) 0.00441 466.2 331.6
799(16) 0.00399 466.0 381.4
856(16) 0.00387 465.9 412.4
896(16) 0.00394 465.7 417.8
871(15) 0.00412 465.5 403.4
826(16) 0.00401 465.3 383.5
790(15) 0.00402 465.1 371.8
806(15) 0.00410 465.0 377.1
808(15) 0.00431 464.8 403.7
880(15) 0.00405 464.6 451.7
918(16) 0.00368 464.4 516.9
1066(18) 0.002911 464.2 591.1
1158(18) 0.002930 464.1 660.6
1233(18) 0.002942 463.9 708.0
1197(18) 0.003015 463.7 717.4
1213(19) 0.002809 463.5 683.8
1086(18) 0.002896 463.3 616.0
997(17) 0.003443 463.2 530.0
886(15) 0.00404 463.0 440.3
817(15) 0.00430 462.8 356.3
748(15) 0.00446 462.6 283.1
690(15) 0.00448 462.4 222.5
626(13) 0.00527 462.2 174.5
623(13) 0.00565 462.1 137.8
602(13) 0.00565 461.9 110.5
543(13) 0.00595 461.7 90.5
527(13) 0.00580 461.5 75.9
542(13) 0.00601 461.3 65.1
523(12) 0.00671 461.2 57.0
524(12) 0.00639 461.0 50.7
540(12) 0.00609 460.8 45.6
510(12) 0.00619 460.6 41.5
506(12) 0.00654 460.4 38.0
506(12) 0.00690 460.3 35.1
483(12) 0.00707 460.1 32.5
506(12) 0.00649 459.9 30.3
496(12) 0.00655 459.7 28.4
515(12) 0.00624 459.5 26.7
481(11) 0.00725 459.4 25.2
481(12) 0.00685 459.2 23.8
500(12) 0.00631 459.0 22.6
479(12) 0.00677 458.8 21.6
494(12) 0.00683 458.6 20.7
500(12) 0.00699 458.5 19.8
486(12) 0.00690 458.3 19.1
480(12) 0.00654 458.1 18.4
484(12) 0.00651 457.9 17.8
454(11) 0.00737 457.7 17.3
459(11) 0.00757 457.5 16.8
480(12) 0.00673 457.4 16.4
492(12) 0.00646 457.2 16.0
469(12) 0.00696 457.0 15.7
486(12) 0.00704 456.8 15.4
489(11) 0.00713 456.6 15.2
462(12) 0.00698 456.5 14.9
452(12) 0.00674 456.3 14.8
475(12) 0.00678 456.1 14.6
485(12) 0.00704 455.9 14.5
474(11) 0.00727 455.7 14.4
428(11) 0.00785 455.6 14.3
483(12) 0.00634 455.4 14.3
463(11) 0.00712 455.2 14.3
468(11) 0.00735 455.0 14.3
467(11) 0.00732 454.8 14.3
456(11) 0.00722 454.7 14.4
481(12) 0.00613 454.5 14.5
467(12) 0.00678 454.3 14.6
448(11) 0.00773 454.1 14.6
458(11) 0.00761 453.9 14.8
483(12) 0.00680 453.8 14.9
489(12) 0.00620 453.6 15.2
443(11) 0.00729 453.4 15.4
479(11) 0.00724 453.3 15.6
457(11) 0.00754 453.2 15.9
462(12) 0.00682 453.0 16.3
431(12) 0.00707 452.9 16.6
452(11) 0.00726 452.8 17.0
454(11) 0.00761 452.7 17.4
453(11) 0.00745 452.6 17.9
479(12) 0.00678 452.4 18.4
465(12) 0.00662 452.3 18.9
458(12) 0.00693 452.2 19.5
457(11) 0.00761 452.1 20.1
467(11) 0.00742 451.9 20.8
482(12) 0.00696 451.8 21.6
477(12) 0.00658 451.7 22.4
474(12) 0.00692 451.6 23.3
467(11) 0.00739 451.4 24.2
482(12) 0.00684 451.3 25.3
484(12) 0.00671 451.2 26.4
482(12) 0.00675 451.1 27.6
479(12) 0.00689 451.0 29.0
452(11) 0.00762 450.8 30.5
472(12) 0.00691 450.7 32.1
461(12) 0.00675 450.6 33.9
461(12) 0.00692 450.5 35.8
485(12) 0.00688 450.3 38.0
471(11) 0.00731 450.2 40.4
486(12) 0.00662 450.1 43.0
472(12) 0.00674 450.0 46.0
503(12) 0.00650 449.8 49.3
484(11) 0.00710 449.7 53.1
513(12) 0.00685 449.6 57.3
497(12) 0.00659 449.5 62.1
484(12) 0.00662 449.4 67.5
514(12) 0.00618 449.2 73.9
535(12) 0.00641 449.1 81.4
548(12) 0.00641 449.0 90.3
539(13) 0.00597 448.9 101.2
552(13) 0.00562 448.7 114.9
564(13) 0.00565 448.6 132.4
588(13) 0.00596 448.5 155.2
584(13) 0.00596 448.4 185.2
665(14) 0.00502 448.2 224.7
694(15) 0.00453 448.1 276.3
703(14) 0.00475 448.0 342.7
815(15) 0.00434 447.9 426.3
871(15) 0.00413 447.8 528.4
1005(17) 0.003442 447.6 649.1
1126(19) 0.002774 447.5 785.9
1286(19) 0.002629 447.4 933.2
1577(21) 0.002285 447.3 1080.0
1651(21) 0.002190 447.1 1209.1
1726(22) 0.002004 447.0 1298.7
1789(23) 0.001804 446.9 1329.0
1685(22) 0.002046 446.8 1292.3
1543(20) 0.002353 446.6 1198.1
1416(20) 0.002519 446.5 1067.1
1287(19) 0.002631 446.4 921.0
1148(19) 0.002799 446.3 776.0
1076(18) 0.003145 446.2 642.5
947(16) 0.00379 446.0 525.7
870(16) 0.00399 445.9 427.7
821(16) 0.00399 445.8 348.3
790(15) 0.00407 445.7 285.9
726(14) 0.00461 445.5 238.3
713(14) 0.00498 445.4 202.8
688(14) 0.00491 445.3 176.9
651(14) 0.00518 445.2 158.3
685(14) 0.00475 445.0 145.3
640(14) 0.00519 444.9 136.8
592(13) 0.00594 444.8 131.9
644(14) 0.00509 444.7 130.3
635(13) 0.00524 444.6 132.3
661(14) 0.00498 444.4 138.4
653(14) 0.00510 444.3 149.6
684(14) 0.00516 444.2 167.5
722(14) 0.00465 444.1 193.8
709(14) 0.00464 443.9 230.8
778(15) 0.00413 443.8 280.0
760(15) 0.00454 443.7 342.9
839(15) 0.00427 443.6 419.4
931(16) 0.00356 443.4 507.5
975(17) 0.003366 443.3 602.3
1124(18) 0.002970 443.2 694.5
1260(19) 0.002795 443.1 770.2
1339(19) 0.002689 443.0 812.4
1381(20) 0.002460 442.8 809.1
1326(20) 0.002441 442.7 760.9
1205(19) 0.002784 442.6 680.5
1047(17) 0.003415 442.5 584.6
928(16) 0.00382 442.3 487.0
810(15) 0.00417 442.2 396.3
708(15) 0.00446 442.1 317.3
622(13) 0.00547 442.0 251.8
621(13) 0.00564 441.8 199.5
620(13) 0.00561 441.7 159.2
540(13) 0.00604 441.6 128.7
549(13) 0.00551 441.5 106.2
493(12) 0.00670 441.4 89.5
534(12) 0.00648 441.2 77.0
502(12) 0.00689 441.1 67.6
526(12) 0.00617 441.0 60.2
499(13) 0.00602 440.9 54.2
499(12) 0.00647 440.7 49.3
488(11) 0.00719 440.6 45.1
495(12) 0.00688 440.5 41.5
482(12) 0.00674 440.4 38.3
472(12) 0.00654 440.2 35.6
458(11) 0.00735 440.1 33.1
472(11) 0.00735 440.0 31.0
449(11) 0.00758 439.9 29.0
461(11) 0.00716 439.7 27.3
465(12) 0.00676 439.6 25.7
468(12) 0.00675 439.5 24.2
449(11) 0.00770 439.4 22.9
432(11) 0.00781 439.3 21.7
464(12) 0.00699 439.1 20.6
482(12) 0.00648 439.0 19.6
442(11) 0.00725 438.9 18.7
439(11) 0.00795 438.8 17.8
446(11) 0.00726 438.6 17.0
447(11) 0.00712 438.5 16.3
441(11) 0.00734 438.4 15.6
437(11) 0.00751 438.3 15.0
433(11) 0.00795 438.1 14.4
442(11) 0.00745 438.0 13.8
439(11) 0.00730 437.9 13.3
451(12) 0.00706 437.8 12.8
436(11) 0.00758 437.7 12.4
446(11) 0.00776 437.5 11.9
423(11) 0.00757 437.4 11.5
421(11) 0.00755 437.3 11.1
434(11) 0.00749 437.2 10.8
440(11) 0.00762 437.0 10.4
422(11) 0.00812 436.9 10.1
436(11) 0.00736 436.8 9.8
433(12) 0.00698 436.7 9.5
438(11) 0.00718 436.5 9.2
447(11) 0.00762 436.4 9.0
438(11) 0.00785 436.3 8.7
461(12) 0.00694 436.2 8.5
415(11) 0.00743 436.1 8.3
457(12) 0.00700 435.9 8.0
422(11) 0.00818 435.8 7.8
445(11) 0.00766 435.7 7.6
438(11) 0.00728 435.6 7.4
433(11) 0.00709 435.4 7.3
459(11) 0.00709 435.3 7.1
459(11) 0.00747 435.2 6.9
432(11) 0.00796 435.1 6.8
413(11) 0.00780 434.9 6.6
416(12) 0.00702 434.8 6.5
435(11) 0.00753 434.7 6.3
462(11) 0.00750 434.6 6.2
438(11) 0.00770 434.5 6.0
470(12) 0.00694 434.3 5.9
450(12) 0.00696 434.2 5.8
490(12) 0.00664 434.1 5.7
474(11) 0.00727 434.0 5.6
426(11) 0.00800 433.8 5.6
424(11) 0.00764 433.7 5.5
454(12) 0.00674 433.6 5.4
433(11) 0.00722 433.5 5.3
434(11) 0.00793 433.3 5.2
414(11) 0.00805 433.2 5.1
448(12) 0.00703 433.1 5.0
444(11) 0.00709 433.0 5.0
431(11) 0.00746 432.9 4.9
407(10) 0.00840 432.7 4.9
435(11) 0.00746 432.6 4.8
433(11) 0.00719 432.5 4.7
456(12) 0.00706 432.4 4.6
452(11) 0.00736 432.2 5.2
470(11) 0.00734 432.1 5.1
453(12) 0.00706 432.0 5.1
451(11) 0.00710 431.9 5.0
416(11) 0.00775 431.7 5.0
421(11) 0.00774 431.6 4.9
405(11) 0.00838 431.5 4.9
410(11) 0.00798 431.4 4.8
400(11) 0.00802 431.3 4.8
437(12) 0.00704 431.1 4.7
416(11) 0.00800 431.0 4.7
413(11) 0.00828 430.9 4.6
440(11) 0.00730 430.8 4.6
443(12) 0.00701 430.6 4.6
422(11) 0.00779 430.5 4.5
427(11) 0.00789 430.4 4.5
432(11) 0.00802 430.3 4.5
451(12) 0.00708 430.1 4.4
446(12) 0.00692 430.0 4.4
444(11) 0.00745 429.9 4.4
440(11) 0.00783 429.8 4.4
419(11) 0.00828 429.7 4.3
450(11) 0.00725 429.5 4.3
439(12) 0.00706 429.4 4.3
444(11) 0.00718 429.3 4.3
416(11) 0.00833 429.2 4.3
443(11) 0.00768 429.1 4.2
444(11) 0.00710 428.9 4.2
441(12) 0.00674 428.8 4.2
439(11) 0.00736 428.7 4.2
462(11) 0.00740 428.6 4.2
440(11) 0.00782 428.5 4.2
431(11) 0.00754 428.4 4.2
408(11) 0.00773 428.2 4.2
426(11) 0.00761 428.1 4.2
439(11) 0.00787 428.0 4.2
415(11) 0.00821 427.9 4.2
447(11) 0.00727 427.8 4.2
469(12) 0.00647 427.7 4.2
428(11) 0.00736 427.5 4.2
434(11) 0.00798 427.4 4.2
454(11) 0.00747 427.3 4.2
431(11) 0.00758 427.2 4.2
444(11) 0.00718 427.1 4.2
449(11) 0.00728 427.0 4.2
391(10) 0.00877 426.8 4.2
439(11) 0.00759 426.7 4.2
446(11) 0.00730 426.6 4.3
439(11) 0.00726 426.5 4.4
431(11) 0.00762 426.4 4.4
442(11) 0.00784 426.3 4.4
443(11) 0.00728 426.1 4.5
422(11) 0.00749 426.0 4.5
458(12) 0.00704 425.9 4.6
425(11) 0.00791 425.8 4.6
453(11) 0.00763 425.7 4.7
423(11) 0.00764 425.6 4.7
426(11) 0.00746 425.4 4.8
435(11) 0.00751 425.3 4.9
422(11) 0.00798 425.2 5.0
442(11) 0.00780 425.1 5.1
433(11) 0.00763 425.0 5.3
440(11) 0.00715 424.9 5.4
428(11) 0.00763 424.7 5.6
442(11) 0.00775 424.6 5.8
446(11) 0.00776 424.5 6.1
439(11) 0.00729 424.4 6.4
428(11) 0.00709 424.3 6.8
419(11) 0.00731 424.2 7.3
422(11) 0.00792 424.0 8.0
408(11) 0.00836 423.9 8.9
457(12) 0.00707 423.8 10.6
457(12) 0.00659 423.7 13.5
433(11) 0.00746 423.6 18.8
426(11) 0.00796 423.5 27.9
480(11) 0.00723 423.3 42.0
477(12) 0.00704 423.2 61.8
509(12) 0.00613 423.1 85.9
508(12) 0.00659 423.0 110.2
533(12) 0.00655 422.9 127.9
597(13) 0.00584 422.8 131.8
599(13) 0.00530 422.6 119.8
500(12) 0.00619 422.5 97.6
498(12) 0.00644 422.4 72.8
461(11) 0.00743 422.3 50.8
480(11) 0.00717 422.2 34.1
445(11) 0.00728 422.1 22.8
456(12) 0.00671 421.9 16.1
431(11) 0.00746 421.8 12.2
404(10) 0.00846 421.7 10.2
424(11) 0.00791 421.6 9.0
444(12) 0.00690 421.5 8.3
438(12) 0.00707 421.4 7.8
399(11) 0.00817 421.2 7.4
429(11) 0.00814 421.1 7.1
448(11) 0.00727 421.0 6.9
442(12) 0.00705 420.9 6.7
445(11) 0.00718 420.8 6.6
445(11) 0.00754 420.7 6.5
432(11) 0.00797 420.5 6.4
431(11) 0.00767 420.4 6.4
419(11) 0.00770 420.3 6.3
412(11) 0.00772 420.2 6.3
396(11) 0.00819 420.1 6.3
417(11) 0.00825 420.0 6.3
419(11) 0.00788 419.8 6.3
417(11) 0.00765 419.7 6.4
429(11) 0.00740 419.6 6.4
447(11) 0.00745 419.5 6.5
423(11) 0.00805 419.4 6.5
431(11) 0.00734 419.3 6.6
420(11) 0.00743 419.1 6.7
415(11) 0.00778 419.0 6.7
422(11) 0.00804 418.9 6.7
425(11) 0.00809 418.8 6.8
441(11) 0.00740 418.7 6.9
430(12) 0.00707 418.6 7.0
431(11) 0.00762 418.4 7.1
440(11) 0.00771 418.3 7.3
450(11) 0.00769 418.2 7.4
444(11) 0.00715 418.1 7.6
429(12) 0.00696 418.0 7.7
385(10) 0.00869 417.9 7.9
414(10) 0.00840 417.7 8.1
422(11) 0.00799 417.6 8.3
426(11) 0.00776 417.5 8.5
429(11) 0.00708 417.4 8.7
449(11) 0.00718 417.3 9.0
420(11) 0.00824 417.2 9.2
434(11) 0.00763 417.0 9.5
442(11) 0.00727 416.9 9.8
430(12) 0.00702 416.8 10.1
424(11) 0.00767 416.7 10.5
427(11) 0.00809 416.6 10.9
451(11) 0.00756 416.5 11.3
432(11) 0.00773 416.3 11.7
430(11) 0.00746 416.2 12.2
457(11) 0.00719 416.1 12.8
420(11) 0.00822 416.0 13.4
437(11) 0.00761 415.9 14.0
422(11) 0.00783 415.8 14.8
440(12) 0.00705 415.6 15.6
445(11) 0.00729 415.5 16.5
414(11) 0.00826 415.4 17.5
427(11) 0.00776 415.3 18.7
445(11) 0.00731 415.2 20.1
488(12) 0.00635 415.1 21.8
452(11) 0.00726 414.9 23.8
426(11) 0.00814 414.8 26.3
439(11) 0.00747 414.7 29.5
460(12) 0.00671 414.6 33.5
466(12) 0.00689 414.5 38.6
486(12) 0.00670 414.4 45.1
502(12) 0.00699 414.2 53.2
465(12) 0.00701 414.1 63.4
480(12) 0.00673 414.0 75.6
511(12) 0.00645 413.9 90.1
522(12) 0.00632 413.8 106.8
515(12) 0.00680 413.7 125.2
555(13) 0.00588 413.5 144.5
551(13) 0.00579 413.4 163.3
568(13) 0.00581 413.3 179.4
576(13) 0.00600 413.2 190.5
634(13) 0.00552 413.1 194.3
623(13) 0.00528 413.0 190.1
630(14) 0.00508 412.8 179.0
593(13) 0.00560 412.7 163.4
565(12) 0.00615 412.6 145.7
537(12) 0.00652 412.5 127.9
518(12) 0.00626 412.4 111.3
504(12) 0.00622 412.3 96.6
497(12) 0.00655 412.1 84.3
466(11) 0.00739 412.0 74.3
447(11) 0.00777 411.9 66.7
473(12) 0.00689 411.8 61.3
481(12) 0.00627 411.7 57.8
473(12) 0.00682 411.6 56.0
456(11) 0.00760 411.4 55.7
452(11) 0.00761 411.3 56.7
469(12) 0.00700 411.2 58.9
497(13) 0.00605 411.1 62.2
507(12) 0.00645 411.0 66.6
496(12) 0.00702 410.9 71.9
476(11) 0.00716 410.7 78.3
510(12) 0.00643 410.6 85.6
523(13) 0.00599 410.5 94.0
499(12) 0.00644 410.4 103.2
521(12) 0.00668 410.3 113.2
548(12) 0.00619 410.2 123.9
547(12) 0.00612 410.0 134.9
596(13) 0.00534 409.9 146.1
612(13) 0.00545 409.8 156.8
616(13) 0.00568 409.7 166.6
665(14) 0.00518 409.6 174.7
630(13) 0.00527 409.5 180.6
633(14) 0.00514 409.3 183.6
638(13) 0.00523 409.2 183.4
597(13) 0.00591 409.1 180.1
586(13) 0.00577 409.0 174.0
589(13) 0.00548 408.9 165.5
571(13) 0.00571 408.8 155.5
576(13) 0.00574 408.6 144.4
560(12) 0.00625 408.5 133.0
518(12) 0.00653 408.4 121.6
502(12) 0.00663 408.3 110.5
519(12) 0.00618 408.2 100.1
494(12) 0.00669 408.1 90.4
526(12) 0.00664 407.9 81.5
476(12) 0.00676 407.8 73.5
456(12) 0.00657 407.7 66.3
489(12) 0.00656 407.6 60.0
455(11) 0.00745 407.5 54.4
459(11) 0.00750 407.4 49.6
478(12) 0.00674 407.2 45.4
478(12) 0.00650 407.1 41.9
449(11) 0.00737 407.0 38.9
462(11) 0.00739 406.9 36.3
457(11) 0.00756 406.8 34.1
467(12) 0.00669 406.7 32.3
410(11) 0.00721 406.5 30.8
416(11) 0.00771 406.4 29.5
422(11) 0.00806 406.3 28.4
429(11) 0.00789 406.2 27.5
423(11) 0.00774 406.1 26.8
398(11) 0.00763 406.0 26.2
428(11) 0.00740 405.8 25.7
432(11) 0.00801 405.7 25.3
432(11) 0.00787 405.6 25.0
428(11) 0.00760 405.5 24.7
478(12) 0.00625 405.4 24.6
445(11) 0.00744 405.3 24.5
431(11) 0.00796 405.1 24.5
444(11) 0.00777 405.0 24.5
426(11) 0.00777 404.9 24.6
433(11) 0.00721 404.8 24.8
399(11) 0.00808 404.7 25.1
422(11) 0.00808 404.6 25.4
453(11) 0.00753 404.4 25.7
449(11) 0.00736 404.3 26.2
452(12) 0.00700 404.2 26.7
426(11) 0.00760 404.1 27.3
388(10) 0.00880 404.0 27.9
433(11) 0.00760 403.9 28.7
413(11) 0.00792 403.7 29.6
412(11) 0.00771 403.6 30.6
409(11) 0.00787 403.5 31.7
404(10) 0.00847 403.4 32.9
396(11) 0.00833 403.3 34.3
422(11) 0.00764 403.2 35.8
418(11) 0.00747 403.0 37.5
412(11) 0.00762 402.9 39.4
405(10) 0.00844 402.8 41.4
441(11) 0.00758 402.7 43.4
434(11) 0.00759 402.6 45.6
432(11) 0.00766 402.5 47.9
471(12) 0.00706 402.3 50.1
434(11) 0.00794 402.2 52.1
422(11) 0.00764 402.1 54.0
416(11) 0.00774 402.0 55.5
456(12) 0.00703 401.9 56.7
448(11) 0.00757 401.8 57.4
446(11) 0.00767 401.6 57.9
447(11) 0.00718 401.5 58.2
416(11) 0.00758 401.4 58.4
449(11) 0.00714 401.3 58.7
449(11) 0.00759 401.2 59.2
430(11) 0.00795 401.1 59.8
431(11) 0.00764 400.9 60.8
421(11) 0.00741 400.8 62.0
453(11) 0.00709 400.7 63.7
450(11) 0.00760 400.6 65.7
436(11) 0.00791 400.5 68.2
446(11) 0.00724 400.4 71.2
437(12) 0.00706 400.2 74.8
450(11) 0.00713 400.1 79.0
446(11) 0.00775 400.0 83.9
489(12) 0.00707 399.9 89.6
453(11) 0.00728 399.8 96.2
460(12) 0.00655 399.7 103.9
507(12) 0.00641 399.5 112.7
501(12) 0.00691 399.4 122.9
471(11) 0.00742 399.3 134.6
490(12) 0.00666 399.2 148.0
516(13) 0.00588 399.1 163.1
538(13) 0.00601 399.0 180.3
526(12) 0.00657 398.8 199.7
550(12) 0.00630 398.7 221.4
559(12) 0.00608 398.6 245.4
607(14) 0.00513 398.5 271.9
626(14) 0.00518 398.4 300.9
692(14) 0.00504 398.3 332.3
722(14) 0.00475 398.1 365.9
730(15) 0.00447 398.0 401.5
760(15) 0.00419 397.9 438.6
802(15) 0.00413 397.8 476.6
868(15) 0.00413 397.7 514.7
898(16) 0.00386 397.6 551.6
927(16) 0.00364 397.4 586.0
948(17) 0.003428 397.3 616.4
955(17) 0.003505 397.2 641.0
935(16) 0.00384 397.1 658.4
965(16) 0.00356 397.0 667.3
927(16) 0.00362 396.9 667.1
937(17) 0.003494 396.7 658.0
927(16) 0.00368 396.6 640.6
891(15) 0.00403 396.5 616.3
817(15) 0.00416 396.4 586.7
873(16) 0.00368 396.3 553.4
833(15) 0.00409 396.2 518.0
838(15) 0.00409 396.0 481.8
804(15) 0.00441 395.9 445.9
734(15) 0.00454 395.8 411.1
710(15) 0.00451 395.7 377.9
706(14) 0.00474 395.6 346.7
708(14) 0.00486 395.5 317.9
677(14) 0.00522 395.3 291.5
658(14) 0.00492 395.2 267.6
634(14) 0.00501 395.1 246.2
615(13) 0.00534 395.0 227.1
596(13) 0.00578 394.9 210.3
604(13) 0.00578 394.8 195.6
571(13) 0.00578 394.6 182.9
559(13) 0.00546 394.5 172.0
518(12) 0.00637 394.4 162.7
575(12) 0.00611 394.3 154.9
581(13) 0.00600 394.2 148.3
553(12) 0.00608 394.1 142.9
548(13) 0.00554 393.9 138.5
550(13) 0.00598 393.8 134.9
547(12) 0.00642 393.7 132.2
514(12) 0.00679 393.6 130.2
541(12) 0.00612 393.5 128.8
533(13) 0.00578 393.4 128.0
522(12) 0.00617 393.2 127.8
521(12) 0.00679 393.1 128.0
534(12) 0.00653 393.0 128.8
556(12) 0.00606 392.9 130.1
517(12) 0.00620 392.8 131.8
486(12) 0.00672 392.7 134.0
491(11) 0.00713 392.5 136.6
524(12) 0.00653 392.4 139.5
524(12) 0.00625 392.3 142.6
519(12) 0.00610 392.2 145.9
528(13) 0.00595 392.1 149.2
527(12) 0.00664 392.0 152.2
549(12) 0.00621 391.8 154.6
540(13) 0.00601 391.7 156.2
564(13) 0.00546 391.6 156.7
573(13) 0.00568 391.5 155.8
528(12) 0.00658 391.4 153.4
525(12) 0.00639 391.3 149.5
553(13) 0.00583 391.1 144.3
555(13) 0.00587 391.0 137.9
561(13) 0.00579 390.9 130.8
544(12) 0.00645 390.8 123.1
514(12) 0.00643 390.7 115.3
522(12) 0.00617 390.6 107.4
478(12) 0.00682 390.4 99.8
467(11) 0.00724 390.3 92.5
446(11) 0.00776 390.2 85.5
475(12) 0.00671 390.1 79.0
489(12) 0.00624 390.0 73.0
446(11) 0.00729 389.9 67.5
427(11) 0.00776 389.7 62.5
433(11) 0.00793 389.6 57.9
451(11) 0.00722 389.5 53.8
429(11) 0.00709 389.4 50.0
432(11) 0.00743 389.3 46.7
421(11) 0.00800 389.2 43.7
407(10) 0.00840 389.0 41.0
418(11) 0.00767 388.9 38.6
442(12) 0.00686 388.8 36.4
430(11) 0.00760 388.7 34.4
452(11) 0.00753 388.6 32.6
426(11) 0.00811 388.5 31.0
403(11) 0.00774 388.3 29.5
387(11) 0.00783 388.2 28.2
423(11) 0.00782 388.1 26.9
410(10) 0.00844 388.0 25.8
399(10) 0.00852 387.9 24.7
408(11) 0.00802 387.8 23.7
400(11) 0.00776 387.6 22.8
436(11) 0.00740 387.5 21.9
407(10) 0.00840 387.4 21.1
413(11) 0.00818 387.3 20.4
403(11) 0.00807 387.2 19.7
398(11) 0.00748 387.1 19.0
405(11) 0.00801 386.9 18.4
386(10) 0.00889 386.8 17.8
436(11) 0.00766 386.7 17.2
400(11) 0.00803 386.6 16.7
380(11) 0.00821 386.5 16.2
387(11) 0.00812 386.4 15.7
405(10) 0.00844 386.2 15.2
409(11) 0.00826 386.1 14.8
400(11) 0.00815 386.0 14.4
396(11) 0.00799 385.9 14.0
403(11) 0.00800 385.8 13.6
412(11) 0.00828 385.7 13.2
394(11) 0.00838 385.5 12.9
380(11) 0.00834 385.4 12.6
399(11) 0.00780 385.3 12.3
410(11) 0.00778 385.2 12.0
381(10) 0.00894 385.1 11.7
413(11) 0.00787 385.0 11.4
410(11) 0.00783 384.8 11.1
427(11) 0.00734 384.7 10.9
389(10) 0.00851 384.6 10.6
397(10) 0.00855 384.5 10.4
370(10) 0.00864 384.4 10.2
389(11) 0.00784 384.3 9.9
370(10) 0.00874 384.1 9.7
388(10) 0.00849 384.0 9.5
382(10) 0.00893 383.9 9.3
379(10) 0.00845 383.8 9.1
374(11) 0.00824 383.7 8.9
406(11) 0.00788 383.6 8.8
391(10) 0.00857 383.5 8.6
369(10) 0.00926 383.3 8.4
371(10) 0.00856 383.2 8.3
396(11) 0.00764 383.1 8.1
378(10) 0.00839 383.0 7.9
391(10) 0.00848 382.9 7.8
381(10) 0.00890 382.8 7.7
400(11) 0.00796 382.6 7.5
398(11) 0.00766 382.5 7.4
393(11) 0.00823 382.4 7.3
397(10) 0.00867 382.3 7.1
381(10) 0.00892 382.2 7.0
404(11) 0.00787 382.1 6.9
409(11) 0.00714 381.9 6.8
367(10) 0.00881 381.8 6.7
409(11) 0.00831 381.7 6.6
397(11) 0.00832 381.6 6.4
384(11) 0.00833 381.5 6.3
388(11) 0.00786 381.4 6.2
393(11) 0.00803 381.2 6.1
400(10) 0.00845 381.1 6.0
375(10) 0.00899 381.0 5.9
380(10) 0.00867 380.9 5.9
362(10) 0.00881 380.8 5.8
383(10) 0.00848 380.7 5.7
367(10) 0.00917 380.5 5.6
362(10) 0.00928 380.4 5.5
379(10) 0.00839 380.3 5.4
380(11) 0.00826 380.2 5.3
389(10) 0.00844 380.1 5.3
395(10) 0.00864 380.0 5.2
395(11) 0.00824 379.8 5.1
386(11) 0.00824 379.7 5.0
379(11) 0.00795 379.6 5.0
349(10) 0.00929 379.5 4.9
380(10) 0.00888 379.4 4.8
405(10) 0.00839 379.3 4.8
394(11) 0.00830 379.1 4.7
374(10) 0.00843 379.0 4.6
379(10) 0.00859 378.9 4.6
389(10) 0.00874 378.8 4.5
410(11) 0.00797 378.7 4.5
374(10) 0.00849 378.6 4.4
383(10) 0.00842 378.4 4.3
382(10) 0.00846 378.3 4.3
411(11) 0.00834 378.2 4.2
397(11) 0.00803 378.1 4.2
389(11) 0.00792 378.0 4.1
387(11) 0.00838 377.9 4.1
387(10) 0.00847 377.7 4.0
378(10) 0.00917 377.6 4.0
384(11) 0.00817 377.5 3.9
396(11) 0.00766 377.4 3.9
387(11) 0.00818 377.3 3.8
371(10) 0.00909 377.2 3.8
397(10) 0.00867 377.0 3.7
416(11) 0.00754 376.9 3.7
396(11) 0.00750 376.8 3.7
389(11) 0.00825 376.7 3.6
381(10) 0.00894 376.6 3.6
387(10) 0.00886 376.5 3.5
378(10) 0.00867 376.3 3.5
393(11) 0.00765 376.2 3.5
383(10) 0.00857 376.1 3.4
399(10) 0.00862 376.0 3.4
372(10) 0.00918 375.9 3.3
396(11) 0.00818 375.8 3.3
392(11) 0.00785 375.6 3.3
378(11) 0.00836 375.5 3.2
369(10) 0.00927 375.4 3.2
369(10) 0.00907 375.3 3.2
406(11) 0.00780 375.2 3.1
367(11) 0.00829 375.1 3.1
345(10) 0.00928 374.9 3.1
372(10) 0.00913 374.8 3.0
372(10) 0.00885 374.7 3.0
395(11) 0.00815 374.6 3.0
375(10) 0.00851 374.5 2.9
380(11) 0.00836 374.4 2.9
363(10) 0.00926 374.2 2.9
367(10) 0.00915 374.1 2.9
385(11) 0.00833 374.0 2.8
352(10) 0.00892 373.9 2.8
368(10) 0.00869 373.8 2.8
385(10) 0.00888 373.7 2.8
376(10) 0.00876 373.5 2.8
378(11) 0.00834 373.4 2.8
394(11) 0.00800 373.3 2.7
404(11) 0.00824 373.2 2.7
370(10) 0.00919 373.1 2.7
371(10) 0.00880 373.0 2.7
366(10) 0.00847 373.0 2.6
387(11) 0.00779 372.9 2.6
363(10) 0.00881 372.8 2.6
412(11) 0.00834 372.7 2.6
364(10) 0.00880 372.6 2.6
386(11) 0.00784 372.5 2.5
375(10) 0.00863 372.4 2.5
390(10) 0.00858 372.3 2.5
398(10) 0.00857 372.2 2.5
369(10) 0.00852 372.2 2.4
392(11) 0.00791 372.1 2.4
375(10) 0.00872 372.0 2.4
362(10) 0.00934 371.9 2.4
359(10) 0.00957 371.8 2.4
375(10) 0.00859 371.7 2.4
377(11) 0.00808 371.6 2.3
381(10) 0.00845 371.5 2.3
385(10) 0.00877 371.5 2.3
390(10) 0.00867 371.4 2.3
345(10) 0.00921 371.3 2.3
374(11) 0.00802 371.2 2.3
379(10) 0.00848 371.1 2.3
365(10) 0.00920 371.0 2.2
412(11) 0.00828 370.9 2.2
413(11) 0.00779 370.8 2.2
383(11) 0.00784 370.7 2.2
378(11) 0.00838 370.7 2.2
380(10) 0.00905 370.6 2.2
368(10) 0.00906 370.5 2.2
359(10) 0.00896 370.4 2.1
372(11) 0.00810 370.3 2.1
400(11) 0.00790 370.2 2.1
402(10) 0.00843 370.1 2.1
381(10) 0.00885 370.0 2.1
382(11) 0.00817 370.0 2.1
368(11) 0.00818 369.9 2.1
389(11) 0.00829 369.8 2.0
375(10) 0.00908 369.7 2.0
384(10) 0.00871 369.6 2.0
372(10) 0.00842 369.5 2.0
375(11) 0.00817 369.4 2.0
371(10) 0.00863 369.3 2.0
365(10) 0.00932 369.2 2.0
355(10) 0.00917 369.2 2.0
368(10) 0.00874 369.1 2.0
387(11) 0.00812 369.0 1.9
382(10) 0.00839 368.9 1.9
358(10) 0.00951 368.8 1.9
381(10) 0.00853 368.7 1.9
369(10) 0.00900 368.6 1.9
375(10) 0.00876 368.5 1.9
380(10) 0.00872 368.5 1.9
378(10) 0.00898 368.4 1.9
380(10) 0.00854 368.3 1.9
364(10) 0.00857 368.2 1.9
368(10) 0.00901 368.1 1.9
404(11) 0.00830 368.0 1.8
395(10) 0.00863 367.9 1.8
351(10) 0.00896 367.8 1.8
355(10) 0.00852 367.7 1.8
364(10) 0.00886 367.7 1.8
364(10) 0.00928 367.6 1.8
351(10) 0.00964 367.5 1.8
361(10) 0.00900 367.4 1.8
375(11) 0.00802 367.3 1.8
363(10) 0.00853 367.2 1.8
369(10) 0.00889 367.1 1.8
379(10) 0.00909 367.0 1.8
354(10) 0.00934 367.0 1.8
383(11) 0.00759 366.9 1.8
390(11) 0.00799 366.8 1.8
376(10) 0.00915 366.7 1.7
387(10) 0.00874 366.6 1.7
347(10) 0.00918 366.5 1.7
371(11) 0.00811 366.4 1.7
346(10) 0.00957 366.3 1.7
385(10) 0.00890 366.2 1.7
376(10) 0.00909 366.2 1.7
381(11) 0.00834 366.1 1.7
391(11) 0.00770 366.0 1.7
381(11) 0.00822 365.9 1.7
375(10) 0.00909 365.8 1.7
371(10) 0.00886 365.7 1.7
376(11) 0.00823 365.6 1.7
377(11) 0.00808 365.5 1.7
379(11) 0.00831 365.5 1.7
374(10) 0.00900 365.4 1.7
343(10) 0.00973 365.3 1.7
365(10) 0.00864 365.2 1.7
371(10) 0.00843 365.1 1.7
355(10) 0.00889 365.0 1.7
389(10) 0.00877 364.9 1.7
360(10) 0.00919 364.8 1.7
369(10) 0.00856 364.7 1.7
387(11) 0.00793 364.7 1.7
374(10) 0.00864 364.6 1.7
353(10) 0.00963 364.5 1.7
339(10) 0.00950 364.4 1.7
373(11) 0.00814 364.3 1.7
367(10) 0.00856 364.2 1.7
366(10) 0.00889 364.1 1.7
362(10) 0.00941 364.0 1.7
367(10) 0.00872 364.0 1.7
343(10) 0.00903 363.9 1.7
380(10) 0.00842 363.8 1.7
342(10) 0.00969 363.7 1.7
344(10) 0.00984 363.6 1.7
356(10) 0.00893 363.5 1.7
354(10) 0.00878 363.4 1.7
354(10) 0.00947 363.3 1.7
364(10) 0.00915 363.2 1.8
346(10) 0.00974 363.2 1.8
369(10) 0.00859 363.1 1.8
369(10) 0.00841 363.0 1.8
371(10) 0.00863 362.9 1.8
351(10) 0.00956 362.8 1.8
367(10) 0.00927 362.7 1.8
366(10) 0.00878 362.6 1.8
373(11) 0.00790 362.5 1.9
373(10) 0.00848 362.5 1.9
365(10) 0.00935 362.4 1.9
363(10) 0.00915 362.3 1.9
345(10) 0.00879 362.2 2.0
335(10) 0.00896 362.1 2.0
360(10) 0.00884 362.0 2.0
349(10) 0.00969 361.9 2.1
360(10) 0.00934 361.8 2.1
372(10) 0.00851 361.7 2.2
348(10) 0.00874 361.7 2.2
384(11) 0.00811 361.6 2.3
388(10) 0.00893 361.5 2.4
366(10) 0.00899 361.4 2.5
357(10) 0.00900 361.3 2.7
369(11) 0.00828 361.2 2.9
379(11) 0.00834 361.1 3.2
371(10) 0.00919 361.0 3.6
365(10) 0.00932 361.0 4.4
365(10) 0.00872 360.9 5.5
363(11) 0.00827 360.8 7.1
346(10) 0.00913 360.7 9.2
375(10) 0.00910 360.6 11.9
420(11) 0.00806 360.5 14.9
391(11) 0.00808 360.4 17.7
406(11) 0.00754 360.3 19.5
400(11) 0.00797 360.2 19.6
393(10) 0.00872 360.2 18.1
388(10) 0.00841 360.1 15.4
380(11) 0.00833 360.0 12.5
377(11) 0.00838 359.9 9.8
393(11) 0.00833 359.8 7.6
382(10) 0.00907 359.7 6.0
350(10) 0.00930 359.6 4.9
361(10) 0.00864 359.5 4.2
354(10) 0.00911 359.5 3.7
377(10) 0.00865 359.4 3.5
362(10) 0.00942 359.3 3.3
341(10) 0.00926 359.2 3.3
332(10) 0.00916 359.1 3.2
346(10) 0.00898 359.0 3.2
349(10) 0.00935 358.9 3.2
358(10) 0.00958 358.8 3.2
374(10) 0.00842 358.7 3.3
371(11) 0.00829 358.7 3.3
358(10) 0.00912 358.6 3.4
353(10) 0.00931 358.5 3.4
353(10) 0.00948 358.4 3.5
355(10) 0.00880 358.3 3.6
365(11) 0.00822 358.2 3.7
366(10) 0.00876 358.1 3.8
353(10) 0.00964 358.0 3.9
366(10) 0.00929 358.0 4.0
344(10) 0.00936 357.9 4.2
350(10) 0.00879 357.8 4.3
379(10) 0.00844 357.7 4.5
366(10) 0.00931 357.6 4.6
357(10) 0.00949 357.5 4.8
365(10) 0.00859 357.4 5.0
355(10) 0.00840 357.3 5.1
379(11) 0.00832 357.2 5.3
355(10) 0.00948 357.2 5.5
370(10) 0.00919 357.1 5.8
376(10) 0.00861 357.0 6.0
374(10) 0.00845 356.9 6.2
373(10) 0.00860 356.8 6.4
352(10) 0.00962 356.7 6.7
362(10) 0.00913 356.6 6.9
391(11) 0.00827 356.5 7.2
367(11) 0.00821 356.5 7.4
348(10) 0.00880 356.4 7.7
370(10) 0.00917 356.3 7.9
373(10) 0.00899 356.2 8.2
360(10) 0.00869 356.1 8.4
359(10) 0.00879 356.0 8.6
387(11) 0.00829 355.9 8.9
395(10) 0.00860 355.8 9.1
350(10) 0.00934 355.7 9.3
368(10) 0.00859 355.7 9.5
372(10) 0.00873 355.6 9.6
370(10) 0.00898 355.5 9.8
378(10) 0.00899 355.4 9.9
371(10) 0.00870 355.3 10.0
372(10) 0.00852 355.2 10.1
379(10) 0.00841 355.1 10.1
359(10) 0.00937 355.0 10.1
342(10) 0.00990 355.0 10.1
364(10) 0.00888 354.9 10.1
368(10) 0.00855 354.8 10.0
353(10) 0.00912 354.7 9.9
361(10) 0.00909 354.6 9.8
361(10) 0.00936 354.5 9.7
350(10) 0.00920 354.4 9.5
346(10) 0.00879 354.3 9.3
358(10) 0.00868 354.2 9.1
357(10) 0.00943 354.2 8.9
365(10) 0.00927 354.1 8.7
364(10) 0.00879 354.0 8.5
398(11) 0.00745 353.9 8.3
349(10) 0.00964 353.8 8.1
358(10) 0.00950 353.7 7.9
379(10) 0.00894 353.6 7.7
409(11) 0.00805 353.5 7.5
380(11) 0.00798 353.5 7.3
380(10) 0.00840 353.4 7.1
356(10) 0.00935 353.3 7.0
351(10) 0.00966 353.2 6.8
346(10) 0.00940 353.1 6.7
352(10) 0.00856 353.0 6.5
362(10) 0.00910 352.9 6.4
394(10) 0.00866 352.8 6.3
366(10) 0.00918 352.7 6.3
368(10) 0.00871 352.7 6.2
343(10) 0.00885 352.6 6.2
372(10) 0.00852 352.5 6.2
368(10) 0.00928 352.4 6.3
384(10) 0.00859 352.3 6.4
391(11) 0.00829 352.2 6.6
376(11) 0.00818 352.1 6.9
353(10) 0.00882 352.0 7.2
340(10) 0.01003 352.0 7.7
369(10) 0.00898 351.9 8.3
360(10) 0.00856 351.8 9.1
341(10) 0.00881 351.7 10.1
360(10) 0.00885 351.6 11.2
369(10) 0.00925 351.5 12.6
367(10) 0.00906 351.4 14.2
348(10) 0.00932 351.3 15.9
364(10) 0.00872 351.2 17.8
327(10) 0.00992 351.2 19.6
342(10) 0.00989 351.1 21.4
367(10) 0.00885 351.0 22.9
375(11) 0.00836 350.9 24.0
366(10) 0.00888 350.8 24.4
359(10) 0.00921 350.7 24.1
376(10) 0.00917 350.6 23.1
350(10) 0.00904 350.5 21.7
381(11) 0.00800 350.5 19.9
354(10) 0.00906 350.4 17.9
352(10) 0.00950 350.3 16.0
372(10) 0.00909 350.2 14.2
402(11) 0.00808 350.1 12.5
347(10) 0.00928 350.0 11.1
368(10) 0.00885 349.9 9.8
357(10) 0.00937 349.8 8.7
348(10) 0.00988 349.7 7.8
359(10) 0.00889 349.7 7.1
342(10) 0.00847 349.6 6.5
324(10) 0.00945 349.5 6.1
360(10) 0.00923 349.4 5.7
349(10) 0.00972 349.3 5.4
365(10) 0.00868 349.2 5.3
339(10) 0.00920 349.1 5.1
354(10) 0.00930 349.0 5.0
350(10) 0.00975 349.0 5.0
377(10) 0.00889 348.9 5.0
369(10) 0.00881 348.8 5.0
374(11) 0.00818 348.7 5.1
354(10) 0.00925 348.6 5.2
346(10) 0.00984 348.5 5.4
326(9) 0.01017 348.4 5.5
345(10) 0.00919 348.3 5.7
317(10) 0.00963 348.2 6.0
347(10) 0.00917 348.2 6.3
384(10) 0.00881 348.1 6.6
341(10) 0.00986 348.0 7.0
339(10) 0.00952 347.9 7.4
349(10) 0.00878 347.8 7.8
361(10) 0.00858 347.7 8.3
347(10) 0.00974 347.6 8.9
334(9) 0.01014 347.5 9.4
357(10) 0.00876 347.5 10.0
357(10) 0.00873 347.4 10.6
337(10) 0.00964 347.3 11.2
341(10) 0.00980 347.2 11.9
364(10) 0.00903 347.1 12.5
356(10) 0.00871 347.0 13.0
386(11) 0.00779 346.9 13.6
347(10) 0.00938 346.8 14.0
371(10) 0.00910 346.7 14.4
341(10) 0.00939 346.7 14.6
361(10) 0.00870 346.6 14.7
357(10) 0.00900 346.5 14.7
332(10) 0.00982 346.4 14.5
327(9) 0.01024 346.3 14.2
364(10) 0.00874 346.2 13.8
336(10) 0.00910 346.1 13.3
336(10) 0.00931 346.0 12.7
344(10) 0.00968 346.0 12.1
370(10) 0.00923 345.9 11.5
369(10) 0.00850 345.8 10.8
357(10) 0.00866 345.7 10.2
387(11) 0.00817 345.6 9.6
348(10) 0.00954 345.5 9.0
372(10) 0.00921 345.4 8.4
349(10) 0.00906 345.3 7.9
333(10) 0.00918 345.2 7.4
322(10) 0.00999 345.2 6.9
353(10) 0.00949 345.1 6.5
334(9) 0.01021 345.0 6.1
362(10) 0.00866 344.9 5.8
334(10) 0.00918 344.8 5.5
363(10) 0.00843 344.7 5.2
337(10) 0.00992 344.7 4.9
353(10) 0.00943 344.6 4.7
325(10) 0.00989 344.6 4.5
339(10) 0.00871 344.5 4.3
363(10) 0.00870 344.5 4.2
326(9) 0.01036 344.4 4.1
362(10) 0.00928 344.4 4.0
343(10) 0.00941 344.3 3.9
340(10) 0.00907 344.2 3.8
335(10) 0.00978 344.2 3.7
368(10) 0.00926 344.1 3.7
345(10) 0.00947 344.1 3.6
329(10) 0.00977 344.0 3.6
343(10) 0.00897 344.0 3.6
364(10) 0.00859 343.9 3.6
338(10) 0.01005 343.9 3.6
327(10) 0.00997 343.8 3.6
350(10) 0.00870 343.8 3.6
347(10) 0.00872 343.7 3.6
350(10) 0.00905 343.7 3.7
330(9) 0.01029 343.6 3.7
339(10) 0.00966 343.6 3.7
344(10) 0.00897 343.5 3.8
337(10) 0.00924 343.5 3.8
357(10) 0.00884 343.4 3.9
360(10) 0.00948 343.3 4.0
328(10) 0.00995 343.3 4.0
354(10) 0.00900 343.2 4.1
349(10) 0.00897 343.2 4.2
341(10) 0.00945 343.1 4.3
326(9) 0.01037 343.1 4.4
341(10) 0.00921 343.0 4.5
356(10) 0.00893 343.0 4.7
330(10) 0.00975 342.9 4.8
359(10) 0.00901 342.9 4.9
343(10) 0.00984 342.8 5.1
346(10) 0.00927 342.8 5.2
361(10) 0.00858 342.7 5.4
330(10) 0.00974 342.7 5.6
347(10) 0.00962 342.6 5.7
360(10) 0.00937 342.6 5.9
351(10) 0.00892 342.5 6.1
318(10) 0.00942 342.4 6.3
334(10) 0.00952 342.4 6.5
345(10) 0.00990 342.3 6.7
383(10) 0.00891 342.3 6.9
378(10) 0.00872 342.2 7.1
365(11) 0.00835 342.2 7.3
356(10) 0.00889 342.1 7.5
336(10) 0.01002 342.1 7.7
351(10) 0.00968 342.0 7.9
391(11) 0.00822 342.0 8.1
333(10) 0.00896 341.9 8.3
349(10) 0.00903 341.9 8.4
346(10) 0.00979 341.8 8.5
329(9) 0.01010 341.8 8.7
346(10) 0.00910 341.7 8.8
347(10) 0.00862 341.7 8.8
355(10) 0.00864 341.6 8.9
348(10) 0.00975 341.5 8.9
351(10) 0.00939 341.5 8.9
373(11) 0.00837 341.4 8.9
339(10) 0.00873 341.4 8.9
351(10) 0.00888 341.3 8.9
337(10) 0.01005 341.3 8.8
350(10) 0.00935 341.2 8.8
334(10) 0.00979 341.2 8.7
347(10) 0.00877 341.1 8.6
366(11) 0.00833 341.1 8.6
368(10) 0.00917 341.0 8.5
330(9) 0.01012 341.0 8.5
335(10) 0.00933 340.9 8.4
323(10) 0.00945 340.9 8.4
336(10) 0.00943 340.8 8.3
336(10) 0.01003 340.8 8.3
347(10) 0.00923 340.7 8.3
360(10) 0.00874 340.6 8.3
371(10) 0.00846 340.6 8.3
369(10) 0.00889 340.5 8.4
359(10) 0.00951 340.5 8.4
327(10) 0.00988 340.4 8.5
359(10) 0.00862 340.4 8.5
343(10) 0.00914 340.3 8.6
336(10) 0.00969 340.3 8.8
364(10) 0.00933 340.2 8.9
352(10) 0.00915 340.2 9.0
342(10) 0.00899 340.1 9.2
359(10) 0.00865 340.1 9.4
360(10) 0.00889 340.0 9.6
339(10) 0.01002 340.0 9.8
342(10) 0.00932 339.9 10.1
336(10) 0.00899 339.9 10.4
343(10) 0.00917 339.8 10.8
370(10) 0.00909 339.8 11.2
365(10) 0.00933 339.7 11.6
368(10) 0.00864 339.6 12.1
351(10) 0.00848 339.6 12.6
334(10) 0.00978 339.5 13.2
357(10) 0.00947 339.5 13.9
336(9) 0.01012 339.4 14.7
369(10) 0.00879 339.4 15.5
365(11) 0.00826 339.3 16.4
329(10) 0.00969 339.3 17.4
358(10) 0.00938 339.2 18.5
325(9) 0.01043 339.2 19.8
365(10) 0.00848 339.1 21.1
350(11) 0.00801 339.1 22.6
359(10) 0.00894 339.0 24.3
383(10) 0.00891 339.0 26.1
389(10) 0.00862 338.9 28.0
366(10) 0.00895 338.9 30.1
357(10) 0.00859 338.8 32.4
357(10) 0.00909 338.7 34.9
380(10) 0.00902 338.7 37.6
381(10) 0.00883 338.6 40.5
410(11) 0.00801 338.6 43.5
417(11) 0.00730 338.5 46.8
380(11) 0.00828 338.5 50.2
386(10) 0.00887 338.4 53.7
411(11) 0.00788 338.4 57.4
392(11) 0.00828 338.3 61.3
416(11) 0.00727 338.3 65.1
421(11) 0.00766 338.2 69.0
419(11) 0.00819 338.2 72.9
418(11) 0.00799 338.1 76.7
426(11) 0.00751 338.1 80.3
432(11) 0.00731 338.0 83.6
435(11) 0.00759 338.0 86.5
460(11) 0.00746 337.9 89.0
460(12) 0.00690 337.8 91.0
467(12) 0.00676 337.8 92.4
466(12) 0.00690 337.7 93.1
440(11) 0.00758 337.7 93.3
443(11) 0.00778 337.6 92.8
439(11) 0.00739 337.6 91.7
417(11) 0.00751 337.5 90.1
406(11) 0.00792 337.5 88.1
424(11) 0.00787 337.4 85.8
455(11) 0.00770 337.4 83.2
420(11) 0.00758 337.3 80.4
408(11) 0.00758 337.3 77.6
431(11) 0.00731 337.2 74.6
399(11) 0.00830 337.2 71.7
406(10) 0.00848 337.1 68.7
399(11) 0.00776 337.1 65.8
420(11) 0.00723 337.0 63.0
426(11) 0.00740 336.9 60.2
401(10) 0.00845 336.9 57.5
415(11) 0.00826 336.8 54.9
398(11) 0.00795 336.8 52.4
385(11) 0.00801 336.7 50.0
403(11) 0.00815 336.7 47.6
405(10) 0.00847 336.6 45.4
391(10) 0.00869 336.6 43.2
400(11) 0.00812 336.5 41.1
372(11) 0.00809 336.5 38.8
383(10) 0.00849 336.4 36.9
388(10) 0.00884 336.4 35.0
370(10) 0.00902 336.3 33.3
380(10) 0.00841 336.3 31.6
365(11) 0.00819 336.2 30.0
375(10) 0.00856 336.2 28.5
355(10) 0.00958 336.1 27.0
354(10) 0.00944 336.0 25.6
375(10) 0.00846 336.0 24.3
347(10) 0.00904 335.9 23.1
362(10) 0.00884 335.9 21.9
372(10) 0.00915 335.8 20.8
370(10) 0.00902 335.8 19.7
368(10) 0.00852 335.7 18.7
354(10) 0.00869 335.7 17.8
336(10) 0.00951 335.6 16.9
354(10) 0.00955 335.6 16.1
375(10) 0.00901 335.5 15.3
379(11) 0.00831 335.5 14.5
348(10) 0.00891 335.4 13.8
362(10) 0.00898 335.4 13.1
380(10) 0.00898 335.3 12.5
334(10) 0.00964 335.3 11.9
340(10) 0.00916 335.2 11.4
330(10) 0.00937 335.1 10.8
345(10) 0.00949 335.1 10.3
351(10) 0.00963 335.0 9.9
338(10) 0.00941 335.0 9.4
338(10) 0.00910 334.9 9.0
341(10) 0.00919 334.9 8.6
346(10) 0.00944 334.8 8.2
338(10) 0.00998 334.8 7.9
370(11) 0.00835 334.7 7.6
361(10) 0.00841 334.7 7.3
340(10) 0.00954 334.6 7.0
348(10) 0.00944 334.6 6.7
337(9) 0.01009 334.5 6.4
361(10) 0.00870 334.5 6.2
329(10) 0.00948 334.4 6.0
341(10) 0.00915 334.4 5.8
333(10) 0.01000 334.3 5.6
335(10) 0.00997 334.3 5.4
361(10) 0.00905 334.2 5.2
352(10) 0.00874 334.1 5.0
330(10) 0.00952 334.1 4.9
338(10) 0.00990 334.0 4.7
336(9) 0.01015 334.0 4.6
337(10) 0.00908 333.9 4.4
309(10) 0.00969 333.9 4.3
333(10) 0.00945 333.8 4.2
335(9) 0.01010 333.8 4.1
344(10) 0.00975 333.7 4.0
325(10) 0.00992 333.7 3.8
329(10) 0.00901 333.6 3.7
367(10) 0.00844 333.6 3.7
355(10) 0.00949 333.5 3.6
340(10) 0.00988 333.5 3.5
333(10) 0.00952 333.4 3.4
318(10) 0.00935 333.4 3.3
326(10) 0.00928 333.3 3.2
329(9) 0.01022 333.2 3.1
322(10) 0.01007 333.2 3.1
338(10) 0.00924 333.1 3.0
332(10) 0.00938 333.1 2.9
341(10) 0.00943 333.0 2.9
348(10) 0.00972 333.0 2.8
330(10) 0.01005 332.9 2.7
321(10) 0.00979 332.9 2.7
323(10) 0.01006 332.8 2.6
321(10) 0.01007 332.8 2.6
341(10) 0.00991 332.7 2.5
344(10) 0.00941 332.7 2.5
346(10) 0.00904 332.6 2.4
331(10) 0.00949 332.6 2.4
350(10) 0.00905 332.5 2.3
334(10) 0.01004 332.5 2.3
379(10) 0.00854 332.4 2.2
349(10) 0.00883 332.3 2.2
342(10) 0.00936 332.3 2.2
331(10) 0.00992 332.2 2.1
310(9) 0.01080 332.2 2.1
342(10) 0.00935 332.1 2.0
323(10) 0.00995 332.1 2.0
304(9) 0.01070 332.0 2.0
346(10) 0.00922 332.0 1.9
320(9) 0.01045 331.9 1.9
348(10) 0.00878 331.9 1.9
346(10) 0.00843 331.8 1.8
349(10) 0.00893 331.8 1.8
340(10) 0.00952 331.7 1.8
327(9) 0.01042 331.7 1.7
333(10) 0.00950 331.6 1.7
315(10) 0.00931 331.6 1.7
315(10) 0.01003 331.5 1.7
336(10) 0.00992 331.4 1.6
316(9) 0.01050 331.4 1.6
318(10) 0.00971 331.3 1.6
309(10) 0.00929 331.3 1.6
299(9) 0.01080 331.2 1.5
341(10) 0.00990 331.2 1.5
320(9) 0.01026 331.1 1.5
343(10) 0.00929 331.1 1.5
326(10) 0.00955 331.0 1.5
369(10) 0.00864 331.0 1.4
348(10) 0.00957 330.9 1.4
356(10) 0.00945 330.9 1.4
335(10) 0.00918 330.8 1.4
305(10) 0.00968 330.8 1.4
341(10) 0.00913 330.7 1.3
349(10) 0.00980 330.7 1.3
339(10) 0.00982 330.6 1.3
326(10) 0.00999 330.5 1.3
341(10) 0.00888 330.5 1.3
334(10) 0.00946 330.4 1.3
322(9) 0.01045 330.4 1.7
342(10) 0.00958 330.3 1.7
330(10) 0.00963 330.3 1.7
345(10) 0.00899 330.2 1.7
331(10) 0.00963 330.2 1.7
329(9) 0.01032 330.1 1.7
307(9) 0.01060 330.1 1.7
336(10) 0.00908 330.0 1.7
298(9) 0.01042 330.0 1.6
335(10) 0.00965 329.9 1.6
337(10) 0.00992 329.9 1.6
327(10) 0.00963 329.8 1.6
317(10) 0.00955 329.8 1.6
336(10) 0.00901 329.7 1.6
334(10) 0.00982 329.6 1.6
335(10) 0.01007 329.6 1.6
343(10) 0.00914 329.5 1.6
325(10) 0.00948 329.5 1.6
334(10) 0.00925 329.4 1.6
353(10) 0.00939 329.4 1.6
351(10) 0.00958 329.3 1.6
331(10) 0.00931 329.3 1.6
347(10) 0.00863 329.2 1.6
323(10) 0.00977 329.2 1.6
323(9) 0.01030 329.1 1.6
327(9) 0.01036 329.1 1.6
329(10) 0.00975 329.0 1.5
332(10) 0.00886 329.0 1.5
342(10) 0.00936 328.9 1.5
313(9) 0.01070 328.9 1.5
319(9) 0.01064 328.8 1.5
349(10) 0.00917 328.8 1.5
347(11) 0.00834 328.7 1.5
311(9) 0.01034 328.6 1.5
356(10) 0.00944 328.6 1.5
350(10) 0.00953 328.5 1.5
312(9) 0.01031 328.6 1.5
336(10) 0.00866 328.6 1.5
346(10) 0.00898 328.6 1.5
338(10) 0.01001 328.7 1.5
322(9) 0.01047 328.7 1.5
339(10) 0.00931 328.7 1.5
325(10) 0.00941 328.7 1.5
319(10) 0.00977 328.8 1.5
337(10) 0.01003 328.8 2.1
333(9) 0.01010 328.8 2.1
348(10) 0.00878 328.9 2.1
318(10) 0.00971 328.9 2.1
339(10) 0.00927 328.9 2.1
365(10) 0.00932 329.0 2.1
325(9) 0.01018 329.0 2.1
355(10) 0.00881 329.0 2.1
354(10) 0.00870 329.1 2.2
340(10) 0.00956 329.1 2.2
340(10) 0.00997 329.1 2.2
310(9) 0.01044 329.2 2.2
306(9) 0.01033 329.2 2.2
319(10) 0.00962 329.2 2.2
350(10) 0.00901 329.3 2.3
338(10) 0.00996 329.3 2.3
317(10) 0.00988 329.3 2.3
306(10) 0.01006 329.3 2.3
336(10) 0.00931 329.4 2.3
338(10) 0.00957 329.4 2.4
328(9) 0.01025 329.4 2.4
334(10) 0.00941 329.5 2.4
333(10) 0.00917 329.5 2.4
329(10) 0.00957 329.5 2.5
324(9) 0.01010 329.6 2.5
320(9) 0.01051 329.6 2.5
331(10) 0.00946 329.6 2.5
329(10) 0.00879 329.7 2.6
320(10) 0.00956 329.7 2.6
325(10) 0.01003 329.7 2.6
355(10) 0.00960 329.8 2.6
336(10) 0.00931 329.8 2.7
336(10) 0.00879 329.8 2.7
306(10) 0.00975 329.9 2.8
316(9) 0.01056 329.9 2.8
340(10) 0.01003 329.9 2.8
347(10) 0.00918 329.9 2.9
353(11) 0.00825 330.0 2.9
359(10) 0.00866 330.0 2.9
344(10) 0.00956 330.0 3.0
351(10) 0.00964 330.1 3.0
316(10) 0.00983 330.1 3.1
309(10) 0.00941 330.1 3.1
337(10) 0.00947 330.2 3.2
361(10) 0.00939 330.2 3.3
325(9) 0.01018 330.2 3.3
317(10) 0.01007 330.3 3.4
329(10) 0.00925 330.3 3.4
305(9) 0.01069 330.3 3.5
319(9) 0.01050 330.4 3.6
353(10) 0.00943 330.4 3.7
339(10) 0.00961 330.4 3.8
352(10) 0.00879 330.5 3.9
323(10) 0.00994 330.5 4.0
343(10) 0.00974 330.5 4.1
360(10) 0.00944 330.5 4.2
362(10) 0.00896 330.6 4.3
326(10) 0.00949 330.6 4.5
331(10) 0.00966 330.6 4.6
372(10) 0.00919 330.7 4.7
340(10) 0.00967 330.7 4.9
341(10) 0.00932 330.7 5.0
336(10) 0.00955 330.8 5.2
345(10) 0.00938 330.8 5.4
350(10) 0.00970 330.8 5.5
342(10) 0.00943 330.9 5.7
345(10) 0.00912 330.9 5.9
354(10) 0.00884 330.9 6.1
359(10) 0.00866 331.0 6.3
362(10) 0.00937 331.0 6.5
350(10) 0.00918 331.0 6.7
338(10) 0.00906 331.1 6.9
319(9) 0.01009 331.1 7.1
346(10) 0.00952 331.1 7.3
350(10) 0.00961 331.1 7.4
339(10) 0.00941 331.2 7.6
352(10) 0.00865 331.2 7.7
356(10) 0.00874 331.2 7.9
336(10) 0.00973 331.3 8.0
343(10) 0.00993 331.3 8.1
366(10) 0.00891 331.3 8.2
353(10) 0.00860 331.4 8.4
333(10) 0.00953 331.4 8.5
352(10) 0.00933 331.4 8.6
353(10) 0.00972 331.5 8.8
353(10) 0.00922 331.5 8.9
367(11) 0.00805 331.5 9.1
325(10) 0.00993 331.6 9.3
356(10) 0.00950 331.6 9.6
338(9) 0.01008 331.6 9.8
366(10) 0.00870 331.7 10.1
346(10) 0.00851 331.7 10.4
330(10) 0.00967 331.7 10.8
341(10) 0.00989 331.7 11.2
356(10) 0.00955 331.8 11.6
376(11) 0.00838 331.8 12.1
344(10) 0.00867 331.8 12.6
330(10) 0.00980 331.9 13.2
350(10) 0.00968 331.9 13.9
350(10) 0.00979 331.9 14.8
349(10) 0.00923 332.0 15.6
369(11) 0.00820 332.0 16.5
370(11) 0.00835 332.0 17.5
377(10) 0.00904 332.1 18.7
356(10) 0.00921 332.1 20.0
352(10) 0.00906 332.1 21.4
371(11) 0.00839 332.2 23.1
370(10) 0.00859 332.2 25.0
325(9) 0.01032 332.2 27.2
376(10) 0.00883 332.3 29.7
388(11) 0.00807 332.3 32.7
395(11) 0.00776 332.3 36.2
383(10) 0.00839 332.3 40.4
399(10) 0.00863 332.4 45.4
433(11) 0.00758 332.4 51.8
431(11) 0.00732 332.4 60.1
458(12) 0.00675 332.5 71.8
447(11) 0.00738 332.5 89.2
504(12) 0.00698 332.5 116.4
568(13) 0.00586 332.6 159.5
593(13) 0.00550 332.6 226.4
682(14) 0.00473 332.6 325.4
742(14) 0.00462 332.7 461.9
899(16) 0.00396 332.7 635.1
1116(18) 0.003058 332.7 832.2
1309(20) 0.002473 332.8 1025.4
1488(21) 0.002275 332.8 1168.5
1644(21) 0.002173 332.8 1209.7
1648(21) 0.002184 332.9 1131.1
1374(20) 0.002408 332.9 966.5
1033(18) 0.003093 332.9 768.2
817(15) 0.00408 332.9 576.9
680(14) 0.00511 333.0 415.6
592(13) 0.00595 333.0 291.9
501(12) 0.00637 333.0 204.7
467(12) 0.00642 333.1 146.9
457(11) 0.00711 333.1 110.2
449(11) 0.00758 333.1 87.3
417(11) 0.00827 333.2 72.6
431(11) 0.00743 333.2 62.8
415(11) 0.00729 333.2 55.7
382(10) 0.00847 333.3 50.3
364(10) 0.00939 333.3 46.2
361(10) 0.00935 333.3 42.8
362(10) 0.00907 333.4 40.1
386(11) 0.00774 333.4 37.9
359(10) 0.00909 333.4 36.1
377(10) 0.00895 333.5 34.7
378(10) 0.00887 333.5 33.7
370(10) 0.00876 333.5 32.8
380(11) 0.00795 333.5 32.2
361(10) 0.00881 333.6 31.9
346(10) 0.00983 333.6 31.7
371(10) 0.00881 333.6 31.7
373(10) 0.00860 333.7 31.8
380(11) 0.00809 333.7 32.2
375(10) 0.00863 333.7 32.7
378(10) 0.00897 333.8 33.3
371(10) 0.00894 333.8 34.1
369(10) 0.00857 333.8 35.1
382(11) 0.00820 333.9 36.3
364(10) 0.00880 333.9 37.7
357(10) 0.00953 333.9 39.3
361(10) 0.00915 334.0 41.1
385(11) 0.00811 334.0 43.2
361(10) 0.00878 334.0 45.7
349(10) 0.00931 334.1 48.5
381(10) 0.00888 334.1 51.8
382(11) 0.00836 334.1 55.6
386(11) 0.00820 334.1 60.1
367(10) 0.00907 334.2 65.4
406(11) 0.00830 334.2 71.8
429(11) 0.00797 334.2 79.6
417(11) 0.00769 334.3 89.0
416(11) 0.00779 334.3 100.4
451(11) 0.00721 334.3 114.2
437(11) 0.00774 334.4 130.9
461(11) 0.00747 334.4 151.0
462(11) 0.00719 334.4 174.9
529(13) 0.00582 334.5 203.0
555(13) 0.00599 334.5 235.6
581(13) 0.00595 334.5 273.0
606(13) 0.00586 334.6 314.9
679(14) 0.00488 334.6 361.1
702(14) 0.00456 334.6 410.6
786(15) 0.00425 334.7 462.1
886(16) 0.00399 334.7 513.3
935(16) 0.00385 334.7 560.9
903(16) 0.00370 334.7 601.1
953(17) 0.003296 334.8 629.3
940(16) 0.00366 334.8 642.1
937(16) 0.00382 334.8 637.7
926(16) 0.00383 334.9 616.7
852(16) 0.00382 334.9 582.0
807(16) 0.00379 334.9 537.8
762(15) 0.00446 335.0 488.5
720(14) 0.00488 335.0 437.4
640(13) 0.00544 335.0 387.5
638(14) 0.00514 335.1 340.5
569(13) 0.00546 335.1 297.5
551(13) 0.00604 335.1 259.3
559(12) 0.00628 335.2 225.9
572(13) 0.00604 335.2 197.6
544(13) 0.00593 335.2 174.3
486(12) 0.00650 335.3 156.3
510(12) 0.00638 335.3 143.9
462(11) 0.00754 335.3 138.5
493(12) 0.00694 335.3 142.0
529(12) 0.00609 335.4 157.1
532(13) 0.00603 335.4 186.2
566(13) 0.00574 335.4 229.9
643(13) 0.00543 335.5 285.7
720(14) 0.00478 335.5 345.3
797(15) 0.00418 335.5 393.8
808(15) 0.00403 335.6 412.2
821(15) 0.00410 335.6 390.1
730(14) 0.00488 335.6 336.2
600(13) 0.00561 335.7 269.4
558(13) 0.00574 335.7 204.7
502(12) 0.00634 335.7 150.7
464(11) 0.00715 335.8 110.1
421(11) 0.00820 335.8 82.0
403(11) 0.00818 335.8 63.7
400(11) 0.00786 335.9 52.1
387(11) 0.00824 335.9 44.7
419(11) 0.00782 335.9 39.6
385(10) 0.00889 335.9 35.8
365(10) 0.00867 336.0 32.8
370(11) 0.00829 336.0 30.4
347(10) 0.00897 336.0 28.3
367(10) 0.00898 336.1 26.4
377(10) 0.00906 336.1 24.8
397(11) 0.00793 336.1 23.4
363(11) 0.00831 336.2 22.1
327(10) 0.00986 336.2 21.0
343(10) 0.00966 336.2 20.0
360(10) 0.00946 336.3 19.1
372(11) 0.00824 336.3 18.2
344(10) 0.00854 336.3 17.4
346(10) 0.00928 336.4 16.7
365(10) 0.00925 336.4 16.1
361(10) 0.00934 336.4 15.5
360(10) 0.00895 336.5 14.9
352(11) 0.00838 336.5 14.4
343(10) 0.00939 336.5 13.9
371(10) 0.00898 336.5 13.5
349(10) 0.00971 336.6 13.0
365(10) 0.00862 336.6 12.7
342(10) 0.00885 336.6 12.3
335(10) 0.00959 336.7 12.0
352(10) 0.00947 336.7 11.6
371(10) 0.00909 336.7 11.3
358(10) 0.00876 336.8 11.1
326(10) 0.00914 336.8 10.8
346(10) 0.00916 336.8 10.6
332(9) 0.01027 336.9 10.3
329(10) 0.00997 336.9 10.1
366(10) 0.00875 336.9 9.9
349(10) 0.00902 337.0 9.7
341(10) 0.00911 337.0 9.5
340(10) 0.01006 337.0 9.4
341(10) 0.00965 337.1 9.2
363(10) 0.00875 337.1 9.1
349(10) 0.00885 337.1 8.9
365(10) 0.00889 337.1 8.8
356(10) 0.00957 337.2 8.7
359(10) 0.00884 337.2 8.5
356(10) 0.00862 337.2 8.4
338(10) 0.00892 337.3 8.3
303(9) 0.01061 337.3 8.2
335(10) 0.01001 337.3 8.2
342(10) 0.00921 337.4 8.1
365(11) 0.00814 337.4 8.0
353(10) 0.00890 337.4 7.9
343(10) 0.00961 337.5 7.9
371(10) 0.00909 337.5 7.8
363(10) 0.00893 337.5 7.8
358(10) 0.00866 337.6 7.8
337(10) 0.00941 337.6 7.7
345(10) 0.00969 337.6 7.7
314(9) 0.01070 337.7 7.7
349(10) 0.00915 337.7 7.6
358(10) 0.00860 337.7 7.6
344(10) 0.00928 337.7 7.6
350(10) 0.00953 337.8 7.6
386(10) 0.00875 337.8 7.6
357(10) 0.00905 337.8 7.6
337(10) 0.00901 337.9 7.6
321(10) 0.00974 337.9 7.6
356(10) 0.00941 337.9 7.7
332(9) 0.01025 338.0 7.7
355(10) 0.00861 338.0 7.7
346(10) 0.00857 338.0 7.8
333(10) 0.00953 338.1 7.8
339(10) 0.01003 338.1 7.9
349(10) 0.00955 338.1 7.9
337(10) 0.00969 338.1 8.0
328(10) 0.00893 338.1 8.4
330(10) 0.00962 338.0 8.5
335(10) 0.00999 338.0 8.5
323(9) 0.01034 338.0 8.6
345(10) 0.00922 338.0 8.7
349(10) 0.00868 338.0 8.9
352(10) 0.00900 338.0 9.0
347(10) 0.00978 338.0 9.1
337(10) 0.00978 338.0 9.3
347(10) 0.00880 338.0 9.4
348(10) 0.00885 338.0 9.6
368(10) 0.00860 338.0 9.7
323(9) 0.01049 338.0 9.9
332(10) 0.00968 338.0 10.1
321(10) 0.01005 338.0 10.3
347(10) 0.00911 338.0 10.6
375(10) 0.00860 338.0 10.8
351(10) 0.00963 338.0 11.0
353(10) 0.00917 338.0 11.3
348(10) 0.00915 338.0 11.6
348(10) 0.00938 338.0 11.9
390(11) 0.00832 338.0 12.2
338(10) 0.00998 338.0 12.6
379(10) 0.00850 338.0 12.9
371(10) 0.00873 338.0 13.3
353(10) 0.00935 338.0 13.7
377(10) 0.00894 338.0 14.2
376(10) 0.00899 338.0 14.6
376(10) 0.00863 338.0 15.1
342(10) 0.00933 338.0 15.6
340(10) 0.00958 338.0 16.2
370(10) 0.00895 338.0 16.8
374(10) 0.00914 338.0 17.4
356(10) 0.00909 338.0 18.1
345(10) 0.00902 338.0 18.9
343(10) 0.00924 338.0 19.7
354(10) 0.00953 338.0 20.5
402(10) 0.00846 338.0 21.5
360(10) 0.00890 338.0 22.5
369(11) 0.00802 338.0 23.7
371(10) 0.00860 338.0 25.0
350(10) 0.00957 338.0 26.4
352(10) 0.00959 338.0 28.0
382(11) 0.00814 337.9 29.8
384(11) 0.00778 337.9 31.7
393(11) 0.00827 337.9 34.0
370(10) 0.00912 337.9 36.5
387(10) 0.00877 337.9 39.2
403(11) 0.00815 337.9 42.3
421(11) 0.00711 337.9 45.7
400(11) 0.00817 337.9 49.4
410(11) 0.00834 337.9 53.4
414(11) 0.00823 337.9 57.7
413(11) 0.00784 337.9 62.2
401(11) 0.00760 337.9 67.0
390(11) 0.00826 337.9 71.8
424(11) 0.00817 337.9 76.7
432(11) 0.00778 337.9 81.3
426(11) 0.00776 337.9 85.5
420(11) 0.00747 337.9 89.3
413(11) 0.00782 337.9 92.0
400(10) 0.00859 337.9 93.7
446(11) 0.00753 337.9 94.2
451(11) 0.00720 337.9 94.2
467(12) 0.00652 337.9 92.7
412(11) 0.00795 337.9 90.5
461(11) 0.00752 337.9 87.8
426(11) 0.00778 337.9 84.8
393(11) 0.00825 337.9 81.6
415(11) 0.00761 337.9 78.6
416(11) 0.00763 337.9 75.6
394(10) 0.00875 337.9 72.9
408(11) 0.00798 337.9 70.5
408(11) 0.00782 337.9 68.4
432(11) 0.00737 337.9 66.6
415(11) 0.00798 337.9 65.2
401(10) 0.00853 337.9 64.1
394(11) 0.00812 337.9 63.4
410(11) 0.00746 337.9 63.0
427(11) 0.00747 337.9 63.0
399(11) 0.00838 337.9 63.5
397(10) 0.00860 337.9 64.3
417(11) 0.00745 337.9 65.7
404(11) 0.00764 337.9 67.6
402(11) 0.00797 337.9 70.1
408(11) 0.00832 337.8 73.3
441(11) 0.00782 337.8 77.2
453(11) 0.00716 337.8 82.0
411(11) 0.00762 337.8 87.7
443(11) 0.00737 337.8 94.4
436(11) 0.00787 337.8 102.3
482(11) 0.00725 337.8 111.4
472(12) 0.00686 337.8 121.6
470(12) 0.00632 337.8 133.1
480(12) 0.00681 337.8 145.7
483(11) 0.00722 337.8 159.4
522(12) 0.00665 337.8 174.0
542(13) 0.00583 337.8 189.0
511(13) 0.00587 337.8 204.1
555(13) 0.00588 337.8 218.7
586(13) 0.00600 337.8 231.8
599(13) 0.00577 337.8 242.7
603(13) 0.00551 337.8 250.4
592(13) 0.00532 337.8 254.2
645(14) 0.00490 337.8 253.5
628(13) 0.00561 337.8 248.5
611(13) 0.00564 337.8 239.5
571(13) 0.00583 337.8 227.3
562(13) 0.00559 337.8 213.0
560(13) 0.00569 337.8 197.3
534(12) 0.00655 337.8 181.0
503(12) 0.00675 337.8 164.9
493(12) 0.00656 337.8 149.3
483(12) 0.00651 337.8 134.6
443(11) 0.00748 337.8 120.9
429(11) 0.00807 337.8 108.6
423(11) 0.00790 337.8 97.3
416(11) 0.00765 337.8 87.2
393(11) 0.00834 337.8 78.3
421(11) 0.00788 337.8 70.4
390(10) 0.00877 337.8 63.6
416(11) 0.00801 337.8 57.8
392(11) 0.00796 337.8 52.7
383(11) 0.00811 337.8 48.4
390(11) 0.00839 337.8 44.7
353(10) 0.00957 337.8 41.5
371(10) 0.00859 337.8 38.8
364(10) 0.00842 337.8 36.5
368(11) 0.00835 337.7 34.6
364(10) 0.00895 337.7 32.9
357(10) 0.00945 337.7 31.4
368(11) 0.00836 337.7 30.1
360(10) 0.00869 337.7 29.1
384(11) 0.00809 337.7 28.1
373(10) 0.00920 337.7 27.3
365(10) 0.00923 337.7 26.6
360(10) 0.00847 337.7 26.0
362(11) 0.00806 337.7 25.5
360(10) 0.00861 337.7 25.1
370(10) 0.00900 337.7 24.8
391(10) 0.00877 337.7 24.6
366(10) 0.00861 337.7 24.4
358(10) 0.00860 337.7 24.3
360(10) 0.00901 337.7 24.3
373(10) 0.00882 337.7 24.4
362(10) 0.00946 337.7 24.6
371(10) 0.00866 337.7 24.9
369(11) 0.00790 337.7 25.2
381(11) 0.00810 337.7 25.7
352(10) 0.00950 337.7 26.3
376(10) 0.00899 337.7 27.0
355(10) 0.00855 337.7 27.9
375(11) 0.00777 337.7 29.0
395(11) 0.00806 337.7 30.3
360(10) 0.00955 337.7 31.8
365(10) 0.00896 337.7 33.9
359(10) 0.00864 337.7 36.5
385(11) 0.00769 337.7 39.8
369(10) 0.00843 337.7 44.1
369(10) 0.00917 337.7 49.4
409(11) 0.00820 337.7 55.6
397(11) 0.00814 337.7 62.5
422(11) 0.00743 337.7 69.7
410(11) 0.00748 337.7 77.3
416(11) 0.00827 337.7 86.2
454(11) 0.00742 337.7 98.4
457(12) 0.00700 337.7 116.1
471(12) 0.00677 337.7 141.4
515(12) 0.00642 337.7 176.2
576(12) 0.00609 337.7 222.1
637(13) 0.00534 337.6 279.6
739(15) 0.00434 337.6 348.3
857(16) 0.00378 337.6 425.4
991(17) 0.003474 337.6 505.6
1119(17) 0.003221 337.6 579.9
1197(19) 0.002785 337.6 634.9
1208(19) 0.002628 337.6 657.5
1185(19) 0.002814 337.6 641.1
1044(17) 0.003381 337.6 590.5
942(16) 0.00376 337.6 518.3
867(16) 0.00379 337.6 438.2
777(15) 0.00411 337.6 359.8
705(14) 0.00482 337.6 289.2
646(13) 0.00530 337.6 229.2
577(12) 0.00610 337.6 180.4
554(13) 0.00588 337.6 142.4
544(13) 0.00542 337.6 113.6
486(12) 0.00657 337.6 92.4
474(11) 0.00717 337.6 76.9
447(11) 0.00768 337.6 65.7
445(11) 0.00725 337.6 57.4
409(11) 0.00743 337.6 51.2
420(11) 0.00763 337.6 46.4
422(11) 0.00814 337.6 42.6
380(10) 0.00887 337.6 39.5
390(11) 0.00828 337.6 37.0
413(11) 0.00718 337.6 34.8
419(11) 0.00779 337.6 33.0
422(11) 0.00806 337.6 31.5
384(10) 0.00886 337.6 30.3
409(11) 0.00790 337.6 29.2
402(11) 0.00755 337.6 28.3
389(11) 0.00818 337.6 27.7
417(11) 0.00826 337.6 27.2
387(10) 0.00870 337.6 26.8
385(11) 0.00827 337.6 26.6
387(11) 0.00782 337.6 26.5
352(10) 0.00911 337.6 26.5
378(10) 0.00903 337.6 26.6
365(10) 0.00916 337.6 26.9
380(11) 0.00830 337.6 27.3
386(11) 0.00818 337.6 27.9
376(10) 0.00846 337.5 28.6
388(10) 0.00879 337.5 29.5
401(11) 0.00820 337.5 30.6
408(11) 0.00779 337.5 32.0
401(11) 0.00779 337.5 33.6
437(11) 0.00738 337.5 35.6
396(10) 0.00863 337.5 38.0
398(11) 0.00809 337.5 41.1
431(11) 0.00732 337.5 45.0
451(12) 0.00694 337.5 50.0
439(11) 0.00750 337.5 56.6
464(11) 0.00748 337.5 65.4
443(11) 0.00759 337.5 77.1
486(12) 0.00639 337.5 92.4
477(12) 0.00674 337.5 112.2
516(12) 0.00658 337.5 137.5
567(12) 0.00615 337.5 168.6
602(13) 0.00527 337.5 206.0
640(14) 0.00497 337.5 249.0
661(14) 0.00507 337.5 296.6
739(14) 0.00469 337.5 345.7
823(15) 0.00433 337.5 392.0
844(15) 0.00404 337.5 429.3
889(16) 0.00362 337.5 450.4
893(16) 0.00380 337.5 450.4
905(16) 0.00389 337.5 429.4
832(15) 0.00426 337.5 392.2
739(14) 0.00457 337.5 345.7
649(14) 0.00487 337.5 296.6
581(13) 0.00582 337.5 249.1
559(12) 0.00623 337.5 206.0
481(11) 0.00710 337.5 168.7
451(11) 0.00714 337.5 137.5
465(12) 0.00656 337.5 112.3
460(12) 0.00695 337.5 92.4
399(10) 0.00854 337.5 77.1
428(11) 0.00797 337.5 65.4
418(11) 0.00754 337.5 56.7
354(10) 0.00868 337.5 50.0
387(10) 0.00861 337.5 45.0
379(10) 0.00898 337.5 41.1
392(10) 0.00863 337.5 38.1
378(10) 0.00849 337.5 35.6
399(11) 0.00752 337.4 33.7
401(11) 0.00790 337.4 32.0
385(10) 0.00891 337.4 30.7
376(10) 0.00892 337.4 29.7
392(11) 0.00821 337.4 28.8
377(10) 0.00845 337.4 28.1
357(10) 0.00899 337.4 27.6
391(10) 0.00872 337.4 27.3
360(10) 0.00928 337.4 27.1
374(10) 0.00862 337.4 27.1
386(11) 0.00785 337.4 27.2
380(11) 0.00838 337.4 27.5
387(10) 0.00874 337.4 27.9
350(10) 0.00927 337.4 28.5
359(10) 0.00887 337.4 29.3
356(10) 0.00888 337.4 30.3
362(10) 0.00895 337.4 31.6
349(10) 0.00969 337.4 33.1
392(10) 0.00847 337.4 35.0
404(11) 0.00800 337.4 37.3
382(10) 0.00859 337.4 40.1
393(10) 0.00842 337.4 43.7
361(10) 0.00938 337.4 48.3
402(11) 0.00773 337.4 54.4
390(11) 0.00805 337.4 62.8
422(11) 0.00761 337.4 74.1
446(11) 0.00734 337.4 89.7
451(11) 0.00773 337.4 110.8
458(12) 0.00689 337.4 138.7
479(12) 0.00646 337.4 174.6
533(12) 0.00615 337.4 218.9
605(13) 0.00566 337.4 271.4
680(13) 0.00523 337.4 329.8
764(15) 0.00443 337.4 389.9
797(16) 0.00394 337.4 444.1
821(15) 0.00404 337.4 481.8
833(15) 0.00425 337.4 493.1
822(15) 0.00429 337.4 474.6
724(14) 0.00467 337.4 431.9
688(15) 0.00450 337.4 375.3
644(14) 0.00514 337.4 315.1
588(13) 0.00590 337.4 257.7
556(12) 0.00624 337.3 207.2
484(12) 0.00665 337.3 164.9
469(12) 0.00616 337.3 131.0
435(11) 0.00749 337.3 104.9
464(11) 0.00743 337.3 85.2
440(11) 0.00775 337.3 70.8
425(11) 0.00769 337.3 60.2
441(12) 0.00695 337.3 52.5
418(11) 0.00759 337.3 46.8
408(11) 0.00827 337.3 42.4
404(11) 0.00831 337.3 39.0
384(11) 0.00830 337.3 36.2
358(10) 0.00862 337.3 34.0
392(11) 0.00801 337.3 32.2
393(10) 0.00881 337.3 30.6
387(10) 0.00861 337.3 29.4
364(10) 0.00883 337.3 28.4
388(11) 0.00776 337.3 27.6
385(11) 0.00834 337.3 27.0
389(10) 0.00874 337.3 26.7
369(10) 0.00904 337.3 26.7
388(11) 0.00812 337.3 27.2
380(11) 0.00811 337.3 28.4
391(11) 0.00828 337.3 30.6
384(10) 0.00884 337.3 34.2
378(10) 0.00852 337.3 39.6
407(11) 0.00780 337.3 47.2
401(11) 0.00799 337.3 56.9
416(11) 0.00783 337.3 68.2
446(11) 0.00774 337.3 79.9
456(12) 0.00707 337.3 89.6
440(11) 0.00735 337.3 94.2
444(11) 0.00730 337.3 92.0
435(11) 0.00775 337.3 83.7
427(11) 0.00797 337.3 72.0
375(10) 0.00848 337.3 59.8
395(11) 0.00776 337.3 48.8
392(11) 0.00813 337.3 39.7
360(10) 0.00925 337.3 32.7
376(10) 0.00899 337.3 27.8
391(11) 0.00798 337.3 24.4
355(10) 0.00853 337.3 22.1
365(10) 0.00871 337.2 20.6
370(10) 0.00905 337.2 19.6
370(10) 0.00928 337.2 18.9
364(10) 0.00899 337.2 18.3
362(11) 0.00828 337.2 17.9
357(10) 0.00898 337.2 17.6
383(10) 0.00888 337.2 17.4
369(10) 0.00923 337.2 17.2
365(10) 0.00878 337.2 17.0
359(11) 0.00820 337.2 16.9
360(10) 0.00901 337.2 16.9
357(10) 0.00939 337.2 16.8
364(10) 0.00923 337.2 16.8
370(10) 0.00860 337.2 16.8
346(10) 0.00860 337.2 16.9
335(10) 0.00941 337.2 16.9
365(10) 0.00926 337.2 17.0
367(10) 0.00905 337.2 17.1
392(11) 0.00795 337.2 17.2
384(11) 0.00776 337.2 17.4
346(10) 0.00906 337.2 17.5
391(10) 0.00870 337.2 17.7
400(11) 0.00831 337.2 17.9
351(10) 0.00916 337.2 18.1
343(10) 0.00902 337.2 18.4
352(10) 0.00900 337.2 18.6
383(10) 0.00895 337.2 18.9
374(10) 0.00890 337.2 19.2
359(10) 0.00868 337.2 19.5
367(11) 0.00832 337.2 19.8
369(10) 0.00841 337.2 20.2
376(10) 0.00905 337.2 20.5
384(11) 0.00838 337.2 20.9
372(11) 0.00835 337.2 21.3
351(10) 0.00900 337.2 21.8
353(10) 0.00928 337.2 22.2
340(10) 0.00974 337.2 22.7
354(10) 0.00921 337.2 23.2
398(11) 0.00762 337.2 23.8
358(10) 0.00878 337.2 24.4
365(10) 0.00877 337.2 25.0
352(10) 0.00965 337.2 25.6
358(10) 0.00880 337.2 26.3
368(10) 0.00856 337.1 27.0
380(10) 0.00839 337.1 27.7
345(10) 0.00945 337.1 28.5
367(10) 0.00932 337.1 29.3
396(11) 0.00794 337.1 30.2
376(11) 0.00822 337.1 31.1
378(11) 0.00825 337.1 32.1
377(10) 0.00892 337.1 33.1
368(10) 0.00913 337.1 34.2
363(10) 0.00895 337.1 35.4
371(11) 0.00808 337.1 36.6
367(10) 0.00869 337.1 38.0
386(10) 0.00867 337.1 39.4
367(10) 0.00928 337.1 40.9
380(10) 0.00843 337.1 42.5
378(11) 0.00792 337.1 44.2
399(11) 0.00817 337.1 46.1
397(10) 0.00860 337.1 48.1
386(10) 0.00872 337.1 50.2
408(11) 0.00782 337.1 52.6
403(11) 0.00745 337.1 55.1
389(10) 0.00852 337.1 57.9
394(10) 0.00870 337.1 61.0
396(11) 0.00834 337.1 64.4
384(11) 0.00809 337.1 68.2
397(11) 0.00755 337.1 72.3
397(11) 0.00811 337.1 76.9
422(11) 0.00816 337.1 82.0
408(11) 0.00827 337.1 87.7
412(11) 0.00786 337.1 94.0
429(11) 0.00715 337.1 101.1
422(11) 0.00743 337.1 109.0
471(11) 0.00732 337.1 117.7
474(12) 0.00695 337.1 127.5
457(12) 0.00699 337.1 138.3
460(12) 0.00701 337.1 150.2
480(12) 0.00668 337.1 163.4
505(12) 0.00682 337.1 177.9
531(12) 0.00638 337.1 193.7
538(12) 0.00612 337.1 211.1
546(12) 0.00618 337.1 229.8
574(13) 0.00588 337.1 250.1
597(13) 0.00592 337.0 272.0
597(13) 0.00549 337.0 295.2
630(14) 0.00509 337.0 320.0
694(14) 0.00466 337.0 346.0
723(14) 0.00467 337.0 373.1
731(14) 0.00483 337.0 401.2
729(14) 0.00457 337.0 429.8
802(15) 0.00409 337.0 458.7
863(16) 0.00385 337.0 487.1
949(16) 0.00367 337.0 514.6
914(16) 0.00391 337.0 540.4
915(16) 0.00370 337.0 563.6
949(17) 0.003417 337.0 583.5
952(16) 0.00356 337.0 599.2
941(16) 0.00376 337.0 610.0
944(16) 0.00380 337.0 615.3
930(16) 0.00358 337.0 615.0
884(16) 0.00360 337.0 609.1
872(16) 0.00379 337.0 597.8
875(15) 0.00404 337.0 581.7
855(15) 0.00424 337.0 561.6
820(15) 0.00403 337.0 538.3
778(15) 0.00403 337.0 512.6
772(15) 0.00437 337.0 485.4
739(14) 0.00484 337.0 457.4
766(14) 0.00458 337.0 429.2
724(14) 0.00461 337.0 401.3
681(15) 0.00453 337.0 374.0
694(14) 0.00474 337.0 347.8
643(13) 0.00547 337.0 322.9
642(13) 0.00546 337.0 299.5
628(14) 0.00515 337.0 277.7
606(13) 0.00528 337.0 257.6
594(13) 0.00549 337.0 239.3
571(12) 0.00619 337.0 222.9
561(12) 0.00608 337.0 208.4
555(13) 0.00601 337.0 195.8
568(13) 0.00550 337.0 185.2
545(12) 0.00613 337.0 176.4
548(12) 0.00638 337.0 169.5
496(12) 0.00687 337.0 164.3
536(13) 0.00596 337.0 160.5
514(12) 0.00621 336.9 157.9
533(12) 0.00619 336.9 156.0
516(12) 0.00676 336.9 154.3
523(12) 0.00652 336.9 151.9
534(13) 0.00589 336.9 148.3
511(12) 0.00618 336.9 143.2
487(12) 0.00676 336.9 136.7
493(12) 0.00702 336.9 129.1
471(12) 0.00695 336.9 121.1
504(13) 0.00594 336.9 113.1
450(11) 0.00727 336.9 105.6
479(12) 0.00696 336.9 98.8
480(11) 0.00721 336.9 92.8
450(11) 0.00725 336.9 87.7
432(11) 0.00711 336.9 83.5
430(11) 0.00738 336.9 80.1
423(11) 0.00785 336.9 77.6
438(11) 0.00786 336.9 75.9
461(12) 0.00691 336.9 74.9
442(12) 0.00697 336.9 74.6
431(11) 0.00729 336.9 74.9
432(11) 0.00786 336.9 75.9
463(11) 0.00748 336.9 77.6
413(11) 0.00791 336.9 79.9
403(11) 0.00756 336.9 82.8
419(11) 0.00773 336.9 86.4
465(11) 0.00730 336.9 90.7
459(11) 0.00747 336.9 95.6
476(12) 0.00678 336.9 101.2
445(12) 0.00697 336.9 107.5
433(11) 0.00770 336.9 114.2
486(11) 0.00713 336.9 121.4
489(11) 0.00714 336.9 128.8
525(12) 0.00626 336.9 136.3
486(12) 0.00643 336.9 143.4
490(12) 0.00686 336.9 149.8
478(11) 0.00733 336.9 155.1
517(12) 0.00681 336.9 158.9
485(12) 0.00676 336.9 160.7
506(12) 0.00608 336.9 160.4
492(12) 0.00669 336.9 158.1
487(11) 0.00710 336.9 153.9
474(11) 0.00727 336.9 148.2
458(12) 0.00701 336.8 141.6
468(12) 0.00660 336.8 134.3
467(12) 0.00695 336.8 126.8
470(11) 0.00739 336.8 119.3
452(11) 0.00724 336.8 112.1
443(12) 0.00700 336.8 105.2
446(11) 0.00708 336.8 98.8
427(11) 0.00773 336.8 92.9
417(11) 0.00825 336.8 87.6
438(11) 0.00740 336.8 82.7
406(11) 0.00780 336.8 78.4
428(11) 0.00735 336.8 74.6
433(11) 0.00740 336.8 71.2
427(11) 0.00802 336.8 68.1
426(11) 0.00752 336.8 65.4
379(10) 0.00840 336.8 63.0
391(11) 0.00784 336.8 60.9
410(11) 0.00783 336.8 58.9
409(10) 0.00841 336.8 57.1
415(11) 0.00778 336.8 55.4
415(11) 0.00769 336.8 53.8
419(11) 0.00772 336.8 52.2
385(10) 0.00866 336.8 50.7
405(10) 0.00846 336.8 49.3
400(11) 0.00761 336.8 47.9
397(11) 0.00778 336.8 46.4
382(11) 0.00836 336.8 45.0
409(11) 0.00799 336.8 43.7
388(10) 0.00886 336.8 42.3
388(11) 0.00818 336.8 40.9
368(10) 0.00876 336.8 39.6
392(11) 0.00835 336.8 38.3
376(10) 0.00893 336.8 37.0
398(10) 0.00853 336.8 35.8
384(11) 0.00827 336.8 34.6
357(10) 0.00848 336.8 33.4
367(10) 0.00888 336.8 32.3
367(10) 0.00933 336.8 31.2
368(10) 0.00903 336.8 30.1
388(10) 0.00846 336.8 29.1
373(10) 0.00847 336.8 28.2
389(10) 0.00839 336.8 27.3
368(10) 0.00926 336.7 26.4
391(10) 0.00869 336.7 25.6
377(10) 0.00844 336.7 24.8
352(11) 0.00826 336.7 24.0
352(10) 0.00889 336.7 23.3
347(10) 0.00978 336.7 22.7
371(10) 0.00897 336.7 22.1
399(11) 0.00801 336.7 21.5
373(11) 0.00825 336.7 21.0
368(10) 0.00866 336.7 20.5
399(10) 0.00853 336.7 20.0
405(11) 0.00818 336.7 19.6
361(10) 0.00908 336.7 19.2
388(11) 0.00784 336.7 18.9
413(11) 0.00762 336.7 18.6
382(10) 0.00895 336.7 18.3
360(10) 0.00924 336.7 18.0
363(10) 0.00869 336.7 17.8
372(10) 0.00869 336.7 17.6
377(10) 0.00873 336.7 17.5
379(10) 0.00896 336.7 17.4
381(10) 0.00861 336.7 17.3
346(10) 0.00929 336.7 17.2
379(11) 0.00804 336.7 17.2
360(10) 0.00893 336.7 17.2
343(10) 0.00991 336.7 17.3
345(10) 0.00924 336.7 17.4
364(10) 0.00843 336.7 17.6
371(10) 0.00861 336.7 17.8
382(10) 0.00866 336.7 18.0
356(10) 0.00945 336.7 18.4
368(10) 0.00850 336.7 18.8
371(11) 0.00806 336.7 19.3
372(10) 0.00863 336.7 19.9
380(10) 0.00872 336.7 20.6
380(10) 0.00894 336.7 21.4
369(10) 0.00859 336.7 22.3
375(11) 0.00794 336.7 23.4
352(10) 0.00921 336.7 24.7
353(10) 0.00944 336.7 26.2
381(10) 0.00891 336.7 27.8
391(11) 0.00815 336.7 29.7
386(11) 0.00781 336.7 31.8
391(11) 0.00802 336.6 34.1
408(11) 0.00835 336.6 36.7
411(11) 0.00837 336.6 39.6
406(11) 0.00779 336.6 42.7
416(12) 0.00699 336.6 46.1
416(11) 0.00758 336.6 49.7
410(11) 0.00822 336.6 53.5
428(11) 0.00807 336.6 57.6
426(11) 0.00752 336.6 61.7
457(12) 0.00660 336.6 66.0
406(11) 0.00787 336.6 70.2
451(11) 0.00766 336.6 74.3
451(11) 0.00767 336.6 78.1
464(12) 0.00697 336.6 81.5
468(12) 0.00679 336.6 84.4
486(12) 0.00693 336.6 86.5
459(11) 0.00759 336.6 87.7
481(12) 0.00705 336.6 88.0
476(12) 0.00685 336.6 87.3
460(12) 0.00669 336.6 85.7
446(11) 0.00719 336.6 83.3
489(11) 0.00711 336.6 80.2
431(11) 0.00782 336.6 76.6
438(11) 0.00736 336.6 72.5
444(11) 0.00709 336.6 68.3
399(11) 0.00806 336.6 64.0
415(11) 0.00823 336.6 59.7
433(11) 0.00753 336.6 55.5
411(11) 0.00764 336.6 51.4
397(11) 0.00779 336.6 47.5
391(11) 0.00818 336.6 43.9
392(10) 0.00878 336.6 40.5
416(11) 0.00765 336.6 37.4
375(10) 0.00848 336.6 34.6
378(11) 0.00829 336.6 32.0
348(10) 0.00918 336.6 29.7
371(10) 0.00907 336.6 27.5
368(10) 0.00902 336.6 25.7
390(11) 0.00799 336.6 24.0
372(10) 0.00857 336.6 22.5
373(10) 0.00883 336.6 21.2
381(10) 0.00893 336.6 20.1
368(10) 0.00848 336.5 19.1
359(10) 0.00852 336.5 18.2
367(10) 0.00857 336.5 17.5
338(10) 0.00984 336.5 16.8
388(10) 0.00881 336.5 16.3
383(11) 0.00837 336.5 15.8
364(11) 0.00830 336.5 15.5
360(10) 0.00913 336.5 15.2
345(10) 0.00973 336.5 14.9
351(10) 0.00960 336.5 14.7
356(10) 0.00909 336.5 14.6
360(11) 0.00832 336.5 14.5
366(10) 0.00877 336.5 14.5
336(10) 0.00990 336.5 14.5
344(10) 0.00983 336.5 14.6
347(10) 0.00919 336.5 14.7
372(11) 0.00772 336.5 14.9
370(10) 0.00870 336.5 15.1
346(10) 0.00983 336.5 15.4
356(10) 0.00950 336.5 15.8
387(11) 0.00828 336.5 16.3
352(10) 0.00883 336.5 16.8
361(10) 0.00870 336.5 17.4
365(10) 0.00931 336.5 18.1
355(10) 0.00953 336.5 18.9
372(10) 0.00862 336.5 19.7
350(10) 0.00861 336.5 20.7
361(10) 0.00873 336.5 21.8
373(10) 0.00917 336.5 22.9
380(10) 0.00883 336.5 24.2
347(10) 0.00932 336.5 25.5
374(11) 0.00800 336.5 27.0
363(10) 0.00878 336.5 28.5
400(10) 0.00857 336.5 30.2
351(10) 0.00939 336.5 31.9
374(10) 0.00849 336.5 33.6
394(11) 0.00780 336.5 35.4
387(11) 0.00833 336.5 37.2
390(10) 0.00879 336.5 39.0
378(10) 0.00875 336.5 40.7
380(11) 0.00826 336.5 42.4
409(11) 0.00775 336.5 43.8
398(10) 0.00839 336.4 45.1
382(10) 0.00879 336.4 46.1
386(11) 0.00837 336.4 46.9
387(11) 0.00800 336.4 47.3
385(10) 0.00843 336.4 47.3
398(11) 0.00825 336.4 47.0
397(10) 0.00850 336.4 46.4
405(11) 0.00789 336.4 45.5
406(11) 0.00743 336.4 44.4
403(11) 0.00784 336.4 43.0
367(10) 0.00901 336.4 41.5
418(11) 0.00821 336.4 39.9
395(11) 0.00793 336.4 38.2
355(10) 0.00869 336.4 36.5
379(10) 0.00848 336.4 34.8
362(10) 0.00912 336.4 33.2
379(10) 0.00894 336.4 31.6
374(10) 0.00865 336.4 30.1
371(11) 0.00805 336.4 28.7
372(10) 0.00868 336.4 27.4
376(10) 0.00893 336.4 26.3
332(9) 0.01009 336.4 25.2
372(11) 0.00827 336.4 24.3
360(11) 0.00821 336.4 23.5
342(10) 0.00927 336.4 22.8
355(10) 0.00942 336.4 22.3
365(10) 0.00928 336.4 21.9
372(10) 0.00840 336.4 21.7
339(10) 0.00903 336.4 21.7
354(10) 0.00891 336.4 21.8
373(10) 0.00902 336.4 22.1
399(10) 0.00845 336.4 22.7
377(11) 0.00837 336.4 23.5
359(10) 0.00873 336.4 24.7
377(11) 0.00837 336.4 26.2
363(10) 0.00933 336.4 28.1
347(10) 0.00939 336.4 30.5
358(10) 0.00862 336.4 33.4
365(11) 0.00832 336.4 37.0
386(11) 0.00823 336.4 41.5
374(10) 0.00902 336.4 46.5
374(10) 0.00867 336.4 52.3
373(11) 0.00838 336.4 58.9
351(10) 0.00885 336.3 66.3
424(11) 0.00766 336.3 74.4
436(11) 0.00782 336.3 83.0
422(11) 0.00772 336.3 91.9
422(11) 0.00758 336.3 100.6
445(11) 0.00726 336.3 108.8
439(11) 0.00761 336.3 115.6
407(11) 0.00834 336.3 120.5
450(11) 0.00728 336.3 122.8
444(12) 0.00696 336.3 122.3
440(11) 0.00735 336.3 118.9
422(11) 0.00781 336.3 113.2
432(11) 0.00797 336.3 105.9
431(11) 0.00760 336.3 97.5
412(11) 0.00767 336.3 88.9
411(11) 0.00803 336.3 80.3
427(11) 0.00774 336.3 72.2
421(11) 0.00818 336.3 64.8
379(10) 0.00844 336.3 58.2
392(11) 0.00801 336.3 52.5
392(11) 0.00833 336.3 47.9
376(10) 0.00908 336.3 44.5
403(10) 0.00846 336.3 42.5
396(11) 0.00802 336.3 42.2
398(11) 0.00743 336.3 44.3
406(11) 0.00791 336.3 49.3
407(11) 0.00824 336.3 57.9
454(11) 0.00765 336.3 70.5
484(12) 0.00669 336.3 86.9
520(13) 0.00589 336.3 106.0
560(13) 0.00590 336.3 125.1
577(13) 0.00600 336.3 139.8
623(13) 0.00555 336.3 145.0
642(14) 0.00501 336.3 138.2
570(13) 0.00546 336.3 121.8
538(12) 0.00606 336.3 101.1
487(11) 0.00712 336.3 80.3
420(11) 0.00817 336.3 61.9
433(11) 0.00751 336.3 47.1
431(12) 0.00701 336.3 36.0
400(11) 0.00797 336.3 28.1
383(10) 0.00888 336.3 22.8
393(10) 0.00839 336.2 19.1
373(11) 0.00836 336.2 16.7
364(10) 0.00860 336.2 14.9
363(10) 0.00866 336.2 13.6
371(10) 0.00918 336.2 12.5
368(10) 0.00892 336.2 11.7
391(11) 0.00795 336.2 11.0
366(10) 0.00871 336.2 10.4
348(10) 0.00928 336.2 9.8
316(9) 0.01063 336.2 9.4
365(10) 0.00907 336.2 8.9
362(10) 0.00874 336.2 8.6
363(10) 0.00840 336.2 8.2
352(10) 0.00917 336.2 7.9
382(10) 0.00895 336.2 7.7
340(10) 0.00932 336.2 7.4
369(11) 0.00824 336.2 7.2
338(10) 0.00950 336.2 7.0
330(10) 0.00997 336.2 6.8
329(9) 0.01027 336.2 6.6
325(10) 0.00967 336.2 6.5
353(10) 0.00844 336.2 6.3
335(10) 0.00934 336.2 6.2
336(10) 0.00965 336.2 6.1
341(10) 0.00991 336.2 6.0
329(10) 0.00972 336.2 5.9
324(10) 0.00952 336.2 5.8
362(10) 0.00896 336.2 5.7
339(10) 0.00983 336.2 5.6
333(9) 0.01018 336.2 5.5
357(10) 0.00880 336.2 5.5
357(10) 0.00840 336.2 5.4
322(10) 0.00958 336.2 5.3
325(9) 0.01029 336.2 5.3
354(10) 0.00958 336.2 5.2
337(10) 0.00936 336.2 5.2
334(10) 0.00872 336.2 5.1
345(10) 0.00936 336.2 5.1
326(9) 0.01038 336.2 5.0
352(10) 0.00943 336.2 5.0
334(10) 0.00949 336.2 5.0
320(10) 0.00897 336.2 5.0
339(10) 0.00920 336.1 5.0
359(10) 0.00937 336.1 5.0
339(10) 0.00989 336.1 5.0
365(10) 0.00894 336.1 4.9
352(10) 0.00893 336.1 4.9
352(10) 0.00931 336.0 4.9
356(10) 0.00951 336.0 4.9
328(9) 0.01023 336.0 4.9
322(10) 0.00986 336.0 4.9
330(10) 0.00916 335.9 4.9
338(10) 0.00896 335.9 4.9
335(10) 0.01000 335.9 5.0
344(10) 0.00970 335.9 5.0
364(10) 0.00881 335.9 5.0
319(10) 0.01001 335.8 5.0
346(10) 0.00900 335.8 5.1
348(10) 0.00970 335.8 5.1
340(10) 0.00976 335.8 5.1
339(10) 0.00927 335.7 5.2
349(10) 0.00881 335.7 5.2
355(10) 0.00886 335.7 5.3
349(10) 0.00974 335.7 5.3
331(10) 0.00988 335.7 5.4
337(10) 0.00927 335.6 5.5
341(10) 0.00907 335.6 5.6
348(10) 0.00940 335.6 5.7
347(10) 0.00982 335.6 5.8
344(10) 0.00870 335.5 5.9
343(10) 0.00871 335.5 6.0
366(10) 0.00843 335.5 6.1
348(10) 0.00933 335.5 6.3
341(10) 0.00993 335.5 6.5
351(10) 0.00876 335.4 6.7
340(10) 0.00889 335.4 7.0
331(10) 0.00964 335.4 7.3
347(10) 0.00958 335.4 7.6
354(10) 0.00955 335.3 8.1
360(10) 0.00875 335.3 8.6
335(10) 0.00920 335.3 9.2
377(10) 0.00844 335.3 10.1
367(10) 0.00913 335.2 11.2
375(10) 0.00904 335.2 12.8
369(10) 0.00864 335.2 15.0
382(11) 0.00808 335.2 18.1
402(11) 0.00795 335.2 22.2
400(10) 0.00855 335.1 27.6
395(10) 0.00857 335.1 34.4
427(11) 0.00741 335.1 42.5
455(12) 0.00669 335.1 51.5
476(12) 0.00682 335.0 60.6
495(12) 0.00704 335.0 68.4
521(12) 0.00670 335.0 73.1
513(12) 0.00649 335.0 73.3
527(13) 0.00585 335.0 68.9
486(12) 0.00656 334.9 61.4
444(11) 0.00775 334.9 52.5
410(11) 0.00812 334.9 43.5
401(11) 0.00805 334.9 35.5
385(11) 0.00828 334.8 28.8
370(10) 0.00889 334.8 23.4
357(10) 0.00947 334.8 19.3
387(10) 0.00855 334.8 16.3
379(11) 0.00810 334.8 14.2
342(10) 0.00892 334.7 12.7
342(10) 0.00922 334.7 11.6
367(10) 0.00925 334.7 10.9
333(10) 0.00982 334.7 10.4
352(10) 0.00873 334.6 10.0
359(10) 0.00871 334.6 9.7
358(10) 0.00926 334.6 9.5
352(10) 0.00956 334.6 9.4
346(10) 0.00917 334.6 9.3
351(10) 0.00881 334.5 9.2
362(10) 0.00859 334.5 9.2
345(10) 0.00958 334.5 9.2
339(10) 0.00996 334.5 9.2
332(10) 0.00962 334.4 9.3
359(10) 0.00858 334.4 9.4
346(10) 0.00942 334.4 9.5
373(10) 0.00897 334.4 9.6
357(10) 0.00945 334.3 9.8
355(10) 0.00877 334.3 9.9
324(10) 0.00952 334.3 10.1
354(10) 0.00856 334.3 10.4
338(10) 0.00963 334.3 10.6
356(10) 0.00955 334.2 10.9
360(10) 0.00895 334.2 11.3
361(10) 0.00841 334.2 11.6
332(10) 0.00977 334.2 12.1
340(10) 0.00961 334.1 12.5
363(10) 0.00933 334.1 13.1
336(10) 0.00981 334.1 13.6
359(10) 0.00850 334.1 14.3
345(10) 0.00946 334.1 15.0
344(10) 0.00957 334.0 15.8
361(10) 0.00941 334.0 16.7
366(10) 0.00877 334.0 17.7
346(10) 0.00851 334.0 18.8
357(10) 0.00901 333.9 19.9
357(10) 0.00942 333.9 21.2
348(10) 0.00974 333.9 22.5
367(10) 0.00870 333.9 23.9
364(11) 0.00805 333.9 25.3
372(10) 0.00848 333.8 26.8
360(10) 0.00955 333.8 28.3
346(10) 0.00951 333.8 29.8
364(10) 0.00843 333.8 31.2
351(10) 0.00866 333.7 32.5
369(10) 0.00859 333.7 33.7
372(10) 0.00912 333.7 34.6
373(10) 0.00893 333.7 35.4
381(10) 0.00843 333.7 35.9
365(10) 0.00877 333.6 36.3
370(10) 0.00855 333.6 36.5
354(10) 0.00965 333.6 36.6
363(10) 0.00915 333.6 36.6
369(11) 0.00835 333.5 36.7
388(11) 0.00799 333.5 36.9
380(10) 0.00869 333.5 37.1
353(10) 0.00955 333.5 37.5
377(10) 0.00881 333.5 38.0
390(11) 0.00835 333.4 38.8
361(10) 0.00862 333.4 39.8
336(10) 0.00959 333.4 41.1
375(10) 0.00906 333.4 42.8
362(10) 0.00885 333.3 44.8
359(10) 0.00859 333.3 47.2
389(11) 0.00801 333.3 50.3
392(10) 0.00846 333.3 53.9
379(10) 0.00910 333.2 58.5
392(11) 0.00804 333.2 64.0
401(11) 0.00785 333.2 70.8
442(11) 0.00716 333.2 79.2
439(11) 0.00767 333.2 89.4
417(11) 0.00826 333.1 101.9
476(12) 0.00675 333.1 117.0
495(12) 0.00611 333.1 134.9
505(12) 0.00636 333.1 156.1
542(12) 0.00631 333.0 180.5
565(12) 0.00616 333.0 208.4
667(14) 0.00493 333.0 239.4
674(14) 0.00471 333.0 273.0
711(14) 0.00479 333.0 308.1
781(15) 0.00447 332.9 343.1
849(15) 0.00420 332.9 375.4
838(16) 0.00394 332.9 402.0
849(16) 0.00363 332.9 419.7
858(16) 0.00392 332.8 425.8
804(15) 0.00444 332.8 419.6
778(15) 0.00454 332.8 402.3
780(15) 0.00423 332.8 376.7
682(14) 0.00461 332.8 346.0
656(14) 0.00517 332.7 313.2
630(13) 0.00563 332.7 280.7
638(13) 0.00541 332.7 249.9
617(13) 0.00533 332.7 221.9
593(13) 0.00530 332.6 197.0
541(12) 0.00614 332.6 175.5
544(12) 0.00640 332.6 157.3
519(12) 0.00654 332.6 142.2
525(12) 0.00606 332.6 130.0
503(12) 0.00626 332.5 120.2
513(12) 0.00616 332.5 112.5
482(11) 0.00720 332.5 106.5
475(11) 0.00714 332.5 102.0
466(12) 0.00706 332.4 98.6
487(12) 0.00645 332.4 96.0
487(12) 0.00666 332.4 94.1
458(11) 0.00752 332.4 92.7
453(11) 0.00747 332.4 91.6
467(12) 0.00706 332.3 90.7
472(12) 0.00676 332.3 90.0
471(12) 0.00689 332.3 89.2
439(11) 0.00782 332.3 88.5
466(12) 0.00693 332.2 87.7
422(11) 0.00761 332.2 86.7
453(11) 0.00715 332.2 85.7
444(11) 0.00744 332.2 84.5
442(11) 0.00776 332.1 83.2
419(11) 0.00769 332.1 81.7
410(11) 0.00774 332.1 80.2
453(11) 0.00713 332.1 78.5
414(11) 0.00824 332.1 76.8
449(11) 0.00766 332.0 75.0
435(11) 0.00733 332.0 73.2
418(11) 0.00718 332.0 71.4
401(11) 0.00827 332.0 69.6
431(11) 0.00794 331.9 67.7
435(11) 0.00793 331.9 65.8
416(11) 0.00793 331.9 63.9
413(11) 0.00745 331.9 62.1
419(11) 0.00770 331.9 60.2
404(11) 0.00833 331.8 58.3
395(10) 0.00871 331.8 56.4
390(11) 0.00832 331.8 54.6
390(11) 0.00765 331.8 52.7
405(11) 0.00805 331.7 50.9
382(10) 0.00895 331.7 49.0
373(10) 0.00908 331.7 47.2
384(10) 0.00853 331.7 45.4
409(11) 0.00726 331.7 43.7
384(10) 0.00841 331.6 41.9
407(11) 0.00835 331.6 40.2
401(10) 0.00852 331.6 38.6
390(11) 0.00809 331.6 37.0
379(11) 0.00796 331.5 35.4
378(11) 0.00825 331.5 33.9
383(10) 0.00896 331.5 32.5
348(10) 0.00969 331.5 31.1
371(10) 0.00855 331.5 29.8
358(10) 0.00869 331.4 28.5
370(10) 0.00842 331.4 27.2
358(10) 0.00947 331.4 26.1
346(10) 0.00969 331.4 24.9
341(10) 0.00961 331.3 23.9
375(10) 0.00855 331.3 22.8
375(10) 0.00888 331.3 21.9
350(10) 0.00975 331.3 20.9
380(10) 0.00847 331.3 20.0
357(10) 0.00866 331.2 19.2
344(10) 0.00919 331.2 18.4
342(10) 0.00927 331.2 17.6
334(9) 0.01013 331.2 16.9
343(10) 0.00929 331.1 16.2
343(10) 0.00936 331.1 15.6
347(10) 0.00938 331.1 15.0
358(10) 0.00917 331.1 14.4
353(10) 0.00957 331.0 13.8
361(10) 0.00861 331.0 13.3
358(10) 0.00869 331.0 12.8
352(10) 0.00909 331.0 12.3
339(10) 0.00976 331.0 11.9
342(10) 0.00987 330.9 11.5
335(10) 0.00942 330.9 11.1
343(10) 0.00875 330.9 10.7
340(10) 0.00913 330.9 10.4
330(10) 0.00990 330.8 10.0
318(9) 0.01043 330.8 9.7
351(10) 0.00912 330.8 9.4
336(10) 0.00921 330.8 9.1
319(9) 0.01031 330.8 8.9
336(10) 0.00999 330.7 8.6
345(10) 0.00976 330.7 8.4
363(10) 0.00868 330.7 8.1
340(10) 0.00876 330.7 7.9
333(10) 0.00952 330.6 7.7
350(10) 0.00957 330.6 7.5
321(9) 0.01037 330.6 7.3
337(10) 0.00929 330.6 7.2
311(10) 0.00968 330.6 7.0
321(10) 0.00999 330.5 6.8
338(10) 0.00996 330.5 6.7
312(9) 0.01064 330.5 6.5
308(9) 0.01014 330.5 6.5
345(10) 0.00877 330.4 6.4
359(10) 0.00894 330.4 6.3
360(10) 0.00934 330.4 6.2
351(10) 0.00956 330.4 6.0
342(10) 0.00916 330.4 5.9
346(10) 0.00888 330.3 5.8
336(10) 0.00949 330.3 5.7
333(9) 0.01010 330.3 5.6
336(10) 0.00970 330.3 5.5
325(10) 0.00992 330.2 5.4
342(10) 0.00907 330.2 5.3
331(10) 0.00960 330.2 5.2
344(10) 0.00983 330.2 5.2
339(10) 0.00940 330.2 5.1
331(10) 0.00922 330.1 5.0
318(10) 0.00974 330.1 4.9
328(10) 0.00985 330.1 4.8
324(9) 0.01026 330.1 4.8
334(10) 0.00960 330.0 4.7
350(10) 0.00861 330.0 4.6
333(10) 0.00949 330.0 4.6
320(9) 0.01014 330.0 4.5
364(10) 0.00934 329.9 4.4
349(10) 0.00928 329.9 4.4
352(10) 0.00889 329.9 4.3
326(10) 0.00950 329.9 4.3
332(10) 0.00980 329.9 4.2
315(9) 0.01071 329.8 4.2
324(10) 0.00968 329.8 4.1
336(10) 0.00913 329.8 4.1
342(10) 0.00923 329.8 4.0
323(9) 0.01041 329.7 4.0
331(9) 0.01018 329.7 3.9
340(10) 0.00939 329.7 3.9
326(10) 0.00941 329.7 3.8
308(9) 0.01057 329.7 3.8
342(10) 0.00995 329.6 3.8
343(10) 0.00984 329.6 3.7
368(10) 0.00857 329.6 3.7
362(11) 0.00820 329.6 3.7
352(10) 0.00884 329.5 3.6
329(9) 0.01031 329.5 3.6
342(10) 0.00980 329.5 3.6
337(10) 0.00934 329.5 3.5
300(10) 0.00971 329.5 3.5
331(10) 0.00932 329.4 3.5
360(10) 0.00947 329.4 3.5
338(10) 0.00993 329.4 3.4
345(10) 0.00926 329.4 3.4
320(10) 0.00955 329.3 3.4
361(10) 0.00872 329.3 3.3
344(10) 0.00989 329.3 3.3
326(10) 0.01007 329.3 3.3
321(10) 0.00942 329.3 3.3
325(10) 0.00928 329.2 3.3
323(10) 0.00981 329.2 3.2
334(10) 0.01002 329.2 3.2
339(10) 0.00968 329.2 3.2
327(10) 0.00961 329.1 3.2
333(10) 0.00907 329.1 3.2
314(10) 0.00988 329.1 3.1
324(9) 0.01051 329.1 3.1
288(9) 0.01139 329.1 3.1
308(9) 0.01028 329.0 3.1
330(10) 0.00947 329.0 3.1
303(9) 0.01040 329.0 3.1
325(9) 0.01031 329.0 3.1
344(10) 0.00930 328.9 3.0
331(10) 0.00915 328.9 3.0
331(10) 0.00938 328.9 3.0
340(10) 0.00949 328.9 3.0
329(9) 0.01033 328.8 3.0
325(10) 0.00987 328.8 3.0
327(10) 0.00946 328.8 3.0
333(10) 0.00944 328.8 3.0
345(10) 0.00968 328.8 3.0
326(9) 0.01033 328.7 3.0
325(10) 0.00963 328.7 3.0
336(10) 0.00924 328.7 3.0
324(10) 0.00986 328.7 3.0
348(10) 0.00933 328.6 2.9
341(10) 0.00992 328.6 2.9
323(10) 0.01002 328.6 2.9
328(10) 0.00932 328.6 2.9
329(10) 0.00954 328.6 2.9
326(9) 0.01008 328.5 2.9
343(10) 0.00992 328.5 2.9
345(10) 0.00926 328.4 2.9
321(10) 0.00919 328.4 2.9
323(10) 0.00986 328.4 2.9
346(10) 0.00969 328.3 2.9
344(10) 0.00981 328.3 2.9
332(10) 0.00973 328.2 3.0
342(10) 0.00867 328.2 3.0
310(9) 0.01043 328.1 3.0
341(10) 0.00999 328.1 3.0
306(9) 0.01096 328.0 3.0
318(9) 0.01008 328.0 3.0
329(10) 0.00902 328.0 3.0
307(9) 0.01043 327.9 3.0
342(10) 0.01002 327.9 3.0
321(9) 0.01021 327.8 3.0
318(10) 0.01005 327.8 3.0
322(10) 0.00939 327.7 3.0
321(10) 0.00965 327.7 3.1
311(9) 0.01091 327.6 3.1
332(10) 0.00998 327.6 3.1
333(10) 0.00962 327.5 3.1
338(10) 0.00888 327.5 3.1
335(10) 0.00909 327.5 3.1
329(9) 0.01022 327.4 3.2
310(9) 0.01053 327.4 3.2
341(10) 0.00919 327.3 3.2
315(10) 0.00997 327.3 3.2
339(10) 0.00926 327.2 3.2
316(9) 0.01062 327.2 3.3
340(10) 0.00963 327.1 3.3
311(10) 0.01003 327.1 3.3
320(10) 0.00982 327.1 3.3
311(9) 0.01016 327.0 3.4
325(9) 0.01030 327.0 3.4
313(9) 0.01018 326.9 3.4
314(10) 0.00961 326.9 3.5
302(10) 0.00998 326.8 3.5
340(10) 0.00941 326.8 3.5
366(10) 0.00930 326.7 3.6
306(9) 0.01035 326.7 3.7
331(10) 0.00941 326.6 3.7
333(10) 0.00965 326.6 3.8
312(9) 0.01056 326.6 3.8
350(10) 0.00969 326.5 3.9
331(10) 0.00962 326.5 3.9
305(10) 0.01000 326.4 4.0
326(10) 0.00960 326.4 4.0
332(10) 0.01005 326.3 4.1
327(9) 0.01025 326.3 4.2
336(10) 0.00945 326.2 4.2
324(10) 0.00940 326.2 4.3
357(10) 0.00881 326.2 4.4
319(9) 0.01068 326.1 4.4
319(9) 0.01047 326.1 4.5
334(10) 0.00958 326.0 4.6
338(10) 0.00881 326.0 4.7
324(10) 0.00949 325.9 4.8
320(9) 0.01047 325.9 4.9
321(9) 0.01044 325.8 5.0
321(10) 0.00993 325.8 5.1
311(10) 0.00935 325.7 5.2
300(9) 0.01056 325.7 5.3
341(10) 0.00988 325.7 5.4
337(10) 0.00999 325.6 5.6
305(9) 0.01073 325.6 5.7
358(10) 0.00848 325.5 5.8
326(10) 0.00986 325.5 6.0
320(9) 0.01042 325.4 6.2
323(9) 0.01025 325.4 6.3
361(10) 0.00880 325.3 6.5
342(10) 0.00899 325.3 6.7
342(10) 0.00920 325.3 6.9
306(9) 0.01090 325.2 7.2
339(10) 0.00984 325.2 7.4
333(10) 0.00969 325.1 7.7
338(10) 0.00955 325.1 8.0
359(10) 0.00901 325.0 8.3
311(9) 0.01081 325.0 8.6
362(10) 0.00897 324.9 9.0
338(10) 0.00903 324.9 9.4
322(10) 0.00942 324.8 9.9
344(10) 0.00932 324.8 10.4
334(9) 0.01012 324.8 10.9
324(10) 0.00991 324.7 11.5
346(10) 0.00912 324.7 12.1
342(10) 0.00944 324.6 12.8
316(9) 0.01031 324.6 13.5
336(10) 0.00998 324.5 14.4
329(10) 0.00932 324.5 15.3
334(10) 0.00899 324.4 16.2
344(10) 0.00920 324.4 17.3
359(10) 0.00899 324.4 18.4
345(10) 0.00974 324.3 19.7
356(10) 0.00909 324.3 21.0
346(10) 0.00919 324.2 22.4
343(10) 0.00925 324.2 24.0
381(10) 0.00872 324.1 25.6
377(10) 0.00908 324.1 27.4
371(11) 0.00831 324.0 29.3
315(10) 0.00950 324.0 31.2
340(10) 0.00905 323.9 33.3
341(10) 0.00988 323.9 35.5
349(10) 0.00964 323.9 37.8
360(10) 0.00893 323.8 40.2
373(11) 0.00792 323.8 42.7
357(10) 0.00900 323.7 45.2
375(10) 0.00898 323.7 47.8
391(10) 0.00871 323.6 50.4
376(10) 0.00857 323.6 53.0
391(11) 0.00798 323.5 55.6
415(11) 0.00774 323.5 58.1
389(10) 0.00878 323.4 60.6
368(10) 0.00909 323.4 62.9
372(10) 0.00897 323.4 65.0
388(11) 0.00814 323.3 67.1
394(10) 0.00841 323.3 69.3
421(11) 0.00823 323.2 71.9
399(10) 0.00843 323.2 75.4
408(11) 0.00799 323.1 80.7
428(11) 0.00736 323.1 88.6
438(11) 0.00726 323.0 99.5
439(11) 0.00788 323.0 113.1
466(11) 0.00717 323.0 127.2
487(12) 0.00661 322.9 138.4
492(12) 0.00652 322.9 141.9
465(11) 0.00724 322.8 135.1
471(11) 0.00735 322.8 120.0
419(11) 0.00810 322.7 101.9
412(11) 0.00771 322.7 84.6
404(11) 0.00783 322.6 70.0
388(11) 0.00823 322.6 59.0
370(10) 0.00912 322.5 51.0
364(10) 0.00892 322.5 45.3
355(10) 0.00904 322.5 41.1
369(10) 0.00873 322.4 37.8
356(10) 0.00907 322.4 35.1
353(10) 0.00952 322.3 32.6
377(10) 0.00846 322.3 30.4
379(10) 0.00840 322.2 28.3
342(10) 0.00924 322.2 26.4
339(10) 0.00974 322.1 24.7
325(9) 0.01026 322.1 23.1
333(10) 0.00966 322.1 21.6
331(10) 0.00922 322.0 20.2
324(10) 0.00995 322.0 18.9
338(10) 0.00989 321.9 17.8
335(10) 0.00981 321.9 16.7
324(10) 0.00962 321.8 15.7
311(10) 0.00964 321.8 14.8
316(9) 0.01026 321.7 14.0
335(10) 0.00977 321.7 13.3
340(10) 0.00992 321.6 12.6
319(10) 0.01007 321.6 12.0
334(10) 0.00873 321.6 11.4
336(10) 0.00955 321.5 10.9
299(9) 0.01115 321.5 10.5
321(9) 0.01038 321.4 10.1
313(9) 0.01033 321.4 9.7
313(10) 0.00914 321.3 9.3
313(10) 0.00986 321.3 9.0
321(9) 0.01042 321.2 8.7
339(10) 0.00975 321.2 8.5
343(10) 0.00929 321.2 8.2
337(10) 0.00890 321.1 8.0
328(10) 0.00966 321.1 7.8
343(10) 0.00976 321.0 7.6
316(9) 0.01059 321.0 7.5
332(10) 0.00936 320.9 7.3
326(10) 0.00929 320.9 7.2
309(10) 0.01007 320.8 7.0
335(9) 0.01008 320.8 6.9
330(9) 0.01008 320.7 6.8
316(9) 0.01014 320.7 6.7
335(10) 0.00925 320.7 6.6
341(10) 0.00896 320.6 6.6
317(9) 0.01058 320.6 6.5
323(10) 0.01003 320.5 6.4
331(10) 0.00937 320.5 6.4
314(10) 0.00973 320.4 6.3
329(10) 0.00941 320.4 6.3
327(9) 0.01028 320.3 6.3
342(10) 0.00944 320.3 6.2
342(10) 0.00921 320.3 6.2
329(10) 0.00951 320.2 6.2
328(10) 0.00998 320.2 6.2
307(9) 0.01073 320.1 6.2
330(10) 0.00928 320.1 6.2
342(10) 0.00912 320.0 6.2
331(10) 0.00952 320.0 6.2
334(10) 0.00976 319.9 6.2
335(10) 0.00994 319.9 6.3
321(10) 0.00984 319.8 6.3
344(10) 0.00880 319.8 6.3
330(10) 0.00943 319.8 6.4
324(10) 0.00999 319.7 6.4
315(9) 0.01058 319.7 6.5
320(10) 0.00992 319.6 6.5
313(10) 0.00981 319.6 6.6
317(10) 0.00977 319.6 6.7
321(10) 0.00996 319.6 6.8
333(9) 0.01011 319.6 6.8
316(9) 0.01011 319.6 6.9
324(10) 0.00907 319.6 7.0
338(10) 0.00924 319.6 7.1
305(9) 0.01091 319.6 7.3
320(9) 0.01034 319.6 7.4
345(10) 0.00886 319.6 7.5
328(10) 0.00899 319.6 7.6
339(10) 0.00957 319.6 7.8
348(10) 0.00968 319.6 7.9
302(9) 0.01107 319.6 8.1
326(10) 0.00962 319.6 8.2
333(10) 0.00884 319.6 8.4
312(10) 0.00981 319.6 8.6
318(9) 0.01069 319.6 8.7
325(10) 0.01007 319.6 8.9
335(10) 0.00944 319.6 9.1
321(10) 0.00937 319.6 9.3
311(9) 0.01028 319.6 9.6
330(9) 0.01016 319.6 9.8
343(10) 0.00967 319.6 10.0
347(10) 0.00896 319.6 10.3
324(10) 0.00945 319.6 10.5
322(10) 0.00968 319.6 10.8
341(10) 0.00990 319.6 11.1
317(9) 0.01019 319.6 11.4
313(9) 0.01009 319.6 11.8
317(10) 0.00976 319.6 12.1
304(9) 0.01045 319.6 12.5
309(9) 0.01082 319.6 13.0
320(9) 0.01036 319.6 13.4
335(10) 0.00937 319.6 13.9
324(10) 0.00951 319.6 14.5
341(10) 0.00950 319.6 15.1
305(9) 0.01087 319.6 15.7
338(10) 0.00946 319.6 16.5
334(10) 0.00928 319.6 17.3
320(9) 0.01012 319.6 18.2
339(10) 0.00959 319.6 19.2
333(9) 0.01011 319.6 20.3
350(10) 0.00884 319.6 21.4
325(10) 0.00951 319.6 22.7
331(10) 0.00963 319.6 24.1
341(10) 0.00970 319.6 25.6
316(9) 0.01050 319.6 27.2
335(10) 0.00951 319.6 28.8
383(11) 0.00796 319.6 30.5
361(10) 0.00874 319.6 32.2
348(10) 0.00924 319.6 33.8
363(10) 0.00932 319.6 35.4
341(10) 0.00934 319.6 36.8
339(10) 0.00877 319.6 38.0
358(10) 0.00894 319.6 38.9
377(10) 0.00895 319.6 39.6
365(10) 0.00938 319.6 39.9
346(10) 0.00890 319.6 40.0
336(10) 0.00879 319.6 39.9
344(10) 0.00923 319.6 39.7
332(9) 0.01011 319.6 39.4
342(10) 0.00995 319.6 39.1
361(10) 0.00892 319.6 39.0
365(11) 0.00809 319.6 39.1
378(11) 0.00822 319.6 39.4
347(10) 0.00976 319.6 40.0
368(10) 0.00918 319.6 40.9
360(10) 0.00908 319.6 42.2
372(11) 0.00820 319.6 44.0
365(10) 0.00858 319.6 46.2
391(10) 0.00871 319.6 48.9
361(10) 0.00939 319.6 52.1
373(10) 0.00856 319.6 56.0
396(11) 0.00758 319.6 60.3
379(10) 0.00862 319.6 65.3
402(10) 0.00848 319.6 70.9
402(10) 0.00840 319.6 77.0
400(11) 0.00816 319.6 83.8
402(11) 0.00797 319.6 91.1
447(11) 0.00714 319.6 98.9
442(11) 0.00788 319.6 107.0
457(11) 0.00720 319.6 115.4
480(12) 0.00657 319.6 123.8
472(12) 0.00687 319.6 132.1
481(12) 0.00693 319.6 139.9
541(12) 0.00651 319.6 147.2
478(12) 0.00694 319.6 153.5
513(12) 0.00619 319.6 158.6
493(12) 0.00659 319.6 162.3
478(12) 0.00695 319.6 164.3
483(11) 0.00720 319.6 164.5
507(12) 0.00664 319.6 162.9
526(12) 0.00614 319.6 159.5
464(12) 0.00706 319.6 154.6
459(11) 0.00737 319.6 148.3
466(11) 0.00745 319.6 140.9
448(12) 0.00701 319.6 132.9
439(11) 0.00709 319.6 124.5
431(11) 0.00734 319.6 115.9
438(11) 0.00766 319.6 107.4
415(11) 0.00831 319.6 99.0
437(11) 0.00734 319.6 91.0
431(11) 0.00708 319.6 83.3
408(11) 0.00768 319.6 76.2
398(10) 0.00854 319.6 69.5
402(10) 0.00842 319.6 63.3
403(11) 0.00817 319.6 57.6
393(11) 0.00776 319.6 52.5
385(10) 0.00855 319.6 47.8
370(10) 0.00912 319.6 43.5
357(10) 0.00948 319.6 39.7
362(10) 0.00879 319.6 36.3
354(10) 0.00862 319.6 33.3
361(10) 0.00887 319.6 30.6
348(10) 0.00970 319.6 28.2
357(10) 0.00926 319.6 26.1
341(10) 0.00941 319.6 24.2
346(10) 0.00881 319.6 22.6
343(10) 0.00902 319.6 21.1
343(10) 0.00987 319.6 19.8
347(10) 0.00972 319.6 18.6
347(10) 0.00921 319.6 17.6
317(10) 0.00962 319.6 16.7
318(10) 0.00977 319.6 15.9
330(9) 0.01023 319.6 15.1
331(10) 0.01006 319.6 14.4
306(9) 0.01027 319.6 13.8
363(10) 0.00849 319.6 13.2
323(10) 0.00990 319.6 12.6
344(10) 0.00986 319.6 12.2
319(9) 0.01023 319.6 11.7
322(10) 0.01000 319.6 11.3
335(10) 0.00911 319.6 10.9
330(10) 0.00956 319.6 10.5
329(9) 0.01021 319.6 10.2
330(10) 0.00965 319.6 9.8
331(10) 0.00922 319.6 9.5
304(9) 0.01012 319.6 9.2
333(10) 0.00939 319.6 9.0
337(10) 0.01007 319.6 8.7
300(9) 0.01048 319.6 8.5
349(10) 0.00852 319.6 8.3
333(10) 0.00964 319.6 8.1
333(10) 0.00959 319.6 7.9
324(9) 0.01041 319.6 7.7
321(10) 0.00976 319.6 7.5
309(10) 0.00957 319.6 7.4
326(10) 0.00942 319.6 7.2
323(9) 0.01022 319.6 7.1
331(9) 0.01025 319.6 6.9
321(10) 0.00974 319.6 6.8
325(10) 0.00939 319.6 6.7
324(10) 0.00984 319.6 6.6
349(10) 0.00957 319.6 6.4
326(9) 0.01037 319.6 6.3
302(9) 0.01063 319.6 6.2
333(10) 0.00890 319.6 6.1
310(9) 0.01023 319.6 6.1
313(9) 0.01054 319.6 6.0
318(9) 0.01066 319.6 5.9
314(10) 0.00975 319.6 5.8
337(10) 0.00878 319.6 5.8
325(10) 0.00973 319.6 5.7
304(9) 0.01087 319.6 5.6
304(9) 0.01092 319.6 5.6
338(10) 0.00915 319.6 5.5
337(10) 0.00871 319.6 5.5
342(10) 0.00921 319.6 5.4
314(9) 0.01058 319.6 5.4
317(9) 0.01054 319.6 5.3
334(10) 0.00965 319.6 5.3
323(10) 0.00968 319.6 5.3
316(9) 0.01022 319.6 5.2
333(9) 0.01016 319.6 5.2
343(10) 0.00953 319.6 5.2
311(10) 0.01004 319.6 5.1
316(10) 0.00978 319.6 5.1
304(9) 0.01038 319.6 5.1
329(9) 0.01031 319.6 5.1
325(9) 0.01021 319.6 5.1
311(9) 0.01043 319.6 5.0
328(10) 0.00965 319.6 5.0
311(9) 0.01023 319.5 5.0
348(10) 0.00969 319.5 5.0
334(10) 0.00973 319.5 5.0
328(10) 0.00951 319.5 5.0
317(10) 0.00974 319.5 5.0
338(10) 0.00947 319.5 5.0
297(9) 0.01108 319.5 5.1
317(10) 0.01007 319.5 5.1
353(10) 0.00877 319.5 5.1
367(10) 0.00842 319.5 5.1
333(10) 0.00987 319.5 5.1
311(9) 0.01068 319.5 5.2
307(9) 0.01033 319.5 5.2
323(10) 0.00937 319.5 5.2
319(10) 0.00957 319.5 5.3
326(10) 0.00989 319.4 5.3
299(9) 0.01120 319.4 5.4
311(9) 0.01013 319.4 5.5
323(10) 0.00937 319.4 5.5
313(9) 0.01022 319.4 5.6
327(9) 0.01016 319.4 5.7
305(9) 0.01094 319.4 5.7
327(10) 0.00972 319.4 5.8
319(10) 0.00921 319.4 5.9
313(9) 0.01027 319.4 6.0
352(10) 0.00949 319.4 6.1
324(9) 0.01028 319.4 6.2
331(10) 0.00964 319.4 6.4
329(10) 0.00904 319.4 6.5
333(10) 0.00932 319.3 6.7
344(10) 0.00968 319.3 6.8
316(9) 0.01060 319.3 7.0
287(9) 0.01083 319.3 7.2
306(10) 0.00987 319.3 7.4
320(10) 0.00995 319.3 7.6
322(9) 0.01039 319.3 7.9
340(10) 0.00995 319.3 8.2
336(10) 0.00975 319.3 8.5
327(10) 0.00951 319.3 8.8
349(10) 0.00918 319.3 9.2
337(9) 0.01011 319.3 9.6
311(9) 0.01063 319.3 10.1
309(9) 0.01013 319.3 10.6
342(10) 0.00891 319.3 11.2
332(10) 0.00952 319.2 11.8
291(9) 0.01147 319.2 12.6
283(9) 0.01133 319.2 13.5
324(10) 0.00970 319.2 14.5
344(10) 0.00871 319.2 15.7
331(10) 0.00950 319.2 17.1
342(10) 0.00998 319.2 18.9
364(10) 0.00868 319.2 21.2
338(10) 0.00932 319.2 24.1
328(10) 0.00973 319.2 27.9
349(10) 0.00925 319.2 33.0
365(10) 0.00936 319.2 39.7
364(10) 0.00873 319.2 48.4
375(10) 0.00839 319.2 59.5
392(11) 0.00797 319.1 73.3
428(11) 0.00773 319.1 89.8
420(11) 0.00821 319.1 108.7
479(12) 0.00669 319.1 129.1
450(12) 0.00704 319.1 149.7
524(13) 0.00601 319.1 168.5
544(12) 0.00637 319.1 183.0
542(12) 0.00642 319.1 190.8
551(13) 0.00592 319.1 190.1
488(12) 0.00660 319.1 180.6
503(12) 0.00621 319.1 164.3
435(11) 0.00777 319.1 144.4
444(11) 0.00775 319.1 123.6
461(12) 0.00699 319.1 104.1
435(12) 0.00696 319.1 87.0
378(10) 0.00872 319.0 73.0
389(10) 0.00860 319.0 62.1
376(10) 0.00902 319.0 54.4
386(10) 0.00850 319.0 49.8
398(11) 0.00736 319.0 47.9
382(10) 0.00844 319.0 48.7
381(10) 0.00888 319.0 51.7
380(10) 0.00877 319.0 56.6
373(10) 0.00870 319.0 62.7
391(11) 0.00763 319.0 69.1
402(11) 0.00786 319.0 74.3
373(10) 0.00926 319.0 76.8
394(10) 0.00854 319.0 75.3
383(10) 0.00861 319.0 70.4
381(11) 0.00836 318.9 63.1
402(11) 0.00796 318.9 55.1
364(10) 0.00938 318.9 47.5
357(10) 0.00922 318.9 40.8
357(10) 0.00901 318.9 35.4
347(10) 0.00911 318.9 31.2
346(10) 0.00932 318.9 28.2
342(10) 0.00980 318.9 26.1
356(10) 0.00898 318.9 24.8
331(10) 0.00972 318.9 24.1
333(10) 0.00924 318.9 23.9
363(10) 0.00858 318.9 24.0
373(10) 0.00913 318.9 24.5
350(10) 0.00946 318.9 25.3
368(10) 0.00845 318.9 26.4
380(11) 0.00805 318.8 28.0
350(10) 0.00905 318.8 30.3
317(9) 0.01069 318.8 33.3
350(10) 0.00921 318.8 37.4
360(10) 0.00884 318.8 42.7
387(11) 0.00824 318.8 49.7
403(11) 0.00826 318.8 58.7
416(11) 0.00826 318.8 69.8
395(11) 0.00812 318.8 83.1
394(11) 0.00804 318.8 98.5
442(11) 0.00741 318.8 115.6
445(11) 0.00764 318.8 133.4
470(11) 0.00732 318.8 150.2
510(12) 0.00634 318.8 163.8
516(12) 0.00623 318.8 171.6
492(12) 0.00694 318.7 171.7
523(12) 0.00653 318.7 164.2
486(11) 0.00714 318.7 150.9
423(11) 0.00781 318.7 134.3
430(12) 0.00702 318.7 116.9
402(11) 0.00812 318.7 100.2
378(10) 0.00892 318.7 85.1
365(10) 0.00940 318.7 72.1
381(11) 0.00822 318.7 61.4
355(10) 0.00839 318.7 52.8
354(10) 0.00918 318.7 46.0
361(10) 0.00948 318.7 40.9
361(10) 0.00944 318.7 37.1
362(10) 0.00888 318.7 34.2
354(10) 0.00859 318.6 32.1
335(10) 0.00943 318.6 30.6
343(10) 0.00989 318.6 29.4
338(9) 0.01013 318.6 28.6
350(10) 0.00944 318.6 27.9
346(10) 0.00883 318.6 27.4
331(10) 0.00963 318.6 27.0
372(10) 0.00917 318.6 26.7
324(9) 0.01036 318.6 26.5
314(10) 0.00987 318.6 26.4
292(9) 0.01056 318.6 26.3
356(11) 0.00836 318.6 26.3
349(10) 0.00973 318.6 26.3
324(9) 0.01015 318.6 26.4
337(10) 0.00956 318.6 26.6
347(10) 0.00898 318.5 26.8
345(10) 0.00916 318.5 27.0
321(9) 0.01032 318.5 27.2
349(10) 0.00943 318.5 27.5
376(10) 0.00840 318.5 27.8
362(10) 0.00900 318.5 28.1
343(10) 0.00935 318.5 28.5
325(9) 0.01036 318.5 28.9
323(10) 0.00991 318.5 29.4
337(10) 0.00937 318.5 29.8
339(10) 0.00934 318.5 30.4
348(10) 0.00934 318.5 30.9
328(9) 0.01022 318.5 31.6
363(10) 0.00883 318.5 32.2
360(10) 0.00865 318.4 32.9
355(10) 0.00890 318.4 33.6
351(10) 0.00939 318.4 34.4
366(10) 0.00930 318.4 35.2
345(10) 0.00927 318.4 36.0
357(10) 0.00853 318.4 36.9
338(10) 0.00963 318.4 37.8
358(10) 0.00903 318.4 38.8
386(10) 0.00893 318.4 39.7
368(10) 0.00851 318.4 40.7
374(11) 0.00802 318.4 41.7
366(10) 0.00874 318.4 42.7
335(10) 0.01000 318.4 43.8
377(10) 0.00897 318.4 44.8
357(10) 0.00890 318.4 45.9
358(10) 0.00853 318.3 46.9
392(11) 0.00801 318.3 48.0
371(10) 0.00926 318.3 49.0
371(10) 0.00901 318.3 50.2
388(11) 0.00820 318.3 51.4
378(11) 0.00785 318.3 52.8
368(10) 0.00865 318.3 54.6
386(10) 0.00890 318.3 57.2
409(11) 0.00829 318.3 60.8
393(11) 0.00805 318.3 66.0
372(11) 0.00823 318.3 73.1
400(11) 0.00785 318.3 82.1
390(10) 0.00881 318.3 92.5
449(11) 0.00763 318.3 103.4
463(11) 0.00711 318.2 112.4
473(12) 0.00657 318.2 116.9
455(11) 0.00733 318.2 114.9
474(11) 0.00735 318.2 107.2
411(11) 0.00828 318.2 96.3
386(10) 0.00840 318.2 84.9
366(10) 0.00848 318.2 74.6
382(11) 0.00829 318.2 66.3
366(10) 0.00928 318.2 60.1
393(10) 0.00850 318.2 56.1
380(10) 0.00852 318.2 53.7
377(10) 0.00839 318.2 52.7
371(10) 0.00863 318.2 52.6
365(10) 0.00944 318.2 53.4
383(10) 0.00840 318.2 54.9
384(11) 0.00821 318.1 57.1
399(11) 0.00780 318.1 59.7
366(10) 0.00882 318.1 62.9
425(11) 0.00808 318.1 66.4
406(11) 0.00800 318.1 70.1
458(12) 0.00677 318.1 73.7
403(11) 0.00816 318.1 77.0
413(11) 0.00812 318.1 79.3
455(11) 0.00759 318.1 80.4
433(11) 0.00748 318.1 79.9
427(11) 0.00736 318.1 77.9
398(11) 0.00792 318.1 74.5
403(11) 0.00805 318.1 70.1
393(10) 0.00865 318.1 65.2
400(11) 0.00798 318.0 60.1
357(10) 0.00882 318.0 55.1
364(10) 0.00885 318.0 50.5
379(10) 0.00890 318.0 46.3
367(10) 0.00929 318.0 42.5
370(10) 0.00860 318.0 39.3
364(11) 0.00829 318.0 36.5
355(10) 0.00907 318.0 34.2
374(10) 0.00904 318.0 32.3
348(10) 0.00966 318.0 30.8
352(10) 0.00890 318.0 29.6
331(10) 0.00913 318.0 28.7
338(10) 0.00953 318.0 28.0
336(10) 0.00992 318.0 27.5
340(10) 0.00996 318.0 27.2
337(10) 0.00946 317.9 27.1
339(10) 0.00890 317.9 27.0
338(10) 0.00970 317.9 27.1
355(10) 0.00972 317.9 27.2
339(10) 0.00974 317.9 27.4
344(10) 0.00904 317.9 27.8
341(10) 0.00874 317.9 28.2
350(10) 0.00923 317.9 28.6
320(9) 0.01051 317.9 29.2
356(10) 0.00939 317.9 29.8
354(10) 0.00897 317.9 30.6
332(10) 0.00934 317.9 31.3
340(10) 0.00953 317.9 32.2
351(10) 0.00960 317.9 33.2
321(9) 0.01033 317.8 34.2
334(10) 0.00950 317.8 35.3
364(10) 0.00846 317.8 36.5
366(10) 0.00880 317.8 37.8
365(10) 0.00916 317.8 39.2
355(10) 0.00917 317.8 40.7
330(10) 0.00973 317.8 42.2
346(10) 0.00926 317.8 43.9
371(10) 0.00902 317.8 45.6
345(10) 0.00984 317.8 47.5
358(10) 0.00889 317.8 49.5
380(11) 0.00818 317.8 51.6
346(10) 0.00955 317.8 53.7
363(10) 0.00891 317.8 56.0
355(10) 0.00964 317.8 58.4
358(10) 0.00875 317.7 61.0
386(11) 0.00793 317.7 63.7
374(10) 0.00854 317.7 66.4
369(10) 0.00907 317.7 69.4
388(10) 0.00885 317.7 72.4
381(10) 0.00846 317.7 75.6
397(11) 0.00754 317.7 78.9
377(10) 0.00874 317.7 82.4
404(11) 0.00834 317.7 86.0
407(10) 0.00839 317.7 89.8
391(11) 0.00807 317.7 93.6
365(11) 0.00836 317.7 97.7
369(10) 0.00885 317.7 101.8
380(10) 0.00882 317.7 106.1
412(11) 0.00834 317.7 110.6
408(11) 0.00767 317.6 115.1
409(11) 0.00723 317.6 119.8
406(11) 0.00782 317.6 124.7
432(11) 0.00786 317.6 129.6
406(11) 0.00838 317.6 134.6
408(11) 0.00794 317.6 139.7
434(12) 0.00689 317.6 144.7
429(11) 0.00753 317.6 149.6
448(11) 0.00769 317.6 154.2
453(11) 0.00765 317.6 158.4
465(12) 0.00689 317.6 162.0
451(12) 0.00677 317.6 164.8
478(12) 0.00683 317.6 166.6
501(12) 0.00696 317.6 167.2
468(11) 0.00727 317.5 166.4
445(11) 0.00719 317.5 164.4
457(12) 0.00684 317.5 161.0
441(11) 0.00724 317.5 156.5
442(11) 0.00775 317.5 151.0
437(11) 0.00764 317.5 144.7
409(11) 0.00785 317.5 138.0
433(11) 0.00716 317.5 130.9
436(11) 0.00737 317.5 123.7
404(10) 0.00851 317.5 116.6
405(11) 0.00801 317.5 109.7
396(11) 0.00792 317.5 103.2
358(10) 0.00889 317.5 96.9
387(11) 0.00837 317.5 91.2
370(10) 0.00918 317.5 85.8
377(10) 0.00870 317.4 81.0
386(11) 0.00799 317.4 76.6
374(10) 0.00868 317.4 72.7
385(10) 0.00856 317.4 69.2
382(10) 0.00898 317.4 66.2
345(10) 0.00940 317.4 63.5
374(11) 0.00821 317.4 61.2
368(10) 0.00848 317.4 59.1
355(10) 0.00956 317.4 57.1
376(10) 0.00909 317.4 55.3
356(10) 0.00879 317.4 53.6
352(10) 0.00853 317.4 51.9
369(10) 0.00874 317.4 50.2
359(10) 0.00922 317.4 48.4
352(10) 0.00971 317.3 46.7
388(11) 0.00825 317.3 45.0
340(10) 0.00885 317.3 43.4
360(10) 0.00864 317.3 41.8
337(10) 0.00992 317.3 40.4
363(10) 0.00939 317.3 39.0
367(10) 0.00879 317.3 37.7
355(10) 0.00850 317.3 36.5
363(10) 0.00872 317.3 35.5
364(10) 0.00922 317.3 34.5
353(10) 0.00962 317.3 33.7
341(10) 0.00927 317.3 32.9
350(10) 0.00869 317.3 32.2
358(10) 0.00891 317.3 31.6
340(10) 0.00997 317.3 31.0
358(10) 0.00936 317.2 30.5
348(10) 0.00913 317.2 30.0
360(11) 0.00827 317.2 29.6
367(10) 0.00848 317.2 29.2
342(10) 0.00993 317.2 28.8
355(10) 0.00945 317.2 28.5
358(10) 0.00896 317.2 28.2
356(10) 0.00859 317.2 27.9
337(10) 0.00968 317.2 27.7
339(10) 0.00997 317.2 27.4
355(10) 0.00930 317.2 27.2
344(10) 0.00904 317.2 27.0
346(10) 0.00873 317.2 26.8
361(10) 0.00866 317.2 26.6
358(10) 0.00941 317.1 26.5
337(10) 0.00956 317.1 26.4
341(10) 0.00920 317.1 26.3
349(10) 0.00892 317.1 26.2
339(10) 0.00955 317.1 26.2
343(10) 0.00987 317.1 26.2
341(10) 0.00965 317.1 26.3
361(10) 0.00871 317.1 26.4
364(10) 0.00885 317.1 26.6
401(11) 0.00832 317.1 27.0
367(10) 0.00918 317.1 27.5
363(10) 0.00883 317.1 28.1
369(11) 0.00822 317.1 28.9
349(10) 0.00911 317.1 30.1
356(10) 0.00925 317.1 31.5
365(10) 0.00924 317.0 33.3
366(10) 0.00867 317.0 35.7
378(11) 0.00813 317.0 38.5
402(11) 0.00799 317.0 42.1
375(10) 0.00901 317.0 46.3
369(10) 0.00929 317.0 51.4
387(11) 0.00816 317.0 57.3
418(11) 0.00731 317.0 64.1
403(11) 0.00802 317.0 71.6
410(11) 0.00831 317.0 79.9
439(11) 0.00777 317.0 88.6
450(11) 0.00730 317.0 97.4
442(12) 0.00694 317.0 105.8
458(12) 0.00708 317.0 113.0
474(11) 0.00725 316.9 118.4
467(11) 0.00747 316.9 121.1
450(11) 0.00714 316.9 120.7
492(12) 0.00612 316.9 117.3
468(12) 0.00700 316.9 111.3
450(11) 0.00774 316.9 103.4
448(11) 0.00764 316.9 94.5
448(11) 0.00724 316.9 85.2
414(11) 0.00729 316.9 76.1
385(11) 0.00817 316.9 67.4
376(10) 0.00902 316.9 59.4
384(10) 0.00861 316.9 52.3
380(11) 0.00838 316.9 46.0
374(11) 0.00824 316.9 40.5
358(10) 0.00923 316.9 35.8
359(10) 0.00949 316.8 31.8
349(10) 0.00963 316.8 28.5
321(10) 0.00988 316.8 25.8
344(10) 0.00850 316.8 23.5
328(10) 0.00954 316.8 21.6
310(9) 0.01080 316.8 20.0
340(10) 0.00963 316.8 18.7
337(10) 0.00948 316.8 17.6
342(10) 0.00889 316.8 16.7
351(10) 0.00902 316.8 15.8
336(10) 0.00991 316.8 15.1
305(9) 0.01087 316.8 14.5
309(10) 0.00999 316.8 14.0
331(10) 0.00930 316.8 13.5
338(10) 0.00923 316.7 13.1
348(10) 0.00976 316.7 12.7
343(10) 0.00938 316.7 12.4
346(10) 0.00883 316.7 12.0
309(9) 0.01026 316.7 11.8
306(9) 0.01076 316.7 11.5
325(9) 0.01029 316.7 11.3
325(10) 0.00970 316.7 11.1
314(10) 0.00969 316.7 10.9
327(10) 0.00970 316.7 10.8
323(9) 0.01020 316.7 10.7
313(9) 0.01069 316.7 10.6
331(10) 0.00961 316.7 10.5
321(10) 0.00951 316.7 10.4
311(10) 0.00999 316.7 10.4
312(9) 0.01082 316.6 10.4
310(9) 0.01067 316.6 10.4
337(10) 0.00961 316.6 10.5
327(10) 0.00922 316.6 10.5
309(10) 0.00990 316.6 10.6
316(9) 0.01044 316.6 10.7
343(10) 0.00993 316.6 10.8
325(9) 0.01020 316.6 11.0
334(10) 0.00904 316.6 11.2
337(10) 0.00959 316.6 11.4
335(10) 0.01000 316.6 11.6
345(10) 0.00963 316.6 11.8
365(10) 0.00898 316.6 12.0
342(10) 0.00876 316.6 12.3
346(10) 0.00925 316.6 12.5
326(9) 0.01030 316.5 12.7
324(9) 0.01025 316.5 12.8
338(10) 0.00918 316.5 13.0
331(10) 0.00885 316.5 13.0
332(10) 0.00964 316.5 13.1
337(10) 0.01001 316.5 13.0
328(9) 0.01014 316.5 13.0
341(10) 0.00918 316.5 12.9
355(10) 0.00853 316.5 12.8
340(10) 0.00950 316.5 12.7
324(9) 0.01037 316.5 12.6
352(10) 0.00914 316.5 12.5
335(10) 0.00937 316.5 12.5
326(10) 0.00965 316.5 12.4
330(10) 0.00923 316.4 12.4
328(9) 0.01028 316.4 12.4
326(10) 0.00996 316.4 12.4
343(10) 0.00918 316.4 12.5
348(10) 0.00890 316.4 12.6
321(10) 0.00998 316.4 12.7
321(9) 0.01047 316.4 12.8
318(9) 0.01012 316.4 13.0
303(9) 0.01046 316.4 13.3
323(10) 0.00971 316.4 13.5
306(9) 0.01051 316.4 13.8
336(10) 0.01001 316.4 14.2
309(9) 0.01015 316.4 14.6
331(10) 0.00940 316.4 15.0
305(10) 0.00987 316.4 15.5
285(9) 0.01137 316.3 16.0
316(9) 0.01051 316.3 16.6
308(10) 0.00997 316.3 17.3
340(10) 0.00902 316.3 18.0
314(9) 0.01029 316.3 18.8
337(10) 0.00975 316.3 19.7
323(9) 0.01032 316.3 20.7
307(9) 0.01039 316.3 21.7
330(10) 0.00921 316.3 22.9
314(9) 0.01032 316.3 24.2
338(10) 0.00990 316.3 25.6
338(10) 0.00995 316.3 27.1
341(10) 0.00934 316.3 28.8
332(10) 0.00912 316.3 30.7
318(10) 0.00981 316.2 32.6
330(10) 0.01005 316.2 34.8
303(9) 0.01097 316.2 37.1
344(10) 0.00932 316.2 39.6
333(10) 0.00912 316.2 42.3
340(10) 0.00949 316.2 45.1
336(10) 0.00999 316.2 48.2
338(10) 0.00970 316.2 51.4
365(10) 0.00862 316.2 54.8
347(10) 0.00861 316.2 58.4
372(10) 0.00848 316.2 62.1
366(10) 0.00914 316.2 66.0
385(10) 0.00859 316.2 70.0
387(11) 0.00807 316.2 74.1
373(11) 0.00817 316.2 78.2
373(10) 0.00857 316.1 82.4
412(11) 0.00829 316.1 86.5
421(11) 0.00796 316.1 90.6
396(11) 0.00807 316.1 94.4
428(12) 0.00702 316.1 98.0
400(11) 0.00774 316.1 101.3
400(10) 0.00861 316.1 104.1
397(10) 0.00856 316.1 106.5
439(11) 0.00726 316.1 108.2
394(11) 0.00819 316.1 109.3
409(11) 0.00776 316.1 109.7
368(10) 0.00919 316.1 109.5
392(11) 0.00829 316.1 108.5
401(11) 0.00810 316.1 106.9
386(10) 0.00841 316.0 104.7
362(10) 0.00911 316.0 102.0
386(10) 0.00891 316.0 98.9
398(11) 0.00832 316.0 95.4
407(11) 0.00784 316.0 91.6
378(10) 0.00842 316.0 87.6
370(10) 0.00901 316.0 83.5
371(10) 0.00912 316.0 79.4
355(10) 0.00901 316.0 75.3
364(10) 0.00845 316.0 71.2
366(10) 0.00856 316.0 67.3
382(10) 0.00875 316.0 63.4
354(10) 0.00946 316.0 59.7
376(11) 0.00835 316.0 56.2
347(10) 0.00849 316.0 52.8
349(10) 0.00938 315.9 49.6
376(10) 0.00896 315.9 46.6
342(10) 0.00997 315.9 43.7
347(10) 0.00906 315.9 41.1
329(10) 0.00911 315.9 38.6
353(10) 0.00892 315.9 36.3
377(10) 0.00893 315.9 34.2
355(10) 0.00950 315.9 32.3
348(10) 0.00897 315.9 30.5
327(10) 0.00899 315.9 28.8
334(10) 0.00945 315.9 27.3
314(9) 0.01072 315.9 26.0
341(10) 0.00982 315.9 24.7
321(9) 0.01031 315.9 23.6
322(10) 0.00910 315.8 22.6
327(10) 0.00950 315.8 21.7
322(9) 0.01057 315.8 20.8
331(10) 0.00997 315.8 20.1
323(10) 0.00952 315.8 19.4
314(10) 0.00956 315.8 18.8
324(10) 0.00973 315.8 18.3
332(10) 0.01004 315.8 17.8
325(9) 0.01017 315.8 17.4
326(10) 0.00989 315.8 17.0
320(10) 0.00993 315.8 16.7
341(10) 0.00901 315.8 16.4
319(9) 0.01059 315.8 16.2
345(10) 0.00959 315.8 16.0
353(10) 0.00907 315.8 15.8
374(11) 0.00830 315.7 15.7
332(10) 0.00955 315.7 15.6
344(10) 0.00976 315.7 15.5
337(10) 0.00951 315.7 15.4
333(10) 0.00951 315.7 15.4
336(10) 0.00919 315.7 15.4
326(10) 0.00995 315.7 15.4
333(10) 0.01007 315.7 15.5
338(10) 0.00929 315.7 15.6
327(10) 0.00947 315.7 15.7
322(10) 0.00995 315.7 15.8
322(9) 0.01011 315.7 16.0
321(9) 0.01037 315.7 16.2
320(9) 0.01009 315.7 16.4
328(10) 0.00943 315.6 16.6
351(10) 0.00923 315.6 16.9
363(10) 0.00917 315.6 17.3
339(10) 0.00999 315.6 17.7
362(10) 0.00877 315.6 18.1
352(10) 0.00868 315.6 18.5
343(10) 0.00935 315.6 19.1
340(10) 0.00958 315.6 19.6
330(9) 0.01033 315.6 20.3
347(10) 0.00922 315.6 20.9
341(10) 0.00889 315.6 21.7
306(9) 0.01068 315.6 22.5
333(10) 0.00989 315.6 23.4
320(9) 0.01041 315.6 24.4
335(10) 0.00954 315.6 25.4
350(10) 0.00850 315.5 26.5
345(10) 0.00905 315.5 27.8
328(9) 0.01035 315.5 29.1
327(9) 0.01013 315.5 30.5
349(10) 0.00885 315.5 32.0
325(10) 0.00902 315.5 33.6
334(10) 0.00967 315.5 35.3
346(10) 0.00978 315.5 37.2
340(10) 0.00978 315.5 39.1
334(10) 0.00955 315.5 41.2
351(10) 0.00882 315.5 43.4
345(10) 0.00943 315.5 45.6
354(10) 0.00963 315.5 48.1
357(10) 0.00933 315.5 50.6
371(10) 0.00872 315.4 53.2
341(10) 0.00938 315.4 55.9
344(10) 0.00922 315.4 58.8
372(10) 0.00917 315.4 61.7
355(10) 0.00942 315.4 64.7
366(10) 0.00896 315.4 67.7
385(11) 0.00811 315.4 70.8
387(11) 0.00822 315.4 74.0
396(10) 0.00858 315.4 77.1
382(10) 0.00883 315.4 80.2
388(11) 0.00802 315.4 83.2
376(10) 0.00842 315.4 86.1
397(11) 0.00808 315.4 88.9
402(10) 0.00860 315.4 91.6
409(11) 0.00802 315.4 94.0
389(11) 0.00817 315.3 96.2
383(11) 0.00832 315.3 98.1
420(11) 0.00790 315.3 99.7
412(11) 0.00837 315.3 101.0
428(11) 0.00762 315.3 102.0
410(11) 0.00760 315.3 102.7
412(11) 0.00771 315.3 103.1
412(11) 0.00826 315.3 103.2
415(11) 0.00827 315.3 103.1
443(11) 0.00722 315.3 102.7
422(11) 0.00728 315.3 102.2
408(11) 0.00790 315.3 101.4
409(11) 0.00815 315.3 100.6
453(11) 0.00774 315.3 99.5
438(11) 0.00729 315.3 98.4
402(11) 0.00768 315.2 97.2
404(11) 0.00778 315.2 95.8
426(11) 0.00800 315.2 94.3
431(11) 0.00803 315.2 92.8
391(10) 0.00840 315.2 91.1
412(11) 0.00733 315.2 89.2
425(11) 0.00769 315.2 87.2
409(11) 0.00836 315.2 85.0
392(10) 0.00876 315.2 82.7
401(11) 0.00818 315.2 80.2
385(11) 0.00787 315.2 77.6
383(11) 0.00829 315.2 74.9
376(10) 0.00888 315.2 72.0
361(10) 0.00934 315.2 69.1
371(10) 0.00868 315.1 66.1
351(10) 0.00861 315.1 63.1
376(10) 0.00853 315.1 60.1
367(10) 0.00920 315.1 57.2
366(10) 0.00910 315.1 54.3
336(10) 0.00977 315.1 51.4
355(10) 0.00866 315.1 48.7
347(10) 0.00906 315.1 46.1
350(10) 0.00958 315.1 43.5
351(10) 0.00943 315.1 41.1
347(10) 0.00915 315.1 38.9
340(10) 0.00923 315.1 36.7
335(10) 0.00974 315.1 34.6
340(10) 0.00993 315.1 32.7
351(10) 0.00948 315.1 30.9
367(10) 0.00866 315.0 29.2
348(10) 0.00909 315.0 27.6
338(10) 0.00927 315.0 26.2
308(9) 0.01087 315.0 24.8
319(10) 0.00983 315.0 23.5
306(9) 0.01009 315.0 22.3
337(10) 0.00890 315.0 21.2
354(10) 0.00906 315.0 20.2
326(9) 0.01029 315.0 19.3
321(10) 0.01007 315.0 18.4
332(10) 0.00935 315.0 17.6
346(10) 0.00910 315.0 16.9
330(9) 0.01020 315.0 16.2
317(9) 0.01060 315.0 15.6
303(9) 0.01057 314.9 15.0
335(10) 0.00916 314.9 14.5
335(10) 0.00969 314.9 14.0
313(9) 0.01074 314.9 13.5
331(10) 0.00995 314.9 13.1
308(9) 0.01034 314.9 12.7
315(10) 0.00935 314.9 12.3
314(10) 0.00988 314.9 12.0
315(9) 0.01039 314.9 11.7
343(10) 0.00977 314.9 11.4
343(10) 0.00918 314.9 11.1
318(10) 0.00972 314.9 10.8
317(10) 0.00970 314.9 10.6
320(9) 0.01013 314.9 10.4
319(9) 0.01044 314.9 10.2
341(10) 0.00948 314.8 10.0
327(10) 0.00957 314.8 9.8
342(10) 0.00927 314.8 9.6
329(9) 0.01027 314.8 9.5
299(9) 0.01101 314.8 9.3
314(10) 0.00983 314.8 9.2
319(10) 0.00923 314.8 9.1
323(10) 0.00972 314.8 9.0
321(9) 0.01036 314.8 8.9
337(10) 0.00965 314.9 8.8
332(10) 0.00966 314.9 8.7
330(10) 0.00931 314.9 8.6
307(10) 0.00993 315.0 8.6
309(9) 0.01079 315.0 8.5
326(9) 0.01027 315.0 8.5
325(10) 0.00990 315.0 8.4
328(10) 0.00965 315.1 8.4
335(10) 0.00933 315.1 8.4
327(9) 0.01040 315.1 8.4
337(10) 0.00963 315.1 8.4
325(10) 0.00985 315.2 8.4
299(9) 0.01050 315.2 8.5
323(10) 0.01000 315.2 8.5
314(9) 0.01061 315.3 8.6
309(9) 0.01025 315.3 8.7
301(9) 0.01039 315.3 8.9
332(10) 0.00954 315.3 9.1
337(10) 0.00981 315.4 9.4
335(9) 0.01011 315.4 9.7
326(10) 0.00958 315.4 10.3
329(10) 0.00889 315.5 11.5
309(9) 0.01034 315.5 13.8
342(10) 0.00940 315.5 18.5
337(10) 0.01002 315.5 27.3
376(11) 0.00825 315.6 42.1
364(10) 0.00846 315.6 62.9
403(11) 0.00775 315.6 87.2
413(11) 0.00806 315.6 108.6
419(11) 0.00814 315.7 118.9
402(11) 0.00786 315.7 112.7
391(11) 0.00772 315.7 93.5
363(10) 0.00912 315.8 69.4
338(10) 0.00977 315.8 47.6
340(10) 0.00992 315.8 31.5
343(10) 0.00934 315.8 21.6
353(10) 0.00862 315.9 16.3
332(10) 0.00960 315.9 13.8
320(9) 0.01038 315.9 12.8
317(9) 0.01050 315.9 12.4
297(9) 0.01052 316.0 12.3
312(10) 0.00956 316.0 12.3
333(10) 0.00970 316.0 12.5
338(10) 0.00996 316.1 12.7
349(10) 0.00962 316.1 12.9
327(10) 0.00962 316.1 13.3
313(10) 0.00949 316.1 13.7
349(10) 0.00863 316.2 14.1
308(9) 0.01091 316.2 14.7
327(10) 0.00999 316.2 15.2
339(10) 0.00928 316.3 15.8
340(10) 0.00895 316.3 16.5
313(9) 0.01033 316.3 17.2
318(9) 0.01050 316.3 18.0
324(9) 0.01036 316.4 18.8
328(10) 0.00980 316.4 19.7
333(10) 0.00891 316.4 20.7
353(10) 0.00867 316.4 21.7
342(10) 0.00987 316.5 22.7
349(10) 0.00950 316.5 23.8
330(10) 0.01005 316.5 25.0
337(10) 0.00946 316.6 26.2
341(10) 0.00919 316.6 27.5
375(10) 0.00908 316.6 28.8
368(10) 0.00893 316.6 30.2
334(10) 0.00967 316.7 31.6
327(10) 0.00972 316.7 33.0
346(10) 0.00937 316.7 34.5
356(10) 0.00960 316.8 36.0
382(10) 0.00847 316.8 37.4
397(11) 0.00788 316.8 38.9
386(11) 0.00809 316.8 40.3
373(10) 0.00885 316.9 41.7
374(10) 0.00908 316.9 43.1
363(10) 0.00866 316.9 44.4
372(11) 0.00812 316.9 45.6
365(10) 0.00887 317.0 46.6
396(10) 0.00852 317.0 47.5
387(10) 0.00885 317.0 48.3
362(10) 0.00877 317.1 48.8
409(11) 0.00717 317.1 49.2
364(10) 0.00906 317.1 49.4
364(10) 0.00921 317.1 49.3
388(10) 0.00885 317.2 49.1
374(10) 0.00843 317.2 48.7
367(11) 0.00824 317.2 48.0
373(10) 0.00852 317.2 47.2
351(10) 0.00962 317.3 46.3
379(10) 0.00902 317.3 45.2
368(10) 0.00865 317.3 44.0
352(10) 0.00883 317.4 42.7
359(10) 0.00890 317.4 41.3
318(9) 0.01064 317.4 39.8
351(10) 0.00966 317.4 38.4
360(10) 0.00895 317.5 36.9
354(10) 0.00854 317.5 35.4
350(10) 0.00915 317.5 33.9
342(10) 0.00980 317.6 32.4
374(10) 0.00909 317.6 30.9
347(10) 0.00947 317.6 29.5
330(10) 0.00941 317.6 28.1
335(10) 0.00961 317.7 26.8
364(10) 0.00924 317.7 25.5
348(10) 0.00975 317.7 24.2
338(10) 0.00967 317.7 23.0
336(10) 0.00931 317.8 21.9
339(10) 0.00917 317.8 20.8
340(10) 0.00987 317.8 19.8
327(10) 0.00989 317.9 18.8
336(10) 0.00947 317.9 17.9
319(10) 0.00984 317.9 17.1
330(10) 0.00951 317.9 16.3
344(10) 0.00976 318.0 15.5
334(10) 0.00971 318.0 14.8
302(9) 0.01045 318.0 14.2
331(10) 0.00904 318.1 13.6
345(10) 0.00930 318.1 13.0
329(9) 0.01021 318.1 12.5
327(10) 0.00982 318.1 12.0
319(10) 0.00957 318.2 11.6
339(10) 0.00871 318.2 11.2
333(10) 0.00972 318.2 10.8
318(9) 0.01051 318.2 10.5
333(10) 0.00918 318.3 10.2
347(10) 0.00909 318.3 9.9
338(10) 0.00938 318.3 9.6
346(10) 0.00937 318.4 9.4
321(9) 0.01046 318.4 9.2
328(10) 0.00965 318.4 9.0
340(10) 0.00875 318.4 8.9
306(9) 0.01013 318.5 8.7
309(9) 0.01077 318.5 8.6
309(9) 0.01082 318.5 8.4
319(10) 0.00997 318.6 8.3
333(10) 0.00915 318.6 8.3
322(10) 0.00979 318.6 8.2
325(10) 0.01003 318.6 8.1
337(10) 0.00999 318.7 8.1
336(10) 0.00970 318.7 8.1
317(10) 0.00932 318.7 8.1
312(10) 0.01000 318.7 8.1
348(10) 0.00971 318.8 8.2
360(10) 0.00936 318.8 8.3
325(10) 0.00991 318.8 8.4
320(10) 0.00948 318.9 8.7
359(10) 0.00893 318.9 9.0
334(9) 0.01010 318.9 9.4
346(10) 0.00975 318.9 9.9
350(10) 0.00939 319.0 10.7
340(10) 0.00897 319.0 12.0
372(10) 0.00861 319.0 14.1
354(10) 0.00966 319.0 17.6
350(10) 0.00946 319.1 23.7
365(10) 0.00870 319.1 33.5
387(11) 0.00801 319.1 48.2
406(11) 0.00817 319.2 68.3
443(11) 0.00775 319.2 92.4
530(12) 0.00650 319.2 117.1
503(12) 0.00671 319.2 136.1
547(13) 0.00571 319.3 142.0
464(12) 0.00700 319.3 131.8
421(11) 0.00818 319.3 110.4
401(11) 0.00823 319.4 85.2
376(11) 0.00826 319.4 61.9
383(11) 0.00817 319.4 43.2
360(10) 0.00921 319.4 29.8
339(10) 0.00999 319.5 21.0
346(10) 0.00914 319.5 15.6
342(10) 0.00912 319.5 12.5
325(10) 0.00966 319.5 10.6
301(9) 0.01070 319.6 9.3
342(10) 0.00987 319.6 8.5
354(10) 0.00905 319.6 7.9
327(10) 0.00968 319.7 7.4
314(10) 0.01006 319.7 7.0
296(9) 0.01116 319.7 6.6
311(9) 0.01063 319.7 6.4
326(10) 0.00958 319.8 6.2
314(10) 0.00984 319.8 6.0
345(10) 0.00924 319.8 5.8
348(10) 0.00955 319.9 5.7
340(10) 0.00987 319.9 5.6
328(10) 0.00959 319.9 5.5
317(10) 0.00964 319.9 5.4
323(10) 0.00977 320.0 5.4
342(10) 0.00987 320.0 5.4
334(9) 0.01018 320.0 5.3
308(9) 0.01009 320.0 5.3
322(10) 0.00915 320.1 5.3
336(10) 0.00948 320.1 5.3
316(9) 0.01054 320.1 5.4
315(9) 0.01051 320.2 5.4
325(10) 0.00990 320.2 5.4
332(10) 0.00868 320.2 5.5
324(10) 0.01005 320.2 5.5
339(10) 0.00992 320.3 5.6
333(9) 0.01010 320.3 5.7
321(9) 0.01015 320.3 5.8
348(10) 0.00876 320.3 5.9
324(10) 0.00997 320.4 6.0
304(9) 0.01110 320.4 6.1
327(10) 0.01000 320.4 6.2
313(9) 0.01013 320.5 6.3
312(10) 0.00967 320.5 6.5
328(10) 0.00954 320.5 6.6
316(9) 0.01058 320.5 6.8
322(9) 0.01031 320.6 7.0
338(10) 0.00898 320.6 7.2
331(10) 0.00913 320.6 7.4
323(10) 0.00999 320.7 7.7
339(10) 0.01004 320.7 8.0
311(9) 0.01028 320.7 8.4
299(9) 0.01047 320.7 9.1
331(10) 0.00942 320.8 10.1
309(9) 0.01054 320.8 11.6
348(10) 0.00979 320.8 13.9
370(10) 0.00875 320.8 16.9
384(10) 0.00848 320.9 20.5
405(11) 0.00798 320.9 24.1
397(11) 0.00830 320.9 26.7
382(10) 0.00898 321.0 27.3
386(10) 0.00851 321.0 25.8
358(10) 0.00887 321.0 22.8
345(10) 0.00937 321.0 19.5
342(10) 0.00952 321.1 16.7
331(9) 0.01018 321.1 14.6
343(10) 0.00921 321.1 13.2
353(10) 0.00860 321.2 12.4
336(10) 0.00949 321.2 12.1
348(10) 0.00946 321.2 11.9
348(10) 0.00972 321.2 12.0
332(10) 0.00953 321.3 12.0
318(10) 0.00960 321.3 12.2
325(10) 0.00974 321.3 12.3
329(9) 0.01019 321.3 12.4
341(10) 0.00981 321.4 12.6
330(10) 0.00965 321.4 12.8
300(10) 0.00996 321.4 12.9
313(10) 0.00999 321.5 13.1
333(10) 0.00998 321.5 13.2
342(10) 0.00986 321.5 13.4
315(10) 0.00987 321.5 13.5
339(10) 0.00846 321.6 13.7
328(10) 0.00994 321.6 13.8
323(9) 0.01033 321.6 13.8
325(9) 0.01032 321.7 13.9
329(10) 0.00994 321.7 13.9
351(10) 0.00858 321.7 13.9
336(10) 0.00940 321.7 13.9
332(9) 0.01025 321.8 13.8
341(10) 0.00982 321.8 13.7
314(9) 0.01054 321.8 13.5
340(10) 0.00880 321.8 13.3
338(10) 0.00941 321.9 13.1
342(10) 0.00982 321.9 12.8
338(10) 0.00982 321.9 12.5
310(9) 0.01021 322.0 12.2
322(10) 0.00973 322.0 11.9
351(10) 0.00900 322.0 11.6
308(9) 0.01090 322.0 11.2
327(10) 0.01007 322.1 10.9
344(10) 0.00925 322.1 10.6
314(9) 0.01010 322.1 10.3
318(10) 0.00991 322.1 10.0
324(9) 0.01034 322.2 9.7
320(10) 0.00996 322.2 9.5
326(10) 0.00952 322.2 9.3
329(10) 0.00939 322.3 9.1
318(9) 0.01022 322.3 8.9
330(9) 0.01017 322.3 8.7
331(10) 0.00971 322.3 8.6
323(10) 0.00960 322.4 8.5
337(10) 0.00946 322.4 8.4
319(9) 0.01013 322.4 8.4
337(10) 0.01006 322.4 8.4
325(10) 0.00960 322.4 8.4
332(10) 0.00921 322.4 8.4
322(10) 0.00980 322.4 8.5
335(10) 0.00962 322.3 8.6
334(9) 0.01016 322.3 8.7
333(10) 0.00953 322.3 8.9
312(10) 0.00976 322.3 9.1
335(10) 0.00932 322.3 9.3
309(9) 0.01059 322.2 9.6
325(9) 0.01047 322.2 9.9
332(10) 0.00971 322.2 10.2
341(10) 0.00871 322.2 10.6
320(10) 0.00967 322.1 11.0
337(10) 0.00983 322.1 11.4
321(9) 0.01040 322.1 11.9
327(10) 0.00936 322.1 12.3
331(10) 0.00897 322.1 12.8
317(10) 0.00982 322.0 13.4
338(10) 0.00983 322.0 13.9
329(9) 0.01032 322.0 14.5
318(10) 0.00995 322.0 15.1
331(10) 0.00880 322.0 15.7
339(10) 0.00923 321.9 16.3
330(9) 0.01008 321.9 16.9
305(9) 0.01094 321.9 17.5
308(9) 0.01015 321.9 18.1
286(9) 0.01052 321.9 18.6
328(10) 0.00954 321.8 19.1
330(10) 0.01005 321.8 19.6
319(9) 0.01030 321.8 20.0
340(10) 0.00934 321.8 20.3
324(10) 0.00934 321.8 20.5
326(10) 0.00971 321.7 20.7
345(10) 0.00971 321.7 20.8
305(9) 0.01083 321.7 20.8
322(10) 0.00978 321.7 20.7
312(10) 0.00982 321.7 20.6
310(9) 0.01030 321.6 20.3
345(10) 0.00978 321.6 20.0
331(10) 0.00960 321.6 19.6
344(10) 0.00904 321.6 19.2
339(10) 0.00946 321.6 18.7
348(10) 0.00945 321.5 18.3
329(9) 0.01033 321.5 17.8
364(10) 0.00876 321.5 17.2
351(10) 0.00872 321.5 16.7
337(10) 0.00936 321.5 16.1
342(10) 0.00952 321.4 15.6
328(9) 0.01031 321.4 15.1
304(9) 0.01051 321.4 14.6
309(10) 0.00990 321.4 14.1
329(10) 0.00971 321.4 13.7
325(10) 0.01007 321.3 13.3
332(9) 0.01016 321.3 13.0
339(10) 0.00933 321.3 12.7
310(10) 0.00984 321.3 12.5
352(10) 0.00913 321.3 12.4
346(10) 0.00956 321.2 12.4
311(9) 0.01087 321.2 12.5
345(10) 0.00917 321.2 12.7
347(10) 0.00853 321.2 13.3
316(10) 0.00975 321.2 14.1
317(9) 0.01062 321.1 15.5
341(10) 0.00990 321.1 17.7
339(10) 0.00922 321.1 21.0
336(10) 0.00858 321.1 25.7
309(9) 0.01025 321.1 32.1
332(10) 0.01005 321.0 40.3
343(10) 0.01001 321.0 50.2
374(10) 0.00869 321.0 61.1
364(11) 0.00795 321.0 71.7
350(10) 0.00926 320.9 79.9
380(10) 0.00892 320.9 83.5
393(10) 0.00873 320.9 81.3
389(11) 0.00804 320.9 74.2
351(11) 0.00834 320.9 64.6
345(10) 0.00919 320.8 54.6
379(10) 0.00890 320.8 45.4
365(10) 0.00937 320.8 37.5
391(11) 0.00812 320.8 31.1
361(11) 0.00838 320.8 25.8
329(10) 0.00987 320.7 21.6
329(9) 0.01029 320.7 18.2
357(10) 0.00908 320.7 15.6
352(10) 0.00884 320.7 13.5
337(10) 0.00912 320.7 11.9
340(10) 0.00906 320.6 10.7
311(9) 0.01071 320.6 9.7
329(10) 0.01004 320.6 9.0
335(10) 0.00925 320.6 8.5
333(10) 0.00932 320.6 8.1
342(10) 0.00929 320.5 7.8
325(9) 0.01038 320.5 7.5
311(9) 0.01033 320.5 7.4
327(10) 0.00952 320.5 7.3
323(10) 0.00994 320.5 7.2
311(9) 0.01043 320.4 7.2
303(9) 0.01103 320.4 7.2
323(10) 0.00985 320.4 7.3
315(9) 0.01016 320.4 7.4
322(10) 0.00978 320.4 7.6
313(9) 0.01043 320.3 7.9
302(9) 0.01107 320.3 8.2
316(10) 0.00976 320.3 8.6
320(10) 0.00959 320.3 9.1
314(9) 0.01027 320.3 9.8
317(9) 0.01039 320.2 10.6
309(9) 0.01090 320.2 11.7
304(9) 0.01035 320.2 12.9
351(10) 0.00839 320.2 14.5
340(10) 0.00918 320.2 16.3
326(9) 0.01018 320.1 18.4
336(10) 0.00985 320.1 20.8
336(10) 0.00919 320.1 23.4
348(11) 0.00833 320.1 26.2
357(10) 0.00906 320.1 29.0
327(9) 0.01036 320.0 31.7
344(10) 0.00989 320.0 34.1
326(10) 0.00982 320.0 35.7
327(10) 0.00908 320.0 36.3
341(10) 0.00888 320.0 36.0
316(9) 0.01048 319.9 34.6
341(10) 0.00993 319.9 32.5
337(10) 0.00963 319.9 30.0
343(10) 0.00862 319.9 27.3
341(10) 0.00959 319.9 24.6
338(10) 0.00981 319.8 22.1
310(9) 0.01074 319.8 19.8
326(10) 0.00981 319.8 17.8
333(10) 0.00918 319.8 16.0
333(10) 0.00939 319.7 14.5
331(9) 0.01023 319.7 13.3
328(9) 0.01021 319.7 12.4
337(10) 0.00938 319.7 11.6
339(10) 0.00888 319.7 11.0
325(10) 0.00974 319.6 10.5
336(10) 0.01004 319.6 10.1
335(10) 0.00954 319.6 9.9
330(10) 0.00932 319.6 9.8
348(10) 0.00907 319.6 9.6
354(10) 0.00952 319.5 9.5
319(9) 0.01040 319.5 9.3
339(10) 0.00933 319.5 9.3
322(10) 0.01005 319.5 9.2
306(9) 0.01073 319.5 9.1
323(9) 0.01041 319.4 9.1
320(10) 0.00979 319.4 9.1
342(10) 0.00904 319.4 9.0
331(10) 0.00914 319.4 9.0
327(10) 0.01005 319.4 8.9
337(10) 0.01000 319.3 8.9
327(10) 0.00982 319.3 8.8
311(10) 0.00986 319.3 8.7
341(10) 0.00926 319.3 8.6
349(10) 0.00931 319.3 8.5
352(10) 0.00971 319.2 8.4
308(9) 0.01041 319.2 8.4
318(10) 0.00940 319.2 8.2
318(9) 0.01015 319.2 8.1
339(10) 0.00988 319.2 8.0
334(9) 0.01010 319.1 7.9
322(10) 0.00963 319.1 7.8
309(10) 0.00964 319.1 7.7
321(10) 0.00991 319.1 7.5
326(9) 0.01038 319.1 7.4
290(9) 0.01157 319.0 7.3
334(10) 0.00921 319.0 7.1
300(10) 0.01003 319.0 7.0
321(10) 0.00971 319.0 6.9
314(9) 0.01061 319.0 6.7
286(9) 0.01146 318.9 6.6
316(9) 0.01023 318.9 6.5
329(10) 0.00915 318.9 6.4
336(10) 0.00936 318.9 6.3
314(9) 0.01074 318.9 6.2
346(10) 0.00958 318.8 6.1
319(9) 0.01020 318.8 6.0
316(10) 0.00934 318.8 5.9
334(10) 0.00931 318.8 5.8
336(9) 0.01013 318.8 5.7
323(9) 0.01018 318.7 5.6
314(10) 0.01003 318.7 5.5
324(10) 0.00975 318.7 5.4
329(10) 0.00941 318.7 5.3
327(9) 0.01037 318.7 5.2
309(9) 0.01039 318.6 5.1
316(10) 0.00955 318.6 5.1
318(10) 0.00987 318.7 5.0
346(10) 0.00973 318.7 4.9
314(9) 0.01053 318.7 4.9
321(10) 0.00999 318.7 4.8
327(10) 0.00940 318.8 4.8
304(9) 0.01046 318.8 4.7
309(9) 0.01066 318.8 4.7
332(9) 0.01017 318.8 4.7
319(10) 0.01002 318.9 4.6
338(10) 0.00946 318.9 4.6
341(10) 0.00952 318.9 4.6
322(9) 0.01026 318.9 4.6
329(9) 0.01030 319.0 4.6
320(10) 0.00983 319.0 4.6
325(10) 0.00941 319.0 4.6
344(10) 0.00925 319.0 4.6
332(10) 0.00982 319.1 4.6
310(9) 0.01079 319.1 4.6
312(9) 0.01013 319.1 4.6
305(10) 0.00989 319.1 4.6
308(9) 0.01027 319.2 4.7
324(9) 0.01035 319.2 4.7
322(9) 0.01053 319.2 4.7
317(10) 0.00994 319.2 4.8
316(10) 0.00960 319.3 4.8
309(9) 0.01041 319.3 4.9
326(9) 0.01020 319.3 5.0
336(9) 0.01015 319.3 5.0
322(10) 0.01000 319.4 5.1
331(10) 0.00889 319.4 5.2
323(10) 0.00980 319.4 5.3
346(10) 0.00964 319.4 5.4
330(9) 0.01018 319.5 5.5
338(10) 0.00943 319.5 5.6
333(10) 0.00876 319.5 5.8
327(10) 0.00938 319.5 5.9
322(9) 0.01055 319.6 6.1
304(9) 0.01082 319.6 6.2
330(10) 0.00937 319.6 6.4
313(10) 0.00915 319.6 6.6
333(10) 0.00913 319.7 6.9
334(9) 0.01017 319.7 7.1
306(9) 0.01066 319.7 7.4
311(9) 0.01031 319.7 7.6
330(10) 0.00918 319.8 7.9
318(10) 0.00999 319.8 8.2
347(10) 0.00982 319.8 8.6
332(10) 0.00987 319.8 9.0
296(9) 0.01024 319.9 9.4
315(10) 0.00918 319.9 9.8
347(10) 0.00908 319.9 10.3
348(10) 0.00964 319.9 10.9
338(10) 0.00972 320.0 11.5
349(10) 0.00917 320.0 12.2
353(10) 0.00868 320.0 13.0
341(10) 0.00922 320.0 14.0
339(10) 0.00997 320.1 15.0
333(10) 0.00971 320.1 16.2
362(10) 0.00861 320.1 17.6
361(10) 0.00853 320.1 19.4
350(10) 0.00952 320.2 21.6
345(10) 0.00972 320.2 24.7
341(10) 0.00918 320.2 28.8
350(10) 0.00902 320.2 35.1
362(10) 0.00883 320.3 44.2
393(10) 0.00853 320.3 57.1
429(11) 0.00807 320.3 74.1
451(11) 0.00715 320.3 95.2
423(11) 0.00747 320.4 119.3
500(12) 0.00641 320.4 143.6
472(11) 0.00712 320.4 164.2
503(12) 0.00704 320.4 178.5
488(12) 0.00686 320.5 188.2
487(12) 0.00624 320.5 197.5
482(12) 0.00668 320.5 209.2
545(12) 0.00643 320.5 222.8
533(12) 0.00663 320.6 234.5
501(12) 0.00676 320.6 239.2
480(12) 0.00666 320.6 233.8
490(12) 0.00690 320.6 220.5
449(11) 0.00779 320.7 204.2
465(11) 0.00734 320.7 189.4
448(11) 0.00724 320.7 178.6
475(12) 0.00627 320.7 172.4
462(11) 0.00720 320.8 170.0
483(11) 0.00715 320.8 169.8
473(11) 0.00725 320.8 169.7
460(12) 0.00688 320.8 168.5
473(12) 0.00648 320.9 165.2
476(12) 0.00692 320.9 159.9
469(11) 0.00736 320.9 152.2
457(11) 0.00752 320.9 142.7
461(11) 0.00719 321.0 131.6
462(12) 0.00683 321.0 119.8
449(11) 0.00723 321.0 107.7
436(11) 0.00781 321.0 96.1
407(11) 0.00836 321.1 85.1
362(10) 0.00881 321.1 75.1
362(11) 0.00836 321.1 66.1
385(11) 0.00823 321.1 58.0
386(10) 0.00883 321.2 51.0
380(10) 0.00852 321.2 44.9
352(10) 0.00929 321.2 39.7
378(11) 0.00837 321.2 35.3
364(10) 0.00880 321.3 31.6
358(10) 0.00957 321.3 28.4
349(10) 0.00916 321.3 25.8
360(10) 0.00888 321.3 23.7
355(10) 0.00891 321.4 21.8
358(10) 0.00912 321.4 20.3
357(10) 0.00951 321.4 19.0
360(10) 0.00877 321.4 17.9
335(10) 0.00924 321.5 17.0
339(10) 0.00907 321.5 16.1
319(9) 0.01033 321.5 15.4
343(10) 0.00981 321.5 14.7
343(10) 0.00906 321.6 14.1
327(10) 0.00919 321.6 13.6
345(10) 0.00902 321.6 13.1
344(10) 0.00965 321.6 12.6
326(9) 0.01022 321.7 12.2
350(10) 0.00872 321.7 11.8
323(10) 0.00904 321.7 11.5
320(10) 0.01004 321.7 11.2
355(10) 0.00936 321.8 10.9
336(9) 0.01014 321.8 10.6
324(10) 0.00966 321.8 10.3
355(10) 0.00854 321.8 10.1
349(10) 0.00920 321.9 9.8
334(10) 0.01005 321.9 9.8
337(10) 0.01007 321.9 9.6
351(10) 0.00900 321.9 9.4
339(10) 0.00878 322.0 9.2
346(10) 0.00905 322.0 9.1
360(10) 0.00946 322.0 8.9
336(10) 0.01005 322.0 8.8
342(10) 0.00940 322.1 8.7
326(10) 0.00942 322.1 8.7
342(10) 0.00924 322.1 8.6
312(9) 0.01077 322.1 8.6
350(10) 0.00963 322.2 8.6
327(10) 0.00965 322.2 8.6
316(10) 0.00934 322.2 8.7
315(10) 0.01007 322.2 8.9
345(10) 0.00970 322.3 9.2
320(9) 0.01051 322.3 9.5
333(10) 0.00959 322.3 10.0
360(10) 0.00861 322.3 10.7
347(10) 0.00938 322.4 11.5
352(10) 0.00964 322.4 12.5
352(10) 0.00937 322.4 13.6
309(9) 0.01050 322.4 15.0
362(10) 0.00839 322.5 16.4
326(10) 0.00997 322.5 17.8
332(9) 0.01021 322.5 19.1
333(10) 0.00965 322.5 20.2
337(10) 0.00929 322.6 20.8
312(9) 0.01019 322.6 20.8
334(10) 0.00967 322.6 20.3
343(10) 0.00987 322.6 19.2
338(10) 0.00996 322.7 17.8
311(9) 0.01044 322.7 16.3
324(10) 0.01002 322.7 14.7
327(9) 0.01026 322.7 13.3
345(10) 0.00986 322.8 12.0
328(10) 0.00925 322.8 10.8
321(10) 0.00984 322.8 9.8
342(10) 0.00912 322.8 9.0
332(10) 0.00986 322.9 8.4
316(9) 0.01064 322.9 7.8
325(10) 0.00931 322.9 7.4
342(10) 0.00884 322.9 7.1
338(10) 0.00950 323.0 6.8
339(10) 0.00990 323.0 6.7
332(9) 0.01018 323.0 6.5
324(10) 0.00983 323.0 6.4
320(10) 0.00938 323.1 6.3
327(10) 0.01002 323.1 6.2
329(9) 0.01023 323.1 6.2
314(9) 0.01082 323.1 6.1
322(10) 0.00997 323.2 6.1
327(10) 0.00906 323.2 6.1
311(9) 0.01009 323.2 6.1
342(10) 0.00965 323.2 6.1
347(10) 0.00960 323.3 6.2
321(9) 0.01015 323.3 6.2
337(10) 0.00856 323.3 6.2
328(10) 0.00987 323.3 6.2
378(10) 0.00884 323.4 6.3
332(9) 0.01024 323.4 6.3
318(9) 0.01056 323.4 6.4
363(10) 0.00839 323.4 6.4
324(10) 0.00991 323.5 6.5
316(9) 0.01072 323.5 6.6
334(10) 0.01000 323.5 6.7
366(10) 0.00863 323.5 6.8
341(10) 0.00884 323.6 6.9
346(10) 0.00913 323.6 7.0
332(9) 0.01028 323.6 7.1
319(9) 0.01031 323.6 7.2
333(10) 0.00945 323.7 7.3
351(10) 0.00882 323.7 7.5
333(10) 0.00922 323.7 7.6
340(10) 0.00995 323.7 7.8
337(10) 0.00973 323.8 7.9
323(10) 0.00973 323.8 8.1
349(10) 0.00872 323.8 8.3
350(10) 0.00912 323.8 8.5
356(10) 0.00954 323.9 8.7
315(9) 0.01022 323.9 9.0
335(10) 0.00949 323.9 9.2
323(10) 0.01007 323.9 9.5
331(10) 0.00962 324.0 9.8
312(9) 0.01074 324.0 10.0
308(9) 0.01023 324.0 10.4
321(10) 0.00991 324.0 10.7
338(10) 0.00908 324.1 11.0
327(9) 0.01016 324.1 11.4
321(9) 0.01046 324.1 11.8
330(10) 0.00953 324.1 12.2
332(10) 0.00918 324.2 12.6
339(10) 0.00956 324.2 13.0
345(10) 0.00961 324.2 13.4
336(10) 0.01004 324.2 13.9
326(10) 0.00952 324.3 14.4
339(10) 0.00923 324.3 14.9
361(10) 0.00914 324.3 15.4
332(10) 0.01007 324.3 15.9
343(10) 0.00984 324.4 16.4
348(10) 0.00893 324.4 17.0
343(11) 0.00836 324.4 17.6
339(10) 0.00927 324.4 18.2
322(9) 0.01048 324.5 18.9
372(10) 0.00910 324.5 19.6
352(10) 0.00901 324.5 20.4
341(10) 0.00877 324.5 21.3
352(10) 0.00929 324.6 22.3
355(10) 0.00953 324.6 23.5
355(10) 0.00964 324.6 24.8
386(11) 0.00793 324.6 26.2
343(10) 0.00881 324.7 28.0
365(10) 0.00877 324.7 30.1
363(10) 0.00935 324.7 32.7
329(9) 0.01016 324.7 36.0
375(11) 0.00820 324.8 40.5
354(10) 0.00912 324.8 46.7
413(11) 0.00776 324.8 55.4
377(10) 0.00901 324.8 67.3
396(10) 0.00860 324.9 83.5
426(11) 0.00753 324.9 104.6
462(12) 0.00668 324.9 130.8
443(11) 0.00735 324.9 161.5
476(11) 0.00726 325.0 194.6
512(12) 0.00659 325.0 226.2
577(13) 0.00562 325.0 250.3
570(13) 0.00558 325.0 260.2
554(13) 0.00589 325.1 253.2
528(12) 0.00662 325.1 232.3
474(11) 0.00717 325.1 204.1
451(11) 0.00734 325.1 174.8
419(11) 0.00774 325.2 148.2
410(11) 0.00799 325.2 126.5
416(11) 0.00836 325.2 110.4
440(11) 0.00738 325.2 99.8
407(11) 0.00778 325.3 94.2
407(11) 0.00781 325.3 92.8
420(11) 0.00802 325.3 94.6
434(11) 0.00799 325.3 99.1
455(11) 0.00720 325.4 105.5
459(12) 0.00660 325.4 113.4
473(12) 0.00665 325.4 122.2
467(11) 0.00736 325.4 131.2
497(12) 0.00702 325.5 139.6
486(12) 0.00662 325.5 146.4
485(12) 0.00630 325.5 150.5
484(12) 0.00661 325.5 151.2
460(11) 0.00767 325.6 148.3
429(11) 0.00793 325.6 142.0
435(11) 0.00731 325.6 133.1
427(11) 0.00721 325.6 122.8
415(11) 0.00775 325.7 111.8
427(11) 0.00783 325.7 100.9
410(11) 0.00829 325.7 90.6
409(11) 0.00779 325.7 81.2
384(11) 0.00777 325.8 72.8
388(10) 0.00842 325.8 65.5
372(10) 0.00921 325.8 59.3
396(10) 0.00870 325.8 54.1
389(11) 0.00833 325.9 49.8
383(11) 0.00805 325.9 46.4
408(11) 0.00798 325.9 43.8
404(10) 0.00851 325.9 41.7
401(10) 0.00853 326.0 40.2
381(10) 0.00866 326.0 39.2
335(10) 0.00915 326.0 38.5
346(10) 0.00900 326.0 38.2
369(10) 0.00928 326.1 38.2
372(10) 0.00911 326.1 38.6
380(10) 0.00870 326.1 39.3
375(11) 0.00814 326.1 40.6
370(10) 0.00876 326.2 42.6
351(10) 0.00967 326.2 45.5
368(10) 0.00873 326.2 49.5
387(11) 0.00808 326.2 55.0
391(11) 0.00768 326.3 62.0
382(10) 0.00859 326.3 70.8
415(11) 0.00828 326.3 81.0
404(11) 0.00813 326.3 92.1
429(11) 0.00717 326.4 102.9
403(11) 0.00798 326.4 111.4
411(11) 0.00791 326.4 115.7
456(11) 0.00761 326.4 114.5
407(11) 0.00814 326.5 108.5
432(11) 0.00743 326.5 99.6
396(11) 0.00834 326.5 89.9
400(11) 0.00819 326.5 80.9
413(11) 0.00837 326.6 73.2
394(11) 0.00812 326.6 67.3
363(10) 0.00854 326.6 63.1
372(11) 0.00838 326.6 60.6
393(10) 0.00852 326.7 59.4
367(10) 0.00929 326.7 59.4
371(10) 0.00856 326.7 60.3
385(11) 0.00782 326.7 61.9
415(11) 0.00778 326.8 63.9
411(11) 0.00831 326.8 66.3
449(11) 0.00767 326.8 68.7
424(11) 0.00781 326.8 71.0
389(11) 0.00798 326.9 72.8
360(10) 0.00886 326.9 73.8
375(10) 0.00896 326.9 73.9
399(10) 0.00860 326.9 72.8
377(10) 0.00861 327.0 70.7
396(11) 0.00756 327.0 67.7
405(11) 0.00813 327.0 64.3
411(10) 0.00841 327.0 60.7
370(10) 0.00920 327.1 57.1
389(11) 0.00819 327.1 53.6
362(11) 0.00827 327.1 50.4
389(11) 0.00792 327.2 47.4
374(10) 0.00911 327.2 44.6
375(10) 0.00898 327.2 42.2
358(10) 0.00913 327.2 40.0
362(10) 0.00870 327.3 38.0
370(10) 0.00852 327.3 36.2
337(10) 0.01003 327.3 34.6
375(10) 0.00904 327.3 33.1
365(10) 0.00877 327.4 31.7
360(10) 0.00840 327.4 30.5
334(10) 0.00936 327.4 29.3
379(10) 0.00906 327.4 28.2
377(10) 0.00895 327.5 27.1
375(11) 0.00817 327.5 26.1
322(10) 0.00958 327.5 25.1
377(10) 0.00859 327.5 24.2
355(10) 0.00969 327.6 23.3
324(10) 0.01003 327.6 22.5
343(10) 0.00915 327.6 21.6
336(10) 0.00919 327.6 20.8
341(10) 0.00943 327.7 20.1
348(10) 0.00974 327.7 19.4
365(10) 0.00904 327.7 18.7
345(10) 0.00892 327.7 18.0
333(10) 0.00930 327.8 17.4
366(10) 0.00916 327.8 16.8
359(10) 0.00942 327.8 16.2
369(10) 0.00877 327.8 15.6
375(11) 0.00823 327.9 15.1
342(10) 0.00949 327.9 14.6
331(10) 0.01003 327.9 14.1
350(10) 0.00962 327.9 13.7
348(10) 0.00920 328.0 13.2
357(10) 0.00891 328.0 12.8
350(10) 0.00929 328.0 12.4
354(10) 0.00965 328.0 12.1
378(10) 0.00901 328.1 11.7
345(10) 0.00922 328.1 11.4
344(10) 0.00860 328.1 11.1
324(10) 0.00966 328.1 10.8
337(10) 0.00979 328.2 10.5
330(9) 0.01041 328.2 10.2
330(10) 0.00984 328.2 10.0
377(11) 0.00784 328.2 9.7
354(10) 0.00890 328.3 9.5
334(9) 0.01021 328.3 9.3
348(10) 0.00965 328.3 9.1
358(10) 0.00900 328.3 8.9
350(10) 0.00860 328.4 8.7
346(10) 0.00918 328.4 8.5
326(9) 0.01032 328.4 8.4
325(9) 0.01037 328.4 8.2
330(10) 0.00975 328.5 8.1
352(10) 0.00842 328.5 8.0
328(10) 0.00993 328.5 7.9
367(10) 0.00938 328.5 7.7
368(10) 0.00919 328.6 7.6
359(10) 0.00893 328.6 7.5
337(10) 0.00928 328.6 7.4
349(10) 0.00907 328.6 7.4
328(9) 0.01030 328.7 7.3
318(9) 0.01036 328.7 7.2
337(10) 0.00942 328.7 7.1
351(10) 0.00893 328.7 7.1
345(10) 0.00903 328.8 7.0
338(10) 0.01006 328.8 7.0
340(10) 0.00975 328.8 6.9
331(10) 0.00982 328.8 6.9
339(10) 0.00941 328.9 6.9
332(10) 0.00939 328.9 6.8
350(10) 0.00978 328.9 6.8
353(10) 0.00929 328.9 6.8
310(9) 0.01065 329.0 6.8
320(10) 0.00999 329.0 6.7
320(10) 0.00999 329.0 6.7
346(10) 0.00978 329.0 6.7
350(10) 0.00926 329.1 6.7
343(10) 0.00936 329.1 6.7
352(10) 0.00903 329.1 6.7
332(10) 0.01004 329.1 6.7
335(9) 0.01010 329.2 6.7
316(10) 0.00988 329.2 6.7
327(10) 0.00930 329.2 6.7
329(10) 0.00981 329.3 6.8
327(9) 0.01010 329.3 6.8
331(9) 0.01028 329.3 6.8
329(10) 0.00980 329.3 6.8
344(10) 0.00886 329.4 6.9
343(10) 0.00916 329.4 6.9
343(10) 0.00981 329.4 7.0
343(10) 0.00972 329.5 7.0
302(9) 0.01077 329.5 7.1
319(10) 0.00933 329.5 7.1
326(10) 0.00947 329.5 7.2
337(10) 0.00965 329.6 7.2
323(9) 0.01062 329.6 7.3
348(10) 0.00924 329.6 7.4
352(10) 0.00842 329.7 7.5
339(10) 0.00936 329.7 7.6
325(9) 0.01033 329.7 7.7
350(10) 0.00968 329.8 7.8
382(11) 0.00814 329.8 7.9
353(10) 0.00844 329.8 8.0
355(10) 0.00908 329.8 8.1
364(10) 0.00941 329.9 8.2
358(10) 0.00942 329.9 8.4
359(10) 0.00889 329.9 8.5
340(10) 0.00898 330.0 8.7
330(10) 0.00968 330.0 8.8
361(10) 0.00942 330.0 9.0
355(10) 0.00948 330.0 9.2
373(10) 0.00866 330.1 9.4
368(11) 0.00834 330.1 9.7
348(10) 0.00922 330.1 9.9
333(9) 0.01019 330.2 10.2
329(10) 0.01001 330.2 10.5
331(10) 0.00976 330.2 10.8
375(11) 0.00822 330.3 11.2
341(10) 0.00956 330.3 11.6
354(10) 0.00959 330.3 12.0
358(10) 0.00914 330.3 12.4
355(10) 0.00909 330.4 13.0
355(10) 0.00889 330.4 13.5
361(10) 0.00894 330.4 14.2
329(9) 0.01032 330.5 14.8
328(10) 0.00973 330.5 15.6
358(10) 0.00845 330.5 16.4
310(9) 0.01039 330.6 17.3
358(10) 0.00931 330.6 18.3
369(10) 0.00923 330.6 19.3
391(11) 0.00814 330.6 20.5
364(10) 0.00869 330.7 21.7
366(10) 0.00869 330.7 22.9
376(10) 0.00868 330.7 24.2
370(10) 0.00926 330.8 25.5
339(10) 0.00958 330.8 26.9
371(10) 0.00839 330.8 28.2
365(10) 0.00872 330.8 29.4
373(10) 0.00895 330.9 30.6
339(10) 0.00996 330.9 31.6
391(11) 0.00816 330.9 32.6
395(11) 0.00779 331.0 33.4
361(10) 0.00873 331.0 34.2
352(10) 0.00959 331.0 34.9
381(10) 0.00906 331.1 35.6
397(11) 0.00828 331.1 36.4
384(11) 0.00769 331.1 37.2
364(10) 0.00905 331.1 38.0
375(10) 0.00919 331.2 39.0
358(10) 0.00952 331.2 40.1
371(10) 0.00868 331.2 41.3
380(11) 0.00792 331.3 42.6
368(10) 0.00863 331.3 44.0
368(10) 0.00919 331.3 45.5
344(10) 0.00980 331.3 47.1
379(10) 0.00842 331.4 48.8
393(11) 0.00774 331.4 50.6
397(11) 0.00795 331.4 52.4
400(10) 0.00851 331.5 54.4
402(10) 0.00855 331.5 56.3
421(11) 0.00766 331.5 58.3
389(11) 0.00816 331.6 60.4
377(10) 0.00850 331.6 62.4
382(10) 0.00896 331.6 64.4
411(11) 0.00819 331.6 66.4
400(11) 0.00797 331.7 68.3
410(11) 0.00760 331.7 70.1
400(11) 0.00803 331.7 71.9
431(11) 0.00798 331.8 73.6
422(11) 0.00785 331.8 75.2
398(11) 0.00819 331.8 76.6
419(11) 0.00768 331.8 77.9
408(11) 0.00808 331.9 79.2
394(10) 0.00868 331.9 80.4
405(11) 0.00784 331.9 81.4
432(11) 0.00723 332.0 82.5
448(11) 0.00721 332.0 83.5
412(11) 0.00817 332.0 84.5
430(11) 0.00804 332.1 85.6
416(11) 0.00774 332.1 86.7
399(11) 0.00803 332.1 87.9
422(11) 0.00788 332.1 89.2
446(11) 0.00755 332.2 90.6
423(11) 0.00821 332.2 92.2
414(11) 0.00782 332.2 93.8
451(12) 0.00683 332.3 95.6
438(11) 0.00739 332.3 97.6
442(11) 0.00768 332.3 99.6
408(10) 0.00839 332.4 101.6
409(11) 0.00788 332.4 103.6
457(12) 0.00653 332.4 105.6
409(11) 0.00799 332.4 107.5
419(11) 0.00827 332.5 109.1
416(11) 0.00818 332.5 110.4
436(11) 0.00753 332.5 111.3
418(11) 0.00735 332.6 111.8
403(11) 0.00824 332.6 111.7
456(11) 0.00765 332.6 111.1
427(11) 0.00803 332.6 109.9
427(11) 0.00753 332.7 108.0
395(11) 0.00792 332.7 105.6
410(11) 0.00785 332.7 102.7
386(10) 0.00885 332.8 99.3
410(11) 0.00832 332.8 95.6
402(11) 0.00773 332.8 91.6
376(11) 0.00801 332.9 87.4
398(11) 0.00791 332.9 83.1
373(10) 0.00913 332.9 78.8
375(10) 0.00899 332.9 74.5
387(11) 0.00822 333.0 70.3
382(11) 0.00798 333.0 66.2
402(11) 0.00814 333.0 62.2
397(10) 0.00862 333.1 58.5
399(11) 0.00837 333.1 54.9
376(10) 0.00869 333.1 51.6
378(11) 0.00815 333.1 48.6
382(10) 0.00843 333.2 46.3
377(10) 0.00906 333.2 45.5
380(10) 0.00860 333.2 48.2
383(11) 0.00817 333.3 56.7
386(11) 0.00800 333.3 72.1
409(11) 0.00797 333.3 91.1
401(10) 0.00856 333.4 105.3
427(11) 0.00743 333.4 105.6
369(10) 0.00866 333.4 90.7
389(11) 0.00819 333.4 68.5
393(10) 0.00845 333.5 48.1
379(10) 0.00909 333.5 34.2
380(11) 0.00809 333.5 26.6
358(10) 0.00845 333.6 22.8
362(10) 0.00873 333.6 21.0
354(10) 0.00935 333.6 19.8
361(10) 0.00938 333.6 18.9
350(10) 0.00919 333.7 18.2
357(10) 0.00847 333.7 17.5
349(10) 0.00890 333.7 16.9
329(10) 0.00997 333.8 16.4
340(10) 0.00995 333.8 15.9
349(10) 0.00908 333.8 15.5
359(11) 0.00824 333.9 15.1
370(10) 0.00845 333.9 14.8
366(10) 0.00922 333.9 14.5
357(10) 0.00958 333.9 14.2
348(10) 0.00932 334.0 14.0
373(11) 0.00786 334.0 13.8
361(10) 0.00902 334.0 13.6
351(10) 0.00962 334.1 13.5
330(9) 0.01023 334.1 13.4
369(10) 0.00878 334.1 13.3
363(11) 0.00836 334.2 13.2
360(10) 0.00901 334.2 13.2
347(10) 0.00973 334.2 13.2
320(9) 0.01038 334.2 13.3
342(10) 0.00936 334.3 13.3
352(10) 0.00846 334.3 13.4
360(10) 0.00891 334.3 13.6
364(10) 0.00944 334.4 13.8
342(10) 0.00970 334.4 14.0
341(10) 0.00926 334.4 14.4
370(11) 0.00792 334.4 14.8
341(10) 0.00946 334.5 15.3
358(10) 0.00955 334.5 15.9
391(10) 0.00867 334.5 16.6
400(11) 0.00778 334.6 17.6
377(11) 0.00817 334.6 19.0
367(10) 0.00892 334.6 20.9
363(10) 0.00935 334.7 23.8
395(11) 0.00823 334.7 28.3
390(11) 0.00828 334.7 34.9
411(11) 0.00784 334.7 44.4
446(11) 0.00726 334.8 57.6
458(11) 0.00756 334.8 74.6
484(12) 0.00679 334.8 94.9
506(12) 0.00643 334.9 116.6
561(13) 0.00584 334.9 136.2
540(12) 0.00638 334.9 148.3
555(12) 0.00631 334.9 148.5
543(12) 0.00607 335.0 136.9
501(12) 0.00647 335.0 117.7
460(12) 0.00704 335.0 96.4
406(11) 0.00828 335.1 76.6
409(10) 0.00844 335.1 60.0
406(11) 0.00803 335.1 47.3
393(11) 0.00805 335.2 38.2
395(11) 0.00801 335.2 32.2
387(10) 0.00870 335.2 28.4
398(10) 0.00868 335.2 26.2
381(11) 0.00838 335.3 25.0
367(11) 0.00820 335.3 24.5
348(10) 0.00927 335.3 24.4
357(10) 0.00936 335.4 24.6
377(10) 0.00920 335.4 25.0
375(10) 0.00866 335.4 25.7
361(10) 0.00861 335.5 26.6
368(10) 0.00884 335.5 27.7
401(10) 0.00852 335.5 28.9
353(10) 0.00957 335.5 30.2
380(11) 0.00831 335.6 31.7
376(11) 0.00796 335.6 33.2
388(11) 0.00829 335.6 34.8
370(10) 0.00912 335.7 36.3
354(10) 0.00930 335.7 37.7
371(10) 0.00863 335.7 39.0
364(10) 0.00847 335.7 39.9
364(10) 0.00886 335.8 40.5
390(10) 0.00878 335.8 40.8
375(10) 0.00911 335.8 40.6
383(11) 0.00833 335.9 40.0
374(11) 0.00815 335.9 39.2
378(10) 0.00856 335.9 38.1
362(10) 0.00957 336.0 36.9
369(10) 0.00909 336.0 35.7
377(10) 0.00870 336.0 34.4
394(11) 0.00776 336.0 33.3
385(11) 0.00809 336.1 32.2
383(10) 0.00899 336.1 31.3
385(10) 0.00852 336.1 30.5
369(10) 0.00898 336.2 29.9
364(10) 0.00864 336.2 29.4
327(10) 0.00976 336.2 29.1
350(10) 0.00967 336.2 29.0
360(10) 0.00935 336.3 29.0
385(11) 0.00818 336.3 29.2
377(11) 0.00837 336.3 29.5
392(11) 0.00812 336.4 30.0
393(10) 0.00877 336.4 30.6
391(11) 0.00827 336.4 31.4
384(11) 0.00820 336.5 32.4
400(11) 0.00796 336.5 33.7
387(10) 0.00866 336.5 35.2
389(10) 0.00867 336.5 37.2
395(11) 0.00828 336.6 39.6
384(11) 0.00820 336.6 42.8
396(11) 0.00801 336.6 46.8
387(10) 0.00866 336.7 52.0
403(10) 0.00853 336.7 58.6
413(11) 0.00765 336.7 66.8
461(12) 0.00665 336.7 76.7
443(11) 0.00740 336.8 88.4
476(11) 0.00730 336.8 101.7
507(12) 0.00680 336.8 116.2
502(12) 0.00654 336.9 131.0
541(13) 0.00565 336.9 144.7
548(13) 0.00597 336.9 155.4
517(12) 0.00665 337.0 160.9
522(12) 0.00666 337.0 159.8
527(12) 0.00632 337.0 152.4
519(13) 0.00585 337.0 140.1
474(12) 0.00701 337.1 125.1
442(11) 0.00777 337.1 109.3
424(11) 0.00804 337.1 94.0
426(11) 0.00758 337.2 80.0
422(11) 0.00712 337.2 67.8
417(11) 0.00804 337.2 57.5
421(11) 0.00819 337.3 48.9
388(10) 0.00880 337.3 41.9
399(11) 0.00826 337.3 36.4
376(11) 0.00825 337.3 32.0
373(10) 0.00860 337.4 28.5
382(10) 0.00899 337.4 25.8
386(10) 0.00880 337.4 23.6
396(11) 0.00804 337.5 21.8
370(10) 0.00849 337.5 20.3
385(10) 0.00860 337.5 19.0
356(10) 0.00949 337.5 17.9
348(10) 0.00956 337.6 17.0
351(10) 0.00912 337.6 16.2
372(11) 0.00828 337.6 15.6
360(10) 0.00881 337.7 15.0
396(10) 0.00861 337.7 14.5
365(10) 0.00861 337.7 14.1
352(10) 0.00881 337.8 13.7
372(11) 0.00837 337.8 13.4
350(10) 0.00923 337.8 13.2
370(10) 0.00922 337.8 12.9
360(10) 0.00895 337.9 12.7
379(11) 0.00837 337.9 12.5
381(10) 0.00846 337.9 12.3
359(10) 0.00928 338.0 12.0
360(10) 0.00935 338.0 11.7
344(10) 0.00919 338.0 11.4
350(10) 0.00879 338.0 11.0
349(10) 0.00918 338.1 10.6
357(10) 0.00912 338.1 10.2
359(10) 0.00951 338.1 9.8
374(10) 0.00883 338.2 9.4
380(11) 0.00810 338.2 9.1
360(10) 0.00897 338.2 8.7
368(10) 0.00943 338.3 8.4
356(10) 0.00957 338.3 8.2
353(10) 0.00916 338.3 7.9
356(11) 0.00826 338.3 7.7
366(10) 0.00870 338.4 7.5
365(10) 0.00929 338.4 7.4
359(10) 0.00948 338.4 7.2
355(10) 0.00904 338.5 7.1
382(11) 0.00786 338.5 7.0
345(10) 0.00949 338.5 6.9
328(9) 0.01016 338.5 6.9
347(10) 0.00957 338.6 6.8
363(10) 0.00868 338.6 6.8
356(11) 0.00838 338.6 6.8
324(10) 0.00967 338.7 6.8
346(10) 0.00989 338.7 6.8
329(9) 0.01023 338.7 6.9
373(10) 0.00848 338.8 6.9
357(11) 0.00833 338.8 7.0
316(10) 0.00999 338.8 7.0
371(10) 0.00924 338.8 7.1
374(10) 0.00908 338.9 7.2
376(11) 0.00837 338.9 7.4
350(10) 0.00908 338.9 7.5
352(10) 0.00915 339.0 7.7
353(10) 0.00970 339.0 7.9
372(10) 0.00885 339.0 8.1
367(10) 0.00860 339.1 8.3
341(10) 0.00938 339.1 8.6
364(10) 0.00887 339.1 8.9
369(10) 0.00920 339.1 9.3
381(10) 0.00856 339.2 9.7
367(10) 0.00857 339.2 10.1
362(10) 0.00857 339.2 10.7
362(10) 0.00852 339.3 11.3
339(10) 0.00993 339.3 12.0
365(10) 0.00891 339.3 12.8
359(10) 0.00886 339.3 13.7
381(11) 0.00837 339.4 14.9
367(10) 0.00904 339.4 16.3
395(10) 0.00860 339.4 18.0
362(10) 0.00883 339.5 20.3
364(10) 0.00870 339.5 23.2
362(10) 0.00884 339.5 27.1
384(10) 0.00874 339.6 32.2
401(10) 0.00857 339.6 39.0
385(10) 0.00857 339.6 47.8
418(11) 0.00749 339.6 59.0
422(11) 0.00780 339.7 73.0
427(11) 0.00795 339.7 89.7
418(11) 0.00823 339.7 108.8
473(12) 0.00684 339.8 129.8
489(12) 0.00633 339.8 150.9
498(12) 0.00646 339.8 169.9
532(12) 0.00648 339.8 183.4
523(12) 0.00675 339.9 188.3
546(12) 0.00606 339.9 183.4
511(12) 0.00611 339.9 170.0
460(11) 0.00719 340.0 151.2
455(11) 0.00755 340.0 130.2
424(11) 0.00818 340.0 109.5
400(11) 0.00825 340.1 90.5
388(11) 0.00792 340.1 74.0
370(10) 0.00856 340.1 60.3
387(10) 0.00875 340.1 49.3
398(10) 0.00857 340.2 40.8
380(10) 0.00849 340.2 34.4
363(10) 0.00853 340.2 29.6
372(10) 0.00868 340.3 26.2
367(10) 0.00935 340.3 23.8
377(10) 0.00905 340.3 22.1
359(10) 0.00882 340.3 21.0
351(10) 0.00863 340.4 20.3
337(10) 0.00922 340.4 19.9
370(10) 0.00913 340.4 19.8
358(10) 0.00930 340.5 19.9
365(10) 0.00885 340.5 20.2
360(10) 0.00862 340.5 20.7
333(10) 0.00976 340.6 21.3
344(10) 0.00982 340.6 22.0
346(10) 0.00914 340.6 22.8
386(11) 0.00806 340.6 23.7
354(10) 0.00896 340.7 24.5
350(10) 0.00932 340.7 25.2
379(10) 0.00907 340.7 25.8
350(10) 0.00920 340.8 26.2
364(10) 0.00852 340.8 26.4
357(10) 0.00882 340.8 26.3
359(10) 0.00910 340.9 25.8
364(10) 0.00939 340.9 25.1
353(10) 0.00895 340.9 24.2
352(10) 0.00915 340.9 23.1
355(10) 0.00895 341.0 21.8
352(10) 0.00940 341.0 20.5
367(10) 0.00923 341.0 19.1
359(10) 0.00919 341.1 17.8
364(10) 0.00857 341.1 16.5
362(10) 0.00876 341.1 15.3
360(10) 0.00934 341.1 14.1
389(10) 0.00879 341.2 13.1
371(10) 0.00844 341.2 12.1
348(10) 0.00899 341.2 11.2
363(10) 0.00876 341.3 10.4
363(10) 0.00937 341.3 9.7
343(10) 0.00983 341.3 9.1
351(10) 0.00914 341.4 8.5
351(10) 0.00892 341.4 8.0
381(10) 0.00844 341.4 7.6
348(10) 0.00978 341.4 7.2
330(10) 0.01002 341.5 6.9
358(10) 0.00886 341.5 6.6
369(11) 0.00834 341.5 6.3
381(10) 0.00855 341.6 6.1
357(10) 0.00959 341.6 5.9
351(10) 0.00954 341.6 5.7
367(10) 0.00855 341.6 5.6
346(10) 0.00869 341.7 5.4
341(10) 0.00965 341.7 5.3
370(10) 0.00928 341.7 5.2
370(10) 0.00908 341.8 5.1
341(10) 0.00972 341.8 5.0
362(11) 0.00838 341.8 5.0
357(10) 0.00861 341.9 4.9
376(10) 0.00899 341.9 4.8
340(10) 0.00970 341.9 4.8
341(10) 0.00954 341.9 4.7
367(10) 0.00861 342.0 4.7
367(10) 0.00870 342.0 4.7
365(10) 0.00938 342.0 4.6
376(10) 0.00888 342.1 4.6
360(10) 0.00902 342.1 4.6
390(11) 0.00772 342.1 4.5
351(10) 0.00897 342.1 4.5
335(10) 0.01006 342.2 4.5
326(10) 0.00980 342.2 4.5
371(10) 0.00852 342.2 4.5
343(10) 0.00925 342.3 4.5
374(10) 0.00865 342.3 4.5
352(10) 0.00965 342.3 4.5
359(10) 0.00898 342.4 4.5
340(10) 0.00946 342.4 4.5
348(10) 0.00898 342.4 4.5
339(10) 0.00922 342.4 4.5
333(9) 0.01013 342.5 4.6
362(10) 0.00874 342.5 4.6
344(10) 0.00899 342.5 4.6
329(10) 0.00974 342.6 4.6
358(10) 0.00932 342.6 4.7
330(10) 0.01007 342.6 4.7
351(10) 0.00862 342.7 4.7
353(10) 0.00852 342.7 4.8
322(10) 0.01000 342.7 4.8
335(10) 0.00993 342.8 4.9
352(10) 0.00974 342.8 4.9
344(10) 0.00925 342.8 5.0
343(10) 0.00877 342.9 5.0
324(9) 0.01009 342.9 5.1
327(9) 0.01012 342.9 5.1
356(10) 0.00962 343.0 5.2
370(10) 0.00869 343.0 5.3
362(11) 0.00791 343.0 5.4
361(10) 0.00854 343.1 5.5
352(10) 0.00954 343.1 5.5
356(10) 0.00958 343.1 5.6
351(10) 0.00916 343.2 5.7
363(11) 0.00812 343.2 5.8
310(10) 0.01003 343.2 5.9
346(10) 0.00981 343.3 6.1
341(10) 0.00974 343.3 6.2
364(10) 0.00878 343.3 6.3
364(10) 0.00883 343.4 6.5
357(10) 0.00900 343.4 6.6
374(10) 0.00916 343.4 6.8
388(10) 0.00861 343.5 7.0
356(10) 0.00898 343.5 7.2
344(10) 0.00895 343.5 7.4
325(10) 0.00953 343.6 7.6
336(10) 0.01006 343.6 7.8
351(10) 0.00923 343.6 8.1
346(10) 0.00917 343.7 8.3
342(10) 0.00898 343.7 8.6
337(10) 0.00940 343.7 9.0
362(10) 0.00949 343.8 9.3
356(10) 0.00890 343.8 9.7
372(10) 0.00842 343.8 10.0
362(10) 0.00898 343.9 10.5
352(10) 0.00939 343.9 10.9
341(10) 0.00990 343.9 11.4
370(10) 0.00857 344.0 11.9
359(10) 0.00871 344.0 12.5
348(10) 0.00899 344.0 13.0
353(10) 0.00933 344.1 13.7
360(10) 0.00941 344.1 14.3
356(10) 0.00907 344.1 15.0
362(10) 0.00851 344.2 15.7
364(10) 0.00886 344.2 16.5
369(10) 0.00908 344.2 17.2
344(10) 0.00993 344.2 18.0
359(10) 0.00891 344.3 18.9
357(10) 0.00843 344.3 19.7
343(10) 0.00958 344.3 20.6
369(10) 0.00898 344.4 21.5
370(10) 0.00930 344.4 22.4
398(11) 0.00814 344.4 23.3
386(11) 0.00806 344.5 24.2
383(10) 0.00864 344.5 25.1
393(10) 0.00860 344.5 26.0
369(10) 0.00920 344.6 26.9
379(10) 0.00848 344.6 27.9
356(10) 0.00857 344.6 28.9
355(10) 0.00923 344.7 29.9
358(10) 0.00946 344.7 30.9
369(10) 0.00930 344.7 32.0
386(11) 0.00831 344.8 33.2
378(11) 0.00778 344.8 34.3
398(11) 0.00808 344.8 35.6
369(10) 0.00936 344.9 36.9
369(10) 0.00917 344.9 38.3
385(11) 0.00827 344.9 39.6
370(11) 0.00822 345.0 41.0
376(11) 0.00829 345.0 42.4
377(10) 0.00896 345.0 43.8
390(10) 0.00859 345.1 45.2
390(11) 0.00835 345.1 46.6
404(11) 0.00782 345.1 47.9
384(10) 0.00855 345.2 49.2
380(10) 0.00900 345.2 50.4
381(10) 0.00869 345.2 51.4
423(11) 0.00729 345.3 52.3
374(11) 0.00833 345.3 53.1
364(10) 0.00891 345.3 53.6
390(10) 0.00876 345.4 54.1
404(11) 0.00832 345.4 54.3
390(11) 0.00815 345.4 54.3
372(10) 0.00839 345.5 54.2
357(10) 0.00935 345.5 53.9
406(10) 0.00854 345.5 53.5
408(11) 0.00799 345.6 53.0
391(11) 0.00807 345.6 52.5
410(11) 0.00777 345.6 51.8
400(11) 0.00830 345.7 51.2
385(10) 0.00887 345.7 50.7
416(11) 0.00789 345.7 50.1
365(10) 0.00879 345.8 49.7
384(11) 0.00819 345.8 49.4
375(10) 0.00895 345.8 49.2
376(10) 0.00907 345.9 49.2
400(11) 0.00821 345.9 49.3
400(11) 0.00788 345.9 49.7
385(10) 0.00842 346.0 50.2
422(11) 0.00819 346.0 50.8
416(11) 0.00817 346.0 51.6
423(11) 0.00772 346.1 52.5
451(12) 0.00677 346.1 53.4
417(11) 0.00787 346.1 54.3
413(11) 0.00822 346.2 55.0
437(11) 0.00779 346.2 55.5
433(11) 0.00750 346.2 55.6
431(11) 0.00713 346.2 55.4
435(11) 0.00751 346.3 54.8
427(11) 0.00814 346.3 53.9
413(11) 0.00837 346.3 52.7
422(11) 0.00779 346.4 51.5
432(12) 0.00679 346.4 50.2
400(11) 0.00795 346.4 49.0
412(11) 0.00837 346.5 48.0
412(11) 0.00830 346.5 47.1
436(11) 0.00745 346.5 46.4
391(11) 0.00800 346.6 45.8
389(11) 0.00821 346.6 45.1
435(11) 0.00794 346.6 44.1
417(11) 0.00817 346.7 43.0
403(11) 0.00807 346.7 41.9
418(11) 0.00712 346.7 40.8
384(11) 0.00826 346.8 39.9
384(10) 0.00892 346.8 39.3
369(10) 0.00883 346.8 38.9
399(11) 0.00775 346.9 38.8
399(11) 0.00783 346.9 38.8
394(11) 0.00822 346.9 39.1
427(11) 0.00804 347.0 39.4
422(11) 0.00816 347.0 39.8
398(11) 0.00819 347.0 40.3
397(11) 0.00815 347.1 40.8
415(11) 0.00783 347.1 41.4
396(10) 0.00863 347.1 42.0
420(11) 0.00795 347.2 42.5
405(11) 0.00798 347.2 43.1
381(10) 0.00857 347.2 43.6
414(11) 0.00814 347.3 44.1
416(11) 0.00830 347.3 44.5
401(11) 0.00813 347.3 44.9
393(11) 0.00807 347.4 45.2
404(11) 0.00792 347.4 45.5
388(10) 0.00863 347.4 45.7
407(11) 0.00838 347.5 45.8
401(11) 0.00821 347.5 45.8
396(11) 0.00764 347.5 45.7
386(10) 0.00851 347.6 45.6
412(11) 0.00810 347.6 45.3
388(10) 0.00880 347.6 45.0
419(11) 0.00769 347.7 44.5
422(11) 0.00714 347.7 44.0
387(11) 0.00832 347.7 43.4
354(10) 0.00955 347.8 42.7
411(11) 0.00838 347.8 42.0
341(10) 0.00959 347.8 41.2
376(11) 0.00799 347.9 40.3
368(10) 0.00885 347.9 39.5
399(10) 0.00845 347.9 38.6
409(10) 0.00840 348.0 37.6
383(10) 0.00852 348.0 36.7
403(11) 0.00720 348.0 35.8
375(10) 0.00867 348.1 34.8
371(10) 0.00925 348.1 33.9
354(10) 0.00965 348.1 33.0
360(10) 0.00890 348.2 32.1
376(11) 0.00772 348.2 31.2
366(10) 0.00872 348.2 30.3
367(10) 0.00926 348.3 29.5
366(10) 0.00893 348.3 28.6
377(10) 0.00843 348.3 27.8
386(11) 0.00781 348.3 27.0
370(10) 0.00871 348.4 26.3
388(10) 0.00880 348.4 25.5
357(10) 0.00918 348.4 24.8
358(10) 0.00901 348.5 24.1
377(11) 0.00804 348.5 23.4
365(10) 0.00873 348.5 22.8
378(10) 0.00899 348.6 22.2
388(10) 0.00857 348.6 21.6
353(10) 0.00900 348.6 21.0
368(10) 0.00868 348.7 20.5
352(10) 0.00930 348.7 19.9
372(10) 0.00914 348.7 19.4
382(11) 0.00837 348.8 18.9
384(11) 0.00797 348.8 18.5
363(10) 0.00865 348.8 18.0
358(10) 0.00914 348.9 17.6
377(10) 0.00910 348.9 17.2
382(10) 0.00843 348.9 16.8
382(10) 0.00848 349.0 16.4
365(10) 0.00868 349.0 16.1
347(10) 0.00930 349.0 15.8
348(10) 0.00980 349.1 15.4
340(10) 0.00944 349.1 15.1
379(11) 0.00779 349.1 14.9
369(10) 0.00874 349.2 14.6
368(10) 0.00887 349.2 14.4
362(10) 0.00941 349.2 14.2
379(10) 0.00844 349.3 14.0
372(10) 0.00843 349.3 13.8
385(11) 0.00818 349.3 13.7
364(10) 0.00920 349.4 13.5
380(10) 0.00898 349.4 13.4
378(10) 0.00863 349.4 13.3
372(11) 0.00793 349.5 13.3
363(10) 0.00876 349.5 13.2
371(10) 0.00904 349.5 13.2
323(9) 0.01055 349.6 13.2
373(10) 0.00843 349.6 13.2
339(10) 0.00881 349.6 13.2
347(10) 0.00949 349.7 13.3
359(10) 0.00922 349.7 13.4
362(10) 0.00943 349.7 13.5
375(10) 0.00864 349.8 13.6
374(11) 0.00817 349.8 13.7
346(10) 0.00948 349.8 13.8
376(10) 0.00903 349.9 13.9
359(10) 0.00944 349.9 14.1
382(11) 0.00828 349.9 14.2
357(10) 0.00877 350.0 14.3
366(10) 0.00896 350.0 14.4
353(10) 0.00971 350.0 14.5
367(10) 0.00908 350.1 14.6
370(10) 0.00842 350.1 14.6
352(10) 0.00880 350.1 14.7
359(10) 0.00878 350.2 14.8
389(10) 0.00873 350.2 15.0
352(10) 0.00951 350.2 15.2
366(10) 0.00851 350.3 15.5
371(11) 0.00807 350.3 15.9
371(10) 0.00870 350.3 16.4
402(10) 0.00860 350.3 17.1
370(10) 0.00856 350.4 18.1
357(10) 0.00900 350.4 19.3
394(11) 0.00803 350.4 20.7
386(10) 0.00873 350.5 22.4
391(10) 0.00879 350.5 24.4
398(11) 0.00817 350.5 26.6
360(10) 0.00895 350.6 29.0
369(10) 0.00843 350.6 31.5
390(11) 0.00836 350.6 33.9
391(10) 0.00870 350.7 36.0
375(10) 0.00866 350.7 37.6
389(11) 0.00834 350.7 38.5
395(11) 0.00796 350.8 38.4
388(10) 0.00874 350.8 37.4
402(10) 0.00856 350.8 35.6
392(11) 0.00813 350.9 33.3
371(10) 0.00855 350.9 30.6
384(10) 0.00851 350.9 27.9
372(10) 0.00908 351.0 25.3
353(10) 0.00960 351.0 22.8
366(10) 0.00860 351.0 20.6
362(10) 0.00846 351.1 18.6
379(10) 0.00848 351.1 16.9
384(10) 0.00898 351.1 15.5
373(10) 0.00918 351.2 14.3
389(11) 0.00825 351.2 13.3
375(11) 0.00805 351.2 12.5
360(10) 0.00922 351.3 11.9
382(10) 0.00891 351.3 11.5
375(10) 0.00921 351.3 11.1
361(10) 0.00928 351.4 10.9
403(11) 0.00759 351.4 10.7
379(10) 0.00856 351.4 10.6
366(10) 0.00930 351.5 10.6
350(10) 0.00954 351.5 10.6
345(10) 0.00928 351.5 10.7
365(11) 0.00812 351.6 10.8
361(10) 0.00869 351.6 10.9
347(10) 0.00979 351.6 11.1
349(10) 0.00949 351.7 11.3
376(11) 0.00838 351.7 11.6
359(10) 0.00874 351.7 11.9
343(10) 0.00947 351.8 12.3
357(10) 0.00961 351.8 12.8
382(10) 0.00874 351.8 13.4
392(11) 0.00829 351.9 14.0
387(11) 0.00800 351.9 14.8
377(10) 0.00855 351.9 15.8
382(10) 0.00891 352.0 17.0
372(10) 0.00879 352.0 18.4
355(10) 0.00874 352.0 20.2
375(11) 0.00831 352.1 22.4
373(10) 0.00868 352.1 25.0
381(10) 0.00900 352.1 28.3
426(11) 0.00756 352.2 32.2
422(11) 0.00744 352.2 36.9
411(11) 0.00776 352.2 42.4
396(11) 0.00820 352.3 48.8
412(11) 0.00836 352.3 56.0
414(11) 0.00785 352.3 64.0
431(11) 0.00751 352.3 72.5
453(11) 0.00718 352.4 81.2
450(11) 0.00758 352.4 89.7
449(11) 0.00778 352.4 97.1
494(12) 0.00662 352.5 102.8
462(12) 0.00672 352.5 105.9
455(11) 0.00712 352.5 105.9
528(12) 0.00654 352.6 102.9
477(11) 0.00732 352.6 97.3
480(12) 0.00683 352.6 90.0
421(11) 0.00739 352.7 81.8
398(11) 0.00782 352.7 73.3
419(11) 0.00816 352.7 65.1
419(11) 0.00820 352.8 57.4
408(11) 0.00761 352.8 50.5
375(11) 0.00803 352.8 44.4
399(11) 0.00813 352.9 39.2
384(10) 0.00896 352.9 34.8
408(10) 0.00840 352.9 31.1
369(10) 0.00865 353.0 28.1
357(10) 0.00857 353.0 25.7
384(10) 0.00861 353.0 23.8
368(10) 0.00916 353.1 22.3
383(10) 0.00899 353.1 21.1
378(10) 0.00874 353.1 20.2
378(11) 0.00805 353.2 19.5
379(10) 0.00845 353.2 18.9
363(10) 0.00946 353.2 18.5
383(10) 0.00872 353.3 18.2
365(10) 0.00869 353.3 17.9
383(11) 0.00817 353.3 17.7
410(11) 0.00781 353.4 17.6
390(10) 0.00887 353.4 17.5
372(10) 0.00901 353.4 17.5
359(10) 0.00872 353.5 17.4
387(11) 0.00802 353.5 17.4
351(10) 0.00920 353.5 17.5
400(10) 0.00860 353.6 17.5
386(10) 0.00861 353.6 17.6
396(11) 0.00802 353.6 17.7
336(10) 0.00966 353.7 17.8
357(10) 0.00906 353.7 17.9
353(10) 0.00964 353.7 18.0
361(10) 0.00911 353.8 18.1
380(11) 0.00836 353.8 18.3
384(11) 0.00800 353.8 18.4
373(10) 0.00862 353.9 18.5
349(10) 0.00975 353.9 18.6
385(11) 0.00831 353.9 18.8
358(10) 0.00847 354.0 18.9
326(10) 0.00982 354.0 19.0
345(10) 0.00957 354.0 19.1
366(10) 0.00936 354.1 19.2
368(10) 0.00870 354.1 19.3
355(10) 0.00872 354.1 19.4
348(10) 0.00923 354.2 19.5
375(10) 0.00909 354.2 19.6
360(10) 0.00955 354.2 19.7
373(10) 0.00860 354.3 19.7
378(11) 0.00804 354.3 19.8
364(10) 0.00893 354.3 19.8
375(10) 0.00908 354.4 19.8
358(10) 0.00945 354.4 19.9
392(11) 0.00828 354.4 19.9
378(11) 0.00807 354.4 19.9
372(10) 0.00879 354.5 19.9
364(10) 0.00936 354.5 19.9
371(10) 0.00914 354.5 19.8
342(10) 0.00923 354.6 19.8
341(10) 0.00873 354.6 19.8
359(10) 0.00881 354.6 19.7
390(10) 0.00882 354.7 19.7
362(10) 0.00944 354.7 19.6
367(10) 0.00891 354.7 19.5
350(10) 0.00849 354.8 19.4
362(10) 0.00872 354.8 19.4
362(10) 0.00933 354.8 19.3
377(10) 0.00905 354.9 19.2
348(10) 0.00894 354.9 19.1
361(10) 0.00841 354.9 19.0
354(10) 0.00889 355.0 18.9
345(10) 0.00990 355.0 18.7
386(10) 0.00860 355.0 18.6
391(11) 0.00827 355.1 18.5
373(11) 0.00819 355.1 18.3
330(10) 0.00973 355.1 18.2
361(10) 0.00942 355.2 18.1
362(10) 0.00902 355.2 17.9
356(10) 0.00875 355.2 17.8
363(10) 0.00893 355.3 17.6
393(11) 0.00804 355.3 17.5
355(10) 0.00974 355.3 17.4
380(11) 0.00835 355.4 17.2
362(10) 0.00866 355.4 17.0
385(11) 0.00798 355.4 16.9
363(10) 0.00908 355.5 16.8
383(10) 0.00897 355.5 16.6
365(10) 0.00893 355.5 16.5
380(11) 0.00834 355.6 16.4
376(10) 0.00859 355.6 16.3
366(10) 0.00899 355.6 16.2
350(10) 0.00973 355.7 16.1
350(10) 0.00915 355.7 16.0
318(10) 0.00977 355.7 15.9
373(11) 0.00818 355.8 15.8
367(10) 0.00905 355.8 15.8
350(10) 0.00967 355.8 15.7
363(10) 0.00890 355.9 15.7
359(10) 0.00840 355.9 15.6
367(10) 0.00875 355.9 15.6
355(10) 0.00952 356.0 15.6
362(10) 0.00946 356.0 15.5
375(10) 0.00841 356.0 15.5
361(11) 0.00822 356.1 15.6
358(10) 0.00898 356.1 15.6
346(10) 0.00977 356.1 15.6
357(10) 0.00953 356.2 15.7
385(11) 0.00825 356.2 15.7
364(11) 0.00825 356.2 15.8
354(10) 0.00866 356.3 15.8
377(10) 0.00914 356.3 15.9
371(10) 0.00909 356.3 16.0
359(10) 0.00891 356.4 16.0
347(10) 0.00864 356.4 16.1
368(10) 0.00859 356.4 16.2
373(10) 0.00927 356.4 16.3
387(10) 0.00877 356.5 16.4
374(10) 0.00868 356.5 16.5
367(10) 0.00844 356.5 16.6
379(10) 0.00857 356.6 16.7
394(10) 0.00868 356.6 16.8
367(10) 0.00930 356.6 16.8
387(11) 0.00828 356.7 16.9
341(10) 0.00949 356.7 17.0
396(11) 0.00817 356.7 17.1
373(10) 0.00919 356.8 17.1
368(10) 0.00879 356.8 17.2
372(10) 0.00850 356.8 17.2
361(10) 0.00899 356.9 17.2
386(10) 0.00851 356.9 17.2
387(10) 0.00890 356.9 17.2
380(10) 0.00840 357.0 17.2
363(10) 0.00873 357.0 17.1
357(10) 0.00900 357.0 17.1
362(10) 0.00910 357.1 17.0
365(10) 0.00943 357.1 16.9
360(10) 0.00916 357.1 16.7
366(10) 0.00873 357.2 16.6
381(11) 0.00831 357.2 16.4
342(10) 0.00943 357.2 16.2
351(10) 0.00962 357.3 16.0
355(10) 0.00923 357.3 15.8
371(10) 0.00859 357.3 15.6
389(11) 0.00803 357.4 15.3
367(10) 0.00882 357.4 15.1
377(10) 0.00914 357.4 14.8
367(10) 0.00878 357.5 14.5
366(11) 0.00818 357.5 14.3
355(10) 0.00891 357.5 14.0
390(10) 0.00850 357.6 13.7
383(10) 0.00888 357.6 13.4
376(10) 0.00846 357.6 13.2
368(11) 0.00820 357.7 12.9
345(10) 0.00945 357.7 12.6
356(10) 0.00937 357.7 12.4
344(10) 0.00990 357.8 12.1
352(10) 0.00933 357.8 11.9
365(10) 0.00846 357.8 11.7
337(10) 0.00970 357.9 11.5
370(10) 0.00897 357.9 11.3
368(10) 0.00931 357.9 11.1
376(10) 0.00863 358.0 11.0
376(11) 0.00799 358.0 10.8
376(10) 0.00860 358.0 10.7
352(10) 0.00966 358.1 10.7
346(10) 0.00972 358.1 10.6
378(10) 0.00852 358.1 10.7
343(10) 0.00934 358.2 10.8
370(10) 0.00883 358.2 11.0
385(10) 0.00893 358.2 11.4
377(10) 0.00893 358.3 12.1
386(11) 0.00836 358.3 13.1
367(10) 0.00844 358.3 14.5
375(10) 0.00869 358.4 16.6
366(10) 0.00929 358.4 19.4
412(11) 0.00814 358.4 22.9
382(10) 0.00860 358.4 27.0
405(11) 0.00777 358.5 31.4
443(11) 0.00711 358.5 35.5
422(11) 0.00823 358.5 38.5
415(11) 0.00792 358.6 39.5
376(10) 0.00859 358.6 38.0
402(11) 0.00773 358.6 34.7
379(10) 0.00871 358.7 30.3
381(10) 0.00892 358.7 25.8
388(10) 0.00852 358.7 21.7
378(11) 0.00836 358.8 18.2
381(11) 0.00824 358.8 15.4
377(10) 0.00866 358.8 13.3
352(10) 0.00970 358.9 11.8
368(10) 0.00866 358.9 10.7
346(10) 0.00892 358.9 10.0
345(10) 0.00955 359.0 9.5
353(10) 0.00941 359.0 9.2
365(10) 0.00938 359.0 9.0
350(10) 0.00919 359.1 8.9
348(10) 0.00876 359.1 8.8
358(10) 0.00886 359.1 8.8
351(10) 0.00971 359.2 8.8
372(10) 0.00928 359.2 8.8
375(10) 0.00853 359.2 8.9
365(10) 0.00853 359.3 9.0
352(10) 0.00918 359.3 9.1
366(10) 0.00925 359.3 9.2
350(10) 0.00976 359.4 9.4
388(10) 0.00845 359.4 9.5
387(11) 0.00781 359.4 9.7
347(10) 0.00930 359.5 9.9
380(10) 0.00887 359.5 10.2
379(10) 0.00903 359.5 10.4
367(10) 0.00865 359.6 10.7
351(10) 0.00851 359.6 11.0
348(10) 0.00943 359.6 11.3
372(10) 0.00915 359.7 11.6
345(10) 0.00968 359.7 12.0
345(10) 0.00916 359.7 12.4
370(11) 0.00829 359.8 12.7
373(10) 0.00865 359.8 13.2
365(10) 0.00936 359.8 13.6
388(10) 0.00890 359.9 14.0
365(10) 0.00878 359.9 14.5
364(10) 0.00851 359.9 14.9
382(11) 0.00835 360.0 15.4
340(10) 0.01001 360.0 15.9
356(10) 0.00938 360.0 16.4
377(11) 0.00816 360.1 16.9
376(11) 0.00806 360.1 17.4
371(10) 0.00852 360.1 17.9
374(10) 0.00919 360.2 18.4
359(10) 0.00925 360.2 18.8
370(10) 0.00866 360.2 19.4
375(11) 0.00833 360.3 19.9
370(10) 0.00904 360.3 20.3
382(10) 0.00888 360.3 20.7
351(10) 0.00951 360.4 21.1
377(10) 0.00868 360.4 21.5
408(11) 0.00762 360.4 21.9
372(10) 0.00875 360.4 22.2
360(10) 0.00954 360.5 22.4
404(11) 0.00794 360.5 22.7
383(11) 0.00823 360.5 22.9
380(11) 0.00816 360.6 23.0
358(10) 0.00916 360.6 23.1
375(10) 0.00910 360.6 23.1
377(10) 0.00843 360.7 23.1
355(10) 0.00872 360.7 23.0
334(10) 0.00939 360.7 22.8
356(10) 0.00926 360.8 22.6
371(10) 0.00933 360.8 22.4
380(10) 0.00857 360.8 22.1
376(11) 0.00809 360.9 21.7
335(10) 0.00958 360.9 21.4
351(10) 0.00948 360.9 21.0
345(10) 0.00988 361.0 20.7
391(11) 0.00813 361.0 20.3
371(11) 0.00829 361.0 19.9
366(10) 0.00886 361.1 19.6
395(10) 0.00864 361.1 19.3
374(10) 0.00919 361.1 19.1
372(10) 0.00848 361.2 18.9
383(11) 0.00757 361.2 18.8
362(10) 0.00894 361.2 18.7
363(10) 0.00926 361.3 18.8
346(10) 0.00984 361.3 19.0
373(10) 0.00859 361.3 19.4
380(11) 0.00809 361.4 19.9
387(10) 0.00847 361.4 20.8
407(10) 0.00850 361.4 22.1
357(10) 0.00944 361.5 23.9
386(11) 0.00818 361.5 26.3
367(10) 0.00842 361.5 29.5
386(11) 0.00821 361.6 33.7
420(11) 0.00817 361.6 38.8
396(10) 0.00840 361.6 45.0
390(11) 0.00831 361.7 52.2
405(11) 0.00742 361.7 60.1
388(11) 0.00818 361.7 68.3
397(10) 0.00863 361.8 76.0
401(11) 0.00832 361.8 82.1
404(11) 0.00785 361.8 85.3
438(12) 0.00706 361.9 85.1
449(12) 0.00703 361.9 81.3
443(11) 0.00773 361.9 75.1
409(11) 0.00812 362.0 67.6
392(11) 0.00808 362.0 59.8
380(10) 0.00852 362.0 52.5
420(11) 0.00773 362.1 46.2
382(10) 0.00884 362.1 40.9
372(10) 0.00872 362.1 36.7
390(11) 0.00807 362.2 33.7
384(11) 0.00832 362.2 31.7
357(10) 0.00923 362.2 30.7
413(11) 0.00834 362.3 30.5
375(11) 0.00837 362.3 31.0
399(11) 0.00748 362.3 32.1
388(11) 0.00820 362.4 33.7
406(11) 0.00837 362.4 35.7
404(10) 0.00850 362.4 38.1
410(11) 0.00779 362.5 40.8
388(11) 0.00791 362.5 43.6
390(11) 0.00814 362.5 46.3
439(11) 0.00757 362.5 48.9
395(10) 0.00873 362.6 50.9
415(11) 0.00777 362.6 52.3
407(11) 0.00785 362.6 53.0
386(10) 0.00842 362.7 52.8
386(10) 0.00875 362.7 52.0
386(10) 0.00899 362.7 50.7
420(11) 0.00765 362.8 49.2
400(11) 0.00772 362.8 47.6
401(11) 0.00795 362.8 46.1
413(11) 0.00834 362.9 44.8
429(11) 0.00802 362.9 43.6
403(11) 0.00821 362.9 42.7
429(11) 0.00709 363.0 42.0
427(11) 0.00749 363.0 41.6
392(10) 0.00869 363.0 41.2
397(10) 0.00869 363.1 41.0
404(11) 0.00802 363.1 40.7
401(11) 0.00772 363.1 40.5
378(10) 0.00865 363.2 40.2
399(10) 0.00858 363.2 39.8
346(10) 0.00992 363.2 39.2
398(11) 0.00796 363.3 38.5
374(10) 0.00866 363.3 37.6
377(10) 0.00883 363.3 36.5
405(10) 0.00847 363.4 35.3
328(10) 0.01006 363.4 34.0
401(11) 0.00790 363.4 32.6
383(11) 0.00832 363.5 31.1
368(10) 0.00867 363.5 29.7
397(10) 0.00869 363.5 28.2
392(10) 0.00840 363.6 26.7
363(10) 0.00890 363.6 25.2
377(11) 0.00817 363.6 23.8
395(11) 0.00837 363.7 22.4
377(10) 0.00897 363.7 21.1
352(10) 0.00940 363.7 19.9
360(10) 0.00844 363.8 18.7
354(10) 0.00884 363.8 17.6
349(10) 0.00960 363.8 16.6
392(10) 0.00872 363.9 15.7
346(10) 0.00907 363.9 14.8
364(10) 0.00861 363.9 14.0
367(10) 0.00895 364.0 13.2
364(10) 0.00931 364.0 12.5
348(10) 0.00970 364.0 11.9
352(10) 0.00889 364.1 11.3
356(10) 0.00892 364.1 10.8
370(10) 0.00874 364.1 10.4
375(10) 0.00880 364.2 9.9
370(10) 0.00909 364.2 9.6
360(10) 0.00868 364.2 9.2
378(11) 0.00811 364.3 8.9
368(10) 0.00880 364.3 8.6
374(10) 0.00919 364.3 8.4
351(10) 0.00973 364.4 8.2
365(10) 0.00880 364.4 8.0
364(11) 0.00822 364.4 7.8
403(11) 0.00780 364.5 7.6
399(10) 0.00859 364.5 7.5
358(10) 0.00947 364.5 7.4
359(10) 0.00892 364.5 7.4
383(11) 0.00775 364.6 7.3
343(10) 0.00913 364.6 7.2
356(10) 0.00954 364.6 7.2
342(10) 0.00973 364.7 7.1
348(10) 0.00899 364.7 7.1
371(11) 0.00813 364.7 7.1
377(10) 0.00856 364.8 7.1
402(10) 0.00858 364.8 7.1
340(10) 0.00952 364.8 7.1
345(10) 0.00897 364.9 7.1
354(10) 0.00855 364.9 7.1
388(11) 0.00824 364.9 7.2
382(10) 0.00886 365.0 7.2
352(10) 0.00959 365.0 7.3
354(10) 0.00908 365.0 7.4
404(11) 0.00762 365.1 7.5
406(11) 0.00763 365.1 7.6
380(10) 0.00901 365.1 7.7
351(10) 0.00920 365.2 7.8
358(10) 0.00881 365.2 8.0
358(10) 0.00894 365.2 8.1
367(10) 0.00888 365.3 8.3
377(10) 0.00914 365.3 8.5
366(10) 0.00884 365.3 8.7
377(11) 0.00815 365.2 8.9
370(10) 0.00841 365.2 9.1
385(10) 0.00846 365.1 9.4
365(10) 0.00933 365.1 9.6
361(10) 0.00906 365.0 9.9
353(10) 0.00914 364.9 10.2
349(10) 0.00907 364.9 10.4
361(10) 0.00893 364.8 10.7
393(10) 0.00851 364.8 11.0
345(10) 0.00931 364.7 11.4
381(11) 0.00779 364.7 11.7
367(10) 0.00883 364.6 12.0
348(10) 0.00968 364.5 12.3
387(10) 0.00896 364.5 12.6
364(10) 0.00925 364.4 12.9
373(10) 0.00851 364.4 13.1
360(10) 0.00914 364.3 13.4
350(10) 0.00943 364.3 13.6
385(10) 0.00886 364.2 13.9
329(10) 0.00990 364.1 14.0
368(11) 0.00803 364.1 14.2
340(10) 0.00957 364.0 14.3
337(10) 0.00986 364.0 14.4
342(10) 0.00992 363.9 14.5
370(10) 0.00865 363.9 14.5
375(11) 0.00779 363.8 14.5
363(10) 0.00856 363.7 14.4
351(10) 0.00961 363.7 14.4
386(10) 0.00889 363.6 14.3
387(11) 0.00837 363.6 14.2
393(11) 0.00779 363.5 14.1
369(10) 0.00860 363.4 14.0
366(10) 0.00945 363.4 13.9
336(10) 0.01001 363.3 13.8
356(10) 0.00879 363.3 13.7
359(11) 0.00838 363.2 13.7
361(10) 0.00860 363.2 13.6
403(10) 0.00849 363.1 13.6
381(10) 0.00861 363.0 13.6
356(10) 0.00845 363.0 13.7
384(11) 0.00803 362.9 13.8
392(11) 0.00804 362.9 13.9
360(10) 0.00942 362.8 14.2
366(10) 0.00907 362.8 14.5
370(10) 0.00874 362.7 14.9
367(10) 0.00861 362.6 15.4
396(11) 0.00819 362.6 16.1
344(10) 0.00985 362.5 16.9
343(10) 0.00929 362.5 17.9
359(10) 0.00887 362.4 19.0
375(10) 0.00867 362.4 20.4
415(11) 0.00798 362.3 22.0
386(10) 0.00888 362.2 23.9
388(11) 0.00817 362.2 26.0
392(11) 0.00796 362.1 28.4
390(11) 0.00816 362.1 31.2
402(11) 0.00801 362.0 34.2
387(10) 0.00888 361.9 37.6
383(10) 0.00844 361.9 41.7
418(11) 0.00751 361.8 46.8
445(11) 0.00726 361.8 53.7
422(11) 0.00818 361.7 63.5
454(11) 0.00764 361.7 77.6
441(11) 0.00775 361.6 97.6
489(12) 0.00638 361.5 124.9
525(12) 0.00613 361.5 160.2
599(13) 0.00578 361.4 202.1
702(14) 0.00506 361.4 246.5
660(14) 0.00495 361.3 284.8
634(14) 0.00496 361.3 305.6
637(14) 0.00520 361.2 300.2
591(13) 0.00597 361.1 270.4
537(12) 0.00657 361.1 226.7
528(12) 0.00619 361.0 180.0
471(12) 0.00651 361.0 137.5
472(12) 0.00688 360.9 102.6
425(11) 0.00807 360.9 76.3
404(10) 0.00856 360.8 57.7
416(11) 0.00801 360.7 45.3
409(11) 0.00747 360.7 37.3
394(11) 0.00810 360.6 32.2
384(10) 0.00887 360.6 28.9
376(10) 0.00911 360.5 26.7
371(11) 0.00838 360.4 25.2
376(11) 0.00823 360.4 24.1
386(10) 0.00859 360.3 23.3
395(10) 0.00863 360.3 22.8
404(11) 0.00823 360.2 22.4
393(11) 0.00812 360.2 22.2
379(11) 0.00837 360.1 22.2
390(11) 0.00832 360.0 22.3
387(10) 0.00881 360.0 22.4
387(10) 0.00868 359.9 22.7
380(10) 0.00841 359.9 23.1
389(11) 0.00816 359.8 23.5
395(11) 0.00833 359.8 24.1
386(10) 0.00885 359.7 24.7
369(10) 0.00916 359.6 25.4
370(10) 0.00872 359.6 26.2
381(11) 0.00815 359.5 27.0
414(11) 0.00792 359.5 28.0
369(10) 0.00913 359.4 29.0
380(10) 0.00842 359.4 30.0
354(10) 0.00894 359.3 31.1
362(10) 0.00862 359.2 32.3
359(10) 0.00928 359.2 33.6
363(10) 0.00933 359.1 34.9
398(11) 0.00819 359.1 36.4
405(11) 0.00773 359.0 37.8
384(11) 0.00833 359.0 39.3
372(10) 0.00901 358.9 40.9
390(10) 0.00871 358.8 42.5
398(11) 0.00795 358.8 44.2
397(11) 0.00757 358.7 45.9
409(11) 0.00733 358.7 47.7
393(10) 0.00849 358.6 49.5
398(10) 0.00867 358.5 51.3
407(11) 0.00797 358.5 53.1
424(11) 0.00708 358.4 55.0
385(10) 0.00856 358.4 56.9
413(11) 0.00835 358.3 58.8
402(10) 0.00860 358.3 60.7
389(11) 0.00796 358.2 62.6
411(11) 0.00734 358.1 64.6
446(11) 0.00730 358.1 66.6
423(11) 0.00810 358.0 68.7
425(11) 0.00799 358.0 70.9
421(11) 0.00776 357.9 73.3
418(11) 0.00719 357.9 75.8
436(11) 0.00741 357.8 78.5
432(11) 0.00800 357.7 81.4
444(11) 0.00758 357.7 84.7
477(12) 0.00687 357.6 88.2
472(12) 0.00657 357.6 92.1
466(12) 0.00691 357.5 96.3
471(11) 0.00749 357.5 100.9
480(12) 0.00705 357.4 105.8
520(12) 0.00614 357.3 111.0
503(12) 0.00631 357.3 116.3
535(12) 0.00612 357.2 121.6
527(12) 0.00663 357.2 126.6
511(12) 0.00675 357.1 131.2
547(13) 0.00593 357.0 135.0
504(12) 0.00648 357.0 137.6
487(12) 0.00679 356.9 138.8
499(12) 0.00698 356.9 138.3
472(11) 0.00714 356.8 136.2
482(12) 0.00653 356.8 132.4
498(12) 0.00643 356.7 127.4
474(12) 0.00704 356.6 121.4
478(11) 0.00735 356.6 114.7
470(12) 0.00707 356.5 107.7
471(12) 0.00673 356.5 100.7
447(11) 0.00730 356.4 93.8
454(11) 0.00739 356.4 87.1
445(11) 0.00785 356.3 80.8
419(11) 0.00770 356.2 75.0
401(11) 0.00779 356.2 69.6
428(11) 0.00756 356.1 64.7
411(11) 0.00823 356.1 60.2
418(11) 0.00823 356.0 56.2
390(11) 0.00826 356.0 52.6
395(11) 0.00790 355.9 49.3
395(11) 0.00838 355.8 46.5
416(11) 0.00810 355.8 43.9
378(10) 0.00910 355.7 41.7
389(11) 0.00819 355.7 39.6
392(11) 0.00777 355.6 37.9
380(11) 0.00828 355.5 36.3
400(10) 0.00851 355.5 34.9
380(10) 0.00894 355.4 33.6
382(11) 0.00794 355.4 32.4
354(10) 0.00851 355.3 31.4
401(11) 0.00785 355.3 30.5
369(10) 0.00931 355.2 29.6
392(10) 0.00863 355.1 28.9
391(11) 0.00834 355.1 28.2
391(11) 0.00761 355.0 27.6
401(11) 0.00815 355.0 27.1
406(10) 0.00851 354.9 26.6
389(10) 0.00885 354.9 26.3
378(10) 0.00870 354.8 26.0
398(11) 0.00776 354.7 25.8
365(10) 0.00870 354.7 25.6
366(10) 0.00927 354.6 25.6
367(10) 0.00931 354.6 25.7
385(10) 0.00843 354.5 25.8
383(11) 0.00806 354.5 26.2
400(11) 0.00805 354.4 26.6
421(11) 0.00821 354.3 27.3
393(10) 0.00865 354.3 28.2
372(10) 0.00859 354.2 29.4
394(11) 0.00779 354.2 30.9
416(11) 0.00778 354.1 32.7
418(11) 0.00816 354.1 35.1
368(10) 0.00927 354.0 37.9
430(11) 0.00756 353.9 41.4
425(11) 0.00757 353.9 45.5
437(11) 0.00751 353.8 50.3
405(10) 0.00850 353.8 56.0
420(11) 0.00760 353.7 62.5
458(12) 0.00683 353.6 69.8
430(11) 0.00744 353.6 77.8
473(12) 0.00698 353.5 86.6
462(11) 0.00747 353.5 95.9
482(12) 0.00690 353.4 105.4
490(12) 0.00662 353.4 114.7
525(12) 0.00623 353.3 123.3
536(12) 0.00621 353.2 130.6
533(12) 0.00663 353.2 135.8
566(13) 0.00573 353.1 138.4
494(12) 0.00653 353.1 138.2
501(12) 0.00661 353.0 135.2
530(12) 0.00647 353.0 129.6
542(12) 0.00647 352.9 122.1
492(12) 0.00682 352.8 113.3
474(12) 0.00672 352.8 103.7
486(12) 0.00661 352.7 94.0
433(11) 0.00798 352.7 84.4
444(11) 0.00780 352.6 75.3
413(11) 0.00784 352.6 66.9
422(12) 0.00689 352.5 59.2
411(11) 0.00793 352.4 52.3
402(10) 0.00852 352.4 46.2
391(10) 0.00857 352.3 40.9
398(11) 0.00793 352.3 36.3
374(11) 0.00803 352.2 32.4
377(10) 0.00883 352.1 29.1
384(10) 0.00884 352.1 26.3
376(10) 0.00898 352.0 23.9
385(10) 0.00848 352.0 21.9
377(11) 0.00805 351.9 20.2
379(11) 0.00824 351.9 18.8
361(10) 0.00943 351.8 17.5
369(10) 0.00920 351.7 16.5
357(10) 0.00900 351.7 15.6
338(10) 0.00924 351.6 14.9
368(10) 0.00860 351.6 14.2
370(10) 0.00921 351.5 13.7
345(10) 0.00984 351.5 13.2
355(10) 0.00883 351.4 12.8
371(11) 0.00821 351.3 12.4
374(10) 0.00845 351.3 12.1
376(10) 0.00912 351.2 11.8
378(10) 0.00863 351.2 11.6
341(10) 0.00916 351.1 11.4
363(10) 0.00849 351.1 11.3
371(10) 0.00853 351.0 11.1
352(10) 0.00966 350.9 11.1
368(10) 0.00888 350.9 11.0
383(11) 0.00819 350.8 10.9
390(11) 0.00794 350.8 10.9
353(10) 0.00917 350.7 10.9
393(10) 0.00881 350.7 10.8
379(10) 0.00856 350.6 10.8
388(11) 0.00798 350.5 10.8
344(10) 0.00912 350.5 10.7
339(10) 0.00974 350.4 10.6
349(10) 0.00962 350.4 10.5
348(10) 0.00928 350.3 10.4
363(10) 0.00840 350.2 10.2
331(10) 0.00963 350.2 10.1
349(10) 0.00952 350.1 9.9
373(10) 0.00914 350.1 9.7
384(10) 0.00853 350.0 9.5
392(11) 0.00776 350.0 9.3
366(10) 0.00889 349.9 9.1
359(10) 0.00956 349.8 8.9
384(10) 0.00894 349.8 8.7
359(10) 0.00905 349.7 8.5
355(10) 0.00852 349.7 8.3
373(10) 0.00883 349.6 8.1
361(10) 0.00944 349.6 7.9
344(10) 0.00970 349.5 7.7
339(10) 0.00944 349.4 7.5
342(10) 0.00903 349.4 7.4
343(10) 0.00927 349.3 7.2
335(10) 0.00990 349.3 7.0
345(10) 0.00977 349.2 6.9
339(10) 0.00938 349.2 6.7
350(10) 0.00853 349.1 6.5
351(10) 0.00909 349.0 6.4
352(10) 0.00963 349.0 6.3
346(10) 0.00971 348.9 6.1
333(10) 0.00952 348.9 6.0
364(10) 0.00840 348.8 5.8
370(10) 0.00866 348.7 5.7
382(10) 0.00894 348.7 5.6
376(10) 0.00901 348.6 5.4
346(10) 0.00964 348.6 5.3
355(10) 0.00867 348.5 5.2
346(10) 0.00905 348.5 5.1
350(10) 0.00975 348.4 4.9
355(10) 0.00940 348.3 4.8
360(10) 0.00887 348.3 4.7
359(10) 0.00867 348.2 4.6
348(10) 0.00927 348.2 4.5
363(10) 0.00948 348.1 4.4
333(10) 0.00974 348.1 4.4
338(10) 0.00897 348.0 4.3
375(11) 0.00830 347.9 4.2
367(10) 0.00909 347.9 4.1
368(10) 0.00929 347.8 4.1
344(10) 0.00934 347.8 4.0
318(10) 0.00951 347.7 4.0
358(10) 0.00858 347.7 3.9
344(10) 0.00953 347.6 3.9
352(10) 0.00968 347.5 3.8
334(10) 0.00943 347.5 3.8
356(10) 0.00874 347.4 3.8
360(10) 0.00899 347.4 3.7
348(10) 0.00965 347.3 3.7
344(10) 0.00988 347.2 3.7
311(9) 0.01031 347.2 3.6
356(11) 0.00837 347.1 3.6
333(10) 0.00990 347.1 3.6
329(9) 0.01019 347.0 3.6
320(9) 0.01057 347.0 3.6
367(10) 0.00883 346.9 3.6
365(11) 0.00832 346.8 3.5
346(10) 0.00924 346.8 3.5
366(10) 0.00902 346.7 3.5
333(9) 0.01022 346.7 3.5
357(10) 0.00934 346.6 3.5
335(10) 0.00919 346.6 3.5
372(10) 0.00886 346.5 3.5
357(10) 0.00956 346.4 3.5
359(10) 0.00951 346.4 3.5
345(10) 0.00914 346.3 3.5
358(10) 0.00858 346.3 3.5
372(10) 0.00871 346.3 3.5
376(10) 0.00904 346.3 3.5
353(10) 0.00975 346.3 3.5
371(10) 0.00867 346.3 3.5
353(10) 0.00848 346.3 3.5
337(10) 0.00950 346.3 3.5
349(10) 0.00965 346.3 3.5
336(10) 0.01005 346.3 3.6
338(10) 0.00949 346.3 3.6
342(10) 0.00875 346.3 3.6
330(10) 0.00943 346.3 3.6
385(10) 0.00891 346.3 3.6
353(10) 0.00951 346.3 3.7
344(10) 0.00948 346.3 3.7
360(10) 0.00860 346.3 3.7
329(10) 0.00992 346.3 3.7
372(10) 0.00924 346.3 3.8
331(10) 0.00992 346.3 3.8
352(10) 0.00910 346.3 3.8
364(10) 0.00859 346.3 3.9
363(10) 0.00890 346.3 3.9
340(10) 0.00998 346.3 3.9
355(10) 0.00930 346.3 4.0
357(10) 0.00903 346.3 4.0
376(11) 0.00826 346.3 4.1
360(10) 0.00925 346.3 4.1
341(10) 0.00999 346.3 4.2
347(10) 0.00908 346.3 4.2
344(10) 0.00879 346.3 4.3
375(11) 0.00823 346.3 4.3
366(10) 0.00913 346.3 4.4
366(10) 0.00942 346.3 4.5
314(10) 0.00981 346.3 4.5
343(10) 0.00898 346.3 4.6
356(10) 0.00941 346.3 4.7
360(10) 0.00934 346.3 4.8
342(10) 0.00994 346.3 4.9
346(10) 0.00934 346.3 4.9
361(10) 0.00843 346.3 5.0
358(10) 0.00896 346.3 5.1
341(10) 0.00994 346.3 5.2
338(9) 0.01010 346.3 5.4
372(10) 0.00853 346.3 5.5
347(10) 0.00892 346.3 5.6
361(10) 0.00882 346.3 5.7
332(9) 0.01026 346.3 5.8
334(9) 0.01018 346.3 6.0
359(10) 0.00904 346.3 6.1
330(10) 0.00934 346.3 6.3
359(10) 0.00887 346.3 6.4
347(10) 0.00970 346.3 6.6
335(9) 0.01013 346.3 6.7
337(10) 0.00956 346.3 6.9
374(11) 0.00781 346.3 7.1
313(9) 0.01018 346.3 7.3
355(10) 0.00972 346.3 7.5
347(10) 0.00955 346.3 7.7
333(10) 0.00970 346.3 7.9
339(10) 0.00889 346.3 8.2
363(10) 0.00881 346.3 8.4
353(10) 0.00965 346.3 8.7
347(10) 0.00963 346.3 9.0
344(10) 0.00912 346.3 9.3
348(10) 0.00870 346.3 9.6
345(10) 0.00901 346.3 9.9
312(9) 0.01066 346.3 10.3
359(10) 0.00929 346.3 10.7
367(10) 0.00892 346.3 11.1
342(10) 0.00936 346.3 11.6
362(10) 0.00911 346.3 12.1
334(9) 0.01012 346.3 12.6
361(10) 0.00914 346.3 13.2
370(10) 0.00874 346.3 13.8
380(11) 0.00829 346.3 14.5
355(10) 0.00913 346.3 15.3
372(10) 0.00922 346.3 16.0
345(10) 0.00939 346.3 16.9
342(10) 0.00935 346.3 17.8
337(10) 0.00956 346.3 18.8
343(10) 0.00963 346.3 19.9
358(10) 0.00948 346.3 21.0
390(11) 0.00832 346.3 22.2
352(10) 0.00888 346.3 23.5
360(10) 0.00914 346.3 24.9
411(11) 0.00818 346.3 26.4
342(10) 0.00993 346.3 27.9
379(10) 0.00845 346.3 29.5
397(11) 0.00781 346.3 31.2
410(11) 0.00759 346.3 33.0
376(10) 0.00902 346.3 34.8
393(10) 0.00861 346.3 36.7
386(10) 0.00858 346.3 38.6
386(11) 0.00802 346.3 40.6
385(10) 0.00859 346.3 42.6
405(10) 0.00845 346.3 44.6
397(10) 0.00875 346.3 46.6
401(11) 0.00806 346.3 48.5
389(11) 0.00757 346.3 50.4
372(10) 0.00876 346.3 52.2
411(10) 0.00841 346.3 53.8
437(11) 0.00788 346.3 55.3
398(11) 0.00805 346.3 56.6
386(11) 0.00776 346.3 57.6
422(11) 0.00768 346.3 58.4
393(10) 0.00879 346.3 58.9
419(11) 0.00818 346.3 59.1
391(11) 0.00830 346.3 59.0
385(11) 0.00783 346.3 58.7
396(11) 0.00817 346.3 58.0
386(10) 0.00890 346.3 57.1
375(10) 0.00906 346.3 56.0
391(11) 0.00832 346.3 54.6
380(11) 0.00817 346.3 53.2
373(10) 0.00848 346.3 51.5
426(11) 0.00809 346.3 49.8
391(10) 0.00879 346.3 48.0
397(11) 0.00789 346.3 46.2
394(11) 0.00789 346.3 44.4
400(11) 0.00796 346.3 42.5
377(10) 0.00911 346.3 40.7
394(11) 0.00812 346.3 38.9
358(10) 0.00883 346.3 37.2
385(11) 0.00802 346.3 35.5
379(10) 0.00856 346.3 33.8
367(10) 0.00931 346.3 32.2
356(10) 0.00924 346.3 30.7
350(10) 0.00903 346.3 29.2
367(10) 0.00854 346.3 27.8
378(10) 0.00851 346.3 26.4
374(10) 0.00909 346.3 25.1
393(11) 0.00790 346.3 23.9
348(10) 0.00908 346.3 22.7
356(10) 0.00909 346.3 21.6
351(10) 0.00966 346.3 20.5
348(10) 0.00955 346.3 19.4
338(10) 0.00966 346.3 18.4
355(10) 0.00855 346.3 17.5
365(10) 0.00854 346.3 16.6
338(10) 0.00994 346.3 15.7
372(10) 0.00914 346.3 14.9
331(10) 0.00999 346.3 14.2
387(11) 0.00776 346.3 13.5
377(10) 0.00850 346.3 12.9
372(10) 0.00904 346.3 12.3
347(10) 0.00986 346.3 11.7
363(10) 0.00909 346.3 11.2
356(10) 0.00862 346.3 10.7
376(10) 0.00851 346.3 10.3
345(10) 0.00986 346.3 9.9
357(10) 0.00954 346.3 9.5
357(10) 0.00901 346.3 9.1
345(10) 0.00908 346.3 8.8
370(10) 0.00853 346.3 8.5
325(9) 0.01036 346.3 8.2
355(10) 0.00953 346.3 8.0
367(10) 0.00878 346.3 7.8
345(10) 0.00903 346.3 7.6
353(10) 0.00926 346.3 7.4
359(10) 0.00951 346.3 7.2
337(10) 0.00985 346.3 7.0
342(10) 0.00949 346.3 6.8
348(10) 0.00891 346.3 6.7
363(10) 0.00899 346.3 6.6
357(10) 0.00938 346.3 6.5
339(10) 0.00961 346.3 6.3
373(10) 0.00846 346.3 6.2
368(10) 0.00861 346.3 6.2
384(11) 0.00823 346.3 6.1
338(10) 0.01002 346.3 6.0
339(10) 0.00957 346.3 5.9
329(10) 0.00958 346.3 5.9
332(10) 0.00939 346.3 5.8
358(10) 0.00903 346.3 5.8
361(10) 0.00941 346.3 5.7
337(10) 0.00950 346.3 5.7
341(10) 0.00902 346.3 5.7
314(9) 0.01012 346.3 5.6
322(10) 0.01004 346.3 5.6
358(10) 0.00947 346.3 5.6
348(10) 0.00918 346.3 5.6
357(10) 0.00881 346.3 5.6
359(10) 0.00884 346.3 5.6
339(10) 0.00971 346.4 5.6
333(10) 0.01005 346.4 5.7
359(10) 0.00877 346.4 5.7
364(10) 0.00859 346.5 5.7
378(10) 0.00856 346.5 5.8
350(10) 0.00967 346.5 5.8
343(10) 0.00990 346.6 5.9
317(9) 0.01022 346.6 6.0
335(10) 0.00916 346.6 6.0
354(10) 0.00892 346.7 6.1
327(10) 0.01001 346.7 6.2
347(10) 0.00984 346.7 6.4
335(10) 0.00949 346.8 6.5
365(11) 0.00777 346.8 6.7
342(10) 0.00951 346.8 6.9
330(9) 0.01023 346.9 7.1
348(10) 0.00968 346.9 7.3
350(10) 0.00930 346.9 7.6
342(10) 0.00887 346.9 7.9
369(10) 0.00864 347.0 8.3
354(10) 0.00966 347.0 8.8
358(10) 0.00938 347.0 9.3
380(10) 0.00841 347.1 10.0
352(10) 0.00852 347.1 11.0
342(10) 0.00940 347.1 12.3
371(10) 0.00920 347.2 14.3
389(10) 0.00855 347.2 17.6
381(10) 0.00840 347.2 23.0
354(10) 0.00888 347.3 31.4
362(10) 0.00864 347.3 43.6
413(11) 0.00820 347.3 59.8
464(11) 0.00729 347.4 78.8
462(12) 0.00701 347.4 97.7
504(12) 0.00626 347.4 111.5
452(11) 0.00726 347.5 114.8
425(11) 0.00809 347.5 106.3
420(11) 0.00769 347.5 90.0
429(11) 0.00744 347.5 71.6
411(11) 0.00770 347.6 54.9
375(10) 0.00863 347.6 42.0
391(10) 0.00870 347.6 33.1
377(10) 0.00880 347.7 27.7
365(10) 0.00867 347.7 24.8
362(10) 0.00873 347.7 23.5
377(10) 0.00867 347.8 23.2
406(10) 0.00846 347.8 23.3
371(10) 0.00869 347.8 23.5
343(10) 0.00928 347.9 23.8
374(10) 0.00862 347.9 24.1
357(10) 0.00908 347.9 24.4
393(10) 0.00865 348.0 24.6
361(10) 0.00878 348.0 24.8
381(11) 0.00806 348.0 25.0
384(11) 0.00832 348.0 25.1
370(10) 0.00895 348.1 25.1
370(10) 0.00919 348.1 25.0
383(11) 0.00808 348.1 24.8
380(11) 0.00788 348.2 24.4
347(10) 0.00898 348.2 23.9
396(10) 0.00860 348.2 23.3
395(10) 0.00875 348.3 22.6
398(11) 0.00808 348.3 21.9
404(11) 0.00758 348.3 21.0
378(10) 0.00867 348.4 20.2
364(10) 0.00939 348.4 19.3
358(10) 0.00939 348.4 18.4
351(10) 0.00922 348.5 17.5
348(10) 0.00847 348.5 16.7
372(10) 0.00845 348.5 15.8
378(10) 0.00897 348.6 15.0
389(10) 0.00890 348.6 14.3
387(11) 0.00836 348.6 13.6
370(10) 0.00842 348.6 12.9
347(10) 0.00943 348.7 12.3
348(10) 0.00976 348.7 11.7
370(10) 0.00907 348.7 11.1
362(10) 0.00914 348.8 10.6
354(10) 0.00883 348.8 10.2
350(10) 0.00892 348.8 9.8
342(10) 0.00984 348.9 9.4
350(10) 0.00947 348.9 9.1
357(10) 0.00898 348.9 8.8
342(10) 0.00886 349.0 8.6
367(10) 0.00853 349.0 8.3
364(10) 0.00937 349.0 8.2
368(10) 0.00885 349.1 8.0
360(10) 0.00852 349.1 7.9
339(10) 0.00903 349.1 7.8
319(9) 0.01019 349.2 7.7
341(10) 0.00999 349.2 7.6
327(10) 0.01001 349.2 7.6
400(11) 0.00755 349.2 7.6
347(10) 0.00920 349.3 7.6
354(10) 0.00916 349.3 7.6
366(10) 0.00921 349.3 7.6
367(10) 0.00873 349.4 7.7
358(10) 0.00917 349.4 7.7
359(10) 0.00893 349.4 7.8
369(10) 0.00867 349.5 7.9
353(10) 0.00969 349.5 8.1
350(10) 0.00905 349.5 8.2
370(11) 0.00832 349.6 8.4
338(10) 0.00976 349.6 8.6
374(10) 0.00902 349.6 8.8
378(10) 0.00906 349.7 9.0
347(10) 0.00935 349.7 9.2
351(10) 0.00852 349.7 9.5
356(10) 0.00907 349.7 9.8
362(10) 0.00916 349.8 10.1
343(10) 0.00994 349.8 10.5
371(10) 0.00873 349.8 10.8
353(10) 0.00875 349.9 11.2
369(10) 0.00876 349.9 11.7
380(10) 0.00892 349.9 12.2
362(10) 0.00923 350.0 12.7
383(10) 0.00861 350.0 13.4
345(10) 0.00905 350.0 14.1
355(10) 0.00919 350.1 14.8
390(10) 0.00874 350.1 15.7
372(10) 0.00902 350.1 16.6
354(10) 0.00888 350.2 17.7
364(11) 0.00815 350.2 18.8
378(10) 0.00851 350.2 20.1
381(10) 0.00913 350.3 21.4
378(10) 0.00892 350.3 22.7
383(11) 0.00836 350.3 24.0
373(11) 0.00781 350.3 25.1
368(10) 0.00841 350.4 26.1
370(10) 0.00924 350.4 26.7
346(10) 0.00965 350.4 27.0
346(10) 0.00955 350.5 27.0
378(11) 0.00811 350.5 26.6
361(10) 0.00888 350.5 26.1
375(10) 0.00915 350.6 25.5
354(10) 0.00939 350.6 24.8
353(10) 0.00901 350.6 24.1
379(11) 0.00815 350.7 23.4
376(10) 0.00866 350.7 22.8
353(10) 0.00956 350.7 22.3
376(10) 0.00894 350.8 21.9
365(10) 0.00852 350.8 21.6
376(11) 0.00827 350.8 21.4
354(10) 0.00934 350.8 21.3
357(10) 0.00962 350.9 21.2
342(10) 0.00940 350.9 21.2
363(10) 0.00879 350.9 21.3
366(10) 0.00862 351.0 21.4
340(10) 0.00962 351.0 21.4
367(10) 0.00932 351.0 21.4
393(11) 0.00808 351.1 21.3
357(10) 0.00891 351.1 21.2
363(10) 0.00886 351.1 21.0
362(10) 0.00928 351.2 20.8
359(10) 0.00946 351.2 20.6
354(10) 0.00893 351.2 20.5
340(10) 0.00865 351.3 20.5
333(10) 0.00947 351.3 20.5
363(10) 0.00894 351.3 20.6
357(10) 0.00957 351.4 20.7
369(10) 0.00864 351.4 20.9
342(10) 0.00908 351.4 21.1
355(10) 0.00925 351.4 21.3
361(10) 0.00943 351.5 21.6
343(10) 0.00986 351.5 21.9
360(10) 0.00874 351.5 22.3
366(11) 0.00820 351.6 22.6
357(10) 0.00884 351.6 23.0
381(10) 0.00896 351.6 23.4
354(10) 0.00946 351.7 23.8
375(10) 0.00850 351.7 24.2
381(11) 0.00782 351.7 24.6
392(11) 0.00827 351.8 25.1
365(10) 0.00936 351.8 25.5
385(10) 0.00875 351.8 25.9
384(10) 0.00857 351.9 26.4
361(11) 0.00837 351.9 26.9
332(10) 0.00997 351.9 27.4
389(10) 0.00887 352.0 27.9
393(10) 0.00854 352.0 28.5
371(10) 0.00878 352.0 29.2
381(11) 0.00817 352.0 30.2
403(11) 0.00805 352.1 31.7
406(10) 0.00851 352.1 34.1
382(10) 0.00858 352.1 37.8
373(10) 0.00884 352.2 43.2
402(11) 0.00781 352.2 50.6
395(11) 0.00809 352.2 59.4
412(11) 0.00837 352.3 68.5
401(10) 0.00849 352.3 75.8
406(11) 0.00790 352.3 78.6
412(11) 0.00758 352.4 75.8
452(12) 0.00699 352.4 69.0
424(11) 0.00811 352.4 61.0
409(11) 0.00783 352.5 53.7
377(11) 0.00826 352.5 48.1
415(11) 0.00744 352.5 44.4
391(10) 0.00846 352.5 42.2
396(10) 0.00868 352.6 41.1
373(10) 0.00864 352.6 40.3
370(10) 0.00857 352.6 39.7
407(11) 0.00779 352.7 39.1
407(11) 0.00829 352.7 38.4
424(11) 0.00811 352.7 37.9
361(10) 0.00895 352.8 37.6
394(11) 0.00783 352.8 37.5
360(10) 0.00909 352.8 37.6
390(10) 0.00859 352.9 37.9
370(10) 0.00913 352.9 38.3
367(10) 0.00858 352.9 38.9
377(11) 0.00821 353.0 39.4
413(11) 0.00776 353.0 40.0
394(10) 0.00841 353.0 40.6
399(10) 0.00867 353.1 41.3
389(10) 0.00839 353.1 41.9
400(11) 0.00757 353.1 42.5
396(11) 0.00820 353.1 43.1
372(10) 0.00904 353.2 43.6
381(10) 0.00912 353.2 43.9
413(11) 0.00761 353.2 43.9
396(11) 0.00743 353.3 43.7
399(11) 0.00802 353.3 43.3
386(10) 0.00878 353.3 42.6
385(10) 0.00890 353.4 41.8
370(10) 0.00857 353.4 40.9
373(11) 0.00775 353.4 40.1
358(11) 0.00834 353.5 39.5
362(10) 0.00953 353.5 39.2
372(10) 0.00892 353.5 39.3
378(11) 0.00813 353.6 40.0
346(10) 0.00883 353.6 41.4
379(11) 0.00802 353.6 43.3
347(10) 0.00978 353.7 45.9
396(10) 0.00849 353.7 48.9
395(11) 0.00802 353.7 52.0
394(11) 0.00786 353.7 54.6
374(10) 0.00841 353.8 56.1
380(10) 0.00893 353.8 55.9
376(10) 0.00865 353.8 53.9
403(11) 0.00778 353.9 50.3
367(10) 0.00861 353.9 45.8
361(10) 0.00872 353.9 41.0
355(10) 0.00955 354.0 36.4
357(10) 0.00923 354.0 32.3
353(10) 0.00908 354.0 28.7
353(10) 0.00921 354.1 25.8
364(10) 0.00890 354.1 23.4
382(10) 0.00898 354.1 21.7
370(10) 0.00869 354.2 20.3
348(10) 0.00897 354.2 19.2
359(10) 0.00862 354.2 18.5
324(9) 0.01011 354.2 18.0
351(10) 0.00973 354.3 17.6
315(9) 0.01042 354.3 17.4
348(10) 0.00896 354.3 17.2
352(10) 0.00924 354.4 17.2
340(10) 0.00985 354.4 17.2
340(10) 0.00997 354.4 17.3
368(10) 0.00855 354.5 17.5
350(10) 0.00867 354.5 17.8
363(10) 0.00864 354.5 18.3
354(10) 0.00920 354.6 18.8
393(10) 0.00875 354.6 19.6
349(10) 0.00915 354.6 20.8
371(11) 0.00792 354.7 22.3
375(11) 0.00828 354.7 24.4
355(10) 0.00943 354.7 27.2
358(10) 0.00951 354.8 30.7
413(11) 0.00775 354.8 34.9
383(11) 0.00803 354.8 39.7
400(11) 0.00782 354.8 44.6
397(10) 0.00866 354.9 48.9
403(10) 0.00847 354.9 51.6
384(10) 0.00856 354.9 52.1
416(11) 0.00740 355.0 50.2
402(11) 0.00819 355.0 46.7
378(10) 0.00905 355.0 42.6
371(10) 0.00924 355.1 38.7
364(10) 0.00879 355.1 35.3
368(11) 0.00828 355.1 32.5
384(11) 0.00832 355.2 30.5
398(10) 0.00870 355.2 29.1
379(10) 0.00899 355.2 28.3
374(10) 0.00867 355.3 27.8
374(11) 0.00834 355.3 27.6
367(10) 0.00879 355.3 27.6
363(10) 0.00932 355.4 27.6
382(10) 0.00885 355.4 27.7
380(10) 0.00840 355.4 27.8
366(10) 0.00855 355.4 28.0
370(10) 0.00868 355.5 28.1
386(10) 0.00892 355.5 28.1
372(10) 0.00881 355.5 28.2
377(10) 0.00846 355.6 28.2
335(10) 0.00944 355.6 28.2
366(10) 0.00866 355.6 28.2
377(10) 0.00907 355.7 28.1
380(10) 0.00849 355.7 27.9
375(11) 0.00836 355.7 27.8
340(10) 0.00922 355.8 27.5
330(10) 0.00999 355.8 27.3
370(10) 0.00925 355.8 27.0
342(10) 0.00924 355.9 26.6
377(11) 0.00811 355.9 26.3
382(10) 0.00855 355.9 25.9
356(10) 0.00932 355.9 25.5
377(10) 0.00907 356.0 25.0
383(10) 0.00842 356.0 24.6
374(11) 0.00815 356.0 24.2
359(10) 0.00905 356.1 23.8
349(10) 0.00973 356.1 23.4
371(10) 0.00920 356.1 23.0
368(10) 0.00847 356.2 22.6
351(10) 0.00883 356.2 22.3
379(11) 0.00822 356.2 21.9
380(10) 0.00876 356.3 21.6
353(10) 0.00973 356.3 21.2
337(10) 0.00973 356.3 20.9
389(11) 0.00730 356.4 20.6
366(10) 0.00867 356.4 20.3
328(9) 0.01031 356.4 20.1
359(10) 0.00934 356.5 19.8
375(10) 0.00848 356.5 19.6
403(11) 0.00716 356.5 19.4
337(10) 0.00965 356.5 19.2
359(10) 0.00957 356.6 19.1
357(10) 0.00955 356.6 18.9
372(10) 0.00883 356.6 18.8
346(10) 0.00862 356.7 18.7
349(10) 0.00908 356.7 18.6
358(10) 0.00944 356.7 18.5
363(10) 0.00934 356.7 18.5
348(10) 0.00956 356.7 18.4
366(10) 0.00846 356.6 18.4
355(10) 0.00923 356.6 18.4
358(10) 0.00951 356.5 18.5
347(10) 0.00944 356.5 18.5
363(10) 0.00845 356.5 18.5
336(10) 0.00925 356.4 18.6
354(10) 0.00917 356.4 18.7
350(10) 0.00969 356.3 18.8
349(10) 0.00940 356.3 18.9
362(10) 0.00867 356.3 19.1
356(10) 0.00880 356.2 19.2
394(11) 0.00827 356.2 19.4
360(10) 0.00939 356.1 19.6
364(10) 0.00898 356.1 19.8
397(11) 0.00768 356.1 20.0
364(10) 0.00868 356.0 20.3
327(9) 0.01012 356.0 20.6
359(10) 0.00952 355.9 20.9
391(11) 0.00827 355.9 21.2
369(10) 0.00875 355.9 21.7
373(10) 0.00845 355.8 22.1
382(10) 0.00873 355.8 22.6
404(10) 0.00855 355.7 23.2
358(10) 0.00914 355.7 23.8
385(11) 0.00818 355.7 24.5
397(11) 0.00812 355.6 25.2
368(10) 0.00922 355.6 26.0
366(10) 0.00934 355.5 26.9
408(11) 0.00793 355.5 27.8
367(10) 0.00860 355.5 28.8
384(11) 0.00836 355.4 29.8
389(10) 0.00870 355.4 30.8
378(10) 0.00906 355.3 31.7
371(10) 0.00874 355.3 32.6
384(11) 0.00751 355.3 33.5
363(10) 0.00877 355.2 34.2
381(10) 0.00900 355.2 34.8
368(10) 0.00929 355.1 35.2
384(10) 0.00855 355.1 35.5
399(11) 0.00776 355.1 35.7
394(11) 0.00825 355.0 35.8
396(10) 0.00861 355.0 35.9
396(10) 0.00862 354.9 35.9
345(10) 0.00957 354.9 35.9
385(11) 0.00755 354.9 35.9
385(11) 0.00825 354.8 36.0
382(10) 0.00900 354.8 36.1
389(10) 0.00871 354.7 36.3
377(10) 0.00851 354.7 36.5
368(10) 0.00861 354.7 36.8
404(11) 0.00796 354.6 37.1
371(10) 0.00927 354.6 37.4
380(10) 0.00876 354.5 37.8
368(10) 0.00864 354.5 38.2
399(11) 0.00801 354.5 38.6
408(11) 0.00800 354.4 39.0
366(10) 0.00926 354.4 39.5
380(10) 0.00862 354.3 39.9
361(10) 0.00911 354.3 40.3
406(11) 0.00777 354.3 40.8
398(11) 0.00809 354.2 41.2
383(10) 0.00889 354.2 41.6
386(10) 0.00854 354.1 42.0
389(11) 0.00834 354.1 42.4
393(11) 0.00807 354.1 42.7
390(10) 0.00869 354.0 43.1
420(11) 0.00822 354.0 43.4
400(11) 0.00802 353.9 43.7
401(11) 0.00785 353.9 44.0
410(11) 0.00791 353.9 44.2
416(11) 0.00799 353.8 44.5
412(11) 0.00838 353.8 44.7
369(10) 0.00873 353.7 44.9
376(11) 0.00817 353.7 45.1
366(10) 0.00861 353.7 45.3
430(11) 0.00774 353.6 45.4
414(11) 0.00834 353.6 45.5
409(11) 0.00785 353.5 45.6
400(11) 0.00770 353.5 45.6
382(10) 0.00866 353.5 45.6
383(10) 0.00877 353.4 45.6
400(10) 0.00849 353.4 45.5
368(10) 0.00901 353.3 45.3
396(11) 0.00755 353.3 45.1
388(10) 0.00840 353.3 44.8
365(10) 0.00926 353.2 44.5
377(10) 0.00897 353.2 44.1
400(11) 0.00794 353.1 43.6
391(11) 0.00755 353.1 43.1
372(10) 0.00843 353.0 42.5
391(10) 0.00875 353.0 41.9
383(10) 0.00884 353.0 41.2
378(11) 0.00835 352.9 40.5
376(11) 0.00810 352.9 39.8
376(10) 0.00848 352.8 39.0
366(10) 0.00938 352.8 38.3
413(11) 0.00805 352.8 37.5
376(10) 0.00862 352.7 36.7
393(11) 0.00792 352.7 35.9
390(11) 0.00823 352.6 35.1
394(10) 0.00883 352.6 34.4
380(10) 0.00894 352.6 33.6
402(11) 0.00825 352.5 32.9
388(11) 0.00830 352.5 32.2
394(11) 0.00817 352.4 31.5
360(10) 0.00949 352.4 30.8
360(10) 0.00924 352.4 30.2
389(11) 0.00818 352.3 29.5
394(11) 0.00793 352.3 28.9
376(10) 0.00857 352.2 28.4
374(10) 0.00918 352.2 27.9
372(10) 0.00892 352.2 27.4
366(10) 0.00881 352.1 26.9
377(10) 0.00854 352.1 26.5
377(10) 0.00875 352.0 26.1
360(10) 0.00948 352.0 25.7
383(11) 0.00826 352.0 25.4
366(10) 0.00851 351.9 25.2
375(10) 0.00868 351.9 25.0
397(10) 0.00854 351.8 24.8
365(10) 0.00939 351.8 24.7
385(11) 0.00832 351.8 24.6
368(11) 0.00838 351.7 24.6
358(10) 0.00861 351.7 24.7
336(10) 0.00972 351.6 24.9
353(10) 0.00953 351.6 25.1
373(10) 0.00869 351.6 25.5
380(11) 0.00820 351.5 26.0
387(11) 0.00830 351.5 26.6
397(10) 0.00849 351.4 27.3
374(10) 0.00922 351.4 28.2
388(11) 0.00837 351.4 29.4
372(11) 0.00810 351.3 30.7
386(11) 0.00808 351.3 32.3
362(10) 0.00939 351.2 34.2
388(10) 0.00882 351.2 36.4
381(10) 0.00856 351.2 38.9
396(11) 0.00764 351.1 41.7
394(11) 0.00810 351.1 44.8
364(10) 0.00942 351.0 48.2
362(10) 0.00933 351.0 51.9
387(11) 0.00836 351.0 55.9
414(11) 0.00714 350.9 59.9
409(11) 0.00781 350.9 64.0
369(10) 0.00934 350.8 68.0
403(11) 0.00833 350.8 71.6
425(11) 0.00733 350.8 74.7
408(11) 0.00771 350.7 76.9
427(11) 0.00740 350.7 78.0
402(10) 0.00845 350.6 77.9
412(11) 0.00823 350.6 76.6
420(11) 0.00777 350.6 74.2
434(11) 0.00732 350.5 70.9
417(11) 0.00765 350.5 67.0
440(11) 0.00787 350.4 62.8
379(10) 0.00871 350.4 58.4
397(11) 0.00800 350.4 54.1
374(10) 0.00843 350.3 50.0
401(11) 0.00810 350.3 46.2
379(10) 0.00896 350.2 42.7
398(11) 0.00814 350.2 39.6
363(10) 0.00889 350.2 36.8
384(11) 0.00832 350.1 34.3
415(11) 0.00781 350.1 32.2
404(10) 0.00848 350.0 30.3
354(10) 0.00906 350.0 28.7
382(11) 0.00790 350.0 27.4
333(10) 0.00968 349.9 26.2
373(10) 0.00890 349.9 25.2
381(10) 0.00881 349.8 24.4
385(11) 0.00807 349.8 23.6
363(10) 0.00852 349.8 23.0
357(10) 0.00907 349.7 22.4
340(10) 0.00981 349.7 21.9
371(10) 0.00926 349.6 21.4
350(10) 0.00903 349.6 21.0
352(10) 0.00845 349.6 20.5
361(10) 0.00855 349.5 20.1
363(10) 0.00938 349.5 19.7
368(10) 0.00922 349.4 19.3
354(10) 0.00888 349.4 18.9
355(11) 0.00837 349.4 18.5
350(10) 0.00909 349.3 18.1
362(10) 0.00938 349.3 17.7
383(10) 0.00892 349.2 17.3
345(10) 0.00950 349.2 16.9
344(10) 0.00870 349.2 16.5
346(10) 0.00931 349.1 16.1
387(10) 0.00872 349.1 15.7
379(10) 0.00903 349.0 15.3
357(10) 0.00899 349.0 15.0
357(10) 0.00852 349.0 14.6
363(10) 0.00899 348.9 14.2
362(10) 0.00937 348.9 13.9
345(10) 0.00978 348.8 13.6
350(10) 0.00902 348.8 13.2
351(10) 0.00839 348.7 12.9
340(10) 0.00920 348.7 12.6
360(10) 0.00946 348.7 12.4
368(10) 0.00923 348.6 12.1
366(10) 0.00900 348.6 11.8
341(10) 0.00927 348.5 11.6
323(9) 0.01014 348.5 11.4
373(10) 0.00909 348.5 11.1
349(10) 0.00942 348.4 10.9
364(10) 0.00861 348.4 10.7
363(10) 0.00860 348.3 10.5
388(11) 0.00820 348.3 10.4
346(10) 0.00983 348.3 10.2
315(9) 0.01063 348.2 10.0
345(10) 0.00903 348.2 9.9
367(10) 0.00863 348.1 9.8
369(10) 0.00879 348.1 9.7
354(10) 0.00960 348.1 9.6
349(10) 0.00946 348.0 9.5
355(10) 0.00882 348.0 9.4
372(11) 0.00831 347.9 9.4
361(10) 0.00903 347.9 9.3
332(9) 0.01026 347.9 9.3
355(10) 0.00896 347.8 9.3
327(10) 0.00965 347.8 9.3
376(11) 0.00831 347.7 9.3
334(10) 0.00986 347.7 9.4
353(10) 0.00961 347.7 9.4
382(10) 0.00843 347.6 9.5
365(11) 0.00818 347.6 9.6
337(10) 0.00948 347.5 9.7
368(10) 0.00912 347.5 9.9
335(10) 0.01006 347.5 10.0
342(10) 0.00929 347.4 10.3
344(10) 0.00860 347.4 10.5
370(10) 0.00843 347.3 10.9
366(10) 0.00920 347.3 11.4
320(9) 0.01060 347.3 12.1
340(10) 0.00911 347.2 13.1
345(10) 0.00878 347.2 14.6
358(10) 0.00906 347.1 16.8
356(10) 0.00947 347.1 20.0
357(10) 0.00944 347.1 24.2
359(10) 0.00871 347.0 29.4
380(11) 0.00773 347.0 35.5
403(11) 0.00813 346.9 41.7
389(10) 0.00886 346.9 46.9
396(10) 0.00867 346.9 49.6
365(10) 0.00893 346.8 48.9
387(11) 0.00782 346.8 45.1
384(10) 0.00853 346.7 39.7
372(10) 0.00926 346.7 33.9
364(10) 0.00923 346.7 28.7
362(10) 0.00902 346.6 24.5
365(10) 0.00857 346.6 21.4
354(10) 0.00909 346.5 19.3
365(10) 0.00933 346.5 18.0
352(10) 0.00971 346.5 17.2
393(11) 0.00798 346.4 16.9
337(10) 0.00959 346.4 16.9
377(10) 0.00856 346.3 17.0
364(10) 0.00934 346.3 17.2
367(10) 0.00896 346.3 17.5
381(10) 0.00841 346.2 17.9
363(10) 0.00867 346.2 18.3
357(10) 0.00895 346.1 18.7
367(10) 0.00927 346.1 19.1
322(9) 0.01047 346.1 19.6
359(10) 0.00865 346.0 20.1
352(10) 0.00880 346.0 20.5
362(10) 0.00895 345.9 20.9
358(10) 0.00954 345.9 21.3
383(11) 0.00838 345.9 21.7
350(10) 0.00914 345.8 22.0
352(10) 0.00890 345.8 22.3
345(10) 0.00975 345.7 22.6
360(10) 0.00946 345.7 22.7
367(10) 0.00864 345.7 22.8
380(11) 0.00801 345.6 22.8
362(10) 0.00886 345.6 22.8
375(10) 0.00891 345.5 22.7
373(10) 0.00919 345.5 22.5
354(10) 0.00926 345.5 22.3
349(10) 0.00894 345.4 22.0
376(11) 0.00833 345.4 21.7
356(10) 0.00944 345.3 21.3
377(10) 0.00908 345.3 20.9
362(10) 0.00910 345.3 20.4
393(11) 0.00747 345.2 20.0
352(10) 0.00908 345.2 19.6
364(10) 0.00921 345.1 19.1
355(10) 0.00972 345.1 18.7
346(10) 0.00920 345.1 18.3
352(10) 0.00861 345.0 17.9
370(10) 0.00899 345.0 17.5
381(10) 0.00898 344.9 17.1
350(10) 0.00956 344.9 16.8
339(10) 0.00946 344.9 16.5
338(10) 0.00899 344.8 16.2
361(10) 0.00880 344.8 16.0
347(10) 0.00970 344.7 15.8
353(10) 0.00934 344.7 15.6
377(10) 0.00840 344.7 15.5
355(11) 0.00835 344.6 15.4
355(10) 0.00867 344.6 15.3
352(10) 0.00967 344.5 15.3
356(10) 0.00938 344.5 15.3
345(10) 0.00938 344.5 15.3
345(10) 0.00905 344.4 15.4
345(10) 0.00904 344.4 15.5
363(10) 0.00941 344.3 15.6
332(10) 0.00989 344.3 15.8
344(10) 0.00907 344.2 16.0
372(11) 0.00812 344.2 16.2
347(10) 0.00939 344.2 16.5
345(10) 0.00975 344.1 16.7
346(10) 0.00952 344.1 16.8
332(10) 0.00937 344.0 16.9
366(10) 0.00848 344.0 16.8
355(10) 0.00940 344.0 16.7
384(10) 0.00900 343.9 16.5
366(10) 0.00880 343.9 16.3
371(11) 0.00816 343.8 16.0
343(10) 0.00923 343.8 15.7
338(10) 0.00969 343.8 15.4
348(10) 0.00976 343.7 15.1
329(10) 0.00941 343.7 14.8
350(10) 0.00903 343.6 14.4
383(11) 0.00837 343.6 14.1
351(10) 0.00949 343.6 13.7
366(10) 0.00940 343.5 13.3
335(10) 0.00948 343.5 12.9
350(10) 0.00875 343.4 12.4
332(10) 0.00954 343.4 12.0
323(9) 0.01028 343.4 11.6
342(10) 0.01006 343.3 11.2
379(10) 0.00852 343.3 10.8
351(10) 0.00884 343.2 10.4
335(10) 0.00959 343.2 10.0
351(10) 0.00945 343.2 9.6
345(10) 0.00981 343.1 9.3
363(10) 0.00886 343.1 8.9
339(10) 0.00900 343.0 8.6
363(10) 0.00882 343.0 8.3
329(9) 0.01021 343.0 8.0
320(9) 0.01053 342.9 7.7
312(9) 0.01036 342.9 7.5
339(10) 0.00872 342.8 7.2
338(10) 0.00922 342.8 7.0
366(10) 0.00935 342.8 6.8
354(10) 0.00940 342.7 6.6
327(10) 0.01001 342.7 6.4
360(11) 0.00837 342.6 6.2
364(10) 0.00853 342.6 6.1
341(10) 0.00996 342.6 5.9
371(10) 0.00880 342.5 5.8
364(10) 0.00867 342.5 5.7
325(10) 0.00961 342.4 5.6
327(10) 0.00980 342.4 5.6
348(10) 0.00975 342.4 5.5
345(10) 0.00961 342.3 5.4
352(10) 0.00891 342.3 5.4
361(10) 0.00884 342.2 5.4
343(10) 0.00934 342.2 5.5
342(10) 0.00992 342.2 5.5
349(10) 0.00924 342.1 5.6
367(10) 0.00841 342.1 5.8
350(10) 0.00912 342.0 6.0
334(10) 0.00989 342.0 6.4
350(10) 0.00968 342.0 6.8
344(10) 0.00913 341.9 7.4
333(10) 0.00926 341.9 8.1
345(10) 0.00891 341.8 9.0
355(10) 0.00913 341.8 10.2
361(10) 0.00936 341.8 11.5
355(10) 0.00903 341.7 13.1
350(10) 0.00889 341.7 14.9
349(10) 0.00932 341.6 16.8
359(10) 0.00929 341.6 18.7
360(10) 0.00941 341.6 20.3
360(10) 0.00877 341.5 21.5
356(10) 0.00875 341.5 22.0
360(10) 0.00883 341.4 21.6
376(10) 0.00888 341.4 20.5
345(10) 0.00994 341.4 18.9
349(10) 0.00901 341.3 17.0
358(11) 0.00814 341.3 15.1
357(10) 0.00845 341.2 13.2
331(9) 0.01019 341.2 11.5
352(10) 0.00959 341.2 10.0
359(10) 0.00890 341.1 8.8
352(11) 0.00828 341.1 7.7
318(9) 0.01010 341.0 6.9
324(9) 0.01042 341.0 6.2
355(10) 0.00959 341.0 5.7
323(10) 0.00996 340.9 5.3
355(11) 0.00799 340.9 4.9
352(10) 0.00876 340.8 4.7
345(10) 0.00982 340.8 4.5
372(10) 0.00899 340.8 4.3
344(10) 0.00959 340.7 4.2
342(10) 0.00882 340.7 4.1
326(10) 0.00952 340.6 4.0
342(10) 0.00986 340.6 3.9
347(10) 0.00926 340.6 3.9
367(10) 0.00847 340.5 3.8
370(11) 0.00823 340.5 3.8
350(10) 0.00889 340.4 3.7
366(10) 0.00921 340.4 3.7
337(10) 0.00964 340.4 3.6
337(10) 0.00936 340.3 3.6
366(10) 0.00867 340.3 3.6
370(10) 0.00883 340.2 3.5
383(10) 0.00883 340.2 3.5
348(10) 0.00964 340.2 3.4
370(10) 0.00845 340.1 3.4
349(10) 0.00916 340.1 3.4
369(10) 0.00871 340.0 3.3
375(10) 0.00914 340.0 3.3
334(10) 0.00962 339.9 3.3
346(10) 0.00885 339.9 3.2
342(10) 0.00900 339.9 3.2
353(10) 0.00928 339.8 3.2
359(10) 0.00955 339.8 3.1
361(10) 0.00913 339.7 3.1
355(10) 0.00880 339.7 3.1
339(10) 0.00914 339.7 3.1
356(10) 0.00915 339.6 3.0
310(9) 0.01087 339.6 3.0
348(10) 0.00923 339.5 3.0
359(10) 0.00867 339.5 3.0
362(10) 0.00884 339.5 3.0
379(10) 0.00890 339.4 3.0
344(10) 0.00991 339.4 3.0
319(10) 0.00944 339.3 2.9
315(10) 0.00952 339.3 2.9
323(10) 0.01002 339.3 2.9
323(9) 0.01030 339.2 2.9
353(10) 0.00941 339.2 2.9
329(10) 0.00945 339.1 2.9
336(10) 0.00920 339.1 3.0
327(10) 0.00991 339.1 3.0
321(9) 0.01055 339.0 3.0
383(10) 0.00892 339.0 3.0
356(10) 0.00936 338.9 3.0
344(10) 0.00891 338.9 3.0
334(10) 0.00944 338.9 3.0
319(9) 0.01048 338.8 3.0
350(10) 0.00948 338.8 3.0
324(9) 0.01010 338.7 3.0
353(10) 0.00876 338.7 3.1
349(10) 0.00914 338.7 3.1
340(10) 0.00992 338.6 3.1
349(10) 0.00967 338.6 3.1
375(11) 0.00827 338.7 3.1
351(10) 0.00892 338.7 3.1
357(10) 0.00899 338.7 3.1
326(9) 0.01026 338.7 3.1
326(9) 0.01034 338.7 3.1
327(10) 0.01005 338.7 3.1
373(11) 0.00813 338.7 3.2
332(10) 0.00979 338.7 3.2
352(10) 0.00961 338.7 3.2
320(9) 0.01045 338.8 3.2
322(10) 0.00988 338.8 3.2
346(10) 0.00888 338.8 3.2
354(10) 0.00915 338.8 3.2
345(10) 0.00987 338.8 3.1
361(10) 0.00876 338.8 3.1
331(10) 0.00965 338.8 3.1
351(10) 0.00918 338.8 3.1
346(10) 0.00944 338.9 3.1
344(10) 0.00985 338.9 3.1
324(10) 0.00973 338.9 3.1
320(10) 0.00952 338.9 3.1
337(10) 0.00923 338.9 3.1
324(10) 0.00993 338.9 3.1
343(10) 0.00983 338.9 3.1
340(10) 0.00955 338.9 3.1
347(10) 0.00885 338.9 3.0
350(10) 0.00907 339.0 3.0
354(10) 0.00960 339.0 3.0
349(10) 0.00963 339.0 3.0
322(10) 0.00999 339.0 3.0
355(10) 0.00864 339.0 3.0
325(10) 0.00999 339.0 3.0
321(9) 0.01032 339.0 3.0
347(10) 0.00975 339.0 3.0
332(10) 0.00987 339.0 2.9
340(10) 0.00917 339.1 2.9
320(9) 0.01048 339.1 2.9
352(10) 0.00959 339.1 2.9
327(9) 0.01050 339.1 2.9
342(10) 0.00915 339.1 2.9
358(11) 0.00815 339.1 2.9
334(10) 0.00936 339.1 2.9
328(9) 0.01026 339.1 2.8
364(10) 0.00921 339.1 2.8
343(10) 0.00947 339.2 2.8
342(10) 0.00890 339.2 2.8
355(10) 0.00882 339.2 2.8
340(10) 0.00988 339.2 2.8
352(10) 0.00956 339.2 2.8
350(10) 0.00915 339.2 2.8
343(10) 0.00909 339.2 2.8
346(10) 0.00925 339.2 2.7
347(10) 0.00991 339.3 2.7
326(9) 0.01019 339.3 2.7
337(10) 0.00927 339.3 2.7
353(10) 0.00840 339.3 2.7
346(10) 0.00929 339.3 2.7
334(9) 0.01010 339.3 2.7
354(10) 0.00930 339.3 2.7
349(10) 0.00915 339.3 2.7
370(10) 0.00839 339.3 2.7
336(10) 0.00961 339.4 2.7
354(10) 0.00956 339.4 2.7
344(10) 0.00938 339.4 2.7
357(10) 0.00841 339.4 2.7
334(10) 0.00921 339.4 2.8
383(11) 0.00836 339.4 2.8
333(9) 0.01015 339.4 2.8
366(10) 0.00854 339.4 2.8
344(10) 0.00933 339.4 2.8
351(10) 0.00907 339.5 2.9
333(10) 0.00976 339.5 2.9
357(10) 0.00951 339.5 2.9
340(10) 0.00911 339.5 3.0
326(10) 0.00951 339.5 3.0
372(11) 0.00831 339.5 3.0
352(10) 0.00923 339.5 3.1
367(10) 0.00937 339.5 3.2
334(10) 0.00978 339.6 3.2
354(10) 0.00885 339.6 3.3
357(10) 0.00881 339.6 3.3
373(10) 0.00898 339.6 3.4
339(10) 0.01000 339.6 3.5
345(10) 0.00909 339.6 3.6
355(10) 0.00867 339.6 3.7
341(10) 0.00951 339.6 3.8
326(9) 0.01034 339.6 3.9
361(10) 0.00928 339.7 4.0
326(10) 0.00982 339.7 4.1
370(11) 0.00796 339.7 4.2
358(10) 0.00898 339.7 4.4
333(10) 0.01008 339.7 4.5
351(10) 0.00965 339.7 4.6
332(10) 0.00946 339.7 4.8
330(10) 0.00929 339.7 5.0
354(10) 0.00906 339.7 5.2
358(10) 0.00945 339.8 5.4
351(10) 0.00954 339.8 5.6
336(10) 0.00931 339.8 5.8
346(10) 0.00871 339.8 6.0
364(10) 0.00883 339.8 6.2
348(10) 0.00965 339.8 6.5
352(10) 0.00947 339.8 6.8
338(10) 0.00951 339.8 7.1
349(10) 0.00873 339.8 7.4
373(11) 0.00809 339.9 7.7
352(10) 0.00972 339.9 8.0
360(10) 0.00939 339.9 8.3
375(10) 0.00856 339.9 8.7
362(10) 0.00855 339.9 9.1
359(10) 0.00867 339.9 9.5
371(10) 0.00928 339.9 9.9
364(10) 0.00890 339.9 10.4
363(11) 0.00820 340.0 10.9
335(10) 0.00935 340.0 11.4
357(10) 0.00906 340.0 12.0
340(10) 0.01003 340.0 12.5
371(10) 0.00869 340.0 13.2
362(10) 0.00845 340.0 13.9
349(10) 0.00924 340.0 14.6
370(10) 0.00888 340.0 15.4
383(10) 0.00895 340.0 16.2
363(10) 0.00882 340.1 17.1
344(10) 0.00913 340.1 18.1
362(10) 0.00856 340.1 19.2
343(10) 0.00973 340.1 20.3
376(10) 0.00914 340.1 21.5
379(10) 0.00847 340.1 22.8
367(10) 0.00843 340.1 24.2
367(10) 0.00875 340.1 25.7
345(10) 0.00979 340.1 27.3
387(10) 0.00886 340.2 28.9
364(10) 0.00907 340.2 30.6
393(11) 0.00763 340.2 32.3
392(11) 0.00836 340.2 34.0
374(10) 0.00913 340.2 35.6
359(10) 0.00943 340.2 37.1
343(10) 0.00950 340.2 38.5
390(11) 0.00763 340.2 39.6
370(10) 0.00857 340.3 40.5
400(10) 0.00852 340.3 41.0
384(10) 0.00887 340.3 41.2
402(11) 0.00799 340.3 41.1
399(11) 0.00731 340.3 40.7
380(11) 0.00828 340.3 40.0
368(10) 0.00929 340.3 39.0
365(10) 0.00942 340.3 37.9
379(11) 0.00816 340.3 36.7
344(10) 0.00876 340.4 35.4
422(11) 0.00730 340.4 34.1
374(10) 0.00899 340.4 32.8
365(10) 0.00932 340.4 31.5
383(11) 0.00831 340.4 30.2
357(10) 0.00867 340.4 28.9
361(10) 0.00898 340.4 27.7
348(10) 0.00970 340.4 26.5
365(10) 0.00919 340.4 25.3
364(10) 0.00882 340.5 24.1
357(10) 0.00860 340.5 23.0
341(10) 0.00908 340.5 21.9
346(10) 0.00971 340.5 20.8
346(10) 0.00935 340.5 19.8
377(10) 0.00841 340.5 18.8
363(10) 0.00864 340.5 17.8
353(10) 0.00905 340.5 16.9
384(10) 0.00892 340.5 16.0
375(10) 0.00877 340.6 15.2
345(10) 0.00903 340.6 14.4
352(10) 0.00872 340.6 13.7
349(10) 0.00922 340.6 13.0
348(10) 0.00976 340.6 12.3
363(10) 0.00886 340.6 11.7
360(10) 0.00876 340.6 11.2
343(10) 0.00937 340.6 10.6
362(10) 0.00893 340.7 10.1
329(9) 0.01029 340.7 9.7
339(10) 0.00922 340.7 9.3
364(11) 0.00825 340.7 8.9
337(10) 0.00945 340.7 8.5
314(9) 0.01065 340.7 8.2
343(10) 0.00996 340.7 7.9
305(9) 0.01025 340.7 7.7
337(10) 0.00887 340.7 7.4
358(10) 0.00894 340.8 7.2
338(10) 0.00992 340.8 7.1
357(10) 0.00944 340.8 6.9
358(10) 0.00892 340.8 6.8
356(10) 0.00850 340.8 6.6
349(10) 0.00944 340.8 6.5
332(9) 0.01029 340.8 6.5
336(10) 0.00992 340.8 6.4
328(10) 0.01000 340.8 6.4
340(10) 0.00862 340.9 6.4
340(10) 0.00941 340.9 6.3
343(10) 0.00995 340.9 6.3
343(10) 0.00982 340.9 6.4
328(10) 0.00967 340.9 6.4
352(10) 0.00860 340.9 6.4
338(10) 0.00949 340.9 6.5
360(10) 0.00948 340.9 6.6
338(10) 0.00988 341.0 6.7
365(10) 0.00852 341.0 6.7
349(10) 0.00877 341.0 6.9
372(10) 0.00850 341.0 7.0
345(10) 0.00988 341.0 7.1
344(10) 0.00986 341.0 7.2
341(10) 0.00936 341.0 7.4
334(10) 0.00969 341.0 7.6
343(10) 0.00947 341.0 7.7
347(10) 0.00981 341.1 7.9
357(10) 0.00945 341.1 8.1
337(10) 0.00942 341.1 8.3
345(10) 0.00904 341.1 8.6
356(10) 0.00915 341.1 8.8
370(10) 0.00925 341.1 9.1
352(10) 0.00942 341.1 9.4
364(10) 0.00855 341.1 9.8
363(10) 0.00849 341.1 10.3
320(9) 0.01020 341.2 10.9
344(10) 0.00996 341.2 11.7
354(10) 0.00905 341.2 12.6
345(10) 0.00895 341.2 13.8
372(11) 0.00837 341.2 15.2
353(10) 0.00928 341.2 16.9
328(9) 0.01017 341.2 18.6
353(10) 0.00903 341.2 20.3
358(10) 0.00875 341.3 21.7
351(10) 0.00909 341.3 22.4
346(10) 0.00978 341.3 22.4
323(9) 0.01026 341.3 21.6
350(10) 0.00909 341.3 20.2
364(11) 0.00830 341.3 18.6
342(10) 0.00951 341.3 17.0
353(10) 0.00937 341.3 15.5
363(10) 0.00933 341.3 14.3
351(10) 0.00914 341.4 13.3
334(10) 0.00913 341.4 12.5
331(10) 0.00980 341.4 11.8
354(10) 0.00955 341.4 11.4
358(10) 0.00947 341.4 11.0
340(10) 0.00935 341.4 10.8
364(11) 0.00791 341.4 10.6
360(10) 0.00891 341.4 10.4
346(10) 0.00964 341.4 10.3
352(10) 0.00977 341.5 10.2
373(10) 0.00846 341.5 10.1
379(11) 0.00790 341.5 10.0
362(10) 0.00896 341.5 9.9
348(10) 0.00980 341.5 9.9
347(10) 0.00977 341.5 9.8
343(10) 0.00938 341.5 9.8
345(10) 0.00880 341.5 9.7
354(10) 0.00900 341.5 9.7
330(9) 0.01029 341.6 9.7
354(10) 0.00958 341.6 9.6
356(10) 0.00899 341.6 9.6
356(10) 0.00872 341.6 9.6
348(10) 0.00945 341.6 9.6
350(10) 0.00966 341.6 9.6
352(10) 0.00954 341.6 9.6
351(10) 0.00900 341.6 9.6
354(10) 0.00889 341.7 9.6
353(10) 0.00924 341.7 9.6
369(10) 0.00922 341.7 9.6
345(10) 0.00955 341.7 9.6
382(10) 0.00846 341.7 9.7
349(10) 0.00915 341.7 9.7
365(10) 0.00887 341.7 9.7
356(10) 0.00960 341.7 9.7
330(10) 0.00996 341.7 9.8
347(10) 0.00901 341.8 9.9
347(10) 0.00912 341.8 9.9
369(10) 0.00854 341.8 10.0
353(10) 0.00953 341.8 10.1
370(10) 0.00877 341.8 10.2
352(10) 0.00916 341.8 10.3
363(10) 0.00921 341.8 10.4
366(10) 0.00907 341.8 10.5
376(10) 0.00910 341.8 10.7
355(10) 0.00894 341.9 10.8
344(10) 0.00886 341.9 11.0
361(10) 0.00875 341.9 11.2
353(10) 0.00962 341.9 11.4
369(10) 0.00916 341.9 11.5
347(10) 0.00911 341.9 11.8
342(10) 0.00874 341.9 12.0
371(10) 0.00870 341.9 12.4
380(10) 0.00901 342.0 12.8
343(10) 0.00991 342.0 13.5
363(10) 0.00897 342.0 14.5
349(10) 0.00903 342.0 15.8
372(10) 0.00871 342.0 17.5
378(10) 0.00896 342.0 19.4
382(10) 0.00901 342.0 21.1
361(10) 0.00912 342.0 21.9
356(10) 0.00847 342.0 21.8
339(10) 0.00953 342.1 20.7
370(10) 0.00920 342.1 19.3
334(10) 0.01001 342.1 17.9
353(10) 0.00908 342.1 16.9
356(10) 0.00860 342.1 16.3
357(10) 0.00877 342.1 16.0
338(10) 0.01003 342.1 15.9
355(10) 0.00965 342.1 15.9
336(10) 0.00967 342.1 15.9
346(10) 0.00886 342.2 15.9
338(10) 0.00937 342.2 15.9
354(10) 0.00939 342.2 15.8
355(10) 0.00937 342.2 15.7
350(10) 0.00890 342.2 15.5
359(10) 0.00868 342.2 15.3
368(10) 0.00893 342.2 15.2
369(10) 0.00934 342.2 15.0
334(10) 0.00961 342.2 14.8
368(10) 0.00844 342.3 14.6
337(10) 0.00923 342.3 14.4
346(10) 0.00915 342.3 14.3
378(10) 0.00907 342.3 14.1
341(10) 0.00927 342.3 13.9
375(11) 0.00837 342.3 13.8
402(11) 0.00785 342.3 13.6
349(10) 0.00938 342.3 13.5
343(10) 0.00983 342.4 13.4
335(10) 0.00964 342.4 13.3
361(10) 0.00854 342.4 13.1
376(11) 0.00834 342.4 13.1
354(10) 0.00927 342.4 13.0
363(10) 0.00945 342.4 12.9
348(10) 0.00923 342.4 12.9
345(10) 0.00887 342.4 12.9
369(10) 0.00843 342.4 12.9
362(10) 0.00928 342.5 12.9
381(10) 0.00901 342.5 13.0
334(10) 0.00962 342.5 13.1
348(11) 0.00838 342.5 13.2
331(10) 0.00960 342.5 13.4
358(10) 0.00931 342.5 13.5
351(10) 0.00964 342.5 13.7
341(10) 0.00925 342.5 13.8
375(11) 0.00766 342.5 14.0
323(10) 0.00994 342.6 14.1
355(10) 0.00969 342.6 14.2
362(10) 0.00931 342.6 14.2
338(10) 0.00945 342.6 14.1
347(10) 0.00851 342.6 14.0
358(10) 0.00910 342.6 13.9
344(10) 0.00985 342.6 13.8
360(10) 0.00917 342.6 13.6
348(10) 0.00888 342.7 13.4
344(10) 0.00875 342.7 13.3
378(10) 0.00849 342.7 13.2
327(9) 0.01017 342.7 13.1
350(10) 0.00963 342.7 13.1
368(10) 0.00881 342.7 13.3
362(10) 0.00856 342.7 13.6
354(10) 0.00915 342.7 14.1
348(10) 0.00980 342.7 14.9
356(10) 0.00943 342.8 16.2
356(10) 0.00904 342.8 18.1
358(10) 0.00846 342.8 20.8
385(11) 0.00808 342.8 24.4
371(10) 0.00922 342.8 29.1
363(10) 0.00910 342.8 34.9
428(11) 0.00728 342.8 41.7
397(11) 0.00789 342.8 49.3
390(11) 0.00830 342.8 57.0
417(11) 0.00824 342.9 63.7
408(11) 0.00803 342.9 68.2
385(11) 0.00821 342.9 69.1
400(11) 0.00789 342.9 66.2
389(10) 0.00852 342.9 60.5
392(10) 0.00869 342.9 53.1
401(11) 0.00830 342.9 45.6
394(11) 0.00801 342.9 38.6
358(10) 0.00894 343.0 32.8
370(10) 0.00875 343.0 28.3
372(10) 0.00917 343.0 25.3
382(10) 0.00863 343.0 23.7
373(10) 0.00848 343.0 23.4
359(10) 0.00931 343.0 24.2
399(11) 0.00828 343.0 25.7
365(10) 0.00942 343.0 27.4
364(10) 0.00905 343.0 28.7
399(11) 0.00742 343.1 28.9
382(10) 0.00868 343.1 27.6
404(11) 0.00835 343.1 25.1
371(10) 0.00921 343.1 22.1
361(10) 0.00902 343.1 18.9
361(10) 0.00840 343.1 16.0
354(10) 0.00944 343.1 13.6
358(10) 0.00942 343.1 11.6
347(10) 0.00993 343.1 10.1
366(10) 0.00881 343.2 8.9
362(10) 0.00843 343.2 8.1
362(10) 0.00895 343.2 7.5
342(10) 0.00976 343.2 7.1
339(10) 0.01002 343.2 6.8
348(10) 0.00916 343.2 6.5
344(10) 0.00896 343.2 6.3
356(10) 0.00907 343.2 6.2
350(10) 0.00970 343.2 6.0
342(10) 0.00974 343.3 5.9
331(10) 0.00962 343.3 5.8
333(10) 0.00901 343.3 5.7
355(10) 0.00887 343.3 5.6
347(10) 0.00980 343.3 5.5
335(10) 0.00967 343.3 5.5
344(10) 0.00933 343.3 5.4
327(10) 0.00960 343.3 5.3
341(10) 0.00929 343.4 5.2
347(10) 0.00976 343.4 5.1
358(10) 0.00940 343.4 5.1
346(10) 0.00907 343.4 5.0
336(10) 0.00925 343.4 4.9
360(10) 0.00881 343.4 4.8
330(9) 0.01018 343.4 4.7
324(9) 0.01031 343.4 4.6
364(10) 0.00883 343.4 4.5
355(10) 0.00889 343.4 4.4
342(10) 0.00963 343.4 4.4
345(10) 0.00983 343.4 4.3
340(10) 0.00938 343.4 4.2
327(10) . . .
341(10) . . .
345(10) . . .
328(9) . . .
363(10) . . .
334(10) . . .
309(9) . . .
340(10) . . .
339(10) . . .
339(10) . . .
313(9) . . .
339(10) . . .
365(10) . . .
322(9) . . .
355(10) . . .
358(11) . . .
342(10) . . .
347(10) . . .
338(9) . . .
339(10) . . .
342(10) . . .
347(10) . . .
332(9) . . .
324(9) . . .
347(10) . . .
335(10) . . .
320(9) . . .
340(10) . . .
352(10) . . .
338(10) . . .
336(10) . . .
358(10) . . .
335(9) . . .
346(10) . . .
339(10) . . .
364(10) . . .
370(11) . . .
327(9) . . .
352(10) . . .
350(10) . . .
368(11) . . .
311(9) . . .
328(9) . . .
325(10) . . .
337(10) . . .
323(10) . . .
323(10) . . .
351(10) . . .
354(10) . . .
355(10) . . .
346(10) . . .
333(10) . . .
321(9) . . .
335(10) . . .
340(10) . . .
329(10) . . .
322(9) . . .
307(9) . . .
338(10) . . .
349(10) . . .
357(10) . . .
362(10) . . .
361(10) . . .
336(10) . . .
324(10) . . .
334(10) . . .
339(10) . . .
365(10) . . .
356(10) . . .
349(10) . . .
310(9) . . .
363(10) . . .
359(10) . . .
346(10) . . .
341(10) . . .
323(10) . . .
340(9) . . .
358(10) . . .
341(10) . . .
327(10) . . .
298(9) . . .
334(9) . . .
338(10) . . .
376(11) . . .
352(10) . . .
334(10) . . .
343(10) . . .
334(10) . . .
328(10) . . .
345(10) . . .
329(10) . . .
319(9) . . .
343(10) . . .
347(10) . . .
335(10) . . .
345(10) . . .
349(10) . . .
349(10) . . .
353(10) . . .
334(10) . . .
337(10) . . .
327(9) . . .
375(10) . . .
350(10) . . .
357(10) . . .
373(10) . . .
357(10) . . .
352(10) . . .
359(10) . . .
365(10) . . .
337(10) . . .
361(10) . . .
352(10) . . .
341(10) . . .
349(10) . . .
353(10) . . .
357(10) . . .
328(10) . . .
353(11) . . .
361(10) . . .
373(10) . . .
353(10) . . .
351(10) . . .
339(10) . . .
359(10) . . .
348(10) . . .
373(10) . . .
354(10) . . .
363(11) . . .
352(10) . . .
362(10) . . .
343(10) . . .
364(10) . . .
361(11) . . .
371(10) . . .
372(10) . . .
380(10) . . .
357(10) . . .
347(10) . . .
350(10) . . .
343(10) . . .
357(10) . . .
360(10) . . .
339(10) . . .
330(10) . . .
340(10) . . .
367(10) . . .
381(11) . . .
338(10) . . .
338(10) . . .
357(10) . . .
332(10) . . .
326(10) . . .
331(10) . . .
325(9) . . .
346(10) . . .
334(10) . . .
336(10) . . .
336(10) . . .
359(10) . . .
342(10) . . .
346(10) . . .
365(11) . . .
365(10) . . .
351(10) . . .
315(9) . . .
331(10) . . .
359(11) . . .
343(10) . . .
346(10) . . .
339(10) . . .
336(10) . . .
374(11) . . .
358(10) . . .
352(10) . . .
372(10) . . .
342(10) . . .
358(10) . . .
343(10) . . .
335(10) . . .
334(10) . . .
327(10) . . .
315(10) . . .
338(10) . . .
323(9) . . .
305(9) . . .
315(10) . . .
321(10) . . .
300(9) . . .
320(9) . . .
331(10) . . .
354(10) . . .
365(10) . . .
336(10) . . .
336(10) . . .
338(10) . . .
312(9) . . .
320(10) . . .
350(10) . . .
323(9) . . .
322(9) . . .
347(10) . . .
310(9) . . .
350(10) . . .
335(10) . . .
360(10) . . .
363(10) . . .
344(10) . . .
308(9) . . .
343(10) . . .
321(10) . . .
336(10) . . .
351(10) . . .
364(10) . . .
355(10) . . .
368(10) . . .
363(10) . . .
355(10) . . .
341(10) . . .
371(10) . . .
343(10) . . .
358(11) . . .
340(10) . . .
328(9) . . .
336(10) . . .
315(10) . . .
323(10) . . .
320(9) . . .
315(9) . . .
341(10) . . .
345(10) . . .
345(10) . . .
357(10) . . .
356(10) . . .
340(10) . . .
308(9) . . .
341(10) . . .
347(10) . . .
330(9) . . .
348(10) . . .
332(10) . . .
345(10) . . .
366(10) . . .
350(10) . . .
354(10) . . .
334(10) . . .
344(10) . . .
341(10) . . .
321(9) . . .
321(9) . . .
371(11) . . .
343(10) . . .
335(10) . . .
332(9) . . .
320(10) . . .
341(10) . . .
340(10) . . .
364(10) . . .
351(10) . . .
357(10) . . .
391(11) . . .
360(10) . . .
370(10) . . .
353(10) . . .
360(10) . . .
397(11) . . .
403(11) . . .
397(10) . . .
429(11) . . .
469(12) . . .
409(11) . . .
409(11) . . .
431(11) . . .
418(11) . . .
416(11) . . .
441(12) . . .
403(11) . . .
395(10) . . .
381(10) . . .
412(11) . . .
389(11) . . .
382(10) . . .
384(10) . . .
358(10) . . .
383(11) . . .
359(10) . . .
372(10) . . .
370(10) . . .
339(10) . . .
332(10) . . .
361(11) . . .
347(10) . . .
362(10) . . .
350(10) . . .
349(10) . . .
350(10) . . .
342(10) . . .
348(10) . . .
344(10) . . .
341(10) . . .
333(10) . . .
328(10) . . .
351(10) . . .
336(10) . . .
298(9) . . .
326(10) . . .
318(10) . . .
357(10) . . .
327(10) . . .
342(10) . . .
348(10) . . .
342(10) . . .
340(10) . . .
332(10) . . .
360(10) . . .
337(10) . . .
363(10) . . .
314(9) . . .
353(10) . . .
340(10) . . .
329(10) . . .
330(9) . . .
335(10) . . .
327(10) . . .
347(10) . . .
328(10) . . .
322(9) . . .
357(10) . . .
328(10) . . .
316(10) . . .
334(10) . . .
354(10) . . .
335(10) . . .
345(10) . . .
344(10) . . .
346(10) . . .
335(9) . . .
312(9) . . .
318(10) . . .
340(10) . . .
337(10) . . .
324(9) . . .
320(10) . . .
319(10) . . .
365(10) . . .
346(10) . . .
314(9) . . .
320(10) . . .
351(10) . . .
351(10) . . .
328(9) . . .
309(9) . . .
334(10) . . .
339(10) . . .
337(10) . . .
345(10) . . .
334(9) . . .
343(10) . . .
346(10) . . .
335(10) . . .
331(10) . . .
302(9) . . .
332(10) . . .
316(10) . . .
316(9) . . .
319(9) . . .
325(9) . . .
326(10) . . .
293(9) . . .
305(9) . . .
335(10) . . .
336(10) . . .
353(10) . . .
320(10) . . .
327(10) . . .
297(9) . . .
322(9) . . .
325(10) . . .
343(10) . . .
296(9) . . .
336(9) . . .
338(10) . . .
299(9) . . .
310(10) . . .
351(10) . . .
301(9) . . .
340(10) . . .
317(10) . . .
330(10) . . .
333(10) . . .
339(10) . . .
329(10) . . .
326(10) . . .
332(10) . . .
315(9) . . .
334(9) . . .
309(9) . . .
310(9) . . .
323(9) . . .
344(10) . . .
330(9) . . .
335(10) . . .
326(10) . . .
288(9) . . .
287(9) . . .
292(9) . . .
308(9) . . .
331(10) . . .
304(9) . . .
336(10) . . .
312(9) . . .
295(9) . . .
311(10) . . .
329(10) . . .
303(9) . . .
341(10) . . .
295(9) . . .
334(10) . . .
313(9) . . .
290(9) . . .
324(9) . . .
331(10) . . .
317(10) . . .
308(9) . . .
312(9) . . .
303(9) . . .
330(10) . . .
332(10) . . .
292(9) . . .
323(9) . . .
336(10) . . .
334(10) . . .
352(10) . . .
339(10) . . .
332(9) . . .
326(9) . . .
315(9) . . .
331(10) . . .
318(10) . . .
333(9) . . .
313(9) . . .
324(10) . . .
340(10) . . .
370(10) . . .
334(9) . . .
325(9) . . .
349(10) . . .
338(10) . . .
358(10) . . .
364(10) . . .
352(10) . . .
343(10) . . .
333(10) . . .
367(10) . . .
356(10) . . .
353(10) . . .
361(10) . . .
356(10) . . .
376(10) . . .
348(10) . . .
376(10) . . .
387(11) . . .
377(10) . . .
358(10) . . .
364(10) . . .
340(10) . . .
384(11) . . .
403(11) . . .
400(10) . . .
374(10) . . .
371(10) . . .
373(11) . . .
381(10) . . .
352(10) . . .
376(10) . . .
338(10) . . .
349(11) . . .
382(10) . . .
352(10) . . .
354(10) . . .
349(10) . . .
373(11) . . .
343(10) . . .
348(10) . . .
335(10) . . .
314(10) . . .
334(10) . . .
322(10) . . .
337(10) . . .
354(10) . . .
329(10) . . .
315(10) . . .
335(10) . . .
310(9) . . .
324(10) . . .
308(10) . . .
304(9) . . .
348(10) . . .
313(9) . . .
329(10) . . .
306(10) . . .
292(9) . . .
297(9) . . .
315(9) . . .
316(9) . . .
300(9) . . .
307(9) . . .
323(9) . . .
327(9) . . .
323(10) . . .
316(10) . . .
290(9) . . .
305(9) . . .
318(9) . . .
306(10) . . .
295(10) . . .
314(9) . . .
307(9) . . .
314(9) . . .
323(10) . . .
285(9) . . .
299(9) . . .
322(9) . . .
314(9) . . .
295(9) . . .
311(10) . . .
301(9) . . .
308(9) . . .
295(9) . . .
293(9) . . .
307(10) . . .
314(9) . . .
314(9) . . .
290(9) . . .
312(10) . . .
301(10) . . .
298(9) . . .
324(9) . . .
324(9) . . .
311(10) . . .
298(10) . . .
312(9) . . .
319(9) . . .
316(10) . . .
308(9) . . .
315(10) . . .
315(9) . . .
312(9) . . .
304(9) . . .
297(9) . . .
323(10) . . .
297(9) . . .
316(9) . . .
319(10) . . .
288(9) . . .
308(10) . . .
290(9) . . .
292(9) . . .
301(9) . . .
301(10) . . .
302(9) . . .
313(9) . . .
317(9) . . .
299(9) . . .
303(10) . . .
310(9) . . .
313(9) . . .
297(9) . . .
315(9) . . .
295(9) . . .
284(9) . . .
322(9) . . .
322(9) . . .
330(10) . . .
319(10) . . .
341(10) . . .
318(9) . . .
295(9) . . .
292(9) . . .
305(10) . . .
312(10) . . .
302(9) . . .
315(9) . . .
302(9) . . .
301(10) . . .
292(9) . . .
326(9) . . .
313(9) . . .
311(10) . . .
309(9) . . .
306(9) . . .
302(9) . . .
316(9) . . .
313(9) . . .
314(10) . . .
313(10) . . .
304(9) . . .
309(9) . . .
298(9) . . .
289(9) . . .
305(9) . . .
306(9) . . .
311(10) . . .
304(9) . . .
312(9) . . .
303(9) . . .
288(9) . . .
299(9) . . .
321(10) . . .
295(9) . . .
301(9) . . .
319(9) . . .
295(9) . . .
312(10) . . .
298(9) . . .
306(9) . . .
297(9) . . .
300(9) . . .
293(9) . . .
284(9) . . .
296(9) . . .
289(9) . . .
282(9) . . .
290(9) . . .
307(9) . . .
271(9) . . .
312(9) . . .
293(9) . . .
302(10) . . .
283(9) . . .
293(9) . . .
326(9) . . .
303(9) . . .
280(9) . . .
294(9) . . .
293(9) . . .
289(9) . . .
292(9) . . .
304(10) . . .
283(9) . . .
281(9) . . .
286(9) . . .
279(9) . . .
294(9) . . .
298(9) . . .
306(9) . . .
305(9) . . .
305(9) . . .
325(10) . . .
327(10) . . .
315(9) . . .
323(10) . . .
351(10) . . .
391(11) . . .
323(10) . . .
321(9) . . .
357(10) . . .
318(10) . . .
313(9) . . .
329(9) . . .
290(9) . . .
297(9) . . .
285(9) . . .
302(9) . . .
275(9) . . .
309(9) . . .
295(9) . . .
297(9) . . .
290(9) . . .
315(9) . . .
304(9) . . .
325(10) . . .
298(10) . . .
307(9) . . .
317(9) . . .
320(9) . . .
302(9) . . .
313(10) . . .
322(10) . . .
273(9) . . .
300(9) . . .
292(9) . . .
307(10) . . .
292(9) . . .
329(9) . . .
315(9) . . .
309(9) . . .
335(10) . . .
339(10) . . .
343(10) . . .
338(10) . . .
319(10) . . .
305(9) . . .
318(10) . . .
309(9) . . .
294(9) . . .
304(9) . . .
295(9) . . .
316(10) . . .
297(9) . . .
290(9) . . .
280(9) . . .
302(9) . . .
301(9) . . .
282(9) . . .
324(10) . . .
301(10) . . .
298(9) . . .
276(9) . . .
298(9) . . .
306(9) . . .
292(9) . . .
288(9) . . .
306(9) . . .
302(9) . . .
278(9) . . .
316(10) . . .
284(9) . . .
289(9) . . .
305(9) . . .
297(9) . . .
311(10) . . .
310(10) . . .
290(9) . . .
273(9) . . .
274(9) . . .
283(9) . . .
285(9) . . .
312(9) . . .
272(9) . . .
270(9) . . .
300(10) . . .
293(9) . . .
293(9) . . .
301(9) . . .
291(9) . . .
281(9) . . .
285(9) . . .
286(9) . . .
285(9) . . .
282(9) . . .
276(9) . . .
268(9) . . .
283(9) . . .
280(9) . . .
298(9) . . .
299(10) . . .
278(9) . . .
269(8) . . .
258(9) . . .
297(9) . . .
277(9) . . .
308(9) . . .
263(8) . . .
282(9) . . .
289(9) . . .
269(9) . . .
283(9) . . .
292(9) . . .
285(9) . . .
296(9) . . .
269(9) . . .
275(9) . . .
307(9) . . .
296(9) . . .
280(9) . . .
275(9) . . .
295(9) . . .
292(9) . . .
295(9) . . .
276(9) . . .
248(8) . . .
254(8) . . .
281(9) . . .
290(9) . . .
275(9) . . .
292(9) . . .
270(9) . . .
275(9) . . .
300(9) . . .
293(9) . . .
266(9) . . .
280(9) . . .
297(9) . . .
286(9) . . .
296(9) . . .
290(9) . . .
289(9) . . .
261(8) . . .
283(9) . . .
282(9) . . .
271(9) . . .
291(9) . . .
288(9) . . .
278(9) . . .
303(10) . . .
287(9) . . .
289(9) . . .
278(9) . . .
328(10) . . .
303(9) . . .
327(10) . . .
315(9) . . .
319(10) . . .
298(9) . . .
327(10) . . .
339(10) . . .
293(9) . . .
323(10) . . .
307(9) . . .
338(10) . . .
332(10) . . .
307(9) . . .
295(9) . . .
338(10) . . .
323(10) . . .
323(9) . . .
325(9) . . .
311(9) . . .
293(9) . . .
315(10) . . .
319(9) . . .
306(9) . . .
284(9) . . .
316(10) . . .
318(10) . . .
295(9) . . .
305(9) . . .
318(10) . . .
323(10) . . .
317(10) . . .
336(10) . . .
294(9) . . .
296(9) . . .
314(10) . . .
309(9) . . .
271(9) . . .
296(9) . . .
308(10) . . .
321(10) . . .
331(10) . . .
318(9) . . .
301(9) . . .
304(9) . . .
325(10) . . .
332(10) . . .
291(9) . . .
332(10) . . .
302(9) . . .
326(10) . . .
319(10) . . .
296(9) . . .
332(10) . . .
297(9) . . .
302(9) . . .
304(9) . . .
341(10) . . .
326(10) . . .
343(10) . . .
321(10) . . .
327(10) . . .
318(9) . . .
312(10) . . .
296(9) . . .
317(10) . . .
287(9) . . .
288(9) . . .
295(9) . . .
287(9) . . .
277(9) . . .
285(9) . . .
286(9) . . .
283(9) . . .
284(9) . . .
292(9) . . .
290(9) . . .
273(8) . . .
283(9) . . .
283(9) . . .
276(9) . . .
259(8) . . .
264(9) . . .
270(9) . . .
275(9) . . .
277(9) . . .
280(9) . . .
276(9) . . .
262(9) . . .
286(9) . . .
273(9) . . .
272(9) . . .
253(8) . . .
274(9) . . .
261(9) . . .
287(9) . . .
286(9) . . .
280(9) . . .
269(9) . . .
259(9) . . .
261(9) . . .
266(8) . . .
276(9) . . .
273(9) . . .
244(8) . . .
259(9) . . .
261(8) . . .
276(9) . . .
276(9) . . .
238(8) . . .
242(8) . . .
260(8) . . .
270(9) . . .
274(9) . . .
261(9) . . .
279(9) . . .
268(8) . . .
265(9) . . .
266(9) . . .
261(9) . . .
287(9) . . .
270(8) . . .
275(9) . . .
248(9) . . .
261(9) . . .
270(9) . . .
251(8) . . .
259(9) . . .
252(9) . . .
293(9) . . .
288(9) . . .
290(9) . . .
274(9) . . .
272(9) . . .
291(9) . . .
289(9) . . .
291(9) . . .
254(9) . . .
258(9) . . .
276(9) . . .
265(8) . . .
251(8) . . .
280(9) . . .
291(10) . . .
292(9) . . .
264(8) . . .
261(9) . . .
275(9) . . .
278(9) . . .
261(9) . . .
258(8) . . .
265(9) . . .
250(8) . . .
283(9) . . .
282(9) . . .
268(9) . . .
258(8) . . .
284(9) . . .
286(9) . . .
280(9) . . .
243(8) . . .
246(8) . . .
265(9) . . .
258(9) . . .
246(8) . . .
256(8) . . .
273(9) . . .
238(8) . . .
275(9) . . .
265(8) . . .
244(8) . . .
252(8) . . .
279(9) . . .
283(9) . . .
266(9) . . .
268(8) . . .
276(9) . . .
246(9) . . .
239(8) . . .
274(9) . . .
269(9) . . .
267(9) . . .
277(9) . . .
258(9) . . .
244(8) . . .
257(8) . . .
291(9) . . .
284(9) . . .
284(9) . . .
269(8) . . .
275(9) . . .
236(8) . . .
257(9) . . .
256(9) . . .
280(9) . . .
262(9) . . .
270(9) . . .
274(9) . . .
273(9) . . .
262(8) . . .
270(9) . . .
264(9) . . .
248(9) . . .
252(8) . . .
279(9) . . .
282(9) . . .
283(9) . . .
277(9) . . .
264(9) . . .
269(9) . . .
283(9) . . .
272(9) . . .
266(9) . . .
270(9) . . .
267(8) . . .
236(8) . . .
282(9) . . .
277(9) . . .
258(8) . . .
259(8) . . .
251(9) . . .
268(9) . . .
255(9) . . .
265(8) . . .
282(9) . . .
250(8) . . .
250(9) . . .
252(9) . . .
240(8) . . .
257(8) . . .
242(8) . . .
259(9) . . .
282(9) . . .
258(8) . . .
275(9) . . .
263(9) . . .
272(9) . . .
272(9) . . .
240(8) . . .
255(8) . . .
248(8) . . .
249(9) . . .
249(8) . . .
254(8) . . .
274(9) . . .
264(9) . . .
270(9) . . .
245(8) . . .
249(8) . . .
263(9) . . .
238(8) . . .
247(9) . . .
248(8) . . .
248(8) . . .
250(8) . . .
266(9) . . .
265(9) . . .
244(8) . . .
266(8) . . .
262(9) . . .
259(9) . . .
262(9) . . .
237(8) . . .
256(8) . . .
249(8) . . .
279(9) . . .
244(8) . . .
245(8) . . .
269(9) . . .
258(9) . . .
250(9) . . .
250(9) . . .
250(8) . . .
256(8) . . .
282(9) . . .
271(9) . . .
254(9) . . .
250(8) . . .
252(8) . . .
268(9) . . .
281(9) . . .
221(8) . . .
278(9) . . .
244(8) . . .
257(9) . . .
256(9) . . .
252(8) . . .
270(9) . . .
251(8) . . .
259(9) . . .
261(9) . . .
239(8) . . .
218(8) . . .
229(8) . . .
239(8) . . .
278(9) . . .
249(8) . . .
256(8) . . .
269(9) . . .
259(9) . . .
267(9) . . .
264(9) . . .
250(8) . . .
247(8) . . .
235(8) . . .
235(8) . . .
227(8) . . .
257(8) . . .
248(9) . . .
254(9) . . .
263(9) . . .
251(8) . . .
243(8) . . .
240(8) . . .
259(9) . . .
256(9) . . .
255(8) . . .
266(8) . . .
252(9) . . .
229(8) . . .
252(9) . . .
270(9) . . .
268(8) . . .
268(9) . . .
265(9) . . .
248(8) . . .
234(8) . . .
256(8) . . .
258(9) . . .
270(9) . . .
272(9) . . .
261(8) . . .
254(8) . . .
269(9) . . .
258(9) . . .
254(9) . . .
249(8) . . .
259(8) . . .
250(8) . . .
236(8) . . .
250(8) . . .
271(9) . . .
269(8) . . .
277(9) . . .
261(9) . . .
236(8) . . .
257(8) . . .
272(9) . . .
248(8) . . .
243(8) . . .
228(8) . . .
243(8) . . .
238(8) . . .
257(9) . . .
248(8) . . .
247(9) . . .
236(8) . . .
269(9) . . .
225(8) . . .
243(8) . . .
241(8) . . .
245(8) . . .
232(8) . . .
232(8) . . .
237(8) . . .
255(8) . . .
233(8) . . .
231(8) . . .
243(8) . . .
247(8) . . .
258(8) . . .
261(8) . . .
243(8) . . .
246(9) . . .
247(9) . . .
243(8) . . .
229(8) . . .
247(9) . . .
228(8) . . .
282(9) . . .
252(8) . . .
247(8) . . .
250(8) . . .
244(9) . . .
239(8) . . .
245(8) . . .
253(8) . . .
253(8) . . .
244(8) . . .
271(9) . . .
253(8) . . .
260(9) . . .
231(8) . . .
216(8) . . .
260(9) . . .
228(8) . . .
234(8) . . .
252(9) . . .
254(9) . . .
236(8) . . .
216(8) . . .
227(8) . . .
235(8) . . .
256(9) . . .
238(8) . . .
240(8) . . .
247(8) . . .
221(8) . . .
235(8) . . .
233(8) . . .
212(8) . . .
232(8) . . .
224(8) . . .
243(8) . . .
231(8) . . .
230(8) . . .
234(8) . . .
249(9) . . .
249(8) . . .
243(8) . . .
244(8) . . .
238(8) . . .
255(9) . . .
224(8) . . .
227(8) . . .
235(8) . . .
230(8) . . .
242(9) . . .
223(8) . . .
256(8) . . .
221(8) . . .
224(8) . . .
232(8) . . .
259(9) . . .
244(8) . . .
228(8) . . .
231(8) . . .
229(8) . . .
221(8) . . .
229(8) . . .
228(8) . . .
243(9) . . .
242(9) . . .
235(8) . . .
232(8) . . .
249(8) . . .
219(8) . . .
250(9) . . .
233(8) . . .
241(8) . . .
243(8) . . .
236(8) . . .
233(8) . . .
239(8) . . .
221(8) . . .
224(8) . . .
256(9) . . .
254(9) . . .
231(8) . . .
225(8) . . .
250(8) . . .
250(9) . . .
223(8) . . .
210(8) . . .
221(8) . . .
252(9) . . .
234(8) . . .
259(9) . . .
242(8) . . .
211(8) . . .
226(8) . . .
251(9) . . .
239(8) . . .
238(8) . . .
247(8) . . .
239(8) . . .
263(9) . . .
247(8) . . .
218(8) . . .
234(8) . . .
235(8) . . .
239(8) . . .
222(8) . . .
233(8) . . .
240(8) . . .
234(8) . . .
241(9) . . .
232(8) . . .
219(8) . . .
247(8) . . .
263(9) . . .
265(9) . . .
279(9) . . .
318(9) . . .
294(9) . . .
287(9) . . .
284(9) . . .
297(9) . . .
290(9) . . .
282(9) . . .
242(8) . . .
260(9) . . .
265(9) . . .
256(8) . . .
243(8) . . .
246(8) . . .
267(9) . . .
247(8) . . .
252(8) . . .
243(8) . . .
235(8) . . .
242(8) . . .
262(9) . . .
281(9) . . .
279(9) . . .
272(9) . . .
291(9) . . .
264(9) . . .
260(8) . . .
230(8) . . .
250(9) . . .
252(9) . . .
255(8) . . .
237(8) . . .
255(9) . . .
250(9) . . .
248(8) . . .
257(8) . . .
244(8) . . .
230(8) . . .
254(9) . . .
227(8) . . .
248(8) . . .
252(8) . . .
253(8) . . .
225(8) . . .
256(9) . . .
265(8) . . .
241(8) . . .
246(8) . . .
266(9) . . .
254(9) . . .
238(8) . . .
247(8) . . .
244(8) . . .
237(8) . . .
240(8) . . .
228(8) . . .
230(8) . . .
240(8) . . .
235(8) . . .
252(8) . . .
254(8) . . .
248(8) . . .
237(8) . . .
252(9) . . .
254(9) . . .
240(8) . . .
229(8) . . .
239(8) . . .
243(8) . . .
260(9) . . .
248(8) . . .
243(9) . . .
243(9) . . .
241(8) . . .
226(8) . . .
256(8) . . .
252(8) . . .
246(9) . . .
249(9) . . .
232(8) . . .
238(8) . . .
256(9) . . .
242(9) . . .
237(8) . . .
253(8) . . .
254(8) . . .
241(8) . . .
244(9) . . .
228(8) . . .
265(8) . . .
227(8) . . .
264(9) . . .
247(9) . . .
275(9) . . .
271(8) . . .
276(9) . . .
302(9) . . .
281(9) . . .
249(9) . . .
259(8) . . .
264(9) . . .
245(8) . . .
243(8) . . .
262(9) . . .
256(8) . . .
251(8) . . .
242(8) . . .
241(8) . . .
257(9) . . .
246(8) . . .
254(8) . . .
262(9) . . .
271(9) . . .
255(8) . . .
267(8) . . .
272(9) . . .
257(9) . . .
255(9) . . .
273(9) . . .
284(9) . . .
264(9) . . .
282(9) . . .
235(8) . . .
274(9) . . .
274(9) . . .
257(9) . . .
300(10) . . .
277(9) . . .
249(8) . . .
242(8) . . .
247(8) . . .
256(9) . . .
257(9) . . .
258(8) . . .
245(8) . . .
240(8) . . .
237(9) . . .
273(9) . . .
252(8) . . .
229(8) . . .
268(9) . . .
270(9) . . .
228(8) . . .
246(8) . . .
249(8) . . .
232(8) . . .
239(8) . . .
236(8) . . .
212(8) . . .
238(8) . . .
238(8) . . .
247(9) . . .
239(8) . . .
235(8) . . .
231(8) . . .
243(8) . . .
227(8) . . .
222(8) . . .
236(8) . . .
237(8) . . .
228(8) . . .
233(8) . . .
216(8) . . .
240(8) . . .
242(8) . . .
240(8) . . .
242(8) . . .
236(8) . . .
228(8) . . .
225(8) . . .
209(8) . . .
210(8) . . .
228(8) . . .
224(8) . . .
244(8) . . .
225(8) . . .
251(9) . . .
231(8) . . .
235(8) . . .
258(9) . . .
235(8) . . .
231(8) . . .
244(8) . . .
228(8) . . .
227(8) . . .
245(9) . . .
233(8) . . .
229(8) . . .
214(8) . . .
216(8) . . .
250(9) . . .
236(8) . . .
225(8) . . .
235(8) . . .
253(9) . . .
217(8) . . .
219(8) . . .
238(8) . . .
224(8) . . .
230(8) . . .
232(8) . . .
225(8) . . .
247(8) . . .
230(8) . . .
251(9) . . .
212(8) . . .
229(8) . . .
213(8) . . .
232(8) . . .
228(8) . . .
226(8) . . .
233(8) . . .
246(8) . . .
240(8) . . .
221(8) . . .
220(8) . . .
216(8) . . .
236(8) . . .
239(8) . . .
234(8) . . .
234(8) . . .
212(8) . . .
229(8) . . .
233(8) . . .
230(8) . . .
226(8) . . .
253(8) . . .
229(8) . . .
238(8) . . .
248(9) . . .
260(9) . . .
248(8) . . .
234(8) . . .
239(8) . . .
257(9) . . .
247(8) . . .
243(8) . . .
235(8) . . .
233(8) . . .
236(8) . . .
246(8) . . .
241(8) . . .
246(8) . . .
220(8) . . .
224(8) . . .
207(8) . . .
227(8) . . .
208(7) . . .
224(8) . . .
233(8) . . .
222(8) . . .
250(8) . . .
250(8) . . .
240(8) . . .
232(8) . . .
217(8) . . .
233(8) . . .
215(8) . . .
235(8) . . .
231(8) . . .
232(8) . . .
230(8) . . .
245(8) . . .
228(8) . . .
219(8) . . .
219(8) . . .
218(8) . . .
223(8) . . .
229(8) . . .
234(8) . . .
209(8) . . .
227(8) . . .
217(8) . . .
202(7) . . .
218(8) . . .
200(7) . . .
233(8) . . .
230(8) . . .
246(9) . . .
237(8) . . .
211(8) . . .
223(8) . . .
222(8) . . .
224(8) . . .
223(8) . . .
218(8) . . .
235(8) . . .
212(8) . . .
209(8) . . .
228(8) . . .
218(8) . . .
213(8) . . .
234(8) . . .
219(8) . . .
236(8) . . .
226(8) . . .
211(8) . . .
245(8) . . .
222(8) . . .
218(8) . . .
227(8) . . .
217(8) . . .
219(8) . . .
203(8) . . .
224(8) . . .
216(8) . . .
206(8) . . .
223(8) . . .
216(8) . . .
219(8) . . .
231(8) . . .
234(8) . . .
234(8) . . .
220(8) . . .
226(8) . . .
220(8) . . .
227(8) . . .
228(8) . . .
228(8) . . .
229(8) . . .
237(8) . . .
215(8) . . .
225(8) . . .
209(8) . . .
221(8) . . .
225(8) . . .
215(8) . . .
242(9) . . .
208(8) . . .
203(7) . . .
212(8) . . .
231(8) . . .
239(8) . . .
231(8) . . .
215(8) . . .
232(8) . . .
228(8) . . .
222(8) . . .
239(8) . . .
236(8) . . .
227(8) . . .
242(8) . . .
230(8) . . .
223(8) . . .
236(8) . . .
222(8) . . .
228(8) . . .
248(9) . . .
229(8) . . .
220(8) . . .
252(8) . . .
236(8) . . .
247(9) . . .
222(8) . . .
237(8) . . .
234(8) . . .
232(8) . . .
263(9) . . .
247(8) . . .
275(9) . . .
240(8) . . .
243(9) . . .
226(8) . . .
223(8) . . .
223(8) . . .
233(8) . . .
234(8) . . .
229(8) . . .
234(8) . . .
232(8) . . .
221(8) . . .
234(8) . . .
239(8) . . .
210(8) . . .
235(8) . . .
241(8) . . .
223(8) . . .
220(8) . . .
189(7) . . .
221(8) . . .
208(8) . . .
214(8) . . .
218(8) . . .
217(8) . . .
257(8) . . .
231(8) . . .
217(8) . . .
220(8) . . .
229(8) . . .
232(8) . . .
201(8) . . .
216(8) . . .
236(8) . . .
202(7) . . .
216(8) . . .
202(8) . . .
211(8) . . .
223(8) . . .
219(8) . . .
210(8) . . .
229(8) . . .
216(8) . . .
208(8) . . .
211(8) . . .
221(8) . . .
211(8) . . .
215(8) . . .
213(8) . . .
231(8) . . .
212(8) . . .
223(8) . . .
207(8) . . .
215(8) . . .
230(8) . . .
233(8) . . .
223(8) . . .
206(8) . . .
200(8) . . .
192(7) . . .
215(8) . . .
226(8) . . .
207(8) . . .
191(7) . . .
216(8) . . .
231(8) . . .
216(8) . . .
242(8) . . .
234(8) . . .
219(8) . . .
236(8) . . .
208(8) . . .
251(9) . . .
227(8) . . .
217(8) . . .
222(8) . . .
227(8) . . .
228(8) . . .
245(8) . . .
217(8) . . .
229(8) . . .
223(8) . . .
221(8) . . .
214(8) . . .
217(8) . . .
227(8) . . .
220(8) . . .
212(8) . . .
208(8) . . .
208(7) . . .
219(8) . . .
210(8) . . .
229(8) . . .
210(7) . . .
234(8) . . .
224(8) . . .
228(8) . . .
209(8) . . .
227(8) . . .
245(8) . . .
226(8) . . .
202(8) . . .
208(8) . . .
224(8) . . .
196(7) . . .
219(8) . . .
234(8) . . .
225(8) . . .
226(8) . . .
222(8) . . .
210(8) . . .
220(8) . . .
221(8) . . .
223(8) . . .
213(8) . . .
223(8) . . .
224(8) . . .
206(8) . . .
219(8) . . .
220(8) . . .
195(8) . . .
228(8) . . .
198(7) . . .
232(8) . . .
222(8) . . .
218(8) . . .
207(8) . . .
209(8) . . .
215(8) . . .
228(8) . . .
217(8) . . .
226(8) . . .
201(7) . . .
208(7) . . .
221(8) . . .
211(8) . . .
211(8) . . .
211(8) . . .
237(8) . . .
207(8) . . .
225(8) . . .
219(8) . . .
216(8) . . .
213(8) . . .
214(8) . . .
191(8) . . .
203(8) . . .
230(8) . . .
206(8) . . .
211(8) . . .
214(8) . . .
207(8) . . .
211(8) . . .
203(8) . . .
215(8) . . .
210(8) . . .
209(8) . . .
217(8) . . .
198(7) . . .
231(8) . . .
223(8) . . .
234(8) . . .
209(8) . . .
212(8) . . .
224(8) . . .
240(9) . . .
227(8) . . .
233(8) . . .
235(8) . . .
226(8) . . .
230(8) . . .
232(8) . . .
232(8) . . .
245(9) . . .
230(8) . . .
242(8) . . .
246(8) . . .
235(8) . . .
272(9) . . .
241(9) . . .
251(9) . . .
261(8) . . .
260(8) . . .
248(8) . . .
267(9) . . .
256(8) . . .
246(8) . . .
261(8) . . .
231(8) . . .
274(9) . . .
263(9) . . .
271(9) . . .
270(9) . . .
222(8) . . .
252(9) . . .
236(8) . . .
211(8) . . .
221(8) . . .
233(8) . . .
214(8) . . .
225(8) . . .
216(8) . . .
235(8) . . .
235(8) . . .
236(8) . . .
238(8) . . .
229(8) . . .
193(7) . . .
215(8) . . .
219(8) . . .
196(8) . . .
227(8) . . .
219(8) . . .
214(8) . . .
215(8) . . .
222(8) . . .
218(8) . . .
215(8) . . .
203(8) . . .
199(8) . . .
219(8) . . .
186(7) . . .
219(8) . . .
207(8) . . .
198(7) . . .
217(8) . . .
212(8) . . .
205(8) . . .
200(8) . . .
210(8) . . .
199(7) . . .
202(7) . . .
220(8) . . .
222(8) . . .
204(8) . . .
204(7) . . .
212(8) . . .
200(8) . . .
193(8) . . .
212(8) . . .
201(7) . . .
216(8) . . .
213(8) . . .
220(8) . . .
227(8) . . .
196(7) . . .
212(8) . . .
207(8) . . .
220(8) . . .
237(8) . . .
213(8) . . .
183(7) . . .
217(8) . . .
220(8) . . .
214(8) . . .
221(8) . . .
219(8) . . .
232(8) . . .
226(8) . . .
205(8) . . .
210(8) . . .
195(7) . . .
231(8) . . .
210(8) . . .
221(8) . . .
223(8) . . .
212(8) . . .
204(8) . . .
191(7) . . .
219(8) . . .
223(8) . . .
206(8) . . .
207(8) . . .
232(8) . . .
225(8) . . .
222(8) . . .
208(8) . . .
212(8) . . .
219(8) . . .
212(8) . . .
202(7) . . .
198(8) . . .
216(8) . . .
233(8) . . .
212(8) . . .
194(7) . . .
215(8) . . .
214(8) . . .
217(8) . . .
210(7) . . .
207(8) . . .
214(8) . . .
201(8) . . .
200(8) . . .
213(8) . . .
231(8) . . .
217(8) . . .
203(8) . . .
211(8) . . .
202(7) . . .
209(8) . . .
211(8) . . .
232(8) . . .
229(8) . . .
217(8) . . .
204(7) . . .
215(8) . . .
201(8) . . .
189(7) . . .
210(7) . . .
223(8) . . .
200(8) . . .
193(7) . . .
205(8) . . .
198(7) . . .
209(8) . . .
198(8) . . .
202(8) . . .
218(8) . . .
225(8) . . .
211(8) . . .
228(8) . . .
234(8) . . .
227(8) . . .
202(7) . . .
216(8) . . .
187(8) . . .
200(8) . . .
214(8) . . .
209(7) . . .
203(8) . . .
212(8) . . .
206(8) . . .
203(8) . . .
215(8) . . .
207(8) . . .
219(8) . . .
197(8) . . .
221(8) . . .
206(7) . . .
196(8) . . .
212(8) . . .
208(8) . . .
218(8) . . .
206(8) . . .
212(8) . . .
229(8) . . .
218(8) . . .
218(8) . . .
214(8) . . .
201(8) . . .
196(8) . . .
198(7) . . .
230(8) . . .
211(8) . . .
199(8) . . .
206(8) . . .
203(8) . . .
210(8) . . .
222(8) . . .
212(8) . . .
220(8) . . .
198(7) . . .
204(7) . . .
201(7) . . .
223(8) . . .
217(8) . . .
222(8) . . .
217(8) . . .
209(8) . . .
196(8) . . .
202(8) . . .
196(7) . . .
220(8) . . .
214(8) . . .
217(8) . . .
225(8) . . .
207(7) . . .
214(8) . . .
207(8) . . .
203(8) . . .
219(8) . . .
226(8) . . .
227(8) . . .
246(8) . . .
235(9) . . .
203(8) . . .
214(8) . . .
232(8) . . .
229(8) . . .
226(8) . . .
245(8) . . .
246(8) . . .
245(8) . . .
242(8) . . .
250(9) . . .
233(8) . . .
240(8) . . .
218(8) . . .
246(8) . . .
247(8) . . .
236(8) . . .
227(8) . . .
239(8) . . .
244(9) . . .
219(8) . . .
228(8) . . .
224(8) . . .
230(8) . . .
224(8) . . .
213(8) . . .
226(8) . . .
216(8) . . .
226(8) . . .
215(8) . . .
197(8) . . .
230(8) . . .
215(8) . . .
234(8) . . .
199(8) . . .
191(7) . . .
194(7) . . .
229(8) . . .
228(8) . . .
224(8) . . .
222(8) . . .
208(8) . . .
193(7) . . .
212(8) . . .
224(8) . . .
208(8) . . .
225(8) . . .
235(8) . . .
206(8) . . .
219(8) . . .
221(8) . . .
209(8) . . .
197(7) . . .
225(8) . . .
238(8) . . .
217(8) . . .
234(8) . . .
231(8) . . .
221(8) . . .
219(8) . . .
230(8) . . .
216(8) . . .
194(7) . . .
223(8) . . .
226(8) . . .
213(8) . . .
223(8) . . .
229(8) . . .
231(8) . . .
207(8) . . .
218(8) . . .
240(8) . . .
227(8) . . .
221(8) . . .
228(8) . . .
210(8) . . .
227(8) . . .
222(8) . . .
189(8) . . .
199(8) . . .
227(8) . . .
227(8) . . .
212(8) . . .
228(8) . . .
209(8) . . .
221(8) . . .
232(8) . . .
234(8) . . .
197(7) . . .
240(8) . . .
234(8) . . .
221(8) . . .
208(8) . . .
226(8) . . .
222(8) . . .
214(8) . . .
233(8) . . .
221(8) . . .
215(8) . . .
234(8) . . .
230(8) . . .
221(8) . . .
220(8) . . .
213(8) . . .
220(8) . . .
228(8) . . .
206(8) . . .
217(8) . . .
212(8) . . .
213(8) . . .
214(8) . . .
214(8) . . .
200(8) . . .
212(8) . . .
221(8) . . .
216(8) . . .
200(8) . . .
206(8) . . .
225(8) . . .
211(8) . . .
230(8) . . .
227(8) . . .
245(9) . . .
219(8) . . .
231(8) . . .
236(8) . . .
224(8) . . .
229(8) . . .
230(8) . . .
244(8) . . .
259(8) . . .
262(9) . . .
232(8) . . .
247(9) . . .
257(8) . . .
256(8) . . .
242(8) . . .
242(8) . . .
256(9) . . .
221(8) . . .
231(8) . . .
227(8) . . .
240(8) . . .
230(8) . . .
215(8) . . .
230(8) . . .
230(8) . . .
231(9) . . .
218(8) . . .
232(8) . . .
218(8) . . .
211(8) . . .
238(9) . . .
242(9) . . .
214(8) . . .
227(8) . . .
228(8) . . .
201(8) . . .
237(8) . . .
224(8) . . .
212(8) . . .
219(8) . . .
202(8) . . .
212(8) . . .
221(8) . . .
206(7) . . .
208(8) . . .
243(9) . . .
205(8) . . .
217(8) . . .
214(8) . . .
226(8) . . .
212(8) . . .
219(8) . . .
211(8) . . .
220(8) . . .
219(8) . . .
208(8) . . .
214(8) . . .
224(8) . . .
194(7) . . .
204(8) . . .
210(8) . . .
191(7) . . .
207(7) . . .
204(8) . . .
189(7) . . .
196(8) . . .
201(7) . . .
213(8) . . .
223(8) . . .
220(8) . . .
218(8) . . .
222(8) . . .
209(7) . . .
219(8) . . .
218(8) . . .
178(7) . . .
226(8) . . .
191(7) . . .
216(8) . . .
211(8) . . .
221(8) . . .
220(8) . . .
202(7) . . .
198(8) . . .
224(8) . . .
197(7) . . .
214(8) . . .
204(7) . . .
193(7) . . .
207(8) . . .
220(8) . . .
206(7) . . .
205(7) . . .
220(8) . . .
189(7) . . .
221(8) . . .
194(7) . . .
211(8) . . .
218(8) . . .
210(8) . . .
227(8) . . .
202(7) . . .
214(8) . . .
216(8) . . .
214(8) . . .
209(8) . . .
204(7) . . .
208(8) . . .
204(8) . . .
221(8) . . .
199(7) . . .
199(7) . . .
222(8) . . .
204(8) . . .
190(7) . . .
225(8) . . .
210(8) . . .
218(8) . . .
223(8) . . .
206(8) . . .
210(8) . . .
207(7) . . .
214(8) . . .
225(8) . . .
210(8) . . .
241(8) . . .
213(8) . . .
216(8) . . .
226(8) . . .
203(8) . . .
194(7) . . .
213(8) . . .
227(8) . . .
220(8) . . .
219(8) . . .
223(8) . . .
234(8) . . .
205(8) . . .
210(8) . . .
225(8) . . .
198(7) . . .
223(8) . . .
205(8) . . .
205(8) . . .
223(8) . . .
218(8) . . .
211(8) . . .
228(8) . . .
231(8) . . .
210(8) . . .
215(8) . . .
224(8) . . .
233(8) . . .
245(8) . . .
238(8) . . .
233(8) . . .
263(9) . . .
247(8) . . .
249(9) . . .
237(8) . . .
239(8) . . .
242(8) . . .
269(9) . . .
245(8) . . .
244(8) . . .
233(8) . . .
246(9) . . .
245(9) . . .
255(9) . . .
223(8) . . .
228(8) . . .
225(8) . . .
233(8) . . .
248(8) . . .
221(8) . . .
257(8) . . .
225(8) . . .
222(8) . . .
218(8) . . .
242(8) . . .
246(8) . . .
218(8) . . .
221(8) . . .
211(8) . . .
223(8) . . .
230(8) . . .
205(8) . . .
202(8) . . .
208(8) . . .
201(7) . . .
217(8) . . .
194(7) . . .
207(8) . . .
210(8) . . .
200(7) . . .
201(7) . . .
191(7) . . .
219(8) . . .
194(7) . . .
225(8) . . .
207(8) . . .
215(8) . . .
215(8) . . .
227(8) . . .
211(7) . . .
218(8) . . .
200(8) . . .
214(8) . . .
200(7) . . .
191(7) . . .
197(8) . . .
196(8) . . .
174(7) . . .
174(7) . . .
216(8) . . .
202(8) . . .
190(8) . . .
197(7) . . .
206(8) . . .
206(7) . . .
206(8) . . .
209(8) . . .
208(8) . . .
207(7) . . .
218(8) . . .
199(8) . . .
215(8) . . .
208(8) . . .
202(7) . . .
194(7) . . .
206(8) . . .
228(8) . . .
209(8) . . .
213(8) . . .
229(8) . . .
206(8) . . .
213(8) . . .
204(8) . . .
209(7) . . .
204(8) . . .
228(8) . . .
220(8) . . .
215(8) . . .
220(8) . . .
217(8) . . .
223(8) . . .
207(8) . . .
204(8) . . .
224(8) . . .
205(8) . . .
198(8) . . .
205(8) . . .
194(7) . . .
200(7) . . .
207(8) . . .
214(8) . . .
218(8) . . .
223(8) . . .
200(7) . . .
187(7) . . .
225(8) . . .
216(8) . . .
222(8) . . .
203(7) . . .
195(7) . . .
226(9) . . .
207(8) . . .
214(8) . . .
175(7) . . .
201(8) . . .
191(7) . . .
188(7) . . .
210(8) . . .
214(8) . . .
229(8) . . .
221(9) . . .
191(7) . . .
223(8) . . .
202(7) . . .
216(8) . . .
228(9) . . .
205(8) . . .
198(7) . . .
190(7) . . .
196(8) . . .
229(8) . . .
220(8) . . .
222(8) . . .
195(7) . . .
211(8) . . .
216(8) . . .
221(8) . . .
218(8) . . .
206(8) . . .
211(8) . . .
202(8) . . .
229(8) . . .
209(8) . . .
219(8) . . .
248(8) . . .
240(8) . . .
261(9) . . .
243(8) . . .
225(8) . . .
212(8) . . .
239(9) . . .
280(9) . . .
255(8) . . .
274(9) . . .
253(9) . . .
241(8) . . .
275(9) . . .
237(8) . . .
233(8) . . .
236(9) . . .
216(8) . . .
203(8) . . .
210(8) . . .
219(8) . . .
217(8) . . .
226(8) . . .
212(8) . . .
218(8) . . .
210(8) . . .
207(8) . . .
215(8) . . .
203(7) . . .
214(8) . . .
200(7) . . .
216(8) . . .
217(8) . . .
218(8) . . .
206(7) . . .
210(8) . . .
212(8) . . .
207(8) . . .
208(8) . . .
203(7) . . .
197(7) . . .
219(8) . . .
215(8) . . .
196(7) . . .
205(7) . . .
235(8) . . .
211(8) . . .
207(8) . . .
210(8) . . .
200(7) . . .
207(8) . . .
213(8) . . .
226(8) . . .
219(8) . . .
217(8) . . .
216(8) . . .
221(8) . . .
223(8) . . .
228(8) . . .
198(7) . . .
225(8) . . .
206(8) . . .
203(8) . . .
223(8) . . .
199(7) . . .
191(8) . . .
209(8) . . .
190(7) . . .
206(7) . . .
186(7) . . .
201(8) . . .
217(8) . . .
193(7) . . .
208(8) . . .
197(8) . . .
199(8) . . .
206(8) . . .
216(8) . . .
219(8) . . .
213(8) . . .
206(8) . . .
209(8) . . .
200(7) . . .
211(7) . . .
213(8) . . .
224(8) . . .
213(8) . . .
213(8) . . .
209(8) . . .
201(8) . . .
218(8) . . .
200(8) . . .
199(7) . . .
208(8) . . .
200(8) . . .
212(8) . . .
207(8) . . .
207(7) . . .
190(7) . . .
208(8) . . .
205(8) . . .
205(8) . . .
222(8) . . .
202(8) . . .
191(8) . . .
216(8) . . .
211(8) . . .
204(7) . . .
190(7) . . .
193(8) . . .
220(8) . . .
227(8) . . .
182(7) . . .
214(8) . . .
200(8) . . .
210(8) . . .
204(8) . . .
206(8) . . .
226(8) . . .
214(8) . . .
214(8) . . .
202(8) . . .
187(7) . . .
194(8) . . .
225(8) . . .
219(8) . . .
208(8) . . .
203(7) . . .
202(8) . . .
215(8) . . .
230(8) . . .
229(8) . . .
212(8) . . .
188(7) . . .
188(8) . . .
218(8) . . .
202(7) . . .
212(8) . . .
230(8) . . .
207(8) . . .
191(7) . . .
190(7) . . .
227(8) . . .
240(8) . . .
220(8) . . .
217(8) . . .
233(8) . . .
229(8) . . .
214(8) . . .
228(9) . . .
210(8) . . .
208(7) . . .
212(8) . . .
216(8) . . .
225(8) . . .
228(8) . . .
214(8) . . .
210(8) . . .
199(8) . . .
201(8) . . .
197(7) . . .
212(8) . . .
223(8) . . .
224(8) . . .
213(8) . . .
208(8) . . .
212(8) . . .
213(8) . . .
215(8) . . .
225(8) . . .
212(8) . . .
218(8) . . .
207(8) . . .
205(8) . . .
221(8) . . .
227(8) . . .
202(7) . . .
209(8) . . .
199(8) . . .
185(7) . . .
224(8) . . .
221(8) . . .
200(8) . . .
198(8) . . .
196(7) . . .
193(7) . . .
203(7) . . .
201(8) . . .
210(8) . . .
204(8) . . .
213(8) . . .
202(7) . . .
219(8) . . .
192(8) . . .
213(8) . . .
204(7) . . .
201(8) . . .
215(8) . . .
224(8) . . .
185(7) . . .
220(8) . . .
233(8) . . .
205(8) . . .
200(8) . . .
190(7) . . .
202(7) . . .
193(7) . . .
214(8) . . .
216(8) . . .
187(7) . . .
207(7) . . .
218(8) . . .
214(8) . . .
228(8) . . .
206(8) . . .
218(8) . . .
222(8) . . .
218(8) . . .
226(8) . . .
220(8) . . .
221(8) . . .
230(8) . . .
219(8) . . .
243(8) . . .
253(8) . . .
225(8) . . .
247(9) . . .
220(8) . . .
227(8) . . .
240(8) . . .
202(7) . . .
212(8) . . .
234(9) . . .
222(8) . . .
216(8) . . .
247(8) . . .
236(8) . . .
225(8) . . .
227(8) . . .
229(8) . . .
233(8) . . .
235(8) . . .
221(8) . . .
233(8) . . .
235(8) . . .
219(8) . . .
237(8) . . .
258(9) . . .
233(8) . . .
253(8) . . .
228(8) . . .
251(9) . . .
271(9) . . .
269(9) . . .
263(8) . . .
253(8) . . .
249(9) . . .
232(8) . . .
237(8) . . .
224(8) . . .
234(8) . . .
216(8) . . .
228(8) . . .
206(8) . . .
228(8) . . .
224(8) . . .
222(8) . . .
218(8) . . .
209(7) . . .
213(8) . . .
212(8) . . .
225(8) . . .
207(8) . . .
212(8) . . .
212(8) . . .
217(8) . . .
217(8) . . .
201(8) . . .
196(7) . . .
200(7) . . .
218(8) . . .
226(8) . . .
221(8) . . .
226(8) . . .
198(7) . . .
216(8) . . .
208(8) . . .
198(8) . . .
192(7) . . .
209(8) . . .
190(7) . . .
219(8) . . .
218(8) . . .
200(7) . . .
218(8) . . .
198(8) . . .
192(8) . . .
227(8) . . .
208(8) . . .
202(8) . . .
206(8) . . .
219(8) . . .
236(8) . . .
215(8) . . .
198(7) . . .
218(8) . . .
208(8) . . .
202(8) . . .
202(7) . . .
211(8) . . .
217(8) . . .
219(8) . . .
223(8) . . .
215(8) . . .
207(8) . . .
194(8) . . .
206(8) . . .
228(8) . . .
185(7) . . .
206(8) . . .
199(8) . . .
198(8) . . .
210(8) . . .
225(8) . . .
224(8) . . .
221(8) . . .
214(8) . . .
212(8) . . .
225(8) . . .
202(8) . . .
197(8) . . .
212(8) . . .
231(8) . . .
225(8) . . .
203(8) . . .
203(8) . . .
205(8) . . .
199(7) . . .
208(7) . . .
235(8) . . .
193(8) . . .
196(8) . . .
216(8) . . .
230(8) . . .
197(8) . . .
204(8) . . .
222(8) . . .
203(7) . . .
201(7) . . .
197(7) . . .
201(8) . . .
221(8) . . .
215(8) . . .
205(8) . . .
198(8) . . .
213(8) . . .
197(7) . . .
197(7) . . .
203(8) . . .
194(8) . . .
216(8) . . .
214(8) . . .
208(7) . . .
200(8) . . .
220(8) . . .
208(8) . . .
216(8) . . .
220(8) . . .
222(8) . . .
220(8) . . .
232(8) . . .
217(8) . . .
216(8) . . .
211(8) . . .
198(8) . . .
202(8) . . .
201(7) . . .
205(7) . . .
199(7) . . .
211(8) . . .
202(8) . . .
195(7) . . .
193(7) . . .
214(8) . . .
194(8) . . .
203(8) . . .
197(7) . . .
217(8) . . .
221(8) . . .
181(7) . . .
220(8) . . .
203(7) . . .
200(7) . . .
200(8) . . .
198(8) . . .
195(7) . . .
213(8) . . .
215(8) . . .
229(8) . . .
220(8) . . .
218(8) . . .
224(8) . . .
210(8) . . .
224(8) . . .
212(8) . . .
208(8) . . .
216(8) . . .
232(8) . . .
212(8) . . .
214(8) . . .
234(8) . . .
224(8) . . .
202(7) . . .
211(8) . . .
201(8) . . .
219(8) . . .
222(8) . . .
223(8) . . .
220(8) . . .
225(8) . . .
244(8) . . .
242(8) . . .
216(8) . . .
223(8) . . .
207(7) . . .
245(8) . . .
243(8) . . .
235(8) . . .
215(8) . . .
218(8) . . .
226(8) . . .
214(8) . . .
223(8) . . .
216(8) . . .
202(8) . . .
202(7) . . .
210(8) . . .
211(8) . . .
214(8) . . .
221(8) . . .
203(7) . . .
196(7) . . .
213(8) . . .
207(8) . . .
203(7) . . .
210(8) . . .
187(7) . . .
207(8) . . .
216(8) . . .
221(8) . . .
198(7) . . .
217(8) . . .
217(8) . . .
206(8) . . .
229(8) . . .
214(8) . . .
219(8) . . .
215(8) . . .
202(8) . . .
229(8) . . .
210(8) . . .
233(8) . . .
242(8) . . .
230(8) . . .
230(8) . . .
207(8) . . .
206(8) . . .
250(9) . . .
242(8) . . .
204(7) . . .
213(8) . . .
229(8) . . .
223(8) . . .
217(8) . . .
221(8) . . .
206(7) . . .
205(8) . . .
216(8) . . .
195(7) . . .
214(8) . . .
224(8) . . .
207(8) . . .
207(8) . . .
222(8) . . .
205(7) . . .
198(7) . . .
200(8) . . .
217(8) . . .
196(8) . . .
218(8) . . .
224(8) . . .
218(8) . . .
218(8) . . .
218(8) . . .
229(8) . . .
204(7) . . .
197(7) . . .
213(8) . . .
230(8) . . .
206(7) . . .
214(8) . . .
215(8) . . .
232(8) . . .
224(8) . . .
198(7) . . .
219(8) . . .
216(8) . . .
206(8) . . .
229(8) . . .
217(8) . . .
222(8) . . .
225(8) . . .
204(8) . . .
198(7) . . .
208(8) . . .
190(7) . . .
212(8) . . .
201(8) . . .
190(7) . . .
203(7) . . .
185(7) . . .
196(8) . . .
218(8) . . .
212(8) . . .
213(8) . . .
218(8) . . .
220(8) . . .
175(7) . . .
188(7) . . .
199(7) . . .
206(8) . . .
203(8) . . .
212(8) . . .
202(7) . . .
229(8) . . .
205(8) . . .
221(8) . . .
215(8) . . .
203(7) . . .
206(7) . . .
200(8) . . .
196(8) . . .
205(8) . . .
199(7) . . .
193(7) . . .
207(8) . . .
192(8) . . .
210(8) . . .
206(7) . . .
221(8) . . .
206(8) . . .
200(8) . . .
225(8) . . .
212(8) . . .
215(8) . . .
203(8) . . .
189(7) . . .
224(8) . . .
203(7) . . .
199(8) . . .
198(8) . . .
187(7) . . .
211(8) . . .
181(7) . . .
185(7) . . .
187(8) . . .
199(8) . . .
201(8) . . .
192(7) . . .
206(8) . . .
199(8) . . .
211(8) . . .
195(7) . . .
207(7) . . .
223(8) . . .
213(8) . . .
206(8) . . .
207(8) . . .
187(7) . . .
201(8) . . .
200(8) . . .
193(7) . . .
195(7) . . .
194(7) . . .
208(8) . . .
200(8) . . .
187(7) . . .
206(7) . . .
204(7) . . .
197(7) . . .
206(8) . . .
210(8) . . .
205(7) . . .
206(8) . . .
237(9) . . .
212(8) . . .
224(8) . . .
206(7) . . .
178(7) . . .
205(8) . . .
211(8) . . .
200(8) . . .
221(8) . . .
215(8) . . .
202(8) . . .
204(8) . . .
206(8) . . .
213(8) . . .
190(7) . . .
206(8) . . .
224(8) . . .
203(8) . . .
209(8) . . .
192(7) . . .
226(8) . . .
224(8) . . .
202(8) . . .
217(8) . . .
204(8) . . .
220(8) . . .
221(8) . . .
237(8) . . .
241(8) . . .
208(8) . . .
211(8) . . .
209(8) . . .
196(7) . . .
203(7) . . .
208(8) . . .
215(8) . . .
209(8) . . .
220(8) . . .
204(7) . . .
203(8) . . .
216(8) . . .
202(8) . . .
233(8) . . .
226(8) . . .
211(8) . . .
216(8) . . .
205(8) . . .
260(9) . . .
227(8) . . .
223(8) . . .
211(8) . . .
197(8) . . .
206(7) . . .
204(8) . . .
223(8) . . .
232(8) . . .
230(8) . . .
212(8) . . .
232(8) . . .
237(8) . . .
195(8) . . .
229(8) . . .
223(8) . . .
212(8) . . .
211(8) . . .
219(8) . . .
214(8) . . .
188(7) . . .
198(8) . . .
203(8) . . .
202(8) . . .
202(8) . . .
214(8) . . .
199(7) . . .
202(8) . . .
208(8) . . .
192(7) . . .
195(7) . . .
193(7) . . .
179(7) . . .
203(8) . . .
185(7) . . .
188(7) . . .
191(8) . . .
202(8) . . .
205(8) . . .
215(8) . . .
227(8) . . .
210(8) . . .
214(8) . . .
210(8) . . .
185(7) . . .
217(8) . . .
190(7) . . .
211(8) . . .
194(7) . . .
206(8) . . .
205(7) . . .
224(8) . . .
213(8) . . .
197(8) . . .
206(7) . . .
193(7) . . .
211(8) . . .
217(8) . . .
202(7) . . .
183(7) . . .
188(7) . . .
208(8) . . .
216(8) . . .
195(7) . . .
201(7) . . .
205(8) . . .
214(8) . . .
199(8) . . .
188(7) . . .
203(7) . . .
210(8) . . .
202(8) . . .
189(7) . . .
200(7) . . .
212(8) . . .
184(7) . . .
212(8) . . .
210(8) . . .
198(7) . . .
208(7) . . .
216(8) . . .
206(8) . . .
194(7) . . .
198(7) . . .
205(7) . . .
185(7) . . .
199(8) . . .
173(7) . . .
197(7) . . .
229(8) . . .
225(8) . . .
221(8) . . .
221(8) . . .
204(7) . . .
205(7) . . .
213(8) . . .
198(8) . . .
221(8) . . .
213(8) . . .
222(8) . . .
199(8) . . .
200(8) . . .
220(8) . . .
206(7) . . .
183(7) . . .
205(8) . . .
183(7) . . .
209(8) . . .
183(7) . . .
206(8) . . .
203(8) . . .
189(7) . . .
193(7) . . .
203(7) . . .
203(8) . . .
195(7) . . .
198(8) . . .
200(8) . . .
198(7) . . .
195(7) . . .
195(8) . . .
208(8) . . .
205(8) . . .
203(7) . . .
233(8) . . .
210(8) . . .
223(8) . . .
204(7) . . .
210(8) . . .
231(8) . . .
211(8) . . .
214(8) . . .
217(8) . . .
195(7) . . .
219(8) . . .
206(8) . . .
184(7) . . .
198(7) . . .
189(7) . . .
195(7) . . .
203(8) . . .
206(8) . . .
187(7) . . .
194(7) . . .
211(8) . . .
211(8) . . .
215(8) . . .
200(7) . . .
231(8) . . .
210(8) . . .
191(7) . . .
214(8) . . .
197(7) . . .
208(8) . . .
200(8) . . .
206(8) . . .
202(8) . . .
202(7) . . .
193(7) . . .
188(7) . . .
205(8) . . .
190(7) . . .
195(7) . . .
215(8) . . .
215(8) . . .
221(8) . . .
203(8) . . .
202(7) . . .
214(8) . . .
209(8) . . .
200(8) . . .
204(8) . . .
204(7) . . .
198(8) . . .
199(8) . . .
192(7) . . .
202(7) . . .
202(7) . . .
214(8) . . .
187(7) . . .
180(7) . . .
192(7) . . .
206(7) . . .
203(8) . . .
204(8) . . .
209(8) . . .
203(7) . . .
185(7) . . .
204(8) . . .
192(8) . . .
192(7) . . .
190(7) . . .
200(7) . . .
208(8) . . .
203(8) . . .
179(7) . . .
214(8) . . .
199(7) . . .
206(8) . . .
191(8) . . .
215(8) . . .
187(7) . . .
201(7) . . .
212(8) . . .
202(8) . . .
193(7) . . .
209(7) . . .
212(8) . . .
198(8) . . .
192(8) . . .
213(8) . . .
190(7) . . .
204(8) . . .
195(7) . . .
208(8) . . .
211(8) . . .
192(7) . . .
211(8) . . .
184(7) . . .
201(8) . . .
213(8) . . .
207(7) . . .
203(7) . . .
182(7) . . .
201(8) . . .
195(8) . . .
188(7) . . .
195(8) . . .
201(8) . . .
202(8) . . .
202(8) . . .
208(7) . . .
206(8) . . .
196(8) . . .
207(8) . . .
208(8) . . .
189(7) . . .
215(8) . . .
181(7) . . .
178(7) . . .
206(8) . . .
204(7) . . .
188(7) . . .
196(8) . . .
181(7) . . .
185(7) . . .
182(7) . . .
197(8) . . .
189(8) . . .
202(8) . . .
215(8) . . .
202(7) . . .
194(8) . . .
201(8) . . .
195(7) . . .
203(7) . . .
209(8) . . .
216(8) . . .
196(8) . . .
192(8) . . .
204(7) . . .
198(7) . . .
183(7) . . .
188(8) . . .
196(8) . . .
207(8) . . .
221(8) . . .
202(8) . . .
185(7) . . .
198(8) . . .
221(8) . . .
218(8) . . .
228(8) . . .
208(8) . . .
201(8) . . .
186(7) . . .
194(8) . . .
193(8) . . .
216(8) . . .
206(8) . . .
207(7) . . .
228(8) . . .
210(8) . . .
188(7) . . .
213(8) . . .
203(7) . . .
196(8) . . .
196(8) . . .
191(7) . . .
231(8) . . .
222(8) . . .
215(8) . . .
199(8) . . .
196(8) . . .
192(7) . . .
200(7) . . .
201(8) . . .
196(8) . . .
188(8) . . .
214(8) . . .
190(7) . . .
196(8) . . .
221(8) . . .
203(8) . . .
195(7) . . .
208(8) . . .
203(7) . . .
206(8) . . .
192(7) . . .
198(7) . . .
199(8) . . .
217(8) . . .
200(8) . . .
219(8) . . .
186(7) . . .
197(7) . . .
197(8) . . .
206(8) . . .
194(7) . . .
206(7) . . .
189(7) . . .
185(7) . . .
194(8) . . .
190(7) . . .
206(7) . . .
212(8) . . .
216(8) . . .
191(7) . . .
210(8) . . .
193(7) . . .
204(8) . . .
196(8) . . .
198(8) . . .
221(8) . . .
210(8) . . .
213(8) . . .
205(8) . . .
222(8) . . .
202(7) . . .
201(7) . . .
191(7) . . .
188(7) . . .
205(8) . . .
210(8) . . .
201(7) . . .
194(7) . . .
202(8) . . .
189(7) . . .
211(8) . . .
193(7) . . .
189(7) . . .
196(8) . . .
214(8) . . .
222(8) . . .
213(8) . . .
207(8) . . .
191(8) . . .
197(8) . . .
210(7) . . .
213(8) . . .
194(7) . . .
198(8) . . .
211(8) . . .
206(7) . . .
201(7) . . .
199(8) . . .
180(7) . . .
180(7) . . .
211(8) . . .
199(7) . . .
211(8) . . .
179(7) . . .
196(7) . . .
184(7) . . .
197(7) . . .
209(8) . . .
189(7) . . .
214(8) . . .
197(7) . . .
198(8) . . .
195(8) . . .
189(7) . . .
186(7) . . .
207(8) . . .
177(7) . . .
194(8) . . .
202(8) . . .
192(7) . . .
198(7) . . .
206(8) . . .
196(8) . . .
203(8) . . .
188(7) . . .
208(8) . . .
194(7) . . .
198(8) . . .
184(7) . . .
193(7) . . .
201(7) . . .
191(7) . . .
181(7) . . .
187(7) . . .
190(7) . . .
196(7) . . .
198(8) . . .
196(8) . . .
194(7) . . .
219(8) . . .
196(7) . . .
184(7) . . .
189(8) . . .
206(8) . . .
205(7) . . .
185(7) . . .
206(8) . . .
211(8) . . .
198(8) . . .
209(7) . . .
214(8) . . .
221(8) . . .
173(7) . . .
192(8) . . .
188(7) . . .
186(7) . . .
188(7) . . .
190(7) . . .
181(7) . . .
190(7) . . .
183(7) . . .
175(7) . . .
183(7) . . .
200(8) . . .
181(7) . . .
209(8) . . .
191(7) . . .
181(7) . . .
190(7) . . .
195(7) . . .
199(7) . . .
199(8) . . .
206(8) . . .
208(8) . . .
205(7) . . .
211(8) . . .
201(8) . . .
170(7) . . .
183(7) . . .
195(7) . . .
181(7) . . .
182(7) . . .
211(8) . . .
184(7) . . .
183(7) . . .
197(8) . . .
198(8) . . .
203(8) . . .
194(7) . . .
175(7) . . .
186(8) . . .
174(7) . . .
188(7) . . .
188(7) . . .
210(8) . . .
205(8) . . .
202(8) . . .
195(8) . . .
197(7) . . .
205(8) . . .
186(7) . . .
177(7) . . .
177(7) . . .
183(7) . . .
182(7) . . .
158(7) . . .
191(8) . . .
193(7) . . .
182(7) . . .
185(7) . . .
178(7) . . .
183(7) . . .
210(8) . . .
187(7) . . .
200(8) . . .
206(8) . . .
189(7) . . .
182(7) . . .
203(7) . . .
186(7) . . .
211(8) . . .
211(8) . . .
192(7) . . .
192(7) . . .
189(7) . . .
191(8) . . .
190(7) . . .
182(7) . . .
178(7) . . .
197(8) . . .
180(7) . . .
191(7) . . .
181(7) . . .
193(7) . . .
190(7) . . .
190(8) . . .
193(7) . . .
190(7) . . .
185(7) . . .
206(8) . . .
208(8) . . .
179(7) . . .
202(7) . . .
198(7) . . .
177(7) . . .
185(7) . . .
174(7) . . .
187(7) . . .
197(7) . . .
189(7) . . .
174(7) . . .
201(8) . . .
185(7) . . .
195(7) . . .
187(7) . . .
192(8) . . .
186(7) . . .
189(7) . . .
185(7) . . .
183(7) . . .
189(7) . . .
195(7) . . .
196(7) . . .
199(8) . . .
199(8) . . .
179(7) . . .
184(7) . . .
181(7) . . .
191(8) . . .
181(7) . . .
204(8) . . .
193(7) . . .
192(7) . . .
206(8) . . .
215(8) . . .
187(7) . . .
202(7) . . .
191(7) . . .
176(7) . . .
193(8) . . .
214(8) . . .
196(7) . . .
209(8) . . .
204(8) . . .
211(8) . . .
206(8) . . .
194(7) . . .
185(7) . . .
177(7) . . .
190(8) . . .
205(8) . . .
203(7) . . .
178(7) . . .
229(8) . . .
187(7) . . .
203(8) . . .
207(8) . . .
193(7) . . .
187(7) . . .
199(8) . . .
210(8) . . .
183(7) . . .
198(8) . . .
201(8) . . .
198(8) . . .
202(7) . . .
213(8) . . .
211(8) . . .
216(8) . . .
199(8) . . .
207(8) . . .
203(7) . . .
178(7) . . .
209(8) . . .
203(8) . . .
194(7) . . .
195(7) . . .
220(8) . . .
186(8) . . .
191(8) . . .
186(7) . . .
189(7) . . .
197(8) . . .
213(8) . . .
214(8) . . .
193(7) . . .
197(7) . . .
200(8) . . .
188(8) . . .
178(7) . . .
203(7) . . .
196(7) . . .
188(7) . . .
215(8) . . .
174(7) . . .
188(7) . . .
189(7) . . .
157(7) . . .
184(7) . . .
220(8) . . .
193(7) . . .
189(7) . . .
184(7) . . .
191(7) . . .
183(7) . . .
182(7) . . .
200(8) . . .
172(7) . . .
184(8) . . .
156(7) . . .
190(7) . . .
185(7) . . .
193(7) . . .
183(7) . . .
194(7) . . .
184(7) . . .
197(7) . . .
188(7) . . .
196(8) . . .
184(7) . . .
190(7) . . .
181(7) . . .
186(8) . . .
200(8) . . .
192(7) . . .
188(7) . . .
211(8) . . .
200(8) . . .
185(7) . . .
193(7) . . .
197(7) . . .
179(7) . . .
194(8) . . .
213(8) . . .
199(7) . . .
204(7) . . .
205(8) . . .
196(8) . . .
203(8) . . .
211(8) . . .
216(8) . . .
198(7) . . .
206(8) . . .
219(8) . . .
207(8) . . .
214(8) . . .
192(7) . . .
197(8) . . .
212(8) . . .
189(7) . . .
196(7) . . .
190(7) . . .
196(8) . . .
214(8) . . .
223(8) . . .
212(8) . . .
206(8) . . .
185(8) . . .
179(7) . . .
187(7) . . .
181(7) . . .
189(7) . . .
187(7) . . .
188(7) . . .
222(8) . . .
218(8) . . .
215(8) . . .
181(7) . . .
186(7) . . .
217(8) . . .
179(7) . . .
200(8) . . .
199(8) . . .
199(8) . . .
204(7) . . .
216(8) . . .
174(7) . . .
192(8) . . .
179(7) . . .
183(7) . . .
208(8) . . .
190(8) . . .
185(7) . . .
197(7) . . .
186(7) . . .
203(8) . . .
182(7) . . .
196(7) . . .
220(8) . . .
195(7) . . .
185(7) . . .
182(8) . . .
189(7) . . .
194(7) . . .
207(7) . . .
199(8) . . .
193(8) . . .
206(8) . . .
196(7) . . .
198(7) . . .
189(7) . . .
191(8) . . .
190(7) . . .
204(7) . . .
196(7) . . .
178(7) . . .
191(7) . . .
200(8) . . .
188(7) . . .
202(7) . . .
197(7) . . .
202(8) . . .
193(7) . . .
188(7) . . .
187(7) . . .
203(8) . . .
186(7) . . .
184(7) . . .
201(7) . . .
201(8) . . .
193(8) . . .
190(7) . . .
187(7) . . .
186(7) . . .
186(7) . . .
216(8) . . .
186(7) . . .
178(7) . . .
191(7) . . .
200(8) . . .
182(8) . . .
202(8) . . .
176(7) . . .
193(7) . . .
188(7) . . .
191(8) . . .
183(7) . . .
197(7) . . .
201(7) . . .
188(7) . . .
189(8) . . .
191(8) . . .
179(7) . . .
189(7) . . .
180(7) . . .
203(8) . . .
198(8) . . .
210(7) . . .
205(8) . . .
186(7) . . .
201(8) . . .
197(7) . . .
209(8) . . .
174(7) . . .
188(7) . . .
188(8) . . .
195(8) . . .
203(7) . . .
180(7) . . .
207(8) . . .
194(8) . . .
192(7) . . .
221(8) . . .
180(7) . . .
182(7) . . .
179(7) . . .
211(8) . . .
206(7) . . .
189(7) . . .
194(8) . . .
190(7) . . .
198(7) . . .
186(7) . . .
205(8) . . .
204(8) . . .
207(8) . . .
182(7) . . .
182(7) . . .
194(7) . . .
175(7) . . .
203(8) . . .
201(8) . . .
226(8) . . .
206(8) . . .
187(7) . . .
196(8) . . .
216(8) . . .
213(8) . . .
186(7) . . .
208(8) . . .
207(8) . . .
171(7) . . .
190(7) . . .
195(7) . . .
190(7) . . .
194(8) . . .
192(7) . . .
201(7) . . .
196(8) . . .
185(7) . . .
182(7) . . .
197(7) . . .
193(7) . . .
213(8) . . .
195(8) . . .
192(7) . . .
189(7) . . .
195(7) . . .
178(7) . . .
194(8) . . .
193(8) . . .
193(7) . . .
208(8) . . .
186(7) . . .
193(8) . . .
197(7) . . .
209(7) . . .
206(8) . . .
213(8) . . .
193(8) . . .
179(7) . . .
215(8) . . .
221(8) . . .
206(8) . . .
197(8) . . .
208(8) . . .
202(7) . . .
190(7) . . .
201(8) . . .
182(7) . . .
204(7) . . .
203(7) . . .
219(8) . . .
194(8) . . .
187(7) . . .
212(8) . . .
191(7) . . .
187(7) . . .
197(8) . . .
210(8) . . .
192(7) . . .
222(8) . . .
198(8) . . .
202(8) . . .
213(8) . . .
211(8) . . .
197(7) . . .
222(8) . . .
214(8) . . .
192(7) . . .
202(7) . . .
210(8) . . .
226(8) . . .
224(8) . . .
179(7) . . .
206(7) . . .
212(8) . . .
194(7) . . .
189(7) . . .
199(8) . . .
215(8) . . .
222(8) . . .
193(7) . . .
215(8) . . .
192(8) . . .
199(7) . . .
215(8) . . .
212(8) . . .
206(8) . . .
197(8) . . .
186(7) . . .
197(7) . . .
193(7) . . .
215(8) . . .
212(8) . . .
197(7) . . .
206(8) . . .
187(7) . . .
176(7) . . .
189(7) . . .
195(7) . . .
190(7) . . .
214(8) . . .
198(8) . . .
189(7) . . .
196(7) . . .
192(8) . . .
160(7) . . .
193(8) . . .
193(7) . . .
190(7) . . .
192(8) . . .
178(8) . . .
185(7) . . .
205(7) . . .
208(8) . . .
195(8) . . .
174(7) . . .
172(7) . . .
190(7) . . .
194(7) . . .
202(8) . . .
195(8) . . .
200(8) . . .
188(7) . . .
173(7) . . .
170(7) . . .
188(8) . . .
176(7) . . .
183(7) . . .
198(8) . . .
182(8) . . .
170(7) . . .
193(8) . . .
183(7) . . .
175(7) . . .
187(7) . . .
188(7) . . .
185(7) . . .
191(7) . . .
174(7) . . .
208(8) . . .
175(7) . . .
168(7) . . .
197(7) . . .
209(8) . . .
189(7) . . .
192(7) . . .
200(8) . . .
199(7) . . .
200(7) . . .
187(8) . . .
173(7) . . .
186(7) . . .
172(7) . . .
205(8) . . .
177(8) . . .
198(8) . . .
179(7) . . .
187(7) . . .
194(7) . . .
197(8) . . .
191(7) . . .
182(7) . . .
186(7) . . .
202(8) . . .
179(8) . . .
164(7) . . .
194(7) . . .
169(7) . . .
195(7) . . .
209(8) . . .
192(7) . . .
184(7) . . .
184(7) . . .
183(7) . . .
179(7) . . .
197(8) . . .
172(7) . . .
181(7) . . .
181(7) . . .
175(7) . . .
183(7) . . .
200(7) . . .
182(7) . . .
181(7) . . .
203(8) . . .
193(7) . . .
185(7) . . .
170(7) . . .
183(7) . . .
208(8) . . .
187(7) . . .
207(7) . . .
202(8) . . .
217(8) . . .
206(8) . . .
186(7) . . .
192(7) . . .
187(7) . . .
204(8) . . .
196(8) . . .
195(7) . . .
185(7) . . .
174(7) . . .
187(8) . . .
204(8) . . .
190(7) . . .
191(7) . . .
201(8) . . .
190(8) . . .
173(7) . . .
180(7) . . .
183(7) . . .
179(7) . . .
176(7) . . .
197(8) . . .
181(7) . . .
180(7) . . .
186(7) . . .
207(8) . . .
176(7) . . .
180(7) . . .
192(7) . . .
169(7) . . .
184(7) . . .
184(7) . . .
182(7) . . .
198(7) . . .
203(8) . . .
174(7) . . .
169(7) . . .
181(7) . . .
180(7) . . .
191(8) . . .
186(7) . . .
185(7) . . .
184(7) . . .
163(7) . . .
178(7) . . .
175(7) . . .
168(7) . . .
183(7) . . .
190(7) . . .
164(7) . . .
182(7) . . .
209(8) . . .
174(7) . . .
196(8) . . .
193(7) . . .
173(7) . . .
182(7) . . .
178(7) . . .
188(8) . . .
199(8) . . .
176(7) . . .
184(7) . . .
164(7) . . .
169(7) . . .
190(7) . . .
214(8) . . .
211(8) . . .
205(7) . . .
197(7) . . .
191(8) . . .
192(8) . . .
192(7) . . .
198(7) . . .
179(7) . . .
177(7) . . .
190(7) . . .
204(7) . . .
190(7) . . .
199(8) . . .
188(7) . . .
188(7) . . .
178(7) . . .
185(7) . . .
191(7) . . .
192(8) . . .
190(7) . . .
177(7) . . .
203(8) . . .
193(7) . . .
193(8) . . .
186(7) . . .
210(7) . . .
177(7) . . .
186(7) . . .
175(7) . . .
191(7) . . .
192(7) . . .
182(7) . . .
205(8) . . .
187(7) . . .
183(7) . . .
206(8) . . .
190(7) . . .
172(7) . . .
177(7) . . .
165(7) . . .
184(7) . . .
207(8) . . .
188(7) . . .
183(7) . . .
165(7) . . .
185(7) . . .
197(7) . . .
187(7) . . .
177(7) . . .
189(7) . . .
188(7) . . .
199(7) . . .
196(8) . . .
180(8) . . .
168(7) . . .
167(7) . . .
193(7) . . .
186(8) . . .
170(7) . . .
170(7) . . .
172(7) . . .
152(6) . . .
186(7) . . .
173(7) . . .
187(7) . . .
202(8) . . .
193(8) . . .
167(7) . . .
183(7) . . .
186(7) . . .
183(7) . . .
177(7) . . .
175(7) . . .
186(7) . . .
202(7) . . .
208(8) . . .
195(8) . . .
181(7) . . .
198(8) . . .
201(7) . . .
197(8) . . .
188(8) . . .
173(7) . . .
175(7) . . .
192(7) . . .
190(7) . . .
198(8) . . .
211(8) . . .
161(7) . . .
184(7) . . .
187(7) . . .
185(8) . . .
179(7) . . .
181(7) . . .
185(7) . . .
208(8) . . .
202(8) . . .
214(8) . . .
180(7) . . .
202(7) . . .
185(7) . . .
179(7) . . .
196(7) . . .
192(7) . . .
203(7) . . .
181(7) . . .
179(7) . . .
166(7) . . .
177(7) . . .
179(7) . . .
199(8) . . .
181(7) . . .
187(7) . . .
194(7) . . .
189(7) . . .
185(7) . . .
206(8) . . .
220(8) . . .
212(8) . . .
198(7) . . .
202(8) . . .
192(8) . . .
183(7) . . .
175(7) . . .
208(8) . . .
209(8) . . .
198(8) . . .
187(7) . . .
178(7) . . .
191(7) . . .
186(7) . . .
167(7) . . .
184(7) . . .
185(7) . . .
187(7) . . .
194(8) . . .
183(7) . . .
197(7) . . .
177(7) . . .
183(7) . . .
205(8) . . .
209(8) . . .
190(7) . . .
188(7) . . .
204(8) . . .
182(7) . . .
188(7) . . .
180(7) . . .
198(7) . . .
180(7) . . .
185(8) . . .
174(7) . . .
204(7) . . .
194(7) . . .
190(7) . . .
202(8) . . .
201(8) . . .
194(7) . . .
209(7) . . .
175(7) . . .
209(8) . . .
181(7) . . .
164(7) . . .
176(7) . . .
186(8) . . .
173(7) . . .
169(7) . . .
164(7) . . .
184(7) . . .
183(7) . . .
180(7) . . .
171(7) . . .
189(7) . . .
192(7) . . .
190(7) . . .
183(7) . . .
193(7) . . .
183(7) . . .
194(8) . . .
183(7) . . .
189(8) . . .
188(7) . . .
176(7) . . .
171(7) . . .
180(8) . . .
162(7) . . .
181(7) . . .
182(7) . . .
189(7) . . .
197(8) . . .
192(7) . . .
192(7) . . .
179(7) . . .
180(7) . . .
175(7) . . .
181(7) . . .
170(7) . . .
200(7) . . .
195(7) . . .
192(8) . . .
184(7) . . .
179(7) . . .
181(7) . . .
173(7) . . .
179(8) . . .
191(7) . . .
194(7) . . .
179(7) . . .
162(7) . . .
188(8) . . .
189(7) . . .
206(7) . . .
169(7) . . .
191(7) . . .
181(8) . . .
168(7) . . .
207(7) . . .
187(7) . . .
193(7) . . .
203(8) . . .
202(8) . . .
185(7) . . .
167(7) . . .
183(7) . . .
184(7) . . .
200(8) . . .
182(7) . . .
196(8) . . .
186(7) . . .
181(7) . . .
187(7) . . .
205(7) . . .
176(7) . . .
191(8) . . .
206(8) . . .
191(7) . . .
188(7) . . .
178(7) . . .
182(8) . . .
190(7) . . .
193(7) . . .
181(7) . . .
198(8) . . .
177(7) . . .
159(7) . . .
208(8) . . .
206(7) . . .
202(8) . . .
191(7) . . .
187(7) . . .
197(7) . . .
174(7) . . .
178(7) . . .
193(8) . . .
208(8) . . .
196(7) . . .
188(7) . . .
185(7) . . .
188(8) . . .
177(7) . . .
171(7) . . .
185(7) . . .
189(7) . . .
178(7) . . .
188(7) . . .
183(7) . . .
186(7) . . .
191(7) . . .
191(7) . . .
189(7) . . .
181(7) . . .
180(7) . . .
215(8) . . .
181(7) . . .
178(7) . . .
206(7) . . .
216(8) . . .
176(7) . . .
179(7) . . .
178(7) . . .
188(7) . . .
177(7) . . .
179(7) . . .
208(8) . . .
222(8) . . .
197(7) . . .
206(8) . . .
200(8) . . .
196(7) . . .
205(8) . . .
174(7) . . .
205(8) . . .
200(8) . . .
198(7) . . .
202(7) . . .
183(7) . . .
193(8) . . .
183(7) . . .
177(7) . . .
186(7) . . .
174(7) . . .
185(7) . . .
182(8) . . .
187(7) . . .
193(7) . . .
180(7) . . .
194(7) . . .
195(8) . . .
185(7) . . .
178(7) . . .
179(7) . . .
172(7) . . .
187(8) . . .
176(7) . . .
173(7) . . .
177(7) . . .
176(7) . . .
210(8) . . .
197(8) . . .
174(7) . . .
199(8) . . .
180(7) . . .
192(8) . . .
186(8) . . .
179(7) . . .
180(7) . . .
181(7) . . .
170(7) . . .
158(7) . . .
173(7) . . .
190(7) . . .
198(8) . . .
182(7) . . .
169(7) . . .
188(7) . . .
187(7) . . .
198(8) . . .
176(7) . . .
202(8) . . .
201(7) . . .
187(7) . . .
184(8) . . .
183(7) . . .
196(7) . . .
168(7) . . .
198(8) . . .
196(8) . . .
178(7) . . .
194(7) . . .
184(7) . . .
208(8) . . .
202(8) . . .
193(7) . . .
191(7) . . .
192(7) . . .
205(8) . . .
186(8) . . .
186(7) . . .
188(7) . . .
191(7) . . .
181(7) . . .
182(8) . . .
191(8) . . .
173(7) . . .
181(7) . . .
162(7) . . .
199(8) . . .
174(7) . . .
197(7) . . .
183(7) . . .
180(7) . . .
191(8) . . .
201(8) . . .
164(7) . . .
188(7) . . .
184(7) . . .
191(7) . . .
184(7) . . .
203(7) . . .
191(7) . . .
220(8) . . .
184(7) . . .
188(7) . . .
202(7) . . .
205(8) . . .
193(8) . . .
190(8) . . .
180(7) . . .
183(7) . . .
189(7) . . .
183(7) . . .
170(7) . . .
180(7) . . .
169(7) . . .
184(7) . . .
185(8) . . .
172(7) . . .
193(7) . . .
200(7) . . .
177(7) . . .
163(7) . . .
182(7) . . .
181(7) . . .
188(7) . . .
196(8) . . .
188(8) . . .
185(7) . . .
205(7) . . .
178(7) . . .
213(8) . . .
195(8) . . .
196(8) . . .
177(7) . . .
182(7) . . .
186(7) . . .
191(8) . . .
169(7) . . .
174(7) . . .
182(7) . . .
188(7) . . .
189(8) . . .
181(7) . . .
194(7) . . .
182(7) . . .
180(7) . . .
186(7) . . .
203(8) . . .
187(7) . . .
195(8) . . .
190(7) . . .
191(7) . . .
196(7) . . .
202(7) . . .
177(7) . . .
202(8) . . .
180(7) . . .
180(7) . . .
189(7) . . .
184(8) . . .
177(7) . . .
178(7) . . .
184(7) . . .
190(7) . . .
179(7) . . .
192(8) . . .
175(7) . . .
188(7) . . .
187(7) . . .
177(7) . . .
173(7) . . .
193(7) . . .
188(7) . . .
178(7) . . .
185(8) . . .
190(8) . . .
175(7) . . .
187(7) . . .
171(7) . . .
174(7) . . .
176(8) . . .
170(7) . . .
165(7) . . .
179(7) . . .
169(7) . . .
182(7) . . .
169(7) . . .
178(7) . . .
179(7) . . .
176(7) . . .
206(8) . . .
172(7) . . .
171(7) . . .
181(7) . . .
170(7) . . .
166(7) . . .
159(7) . . .
174(7) . . .
187(7) . . .
170(7) . . .
187(8) . . .
165(7) . . .
186(7) . . .
176(7) . . .
173(7) . . .
176(7) . . .
182(7) . . .
180(7) . . .
169(7) . . .
171(7) . . .
172(7) . . .
194(7) . . .
179(7) . . .
174(7) . . .
164(7) . . .
180(7) . . .
192(7) . . .
173(7) . . .
182(7) . . .
176(8) . . .
169(7) . . .
193(7) . . .
183(7) . . .
177(7) . . .
183(8) . . .
186(7) . . .
174(7) . . .
196(7) . . .
184(7) . . .
168(7) . . .
185(7) . . .
180(7) . . .
186(7) . . .
182(7) . . .
185(8) . . .
196(8) . . .
166(7) . . .
197(7) . . .
183(7) . . .
179(7) . . .
172(7) . . .
186(7) . . .
193(7) . . .
195(7) . . .
176(7) . . .
174(7) . . .
175(7) . . .
191(7) . . .
183(7) . . .
178(7) . . .
179(7) . . .
195(7) . . .
190(7) . . .
188(8) . . .
191(8) . . .
162(7) . . .
173(7) . . .
170(7) . . .
166(7) . . .
172(7) . . .
169(7) . . .
173(7) . . .
176(7) . . .
187(8) . . .
188(7) . . .
191(7) . . .
187(7) . . .
182(7) . . .
189(7) . . .
185(7) . . .
168(7) . . .
172(7) . . .
175(7) . . .
193(8) . . .
201(8) . . .
164(7) . . .
182(7) . . .
186(7) . . .
188(8) . . .
178(7) . . .
174(7) . . .
186(7) . . .
187(7) . . .
171(7) . . .
186(7) . . .
190(7) . . .
178(7) . . .
186(7) . . .
193(8) . . .
184(7) . . .
190(7) . . .
176(7) . . .
190(8) . . .
180(7) . . .
175(7) . . .
204(7) . . .
195(7) . . .
180(7) . . .
168(7) . . .
172(7) . . .
179(7) . . .
177(7) . . .
167(7) . . .
185(8) . . .
194(7) . . .
174(7) . . .
179(7) . . .
188(8) . . .
183(7) . . .
166(7) . . .
199(7) . . .
190(8) . . .
179(7) . . .
185(7) . . .
180(7) . . .
188(7) . . .
176(7) . . .
167(7) . . .
161(7) . . .
170(7) . . .
162(7) . . .
176(7) . . .
183(7) . . .
163(7) . . .
179(7) . . .
179(7) . . .
173(7) . . .
179(8) . . .
173(7) . . .
168(7) . . .
173(7) . . .
187(7) . . .
178(7) . . .
172(7) . . .
184(7) . . .
179(7) . . .
187(8) . . .
174(7) . . .
172(7) . . .
173(7) . . .
196(7) . . .
181(7) . . .
193(8) . . .
178(7) . . .
162(7) . . .
189(7) . . .
191(7) . . .
181(7) . . .
160(7) . . .
168(7) . . .
178(7) . . .
188(7) . . .
173(7) . . .
175(7) . . .
198(7) . . .
157(7) . . .
180(7) . . .
185(7) . . .
189(7) . . .
194(7) . . .
194(8) . . .
196(8) . . .
184(8) . . .
192(7) . . .
203(7) . . .
192(7) . . .
181(7) . . .
208(8) . . .
175(7) . . .
163(7) . . .
166(7) . . .
175(7) . . .
177(7) . . .
184(7) . . .
184(7) . . .
177(7) . . .
174(7) . . .
180(7) . . .
149(6) . . .
192(7) . . .
189(7) . . .
167(7) . . .
194(7) . . .
196(7) . . .
189(7) . . .
177(7) . . .
186(8) . . .
190(7) . . .
185(7) . . .
173(7) . . .
182(7) . . .
180(7) . . .
168(7) . . .
190(7) . . .
177(7) . . .
163(7) . . .
190(8) . . .
180(7) . . .
163(7) . . .
169(7) . . .
176(7) . . .
180(7) . . .
185(7) . . .
166(7) . . .
184(7) . . .
187(8) . . .
184(8) . . .
191(7) . . .
189(7) . . .
180(7) . . .
161(7) . . .
152(7) . . .
174(7) . . .
174(7) . . .
182(7) . . .
170(7) . . .
168(7) . . .
169(7) . . .
150(6) . . .
192(7) . . .
169(7) . . .
174(7) . . .
151(6) . . .
158(7) . . .
166(7) . . .
161(7) . . .
166(7) . . .
169(7) . . .
177(7) . . .
177(7) . . .
173(7) . . .
158(7) . . .
171(7) . . .
156(7) . . .
161(7) . . .
188(8) . . .
159(7) . . .
178(7) . . .
171(7) . . .
163(7) . . .
162(7) . . .
189(8) . . .
172(7) . . .
178(7) . . .
162(7) . . .
159(7) . . .
156(7) . . .
174(7) . . .
170(7) . . .
187(7) . . .
162(7) . . .
172(7) . . .
162(7) . . .
182(7) . . .
177(7) . . .
170(7) . . .
175(7) . . .
162(7) . . .
177(7) . . .
160(7) . . .
163(7) . . .
164(7) . . .
183(7) . . .
145(6) . . .
169(7) . . .
173(7) . . .
179(7) . . .
149(6) . . .
155(7) . . .
177(8) . . .
163(7) . . .
165(7) . . .
169(7) . . .
188(7) . . .
153(7) . . .
174(7) . . .
163(7) . . .
179(7) . . .
177(7) . . .
151(7) . . .
172(7) . . .
171(7) . . .
172(7) . . .
165(7) . . .
171(7) . . .
207(8) . . .
167(7) . . .
154(7) . . .
156(7) . . .
154(7) . . .
170(7) . . .
168(7) . . .
171(7) . . .
176(7) . . .
165(7) . . .
182(7) . . .
188(7) . . .
156(6) . . .
177(7) . . .
168(7) . . .
171(7) . . .
165(7) . . .
167(7) . . .
169(7) . . .
154(7) . . .
172(7) . . .
170(7) . . .
185(7) . . .
163(7) . . .
172(7) . . .
159(7) . . .
171(7) . . .
179(7) . . .
181(7) . . .
159(7) . . .
155(6) . . .
155(6) . . .
161(7) . . .
164(7) . . .
177(7) . . .
182(7) . . .
157(7) . . .
173(7) . . .
171(7) . . .
161(7) . . .
189(7) . . .
157(7) . . .
173(7) . . .
164(7) . . .
168(7) . . .
184(7) . . .
155(6) . . .
160(7) . . .
157(7) . . .
160(7) . . .
172(7) . . .
161(7) . . .
169(7) . . .
173(7) . . .
155(7) . . .
178(7) . . .
176(7) . . .
161(7) . . .
158(7) . . .
163(7) . . .
183(7) . . .
145(7) . . .
160(7) . . .
172(7) . . .
157(7) . . .
177(7) . . .
177(7) . . .
159(7) . . .
145(6) . . .
161(7) . . .
174(7) . . .
177(7) . . .
164(7) . . .
175(7) . . .
174(7) . . .
170(7) . . .
167(7) . . .
168(7) . . .
165(7) . . .
164(7) . . .
166(7) . . .
147(7) . . .
149(7) . . .
164(7) . . .
176(7) . . .
183(7) . . .
181(7) . . .
172(7) . . .
189(7) . . .
172(7) . . .
168(7) . . .
178(7) . . .
140(7) . . .
167(7) . . .
177(7) . . .
172(7) . . .
148(6) . . .
160(7) . . .
185(7) . . .
183(7) . . .
166(7) . . .
176(7) . . .
179(7) . . .
174(7) . . .
173(7) . . .
169(7) . . .
170(7) . . .
179(7) . . .
167(7) . . .
187(7) . . .
155(6) . . .
166(7) . . .
163(7) . . .
169(7) . . .
181(7) . . .
148(7) . . .
138(6) . . .
166(7) . . .
163(7) . . .
157(6) . . .
161(7) . . .
171(7) . . .
180(7) . . .
181(7) . . .
148(6) . . .
169(7) . . .
187(8) . . .
177(7) . . .
143(6) . . .
174(7) . . .
177(7) . . .
169(7) . . .
192(8) . . .
183(7) . . .
152(6) . . .
151(7) . . .
172(7) . . .
180(7) . . .
182(7) . . .
177(7) . . .
180(7) . . .
177(7) . . .
188(7) . . .
182(7) . . .
160(7) . . .
167(7) . . .
167(7) . . .
177(7) . . .
177(7) . . .
178(7) . . .
197(8) . . .
179(7) . . .
154(6) . . .
158(6) . . .
157(7) . . .
163(7) . . .
157(7) . . .
163(7) . . .
177(7) . . .
188(7) . . .
164(7) . . .
158(7) . . .
177(7) . . .
165(7) . . .
168(7) . . .
167(7) . . .
171(7) . . .
199(8) . . .
171(7) . . .
170(7) . . .
188(7) . . .
175(7) . . .
159(7) . . .
177(7) . . .
176(7) . . .
157(7) . . .
182(7) . . .
179(7) . . .
167(7) . . .
177(7) . . .
167(7) . . .
163(7) . . .
190(7) . . .
170(7) . . .
159(7) . . .
154(7) . . .
164(7) . . .
154(6) . . .
169(7) . . .
168(7) . . .
155(7) . . .
159(7) . . .
170(7) . . .
166(7) . . .
172(7) . . .
164(7) . . .
168(7) . . .
177(7) . . .
168(7) . . .
161(7) . . .
184(8) . . .
167(7) . . .
173(7) . . .
158(7) . . .
170(7) . . .
158(7) . . .
185(7) . . .
170(7) . . .
180(7) . . .
183(7) . . .
168(7) . . .
176(7) . . .
172(7) . . .
180(7) . . .
189(7) . . .
185(7) . . .
181(7) . . .
163(7) . . .
165(7) . . .
181(7) . . .
187(7) . . .
172(7) . . .
162(7) . . .
193(8) . . .
161(7) . . .
183(8) . . .
180(7) . . .
165(7) . . .
177(7) . . .
168(7) . . .
178(7) . . .
173(7) . . .
217(8) . . .
189(7) . . .
181(7) . . .
179(7) . . .
176(7) . . .
174(7) . . .
163(7) . . .
177(7) . . .
194(8) . . .
172(7) . . .
167(7) . . .
171(7) . . .
162(7) . . .
171(7) . . .
160(7) . . .
157(7) . . .
159(7) . . .
172(7) . . .
179(7) . . .
170(7) . . .
174(7) . . .
185(7) . . .
182(7) . . .
177(7) . . .
174(7) . . .
182(7) . . .
192(7) . . .
169(7) . . .
181(7) . . .
163(7) . . .
175(7) . . .
164(7) . . .
171(7) . . .
200(8) . . .
184(7) . . .
175(7) . . .
173(7) . . .
204(8) . . .
191(7) . . .
175(7) . . .
177(7) . . .
192(8) . . .
158(7) . . .
150(7) . . .
161(7) . . .
176(7) . . .
148(7) . . .
173(7) . . .
183(7) . . .
182(7) . . .
144(7) . . .
161(7) . . .
170(7) . . .
171(7) . . .
187(7) . . .
178(7) . . .
183(7) . . .
165(7) . . .
187(7) . . .
180(7) . . .
174(7) . . .
168(7) . . .
163(7) . . .
179(7) . . .
152(6) . . .
163(7) . . .
178(7) . . .
170(7) . . .
173(7) . . .
174(7) . . .
184(7) . . .
158(7) . . .
167(7) . . .
153(6) . . .
157(7) . . .
172(7) . . .
183(7) . . .
155(7) . . .
158(7) . . .
178(7) . . .
156(7) . . .
162(7) . . .
146(6) . . .
166(7) . . .
178(7) . . .
171(7) . . .
161(7) . . .
165(7) . . .
168(7) . . .
152(7) . . .
184(7) . . .
178(7) . . .
162(7) . . .
144(6) . . .
182(7) . . .
170(7) . . .
169(7) . . .
174(7) . . .
190(7) . . .
157(7) . . .
180(8) . . .
157(7) . . .
157(7) . . .
147(6) . . .
146(6) . . .
169(7) . . .
184(7) . . .
177(7) . . .
168(7) . . .
166(7) . . .
152(7) . . .
153(7) . . .
155(6) . . .
170(7) . . .
149(6) . . .
164(7) . . .
171(7) . . .
174(7) . . .
163(7) . . .
160(7) . . .
138(6) . . .
168(7) . . .
161(7) . . .
159(7) . . .
165(7) . . .
166(7) . . .
177(7) . . .
171(7) . . .
151(6) . . .
164(7) . . .
149(7) . . .
154(7) . . .
178(7) . . .
170(7) . . .
162(7) . . .
181(7) . . .
159(7) . . .
171(7) . . .
175(7) . . .
161(7) . . .
147(7) . . .
161(7) . . .
154(6) . . .
169(7) . . .
160(7) . . .
174(7) . . .
157(7) . . .
166(7) . . .
173(7) . . .
173(7) . . .
162(7) . . .
162(7) . . .
167(7) . . .
183(8) . . .
159(7) . . .
151(7) . . .
163(7) . . .
163(7) . . .
161(7) . . .
161(7) . . .
167(7) . . .
167(7) . . .
153(6) . . .
162(7) . . .
170(7) . . .
172(7) . . .
163(7) . . .
167(7) . . .
192(7) . . .
193(8) . . .
181(7) . . .
164(7) . . .
166(7) . . .
167(7) . . .
160(7) . . .
176(7) . . .
160(7) . . .
155(7) . . .
168(7) . . .
166(7) . . .
183(7) . . .
171(7) . . .
169(7) . . .
176(7) . . .
154(7) . . .
164(7) . . .
157(7) . . .
161(7) . . .
148(6) . . .
171(7) . . .
157(7) . . .
161(7) . . .
168(7) . . .
146(7) . . .
164(7) . . .
173(7) . . .
161(7) . . .
156(7) . . .
175(7) . . .
161(7) . . .
144(6) . . .
147(6) . . .
160(7) . . .
172(7) . . .
174(7) . . .
160(7) . . .
178(7) . . .
172(7) . . .
156(7) . . .
199(8) . . .
173(7) . . .
156(7) . . .
179(7) . . .
171(7) . . .
147(7) . . .
171(7) . . .
145(6) . . .
161(7) . . .
175(7) . . .
179(7) . . .
185(7) . . .
179(7) . . .
192(7) . . .
171(7) . . .
172(7) . . .
169(7) . . .
167(7) . . .
172(7) . . .
173(7) . . .
170(7) . . .
178(7) . . .
178(7) . . .
174(7) . . .
171(7) . . .
170(7) . . .
168(7) . . .
172(7) . . .
167(7) . . .
168(7) . . .
157(7) . . .
162(7) . . .
176(7) . . .
149(7) . . .
152(7) . . .
169(7) . . .
172(7) . . .
149(7) . . .
145(7) . . .
168(7) . . .
174(7) . . .
172(7) . . .
170(7) . . .
177(7) . . .
177(7) . . .
184(7) . . .
161(7) . . .
157(7) . . .
152(7) . . .
176(7) . . .
160(7) . . .
164(7) . . .
162(7) . . .
173(7) . . .
164(7) . . .
166(7) . . .
193(7) . . .
174(7) . . .
147(6) . . .
164(7) . . .
158(7) . . .
160(7) . . .
163(7) . . .
170(7) . . .
162(7) . . .
161(7) . . .
171(7) . . .
169(7) . . .
167(7) . . .
170(7) . . .
178(7) . . .
155(7) . . .
171(7) . . .
164(7) . . .
172(7) . . .
179(7) . . .
172(7) . . .
176(7) . . .
163(7) . . .
162(7) . . .
184(7) . . .
160(7) . . .
163(7) . . .
197(8) . . .
155(7) . . .
173(7) . . .
179(7) . . .
181(7) . . .
170(7) . . .
158(7) . . .
154(6) . . .
158(7) . . .
178(7) . . .
168(7) . . .
155(6) . . .
165(7) . . .
161(7) . . .
173(7) . . .
180(7) . . .
157(7) . . .
144(6) . . .
152(7) . . .
176(7) . . .
168(7) . . .
153(6) . . .
150(6) . . .
164(7) . . .
155(7) . . .
159(7) . . .
159(7) . . .
161(7) . . .
162(7) . . .
159(7) . . .
172(7) . . .
167(7) . . .
167(7) . . .
163(7) . . .
176(7) . . .
159(7) . . .
179(7) . . .
153(6) . . .
168(7) . . .
167(7) . . .
163(7) . . .
175(7) . . .
164(7) . . .
171(7) . . .
165(7) . . .
181(7) . . .
153(6) . . .
154(7) . . .
150(7) . . .
165(7) . . .
154(7) . . .
156(7) . . .
144(7) . . .
161(7) . . .
146(6) . . .
165(7) . . .
169(7) . . .
177(7) . . .
168(7) . . .
186(8) . . .
192(7) . . .
145(6) . . .
151(7) . . .
169(7) . . .
170(7) . . .
158(7) . . .
144(6) . . .
146(6) . . .
158(7) . . .
164(7) . . .
165(7) . . .
163(7) . . .
170(7) . . .
154(7) . . .
152(7) . . .
149(6) . . .
174(7) . . .
150(7) . . .
150(7) . . .
151(7) . . .
142(6) . . .
156(6) . . .
163(7) . . .
163(7) . . .
156(7) . . .
175(7) . . .
159(7) . . .
167(7) . . .
147(7) . . .
151(7) . . .
157(6) . . .
169(7) . . .
143(6) . . .
166(7) . . .
127(6) . . .
166(7) . . .
146(6) . . .
156(7) . . .
172(7) . . .
175(7) . . .
162(7) . . .
170(7) . . .
156(7) . . .
167(7) . . .
174(7) . . .
174(7) . . .
162(7) . . .
164(7) . . .
177(7) . . .
179(7) . . .
181(7) . . .
170(7) . . .
151(7) . . .
162(7) . . .
151(6) . . .
155(6) . . .
167(7) . . .
177(7) . . .
175(7) . . .
148(6) . . .
160(7) . . .
165(7) . . .
173(7) . . .
170(7) . . .
158(7) . . .
151(6) . . .
154(7) . . .
163(7) . . .
148(6) . . .
151(6) . . .
145(6) . . .
152(7) . . .
164(7) . . .
158(7) . . .
149(6) . . .
155(7) . . .
164(7) . . .
159(7) . . .
165(7) . . .
156(6) . . .
156(7) . . .
149(7) . . .
160(7) . . .
155(7) . . .
176(7) . . .
156(7) . . .
152(7) . . .
163(7) . . .
159(7) . . .
155(6) . . .
169(7) . . .
170(7) . . .
160(7) . . .
161(7) . . .
144(6) . . .
156(7) . . .
153(7) . . .
167(7) . . .
173(7) . . .
168(7) . . .
182(7) . . .
161(7) . . .
165(7) . . .
162(7) . . .
157(7) . . .
160(7) . . .
166(7) . . .
147(6) . . .
157(7) . . .
158(7) . . .
158(7) . . .
149(7) . . .
147(7) . . .
141(6) . . .
163(7) . . .
151(6) . . .
155(7) . . .
143(6) . . .
185(7) . . .
165(7) . . .
165(7) . . .
176(7) . . .
157(7) . . .
158(6) . . .
162(7) . . .
136(6) . . .
149(7) . . .
163(7) . . .
177(7) . . .
168(7) . . .
156(7) . . .
164(7) . . .
173(7) . . .
158(7) . . .
160(7) . . .
163(7) . . .
159(7) . . .
164(7) . . .
157(7) . . .
162(7) . . .
162(7) . . .
160(7) . . .
149(6) . . .
163(7) . . .
166(7) . . .
152(7) . . .
143(6) . . .
154(6) . . .
158(7) . . .
168(7) . . .
165(7) . . .
177(7) . . .
169(7) . . .
168(7) . . .
168(7) . . .
151(7) . . .
150(7) . . .
175(7) . . .
162(7) . . .
145(6) . . .
148(7) . . .
156(7) . . .
173(7) . . .
178(7) . . .
164(7) . . .
186(8) . . .
148(6) . . .
159(7) . . .
160(7) . . .
157(7) . . .
164(7) . . .
168(7) . . .
164(7) . . .
169(7) . . .
162(7) . . .
157(7) . . .
167(7) . . .
173(7) . . .
169(7) . . .
152(7) . . .
162(7) . . .
168(7) . . .
162(7) . . .
166(7) . . .
168(7) . . .
152(7) . . .
166(7) . . .
151(6) . . .
155(7) . . .
167(7) . . .
158(7) . . .
182(7) . . .
169(7) . . .
136(6) . . .
167(7) . . .
177(7) . . .
183(7) . . .
159(7) . . .
170(7) . . .
169(7) . . .
161(7) . . .
183(7) . . .
161(7) . . .
153(7) . . .
160(7) . . .
170(7) . . .
195(7) . . .
172(7) . . .
178(7) . . .
149(7) . . .
170(7) . . .
171(7) . . .
171(7) . . .
175(7) . . .
167(7) . . .
174(7) . . .
159(7) . . .
179(7) . . .
155(7) . . .
160(7) . . .
166(7) . . .
162(7) . . .
160(7) . . .
162(7) . . .
155(7) . . .
174(7) . . .
159(6) . . .
159(7) . . .
155(7) . . .
170(7) . . .
177(7) . . .
187(7) . . .
168(7) . . .
169(7) . . .
183(7) . . .
150(7) . . .
171(7) . . .
150(7) . . .
177(7) . . .
156(7) . . .
175(7) . . .
151(6) . . .
166(7) . . .
159(7) . . .
161(7) . . .
171(7) . . .
182(7) . . .
170(7) . . .
180(8) . . .
153(7) . . .
155(7) . . .
163(7) . . .
155(7) . . .
164(7) . . .
158(7) . . .
151(6) . . .
153(6) . . .
173(7) . . .
179(8) . . .
160(7) . . .
151(6) . . .
151(6) . . .
137(6) . . .
168(7) . . .
164(7) . . .
158(7) . . .
151(6) . . .
130(6) . . .
164(7) . . .
163(7) . . .
157(6) . . .
147(6) . . .
151(7) . . .
167(7) . . .
162(7) . . .
147(6) . . .
155(7) . . .
164(7) . . .
148(7) . . .
162(7) . . .
174(7) . . .
147(6) . . .
145(6) . . .
169(7) . . .
166(7) . . .
158(7) . . .
172(7) . . .
159(7) . . .
162(7) . . .
159(7) . . .
140(6) . . .
152(7) . . .
139(6) . . .
166(7) . . .
161(7) . . .
141(6) . . .
157(7) . . .
149(7) . . .
155(7) . . .
141(6) . . .
169(7) . . .
172(7) . . .
176(7) . . .
157(7) . . .
148(6) . . .
154(6) . . .
149(7) . . .
151(7) . . .
163(7) . . .
156(6) . . .
148(6) . . .
165(7) . . .
144(7) . . .
158(7) . . .
155(6) . . .
177(7) . . .
146(7) . . .
143(7) . . .
141(6) . . .
148(6) . . .
153(7) . . .
173(7) . . .
159(7) . . .
140(6) . . .
165(7) . . .
171(7) . . .
176(7) . . .
169(7) . . .
170(7) . . .
146(6) . . .
176(7) . . .
159(7) . . .
143(7) . . .
170(7) . . .
159(7) . . .
163(7) . . .
178(7) . . .
152(7) . . .
162(7) . . .
144(6) . . .
160(7) . . .
171(7) . . .
161(7) . . .
132(6) . . .
143(6) . . .
153(7) . . .
158(7) . . .
152(7) . . .
147(6) . . .
168(7) . . .
146(6) . . .
161(7) . . .
175(7) . . .
145(6) . . .
148(6) . . .
130(6) . . .
159(7) . . .
155(7) . . .
161(7) . . .
163(7) . . .
154(7) . . .
171(7) . . .
170(7) . . .
161(7) . . .
150(6) . . .
156(7) . . .
165(7) . . .
152(7) . . .
166(7) . . .
135(6) . . .
170(7) . . .
161(7) . . .
167(7) . . .
150(6) . . .
151(6) . . .
162(7) . . .
152(7) . . .
157(7) . . .
152(6) . . .
127(6) . . .
161(7) . . .
156(7) . . .
142(6) . . .
142(6) . . .
158(7) . . .
130(6) . . .
149(7) . . .
136(6) . . .
137(6) . . .
170(7) . . .
171(7) . . .
151(7) . . .
152(7) . . .
177(7) . . .
163(7) . . .
145(7) . . .
155(7) . . .
169(7) . . .
152(6) . . .
152(7) . . .
164(7) . . .
156(7) . . .
163(7) . . .
149(6) . . .
144(6) . . .
171(7) . . .
164(7) . . .
145(6) . . .
171(7) . . .
160(7) . . .
154(7) . . .
143(6) . . .
178(7) . . .
155(6) . . .
161(7) . . .
167(7) . . .
153(7) . . .
138(6) . . .
147(6) . . .
158(7) . . .
154(7) . . .
164(7) . . .
156(7) . . .
145(6) . . .
150(7) . . .
150(7) . . .
163(7) . . .
147(6) . . .
151(6) . . .
155(7) . . .
155(7) . . .
158(7) . . .
157(6) . . .
155(7) . . .
158(7) . . .
160(7) . . .
153(7) . . .
162(7) . . .
174(7) . . .
144(6) . . .
151(7) . . .
152(7) . . .
166(7) . . .
151(6) . . .
166(7) . . .
155(7) . . .
153(7) . . .
158(7) . . .
166(7) . . .
156(7) . . .
152(7) . . .
145(6) . . .
162(7) . . .
137(6) . . .
167(7) . . .
159(7) . . .
138(6) . . .
171(7) . . .
168(7) . . .
168(7) . . .
184(7) . . .
157(7) . . .
149(6) . . .
152(6) . . .
147(7) . . .
152(7) . . .
155(7) . . .
164(7) . . .
160(7) . . .
167(7) . . .
164(7) . . .
176(7) . . .
169(7) . . .
160(7) . . .
151(7) . . .
148(6) . . .
141(6) . . .
152(6) . . .
165(7) . . .
171(7) . . .
152(7) . . .
170(7) . . .
173(7) . . .
158(7) . . .
163(7) . . .
160(7) . . .
157(7) . . .
155(7) . . .
151(7) . . .
139(6) . . .
177(7) . . .
133(6) . . .
154(7) . . .
152(7) . . .
176(7) . . .
175(7) . . .
162(7) . . .
160(7) . . .
133(6) . . .
146(7) . . .
156(7) . . .
140(6) . . .
158(7) . . .
148(7) . . .
134(6) . . .
183(7) . . .
155(7) . . .
148(6) . . .
153(7) . . .
148(6) . . .
167(7) . . .
154(6) . . .
150(7) . . .
154(7) . . .
143(7) . . .
155(6) . . .
153(6) . . .
155(7) . . .
163(7) . . .
165(7) . . .
151(6) . . .
186(7) . . .
162(7) . . .
151(7) . . .
158(7) . . .
161(7) . . .
160(7) . . .
159(7) . . .
145(7) . . .
144(6) . . .
146(6) . . .
156(6) . . .
149(6) . . .
161(7) . . .
125(6) . . .
165(7) . . .
135(6) . . .
156(7) . . .
150(7) . . .
147(6) . . .
145(6) . . .
163(7) . . .
153(7) . . .
151(7) . . .
158(7) . . .
149(6) . . .
166(7) . . .
171(7) . . .
153(7) . . .
145(6) . . .
149(6) . . .
149(7) . . .
159(7) . . .
161(7) . . .
171(7) . . .
151(6) . . .
156(7) . . .
139(6) . . .
150(7) . . .
165(7) . . .
163(7) . . .
182(7) . . .
153(7) . . .
174(7) . . .
173(7) . . .
169(7) . . .
159(7) . . .
158(7) . . .
168(7) . . .
188(7) . . .
162(7) . . .
183(8) . . .
181(8) . . .
173(7) . . .
165(7) . . .
166(7) . . .
168(7) . . .
163(7) . . .
166(7) . . .
177(7) . . .
168(7) . . .
142(6) . . .
152(7) . . .
143(6) . . .
164(7) . . .
157(7) . . .
162(7) . . .
150(7) . . .
154(7) . . .
155(6) . . .
153(7) . . .
151(7) . . .
165(7) . . .
142(6) . . .
160(7) . . .
170(7) . . .
150(7) . . .
182(8) . . .
166(7) . . .
162(7) . . .
168(7) . . .
174(7) . . .
163(7) . . .
152(6) . . .
170(7) . . .
168(7) . . .
159(7) . . .
161(7) . . .
176(7) . . .
157(7) . . .
168(7) . . .
145(7) . . .
163(7) . . .
184(7) . . .
178(7) . . .
165(7) . . .
175(8) . . .
176(7) . . .
173(7) . . .
176(7) . . .
177(7) . . .
181(7) . . .
186(7) . . .
177(7) . . .
174(7) . . .
184(7) . . .
178(7) . . .
177(7) . . .
180(7) . . .
170(7) . . .
160(7) . . .
177(7) . . .
172(7) . . .
182(7) . . .
184(7) . . .
186(8) . . .
161(7) . . .
162(7) . . .
176(7) . . .
165(7) . . .
160(7) . . .
138(6) . . .
157(7) . . .
166(7) . . .
165(7) . . .
176(7) . . .
160(7) . . .
157(7) . . .
167(7) . . .
153(7) . . .
172(7) . . .
177(7) . . .
172(7) . . .
170(7) . . .
152(7) . . .
159(7) . . .
161(7) . . .
145(6) . . .
164(7) . . .
178(7) . . .
145(7) . . .
182(7) . . .
183(7) . . .
164(7) . . .
180(8) . . .
170(7) . . .
165(7) . . .
166(7) . . .
170(7) . . .
182(7) . . .
196(8) . . .
196(7) . . .
181(7) . . .
164(7) . . .
175(7) . . .
161(7) . . .
172(7) . . .
179(7) . . .
177(7) . . .
179(7) . . .
184(8) . . .
156(7) . . .
179(7) . . .
174(7) . . .
170(7) . . .
191(8) . . .
183(7) . . .
183(7) . . .
183(7) . . .
164(7) . . .
195(8) . . .
192(7) . . .
193(7) . . .
183(7) . . .
169(7) . . .
155(7) . . .
173(7) . . .
168(7) . . .
202(8) . . .
172(7) . . .
156(7) . . .
173(7) . . .
159(7) . . .
164(7) . . .
146(7) . . .
164(7) . . .
181(7) . . .
145(6) . . .
156(7) . . .
172(7) . . .
169(7) . . .
162(7) . . .
177(7) . . .
174(7) . . .
175(7) . . .
172(7) . . .
179(7) . . .
146(6) . . .
178(7) . . .
163(7) . . .
150(6) . . .
146(6) . . .
149(6) . . .
163(7) . . .
164(7) . . .
156(7) . . .
158(7) . . .
173(7) . . .
180(7) . . .
168(7) . . .
160(7) . . .
162(7) . . .
175(7) . . .
155(7) . . .
161(7) . . .
166(7) . . .
172(7) . . .
144(6) . . .
168(7) . . .
170(7) . . .
163(7) . . .
162(7) . . .
149(7) . . .
155(7) . . .
183(7) . . .
168(7) . . .
148(6) . . .
156(7) . . .
190(8) . . .
146(6) . . .
153(6) . . .
150(6) . . .
158(7) . . .
168(7) . . .
174(7) . . .
145(6) . . .
142(6) . . .
159(7) . . .
171(7) . . .
159(7) . . .
155(7) . . .
150(6) . . .
168(7) . . .
154(7) . . .
141(6) . . .
169(7) . . .
130(6) . . .
172(7) . . .
158(7) . . .
163(7) . . .
157(6) . . .
154(7) . . .
164(7) . . .
149(7) . . .
147(6) . . .
162(7) . . .
152(6) . . .
156(7) . . .
160(7) . . .
167(7) . . .
170(7) . . .
148(6) . . .
164(7) . . .
154(7) . . .
158(7) . . .
153(6) . . .
159(7) . . .
156(7) . . .
155(7) . . .
159(7) . . .
163(7) . . .
148(7) . . .
140(6) . . .
173(7) . . .
171(7) . . .
172(7) . . .
171(7) . . .
154(7) . . .
138(6) . . .
147(6) . . .
149(6) . . .
170(7) . . .
162(7) . . .
157(7) . . .
144(6) . . .
141(6) . . .
169(7) . . .
147(7) . . .
149(7) . . .
159(7) . . .
160(7) . . .
176(7) . . .
158(7) . . .
161(7) . . .
148(6) . . .
144(6) . . .
160(7) . . .
152(7) . . .
172(7) . . .
178(7) . . .
173(7) . . .
162(7) . . .
162(7) . . .
159(7) . . .
183(7) . . .
163(7) . . .
165(7) . . .
166(7) . . .
160(7) . . .
154(6) . . .
172(7) . . .
178(7) . . .
156(7) . . .
155(7) . . .
170(7) . . .
156(7) . . .
155(7) . . .
161(7) . . .
161(7) . . .
153(6) . . .
150(7) . . .
148(7) . . .
151(7) . . .
161(7) . . .
146(6) . . .
174(7) . . .
170(7) . . .
161(7) . . .
150(7) . . .
154(6) . . .
150(7) . . .
163(7) . . .
153(6) . . .
160(7) . . .
162(7) . . .
134(6) . . .
162(7) . . .
160(7) . . .
159(6) . . .
157(7) . . .
169(7) . . .
161(7) . . .
165(7) . . .
172(7) . . .
150(6) . . .
175(7) . . .
172(7) . . .
190(7) . . .
169(7) . . .
168(7) . . .
168(7) . . .
156(7) . . .
164(7) . . .
162(7) . . .
154(7) . . .
170(7) . . .
156(7) . . .
154(7) . . .
154(6) . . .
170(7) . . .
171(7) . . .
157(7) . . .
147(6) . . .
168(7) . . .
153(6) . . .
162(7) . . .
154(7) . . .
151(7) . . .
146(6) . . .
172(7) . . .
165(7) . . .
159(7) . . .
154(6) . . .
170(7) . . .
184(7) . . .
175(7) . . .
165(7) . . .
176(7) . . .
175(7) . . .
175(7) . . .
167(7) . . .
166(7) . . .
162(7) . . .
159(7) . . .
154(7) . . .
162(7) . . .
168(7) . . .
168(7) . . .
169(7) . . .
163(7) . . .
163(7) . . .
163(7) . . .
150(6) . . .
147(6) . . .
168(7) . . .
141(7) . . .
159(7) . . .
158(7) . . .
166(7) . . .
160(7) . . .
154(7) . . .
146(7) . . .
146(6) . . .
154(6) . . .
149(7) . . .
142(6) . . .
161(7) . . .
155(6) . . .
144(6) . . .
146(6) . . .
157(7) . . .
151(7) . . .
149(6) . . .
173(7) . . .
158(7) . . .
156(7) . . .
157(7) . . .
143(6) . . .
171(7) . . .
160(7) . . .
160(7) . . .
151(6) . . .
169(7) . . .
156(7) . . .
150(7) . . .
156(7) . . .
159(7) . . .
164(7) . . .
160(7) . . .
161(7) . . .
155(7) . . .
170(7) . . .
181(7) . . .
151(7) . . .
155(7) . . .
161(7) . . .
154(7) . . .
170(7) . . .
162(7) . . .
163(7) . . .
182(8) . . .
145(6) . . .
156(6) . . .
154(7) . . .
168(7) . . .
153(7) . . .
162(7) . . .
155(6) . . .
173(7) . . .
157(7) . . .
170(7) . . .
144(6) . . .
160(7) . . .
151(7) . . .
137(6) . . .
152(7) . . .
149(6) . . .
146(6) . . .
165(7) . . .
154(7) . . .
143(7) . . .
143(6) . . .
158(7) . . .
138(6) . . .
132(6) . . .
143(7) . . .
159(7) . . .
152(7) . . .
160(7) . . .
143(6) . . .
161(7) . . .
151(6) . . .
154(7) . . .
143(6) . . .
160(7) . . .
185(7) . . .
160(7) . . .
143(6) . . .
154(7) . . .
156(7) . . .
157(7) . . .
160(7) . . .
150(7) . . .
167(7) . . .
153(7) . . .
142(6) . . .
147(6) . . .
158(7) . . .
161(7) . . .
159(7) . . .
140(6) . . .
150(6) . . .
139(6) . . .
154(7) . . .
162(7) . . .
165(7) . . .
157(6) . . .
143(6) . . .
138(6) . . .
155(7) . . .
144(6) . . .
154(7) . . .
142(6) . . .
151(7) . . .
157(7) . . .
143(6) . . .
166(7) . . .
139(6) . . .
147(7) . . .
161(7) . . .
165(7) . . .
151(6) . . .
150(7) . . .
157(7) . . .
150(6) . . .
145(6) . . .
156(7) . . .
152(7) . . .
154(7) . . .
151(7) . . .
170(7) . . .
149(6) . . .
176(7) . . .
175(7) . . .
164(7) . . .
156(6) . . .
147(6) . . .
154(7) . . .
161(7) . . .
157(7) . . .
158(6) . . .
155(7) . . .
147(7) . . .
130(6) . . .
149(7) . . .
147(6) . . .
153(7) . . .
145(6) . . .
141(6) . . .
155(6) . . .
161(7) . . .
148(7) . . .
158(7) . . .
160(7) . . .
171(7) . . .
156(6) . . .
163(7) . . .
143(7) . . .
148(6) . . .
157(7) . . .
146(6) . . .
135(6) . . .
144(6) . . .
142(7) . . .
142(6) . . .
155(6) . . .
153(7) . . .
182(8) . . .
144(6) . . .
139(6) . . .
157(7) . . .
174(7) . . .
179(8) . . .
150(7) . . .
150(6) . . .
157(7) . . .
140(6) . . .
153(7) . . .
178(7) . . .
156(7) . . .
140(6) . . .
144(6) . . .
150(7) . . .
137(6) . . .
153(6) . . .
155(7) . . .
165(7) . . .
162(7) . . .
142(6) . . .
165(7) . . .
156(7) . . .
163(7) . . .
151(7) . . .
144(6) . . .
152(6) . . .
171(7) . . .
147(7) . . .
154(7) . . .
168(7) . . .
183(7) . . .
154(7) . . .
136(6) . . .
162(7) . . .
157(7) . . .
160(7) . . .
150(6) . . .
173(7) . . .
137(6) . . .
148(6) . . .
138(6) . . .
175(7) . . .
140(7) . . .
159(7) . . .
158(7) . . .
163(7) . . .
150(7) . . .
144(7) . . .
154(7) . . .
158(7) . . .
153(7) . . .
163(7) . . .
156(7) . . .
154(7) . . .
152(6) . . .
160(7) . . .
142(7) . . .
150(7) . . .
166(7) . . .
148(6) . . .
151(6) . . .
162(7) . . .
146(6) . . .
146(6) . . .
165(7) . . .
164(7) . . .
148(7) . . .
163(7) . . .
149(7) . . .
153(6) . . .
144(6) . . .
154(7) . . .
153(7) . . .
144(6) . . .
152(6) . . .
160(7) . . .
150(7) . . .
155(7) . . .
152(7) . . .
160(7) . . .
178(7) . . .
152(7) . . .
162(7) . . .
166(7) . . .
166(7) . . .
160(7) . . .
169(7) . . .
167(7) . . .
157(7) . . .
184(7) . . .
183(7) . . .
183(8) . . .
172(7) . . .
145(6) . . .
165(7) . . .
130(6) . . .
151(6) . . .
149(6) . . .
154(7) . . .
155(7) . . .
149(6) . . .
128(6) . . .
144(7) . . .
153(7) . . .
158(7) . . .
162(7) . . .
147(6) . . .
143(6) . . .
143(6) . . .
155(7) . . .
137(6) . . .
129(6) . . .
138(6) . . .
147(7) . . .
141(6) . . .
151(6) . . .
136(6) . . .
138(6) . . .
156(7) . . .
149(6) . . .
137(6) . . .
142(6) . . .
155(7) . . .
158(7) . . .
136(6) . . .
145(6) . . .
142(7) . . .
132(6) . . .
149(7) . . .
148(6) . . .
160(7) . . .
145(6) . . .
139(6) . . .
144(6) . . .
153(7) . . .
158(6) . . .
147(7) . . .
145(7) . . .
151(6) . . .
130(6) . . .
155(6) . . .
141(6) . . .
136(6) . . .
138(6) . . .
148(6) . . .
142(6) . . .
160(7) . . .
151(7) . . .
151(7) . . .
146(6) . . .
140(6) . . .
137(6) . . .
138(6) . . .
143(6) . . .
156(7) . . .
152(6) . . .
139(6) . . .
137(6) . . .
138(6) . . .
151(6) . . .
156(7) . . .
159(7) . . .
148(7) . . .
141(6) . . .
147(6) . . .
150(6) . . .
140(6) . . .
133(6) . . .
138(6) . . .
152(6) . . .
141(6) . . .
156(7) . . .
138(6) . . .
137(6) . . .
153(6) . . .
151(7) . . .
134(6) . . .
144(6) . . .
155(7) . . .
149(6) . . .
134(6) . . .
148(7) . . .
152(7) . . .
134(6) . . .
132(6) . . .
159(7) . . .
146(7) . . .
125(6) . . .
141(6) . . .
134(6) . . .
130(6) . . .
151(7) . . .
147(6) . . .
137(6) . . .
153(6) . . .
152(7) . . .
146(7) . . .
168(7) . . .
145(6) . . .
155(7) . . .
141(6) . . .
163(7) . . .
146(6) . . .
139(6) . . .
142(6) . . .
155(7) . . .
149(7) . . .
145(7) . . .
141(6) . . .
152(7) . . .
139(6) . . .
141(6) . . .
148(6) . . .
147(6) . . .
142(6) . . .
142(7) . . .
147(7) . . .
153(7) . . .
149(6) . . .
148(7) . . .
136(6) . . .
137(6) . . .
152(7) . . .
135(6) . . .
144(6) . . .
156(7) . . .
158(7) . . .
134(6) . . .
139(6) . . .
137(6) . . .
149(7) . . .
152(7) . . .
149(6) . . .
144(6) . . .
147(7) . . .
156(7) . . .
156(7) . . .
162(7) . . .
163(7) . . .
138(6) . . .
153(7) . . .
139(6) . . .
145(6) . . .
156(7) . . .
169(7) . . .
149(7) . . .
139(6) . . .
157(6) . . .
158(7) . . .
147(7) . . .
154(7) . . .
160(7) . . .
153(6) . . .
158(7) . . .
157(7) . . .
154(7) . . .
157(7) . . .
164(7) . . .
153(7) . . .
153(7) . . .
151(7) . . .
146(7) . . .
149(6) . . .
143(6) . . .
170(7) . . .
159(7) . . .
161(7) . . .
150(6) . . .
146(6) . . .
154(7) . . .
144(7) . . .
150(7) . . .
150(6) . . .
147(6) . . .
168(7) . . .
153(6) . . .
157(7) . . .
167(7) . . .
144(6) . . .
153(7) . . .
146(6) . . .
147(6) . . .
160(7) . . .
143(6) . . .
144(7) . . .
138(6) . . .
161(7) . . .
147(6) . . .
126(6) . . .
146(7) . . .
149(7) . . .
158(7) . . .
143(6) . . .
157(7) . . .
154(7) . . .
148(7) . . .
142(6) . . .
160(7) . . .
151(6) . . .
141(6) . . .
161(7) . . .
166(7) . . .
142(6) . . .
151(7) . . .
158(7) . . .
146(6) . . .
153(6) . . .
157(6) . . .
149(6) . . .
158(7) . . .
149(7) . . .
144(6) . . .
161(7) . . .
140(6) . . .
145(6) . . .
159(7) . . .
142(6) . . .
147(6) . . .
155(7) . . .
147(6) . . .
151(6) . . .
145(6) . . .
146(7) . . .
144(7) . . .
145(7) . . .
141(6) . . .
146(6) . . .
137(6) . . .
144(7) . . .
153(7) . . .
134(6) . . .
143(6) . . .
151(7) . . .
135(6) . . .
138(6) . . .
147(6) . . .
145(6) . . .
143(6) . . .
154(7) . . .
134(6) . . .
155(6) . . .
155(7) . . .
155(7) . . .
154(7) . . .
140(6) . . .
158(7) . . .
144(6) . . .
142(6) . . .
137(6) . . .
146(7) . . .
132(6) . . .
145(6) . . .
136(6) . . .
157(7) . . .
153(7) . . .
158(7) . . .
133(6) . . .
151(6) . . .
167(7) . . .
156(7) . . .
136(6) . . .
131(6) . . .
150(7) . . .
156(7) . . .
147(6) . . .
139(6) . . .
152(6) . . .
144(6) . . .
147(7) . . .
150(7) . . .
137(6) . . .
137(6) . . .
151(7) . . .
152(7) . . .
139(6) . . .
170(7) . . .
138(7) . . .
123(6) . . .
132(6) . . .
138(6) . . .
135(6) . . .
145(7) . . .
141(7) . . .
135(6) . . .
135(6) . . .
161(7) . . .
144(7) . . .
140(6) . . .
133(6) . . .
148(6) . . .
147(6) . . .
138(6) . . .
152(7) . . .
124(6) . . .
140(6) . . .
141(6) . . .
145(6) . . .
152(7) . . .
135(6) . . .
137(6) . . .
159(7) . . .
160(7) . . .
150(7) . . .
146(7) . . .
143(6) . . .
162(7) . . .
139(6) . . .
149(7) . . .
143(6) . . .
141(6) . . .
152(6) . . .
142(6) . . .
150(7) . . .
135(6) . . .
160(7) . . .
151(6) . . .
149(7) . . .
131(6) . . .
141(7) . . .
146(6) . . .
145(6) . . .
145(7) . . .
162(7) . . .
151(6) . . .
166(7) . . .
148(7) . . .
147(6) . . .
145(6) . . .
134(6) . . .
133(6) . . .
144(6) . . .
152(7) . . .
143(6) . . .
144(6) . . .
149(6) . . .
148(6) . . .
145(7) . . .
131(6) . . .
132(6) . . .
143(6) . . .
149(7) . . .
128(6) . . .
145(6) . . .
142(6) . . .
153(6) . . .
157(7) . . .
156(7) . . .
167(7) . . .
163(7) . . .
151(6) . . .
142(6) . . .
146(7) . . .
136(6) . . .
141(6) . . .
154(6) . . .
164(7) . . .
146(6) . . .
152(6) . . .
152(6) . . .
142(6) . . .
138(6) . . .
144(6) . . .
142(7) . . .
148(6) . . .
148(6) . . .
157(7) . . .
144(7) . . .
147(6) . . .
155(6) . . .
135(6) . . .
135(6) . . .
135(6) . . .
158(7) . . .
140(6) . . .
130(6) . . .
158(7) . . .
151(7) . . .
153(7) . . .
144(6) . . .
148(7) . . .
150(7) . . .
142(6) . . .
153(7) . . .
130(6) . . .
160(7) . . .
147(7) . . .
155(7) . . .
143(6) . . .
142(6) . . .
158(7) . . .
151(7) . . .
155(6) . . .
153(6) . . .
161(7) . . .
128(6) . . .
133(7) . . .
149(6) . . .
146(6) . . .
147(6) . . .
141(6) . . .
152(7) . . .
141(7) . . .
143(6) . . .
150(6) . . .
157(7) . . .
153(7) . . .
144(7) . . .
142(6) . . .
140(6) . . .
139(6) . . .
141(6) . . .
143(6) . . .
124(6) . . .
157(6) . . .
146(6) . . .
155(7) . . .
139(6) . . .
150(6) . . .
143(6) . . .
164(7) . . .
141(6) . . .
141(6) . . .
149(6) . . .
153(7) . . .
148(7) . . .
163(7) . . .
162(7) . . .
158(7) . . .
147(6) . . .
152(7) . . .
144(7) . . .
152(7) . . .
148(6) . . .
165(7) . . .
153(7) . . .
151(7) . . .
151(6) . . .
147(6) . . .
155(7) . . .
133(6) . . .
152(6) . . .
138(6) . . .
136(6) . . .
146(7) . . .
135(6) . . .
143(6) . . .
146(6) . . .
155(6) . . .
130(6) . . .
149(7) . . .
161(7) . . .
160(7) . . .
146(6) . . .
158(7) . . .
146(7) . . .
149(7) . . .
153(6) . . .
146(6) . . .
146(6) . . .
148(7) . . .
158(7) . . .
171(7) . . .
160(7) . . .
156(7) . . .
156(7) . . .
154(7) . . .
149(6) . . .
156(6) . . .
159(7) . . .
147(6) . . .
148(7) . . .
148(6) . . .
143(6) . . .
134(6) . . .
165(7) . . .
150(6) . . .
161(7) . . .
153(7) . . .
150(7) . . .
145(7) . . .
152(6) . . .
146(6) . . .
154(7) . . .
146(7) . . .
142(6) . . .
152(6) . . .
167(7) . . .
161(7) . . .
141(6) . . .
151(7) . . .
150(6) . . .
166(7) . . .
168(7) . . .
156(7) . . .
155(7) . . .
149(6) . . .
152(7) . . .
154(7) . . .
142(7) . . .
155(7) . . .
150(6) . . .
149(7) . . .
156(7) . . .
152(7) . . .
146(7) . . .
161(7) . . .
143(6) . . .
157(7) . . .
143(6) . . .
161(7) . . .
132(6) . . .
151(7) . . .
148(7) . . .
158(7) . . .
136(6) . . .
145(6) . . .
150(7) . . .
159(7) . . .
152(7) . . .
148(6) . . .
163(7) . . .
165(7) . . .
146(6) . . .
167(7) . . .
162(7) . . .
170(7) . . .
145(6) . . .
174(7) . . .
161(7) . . .
153(7) . . .
151(6) . . .
142(6) . . .
170(7) . . .
151(6) . . .
148(6) . . .
151(6) . . .
153(7) . . .
155(7) . . .
148(6) . . .
153(6) . . .
156(6) . . .
161(7) . . .
142(7) . . .
149(7) . . .
154(6) . . .
145(6) . . .
150(7) . . .
170(7) . . .
163(7) . . .
142(6) . . .
151(6) . . .
138(6) . . .
150(7) . . .
155(7) . . .
138(6) . . .
142(6) . . .
154(7) . . .
148(7) . . .
159(7) . . .
156(6) . . .
153(6) . . .
159(7) . . .
156(7) . . .
161(7) . . .
175(7) . . .
150(6) . . .
163(7) . . .
148(7) . . .
153(7) . . .
155(6) . . .
168(7) . . .
163(7) . . .
165(7) . . .
146(6) . . .
151(6) . . .
173(7) . . .
159(7) . . .
162(7) . . .
162(7) . . .
167(7) . . .
161(7) . . .
155(7) . . .
161(7) . . .
170(7) . . .
151(6) . . .
151(6) . . .
140(6) . . .
142(6) . . .
141(6) . . .
136(6) . . .
141(6) . . .
145(7) . . .
139(6) . . .
158(6) . . .
147(6) . . .
142(6) . . .
149(7) . . .
161(7) . . .
154(6) . . .
145(6) . . .
144(7) . . .
129(6) . . .
163(7) . . .
156(6) . . .
149(6) . . .
156(7) . . .
159(7) . . .
167(7) . . .
161(7) . . .
162(7) . . .
144(6) . . .
158(7) . . .
168(7) . . .
150(6) . . .
163(7) . . .
165(7) . . .
159(7) . . .
147(6) . . .
134(6) . . .
178(7) . . .
164(7) . . .
169(7) . . .
164(7) . . .
160(7) . . .
163(7) . . .
162(7) . . .
163(7) . . .
166(7) . . .
184(7) . . .
149(6) . . .
185(8) . . .
157(7) . . .
154(7) . . .
155(6) . . .
156(7) . . .
148(7) . . .
158(7) . . .
165(7) . . .
173(7) . . .
149(7) . . .
156(7) . . .
142(6) . . .
148(6) . . .
157(7) . . .
155(7) . . .
142(7) . . .
163(7) . . .
158(7) . . .
160(7) . . .
152(7) . . .
159(7) . . .
141(6) . . .
155(6) . . .
142(6) . . .
144(6) . . .
147(7) . . .
160(7) . . .
149(6) . . .
153(6) . . .
166(7) . . .
154(7) . . .
148(7) . . .
149(6) . . .
144(6) . . .
145(7) . . .
150(7) . . .
156(7) . . .
164(7) . . .
163(7) . . .
149(6) . . .
171(7) . . .
146(6) . . .
160(7) . . .
154(6) . . .
157(7) . . .
161(7) . . .
139(6) . . .
148(6) . . .
153(7) . . .
153(7) . . .
156(7) . . .
146(6) . . .
141(6) . . .
148(7) . . .
152(7) . . .
158(7) . . .
147(6) . . .
159(7) . . .
167(7) . . .
153(7) . . .
153(7) . . .
157(6) . . .
158(7) . . .
158(7) . . .
142(7) . . .
156(7) . . .
154(6) . . .
157(6) . . .
160(7) . . .
173(7) . . .
144(6) . . .
146(6) . . .
155(6) . . .
165(7) . . .
144(6) . . .
158(7) . . .
146(6) . . .
152(6) . . .
135(6) . . .
141(7) . . .
142(6) . . .
143(6) . . .
155(7) . . .
142(6) . . .
151(7) . . .
165(7) . . .
145(6) . . .
144(6) . . .
154(7) . . .
163(7) . . .
144(6) . . .
151(6) . . .
142(6) . . .
148(7) . . .
136(6) . . .
141(6) . . .
139(6) . . .
150(7) . . .
158(7) . . .
162(7) . . .
140(6) . . .
151(6) . . .
149(7) . . .
162(7) . . .
143(6) . . .
153(6) . . .
159(7) . . .
159(7) . . .
161(7) . . .
174(7) . . .
168(7) . . .
138(6) . . .
160(7) . . .
158(7) . . .
154(7) . . .
156(6) . . .
158(7) . . .
157(7) . . .
141(7) . . .
159(7) . . .
170(7) . . .
159(7) . . .
158(7) . . .
158(7) . . .
157(7) . . .
142(6) . . .
150(6) . . .
160(7) . . .
159(7) . . .
153(7) . . .
157(6) . . .
165(7) . . .
147(7) . . .
155(7) . . .
146(6) . . .
148(6) . . .
127(6) . . .
152(7) . . .
156(7) . . .
158(7) . . .
169(7) . . .
143(6) . . .
126(6) . . .
142(7) . . .
161(7) . . .
163(7) . . .
147(6) . . .
152(7) . . .
157(7) . . .
164(7) . . .
154(6) . . .
172(7) . . .
165(7) . . .
159(7) . . .
154(6) . . .
173(7) . . .
160(7) . . .
152(7) . . .
151(7) . . .
137(6) . . .
153(6) . . .
176(7) . . .
161(7) . . .
153(7) . . .
144(6) . . .
157(6) . . .
135(6) . . .
163(7) . . .
175(7) . . .
160(7) . . .
157(6) . . .
144(6) . . .
141(6) . . .
158(7) . . .
137(6) . . .
152(6) . . .
141(6) . . .
151(7) . . .
145(6) . . .
154(6) . . .
156(6) . . .
170(7) . . .
147(7) . . .
151(7) . . .
147(6) . . .
153(7) . . .
138(6) . . .
145(6) . . .
159(7) . . .
156(6) . . .
145(6) . . .
155(7) . . .
134(6) . . .
138(6) . . .
142(6) . . .
159(7) . . .
140(6) . . .
142(6) . . .
141(6) . . .
140(6) . . .
146(7) . . .
140(6) . . .
146(6) . . .
153(7) . . .
138(6) . . .
140(6) . . .
151(7) . . .
154(7) . . .
149(6) . . .
143(6) . . .
152(7) . . .
147(7) . . .
149(7) . . .
154(6) . . .
147(6) . . .
142(6) . . .
136(7) . . .
148(7) . . .
132(6) . . .
139(6) . . .
137(6) . . .
151(7) . . .
142(6) . . .
151(6) . . .
162(7) . . .
155(7) . . .
155(7) . . .
149(7) . . .
156(6) . . .
154(7) . . .
153(7) . . .
144(7) . . .
155(7) . . .
150(6) . . .
152(6) . . .
156(7) . . .
154(7) . . .
167(7) . . .
154(6) . . .
166(7) . . .
170(7) . . .
162(7) . . .
155(7) . . .
132(6) . . .
144(6) . . .
160(7) . . .
161(7) . . .
149(7) . . .
136(6) . . .
141(6) . . .
149(7) . . .
133(6) . . .
163(7) . . .
155(6) . . .
156(7) . . .
151(7) . . .
153(7) . . .
162(7) . . .
130(6) . . .
166(7) . . .
142(6) . . .
134(6) . . .
149(6) . . .
156(7) . . .
158(7) . . .
153(7) . . .
154(7) . . .
162(7) . . .
156(6) . . .
154(7) . . .
148(7) . . .
154(7) . . .
144(6) . . .
132(6) . . .
146(7) . . .
148(7) . . .
154(7) . . .
133(6) . . .
148(6) . . .
147(7) . . .
145(7) . . .
149(7) . . .
149(6) . . .
167(7) . . .
166(7) . . .
141(6) . . .
154(7) . . .
150(6) . . .
163(7) . . .
158(7) . . .
145(6) . . .
156(7) . . .
132(6) . . .
139(6) . . .
161(7) . . .
150(7) . . .
147(6) . . .
164(7) . . .
156(7) . . .
150(6) . . .
154(7) . . .
137(6) . . .
132(6) . . .
133(6) . . .
128(6) . . .
147(7) . . .
138(6) . . .
145(6) . . .
132(6) . . .
144(7) . . .
149(6) . . .
145(6) . . .
142(6) . . .
152(7) . . .
131(6) . . .
137(6) . . .
138(6) . . .
142(6) . . .
143(6) . . .
145(7) . . .
139(6) . . .
150(6) . . .
156(6) . . .
151(7) . . .
141(6) . . .
146(7) . . .
156(7) . . .
134(6) . . .
151(7) . . .
163(7) . . .
154(7) . . .
142(6) . . .
137(6) . . .
141(6) . . .
150(7) . . .
133(6) . . .
154(6) . . .
149(6) . . .
154(7) . . .
142(6) . . .
142(6) . . .
144(6) . . .
161(7) . . .
138(6) . . .
143(6) . . .
153(7) . . .
154(6) . . .
153(7) . . .
165(7) . . .
150(7) . . .
152(6) . . .
134(6) . . .
135(6) . . .
146(7) . . .
150(7) . . .
159(7) . . .
148(6) . . .
163(7) . . .
158(7) . . .
136(6) . . .
147(6) . . .
163(7) . . .
151(7) . . .
155(7) . . .
150(6) . . .
154(6) . . .
143(6) . . .
151(7) . . .
153(7) . . .
152(7) . . .
156(7) . . .
131(6) . . .
142(7) . . .
138(6) . . .
142(6) . . .
143(6) . . .
151(6) . . .
148(7) . . .
139(6) . . .
143(6) . . .
134(6) . . .
153(7) . . .
141(6) . . .
152(7) . . .
136(6) . . .
146(6) . . .
165(7) . . .
147(7) . . .
152(7) . . .
137(6) . . .
153(6) . . .
131(6) . . .
160(7) . . .
136(6) . . .
148(7) . . .
146(6) . . .
146(6) . . .
167(7) . . .
151(7) . . .
180(7) . . .
150(6) . . .
131(6) . . .
154(7) . . .
164(7) . . .
152(7) . . .
149(6) . . .
137(6) . . .
155(7) . . .
154(7) . . .
138(6) . . .
130(6) . . .
152(7) . . .
151(7) . . .
151(7) . . .
150(6) . . .
154(6) . . .
145(6) . . .
160(7) . . .
150(6) . . .
147(6) . . .
139(6) . . .
155(7) . . .
150(7) . . .
144(7) . . .
162(7) . . .
148(6) . . .
135(6) . . .
146(7) . . .
153(7) . . .
149(6) . . .
143(6) . . .
141(6) . . .
165(7) . . .
168(7) . . .
167(7) . . .
151(6) . . .
162(7) . . .
151(7) . . .
175(7) . . .
136(6) . . .
142(6) . . .
153(7) . . .
149(7) . . .
161(7) . . .
153(6) . . .
149(6) . . .
174(7) . . .
166(7) . . .
158(7) . . .
160(7) . . .
167(7) . . .
158(7) . . .
150(7) . . .
160(7) . . .
146(6) . . .
166(7) . . .
148(7) . . .
147(6) . . .
156(7) . . .
147(6) . . .
152(7) . . .
146(7) . . .
142(6) . . .
148(6) . . .
150(6) . . .
148(7) . . .
150(7) . . .
158(7) . . .
162(7) . . .
136(6) . . .
143(6) . . .
158(7) . . .
130(6) . . .
137(6) . . .
143(6) . . .
149(6) . . .
143(7) . . .
162(7) . . .
160(7) . . .
162(7) . . .
163(7) . . .
129(6) . . .
142(6) . . .
149(6) . . .
143(6) . . .
136(6) . . .
139(7) . . .
147(6) . . .
156(6) . . .
140(6) . . .
144(6) . . .
138(6) . . .
151(7) . . .
146(6) . . .
150(6) . . .
148(7) . . .
142(6) . . .
141(6) . . .
152(6) . . .
145(6) . . .
146(7) . . .
136(6) . . .
152(6) . . .
161(7) . . .
136(6) . . .
156(7) . . .
148(6) . . .
149(6) . . .
144(6) . . .
148(7) . . .
157(7) . . .
160(7) . . .
155(6) . . .
137(6) . . .
154(7) . . .
142(7) . . .
143(6) . . .
150(6) . . .
168(7) . . .
137(6) . . .
148(7) . . .
154(7) . . .
146(6) . . .
137(6) . . .
157(7) . . .
164(7) . . .
156(7) . . .
144(6) . . .
138(6) . . .
139(6) . . .
152(7) . . .
139(6) . . .
172(7) . . .
147(6) . . .
140(6) . . .
156(7) . . .
151(7) . . .
141(6) . . .
159(7) . . .
150(7) . . .
170(7) . . .
144(6) . . .
139(6) . . .
147(7) . . .
145(7) . . .
145(6) . . .
138(6) . . .
148(6) . . .
157(7) . . .
155(7) . . .
134(6) . . .
146(6) . . .
136(6) . . .
151(6) . . .
158(7) . . .
154(7) . . .
157(7) . . .
138(6) . . .
160(7) . . .
149(7) . . .
150(6) . . .
135(6) . . .
130(6) . . .
136(6) . . .
147(7) . . .
156(7) . . .
138(6) . . .
148(6) . . .
135(6) . . .
135(7) . . .
142(6) . . .
123(6) . . .
138(6) . . .
156(7) . . .
153(7) . . .
140(6) . . .
155(6) . . .
170(7) . . .
151(7) . . .
161(7) . . .
156(7) . . .
148(6) . . .
142(6) . . .
139(6) . . .
150(7) . . .
136(6) . . .
135(6) . . .
124(6) . . .
139(6) . . .
150(6) . . .
151(6) . . .
163(7) . . .
146(6) . . .
169(7) . . .
139(7) . . .
150(6) . . .
145(6) . . .
149(6) . . .
145(6) . . .
144(7) . . .
154(6) . . .
153(6) . . .
156(7) . . .
142(6) . . .
144(6) . . .
144(6) . . .
159(6) . . .
148(7) . . .
145(7) . . .
140(6) . . .
151(7) . . .
157(7) . . .
153(7) . . .
149(7) . . .
141(6) . . .
143(6) . . .
155(6) . . .
148(6) . . .
139(7) . . .
159(7) . . .
162(7) . . .
153(6) . . .
152(7) . . .
168(7) . . .
175(7) . . .
148(6) . . .
159(7) . . .
156(7) . . .
152(7) . . .
156(7) . . .
146(6) . . .
137(6) . . .
149(7) . . .
146(7) . . .
146(6) . . .
158(7) . . .
152(6) . . .
166(7) . . .
149(7) . . .
151(7) . . .
161(7) . . .
137(6) . . .
166(7) . . .
155(7) . . .
158(7) . . .
149(6) . . .
146(7) . . .
152(7) . . .
133(6) . . .
144(6) . . .
147(6) . . .
156(7) . . .
151(7) . . .
153(7) . . .
146(6) . . .
166(7) . . .
157(7) . . .
164(7) . . .
163(7) . . .
156(6) . . .
148(6) . . .
164(7) . . .
160(7) . . .
161(7) . . .
137(6) . . .
136(6) . . .
139(6) . . .
155(7) . . .
128(6) . . .
139(6) . . .
142(6) . . .
156(7) . . .
160(7) . . .
148(7) . . .
142(6) . . .
146(6) . . .
130(6) . . .
147(7) . . .
138(6) . . .
151(6) . . .
150(6) . . .
163(7) . . .
152(7) . . .
152(7) . . .
170(7) . . .
162(7) . . .
124(6) . . .
162(7) . . .
147(6) . . .
140(6) . . .
135(6) . . .
155(7) . . .
148(6) . . .
164(7) . . .
142(6) . . .
140(6) . . .
162(7) . . .
151(7) . . .
155(7) . . .
144(6) . . .
155(7) . . .
138(6) . . .
133(6) . . .
159(7) . . .
141(6) . . .
154(7) . . .
145(7) . . .
145(6) . . .
141(6) . . .
150(6) . . .
142(6) . . .
148(7) . . .
149(7) . . .
146(6) . . .
146(6) . . .
144(6) . . .
154(7) . . .
149(6) . . .
157(6) . . .
154(6) . . .
151(7) . . .
159(7) . . .
159(7) . . .
150(6) . . .
155(7) . . .
157(7) . . .
147(7) . . .
151(6) . . .
145(6) . . .
134(6) . . .
158(7) . . .
147(7) . . .
141(6) . . .
131(6) . . .
143(6) . . .
126(6) . . .
142(6) . . .
154(7) . . .
143(6) . . .
155(7) . . .
158(7) . . .
140(6) . . .
149(7) . . .
163(7) . . .
158(7) . . .
162(7) . . .
151(6) . . .
151(7) . . .
147(6) . . .
155(7) . . .
147(6) . . .
155(7) . . .
146(6) . . .
164(7) . . .
176(7) . . .
162(7) . . .
165(7) . . .
140(6) . . .
145(6) . . .
145(7) . . .
156(7) . . .
146(6) . . .
151(6) . . .
176(7) . . .
162(7) . . .
141(7) . . .
149(7) . . .
147(6) . . .
143(6) . . .
171(7) . . .
141(7) . . .
149(7) . . .
135(6) . . .
159(7) . . .
138(7) . . .
140(7) . . .
145(7) . . .
147(6) . . .
140(6) . . .
153(7) . . .
165(7) . . .
134(6) . . .
136(6) . . .
145(6) . . .
162(7) . . .
141(6) . . .
140(6) . . .
152(6) . . .
137(6) . . .
152(7) . . .
134(6) . . .
134(6) . . .
134(6) . . .
142(6) . . .
136(6) . . .
164(7) . . .
130(6) . . .
153(6) . . .
150(7) . . .
146(7) . . .
146(6) . . .
169(7) . . .
172(7) . . .
138(6) . . .
142(7) . . .
136(6) . . .
141(6) . . .
153(6) . . .
131(6) . . .
143(7) . . .
143(6) . . .
155(7) . . .
145(6) . . .
148(6) . . .
148(7) . . .
160(7) . . .
141(6) . . .
141(6) . . .
148(7) . . .
150(7) . . .
135(6) . . .
142(6) . . .
142(6) . . .
150(7) . . .
144(7) . . .
160(7) . . .
150(6) . . .
134(6) . . .
137(6) . . .
151(7) . . .
154(7) . . .
155(6) . . .
141(6) . . .
122(6) . . .
151(7) . . .
141(6) . . .
131(6) . . .
134(6) . . .
158(7) . . .
153(7) . . .
139(7) . . .
159(7) . . .
141(6) . . .
142(6) . . .
149(7) . . .
143(6) . . .
134(6) . . .
164(7) . . .
140(6) . . .
145(6) . . .
145(7) . . .
138(6) . . .
128(6) . . .
137(6) . . .
161(7) . . .
142(6) . . .
141(6) . . .
131(6) . . .
145(7) . . .
132(6) . . .
138(6) . . .
168(7) . . .
139(6) . . .
158(7) . . .
155(7) . . .
145(6) . . .
154(6) . . .
120(6) . . .
148(7) . . .
177(7) . . .
142(6) . . .
151(6) . . .
124(6) . . .
137(7) . . .
158(7) . . .
146(6) . . .
136(6) . . .
142(6) . . .
127(6) . . .
147(6) . . .
144(6) . . .
137(6) . . .
154(7) . . .
150(7) . . .
147(7) . . .
152(6) . . .
162(7) . . .
137(6) . . .
146(7) . . .
141(6) . . .
150(6) . . .
134(6) . . .
151(7) . . .
150(7) . . .
154(7) . . .
149(6) . . .
147(6) . . .
135(6) . . .
144(6) . . .
145(6) . . .
141(6) . . .
149(7) . . .
151(7) . . .
147(6) . . .
159(7) . . .
157(6) . . .
145(6) . . .
156(7) . . .
146(6) . . .
155(7) . . .
148(6) . . .
140(6) . . .
142(7) . . .
144(6) . . .
143(6) . . .
143(6) . . .
139(6) . . .
165(7) . . .
155(7) . . .
150(6) . . .
148(6) . . .
139(6) . . .
128(6) . . .
141(6) . . .
144(6) . . .
145(6) . . .
149(7) . . .
149(7) . . .
154(7) . . .
136(6) . . .
138(6) . . .
160(7) . . .
161(7) . . .
159(7) . . .
131(6) . . .
150(6) . . .
158(7) . . .
147(6) . . .
157(7) . . .
157(7) . . .
143(6) . . .
143(6) . . .
147(6) . . .
142(6) . . .
156(6) . . .
149(7) . . .
146(7) . . .
149(7) . . .
150(7) . . .
154(6) . . .
151(7) . . .
159(7) . . .
156(7) . . .
142(6) . . .
141(6) . . .
169(7) . . .
137(6) . . .
139(6) . . .
146(6) . . .
143(6) . . .
140(6) . . .
143(7) . . .
147(6) . . .
166(7) . . .
145(6) . . .
158(7) . . .
156(7) . . .
137(6) . . .
159(7) . . .
162(7) . . .
159(7) . . .
157(7) . . .
151(6) . . .
147(6) . . .
168(7) . . .
127(6) . . .
143(7) . . .
154(7) . . .
143(6) . . .
153(6) . . .
144(6) . . .
156(7) . . .
157(7) . . .
123(6) . . .
160(7) . . .
143(6) . . .
133(6) . . .
141(6) . . .
161(7) . . .
158(7) . . .
142(6) . . .
150(7) . . .
153(7) . . .
153(6) . . .
135(6) . . .
146(7) . . .
140(6) . . .
139(6) . . .
134(6) . . .
145(6) . . .
142(6) . . .
149(7) . . .
160(7) . . .
142(6) . . .
139(6) . . .
140(6) . . .
141(6) . . .
161(7) . . .
156(7) . . .
145(7) . . .
131(6) . . .
150(7) . . .
161(7) . . .
151(6) . . .
151(7) . . .
158(7) . . .
144(6) . . .
142(6) . . .
147(6) . . .
162(7) . . .
154(7) . . .
136(6) . . .
139(6) . . .
155(7) . . .
145(7) . . .
153(7) . . .
139(6) . . .
155(6) . . .
151(7) . . .
160(7) . . .
135(6) . . .
149(7) . . .
152(6) . . .
149(6) . . .
149(7) . . .
173(7) . . .
157(7) . . .
141(6) . . .
148(6) . . .
145(7) . . .
154(7) . . .
144(6) . . .
128(6) . . .
143(6) . . .
128(6) . . .
148(7) . . .
149(7) . . .
162(7) . . .
157(7) . . .
138(6) . . .
155(7) . . .
162(7) . . .
160(7) . . .
154(7) . . .
149(7) . . .
155(7) . . .
147(6) . . .
140(6) . . .
161(7) . . .
151(7) . . .
147(6) . . .
158(7) . . .
151(6) . . .
146(7) . . .
145(7) . . .
158(7) . . .
144(6) . . .
138(6) . . .
132(6) . . .
140(6) . . .
149(7) . . .
148(6) . . .
141(6) . . .
135(6) . . .
139(7) . . .
144(6) . . .
156(6) . . .
154(7) . . .
168(7) . . .
146(7) . . .
142(7) . . .
142(6) . . .
146(6) . . .
146(6) . . .
163(7) . . .
153(7) . . .
139(6) . . .
131(6) . . .
151(7) . . .
134(6) . . .
147(7) . . .
156(7) . . .
160(7) . . .
155(7) . . .
154(7) . . .
127(6) . . .
135(6) . . .
157(7) . . .
141(6) . . .
140(6) . . .
148(6) . . .
139(6) . . .
141(6) . . .
152(7) . . .
137(6) . . .
130(6) . . .
146(6) . . .
152(7) . . .
141(7) . . .
135(6) . . .
140(6) . . .
137(6) . . .
148(7) . . .
151(7) . . .
154(7) . . .
152(6) . . .
171(7) . . .
157(7) . . .
156(7) . . .
150(7) . . .
145(6) . . .
136(6) . . .
132(6) . . .
152(7) . . .
149(7) . . .
144(6) . . .
134(6) . . .
161(7) . . .
158(7) . . .
145(6) . . .
163(7) . . .
158(7) . . .
152(7) . . .
134(6) . . .
132(6) . . .
132(6) . . .
149(7) . . .
155(7) . . .
146(7) . . .
141(6) . . .
157(6) . . .
150(7) . . .
137(6) . . .
152(7) . . .
152(7) . . .
148(6) . . .
148(6) . . .
142(6) . . .
166(7) . . .
134(6) . . .
164(7) . . .
141(7) . . .
157(7) . . .
149(7) . . .
169(7) . . .
140(6) . . .
137(6) . . .
144(7) . . .
153(7) . . .
150(6) . . .
145(6) . . .
151(7) . . .
138(6) . . .
145(6) . . .
155(6) . . .
148(6) . . .
150(7) . . .
148(7) . . .
140(6) . . .
159(7) . . .
135(6) . . .
151(7) . . .
155(7) . . .
139(6) . . .
133(6) . . .
129(6) . . .
124(6) . . .
144(7) . . .
162(7) . . .
133(6) . . .
150(6) . . .
148(7) . . .
145(7) . . .
154(7) . . .
144(6) . . .
159(7) . . .
133(6) . . .
136(6) . . .
142(6) . . .
142(6) . . .
160(7) . . .
142(6) . . .
150(7) . . .
147(7) . . .
157(7) . . .
142(6) . . .
134(6) . . .
137(6) . . .
151(7) . . .
142(6) . . .
149(6) . . .
147(7) . . .
138(6) . . .
140(6) . . .
160(7) . . .
156(7) . . .
156(7) . . .
146(6) . . .
140(6) . . .
152(6) . . .
126(6) . . .
143(7) . . .
160(7) . . .
149(6) . . .
142(6) . . .
142(6) . . .
140(7) . . .
132(6) . . .
141(6) . . .
162(7) . . .
158(7) . . .
147(7) . . .
163(7) . . .
143(6) . . .
158(7) . . .
163(7) . . .
161(7) . . .
178(7) . . .
158(7) . . .
156(6) . . .
146(6) . . .
160(7) . . .
157(7) . . .
160(7) . . .
161(7) . . .
150(7) . . .
136(6) . . .
141(6) . . .
155(6) . . .
143(6) . . .
154(7) . . .
130(6) . . .
143(6) . . .
145(6) . . .
156(7) . . .
149(7) . . .
146(6) . . .
137(6) . . .
149(6) . . .
155(7) . . .
158(7) . . .
145(7) . . .
131(6) . . .
138(6) . . .
155(7) . . .
144(7) . . .
149(7) . . .
166(7) . . .
134(6) . . .
157(7) . . .
147(7) . . .
153(7) . . .
136(6) . . .
136(6) . . .
154(7) . . .
132(6) . . .
138(6) . . .
144(6) . . .
153(7) . . .
148(7) . . .
147(7) . . .
160(7) . . .
152(6) . . .
136(6) . . .
140(6) . . .
138(6) . . .
148(7) . . .
146(6) . . .
151(6) . . .
143(6) . . .
157(7) . . .
138(6) . . .
133(6) . . .
147(6) . . .
129(6) . . .
125(6) . . .
141(6) . . .
142(6) . . .
154(7) . . .
138(6) . . .
146(7) . . .
157(7) . . .
152(6) . . .
143(6) . . .
151(7) . . .
145(7) . . .
131(6) . . .
134(6) . . .
139(6) . . .
145(6) . . .
139(6) . . .
139(6) . . .
131(6) . . .
142(7) . . .
148(7) . . .
141(6) . . .
149(6) . . .
136(6) . . .
144(6) . . .
163(7) . . .
155(7) . . .
142(6) . . .
131(6) . . .
141(6) . . .
138(6) . . .
154(7) . . .
153(7) . . .
131(6) . . .
157(7) . . .
152(7) . . .
148(7) . . .
136(6) . . .
161(7) . . .
142(6) . . .
143(7) . . .
141(6) . . .
154(6) . . .
147(6) . . .
141(6) . . .
139(6) . . .
149(7) . . .
145(6) . . .
143(6) . . .
120(6) . . .
147(7) . . .
154(7) . . .
153(6) . . .
160(7) . . .
147(7) . . .
127(6) . . .
146(7) . . .
153(6) . . .
157(7) . . .
148(7) . . .
155(7) . . .
143(6) . . .
163(7) . . .
154(7) . . .
143(6) . . .
154(7) . . .
155(7) . . .
144(6) . . .
154(7) . . .
149(7) . . .
144(6) . . .
150(6) . . .
147(6) . . .
137(6) . . .
146(7) . . .
155(7) . . .
150(6) . . .
141(6) . . .
151(7) . . .
141(7) . . .
141(6) . . .
150(6) . . .
146(6) . . .
129(6) . . .
137(6) . . .
138(6) . . .
124(6) . . .
142(6) . . .
153(7) . . .
139(7) . . .
144(7) . . .
136(6) . . .
142(6) . . .
143(6) . . .
120(6) . . .
135(6) . . .
158(7) . . .
128(6) . . .
142(6) . . .
122(6) . . .
153(7) . . .
142(6) . . .
142(6) . . .
134(6) . . .
142(6) . . .
146(6) . . .
158(7) . . .
136(6) . . .
143(7) . . .
136(6) . . .
158(7) . . .
142(6) . . .
141(6) . . .
136(6) . . .
150(7) . . .
158(7) . . .
142(6) . . .
160(7) . . .
132(6) . . .
137(6) . . .
132(6) . . .
142(6) . . .
154(7) . . .
150(7) . . .
148(7) . . .
130(6) . . .
149(6) . . .
138(6) . . .
145(7) . . .
134(6) . . .
129(6) . . .
125(6) . . .
133(6) . . .
139(6) . . .
148(6) . . .
157(7) . . .
146(6) . . .
132(6) . . .
142(7) . . .
134(6) . . .
128(6) . . .
137(6) . . .
138(6) . . .
140(7) . . .
146(6) . . .
139(6) . . .
142(6) . . .
157(7) . . .
147(7) . . .
128(6) . . .
145(6) . . .
130(6) . . .
133(6) . . .
136(6) . . .
143(7) . . .
156(6) . . .
151(6) . . .
137(6) . . .
138(6) . . .
138(6) . . .
139(6) . . .
137(6) . . .
148(6) . . .
134(6) . . .
146(6) . . .
148(6) . . .
141(6) . . .
147(7) . . .
130(6) . . .
133(6) . . .
139(6) . . .
147(7) . . .
134(6) . . .
149(6) . . .
150(6) . . .
135(6) . . .
147(7) . . .
157(7) . . .
142(6) . . .
140(6) . . .
133(6) . . .
157(7) . . .
147(7) . . .
139(6) . . .
159(7) . . .
133(6) . . .
150(7) . . .
154(7) . . .
140(6) . . .
130(6) . . .
142(6) . . .
141(6) . . .
149(7) . . .
132(6) . . .
148(6) . . .
155(6) . . .
156(7) . . .
127(6) . . .
140(6) . . .
154(6) . . .
148(6) . . .
141(6) . . .
137(6) . . .
142(6) . . .
151(6) . . .
140(6) . . .
148(7) . . .
129(6) . . .
135(6) . . .
136(6) . . .
144(6) . . .
140(6) . . .
132(6) . . .
144(6) . . .
141(6) . . .
148(7) . . .
152(7) . . .
143(6) . . .
138(6) . . .
145(6) . . .
146(6) . . .
142(6) . . .
141(6) . . .
146(6) . . .
148(6) . . .
137(6) . . .
143(7) . . .
146(7) . . .
124(6) . . .
150(6) . . .
136(6) . . .
139(7) . . .
139(7) . . .
145(6) . . .
139(6) . . .
155(7) . . .
133(7) . . .
121(6) . . .
141(6) . . .
138(6) . . .
159(7) . . .
150(7) . . .
146(7) . . .
140(6) . . .
145(6) . . .
131(6) . . .
132(6) . . .
139(6) . . .
142(6) . . .
129(6) . . .
135(6) . . .
138(6) . . .
171(7) . . .
149(6) . . .
143(6) . . .
150(7) . . .
122(6) . . .
125(6) . . .
150(6) . . .
140(6) . . .
143(6) . . .
140(6) . . .
124(6) . . .
142(6) . . .
126(6) . . .
142(7) . . .
147(7) . . .
151(6) . . .
139(6) . . .
130(6) . . .
136(6) . . .
142(6) . . .
147(6) . . .
140(6) . . .
147(7) . . .
137(6) . . .
140(6) . . .
154(7) . . .
141(6) . . .
132(6) . . .
138(6) . . .
129(6) . . .
137(6) . . .
144(6) . . .
128(6) . . .
137(6) . . .
144(6) . . .
129(6) . . .
161(7) . . .
150(7) . . .
143(7) . . .
137(6) . . .
127(6) . . .
142(6) . . .
140(6) . . .
143(7) . . .
151(7) . . .
131(6) . . .
142(6) . . .
157(7) . . .
141(7) . . .
128(6) . . .
141(6) . . .
143(6) . . .
146(6) . . .
133(6) . . .
152(7) . . .
157(7) . . .
147(6) . . .
146(6) . . .
147(7) . . .
137(6) . . .
154(6) . . .
137(6) . . .
131(6) . . .
138(7) . . .
127(6) . . .
138(6) . . .
136(6) . . .
153(7) . . .
136(6) . . .
131(6) . . .
143(6) . . .
140(6) . . .
139(6) . . .
137(6) . . .
127(6) . . .
130(6) . . .
140(6) . . .
149(7) . . .
130(6) . . .
137(6) . . .
130(6) . . .
141(6) . . .
138(7) . . .
135(6) . . .
134(6) . . .
134(6) . . .
141(6) . . .
128(6) . . .
132(6) . . .
134(6) . . .
166(7) . . .
147(7) . . .
124(6) . . .
143(6) . . .
142(6) . . .
140(6) . . .
140(6) . . .
135(6) . . .
128(6) . . .
147(6) . . .
152(7) . . .
128(6) . . .
139(7) . . .
130(6) . . .
135(6) . . .
139(6) . . .
130(6) . . .
128(6) . . .
142(7) . . .
139(6) . . .
148(6) . . .
136(6) . . .
139(6) . . .
150(7) . . .
124(6) . . .
140(6) . . .
156(7) . . .
164(7) . . .
136(6) . . .
144(6) . . .
137(6) . . .
136(6) . . .
130(6) . . .
134(6) . . .
139(6) . . .
134(6) . . .
127(6) . . .
130(6) . . .
137(6) . . .
142(6) . . .
157(7) . . .
139(7) . . .
139(6) . . .
135(6) . . .
118(6) . . .
130(6) . . .
154(7) . . .
143(6) . . .
144(6) . . .
158(7) . . .
135(6) . . .
138(6) . . .
139(6) . . .
144(6) . . .
129(6) . . .
129(6) . . .
121(6) . . .
122(6) . . .
125(6) . . .
132(6) . . .
144(7) . . .
125(6) . . .
128(6) . . .
139(6) . . .
123(6) . . .
140(6) . . .
151(7) . . .
139(6) . . .
141(6) . . .
144(6) . . .
139(6) . . .
132(6) . . .
124(6) . . .
155(6) . . .
155(7) . . .
128(6) . . .
135(7) . . .
125(6) . . .
158(6) . . .
145(6) . . .
145(7) . . .
133(6) . . .
124(6) . . .
131(6) . . .
133(6) . . .
119(6) . . .
147(7) . . .
145(6) . . .
133(6) . . .
148(7) . . .
141(6) . . .
129(6) . . .
132(6) . . .
137(6) . . .
143(7) . . .
129(6) . . .
140(6) . . .
139(6) . . .
143(6) . . .
136(6) . . .
146(7) . . .
130(6) . . .
139(6) . . .
149(6) . . .
135(6) . . .
137(7) . . .
128(6) . . .
157(7) . . .
128(6) . . .
126(6) . . .
151(7) . . .
148(6) . . .
133(6) . . .
140(6) . . .
137(6) . . .
145(7) . . .
139(6) . . .
134(6) . . .
143(6) . . .
128(6) . . .
144(6) . . .
148(7) . . .
138(6) . . .
145(6) . . .
145(7) . . .
129(6) . . .
119(6) . . .
118(6) . . .
141(7) . . .
134(6) . . .
138(6) . . .
134(6) . . .
117(6) . . .
148(7) . . .
136(6) . . .
130(6) . . .
135(6) . . .
147(6) . . .
141(6) . . .
136(6) . . .
129(6) . . .
128(6) . . .
136(6) . . .
140(6) . . .
138(6) . . .
151(6) . . .
149(6) . . .
142(6) . . .
126(6) . . .
139(7) . . .
157(7) . . .
122(6) . . .
126(6) . . .
141(6) . . .
158(7) . . .
145(6) . . .
135(6) . . .
117(6) . . .
141(7) . . .
136(6) . . .
159(7) . . .
141(6) . . .
140(6) . . .
143(6) . . .
154(7) . . .
157(7) . . .
138(6) . . .
132(6) . . .
148(7) . . .
138(6) . . .
124(6) . . .
136(6) . . .
142(6) . . .
138(6) . . .
145(6) . . .
153(6) . . .
156(6) . . .
140(6) . . .
121(6) . . .
135(6) . . .
132(6) . . .
133(6) . . .
135(6) . . .
131(6) . . .
134(6) . . .
128(6) . . .
133(6) . . .
129(6) . . .
137(6) . . .
145(7) . . .
141(6) . . .
128(6) . . .
118(6) . . .
128(6) . . .
130(6) . . .
130(6) . . .
134(6) . . .
134(6) . . .
129(6) . . .
141(6) . . .
142(6) . . .
137(6) . . .
145(7) . . .
137(6) . . .
132(6) . . .
137(6) . . .
136(6) . . .
149(7) . . .
128(6) . . .
140(6) . . .
123(6) . . .
125(6) . . .
131(6) . . .
121(6) . . .
131(6) . . .
144(6) . . .
129(6) . . .
128(6) . . .
121(6) . . .
127(6) . . .
136(6) . . .
128(6) . . .
131(6) . . .
145(7) . . .
137(6) . . .
128(6) . . .
131(6) . . .
127(6) . . .
131(6) . . .
138(6) . . .
137(6) . . .
130(6) . . .
133(6) . . .
146(7) . . .
146(6) . . .
130(6) . . .
130(6) . . .
113(6) . . .
130(6) . . .
150(7) . . .
130(6) . . .
119(6) . . .
133(6) . . .
127(6) . . .
142(6) . . .
145(6) . . .
142(6) . . .
139(6) . . .
141(6) . . .
132(6) . . .
140(6) . . .
127(6) . . .
145(7) . . .
145(6) . . .
142(6) . . .
151(6) . . .
137(6) . . .
135(6) . . .
142(6) . . .
132(6) . . .
133(6) . . .
137(6) . . .
138(7) . . .
137(6) . . .
125(6) . . .
135(6) . . .
136(6) . . .
137(6) . . .
133(6) . . .
152(6) . . .
148(6) . . .
139(7) . . .
125(6) . . .
126(6) . . .
137(6) . . .
126(6) . . .
120(6) . . .
139(6) . . .
140(6) . . .
131(6) . . .
132(6) . . .
138(6) . . .
148(7) . . .
149(6) . . .
143(6) . . .
134(6) . . .
131(6) . . .
151(7) . . .
126(6) . . .
127(6) . . .
120(6) . . .
142(7) . . .
128(6) . . .
147(6) . . .
138(6) . . .
138(6) . . .
134(6) . . .
131(6) . . .
137(6) . . .
126(6) . . .
142(6) . . .
121(6) . . .
147(7) . . .
129(6) . . .
141(6) . . .
151(7) . . .
131(6) . . .
148(6) . . .
127(6) . . .
143(6) . . .
135(6) . . .
130(6) . . .
123(6) . . .
144(6) . . .
137(6) . . .
138(6) . . .
128(6) . . .
130(6) . . .
136(6) . . .
152(7) . . .
123(6) . . .
119(6) . . .
127(6) . . .
139(6) . . .
127(6) . . .
137(6) . . .
128(6) . . .
153(7) . . .
130(6) . . .
129(6) . . .
149(7) . . .
141(6) . . .
136(6) . . .
152(6) . . .
147(6) . . .
152(7) . . .
138(6) . . .
143(6) . . .
141(6) . . .
133(6) . . .
143(7) . . .
145(6) . . .
137(6) . . .
137(6) . . .
129(6) . . .
136(6) . . .
160(7) . . .
151(6) . . .
127(6) . . .
133(6) . . .
143(7) . . .
142(6) . . .
129(6) . . .
131(6) . . .
137(6) . . .
138(6) . . .
121(6) . . .
135(6) . . .
129(6) . . .
135(6) . . .
131(6) . . .
136(6) . . .
142(6) . . .
136(6) . . .
132(6) . . .
143(7) . . .
144(6) . . .
128(6) . . .
132(6) . . .
131(6) . . .
145(7) . . .
124(6) . . .
143(6) . . .
138(6) . . .
129(6) . . .
130(6) . . .
141(6) . . .
117(6) . . .
137(6) . . .
144(6) . . .
140(6) . . .
127(6) . . .
126(6) . . .
139(6) . . .
148(6) . . .
127(6) . . .
141(6) . . .
150(6) . . .
129(6) . . .
120(6) . . .
146(6) . . .
147(6) . . .
134(6) . . .
143(7) . . .
138(6) . . .
145(6) . . .
136(6) . . .
145(6) . . .
128(6) . . .
133(7) . . .
145(7) . . .
143(6) . . .
137(6) . . .
117(6) . . .
141(7) . . .
147(6) . . .
137(6) . . .
128(6) . . .
147(7) . . .
112(6) . . .
127(6) . . .
135(6) . . .
129(6) . . .
135(6) . . .
114(6) . . .
142(7) . . .
123(6) . . .
132(6) . . .
129(6) . . .
141(7) . . .
128(6) . . .
147(6) . . .
133(6) . . .
135(6) . . .
148(7) . . .
137(6) . . .
134(6) . . .
132(6) . . .
132(6) . . .
139(7) . . .
113(6) . . .
128(6) . . .
135(6) . . .
149(7) . . .
131(6) . . .
131(6) . . .
145(6) . . .
133(6) . . .
152(7) . . .
124(6) . . .
129(6) . . .
127(6) . . .
133(6) . . .
144(7) . . .
139(6) . . .
139(6) . . .
140(6) . . .
113(6) . . .
132(6) . . .
135(6) . . .
124(6) . . .
125(6) . . .
126(6) . . .
123(6) . . .
133(6) . . .
131(6) . . .
152(6) . . .
135(6) . . .
130(6) . . .
130(6) . . .
138(6) . . .
134(6) . . .
132(6) . . .
130(6) . . .
135(6) . . .
123(6) . . .
157(7) . . .
131(6) . . .
120(6) . . .
121(6) . . .
132(6) . . .
130(6) . . .
143(6) . . .
141(7) . . .
122(6) . . .
149(6) . . .
130(6) . . .
142(6) . . .
128(6) . . .
144(6) . . .
139(6) . . .
124(6) . . .
131(6) . . .
144(6) . . .
136(6) . . .
145(6) . . .
131(6) . . .
127(6) . . .
123(6) . . .
147(6) . . .
136(6) . . .
142(6) . . .
141(7) . . .
122(6) . . .
137(6) . . .
137(6) . . .
134(6) . . .
130(6) . . .
134(6) . . .
141(6) . . .
130(6) . . .
130(6) . . .
131(6) . . .
134(6) . . .
141(6) . . .
140(6) . . .
128(6) . . .
137(7) . . .
143(6) . . .
143(6) . . .
129(6) . . .
111(6) . . .
122(6) . . .
130(6) . . .
118(6) . . .
121(6) . . .
141(6) . . .
109(6) . . .
125(6) . . .
123(6) . . .
128(6) . . .
136(6) . . .
125(6) . . .
146(6) . . .
149(6) . . .
130(6) . . .
128(6) . . .
134(6) . . .
138(6) . . .
142(6) . . .
131(6) . . .
126(6) . . .
137(7) . . .
138(6) . . .
150(6) . . .
126(6) . . .
127(6) . . .
144(6) . . .
128(6) . . .
120(6) . . .
123(6) . . .
141(7) . . .
130(6) . . .
139(6) . . .
132(6) . . .
140(6) . . .
126(6) . . .
141(6) . . .
118(6) . . .
126(6) . . .
123(6) . . .
122(6) . . .
139(7) . . .
118(6) . . .
136(6) . . .
127(6) . . .
122(6) . . .
146(7) . . .
150(6) . . .
132(6) . . .
128(6) . . .
124(6) . . .
143(6) . . .
135(6) . . .
140(6) . . .
137(6) . . .
132(6) . . .
137(7) . . .
130(6) . . .
127(6) . . .
132(6) . . .
132(6) . . .
123(6) . . .
122(6) . . .
127(6) . . .
126(6) . . .
140(6) . . .
140(6) . . .
132(6) . . .
144(6) . . .
129(6) . . .
160(7) . . .
132(6) . . .
124(6) . . .
137(6) . . .
138(7) . . .
129(6) . . .
134(6) . . .
143(6) . . .
118(6) . . .
117(6) . . .
135(7) . . .
127(6) . . .
131(6) . . .
138(6) . . .
114(6) . . .
131(6) . . .
148(6) . . .
139(6) . . .
145(7) . . .
120(6) . . .
118(6) . . .
140(6) . . .
146(6) . . .
130(6) . . .
128(6) . . .
130(6) . . .
118(6) . . .
121(6) . . .
127(6) . . .
148(7) . . .
136(6) . . .
132(6) . . .
125(6) . . .
140(6) . . .
140(7) . . .
116(6) . . .
135(6) . . .
117(6) . . .
127(6) . . .
128(6) . . .
132(6) . . .
137(6) . . .
137(6) . . .
124(6) . . .
126(6) . . .
129(6) . . .
135(6) . . .
146(6) . . .
142(6) . . .
136(6) . . .
132(6) . . .
133(6) . . .
123(6) . . .
112(6) . . .
122(6) . . .
143(6) . . .
112(6) . . .
110(6) . . .
109(6) . . .
142(7) . . .
133(6) . . .
153(6) . . .
137(6) . . .
132(6) . . .
139(6) . . .
127(6) . . .
133(6) . . .
132(6) . . .
127(6) . . .
143(7) . . .
129(6) . . .
134(6) . . .
145(7) . . .
138(7) . . .
113(6) . . .
134(6) . . .
128(6) . . .
135(6) . . .
125(6) . . .
140(6) . . .
130(6) . . .
127(6) . . .
122(6) . . .
131(6) . . .
130(6) . . .
133(6) . . .
120(6) . . .
137(6) . . .
136(6) . . .
119(6) . . .
125(6) . . .
128(6) . . .
144(7) . . .
126(6) . . .
135(6) . . .
139(6) . . .
126(6) . . .
130(6) . . .
136(6) . . .
126(6) . . .
135(6) . . .
131(6) . . .
129(6) . . .
148(7) . . .
142(6) . . .
134(6) . . .
126(6) . . .
136(6) . . .
128(6) . . .
125(6) . . .
126(6) . . .
119(6) . . .
141(7) . . .
141(6) . . .
124(6) . . .
125(6) . . .
132(6) . . .
140(7) . . .
129(6) . . .
129(6) . . .
119(6) . . .
125(6) . . .
152(7) . . .
143(6) . . .
126(6) . . .
130(6) . . .
148(7) . . .
137(7) . . .
141(6) . . .
136(6) . . .
141(6) . . .
122(6) . . .
131(6) . . .
131(6) . . .
114(5) . . .
144(6) . . .
129(6) . . .
125(6) . . .
112(6) . . .
127(6) . . .
122(6) . . .
131(6) . . .
136(6) . . .
121(6) . . .
134(6) . . .
133(6) . . .
132(6) . . .
118(6) . . .
121(6) . . .
140(6) . . .
128(6) . . .
137(6) . . .
130(6) . . .
125(6) . . .
119(6) . . .
134(6) . . .
127(6) . . .
129(6) . . .
133(6) . . .
131(6) . . .
129(6) . . .
115(6) . . .
117(6) . . .
133(6) . . .
146(6) . . .
127(6) . . .
138(6) . . .
132(6) . . .
134(6) . . .
127(6) . . .
124(6) . . .
122(6) . . .
114(6) . . .
118(6) . . .
131(6) . . .
125(6) . . .
120(6) . . .
131(6) . . .
141(6) . . .
130(6) . . .
122(6) . . .
120(6) . . .
114(6) . . .
137(6) . . .
119(6) . . .
120(6) . . .
135(6) . . .
134(6) . . .
124(6) . . .
111(6) . . .
128(6) . . .
139(7) . . .
137(6) . . .
129(6) . . .
116(6) . . .
129(6) . . .
138(6) . . .
125(6) . . .
142(6) . . .
133(6) . . .
124(6) . . .
131(6) . . .
121(6) . . .
132(6) . . .
133(6) . . .
128(6) . . .
121(6) . . .
125(6) . . .
117(6) . . .
121(6) . . .
137(6) . . .
149(7) . . .
118(6) . . .
139(6) . . .
135(6) . . .
117(6) . . .
121(6) . . .
122(6) . . .
119(6) . . .
116(6) . . .
114(6) . . .
142(7) . . .
131(6) . . .
114(6) . . .
121(6) . . .
132(6) . . .
127(6) . . .
120(6) . . .
144(6) . . .
124(6) . . .
130(6) . . .
130(6) . . .
139(6) . . .
139(6) . . .
136(6) . . .
124(6) . . .
130(6) . . .
121(6) . . .
113(6) . . .
114(6) . . .
139(6) . . .
134(6) . . .
127(6) . . .
128(6) . . .
129(6) . . .
124(6) . . .
122(6) . . .
123(6) . . .
130(6) . . .
121(6) . . .
118(6) . . .
124(6) . . .
121(6) . . .
130(6) . . .
136(6) . . .
131(6) . . .
113(6) . . .
137(6) . . .
111(6) . . .
119(6) . . .
116(6) . . .
124(6) . . .
116(6) . . .
123(6) . . .
132(6) . . .
133(6) . . .
112(5) . . .
127(6) . . .
135(6) . . .
150(7) . . .
132(6) . . .
131(6) . . .
134(6) . . .
132(6) . . .
123(6) . . .
127(6) . . .
131(6) . . .
135(6) . . .
135(6) . . .
139(7) . . .
130(6) . . .
139(6) . . .
130(6) . . .
119(6) . . .
127(6) . . .
140(6) . . .
132(6) . . .
137(6) . . .
133(6) . . .
134(6) . . .
139(6) . . .
128(6) . . .
122(6) . . .
126(6) . . .
129(6) . . .
131(6) . . .
133(6) . . .
117(6) . . .
134(6) . . .
130(6) . . .
126(6) . . .
116(6) . . .
129(6) . . .
106(6) . . .
135(6) . . .
132(6) . . .
139(6) . . .
121(6) . . .
134(6) . . .
119(6) . . .
134(6) . . .
147(6) . . .
135(6) . . .
147(7) . . .
146(6) . . .
136(6) . . .
140(6) . . .
136(6) . . .
130(6) . . .
132(6) . . .
135(6) . . .
127(6) . . .
121(6) . . .
135(7) . . .
123(6) . . .
123(6) . . .
139(6) . . .
114(5) . . .
138(7) . . .
140(6) . . .
138(6) . . .
126(6) . . .
133(6) . . .
126(6) . . .
131(6) . . .
129(6) . . .
121(6) . . .
128(6) . . .
111(6) . . .
126(6) . . .
129(6) . . .
119(6) . . .
139(6) . . .
129(6) . . .
135(6) . . .
116(6) . . .
119(6) . . .
124(6) . . .
127(6) . . .
137(6) . . .
147(6) . . .
131(6) . . .
123(6) . . .
131(6) . . .
137(6) . . .
135(6) . . .
126(6) . . .
130(6) . . .
132(6) . . .
145(6) . . .
138(6) . . .
144(6) . . .
143(7) . . .
138(6) . . .
123(6) . . .
113(6) . . .
136(6) . . .
122(6) . . .
116(6) . . .
129(6) . . .
128(6) . . .
120(6) . . .
137(7) . . .
135(6) . . .
133(6) . . .
147(6) . . .
138(6) . . .
137(7) . . .
129(6) . . .
117(6) . . .
136(6) . . .
126(6) . . .
140(7) . . .
126(6) . . .
117(6) . . .
145(6) . . .
120(6) . . .
141(7) . . .
123(6) . . .
135(6) . . .
131(6) . . .
145(7) . . .
135(6) . . .
125(6) . . .
110(5) . . .
146(6) . . .
128(6) . . .
140(7) . . .
124(6) . . .
130(6) . . .
149(6) . . .
138(6) . . .
123(6) . . .
130(6) . . .
129(6) . . .
127(6) . . .
128(6) . . .
130(6) . . .
123(6) . . .
145(6) . . .
124(6) . . .
136(6) . . .
123(6) . . .
122(6) . . .
121(6) . . .
128(6) . . .
137(6) . . .
130(6) . . .
123(6) . . .
122(6) . . .
131(6) . . .
130(6) . . .
138(6) . . .
125(6) . . .
128(6) . . .
127(6) . . .
137(7) . . .
128(6) . . .
120(6) . . .
136(6) . . .
129(6) . . .
128(6) . . .
117(6) . . .
122(6) . . .
126(6) . . .
141(6) . . .
119(6) . . .
131(6) . . .
130(6) . . .
122(6) . . .
121(6) . . .
121(6) . . .
108(6) . . .
128(6) . . .
136(6) . . .
126(6) . . .
123(6) . . .
126(6) . . .
128(6) . . .
135(6) . . .
119(6) . . .
120(6) . . .
124(6) . . .
126(6) . . .
137(6) . . .
142(7) . . .
133(6) . . .
130(6) . . .
141(6) . . .
133(6) . . .
124(6) . . .
124(6) . . .
134(6) . . .
135(6) . . .
140(6) . . .
130(6) . . .
135(6) . . .
142(6) . . .
128(6) . . .
113(6) . . .
116(6) . . .
134(6) . . .
143(6) . . .
125(6) . . .
135(6) . . .
129(6) . . .
125(6) . . .
136(6) . . .
131(6) . . .
128(6) . . .
128(6) . . .
131(6) . . .
105(5) . . .
134(6) . . .
142(6) . . .
139(6) . . .
134(6) . . .
117(6) . . .
137(6) . . .
126(6) . . .
124(6) . . .
111(6) . . .
121(6) . . .
124(6) . . .
124(6) . . .
109(6) . . .
135(6) . . .
139(6) . . .
146(6) . . .
129(6) . . .
131(6) . . .
134(6) . . .
120(6) . . .
135(6) . . .
129(6) . . .
118(6) . . .
127(6) . . .
127(6) . . .
115(6) . . .
116(6) . . .
122(6) . . .
129(6) . . .
127(6) . . .
125(6) . . .
121(6) . . .
120(6) . . .
116(6) . . .
117(6) . . .
127(6) . . .
115(6) . . .
126(6) . . .
135(6) . . .
153(6) . . .
132(6) . . .
114(6) . . .
132(6) . . .
131(6) . . .
126(6) . . .
114(6) . . .
136(7) . . .
128(6) . . .
120(6) . . .
125(6) . . .
137(6) . . .
113(6) . . .
135(6) . . .
141(6) . . .
121(6) . . .
138(6) . . .
125(6) . . .
117(6) . . .
117(6) . . .
111(6) . . .
131(6) . . .
112(6) . . .
132(6) . . .
136(6) . . .
154(7) . . .
125(6) . . .
118(6) . . .
123(6) . . .
129(6) . . .
124(6) . . .
112(6) . . .
133(6) . . .
136(6) . . .
123(6) . . .
122(6) . . .
130(6) . . .
137(6) . . .
124(6) . . .
123(6) . . .
120(6) . . .
133(6) . . .
124(6) . . .
128(6) . . .
131(6) . . .
137(6) . . .
134(7) . . .
143(7) . . .
123(6) . . .
151(6) . . .
128(6) . . .
139(7) . . .
140(6) . . .
138(6) . . .
134(6) . . .
122(6) . . .
119(6) . . .
133(6) . . .
129(6) . . .
128(6) . . .
118(6) . . .
116(6) . . .
138(6) . . .
120(6) . . .
135(6) . . .
124(6) . . .
138(6) . . .
126(6) . . .
112(5) . . .
117(6) . . .
131(6) . . .
134(6) . . .
131(6) . . .
126(6) . . .
116(6) . . .
135(6) . . .
129(6) . . .
147(7) . . .
136(6) . . .
131(6) . . .
129(6) . . .
131(6) . . .
129(6) . . .
123(6) . . .
138(6) . . .
129(6) . . .
133(6) . . .
114(6) . . .
119(6) . . .
117(6) . . .
126(6) . . .
126(6) . . .
116(6) . . .
140(6) . . .
134(6) . . .
133(6) . . .
146(7) . . .
124(6) . . .
119(6) . . .
124(6) . . .
136(6) . . .
132(6) . . .
120(6) . . .
134(6) . . .
130(6) . . .
139(7) . . .
122(6) . . .
132(6) . . .
114(6) . . .
125(6) . . .
138(6) . . .
119(6) . . .
107(5) . . .
122(6) . . .
152(7) . . .
120(6) . . .
128(6) . . .
125(6) . . .
132(6) . . .
120(6) . . .
124(6) . . .
120(6) . . .
135(6) . . .
117(6) . . .
115(6) . . .
136(7) . . .
125(6) . . .
116(6) . . .
121(6) . . .
122(6) . . .
120(6) . . .
136(6) . . .
123(6) . . .
135(6) . . .
139(6) . . .
133(6) . . .
143(6) . . .
115(6) . . .
110(6) . . .
116(6) . . .
119(6) . . .
128(6) . . .
135(6) . . .
131(6) . . .
137(7) . . .
118(6) . . .
137(6) . . .
128(6) . . .
126(6) . . .
116(6) . . .
125(6) . . .
112(6) . . .
118(6) . . .
128(6) . . .
122(6) . . .
128(6) . . .
119(6) . . .
136(6) . . .
121(6) . . .
122(6) . . .
134(6) . . .
112(6) . . .
128(6) . . .
119(6) . . .
125(6) . . .
119(6) . . .
125(6) . . .
110(6) . . .
120(6) . . .
117(6) . . .
117(6) . . .
111(5) . . .
109(5) . . .
122(6) . . .
120(6) . . .
129(6) . . .
124(6) . . .
132(6) . . .
106(5) . . .
129(6) . . .
112(6) . . .
118(6) . . .
115(6) . . .
125(6) . . .
122(6) . . .
111(6) . . .
131(6) . . .
114(6) . . .
130(6) . . .
107(6) . . .
116(6) . . .
125(6) . . .
126(6) . . .
116(6) . . .
124(6) . . .
122(6) . . .
125(6) . . .
129(6) . . .
126(6) . . .
114(6) . . .
120(6) . . .
125(6) . . .
137(6) . . .
134(7) . . .
121(6) . . .
124(6) . . .
111(6) . . .
124(6) . . .
115(6) . . .
115(6) . . .
131(6) . . .
123(6) . . .
138(6) . . .
107(6) . . .
116(6) . . .
123(6) . . .
127(6) . . .
111(6) . . .
110(6) . . .
118(6) . . .
111(5) . . .
120(6) . . .
107(6) . . .
126(6) . . .
135(6) . . .
108(5) . . .
119(6) . . .
120(6) . . .
135(6) . . .
128(6) . . .
118(6) . . .
118(6) . . .
123(6) . . .
133(6) . . .
131(6) . . .
126(6) . . .
114(6) . . .
112(6) . . .
122(6) . . .
113(5) . . .
126(6) . . .
123(6) . . .
119(6) . . .
151(7) . . .
123(6) . . .
115(6) . . .
127(6) . . .
114(6) . . .
115(6) . . .
114(6) . . .
111(5) . . .
119(6) . . .
114(6) . . .
121(6) . . .
138(6) . . .
119(6) . . .
121(6) . . .
107(6) . . .
124(6) . . .
136(6) . . .
122(6) . . .
112(6) . . .
122(6) . . .
117(6) . . .
126(6) . . .
137(6) . . .
127(6) . . .
108(6) . . .
125(6) . . .
133(6) . . .
120(6) . . .
115(6) . . .
118(6) . . .
117(6) . . .
121(6) . . .
116(6) . . .
111(6) . . .
108(5) . . .
126(6) . . .
135(6) . . .
111(6) . . .
117(6) . . .
118(6) . . .
133(6) . . .
133(6) . . .
110(6) . . .
133(6) . . .
114(6) . . .
110(5) . . .
122(6) . . .
110(6) . . .
118(6) . . .
130(6) . . .
121(6) . . .
126(6) . . .
101(5) . . .
121(6) . . .
141(6) . . .
127(6) . . .
125(6) . . .
120(6) . . .
110(6) . . .
107(6) . . .
132(6) . . .
123(6) . . .
122(6) . . .
115(6) . . .
113(6) . . .
113(6) . . .
121(6) . . .
138(6) . . .
123(6) . . .
106(6) . . .
122(6) . . .
107(5) . . .
118(6) . . .
116(6) . . .
124(6) . . .
115(6) . . .
112(6) . . .
114(6) . . .
108(6) . . .
125(6) . . .
135(6) . . .
122(6) . . .
119(6) . . .
134(6) . . .
108(5) . . .
122(6) . . .
124(6) . . .
125(6) . . .
113(6) . . .
131(6) . . .
119(6) . . .
131(6) . . .
126(6) . . .
121(6) . . .
126(6) . . .
130(6) . . .
125(6) . . .
113(6) . . .
120(6) . . .
130(6) . . .
117(6) . . .
114(6) . . .
121(6) . . .
114(6) . . .
128(6) . . .
125(6) . . .
120(6) . . .
129(6) . . .
115(6) . . .
136(6) . . .
123(6) . . .
124(6) . . .
133(6) . . .
150(7) . . .
129(6) . . .
126(6) . . .
127(6) . . .
121(6) . . .
110(6) . . .
110(5) . . .
113(6) . . .
130(6) . . .
120(6) . . .
138(6) . . .
123(6) . . .
102(5) . . .
118(6) . . .
114(6) . . .
112(6) . . .
121(6) . . .
117(6) . . .
112(6) . . .
117(6) . . .
121(6) . . .
115(6) . . .
125(6) . . .
106(5) . . .
119(6) . . .
124(6) . . .
115(6) . . .
121(6) . . .
124(6) . . .
126(6) . . .
132(6) . . .
134(6) . . .
120(6) . . .
116(6) . . .
102(5) . . .
114(6) . . .
134(6) . . .
125(6) . . .
112(6) . . .
141(7) . . .
116(6) . . .
106(5) . . .
110(6) . . .
106(6) . . .
132(6) . . .
130(6) . . .
122(6) . . .
114(6) . . .
118(6) . . .
122(6) . . .
111(5) . . .
130(6) . . .
124(6) . . .
124(6) . . .
117(6) . . .
117(6) . . .
126(6) . . .
125(6) . . .
122(6) . . .
113(6) . . .
124(6) . . .
138(6) . . .
116(6) . . .
122(6) . . .
121(6) . . .
123(6) . . .
126(6) . . .
125(6) . . .
121(6) . . .
109(6) . . .
123(6) . . .
135(6) . . .
125(6) . . .
98(5) . . .
113(6) . . .
119(6) . . .
118(6) . . .
127(6) . . .
137(7) . . .
131(6) . . .
128(6) . . .
118(6) . . .
130(6) . . .
107(6) . . .
95(5) . . .
113(5) . . .
119(6) . . .
116(6) . . .
132(6) . . .
123(6) . . .
114(6) . . .
134(6) . . .
109(6) . . .
128(6) . . .
121(6) . . .
128(6) . . .
129(6) . . .
122(6) . . .
116(6) . . .
113(6) . . .
103(5) . . .
133(6) . . .
114(6) . . .
120(6) . . .
115(6) . . .
119(6) . . .
126(6) . . .
121(6) . . .
120(6) . . .
117(6) . . .
119(6) . . .
114(6) . . .
126(6) . . .
108(6) . . .
108(5) . . .
109(6) . . .
110(6) . . .
116(6) . . .
117(6) . . .
112(5) . . .
129(6) . . .
121(6) . . .
129(6) . . .
113(6) . . .
132(6) . . .
123(6) . . .
101(5) . . .
129(6) . . .
116(6) . . .
120(6) . . .
112(6) . . .
129(6) . . .
126(6) . . .
115(6) . . .
122(6) . . .
116(6) . . .
117(6) . . .
120(6) . . .
117(6) . . .
122(6) . . .
117(6) . . .
107(6) . . .
126(6) . . .
120(6) . . .
126(6) . . .
109(5) . . .
116(6) . . .
123(6) . . .
118(6) . . .
119(6) . . .
117(6) . . .
126(6) . . .
118(6) . . .
119(6) . . .
113(6) . . .
117(6) . . .
119(6) . . .
105(6) . . .
117(6) . . .
116(6) . . .
124(6) . . .
112(6) . . .
115(6) . . .
137(6) . . .
122(6) . . .
119(6) . . .
119(6) . . .
122(6) . . .
123(6) . . .
107(6) . . .
126(6) . . .
116(6) . . .
108(6) . . .
119(6) . . .
124(6) . . .
114(6) . . .
113(6) . . .
115(6) . . .
123(6) . . .
108(5) . . .
115(6) . . .
105(5) . . .
115(6) . . .
119(6) . . .
113(6) . . .
137(6) . . .
116(6) . . .
106(5) . . .
112(6) . . .
123(6) . . .
112(6) . . .
113(6) . . .
129(6) . . .
121(6) . . .
110(6) . . .
128(6) . . .
123(6) . . .
126(6) . . .
109(5) . . .
133(6) . . .
117(6) . . .
126(6) . . .
120(6) . . .
104(5) . . .
119(6) . . .
122(6) . . .
114(6) . . .
118(6) . . .
115(6) . . .
120(6) . . .
102(6) . . .
132(6) . . .
115(6) . . .
125(6) . . .
126(6) . . .
108(5) . . .
122(6) . . .
128(6) . . .
110(5) . . .
116(6) . . .
95(5) . . .
119(6) . . .
139(6) . . .
125(6) . . .
117(6) . . .
118(6) . . .
112(6) . . .
112(5) . . .
123(6) . . .
120(6) . . .
128(6) . . .
133(6) . . .
121(6) . . .
121(6) . . .
121(6) . . .
118(6) . . .
119(6) . . .
129(6) . . .
125(6) . . .
124(6) . . .
116(6) . . .
112(5) . . .
113(6) . . .
113(6) . . .
116(6) . . .
129(6) . . .
107(5) . . .
122(6) . . .
112(6) . . .
112(6) . . .
111(6) . . .
119(6) . . .
123(6) . . .
104(6) . . .
114(6) . . .
120(6) . . .
128(6) . . .
109(5) . . .
115(6) . . .
98(5) . . .
118(6) . . .
105(5) . . .
112(6) . . .
103(5) . . .
128(6) . . .
123(6) . . .
111(5) . . .
123(6) . . .
118(6) . . .
120(6) . . .
128(6) . . .
129(6) . . .
130(6) . . .
109(6) . . .
107(6) . . .
125(6) . . .
139(6) . . .
111(6) . . .
114(6) . . .
114(6) . . .
126(6) . . .
114(6) . . .
114(6) . . .
124(6) . . .
118(6) . . .
113(6) . . .
122(6) . . .
109(6) . . .
113(6) . . .
113(6) . . .
122(6) . . .
119(6) . . .
107(6) . . .
97(5) . . .
112(6) . . .
128(6) . . .
119(6) . . .
145(6) . . .
125(6) . . .
122(6) . . .
124(6) . . .
116(6) . . .
117(6) . . .
120(6) . . .
121(6) . . .
124(6) . . .
112(5) . . .
114(6) . . .
120(6) . . .
125(6) . . .
125(6) . . .
117(6) . . .
115(6) . . .
128(6) . . .
125(6) . . .
112(5) . . .
121(6) . . .
114(6) . . .
110(6) . . .
136(6) . . .
141(6) . . .
120(6) . . .
120(6) . . .
124(6) . . .
129(6) . . .
118(6) . . .
124(6) . . .
125(6) . . .
118(6) . . .
122(6) . . .
116(6) . . .
136(6) . . .
146(7) . . .
130(6) . . .
116(6) . . .
122(6) . . .
109(6) . . .
113(6) . . .
117(6) . . .
118(6) . . .
122(6) . . .
112(6) . . .
118(6) . . .
111(6) . . .
119(6) . . .
108(5) . . .
152(7) . . .
115(6) . . .
117(6) . . .
118(6) . . .
120(6) . . .
110(6) . . .
113(6) . . .
109(6) . . .
115(6) . . .
128(6) . . .
107(5) . . .
121(6) . . .
113(6) . . .
129(6) . . .
122(6) . . .
139(6) . . .
123(6) . . .
135(6) . . .
130(6) . . .
135(6) . . .
123(6) . . .
131(6) . . .
122(6) . . .
127(6) . . .
124(6) . . .
138(6) . . .
115(6) . . .
115(6) . . .
118(6) . . .
110(6) . . .
129(6) . . .
122(6) . . .
115(6) . . .
114(6) . . .
116(6) . . .
133(6) . . .
114(6) . . .
126(6) . . .
115(6) . . .
143(7) . . .
115(6) . . .
104(6) . . .
123(6) . . .
125(6) . . .
112(6) . . .
111(6) . . .
116(6) . . .
124(6) . . .
115(6) . . .
117(6) . . .
120(6) . . .
114(6) . . .
117(6) . . .
124(6) . . .
116(6) . . .
120(6) . . .
111(6) . . .
119(6) . . .
106(5) . . .
120(6) . . .
114(6) . . .
123(6) . . .
115(6) . . .
118(6) . . .
108(5) . . .
131(7) . . .
130(6) . . .
113(5) . . .
121(6) . . .
116(6) . . .
113(6) . . .
126(6) . . .
121(6) . . .
120(6) . . .
125(6) . . .
120(6) . . .
120(6) . . .
111(5) . . .
110(5) . . .
113(6) . . .
124(6) . . .
116(6) . . .
105(5) . . .
117(6) . . .
127(6) . . .
126(6) . . .
115(6) . . .
122(6) . . .
126(6) . . .
127(6) . . .
145(7) . . .
105(5) . . .
109(5) . . .
118(6) . . .
120(6) . . .
105(5) . . .
119(6) . . .
121(6) . . .
113(6) . . .
106(5) . . .
117(6) . . .
136(6) . . .
123(6) . . .
123(6) . . .
124(6) . . .
103(5) . . .
111(5) . . .
117(6) . . .
111(6) . . .
105(6) . . .
104(5) . . .
111(5) . . .
112(5) . . .
113(6) . . .
123(6) . . .
110(6) . . .
138(6) . . .
123(6) . . .
113(6) . . .
112(6) . . .
108(6) . . .
92(5) . . .
116(6) . . .
115(6) . . .
120(6) . . .
111(6) . . .
123(6) . . .
111(6) . . .
111(6) . . .
104(6) . . .
104(6) . . .
123(6) . . .
118(6) . . .
112(6) . . .
111(6) . . .
114(6) . . .
107(5) . . .
111(6) . . .
116(6) . . .
108(5) . . .
106(5) . . .
125(6) . . .
125(6) . . .
117(6) . . .
118(6) . . .
128(6) . . .
118(6) . . .
119(6) . . .
116(6) . . .
104(5) . . .
106(5) . . .
107(5) . . .
107(6) . . .
113(6) . . .
105(5) . . .
116(6) . . .
115(6) . . .
117(6) . . .
113(6) . . .
114(6) . . .
105(5) . . .
111(5) . . .
126(6) . . .
106(6) . . .
109(6) . . .
119(6) . . .
112(6) . . .
118(6) . . .
119(6) . . .
118(6) . . .
108(5) . . .
105(5) . . .
107(6) . . .
123(6) . . .
128(6) . . .
109(5) . . .
109(6) . . .
120(6) . . .
111(6) . . .
105(6) . . .
127(6) . . .
123(6) . . .
126(6) . . .
121(6) . . .
122(6) . . .
113(6) . . .
129(6) . . .
102(5) . . .
126(6) . . .
116(6) . . .
117(6) . . .
130(6) . . .
120(6) . . .
111(5) . . .
120(6) . . .
105(5) . . .
114(6) . . .
107(6) . . .
118(6) . . .
120(6) . . .
111(5) . . .
121(6) . . .
122(6) . . .
114(6) . . .
117(6) . . .
125(6) . . .
117(6) . . .
115(6) . . .
129(6) . . .
128(6) . . .
132(6) . . .
113(6) . . .
107(6) . . .
122(6) . . .
121(6) . . .
123(6) . . .
129(6) . . .
128(6) . . .
127(6) . . .
118(6) . . .
120(6) . . .
111(5) . . .
119(6) . . .
122(6) . . .
119(6) . . .
111(6) . . .
127(6) . . .
123(6) . . .
106(6) . . .
101(5) . . .
106(5) . . .
120(6) . . .
119(6) . . .
118(6) . . .
105(5) . . .
119(6) . . .
120(6) . . .
111(6) . . .
109(6) . . .
115(6) . . .
112(6) . . .
118(6) . . .
117(6) . . .
117(6) . . .
117(6) . . .
117(6) . . .
108(6) . . .
113(6) . . .
116(6) . . .
125(6) . . .
123(6) . . .
122(6) . . .
124(6) . . .
105(5) . . .
110(5) . . .
108(5) . . .
114(6) . . .
116(6) . . .
119(6) . . .
130(6) . . .
118(6) . . .
124(6) . . .
115(6) . . .
133(6) . . .
113(6) . . .
117(6) . . .
120(6) . . .
112(6) . . .
123(6) . . .
114(6) . . .
115(6) . . .
113(6) . . .
123(6) . . .
117(6) . . .
124(6) . . .
117(6) . . .
128(6) . . .
112(6) . . .
123(6) . . .
120(6) . . .
104(6) . . .
119(6) . . .
126(6) . . .
115(6) . . .
104(6) . . .
106(6) . . .
113(6) . . .
110(6) . . .
109(5) . . .
105(6) . . .
108(6) . . .
116(6) . . .
104(5) . . .
107(5) . . .
120(6) . . .
108(5) . . .
105(5) . . .
124(6) . . .
124(6) . . .
118(6) . . .
108(6) . . .
123(6) . . .
116(6) . . .
114(6) . . .
127(6) . . .
130(6) . . .
110(6) . . .
110(6) . . .
106(5) . . .
120(6) . . .
121(6) . . .
109(6) . . .
107(5) . . .
109(5) . . .
104(5) . . .
103(6) . . .
111(6) . . .
113(5) . . .
98(5) . . .
105(5) . . .
114(6) . . .
104(5) . . .
117(6) . . .
109(6) . . .
108(5) . . .
106(6) . . .
103(5) . . .
118(6) . . .
112(6) . . .
106(5) . . .
114(6) . . .
112(6) . . .
118(6) . . .
125(6) . . .
127(6) . . .
119(6) . . .
117(6) . . .
111(5) . . .
109(6) . . .
115(6) . . .
123(6) . . .
129(6) . . .
112(5) . . .
119(6) . . .
132(6) . . .
117(6) . . .
124(6) . . .
109(5) . . .
102(5) . . .
101(5) . . .
108(5) . . .
110(6) . . .
101(5) . . .
98(5) . . .
108(6) . . .
113(6) . . .
113(6) . . .
107(5) . . .
111(6) . . .
113(6) . . .
107(5) . . .
110(6) . . .
124(6) . . .
108(5) . . .
115(6) . . .
109(6) . . .
119(6) . . .
101(5) . . .
106(6) . . .
114(6) . . .
110(5) . . .
127(6) . . .
116(6) . . .
120(6) . . .
114(6) . . .
124(6) . . .
117(6) . . .
129(6) . . .
103(6) . . .
104(6) . . .
102(5) . . .
115(6) . . .
106(6) . . .
107(6) . . .
124(6) . . .
114(6) . . .
94(5) . . .
115(6) . . .
113(6) . . .
114(6) . . .
113(6) . . .
106(5) . . .
119(6) . . .
108(6) . . .
95(5) . . .
111(5) . . .
97(5) . . .
102(5) . . .
106(6) . . .
101(5) . . .
109(5) . . .
114(5) . . .
105(5) . . .
113(6) . . .
102(5) . . .
116(6) . . .
97(5) . . .
116(6) . . .
111(6) . . .
114(6) . . .
110(5) . . .
120(6) . . .
110(6) . . .
100(5) . . .
95(5) . . .
102(5) . . .
115(6) . . .
113(6) . . .
112(6) . . .
101(5) . . .
120(6) . . .
116(6) . . .
122(6) . . .
119(6) . . .
110(6) . . .
104(5) . . .
121(6) . . .
111(6) . . .
118(6) . . .
124(6) . . .
107(5) . . .
102(5) . . .
112(6) . . .
128(6) . . .
103(6) . . .
123(6) . . .
95(5) . . .
110(6) . . .
119(6) . . .
117(6) . . .
106(5) . . .
120(6) . . .
111(6) . . .
126(6) . . .
115(6) . . .
87(5) . . .
104(5) . . .
112(6) . . .
113(6) . . .
110(6) . . .
114(6) . . .
123(6) . . .
101(5) . . .
107(6) . . .
109(5) . . .
117(6) . . .
121(6) . . .
123(6) . . .
107(6) . . .
98(5) . . .
110(6) . . .
98(5) . . .
110(6) . . .
113(6) . . .
105(5) . . .
120(6) . . .
107(6) . . .
107(6) . . .
117(6) . . .
116(6) . . .
115(6) . . .
115(6) . . .
119(6) . . .
121(6) . . .
105(5) . . .
112(5) . . .
118(6) . . .
101(6) . . .
102(6) . . .
104(5) . . .
95(5) . . .
103(5) . . .
110(6) . . .
113(6) . . .
108(5) . . .
116(6) . . .
114(6) . . .
118(6) . . .
113(6) . . .
107(5) . . .
126(6) . . .
117(6) . . .
114(6) . . .
116(6) . . .
115(6) . . .
109(6) . . .
113(6) . . .
100(5) . . .
111(6) . . .
107(5) . . .
109(6) . . .
101(5) . . .
115(6) . . .
101(5) . . .
107(5) . . .
108(5) . . .
115(6) . . .
110(6) . . .
116(6) . . .
101(5) . . .
111(6) . . .
104(6) . . .
92(5) . . .
98(5) . . .
110(5) . . .
114(6) . . .
128(6) . . .
106(5) . . .
113(5) . . .
123(6) . . .
112(6) . . .
113(6) . . .
119(6) . . .
123(6) . . .
102(5) . . .
113(6) . . .
111(6) . . .
110(6) . . .
117(6) . . .
121(6) . . .
111(6) . . .
120(6) . . .
131(6) . . .
105(5) . . .
103(5) . . .
120(6) . . .
111(6) . . .
121(6) . . .
104(5) . . .
121(6) . . .
121(6) . . .
116(6) . . .
107(5) . . .
103(5) . . .
117(6) . . .
98(5) . . .
110(6) . . .
112(6) . . .
102(5) . . .
117(6) . . .
109(6) . . .
117(6) . . .
115(6) . . .
119(6) . . .
113(6) . . .
106(6) . . .
120(6) . . .
99(5) . . .
100(5) . . .
100(5) . . .
107(6) . . .
109(5) . . .
105(5) . . .
110(5) . . .
102(6) . . .
87(5) . . .
107(6) . . .
122(6) . . .
115(6) . . .
107(6) . . .
112(6) . . .
130(6) . . .
112(5) . . .
119(6) . . .
111(6) . . .
119(6) . . .
123(6) . . .
110(5) . . .
105(5) . . .
119(6) . . .
116(6) . . .
120(6) . . .
123(6) . . .
104(5) . . .
112(6) . . .
100(6) . . .
114(6) . . .
102(5) . . .
114(6) . . .
117(6) . . .
117(6) . . .
127(6) . . .
133(6) . . .
116(6) . . .
97(6) . . .
99(5) . . .
104(6) . . .
112(5) . . .
108(6) . . .
118(6) . . .
119(6) . . .
103(5) . . .
112(5) . . .
101(5) . . .
113(6) . . .
126(6) . . .
141(6) . . .
129(6) . . .
115(6) . . .
115(6) . . .
111(6) . . .
98(5) . . .
106(5) . . .
111(6) . . .
120(6) . . .
107(6) . . .
116(6) . . .
115(6) . . .
107(6) . . .
107(6) . . .
119(6) . . .
105(5) . . .
121(6) . . .
113(6) . . .
116(6) . . .
109(6) . . .
112(5) . . .
111(6) . . .
132(6) . . .
115(6) . . .
124(6) . . .
110(5) . . .
104(5) . . .
101(5) . . .
112(6) . . .
108(6) . . .
98(5) . . .
108(5) . . .
115(6) . . .
111(6) . . .
100(5) . . .
128(6) . . .
119(6) . . .
101(6) . . .
107(5) . . .
119(6) . . .
113(6) . . .
108(6) . . .
102(6) . . .
114(6) . . .
102(5) . . .
103(5) . . .
115(6) . . .
124(6) . . .
115(6) . . .
118(6) . . .
120(6) . . .
108(6) . . .
115(6) . . .
112(6) . . .
103(5) . . .
103(5) . . .
115(6) . . .
123(6) . . .
117(6) . . .
109(5) . . .
118(6) . . .
114(6) . . .
109(6) . . .
111(6) . . .
104(5) . . .
106(6) . . .
113(6) . . .
105(6) . . .
106(5) . . .
87(5) . . .
116(6) . . .
112(6) . . .
117(6) . . .
107(6) . . .
116(6) . . .
110(5) . . .
119(6) . . .
99(5) . . .
108(6) . . .
113(6) . . .
118(6) . . .
107(6) . . .
116(6) . . .
91(5) . . .
103(5) . . .
108(5) . . .
97(5) . . .
117(6) . . .
116(6) . . .
117(6) . . .
116(6) . . .
96(5) . . .
105(6) . . .
111(6) . . .
114(6) . . .
104(6) . . .
103(6) . . .
108(6) . . .
121(6) . . .
112(5) . . .
112(6) . . .
124(6) . . .
128(6) . . .
119(6) . . .
116(6) . . .
109(6) . . .
114(6) . . .
106(6) . . .
104(5) . . .
104(5) . . .
99(5) . . .
116(6) . . .
114(6) . . .
106(5) . . .
101(5) . . .
115(6) . . .
118(6) . . .
115(6) . . .
107(5) . . .
105(5) . . .
124(6) . . .
113(6) . . .
121(6) . . .
110(5) . . .
106(5) . . .
115(6) . . .
114(6) . . .
112(6) . . .
98(5) . . .
110(6) . . .
110(6) . . .
105(5) . . .
106(6) . . .
107(5) . . .
113(6) . . .
122(6) . . .
97(5) . . .
105(6) . . .
115(6) . . .
105(5) . . .
108(6) . . .
104(5) . . .
112(6) . . .
109(5) . . .
106(6) . . .
106(6) . . .
113(6) . . .
126(6) . . .
118(6) . . .
109(6) . . .
121(6) . . .
121(6) . . .
105(5) . . .
119(6) . . .
113(6) . . .
97(5) . . .
105(6) . . .
121(6) . . .
119(6) . . .
100(5) . . .
108(6) . . .
92(5) . . .
127(6) . . .
103(5) . . .
111(6) . . .
109(6) . . .
136(6) . . .
115(6) . . .
111(6) . . .
106(6) . . .
114(6) . . .
118(6) . . .
100(5) . . .
101(5) . . .
101(6) . . .
108(6) . . .
107(6) . . .
101(5) . . .
110(6) . . .
117(6) . . .
102(5) . . .
113(6) . . .
98(5) . . .
109(6) . . .
111(6) . . .
99(5) . . .
110(6) . . .
103(5) . . .
108(6) . . .
113(6) . . .
102(5) . . .
106(6) . . .
116(6) . . .
111(6) . . .
107(6) . . .
116(6) . . .
112(5) . . .
109(5) . . .
91(5) . . .
90(5) . . .
124(6) . . .
113(6) . . .
105(5) . . .
113(6) . . .
116(6) . . .
117(6) . . .
102(5) . . .
102(5) . . .
99(5) . . .
103(6) . . .
112(6) . . .
115(6) . . .
110(5) . . .
94(5) . . .
109(6) . . .
109(5) . . .
103(5) . . .
96(5) . . .
99(5) . . .
110(6) . . .
105(5) . . .
101(5) . . .
106(5) . . .
106(6) . . .
111(6) . . .
112(6) . . .
93(5) . . .
119(6) . . .
100(5) . . .
98(5) . . .
96(5) . . .
117(6) . . .
110(6) . . .
105(6) . . .
102(5) . . .
120(6) . . .
106(5) . . .
114(6) . . .
108(6) . . .
115(6) . . .
94(5) . . .
109(5) . . .
113(6) . . .
103(6) . . .
116(6) . . .
94(5) . . .
102(5) . . .
113(6) . . .
122(6) . . .
113(6) . . .
96(5) . . .
106(5) . . .
103(5) . . .
102(5) . . .
98(5) . . .
112(6) . . .
111(5) . . .
83(5) . . .
101(6) . . .
96(5) . . .
99(5) . . .
98(5) . . .
115(6) . . .
98(5) . . .
95(5) . . .
97(5) . . .
103(5) . . .
87(5) . . .
106(6) . . .
109(6) . . .
117(6) . . .
104(5) . . .
106(6) . . .
95(5) . . .
97(5) . . .
100(5) . . .
96(5) . . .
100(5) . . .
115(6) . . .
111(6) . . .
110(5) . . .
104(5) . . .
98(5) . . .
115(6) . . .
104(5) . . .
105(5) . . .
108(6) . . .
107(6) . . .
110(6) . . .
106(6) . . .
118(6) . . .
118(6) . . .
102(6) . . .
104(5) . . .
108(5) . . .
119(6) . . .
110(6) . . .
104(6) . . .
108(6) . . .
109(5) . . .
114(6) . . .
113(6) . . .
109(6) . . .
97(5) . . .
116(6) . . .
101(5) . . .
117(6) . . .
102(5) . . .
102(5) . . .
100(5) . . .
100(5) . . .
109(6) . . .
114(6) . . .
111(6) . . .
99(5) . . .
101(5) . . .
117(6) . . .
89(5) . . .
93(5) . . .
102(5) . . .
113(6) . . .
98(5) . . .
98(6) . . .
93(5) . . .
95(5) . . .
109(5) . . .
110(6) . . .
122(6) . . .
108(6) . . .
99(5) . . .
86(5) . . .
101(5) . . .
122(6) . . .
96(5) . . .
114(6) . . .
109(6) . . .
107(5) . . .
113(6) . . .
103(5) . . .
119(6) . . .
114(6) . . .
93(5) . . .
94(5) . . .
101(5) . . .
114(6) . . .
120(6) . . .
112(6) . . .
108(5) . . .
112(6) . . .
111(5) . . .
125(6) . . .
99(5) . . .
98(5) . . .
94(5) . . .
97(5) . . .
107(6) . . .
104(6) . . .
108(5) . . .
100(5) . . .
101(5) . . .
111(6) . . .
108(6) . . .
102(6) . . .
99(5) . . .
109(5) . . .
101(5) . . .
119(6) . . .
117(6) . . .
116(6) . . .
109(5) . . .
104(5) . . .
121(6) . . .
92(5) . . .
111(5) . . .
97(5) . . .
107(6) . . .
100(5) . . .
97(5) . . .
100(5) . . .
110(5) . . .
117(6) . . .
108(6) . . .
102(5) . . .
113(5) . . .
114(6) . . .
104(6) . . .
98(5) . . .
97(5) . . .
100(5) . . .
109(6) . . .
107(6) . . .
102(5) . . .
94(5) . . .
106(5) . . .
97(5) . . .
106(6) . . .
102(5) . . .
101(5) . . .
106(5) . . .
106(5) . . .
111(6) . . .
104(6) . . .
95(5) . . .
110(6) . . .
120(6) . . .
104(5) . . .
114(6) . . .
99(5) . . .
92(5) . . .
108(6) . . .
101(6) . . .
98(5) . . .
104(5) . . .
108(5) . . .
103(5) . . .
121(6) . . .
98(5) . . .
101(5) . . .
101(5) . . .
106(5) . . .
122(6) . . .
112(6) . . .
102(5) . . .
115(6) . . .
107(6) . . .
88(5) . . .
100(5) . . .
117(6) . . .
108(6) . . .
111(6) . . .
118(6) . . .
107(6) . . .
105(5) . . .
107(6) . . .
109(6) . . .
117(6) . . .
110(6) . . .
103(5) . . .
101(5) . . .
103(5) . . .
90(5) . . .
107(5) . . .
106(5) . . .
104(6) . . .
100(6) . . .
96(5) . . .
116(6) . . .
103(5) . . .
114(6) . . .
109(6) . . .
105(5) . . .
103(5) . . .
110(5) . . .
109(6) . . .
107(6) . . .
101(5) . . .
100(5) . . .
107(5) . . .
109(6) . . .
110(6) . . .
107(5) . . .
119(6) . . .
108(5) . . .
115(6) . . .
99(5) . . .
93(5) . . .
96(5) . . .
113(6) . . .
92(5) . . .
100(6) . . .
105(6) . . .
104(5) . . .
112(6) . . .
99(5) . . .
112(6) . . .
91(5) . . .
121(6) . . .
116(6) . . .
106(6) . . .
108(6) . . .
121(6) . . .
123(6) . . .
98(5) . . .
111(6) . . .
110(6) . . .
111(6) . . .
116(6) . . .
119(6) . . .
98(6) . . .
94(5) . . .
113(6) . . .
116(6) . . .
103(5) . . .
101(6) . . .
99(5) . . .
102(5) . . .
103(5) . . .
109(6) . . .
94(5) . . .
113(6) . . .
103(5) . . .
101(5) . . .
91(5) . . .
100(5) . . .
109(6) . . .
117(6) . . .
91(5) . . .
91(5) . . .
98(5) . . .
100(5) . . .
98(5) . . .
101(5) . . .
93(5) . . .
107(6) . . .
105(6) . . .
112(5) . . .
109(5) . . .
97(5) . . .
97(5) . . .
97(5) . . .
102(5) . . .
89(5) . . .
106(5) . . .
93(5) . . .
101(6) . . .
95(5) . . .
105(5) . . .
113(6) . . .
116(6) . . .
96(5) . . .
100(5) . . .
119(6) . . .
108(5) . . .
102(5) . . .
105(6) . . .
107(5) . . .
105(6) . . .
112(6) . . .
104(6) . . .
113(6) . . .
98(5) . . .
104(5) . . .
106(6) . . .
94(5) . . .
102(5) . . .
112(5) . . .
101(5) . . .
114(6) . . .
106(5) . . .
109(5) . . .
104(5) . . .
102(5) . . .
94(5) . . .
98(5) . . .
107(5) . . .
113(6) . . .
116(6) . . .
105(6) . . .
103(5) . . .
117(6) . . .
111(6) . . .
104(5) . . .
111(6) . . .
91(5) . . .
101(5) . . .
105(5) . . .
103(5) . . .
116(6) . . .
103(5) . . .
107(5) . . .
101(5) . . .
89(5) . . .
95(5) . . .
100(6) . . .
105(5) . . .
101(5) . . .
101(5) . . .
101(5) . . .
108(6) . . .
102(5) . . .
107(6) . . .
114(6) . . .
102(5) . . .
102(5) . . .
114(6) . . .
101(5) . . .
110(6) . . .
118(6) . . .
99(5) . . .
102(5) . . .
101(5) . . .
101(5) . . .
116(6) . . .
106(5) . . .
105(5) . . .
103(6) . . .
112(6) . . .
120(6) . . .
109(5) . . .
102(5) . . .
127(6) . . .
103(5) . . .
97(5) . . .
104(5) . . .
125(6) . . .
106(5) . . .
109(6) . . .
100(5) . . .
103(5) . . .
100(5) . . .
97(5) . . .
102(6) . . .
106(6) . . .
103(5) . . .
107(5) . . .
110(6) . . .
118(6) . . .
100(5) . . .
114(6) . . .
107(5) . . .
121(6) . . .
92(5) . . .
97(5) . . .
107(5) . . .
94(5) . . .
90(5) . . .
92(5) . . .
100(5) . . .
116(6) . . .
102(5) . . .
95(5) . . .
99(5) . . .
116(6) . . .
105(5) . . .
110(5) . . .
107(6) . . .
98(6) . . .
106(5) . . .
118(6) . . .
105(5) . . .
107(5) . . .
107(5) . . .
102(5) . . .
94(5) . . .
89(5) . . .
105(6) . . .
100(5) . . .
110(6) . . .
101(5) . . .
102(5) . . .
103(6) . . .
104(6) . . .
95(5) . . .
94(5) . . .
97(5) . . .
105(6) . . .
112(6) . . .
102(5) . . .
107(5) . . .
105(6) . . .
90(5) . . .
105(6) . . .
98(5) . . .
88(5) . . .
102(5) . . .
99(6) . . .
98(5) . . .
109(6) . . .
97(5) . . .
88(5) . . .
97(5) . . .
109(6) . . .
89(5) . . .
104(5) . . .
90(5) . . .
104(6) . . .
103(6) . . .
96(5) . . .
99(5) . . .
112(6) . . .
94(5) . . .
94(5) . . .
97(5) . . .
98(5) . . .
105(6) . . .
101(6) . . .
103(5) . . .
101(5) . . .
100(5) . . .
103(6) . . .
104(5) . . .
109(5) . . .
93(5) . . .
100(5) . . .
104(6) . . .
103(6) . . .
109(6) . . .
105(5) . . .
107(6) . . .
106(6) . . .
100(5) . . .
98(5) . . .
101(5) . . .
100(5) . . .
90(5) . . .
105(6) . . .
97(5) . . .
86(5) . . .
101(5) . . .
98(6) . . .
96(5) . . .
99(5) . . .
101(5) . . .
94(5) . . .
85(5) . . .
106(6) . . .
107(5) . . .
108(5) . . .
101(5) . . .
102(5) . . .
100(5) . . .
93(5) . . .
104(5) . . .
117(6) . . .
96(5) . . .
89(5) . . .
106(5) . . .
109(6) . . .
116(6) . . .
108(6) . . .
109(6) . . .
101(5) . . .
110(6) . . .
92(5) . . .
103(6) . . .
91(5) . . .
110(5) . . .
86(5) . . .
87(5) . . .
90(5) . . .
99(5) . . .
113(6) . . .
109(6) . . .
119(6) . . .
91(5) . . .
99(5) . . .
99(5) . . .
93(5) . . .
108(6) . . .
107(6) . . .
96(5) . . .
94(5) . . .
108(6) . . .
115(6) . . .
113(6) . . .
107(5) . . .
99(5) . . .
97(5) . . .
98(6) . . .
112(6) . . .
87(5) . . .
99(5) . . .
90(5) . . .
95(5) . . .
99(5) . . .
83(5) . . .
96(5) . . .
107(6) . . .
108(6) . . .
109(6) . . .
85(5) . . .
95(5) . . .
101(5) . . .
98(6) . . .
100(5) . . .
98(5) . . .
96(5) . . .
104(5) . . .
97(5) . . .
83(5) . . .
101(5) . . .
108(5) . . .
99(5) . . .
99(5) . . .
102(6) . . .
101(5) . . .
97(5) . . .
103(6) . . .
101(5) . . .
101(5) . . .
96(5) . . .
101(5) . . .
105(6) . . .
103(6) . . .
92(5) . . .
101(5) . . .
100(5) . . .
105(6) . . .
87(5) . . .
98(5) . . .
88(5) . . .
90(5) . . .
106(6) . . .
104(6) . . .
100(5) . . .
116(6) . . .
104(5) . . .
98(5) . . .
107(6) . . .
94(5) . . .
110(5) . . .
105(5) . . .
100(6) . . .
94(5) . . .
100(5) . . .
88(5) . . .
98(5) . . .
97(6) . . .
106(5) . . .
112(6) . . .
93(5) . . .
93(5) . . .
104(5) . . .
94(5) . . .
97(5) . . .
104(5) . . .
102(5) . . .
93(5) . . .
92(5) . . .
85(5) . . .
99(5) . . .
99(5) . . .
101(5) . . .
102(5) . . .
110(5) . . .
92(5) . . .
111(6) . . .
94(5) . . .
97(5) . . .
100(5) . . .
99(5) . . .
106(5) . . .
95(5) . . .
102(5) . . .
109(5) . . .
113(6) . . .
103(6) . . .
98(5) . . .
101(6) . . .
92(5) . . .
94(5) . . .
95(6) . . .
98(5) . . .
100(5) . . .
89(5) . . .
100(6) . . .
106(6) . . .
101(5) . . .
92(5) . . .
107(5) . . .
97(5) . . .
93(5) . . .
103(5) . . .
102(5) . . .
111(6) . . .
96(5) . . .
85(5) . . .
104(6) . . .
105(5) . . .
94(5) . . .
102(5) . . .
114(6) . . .
92(5) . . .
103(5) . . .
93(5) . . .
95(5) . . .
90(5) . . .
96(6) . . .
96(5) . . .
102(5) . . .
93(5) . . .
108(6) . . .
90(5) . . .
102(5) . . .
108(5) . . .
100(5) . . .
86(5) . . .
103(6) . . .
103(5) . . .
98(5) . . .
98(5) . . .
87(5) . . .
108(5) . . .
100(5) . . .
100(5) . . .
104(6) . . .
108(6) . . .
88(5) . . .
94(5) . . .
94(5) . . .
94(5) . . .
108(6) . . .
92(5) . . .
96(5) . . .
94(5) . . .
100(6) . . .
94(5) . . .
94(5) . . .
90(5) . . .
105(6) . . .
96(5) . . .
111(6) . . .
106(5) . . .
103(5) . . .
90(5) . . .
96(5) . . .
101(6) . . .
89(5) . . .
111(6) . . .
108(5) . . .
114(6) . . .
98(5) . . .
102(5) . . .
102(5) . . .
100(5) . . .
111(6) . . .
102(5) . . .
96(5) . . .
106(5) . . .
107(6) . . .
93(5) . . .
88(5) . . .
96(5) . . .
107(6) . . .
92(5) . . .
91(5) . . .
107(6) . . .
98(5) . . .
105(6) . . .
97(5) . . .
104(6) . . .
91(5) . . .
90(5) . . .
110(6) . . .
97(5) . . .
94(5) . . .
96(5) . . .
101(5) . . .
90(5) . . .
92(5) . . .
97(6) . . .
95(5) . . .
90(5) . . .
107(5) . . .
107(6) . . .
102(5) . . .
95(5) . . .
106(5) . . .
98(5) . . .
92(5) . . .
99(5) . . .
96(5) . . .
111(6) . . .
102(5) . . .
96(5) . . .
97(5) . . .
88(5) . . .
86(5) . . .
107(6) . . .
93(5) . . .
95(5) . . .
92(5) . . .
90(5) . . .
85(5) . . .
103(5) . . .
100(5) . . .
96(5) . . .
85(5) . . .
86(5) . . .
87(5) . . .
112(6) . . .
112(5) . . .
95(5) . . .
93(5) . . .
92(5) . . .
102(5) . . .
104(5) . . .
107(5) . . .
100(5) . . .
87(5) . . .
116(6) . . .
116(6) . . .
112(6) . . .
104(5) . . .
108(6) . . .
101(5) . . .
105(5) . . .
99(5) . . .
103(6) . . .
96(5) . . .
88(5) . . .
97(5) . . .
107(6) . . .
104(6) . . .
103(5) . . .
102(5) . . .
89(5) . . .
86(5) . . .
99(5) . . .
98(5) . . .
96(5) . . .
100(5) . . .
102(6) . . .
96(6) . . .
90(5) . . .
102(5) . . .
102(5) . . .
103(5) . . .
104(6) . . .
100(5) . . .
107(5) . . .
100(5) . . .
101(5) . . .
109(6) . . .
107(6) . . .
107(5) . . .
100(5) . . .
104(6) . . .
94(5) . . .
99(5) . . .
91(5) . . .
97(5) . . .
97(5) . . .
108(6) . . .
104(6) . . .
86(5) . . .
82(5) . . .
91(5) . . .
114(6) . . .
106(5) . . .
92(5) . . .
102(6) . . .
96(5) . . .
97(5) . . .
90(5) . . .
86(5) . . .
108(6) . . .
95(5) . . .
92(5) . . .
102(5) . . .
111(5) . . .
108(5) . . .
109(6) . . .
106(6) . . .
84(5) . . .
91(5) . . .
103(6) . . .
88(5) . . .
103(5) . . .
103(5) . . .
96(5) . . .
118(6) . . .
103(6) . . .
103(5) . . .
102(5) . . .
99(5) . . .
94(5) . . .
91(5) . . .
94(5) . . .
84(5) . . .
92(5) . . .
95(5) . . .
96(5) . . .
108(6) . . .
101(5) . . .
93(5) . . .
89(5) . . .
83(5) . . .
92(5) . . .
99(5) . . .
94(5) . . .
83(5) . . .
94(5) . . .
106(6) . . .
104(5) . . .
98(5) . . .
98(5) . . .
102(6) . . .
98(5) . . .
100(5) . . .
95(5) . . .
86(5) . . .
91(5) . . .
88(5) . . .
102(5) . . .
98(5) . . .
96(5) . . .
94(5) . . .
98(5) . . .
95(5) . . .
95(5) . . .
106(6) . . .
104(5) . . .
91(5) . . .
107(5) . . .
88(5) . . .
97(5) . . .
113(6) . . .
97(5) . . .
88(5) . . .
85(5) . . .
97(5) . . .
98(5) . . .
97(5) . . .
94(5) . . .
96(5) . . .
94(5) . . .
99(5) . . .
92(5) . . .
92(5) . . .
103(6) . . .
90(5) . . .
106(6) . . .
88(5) . . .
101(5) . . .
89(5) . . .
95(5) . . .
99(5) . . .
95(5) . . .
104(5) . . .
102(5) . . .
90(5) . . .
103(5) . . .
103(5) . . .
103(5) . . .
93(5) . . .
91(5) . . .
95(5) . . .
86(5) . . .
104(5) . . .
102(5) . . .
93(5) . . .
98(5) . . .
113(5) . . .
100(5) . . .
101(5) . . .
89(5) . . .
104(5) . . .
102(5) . . .
96(5) . . .
98(5) . . .
91(5) . . .
102(5) . . .
108(5) . . .
95(5) . . .
108(6) . . .
94(5) . . .
102(5) . . .
106(5) . . .
103(6) . . .
90(5) . . .
101(5) . . .
91(5) . . .
107(5) . . .
107(6) . . .
107(6) . . .
101(5) . . .
95(5) . . .
95(5) . . .
109(6) . . .
94(5) . . .
96(5) . . .
93(5) . . .
88(5) . . .
107(5) . . .
95(5) . . .
96(5) . . .
106(5) . . .
97(5) . . .
95(5) . . .
103(6) . . .
90(5) . . .
109(5) . . .
80(5) . . .
99(6) . . .
98(5) . . .
107(6) . . .
87(5) . . .
89(5) . . .
103(5) . . .
108(5) . . .
99(5) . . .
96(5) . . .
85(5) . . .
96(6) . . .
99(5) . . .
108(6) . . .
92(5) . . .
99(5) . . .
111(6) . . .
99(5) . . .
94(5) . . .
93(5) . . .
106(6) . . .
91(5) . . .
92(5) . . .
98(5) . . .
96(5) . . .
96(5) . . .
96(6) . . .
97(5) . . .
95(5) . . .
100(5) . . .
90(5) . . .
92(5) . . .
91(5) . . .
99(5) . . .
114(6) . . .
94(5) . . .
90(5) . . .
97(6) . . .
95(5) . . .
95(5) . . .
108(6) . . .
105(6) . . .
104(6) . . .
109(5) . . .
92(5) . . .
92(5) . . .
95(5) . . .
100(5) . . .
99(5) . . .
104(6) . . .
102(6) . . .
107(6) . . .
87(5) . . .
85(5) . . .
103(5) . . .
96(5) . . .
91(5) . . .
89(5) . . .
104(5) . . .
90(5) . . .
102(6) . . .
98(5) . . .
100(5) . . .
103(5) . . .
89(5) . . .
95(5) . . .
100(5) . . .
110(6) . . .
86(5) . . .
91(5) . . .
99(6) . . .
103(6) . . .
96(5) . . .
95(5) . . .
103(6) . . .
99(5) . . .
105(5) . . .
85(5) . . .
93(5) . . .
89(5) . . .
84(5) . . .
99(5) . . .
89(5) . . .
108(5) . . .
94(5) . . .
97(5) . . .
98(5) . . .
82(5) . . .
108(5) . . .
101(6) . . .
104(6) . . .
103(5) . . .
90(5) . . .
103(5) . . .
113(6) . . .
105(6) . . .
85(5) . . .
93(5) . . .
102(5) . . .
80(5) . . .
98(6) . . .
95(5) . . .
99(5) . . .
99(5) . . .
96(5) . . .
95(5) . . .
93(5) . . .
111(5) . . .
107(6) . . .
93(5) . . .
93(5) . . .
84(5) . . .
92(5) . . .
99(5) . . .
97(5) . . .
88(5) . . .
90(5) . . .
86(5) . . .
89(5) . . .
91(5) . . .
100(5) . . .
104(5) . . .
101(5) . . .
98(5) . . .
86(5) . . .
83(5) . . .
92(5) . . .
94(5) . . .
94(5) . . .
97(5) . . .
97(5) . . .
100(5) . . .
90(5) . . .
89(5) . . .
85(5) . . .
98(5) . . .
98(5) . . .
103(5) . . .
96(5) . . .
101(6) . . .
96(5) . . .
81(5) . . .
89(5) . . .
101(5) . . .
93(5) . . .
88(5) . . .
98(5) . . .
93(5) . . .
93(5) . . .
97(5) . . .
104(5) . . .
96(5) . . .
95(5) . . .
86(5) . . .
96(5) . . .
95(5) . . .
95(5) . . .
92(5) . . .
87(5) . . .
99(6) . . .
103(5) . . .
90(5) . . .
88(5) . . .
86(5) . . .
90(5) . . .
109(6) . . .
105(5) . . .
92(5) . . .
84(5) . . .
101(6) . . .
104(5) . . .
79(5) . . .
94(5) . . .
94(5) . . .
103(5) . . .
83(5) . . .
96(5) . . .
84(5) . . .
93(5) . . .
100(5) . . .
105(5) . . .
92(5) . . .
106(6) . . .
96(5) . . .
104(5) . . .
94(5) . . .
82(5) . . .
97(5) . . .
98(5) . . .
96(5) . . .
89(5) . . .
89(5) . . .
80(5) . . .
98(6) . . .
89(5) . . .
102(5) . . .
85(5) . . .
102(6) . . .
98(5) . . .
112(6) . . .
101(5) . . .
108(5) . . .
104(6) . . .
94(5) . . .
89(5) . . .
98(5) . . .
88(5) . . .
76(5) . . .
94(5) . . .
96(5) . . .
87(5) . . .
88(5) . . .
100(6) . . .
88(5) . . .
101(5) . . .
79(5) . . .
94(5) . . .
118(6) . . .
97(5) . . .
87(5) . . .
93(5) . . .
92(5) . . .
105(6) . . .
82(5) . . .
85(5) . . .
93(5) . . .
88(5) . . .
97(6) . . .
93(5) . . .
88(5) . . .
84(5) . . .
91(5) . . .
86(5) . . .
86(5) . . .
99(5) . . .
99(5) . . .
88(5) . . .
99(5) . . .
113(6) . . .
89(5) . . .
96(5) . . .
103(6) . . .
95(6) . . .
93(5) . . .
100(5) . . .
89(5) . . .
92(5) . . .
85(5) . . .
98(5) . . .
97(5) . . .
84(5) . . .
101(5) . . .
89(5) . . .
83(5) . . .
84(5) . . .
106(6) . . .
81(5) . . .
103(6) . . .
98(5) . . .
103(5) . . .
90(5) . . .
105(6) . . .
96(5) . . .
98(5) . . .
97(5) . . .
104(5) . . .
97(5) . . .
111(6) . . .
96(5) . . .
117(6) . . .
93(5) . . .
91(5) . . .
99(5) . . .
104(5) . . .
105(5) . . .
102(5) . . .
94(6) . . .
94(5) . . .
100(5) . . .
89(5) . . .
86(5) . . .
97(6) . . .
90(5) . . .
91(5) . . .
98(5) . . .
91(5) . . .
87(5) . . .
80(5) . . .
96(5) . . .
96(5) . . .
102(5) . . .
102(6) . . .
89(5) . . .
88(5) . . .
100(5) . . .
98(5) . . .
99(5) . . .
95(5) . . .
97(5) . . .
96(5) . . .
91(5) . . .
89(5) . . .
95(5) . . .
100(5) . . .
85(5) . . .
100(5) . . .
93(5) . . .
97(5) . . .
91(5) . . .
111(6) . . .
94(5) . . .
96(5) . . .
105(5) . . .
93(5) . . .
89(5) . . .
81(5) . . .
95(5) . . .
89(5) . . .
78(5) . . .
97(5) . . .
106(6) . . .
100(5) . . .
102(5) . . .
90(5) . . .
103(6) . . .
97(5) . . .
100(5) . . .
98(5) . . .
84(5) . . .
89(5) . . .
114(6) . . .
88(5) . . .
99(5) . . .
110(6) . . .
105(6) . . .
97(5) . . .
108(6) . . .
88(5) . . .
95(5) . . .
90(5) . . .
100(5) . . .
96(5) . . .
85(5) . . .
94(5) . . .
84(5) . . .
103(6) . . .
95(5) . . .
71(4) . . .
96(5) . . .
97(5) . . .
101(5) . . .
88(5) . . .
91(5) . . .
103(5) . . .
105(6) . . .
92(5) . . .
92(5) . . .
96(5) . . .
104(6) . . .
91(5) . . .
82(5) . . .
96(5) . . .
93(5) . . .
97(5) . . .
91(5) . . .
86(5) . . .
100(5) . . .
109(5) . . .
109(6) . . .
99(5) . . .
85(5) . . .
83(5) . . .
95(5) . . .
89(5) . . .
100(6) . . .
98(5) . . .
92(5) . . .
89(5) . . .
83(5) . . .
98(5) . . .
110(6) . . .
85(5) . . .
98(5) . . .
103(6) . . .
98(6) . . .
93(5) . . .
90(5) . . .
97(5) . . .
94(5) . . .
103(6) . . .
101(5) . . .
95(5) . . .
101(5) . . .
95(5) . . .
93(5) . . .
103(5) . . .
107(5) . . .
104(5) . . .
95(5) . . .
79(5) . . .
86(5) . . .
102(5) . . .
93(5) . . .
86(5) . . .
107(6) . . .
96(5) . . .
92(5) . . .
86(5) . . .
89(5) . . .
87(5) . . .
92(5) . . .
105(5) . . .
95(5) . . .
89(5) . . .
89(5) . . .
80(5) . . .
91(5) . . .
89(5) . . .
107(6) . . .
90(5) . . .
107(6) . . .
99(5) . . .
109(6) . . .
102(5) . . .
98(5) . . .
90(5) . . .
85(5) . . .
86(5) . . .
97(6) . . .
90(5) . . .
97(5) . . .
93(5) . . .
91(5) . . .
95(5) . . .
86(5) . . .
94(5) . . .
84(5) . . .
99(5) . . .
87(5) . . .
94(5) . . .
104(5) . . .
87(5) . . .
99(5) . . .
95(5) . . .
110(6) . . .
94(5) . . .
102(5) . . .
93(5) . . .
102(5) . . .
94(5) . . .
103(5) . . .
87(5) . . .
115(6) . . .
99(5) . . .
88(5) . . .
104(5) . . .
88(5) . . .
97(5) . . .
94(5) . . .
119(6) . . .
98(5) . . .
101(6) . . .
90(5) . . .
105(6) . . .
93(5) . . .
89(5) . . .
94(5) . . .
97(5) . . .
106(6) . . .
98(5) . . .
97(5) . . .
95(5) . . .
98(5) . . .
94(5) . . .
91(5) . . .
97(5) . . .
89(5) . . .
90(5) . . .
98(5) . . .
95(5) . . .
101(5) . . .
89(5) . . .
84(5) . . .
92(5) . . .
95(5) . . .
98(5) . . .
102(6) . . .
89(5) . . .
85(5) . . .
92(5) . . .
86(5) . . .
89(5) . . .
100(6) . . .
103(6) . . .
94(5) . . .
96(5) . . .
89(5) . . .
95(5) . . .
98(5) . . .
86(5) . . .
88(5) . . .
85(5) . . .
89(5) . . .
100(5) . . .
86(5) . . .
96(5) . . .
82(5) . . .
88(5) . . .
101(5) . . .
100(5) . . .
85(5) . . .
98(5) . . .
90(5) . . .
84(5) . . .
75(4) . . .
104(6) . . .
96(5) . . .
86(5) . . .
92(5) . . .
94(5) . . .
92(5) . . .
111(6) . . .
89(5) . . .
86(5) . . .
103(5) . . .
95(5) . . .
91(5) . . .
88(5) . . .
98(5) . . .
96(5) . . .
106(6) . . .
102(6) . . .
95(5) . . .
95(5) . . .
86(5) . . .
93(5) . . .
89(5) . . .
99(5) . . .
72(4) . . .
97(5) . . .
94(5) . . .
76(5) . . .
81(5) . . .
92(5) . . .
105(5) . . .
83(5) . . .
85(5) . . .
102(6) . . .
82(5) . . .
102(5) . . .
83(5) . . .
86(5) . . .
99(5) . . .
100(5) . . .
68(4) . . .
90(5) . . .
102(6) . . .
92(5) . . .
94(5) . . .
82(5) . . .
84(5) . . .
86(5) . . .
99(5) . . .
93(5) . . .
74(4) . . .
103(6) . . .
106(5) . . .
98(5) . . .
92(5) . . .
102(5) . . .
98(5) . . .
93(5) . . .
86(5) . . .
91(5) . . .
76(5) . . .
90(5) . . .
84(5) . . .
94(5) . . .
100(5) . . .
98(6) . . .
85(5) . . .
95(5) . . .
91(5) . . .
94(5) . . .
87(5) . . .
80(5) . . .
94(5) . . .
103(5) . . .
96(5) . . .
91(5) . . .
91(5) . . .
95(5) . . .
96(5) . . .
89(5) . . .
94(6) . . .
89(5) . . .
83(5) . . .
91(5) . . .
98(5) . . .
94(5) . . .
96(5) . . .
85(5) . . .
78(5) . . .
90(5) . . .
92(5) . . .
98(5) . . .
95(5) . . .
98(5) . . .
102(5) . . .
86(5) . . .
86(5) . . .
81(5) . . .
91(5) . . .
96(5) . . .
74(5) . . .
95(5) . . .
99(5) . . .
84(5) . . .
84(5) . . .
85(5) . . .
83(5) . . .
90(5) . . .
98(5) . . .
97(5) . . .
92(5) . . .
92(5) . . .
92(5) . . .
96(5) . . .
110(6) . . .
101(6) . . .
89(5) . . .
97(5) . . .
108(5) . . .
106(5) . . .
91(5) . . .
95(5) . . .
86(5) . . .
101(5) . . .
104(5) . . .
83(5) . . .
90(5) . . .
87(5) . . .
88(5) . . .
95(5) . . .
96(5) . . .
87(5) . . .
92(5) . . .
103(5) . . .
93(5) . . .
85(5) . . .
95(5) . . .
97(5) . . .
81(5) . . .
86(5) . . .
90(5) . . .
96(5) . . .
103(5) . . .
101(5) . . .
86(5) . . .
86(5) . . .
80(5) . . .
89(5) . . .
99(5) . . .
89(5) . . .
97(5) . . .
91(5) . . .
90(5) . . .
94(5) . . .
96(5) . . .
90(5) . . .
91(5) . . .
90(5) . . .
98(5) . . .
97(5) . . .
82(5) . . .
98(5) . . .
99(5) . . .
91(5) . . .
96(5) . . .
90(5) . . .
88(5) . . .
88(5) . . .
97(5) . . .
78(5) . . .
88(5) . . .
91(5) . . .
90(5) . . .
81(5) . . .
88(5) . . .
93(5) . . .
89(5) . . .
98(5) . . .
82(5) . . .
86(5) . . .
92(5) . . .
83(5) . . .
85(5) . . .
85(5) . . .
98(5) . . .
102(5) . . .
100(5) . . .
94(5) . . .
88(5) . . .
101(6) . . .
83(5) . . .
101(5) . . .
106(5) . . .
100(5) . . .
95(5) . . .
95(5) . . .
104(5) . . .
95(5) . . .
92(5) . . .
97(5) . . .
106(5) . . .
102(5) . . .
99(5) . . .
94(5) . . .
85(5) . . .
93(5) . . .
97(5) . . .
91(5) . . .
96(5) . . .
82(5) . . .
101(5) . . .
94(5) . . .
90(5) . . .
107(6) . . .
100(5) . . .
88(5) . . .
89(5) . . .
102(5) . . .
101(6) . . .
78(5) . . .
88(5) . . .
85(5) . . .
91(5) . . .
91(5) . . .
91(5) . . .
85(5) . . .
99(5) . . .
101(5) . . .
106(6) . . .
105(6) . . .
84(5) . . .
73(5) . . .
79(5) . . .
80(5) . . .
92(5) . . .
98(5) . . .
94(5) . . .
88(5) . . .
81(5) . . .
87(5) . . .
90(5) . . .
94(5) . . .
92(5) . . .
85(5) . . .
81(5) . . .
87(5) . . .
90(5) . . .
93(5) . . .
77(5) . . .
85(5) . . .
76(5) . . .
85(5) . . .
86(5) . . .
89(5) . . .
87(5) . . .
94(5) . . .
77(5) . . .
85(5) . . .
95(5) . . .
92(5) . . .
84(5) . . .
103(5) . . .
89(5) . . .
84(5) . . .
79(5) . . .
82(5) . . .
89(5) . . .
82(5) . . .
84(5) . . .
88(5) . . .
81(5) . . .
91(5) . . .
86(5) . . .
90(5) . . .
95(5) . . .
80(5) . . .
85(5) . . .
86(5) . . .
92(5) . . .
89(5) . . .
82(5) . . .
97(5) . . .
93(5) . . .
88(5) . . .
85(5) . . .
79(5) . . .
94(5) . . .
108(6) . . .
89(5) . . .
100(5) . . .
85(5) . . .
86(5) . . .
73(5) . . .
85(5) . . .
85(5) . . .
96(5) . . .
90(5) . . .
92(5) . . .
86(5) . . .
92(5) . . .
85(5) . . .
84(5) . . .
92(5) . . .
92(5) . . .
98(5) . . .
91(5) . . .
91(5) . . .
102(5) . . .
113(6) . . .
104(5) . . .
99(6) . . .
89(5) . . .
77(5) . . .
86(5) . . .
89(5) . . .
104(6) . . .
80(5) . . .
85(5) . . .
79(5) . . .
87(5) . . .
84(5) . . .
86(5) . . .
78(5) . . .
89(5) . . .
79(5) . . .
98(5) . . .
97(6) . . .
95(5) . . .
92(5) . . .
97(5) . . .
99(5) . . .
96(5) . . .
80(5) . . .
83(5) . . .
82(5) . . .
89(5) . . .
93(5) . . .
87(5) . . .
88(5) . . .
83(5) . . .
77(5) . . .
86(5) . . .
92(5) . . .
80(5) . . .
85(5) . . .
100(5) . . .
101(5) . . .
92(5) . . .
86(5) . . .
99(5) . . .
90(5) . . .
84(5) . . .
97(5) . . .
96(5) . . .
76(5) . . .
66(4) . . .
81(5) . . .
81(5) . . .
83(5) . . .
87(5) . . .
89(5) . . .
105(5) . . .
89(5) . . .
87(5) . . .
81(5) . . .
92(5) . . .
90(5) . . .
85(5) . . .
93(5) . . .
91(5) . . .
96(6) . . .
92(5) . . .
97(5) . . .
84(5) . . .
92(5) . . .
80(5) . . .
83(5) . . .
87(5) . . .
84(5) . . .
78(5) . . .
86(5) . . .
89(5) . . .
91(5) . . .
93(5) . . .
101(6) . . .
85(5) . . .
82(5) . . .
87(5) . . .
100(5) . . .
88(5) . . .
83(5) . . .
95(5) . . .
80(5) . . .
83(5) . . .
96(5) . . .
83(5) . . .
91(5) . . .
87(5) . . .
85(5) . . .
89(5) . . .
91(5) . . .
74(4) . . .
72(4) . . .
85(5) . . .
100(5) . . .
83(5) . . .
78(5) . . .
79(5) . . .
85(5) . . .
83(5) . . .
83(5) . . .
79(5) . . .
81(5) . . .
90(5) . . .
92(5) . . .
80(5) . . .
94(5) . . .
88(5) . . .
96(6) . . .
90(5) . . .
78(5) . . .
71(4) . . .
92(5) . . .
96(5) . . .
89(5) . . .
81(5) . . .
75(4) . . .
77(5) . . .
83(5) . . .
82(5) . . .
78(5) . . .
76(5) . . .
81(5) . . .
79(5) . . .
88(5) . . .
86(5) . . .
92(5) . . .
101(5) . . .
73(4) . . .
89(5) . . .
77(5) . . .
94(5) . . .
85(5) . . .
82(5) . . .
77(5) . . .
78(5) . . .
88(5) . . .
87(5) . . .
89(5) . . .
81(5) . . .
93(5) . . .
78(5) . . .
82(5) . . .
90(5) . . .
90(5) . . .
89(5) . . .
84(5) . . .
91(5) . . .
90(5) . . .
95(5) . . .
78(5) . . .
92(5) . . .
94(5) . . .
87(5) . . .
87(5) . . .
88(5) . . .
83(5) . . .
94(5) . . .
101(6) . . .
79(5) . . .
81(5) . . .
84(5) . . .
78(5) . . .
94(5) . . .
94(5) . . .
77(5) . . .
84(5) . . .
81(5) . . .
86(5) . . .
86(5) . . .
77(4) . . .
95(5) . . .
81(5) . . .
90(5) . . .
90(5) . . .
76(5) . . .
85(5) . . .
81(5) . . .
77(5) . . .
86(5) . . .
97(5) . . .
92(5) . . .
103(6) . . .
95(5) . . .
96(5) . . .
81(5) . . .
98(5) . . .
102(5) . . .
89(5) . . .
97(5) . . .
110(5) . . .
91(5) . . .
88(5) . . .
88(5) . . .
83(5) . . .
101(5) . . .
94(5) . . .
74(5) . . .
89(5) . . .
86(5) . . .
88(5) . . .
105(6) . . .
84(5) . . .
81(5) . . .
77(5) . . .
81(5) . . .
77(5) . . .
83(5) . . .
86(5) . . .
89(5) . . .
82(5) . . .
84(5) . . .
76(5) . . .
72(5) . . .
82(5) . . .
86(5) . . .
75(5) . . .
72(5) . . .
79(5) . . .
85(5) . . .
83(5) . . .
92(5) . . .
87(5) . . .
84(5) . . .
100(5) . . .
95(5) . . .
95(5) . . .
88(5) . . .
81(5) . . .
94(5) . . .
78(5) . . .
81(5) . . .
92(5) . . .
94(5) . . .
76(5) . . .
80(5) . . .
87(5) . . .
87(5) . . .
85(5) . . .
84(5) . . .
81(5) . . .
78(5) . . .
92(5) . . .
88(5) . . .
98(5) . . .
87(5) . . .
96(6) . . .
93(5) . . .
85(5) . . .
86(5) . . .
90(5) . . .
93(5) . . .
94(5) . . .
86(5) . . .
83(5) . . .
95(5) . . .
87(5) . . .
98(5) . . .
95(5) . . .
86(5) . . .
93(5) . . .
97(5) . . .
99(5) . . .
89(5) . . .
91(5) . . .
87(5) . . .
83(5) . . .
89(5) . . .
81(5) . . .
86(5) . . .
86(5) . . .
97(5) . . .
101(5) . . .
93(5) . . .
92(5) . . .
101(5) . . .
82(5) . . .
82(5) . . .
90(5) . . .
101(5) . . .
88(5) . . .
82(5) . . .
101(5) . . .
95(5) . . .
82(5) . . .
86(5) . . .
97(5) . . .
85(5) . . .
84(5) . . .
81(5) . . .
100(6) . . .
90(5) . . .
89(5) . . .
100(5) . . .
98(5) . . .
80(5) . . .
87(5) . . .
88(5) . . .
92(5) . . .
98(5) . . .
96(5) . . .
94(5) . . .
104(5) . . .
92(5) . . .
70(4) . . .
80(5) . . .
96(5) . . .
91(5) . . .
102(5) . . .
100(5) . . .
99(6) . . .
100(5) . . .
85(5) . . .
81(5) . . .
83(5) . . .
81(5) . . .
94(5) . . .
92(5) . . .
93(5) . . .
85(5) . . .
88(5) . . .
82(5) . . .
88(5) . . .
89(5) . . .
85(5) . . .
89(5) . . .
83(5) . . .
92(5) . . .
80(5) . . .
92(5) . . .
89(5) . . .
88(5) . . .
87(5) . . .
90(5) . . .
94(5) . . .
87(5) . . .
86(5) . . .
87(5) . . .
90(5) . . .
90(5) . . .
78(5) . . .
76(5) . . .
84(5) . . .
94(5) . . .
81(5) . . .
83(5) . . .
88(5) . . .
76(4) . . .
96(5) . . .
97(5) . . .
86(5) . . .
90(5) . . .
85(5) . . .
78(5) . . .
79(5) . . .
76(5) . . .
81(5) . . .
85(5) . . .
87(5) . . .
80(5) . . .
79(5) . . .
86(5) . . .
80(5) . . .
69(4) . . .
84(5) . . .
86(5) . . .
78(5) . . .
86(5) . . .
84(5) . . .
80(5) . . .
77(5) . . .
72(4) . . .
78(5) . . .
80(5) . . .
69(5) . . .
90(5) . . .
94(5) . . .
92(5) . . .
87(5) . . .
85(5) . . .
87(5) . . .
84(5) . . .
80(5) . . .
80(5) . . .
87(5) . . .
78(5) . . .
86(5) . . .
85(5) . . .
85(5) . . .
77(5) . . .
80(5) . . .
82(5) . . .
77(5) . . .
72(5) . . .
84(5) . . .
90(5) . . .
91(5) . . .
85(5) . . .
83(5) . . .
82(5) . . .
90(5) . . .
92(5) . . .
82(5) . . .
78(5) . . .
91(5) . . .
86(5) . . .
74(4) . . .
88(5) . . .
87(5) . . .
94(5) . . .
81(5) . . .
84(5) . . .
87(5) . . .
88(5) . . .
71(4) . . .
93(5) . . .
79(5) . . .
102(6) . . .
86(5) . . .
82(5) . . .
82(5) . . .
93(5) . . .
86(5) . . .
80(5) . . .
82(5) . . .
77(5) . . .
86(5) . . .
89(5) . . .
88(5) . . .
79(5) . . .
82(5) . . .
87(5) . . .
87(5) . . .
83(5) . . .
86(5) . . .
85(5) . . .
88(5) . . .
70(4) . . .
85(5) . . .
82(5) . . .
83(5) . . .
83(5) . . .
75(5) . . .
86(5) . . .
89(5) . . .
94(5) . . .
88(5) . . .
89(5) . . .
90(5) . . .
91(5) . . .
80(5) . . .
87(5) . . .
71(5) . . .
73(5) . . .
81(5) . . .
87(5) . . .
87(5) . . .
92(5) . . .
69(4) . . .
94(5) . . .
89(5) . . .
88(5) . . .
86(5) . . .
81(5) . . .
89(5) . . .
84(5) . . .
92(5) . . .
81(5) . . .
86(5) . . .
90(5) . . .
85(5) . . .
86(5) . . .
80(5) . . .
82(5) . . .
85(5) . . .
83(5) . . .
85(5) . . .
95(5) . . .
89(5) . . .
84(5) . . .
82(5) . . .
84(5) . . .
88(5) . . .
101(5) . . .
87(5) . . .
79(5) . . .
85(5) . . .
75(5) . . .
80(5) . . .
79(5) . . .
72(4) . . .
89(5) . . .
75(5) . . .
69(4) . . .
95(5) . . .
78(5) . . .
84(5) . . .
80(5) . . .
88(5) . . .
83(5) . . .
91(5) . . .
79(5) . . .
90(5) . . .
95(5) . . .
85(5) . . .
91(5) . . .
91(5) . . .
83(5) . . .
85(5) . . .
84(5) . . .
77(5) . . .
80(5) . . .
89(5) . . .
85(5) . . .
81(5) . . .
105(6) . . .
79(5) . . .
81(5) . . .
97(5) . . .
86(5) . . .
83(5) . . .
93(5) . . .
86(5) . . .
93(5) . . .
89(5) . . .
94(5) . . .
93(5) . . .
79(5) . . .
78(5) . . .
76(5) . . .
84(5) . . .
82(5) . . .
91(5) . . .
82(5) . . .
79(5) . . .
79(5) . . .
81(5) . . .
80(5) . . .
95(5) . . .
91(5) . . .
84(5) . . .
85(5) . . .
82(5) . . .
83(5) . . .
87(5) . . .
78(5) . . .
86(5) . . .
80(5) . . .
81(5) . . .
76(5) . . .
87(5) . . .
83(5) . . .
77(5) . . .
80(5) . . .
95(5) . . .
78(5) . . .
92(5) . . .
81(5) . . .
90(5) . . .
82(5) . . .
76(5) . . .
81(5) . . .
88(5) . . .
91(5) . . .
79(5) . . .
92(5) . . .
84(5) . . .
92(5) . . .
87(5) . . .
91(5) . . .
89(5) . . .
92(5) . . .
91(5) . . .
90(5) . . .
93(5) . . .
94(5) . . .
85(5) . . .
85(5) . . .
66(4) . . .
78(5) . . .
88(5) . . .
78(5) . . .
75(5) . . .
95(5) . . .
78(5) . . .
83(5) . . .
90(5) . . .
86(5) . . .
80(5) . . .
88(5) . . .
78(5) . . .
101(6) . . .
92(5) . . .
82(5) . . .
75(5) . . .
82(5) . . .
82(5) . . .
88(5) . . .
74(5) . . .
75(5) . . .
85(5) . . .
80(5) . . .
85(5) . . .
87(5) . . .
86(5) . . .
79(5) . . .
80(5) . . .
84(5) . . .
91(5) . . .
86(5) . . .
82(5) . . .
81(5) . . .
79(5) . . .
85(5) . . .
81(5) . . .
83(5) . . .
78(5) . . .
81(5) . . .
83(5) . . .
87(5) . . .
93(5) . . .
77(5) . . .
89(5) . . .
78(5) . . .
82(5) . . .
84(5) . . .
79(5) . . .
82(5) . . .
88(5) . . .
83(5) . . .
95(5) . . .
88(5) . . .
81(5) . . .
83(5) . . .
78(5) . . .
87(5) . . .
84(5) . . .
87(5) . . .
80(5) . . .
79(5) . . .
81(5) . . .
74(4) . . .
95(5) . . .
83(5) . . .
76(5) . . .
72(4) . . .
85(5) . . .
68(4) . . .
102(6) . . .
83(5) . . .
79(5) . . .
75(5) . . .
78(5) . . .
82(5) . . .
84(5) . . .
86(5) . . .
83(5) . . .
80(5) . . .
91(5) . . .
82(5) . . .
83(5) . . .
80(5) . . .
87(5) . . .
78(5) . . .
78(5) . . .
84(5) . . .
76(5) . . .
76(5) . . .
89(5) . . .
87(5) . . .
87(5) . . .
92(5) . . .
80(5) . . .
88(5) . . .
88(5) . . .
83(5) . . .
78(5) . . .
83(5) . . .
83(5) . . .
92(5) . . .
90(5) . . .
68(4) . . .
84(5) . . .
76(5) . . .
78(5) . . .
77(5) . . .
74(5) . . .
85(5) . . .
90(5) . . .
94(5) . . .
85(5) . . .
89(5) . . .
81(5) . . .
89(5) . . .
84(5) . . .
81(5) . . .
89(5) . . .
87(5) . . .
88(5) . . .
71(4) . . .
88(5) . . .
91(5) . . .
85(5) . . .
88(5) . . .
87(5) . . .
87(5) . . .
74(5) . . .
77(5) . . .
81(5) . . .
85(5) . . .
78(5) . . .
91(5) . . .
84(5) . . .
83(5) . . .
82(5) . . .
76(5) . . .
87(5) . . .
91(5) . . .
79(5) . . .
76(5) . . .
79(5) . . .
84(5) . . .
87(5) . . .
76(5) . . .
83(5) . . .
74(5) . . .
94(5) . . .
86(5) . . .
81(5) . . .
88(5) . . .
80(5) . . .
73(5) . . .
69(5) . . .
85(5) . . .
97(5) . . .
81(5) . . .
80(5) . . .
73(5) . . .
83(5) . . .
87(5) . . .
87(5) . . .
87(5) . . .
81(5) . . .
79(5) . . .
74(5) . . .
89(5) . . .
74(5) . . .
77(5) . . .
78(5) . . .
84(5) . . .
72(5) . . .
82(5) . . .
87(5) . . .
73(5) . . .
90(5) . . .
86(5) . . .
81(5) . . .
86(5) . . .
88(5) . . .
94(5) . . .
79(5) . . .
76(5) . . .
74(5) . . .
92(5) . . .
89(5) . . .
76(5) . . .
88(5) . . .
97(5) . . .
84(5) . . .
85(5) . . .
78(5) . . .
74(5) . . .
65(4) . . .
73(4) . . .
69(4) . . .
84(5) . . .
84(5) . . .
79(5) . . .
88(5) . . .
75(5) . . .
72(5) . . .
81(5) . . .
96(6) . . .
68(4) . . .
78(5) . . .
71(4) . . .
79(5) . . .
80(5) . . .
79(5) . . .
82(5) . . .
83(5) . . .
81(5) . . .
90(5) . . .
76(5) . . .
95(5) . . .
83(5) . . .
86(5) . . .
77(5) . . .
77(5) . . .
76(5) . . .
84(5) . . .
72(5) . . .
74(5) . . .
77(5) . . .
79(5) . . .
75(5) . . .
83(5) . . .
81(5) . . .
76(4) . . .
74(5) . . .
78(5) . . .
79(5) . . .
76(5) . . .
78(5) . . .
94(5) . . .
83(5) . . .
79(5) . . .
94(5) . . .
89(5) . . .
76(5) . . .
84(5) . . .
86(5) . . .
85(5) . . .
80(5) . . .
79(5) . . .
79(5) . . .
66(5) . . .
76(5) . . .
75(5) . . .
81(5) . . .
84(5) . . .
77(5) . . .
77(5) . . .
82(5) . . .
70(4) . . .
81(5) . . .
76(5) . . .
84(5) . . .
71(5) . . .
89(5) . . .
80(5) . . .
82(5) . . .
92(5) . . .
74(5) . . .
75(5) . . .
91(5) . . .
86(5) . . .
80(5) . . .
84(5) . . .
82(5) . . .
82(5) . . .
81(5) . . .
80(5) . . .
83(5) . . .
90(5) . . .
65(4) . . .
74(4) . . .
83(5) . . .
82(5) . . .
95(6) . . .
80(5) . . .
71(4) . . .
89(5) . . .
89(5) . . .
88(5) . . .
85(5) . . .
93(5) . . .
78(5) . . .
74(5) . . .
84(5) . . .
66(4) . . .
86(5) . . .
75(5) . . .
77(5) . . .
82(5) . . .
87(5) . . .
84(5) . . .
74(5) . . .
81(5) . . .
92(5) . . .
89(5) . . .
77(5) . . .
79(5) . . .
89(5) . . .
90(5) . . .
61(4) . . .
74(4) . . .
87(5) . . .
88(5) . . .
89(5) . . .
64(4) . . .
77(5) . . .
82(5) . . .
81(5) . . .
81(5) . . .
84(5) . . .
81(5) . . .
71(5) . . .
75(5) . . .
75(5) . . .
79(5) . . .
82(5) . . .
76(5) . . .
80(5) . . .
82(5) . . .
70(4) . . .
74(4) . . .
72(4) . . .
83(5) . . .
91(5) . . .
82(5) . . .
82(5) . . .
96(5) . . .
66(4) . . .
80(5) . . .
84(5) . . .
87(5) . . .
83(5) . . .
76(5) . . .
88(5) . . .
84(5) . . .
72(4) . . .
76(5) . . .
69(4) . . .
69(4) . . .
82(5) . . .
87(5) . . .
83(5) . . .
70(5) . . .
81(5) . . .
84(5) . . .
73(4) . . .
68(5) . . .
91(6) . . .
69(4) . . .
82(5) . . .
78(5) . . .
83(5) . . .
93(5) . . .
87(5) . . .
83(5) . . .
72(4) . . .
76(5) . . .
80(5) . . .
83(5) . . .
74(4) . . .
88(5) . . .
81(5) . . .
82(5) . . .
85(5) . . .
67(4) . . .
72(5) . . .
75(5) . . .
77(5) . . .
77(5) . . .
83(5) . . .
84(5) . . .
91(5) . . .
74(5) . . .
68(4) . . .
83(5) . . .
73(4) . . .
85(5) . . .
96(5) . . .
85(5) . . .
73(4) . . .
82(5) . . .
97(6) . . .
88(5) . . .
73(4) . . .
79(5) . . .
84(5) . . .
75(5) . . .
82(5) . . .
69(4) . . .
82(5) . . .
79(5) . . .
85(5) . . .
75(5) . . .
81(5) . . .
83(5) . . .
85(5) . . .
74(5) . . .
78(5) . . .
81(5) . . .
83(5) . . .
73(5) . . .
85(5) . . .
82(5) . . .
84(5) . . .
84(5) . . .
78(5) . . .
72(4) . . .
92(5) . . .
72(4) . . .
63(4) . . .
80(5) . . .
83(5) . . .
82(5) . . .
84(5) . . .
87(5) . . .
76(5) . . .
78(5) . . .
86(5) . . .
90(5) . . .
77(5) . . .
87(5) . . .
67(4) . . .
86(5) . . .
77(5) . . .
68(4) . . .
80(5) . . .
71(5) . . .
74(5) . . .
81(5) . . .
81(5) . . .
86(5) . . .
83(5) . . .
72(4) . . .
71(4) . . .
93(5) . . .
84(5) . . .
73(4) . . .
76(4) . . .
78(5) . . .
83(5) . . .
67(4) . . .
77(5) . . .
87(5) . . .
79(5) . . .
77(5) . . .
79(5) . . .
78(5) . . .
82(5) . . .
82(5) . . .
77(5) . . .
83(5) . . .
77(5) . . .
90(5) . . .
84(5) . . .
72(4) . . .
82(5) . . .
78(5) . . .
73(4) . . .
83(5) . . .
78(5) . . .
74(5) . . .
76(5) . . .
75(5) . . .
71(4) . . .
80(5) . . .
84(5) . . .
77(5) . . .
83(5) . . .
83(5) . . .
82(5) . . .
88(5) . . .
79(5) . . .
78(5) . . .
74(5) . . .
76(5) . . .
79(5) . . .
81(5) . . .
75(5) . . .
80(5) . . .
81(5) . . .
76(5) . . .
79(5) . . .
82(5) . . .
90(5) . . .
74(5) . . .
84(5) . . .
67(4) . . .
78(5) . . .
88(5) . . .
77(5) . . .
67(4) . . .
70(4) . . .
81(5) . . .
69(4) . . .
82(5) . . .
81(5) . . .
80(5) . . .
82(5) . . .
75(5) . . .
93(5) . . .
82(5) . . .
83(5) . . .
77(5) . . .
85(5) . . .
75(5) . . .
75(5) . . .
70(4) . . .
84(5) . . .
80(5) . . .
75(5) . . .
74(5) . . .
71(4) . . .
74(5) . . .
80(5) . . .
85(5) . . .
76(5) . . .
82(5) . . .
87(5) . . .
84(5) . . .
72(4) . . .
81(5) . . .
73(4) . . .
85(5) . . .
81(5) . . .
74(5) . . .
93(5) . . .
77(5) . . .
77(5) . . .
77(5) . . .
83(5) . . .
82(5) . . .
92(5) . . .
69(4) . . .
77(5) . . .
80(5) . . .
79(5) . . .
83(5) . . .
78(5) . . .
74(5) . . .
71(5) . . .
70(4) . . .
71(5) . . .
79(5) . . .
79(5) . . .
73(4) . . .
92(5) . . .
80(5) . . .
87(5) . . .
74(5) . . .
79(5) . . .
82(5) . . .
75(4) . . .
93(5) . . .
73(5) . . .
81(5) . . .
65(4) . . .
70(4) . . .
85(5) . . .
83(5) . . .
68(4) . . .
78(5) . . .
76(5) . . .
90(5) . . .
89(5) . . .
74(5) . . .
62(4) . . .
80(5) . . .
82(5) . . .
97(5) . . .
86(5) . . .
83(5) . . .
86(5) . . .
85(5) . . .
83(5) . . .
80(5) . . .
85(5) . . .
91(5) . . .
72(5) . . .
78(5) . . .
90(5) . . .
78(5) . . .
63(4) . . .
83(5) . . .
74(5) . . .
81(5) . . .
60(4) . . .
77(5) . . .
78(5) . . .
77(5) . . .
75(5) . . .
73(5) . . .
72(5) . . .
75(5) . . .
81(5) . . .
73(4) . . .
84(5) . . .
90(5) . . .
78(5) . . .
74(5) . . .
76(5) . . .
76(5) . . .
79(5) . . .
76(5) . . .
91(5) . . .
83(5) . . .
81(5) . . .
75(5) . . .
67(4) . . .
85(5) . . .
91(5) . . .
86(5) . . .
84(5) . . .
80(5) . . .
79(5) . . .
67(4) . . .
83(5) . . .
70(5) . . .
72(5) . . .
76(5) . . .
76(5) . . .
70(5) . . .
72(4) . . .
85(5) . . .
80(5) . . .
76(5) . . .
75(5) . . .
91(5) . . .
90(5) . . .
83(5) . . .
90(5) . . .
75(5) . . .
81(5) . . .
76(4) . . .
90(5) . . .
72(4) . . .
72(5) . . .
77(5) . . .
84(5) . . .
80(5) . . .
81(5) . . .
76(5) . . .
61(4) . . .
80(5) . . .
95(5) . . .
81(5) . . .
68(4) . . .
77(5) . . .
69(4) . . .
73(4) . . .
77(5) . . .
78(5) . . .
81(5) . . .
78(5) . . .
87(5) . . .
89(5) . . .
76(5) . . .
71(4) . . .
78(5) . . .
77(5) . . .
82(5) . . .
87(5) . . .
80(5) . . .
69(4) . . .
67(4) . . .
88(5) . . .
73(4) . . .
79(5) . . .
86(5) . . .
87(5) . . .
75(5) . . .
85(5) . . .
81(5) . . .
62(4) . . .
77(5) . . .
81(5) . . .
86(5) . . .
88(5) . . .
72(4) . . .
83(5) . . .
79(5) . . .
75(5) . . .
93(5) . . .
88(5) . . .
82(5) . . .
83(5) . . .
81(5) . . .
71(5) . . .
74(4) . . .
93(5) . . .
85(5) . . .
75(5) . . .
72(5) . . .
87(5) . . .
81(5) . . .
85(5) . . .
91(6) . . .
84(5) . . .
83(5) . . .
75(5) . . .
81(5) . . .
78(5) . . .
81(5) . . .
76(5) . . .
75(5) . . .
82(5) . . .
81(5) . . .
76(5) . . .
81(5) . . .
87(5) . . .
79(5) . . .
72(5) . . .
66(4) . . .
78(5) . . .
69(5) . . .
79(5) . . .
77(5) . . .
80(5) . . .
76(5) . . .
79(5) . . .
77(5) . . .
73(5) . . .
73(4) . . .
82(5) . . .
76(5) . . .
79(5) . . .
79(5) . . .
86(5) . . .
74(5) . . .
74(5) . . .
59(4) . . .
74(5) . . .
77(5) . . .
76(5) . . .
85(5) . . .
76(5) . . .
83(5) . . .
58(4) . . .
67(4) . . .
77(5) . . .
76(5) . . .
75(5) . . .
77(5) . . .
89(5) . . .
80(5) . . .
76(5) . . .
77(5) . . .
77(5) . . .
70(5) . . .
72(5) . . .
73(5) . . .
75(5) . . .
77(5) . . .
77(5) . . .
72(5) . . .
83(5) . . .
72(4) . . .
67(4) . . .
72(5) . . .
79(5) . . .
76(5) . . .
74(5) . . .
87(5) . . .
67(4) . . .
75(5) . . .
81(5) . . .
85(5) . . .
77(5) . . .
84(5) . . .
66(5) . . .
65(5) . . .
80(5) . . .
90(5) . . .
84(5) . . .
83(5) . . .
76(5) . . .
73(4) . . .
80(5) . . .
80(5) . . .
78(5) . . .
77(5) . . .
87(5) . . .
67(4) . . .
87(5) . . .
75(5) . . .
81(5) . . .
77(5) . . .
90(5) . . .
66(4) . . .
69(5) . . .
74(5) . . .
72(4) . . .
78(5) . . .
81(5) . . .
80(5) . . .
79(5) . . .
74(4) . . .
66(4) . . .
78(5) . . .
68(4) . . .
74(5) . . .
74(4) . . .
75(5) . . .
83(5) . . .
80(5) . . .
67(4) . . .
82(5) . . .
82(5) . . .
74(5) . . .
69(4) . . .
74(5) . . .
69(4) . . .
83(5) . . .
67(4) . . .
76(5) . . .
70(4) . . .
73(4) . . .
77(5) . . .
74(5) . . .
81(5) . . .
83(5) . . .
81(5) . . .
72(5) . . .
76(5) . . .
87(5) . . .
83(5) . . .
79(5) . . .
84(5) . . .
80(5) . . .
69(4) . . .
93(5) . . .
84(5) . . .
85(5) . . .
77(5) . . .
82(5) . . .
69(4) . . .
81(5) . . .
77(5) . . .
72(5) . . .
70(4) . . .
81(5) . . .
75(4) . . .
73(5) . . .
69(5) . . .
91(5) . . .
86(5) . . .
80(5) . . .
66(5) . . .
76(5) . . .
80(5) . . .
90(5) . . .
88(5) . . .
87(5) . . .
80(5) . . .
79(5) . . .
80(5) . . .
63(4) . . .
73(5) . . .
70(5) . . .
81(5) . . .
74(4) . . .
89(5) . . .
84(5) . . .
76(5) . . .
68(4) . . .
78(5) . . .
69(4) . . .
81(5) . . .
68(4) . . .
72(5) . . .
80(5) . . .
72(5) . . .
76(5) . . .
77(5) . . .
84(5) . . .
83(5) . . .
75(5) . . .
78(5) . . .
72(5) . . .
66(4) . . .
78(5) . . .
78(5) . . .
78(5) . . .
83(5) . . .
71(4) . . .
74(4) . . .
72(5) . . .
65(4) . . .
81(5) . . .
79(5) . . .
80(5) . . .
81(5) . . .
74(5) . . .
62(4) . . .
68(4) . . .
79(5) . . .
80(5) . . .
78(5) . . .
74(5) . . .
71(4) . . .
81(5) . . .
68(4) . . .
68(5) . . .
73(5) . . .
76(5) . . .
74(4) . . .
85(5) . . .
79(5) . . .
67(5) . . .
68(4) . . .
76(5) . . .
87(5) . . .
85(5) . . .
77(5) . . .
78(5) . . .
81(5) . . .
74(5) . . .
63(4) . . .
76(5) . . .
80(5) . . .
83(5) . . .
77(5) . . .
68(5) . . .
70(5) . . .
76(5) . . .
67(4) . . .
75(5) . . .
68(4) . . .
77(5) . . .
85(5) . . .
83(5) . . .
76(5) . . .
79(5) . . .
70(4) . . .
73(4) . . .
68(4) . . .
78(5) . . .
76(5) . . .
77(5) . . .
74(4) . . .
80(5) . . .
76(5) . . .
86(5) . . .
88(5) . . .
80(5) . . .
73(4) . . .
88(5) . . .
83(5) . . .
73(4) . . .
62(4) . . .
78(5) . . .
77(5) . . .
80(5) . . .
70(4) . . .
71(4) . . .
79(5) . . .
70(5) . . .
75(5) . . .
77(5) . . .
86(5) . . .
75(5) . . .
72(5) . . .
80(5) . . .
97(5) . . .
77(5) . . .
79(5) . . .
86(5) . . .
82(5) . . .
76(5) . . .
87(5) . . .
87(5) . . .
78(5) . . .
82(5) . . .
82(5) . . .
70(4) . . .
78(5) . . .
69(4) . . .
80(5) . . .
78(5) . . .
71(4) . . .
82(5) . . .
70(4) . . .
81(5) . . .
75(4) . . .
71(5) . . .
85(5) . . .
78(5) . . .
89(5) . . .
89(5) . . .
79(5) . . .
88(5) . . .
79(5) . . .
80(5) . . .
69(4) . . .
74(4) . . .
85(5) . . .
86(5) . . .
84(5) . . .
69(4) . . .
73(5) . . .
69(4) . . .
67(4) . . .
84(5) . . .
81(5) . . .
65(4) . . .
68(5) . . .
68(4) . . .
75(4) . . .
87(5) . . .
68(4) . . .
85(5) . . .
79(5) . . .
72(4) . . .
70(5) . . .
79(5) . . .
81(5) . . .
78(5) . . .
70(4) . . .
72(5) . . .
69(4) . . .
69(4) . . .
67(4) . . .
72(5) . . .
84(5) . . .
78(5) . . .
82(5) . . .
76(5) . . .
66(4) . . .
69(5) . . .
76(5) . . .
73(5) . . .
76(5) . . .
81(5) . . .
74(4) . . .
72(5) . . .
76(5) . . .
69(4) . . .
69(4) . . .
83(5) . . .
91(5) . . .
79(5) . . .
78(5) . . .
82(5) . . .
83(5) . . .
74(5) . . .
79(5) . . .
78(5) . . .
65(4) . . .
77(5) . . .
71(5) . . .
79(5) . . .
80(5) . . .
67(4) . . .
92(5) . . .
88(5) . . .
74(4) . . .
76(5) . . .
71(4) . . .
75(5) . . .
77(5) . . .
78(5) . . .
70(4) . . .
69(5) . . .
65(4) . . .
72(5) . . .
66(4) . . .
80(5) . . .
66(4) . . .
71(5) . . .
75(5) . . .
78(5) . . .
87(5) . . .
69(4) . . .
67(5) . . .
76(5) . . .
78(5) . . .
74(4) . . .
71(5) . . .
73(5) . . .
77(5) . . .
82(5) . . .
82(5) . . .
70(4) . . .
79(5) . . .
74(5) . . .
68(4) . . .
77(5) . . .
71(5) . . .
67(5) . . .
69(5) . . .
73(4) . . .
80(5) . . .
74(5) . . .
77(5) . . .
79(5) . . .
63(4) . . .
65(4) . . .
69(5) . . .
59(4) . . .
75(5) . . .
73(5) . . .
72(4) . . .
78(5) . . .
74(5) . . .
88(5) . . .
74(4) . . .
70(4) . . .
64(4) . . .
69(4) . . .
81(5) . . .
73(4) . . .
76(5) . . .
76(5) . . .
72(5) . . .
69(5) . . .
78(5) . . .
78(5) . . .
72(5) . . .
72(5) . . .
70(4) . . .
82(5) . . .
83(5) . . .
71(5) . . .
69(4) . . .
76(5) . . .
72(4) . . .
69(4) . . .
68(4) . . .
70(5) . . .
70(4) . . .
79(5) . . .
65(4) . . .
63(4) . . .
72(5) . . .
97(5) . . .
82(5) . . .
80(5) . . .
75(5) . . .
79(5) . . .
55(4) . . .
60(4) . . .
79(5) . . .
82(5) . . .
78(5) . . .
75(4) . . .
85(5) . . .
69(4) . . .
89(5) . . .
76(5) . . .
69(4) . . .
68(4) . . .
83(5) . . .
90(6) . . .
63(4) . . .
77(5) . . .
73(4) . . .
72(4) . . .
80(5) . . .
66(4) . . .
72(4) . . .
77(5) . . .
72(5) . . .
75(5) . . .
71(4) . . .
75(5) . . .
74(4) . . .
81(5) . . .
71(5) . . .
75(5) . . .
79(5) . . .
71(5) . . .
69(5) . . .
69(4) . . .
67(4) . . .
78(5) . . .
73(5) . . .
72(5) . . .
75(5) . . .
87(5) . . .
77(5) . . .
84(5) . . .
82(5) . . .
80(5) . . .
73(4) . . .
74(5) . . .
78(5) . . .
71(5) . . .
69(5) . . .
76(5) . . .
70(4) . . .
73(4) . . .
69(5) . . .
76(5) . . .
73(4) . . .
75(5) . . .
67(4) . . .
77(5) . . .
70(4) . . .
68(4) . . .
64(4) . . .
70(4) . . .
67(4) . . .
75(5) . . .
76(5) . . .
83(5) . . .
82(5) . . .
69(4) . . .
74(5) . . .
75(4) . . .
81(5) . . .
75(5) . . .
79(5) . . .
80(5) . . .
83(5) . . .
81(5) . . .
75(5) . . .
77(5) . . .
69(4) . . .
67(4) . . .
83(5) . . .
85(5) . . .
85(5) . . .
79(5) . . .
85(5) . . .
86(5) . . .
71(5) . . .
77(5) . . .
75(5) . . .
68(4) . . .
67(4) . . .
69(4) . . .
79(5) . . .
72(4) . . .
77(5) . . .
81(5) . . .
72(5) . . .
67(4) . . .
73(5) . . .
75(4) . . .
71(4) . . .
76(5) . . .
78(5) . . .
80(5) . . .
85(5) . . .
76(5) . . .
76(5) . . .
75(5) . . .
79(5) . . .
79(5) . . .
69(4) . . .
69(5) . . .
71(5) . . .
68(4) . . .
78(5) . . .
75(5) . . .
68(5) . . .
65(5) . . .
69(4) . . .
85(5) . . .
79(5) . . .
73(5) . . .
82(5) . . .
70(4) . . .
69(4) . . .
71(5) . . .
72(5) . . .
87(5) . . .
64(4) . . .
61(4) . . .
72(5) . . .
73(5) . . .
83(5) . . .
75(4) . . .
59(4) . . .
63(4) . . .
75(5) . . .
73(4) . . .
74(4) . . .
61(4) . . .
80(5) . . .
80(5) . . .
77(5) . . .
72(4) . . .
71(5) . . .
81(5) . . .
72(4) . . .
82(5) . . .
66(4) . . .
77(5) . . .
75(5) . . .
80(5) . . .
74(4) . . .
80(5) . . .
62(4) . . .
72(5) . . .
72(4) . . .
83(5) . . .
87(5) . . .
67(4) . . .
68(5) . . .
83(5) . . .
81(5) . . .
72(4) . . .
79(5) . . .
76(5) . . .
79(5) . . .
62(4) . . .
73(4) . . .
69(5) . . .
70(5) . . .
78(5) . . .
68(4) . . .
81(5) . . .
76(5) . . .
84(5) . . .
79(5) . . .
73(4) . . .
75(5) . . .
78(5) . . .
81(5) . . .
82(5) . . .
86(5) . . .
69(4) . . .
80(5) . . .
76(5) . . .
75(5) . . .
85(5) . . .
67(4) . . .
66(4) . . .
78(5) . . .
63(4) . . .
79(5) . . .
78(5) . . .
80(5) . . .
85(5) . . .
82(5) . . .
88(5) . . .
69(5) . . .
78(5) . . .
88(5) . . .
79(5) . . .
64(4) . . .
71(5) . . .
83(5) . . .
65(4) . . .
73(4) . . .
84(5) . . .
78(5) . . .
84(5) . . .
75(5) . . .
85(5) . . .
73(5) . . .
76(5) . . .
78(5) . . .
74(5) . . .
76(5) . . .
80(5) . . .
83(5) . . .
89(5) . . .
83(5) . . .
69(4) . . .
71(4) . . .
60(4) . . .
85(5) . . .
84(5) . . .
86(5) . . .
72(4) . . .
95(5) . . .
89(5) . . .
81(5) . . .
77(5) . . .
75(5) . . .
72(5) . . .
77(5) . . .
75(5) . . .
65(4) . . .
71(5) . . .
72(5) . . .
78(5) . . .
67(4) . . .
75(5) . . .
83(5) . . .
89(5) . . .
71(4) . . .
79(5) . . .
88(5) . . .
76(5) . . .
69(5) . . .
79(5) . . .
72(4) . . .
69(4) . . .
69(5) . . .
75(5) . . .
70(4) . . .
70(4) . . .
80(5) . . .
75(5) . . .
72(5) . . .
85(5) . . .
73(5) . . .
80(5) . . .
84(5) . . .
77(5) . . .
75(5) . . .
75(5) . . .
86(5) . . .
70(5) . . .
87(5) . . .
73(4) . . .
86(5) . . .
64(4) . . .
76(5) . . .
64(4) . . .
66(4) . . .
77(5) . . .
80(5) . . .
72(5) . . .
70(5) . . .
73(5) . . .
59(4) . . .
69(4) . . .
82(5) . . .
69(4) . . .
63(4) . . .
67(4) . . .
69(4) . . .
72(5) . . .
82(5) . . .
76(5) . . .
77(5) . . .
68(4) . . .
74(5) . . .
76(5) . . .
81(5) . . .
73(5) . . .
69(4) . . .
71(5) . . .
73(4) . . .
76(5) . . .
72(4) . . .
73(4) . . .
72(5) . . .
73(5) . . .
85(5) . . .
84(5) . . .
79(5) . . .
62(4) . . .
72(4) . . .
86(5) . . .
65(4) . . .
73(5) . . .
71(5) . . .
70(4) . . .
77(5) . . .
80(5) . . .
74(5) . . .
58(4) . . .
67(4) . . .
71(4) . . .
79(5) . . .
74(5) . . .
76(5) . . .
82(5) . . .
69(4) . . .
75(5) . . .
74(5) . . .
78(5) . . .
89(5) . . .
72(4) . . .
82(5) . . .
72(5) . . .
80(5) . . .
63(4) . . .
89(5) . . .
64(4) . . .
68(5) . . .
60(4) . . .
54(4) . . .
76(4) . . .
67(4) . . .
66(5) . . .
65(4) . . .
80(5) . . .
79(5) . . .
76(5) . . .
81(5) . . .
76(5) . . .
71(4) . . .
69(4) . . .
77(5) . . .
79(5) . . .
72(4) . . .
74(5) . . .
84(5) . . .
76(5) . . .
76(5) . . .
77(5) . . .
75(5) . . .
81(5) . . .
68(4) . . .
78(5) . . .
73(5) . . .
65(4) . . .
79(5) . . .
64(4) . . .
84(5) . . .
80(5) . . .
78(5) . . .
79(5) . . .
78(5) . . .
65(4) . . .
73(4) . . .
90(5) . . .
89(5) . . .
63(4) . . .
69(4) . . .
88(5) . . .
74(4) . . .
70(4) . . .
58(4) . . .
63(4) . . .
74(5) . . .
77(5) . . .
76(5) . . .
95(5) . . .
64(4) . . .
79(5) . . .
74(5) . . .
75(5) . . .
74(5) . . .
74(5) . . .
70(4) . . .
82(5) . . .
73(5) . . .
75(5) . . .
74(5) . . .
70(5) . . .
79(5) . . .
74(5) . . .
73(5) . . .
71(5) . . .
76(5) . . .
85(5) . . .
75(5) . . .
88(5) . . .
79(5) . . .
77(5) . . .
79(5) . . .
74(4) . . .
84(5) . . .
73(4) . . .
77(5) . . .
79(5) . . .
66(4) . . .
70(5) . . .
75(5) . . .
72(4) . . .
78(5) . . .
79(5) . . .
75(5) . . .
75(5) . . .
77(5) . . .
79(5) . . .
82(5) . . .
68(4) . . .
65(4) . . .
70(4) . . .
62(4) . . .
71(5) . . .
75(5) . . .
81(5) . . .
78(5) . . .
77(5) . . .
80(5) . . .
69(4) . . .
75(5) . . .
70(4) . . .
71(4) . . .
68(5) . . .
63(4) . . .
79(5) . . .
63(4) . . .
83(5) . . .
69(5) . . .
87(5) . . .
84(5) . . .
83(5) . . .
65(4) . . .
71(5) . . .
75(5) . . .
74(4) . . .
66(4) . . .
65(4) . . .
72(5) . . .
82(5) . . .
72(4) . . .
86(5) . . .
70(4) . . .
76(5) . . .
80(5) . . .
77(5) . . .
80(5) . . .
77(5) . . .
83(5) . . .
78(5) . . .
72(4) . . .
62(4) . . .
74(5) . . .
77(5) . . .
64(4) . . .
61(4) . . .
74(4) . . .
75(4) . . .
81(5) . . .
80(5) . . .
73(4) . . .
87(5) . . .
84(5) . . .
69(4) . . .
80(5) . . .
71(4) . . .
70(4) . . .
69(5) . . .
70(5) . . .
78(5) . . .
68(4) . . .
79(5) . . .
76(5) . . .
66(4) . . .
67(4) . . .
78(5) . . .
57(4) . . .
74(5) . . .
81(5) . . .
73(4) . . .
70(4) . . .
70(4) . . .
85(5) . . .
66(4) . . .
70(4) . . .
76(4) . . .
74(5) . . .
69(5) . . .
75(5) . . .
78(5) . . .
75(5) . . .
71(5) . . .
61(5) . . .
62(4) . . .
80(5) . . .
78(5) . . .
81(5) . . .
68(5) . . .
78(5) . . .
70(4) . . .
71(4) . . .
77(5) . . .
80(5) . . .
79(5) . . .
71(4) . . .
77(5) . . .
80(5) . . .
73(5) . . .
71(5) . . .
78(5) . . .
67(4) . . .
67(4) . . .
75(5) . . .
61(4) . . .
74(4) . . .
73(5) . . .
77(5) . . .
78(5) . . .
78(5) . . .
76(5) . . .
69(4) . . .
76(5) . . .
71(4) . . .
73(5) . . .
69(4) . . .
70(4) . . .
72(5) . . .
63(4) . . .
71(4) . . .
64(4) . . .
77(5) . . .
71(5) . . .
80(5) . . .
65(4) . . .
70(4) . . .
80(5) . . .
72(5) . . .
72(5) . . .
72(4) . . .
77(5) . . .
77(5) . . .
76(5) . . .
71(4) . . .
67(4) . . .
64(4) . . .
75(5) . . .
71(5) . . .
78(5) . . .
78(5) . . .
85(5) . . .
67(5) . . .
71(5) . . .
71(5) . . .
78(5) . . .
72(4) . . .
60(4) . . .
69(5) . . .
69(4) . . .
72(4) . . .
78(5) . . .
64(4) . . .
68(5) . . .
79(5) . . .
69(4) . . .
72(4) . . .
72(5) . . .
69(4) . . .
63(4) . . .
78(5) . . .
68(4) . . .
66(4) . . .
68(4) . . .
69(5) . . .
70(4) . . .
75(5) . . .
69(4) . . .
82(5) . . .
77(5) . . .
71(4) . . .
81(5) . . .
63(4) . . .
81(5) . . .
67(4) . . .
64(4) . . .
74(5) . . .
63(4) . . .
84(5) . . .
74(5) . . .
68(4) . . .
67(4) . . .
73(5) . . .
82(5) . . .
84(5) . . .
69(4) . . .
67(4) . . .
77(5) . . .
67(4) . . .
71(4) . . .
67(4) . . .
80(5) . . .
79(5) . . .
76(5) . . .
79(5) . . .
76(5) . . .
80(5) . . .
72(4) . . .
71(4) . . .
81(5) . . .
79(5) . . .
72(5) . . .
84(5) . . .
84(5) . . .
68(4) . . .
65(4) . . .
68(4) . . .
82(5) . . .
80(5) . . .
77(5) . . .
78(5) . . .
79(5) . . .
80(5) . . .
65(4) . . .
65(4) . . .
67(4) . . .
63(4) . . .
78(5) . . .
86(5) . . .
80(5) . . .
67(4) . . .
75(5) . . .
82(5) . . .
76(5) . . .
74(4) . . .
72(5) . . .
63(4) . . .
76(5) . . .
81(5) . . .
68(4) . . .
65(4) . . .
71(5) . . .
72(5) . . .
72(4) . . .
81(5) . . .
86(5) . . .
81(5) . . .
81(5) . . .
78(5) . . .
67(4) . . .
66(4) . . .
73(5) . . .
62(4) . . .
79(5) . . .
81(5) . . .
68(5) . . .
69(5) . . .
67(4) . . .
58(4) . . .
74(5) . . .
73(4) . . .
75(5) . . .
84(5) . . .
84(5) . . .
86(5) . . .
81(5) . . .
73(5) . . .
65(4) . . .
65(4) . . .
84(5) . . .
70(5) . . .
74(5) . . .
77(5) . . .
72(4) . . .
69(4) . . .
68(5) . . .
78(5) . . .
74(5) . . .
78(5) . . .
63(4) . . .
75(5) . . .
76(5) . . .
66(4) . . .
80(5) . . .
74(5) . . .
78(5) . . .
68(4) . . .
76(5) . . .
76(4) . . .
66(4) . . .
77(5) . . .
81(5) . . .
76(4) . . .
62(4) . . .
74(5) . . .
74(5) . . .
68(4) . . .
72(4) . . .
61(4) . . .
70(5) . . .
61(4) . . .
84(5) . . .
68(4) . . .
74(5) . . .
74(5) . . .
81(5) . . .
79(5) . . .
64(4) . . .
75(5) . . .
79(5) . . .
70(4) . . .
75(5) . . .
73(4) . . .
74(5) . . .
77(5) . . .
66(4) . . .
69(5) . . .
71(4) . . .
75(5) . . .
80(5) . . .
80(5) . . .
68(4) . . .
71(4) . . .
74(4) . . .
69(4) . . .
77(5) . . .
71(4) . . .
78(5) . . .
66(4) . . .
65(5) . . .
71(5) . . .
68(4) . . .
79(5) . . .
62(4) . . .
67(5) . . .
65(4) . . .
66(4) . . .
66(4) . . .
86(5) . . .
78(5) . . .
62(4) . . .
77(5) . . .
83(5) . . .
77(5) . . .
77(5) . . .
79(5) . . .
62(4) . . .
74(5) . . .
61(4) . . .
67(5) . . .
76(5) . . .
73(4) . . .
78(5) . . .
72(4) . . .
77(5) . . .
73(4) . . .
56(4) . . .
69(4) . . .
65(4) . . .
89(5) . . .
69(4) . . .
59(4) . . .
62(4) . . .
58(4) . . .
76(5) . . .
79(5) . . .
55(4) . . .
74(5) . . .
78(5) . . .
72(5) . . .
72(4) . . .
71(4) . . .
58(4) . . .
74(5) . . .
62(4) . . .
73(5) . . .
81(5) . . .
79(5) . . .
61(4) . . .
63(4) . . .
73(5) . . .
75(5) . . .
74(5) . . .
69(5) . . .
82(5) . . .
82(5) . . .
61(4) . . .
74(5) . . .
70(5) . . .
76(5) . . .
68(4) . . .
64(4) . . .
68(4) . . .
79(5) . . .
77(5) . . .
88(5) . . .
70(4) . . .
60(4) . . .
72(5) . . .
76(5) . . .
80(5) . . .
75(4) . . .
69(4) . . .
69(5) . . .
63(4) . . .
66(4) . . .
68(4) . . .
57(4) . . .
71(5) . . .
68(4) . . .
65(4) . . .
79(5) . . .
75(5) . . .
66(5) . . .
59(4) . . .
80(5) . . .
72(4) . . .
78(5) . . .
76(5) . . .
72(5) . . .
59(4) . . .
64(4) . . .
67(5) . . .
63(4) . . .
74(5) . . .
71(4) . . .
71(5) . . .
67(4) . . .
79(5) . . .
81(5) . . .
75(5) . . .
80(5) . . .
74(5) . . .
64(4) . . .
73(5) . . .
73(5) . . .
78(5) . . .
81(5) . . .
66(4) . . .
70(4) . . .
75(4) . . .
78(5) . . .
73(5) . . .
67(4) . . .
72(4) . . .
67(4) . . .
77(5) . . .
74(5) . . .
71(4) . . .
73(4) . . .
67(4) . . .
62(4) . . .
78(5) . . .
70(4) . . .
68(4) . . .
72(4) . . .
67(4) . . .
77(5) . . .
79(5) . . .
69(4) . . .
77(5) . . .
69(4) . . .
75(5) . . .
75(5) . . .
71(4) . . .
77(5) . . .
67(4) . . .
74(5) . . .
68(4) . . .
68(4) . . .
71(5) . . .
67(4) . . .
75(5) . . .
70(4) . . .
70(4) . . .
75(5) . . .
85(5) . . .
73(5) . . .
78(5) . . .
66(4) . . .
72(4) . . .
75(5) . . .
68(5) . . .
69(4) . . .
77(5) . . .
75(5) . . .
71(5) . . .
75(5) . . .
67(4) . . .
63(4) . . .
58(4) . . .
68(5) . . .
59(4) . . .
66(4) . . .
71(4) . . .
70(4) . . .
66(4) . . .
72(5) . . .
75(4) . . .
69(4) . . .
73(4) . . .
81(5) . . .
79(5) . . .
61(4) . . .
62(4) . . .
59(4) . . .
64(4) . . .
68(5) . . .
66(4) . . .
70(4) . . .
74(5) . . .
69(4) . . .
65(4) . . .
76(5) . . .
73(5) . . .
71(5) . . .
77(5) . . .
85(5) . . .
78(5) . . .
75(5) . . .
66(4) . . .
69(5) . . .
81(5) . . .
70(4) . . .
76(5) . . .
81(5) . . .
71(4) . . .
58(4) . . .
70(4) . . .
84(5) . . .
71(5) . . .
63(4) . . .
60(4) . . .
60(4) . . .
78(5) . . .
67(4) . . .
78(5) . . .
70(4) . . .
67(4) . . .
64(4) . . .
76(5) . . .
78(5) . . .
90(5) . . .
71(4) . . .
75(5) . . .
82(5) . . .
65(4) . . .
73(4) . . .
57(4) . . .
58(4) . . .
70(5) . . .
72(5) . . .
60(4) . . .
70(4) . . .
69(5) . . .
69(5) . . .
69(4) . . .
72(4) . . .
74(5) . . .
67(4) . . .
82(5) . . .
75(5) . . .
84(5) . . .
76(5) . . .
77(5) . . .
83(5) . . .
75(5) . . .
68(4) . . .
78(5) . . .
62(4) . . .
72(5) . . .
70(5) . . .
66(4) . . .
73(5) . . .
69(4) . . .
72(5) . . .
74(5) . . .
66(4) . . .
65(4) . . .
85(5) . . .
81(5) . . .
71(4) . . .
84(5) . . .
73(4) . . .
84(5) . . .
79(5) . . .
64(4) . . .
81(5) . . .
63(4) . . .
68(5) . . .
77(5) . . .
72(5) . . .
81(5) . . .
81(5) . . .
78(5) . . .
76(5) . . .
70(4) . . .
62(4) . . .
76(5) . . .
73(5) . . .
73(5) . . .
62(4) . . .
68(4) . . .
67(4) . . .
72(5) . . .
76(5) . . .
91(5) . . .
71(4) . . .
88(5) . . .
79(5) . . .
86(5) . . .
74(4) . . .
77(5) . . .
80(5) . . .
71(5) . . .
70(4) . . .
69(4) . . .
72(5) . . .
74(5) . . .
82(5) . . .
81(5) . . .
78(5) . . .
74(5) . . .
73(5) . . .
66(4) . . .
73(5) . . .
80(5) . . .
80(5) . . .
75(5) . . .
64(4) . . .
70(4) . . .
69(4) . . .
82(5) . . .
74(5) . . .
76(5) . . .
64(4) . . .
73(4) . . .
63(4) . . .
59(4) . . .
66(4) . . .
75(4) . . .
68(4) . . .
78(5) . . .
77(5) . . .
71(5) . . .
78(5) . . .
84(5) . . .
78(5) . . .
68(4) . . .
69(4) . . .
75(4) . . .
70(4) . . .
75(5) . . .
85(5) . . .
72(4) . . .
81(5) . . .
79(5) . . .
72(5) . . .
79(5) . . .
70(4) . . .
80(5) . . .
65(4) . . .
63(4) . . .
59(4) . . .
72(4) . . .
84(5) . . .
82(5) . . .
75(5) . . .
77(5) . . .
78(5) . . .
81(5) . . .
63(4) . . .
69(4) . . .
83(5) . . .
74(5) . . .
78(5) . . .
70(5) . . .
66(4) . . .
75(5) . . .
74(5) . . .
85(5) . . .
70(5) . . .
65(4) . . .
69(5) . . .
62(4) . . .
71(4) . . .
77(5) . . .
64(4) . . .
62(4) . . .
77(5) . . .
63(4) . . .
66(4) . . .
69(5) . . .
72(5) . . .
61(4) . . .
72(4) . . .
64(4) . . .
78(5) . . .
77(5) . . .
73(4) . . .
69(4) . . .
73(5) . . .
70(5) . . .
65(4) . . .
65(4) . . .
64(4) . . .
73(5) . . .
64(4) . . .
70(4) . . .
68(4) . . .
66(4) . . .
73(5) . . .
70(5) . . .
65(4) . . .
62(4) . . .
73(4) . . .
70(5) . . .
77(5) . . .
71(4) . . .
82(5) . . .
81(5) . . .
61(4) . . .
85(5) . . .
70(4) . . .
71(4) . . .
69(5) . . .
68(4) . . .
70(4) . . .
73(5) . . .
68(4) . . .
70(4) . . .
78(5) . . .
67(4) . . .
68(4) . . .
74(4) . . .
64(4) . . .
65(4) . . .
81(5) . . .
82(5) . . .
67(4) . . .
75(5) . . .
71(5) . . .
78(5) . . .
71(4) . . .
74(4) . . .
71(5) . . .
74(5) . . .
74(5) . . .
70(4) . . .
76(5) . . .
73(5) . . .
76(5) . . .
77(5) . . .
72(4) . . .
70(4) . . .
69(5) . . .
72(5) . . .
67(5) . . .
70(4) . . .
74(4) . . .
71(4) . . .
79(5) . . .
85(5) . . .
71(4) . . .
69(4) . . .
67(4) . . .
67(4) . . .
64(4) . . .
71(4) . . .
71(5) . . .
72(5) . . .
68(5) . . .
62(4) . . .
69(4) . . .
63(4) . . .
68(4) . . .
78(5) . . .
57(4) . . .
69(4) . . .
69(5) . . .
73(5) . . .
74(5) . . .
84(5) . . .
62(4) . . .
73(5) . . .
70(5) . . .
73(5) . . .
74(5) . . .
72(4) . . .
75(5) . . .
75(5) . . .
71(5) . . .
73(4) . . .
73(4) . . .
66(4) . . .
72(5) . . .
69(4) . . .
70(4) . . .
73(4) . . .
73(4) . . .
67(4) . . .
72(5) . . .
65(4) . . .
71(4) . . .
70(5) . . .
65(4) . . .
71(5) . . .
78(5) . . .
66(4) . . .
51(4) . . .
88(5) . . .
82(5) . . .
71(4) . . .
69(5) . . .
66(4) . . .
59(4) . . .
71(5) . . .
75(4) . . .
72(4) . . .
64(4) . . .
75(5) . . .
79(5) . . .
75(4) . . .
64(4) . . .
71(4) . . .
73(4) . . .
68(4) . . .
62(4) . . .
64(4) . . .
71(5) . . .
73(5) . . .
76(5) . . .
77(5) . . .
73(5) . . .
62(4) . . .
74(5) . . .
66(4) . . .
75(5) . . .
74(5) . . .
67(4) . . .
67(5) . . .
69(4) . . .
73(4) . . .
75(5) . . .
68(5) . . .
67(4) . . .
76(4) . . .
71(4) . . .
66(4) . . .
74(5) . . .
79(5) . . .
64(4) . . .
66(4) . . .
57(4) . . .
66(5) . . .
83(5) . . .
70(4) . . .
63(4) . . .
66(4) . . .
68(5) . . .
77(5) . . .
76(5) . . .
79(5) . . .
72(5) . . .
66(4) . . .
63(4) . . .
67(4) . . .
79(5) . . .
66(4) . . .
81(5) . . .
64(4) . . .
60(4) . . .
79(5) . . .
80(5) . . .
81(5) . . .
82(5) . . .
76(5) . . .
63(4) . . .
68(4) . . .
68(5) . . .
58(4) . . .
78(5) . . .
76(5) . . .
63(4) . . .
72(5) . . .
72(4) . . .
76(5) . . .
90(5) . . .
72(5) . . .
60(4) . . .
68(4) . . .
68(4) . . .
63(4) . . .
76(5) . . .
68(4) . . .
72(5) . . .
79(5) . . .
76(5) . . .
69(5) . . .
64(4) . . .
78(5) . . .
65(4) . . .
77(5) . . .
81(5) . . .
71(5) . . .
69(4) . . .
69(4) . . .
70(4) . . .
64(4) . . .
65(4) . . .
68(4) . . .
60(4) . . .
68(5) . . .
62(4) . . .
71(5) . . .
86(5) . . .
80(5) . . .
75(5) . . .
72(5) . . .
75(5) . . .
69(4) . . .
88(5) . . .
60(4) . . .
71(5) . . .
65(4) . . .
61(4) . . .
71(4) . . .
74(5) . . .
65(4) . . .
65(5) . . .
77(5) . . .
74(5) . . .
73(5) . . .
86(5) . . .
71(5) . . .
73(4) . . .
64(4) . . .
69(5) . . .
74(5) . . .
75(5) . . .
60(4) . . .
74(5) . . .
77(5) . . .
78(5) . . .
77(5) . . .
68(4) . . .
76(5) . . .
62(4) . . .
76(5) . . .
78(5) . . .
80(5) . . .
70(4) . . .
75(5) . . .
66(4) . . .
59(4) . . .
73(4) . . .
69(4) . . .
85(5) . . .
77(5) . . .
81(5) . . .
57(4) . . .
71(5) . . .
61(4) . . .
63(4) . . .
68(4) . . .
70(4) . . .
68(5) . . .
76(5) . . .
73(5) . . .
64(4) . . .
63(4) . . .
73(4) . . .
59(4) . . .
63(4) . . .
76(4) . . .
61(4) . . .
63(4) . . .
59(4) . . .
57(4) . . .
72(4) . . .
55(4) . . .
72(5) . . .
64(4) . . .
74(5) . . .
83(5) . . .
70(4) . . .
66(4) . . .
66(4) . . .
69(4) . . .
73(4) . . .
76(5) . . .
73(5) . . .
65(4) . . .
61(4) . . .
73(4) . . .
78(5) . . .
78(5) . . .
71(5) . . .
84(5) . . .
83(5) . . .
70(4) . . .
72(5) . . .
75(5) . . .
73(4) . . .
73(4) . . .
78(5) . . .
72(5) . . .
64(4) . . .
57(4) . . .
67(4) . . .
62(4) . . .
73(5) . . .
62(4) . . .
72(4) . . .
76(5) . . .
75(5) . . .
60(4) . . .
66(4) . . .
70(4) . . .
70(4) . . .
64(4) . . .
71(4) . . .
77(5) . . .
69(4) . . .
71(5) . . .
53(4) . . .
62(4) . . .
69(4) . . .
66(4) . . .
72(5) . . .
69(4) . . .
67(4) . . .
81(5) . . .
77(5) . . .
71(4) . . .
72(5) . . .
74(5) . . .
56(4) . . .
78(5) . . .
86(5) . . .
77(5) . . .
71(4) . . .
73(4) . . .
62(4) . . .
64(4) . . .
76(5) . . .
68(4) . . .
62(4) . . .
78(5) . . .
61(4) . . .
73(5) . . .
63(4) . . .
74(4) . . .
78(5) . . .
65(4) . . .
78(5) . . .
76(5) . . .
63(4) . . .
74(5) . . .
61(4) . . .
69(4) . . .
67(4) . . .
60(4) . . .
71(4) . . .
71(5) . . .
61(4) . . .
79(5) . . .
63(4) . . .
83(5) . . .
71(5) . . .
62(4) . . .
71(4) . . .
74(4) . . .
66(4) . . .
70(5) . . .
74(5) . . .
75(5) . . .
77(5) . . .
72(5) . . .
78(5) . . .
78(5) . . .
73(4) . . .
62(4) . . .
56(4) . . .
69(5) . . .
72(5) . . .
65(4) . . .
66(4) . . .
62(4) . . .
68(5) . . .
51(4) . . .
71(4) . . .
60(4) . . .
65(4) . . .
74(5) . . .
70(4) . . .
75(5) . . .
64(4) . . .
73(5) . . .
79(5) . . .
70(4) . . .
75(4) . . .
66(4) . . .
57(4) . . .
71(5) . . .
63(4) . . .
64(4) . . .
51(4) . . .
61(4) . . .
75(5) . . .
69(4) . . .
75(5) . . .
74(4) . . .
66(4) . . .
74(5) . . .
58(4) . . .
61(4) . . .
66(4) . . .
64(4) . . .
81(5) . . .
71(4) . . .
68(4) . . .
79(5) . . .
65(4) . . .
63(4) . . .
55(4) . . .
70(4) . . .
66(4) . . .
67(4) . . .
79(5) . . .
78(5) . . .
85(5) . . .
75(5) . . .
75(5) . . .
74(5) . . .
67(4) . . .
78(5) . . .
75(5) . . .
77(5) . . .
73(5) . . .
71(4) . . .
55(4) . . .
64(5) . . .
53(4) . . .
69(5) . . .
74(5) . . .
62(4) . . .
64(4) . . .
81(5) . . .
76(5) . . .
68(4) . . .
71(4) . . .
66(4) . . .
81(5) . . .
76(5) . . .
71(4) . . .
68(4) . . .
72(5) . . .
77(5) . . .
72(4) . . .
65(4) . . .
65(4) . . .
73(5) . . .
64(4) . . .
60(4) . . .
64(4) . . .
69(4) . . .
76(5) . . .
77(5) . . .
73(5) . . .
68(4) . . .
71(4) . . .
69(4) . . .
82(5) . . .
74(4) . . .
83(5) . . .
82(5) . . .
66(4) . . .
65(4) . . .
67(4) . . .
76(5) . . .
63(4) . . .
69(5) . . .
84(5) . . .
69(5) . . .
72(5) . . .
70(4) . . .
60(4) . . .
72(4) . . .
70(4) . . .
71(5) . . .
65(4) . . .
79(5) . . .
69(4) . . .
67(4) . . .
72(5) . . .
62(4) . . .
67(4) . . .
65(4) . . .
68(4) . . .
72(5) . . .
77(5) . . .
72(4) . . .
67(4) . . .
68(4) . . .
75(5) . . .
77(5) . . .
74(5) . . .
72(4) . . .
76(5) . . .
78(5) . . .
72(5) . . .
75(4) . . .
75(5) . . .
72(5) . . .
69(5) . . .
83(5) . . .
69(4) . . .
73(5) . . .
63(4) . . .
64(4) . . .
74(5) . . .
70(4) . . .
72(5) . . .
72(4) . . .
75(5) . . .
73(5) . . .
68(4) . . .
69(4) . . .
76(5) . . .
80(5) . . .
61(4) . . .
65(4) . . .
75(5) . . .
82(5) . . .
78(5) . . .
77(5) . . .
64(4) . . .
77(5) . . .
84(5) . . .
68(4) . . .
64(4) . . .
75(4) . . .
65(4) . . .
71(5) . . .
62(4) . . .
63(4) . . .
84(5) . . .
54(4) . . .
58(4) . . .
65(4) . . .
67(4) . . .
65(4) . . .
62(4) . . .
81(5) . . .
74(5) . . .
69(4) . . .
66(4) . . .
58(4) . . .
52(4) . . .
72(5) . . .
74(4) . . .
66(4) . . .
73(5) . . .
69(4) . . .
72(4) . . .
71(4) . . .
70(5) . . .
57(4) . . .
74(5) . . .
62(4) . . .
63(4) . . .
69(4) . . .
65(4) . . .
67(5) . . .
64(4) . . .
61(4) . . .
66(4) . . .
65(4) . . .
65(4) . . .
61(4) . . .
83(5) . . .
63(4) . . .
71(5) . . .
87(5) . . .
72(4) . . .
65(4) . . .
65(4) . . .
67(5) . . .
65(4) . . .
69(4) . . .
62(4) . . .
65(4) . . .
82(5) . . .
76(5) . . .
60(4) . . .
63(4) . . .
83(5) . . .
58(4) . . .
66(4) . . .
71(4) . . .
72(5) . . .
84(5) . . .
69(5) . . .
65(4) . . .
70(4) . . .
74(4) . . .
68(4) . . .
60(4) . . .
63(4) . . .
72(4) . . .
58(4) . . .
73(5) . . .
75(5) . . .
69(4) . . .
69(4) . . .
64(4) . . .
77(5) . . .
74(5) . . .
70(5) . . .
62(4) . . .
76(5) . . .
69(4) . . .
62(4) . . .
66(4) . . .
66(4) . . .
78(5) . . .
74(5) . . .
67(4) . . .
68(4) . . .
69(4) . . .
67(4) . . .
65(5) . . .
63(4) . . .
69(4) . . .
75(5) . . .
74(5) . . .
72(5) . . .
67(4) . . .
67(4) . . .
71(4) . . .
58(4) . . .
61(4) . . .
72(5) . . .
78(5) . . .
69(4) . . .
60(4) . . .
57(4) . . .
67(4) . . .
60(4) . . .
62(4) . . .
61(4) . . .
72(5) . . .
55(4) . . .
63(4) . . .
69(4) . . .
79(5) . . .
67(4) . . .
78(5) . . .
75(5) . . .
64(4) . . .
76(5) . . .
70(5) . . .
67(4) . . .
63(4) . . .
76(5) . . .
64(4) . . .
74(5) . . .
67(4) . . .
69(4) . . .
80(5) . . .
60(4) . . .
64(4) . . .
70(4) . . .
64(4) . . .
62(4) . . .
70(5) . . .
67(4) . . .
62(4) . . .
71(4) . . .
62(4) . . .
68(4) . . .
76(5) . . .
69(4) . . .
70(4) . . .
67(4) . . .
71(5) . . .
79(5) . . .
70(4) . . .
69(4) . . .
59(4) . . .
63(4) . . .
81(5) . . .
70(4) . . .
66(4) . . .
65(4) . . .
67(4) . . .
84(5) . . .
75(4) . . .
62(4) . . .
75(5) . . .
75(5) . . .
65(4) . . .
71(4) . . .
67(4) . . .
66(4) . . .
64(5) . . .
71(5) . . .
63(4) . . .
68(4) . . .
78(5) . . .
64(4) . . .
62(4) . . .
61(4) . . .
61(4) . . .
69(4) . . .
69(5) . . .
62(4) . . .
64(4) . . .
71(4) . . .
70(5) . . .
71(5) . . .
70(5) . . .
61(4) . . .
77(5) . . .
70(4) . . .
77(5) . . .
74(5) . . .
70(4) . . .
64(4) . . .
67(4) . . .
64(4) . . .
74(5) . . .
71(4) . . .
68(5) . . .
64(4) . . .
71(5) . . .
61(4) . . .
72(4) . . .
61(4) . . .
70(5) . . .
70(5) . . .
75(5) . . .
70(4) . . .
57(4) . . .
69(5) . . .
77(5) . . .
76(5) . . .
69(4) . . .
61(4) . . .
74(5) . . .
70(4) . . .
76(4) . . .
70(4) . . .
58(4) . . .
64(4) . . .
69(4) . . .
67(4) . . .
65(4) . . .
75(5) . . .
67(5) . . .
82(5) . . .
69(4) . . .
95(5) . . .
70(4) . . .
75(5) . . .
73(5) . . .
67(4) . . .
75(5) . . .
69(4) . . .
68(4) . . .
62(4) . . .
73(4) . . .
68(4) . . .
62(4) . . .
71(4) . . .
74(5) . . .
88(5) . . .
68(4) . . .
73(5) . . .
72(5) . . .
77(5) . . .
65(4) . . .
63(4) . . .
67(4) . . .
63(4) . . .
60(4) . . .
64(4) . . .
66(4) . . .
67(5) . . .
74(5) . . .
61(4) . . .
65(4) . . .
76(5) . . .
71(5) . . .
73(5) . . .
62(4) . . .
65(4) . . .
71(4) . . .
76(5) . . .
88(5) . . .
72(4) . . .
75(5) . . .
68(5) . . .
68(5) . . .
60(4) . . .
74(4) . . .
66(4) . . .
59(4) . . .
75(5) . . .
70(5) . . .
74(4) . . .
82(5) . . .
68(4) . . .
64(4) . . .
62(4) . . .
68(4) . . .
71(4) . . .
69(5) . . .
68(5) . . .
58(4) . . .
63(4) . . .
76(5) . . .
69(4) . . .
60(4) . . .
70(4) . . .
78(5) . . .
62(4) . . .
77(5) . . .
70(4) . . .
78(5) . . .
63(4) . . .
78(5) . . .
58(4) . . .
70(5) . . .
76(5) . . .
74(4) . . .
81(5) . . .
72(5) . . .
65(4) . . .
76(5) . . .
73(4) . . .
71(5) . . .
56(4) . . .
69(4) . . .
86(5) . . .
60(4) . . .
72(5) . . .
72(5) . . .
64(4) . . .
81(5) . . .
73(4) . . .
64(4) . . .
68(5) . . .
62(4) . . .
57(4) . . .
77(5) . . .
76(5) . . .
69(5) . . .
68(4) . . .
60(4) . . .
71(5) . . .
72(5) . . .
64(4) . . .
76(5) . . .
65(4) . . .
60(4) . . .
74(5) . . .
68(4) . . .
63(4) . . .
75(4) . . .
75(5) . . .
72(5) . . .
70(5) . . .
65(4) . . .
76(5) . . .
65(4) . . .
70(4) . . .
70(4) . . .
60(4) . . .
74(4) . . .
71(4) . . .
73(4) . . .
66(4) . . .
78(5) . . .
66(4) . . .
68(5) . . .
73(5) . . .
71(4) . . .
73(5) . . .
63(4) . . .
68(4) . . .
61(4) . . .
69(5) . . .
63(4) . . .
64(4) . . .
71(5) . . .
75(5) . . .
80(5) . . .
76(5) . . .
74(5) . . .
68(4) . . .
55(4) . . .
64(4) . . .
71(4) . . .
65(4) . . .
63(4) . . .
68(5) . . .
58(4) . . .
63(4) . . .
65(4) . . .
76(5) . . .
72(5) . . .
74(5) . . .
69(4) . . .
68(4) . . .
62(4) . . .
75(5) . . .
69(4) . . .
72(4) . . .
65(4) . . .
61(4) . . .
65(5) . . .
66(4) . . .
78(5) . . .
72(4) . . .
65(4) . . .
76(5) . . .
67(4) . . .
62(4) . . .
68(4) . . .
67(5) . . .
67(4) . . .
79(5) . . .
70(4) . . .
78(5) . . .
71(5) . . .
68(4) . . .
67(4) . . .
77(5) . . .
61(4) . . .
57(4) . . .
72(5) . . .
69(4) . . .
68(4) . . .
57(4) . . .
63(4) . . .
63(4) . . .
69(4) . . .
67(4) . . .
71(4) . . .
59(4) . . .
61(4) . . .
66(4) . . .
67(4) . . .
70(5) . . .
73(5) . . .
64(4) . . .
69(4) . . .
69(4) . . .
70(5) . . .
63(4) . . .
80(5) . . .
74(4) . . .
77(5) . . .
75(5) . . .
72(4) . . .
82(5) . . .
64(4) . . .
68(4) . . .
78(5) . . .
76(5) . . .
67(4) . . .
61(4) . . .
70(4) . . .
76(5) . . .
81(5) . . .
71(4) . . .
69(4) . . .
66(4) . . .
61(4) . . .
57(4) . . .
64(4) . . .
58(4) . . .
75(5) . . .
65(4) . . .
60(4) . . .
68(4) . . .
63(4) . . .
73(5) . . .
72(5) . . .
71(4) . . .
79(5) . . .
73(4) . . .
65(4) . . .
71(5) . . .
67(4) . . .
70(4) . . .
61(4) . . .
57(4) . . .
70(5) . . .
65(4) . . .
68(4) . . .
73(5) . . .
66(4) . . .
72(5) . . .
72(5) . . .
64(4) . . .
70(4) . . .
54(4) . . .
63(4) . . .
63(4) . . .
67(4) . . .
65(4) . . .
69(5) . . .
66(5) . . .
74(5) . . .
74(4) . . .
78(5) . . .
68(4) . . .
65(4) . . .
66(4) . . .
60(4) . . .
60(4) . . .
62(4) . . .
63(4) . . .
66(4) . . .
68(4) . . .
70(5) . . .
57(4) . . .
58(4) . . .
66(5) . . .
72(4) . . .
73(5) . . .
78(5) . . .
72(5) . . .
71(5) . . .
75(4) . . .
74(5) . . .
70(4) . . .
63(4) . . .
61(4) . . .
60(4) . . .
64(4) . . .
74(5) . . .
66(4) . . .
65(4) . . .
63(4) . . .
65(4) . . .
72(5) . . .
67(4) . . .
66(4) . . .
66(4) . . .
70(5) . . .
77(5) . . .
63(4) . . .
62(4) . . .
73(4) . . .
70(4) . . .
74(5) . . .
77(5) . . .
68(4) . . .
64(4) . . .
67(4) . . .
65(4) . . .
66(5) . . .
75(5) . . .
78(5) . . .
79(5) . . .
60(4) . . .
68(4) . . .
75(4) . . .
70(5) . . .
65(4) . . .
74(5) . . .
64(4) . . .
67(4) . . .
67(4) . . .
73(5) . . .
67(4) . . .
75(5) . . .
71(4) . . .
68(5) . . .
69(4) . . .
60(4) . . .
75(5) . . .
60(4) . . .
73(5) . . .
69(5) . . .
58(4) . . .
69(4) . . .
64(4) . . .
65(4) . . .
70(5) . . .
76(5) . . .
72(4) . . .
71(4) . . .
65(4) . . .
57(4) . . .
74(5) . . .
61(4) . . .
66(4) . . .
64(4) . . .
68(5) . . .
68(4) . . .
75(5) . . .
67(4) . . .
72(5) . . .
64(4) . . .
64(5) . . .
74(4) . . .
68(4) . . .
75(5) . . .
80(5) . . .
63(4) . . .
55(4) . . .
78(5) . . .
64(4) . . .
81(5) . . .
64(4) . . .
68(4) . . .
62(4) . . .
60(4) . . .
69(5) . . .
69(4) . . .
59(4) . . .
69(4) . . .
63(4) . . .
63(4) . . .
69(4) . . .
66(4) . . .
50(4) . . .
68(5) . . .
81(5) . . .
61(4) . . .
64(4) . . .
72(5) . . .
65(4) . . .
64(4) . . .
69(4) . . .
59(4) . . .
73(5) . . .
61(4) . . .
57(4) . . .
62(4) . . .
70(4) . . .
71(4) . . .
83(5) . . .
79(5) . . .
74(4) . . .
65(4) . . .
62(4) . . .
68(5) . . .
62(4) . . .
68(4) . . .
79(5) . . .
73(5) . . .
81(5) . . .
62(4) . . .
68(4) . . .
62(4) . . .
51(4) . . .
70(5) . . .
62(4) . . .
70(4) . . .
62(4) . . .
53(4) . . .
60(4) . . .
64(4) . . .
67(4) . . .
54(4) . . .
64(4) . . .
60(4) . . .
61(4) . . .
60(4) . . .
67(4) . . .
79(5) . . .
61(4) . . .
73(5) . . .
62(4) . . .
59(4) . . .
58(4) . . .
60(4) . . .
64(4) . . .
72(4) . . .
66(4) . . .
70(5) . . .
74(5) . . .
70(4) . . .
62(4) . . .
68(5) . . .
65(4) . . .
68(4) . . .
72(4) . . .
60(4) . . .
63(4) . . .
65(4) . . .
68(5) . . .
60(4) . . .
63(4) . . .
67(4) . . .
67(4) . . .
71(4) . . .
63(4) . . .
68(4) . . .
71(5) . . .
68(5) . . .
66(4) . . .
58(4) . . .
74(5) . . .
60(4) . . .
71(5) . . .
70(5) . . .
61(4) . . .
68(4) . . .
60(4) . . .
63(4) . . .
61(4) . . .
66(4) . . .
67(4) . . .
63(4) . . .
64(4) . . .
63(4) . . .
72(4) . . .
64(4) . . .
68(4) . . .
60(4) . . .
71(5) . . .
69(4) . . .
62(4) . . .
67(4) . . .
71(5) . . .
67(4) . . .
74(5) . . .
53(4) . . .
73(5) . . .
70(5) . . .
71(5) . . .
76(4) . . .
62(5) . . .
65(5) . . .
74(5) . . .
56(4) . . .
58(4) . . .
64(4) . . .
63(4) . . .
61(4) . . .
63(4) . . .
65(4) . . .
60(4) . . .
58(4) . . .
59(4) . . .
57(4) . . .
63(4) . . .
71(5) . . .
71(5) . . .
67(5) . . .
68(4) . . .
65(4) . . .
69(5) . . .
72(5) . . .
63(4) . . .
71(4) . . .
73(4) . . .
76(5) . . .
68(4) . . .
66(4) . . .
69(4) . . .
57(4) . . .
70(5) . . .
69(5) . . .
56(4) . . .
68(4) . . .
63(4) . . .
58(4) . . .
62(4) . . .
64(4) . . .
76(5) . . .
61(4) . . .
59(4) . . .
72(5) . . .
62(4) . . .
79(5) . . .
57(4) . . .
67(5) . . .
63(4) . . .
72(5) . . .
70(4) . . .
65(4) . . .
75(5) . . .
69(4) . . .
62(4) . . .
67(4) . . .
60(4) . . .
72(5) . . .
72(4) . . .
61(4) . . .
58(4) . . .
64(4) . . .
57(4) . . .
65(4) . . .
51(4) . . .
60(4) . . .
60(4) . . .
61(4) . . .
77(5) . . .
74(5) . . .
58(4) . . .
60(4) . . .
57(4) . . .
58(4) . . .
62(4) . . .
67(4) . . .
64(4) . . .
74(5) . . .
58(4) . . .
62(4) . . .
68(4) . . .
83(5) . . .
62(4) . . .
63(4) . . .
65(4) . . .
59(4) . . .
56(4) . . .
52(4) . . .
61(4) . . .
65(4) . . .
65(4) . . .
59(4) . . .
59(4) . . .
71(5) . . .
69(4) . . .
69(4) . . .
72(5) . . .
55(4) . . .
67(4) . . .
71(4) . . .
66(4) . . .
59(4) . . .
70(4) . . .
66(4) . . .
64(4) . . .
69(5) . . .
57(4) . . .
66(4) . . .
66(4) . . .
67(4) . . .
65(4) . . .
63(4) . . .
71(5) . . .
68(4) . . .
71(4) . . .
61(4) . . .
57(4) . . .
55(4) . . .
61(4) . . .
62(4) . . .
62(4) . . .
58(4) . . .
63(4) . . .
53(4) . . .
63(4) . . .
63(4) . . .
77(5) . . .
66(4) . . .
60(4) . . .
55(4) . . .
60(4) . . .
66(4) . . .
61(4) . . .
62(4) . . .
63(4) . . .
80(5) . . .
67(4) . . .
70(4) . . .
60(4) . . .
62(4) . . .
63(4) . . .
70(4) . . .
63(4) . . .
72(4) . . .
63(4) . . .
64(4) . . .
69(4) . . .
62(4) . . .
69(4) . . .
53(4) . . .
65(4) . . .
80(5) . . .
67(4) . . .
60(4) . . .
55(4) . . .
65(5) . . .
68(4) . . .
61(4) . . .
54(4) . . .
65(4) . . .
64(4) . . .
62(4) . . .
65(4) . . .
69(4) . . .
77(5) . . .
77(5) . . .
69(4) . . .
77(5) . . .
69(4) . . .
63(4) . . .
56(4) . . .
48(4) . . .
69(4) . . .
75(4) . . .
73(5) . . .
69(4) . . .
81(5) . . .
70(4) . . .
70(4) . . .
71(5) . . .
51(4) . . .
64(4) . . .
63(4) . . .
56(4) . . .
61(4) . . .
59(4) . . .
61(4) . . .
59(4) . . .
64(4) . . .
71(5) . . .
68(4) . . .
72(4) . . .
65(4) . . .
71(4) . . .
65(4) . . .
64(4) . . .
69(4) . . .
52(4) . . .
66(4) . . .
84(5) . . .
62(4) . . .
71(4) . . .
63(4) . . .
65(5) . . .
70(5) . . .
71(5) . . .
62(4) . . .
59(4) . . .
63(4) . . .
80(5) . . .
64(4) . . .
60(4) . . .
74(5) . . .
60(4) . . .
68(5) . . .
65(4) . . .
69(4) . . .
59(4) . . .
73(5) . . .
69(5) . . .
68(5) . . .
62(4) . . .
57(4) . . .
52(4) . . .
66(5) . . .
61(4) . . .
56(4) . . .
62(4) . . .
69(5) . . .
63(4) . . .
59(4) . . .
68(4) . . .
56(4) . . .
64(4) . . .
62(4) . . .
63(4) . . .
67(4) . . .
66(4) . . .
66(4) . . .
74(5) . . .
60(4) . . .
67(4) . . .
66(4) . . .
62(4) . . .
63(4) . . .
68(4) . . .
71(4) . . .
51(4) . . .
61(4) . . .
60(4) . . .
62(4) . . .
67(4) . . .
59(4) . . .
59(4) . . .
54(4) . . .
66(4) . . .
56(4) . . .
67(5) . . .
57(4) . . .
57(4) . . .
58(4) . . .
70(4) . . .
67(4) . . .
57(4) . . .
60(4) . . .
61(4) . . .
61(4) . . .
71(5) . . .
57(4) . . .
62(4) . . .
63(4) . . .
56(4) . . .
75(5) . . .
61(4) . . .
64(4) . . .
77(5) . . .
67(4) . . .
70(4) . . .
56(4) . . .
58(4) . . .
71(4) . . .
75(5) . . .
65(4) . . .
70(5) . . .
64(4) . . .
66(4) . . .
65(4) . . .
66(5) . . .
56(4) . . .
56(4) . . .
63(4) . . .
68(5) . . .
69(4) . . .
67(4) . . .
69(4) . . .
65(4) . . .
73(5) . . .
73(5) . . .
68(4) . . .
59(4) . . .
63(4) . . .
57(4) . . .
72(5) . . .
54(4) . . .
74(4) . . .
64(4) . . .
59(4) . . .
58(4) . . .
69(5) . . .
73(4) . . .
77(5) . . .
65(4) . . .
69(5) . . .
66(4) . . .
70(4) . . .
67(4) . . .
62(4) . . .
61(4) . . .
62(4) . . .
55(4) . . .
66(4) . . .
68(4) . . .
55(4) . . .
56(4) . . .
68(4) . . .
63(4) . . .
56(4) . . .
69(5) . . .
67(4) . . .
63(4) . . .
70(4) . . .
56(4) . . .
63(4) . . .
55(4) . . .
62(4) . . .
62(4) . . .
48(4) . . .
61(4) . . .
59(4) . . .
67(4) . . .
62(4) . . .
74(5) . . .
65(4) . . .
61(4) . . .
56(4) . . .
76(5) . . .
70(5) . . .
57(4) . . .
62(4) . . .
58(4) . . .
62(4) . . .
61(4) . . .
59(4) . . .
65(4) . . .
70(4) . . .
63(4) . . .
69(5) . . .
66(4) . . .
72(4) . . .
76(5) . . .
72(4) . . .
64(5) . . .
63(4) . . .
64(4) . . .
60(4) . . .
65(4) . . .
54(4) . . .
61(4) . . .
56(4) . . .
62(4) . . .
67(4) . . .
65(4) . . .
61(4) . . .
54(4) . . .
56(4) . . .
68(5) . . .
64(5) . . .
62(4) . . .
58(4) . . .
57(4) . . .
60(4) . . .
71(5) . . .
58(4) . . .
62(4) . . .
63(4) . . .
75(5) . . .
76(5) . . .
69(4) . . .
64(4) . . .
63(4) . . .
72(5) . . .
71(5) . . .
66(4) . . .
59(4) . . .
71(5) . . .
66(4) . . .
65(4) . . .
66(4) . . .
64(4) . . .
68(4) . . .
65(4) . . .
66(4) . . .
68(4) . . .
56(4) . . .
60(4) . . .
51(4) . . .
71(5) . . .
62(4) . . .
63(4) . . .
61(4) . . .
63(4) . . .
73(5) . . .
71(4) . . .
58(4) . . .
70(4) . . .
72(5) . . .
66(5) . . .
66(4) . . .
65(4) . . .
71(5) . . .
57(4) . . .
68(4) . . .
67(4) . . .
61(4) . . .
67(4) . . .
59(4) . . .
69(4) . . .
67(4) . . .
61(4) . . .
55(4) . . .
51(4) . . .
64(4) . . .
78(5) . . .
65(4) . . .
60(4) . . .
66(4) . . .
71(5) . . .
71(4) . . .
72(5) . . .
63(4) . . .
70(5) . . .
50(4) . . .
53(4) . . .
63(4) . . .
74(5) . . .
68(4) . . .
54(4) . . .
59(4) . . .
62(4) . . .
58(4) . . .
67(4) . . .
59(4) . . .
70(4) . . .
62(5) . . .
53(4) . . .
66(4) . . .
72(4) . . .
71(4) . . .
74(5) . . .
66(5) . . .
60(4) . . .
62(4) . . .
52(4) . . .
56(4) . . .
55(4) . . .
63(4) . . .
65(4) . . .
64(4) . . .
70(4) . . .
64(4) . . .
56(4) . . .
69(4) . . .
62(4) . . .
64(4) . . .
59(4) . . .
64(4) . . .
67(4) . . .
72(4) . . .
67(4) . . .
70(5) . . .
52(4) . . .
73(5) . . .
62(4) . . .
64(4) . . .
68(4) . . .
65(4) . . .
68(4) . . .
59(4) . . .
62(4) . . .
64(4) . . .
48(4) . . .
60(4) . . .
65(4) . . .
54(4) . . .
60(4) . . .
68(4) . . .
64(4) . . .
58(4) . . .
60(4) . . .
55(4) . . .
71(5) . . .
57(4) . . .
57(4) . . .
60(4) . . .
53(4) . . .
67(4) . . .
64(4) . . .
63(4) . . .
59(4) . . .
66(4) . . .
63(4) . . .
60(4) . . .
51(4) . . .
52(4) . . .
58(4) . . .
66(4) . . .
53(4) . . .
72(4) . . .
52(4) . . .
59(4) . . .
67(4) . . .
59(4) . . .
54(4) . . .
57(4) . . .
62(4) . . .
71(4) . . .
62(4) . . .
66(4) . . .
63(4) . . .
73(5) . . .
64(4) . . .
61(4) . . .
73(5) . . .
67(4) . . .
69(5) . . .
65(4) . . .
54(4) . . .
61(4) . . .
61(4) . . .
63(5) . . .
69(4) . . .
63(4) . . .
55(4) . . .
56(4) . . .
64(4) . . .
60(4) . . .
58(4) . . .
66(4) . . .
63(4) . . .
73(5) . . .
54(4) . . .
58(4) . . .
63(4) . . .
64(4) . . .
58(4) . . .
66(4) . . .
56(4) . . .
60(4) . . .
59(4) . . .
67(4) . . .
61(4) . . .
72(5) . . .
68(5) . . .
61(4) . . .
61(4) . . .
65(4) . . .
65(4) . . .
68(5) . . .
69(4) . . .
59(4) . . .
69(4) . . .
62(4) . . .
68(5) . . .
67(5) . . .
66(4) . . .
72(4) . . .
78(5) . . .
63(4) . . .
63(4) . . .
59(4) . . .
58(4) . . .
65(4) . . .
59(4) . . .
56(4) . . .
49(4) . . .
68(4) . . .
71(5) . . .
67(5) . . .
58(4) . . .
66(4) . . .
63(4) . . .
60(4) . . .
69(5) . . .
57(4) . . .
57(4) . . .
66(4) . . .
59(4) . . .
63(4) . . .
70(5) . . .
62(4) . . .
59(4) . . .
60(4) . . .
61(4) . . .
63(4) . . .
81(5) . . .
66(4) . . .
56(4) . . .
62(4) . . .
58(4) . . .
64(4) . . .
64(4) . . .
65(5) . . .
59(4) . . .
60(4) . . .
66(4) . . .
48(4) . . .
51(4) . . .
60(4) . . .
63(4) . . .
63(4) . . .
55(4) . . .
52(4) . . .
56(4) . . .
60(4) . . .
60(4) . . .
64(4) . . .
59(4) . . .
68(4) . . .
64(4) . . .
75(5) . . .
70(4) . . .
61(4) . . .
56(4) . . .
61(4) . . .
54(4) . . .
50(4) . . .
58(4) . . .
59(4) . . .
59(4) . . .
71(4) . . .
60(4) . . .
55(4) . . .
70(4) . . .
66(4) . . .
65(4) . . .
66(4) . . .
60(4) . . .
56(4) . . .
60(4) . . .
55(4) . . .
60(4) . . .
68(5) . . .
70(5) . . .
63(4) . . .
51(4) . . .
63(4) . . .
67(5) . . .
59(4) . . .
66(4) . . .
50(4) . . .
57(4) . . .
66(5) . . .
55(4) . . .
62(4) . . .
60(4) . . .
62(4) . . .
65(4) . . .
65(4) . . .
61(4) . . .
62(4) . . .
58(4) . . .
71(4) . . .
61(4) . . .
69(4) . . .
65(4) . . .
70(5) . . .
63(4) . . .
62(4) . . .
57(4) . . .
68(5) . . .
68(5) . . .
56(4) . . .
68(4) . . .
61(4) . . .
53(4) . . .
54(4) . . .
62(4) . . .
70(4) . . .
62(4) . . .
63(4) . . .
58(4) . . .
58(4) . . .
60(4) . . .
66(4) . . .
62(4) . . .
54(4) . . .
61(4) . . .
59(4) . . .
59(4) . . .
69(5) . . .
57(4) . . .
58(4) . . .
59(4) . . .
75(5) . . .
71(5) . . .
58(4) . . .
58(4) . . .
65(4) . . .
71(5) . . .
55(4) . . .
64(5) . . .
64(4) . . .
68(4) . . .
66(5) . . .
53(4) . . .
57(4) . . .
65(4) . . .
63(4) . . .
57(4) . . .
52(4) . . .
58(4) . . .
71(4) . . .
57(4) . . .
55(4) . . .
57(4) . . .
55(4) . . .
56(4) . . .
64(4) . . .
68(4) . . .
67(5) . . .
62(4) . . .
62(4) . . .
61(4) . . .
56(4) . . .
66(5) . . .
55(4) . . .
58(4) . . .
63(4) . . .
64(4) . . .
51(4) . . .
69(4) . . .
57(4) . . .
58(4) . . .
54(4) . . .
67(5) . . .
69(4) . . .
68(4) . . .
54(4) . . .
55(4) . . .
57(4) . . .
57(4) . . .
50(4) . . .
58(4) . . .
64(4) . . .
54(4) . . .
60(4) . . .
60(4) . . .
61(4) . . .
68(4) . . .
68(4) . . .
66(4) . . .
63(4) . . .
76(5) . . .
57(4) . . .
61(4) . . .
57(4) . . .
62(4) . . .
63(4) . . .
60(4) . . .
62(4) . . .
55(4) . . .
65(4) . . .
68(4) . . .
66(5) . . .
64(4) . . .
73(4) . . .
62(4) . . .
67(4) . . .
54(4) . . .
54(4) . . .
57(4) . . .
70(4) . . .
64(4) . . .
61(4) . . .
62(4) . . .
56(4) . . .
69(5) . . .
53(4) . . .
59(4) . . .
67(4) . . .
66(4) . . .
68(4) . . .
60(4) . . .
61(4) . . .
63(4) . . .
62(4) . . .
68(5) . . .
65(4) . . .
63(4) . . .
72(5) . . .
53(4) . . .
62(4) . . .
54(4) . . .
61(4) . . .
71(4) . . .
53(4) . . .
61(4) . . .
59(4) . . .
59(4) . . .
57(4) . . .
62(4) . . .
67(4) . . .
61(4) . . .
66(4) . . .
66(4) . . .
63(4) . . .
62(4) . . .
68(5) . . .
63(4) . . .
64(4) . . .
62(4) . . .
68(4) . . .
58(4) . . .
52(4) . . .
60(4) . . .
65(4) . . .
64(4) . . .
67(5) . . .
63(4) . . .
59(4) . . .
67(4) . . .
68(4) . . .
67(5) . . .
58(4) . . .
64(4) . . .
66(4) . . .
60(4) . . .
54(4) . . .
65(4) . . .
70(4) . . .
71(5) . . .
61(4) . . .
64(4) . . .
50(4) . . .
59(4) . . .
56(4) . . .
56(4) . . .
60(4) . . .
70(5) . . .
67(4) . . .
56(4) . . .
71(5) . . .
60(4) . . .
56(4) . . .
64(4) . . .
71(5) . . .
59(4) . . .
68(5) . . .
68(4) . . .
62(4) . . .
69(4) . . .
51(4) . . .
67(5) . . .
53(4) . . .
57(4) . . .
68(4) . . .
66(4) . . .
56(4) . . .
55(4) . . .
67(4) . . .
70(5) . . .
55(4) . . .
54(4) . . .
62(4) . . .
67(4) . . .
59(4) . . .
64(4) . . .
67(4) . . .
63(4) . . .
61(4) . . .
56(4) . . .
61(4) . . .
63(4) . . .
54(4) . . .
59(4) . . .
61(4) . . .
69(5) . . .
75(5) . . .
53(4) . . .
57(4) . . .
70(4) . . .
63(4) . . .
53(4) . . .
57(4) . . .
59(4) . . .
63(4) . . .
59(4) . . .
56(4) . . .
70(4) . . .
68(4) . . .
63(4) . . .
62(4) . . .
53(4) . . .
59(4) . . .
67(4) . . .
67(5) . . .
61(4) . . .
53(4) . . .
59(4) . . .
59(4) . . .
60(4) . . .
65(4) . . .
67(4) . . .
65(4) . . .
54(4) . . .
56(4) . . .
56(4) . . .
51(4) . . .
61(4) . . .
55(4) . . .
54(4) . . .
63(4) . . .
57(4) . . .
58(4) . . .
70(4) . . .
61(4) . . .
68(4) . . .
60(4) . . .
58(4) . . .
60(4) . . .
59(4) . . .
67(4) . . .
68(4) . . .
60(4) . . .
51(4) . . .
69(5) . . .
55(4) . . .
59(4) . . .
61(4) . . .
60(4) . . .
58(4) . . .
64(4) . . .
69(4) . . .
58(4) . . .
65(4) . . .
61(4) . . .
67(4) . . .
70(4) . . .
79(5) . . .
65(4) . . .
62(4) . . .
60(4) . . .
57(4) . . .
61(4) . . .
77(5) . . .
79(5) . . .
61(4) . . .
55(4) . . .
47(4) . . .
61(4) . . .
53(4) . . .
72(4) . . .
67(4) . . .
60(4) . . .
62(5) . . .
54(4) . . .
63(4) . . .
59(4) . . .
59(4) . . .
64(4) . . .
63(4) . . .
55(4) . . .
64(4) . . .
60(4) . . .
58(4) . . .
66(5) . . .
58(4) . . .
54(4) . . .
51(4) . . .
57(4) . . .
60(4) . . .
54(4) . . .
66(4) . . .
54(4) . . .
62(4) . . .
56(4) . . .
52(4) . . .
54(4) . . .
69(5) . . .
55(4) . . .
58(4) . . .
56(4) . . .
71(4) . . .
65(4) . . .
59(4) . . .
59(4) . . .
58(4) . . .
59(4) . . .
58(4) . . .
61(4) . . .
47(4) . . .
62(4) . . .
58(4) . . .
59(4) . . .
61(4) . . .
60(4) . . .
67(4) . . .
56(4) . . .
69(5) . . .
65(4) . . .
56(4) . . .
58(4) . . .
53(4) . . .
73(5) . . .
59(4) . . .
59(4) . . .
51(4) . . .
58(4) . . .
56(4) . . .
61(4) . . .
66(4) . . .
68(4) . . .
72(4) . . .
74(5) . . .
58(4) . . .
69(4) . . .
67(4) . . .
63(4) . . .
66(5) . . .
63(4) . . .
60(4) . . .
56(4) . . .
58(4) . . .
69(5) . . .
62(4) . . .
69(4) . . .
53(4) . . .
72(5) . . .
72(5) . . .
66(4) . . .
73(4) . . .
57(4) . . .
59(4) . . .
58(4) . . .
55(4) . . .
68(4) . . .
61(4) . . .
56(4) . . .
59(4) . . .
58(4) . . .
65(4) . . .
63(4) . . .
69(5) . . .
70(5) . . .
61(4) . . .
58(4) . . .
63(4) . . .
63(4) . . .
63(4) . . .
57(4) . . .
54(4) . . .
50(4) . . .
54(4) . . .
67(4) . . .
57(4) . . .
66(4) . . .
61(4) . . .
62(4) . . .
60(4) . . .
70(4) . . .
68(4) . . .
75(5) . . .
56(4) . . .
60(4) . . .
59(4) . . .
57(4) . . .
65(4) . . .
49(4) . . .
66(4) . . .
70(4) . . .
72(4) . . .
55(4) . . .
58(4) . . .
70(4) . . .
70(4) . . .
59(4) . . .
52(4) . . .
57(4) . . .
63(4) . . .
73(4) . . .
65(4) . . .
57(4) . . .
65(4) . . .
67(4) . . .
63(4) . . .
59(4) . . .
47(4) . . .
59(4) . . .
61(4) . . .
60(4) . . .
66(4) . . .
60(4) . . .
61(4) . . .
57(4) . . .
63(4) . . .
66(4) . . .
64(5) . . .
57(4) . . .
59(4) . . .
52(4) . . .
66(4) . . .
62(4) . . .
62(4) . . .
68(4) . . .
65(4) . . .
64(4) . . .
58(4) . . .
57(4) . . .
64(4) . . .
65(4) . . .
56(4) . . .
64(4) . . .
58(4) . . .
63(4) . . .
60(4) . . .
57(4) . . .
64(5) . . .
63(4) . . .
66(4) . . .
63(4) . . .
63(4) . . .
66(5) . . .
57(4) . . .
62(4) . . .
55(4) . . .
59(4) . . .
54(4) . . .
62(4) . . .
59(4) . . .
68(4) . . .
68(4) . . .
57(4) . . .
59(4) . . .
64(4) . . .
63(4) . . .
64(4) . . .
59(4) . . .
46(4) . . .
52(4) . . .
53(4) . . .
50(4) . . .
53(4) . . .
70(4) . . .
63(4) . . .
53(4) . . .
55(4) . . .
62(4) . . .
56(4) . . .
57(4) . . .
68(4) . . .
62(4) . . .
65(4) . . .
51(4) . . .
65(4) . . .
53(4) . . .
66(4) . . .
58(4) . . .
51(4) . . .
56(4) . . .
65(4) . . .
57(4) . . .
66(4) . . .
55(4) . . .
63(4) . . .
58(4) . . .
59(4) . . .
51(4) . . .
65(4) . . .
68(4) . . .
57(4) . . .
61(4) . . .
57(4) . . .
63(4) . . .
58(4) . . .
55(4) . . .
57(4) . . .
64(4) . . .
61(4) . . .
62(4) . . .
54(4) . . .
51(4) . . .
72(5) . . .
71(4) . . .
59(4) . . .
64(4) . . .
65(5) . . .
58(4) . . .
59(4) . . .
54(4) . . .
61(4) . . .
66(4) . . .
59(4) . . .
60(4) . . .
65(4) . . .
65(4) . . .
55(4) . . .
58(4) . . .
61(4) . . .
61(4) . . .
59(4) . . .
50(4) . . .
57(4) . . .
64(4) . . .
45(4) . . .
47(4) . . .
51(4) . . .
61(4) . . .
59(4) . . .
67(4) . . .
59(4) . . .
52(4) . . .
61(4) . . .
55(4) . . .
72(5) . . .
63(5) . . .
60(4) . . .
70(4) . . .
63(4) . . .
69(4) . . .
62(4) . . .
63(4) . . .
65(4) . . .
61(4) . . .
59(4) . . .
62(4) . . .
52(4) . . .
51(4) . . .
61(4) . . .
63(4) . . .
61(4) . . .
55(4) . . .
57(4) . . .
62(4) . . .
63(4) . . .
65(5) . . .
54(4) . . .
57(4) . . .
56(4) . . .
51(4) . . .
50(4) . . .
54(4) . . .
62(4) . . .
58(4) . . .
66(4) . . .
64(4) . . .
57(4) . . .
62(4) . . .
65(5) . . .
54(4) . . .
60(4) . . .
58(4) . . .
50(4) . . .
55(4) . . .
50(4) . . .
58(4) . . .
58(4) . . .
58(4) . . .
49(4) . . .
57(4) . . .
55(4) . . .
60(4) . . .
57(4) . . .
58(4) . . .
58(4) . . .
57(4) . . .
59(4) . . .
64(4) . . .
65(4) . . .
60(4) . . .
53(4) . . .
64(4) . . .
67(4) . . .
67(4) . . .
54(4) . . .
57(4) . . .
59(4) . . .
63(4) . . .
53(4) . . .
63(4) . . .
65(4) . . .
68(4) . . .
65(4) . . .
56(4) . . .
66(4) . . .
60(4) . . .
57(4) . . .
62(4) . . .
59(4) . . .
59(4) . . .
66(4) . . .
60(4) . . .
66(4) . . .
62(4) . . .
57(4) . . .
58(4) . . .
58(4) . . .
65(4) . . .
63(4) . . .
64(4) . . .
58(4) . . .
46(4) . . .
51(4) . . .
68(5) . . .
58(4) . . .
59(4) . . .
59(4) . . .
58(4) . . .
49(4) . . .
57(4) . . .
68(4) . . .
60(4) . . .
64(4) . . .
67(4) . . .
62(4) . . .
70(4) . . .
59(4) . . .
58(4) . . .
55(4) . . .
62(4) . . .
57(4) . . .
57(4) . . .
56(4) . . .
44.8(35) . . .
55(4) . . .
57(4) . . .
58(4) . . .
60(4) . . .
55(4) . . .
54(4) . . .
57(4) . . .
55(4) . . .
63(4) . . .
52(4) . . .
58(4) . . .
64(4) . . .
63(4) . . .
50(4) . . .
55(4) . . .
57(4) . . .
57(4) . . .
54(4) . . .
54(4) . . .
58(4) . . .
65(4) . . .
57(4) . . .
53(4) . . .
56(4) . . .
65(4) . . .
61(4) . . .
52(4) . . .
65(4) . . .
56(4) . . .
60(4) . . .
54(4) . . .
51(4) . . .
54(4) . . .
72(5) . . .
82(5) . . .
50(4) . . .
67(4) . . .
50(4) . . .
60(5) . . .
56(4) . . .
57(4) . . .
54(4) . . .
55(4) . . .
57(4) . . .
58(4) . . .
69(4) . . .
63(4) . . .
64(4) . . .
65(5) . . .
51(4) . . .
62(4) . . .
61(4) . . .
55(4) . . .
49(4) . . .
54(4) . . .
71(4) . . .
64(4) . . .
68(4) . . .
61(4) . . .
67(4) . . .
60(4) . . .
52(4) . . .
59(4) . . .
64(5) . . .
54(4) . . .
64(4) . . .
60(4) . . .
59(4) . . .
67(5) . . .
62(4) . . .
54(4) . . .
59(4) . . .
52(4) . . .
59(4) . . .
65(4) . . .
57(4) . . .
66(4) . . .
57(4) . . .
57(4) . . .
69(4) . . .
61(4) . . .
57(4) . . .
56(4) . . .
58(4) . . .
77(5) . . .
62(4) . . .
51(4) . . .
58(4) . . .
61(4) . . .
70(4) . . .
59(4) . . .
64(4) . . .
61(4) . . .
58(4) . . .
58(4) . . .
70(4) . . .
63(4) . . .
58(4) . . .
59(4) . . .
65(4) . . .
64(4) . . .
48(4) . . .
54(4) . . .
57(4) . . .
65(4) . . .
70(4) . . .
60(4) . . .
63(4) . . .
62(4) . . .
62(4) . . .
59(4) . . .
60(4) . . .
55(4) . . .
61(5) . . .
64(4) . . .
51(4) . . .
57(4) . . .
53(4) . . .
57(4) . . .
63(4) . . .
58(4) . . .
69(5) . . .
66(5) . . .
62(4) . . .
58(4) . . .
62(4) . . .
56(4) . . .
50(4) . . .
61(4) . . .
49(4) . . .
60(4) . . .
62(4) . . .
62(4) . . .
60(4) . . .
54(4) . . .
59(4) . . .
54(4) . . .
51(4) . . .
62(4) . . .
63(4) . . .
62(4) . . .
65(4) . . .
57(4) . . .
55(4) . . .
56(4) . . .
59(4) . . .
55(4) . . .
69(5) . . .
54(4) . . .
66(4) . . .
59(4) . . .
56(4) . . .
49(4) . . .
58(4) . . .
59(4) . . .
64(4) . . .
63(4) . . .
52(4) . . .
60(4) . . .
69(4) . . .
57(4) . . .
59(4) . . .
63(4) . . .
61(4) . . .
62(4) . . .
56(4) . . .
68(5) . . .
65(4) . . .
62(4) . . .
65(4) . . .
58(4) . . .
54(4) . . .
59(4) . . .
63(4) . . .
61(4) . . .
61(4) . . .
55(4) . . .
64(4) . . .
64(4) . . .
69(5) . . .
64(4) . . .
65(4) . . .
65(4) . . .
53(4) . . .
51(4) . . .
54(4) . . .
60(4) . . .
72(5) . . .
50(4) . . .
64(4) . . .
72(5) . . .
51(4) . . .
58(4) . . .
54(4) . . .
55(4) . . .
70(5) . . .
61(4) . . .
64(4) . . .
59(4) . . .
68(4) . . .
60(4) . . .
60(4) . . .
62(4) . . .
60(4) . . .
43.8(34) . . .
53(4) . . .
53(4) . . .
63(4) . . .
67(4) . . .
56(4) . . .
71(5) . . .
70(5) . . .
57(4) . . .
69(4) . . .
62(4) . . .
69(5) . . .
53(4) . . .
72(4) . . .
65(4) . . .
62(4) . . .
56(4) . . .
50(4) . . .
66(4) . . .
66(4) . . .
61(4) . . .
57(4) . . .
51(4) . . .
61(4) . . .
56(4) . . .
53(4) . . .
61(4) . . .
56(4) . . .
60(4) . . .
60(4) . . .
59(4) . . .
61(4) . . .
63(4) . . .
56(4) . . .
70(5) . . .
64(4) . . .
51(4) . . .
53(4) . . .
64(4) . . .
70(5) . . .
69(5) . . .
57(4) . . .
41.2(34) . . .
56(4) . . .
53(4) . . .
57(4) . . .
64(4) . . .
64(4) . . .
64(4) . . .
64(4) . . .
54(4) . . .
53(4) . . .
54(4) . . .
50(4) . . .
64(5) . . .
66(4) . . .
58(4) . . .
55(4) . . .
58(4) . . .
46(4) . . .
49(4) . . .
48(4) . . .
54(4) . . .
54(4) . . .
58(4) . . .
55(4) . . .
54(4) . . .
65(4) . . .
48(4) . . .
59(4) . . .
65(4) . . .
60(4) . . .
58(4) . . .
54(4) . . .
50(4) . . .
64(4) . . .
53(4) . . .
69(4) . . .
64(4) . . .
56(4) . . .
54(4) . . .
55(4) . . .
54(4) . . .
57(4) . . .
57(4) . . .
57(4) . . .
62(4) . . .
52(4) . . .
54(4) . . .
59(4) . . .
56(4) . . .
61(4) . . .
55(4) . . .
54(4) . . .
53(4) . . .
62(4) . . .
66(4) . . .
59(4) . . .
53(4) . . .
62(4) . . .
65(4) . . .
61(4) . . .
43.4(35) . . .
47(4) . . .
53(4) . . .
68(5) . . .
62(4) . . .
55(4) . . .
61(4) . . .
59(4) . . .
51(4) . . .
61(4) . . .
71(5) . . .
57(4) . . .
58(4) . . .
59(4) . . .
52(4) . . .
66(4) . . .
62(4) . . .
67(4) . . .
63(4) . . .
62(4) . . .
65(4) . . .
64(4) . . .
61(4) . . .
51(4) . . .
67(4) . . .
64(4) . . .
61(4) . . .
55(4) . . .
55(4) . . .
54(4) . . .
58(4) . . .
65(4) . . .
61(4) . . .
67(4) . . .
60(4) . . .
56(4) . . .
66(5) . . .
61(4) . . .
57(4) . . .
58(4) . . .
54(4) . . .
60(4) . . .
58(4) . . .
55(4) . . .
58(4) . . .
64(4) . . .
66(5) . . .
66(4) . . .
66(4) . . .
62(4) . . .
60(4) . . .
61(4) . . .
54(4) . . .
54(4) . . .
48(4) . . .
65(5) . . .
58(4) . . .
57(4) . . .
41.8(34) . . .
59(4) . . .
51(4) . . .
54(4) . . .
53(4) . . .
58(4) . . .
51(4) . . .
57(4) . . .
61(4) . . .
60(4) . . .
65(4) . . .
57(4) . . .
63(4) . . .
59(4) . . .
60(4) . . .
55(4) . . .
57(4) . . .
72(5) . . .
55(4) . . .
50(4) . . .
58(4) . . .
47(4) . . .
57(4) . . .
68(4) . . .
62(4) . . .
58(4) . . .
62(4) . . .
65(4) . . .
59(4) . . .
60(4) . . .
62(4) . . .
55(4) . . .
50(4) . . .
67(4) . . .
75(4) . . .
68(4) . . .
57(4) . . .
70(5) . . .
61(4) . . .
63(4) . . .
58(4) . . .
57(4) . . .
53(4) . . .
57(4) . . .
62(4) . . .
50(4) . . .
71(5) . . .
65(4) . . .
50(4) . . .
53(4) . . .
61(4) . . .
69(4) . . .
58(4) . . .
54(4) . . .
52(4) . . .
58(4) . . .
62(4) . . .
64(4) . . .
58(4) . . .
70(4) . . .
64(4) . . .
56(4) . . .
53(4) . . .
61(4) . . .
58(4) . . .
53(4) . . .
58(4) . . .
52(4) . . .
54(4) . . .
61(4) . . .
54(4) . . .
59(4) . . .
55(4) . . .
57(4) . . .
58(4) . . .
63(4) . . .
59(4) . . .
53(4) . . .
46(4) . . .
61(4) . . .
54(4) . . .
62(4) . . .
52(4) . . .
70(4) . . .
63(4) . . .
58(4) . . .
67(5) . . .
66(4) . . .
60(4) . . .
73(4) . . .
59(4) . . .
51(4) . . .
59(4) . . .
61(4) . . .
66(4) . . .
70(4) . . .
68(5) . . .
56(4) . . .
47(4) . . .
54(4) . . .
56(4) . . .
55(4) . . .
50(4) . . .
65(4) . . .
56(4) . . .
62(4) . . .
55(4) . . .
46(4) . . .
62(4) . . .
53(4) . . .
66(4) . . .
56(4) . . .
60(4) . . .
54(4) . . .
53(4) . . .
64(4) . . .
56(4) . . .
58(4) . . .
61(4) . . .
59(4) . . .
55(4) . . .
55(4) . . .
55(4) . . .
56(4) . . .
58(4) . . .
60(4) . . .
62(4) . . .
58(4) . . .
58(4) . . .
49(4) . . .
50(4) . . .
54(4) . . .
66(4) . . .
55(4) . . .
55(4) . . .
49(4) . . .
49(4) . . .
51(4) . . .
63(4) . . .
61(4) . . .
63(4) . . .
58(4) . . .
57(4) . . .
70(4) . . .
73(5) . . .
63(4) . . .
57(4) . . .
56(4) . . .
57(4) . . .
54(4) . . .
59(4) . . .
57(4) . . .
59(4) . . .
56(4) . . .
63(4) . . .
58(4) . . .
66(4) . . .
74(5) . . .
56(4) . . .
51(4) . . .
60(4) . . .
53(4) . . .
54(4) . . .
66(4) . . .
53(4) . . .
53(4) . . .
54(4) . . .
53(4) . . .
51(4) . . .
62(4) . . .
53(4) . . .
60(4) . . .
59(4) . . .
67(4) . . .
60(4) . . .
57(4) . . .
63(4) . . .
62(4) . . .
49(4) . . .
57(4) . . .
44.0(35) . . .
51(4) . . .
54(4) . . .
52(4) . . .
53(4) . . .
56(4) . . .
63(4) . . .
61(4) . . .
60(4) . . .
48(4) . . .
65(4) . . .
54(4) . . .
65(4) . . .
54(4) . . .
59(4) . . .
65(4) . . .
60(4) . . .
66(4) . . .
61(4) . . .
65(5) . . .
58(4) . . .
61(4) . . .
55(4) . . .
65(5) . . .
55(4) . . .
58(4) . . .
58(4) . . .
56(4) . . .
60(4) . . .
64(4) . . .
69(4) . . .
60(4) . . .
62(4) . . .
58(4) . . .
62(4) . . .
71(5) . . .
58(4) . . .
59(4) . . .
56(4) . . .
59(4) . . .
55(4) . . .
53(4) . . .
53(4) . . .
57(4) . . .
58(4) . . .
52(4) . . .
63(4) . . .
53(4) . . .
69(5) . . .
62(4) . . .
53(4) . . .
53(4) . . .
66(4) . . .
54(4) . . .
50(4) . . .
62(4) . . .
48(4) . . .
61(4) . . .
51(4) . . .
67(4) . . .
65(4) . . .
48(4) . . .
48(4) . . .
58(4) . . .
56(4) . . .
66(4) . . .
61(4) . . .
55(4) . . .
61(4) . . .
56(4) . . .
58(4) . . .
64(4) . . .
62(4) . . .
65(4) . . .
54(4) . . .
64(4) . . .
54(4) . . .
46(4) . . .
51(4) . . .
58(4) . . .
61(4) . . .
51(4) . . .
64(4) . . .
63(4) . . .
50(4) . . .
59(4) . . .
63(4) . . .
59(4) . . .
65(5) . . .
49(4) . . .
62(4) . . .
69(5) . . .
63(4) . . .
54(4) . . .
62(4) . . .
64(4) . . .
60(4) . . .
59(4) . . .
67(4) . . .
59(4) . . .
63(4) . . .
50(4) . . .
59(4) . . .
54(4) . . .
59(4) . . .
52(4) . . .
60(4) . . .
59(4) . . .
58(4) . . .
54(4) . . .
58(4) . . .
54(4) . . .
61(4) . . .
70(4) . . .
61(4) . . .
62(4) . . .
53(4) . . .
60(4) . . .
48(4) . . .
52(4) . . .
56(4) . . .
66(4) . . .
56(4) . . .
60(4) . . .
59(4) . . .
69(5) . . .
52(4) . . .
48(4) . . .
50(4) . . .
54(4) . . .
61(4) . . .
58(4) . . .
62(4) . . .
57(4) . . .
56(4) . . .
52(4) . . .
51(4) . . .
50(4) . . .
50(4) . . .
54(4) . . .
56(4) . . .
66(4) . . .
59(4) . . .
56(4) . . .
54(4) . . .
59(4) . . .
61(4) . . .
48(4) . . .
61(4) . . .
59(4) . . .
57(4) . . .
55(4) . . .
61(4) . . .
57(4) . . .
55(4) . . .
54(4) . . .
57(4) . . .
51(4) . . .
55(4) . . .
61(4) . . .
61(4) . . .
64(4) . . .
56(4) . . .
55(4) . . .
57(4) . . .
56(4) . . .
59(4) . . .
61(4) . . .
54(4) . . .
57(4) . . .
51(4) . . .
54(4) . . .
57(4) . . .
56(4) . . .
62(4) . . .
62(4) . . .
59(4) . . .
62(4) . . .
65(4) . . .
52(4) . . .
56(4) . . .
58(4) . . .
52(4) . . .
54(4) . . .
61(4) . . .
66(4) . . .
64(4) . . .
55(4) . . .
52(4) . . .
55(4) . . .
56(4) . . .
69(4) . . .
57(4) . . .
64(4) . . .
64(4) . . .
59(4) . . .
60(4) . . .
59(4) . . .
56(4) . . .
53(4) . . .
52(4) . . .
58(4) . . .
60(4) . . .
58(4) . . .
55(4) . . .
56(4) . . .
51(4) . . .
61(4) . . .
62(4) . . .
50(4) . . .
57(4) . . .
68(5) . . .
59(4) . . .
64(4) . . .
55(4) . . .
52(4) . . .
53(4) . . .
50(4) . . .
64(4) . . .
53(4) . . .
58(4) . . .
51(4) . . .
53(4) . . .
55(4) . . .
56(4) . . .
49(4) . . .
53(4) . . .
53(4) . . .
53(4) . . .
54(4) . . .
58(4) . . .
59(4) . . .
51(4) . . .
67(4) . . .
61(4) . . .
64(4) . . .
60(4) . . .
56(4) . . .
56(4) . . .
66(5) . . .
60(4) . . .
47(4) . . .
52(4) . . .
65(4) . . .
65(5) . . .
54(4) . . .
66(4) . . .
62(4) . . .
64(4) . . .
58(4) . . .
62(4) . . .
59(4) . . .
63(4) . . .
57(4) . . .
52(4) . . .
61(4) . . .
56(4) . . .
57(4) . . .
74(5) . . .
67(5) . . .
53(4) . . .
60(4) . . .
55(4) . . .
51(4) . . .
57(4) . . .
56(4) . . .
71(4) . . .
50(4) . . .
46(4) . . .
49(4) . . .
57(4) . . .
72(4) . . .
61(4) . . .
49(4) . . .
60(4) . . .
59(4) . . .
56(4) . . .
57(4) . . .
56(4) . . .
55(4) . . .
57(4) . . .
62(4) . . .
70(4) . . .
69(4) . . .
56(4) . . .
54(4) . . .
54(4) . . .
55(4) . . .
60(4) . . .
51(4) . . .
74(5) . . .
57(4) . . .
64(5) . . .
59(4) . . .
63(4) . . .
61(4) . . .
55(4) . . .
52(4) . . .
51(4) . . .
52(4) . . .
64(4) . . .
66(4) . . .
57(4) . . .
71(5) . . .
57(4) . . .
54(4) . . .
57(4) . . .
50(4) . . .
56(4) . . .
64(4) . . .
62(4) . . .
51(4) . . .
53(4) . . .
54(4) . . .
59(4) . . .
67(4) . . .
51(4) . . .
46(4) . . .
59(4) . . .
56(4) . . .
56(4) . . .
54(4) . . .
55(4) . . .
51(4) . . .
63(5) . . .
49(4) . . .
48(4) . . .
53(4) . . .
54(4) . . .
61(4) . . .
52(4) . . .
67(4) . . .
60(4) . . .
63(4) . . .
67(4) . . .
52(4) . . .
52(4) . . .
56(4) . . .
65(5) . . .
50(4) . . .
56(4) . . .
61(4) . . .
64(5) . . .
63(4) . . .
58(4) . . .
63(4) . . .
62(4) . . .
63(4) . . .
54(4) . . .
57(4) . . .
61(4) . . .
64(5) . . .
53(4) . . .
54(4) . . .
61(4) . . .
55(4) . . .
54(4) . . .
60(4) . . .
64(4) . . .
50(4) . . .
53(4) . . .
59(4) . . .
47(4) . . .
68(4) . . .
50(4) . . .
55(4) . . .
60(4) . . .
55(4) . . .
53(4) . . .
52(4) . . .
52(4) . . .
45(4) . . .
52(4) . . .
62(4) . . .
57(4) . . .
70(4) . . .
54(4) . . .
53(4) . . .
52(4) . . .
56(4) . . .
55(4) . . .
55(4) . . .
50(4) . . .
56(4) . . .
51(4) . . .
56(4) . . .
58(4) . . .
54(4) . . .
47(4) . . .
52(4) . . .
58(4) . . .
53(4) . . .
60(4) . . .
55(4) . . .
61(4) . . .
63(4) . . .
56(4) . . .
65(4) . . .
52(4) . . .
54(4) . . .
50(4) . . .
61(5) . . .
54(4) . . .
53(4) . . .
52(4) . . .
68(4) . . .
66(5) . . .
60(4) . . .
49(4) . . .
53(4) . . .
63(4) . . .
55(4) . . .
58(4) . . .
52(4) . . .
53(4) . . .
48(4) . . .
59(4) . . .
62(4) . . .
48(4) . . .
59(4) . . .
53(4) . . .
56(4) . . .
55(4) . . .
42.8(34) . . .
54(4) . . .
62(4) . . .
53(4) . . .
60(4) . . .
58(4) . . .
56(4) . . .
54(4) . . .
56(4) . . .
56(4) . . .
58(4) . . .
55(4) . . .
56(4) . . .
51(4) . . .
50(4) . . .
50(4) . . .
67(4) . . .
59(4) . . .
48(4) . . .
54(4) . . .
57(4) . . .
62(4) . . .
62(4) . . .
51(4) . . .
51(4) . . .
53(4) . . .
56(4) . . .
52(4) . . .
61(4) . . .
52(4) . . .
49(4) . . .
62(4) . . .
59(4) . . .
64(4) . . .
66(4) . . .
63(4) . . .
63(4) . . .
68(5) . . .
56(4) . . .
53(4) . . .
61(4) . . .
62(4) . . .
58(4) . . .
52(4) . . .
63(4) . . .
57(4) . . .
57(4) . . .
61(4) . . .
57(4) . . .
54(4) . . .
58(4) . . .
63(4) . . .
60(4) . . .
60(4) . . .
50(4) . . .
53(4) . . .
51(4) . . .
55(4) . . .
45(4) . . .
60(4) . . .
60(4) . . .
57(4) . . .
52(4) . . .
66(4) . . .
55(4) . . .
66(5) . . .
56(4) . . .
54(4) . . .
52(4) . . .
59(4) . . .
54(4) . . .
51(4) . . .
52(4) . . .
54(4) . . .
63(4) . . .
59(4) . . .
61(5) . . .
54(4) . . .
53(4) . . .
63(4) . . .
54(4) . . .
54(4) . . .
53(4) . . .
49(4) . . .
62(4) . . .
58(4) . . .
63(4) . . .
54(4) . . .
55(4) . . .
55(4) . . .
53(4) . . .
52(4) . . .
48(4) . . .
48(4) . . .
54(4) . . .
61(5) . . .
51(4) . . .
61(4) . . .
54(4) . . .
52(4) . . .
52(4) . . .
57(4) . . .
48(4) . . .
58(4) . . .
59(4) . . .
52(4) . . .
57(4) . . .
63(4) . . .
52(4) . . .
69(4) . . .
60(4) . . .
55(4) . . .
58(4) . . .
66(4) . . .
45.0(35) . . .
57(4) . . .
55(4) . . .
54(4) . . .
55(4) . . .
53(4) . . .
53(4) . . .
56(4) . . .
55(4) . . .
58(4) . . .
54(4) . . .
50(4) . . .
52(4) . . .
60(4) . . .
76(5) . . .
64(4) . . .
52(4) . . .
55(4) . . .
49(4) . . .
56(4) . . .
49(4) . . .
47(4) . . .
57(4) . . .
56(4) . . .
52(4) . . .
57(4) . . .
46(4) . . .
47(4) . . .
58(4) . . .
62(4) . . .
60(4) . . .
61(4) . . .
64(4) . . .
62(4) . . .
62(4) . . .
73(5) . . .
51(4) . . .
62(4) . . .
62(4) . . .
59(4) . . .
51(4) . . .
54(4) . . .
57(4) . . .
57(4) . . .
61(4) . . .
59(4) . . .
49(4) . . .
50(4) . . .
56(4) . . .
51(4) . . .
65(4) . . .
55(4) . . .
65(4) . . .
55(4) . . .
59(4) . . .
63(4) . . .
57(4) . . .
64(4) . . .
60(4) . . .
64(5) . . .
49(4) . . .
52(4) . . .
51(4) . . .
48(4) . . .
50(4) . . .
53(4) . . .
48(4) . . .
49(4) . . .
62(4) . . .
50(4) . . .
58(4) . . .
54(4) . . .
64(4) . . .
58(4) . . .
57(4) . . .
55(4) . . .
49(4) . . .
56(4) . . .
53(4) . . .
55(4) . . .
50(4) . . .
56(4) . . .
62(4) . . .
56(4) . . .
55(4) . . .
55(4) . . .
62(4) . . .
57(4) . . .
62(4) . . .
63(4) . . .
62(4) . . .
65(4) . . .
55(4) . . .
57(4) . . .
65(4) . . .
67(4) . . .
56(4) . . .
57(4) . . .
58(4) . . .
52(4) . . .
55(4) . . .
60(4) . . .
62(4) . . .
56(4) . . .
58(4) . . .
55(4) . . .
62(4) . . .
59(4) . . .
61(4) . . .
54(4) . . .
58(4) . . .
67(4) . . .
61(4) . . .
61(4) . . .
56(4) . . .
57(4) . . .
52(4) . . .
50(4) . . .
55(4) . . .
58(4) . . .
55(4) . . .
59(4) . . .
62(4) . . .
57(4) . . .
67(4) . . .
65(4) . . .
57(4) . . .
56(4) . . .
64(4) . . .
52(4) . . .
54(4) . . .
56(4) . . .
47.0(35) . . .
52(4) . . .
60(4) . . .
51(4) . . .
53(4) . . .
57(4) . . .
57(4) . . .
57(4) . . .
55(4) . . .
61(4) . . .
68(4) . . .
48(4) . . .
49(4) . . .
53(4) . . .
50(4) . . .
45(4) . . .
57(4) . . .
57(4) . . .
60(4) . . .
53(4) . . .
60(4) . . .
52(4) . . .
62(4) . . .
49(4) . . .
55(4) . . .
56(4) . . .
48(4) . . .
61(4) . . .
64(4) . . .
58(4) . . .
65(4) . . .
45(4) . . .
58(4) . . .
60(4) . . .
63(4) . . .
55(4) . . .
59(4) . . .
68(4) . . .
65(4) . . .
52(4) . . .
54(4) . . .
62(4) . . .
55(4) . . .
55(4) . . .
52(4) . . .
54(4) . . .
59(4) . . .
61(4) . . .
58(4) . . .
58(4) . . .
55(4) . . .
52(4) . . .
58(4) . . .
49(4) . . .
49(4) . . .
57(4) . . .
60(4) . . .
54(4) . . .
54(4) . . .
67(4) . . .
61(4) . . .
58(4) . . .
50(4) . . .
57(4) . . .
63(4) . . .
54(4) . . .
57(4) . . .
56(4) . . .
66(4) . . .
56(4) . . .
58(4) . . .
52(4) . . .
57(4) . . .
57(4) . . .
60(4) . . .
55(4) . . .
64(4) . . .
62(4) . . .
50(4) . . .
44.4(35) . . .
58(4) . . .
64(4) . . .
60(4) . . .
60(4) . . .
64(4) . . .
63(4) . . .
56(4) . . .
62(4) . . .
58(4) . . .
60(4) . . .
59(4) . . .
45(4) . . .
49(4) . . .
61(4) . . .
39.6(33) . . .
49(4) . . .
75(5) . . .
60(4) . . .
49(4) . . .
60(4) . . .
59(4) . . .
59(4) . . .
68(4) . . .
54(4) . . .
57(4) . . .
54(4) . . .
57(4) . . .
60(4) . . .
61(4) . . .
48(4) . . .
53(4) . . .
50(4) . . .
53(4) . . .
52(4) . . .
54(4) . . .
54(4) . . .
44.3(35) . . .
49(4) . . .
53(4) . . .
53(4) . . .
59(4) . . .
51(4) . . .
62(4) . . .
51(4) . . .
50(4) . . .
53(4) . . .
53(4) . . .
53(4) . . .
56(4) . . .
51(4) . . .
59(4) . . .
55(4) . . .
50(4) . . .
57(4) . . .
60(4) . . .
60(4) . . .
52(4) . . .
62(4) . . .
63(4) . . .
54(4) . . .
54(4) . . .
54(4) . . .
48(4) . . .
50(4) . . .
64(4) . . .
59(4) . . .
57(4) . . .
56(4) . . .
61(4) . . .
63(5) . . .
50(4) . . .
63(4) . . .
60(4) . . .
55(4) . . .
56(4) . . .
58(4) . . .
64(4) . . .
56(4) . . .
57(4) . . .
60(4) . . .
51(4) . . .
57(4) . . .
52(4) . . .
55(4) . . .
58(4) . . .
62(4) . . .
58(4) . . .
52(4) . . .
61(4) . . .
69(5) . . .
65(4) . . .
52(4) . . .
55(4) . . .
61(5) . . .
54(4) . . .
57(4) . . .
51(4) . . .
49(4) . . .
54(4) . . .
65(4) . . .
60(4) . . .
62(4) . . .
56(4) . . .
57(4) . . .
60(4) . . .
46.5(35) . . .
56(4) . . .
64(4) . . .
53(4) . . .
53(4) . . .
57(4) . . .
61(4) . . .
55(4) . . .
56(4) . . .
60(4) . . .
60(4) . . .
46.2(35) . . .
57(4) . . .
56(4) . . .
57(4) . . .
55(4) . . .
57(4) . . .
62(4) . . .
61(4) . . .
65(4) . . .
56(4) . . .
57(4) . . .
59(4) . . .
51(4) . . .
67(5) . . .
61(4) . . .
61(4) . . .
54(4) . . .
55(4) . . .
53(4) . . .
52(4) . . .
48(4) . . .
52(4) . . .
54(4) . . .
37.0(33) . . .
61(4) . . .
49(4) . . .
57(4) . . .
57(4) . . .
52(4) . . .
61(4) . . .
59(4) . . .
57(4) . . .
68(4) . . .
61(4) . . .
63(4) . . .
62(4) . . .
58(4) . . .
58(4) . . .
54(4) . . .
55(4) . . .
63(4) . . .
60(4) . . .
52(4) . . .
58(4) . . .
51(4) . . .
53(4) . . .
49(4) . . .
53(4) . . .
63(4) . . .
66(4) . . .
56(4) . . .
57(4) . . .
58(4) . . .
48(4) . . .
65(4) . . .
50(4) . . .
56(4) . . .
60(4) . . .
62(4) . . .
68(4) . . .
56(4) . . .
56(4) . . .
59(4) . . .
53(4) . . .
57(4) . . .
58(4) . . .
53(4) . . .
44(4) . . .
53(4) . . .
68(4) . . .
65(4) . . .
50(4) . . .
53(4) . . .
62(4) . . .
65(4) . . .
61(4) . . .
61(4) . . .
65(4) . . .
68(4) . . .
59(4) . . .
51(4) . . .
66(4) . . .
68(4) . . .
60(4) . . .
58(4) . . .
52(4) . . .
51(4) . . .
53(4) . . .
64(4) . . .
56(4) . . .
51(4) . . .
61(4) . . .
60(4) . . .
57(4) . . .
51(4) . . .
58(4) . . .
66(4) . . .
61(4) . . .
54(4) . . .
54(4) . . .
59(4) . . .
66(4) . . .
52(4) . . .
51(4) . . .
46(4) . . .
47(4) . . .
59(4) . . .
58(4) . . .
56(4) . . .
62(4) . . .
57(4) . . .
60(4) . . .
60(4) . . .
57(4) . . .
49(4) . . .
45(4) . . .
58(4) . . .
54(4) . . .
62(4) . . .
69(4) . . .
50(4) . . .
51(4) . . .
61(4) . . .
52(4) . . .
51(4) . . .
70(5) . . .
62(4) . . .
63(4) . . .
54(4) . . .
50(4) . . .
44(4) . . .
57(4) . . .
61(4) . . .
43.6(34) . . .
60(4) . . .
51(4) . . .
62(4) . . .
59(4) . . .
64(4) . . .
54(4) . . .
49(4) . . .
65(4) . . .
57(4) . . .
51(4) . . .
47(4) . . .
49(4) . . .
57(4) . . .
52(4) . . .
59(4) . . .
61(4) . . .
62(5) . . .
41.8(34) . . .
54(4) . . .
59(4) . . .
65(4) . . .
63(4) . . .
55(4) . . .
54(4) . . .
61(4) . . .
69(5) . . .
49(4) . . .
60(4) . . .
59(4) . . .
65(4) . . .
54(4) . . .
54(4) . . .
67(4) . . .
60(4) . . .
55(4) . . .
53(4) . . .
58(4) . . .
58(4) . . .
68(4) . . .
68(5) . . .
56(4) . . .
66(4) . . .
56(4) . . .
55(4) . . .
59(4) . . .
52(4) . . .
64(4) . . .
59(4) . . .
61(4) . . .
56(4) . . .
56(4) . . .
57(4) . . .
67(4) . . .
62(4) . . .
52(4) . . .
56(4) . . .
60(4) . . .
64(4) . . .
64(4) . . .
62(4) . . .
51(4) . . .
52(4) . . .
62(4) . . .
69(5) . . .
60(4) . . .
57(4) . . .
65(4) . . .
51(4) . . .
58(4) . . .
54(4) . . .
63(4) . . .
61(4) . . .
55(4) . . .
50(4) . . .
57(4) . . .
56(4) . . .
61(4) . . .
68(4) . . .
61(4) . . .
59(4) . . .
61(4) . . .
56(4) . . .
62(4) . . .
54(4) . . .
59(4) . . .
63(4) . . .
64(4) . . .
62(4) . . .
55(4) . . .
52(4) . . .
63(4) . . .
61(4) . . .
50(4) . . .
67(5) . . .
56(4) . . .
60(4) . . .
56(4) . . .
52(4) . . .
66(4) . . .
65(4) . . .
45(4) . . .
51(4) . . .
50(4) . . .
54(4) . . .
63(4) . . .
51(4) . . .
54(4) . . .
46(4) . . .
50(4) . . .
55(4) . . .
57(4) . . .
57(4) . . .
58(4) . . .
61(4) . . .
61(4) . . .
52(4) . . .
45.9(35) . . .
58(4) . . .
69(5) . . .
55(4) . . .
61(4) . . .
53(4) . . .
52(4) . . .
50(4) . . .
70(4) . . .
66(4) . . .
52(4) . . .
51(4) . . .
42.4(34) . . .
50(4) . . .
52(4) . . .
57(4) . . .
61(4) . . .
53(4) . . .
64(4) . . .
54(4) . . .
62(4) . . .
69(4) . . .
63(4) . . .
56(4) . . .
64(4) . . .
67(4) . . .
57(4) . . .
61(4) . . .
56(4) . . .
56(4) . . .
65(5) . . .
62(4) . . .
63(4) . . .
62(4) . . .
61(4) . . .
55(4) . . .
56(4) . . .
66(4) . . .
60(4) . . .
64(4) . . .
55(4) . . .
53(4) . . .
61(4) . . .
59(4) . . .
49(4) . . .
63(4) . . .
55(4) . . .
55(4) . . .
66(4) . . .
54(4) . . .
57(4) . . .
63(4) . . .
64(4) . . .
51(4) . . .
61(4) . . .
56(4) . . .
59(4) . . .
64(4) . . .
66(4) . . .
65(4) . . .
57(4) . . .
59(4) . . .
52(4) . . .
53(4) . . .
64(4) . . .
54(4) . . .
49(4) . . .
52(4) . . .
52(4) . . .
47(4) . . .
57(4) . . .
51(4) . . .
47(4) . . .
59(4) . . .
56(4) . . .
65(5) . . .
61(4) . . .
53(4) . . .
60(4) . . .
51(4) . . .
46(4) . . .
57(4) . . .
54(4) . . .
62(4) . . .
67(4) . . .
65(4) . . .
49(4) . . .
62(4) . . .
55(4) . . .
70(5) . . .
56(4) . . .
52(4) . . .
62(4) . . .
56(4) . . .
62(4) . . .
61(4) . . .
55(4) . . .
55(4) . . .
56(4) . . .
62(4) . . .
64(4) . . .
70(4) . . .
56(4) . . .
56(4) . . .
56(4) . . .
54(4) . . .
70(4) . . .
56(4) . . .
64(4) . . .
58(4) . . .
49(4) . . .
49(4) . . .
49(4) . . .
65(4) . . .
56(4) . . .
57(4) . . .
59(4) . . .
51(4) . . .
61(4) . . .
55(4) . . .
52(4) . . .
52(4) . . .
58(4) . . .
64(4) . . .
57(4) . . .
55(4) . . .
55(4) . . .
49(4) . . .
60(4) . . .
53(4) . . .
59(4) . . .
59(4) . . .
43.1(34) . . .
64(4) . . .
55(4) . . .
56(4) . . .
53(4) . . .
57(4) . . .
56(4) . . .
65(5) . . .
49(4) . . .
54(4) . . .
45(4) . . .
43.9(34) . . .
55(4) . . .
50(4) . . .
50(4) . . .
58(4) . . .
55(4) . . .
51(4) . . .
69(5) . . .
67(4) . . .
55(4) . . .
62(4) . . .
55(4) . . .
51(4) . . .
52(4) . . .
52(4) . . .
51(4) . . .
62(4) . . .
56(4) . . .
51(4) . . .
48(4) . . .
55(4) . . .
60(4) . . .
65(4) . . .
43.5(34) . . .
59(4) . . .
52(4) . . .
59(4) . . .
60(4) . . .
52(4) . . .
54(4) . . .
54(4) . . .
57(4) . . .
51(4) . . .
51(4) . . .
56(4) . . .
59(4) . . .
44(4) . . .
50(4) . . .
54(4) . . .
68(4) . . .
50(4) . . .
37.5(31) . . .
51(4) . . .
58(4) . . .
57(4) . . .
50(4) . . .
61(4) . . .
53(4) . . .
53(4) . . .
53(4) . . .
59(5) . . .
53(4) . . .
62(4) . . .
62(4) . . .
52(4) . . .
57(4) . . .
57(4) . . .
56(4) . . .
61(4) . . .
51(4) . . .
55(4) . . .
50(4) . . .
56(4) . . .
59(4) . . .
57(4) . . .
63(4) . . .
58(4) . . .
60(4) . . .
58(4) . . .
52(4) . . .
54(4) . . .
54(4) . . .
59(4) . . .
54(4) . . .
50(4) . . .
58(4) . . .
58(4) . . .
53(4) . . .
56(4) . . .
60(4) . . .
62(4) . . .
60(4) . . .
53(4) . . .
54(4) . . .
60(4) . . .
54(4) . . .
56(4) . . .
55(4) . . .
54(4) . . .
61(4) . . .
63(4) . . .
57(4) . . .
67(4) . . .
57(4) . . .
59(4) . . .
63(4) . . .
51(4) . . .
61(4) . . .
61(4) . . .
54(4) . . .
55(4) . . .
55(4) . . .
51(4) . . .
50(4) . . .
58(4) . . .
57(4) . . .
59(4) . . .
51(4) . . .
57(4) . . .
58(4) . . .
53(4) . . .
62(4) . . .
62(4) . . .
58(4) . . .
51(4) . . .
54(4) . . .
63(4) . . .
53(4) . . .
52(4) . . .
55(4) . . .
60(4) . . .
65(4) . . .
57(4) . . .
56(4) . . .
53(4) . . .
60(4) . . .
55(4) . . .
58(4) . . .
47(4) . . .
49(4) . . .
52(4) . . .
65(4) . . .
52(4) . . .
66(5) . . .
57(4) . . .
50(4) . . .
67(4) . . .
56(4) . . .
49(4) . . .
46(4) . . .
59(4) . . .
50(4) . . .
50(4) . . .
60(4) . . .
63(4) . . .
58(4) . . .
58(4) . . .
57(4) . . .
61(4) . . .
50(4) . . .
64(4) . . .
44.7(35) . . .
57(4) . . .
54(4) . . .
57(4) . . .
63(4) . . .
55(4) . . .
67(4) . . .
52(4) . . .
58(4) . . .
56(4) . . .
49(4) . . .
64(4) . . .
57(4) . . .
58(4) . . .
52(4) . . .
54(4) . . .
58(4) . . .
57(4) . . .
59(4) . . .
44.4(34) . . .
46(4) . . .
71(5) . . .
66(4) . . .
67(4) . . .
59(4) . . .
61(4) . . .
59(4) . . .
45.7(35) . . .
73(5) . . .
49(4) . . .
54(4) . . .
47(4) . . .
61(4) . . .
49(4) . . .
63(4) . . .
61(4) . . .
66(5) . . .
57(4) . . .
61(4) . . .
54(4) . . .
54(4) . . .
55(4) . . .
57(4) . . .
53(4) . . .
58(4) . . .
48(4) . . .
57(4) . . .
56(4) . . .
60(4) . . .
55(4) . . .
60(4) . . .
59(4) . . .
43.6(34) . . .
56(4) . . .
57(4) . . .
58(4) . . .
53(4) . . .
51(4) . . .
44(4) . . .
60(4) . . .
60(4) . . .
55(4) . . .
56(4) . . .
67(4) . . .
55(4) . . .
54(4) . . .
52(4) . . .
55(4) . . .
53(4) . . .
51(4) . . .
55(4) . . .
47(4) . . .
63(4) . . .
63(4) . . .
58(4) . . .
57(4) . . .
43(4) . . .
48(4) . . .
60(4) . . .
71(5) . . .
57(4) . . .
61(4) . . .
59(4) . . .
54(4) . . .
48(4) . . .
56(4) . . .
56(4) . . .
59(4) . . .
58(4) . . .
63(4) . . .
55(4) . . .
57(4) . . .
61(4) . . .
55(4) . . .
44.5(34) . . .
61(4) . . .
53(4) . . .
51(4) . . .
57(4) . . .
48(4) . . .
58(4) . . .
61(4) . . .
55(4) . . .
46(4) . . .
55(4) . . .
53(4) . . .
53(4) . . .
47(4) . . .
56(4) . . .
44.4(35) . . .
56(4) . . .
61(4) . . .
53(4) . . .
57(4) . . .
56(4) . . .
52(4) . . .
52(4) . . .
59(4) . . .
52(4) . . .
51(4) . . .
55(4) . . .
52(4) . . .
52(4) . . .
53(4) . . .
67(4) . . .
49(4) . . .
50(4) . . .
51(4) . . .
54(4) . . .
52(4) . . .
49(4) . . .
41.6(34) . . .
42.8(34) . . .
52(4) . . .
52(4) . . .
52(4) . . .
63(4) . . .
67(4) . . .
62(4) . . .
60(4) . . .
56(4) . . .
54(4) . . .
60(4) . . .
79(5) . . .
61(4) . . .
71(4) . . .
53(4) . . .
53(4) . . .
51(4) . . .
55(4) . . .
61(4) . . .
62(4) . . .
50(4) . . .
52(4) . . .
62(4) . . .
56(4) . . .
48(4) . . .
60(4) . . .
60(4) . . .
56(4) . . .
48(4) . . .
52(4) . . .
58(4) . . .
63(4) . . .
58(4) . . .
60(4) . . .
59(4) . . .
52(4) . . .
51(4) . . .
55(4) . . .
61(4) . . .
54(4) . . .
57(4) . . .
51(4) . . .
46(4) . . .
65(4) . . .
53(4) . . .
49(4) . . .
59(4) . . .
54(4) . . .
55(4) . . .
61(4) . . .
58(4) . . .
53(4) . . .
67(4) . . .
53(4) . . .
59(4) . . .
57(4) . . .
55(4) . . .
52(4) . . .
51(4) . . .
55(4) . . .
72(5) . . .
53(4) . . .
51(4) . . .
64(4) . . .
69(4) . . .
55(4) . . .
55(4) . . .
54(4) . . .
56(4) . . .
54(4) . . .
52(4) . . .
59(4) . . .
57(4) . . .
51(4) . . .
67(4) . . .
59(4) . . .
50(4) . . .
47(4) . . .
65(4) . . .
67(4) . . .
63(4) . . .
62(4) . . .
61(4) . . .
58(4) . . .
64(4) . . .
57(4) . . .
58(4) . . .
54(4) . . .
53(4) . . .
50(4) . . .
47(4) . . .
62(4) . . .
57(4) . . .
58(4) . . .
62(4) . . .
58(4) . . .
70(5) . . .
54(4) . . .
56(4) . . .
49(4) . . .
55(4) . . .
45(4) . . .
56(4) . . .
60(4) . . .
65(4) . . .
59(4) . . .
52(4) . . .
62(4) . . .
52(4) . . .
53(4) . . .
56(4) . . .
45.6(35) . . .
66(4) . . .
63(4) . . .
51(4) . . .
65(4) . . .
60(4) . . .
53(4) . . .
51(4) . . .
59(4) . . .
62(4) . . .
57(4) . . .
58(4) . . .
58(4) . . .
65(4) . . .
55(4) . . .
58(4) . . .
61(4) . . .
60(4) . . .
56(4) . . .
44(4) . . .
53(4) . . .
53(4) . . .
52(4) . . .
50(4) . . .
58(4) . . .
58(4) . . .
59(4) . . .
49(4) . . .
55(4) . . .
62(4) . . .
48(4) . . .
53(4) . . .
58(4) . . .
55(4) . . .
65(5) . . .
54(4) . . .
65(4) . . .
59(4) . . .
63(4) . . .
51(4) . . .
50(4) . . .
58(4) . . .
67(4) . . .
60(4) . . .
54(4) . . .
54(4) . . .
62(4) . . .
56(4) . . .
53(4) . . .
51(4) . . .
54(4) . . .
48(4) . . .
52(4) . . .
53(4) . . .
56(4) . . .
62(4) . . .
61(4) . . .
48(4) . . .
61(4) . . .
54(4) . . .
53(4) . . .
51(4) . . .
52(4) . . .
45(4) . . .
46(4) . . .
55(4) . . .
71(5) . . .
52(4) . . .
53(4) . . .
53(4) . . .
55(4) . . .
56(4) . . .
52(4) . . .
66(5) . . .
54(4) . . .
49(4) . . .
48(4) . . .
48(4) . . .
56(4) . . .
55(4) . . .
51(4) . . .
50(4) . . .
60(4) . . .
48(4) . . .
59(4) . . .
59(4) . . .
62(4) . . .
61(4) . . .
48(4) . . .
52(4) . . .
59(4) . . .
51(4) . . .
66(5) . . .
60(4) . . .
66(4) . . .
50(4) . . .
53(4) . . .
51(4) . . .
55(4) . . .
51(4) . . .
60(4) . . .
53(4) . . .
61(4) . . .
60(4) . . .
59(4) . . .
52(4) . . .
57(4) . . .
63(4) . . .
55(4) . . .
60(4) . . .
57(4) . . .
62(4) . . .
58(4) . . .
60(4) . . .
52(4) . . .
63(4) . . .
57(4) . . .
49(4) . . .
46(4) . . .
57(4) . . .
61(4) . . .
64(4) . . .
56(4) . . .
60(4) . . .
53(4) . . .
52(4) . . .
55(4) . . .
65(4) . . .
56(4) . . .
53(4) . . .
54(4) . . .
56(4) . . .
61(4) . . .
60(4) . . .
61(4) . . .
53(4) . . .
53(4) . . .
50(4) . . .
52(4) . . .
51(4) . . .
50(4) . . .
57(4) . . .
52(4) . . .
59(4) . . .
53(4) . . .
53(4) . . .
63(4) . . .
52(4) . . .
50(4) . . .
44.2(35) . . .
46(4) . . .
60(4) . . .
56(4) . . .
49(4) . . .
47(4) . . .
53(4) . . .
56(4) . . .
52(4) . . .
55(4) . . .
53(4) . . .
46(4) . . .
47(4) . . .
57(4) . . .
53(4) . . .
51(4) . . .
50(4) . . .
55(4) . . .
57(4) . . .
49(4) . . .
57(4) . . .
53(4) . . .
50(4) . . .
60(4) . . .
56(4) . . .
55(4) . . .
60(4) . . .
50(4) . . .
57(4) . . .
56(4) . . .
63(4) . . .
56(4) . . .
54(4) . . .
54(4) . . .
44.5(35) . . .
46(4) . . .
55(4) . . .
60(4) . . .
46(4) . . .
62(4) . . .
54(4) . . .
58(4) . . .
55(4) . . .
53(4) . . .
55(4) . . .
57(4) . . .
54(4) . . .
58(4) . . .
54(4) . . .
58(4) . . .
66(4) . . .
60(4) . . .
55(4) . . .
57(4) . . .
56(4) . . .
46(4) . . .
64(5) . . .
53(4) . . .
65(4) . . .
55(4) . . .
58(4) . . .
57(4) . . .
54(4) . . .
55(4) . . .
56(4) . . .
49(4) . . .
50(4) . . .
62(4) . . .
57(4) . . .
55(4) . . .
53(4) . . .
62(4) . . .
58(4) . . .
64(4) . . .
66(4) . . .
55(4) . . .
49(4) . . .
57(4) . . .
60(4) . . .
68(4) . . .
58(4) . . .
50(4) . . .
63(4) . . .
56(4) . . .
49(4) . . .
54(4) . . .
52(4) . . .
61(4) . . .
53(4) . . .
63(4) . . .
56(4) . . .
57(4) . . .
56(4) . . .
58(4) . . .
56(4) . . .
64(4) . . .
58(4) . . .
47(4) . . .
58(4) . . .
70(4) . . .
62(4) . . .
51(4) . . .
63(4) . . .
68(4) . . .
57(4) . . .
53(4) . . .
46(4) . . .
51(4) . . .
52(4) . . .
43.4(35) . . .
61(4) . . .
59(4) . . .
55(4) . . .
54(4) . . .
56(4) . . .
58(4) . . .
60(4) . . .
55(4) . . .
52(4) . . .
52(4) . . .
66(5) . . .
61(4) . . .
64(4) . . .
59(4) . . .
56(4) . . .
65(5) . . .
52(4) . . .
48(4) . . .
61(4) . . .
49(4) . . .
44(4) . . .
52(4) . . .
60(4) . . .
65(4) . . .
59(4) . . .
51(4) . . .
60(4) . . .
47(4) . . .
48(4) . . .
62(4) . . .
62(4) . . .
56(4) . . .
53(4) . . .
60(4) . . .
59(4) . . .
50(4) . . .
51(4) . . .
54(4) . . .
47(4) . . .
54(4) . . .
57(4) . . .
58(4) . . .
57(4) . . .
68(4) . . .
60(4) . . .
54(4) . . .
65(4) . . .
55(4) . . .
58(4) . . .
52(4) . . .
55(4) . . .
65(4) . . .
51(4) . . .
57(4) . . .
56(4) . . .
63(4) . . .
63(4) . . .
56(4) . . .
59(4) . . .
54(4) . . .
52(4) . . .
53(4) . . .
51(4) . . .
41.8(33) . . .
53(4) . . .
60(4) . . .
52(4) . . .
58(4) . . .
46(4) . . .
59(4) . . .
65(4) . . .
59(4) . . .
55(4) . . .
59(4) . . .
52(4) . . .
64(4) . . .
65(4) . . .
51(4) . . .
61(4) . . .
60(4) . . .
49(4) . . .
55(4) . . .
56(4) . . .
57(4) . . .
52(4) . . .
61(4) . . .
45.0(35) . . .
54(4) . . .
45(4) . . .
43.3(34) . . .
49(4) . . .
55(4) . . .
62(4) . . .
64(5) . . .
55(4) . . .
48(4) . . .
64(4) . . .
71(5) . . .
58(4) . . .
55(4) . . .
57(4) . . .
57(4) . . .
61(4) . . .
54(4) . . .
65(4) . . .
59(4) . . .
50(4) . . .
57(4) . . .
57(4) . . .
56(4) . . .
54(4) . . .
48(4) . . .
58(4) . . .
59(4) . . .
53(4) . . .
52(4) . . .
45.0(35) . . .
56(4) . . .
68(4) . . .
60(4) . . .
52(4) . . .
54(4) . . .
62(4) . . .
59(4) . . .
75(5) . . .
56(4) . . .
54(4) . . .
45(4) . . .
62(4) . . .
55(4) . . .
57(4) . . .
62(4) . . .
52(4) . . .
59(4) . . .
60(4) . . .
63(4) . . .
50(4) . . .
58(4) . . .
60(4) . . .
47(4) . . .
61(4) . . .
57(4) . . .
53(4) . . .
51(4) . . .
55(4) . . .
47(4) . . .
47(4) . . .
55(4) . . .
67(4) . . .
53(4) . . .
72(4) . . .
63(4) . . .
62(4) . . .
65(4) . . .
61(4) . . .
51(4) . . .
49(4) . . .
62(5) . . .
60(4) . . .
60(4) . . .
54(4) . . .
59(4) . . .
63(4) . . .
62(4) . . .
54(4) . . .
62(4) . . .
59(4) . . .
53(4) . . .
64(4) . . .
47(4) . . .
51(4) . . .
59(4) . . .
60(4) . . .
56(4) . . .
63(4) . . .
54(4) . . .
61(4) . . .
61(4) . . .
57(4) . . .
46(4) . . .
46(4) . . .
61(4) . . .
63(4) . . .
53(4) . . .
57(4) . . .
53(4) . . .
55(4) . . .
59(4) . . .
52(4) . . .
58(4) . . .
64(4) . . .
55(4) . . .
49(4) . . .
52(4) . . .
47(4) . . .
58(4) . . .
48(4) . . .
50(4) . . .
61(4) . . .
55(4) . . .
54(4) . . .
45(4) . . .
49(4) . . .
56(4) . . .
56(4) . . .
65(4) . . .
56(4) . . .
55(4) . . .
56(4) . . .
63(4) . . .
67(4) . . .
65(4) . . .
64(4) . . .
68(4) . . .
65(4) . . .
53(4) . . .
55(4) . . .
73(5) . . .
54(4) . . .
61(4) . . .
55(4) . . .
63(4) . . .
52(4) . . .
55(4) . . .
52(4) . . .
61(4) . . .
54(4) . . .
68(4) . . .
56(4) . . .
58(4) . . .
55(4) . . .
62(4) . . .
59(4) . . .
63(4) . . .
55(4) . . .
49(4) . . .
61(4) . . .
64(4) . . .
63(4) . . .
70(5) . . .
60(4) . . .
59(4) . . .
63(4) . . .
52(4) . . .
52(4) . . .
51(4) . . .
62(4) . . .
47(4) . . .
59(4) . . .
59(4) . . .
49(4) . . .
56(4) . . .
56(4) . . .
62(4) . . .
49(4) . . .
43(4) . . .
47(4) . . .
54(4) . . .
59(4) . . .
57(4) . . .
46(4) . . .
61(4) . . .
56(4) . . .
57(4) . . .
45.9(35) . . .
62(4) . . .
60(4) . . .
60(4) . . .
54(4) . . .
57(4) . . .
55(4) . . .
55(4) . . .
48(4) . . .
69(5) . . .
59(4) . . .
59(4) . . .
53(4) . . .
52(4) . . .
61(4) . . .
51(4) . . .
60(4) . . .
62(4) . . .
48(4) . . .
63(4) . . .
53(4) . . .
62(4) . . .
61(4) . . .
62(4) . . .
60(4) . . .
67(4) . . .
53(4) . . .
53(4) . . .
58(4) . . .
65(4) . . .
57(4) . . .
60(4) . . .
58(4) . . .
63(4) . . .
57(4) . . .
53(4) . . .
53(4) . . .
46(4) . . .
53(4) . . .
55(4) . . .
54(4) . . .
52(4) . . .
66(4) . . .
71(4) . . .
51(4) . . .
53(4) . . .
56(4) . . .
48(4) . . .
51(4) . . .
50(4) . . .
48(4) . . .
60(4) . . .
54(4) . . .
65(4) . . .
54(4) . . .
51(4) . . .
57(4) . . .
47(4) . . .
45(4) . . .
58(4) . . .
57(4) . . .
56(4) . . .
53(4) . . .
54(4) . . .
54(4) . . .
64(4) . . .
50(4) . . .
57(4) . . .
48(4) . . .
59(4) . . .
53(4) . . .
52(4) . . .
52(4) . . .
48(4) . . .
61(4) . . .
57(4) . . .
55(4) . . .
54(4) . . .
60(4) . . .
62(4) . . .
66(4) . . .
58(4) . . .
50(4) . . .
69(5) . . .
54(4) . . .
49(4) . . .
57(4) . . .
51(4) . . .
51(4) . . .
51(4) . . .
55(4) . . .
45(4) . . .
56(4) . . .
53(4) . . .
60(4) . . .
46(4) . . .
56(4) . . .
64(4) . . .
56(4) . . .
54(4) . . .
64(4) . . .
60(4) . . .
54(4) . . .
52(4) . . .
46(4) . . .
46(4) . . .
66(4) . . .
57(4) . . .
56(4) . . .
51(4) . . .
53(4) . . .
48(4) . . .
50(4) . . .
60(4) . . .
60(4) . . .
52(4) . . .
57(4) . . .
47(4) . . .
50(4) . . .
55(4) . . .
62(4) . . .
42.5(34) . . .
54(4) . . .
58(4) . . .
55(4) . . .
59(4) . . .
49(4) . . .
54(4) . . .
53(4) . . .
62(4) . . .
53(4) . . .
53(4) . . .
47(4) . . .
48(4) . . .
64(4) . . .
58(4) . . .
62(4) . . .
62(4) . . .
57(4) . . .
53(4) . . .
59(4) . . .
55(4) . . .
63(4) . . .
56(4) . . .
58(4) . . .
58(4) . . .
52(4) . . .
59(4) . . .
65(4) . . .
58(4) . . .
60(4) . . .
53(4) . . .
43.0(34) . . .
49(4) . . .
57(4) . . .
55(4) . . .
50(4) . . .
60(4) . . .
56(4) . . .
53(4) . . .
57(4) . . .
55(4) . . .
51(4) . . .
57(4) . . .
60(4) . . .
62(4) . . .
68(4) . . .
69(5) . . .
64(4) . . .
61(4) . . .
56(4) . . .
59(4) . . .
52(4) . . .
50(4) . . .
52(4) . . .
56(4) . . .
56(4) . . .
51(4) . . .
49(4) . . .
45.4(35) . . .
56(4) . . .
51(4) . . .
66(5) . . .
63(4) . . .
52(4) . . .
62(4) . . .
63(4) . . .
49(4) . . .
56(4) . . .
48(4) . . .
58(4) . . .
56(4) . . .
50(4) . . .
55(4) . . .
55(4) . . .
60(4) . . .
57(4) . . .
44.0(35) . . .
56(4) . . .
49(4) . . .
53(4) . . .
49(4) . . .
56(4) . . .
57(4) . . .
53(4) . . .
65(4) . . .
67(5) . . .
54(4) . . .
52(4) . . .
57(4) . . .
59(4) . . .
56(4) . . .
59(4) . . .
57(4) . . .
57(4) . . .
50(4) . . .
54(4) . . .
65(4) . . .
59(4) . . .
60(4) . . .
52(4) . . .
59(4) . . .
50(4) . . .
57(4) . . .
58(4) . . .
62(4) . . .
51(4) . . .
58(4) . . .
52(4) . . .
67(4) . . .
57(4) . . .
58(4) . . .
53(4) . . .
56(4) . . .
62(4) . . .
45.9(34) . . .
67(5) . . .
58(4) . . .
64(4) . . .
66(4) . . .
48(4) . . .
59(4) . . .
50(4) . . .
52(4) . . .
60(4) . . .
57(4) . . .
58(4) . . .
54(4) . . .
60(4) . . .
56(4) . . .
61(4) . . .
60(4) . . .
60(4) . . .
57(4) . . .
61(4) . . .
52(4) . . .
56(4) . . .
57(4) . . .
57(4) . . .
44.2(35) . . .
54(4) . . .
49(4) . . .
61(4) . . .
60(4) . . .
70(4) . . .
60(4) . . .
60(4) . . .
53(4) . . .
61(4) . . .
58(4) . . .
59(4) . . .
56(4) . . .
54(4) . . .
63(4) . . .
63(4) . . .
57(4) . . .
58(4) . . .
64(4) . . .
60(4) . . .
62(4) . . .
62(4) . . .
57(4) . . .
63(4) . . .
49(4) . . .
60(4) . . .
61(4) . . .
57(4) . . .
56(4) . . .
58(4) . . .
50(4) . . .
57(4) . . .
55(4) . . .
54(4) . . .
53(4) . . .
52(4) . . .
53(4) . . .
63(4) . . .
57(4) . . .
59(4) . . .
57(4) . . .
60(4) . . .
54(4) . . .
57(4) . . .
56(4) . . .
60(4) . . .
60(4) . . .
62(4) . . .
54(4) . . .
68(4) . . .
52(4) . . .
65(4) . . .
60(4) . . .
58(4) . . .
63(4) . . .
60(4) . . .
50(4) . . .
50(4) . . .
55(4) . . .
56(4) . . .
55(4) . . .
51(4) . . .
51(4) . . .
50(4) . . .
54(4) . . .
57(4) . . .
52(4) . . .
55(4) . . .
72(4) . . .
54(4) . . .
57(4) . . .
50(4) . . .
54(4) . . .
50(4) . . .
51(4) . . .
59(4) . . .
58(4) . . .
56(4) . . .
50(4) . . .
48(4) . . .
57(4) . . .
63(4) . . .
56(4) . . .
48(4) . . .
60(4) . . .
56(4) . . .
52(4) . . .
54(4) . . .
48(4) . . .
54(4) . . .
65(5) . . .
64(4) . . .
57(4) . . .
61(4) . . .
58(4) . . .
50(4) . . .
43(4) . . .
63(4) . . .
61(4) . . .
63(4) . . .
54(4) . . .
45(4) . . .
52(4) . . .
46(4) . . .
50(4) . . .
59(4) . . .
67(4) . . .
60(4) . . .
61(4) . . .
51(4) . . .
50(4) . . .
56(4) . . .
58(4) . . .
57(4) . . .
58(4) . . .
63(4) . . .
55(4) . . .
59(4) . . .
56(4) . . .
56(4) . . .
57(4) . . .
45.9(35) . . .
51(4) . . .
56(4) . . .
55(4) . . .
56(4) . . .
61(4) . . .
44(4) . . .
60(4) . . .
60(4) . . .
52(4) . . .
44.7(34) . . .
59(4) . . .
58(4) . . .
54(4) . . .
57(4) . . .
56(4) . . .
55(4) . . .
61(4) . . .
51(4) . . .
55(4) . . .
54(4) . . .
54(4) . . .
47(4) . . .
55(4) . . .
47(4) . . .
50(4) . . .
58(4) . . .
55(4) . . .
53(4) . . .
53(4) . . .
62(4) . . .
68(4) . . .
50(4) . . .
50(4) . . .
60(4) . . .
60(4) . . .
48(4) . . .
54(4) . . .
55(4) . . .
58(4) . . .
50(4) . . .
53(4) . . .
48(4) . . .
51(4) . . .
60(4) . . .
59(4) . . .
42.0(34) . . .
49(4) . . .
57(4) . . .
56(4) . . .
50(4) . . .
64(4) . . .
64(4) . . .
54(4) . . .
55(4) . . .
62(4) . . .
58(4) . . .
61(4) . . .
55(4) . . .
59(4) . . .
54(4) . . .
48(4) . . .
56(4) . . .
62(4) . . .
56(4) . . .
44.7(35) . . .
59(4) . . .
52(4) . . .
63(4) . . .
63(4) . . .
48(4) . . .
61(4) . . .
48(4) . . .
55(4) . . .
59(4) . . .
70(5) . . .
60(4) . . .
55(4) . . .
56(4) . . .
56(4) . . .
49(4) . . .
62(4) . . .
64(4) . . .
56(4) . . .
56(4) . . .
51(4) . . .
52(4) . . .
56(4) . . .
60(4) . . .
66(4) . . .
48(4) . . .
58(4) . . .
56(4) . . .
70(5) . . .
58(4) . . .
62(4) . . .
60(4) . . .
55(4) . . .
58(4) . . .
67(4) . . .
53(4) . . .
49(4) . . .
48(4) . . .
48(4) . . .
51(4) . . .
58(4) . . .
60(4) . . .
61(4) . . .
50(4) . . .
46.1(35) . . .
60(4) . . .
61(4) . . .
56(4) . . .
66(4) . . .
68(4) . . .
45.5(35) . . .
58(4) . . .
54(4) . . .
45(4) . . .
50(4) . . .
49(4) . . .
49(4) . . .
55(4) . . .
67(5) . . .
67(4) . . .
53(4) . . .
58(4) . . .
49(4) . . .
57(4) . . .
64(4) . . .
47(4) . . .
52(4) . . .
55(4) . . .
65(4) . . .
63(4) . . .
62(4) . . .
53(4) . . .
54(4) . . .
48(4) . . .
49(4) . . .
42.7(35) . . .
55(4) . . .
56(4) . . .
65(4) . . .
57(4) . . .
47(4) . . .
54(4) . . .
55(4) . . .
64(4) . . .
64(4) . . .
59(4) . . .
58(4) . . .
58(4) . . .
57(4) . . .
66(4) . . .
47(4) . . .
47(4) . . .
44(4) . . .
49(4) . . .
52(4) . . .
60(4) . . .
55(4) . . .
58(4) . . .
63(4) . . .
54(4) . . .
47(4) . . .
63(4) . . .
55(4) . . .
54(4) . . .
48(4) . . .
49(4) . . .
60(4) . . .
65(4) . . .
48(4) . . .
52(4) . . .
54(4) . . .
55(4) . . .
54(4) . . .
52(4) . . .
53(4) . . .
64(4) . . .
59(4) . . .
61(4) . . .
58(4) . . .
53(4) . . .
65(5) . . .
52(4) . . .
52(4) . . .
67(4) . . .
51(4) . . .
59(4) . . .
60(4) . . .
63(4) . . .
57(4) . . .
56(4) . . .
52(4) . . .
56(4) . . .
57(4) . . .
60(4) . . .
48(4) . . .
46(4) . . .
63(4) . . .
54(4) . . .
50(4) . . .
65(5) . . .
54(4) . . .
60(4) . . .
53(4) . . .
47(4) . . .
56(4) . . .
59(4) . . .
57(4) . . .
54(4) . . .
66(5) . . .
55(4) . . .
51(4) . . .
49(4) . . .
54(4) . . .
52(4) . . .
53(4) . . .
50(4) . . .
61(4) . . .
53(4) . . .
62(4) . . .
58(4) . . .
59(4) . . .
64(4) . . .
55(4) . . .
68(5) . . .
60(4) . . .
55(4) . . .
58(4) . . .
52(4) . . .
51(4) . . .
50(4) . . .
57(4) . . .
56(4) . . .
57(4) . . .
53(4) . . .
54(4) . . .
54(4) . . .
57(4) . . .
44.7(35) . . .
52(4) . . .
54(4) . . .
56(4) . . .
57(4) . . .
48(4) . . .
55(4) . . .
59(4) . . .
52(4) . . .
64(4) . . .
59(4) . . .
51(4) . . .
53(4) . . .
54(4) . . .
53(4) . . .
59(4) . . .
56(4) . . .
60(4) . . .
58(4) . . .
62(4) . . .
63(4) . . .
54(4) . . .
57(4) . . .
51(4) . . .
42.8(34) . . .
54(4) . . .
51(4) . . .
59(4) . . .
59(4) . . .
48(4) . . .
53(4) . . .
51(4) . . .
54(4) . . .
63(4) . . .
48(4) . . .
65(4) . . .
60(4) . . .
54(4) . . .
47(4) . . .
57(4) . . .
50(4) . . .
52(4) . . .
52(4) . . .
56(4) . . .
62(4) . . .
57(4) . . .
59(4) . . .
62(4) . . .
53(4) . . .
57(4) . . .
57(4) . . .
53(4) . . .
56(4) . . .
60(4) . . .
59(4) . . .
66(5) . . .
67(4) . . .
62(4) . . .
52(4) . . .
64(4) . . .
52(4) . . .
48(4) . . .
58(4) . . .
58(4) . . .
57(4) . . .
50(4) . . .
55(4) . . .
66(4) . . .
60(4) . . .
49(4) . . .
46(4) . . .
49(4) . . .
59(4) . . .
69(4) . . .
61(4) . . .
48(4) . . .
51(4) . . .
56(4) . . .
48(4) . . .
57(4) . . .
54(4) . . .
57(4) . . .
55(4) . . .
56(4) . . .
53(4) . . .
46(4) . . .
53(4) . . .
48(4) . . .
53(4) . . .
54(4) . . .
57(4) . . .
53(4) . . .
60(4) . . .
57(4) . . .
55(4) . . .
55(4) . . .
55(4) . . .
65(4) . . .
56(4) . . .
48(4) . . .
53(4) . . .
50(4) . . .
41.4(33) . . .
58(4) . . .
45(4) . . .
46(4) . . .
51(4) . . .
52(4) . . .
51(4) . . .
59(4) . . .
57(4) . . .
55(4) . . .
53(4) . . .
49(4) . . .
55(4) . . .
51(4) . . .
56(4) . . .
54(4) . . .
50(4) . . .
59(4) . . .
60(4) . . .
51(4) . . .
52(4) . . .
45(4) . . .
57(4) . . .
54(4) . . .
57(4) . . .
49(4) . . .
47(4) . . .
50(4) . . .
48(4) . . .
47(4) . . .
55(4) . . .
46(4) . . .
52(4) . . .
61(4) . . .
61(4) . . .
58(4) . . .
56(4) . . .
54(4) . . .
59(4) . . .
50(4) . . .
58(4) . . .
58(4) . . .
58(4) . . .
66(4) . . .
58(4) . . .
58(4) . . .
57(4) . . .
50(4) . . .
57(4) . . .
55(4) . . .
54(4) . . .
64(4) . . .
57(4) . . .
63(4) . . .
58(4) . . .
44.4(35) . . .
55(4) . . .
54(4) . . .
51(4) . . .
60(4) . . .
51(4) . . .
53(4) . . .
59(4) . . .
50(4) . . .
53(4) . . .
67(4) . . .
61(4) . . .
53(4) . . .
46(4) . . .
51(4) . . .
58(4) . . .
62(5) . . .
51(4) . . .
48(4) . . .
58(4) . . .
61(4) . . .
64(5) . . .
56(4) . . .
52(4) . . .
46(4) . . .
54(4) . . .
61(4) . . .
63(4) . . .
62(4) . . .
52(4) . . .
61(4) . . .
59(4) . . .
52(4) . . .
51(4) . . .
49(4) . . .
55(4) . . .
51(4) . . .
62(4) . . .
65(4) . . .
60(4) . . .
56(4) . . .
57(4) . . .
58(4) . . .
51(4) . . .
56(4) . . .
53(4) . . .
52(4) . . .
57(4) . . .
56(4) . . .
47(4) . . .
52(4) . . .
75(5) . . .
58(4) . . .
62(4) . . .
54(4) . . .
60(4) . . .
60(4) . . .
53(4) . . .
58(4) . . .
53(4) . . .
55(4) . . .
54(4) . . .
53(4) . . .
53(4) . . .
57(4) . . .
52(4) . . .
50(4) . . .
52(4) . . .
51(4) . . .
61(4) . . .
61(4) . . .
61(4) . . .
49(4) . . .
55(4) . . .
57(4) . . .
54(4) . . .
57(4) . . .
61(4) . . .
58(4) . . .
58(4) . . .
48(4) . . .
44.4(35) . . .
58(4) . . .
56(4) . . .
64(4) . . .
49(4) . . .
53(4) . . .
57(4) . . .
62(4) . . .
51(4) . . .
45(4) . . .
58(4) . . .
61(4) . . .
58(4) . . .
61(4) . . .
54(4) . . .
50(4) . . .
57(4) . . .
38.6(34) . . .
50(4) . . .
60(4) . . .
53(4) . . .
57(4) . . .
60(4) . . .
61(4) . . .
59(4) . . .
55(4) . . .
55(4) . . .
55(4) . . .
48(4) . . .
59(4) . . .
57(4) . . .
44.5(35) . . .
44(4) . . .
56(4) . . .
50(4) . . .
56(4) . . .
53(4) . . .
55(4) . . .
52(4) . . .
62(4) . . .
58(4) . . .
47(4) . . .
46(4) . . .
52(4) . . .
65(4) . . .
53(4) . . .
49(4) . . .
51(4) . . .
56(4) . . .
55(4) . . .
57(4) . . .
59(4) . . .
57(4) . . .
50(4) . . .
49(4) . . .
57(4) . . .
46(4) . . .
45(4) . . .
49(4) . . .
54(4) . . .
57(4) . . .
49(4) . . .
51(4) . . .
53(4) . . .
50(4) . . .
52(4) . . .
50(4) . . .
56(4) . . .
50(4) . . .
57(4) . . .
62(4) . . .
57(4) . . .
46(4) . . .
57(4) . . .
52(4) . . .
57(4) . . .
52(4) . . .
58(4) . . .
61(4) . . .
62(4) . . .
56(4) . . .
38.6(32) . . .
49(4) . . .
59(4) . . .
59(4) . . .
57(4) . . .
57(4) . . .
60(4) . . .
47(4) . . .
52(4) . . .
58(4) . . .
50(4) . . .
57(4) . . .
58(4) . . .
49(4) . . .
58(4) . . .
61(4) . . .
58(4) . . .
60(4) . . .
58(4) . . .
51(4) . . .
56(4) . . .
63(4) . . .
55(4) . . .
57(4) . . .
45(4) . . .
59(4) . . .
59(4) . . .
52(4) . . .
57(4) . . .
48(4) . . .
61(4) . . .
52(4) . . .
61(4) . . .
50(4) . . .
44(4) . . .
54(4) . . .
53(4) . . .
48(4) . . .
53(4) . . .
48(4) . . .
61(4) . . .
54(4) . . .
59(4) . . .
55(4) . . .
51(4) . . .
52(4) . . .
59(4) . . .
48(4) . . .
54(4) . . .
64(4) . . .
48(4) . . .
52(4) . . .
55(4) . . .
66(4) . . .
61(4) . . .
45(4) . . .
55(4) . . .
51(4) . . .
57(4) . . .
60(4) . . .
49(4) . . .
65(4) . . .
51(4) . . .
56(4) . . .
48(4) . . .
70(5) . . .
50(4) . . .
54(4) . . .
56(4) . . .
51(4) . . .
59(4) . . .
52(4) . . .
58(4) . . .
52(4) . . .
51(4) . . .
60(4) . . .
59(4) . . .
54(4) . . .
54(4) . . .
53(4) . . .
53(4) . . .
57(4) . . .
63(4) . . .
66(4) . . .
54(4) . . .
51(4) . . .
50(4) . . .
49(4) . . .
46(4) . . .
47(4) . . .
62(4) . . .
58(4) . . .
55(4) . . .
64(5) . . .
59(4) . . .
51(4) . . .
48(4) . . .
62(4) . . .
57(4) . . .
63(5) . . .
59(4) . . .
47(4) . . .
63(4) . . .
53(4) . . .
57(4) . . .
51(4) . . .
48(4) . . .
55(4) . . .
58(4) . . .
48(4) . . .
51(4) . . .
56(4) . . .
56(4) . . .
50(4) . . .
57(4) . . .
52(4) . . .
62(4) . . .
58(4) . . .
48(4) . . .
61(4) . . .
54(4) . . .
51(4) . . .
59(4) . . .
49(4) . . .
54(4) . . .
47(4) . . .
49(4) . . .
54(4) . . .
62(4) . . .
63(4) . . .
54(4) . . .
56(4) . . .
56(4) . . .
54(4) . . .
56(4) . . .
54(4) . . .
60(4) . . .
47(4) . . .
48(4) . . .
59(4) . . .
55(4) . . .
78(5) . . .
62(4) . . .
52(4) . . .
49(4) . . .
56(4) . . .
55(4) . . .
54(4) . . .
57(4) . . .
50(4) . . .
52(4) . . .
48(4) . . .
55(4) . . .
52(4) . . .
57(4) . . .
58(4) . . .
58(4) . . .
54(4) . . .
54(4) . . .
57(4) . . .
50(4) . . .
47(4) . . .
60(4) . . .
66(5) . . .
57(4) . . .
49(4) . . .
59(4) . . .
56(4) . . .
53(4) . . .
52(4) . . .
45.1(35) . . .
53(4) . . .
56(4) . . .
54(4) . . .
52(4) . . .
49(4) . . .
56(4) . . .
58(4) . . .
55(4) . . .
50(4) . . .
48(4) . . .
55(4) . . .
51(4) . . .
54(4) . . .
45(4) . . .
52(4) . . .
56(4) . . .
59(4) . . .
47(4) . . .
54(4) . . .
55(4) . . .
45(4) . . .
53(4) . . .
63(4) . . .
54(4) . . .
58(4) . . .
61(4) . . .
57(4) . . .
55(4) . . .
53(4) . . .
45(4) . . .
47(4) . . .
71(5) . . .
69(5) . . .
54(4) . . .
53(4) . . .
61(4) . . .
67(5) . . .
54(4) . . .
65(4) . . .
60(4) . . .
58(4) . . .
54(4) . . .
51(4) . . .
50(4) . . .
55(4) . . .
55(4) . . .
53(4) . . .
56(4) . . .
58(4) . . .
56(4) . . .
46(4) . . .
53(4) . . .
48(4) . . .
63(4) . . .
56(4) . . .
49(4) . . .
59(4) . . .
46(4) . . .
51(4) . . .
64(4) . . .
57(4) . . .
49(4) . . .
46.3(35) . . .
62(4) . . .
57(4) . . .
54(4) . . .
53(4) . . .
57(4) . . .
59(4) . . .
59(4) . . .
55(4) . . .
45(4) . . .
55(4) . . .
54(4) . . .
55(4) . . .
57(4) . . .
58(4) . . .
54(4) . . .
51(4) . . .
52(4) . . .
51(4) . . .
62(4) . . .
59(4) . . .
62(4) . . .
59(4) . . .
60(4) . . .
60(4) . . .
62(4) . . .
59(4) . . .
46(4) . . .
52(4) . . .
60(4) . . .
58(4) . . .
51(4) . . .
52(4) . . .
54(4) . . .
53(4) . . .
59(4) . . .
63(4) . . .
59(4) . . .
61(4) . . .
52(4) . . .
57(4) . . .
57(4) . . .
65(4) . . .
55(4) . . .
59(4) . . .
60(4) . . .
64(4) . . .
46(4) . . .
52(4) . . .
53(4) . . .
54(4) . . .
59(4) . . .
47(4) . . .
45(4) . . .
55(4) . . .
59(4) . . .
62(4) . . .
70(5) . . .
64(4) . . .
53(4) . . .
56(4) . . .
49(4) . . .
56(4) . . .
52(4) . . .
55(4) . . .
60(4) . . .
55(4) . . .
61(4) . . .
53(4) . . .
62(4) . . .
55(4) . . .
56(4) . . .
53(4) . . .
53(4) . . .
60(4) . . .
59(4) . . .
62(4) . . .
51(4) . . .
55(4) . . .
52(4) . . .
62(4) . . .
52(4) . . .
48(4) . . .
53(4) . . .
47(4) . . .
57(4) . . .
53(4) . . .
45(4) . . .
48(4) . . .
48(4) . . .
62(4) . . .
55(4) . . .
50(4) . . .
46(4) . . .
52(4) . . .
58(4) . . .
54(4) . . .
56(4) . . .
60(4) . . .
54(4) . . .
52(4) . . .
55(4) . . .
59(4) . . .
47(4) . . .
50(4) . . .
59(4) . . .
57(4) . . .
55(4) . . .
63(4) . . .
63(4) . . .
60(4) . . .
52(4) . . .
49(4) . . .
51(4) . . .
48(4) . . .
64(5) . . .
58(4) . . .
57(4) . . .
48(4) . . .
53(4) . . .
56(4) . . .
52(4) . . .
58(4) . . .
57(4) . . .
55(4) . . .
45(4) . . .
56(4) . . .
51(4) . . .
46(4) . . .
50(4) . . .
46(4) . . .
57(4) . . .
60(4) . . .
57(4) . . .
57(4) . . .
60(4) . . .
54(4) . . .
58(4) . . .
75(4) . . .
56(4) . . .
52(4) . . .
46(4) . . .
44(4) . . .
57(4) . . .
58(4) . . .
53(4) . . .
46(4) . . .
54(4) . . .
59(4) . . .
52(4) . . .
62(4) . . .
54(4) . . .
45(4) . . .
77(5) . . .
61(4) . . .
62(4) . . .
47(4) . . .
46.1(35) . . .
48(4) . . .
56(4) . . .
54(4) . . .
50(4) . . .
49(4) . . .
62(4) . . .
62(4) . . .
47(4) . . .
52(4) . . .
56(4) . . .
57(4) . . .
60(4) . . .
52(4) . . .
45(4) . . .
50(4) . . .
49(4) . . .
57(4) . . .
45(4) . . .
51(4) . . .
55(4) . . .
52(4) . . .
62(4) . . .
49(4) . . .
59(4) . . .
53(4) . . .
54(4) . . .
55(4) . . .
58(4) . . .
57(4) . . .
53(4) . . .
56(4) . . .
49(4) . . .
58(4) . . .
52(4) . . .
53(4) . . .
55(4) . . .
60(4) . . .
54(4) . . .
51(4) . . .
58(4) . . .
61(4) . . .
55(4) . . .
47(4) . . .
54(4) . . .
54(4) . . .
51(4) . . .
50(4) . . .
52(4) . . .
56(4) . . .
56(4) . . .
61(4) . . .
48(4) . . .
52(4) . . .
60(4) . . .
63(4) . . .
58(4) . . .
58(4) . . .
65(4) . . .
61(4) . . .
54(4) . . .
54(4) . . .
55(4) . . .
56(4) . . .
65(4) . . .
56(4) . . .
53(4) . . .
46(4) . . .
49(4) . . .
56(4) . . .
57(4) . . .
51(4) . . .
48(4) . . .
46(4) . . .
57(4) . . .
54(4) . . .
59(4) . . .
51(4) . . .
52(4) . . .
52(4) . . .
47(4) . . .
51(4) . . .
45(4) . . .
60(4) . . .
63(4) . . .
59(4) . . .
51(4) . . .
65(5) . . .
66(5) . . .
54(4) . . .
62(4) . . .
53(4) . . .
54(4) . . .
52(4) . . .
54(4) . . .
55(4) . . .
59(4) . . .
46(4) . . .
55(4) . . .
49(4) . . .
50(4) . . .
54(4) . . .
44.6(35) . . .
51(4) . . .
54(4) . . .
51(4) . . .
51(4) . . .
51(4) . . .
47(4) . . .
49(4) . . .
50(4) . . .
62(4) . . .
58(4) . . .
61(4) . . .
50(4) . . .
62(4) . . .
61(4) . . .
59(4) . . .
42.9(34) . . .
52(4) . . .
55(4) . . .
54(4) . . .
59(4) . . .
62(4) . . .
57(4) . . .
59(4) . . .
50(4) . . .
61(4) . . .
66(4) . . .
56(4) . . .
51(4) . . .
47(4) . . .
52(4) . . .
57(4) . . .
38.0(32) . . .
57(4) . . .
58(4) . . .
51(4) . . .
60(4) . . .
53(4) . . .
52(4) . . .
49(4) . . .
55(4) . . .
47(4) . . .
54(4) . . .
55(4) . . .
64(4) . . .
59(4) . . .
51(4) . . .
50(4) . . .
60(4) . . .
58(4) . . .
53(4) . . .
62(4) . . .
60(4) . . .
59(4) . . .
58(4) . . .
48(4) . . .
46(4) . . .
60(4) . . .
65(4) . . .
56(4) . . .
66(4) . . .
61(4) . . .
58(4) . . .
53(4) . . .
51(4) . . .
54(4) . . .
57(4) . . .
53(4) . . .
50(4) . . .
58(4) . . .
58(4) . . .
53(4) . . .
59(4) . . .
59(4) . . .
52(4) . . .
69(4) . . .
59(4) . . .
55(4) . . .
54(4) . . .
57(4) . . .
62(4) . . .
45(4) . . .
52(4) . . .
48(4) . . .
50(4) . . .
70(4) . . .
54(4) . . .
57(4) . . .
53(4) . . .
48(4) . . .
59(4) . . .
59(4) . . .
51(4) . . .
59(4) . . .
50(4) . . .
54(4) . . .
52(4) . . .
58(4) . . .
58(4) . . .
59(4) . . .
47(4) . . .
47(4) . . .
58(4) . . .
50(4) . . .
51(4) . . .
56(4) . . .
57(4) . . .
54(4) . . .
55(4) . . .
59(4) . . .
61(4) . . .
64(4) . . .
54(4) . . .
58(4) . . .
59(4) . . .
48(4) . . .
46(4) . . .
48(4) . . .
50(4) . . .
47(4) . . .
54(4) . . .
44.8(35) . . .
47(4) . . .
59(4) . . .
59(4) . . .
51(4) . . .
54(4) . . .
59(4) . . .
65(5) . . .
53(4) . . .
61(4) . . .
57(4) . . .
51(4) . . .
47(4) . . .
56(4) . . .
44(4) . . .
47(4) . . .
60(4) . . .
54(4) . . .
62(4) . . .
44.5(35) . . .
54(4) . . .
55(4) . . .
51(4) . . .
51(4) . . .
51(4) . . .
53(4) . . .
48(4) . . .
53(4) . . .
55(4) . . .
57(4) . . .
48(4) . . .
54(4) . . .
54(4) . . .
42.7(34) . . .
53(4) . . .
56(4) . . .
54(4) . . .
57(4) . . .
51(4) . . .
55(4) . . .
50(4) . . .
54(4) . . .
64(4) . . .
51(4) . . .
55(4) . . .
69(5) . . .
57(4) . . .
60(4) . . .
49(4) . . .
53(4) . . .
56(4) . . .
52(4) . . .
48(4) . . .
47(4) . . .
46(4) . . .
51(4) . . .
55(4) . . .
59(4) . . .
54(4) . . .
54(4) . . .
53(4) . . .
58(4) . . .
54(4) . . .
55(4) . . .
55(4) . . .
72(5) . . .
54(4) . . .
52(4) . . .
58(4) . . .
51(4) . . .
50(4) . . .
47(4) . . .
57(4) . . .
59(4) . . .
55(4) . . .
53(4) . . .
54(4) . . .
59(4) . . .
51(4) . . .
53(4) . . .
50(4) . . .
57(4) . . .
44(4) . . .
51(4) . . .
58(4) . . .
57(4) . . .
47(4) . . .
49(4) . . .
49(4) . . .
53(4) . . .
52(4) . . .
52(4) . . .
61(4) . . .
52(4) . . .
53(4) . . .
44(4) . . .
49(4) . . .
59(4) . . .
45(4) . . .
58(4) . . .
54(4) . . .
61(4) . . .
45.6(35) . . .
52(4) . . .
54(4) . . .
50(4) . . .
60(4) . . .
58(4) . . .
68(4) . . .
61(4) . . .
52(4) . . .
50(4) . . .
47(4) . . .
55(4) . . .
58(4) . . .
55(4) . . .
56(4) . . .
44(4) . . .
57(4) . . .
63(4) . . .
55(4) . . .
67(4) . . .
56(4) . . .
58(4) . . .
61(4) . . .
54(4) . . .
57(4) . . .
47(4) . . .
52(4) . . .
52(4) . . .
57(4) . . .
67(4) . . .
62(4) . . .
53(4) . . .
53(4) . . .
49(4) . . .
57(4) . . .
64(4) . . .
57(4) . . .
55(4) . . .
56(4) . . .
45(4) . . .
56(4) . . .
61(4) . . .
63(4) . . .
63(4) . . .
59(4) . . .
53(4) . . .
61(4) . . .
58(4) . . .
60(4) . . .
45(4) . . .
60(4) . . .
55(4) . . .
58(4) . . .
41.8(34) . . .
57(4) . . .
57(4) . . .
55(4) . . .
52(4) . . .
55(4) . . .
52(4) . . .
55(4) . . .
56(4) . . .
46(4) . . .
52(4) . . .
41.1(35) . . .
64(4) . . .
60(4) . . .
46(4) . . .
53(4) . . .
54(4) . . .
45(4) . . .
49(4) . . .
47(4) . . .
54(4) . . .
58(4) . . .
61(4) . . .
59(4) . . .
58(4) . . .
67(4) . . .
41.7(34) . . .
49(4) . . .
62(4) . . .
47(4) . . .
63(4) . . .
54(4) . . .
51(4) . . .
63(4) . . .
51(4) . . .
50(4) . . .
58(4) . . .
53(4) . . .
56(4) . . .
63(4) . . .
51(4) . . .
57(4) . . .
56(4) . . .
57(4) . . .
52(4) . . .
62(4) . . .
65(4) . . .
64(5) . . .
60(4) . . .
40.0(33) . . .
55(4) . . .
61(4) . . .
65(5) . . .
47(4) . . .
58(4) . . .
39.0(32) . . .
48(4) . . .
54(4) . . .
63(4) . . .
48(4) . . .
50(4) . . .
62(4) . . .
51(4) . . .
51(4) . . .
53(4) . . .
53(4) . . .
48(4) . . .
46(4) . . .
48(4) . . .
50(4) . . .
52(4) . . .
56(4) . . .
56(4) . . .
54(4) . . .
50(4) . . .
50(4) . . .
54(4) . . .
52(4) . . .
63(4) . . .
59(4) . . .
49(4) . . .
55(4) . . .
52(4) . . .
56(4) . . .
54(4) . . .
60(4) . . .
58(4) . . .
54(4) . . .
60(4) . . .
61(4) . . .
63(4) . . .
61(4) . . .
51(4) . . .
57(4) . . .
54(4) . . .
50(4) . . .
54(4) . . .
48(4) . . .
62(4) . . .
65(4) . . .
47(4) . . .
53(4) . . .
55(4) . . .
51(4) . . .
48(4) . . .
48(4) . . .
58(4) . . .
52(4) . . .
44.2(34) . . .
52(4) . . .
48(4) . . .
54(4) . . .
50(4) . . .
61(4) . . .
50(4) . . .
57(4) . . .
56(4) . . .
53(4) . . .
60(4) . . .
57(4) . . .
53(4) . . .
50(4) . . .
52(4) . . .
66(4) . . .
46(4) . . .
51(4) . . .
62(4) . . .
53(4) . . .
58(4) . . .
55(4) . . .
51(4) . . .
54(4) . . .
63(4) . . .
58(4) . . .
63(4) . . .
54(4) . . .
59(4) . . .
58(4) . . .
46(4) . . .
54(4) . . .
59(4) . . .
62(4) . . .
55(4) . . .
58(4) . . .
56(4) . . .
56(4) . . .
48(4) . . .
58(4) . . .
60(4) . . .
56(4) . . .
51(4) . . .
57(4) . . .
57(4) . . .
59(4) . . .
62(4) . . .
51(4) . . .
51(4) . . .
62(4) . . .
57(4) . . .
47(4) . . .
59(4) . . .
49(4) . . .
45.5(35) . . .
43.3(35) . . .
60(4) . . .
56(4) . . .
63(4) . . .
50(4) . . .
58(4) . . .
54(4) . . .
57(4) . . .
55(4) . . .
56(4) . . .
54(4) . . .
53(4) . . .
56(4) . . .
48(4) . . .
53(4) . . .
53(4) . . .
54(4) . . .
61(4) . . .
53(4) . . .
60(4) . . .
54(4) . . .
57(4) . . .
59(4) . . .
55(4) . . .
49(4) . . .
51(4) . . .
55(4) . . .
55(4) . . .
58(4) . . .
59(4) . . .
51(4) . . .
46(4) . . .
56(4) . . .
55(4) . . .
54(4) . . .
54(4) . . .
57(4) . . .
46(4) . . .
56(4) . . .
53(4) . . .
52(4) . . .
49(4) . . .
50(4) . . .
55(4) . . .
51(4) . . .
50(4) . . .
54(4) . . .
54(4) . . .
56(4) . . .
59(4) . . .
58(4) . . .
58(4) . . .
53(4) . . .
58(4) . . .
56(4) . . .
52(4) . . .
54(4) . . .
57(4) . . .
54(4) . . .
56(4) . . .
55(4) . . .
55(4) . . .
62(4) . . .
61(4) . . .
55(4) . . .
57(4) . . .
63(4) . . .
57(4) . . .
58(4) . . .
50(4) . . .
57(4) . . .
49(4) . . .
53(4) . . .
54(4) . . .
56(4) . . .
58(4) . . .
53(4) . . .
44(4) . . .
55(4) . . .
57(4) . . .
53(4) . . .
50(4) . . .
64(4) . . .
55(4) . . .
55(4) . . .
51(4) . . .
54(4) . . .
52(4) . . .
49(4) . . .
45(4) . . .
48(4) . . .
45(4) . . .
46(4) . . .
48(4) . . .
42(4) . . .
52(4) . . .
63(4) . . .
60(4) . . .
58(4) . . .
62(4) . . .
63(4) . . .
57(4) . . .
49(4) . . .
45(4) . . .
53(4) . . .
50(4) . . .
43(4) . . .
50(4) . . .
63(4) . . .
49(4) . . .
53(4) . . .
54(4) . . .
62(4) . . .
56(4) . . .
61(4) . . .
55(4) . . .
56(4) . . .
59(4) . . .
53(4) . . .
46(4) . . .
49(4) . . .
58(4) . . .
53(4) . . .
59(4) . . .
52(4) . . .
43.4(35) . . .
49(4) . . .
64(4) . . .
49(4) . . .
57(4) . . .
62(4) . . .
62(4) . . .
51(4) . . .
57(4) . . .
56(4) . . .
56(4) . . .
47(4) . . .
49(4) . . .
54(4) . . .
58(4) . . .
58(4) . . .
56(4) . . .
60(4) . . .
59(4) . . .
51(4) . . .
52(4) . . .
51(4) . . .
60(4) . . .
64(4) . . .
55(4) . . .
61(4) . . .
54(4) . . .
61(4) . . .
55(4) . . .
47(4) . . .
53(4) . . .
60(4) . . .
55(4) . . .
45(4) . . .
51(4) . . .
50(4) . . .
51(4) . . .
54(4) . . .
51(4) . . .
55(4) . . .
57(4) . . .
55(4) . . .
52(4) . . .
69(4) . . .
59(4) . . .
58(4) . . .
64(4) . . .
59(4) . . .
63(4) . . .
54(4) . . .
54(4) . . .
52(4) . . .
55(4) . . .
60(4) . . .
58(4) . . .
57(4) . . .
47(4) . . .
53(4) . . .
53(4) . . .
49(4) . . .
52(4) . . .
66(4) . . .
58(4) . . .
66(5) . . .
64(4) . . .
58(4) . . .
56(4) . . .
61(4) . . .
54(4) . . .
55(4) . . .
53(4) . . .
49(4) . . .
53(4) . . .
60(4) . . .
53(4) . . .
56(4) . . .
56(4) . . .
53(4) . . .
59(4) . . .
50(4) . . .
61(4) . . .
42(4) . . .
42.2(34) . . .
51(4) . . .
51(4) . . .
51(4) . . .
48(4) . . .
50(4) . . .
53(4) . . .
55(4) . . .
59(4) . . .
60(4) . . .
50(4) . . .
52(4) . . .
45.8(35) . . .
59(4) . . .
56(4) . . .
48(4) . . .
60(4) . . .
53(4) . . .
54(4) . . .
56(4) . . .
55(4) . . .
58(4) . . .
51(4) . . .
54(4) . . .
59(4) . . .
59(5) . . .
52(4) . . .
48(4) . . .
54(4) . . .
59(4) . . .
49(4) . . .
56(4) . . .
54(4) . . .
50(4) . . .
61(4) . . .
63(5) . . .
62(4) . . .
58(4) . . .
57(4) . . .
53(4) . . .
44(4) . . .
42(4) . . .
48(4) . . .
61(4) . . .
50(4) . . .
56(4) . . .
64(4) . . .
50(4) . . .
54(4) . . .
63(4) . . .
53(4) . . .
48(4) . . .
56(4) . . .
52(4) . . .
58(4) . . .
51(4) . . .
60(4) . . .
57(4) . . .
49(4) . . .
48(4) . . .
54(4) . . .
50(4) . . .
57(4) . . .
58(4) . . .
55(4) . . .
66(4) . . .
48(4) . . .
62(4) . . .
43(4) . . .
43(4) . . .
55(4) . . .
54(4) . . .
51(4) . . .
52(4) . . .
53(4) . . .
61(4) . . .
58(4) . . .
47(4) . . .
48(4) . . .
46(4) . . .
61(4) . . .
55(4) . . .
52(4) . . .
64(4) . . .
58(4) . . .
61(4) . . .
53(4) . . .
58(4) . . .
59(4) . . .
59(4) . . .
53(4) . . .
46(4) . . .
51(4) . . .
58(4) . . .
52(4) . . .
46(4) . . .
42.2(34) . . .
50(4) . . .
61(4) . . .
60(4) . . .
48(4) . . .
54(4) . . .
61(4) . . .
56(4) . . .
44(4) . . .
48(4) . . .
43.0(34) . . .
51(4) . . .
58(4) . . .
48(4) . . .
53(4) . . .
53(4) . . .
52(4) . . .
48(4) . . .
54(4) . . .
51(4) . . .
62(4) . . .
50(4) . . .
52(4) . . .
47(4) . . .
49(4) . . .
58(4) . . .
54(4) . . .
58(4) . . .
44(4) . . .
51(4) . . .
47(4) . . .
46.2(35) . . .
58(4) . . .
50(4) . . .
43(4) . . .
51(4) . . .
54(4) . . .
56(4) . . .
44(4) . . .
46(4) . . .
52(4) . . .
51(4) . . .
50(4) . . .
46(4) . . .
46(4) . . .
57(4) . . .
52(4) . . .
58(4) . . .
56(4) . . .
50(4) . . .
48(4) . . .
61(4) . . .
50(4) . . .
46(4) . . .
42.8(34) . . .
47(4) . . .
56(4) . . .
48(4) . . .
51(4) . . .
50(4) . . .
48(4) . . .
55(4) . . .
51(4) . . .
45(4) . . .
50(4) . . .
52(4) . . .
52(4) . . .
53(4) . . .
57(4) . . .
59(4) . . .
57(4) . . .
48(4) . . .
48(4) . . .
59(4) . . .
54(4) . . .
51(4) . . .
56(4) . . .
49(4) . . .
51(4) . . .
64(4) . . .
60(4) . . .
51(4) . . .
59(4) . . .
53(4) . . .
48(4) . . .
54(4) . . .
62(4) . . .
54(4) . . .
63(4) . . .
57(4) . . .
54(4) . . .
59(4) . . .
48(4) . . .
61(4) . . .
59(4) . . .
59(4) . . .
63(4) . . .
51(4) . . .
45(4) . . .
47(4) . . .
61(4) . . .
53(4) . . .
57(4) . . .
51(4) . . .
56(4) . . .
65(4) . . .
53(4) . . .
54(4) . . .
58(4) . . .
58(4) . . .
61(4) . . .
59(4) . . .
54(4) . . .
52(4) . . .
54(4) . . .
52(4) . . .
58(4) . . .
58(4) . . .
56(4) . . .
45(4) . . .
54(4) . . .
48(4) . . .
55(4) . . .
54(4) . . .
56(4) . . .
62(4) . . .
49(4) . . .
47(4) . . .
57(4) . . .
46(4) . . .
51(4) . . .
53(4) . . .
48(4) . . .
60(4) . . .
47(4) . . .
52(4) . . .
63(4) . . .
59(4) . . .
58(4) . . .
57(4) . . .
40.1(32) . . .
58(4) . . .
55(4) . . .
51(4) . . .
50(4) . . .
51(4) . . .
51(4) . . .
45.4(35) . . .
58(4) . . .
52(4) . . .
49(4) . . .
56(4) . . .
62(4) . . .
55(4) . . .
50(4) . . .
51(4) . . .
48(4) . . .
56(4) . . .
45(4) . . .
56(4) . . .
52(4) . . .
53(4) . . .
51(4) . . .
49(4) . . .
56(4) . . .
54(4) . . .
60(4) . . .
55(4) . . .
66(4) . . .
57(4) . . .
54(4) . . .
60(4) . . .
48(4) . . .
56(4) . . .
53(4) . . .
61(4) . . .
55(4) . . .
47(4) . . .
50(4) . . .
50(4) . . .
57(4) . . .
56(4) . . .
51(4) . . .
62(4) . . .
49(4) . . .
49(4) . . .
51(4) . . .
53(4) . . .
52(4) . . .
39.5(34) . . .
52(4) . . .
49(4) . . .
55(4) . . .
56(4) . . .
47(4) . . .
60(4) . . .
53(4) . . .
57(4) . . .
57(4) . . .
51(4) . . .
57(4) . . .
64(4) . . .
53(4) . . .
50(4) . . .
46(4) . . .
41.7(34) . . .
44(4) . . .
52(4) . . .
58(4) . . .
46(4) . . .
47(4) . . .
59(4) . . .
56(4) . . .
51(4) . . .
51(4) . . .
62(4) . . .
55(4) . . .
55(4) . . .
52(4) . . .
47(4) . . .
46(4) . . .
44.0(34) . . .
58(4) . . .
57(4) . . .
42.8(34) . . .
58(4) . . .
66(4) . . .
52(4) . . .
52(4) . . .
55(4) . . .
55(4) . . .
48(4) . . .
47(4) . . .
56(4) . . .
46(4) . . .
44.9(34) . . .
54(4) . . .
60(4) . . .
59(4) . . .
62(4) . . .
54(4) . . .
48(4) . . .
53(4) . . .
53(4) . . .
58(4) . . .
53(4) . . .
72(5) . . .
56(4) . . .
58(4) . . .
55(4) . . .
53(4) . . .
58(4) . . .
59(4) . . .
54(4) . . .
49(4) . . .
53(4) . . .
64(4) . . .
48(4) . . .
56(4) . . .
50(4) . . .
50(4) . . .
52(4) . . .
51(4) . . .
52(4) . . .
50(4) . . .
58(4) . . .
51(4) . . .
69(5) . . .
52(4) . . .
52(4) . . .
46.7(35) . . .
50(4) . . .
60(4) . . .
56(4) . . .
44.7(34) . . .
55(4) . . .
54(4) . . .
54(4) . . .
53(4) . . .
52(4) . . .
57(4) . . .
58(4) . . .
50(4) . . .
57(4) . . .
41.3(34) . . .
53(4) . . .
65(4) . . .
53(4) . . .
47(4) . . .
40.6(33) . . .
47(4) . . .
51(4) . . .
41(4) . . .
46(4) . . .
49(4) . . .
55(4) . . .
50(4) . . .
47(4) . . .
53(4) . . .
55(4) . . .
53(4) . . .
48(4) . . .
48(4) . . .
49(4) . . .
65(4) . . .
58(4) . . .
49(4) . . .
43(4) . . .
50(4) . . .
53(4) . . .
48(4) . . .
66(5) . . .
53(4) . . .
40.5(33) . . .
52(4) . . .
49(4) . . .
54(4) . . .
50(4) . . .
49(4) . . .
49(4) . . .
52(4) . . .
51(4) . . .
52(4) . . .
50(4) . . .
51(4) . . .
46(4) . . .
45(4) . . .
45(4) . . .
57(4) . . .
57(4) . . .
49(4) . . .
51(4) . . .
53(4) . . .
55(4) . . .
55(4) . . .
47(4) . . .
43(4) . . .
46(4) . . .
48(4) . . .
43.5(34) . . .
57(4) . . .
57(4) . . .
49(4) . . .
57(4) . . .
48(4) . . .
49(4) . . .
53(4) . . .
59(4) . . .
63(4) . . .
59(4) . . .
51(4) . . .
45(4) . . .
55(4) . . .
55(4) . . .
56(4) . . .
53(4) . . .
51(4) . . .
55(4) . . .
51(4) . . .
50(4) . . .
63(4) . . .
53(4) . . .
43.5(34) . . .
52(4) . . .
49(4) . . .
59(4) . . .
61(4) . . .
56(4) . . .
57(4) . . .
55(4) . . .
48(4) . . .
55(4) . . .
39.7(34) . . .
55(4) . . .
54(4) . . .
48(4) . . .
55(4) . . .
46.4(35) . . .
46.5(35) . . .
56(4) . . .
53(4) . . .
59(4) . . .
45.3(35) . . .
39.9(33) . . .
61(4) . . .
55(4) . . .
58(4) . . .
53(4) . . .
58(4) . . .
52(4) . . .
54(4) . . .
59(4) . . .
56(4) . . .
52(4) . . .
53(4) . . .
55(4) . . .
48(4) . . .
49(4) . . .
60(4) . . .
59(4) . . .
61(4) . . .
55(4) . . .
51(4) . . .
56(4) . . .
51(4) . . .
51(4) . . .
50(4) . . .
59(4) . . .
63(4) . . .
50(4) . . .
52(4) . . .
55(4) . . .
57(4) . . .
53(4) . . .
63(4) . . .
51(4) . . .
56(4) . . .
49(4) . . .
63(4) . . .
52(4) . . .
55(4) . . .
53(4) . . .
55(4) . . .
54(4) . . .
52(4) . . .
64(4) . . .
51(4) . . .
58(4) . . .
56(4) . . .
53(4) . . .
54(4) . . .
59(4) . . .
50(4) . . .
54(4) . . .
53(4) . . .
54(4) . . .
57(4) . . .
54(4) . . .
57(4) . . .
48(4) . . .
52(4) . . .
47(4) . . .
54(4) . . .
52(4) . . .
48(4) . . .
54(4) . . .
50(4) . . .
52(4) . . .
52(4) . . .
47(4) . . .
66(4) . . .
62(4) . . .
48(4) . . .
49(4) . . .
59(4) . . .
49(4) . . .
45.2(35) . . .
47(4) . . .
40.2(34) . . .
47(4) . . .
62(4) . . .
46.1(35) . . .
59(4) . . .
52(4) . . .
63(4) . . .
52(4) . . .
56(4) . . .
51(4) . . .
62(4) . . .
58(4) . . .
53(4) . . .
47(4) . . .
55(4) . . .
56(4) . . .
58(4) . . .
57(4) . . .
45(4) . . .
52(4) . . .
58(4) . . .
61(4) . . .
60(4) . . .
50(4) . . .
51(4) . . .
50(4) . . .
57(4) . . .
49(4) . . .
54(4) . . .
52(4) . . .
58(4) . . .
54(4) . . .
51(4) . . .
63(4) . . .
47(4) . . .
59(4) . . .
54(4) . . .
51(4) . . .
48(4) . . .
53(4) . . .
54(4) . . .
45(4) . . .
56(4) . . .
40.3(34) . . .
44(4) . . .
52(4) . . .
56(4) . . .
57(4) . . .
54(4) . . .
53(4) . . .
53(4) . . .
54(4) . . .
51(4) . . .
55(4) . . .
49(4) . . .
47(4) . . .
62(4) . . .
42.8(34) . . .
52(4) . . .
65(4) . . .
58(4) . . .
60(4) . . .
65(4) . . .
49(4) . . .
56(4) . . .
52(4) . . .
55(4) . . .
40.1(33) . . .
47(4) . . .
53(4) . . .
58(4) . . .
51(4) . . .
49(4) . . .
52(4) . . .
54(4) . . .
53(4) . . .
54(4) . . .
55(4) . . .
55(4) . . .
55(4) . . .
50(4) . . .
43.9(34) . . .
62(4) . . .
58(4) . . .
59(4) . . .
55(4) . . .
54(4) . . .
54(4) . . .
49(4) . . .
51(4) . . .
51(4) . . .
53(4) . . .
46(4) . . .
55(4) . . .
49(4) . . .
56(4) . . .
56(4) . . .
61(4) . . .
49(4) . . .
56(4) . . .
55(4) . . .
49(4) . . .
61(4) . . .
47(4) . . .
51(4) . . .
54(4) . . .
56(4) . . .
56(4) . . .
53(4) . . .
54(4) . . .
50(4) . . .
43.2(34) . . .
48(4) . . .
49(4) . . .
52(4) . . .
60(4) . . .
53(4) . . .
47(4) . . .
57(4) . . .
58(4) . . .
44.0(34) . . .
41.7(34) . . .
60(4) . . .
46.5(35) . . .
55(4) . . .
41.2(33) . . .
46(4) . . .
55(4) . . .
53(4) . . .
51(4) . . .
43.9(35) . . .
54(4) . . .
54(4) . . .
59(4) . . .
55(4) . . .
39.3(33) . . .
50(4) . . .
44(4) . . .
55(4) . . .
52(4) . . .
52(4) . . .
61(4) . . .
63(4) . . .
62(4) . . .
52(4) . . .
60(4) . . .
61(4) . . .
46(4) . . .
49(4) . . .
56(4) . . .
48(4) . . .
54(4) . . .
40.7(34) . . .
52(4) . . .
47(4) . . .
49(4) . . .
59(4) . . .
50(4) . . .
41.0(34) . . .
47(4) . . .
52(4) . . .
51(4) . . .
40.3(33) . . .
48(4) . . .
63(4) . . .
53(4) . . .
46(4) . . .
54(4) . . .
53(4) . . .
50(4) . . .
52(4) . . .
49(4) . . .
55(4) . . .
48(4) . . .
57(4) . . .
51(4) . . .
54(4) . . .
53(4) . . .
50(4) . . .
54(4) . . .
60(4) . . .
51(4) . . .
51(4) . . .
49(4) . . .
62(4) . . .
54(4) . . .
52(4) . . .
59(4) . . .
56(4) . . .
55(4) . . .
60(4) . . .
48(4) . . .
44(4) . . .
46(4) . . .
60(4) . . .
57(4) . . .
60(4) . . .
46.7(35) . . .
49(4) . . .
56(4) . . .
60(4) . . .
55(4) . . .
50(4) . . .
61(4) . . .
57(4) . . .
51(4) . . .
51(4) . . .
60(4) . . .
56(4) . . .
61(4) . . .
47(4) . . .
55(4) . . .
58(4) . . .
51(4) . . .
52(4) . . .
62(5) . . .
60(4) . . .
52(4) . . .
55(4) . . .
57(4) . . .
51(4) . . .
50(4) . . .
55(4) . . .
56(4) . . .
41.5(34) . . .
49(4) . . .
45(4) . . .
49(4) . . .
54(4) . . .
62(4) . . .
54(4) . . .
42(4) . . .
48(4) . . .
43.3(35) . . .
47(4) . . .
59(4) . . .
52(4) . . .
49(4) . . .
53(4) . . .
55(4) . . .
61(4) . . .
47(4) . . .
60(4) . . .
49(4) . . .
49(4) . . .
42(4) . . .
58(4) . . .
57(4) . . .
45.7(35) . . .
52(4) . . .
51(4) . . .
41.6(34) . . .
56(4) . . .
51(4) . . .
55(4) . . .
52(4) . . .
62(4) . . .
51(4) . . .
58(4) . . .
58(4) . . .
57(4) . . .
50(4) . . .
54(4) . . .
53(4) . . .
48(4) . . .
60(4) . . .
54(4) . . .
51(4) . . .
53(4) . . .
62(4) . . .
56(4) . . .
56(4) . . .
47(4) . . .
52(4) . . .
51(4) . . .
57(4) . . .
45(4) . . .
55(4) . . .
63(4) . . .
50(4) . . .
54(4) . . .
50(4) . . .
48(4) . . .
40.4(33) . . .
45(4) . . .
50(4) . . .
43.3(34) . . .
49(4) . . .
54(4) . . .
58(4) . . .
50(4) . . .
56(4) . . .
56(4) . . .
55(4) . . .
67(5) . . .
46(4) . . .
55(4) . . .
57(4) . . .
55(4) . . .
47(4) . . .
51(4) . . .
43.3(35) . . .
50(4) . . .
59(4) . . .
57(4) . . .
44.4(34) . . .
46(4) . . .
46(4) . . .
50(4) . . .
45(4) . . .
46(4) . . .
48(4) . . .
54(4) . . .
50(4) . . .
47(4) . . .
46(4) . . .
46(4) . . .
56(4) . . .
56(4) . . .
47(4) . . .
55(4) . . .
49(4) . . .
57(4) . . .
50(4) . . .
45(4) . . .
51(4) . . .
52(4) . . .
46(4) . . .
62(4) . . .
54(4) . . .
46(4) . . .
56(4) . . .
52(4) . . .
54(4) . . .
58(4) . . .
53(4) . . .
57(4) . . .
46(4) . . .
54(4) . . .
48(4) . . .
52(4) . . .
64(4) . . .
55(4) . . .
48(4) . . .
48(4) . . .
52(4) . . .
46(4) . . .
51(4) . . .
45(4) . . .
64(4) . . .
44(4) . . .
54(4) . . .
48(4) . . .
49(4) . . .
49(4) . . .
50(4) . . .
48(4) . . .
51(4) . . .
39.7(33) . . .
46(4) . . .
43.0(34) . . .
46(4) . . .
39.2(33) . . .
48(4) . . .
47(4) . . .
46(4) . . .
53(4) . . .
55(4) . . .
47(4) . . .
45(4) . . .
51(4) . . .
49(4) . . .
56(4) . . .
52(4) . . .
52(4) . . .
57(4) . . .
56(4) . . .
45.8(34) . . .
57(4) . . .
54(4) . . .
55(4) . . .
51(4) . . .
48(4) . . .
60(4) . . .
55(4) . . .
61(4) . . .
55(4) . . .
55(4) . . .
63(5) . . .
56(4) . . .
57(4) . . .
53(4) . . .
57(4) . . .
61(4) . . .
57(4) . . .
56(4) . . .
50(4) . . .
60(4) . . .
56(4) . . .
55(4) . . .
47(4) . . .
54(4) . . .
58(4) . . .
55(4) . . .
54(4) . . .
46(4) . . .
49(4) . . .
45(4) . . .
52(4) . . .
53(4) . . .
56(4) . . .
46(4) . . .
46(4) . . .
45(4) . . .
46(4) . . .
54(4) . . .
48(4) . . .
49(4) . . .
52(4) . . .
51(4) . . .
47(4) . . .
51(4) . . .
48(4) . . .
49(4) . . .
48(4) . . .
63(4) . . .
56(4) . . .
51(4) . . .
54(4) . . .
51(4) . . .
49(4) . . .
52(4) . . .
57(4) . . .
61(4) . . .
59(4) . . .
53(4) . . .
51(4) . . .
48(4) . . .
46(4) . . .
46(4) . . .
53(4) . . .
57(4) . . .
47(4) . . .
52(4) . . .
49(4) . . .
48(4) . . .
49(4) . . .
47(4) . . .
45(4) . . .
56(4) . . .
56(4) . . .
54(4) . . .
52(4) . . .
44(4) . . .
43.0(34) . . .
55(4) . . .
49(4) . . .
63(4) . . .
51(4) . . .
56(4) . . .
52(4) . . .
46(4) . . .
51(4) . . .
57(4) . . .
55(4) . . .
47(4) . . .
57(4) . . .
50(4) . . .
47(4) . . .
48(4) . . .
52(4) . . .
52(4) . . .
52(4) . . .
50(4) . . .
53(4) . . .
53(4) . . .
55(4) . . .
50(4) . . .
48(4) . . .
49(4) . . .
53(4) . . .
54(4) . . .
60(4) . . .
56(4) . . .
58(4) . . .
61(4) . . .
54(4) . . .
49(4) . . .
54(4) . . .
52(4) . . .
51(4) . . .
49(4) . . .
40.3(35) . . .
52(4) . . .
45(4) . . .
58(4) . . .
45(4) . . .
59(4) . . .
44.4(35) . . .
52(4) . . .
54(4) . . .
45(4) . . .
42.3(33) . . .
58(4) . . .
54(4) . . .
50(4) . . .
52(4) . . .
48(4) . . .
46(4) . . .
53(4) . . .
47(4) . . .
46(4) . . .
52(4) . . .
52(4) . . .
45(4) . . .
48(4) . . .
49(4) . . .
37.7(32) . . .
45.2(35) . . .
44(4) . . .
53(4) . . .
48(4) . . .
50(4) . . .
53(4) . . .
45(4) . . .
53(4) . . .
58(4) . . .
51(4) . . .
65(4) . . .
54(4) . . .
52(4) . . .
53(4) . . .
52(4) . . .
59(4) . . .
48(4) . . .
58(5) . . .
37.3(32) . . .
50(4) . . .
48(4) . . .
47(4) . . .
53(4) . . .
58(4) . . .
54(4) . . .
62(4) . . .
47(4) . . .
47(4) . . .
47(4) . . .
52(4) . . .
55(4) . . .
52(4) . . .
48(4) . . .
51(4) . . .
46(4) . . .
51(4) . . .
53(4) . . .
50(4) . . .
53(4) . . .
47(4) . . .
43.1(34) . . .
44(4) . . .
55(4) . . .
48(4) . . .
59(4) . . .
55(4) . . .
46(4) . . .
57(4) . . .
47(4) . . .
53(4) . . .
46(4) . . .
34.5(32) . . .
45(4) . . .
51(4) . . .
52(4) . . .
60(4) . . .
54(4) . . .
49(4) . . .
49(4) . . .
52(4) . . .
48(4) . . .
51(4) . . .
51(4) . . .
49(4) . . .
44(4) . . .
50(4) . . .
49(4) . . .
47(4) . . .
59(4) . . .
56(4) . . .
60(4) . . .
50(4) . . .
47(4) . . .
50(4) . . .
44.0(34) . . .
54(4) . . .
60(4) . . .
52(4) . . .
54(4) . . .
48(4) . . .
47(4) . . .
50(4) . . .
52(4) . . .
55(4) . . .
46(4) . . .
48(4) . . .
50(4) . . .
52(4) . . .
54(4) . . .
56(4) . . .
57(4) . . .
51(4) . . .
60(4) . . .
49(4) . . .
57(4) . . .
56(4) . . .
49(4) . . .
58(4) . . .
54(4) . . .
57(4) . . .
53(4) . . .
42(4) . . .
51(4) . . .
54(4) . . .
52(4) . . .
48(4) . . .
52(4) . . .
59(4) . . .
49(4) . . .
51(4) . . .
45(4) . . .
49(4) . . .
50(4) . . .
51(4) . . .
41.0(33) . . .
51(4) . . .
51(4) . . .
57(4) . . .
49(4) . . .
53(4) . . .
38.9(33) . . .
54(4) . . .
56(4) . . .
50(4) . . .
52(4) . . .
40.0(35) . . .
46(4) . . .
53(4) . . .
63(4) . . .
47(4) . . .
42.0(34) . . .
52(4) . . .
54(4) . . .
49(4) . . .
49(4) . . .
51(4) . . .
56(4) . . .
61(4) . . .
49(4) . . .
55(4) . . .
54(4) . . .
56(4) . . .
56(4) . . .
54(4) . . .
50(4) . . .
42(4) . . .
46(4) . . .
56(4) . . .
48(4) . . .
50(4) . . .
45(4) . . .
53(4) . . .
48(4) . . .
43(4) . . .
52(4) . . .
56(4) . . .
48(4) . . .
45(4) . . .
50(4) . . .
53(4) . . .
44(4) . . .
46(4) . . .
46(4) . . .
43(4) . . .
47(4) . . .
48(4) . . .
47(4) . . .
45(4) . . .
49(4) . . .
49(4) . . .
58(4) . . .
43.4(35) . . .
43(4) . . .
46(4) . . .
51(4) . . .
55(4) . . .
51(4) . . .
53(4) . . .
56(4) . . .
51(4) . . .
43(4) . . .
56(4) . . .
58(4) . . .
56(4) . . .
52(4) . . .
41.6(34) . . .
49(4) . . .
58(4) . . .
55(4) . . .
46.5(35) . . .
53(4) . . .
54(4) . . .
52(4) . . .
48(4) . . .
57(4) . . .
53(4) . . .
49(4) . . .
50(4) . . .
50(4) . . .
48(4) . . .
52(4) . . .
49(4) . . .
51(4) . . .
52(4) . . .
42.9(34) . . .
44.1(35) . . .
55(4) . . .
43.8(35) . . .
49(4) . . .
51(4) . . .
53(4) . . .
45(4) . . .
56(4) . . .
53(4) . . .
50(4) . . .
44.8(35) . . .
50(4) . . .
32.9(31) . . .
43.2(35) . . .
52(4) . . .
54(4) . . .
54(4) . . .
47(4) . . .
58(4) . . .
49(4) . . .
56(4) . . .
52(4) . . .
52(4) . . .
49(4) . . .
44.2(35) . . .
46(4) . . .
56(4) . . .
57(4) . . .
52(4) . . .
52(4) . . .
53(4) . . .
50(4) . . .
60(4) . . .
51(4) . . .
57(4) . . .
53(4) . . .
46(4) . . .
43(4) . . .
42(4) . . .
53(4) . . .
50(4) . . .
57(4) . . .
41.5(34) . . .
50(4) . . .
51(4) . . .
49(4) . . .
54(4) . . .
54(4) . . .
42.3(33) . . .
55(4) . . .
54(4) . . .
56(4) . . .
49(4) . . .
47(4) . . .
55(4) . . .
61(4) . . .
52(4) . . .
44(4) . . .
48(4) . . .
49(4) . . .
53(4) . . .
54(4) . . .
49(4) . . .
52(4) . . .
42.2(34) . . .
51(4) . . .
53(4) . . .
41(4) . . .
46(4) . . .
47(4) . . .
48(4) . . .
43(4) . . .
49(4) . . .
53(4) . . .
44.8(35) . . .
54(4) . . .
56(4) . . .
50(4) . . .
46(4) . . .
54(4) . . .
52(4) . . .
52(4) . . .
56(4) . . .
42.6(34) . . .
43.6(35) . . .
48(4) . . .
52(4) . . .
53(4) . . .
52(4) . . .
50(4) . . .
40.0(34) . . .
44(4) . . .
56(4) . . .
46.1(35) . . .
53(4) . . .
43(4) . . .
47(4) . . .
39.9(34) . . .
52(4) . . .
41.8(34) . . .
46.2(35) . . .
49(4) . . .
57(4) . . .
48(4) . . .
52(4) . . .
67(5) . . .
52(4) . . .
58(4) . . .
50(4) . . .
45.7(35) . . .
45(4) . . .
46(4) . . .
53(4) . . .
41.8(33) . . .
58(4) . . .
51(4) . . .
55(4) . . .
56(4) . . .
56(4) . . .
48(4) . . .
48(4) . . .
50(4) . . .
40.2(33) . . .
50(4) . . .
57(4) . . .
52(4) . . .
52(4) . . .
56(4) . . .
51(4) . . .
57(4) . . .
52(4) . . .
46(4) . . .
48(4) . . .
48(4) . . .
57(4) . . .
53(4) . . .
51(4) . . .
50(4) . . .
54(4) . . .
51(4) . . .
45(4) . . .
38.1(33) . . .
41.1(34) . . .
54(4) . . .
46(4) . . .
61(4) . . .
54(4) . . .
49(4) . . .
51(4) . . .
52(4) . . .
51(4) . . .
51(4) . . .
50(4) . . .
60(4) . . .
49(4) . . .
50(4) . . .
51(4) . . .
47(4) . . .
53(4) . . .
51(4) . . .
53(4) . . .
47(4) . . .
57(4) . . .
54(4) . . .
53(4) . . .
44(4) . . .
46(4) . . .
54(4) . . .
52(4) . . .
45(4) . . .
47(4) . . .
51(4) . . .
50(4) . . .
59(4) . . .
55(4) . . .
51(4) . . .
51(4) . . .
53(4) . . .
53(4) . . .
42.2(34) . . .
47(4) . . .
46(4) . . .
45(4) . . .
51(4) . . .
45(4) . . .
35.8(31) . . .
43(4) . . .
53(4) . . .
53(4) . . .
56(4) . . .
54(4) . . .
50(4) . . .
49(4) . . .
48(4) . . .
60(4) . . .
55(4) . . .
50(4) . . .
39.2(33) . . .
54(4) . . .
43(4) . . .
44(4) . . .
43.3(35) . . .
45.0(35) . . .
57(4) . . .
53(4) . . .
42.8(34) . . .
53(4) . . .
48(4) . . .
42.8(34) . . .
41(4) . . .
44(4) . . .
44.3(35) . . .
42.1(33) . . .
52(4) . . .
57(4) . . .
52(4) . . .
41.6(35) . . .
49(4) . . .
48(4) . . .
48(4) . . .
53(4) . . .
49(4) . . .
51(4) . . .
44(4) . . .
52(4) . . .
55(4) . . .
41.6(34) . . .
50(4) . . .
63(4) . . .
44(4) . . .
46(4) . . .
45(4) . . .
45(4) . . .
59(4) . . .
57(4) . . .
50(4) . . .
45(4) . . .
54(4) . . .
51(4) . . .
44(4) . . .
50(4) . . .
57(4) . . .
45(4) . . .
49(4) . . .
48(4) . . .
49(4) . . .
44.8(35) . . .
51(4) . . .
47(4) . . .
49(4) . . .
40.0(33) . . .
43.0(35) . . .
62(4) . . .
62(4) . . .
57(4) . . .
46(4) . . .
55(4) . . .
45(4) . . .
56(4) . . .
63(4) . . .
53(4) . . .
48(4) . . .
62(4) . . .
51(4) . . .
47(4) . . .
48(4) . . .
43.6(35) . . .
48(4) . . .
56(4) . . .
48(4) . . .
47(4) . . .
53(4) . . .
58(4) . . .
47(4) . . .
55(4) . . .
60(4) . . .
50(4) . . .
40.9(34) . . .
47(4) . . .
53(4) . . .
58(4) . . .
50(4) . . .
62(4) . . .
47(4) . . .
48(4) . . .
48(4) . . .
42(4) . . .
45(4) . . .
43.1(35) . . .
58(4) . . .
53(4) . . .
49(4) . . .
51(4) . . .
54(4) . . .
47(4) . . .
50(4) . . .
49(4) . . .
56(4) . . .
48(4) . . .
39.9(33) . . .
48(4) . . .
52(4) . . .
52(4) . . .
60(4) . . .
52(4) . . .
52(4) . . .
40.8(35) . . .
46(4) . . .
41(4) . . .
52(4) . . .
55(4) . . .
52(4) . . .
47(4) . . .
48(4) . . .
48(4) . . .
47(4) . . .
54(4) . . .
53(4) . . .
47(4) . . .
51(4) . . .
49(4) . . .
52(4) . . .
47(4) . . .
60(4) . . .
49(4) . . .
62(4) . . .
47(4) . . .
49(4) . . .
50(4) . . .
49(4) . . .
47(4) . . .
45(4) . . .
51(4) . . .
42.4(34) . . .
48(4) . . .
43(4) . . .
38.8(34) . . .
43(4) . . .
49(4) . . .
52(4) . . .
55(4) . . .
55(4) . . .
53(4) . . .
42.6(34) . . .
51(4) . . .
57(4) . . .
49(4) . . .
42.1(34) . . .
40.3(34) . . .
37.4(32) . . .
59(4) . . .
49(4) . . .
60(4) . . .
55(4) . . .
64(4) . . .
55(4) . . .
53(4) . . .
44(4) . . .
52(4) . . .
44(4) . . .
56(4) . . .
54(4) . . .
52(4) . . .
49(4) . . .
40.3(33) . . .
47(4) . . .
52(4) . . .
48(4) . . .
62(4) . . .
45(4) . . .
40.8(34) . . .
44(4) . . .
49(4) . . .
49(4) . . .
46(4) . . .
51(4) . . .
48(4) . . .
46(4) . . .
50(4) . . .
53(4) . . .
45(4) . . .
59(4) . . .
53(4) . . .
45(4) . . .
64(4) . . .
48(4) . . .
49(4) . . .
46(4) . . .
45.0(35) . . .
51(4) . . .
53(4) . . .
50(4) . . .
46(4) . . .
43.1(34) . . .
51(4) . . .
52(4) . . .
41(4) . . .
48(4) . . .
41.9(34) . . .
51(4) . . .
45(4) . . .
51(4) . . .
36.6(32) . . .
49(4) . . .
43(4) . . .
40.9(35) . . .
41(4) . . .
42.7(34) . . .
41.3(34) . . .
50(4) . . .
57(4) . . .
49(4) . . .
47(4) . . .
40.5(34) . . .
48(4) . . .
53(4) . . .
44(4) . . .
45(4) . . .
47(4) . . .
41.4(34) . . .
56(4) . . .
54(4) . . .
50(4) . . .
53(4) . . .
40.5(35) . . .
47(4) . . .
56(4) . . .
54(4) . . .
47(4) . . .
48(4) . . .
47(4) . . .
48(4) . . .
45.3(35) . . .
49(4) . . .
51(4) . . .
44(4) . . .
55(4) . . .
48(4) . . .
55(4) . . .
53(4) . . .
58(4) . . .
49(4) . . .
54(4) . . .
59(4) . . .
52(4) . . .
38.9(32) . . .
44.1(34) . . .
43.2(34) . . .
48(4) . . .
49(4) . . .
49(4) . . .
46(4) . . .
52(4) . . .
61(4) . . .
48(4) . . .
49(4) . . .
52(4) . . .
47(4) . . .
44(4) . . .
47(4) . . .
50(4) . . .
48(4) . . .
60(4) . . .
55(4) . . .
60(4) . . .
57(4) . . .
60(4) . . .
33.8(31) . . .
48(4) . . .
55(4) . . .
58(4) . . .
55(4) . . .
42.9(35) . . .
51(4) . . .
50(4) . . .
60(4) . . .
52(4) . . .
53(4) . . .
52(4) . . .
53(4) . . .
51(4) . . .
57(4) . . .
54(4) . . .
50(4) . . .
47(4) . . .
48(4) . . .
49(4) . . .
48(4) . . .
55(4) . . .
57(4) . . .
63(4) . . .
52(4) . . .
48(4) . . .
43(4) . . .
50(4) . . .
44.5(35) . . .
54(4) . . .
40.2(35) . . .
46(4) . . .
47(4) . . .
55(4) . . .
61(4) . . .
58(4) . . .
48(4) . . .
42.8(34) . . .
46(4) . . .
52(4) . . .
46(4) . . .
47(4) . . .
50(4) . . .
44.2(34) . . .
46(4) . . .
52(4) . . .
47(4) . . .
51(4) . . .
55(4) . . .
40.1(33) . . .
38.7(32) . . .
43.9(35) . . .
40.2(33) . . .
49(4) . . .
51(4) . . .
43.9(35) . . .
48(4) . . .
57(4) . . .
42.5(34) . . .
51(4) . . .
54(4) . . .
46(4) . . .
46(4) . . .
49(4) . . .
42.5(34) . . .
54(4) . . .
49(4) . . .
41.4(35) . . .
47(4) . . .
46(4) . . .
51(4) . . .
48(4) . . .
59(4) . . .
43.9(34) . . .
43.4(34) . . .
49(4) . . .
55(4) . . .
52(4) . . .
56(4) . . .
52(4) . . .
50(4) . . .
52(4) . . .
45(4) . . .
49(4) . . .
44(4) . . .
42.1(35) . . .
53(4) . . .
47(4) . . .
49(4) . . .
45(4) . . .
47(4) . . .
54(4) . . .
51(4) . . .
57(4) . . .
49(4) . . .
48(4) . . .
47(4) . . .
51(4) . . .
49(4) . . .
51(4) . . .
46(4) . . .
46(4) . . .
41.2(34) . . .
53(4) . . .
49(4) . . .
42.5(35) . . .
43.2(35) . . .
46(4) . . .
52(4) . . .
56(4) . . .
44(4) . . .
46(4) . . .
45(4) . . .
54(4) . . .
51(4) . . .
44(4) . . .
39.8(33) . . .
54(4) . . .
40.9(34) . . .
58(4) . . .
48(4) . . .
43.1(35) . . .
52(4) . . .
44(4) . . .
56(4) . . .
49(4) . . .
51(4) . . .
45(4) . . .
43.7(35) . . .
47(4) . . .
53(4) . . .
55(4) . . .
44.6(34) . . .
45(4) . . .
44.3(35) . . .
63(4) . . .
49(4) . . .
42.2(34) . . .
48(4) . . .
46(4) . . .
37.2(32) . . .
46(4) . . .
47(4) . . .
49(4) . . .
34.5(33) . . .
37.2(33) . . .
45.0(35) . . .
43.2(34) . . .
52(4) . . .
47(4) . . .
36.2(32) . . .
44.6(35) . . .
49(4) . . .
46(4) . . .
47(4) . . .
50(4) . . .
38.8(33) . . .
54(4) . . .
49(4) . . .
40.7(34) . . .
55(4) . . .
50(4) . . .
47(4) . . .
50(4) . . .
55(4) . . .
53(4) . . .
42.5(34) . . .
47(4) . . .
44.1(35) . . .
45(4) . . .
45(4) . . .
57(4) . . .
49(4) . . .
44(4) . . .
36.2(32) . . .
46(4) . . .
43.0(34) . . .
47(4) . . .
47(4) . . .
51(4) . . .
50(4) . . .
47(4) . . .
53(4) . . .
40.6(35) . . .
54(4) . . .
42.5(34) . . .
41.1(34) . . .
52(4) . . .
52(4) . . .
51(4) . . .
54(4) . . .
43.2(35) . . .
44(4) . . .
51(4) . . .
42.3(34) . . .
55(4) . . .
49(4) . . .
51(4) . . .
55(4) . . .
58(4) . . .
41.5(33) . . .
58(4) . . .
49(4) . . .
49(4) . . .
50(4) . . .
46(4) . . .
51(4) . . .
40.3(33) . . .
39.8(34) . . .
54(4) . . .
40.4(33) . . .
47(4) . . .
54(4) . . .
58(4) . . .
47(4) . . .
48(4) . . .
56(4) . . .
41.2(34) . . .
56(4) . . .
46(4) . . .
52(4) . . .
50(4) . . .
50(4) . . .
45.2(35) . . .
55(4) . . .
56(4) . . .
47(4) . . .
39(4) . . .
47(4) . . .
51(4) . . .
52(4) . . .
56(4) . . .
57(4) . . .
52(4) . . .
45.3(35) . . .
47(4) . . .
55(4) . . .
50(4) . . .
44(4) . . .
52(4) . . .
58(4) . . .
43.5(35) . . .
50(4) . . .
53(4) . . .
49(4) . . .
45.6(35) . . .
42.0(35) . . .
44(4) . . .
59(4) . . .
53(4) . . .
47(4) . . .
44.1(35) . . .
50(4) . . .
44(4) . . .
47(4) . . .
51(4) . . .
53(4) . . .
57(4) . . .
55(4) . . .
50(4) . . .
49(4) . . .
51(4) . . .
49(4) . . .
47(4) . . .
46(4) . . .
48(4) . . .
40.0(35) . . .
55(4) . . .
43.3(35) . . .
49(4) . . .
37.0(31) . . .
48(4) . . .
52(4) . . .
64(4) . . .
48(4) . . .
43(4) . . .
49(4) . . .
52(4) . . .
53(4) . . .
54(4) . . .
51(4) . . .
55(4) . . .
52(4) . . .
56(4) . . .
47(4) . . .
45(4) . . .
48(4) . . .
42.3(34) . . .
54(4) . . .
53(4) . . .
41.4(34) . . .
40.6(34) . . .
40.1(33) . . .
46(4) . . .
40.4(33) . . .
49(4) . . .
47(4) . . .
58(4) . . .
49(4) . . .
44.9(35) . . .
40.3(34) . . .
43(4) . . .
49(4) . . .
55(4) . . .
33.5(30) . . .
40.1(33) . . .
54(4) . . .
49(4) . . .
56(4) . . .
50(4) . . .
48(4) . . .
52(4) . . .
59(4) . . .
52(4) . . .
56(4) . . .
49(4) . . .
46(4) . . .
45(4) . . .
46.2(35) . . .
51(4) . . .
49(4) . . .
51(4) . . .
48(4) . . .
53(4) . . .
51(4) . . .
48(4) . . .
44(4) . . .
38.0(32) . . .
47(4) . . .
39.0(34) . . .
56(4) . . .
53(4) . . .
61(4) . . .
53(4) . . .
42.1(34) . . .
54(4) . . .
44(4) . . .
52(4) . . .
43.8(35) . . .
49(4) . . .
46(4) . . .
57(4) . . .
48(4) . . .
51(4) . . .
54(4) . . .
57(4) . . .
45(4) . . .
48(4) . . .
42.6(34) . . .
55(4) . . .
45(4) . . .
48(4) . . .
52(4) . . .
55(4) . . .
44.1(35) . . .
46(4) . . .
49(4) . . .
44.5(35) . . .
48(4) . . .
41.1(33) . . .
44(4) . . .
35.0(33) . . .
46(4) . . .
54(4) . . .
50(4) . . .
58(4) . . .
49(4) . . .
38.8(32) . . .
54(4) . . .
47(4) . . .
41.5(35) . . .
50(4) . . .
40.8(34) . . .
54(4) . . .
47(4) . . .
29.0(30) . . .
36.4(32) . . .
50(4) . . .
45(4) . . .
50(4) . . .
55(4) . . .
48(4) . . .
36.6(31) . . .
41(4) . . .
38.6(35) . . .
40.9(34) . . .
38.9(33) . . .
47(4) . . .
46(4) . . .
45(4) . . .
53(4) . . .
54(4) . . .
55(4) . . .
49(4) . . .
44(4) . . .
48(4) . . .
42.7(34) . . .
50(4) . . .
46(4) . . .
46(4) . . .
46(4) . . .
41.6(34) . . .
57(4) . . .
42.4(34) . . .
54(4) . . .
49(4) . . .
53(4) . . .
42.4(33) . . .
49(4) . . .
49(4) . . .
52(4) . . .
49(4) . . .
40.6(34) . . .
54(4) . . .
45(4) . . .
50(4) . . .
54(4) . . .
45(4) . . .
48(4) . . .
54(4) . . .
48(4) . . .
43.5(35) . . .
46(4) . . .
46(4) . . .
52(4) . . .
49(4) . . .
41.8(34) . . .
43(4) . . .
49(4) . . .
39.0(33) . . .
50(4) . . .
52(4) . . .
44(4) . . .
45(4) . . .
58(4) . . .
53(4) . . .
39.8(33) . . .
43.2(35) . . .
56(4) . . .
56(4) . . .
42.2(34) . . .
41.9(34) . . .
45(4) . . .
47(4) . . .
49(4) . . .
47(4) . . .
40.1(34) . . .
46(4) . . .
50(4) . . .
49(4) . . .
52(4) . . .
47(4) . . .
49(4) . . .
50(4) . . .
48(4) . . .
48(4) . . .
45.3(35) . . .
46(4) . . .
45(4) . . .
40.4(33) . . .
46(4) . . .
48(4) . . .
43(4) . . .
40(4) . . .
44(4) . . .
46(4) . . .
47(4) . . .
48(4) . . .
44(4) . . .
49(4) . . .
47(4) . . .
49(4) . . .
51(4) . . .
52(4) . . .
44.6(35) . . .
50(4) . . .
50(4) . . .
47(4) . . .
55(4) . . .
56(4) . . .
60(4) . . .
50(4) . . .
44(4) . . .
46(4) . . .
59(4) . . .
50(4) . . .
58(4) . . .
46(4) . . .
42.8(34) . . .
46.0(35) . . .
41.2(33) . . .
50(4) . . .
59(5) . . .
41.6(35) . . .
49(4) . . .
57(4) . . .
49(4) . . .
44(4) . . .
52(4) . . .
50(4) . . .
42.6(34) . . .
47(4) . . .
48(4) . . .
40.7(34) . . .
44.6(35) . . .
50(4) . . .
54(4) . . .
48(4) . . .
50(4) . . .
48(4) . . .
37.5(32) . . .
45(4) . . .
46(4) . . .
35.9(31) . . .
49(4) . . .
51(4) . . .
42.9(35) . . .
45(4) . . .
51(4) . . .
38.5(33) . . .
43(4) . . .
45(4) . . .
43(4) . . .
41.8(34) . . .
45.4(35) . . .
50(4) . . .
39.6(34) . . .
42(4) . . .
55(4) . . .
50(4) . . .
34.3(30) . . .
46(4) . . .
49(4) . . .
46(4) . . .
41.9(34) . . .
45(4) . . .
46(4) . . .
57(4) . . .
45(4) . . .
43.3(34) . . .
45(4) . . .
44(4) . . .
46(4) . . .
41.0(33) . . .
50(4) . . .
51(4) . . .
44(4) . . .
50(4) . . .
50(4) . . .
47(4) . . .
45(4) . . .
48(4) . . .
53(4) . . .
39.6(33) . . .
45.8(35) . . .
50(4) . . .
46(4) . . .
51(4) . . .
54(4) . . .
43.5(34) . . .
40.5(34) . . .
46(4) . . .
57(4) . . .
39.8(33) . . .
51(4) . . .
55(4) . . .
57(4) . . .
48(4) . . .
44.8(35) . . .
44(4) . . .
35.4(32) . . .
39.7(35) . . .
39.1(32) . . .
52(4) . . .
42(4) . . .
44(4) . . .
38.5(34) . . .
51(4) . . .
56(4) . . .
50(4) . . .
49(4) . . .
43.8(34) . . .
53(4) . . .
62(4) . . .
54(4) . . .
50(4) . . .
54(4) . . .
49(4) . . .
43.8(35) . . .
46(4) . . .
47(4) . . .
51(4) . . .
51(4) . . .
44.6(35) . . .
45(4) . . .
41.2(34) . . .
54(4) . . .
43.2(34) . . .
43.1(34) . . .
50(4) . . .
62(5) . . .
47(4) . . .
47(4) . . .
53(4) . . .
50(4) . . .
46(4) . . .
45(4) . . .
48(4) . . .
57(4) . . .
49(4) . . .
45(4) . . .
47(4) . . .
59(4) . . .
48(4) . . .
50(4) . . .
46(4) . . .
46(4) . . .
43.0(34) . . .
40.9(34) . . .
58(4) . . .
45(4) . . .
57(4) . . .
44.8(34) . . .
44(4) . . .
52(4) . . .
46(4) . . .
50(4) . . .
43.1(34) . . .
48(4) . . .
45(4) . . .
40.9(34) . . .
47(4) . . .
40.7(33) . . .
52(4) . . .
46(4) . . .
39.4(34) . . .
46(4) . . .
36.9(32) . . .
44(4) . . .
49(4) . . .
56(4) . . .
42(4) . . .
55(4) . . .
46.9(35) . . .
48(4) . . .
35.3(31) . . .
45.5(35) . . .
42.6(35) . . .
49(4) . . .
47(4) . . .
46(4) . . .
45(4) . . .
50(4) . . .
52(4) . . .
47(4) . . .
50(4) . . .
51(4) . . .
49(4) . . .
53(4) . . .
50(4) . . .
48(4) . . .
49(4) . . .
42.5(35) . . .
46(4) . . .
47(4) . . .
49(4) . . .
54(4) . . .
39.4(34) . . .
55(4) . . .
48(4) . . .
36.1(31) . . .
51(4) . . .
49(4) . . .
57(4) . . .
49(4) . . .
46(4) . . .
46(4) . . .
52(4) . . .
51(4) . . .
53(4) . . .
51(4) . . .
47(4) . . .
45(4) . . .
48(4) . . .
46(4) . . .
45(4) . . .
45(4) . . .
44(4) . . .
48(4) . . .
46(4) . . .
44.1(35) . . .
54(4) . . .
49(4) . . .
45(4) . . .
48(4) . . .
40.6(33) . . .
53(4) . . .
45(4) . . .
43(4) . . .
48(4) . . .
49(4) . . .
49(4) . . .
43(4) . . .
45(4) . . .
43(4) . . .
42.9(35) . . .
49(4) . . .
53(4) . . .
51(4) . . .
48(4) . . .
50(4) . . .
49(4) . . .
45(4) . . .
48(4) . . .
57(4) . . .
45.8(35) . . .
53(4) . . .
47(4) . . .
45(4) . . .
49(4) . . .
42.5(34) . . .
43(4) . . .
35.0(32) . . .
39.6(35) . . .
49(4) . . .
44(4) . . .
51(4) . . .
48(4) . . .
46(4) . . .
44(4) . . .
34.7(31) . . .
47(4) . . .
50(4) . . .
51(4) . . .
57(4) . . .
42.8(34) . . .
48(4) . . .
48(4) . . .
53(4) . . .
49(4) . . .
46(4) . . .
49(4) . . .
49(4) . . .
37.4(33) . . .
48(4) . . .
50(4) . . .
44(4) . . .
47(4) . . .
36.2(31) . . .
47(4) . . .
48(4) . . .
41(4) . . .
48(4) . . .
48(4) . . .
43(4) . . .
52(4) . . .
49(4) . . .
47(4) . . .
45(4) . . .
57(4) . . .
53(4) . . .
53(4) . . .
47(4) . . .
51(4) . . .
53(4) . . .
44.8(35) . . .
49(4) . . .
50(4) . . .
52(4) . . .
47(4) . . .
42(4) . . .
42(4) . . .
44(4) . . .
54(4) . . .
53(4) . . .
47(4) . . .
43(4) . . .
44(4) . . .
46(4) . . .
50(4) . . .
42.0(34) . . .
56(4) . . .
40.2(34) . . .
50(4) . . .
49(4) . . .
55(4) . . .
48(4) . . .
48(4) . . .
49(4) . . .
52(4) . . .
52(4) . . .
49(4) . . .
46(4) . . .
48(4) . . .
49(4) . . .
52(4) . . .
53(4) . . .
45(4) . . .
45(4) . . .
46(4) . . .
49(4) . . .
48(4) . . .
39.5(35) . . .
48(4) . . .
35.6(31) . . .
46(4) . . .
39.0(33) . . .
41.2(34) . . .
42.8(34) . . .
44.4(35) . . .
44(4) . . .
52(4) . . .
55(4) . . .
40.8(34) . . .
51(4) . . .
46(4) . . .
52(4) . . .
43(4) . . .
41.3(33) . . .
51(4) . . .
45.4(35) . . .
44(4) . . .
50(4) . . .
47(4) . . .
37.6(32) . . .
49(4) . . .
43.2(35) . . .
56(4) . . .
52(4) . . .
46(4) . . .
42.2(35) . . .
35.7(31) . . .
56(4) . . .
46.0(35) . . .
48(4) . . .
39.6(33) . . .
50(4) . . .
48(4) . . .
46(4) . . .
40.8(34) . . .
41(4) . . .
49(4) . . .
44(4) . . .
48(4) . . .
48(4) . . .
45(4) . . .
45(4) . . .
50(4) . . .
48(4) . . .
48(4) . . .
54(4) . . .
46(4) . . .
46(4) . . .
38.7(33) . . .
46(4) . . .
56(4) . . .
45(4) . . .
50(4) . . .
37.6(32) . . .
40.1(34) . . .
42(4) . . .
45(4) . . .
55(4) . . .
44.0(35) . . .
48(4) . . .
45(4) . . .
46(4) . . .
44.0(35) . . .
48(4) . . .
48(4) . . .
44(4) . . .
43(4) . . .
42.4(34) . . .
35.9(32) . . .
31.7(30) . . .
42.4(35) . . .
56(4) . . .
47(4) . . .
45(4) . . .
46(4) . . .
44(4) . . .
42.1(33) . . .
40.6(33) . . .
42.9(34) . . .
46(4) . . .
44(4) . . .
47(4) . . .
47(4) . . .
48(4) . . .
55(4) . . .
48(4) . . .
48(4) . . .
51(4) . . .
50(4) . . .
48(4) . . .
39.8(34) . . .
42.0(34) . . .
46(4) . . .
50(4) . . .
48(4) . . .
45(4) . . .
47(4) . . .
49(4) . . .
49(4) . . .
45(4) . . .
41.1(33) . . .
43.4(35) . . .
50(4) . . .
43(4) . . .
40(4) . . .
37.8(32) . . .
50(4) . . .
51(4) . . .
39.7(34) . . .
50(4) . . .
47(4) . . .
32.4(30) . . .
44.3(35) . . .
42.6(34) . . .
40(4) . . .
45(4) . . .
47(4) . . .
42(4) . . .
39.2(35) . . .
55(4) . . .
48(4) . . .
50(4) . . .
42.6(34) . . .
45.8(35) . . .
44.5(35) . . .
41.1(34) . . .
55(4) . . .
45(4) . . .
51(4) . . .
42.7(35) . . .
44(4) . . .
49(4) . . .
42.4(34) . . .
39.8(34) . . .
44(4) . . .
50(4) . . .
50(4) . . .
48(4) . . .
44(4) . . .
49(4) . . .
50(4) . . .
38.5(33) . . .
45(4) . . .
51(4) . . .
51(4) . . .
54(4) . . .
41.8(34) . . .
51(4) . . .
41(4) . . .
60(4) . . .
58(4) . . .
48(4) . . .
47(4) . . .
46(4) . . .
46(4) . . .
40.3(33) . . .
42.0(33) . . .
50(4) . . .
45(4) . . .
40.9(35) . . .
44(4) . . .
47(4) . . .
50(4) . . .
48(4) . . .
47(4) . . .
44.2(34) . . .
48(4) . . .
38.7(34) . . .
43.5(35) . . .
44.0(35) . . .
49(4) . . .
48(4) . . .
46(4) . . .
46(4) . . .
46(4) . . .
38.4(32) . . .
44(4) . . .
47(4) . . .
45(4) . . .
44(4) . . .
48(4) . . .
44(4) . . .
42.2(34) . . .
43.2(35) . . .
50(4) . . .
39.8(32) . . .
45(4) . . .
45(4) . . .
50(4) . . .
40.2(34) . . .
47(4) . . .
43(4) . . .
38(4) . . .
52(4) . . .
43.0(34) . . .
43.2(34) . . .
40.9(34) . . .
32.4(32) . . .
47(4) . . .
59(4) . . .
36.0(31) . . .
48(4) . . .
56(4) . . .
48(4) . . .
46(4) . . .
35.0(31) . . .
47(4) . . .
55(4) . . .
45(4) . . .
52(4) . . .
53(4) . . .
45(4) . . .
42(4) . . .
45(4) . . .
42.4(34) . . .
54(4) . . .
48(4) . . .
42.5(34) . . .
47(4) . . .
40.7(33) . . .
44(4) . . .
54(4) . . .
47(4) . . .
49(4) . . .
43.9(34) . . .
44(4) . . .
46(4) . . .
52(4) . . .
42.4(33) . . .
56(4) . . .
51(4) . . .
47(4) . . .
45(4) . . .
43(4) . . .
55(4) . . .
54(4) . . .
49(4) . . .
50(4) . . .
50(4) . . .
46(4) . . .
44(4) . . .
45(4) . . .
43(4) . . .
50(4) . . .
48(4) . . .
48(4) . . .
48(4) . . .
45.1(35) . . .
49(4) . . .
45.2(35) . . .
43(4) . . .
45(4) . . .
38.0(32) . . .
45(4) . . .
33.3(30) . . .
45(4) . . .
43(4) . . .
44(4) . . .
50(4) . . .
46(4) . . .
47(4) . . .
56(4) . . .
49(4) . . .
59(4) . . .
54(4) . . .
47(4) . . .
54(4) . . .
49(4) . . .
48(4) . . .
40.2(34) . . .
32.1(30) . . .
46(4) . . .
39.2(34) . . .
49(4) . . .
51(4) . . .
48(4) . . .
44.0(35) . . .
43.6(35) . . .
52(4) . . .
45(4) . . .
54(4) . . .
45(4) . . .
40.2(34) . . .
43.0(34) . . .
51(4) . . .
49(4) . . .
43.9(35) . . .
50(4) . . .
45.5(35) . . .
49(4) . . .
47(4) . . .
53(4) . . .
45(4) . . .
46.3(35) . . .
41.2(33) . . .
42(4) . . .
47(4) . . .
52(4) . . .
39.7(33) . . .
46(4) . . .
45(4) . . .
52(4) . . .
50(4) . . .
43.0(35) . . .
48(4) . . .
41(4) . . .
46(4) . . .
45.5(35) . . .
43.3(34) . . .
49(4) . . .
46(4) . . .
46(4) . . .
50(4) . . .
52(4) . . .
56(4) . . .
57(4) . . .
56(4) . . .
60(4) . . .
45(4) . . .
44.2(35) . . .
47(4) . . .
42.8(34) . . .
44.8(35) . . .
50(4) . . .
46(4) . . .
44(4) . . .
50(4) . . .
43.3(35) . . .
51(4) . . .
52(4) . . .
52(4) . . .
39.6(33) . . .
49(4) . . .
55(4) . . .
43(4) . . .
47(4) . . .
48(4) . . .
52(4) . . .
43.1(35) . . .
51(4) . . .
52(4) . . .
46(4) . . .
48(4) . . .
44(4) . . .
48(4) . . .
43.7(35) . . .
41.0(35) . . .
41.7(33) . . .
48(4) . . .
40.5(34) . . .
41.4(34) . . .
43.2(34) . . .
47(4) . . .
56(4) . . .
35.5(32) . . .
43(4) . . .
42.5(34) . . .
40.8(33) . . .
40.9(33) . . .
38.2(34) . . .
41.7(35) . . .
51(4) . . .
47(4) . . .
39.0(32) . . .
55(4) . . .
49(4) . . .
48(4) . . .
48(4) . . .
56(4) . . .
49(4) . . .
41.3(35) . . .
39.8(32) . . .
44(4) . . .
46(4) . . .
59(4) . . .
52(4) . . .
41.8(34) . . .
47(4) . . .
44(4) . . .
53(4) . . .
52(4) . . .
41.2(33) . . .
36.5(33) . . .
42.1(35) . . .
50(4) . . .
39.4(33) . . .
44.5(35) . . .
45(4) . . .
46(4) . . .
48(4) . . .
43.0(34) . . .
51(4) . . .
47(4) . . .
45(4) . . .
62(4) . . .
47(4) . . .
43.1(34) . . .
48(4) . . .
49(4) . . .
45(4) . . .
47(4) . . .
40.0(33) . . .
48(4) . . .
44(4) . . .
43(4) . . .
35.6(31) . . .
46(4) . . .
57(4) . . .
47(4) . . .
47(4) . . .
44.0(34) . . .
45(4) . . .
42(4) . . .
40.1(35) . . .
39.1(34) . . .
39.5(33) . . .
47(4) . . .
36.7(31) . . .
52(4) . . .
43.6(35) . . .
43.2(34) . . .
45(4) . . .
40.2(35) . . .
38.0(32) . . .
58(4) . . .
47(4) . . .
45(4) . . .
47(4) . . .
38.9(33) . . .
41(4) . . .
47(4) . . .
48(4) . . .
44(4) . . .
47(4) . . .
53(4) . . .
49(4) . . .
41(4) . . .
40(4) . . .
53(4) . . .
45.2(35) . . .
45(4) . . .
37.4(32) . . .
45(4) . . .
48(4) . . .
46(4) . . .
52(4) . . .
45(4) . . .
47(4) . . .
49(4) . . .
47(4) . . .
37.5(32) . . .
46(4) . . .
45(4) . . .
45(4) . . .
45.3(35) . . .
44.2(35) . . .
47(4) . . .
40(4) . . .
43(4) . . .
47(4) . . .
50(4) . . .
43(4) . . .
49(4) . . .
51(4) . . .
41.3(34) . . .
48(4) . . .
46(4) . . .
43(4) . . .
44(4) . . .
44.2(35) . . .
63(4) . . .
41.0(34) . . .
42(4) . . .
36.1(31) . . .
42.9(34) . . .
46(4) . . .
46(4) . . .
47(4) . . .
43.7(34) . . .
43.3(34) . . .
54(4) . . .
47(4) . . .
52(4) . . .
47(4) . . .
49(4) . . .
50(4) . . .
46(4) . . .
46(4) . . .
48(4) . . .
57(4) . . .
39.0(32) . . .
47(4) . . .
54(4) . . .
42.8(34) . . .
46(4) . . .
46(4) . . .
50(4) . . .
45(4) . . .
47(4) . . .
44(4) . . .
53(4) . . .
38.5(32) . . .
38.7(34) . . .
44.9(34) . . .
34.6(32) . . .
49(4) . . .
49(4) . . .
49(4) . . .
50(4) . . .
46(4) . . .
49(4) . . .
46(4) . . .
41.2(34) . . .
44.2(34) . . .
40.5(34) . . .
49(4) . . .
48(4) . . .
43(4) . . .
44.7(35) . . .
41(4) . . .
55(4) . . .
41.4(34) . . .
39.2(34) . . .
52(4) . . .
51(4) . . .
47(4) . . .
49(4) . . .
48(4) . . .
48(4) . . .
44.3(35) . . .
52(4) . . .
37.5(32) . . .
45(4) . . .
38.5(32) . . .
53(4) . . .
42(4) . . .
38.0(32) . . .
44.8(35) . . .
41.3(34) . . .
42(4) . . .
53(4) . . .
48(4) . . .
41.0(35) . . .
41.8(34) . . .
45(4) . . .
48(4) . . .
45.1(35) . . .
43.3(34) . . .
51(4) . . .
52(4) . . .
52(4) . . .
55(4) . . .
39.2(32) . . .
51(4) . . .
48(4) . . .
50(4) . . .
49(4) . . .
44.6(35) . . .
38.4(32) . . .
44(4) . . .
42(4) . . .
42.1(35) . . .
50(4) . . .
50(4) . . .
50(4) . . .
43.2(34) . . .
49(4) . . .
54(4) . . .
45.8(35) . . .
51(4) . . .
41.7(35) . . .
51(4) . . .
37.6(32) . . .
41.0(33) . . .
54(4) . . .
41.6(34) . . .
47(4) . . .
48(4) . . .
45(4) . . .
43(4) . . .
44(4) . . .
37.7(32) . . .
47(4) . . .
39(4) . . .
38(4) . . .
39.3(33) . . .
50(4) . . .
44.3(35) . . .
43.3(35) . . .
54(4) . . .
43(4) . . .
46(4) . . .
38.0(32) . . .
52(4) . . .
44(4) . . .
49(4) . . .
53(4) . . .
46(4) . . .
39.5(33) . . .
35.3(33) . . .
45(4) . . .
44.6(35) . . .
40.8(33) . . .
46(4) . . .
38.3(34) . . .
42(4) . . .
40.4(33) . . .
36.4(31) . . .
48(4) . . .
41(4) . . .
43(4) . . .
53(4) . . .
43.7(34) . . .
43.5(35) . . .
45(4) . . .
49(4) . . .
42.6(35) . . .
44.4(35) . . .
43(4) . . .
45(4) . . .
41.5(34) . . .
38.3(32) . . .
32.3(30) . . .
44(4) . . .
48(4) . . .
44.3(35) . . .
34.6(31) . . .
49(4) . . .
46(4) . . .
42.6(34) . . .
46(4) . . .
50(4) . . .
40.9(35) . . .
55(4) . . .
42(4) . . .
46(4) . . .
44(4) . . .
47(4) . . .
40.4(34) . . .
45(4) . . .
46.4(35) . . .
45.9(35) . . .
40.7(35) . . .
35.0(31) . . .
41.1(34) . . .
36.3(32) . . .
42.8(34) . . .
49(4) . . .
35.7(35) . . .
41(4) . . .
47(4) . . .
47(4) . . .
43(4) . . .
35.7(34) . . .
60(5) . . .
44(4) . . .
41.7(35) . . .
35.2(31) . . .
44(4) . . .
44(4) . . .
40.7(33) . . .
43(4) . . .
42.7(35) . . .
48(4) . . .
46(4) . . .
40.8(34) . . .
53(4) . . .
49(4) . . .
45(4) . . .
45(4) . . .
49(4) . . .
49(4) . . .
39.0(33) . . .
44(4) . . .
51(4) . . .
49(4) . . .
50(4) . . .
51(4) . . .
56(4) . . .
41.8(34) . . .
48(4) . . .
47(4) . . .
45(4) . . .
56(4) . . .
47(4) . . .
49(4) . . .
45(4) . . .
48(4) . . .
45(4) . . .
57(4) . . .
37.8(31) . . .
48(4) . . .
46(4) . . .
42.5(34) . . .
45(4) . . .
40.3(33) . . .
40.4(35) . . .
36.7(33) . . .
40.5(32) . . .
49(4) . . .
52(4) . . .
50(4) . . .
44(4) . . .
52(4) . . .
44.1(34) . . .
47(4) . . .
48(4) . . .
51(4) . . .
43.4(35) . . .
33.9(30) . . .
48(4) . . .
42.2(34) . . .
49(4) . . .
41.8(34) . . .
38.4(32) . . .
44(4) . . .
40.5(34) . . .
41.4(35) . . .
44(4) . . .
41.7(34) . . .
35.9(32) . . .
39.3(34) . . .
49(4) . . .
48(4) . . .
51(4) . . .
43.9(35) . . .
50(4) . . .
36.7(32) . . .
46(4) . . .
40.1(33) . . .
45(4) . . .
45.4(35) . . .
45(4) . . .
39.3(35) . . .
45(4) . . .
44(4) . . .
34.6(32) . . .
48(4) . . .
51(4) . . .
42.9(34) . . .
46(4) . . .
50(4) . . .
45.1(35) . . .
46.6(35) . . .
42.2(35) . . .
37.4(32) . . .
41(4) . . .
39.8(34) . . .
44.7(34) . . .
39.8(33) . . .
43(4) . . .
35.6(34) . . .
48(4) . . .
43.8(34) . . .
45.5(35) . . .
37.3(33) . . .
46(4) . . .
52(4) . . .
48(4) . . .
43.1(35) . . .
52(4) . . .
48(4) . . .
50(4) . . .
39.2(33) . . .
41.6(34) . . .
36.1(33) . . .
45(4) . . .
49(4) . . .
46(4) . . .
38.9(32) . . .
42(4) . . .
50(4) . . .
44.0(35) . . .
40.3(34) . . .
47(4) . . .
41(4) . . .
48(4) . . .
41(4) . . .
37.3(32) . . .
46(4) . . .
38.7(34) . . .
45(4) . . .
47(4) . . .
48(4) . . .
50(4) . . .
43(4) . . .
43(4) . . .
43.3(34) . . .
39.3(33) . . .
39.3(34) . . .
51(4) . . .
40.0(34) . . .
47(4) . . .
43.1(34) . . .
36.1(33) . . .
44(4) . . .
53(4) . . .
44.0(35) . . .
54(4) . . .
41(4) . . .
41(4) . . .
44(4) . . .
40.6(33) . . .
34.7(30) . . .
45(4) . . .
40.0(34) . . .
45(4) . . .
53(4) . . .
44.3(35) . . .
47(4) . . .
50(4) . . .
32.0(30) . . .
41.8(34) . . .
38.6(33) . . .
47(4) . . .
44(4) . . .
40.5(35) . . .
53(4) . . .
34.0(32) . . .
33.5(31) . . .
34.2(30) . . .
41.8(33) . . .
35.9(31) . . .
36.6(32) . . .
46(4) . . .
41.7(35) . . .
46(4) . . .
52(4) . . .
39.1(33) . . .
42(4) . . .
37.3(32) . . .
43.2(34) . . .
40.4(33) . . .
42(4) . . .
48(4) . . .
38.1(32) . . .
47(4) . . .
43.3(34) . . .
34.5(31) . . .
37.0(33) . . .
47(4) . . .
46(4) . . .
37.5(33) . . .
40(4) . . .
40(4) . . .
44(4) . . .
50(4) . . .
46(4) . . .
56(4) . . .
47(4) . . .
36.7(33) . . .
45.2(35) . . .
43.6(34) . . .
40.8(33) . . .
50(4) . . .
43(4) . . .
47(4) . . .
51(4) . . .
38.3(34) . . .
36.9(32) . . .
40.1(34) . . .
41.5(33) . . .
38.5(33) . . .
41(4) . . .
49(4) . . .
51(4) . . .
39.3(33) . . .
37.9(32) . . .
45(4) . . .
46(4) . . .
41.4(33) . . .
40.5(33) . . .
41.1(35) . . .
38.3(35) . . .
46(4) . . .
35.7(32) . . .
56(4) . . .
44(4) . . .
54(4) . . .
36.9(32) . . .
37.8(34) . . .
44.5(34) . . .
38(4) . . .
28.8(29) . . .
30.7(30) . . .
39.5(33) . . .
35.6(31) . . .
38.6(33) . . .
42.9(35) . . .
43.8(34) . . .
41.7(33) . . .
48(4) . . .
45(4) . . .
39.8(35) . . .
43(4) . . .
40.8(34) . . .
46(4) . . .
41.3(35) . . .
47(4) . . .
55(4) . . .
56(4) . . .
41.1(34) . . .
40.9(35) . . .
35.1(31) . . .
59(4) . . .
43.5(34) . . .
38.7(32) . . .
47(4) . . .
47(4) . . .
41.8(34) . . .
36.5(32) . . .
40.7(33) . . .
48(4) . . .
43(4) . . .
41.3(34) . . .
49(4) . . .
36.8(31) . . .
48(4) . . .
48(4) . . .
34.7(31) . . .
47(4) . . .
38.0(32) . . .
41(4) . . .
44(4) . . .
39.8(34) . . .
34.5(31) . . .
36.2(32) . . .
48(4) . . .
38.8(32) . . .
41.6(34) . . .
38.8(32) . . .
34.1(31) . . .
34.6(31) . . .
44(4) . . .
46(4) . . .
42.3(34) . . .
40.9(33) . . .
50(4) . . .
50(4) . . .
50(4) . . .
51(4) . . .
51(4) . . .
43(4) . . .
38.8(32) . . .
38.8(32) . . .
30.3(29) . . .
41(4) . . .
38.1(33) . . .
36.4(32) . . .
51(4) . . .
43.6(35) . . .
48(4) . . .
39.2(34) . . .
34.1(31) . . .
42.3(33) . . .
49(4) . . .
38.9(33) . . .
42(4) . . .
35.9(33) . . .
37.7(32) . . .
53(4) . . .
51(4) . . .
38.7(33) . . .
45(4) . . .
34.4(32) . . .
42.9(33) . . .
44(4) . . .
36.8(34) . . .
39(4) . . .
41.6(33) . . .
43(4) . . .
39.3(33) . . .
48(4) . . .
39.4(34) . . .
39.7(33) . . .
44(4) . . .
55(4) . . .
45(4) . . .
52(4) . . .
53(4) . . .
44.6(35) . . .
54(4) . . .
47(4) . . .
43(4) . . .
44.9(35) . . .
38.5(34) . . .
44(4) . . .
59(4) . . .
37.1(32) . . .
49(4) . . .
44(4) . . .
40.9(34) . . .
46(4) . . .
50(4) . . .
45(4) . . .
42(4) . . .
37.3(35) . . .
32.4(31) . . .
38.5(34) . . .
42.6(34) . . .
51(4) . . .
41.8(35) . . .
48(4) . . .
47(4) . . .
46(4) . . .
42.7(34) . . .
51(4) . . .
47(4) . . .
46(4) . . .
37.1(31) . . .
47(4) . . .
42.4(34) . . .
46(4) . . .
48(4) . . .
42.4(33) . . .
40.5(33) . . .
55(4) . . .
46(4) . . .
43.7(34) . . .
46(4) . . .
40.4(35) . . .
38.0(33) . . .
43(4) . . .
44.5(34) . . .
46(4) . . .
40.7(35) . . .
40.5(35) . . .
41.8(34) . . .
42.6(34) . . .
42.9(35) . . .
43(4) . . .
41.8(35) . . .
34.6(31) . . .
42.8(34) . . .
37.9(34) . . .
46(4) . . .
46(4) . . .
44.5(35) . . .
42.3(34) . . .
37.0(32) . . .
36.0(33) . . .
43(4) . . .
59(4) . . .
48(4) . . .
49(4) . . .
42(4) . . .
34.1(32) . . .
48(4) . . .
36.1(32) . . .
40(4) . . .
47(4) . . .
44.4(35) . . .
37.1(32) . . .
51(4) . . .
39.4(35) . . .
36.2(35) . . .
40.4(35) . . .
53(4) . . .
45(4) . . .
43(4) . . .
48(4) . . .
46(4) . . .
48(4) . . .
45(4) . . .
44(4) . . .
53(4) . . .
47(4) . . .
44.1(35) . . .
43.5(34) . . .
40.1(33) . . .
42.8(34) . . .
48(4) . . .
52(4) . . .
46(4) . . .
40.6(34) . . .
44(4) . . .
37.0(33) . . .
41.0(33) . . .
46(4) . . .
33.1(31) . . .
51(4) . . .
45(4) . . .
51(4) . . .
39.6(34) . . .
38.5(33) . . .
36.9(32) . . .
46(4) . . .
42.2(34) . . .
42(4) . . .
51(4) . . .
50(4) . . .
42.6(35) . . .
41.1(33) . . .
54(4) . . .
47(4) . . .
44(4) . . .
43(4) . . .
36.9(31) . . .
40(4) . . .
46(4) . . .
37.3(33) . . .
45.5(35) . . .
44.7(34) . . .
46(4) . . .
44(4) . . .
39.6(33) . . .
49(4) . . .
41.8(33) . . .
40.6(34) . . .
39(4) . . .
35.9(31) . . .
43.7(35) . . .
39.2(32) . . .
41(4) . . .
38.0(33) . . .
44(4) . . .
38.9(32) . . .
42(4) . . .
38.1(33) . . .
45(4) . . .
49(4) . . .
53(4) . . .
45.8(35) . . .
41.5(33) . . .
45(4) . . .
35.6(33) . . .
47(4) . . .
38.3(33) . . .
36.2(33) . . .
42.6(35) . . .
47(4) . . .
49(4) . . .
43.8(34) . . .
44(4) . . .
41(4) . . .
49(4) . . .
41.5(34) . . .
49(4) . . .
38.4(33) . . .
40.9(34) . . .
38.8(33) . . .
41.8(34) . . .
47(4) . . .
40.5(35) . . .
46(4) . . .
40.8(33) . . .
42.5(34) . . .
47(4) . . .
51(4) . . .
52(4) . . .
39.0(33) . . .
42.0(34) . . .
37.7(33) . . .
43(4) . . .
45(4) . . .
34.9(30) . . .
42.4(34) . . .
50(4) . . .
41(4) . . .
32.3(30) . . .
45.3(35) . . .
47(4) . . .
42.2(35) . . .
37.1(33) . . .
41.4(35) . . .
44.7(35) . . .
38.1(33) . . .
38.2(33) . . .
52(4) . . .
51(4) . . .
41.5(33) . . .
50(4) . . .
46(4) . . .
47(4) . . .
42.2(34) . . .
37.4(32) . . .
35.8(33) . . .
42.1(34) . . .
44(4) . . .
36.4(32) . . .
40.5(33) . . .
54(4) . . .
49(4) . . .
41.9(35) . . .
40.9(33) . . .
39.9(33) . . .
44(4) . . .
45(4) . . .
49(4) . . .
49(4) . . .
46(4) . . .
53(4) . . .
43(4) . . .
34.1(31) . . .
33.2(29) . . .
42.5(34) . . .
46(4) . . .
48(4) . . .
39.1(33) . . .
38.8(32) . . .
57(4) . . .
45.1(35) . . .
40(4) . . .
40.3(34) . . .
32.0(29) . . .
34.8(31) . . .
46(4) . . .
46(4) . . .
52(4) . . .
40.8(34) . . .
42.5(34) . . .
47(4) . . .
41(4) . . .
43.3(35) . . .
38.0(32) . . .
44.3(35) . . .
38.7(33) . . .
44(4) . . .
39.7(33) . . .
35.2(31) . . .
40.8(34) . . .
41.4(34) . . .
45(4) . . .
34.8(34) . . .
31.9(29) . . .
43(4) . . .
37.0(34) . . .
36.6(33) . . .
35.1(31) . . .
37.7(33) . . .
44(4) . . .
40(4) . . .
44(4) . . .
38.8(33) . . .
49(4) . . .
51(4) . . .
46(4) . . .
38.7(33) . . .
38.1(32) . . .
45(4) . . .
40.2(34) . . .
47(4) . . .
31.1(30) . . .
44(4) . . .
41.5(34) . . .
45(4) . . .
39.6(34) . . .
44(4) . . .
38.0(32) . . .
41.8(33) . . .
40.4(33) . . .
39(4) . . .
49(4) . . .
39.0(32) . . .
39.6(33) . . .
43(4) . . .
39(4) . . .
47(4) . . .
46(4) . . .
52(4) . . .
43(4) . . .
43(4) . . .
37.0(32) . . .
43.0(35) . . .
38.8(33) . . .
40(4) . . .
44(4) . . .
60(4) . . .
41.7(34) . . .
39.8(34) . . .
39.7(32) . . .
45(4) . . .
46(4) . . .
33.8(30) . . .
46(4) . . .
44(4) . . .
48(4) . . .
39.4(34) . . .
34.6(31) . . .
46(4) . . .
30.9(29) . . .
38.1(34) . . .
44(4) . . .
48(4) . . .
45(4) . . .
40(4) . . .
40.9(35) . . .
42.6(34) . . .
43.6(34) . . .
46(4) . . .
33.2(31) . . .
47(4) . . .
45(4) . . .
36.9(32) . . .
44(4) . . .
37.5(33) . . .
40.1(34) . . .
49(4) . . .
49(4) . . .
53(4) . . .
44(4) . . .
46(4) . . .
36.7(32) . . .
47(4) . . .
49(4) . . .
35.0(33) . . .
45(4) . . .
44.7(34) . . .
56(4) . . .
46(4) . . .
55(4) . . .
35.3(32) . . .
44.6(35) . . .
49(4) . . .
41.7(33) . . .
41.1(34) . . .
44(4) . . .
46(4) . . .
50(4) . . .
44(4) . . .
39.5(34) . . .
39.2(33) . . .
46(4) . . .
36.6(33) . . .
47(4) . . .
30.5(31) . . .
43(4) . . .
43.5(35) . . .
34.8(32) . . .
39.1(35) . . .
42(4) . . .
43.0(34) . . .
50(4) . . .
42.3(35) . . .
51(4) . . .
39.3(33) . . .
39.2(33) . . .
46(4) . . .
40.5(33) . . .
40(4) . . .
41.5(35) . . .
47(4) . . .
36.1(32) . . .
43.5(35) . . .
42(4) . . .
38.4(34) . . .
39.3(33) . . .
41.1(33) . . .
34.9(31) . . .
47(4) . . .
34.8(31) . . .
45.0(35) . . .
42.7(35) . . .
45(4) . . .
44(4) . . .
40.4(33) . . .
47(4) . . .
54(4) . . .
42.0(34) . . .
33.5(31) . . .
33.4(31) . . .
45(4) . . .
45(4) . . .
43(4) . . .
46(4) . . .
39(4) . . .
39.8(34) . . .
53(4) . . .
49(4) . . .
46(4) . . .
50(4) . . .
38.7(33) . . .
44(4) . . .
44(4) . . .
40.5(33) . . .
35.4(31) . . .
39.6(33) . . .
47(4) . . .
39.9(34) . . .
45(4) . . .
34.7(31) . . .
47(4) . . .
56(4) . . .
47(4) . . .
40.4(34) . . .
45(4) . . .
38.3(32) . . .
46(4) . . .
38.3(33) . . .
42(4) . . .
40.0(33) . . .
47(4) . . .
45(4) . . .
46(4) . . .
45(4) . . .
34.4(31) . . .
38.2(32) . . .
44(4) . . .
49(4) . . .
37.0(32) . . .
32.0(29) . . .
30.5(28) . . .
45(4) . . .
49(4) . . .
42.5(34) . . .
42.8(34) . . .
43.4(35) . . .
48(4) . . .
48(4) . . .
44(4) . . .
41.3(33) . . .
41.8(35) . . .
50(4) . . .
47(4) . . .
43(4) . . .
41.6(34) . . .
43(4) . . .
54(4) . . .
51(4) . . .
43.4(35) . . .
50(4) . . .
39.8(32) . . .
39.3(32) . . .
43(4) . . .
35.5(31) . . .
49(4) . . .
37.7(32) . . .
31.4(31) . . .
33.7(33) . . .
37.6(32) . . .
46(4) . . .
48(4) . . .
48(4) . . .
53(4) . . .
41(4) . . .
38.6(32) . . .
40.9(33) . . .
48(4) . . .
36.4(31) . . .
37.8(33) . . .
35.8(31) . . .
40(4) . . .
38(4) . . .
36.0(33) . . .
50(4) . . .
45.2(35) . . .
45.0(35) . . .
38.3(31) . . .
51(4) . . .
35.6(32) . . .
45.4(34) . . .
38.0(33) . . .
46(4) . . .
48(4) . . .
48(4) . . .
48(4) . . .
40.7(34) . . .
48(4) . . .
38.3(32) . . .
36.6(32) . . .
40.5(33) . . .
44(4) . . .
38(4) . . .
38.0(34) . . .
49(4) . . .
39.7(33) . . .
39.3(33) . . .
39.6(35) . . .
40.3(35) . . .
36.9(32) . . .
37.2(32) . . .
38.2(33) . . .
38.5(34) . . .
46(4) . . .
37.9(32) . . .
42.9(35) . . .
51(4) . . .
38.2(33) . . .
51(4) . . .
33.9(30) . . .
43(4) . . .
40(4) . . .
42(4) . . .
33.1(31) . . .
40.7(33) . . .
43(4) . . .
40.8(35) . . .
38.7(33) . . .
36.3(32) . . .
32.6(30) . . .
41(4) . . .
31.1(30) . . .
50(4) . . .
51(4) . . .
45.0(35) . . .
44(4) . . .
34.4(31) . . .
34.0(30) . . .
43.8(35) . . .
40.3(33) . . .
29.7(29) . . .
35.4(32) . . .
41.6(35) . . .
50(4) . . .
51(4) . . .
47(4) . . .
44(4) . . .
37.7(33) . . .
39.1(32) . . .
35.2(32) . . .
35.5(31) . . .
38(4) . . .
46(4) . . .
48(4) . . .
50(4) . . .
37.7(32) . . .
36.1(33) . . .
28.4(28) . . .
44.5(35) . . .
46(4) . . .
39.2(32) . . .
40.5(35) . . .
39.7(33) . . .
47(4) . . .
38.4(33) . . .
42.6(34) . . .
52(4) . . .
42.5(34) . . .
40.1(33) . . .
39.4(34) . . .
46(4) . . .
46(4) . . .
47(4) . . .
39.8(32) . . .
38.7(34) . . .
36.7(33) . . .
38.0(33) . . .
47(4) . . .
49(4) . . .
36.1(31) . . .
42(4) . . .
48(4) . . .
37.7(32) . . .
52(4) . . .
48(4) . . .
50(4) . . .
48(4) . . .
51(4) . . .
43.5(34) . . .
44(4) . . .
42(4) . . .
39.8(34) . . .
41.0(33) . . .
40.2(33) . . .
43(4) . . .
45(4) . . .
45(4) . . .
36.8(32) . . .
49(4) . . .
26.9(27) . . .
41(4) . . .
38.9(32) . . .
42.3(33) . . .
44(4) . . .
40.3(33) . . .
37.6(33) . . .
37.5(33) . . .
39.2(33) . . .
31.8(30) . . .
44(4) . . .
51(4) . . .
44(4) . . .
42.8(33) . . .
44.4(35) . . .
48(4) . . .
40(4) . . .
45(4) . . .
42.7(34) . . .
35.5(32) . . .
42(4) . . .
38.8(33) . . .
42.2(34) . . .
41.0(33) . . .
36.2(33) . . .
41(4) . . .
37.3(32) . . .
39.8(34) . . .
43.1(34) . . .
44(4) . . .
44(4) . . .
37.7(34) . . .
44.8(34) . . .
40.0(34) . . .
39.2(32) . . .
51(4) . . .
51(4) . . .
41.3(34) . . .
33.8(31) . . .
46(4) . . .
53(4) . . .
45(4) . . .
35.1(31) . . .
37.1(32) . . .
41.0(33) . . .
46(4) . . .
41.6(34) . . .
49(4) . . .
43.1(34) . . .
42.1(34) . . .
41(4) . . .
42(4) . . .
54(4) . . .
36.4(31) . . .
39.1(33) . . .
47(4) . . .
36.2(32) . . .
45.7(35) . . .
40.5(34) . . .
39.8(35) . . .
40(4) . . .
44(4) . . .
47(4) . . .
39.8(34) . . .
40.6(35) . . .
45(4) . . .
45(4) . . .
45.2(35) . . .
37.8(32) . . .
38.7(34) . . .
38.2(34) . . .
42.3(34) . . .
40.7(33) . . .
39.4(35) . . .
44(4) . . .
52(4) . . .
43.8(34) . . .
39.1(33) . . .
39.4(33) . . .
36.8(32) . . .
37.2(33) . . .
35.4(30) . . .
44.4(34) . . .
44(4) . . .
36.3(31) . . .
47(4) . . .
45(4) . . .
44.1(34) . . .
48(4) . . .
32.6(31) . . .
44(4) . . .
47(4) . . .
35.9(32) . . .
38.8(33) . . .
34.1(32) . . .
35.4(33) . . .
44(4) . . .
36.2(31) . . .
31.8(29) . . .
35.6(33) . . .
38.0(33) . . .
41.9(34) . . .
38.1(32) . . .
45(4) . . .
47(4) . . .
39.9(33) . . .
44.3(35) . . .
39.6(34) . . .
37.4(34) . . .
39.6(33) . . .
47(4) . . .
42.7(34) . . .
46(4) . . .
41.6(34) . . .
49(4) . . .
46(4) . . .
38.8(33) . . .
36.5(31) . . .
41(4) . . .
38.5(33) . . .
34.3(30) . . .
37.0(31) . . .
49(4) . . .
55(4) . . .
40.6(34) . . .
37.7(32) . . .
34.8(31) . . .
38.9(32) . . .
38.6(35) . . .
32.6(33) . . .
37.6(32) . . .
42.6(34) . . .
50(4) . . .
50(4) . . .
52(4) . . .
47(4) . . .
36.5(31) . . .
48(4) . . .
48(4) . . .
39.2(35) . . .
37.0(32) . . .
42.2(33) . . .
39.7(35) . . .
41(4) . . .
46(4) . . .
33.9(30) . . .
53(4) . . .
51(4) . . .
46(4) . . .
34.4(32) . . .
46(4) . . .
41.5(33) . . .
38.5(33) . . .
45(4) . . .
38.3(33) . . .
42.6(34) . . .
50(4) . . .
41.2(33) . . .
49(4) . . .
36.5(32) . . .
31.8(30) . . .
36.9(31) . . .
39.8(34) . . .
40.9(34) . . .
40(4) . . .
44.6(35) . . .
41.0(33) . . .
43.8(34) . . .
47(4) . . .
51(4) . . .
50(4) . . .
43(4) . . .
42(4) . . .
38.7(33) . . .
43(4) . . .
46.2(35) . . .
31.2(30) . . .
40.8(35) . . .
33.2(30) . . .
42(4) . . .
39.0(33) . . .
38.8(35) . . .
38.5(33) . . .
39.1(34) . . .
39.2(33) . . .
39.8(33) . . .
34.4(32) . . .
40(4) . . .
36.2(33) . . .
30.6(29) . . .
37.5(32) . . .
39.5(35) . . .
34.5(30) . . .
43.6(35) . . .
37.3(31) . . .
44.0(35) . . .
32.6(30) . . .
39.3(35) . . .
45(4) . . .
44.5(34) . . .
38.2(33) . . .
36.9(32) . . .
35.5(32) . . .
42(4) . . .
40.1(33) . . .
42.5(34) . . .
44(4) . . .
50(4) . . .
38.2(35) . . .
42.3(33) . . .
39.6(32) . . .
36.9(31) . . .
39.2(33) . . .
42.8(35) . . .
51(4) . . .
41.0(33) . . .
40.6(34) . . .
44(4) . . .
38(4) . . .
39.4(33) . . .
38.1(35) . . .
40.5(34) . . .
38.3(33) . . .
44(4) . . .
44.9(35) . . .
43(4) . . .
38.7(33) . . .
49(4) . . .
38.4(33) . . .
49(4) . . .
49(4) . . .
43(4) . . .
32.5(29) . . .
40.9(33) . . .
42.7(34) . . .
42.7(35) . . .
37.2(32) . . .
43(4) . . .
38.4(33) . . .
50(4) . . .
36.0(33) . . .
40(4) . . .
46(4) . . .
41.7(33) . . .
45(4) . . .
45(4) . . .
41(4) . . .
44.1(34) . . .
46(4) . . .
37.5(32) . . .
53(4) . . .
43(4) . . .
42(4) . . .
50(4) . . .
43.5(34) . . .
42.6(35) . . .
40.7(35) . . .
43(4) . . .
45(4) . . .
41(4) . . .
44(4) . . .
46(4) . . .
34.3(31) . . .
36.4(31) . . .
31.2(29) . . .
33(4) . . .
44(4) . . .
47(4) . . .
44(4) . . .
40.7(34) . . .
37.1(33) . . .
40.2(34) . . .
37.9(32) . . .
41.9(33) . . .
32.7(29) . . .
36.5(33) . . .
40.2(35) . . .
41.0(34) . . .
51(4) . . .
42.8(35) . . .
43.3(35) . . .
46(4) . . .
45.0(35) . . .
41.0(34) . . .
46(4) . . .
46(4) . . .
37.2(32) . . .
45(4) . . .
32.5(29) . . .
36.0(32) . . .
36.1(33) . . .
40.2(34) . . .
36.8(32) . . .
48(4) . . .
39.0(33) . . .
42(4) . . .
33.7(32) . . .
34.9(31) . . .
40.2(32) . . .
36.6(30) . . .
43(4) . . .
42.2(35) . . .
49(4) . . .
42.5(35) . . .
43(4) . . .
40(4) . . .
37.3(32) . . .
34.6(31) . . .
44.0(34) . . .
36.9(33) . . .
34.3(32) . . .
39(4) . . .
44.4(35) . . .
46(4) . . .
42.5(35) . . .
30.9(29) . . .
39.1(35) . . .
35.4(31) . . .
48(4) . . .
46(4) . . .
43(4) . . .
31.5(29) . . .
41.9(33) . . .
39.2(33) . . .
35.3(31) . . .
46(4) . . .
56(4) . . .
35.8(32) . . .
49(4) . . .
36.8(33) . . .
41.3(34) . . .
39.6(33) . . .
34.9(31) . . .
36.1(33) . . .
35.1(33) . . .
49(4) . . .
55(4) . . .
37.6(32) . . .
40.4(34) . . .
50(4) . . .
36.6(35) . . .
36.9(33) . . .
35.6(32) . . .
40.5(33) . . .
38.7(35) . . .
47(4) . . .
39.5(33) . . .
36.9(32) . . .
39.1(34) . . .
37.3(34) . . .
43.1(34) . . .
48(4) . . .
39.3(32) . . .
42(4) . . .
42(4) . . .
38.5(33) . . .
36.8(31) . . .
38.0(34) . . .
35.1(34) . . .
37.1(34) . . .
32.3(30) . . .
38.5(32) . . .
29.6(28) . . .
38.6(34) . . .
44(4) . . .
41(4) . . .
34.3(31) . . .
37.5(33) . . .
41(4) . . .
35.0(33) . . .
40.8(35) . . .
40.5(33) . . .
34.8(31) . . .
37.4(33) . . .
35.4(31) . . .
39.3(33) . . .
42.6(34) . . .
37.4(33) . . .
35.3(33) . . .
33.4(32) . . .
40.8(33) . . .
36.2(32) . . .
41.3(33) . . .
38.4(34) . . .
44(4) . . .
41.4(35) . . .
30.6(30) . . .
41.7(35) . . .
45(4) . . .
44(4) . . .
41.0(33) . . .
46.0(35) . . .
43(4) . . .
41(4) . . .
37.2(34) . . .
33.5(30) . . .
42.4(33) . . .
46(4) . . .
42(4) . . .
42.2(34) . . .
40.8(33) . . .
48(4) . . .
34.9(32) . . .
33.2(33) . . .
34.5(33) . . .
43.5(34) . . .
36.8(31) . . .
39.9(33) . . .
41(4) . . .
41(4) . . .
43.7(34) . . .
38.8(32) . . .
49(4) . . .
40.1(34) . . .
40(4) . . .
34.4(31) . . .
41.4(34) . . .
44(4) . . .
43(4) . . .
44(4) . . .
41.5(34) . . .
35.2(32) . . .
34.0(33) . . .
30.4(29) . . .
41(4) . . .
37.0(32) . . .
45(4) . . .
35.6(32) . . .
34.2(30) . . .
46(4) . . .
44.1(34) . . .
38.2(33) . . .
39.4(35) . . .
42.8(35) . . .
38.5(33) . . .
34.6(31) . . .
38.4(33) . . .
39(4) . . .
38(4) . . .
39.6(33) . . .
36.4(32) . . .
41.3(35) . . .
39.2(34) . . .
33.9(32) . . .
38.1(32) . . .
49(4) . . .
38.6(33) . . .
41(4) . . .
41(4) . . .
41.6(35) . . .
46(4) . . .
43.4(34) . . .
43(4) . . .
46(4) . . .
38.3(32) . . .
37.6(32) . . .
43(4) . . .
48(4) . . .
44(4) . . .
41.8(34) . . .
39.4(32) . . .
35.5(33) . . .
38(4) . . .
39.2(33) . . .
40.8(33) . . .
37.9(33) . . .
43(4) . . .
43.5(35) . . .
43.1(34) . . .
39.3(33) . . .
31.1(29) . . .
39.8(34) . . .
38.3(34) . . .
38.3(33) . . .
42.5(34) . . .
41.8(35) . . .
41.7(34) . . .
34.7(32) . . .
33.8(31) . . .
40.6(33) . . .
36.9(34) . . .
37.3(33) . . .
42(4) . . .
36.2(32) . . .
34.7(31) . . .
44(4) . . .
37.1(33) . . .
38.6(33) . . .
45.5(35) . . .
41.1(33) . . .
37.0(34) . . .
42.0(35) . . .
43(4) . . .
48(4) . . .
42.3(34) . . .
37.7(33) . . .
41(4) . . .
39.2(33) . . .
49(4) . . .
48(4) . . .
42.2(35) . . .
45(4) . . .
43(4) . . .
40.3(33) . . .
41.3(34) . . .
45(4) . . .
49(4) . . .
45(4) . . .
41.6(33) . . .
35.5(32) . . .
31.2(29) . . .
42(4) . . .
37(4) . . .
44.9(35) . . .
41.4(34) . . .
35.1(32) . . .
45(4) . . .
47(4) . . .
47(4) . . .
33.7(31) . . .
37.1(34) . . .
50(4) . . .
44(4) . . .
36.3(31) . . .
38.5(34) . . .
46(4) . . .
48(4) . . .
31.0(29) . . .
42.0(34) . . .
32.1(30) . . .
39(4) . . .
39.9(34) . . .
42.8(34) . . .
37.0(32) . . .
41.6(34) . . .
41.8(34) . . .
51(4) . . .
36.5(31) . . .
36.5(31) . . .
45(4) . . .
38.7(33) . . .
36.1(32) . . .
34.3(31) . . .
50(4) . . .
39.5(33) . . .
48(4) . . .
42(4) . . .
43.7(34) . . .
40.5(33) . . .
39.5(33) . . .
37.1(32) . . .
43.4(34) . . .
51(4) . . .
57(4) . . .
45(4) . . .
38.4(34) . . .
44(4) . . .
43.2(34) . . .
45(4) . . .
40.0(33) . . .
44(4) . . .
49(4) . . .
39.6(33) . . .
35.4(31) . . .
54(4) . . .
45(4) . . .
45(4) . . .
39.8(33) . . .
42.6(34) . . .
37.5(33) . . .
32.8(32) . . .
42(4) . . .
43.0(34) . . .
48(4) . . .
36.8(32) . . .
43(4) . . .
43.3(35) . . .
48(4) . . .
38.3(32) . . .
37.2(33) . . .
42(4) . . .
44.1(35) . . .
39.0(32) . . .
35.8(32) . . .
44(4) . . .
44(4) . . .
39.2(33) . . .
42.1(33) . . .
38.2(34) . . .
31.5(29) . . .
42.9(35) . . .
36.3(31) . . .
49(4) . . .
44(4) . . .
30.7(30) . . .
38.0(34) . . .
43.8(35) . . .
34.8(31) . . .
40.3(35) . . .
45(4) . . .
38.7(32) . . .
38.9(32) . . .
29.8(29) . . .
33.6(32) . . .
42(4) . . .
42.8(34) . . .
42.7(35) . . .
41.4(33) . . .
43.8(35) . . .
36.0(33) . . .
41(4) . . .
33.3(31) . . .
33.5(32) . . .
31.7(31) . . .
40(4) . . .
42(4) . . .
25.2(27) . . .
41.7(33) . . .
49(4) . . .
50(4) . . .
35.3(31) . . .
38.0(32) . . .
43(4) . . .
35.8(31) . . .
36.7(34) . . .
35.3(32) . . .
42.8(34) . . .
32.4(32) . . .
33.6(32) . . .
42(4) . . .
52(4) . . .
49(4) . . .
38(4) . . .
33.7(32) . . .
38.7(33) . . .
40.1(34) . . .
45(4) . . .
49(4) . . .
42(4) . . .
41.3(35) . . .
35.5(31) . . .
39.7(33) . . .
53(4) . . .
51(4) . . .
39.1(35) . . .
38.4(32) . . .
35.0(31) . . .
43(4) . . .
37.4(35) . . .
52(4) . . .
40.4(33) . . .
35.4(33) . . .
38.5(35) . . .
41.5(34) . . .
45(4) . . .
44.1(34) . . .
44(4) . . .
43(4) . . .
42(4) . . .
40.8(34) . . .
33.7(30) . . .
30.6(29) . . .
46(4) . . .
34.4(32) . . .
38.8(35) . . .
40.9(33) . . .
48(4) . . .
41.8(35) . . .
47(4) . . .
41(4) . . .
35.8(31) . . .
40.2(33) . . .
47(4) . . .
43(4) . . .
37.8(33) . . .
49(4) . . .
45(4) . . .
31.4(30) . . .
43(4) . . .
43(4) . . .
41.0(34) . . .
43(4) . . .
36.2(32) . . .
43.0(35) . . .
44.2(34) . . .
44.5(35) . . .
39.8(34) . . .
33.4(33) . . .
36.2(32) . . .
45(4) . . .
48(4) . . .
47(4) . . .
35.7(35) . . .
35.0(32) . . .
49(4) . . .
46(4) . . .
44(4) . . .
38.2(34) . . .
45(4) . . .
40.0(33) . . .
33.7(30) . . .
37.6(33) . . .
42(4) . . .
40.4(33) . . .
39.6(33) . . .
37.2(32) . . .
42.4(35) . . .
36.6(34) . . .
30.5(29) . . .
44.5(35) . . .
35.3(31) . . .
39(4) . . .
35.4(34) . . .
42(4) . . .
47(4) . . .
36.4(31) . . .
40(4) . . .
50(4) . . .
55(4) . . .
39.4(33) . . .
43(4) . . .
47(4) . . .
41(4) . . .
38.5(32) . . .
37.8(32) . . .
51(4) . . .
45.4(35) . . .
44(4) . . .
40.9(33) . . .
47(4) . . .
47(4) . . .
39.1(32) . . .
37.2(32) . . .
39.2(33) . . .
43.2(35) . . .
46(4) . . .
34.4(30) . . .
48(4) . . .
41.3(33) . . .
44.2(35) . . .
43(4) . . .
37.0(33) . . .
36.7(31) . . .
43(4) . . .
40.7(34) . . .
32.7(31) . . .
41(4) . . .
43(4) . . .
42.3(34) . . .
36.0(31) . . .
42(4) . . .
39.7(35) . . .
46(4) . . .
47(4) . . .
42.9(34) . . .
34.6(31) . . .
38.5(34) . . .
38.2(32) . . .
37.8(32) . . .
36.9(32) . . .
37.8(33) . . .
40(4) . . .
34.6(32) . . .
40.0(33) . . .
32.4(29) . . .
33.4(30) . . .
38.2(34) . . .
40(4) . . .
36.9(32) . . .
42.0(34) . . .
32.8(29) . . .
35.7(33) . . .
39.3(33) . . .
40.8(33) . . .
44.5(35) . . .
40.8(34) . . .
48(4) . . .
42.3(35) . . .
41.6(33) . . .
39.5(34) . . .
44(4) . . .
47(4) . . .
39.3(33) . . .
39.1(33) . . .
40(4) . . .
41.5(35) . . .
44(4) . . .
41.5(35) . . .
36.9(32) . . .
38(4) . . .
42(4) . . .
40.4(34) . . .
43.8(35) . . .
46.1(35) . . .
38.6(33) . . .
40.1(34) . . .
43(4) . . .
34.4(31) . . .
40.6(33) . . .
43(4) . . .
45(4) . . .
45(4) . . .
40.8(33) . . .
29.3(29) . . .
43.3(35) . . .
35.3(33) . . .
38.2(33) . . .
48(4) . . .
45(4) . . .
31.7(31) . . .
45(4) . . .
36.9(34) . . .
44.3(35) . . .
41.5(34) . . .
42.5(34) . . .
50(4) . . .
38.7(33) . . .
37.4(33) . . .
34.5(30) . . .
42.1(35) . . .
43(4) . . .
35.4(31) . . .
37.2(32) . . .
30.1(30) . . .
41.3(35) . . .
43(4) . . .
47(4) . . .
43.8(35) . . .
37.6(33) . . .
41(4) . . .
40(4) . . .
41.1(34) . . .
31.7(29) . . .
28.0(28) . . .
30.6(29) . . .
37.9(32) . . .
38.3(33) . . .
39.3(33) . . .
42(4) . . .
41(4) . . .
43.8(34) . . .
44.6(34) . . .
50(4) . . .
36.9(32) . . .
42.3(35) . . .
42(4) . . .
41.3(33) . . .
41.5(33) . . .
46(4) . . .
35.2(32) . . .
38.7(34) . . .
35.5(31) . . .
36.8(32) . . .
45(4) . . .
39.2(35) . . .
38.4(33) . . .
42.0(34) . . .
51(4) . . .
34.2(32) . . .
44(4) . . .
48(4) . . .
42.4(34) . . .
38.8(32) . . .
48(4) . . .
46(4) . . .
50(4) . . .
40.6(34) . . .
42.2(33) . . .
47(4) . . .
35.4(33) . . .
37.9(33) . . .
45(4) . . .
38.0(32) . . .
39.4(33) . . .
50(4) . . .
40.5(35) . . .
43.2(34) . . .
36.6(32) . . .
33.5(33) . . .
38.8(34) . . .
47(4) . . .
37.9(32) . . .
38.8(34) . . .
46(4) . . .
38.3(32) . . .
41.9(34) . . .
42.4(34) . . .
45(4) . . .
35.9(34) . . .
41.0(35) . . .
36.7(31) . . .
39.1(33) . . .
36.8(31) . . .
36.5(33) . . .
41(4) . . .
36.0(31) . . .
47(4) . . .
49(4) . . .
45(4) . . .
49(4) . . .
41.4(33) . . .
36.7(32) . . .
40.6(34) . . .
42(4) . . .
39.3(32) . . .
44.7(35) . . .
36.7(32) . . .
43(4) . . .
36.3(35) . . .
34.1(31) . . .
41.3(33) . . .
43.5(34) . . .
36.0(32) . . .
43(4) . . .
36.0(31) . . .
54(4) . . .
43.7(34) . . .
38.1(32) . . .
40.2(33) . . .
46(4) . . .
37.6(32) . . .
41.7(34) . . .
38.3(33) . . .
48(4) . . .
43(4) . . .
42.4(34) . . .
39.8(34) . . .
36.2(33) . . .
36.6(32) . . .
49(4) . . .
42.0(33) . . .
49(4) . . .
46(4) . . .
37.3(34) . . .
41(4) . . .
41.5(33) . . .
37.2(34) . . .
40(4) . . .
41.7(35) . . .
38.9(32) . . .
50(4) . . .
34.5(31) . . .
31.0(29) . . .
34.8(32) . . .
38.4(32) . . .
36.9(32) . . .
35.7(31) . . .
35.5(34) . . .
36.5(33) . . .
41.4(34) . . .
36.6(31) . . .
39.3(33) . . .
46(4) . . .
42.0(35) . . .
49(4) . . .
43.7(35) . . .
42(4) . . .
36.5(35) . . .
41(4) . . .
31.9(30) . . .
36.4(31) . . .
32.5(31) . . .
41(4) . . .
42(4) . . .
37.9(32) . . .
53(4) . . .
46(4) . . .
48(4) . . .
34.4(31) . . .
41.9(34) . . .
39.3(32) . . .
38.5(33) . . .
34.5(32) . . .
40.4(34) . . .
41.8(34) . . .
51(4) . . .
44(4) . . .
40.8(34) . . .
39.6(33) . . .
35.9(32) . . .
50(4) . . .
40.4(35) . . .
43(4) . . .
37.4(32) . . .
38.3(32) . . .
49(4) . . .
48(4) . . .
37.5(35) . . .
37.6(33) . . .
40.1(33) . . .
39.9(34) . . .
50(4) . . .
38.4(32) . . .
35.4(31) . . .
34.9(31) . . .
42(4) . . .
30.6(31) . . .
29.0(29) . . .
35.7(31) . . .
34.9(30) . . .
43.4(35) . . .
40.8(35) . . .
36.5(32) . . .
42.7(34) . . .
38.4(32) . . .
50(4) . . .
44(4) . . .
42.7(34) . . .
41.1(33) . . .
31.6(29) . . .
38(4) . . .
39.0(35) . . .
38.5(32) . . .
37.2(33) . . .
42.5(34) . . .
34.7(31) . . .
41.1(35) . . .
49(4) . . .
36.5(31) . . .
35.9(31) . . .
38.7(32) . . .
36.9(31) . . .
42.8(35) . . .
42.0(34) . . .
38.9(33) . . .
37.1(32) . . .
40.5(34) . . .
35.7(32) . . .
36.8(31) . . .
35.0(31) . . .
39(4) . . .
38.5(35) . . .
42.4(33) . . .
41.4(33) . . .
32.0(31) . . .
44(4) . . .
48(4) . . .
47(4) . . .
42.7(34) . . .
47(4) . . .
44(4) . . .
40.2(33) . . .
42.9(35) . . .
38.1(33) . . .
39.2(34) . . .
41(4) . . .
32.5(29) . . .
35.7(31) . . .
37.4(31) . . .
40.5(34) . . .
40(4) . . .
35.6(33) . . .
39.7(33) . . .
43.7(34) . . .
38.6(33) . . .
36.7(33) . . .
36.2(32) . . .
34.6(30) . . .
42.3(34) . . .
39.5(33) . . .
37.7(33) . . .
43(4) . . .
40.8(34) . . .
35.8(31) . . .
34.9(32) . . .
36.8(33) . . .
31.6(30) . . .
39.4(32) . . .
42(4) . . .
41.4(34) . . .
33.1(30) . . .
38.4(33) . . .
40.6(33) . . .
39.0(33) . . .
39.1(35) . . .
41.0(35) . . .
37.2(33) . . .
36.5(31) . . .
46(4) . . .
43.6(35) . . .
46(4) . . .
41.9(33) . . .
46(4) . . .
49(4) . . .
42(4) . . .
39(4) . . .
33.9(31) . . .
41.1(33) . . .
33.1(34) . . .
33.6(31) . . .
36.8(32) . . .
31.9(30) . . .
51(4) . . .
43(4) . . .
46(4) . . .
37.2(33) . . .
42(4) . . .
34.8(31) . . .
39.6(33) . . .
45(4) . . .
42(4) . . .
37.8(32) . . .
46(4) . . .
42.3(34) . . .
40.2(34) . . .
36.9(32) . . .
33.1(30) . . .
35.9(31) . . .
37.3(33) . . .
42(4) . . .
38.5(33) . . .
36.5(31) . . .
33.0(30) . . .
35.1(32) . . .
41(4) . . .
33.8(31) . . .
43.1(34) . . .
37.6(32) . . .
46(4) . . .
45(4) . . .
38.5(32) . . .
42.5(34) . . .
39.6(33) . . .
42(4) . . .
40.2(34) . . .
38.8(33) . . .
37.3(32) . . .
41.4(34) . . .
28.1(27) . . .
39.9(34) . . .
35.1(32) . . .
42.6(34) . . .
38.2(33) . . .
39(4) . . .
31.5(31) . . .
41.2(34) . . .
42.8(34) . . .
41.9(35) . . .
46(4) . . .
40.6(35) . . .
34.2(31) . . .
38.5(32) . . .
46(4) . . .
41(4) . . .
35.7(31) . . .
46(4) . . .
42.3(35) . . .
44.1(35) . . .
46(4) . . .
36.1(32) . . .
37.6(32) . . .
43.3(34) . . .
34.8(31) . . .
42(4) . . .
44(4) . . .
38.1(32) . . .
41.9(34) . . .
33.4(31) . . .
33.5(32) . . .
34.5(32) . . .
37.1(32) . . .
30.9(29) . . .
33.8(31) . . .
41(4) . . .
45(4) . . .
45.0(35) . . .
34.3(30) . . .
35.7(31) . . .
32.2(30) . . .
37.7(33) . . .
39.6(32) . . .
42.3(34) . . .
40.4(35) . . .
45(4) . . .
49(4) . . .
42.9(34) . . .
37.2(33) . . .
38.6(35) . . .
55(4) . . .
38.7(33) . . .
43.0(34) . . .
38.2(33) . . .
39.9(33) . . .
34.3(30) . . .
35.7(31) . . .
29.3(28) . . .
40.3(34) . . .
37.8(34) . . .
40.8(34) . . .
40.8(34) . . .
39.2(33) . . .
34.5(31) . . .
35.1(32) . . .
44(4) . . .
35.4(31) . . .
40.5(33) . . .
50(4) . . .
32.8(32) . . .
37.0(33) . . .
44(4) . . .
33.4(30) . . .
49(4) . . .
42(4) . . .
37.9(33) . . .
46(4) . . .
34.7(31) . . .
41(4) . . .
37.8(34) . . .
41.6(34) . . .
39.4(32) . . .
35.0(30) . . .
35.3(32) . . .
38(4) . . .
45(4) . . .
44.7(35) . . .
37.9(32) . . .
38.3(31) . . .
42(4) . . .
40.5(33) . . .
31.2(29) . . .
36.9(33) . . .
41(4) . . .
32.9(29) . . .
43(4) . . .
39.1(33) . . .
37.0(32) . . .
39.5(33) . . .
42(4) . . .
37.6(32) . . .
42.5(34) . . .
38.3(33) . . .
32.2(29) . . .
44(4) . . .
47(4) . . .
53(4) . . .
43.7(35) . . .
39.3(33) . . .
42(4) . . .
33.9(30) . . .
40.4(33) . . .
40.9(34) . . .
40.1(34) . . .
42(4) . . .
45.7(35) . . .
33.4(31) . . .
38.6(33) . . .
38.2(33) . . .
38.1(34) . . .
32.5(30) . . .
39.4(33) . . .
49(4) . . .
36.4(35) . . .
41(4) . . .
43.4(34) . . .
36.1(31) . . .
32.3(29) . . .
37.4(33) . . .
34.7(31) . . .
35.5(32) . . .
32.9(30) . . .
36.1(31) . . .
42(4) . . .
36.4(33) . . .
35.8(33) . . .
43.4(35) . . .
38.1(33) . . .
42(4) . . .
38.2(33) . . .
42.8(34) . . .
37.7(33) . . .
39.0(34) . . .
40.1(34) . . .
35.8(32) . . .
43.5(34) . . .
40.6(34) . . .
42.5(35) . . .
37.3(32) . . .
38.1(33) . . .
46(4) . . .
33.4(31) . . .
42.2(35) . . .
40.3(34) . . .
33.6(30) . . .
33.9(31) . . .
34.6(33) . . .
36.9(32) . . .
33.8(31) . . .
35.2(33) . . .
37.6(32) . . .
36.8(32) . . .
29.6(30) . . .
35.7(34) . . .
45(4) . . .
47(4) . . .
35.9(31) . . .
41(4) . . .
33.4(30) . . .
44.3(35) . . .
38.5(33) . . .
36.9(32) . . .
40(4) . . .
40.4(34) . . .
38.5(32) . . .
38.4(32) . . .
38.6(34) . . .
37.7(34) . . .
37.8(33) . . .
40.9(33) . . .
36.8(31) . . .
40.2(34) . . .
34.8(32) . . .
44(4) . . .
35.8(31) . . .
44.7(35) . . .
42.9(35) . . .
31.6(30) . . .
36.7(32) . . .
44.0(35) . . .
39.6(33) . . .
42(4) . . .
31.5(29) . . .
42.9(35) . . .
41.5(34) . . .
37.5(32) . . .
37.4(34) . . .
37.0(33) . . .
37.9(32) . . .
44.9(35) . . .
29.3(29) . . .
41.5(35) . . .
45(4) . . .
45(4) . . .
43.8(35) . . .
40.8(34) . . .
43(4) . . .
37.8(33) . . .
32.4(31) . . .
37.5(32) . . .
35.8(33) . . .
42(4) . . .
40(4) . . .
34.4(32) . . .
40.7(33) . . .
47(4) . . .
38.9(34) . . .
40.3(35) . . .
41.5(34) . . .
39.0(33) . . .
46(4) . . .
35.8(34) . . .
32.5(34) . . .
50(4) . . .
48(4) . . .
35.7(32) . . .
38.1(35) . . .
39.4(32) . . .
35.2(31) . . .
43.4(35) . . .
38.8(33) . . .
39.1(34) . . .
37.3(31) . . .
45.1(34) . . .
31.7(29) . . .
40.3(35) . . .
37.8(33) . . .
43.3(34) . . .
39.2(32) . . .
34.3(30) . . .
41(4) . . .
41(4) . . .
32.0(31) . . .
42.6(35) . . .
40.9(33) . . .
45(4) . . .
36.2(32) . . .
44(4) . . .
47(4) . . .
38.9(32) . . .
43(4) . . .
40.7(34) . . .
42(4) . . .
43.8(34) . . .
35.3(33) . . .
38.7(34) . . .
46(4) . . .
37.7(33) . . .
37.4(32) . . .
36.7(34) . . .
39.1(33) . . .
38.5(33) . . .
45(4) . . .
48(4) . . .
49(4) . . .
36.2(32) . . .
35.9(33) . . .
39.2(33) . . .
49(4) . . .
39.8(34) . . .
39.1(35) . . .
45(4) . . .
45.0(35) . . .
43.2(35) . . .
41.1(35) . . .
34.1(30) . . .
41.4(33) . . .
36.5(31) . . .
38.0(32) . . .
49(4) . . .
33.2(31) . . .
44(4) . . .
41.4(34) . . .
41.2(33) . . .
35.2(32) . . .
36.6(33) . . .
38.7(33) . . .
43.3(35) . . .
37.0(31) . . .
42.0(34) . . .
39.3(34) . . .
35.4(31) . . .
48(4) . . .
35.8(31) . . .
39.2(34) . . .
51(4) . . .
36.8(33) . . .
48(4) . . .
33.7(30) . . .
47(4) . . .
51(4) . . .
48(4) . . .
30.7(29) . . .
35.8(33) . . .
32.8(30) . . .
46(4) . . .
28.7(29) . . .
37.8(32) . . .
43(4) . . .
38.9(34) . . .
46(4) . . .
44.4(34) . . .
37.0(32) . . .
37.6(33) . . .
55(4) . . .
46.0(35) . . .
40.7(34) . . .
42.6(34) . . .
34.7(31) . . .
31.5(30) . . .
43(4) . . .
42.7(34) . . .
38.6(32) . . .
35.2(32) . . .
41(4) . . .
37.7(32) . . .
47(4) . . .
33.2(30) . . .
33.5(31) . . .
28.6(30) . . .
32.5(30) . . .
45.1(35) . . .
45(4) . . .
51(4) . . .
32.7(30) . . .
45(4) . . .
37.3(32) . . .
40.6(34) . . .
50(4) . . .
43.8(35) . . .
47(4) . . .
46(4) . . .
45(4) . . .
40.8(33) . . .
42(4) . . .
47(4) . . .
51(4) . . .
42(4) . . .
35.3(30) . . .
51(4) . . .
41.5(35) . . .
35.1(31) . . .
36.2(32) . . .
36.2(34) . . .
42.0(34) . . .
44(4) . . .
41.2(33) . . .
47(4) . . .
28.2(29) . . .
36.2(33) . . .
37.8(32) . . .
40.9(34) . . .
34.8(32) . . .
45(4) . . .
46(4) . . .
40.6(33) . . .
44.0(34) . . .
34.4(31) . . .
40(4) . . .
40.0(35) . . .
42.2(34) . . .
44.2(35) . . .
36.0(32) . . .
44(4) . . .
35.1(32) . . .
44.4(35) . . .
36.8(32) . . .
49(4) . . .
31.0(29) . . .
38.2(34) . . .
42.4(34) . . .
37.4(33) . . .
40.8(34) . . .
35.9(34) . . .
38.3(34) . . .
42.4(34) . . .
39.0(32) . . .
36.7(32) . . .
39(4) . . .
41.3(34) . . .
38.5(33) . . .
34.2(31) . . .
39.0(33) . . .
36.9(32) . . .
42(4) . . .
34.7(31) . . .
37.1(32) . . .
39.5(33) . . .
42(4) . . .
38.6(32) . . .
45(4) . . .
39.9(33) . . .
41(4) . . .
37.3(32) . . .
39.3(33) . . .
39.7(33) . . .
41.2(35) . . .
41.5(35) . . .
38.9(33) . . .
36.2(32) . . .
46(4) . . .
37.4(32) . . .
41(4) . . .
31.1(30) . . .
41.8(34) . . .
38.2(32) . . .
39.0(33) . . .
45(4) . . .
32.5(31) . . .
45(4) . . .
41.7(34) . . .
44(4) . . .
36.8(33) . . .
47(4) . . .
45(4) . . .
32.9(30) . . .
34.7(33) . . .
38(4) . . .
34.2(30) . . .
44.7(35) . . .
50(4) . . .
37.7(33) . . .
36.3(35) . . .
37.4(32) . . .
50(4) . . .
36.9(32) . . .
47(4) . . .
39.4(33) . . .
39.0(33) . . .
39.5(33) . . .
37.4(33) . . .
38.6(33) . . .
37.7(34) . . .
35.7(33) . . .
42.2(34) . . .
45(4) . . .
39(4) . . .
41.8(34) . . .
45.0(35) . . .
45.0(35) . . .
41(4) . . .
45.8(35) . . .
38.7(33) . . .
38.0(33) . . .
38.1(32) . . .
41(4) . . .
34.9(31) . . .
46(4) . . .
42.5(34) . . .
38.2(33) . . .
43(4) . . .
35.6(32) . . .
36.4(32) . . .
39.7(34) . . .
36.9(31) . . .
33.2(30) . . .
36.7(32) . . .
38.3(33) . . .
48(4) . . .
41.3(34) . . .
42(4) . . .
40(4) . . .
38.6(34) . . .
48(4) . . .
38.4(32) . . .
39.7(34) . . .
34.9(32) . . .
40.3(33) . . .
42.1(34) . . .
36.9(31) . . .
43.1(34) . . .
40.9(34) . . .
46(4) . . .
44.7(35) . . .
41.2(34) . . .
38.4(33) . . .
38.1(34) . . .
43(4) . . .
39.8(34) . . .
30.3(28) . . .
37.2(32) . . .
43(4) . . .
44(4) . . .
32.3(30) . . .
37.0(33) . . .
41.1(34) . . .
42(4) . . .
33.2(30) . . .
40.0(33) . . .
41.7(33) . . .
41(4) . . .
37.7(34) . . .
38.5(34) . . .
33.3(30) . . .
39.2(34) . . .
36.8(32) . . .
47(4) . . .
36.9(32) . . .
36.4(32) . . .
50(4) . . .
44.6(35) . . .
43.1(35) . . .
39.9(35) . . .
41.2(33) . . .
39.0(34) . . .
48(4) . . .
40.0(32) . . .
44(4) . . .
35.2(30) . . .
36.4(31) . . .
38(4) . . .
42(4) . . .
33.0(30) . . .
40.0(33) . . .
42(4) . . .
35.3(31) . . .
48(4) . . .
47(4) . . .
35.4(31) . . .
30.3(30) . . .
35.9(34) . . .
38.1(34) . . .
33.5(30) . . .
36.0(32) . . .
34.7(33) . . .
34.5(33) . . .
41(4) . . .
34.2(31) . . .
40.2(35) . . .
36.0(31) . . .
52(4) . . .
49(4) . . .
35.6(31) . . .
37.1(33) . . .
41.7(35) . . .
31.0(30) . . .
39.4(34) . . .
32.8(30) . . .
47(4) . . .
45.3(35) . . .
31.8(30) . . .
34.7(32) . . .
32.1(29) . . .
32.1(31) . . .
37(4) . . .
37(4) . . .
32.5(30) . . .
29.5(28) . . .
34.8(32) . . .
40(4) . . .
37.4(34) . . .
32.0(29) . . .
35.0(31) . . .
34.8(32) . . .
37.8(34) . . .
41(4) . . .
42.3(34) . . .
46(4) . . .
47(4) . . .
44.3(34) . . .
46(4) . . .
36.4(31) . . .
44.3(35) . . .
35.5(32) . . .
34.3(31) . . .
40.6(34) . . .
40.3(33) . . .
41.1(33) . . .
31.3(30) . . .
32.4(32) . . .
36.8(32) . . .
50(4) . . .
44.5(35) . . .
37.1(32) . . .
43(4) . . .
39.8(34) . . .
44.7(35) . . .
38.0(33) . . .
42.6(34) . . .
47(4) . . .
42(4) . . .
40.0(33) . . .
37.6(32) . . .
43(4) . . .
45(4) . . .
35.8(32) . . .
32.3(30) . . .
42.2(35) . . .
40.8(34) . . .
39.5(33) . . .
48(4) . . .
44.6(35) . . .
40.3(35) . . .
36.1(34) . . .
42(4) . . .
39.0(32) . . .
48(4) . . .
41.7(34) . . .
40(4) . . .
39(4) . . .
37.3(31) . . .
39.5(33) . . .
34.4(30) . . .
33.8(31) . . .
36.0(34) . . .
40.9(34) . . .
37.1(32) . . .
39.4(33) . . .
44(4) . . .
40.0(34) . . .
40.1(35) . . .
35.2(31) . . .
35.9(32) . . .
39.5(34) . . .
38.1(32) . . .
46(4) . . .
34.5(30) . . .
31.7(31) . . .
33.2(33) . . .
39.0(32) . . .
38.4(32) . . .
33.0(30) . . .
43(4) . . .
44(4) . . .
39(4) . . .
38.9(33) . . .
49(4) . . .
44(4) . . .
37(4) . . .
37.7(33) . . .
34.9(31) . . .
32.2(29) . . .
36.4(32) . . .
36.2(32) . . .
23.9(28) . . .
36.5(31) . . .
40(4) . . .
33.9(30) . . .
34.5(33) . . .
36.0(32) . . .
30.0(29) . . .
36.6(34) . . .
34.0(34) . . .
38.2(35) . . .
42.3(34) . . .
39.0(33) . . .
43.2(34) . . .
48(4) . . .
34.8(31) . . .
38.2(32) . . .
37.8(32) . . .
39.2(34) . . .
33.9(30) . . .
48(4) . . .
49(4) . . .
42.4(34) . . .
35.0(32) . . .
43(4) . . .
40.4(33) . . .
39.8(33) . . .
37.5(32) . . .
32.6(31) . . .
30.0(31) . . .
35.0(35) . . .
25.6(27) . . .
26.5(27) . . .
40.9(34) . . .
39.3(35) . . .
40(4) . . .
34.2(31) . . .
35.5(30) . . .
42.6(35) . . .
38.1(34) . . .
48(4) . . .
29.9(28) . . .
27.4(30) . . .
36.5(34) . . .
43(4) . . .
32.3(29) . . .
31.6(29) . . .
41.0(35) . . .
42.2(35) . . .
40(4) . . .
44(4) . . .
36.8(32) . . .
36.5(31) . . .
40.0(34) . . .
43(4) . . .
33.8(30) . . .
40.3(33) . . .
32.1(29) . . .
33.3(30) . . .
42(4) . . .
49(4) . . .
40.8(34) . . .
39.0(32) . . .
45(4) . . .
51(4) . . .
40(4) . . .
39.3(32) . . .
32.0(31) . . .
42(4) . . .
53(4) . . .
37.8(32) . . .
30.3(29) . . .
40(4) . . .
37.2(33) . . .
36.8(35) . . .
40.1(33) . . .
44.7(35) . . .
41.3(34) . . .
35.4(31) . . .
36.4(31) . . .
47(4) . . .
44.7(35) . . .
37.6(34) . . .
43(4) . . .
40.8(34) . . .
37.5(32) . . .
35.3(32) . . .
39.5(35) . . .
46(4) . . .
33.4(30) . . .
31.1(29) . . .
30.3(29) . . .
32.2(30) . . .
44(4) . . .
42.4(34) . . .
46.2(35) . . .
37.7(32) . . .
37.6(32) . . .
47(4) . . .
45(4) . . .
36.8(32) . . .
45(4) . . .
32.5(30) . . .
42(4) . . .
36.2(31) . . .
37.8(32) . . .
36.3(32) . . .
43(4) . . .
34.1(33) . . .
32.3(30) . . .
41.9(33) . . .
46(4) . . .
38.0(34) . . .
38(4) . . .
33.9(31) . . .
37.4(32) . . .
46(4) . . .
42.0(34) . . .
44(4) . . .
40.9(34) . . .
35.0(31) . . .
30.5(29) . . .
31.6(30) . . .
40(4) . . .
39.3(33) . . .
48(4) . . .
38.8(34) . . .
36.1(33) . . .
37(4) . . .
38.5(34) . . .
51(4) . . .
47(4) . . .
40.3(35) . . .
39.2(34) . . .
37.3(33) . . .
44(4) . . .
47(4) . . .
36.9(34) . . .
45(4) . . .
36.0(31) . . .
38.3(32) . . .
41.4(34) . . .
42(4) . . .
32.6(29) . . .
42.0(34) . . .
40.5(33) . . .
36.3(33) . . .
51(4) . . .
49(4) . . .
44.6(34) . . .
46(4) . . .
40(4) . . .
40.7(34) . . .
38.4(32) . . .
47(4) . . .
36.6(31) . . .
42(4) . . .
40.5(35) . . .
31.7(29) . . .
45(4) . . .
37.2(31) . . .
35.4(34) . . .
39.7(34) . . .
47(4) . . .
38.3(32) . . .
37.2(33) . . .
39(4) . . .
35.4(32) . . .
37.7(34) . . .
47(4) . . .
41.0(34) . . .
31.6(30) . . .
49(4) . . .
45(4) . . .
33.7(30) . . .
36.0(32) . . .
42(4) . . .
40.9(34) . . .
41.9(34) . . .
35.2(31) . . .
36.8(32) . . .
41.8(34) . . .
44(4) . . .
40.0(33) . . .
48(4) . . .
31.9(30) . . .
31.3(32) . . .
34.4(33) . . .
38.6(32) . . .
48(4) . . .
44(4) . . .
38.6(33) . . .
40.8(35) . . .
38.9(33) . . .
39.2(33) . . .
44(4) . . .
39(4) . . .
40.3(34) . . .
36.0(31) . . .
37.0(31) . . .
41.6(35) . . .
39.2(34) . . .
39.5(35) . . .
42.7(34) . . .
31.4(30) . . .
34.6(32) . . .
28.9(30) . . .
41.0(35) . . .
40.5(33) . . .
37.4(33) . . .
30.6(28) . . .
41(4) . . .
34.1(31) . . .
38.3(32) . . .
42(4) . . .
42(4) . . .
40.7(35) . . .
35.2(31) . . .
32.3(29) . . .
39.2(34) . . .
46(4) . . .
34.9(33) . . .
30.8(30) . . .
27.4(28) . . .
33.3(31) . . .
39.3(34) . . .
42.4(35) . . .
32.6(30) . . .
35.3(31) . . .
30.6(31) . . .
43(4) . . .
36.2(33) . . .
42(4) . . .
39.6(33) . . .
39.6(33) . . .
41(4) . . .
45(4) . . .
40.3(33) . . .
35.3(31) . . .
37.3(33) . . .
35.5(34) . . .
37.0(34) . . .
38.7(33) . . .
36.8(32) . . .
33.6(32) . . .
36.4(33) . . .
41.2(33) . . .
45.6(35) . . .
35.5(32) . . .
44(4) . . .
44(4) . . .
44(4) . . .
39.5(33) . . .
45(4) . . .
40.8(34) . . .
39.8(34) . . .
34.4(31) . . .
39.7(33) . . .
37.9(35) . . .
39.1(33) . . .
38.6(34) . . .
43(4) . . .
36.8(32) . . .
38.8(34) . . .
40.5(35) . . .
40.7(34) . . .
36.4(32) . . .
46(4) . . .
44(4) . . .
40(4) . . .
43(4) . . .
42.6(35) . . .
43.3(34) . . .
35.9(32) . . .
35.7(32) . . .
35.2(33) . . .
37.4(32) . . .
29.5(29) . . .
42.0(34) . . .
42(4) . . .
38.0(32) . . .
35.5(31) . . .
43(4) . . .
38.4(33) . . .
39.4(34) . . .
38.3(32) . . .
38.4(33) . . .
39.8(33) . . .
49(4) . . .
46(4) . . .
39.3(35) . . .
41.4(33) . . .
29.8(28) . . .
34.4(32) . . .
37.3(32) . . .
40.2(33) . . .
43.8(35) . . .
37.3(32) . . .
42(4) . . .
32.2(31) . . .
36.4(32) . . .
38.1(32) . . .
47(4) . . .
37.1(32) . . .
41(4) . . .
37.3(33) . . .
37.4(31) . . .
32.3(30) . . .
39(4) . . .
35.7(33) . . .
39.9(34) . . .
43.0(34) . . .
48(4) . . .
41(4) . . .
41(4) . . .
44(4) . . .
37.1(31) . . .
44.0(35) . . .
44(4) . . .
37.7(33) . . .
47(4) . . .
38.5(33) . . .
40.4(35) . . .
32.8(32) . . .
33.5(31) . . .
46(4) . . .
42.8(35) . . .
39.5(35) . . .
40.8(34) . . .
49(4) . . .
36.8(32) . . .
39.5(33) . . .
43(4) . . .
35.3(33) . . .
38.9(33) . . .
45(4) . . .
43.1(34) . . .
37.7(34) . . .
38(4) . . .
36.4(32) . . .
36.1(32) . . .
32.7(29) . . .
39.7(34) . . .
43(4) . . .
35.8(31) . . .
37.2(32) . . .
30.7(29) . . .
34.8(32) . . .
38.4(34) . . .
36.3(31) . . .
44.3(35) . . .
41.0(34) . . .
37.5(32) . . .
38.3(33) . . .
47(4) . . .
41.5(34) . . .
37.1(31) . . .
30.9(29) . . .
36.9(34) . . .
41(4) . . .
39.1(33) . . .
49(4) . . .
42(4) . . .
42(4) . . .
44(4) . . .
35.6(31) . . .
39.8(33) . . .
41(4) . . .
33.5(32) . . .
32.7(30) . . .
46(4) . . .
33.5(32) . . .
50(4) . . .
37.0(31) . . .
40.5(33) . . .
35.0(31) . . .
35.1(34) . . .
40(4) . . .
35.2(32) . . .
34.7(31) . . .
43.2(34) . . .
39.3(33) . . .
39.5(35) . . .
36.7(32) . . .
32.9(30) . . .
41.5(33) . . .
32.7(31) . . .
43(4) . . .
38.7(34) . . .
34.8(31) . . .
48(4) . . .
42.6(35) . . .
46(4) . . .
33.5(32) . . .
40.3(33) . . .
44.4(35) . . .
34.5(31) . . .
45(4) . . .
46(4) . . .
46(4) . . .
36.2(32) . . .
36.2(32) . . .
36.3(35) . . .
32.7(33) . . .
35.5(31) . . .
39(4) . . .
35.0(34) . . .
34.4(32) . . .
46(4) . . .
39.2(33) . . .
42.0(33) . . .
43(4) . . .
42(4) . . .
42.2(34) . . .
48(4) . . .
39.5(34) . . .
40.8(35) . . .
37.0(32) . . .
41.7(35) . . .
32.8(30) . . .
32.7(31) . . .
31.6(31) . . .
34.6(32) . . .
35.6(31) . . .
38.2(32) . . .
39.6(34) . . .
39.4(35) . . .
42(4) . . .
39.6(32) . . .
35.1(31) . . .
43(4) . . .
38(4) . . .
38.9(35) . . .
42.9(35) . . .
42.7(35) . . .
46(4) . . .
45(4) . . .
31.3(29) . . .
35.5(31) . . .
39.1(32) . . .
45(4) . . .
40(4) . . .
39.7(33) . . .
40.2(33) . . .
41.6(34) . . .
39.0(33) . . .
34.4(33) . . .
32.6(30) . . .
32.9(30) . . .
37.2(32) . . .
42(4) . . .
37.2(32) . . .
45(4) . . .
42.0(33) . . .
35.5(32) . . .
32.5(30) . . .
35.2(31) . . .
41.3(34) . . .
48(4) . . .
39.2(34) . . .
43(4) . . .
29.6(28) . . .
36.9(33) . . .
40.4(33) . . .
38.2(34) . . .
36.3(33) . . .
41(4) . . .
38.6(33) . . .
38.2(32) . . .
35.6(32) . . .
33.4(32) . . .
39.6(34) . . .
33.8(30) . . .
45(4) . . .
45(4) . . .
35.1(31) . . .
41.3(35) . . .
30.9(29) . . .
31.3(29) . . .
37.9(33) . . .
34.9(34) . . .
34.9(32) . . .
35.3(31) . . .
41.5(33) . . .
41.1(34) . . .
42(4) . . .
41(4) . . .
28.1(28) . . .
34.7(31) . . .
34.6(32) . . .
40(4) . . .
43(4) . . .
46(4) . . .
36.0(32) . . .
53(4) . . .
35.0(31) . . .
44(4) . . .
40.2(33) . . .
32.8(29) . . .
47(4) . . .
36.9(31) . . .
40(4) . . .
40.3(33) . . .
34.3(31) . . .
34.4(33) . . .
33.2(32) . . .
36.8(33) . . .
43.3(34) . . .
46(4) . . .
39.8(34) . . .
39.9(34) . . .
41(4) . . .
44.3(34) . . .
41.2(34) . . .
38.0(35) . . .
38.1(33) . . .
39.4(33) . . .
33.7(30) . . .
40.3(34) . . .
27.7(27) . . .
36.7(33) . . .
44(4) . . .
49(4) . . .
38.5(32) . . .
31.1(29) . . .
39.0(34) . . .
36.8(31) . . .
36.2(31) . . .
38.8(33) . . .
33.8(31) . . .
45(4) . . .
41.9(33) . . .
36.7(32) . . .
37.8(33) . . .
47(4) . . .
35.8(32) . . .
36.0(31) . . .
44.7(34) . . .
37.7(31) . . .
39.4(34) . . .
34.3(31) . . .
42.8(34) . . .
40.4(33) . . .
39.3(33) . . .
38.1(34) . . .
35.5(32) . . .
42.1(33) . . .
41.2(33) . . .
29.6(29) . . .
37.6(34) . . .
37.7(33) . . .
35.4(31) . . .
45.8(35) . . .
41.9(34) . . .
35.7(33) . . .
45(4) . . .
36.7(33) . . .
43(4) . . .
38.3(34) . . .
37.8(33) . . .
39.8(33) . . .
40.3(33) . . .
39.9(34) . . .
38(4) . . .
34.6(32) . . .
38.8(33) . . .
37.4(32) . . .
34.3(30) . . .
45(4) . . .
44(4) . . .
35.1(31) . . .
52(4) . . .
45(4) . . .
30.1(30) . . .
34.3(32) . . .
38.3(34) . . .
38.0(32) . . .
40.0(34) . . .
37.6(34) . . .
36.9(33) . . .
52(4) . . .
38.9(32) . . .
35.2(31) . . .
35.4(34) . . .
37.7(33) . . .
36.8(32) . . .
34.8(31) . . .
37.8(33) . . .
37.9(34) . . .
40(4) . . .
40.3(33) . . .
38.6(32) . . .
33.4(29) . . .
45(4) . . .
43.0(34) . . .
45.2(35) . . .
42.2(35) . . .
36.6(33) . . .
30.5(31) . . .
36.2(33) . . .
39.2(33) . . .
36.9(33) . . .
48(4) . . .
40.6(35) . . .
37.7(33) . . .
35.1(31) . . .
38.4(33) . . .
43.2(35) . . .
39.8(34) . . .
35.0(32) . . .
31.5(29) . . .
47(4) . . .
31.2(30) . . .
28.1(29) . . .
40(4) . . .
36.8(31) . . .
33.6(30) . . .
45(4) . . .
43(4) . . .
33.0(30) . . .
41.1(33) . . .
45(4) . . .
36.4(34) . . .
41(4) . . .
40.1(33) . . .
42.9(34) . . .
36.5(32) . . .
37.5(34) . . .
42(4) . . .
33.7(32) . . .
39.8(33) . . .
40.6(34) . . .
42.7(35) . . .
46(4) . . .
32.5(29) . . .
41.8(33) . . .
37.2(32) . . .
41(4) . . .
35.3(32) . . .
43(4) . . .
42.4(34) . . .
37.7(33) . . .
38.4(34) . . .
38.5(34) . . .
38.1(32) . . .
38.7(33) . . .
39.8(33) . . .
36.3(33) . . .
38.1(34) . . .
42.3(34) . . .
32.5(31) . . .
35.3(32) . . .
36.2(33) . . .
33.3(30) . . .
35.9(31) . . .
40.1(34) . . .
39.0(34) . . .
39.4(35) . . .
35.4(32) . . .
39.1(33) . . .
50(4) . . .
46(4) . . .
40.5(33) . . .
33.3(30) . . .
38.7(32) . . .
42(4) . . .
31.9(29) . . .
39.5(34) . . .
41.6(34) . . .
38.8(32) . . .
31.4(30) . . .
37.6(34) . . .
40.2(35) . . .
40.4(33) . . .
37.5(32) . . .
42(4) . . .
39.2(34) . . .
36.2(32) . . .
40.2(33) . . .
42.0(34) . . .
42.7(35) . . .
35.8(32) . . .
40.8(34) . . .
39.7(33) . . .
46(4) . . .
41.0(33) . . .
48(4) . . .
39.6(33) . . .
33.3(30) . . .
39.1(33) . . .
35.9(32) . . .
41(4) . . .
38.4(33) . . .
45.7(35) . . .
35.3(31) . . .
37.7(33) . . .
45(4) . . .
52(4) . . .
37.5(32) . . .
42.3(34) . . .
37.5(32) . . .
35.3(32) . . .
40.4(34) . . .
33.3(30) . . .
38.0(32) . . .
41(4) . . .
30.9(31) . . .
30.3(30) . . .
40.0(33) . . .
35.8(31) . . .
36.9(33) . . .
39(4) . . .
34.2(33) . . .
40.8(32) . . .
41(4) . . .
38.3(33) . . .
31.1(28) . . .
40(4) . . .
36.1(30) . . .
40(4) . . .
33.0(32) . . .
35.1(32) . . .
37.7(32) . . .
43.2(35) . . .
32.8(30) . . .
35.5(34) . . .
30.1(29) . . .
40(4) . . .
28.8(28) . . .
34.2(31) . . .
46(4) . . .
40.0(34) . . .
35.3(32) . . .
34.7(31) . . .
33.7(30) . . .
39(4) . . .
45(4) . . .
33.7(30) . . .
35.5(31) . . .
32.2(33) . . .
29.0(31) . . .
33.1(32) . . .
39.1(32) . . .
46(4) . . .
37.0(32) . . .
43(4) . . .
37.9(32) . . .
40.7(33) . . .
40.9(33) . . .
39(4) . . .
36.5(32) . . .
46(4) . . .
49(4) . . .
32.8(30) . . .
33.3(31) . . .
35.9(33) . . .
33.1(32) . . .
37.6(32) . . .
34.4(31) . . .
37.9(32) . . .
38.0(33) . . .
38.2(32) . . .
36.0(32) . . .
42.9(35) . . .
40(4) . . .
30.9(32) . . .
30.8(29) . . .
39.1(32) . . .
42.2(34) . . .
43(4) . . .
43(4) . . .
33.8(30) . . .
38.6(33) . . .
46(4) . . .
45(4) . . .
31.9(31) . . .
41.4(35) . . .
34.8(31) . . .
35.0(32) . . .
31.9(31) . . .
31.4(30) . . .
40.4(34) . . .
41.0(33) . . .
39.6(33) . . .
41(4) . . .
42(4) . . .
36.0(32) . . .
35.4(31) . . .
35.6(32) . . .
47(4) . . .
41.9(35) . . .
42.3(34) . . .
41.6(33) . . .
40.5(33) . . .
36.8(33) . . .
42(4) . . .
31.3(28) . . .
44(4) . . .
43(4) . . .
40(4) . . .
42(4) . . .
33.2(30) . . .
41.4(33) . . .
42(4) . . .
32.6(30) . . .
45(4) . . .
45.9(35) . . .
41.7(34) . . .
38.0(33) . . .
42(4) . . .
36.9(33) . . .
32.7(30) . . .
30.7(30) . . .
47(4) . . .
39.2(34) . . .
31.7(30) . . .
52(4) . . .
37.1(35) . . .
33.5(31) . . .
35.7(33) . . .
38.4(34) . . .
30.4(29) . . .
44(4) . . .
43(4) . . .
38.8(34) . . .
32.1(31) . . .
36.2(31) . . .
42(4) . . .
43(4) . . .
34.2(31) . . .
36.4(32) . . .
34.3(31) . . .
40(4) . . .
36.3(34) . . .
40.8(34) . . .
46(4) . . .
39.7(33) . . .
38.2(33) . . .
34.2(33) . . .
30.8(29) . . .
41.0(34) . . .
41.4(33) . . .
38.2(32) . . .
40.1(35) . . .
34.7(34) . . .
34.7(31) . . .
43.2(34) . . .
36.5(34) . . .
42.3(35) . . .
43(4) . . .
43.8(34) . . .
39.4(33) . . .
35.9(33) . . .
34.0(31) . . .
36.7(32) . . .
34.8(31) . . .
33.8(31) . . .
41.2(34) . . .
43(4) . . .
35.3(32) . . .
39.5(32) . . .
43(4) . . .
49(4) . . .
41.8(35) . . .
39.5(33) . . .
43.3(34) . . .
39.7(33) . . .
44(4) . . .
37.4(35) . . .
37.2(32) . . .
37.1(32) . . .
39.6(34) . . .
36.4(34) . . .
29.8(30) . . .
27.5(29) . . .
35.9(31) . . .
40.7(34) . . .
28.3(29) . . .
33.4(32) . . .
42.2(35) . . .
29.6(28) . . .
39.9(34) . . .
38.6(35) . . .
33.8(30) . . .
33.8(30) . . .
41.4(34) . . .
38.2(33) . . .
36.7(33) . . .
48(4) . . .
41.5(34) . . .
35.6(31) . . .
27.2(27) . . .
39(4) . . .
44.3(35) . . .
42.5(34) . . .
44.6(35) . . .
35.7(34) . . .
33.6(33) . . .
39(4) . . .
45.2(35) . . .
49(4) . . .
38.3(33) . . .
45(4) . . .
48(4) . . .
32.7(30) . . .
33.8(31) . . .
34.8(32) . . .
29.7(28) . . .
40.8(34) . . .
38.4(32) . . .
37.2(31) . . .
39.0(34) . . .
33.1(33) . . .
36.0(32) . . .
37.6(32) . . .
38.8(33) . . .
35.1(31) . . .
48(4) . . .
46(4) . . .
36.3(32) . . .
34.0(32) . . .
37.7(34) . . .
42.0(35) . . .
40.8(34) . . .
31.5(29) . . .
35.7(32) . . .
40.7(34) . . .
42.0(35) . . .
50(4) . . .
38.7(33) . . .
38.8(34) . . .
34.2(32) . . .
34.8(33) . . .
32.1(29) . . .
31.6(29) . . .
40(4) . . .
31.4(31) . . .
48(4) . . .
39.1(32) . . .
43.4(34) . . .
33.3(31) . . .
31.9(31) . . .
39.0(34) . . .
32.6(30) . . .
46(4) . . .
48(4) . . .
46(4) . . .
41.6(35) . . .
37.7(32) . . .
38.5(33) . . .
35.0(33) . . .
38.3(34) . . .
37.9(34) . . .
41.1(33) . . .
45(4) . . .
33.9(31) . . .
34.1(31) . . .
40.2(33) . . .
49(4) . . .
45(4) . . .
44(4) . . .
44(4) . . .
41.3(34) . . .
29.5(28) . . .
44(4) . . .
35.7(31) . . .
31.9(30) . . .
43(4) . . .
44.5(34) . . .
39.9(33) . . .
40(4) . . .
29.1(28) . . .
34.2(31) . . .
34.1(30) . . .
39.6(35) . . .
36.4(32) . . .
38.3(33) . . .
40.8(33) . . .
33.3(30) . . .
35.9(35) . . .
38.0(34) . . .
34.1(31) . . .
31.7(29) . . .
40.4(33) . . .
43(4) . . .
43(4) . . .
39.7(34) . . .
39.4(33) . . .
48(4) . . .
35.5(31) . . .
30.4(30) . . .
38.8(34) . . .
42.1(34) . . .
38.6(33) . . .
36.5(33) . . .
37.2(34) . . .
41.2(34) . . .
46(4) . . .
33.0(30) . . .
39.9(33) . . .
44(4) . . .
32.2(31) . . .
30.1(30) . . .
29.8(29) . . .
33.3(30) . . .
32.8(30) . . .
37.5(33) . . .
37.6(32) . . .
30.3(29) . . .
43(4) . . .
49(4) . . .
31.5(29) . . .
37.5(32) . . .
39.7(34) . . .
41(4) . . .
43.3(35) . . .
39.8(33) . . .
32.7(30) . . .
44(4) . . .
34.3(32) . . .
41(4) . . .
34.6(30) . . .
35.3(32) . . .
45.1(35) . . .
36.7(32) . . .
34.4(33) . . .
33.7(30) . . .
34.7(30) . . .
26.8(27) . . .
36.6(33) . . .
35.9(32) . . .
32.6(29) . . .
34.9(31) . . .
33.8(32) . . .
43(4) . . .
30.7(30) . . .
37.9(33) . . .
32.5(29) . . .
34.9(31) . . .
37.3(32) . . .
33.6(30) . . .
52(4) . . .
47(4) . . .
41.3(35) . . .
35.8(34) . . .
40(4) . . .
32.3(30) . . .
39.3(33) . . .
32.1(31) . . .
41(4) . . .
34.0(31) . . .
47(4) . . .
30.9(31) . . .
43(4) . . .
34.3(34) . . .
33.0(32) . . .
46(4) . . .
37.6(31) . . .
47(4) . . .
46(4) . . .
39.9(33) . . .
43.6(34) . . .
38.1(34) . . .
46(4) . . .
48(4) . . .
29.4(30) . . .
36.6(31) . . .
40.4(34) . . .
37.1(32) . . .
37.7(33) . . .
35.8(33) . . .
38.9(32) . . .
42(4) . . .
40.2(33) . . .
37.4(33) . . .
35.3(31) . . .
47(4) . . .
39.7(33) . . .
38.3(34) . . .
38.4(33) . . .
43.4(35) . . .
47(4) . . .
28.2(28) . . .
34.5(33) . . .
42.5(34) . . .
44(4) . . .
38.5(32) . . .
38.4(33) . . .
44(4) . . .
39.2(33) . . .
33.7(30) . . .
43.9(34) . . .
36.7(33) . . .
29.1(30) . . .
41(4) . . .
38.3(34) . . .
29.4(28) . . .
36.8(32) . . .
47(4) . . .
39.6(34) . . .
42.6(34) . . .
33.6(31) . . .
36.1(32) . . .
37.0(32) . . .
40.8(33) . . .
37.8(32) . . .
40.4(34) . . .
40(4) . . .
40(4) . . .
32.0(30) . . .
42.5(34) . . .
32.7(30) . . .
36.1(32) . . .
39(4) . . .
42(4) . . .
37.8(33) . . .
32.8(32) . . .
37.5(32) . . .
38.0(34) . . .
31.1(29) . . .
38.0(33) . . .
28.9(28) . . .
35.3(32) . . .
34.3(30) . . .
31.8(29) . . .
34.3(30) . . .
41.0(35) . . .
37.7(33) . . .
34.3(32) . . .
41.0(33) . . .
32.7(30) . . .
33.1(30) . . .
31.5(29) . . .
38.8(33) . . .
36.5(31) . . .
31.9(29) . . .
38.5(33) . . .
45(4) . . .
35.6(33) . . .
33.4(31) . . .
34.9(31) . . .
33.4(31) . . .
38(4) . . .
30.5(30) . . .
43(4) . . .
46.6(35) . . .
28.0(30) . . .
30.5(32) . . .
37.0(32) . . .
32.4(30) . . .
37.4(31) . . .
39.8(33) . . .
35.6(32) . . .
47(4) . . .
32.1(30) . . .
34.8(30) . . .
40(4) . . .
35.1(35) . . .
29.3(30) . . .
36.9(31) . . .
36.0(32) . . .
40(4) . . .
32.4(30) . . .
38.1(32) . . .
35.7(31) . . .
37.6(32) . . .
37.7(34) . . .
35.0(33) . . .
32.3(32) . . .
46(4) . . .
46(4) . . .
40.2(35) . . .
39.2(33) . . .
40.2(33) . . .
37.5(32) . . .
42.3(35) . . .
40(4) . . .
37.5(32) . . .
35.9(31) . . .
38.5(32) . . .
31.8(31) . . .
30.9(29) . . .
42.4(35) . . .
37.5(31) . . .
37.3(32) . . .
38.4(33) . . .
47(4) . . .
36.5(31) . . .
38.5(32) . . .
40.5(34) . . .
36.7(33) . . .
37(4) . . .
41.7(35) . . .
41.8(34) . . .
41.6(33) . . .
47(4) . . .
31.8(29) . . .
46(4) . . .
46(4) . . .
42.8(34) . . .
28.7(29) . . .
44(4) . . .
32.2(30) . . .
32.6(29) . . .
39.4(32) . . .
36.4(31) . . .
43(4) . . .
39(4) . . .
43.4(34) . . .
42.7(34) . . .
44.5(35) . . .
41(4) . . .
34.3(31) . . .
47(4) . . .
41.6(34) . . .
36.7(32) . . .
42(4) . . .
33.9(30) . . .
34.2(31) . . .
47(4) . . .
36.1(34) . . .
36.4(32) . . .
40.4(34) . . .
35.4(30) . . .
43.4(35) . . .
37.9(35) . . .
36.6(33) . . .
35.2(30) . . .
40.9(34) . . .
36.4(32) . . .
33.8(31) . . .
38.1(32) . . .
41.9(34) . . .
48(4) . . .
40.3(34) . . .
34.1(30) . . .
43.3(35) . . .
36.4(31) . . .
35.1(32) . . .
39.4(35) . . .
35.8(34) . . .
35.8(31) . . .
44.3(35) . . .
39.5(33) . . .
44(4) . . .
31.7(30) . . .
41.2(35) . . .
41.1(34) . . .
46(4) . . .
38.1(33) . . .
33.4(31) . . .
42(4) . . .
39.6(33) . . .
41.6(34) . . .
34.3(31) . . .
41(4) . . .
36.9(35) . . .
40.3(33) . . .
35.4(31) . . .
35.8(30) . . .
44(4) . . .
42(4) . . .
34.3(31) . . .
45.3(35) . . .
42.6(34) . . .
32.3(30) . . .
38.5(33) . . .
45.3(35) . . .
37.8(32) . . .
36.0(31) . . .
45(4) . . .
43.6(34) . . .
45.4(35) . . .
39.7(35) . . .
41(4) . . .
26.8(28) . . .
33.4(31) . . .
31.7(30) . . .
42(4) . . .
36.5(33) . . .
37.5(33) . . .
37.3(33) . . .
31.8(29) . . .
37.4(33) . . .
38.6(33) . . .
28.0(27) . . .
34.9(32) . . .
39.2(33) . . .
35.7(33) . . .
32.9(33) . . .
28.4(28) . . .
40.8(33) . . .
41.4(34) . . .
37.9(33) . . .
35.8(33) . . .
40.6(34) . . .
39.5(33) . . .
39.6(33) . . .
40.3(33) . . .
41(4) . . .
35.8(32) . . .
33.9(30) . . .
29.4(28) . . .
35.0(33) . . .
45(4) . . .
43(4) . . .
35.9(31) . . .
37.3(33) . . .
41(4) . . .
32.5(34) . . .
38.4(34) . . .
33.6(30) . . .
40(4) . . .
35.0(34) . . .
35.9(34) . . .
31.4(29) . . .
35.9(31) . . .
44(4) . . .
39.1(34) . . .
38.1(35) . . .
36.3(32) . . .
39.7(33) . . .
34.3(31) . . .
36.5(32) . . .
37.7(32) . . .
36.7(31) . . .
43.7(34) . . .
35.6(32) . . .
39(4) . . .
44.5(35) . . .
40.4(33) . . .
36.9(32) . . .
37.7(35) . . .
38(4) . . .
29.6(29) . . .
26.9(27) . . .
38.9(33) . . .
42.4(34) . . .
36.7(34) . . .
37.2(33) . . .
44.1(35) . . .
33.2(30) . . .
41.9(34) . . .
35.7(32) . . .
34.7(32) . . .
42.3(34) . . .
29.3(28) . . .
34.9(34) . . .
26.4(27) . . .
28.9(29) . . .
43.7(33) . . .
33.2(30) . . .
36.8(34) . . .
32.2(33) . . .
29.8(29) . . .
35.4(31) . . .
27.5(27) . . .
42.2(34) . . .
38.5(33) . . .
42(4) . . .
36.4(31) . . .
31.9(29) . . .
39.7(33) . . .
38.1(33) . . .
45(4) . . .
38.4(32) . . .
38.1(34) . . .
41.1(34) . . .
27.3(28) . . .
41(4) . . .
36.9(31) . . .
41(4) . . .
41.5(34) . . .
36.3(31) . . .
39.7(34) . . .
42.3(33) . . .
42(4) . . .
35.1(32) . . .
40.1(33) . . .
45(4) . . .
48(4) . . .
40(4) . . .
39.3(34) . . .
36.2(32) . . .
35.3(32) . . .
32.2(29) . . .
37.9(34) . . .
32.8(31) . . .
35.7(32) . . .
34.6(31) . . .
31.2(30) . . .
31.7(30) . . .
30.2(30) . . .
37.4(33) . . .
35.5(32) . . .
55(4) . . .
50(4) . . .
36.8(33) . . .
35.5(31) . . .
38.0(32) . . .
43.6(35) . . .
40.2(34) . . .
38.4(34) . . .
40.1(34) . . .
37.9(32) . . .
31.6(29) . . .
41.6(35) . . .
41(4) . . .
34.7(32) . . .
35.0(31) . . .
35.3(30) . . .
32.8(31) . . .
31.9(31) . . .
42(4) . . .
41.0(33) . . .
29.5(29) . . .
36.7(33) . . .
29.8(31) . . .
36.7(34) . . .
47(4) . . .
32.8(30) . . .
43(4) . . .
43(4) . . .
36.3(31) . . .
35.7(32) . . .
31.2(29) . . .
34.4(30) . . .
38.5(33) . . .
41.0(34) . . .
43.2(35) . . .
37.8(35) . . .
42(4) . . .
31.7(29) . . .
40.5(33) . . .
47(4) . . .
29.2(28) . . .
34.5(33) . . .
30.9(30) . . .
28.9(28) . . .
39.6(33) . . .
46(4) . . .
43(4) . . .
39.5(34) . . .
40.6(33) . . .
37.7(32) . . .
48(4) . . .
39.6(35) . . .
41(4) . . .
30.8(29) . . .
40.0(33) . . .
37.3(34) . . .
33.5(32) . . .
30.4(29) . . .
29.2(28) . . .
40.6(34) . . .
33.7(30) . . .
30.2(29) . . .
38(4) . . .
40.1(33) . . .
32.5(29) . . .
47(4) . . .
35.6(34) . . .
29.8(32) . . .
29.0(29) . . .
39.0(33) . . .
36.6(33) . . .
29.9(28) . . .
40.1(33) . . .
37.1(32) . . .
38.3(33) . . .
37.0(33) . . .
36.5(32) . . .
38.3(32) . . .
33.8(31) . . .
27.5(28) . . .
36.0(34) . . .
39.7(34) . . .
30.0(29) . . .
32.2(30) . . .
36.6(33) . . .
30.9(30) . . .
36.6(33) . . .
35.1(31) . . .
37.0(33) . . .
43(4) . . .
35.3(34) . . .
36.2(33) . . .
45(4) . . .
35.8(31) . . .
37.0(31) . . .
41(4) . . .
37.1(32) . . .
37.3(32) . . .
34.5(31) . . .
33.6(31) . . .
41.6(35) . . .
45(4) . . .
40.0(33) . . .
35.7(31) . . .
42.6(35) . . .
42(4) . . .
40.3(34) . . .
42.1(34) . . .
41.0(33) . . .
41.0(33) . . .
36.8(32) . . .
42(4) . . .
36.5(32) . . .
39.2(34) . . .
31.1(31) . . .
26.9(28) . . .
38(4) . . .
31.5(29) . . .
34.5(31) . . .
32.8(32) . . .
37.8(33) . . .
35.1(32) . . .
30.0(28) . . .
36.7(33) . . .
35.3(31) . . .
40.1(35) . . .
48(4) . . .
34.2(31) . . .
50(4) . . .
40.6(34) . . .
39(4) . . .
35.2(31) . . .
31.8(29) . . .
32.9(33) . . .
40(4) . . .
32.2(30) . . .
37.1(32) . . .
43.0(34) . . .
34.9(33) . . .
35.0(33) . . .
39.4(34) . . .
48(4) . . .
34.1(31) . . .
34.3(35) . . .
38(4) . . .
38.5(35) . . .
30.8(29) . . .
31.5(30) . . .
39.6(33) . . .
41.3(33) . . .
48(4) . . .
38.4(33) . . .
38.0(32) . . .
32.2(30) . . .
35.9(35) . . .
33.0(32) . . .
34.7(31) . . .
28.0(27) . . .
38(4) . . .
31.6(30) . . .
36.7(33) . . .
41.9(34) . . .
46(4) . . .
39.8(34) . . .
37.5(33) . . .
38.0(33) . . .
36.0(31) . . .
28.7(28) . . .
46(4) . . .
36.9(33) . . .
33.8(32) . . .
36.7(31) . . .
38.1(34) . . .
35.1(33) . . .
33.0(32) . . .
34.8(32) . . .
28.0(28) . . .
46(4) . . .
34.0(31) . . .
41(4) . . .
36.3(33) . . .
30.9(28) . . .
35.6(34) . . .
40(4) . . .
33.4(30) . . .
38.6(33) . . .
32.8(29) . . .
36.7(33) . . .
37.5(33) . . .
32.5(29) . . .
38.0(32) . . .
30.7(29) . . .
33.5(31) . . .
35.9(34) . . .
47(4) . . .
39.0(33) . . .
36.7(31) . . .
34.7(31) . . .
41(4) . . .
37.6(33) . . .
35.2(31) . . .
40.7(33) . . .
36.1(32) . . .
39(4) . . .
32.5(31) . . .
47(4) . . .
46(4) . . .
44(4) . . .
41(4) . . .
41.4(34) . . .
44.7(35) . . .
36.2(32) . . .
42(4) . . .
34.7(33) . . .
31.5(30) . . .
37.4(32) . . .
41.5(35) . . .
46(4) . . .
32.6(31) . . .
39.2(34) . . .
44.5(34) . . .
34.3(31) . . .
31.1(29) . . .
33.9(32) . . .
36.1(31) . . .
44.2(34) . . .
38(4) . . .
38.8(34) . . .
33.6(33) . . .
39.9(34) . . .
41.7(34) . . .
50(4) . . .
39(4) . . .
37.8(34) . . .
36.7(31) . . .
36.6(32) . . .
36.1(32) . . .
36.6(34) . . .
30.0(29) . . .
29.1(29) . . .
35.0(31) . . .
36.8(35) . . .
42(4) . . .
32.9(30) . . .
38.9(32) . . .
39.3(33) . . .
35.7(33) . . .
23.2(26) . . .
38.8(34) . . .
31.1(30) . . .
28.8(29) . . .
34.1(32) . . .
34.9(34) . . .
38.0(34) . . .
28.5(27) . . .
30.3(29) . . .
41.3(35) . . .
42(4) . . .
36.7(32) . . .
35.7(30) . . .
40(4) . . .
36.5(32) . . .
39.5(35) . . .
45(4) . . .
34.9(31) . . .
36.8(32) . . .
38.6(33) . . .
33.1(31) . . .
33.9(31) . . .
46(4) . . .
40.0(33) . . .
30.5(30) . . .
36.3(33) . . .
33.8(30) . . .
39.3(32) . . .
43.1(34) . . .
32.2(29) . . .
43(4) . . .
38.3(32) . . .
31.2(29) . . .
33.8(30) . . .
39.0(34) . . .
32.1(30) . . .
32.0(30) . . .
35.7(31) . . .
41.2(34) . . .
40.3(33) . . .
37.2(32) . . .
39.6(32) . . .
43.3(34) . . .
30.7(29) . . .
35.3(33) . . .
36.7(31) . . .
33.8(30) . . .
31.6(29) . . .
35.7(33) . . .
30.4(30) . . .
34.0(33) . . .
34.8(30) . . .
36.5(32) . . .
33.9(31) . . .
35.8(32) . . .
39.9(34) . . .
35.8(31) . . .
45.3(35) . . .
33.2(32) . . .
37(4) . . .
37.1(33) . . .
39.6(34) . . .
30.0(28) . . .
27.4(28) . . .
43(4) . . .
35.7(32) . . .
31.2(29) . . .
33.4(31) . . .
36.3(33) . . .
35.6(33) . . .
37.4(34) . . .
42.5(34) . . .
40.6(33) . . .
36.8(32) . . .
41(4) . . .
40.1(35) . . .
40.0(33) . . .
31.1(28) . . .
36.4(33) . . .
37.6(34) . . .
39(4) . . .
35.9(31) . . .
35.7(31) . . .
43(4) . . .
31.2(31) . . .
39.4(34) . . .
29.6(29) . . .
26.0(27) . . .
44(4) . . .
35.0(32) . . .
32.8(29) . . .
28.3(28) . . .
39.7(34) . . .
36.0(32) . . .
37.3(33) . . .
43.5(34) . . .
39.5(33) . . .
35.6(34) . . .
36.9(34) . . .
42(4) . . .
38.9(32) . . .
36.2(31) . . .
39.6(33) . . .
38.4(33) . . .
38.2(32) . . .
32.5(30) . . .
33.2(30) . . .
42(4) . . .
33.8(32) . . .
34.8(31) . . .
41.7(34) . . .
31.8(30) . . .
39.0(34) . . .
40(4) . . .
28.8(29) . . .
29.7(28) . . .
35.8(31) . . .
39.1(34) . . .
32.9(30) . . .
34.2(31) . . .
31.7(30) . . .
36.0(32) . . .
38.2(34) . . .
30.4(30) . . .
40.4(35) . . .
36.7(32) . . .
44(4) . . .
36.6(33) . . .
36.9(33) . . .
39.1(33) . . .
26.8(27) . . .
32.7(30) . . .
44(4) . . .
47(4) . . .
33.1(30) . . .
39.1(33) . . .
46(4) . . .
33.8(31) . . .
44(4) . . .
32.5(29) . . .
31.8(30) . . .
42.1(34) . . .
46(4) . . .
39.1(33) . . .
37.7(32) . . .
42.0(34) . . .
35.9(31) . . .
34.8(32) . . .
35.5(31) . . .
36.2(31) . . .
32.8(30) . . .
42(4) . . .
31.5(31) . . .
34.3(32) . . .
34.5(30) . . .
38.4(32) . . .
47(4) . . .
36.5(32) . . .
29.3(29) . . .
31.4(29) . . .
35.7(31) . . .
35.1(31) . . .
36.9(33) . . .
41.7(34) . . .
34.9(31) . . .
35.8(31) . . .
37.3(33) . . .
40(4) . . .
33.6(31) . . .
33.5(30) . . .
37.0(33) . . .
36.4(34) . . .
36.0(34) . . .
41(4) . . .
27.3(28) . . .
23.3(25) . . .
40(4) . . .
35.8(32) . . .
33.8(32) . . .
32.3(30) . . .
39.3(34) . . .
35.5(33) . . .
37.7(34) . . .
33.6(31) . . .
30.0(29) . . .
42(4) . . .
42.0(35) . . .
37.5(34) . . .
25.2(27) . . .
29.6(28) . . .
33.0(30) . . .
36.8(33) . . .
39.0(33) . . .
33.6(30) . . .
43(4) . . .
34.9(31) . . .
37.9(34) . . .
41.0(35) . . .
32.4(30) . . .
30.2(29) . . .
31.1(30) . . .
32.6(30) . . .
35.2(31) . . .
37.0(33) . . .
43.5(34) . . .
34.4(30) . . .
32.4(33) . . .
36.7(33) . . .
39.4(32) . . .
42.2(34) . . .
36.1(32) . . .
37.1(33) . . .
42.9(35) . . .
41.3(34) . . .
42.0(35) . . .
40.9(34) . . .
39(4) . . .
34.0(30) . . .
39.2(33) . . .
41.0(33) . . .
32.3(31) . . .
32.5(30) . . .
36.0(32) . . .
38.2(32) . . .
43.5(34) . . .
35.2(32) . . .
30.0(30) . . .
33.0(32) . . .
39.5(33) . . .
38(4) . . .
36.9(34) . . .
36.0(32) . . .
38.8(32) . . .
37.1(32) . . .
27.1(27) . . .
34.6(31) . . .
37.7(33) . . .
40.3(33) . . .
36.0(31) . . .
40.1(34) . . .
40(4) . . .
31.9(33) . . .
26.2(28) . . .
32.3(30) . . .
35.5(32) . . .
29.3(29) . . .
32.1(32) . . .
37.5(33) . . .
30.9(29) . . .
31.6(30) . . .
34.3(30) . . .
41.5(34) . . .
35.0(31) . . .
42.3(34) . . .
40.3(33) . . .
35.8(32) . . .
44(4) . . .
41.3(33) . . .
40.8(33) . . .
44(4) . . .
36.2(33) . . .
36.0(31) . . .
33.2(30) . . .
35.0(31) . . .
42(4) . . .
27.0(28) . . .
41.0(34) . . .
33.0(30) . . .
35.5(31) . . .
46(4) . . .
43.2(35) . . .
43.5(34) . . .
40.8(33) . . .
28.1(28) . . .
37.8(35) . . .
34.7(31) . . .
37.6(34) . . .
41.1(33) . . .
31.9(31) . . .
31.8(30) . . .
28.4(28) . . .
40.4(34) . . .
40.7(33) . . .
44(4) . . .
37.4(34) . . .
34.0(31) . . .
40.8(34) . . .
38.8(32) . . .
31.5(33) . . .
30.7(31) . . .
38.9(34) . . .
41.9(34) . . .
32.4(30) . . .
41(4) . . .
37.5(33) . . .
39.9(35) . . .
36.1(32) . . .
44.3(35) . . .
39.0(32) . . .
33.8(32) . . .
35.0(33) . . .
35.5(31) . . .
39.9(33) . . .
41(4) . . .
36(4) . . .
40.7(34) . . .
36.5(32) . . .
26.2(27) . . .
36.5(35) . . .
27.6(27) . . .
42.3(35) . . .
40.5(33) . . .
37.8(32) . . .
38.3(33) . . .
40.2(35) . . .
37.9(34) . . .
35.6(31) . . .
34.4(30) . . .
26.5(28) . . .
36(4) . . .
31.1(31) . . .
39.0(33) . . .
31.3(29) . . .
38.0(34) . . .
37.3(34) . . .
31.5(30) . . .
40.5(33) . . .
41.3(34) . . .
43(4) . . .
41.0(34) . . .
39.6(33) . . .
38.3(32) . . .
36.0(32) . . .
36.6(32) . . .
36.3(33) . . .
39.0(34) . . .
31.2(29) . . .
39.9(34) . . .
39.3(32) . . .
38.9(33) . . .
42.3(35) . . .
35.8(32) . . .
33.9(33) . . .
46(4) . . .
45(4) . . .
42(4) . . .
36.7(31) . . .
41.2(35) . . .
41.5(35) . . .
37.8(33) . . .
36.7(32) . . .
37.4(32) . . .
35.0(32) . . .
35.6(32) . . .
42.1(34) . . .
36.7(32) . . .
36.1(31) . . .
38.9(34) . . .
34.6(32) . . .
46(4) . . .
30.5(29) . . .
36.4(32) . . .
23.9(25) . . .
32.5(31) . . .
33.2(33) . . .
41.0(33) . . .
37.6(32) . . .
31.6(30) . . .
39(4) . . .
41(4) . . .
39.6(33) . . .
34.9(31) . . .
46(4) . . .
37.0(34) . . .
26.5(27) . . .
31.3(29) . . .
40.5(35) . . .
37.6(32) . . .
31.9(29) . . .
40.6(34) . . .
37.6(32) . . .
39.7(33) . . .
39.1(34) . . .
41(4) . . .
37.6(33) . . .
30.4(29) . . .
38.2(33) . . .
35.5(32) . . .
42(4) . . .
35.7(31) . . .
42.4(34) . . .
35.8(34) . . .
44(4) . . .
43(4) . . .
34.9(31) . . .
42.9(34) . . .
36.4(33) . . .
40(4) . . .
36.4(31) . . .
34.4(30) . . .
43.8(35) . . .
43.5(35) . . .
36.5(31) . . .
39.6(35) . . .
35.8(32) . . .
32.8(31) . . .
35.1(32) . . .
30.9(30) . . .
31.7(32) . . .
35.5(32) . . .
41.1(34) . . .
40.2(33) . . .
38(4) . . .
35.7(32) . . .
33.2(30) . . .
39.0(33) . . .
37.0(33) . . .
36.3(34) . . .
31.5(29) . . .
37.5(33) . . .
42.5(34) . . .
44(4) . . .
44.0(35) . . .
32.0(30) . . .
26.3(27) . . .
38.9(33) . . .
36.2(32) . . .
36.7(32) . . .
31.4(30) . . .
39.6(33) . . .
37.7(34) . . .
33.9(33) . . .
36.5(32) . . .
39.6(34) . . .
39.1(33) . . .
27.7(29) . . .
32.5(31) . . .
36.8(32) . . .
28.2(28) . . .
33.1(30) . . .
39.0(34) . . .
36.1(31) . . .
35.6(31) . . .
40.3(34) . . .
36.8(32) . . .
46(4) . . .
28.3(27) . . .
36.7(32) . . .
32.6(30) . . .
39.8(33) . . .
32.0(29) . . .
36.5(33) . . .
30.2(28) . . .
31.0(29) . . .
40.8(34) . . .
31.5(30) . . .
32.7(31) . . .
42(4) . . .
43.4(35) . . .
43.6(34) . . .
31.1(29) . . .
27.6(28) . . .
33.4(30) . . .
41.5(33) . . .
33.4(30) . . .
37.2(33) . . .
39(4) . . .
39.2(33) . . .
40.2(33) . . .
39.9(32) . . .
35.6(32) . . .
31.5(31) . . .
42(4) . . .
34.9(31) . . .
34.9(34) . . .
37.8(34) . . .
34.8(32) . . .
34.0(32) . . .
35.5(31) . . .
31.9(31) . . .
34.1(31) . . .
39.1(35) . . .
34.7(30) . . .
35.4(32) . . .
34.0(32) . . .
35.7(32) . . .
38.3(32) . . .
46(4) . . .
40.2(33) . . .
36.3(34) . . .
29.7(30) . . .
41.1(34) . . .
37.6(32) . . .
28.4(28) . . .
32.1(30) . . .
41.8(35) . . .
38.8(32) . . .
36.4(32) . . .
30.1(29) . . .
37.4(33) . . .
38.3(32) . . .
41.7(34) . . .
39.1(32) . . .
34.8(31) . . .
33.6(31) . . .
31.2(32) . . .
36.2(32) . . .
37.8(32) . . .
37.9(32) . . .
31.0(30) . . .
37(4) . . .
35.3(33) . . .
38.3(33) . . .
35.9(31) . . .
35.1(32) . . .
37.1(34) . . .
40.7(34) . . .
40.7(34) . . .
34.1(30) . . .
29.4(28) . . .
35.4(34) . . .
34.3(30) . . .
44.7(35) . . .
39.4(33) . . .
35.0(33) . . .
32.4(31) . . .
25.3(26) . . .
38.7(32) . . .
32.5(30) . . .
31.2(32) . . .
25.3(29) . . .
32.3(30) . . .
29.0(28) . . .
37.1(34) . . .
29.5(27) . . .
45(4) . . .
46(4) . . .
34.6(31) . . .
43.0(35) . . .
34.2(30) . . .
38.0(34) . . .
33.5(31) . . .
37.2(32) . . .
36(4) . . .
41(4) . . .
30.6(30) . . .
36.5(31) . . .
45(4) . . .
28.6(29) . . .
36.9(35) . . .
34.7(33) . . .
39.7(35) . . .
35.7(31) . . .
35.6(33) . . .
29.0(29) . . .
35.6(31) . . .
36.7(31) . . .
42.0(34) . . .
37.4(31) . . .
37.8(33) . . .
29.6(28) . . .
28.7(28) . . .
38.1(32) . . .
35.2(33) . . .
30.7(31) . . .
30.4(31) . . .
34.8(31) . . .
32.4(30) . . .
35.4(32) . . .
36.9(34) . . .
32.8(30) . . .
34.3(31) . . .
33.5(31) . . .
37.0(33) . . .
36(4) . . .
35.6(35) . . .
34.6(31) . . .
31.6(29) . . .
39(4) . . .
32.4(31) . . .
35.9(32) . . .
31.4(29) . . .
39.1(33) . . .
40(4) . . .
34.7(32) . . .
33.7(31) . . .
33.4(30) . . .
33.2(31) . . .
42.6(35) . . .
42(4) . . .
34.1(31) . . .
37.0(32) . . .
45(4) . . .
36.4(32) . . .
35.4(31) . . .
26.7(27) . . .
33.7(30) . . .
28.6(30) . . .
34.6(35) . . .
35.0(31) . . .
42.5(34) . . .
38.1(32) . . .
34.5(31) . . .
40(4) . . .
37.3(33) . . .
37.4(31) . . .
49(4) . . .
46(4) . . .
42(4) . . .
30.9(29) . . .
33.0(30) . . .
38.0(32) . . .
31.5(31) . . .
40(4) . . .
36.8(35) . . .
40.5(33) . . .
33.7(31) . . .
36.6(32) . . .
30.4(30) . . .
25.8(27) . . .
42.3(34) . . .
37.0(32) . . .
37.4(33) . . .
28.5(30) . . .
32.6(32) . . .
46(4) . . .
42.8(34) . . .
39(4) . . .
40.8(34) . . .
33.4(31) . . .
46(4) . . .
38.9(34) . . .
33.4(32) . . .
32.1(31) . . .
33.1(31) . . .
42.1(34) . . .
41.4(35) . . .
36.1(33) . . .
36.8(33) . . .
36.1(34) . . .
41.9(34) . . .
32.6(30) . . .
35.1(31) . . .
35.9(32) . . .
41.4(34) . . .
34.6(31) . . .
39.7(34) . . .
35.8(34) . . .
30.1(32) . . .
38.6(34) . . .
31.5(29) . . .
39.9(34) . . .
38(4) . . .
39.0(34) . . .
40.3(33) . . .
36.8(33) . . .
31.2(30) . . .
38(4) . . .
39.7(33) . . .
36.4(32) . . .
32.6(29) . . .
35.9(32) . . .
35.1(31) . . .
31.0(29) . . .
45(4) . . .
43.7(35) . . .
42(4) . . .
34.7(32) . . .
41.9(35) . . .
30.5(29) . . .
32.1(30) . . .
39.3(33) . . .
44(4) . . .
36.8(31) . . .
33.3(30) . . .
31.0(30) . . .
32.2(31) . . .
31.2(30) . . .
34.5(31) . . .
36.1(31) . . .
43(4) . . .
36.3(33) . . .
37.4(32) . . .
39.0(34) . . .
34.8(31) . . .
36.9(32) . . .
35.8(33) . . .
40.9(34) . . .
47(4) . . .
43.2(35) . . .
40(4) . . .
36.1(33) . . .
33.0(31) . . .
38.1(34) . . .
42.9(34) . . .
28.9(28) . . .
39.1(35) . . .
44.2(35) . . .
37.7(32) . . .
32.6(30) . . .
37.0(32) . . .
40.3(34) . . .
35.2(31) . . .
33.7(32) . . .
36.6(31) . . .
34.1(33) . . .
35.2(33) . . .
30.2(29) . . .
38.2(32) . . .
43.3(35) . . .
33.0(30) . . .
34.4(32) . . .
37.4(34) . . .
38.8(32) . . .
41.3(34) . . .
36.7(34) . . .
39(4) . . .
39.8(34) . . .
29.6(29) . . .
42.2(33) . . .
45(4) . . .
42(4) . . .
34.1(32) . . .
28.9(28) . . .
31.5(29) . . .
38(4) . . .
33.7(34) . . .
30.6(31) . . .
42.1(34) . . .
38.2(32) . . .
33.7(31) . . .
36.0(33) . . .
44.2(35) . . .
37.8(32) . . .
43.0(35) . . .
37.3(33) . . .
36.5(33) . . .
44(4) . . .
31.8(29) . . .
25.3(26) . . .
37.0(34) . . .
37.2(33) . . .
40.2(35) . . .
34.4(31) . . .
30.7(30) . . .
36.3(34) . . .
36.6(34) . . .
38.6(33) . . .
36.5(32) . . .
36.2(33) . . .
31.8(30) . . .
30.4(29) . . .
30.6(29) . . .
35.8(31) . . .
32.2(31) . . .
30.0(28) . . .
33.0(30) . . .
32.0(29) . . .
35.0(31) . . .
37.7(33) . . .
34.0(35) . . .
31.0(32) . . .
35.0(31) . . .
34.0(30) . . .
40.8(33) . . .
44(4) . . .
29.8(28) . . .
39.4(33) . . .
37.0(32) . . .
39.9(35) . . .
29.6(30) . . .
33.8(32) . . .
34.7(31) . . .
34.6(30) . . .
38.7(35) . . .
35.0(33) . . .
33.3(31) . . .
37.9(32) . . .
33.3(30) . . .
49(4) . . .
33.5(31) . . .
35.8(32) . . .
34.9(31) . . .
35.1(31) . . .
41(4) . . .
34.3(31) . . .
39.5(33) . . .
34.8(32) . . .
35.1(32) . . .
32.1(30) . . .
36.6(31) . . .
37.2(32) . . .
39.8(32) . . .
40.1(34) . . .
44(4) . . .
36.9(31) . . .
42.2(34) . . .
23.3(26) . . .
41.4(34) . . .
45(4) . . .
31.1(29) . . .
30.6(30) . . .
30.9(29) . . .
31.3(29) . . .
38.1(34) . . .
37.9(33) . . .
33.0(31) . . .
30.2(29) . . .
38.8(35) . . .
31.1(31) . . .
37.9(32) . . .
35.8(32) . . .
40.6(34) . . .
41.8(34) . . .
37.5(34) . . .
33.8(30) . . .
38.7(32) . . .
35.5(31) . . .
37.9(32) . . .
42.7(34) . . .
45(4) . . .
30.1(29) . . .
42(4) . . .
33.6(31) . . .
46(4) . . .
44(4) . . .
44.3(35) . . .
34.8(32) . . .
29.5(29) . . .
35(4) . . .
29.9(29) . . .
38.7(33) . . .
32.3(29) . . .
31.9(29) . . .
42(4) . . .
43.0(35) . . .
42.0(34) . . .
29.3(30) . . .
33.3(31) . . .
36.6(32) . . .
39.7(34) . . .
34.6(30) . . .
38.8(33) . . .
35.9(32) . . .
32.4(30) . . .
46(4) . . .
46(4) . . .
35.9(32) . . .
38.4(34) . . .
34.1(31) . . .
43(4) . . .
35.3(32) . . .
41.8(34) . . .
37.1(33) . . .
39.9(33) . . .
37.7(32) . . .
37.9(32) . . .
29.1(28) . . .
33.3(31) . . .
36.2(33) . . .
34.7(32) . . .
33.3(30) . . .
44(4) . . .
36.3(33) . . .
38.3(33) . . .
41.2(33) . . .
35.8(31) . . .
29.6(28) . . .
41(4) . . .
41(4) . . .
30.6(29) . . .
33.4(32) . . .
31.0(29) . . .
34.3(33) . . .
35.6(33) . . .
39.2(33) . . .
38.5(32) . . .
39.1(33) . . .
45(4) . . .
36.0(32) . . .
32.2(31) . . .
38.3(33) . . .
35.8(33) . . .
44(4) . . .
43.8(35) . . .
45.0(34) . . .
34.9(33) . . .
36.5(32) . . .
34.4(31) . . .
23.5(25) . . .
34.9(31) . . .
32.5(31) . . .
35.4(32) . . .
35.7(34) . . .
34.0(32) . . .
40.3(33) . . .
36.7(34) . . .
38.2(34) . . .
45(4) . . .
29.4(28) . . .
26.0(26) . . .
36.5(34) . . .
30.0(30) . . .
36.1(31) . . .
42.2(34) . . .
39.1(32) . . .
33.7(30) . . .
38.3(34) . . .
39.6(34) . . .
41.6(34) . . .
45(4) . . .
41.6(34) . . .
40.5(34) . . .
42.3(35) . . .
39.7(33) . . .
35.3(31) . . .
29.8(28) . . .
45(4) . . .
32.7(31) . . .
27.1(27) . . .
34.5(30) . . .
46(4) . . .
38.9(34) . . .
38.7(34) . . .
37.6(32) . . .
37.8(34) . . .
34.2(32) . . .
33.3(32) . . .
29.0(30) . . .
31.7(29) . . .
37.1(33) . . .
33.7(33) . . .
42(4) . . .
37.7(32) . . .
36.7(31) . . .
46(4) . . .
38.4(33) . . .
46(4) . . .
36.7(31) . . .
38.5(32) . . .
31.1(29) . . .
33.9(32) . . .
47(4) . . .
39.7(32) . . .
38.4(33) . . .
39.9(33) . . .
45(4) . . .
33.4(34) . . .
25.2(27) . . .
31.3(29) . . .
33.7(34) . . .
27.5(29) . . .
23.6(26) . . .
32.2(30) . . .
32.0(30) . . .
39(4) . . .
42(4) . . .
40.6(35) . . .
36.6(32) . . .
34.9(32) . . .
40(4) . . .
37.5(35) . . .
39.2(33) . . .
38.7(32) . . .
38.1(33) . . .
43(4) . . .
33.0(32) . . .
33.0(30) . . .
39.9(33) . . .
32.0(29) . . .
39.3(34) . . .
39.9(35) . . .
39.3(34) . . .
34.8(31) . . .
36.3(32) . . .
42(4) . . .
34.5(32) . . .
37.1(32) . . .
40.8(34) . . .
22.1(24) . . .
36.0(32) . . .
32.5(32) . . .
26.3(27) . . .
31.6(29) . . .
38.1(34) . . .
33.4(32) . . .
30.3(30) . . .
34.6(31) . . .
32.0(29) . . .
33.7(31) . . .
36.4(34) . . .
34.3(32) . . .
33.2(31) . . .
28.5(28) . . .
35.7(32) . . .
34.9(31) . . .
51(4) . . .
36.4(32) . . .
32.5(30) . . .
30.9(30) . . .
36.1(34) . . .
35.2(34) . . .
33.6(30) . . .
32.2(30) . . .
31.8(30) . . .
38(4) . . .
29.5(28) . . .
34.4(32) . . .
39.3(34) . . .
29.2(28) . . .
37.2(34) . . .
36.4(32) . . .
34.0(31) . . .
36.4(32) . . .
45(4) . . .
35.6(32) . . .
41(4) . . .
48(4) . . .
35.7(31) . . .
39.8(33) . . .
37.4(32) . . .
36.3(31) . . .
40.1(33) . . .
32.6(29) . . .
40(4) . . .
26.7(29) . . .
33.0(31) . . .
37.4(32) . . .
29.8(28) . . .
30.1(29) . . .
37(4) . . .
34.8(32) . . .
41.2(34) . . .
36.4(31) . . .
34.4(31) . . .
37.9(33) . . .
38.5(33) . . .
35.4(31) . . .
30.6(29) . . .
35.5(33) . . .
37.0(34) . . .
32.8(30) . . .
39.3(33) . . .
34.1(31) . . .
40.7(35) . . .
31.3(29) . . .
41.0(34) . . .
36.9(32) . . .
47(4) . . .
37.3(33) . . .
42.4(35) . . .
37.5(32) . . .
39.2(32) . . .
38.9(34) . . .
31.2(31) . . .
37.0(34) . . .
29.5(29) . . .
35.0(31) . . .
33.0(31) . . .
33.5(33) . . .
32.5(31) . . .
34.2(32) . . .
31.3(29) . . .
30.6(30) . . .
39(4) . . .
31.6(30) . . .
30.1(29) . . .
35.2(30) . . .
34.0(31) . . .
26.0(26) . . .
38(4) . . .
32.6(30) . . .
39.0(32) . . .
43(4) . . .
38.6(34) . . .
31.9(32) . . .
31.3(29) . . .
35.5(31) . . .
35.0(31) . . .
31.1(30) . . .
32.7(30) . . .
35.5(31) . . .
33.1(30) . . .
37.9(34) . . .
35.0(33) . . .
31.9(30) . . .
32.1(29) . . .
41(4) . . .
36.9(34) . . .
38.7(35) . . .
36.8(33) . . .
40.8(33) . . .
37.5(32) . . .
38.5(33) . . .
30.8(30) . . .
29.2(28) . . .
26.4(27) . . .
31.3(29) . . .
35.1(31) . . .
33.0(31) . . .
39.0(33) . . .
36.5(31) . . .
27.1(27) . . .
31.6(30) . . .
33.5(31) . . .
35.4(31) . . .
30.0(29) . . .
33.7(31) . . .
36.6(31) . . .
38.0(33) . . .
44.8(35) . . .
32.1(29) . . .
27.7(28) . . .
27.6(29) . . .
40.8(35) . . .
40.6(34) . . .
43.1(34) . . .
32.6(30) . . .
33.5(31) . . .
33.6(30) . . .
33.4(30) . . .
40.9(33) . . .
32.0(30) . . .
29.3(29) . . .
25.2(28) . . .
31.8(29) . . .
30.2(30) . . .
31.4(30) . . .
36.0(35) . . .
34.1(35) . . .
32.8(30) . . .
32.4(29) . . .
36.5(33) . . .
39.7(34) . . .
42(4) . . .
27.8(28) . . .
36.3(32) . . .
26.7(27) . . .
34.3(32) . . .
40.6(34) . . .
32.7(31) . . .
36.0(32) . . .
43(4) . . .
38.9(33) . . .
32.8(32) . . .
34.5(31) . . .
41.8(35) . . .
26.9(26) . . .
34.2(32) . . .
42.5(35) . . .
36.0(31) . . .
34.8(32) . . .
35.4(34) . . .
33.5(32) . . .
41.3(34) . . .
39.6(33) . . .
33.0(31) . . .
29.0(30) . . .
39(4) . . .
26.9(27) . . .
36.7(31) . . .
49(4) . . .
42.3(35) . . .
42.7(35) . . .
36.5(32) . . .
33.2(30) . . .
44(4) . . .
35.8(32) . . .
36.7(32) . . .
37.6(31) . . .
39.2(33) . . .
45(4) . . .
33.9(33) . . .
28.4(28) . . .
35.3(31) . . .
44.2(35) . . .
44.8(35) . . .
35.0(31) . . .
39.7(34) . . .
30.7(30) . . .
38.3(32) . . .
39.3(35) . . .
29.4(27) . . .
40.1(33) . . .
38.4(32) . . .
29.7(29) . . .
32.3(31) . . .
40(4) . . .
32.7(31) . . .
32.1(29) . . .
36.8(32) . . .
42(4) . . .
34.4(33) . . .
35.2(32) . . .
30.8(30) . . .
36.7(33) . . .
41.6(35) . . .
40.5(34) . . .
32.8(29) . . .
38.0(33) . . .
41.1(34) . . .
38.8(34) . . .
28.8(30) . . .
36.3(32) . . .
36.0(32) . . .
32.2(32) . . .
32.5(31) . . .
34.8(30) . . .
40.9(34) . . .
37.1(31) . . .
33.2(32) . . .
41(4) . . .
38.7(33) . . .
39.8(33) . . .
31.6(29) . . .
33.9(31) . . .
35.1(34) . . .
38.0(32) . . .
43.3(34) . . .
46(4) . . .
33.9(29) . . .
39.3(34) . . .
34.7(31) . . .
40.3(33) . . .
37.9(33) . . .
32.1(32) . . .
41(4) . . .
33.6(31) . . .
25.7(26) . . .
41.4(34) . . .
35.3(33) . . .
38.6(32) . . .
37.4(32) . . .
26.5(27) . . .
24.9(27) . . .
34.0(33) . . .
30.8(31) . . .
32.9(30) . . .
30.3(28) . . .
30.1(30) . . .
35.7(33) . . .
47(4) . . .
38.2(34) . . .
35.0(31) . . .
48(4) . . .
41.6(35) . . .
26.6(27) . . .
32.3(30) . . .
38.5(32) . . .
32.4(30) . . .
36.6(33) . . .
36.7(33) . . .
43.0(35) . . .
40.0(34) . . .
36.3(33) . . .
28.9(29) . . .
39.5(34) . . .
31.3(29) . . .
36.6(32) . . .
34.8(32) . . .
35.8(33) . . .
37.8(33) . . .
36.1(31) . . .
31.2(29) . . .
38.2(33) . . .
35.1(33) . . .
34.5(32) . . .
37.8(32) . . .
35.0(32) . . .
43(4) . . .
29.4(30) . . .
36.8(32) . . .
40.1(33) . . .
33.7(31) . . .
33.6(31) . . .
31.0(29) . . .
33.1(32) . . .
33.5(30) . . .
32.6(30) . . .
30.9(30) . . .
37.7(34) . . .
33.5(32) . . .
42.0(34) . . .
33.7(31) . . .
36.0(33) . . .
33.8(30) . . .
44(4) . . .
31.8(30) . . .
34.3(32) . . .
32.1(31) . . .
39(4) . . .
36.7(34) . . .
33.6(30) . . .
32.5(30) . . .
44(4) . . .
39.9(33) . . .
36.9(34) . . .
43.8(35) . . .
34.6(31) . . .
27.7(29) . . .
36.5(34) . . .
41.3(33) . . .
40.1(33) . . .
36.3(33) . . .
37(4) . . .
35.4(32) . . .
42(4) . . .
38.9(32) . . .
38.8(34) . . .
39(4) . . .
43(4) . . .
37.8(32) . . .
37.3(32) . . .
33.8(34) . . .
27.3(28) . . .
32.8(29) . . .
37.6(32) . . .
32.6(31) . . .
29.4(30) . . .
31.5(29) . . .
35.0(33) . . .
35.8(31) . . .
29.8(29) . . .
37.9(34) . . .
25.4(27) . . .
30.7(31) . . .
32.0(29) . . .
34.5(31) . . .
34.1(30) . . .
35.1(34) . . .
32.7(33) . . .
37.2(32) . . .
34.2(31) . . .
42(4) . . .
26.1(27) . . .
34.8(32) . . .
36.6(32) . . .
50(4) . . .
31.3(29) . . .
35.9(31) . . .
38.7(33) . . .
42.1(33) . . .
36.9(33) . . .
34.0(32) . . .
31.6(30) . . .
37.2(33) . . .
39.7(33) . . .
34.0(31) . . .
32.9(31) . . .
24.6(27) . . .
36.6(33) . . .
40.2(33) . . .
37.0(33) . . .
29.4(29) . . .
33.3(32) . . .
35.4(31) . . .
38.4(32) . . .
38.3(34) . . .
33.7(31) . . .
31.9(29) . . .
38.0(33) . . .
46(4) . . .
31.8(30) . . .
38(4) . . .
44(4) . . .
36.7(32) . . .
36.9(31) . . .
33.5(30) . . .
31.7(32) . . .
34.9(33) . . .
32.8(31) . . .
33.0(32) . . .
33.5(32) . . .
33.2(32) . . .
36.5(33) . . .
38.2(33) . . .
36.5(32) . . .
39.0(34) . . .
37.6(34) . . .
34.8(30) . . .
36.3(31) . . .
35.6(32) . . .
38.8(34) . . .
39(4) . . .
40(4) . . .
34.9(31) . . .
40.3(33) . . .
34.5(31) . . .
34.7(32) . . .
31.0(29) . . .
27.3(27) . . .
32.9(30) . . .
44(4) . . .
41.1(34) . . .
29.5(29) . . .
36.0(31) . . .
28.3(30) . . .
29.1(28) . . .
33.3(30) . . .
33.4(30) . . .
28.2(27) . . .
35.5(34) . . .
30.8(30) . . .
41.6(35) . . .
41.5(34) . . .
37.0(31) . . .
31.6(30) . . .
32.5(31) . . .
38.3(33) . . .
39.2(32) . . .
36.4(31) . . .
38.7(34) . . .
37.7(34) . . .
37.1(34) . . .
37.0(31) . . .
31.5(30) . . .
32.2(30) . . .
29.3(30) . . .
34.6(33) . . .
32.9(31) . . .
40.4(33) . . .
39.3(35) . . .
35.9(33) . . .
30.1(28) . . .
36.6(31) . . .
36.8(31) . . .
40.3(35) . . .
33.0(31) . . .
35.8(33) . . .
43.0(35) . . .
42.6(34) . . .
36.7(32) . . .
29.2(28) . . .
42(4) . . .
44(4) . . .
36.5(31) . . .
34(4) . . .
31.6(31) . . .
39.8(34) . . .
34.1(31) . . .
31.9(29) . . .
46(4) . . .
38.4(34) . . .
46(4) . . .
44.6(35) . . .
36.8(32) . . .
34.0(31) . . .
38.0(33) . . .
37.7(33) . . .
32.8(30) . . .
33.3(30) . . .
37(4) . . .
25.0(28) . . .
37.2(34) . . .
33.7(30) . . .
41(4) . . .
38.8(34) . . .
34.3(33) . . .
40.3(34) . . .
42.9(34) . . .
30.6(28) . . .
35.8(33) . . .
30.3(30) . . .
30.7(29) . . .
32.6(31) . . .
50(4) . . .
35.5(34) . . .
33.3(31) . . .
43.9(35) . . .
45(4) . . .
32.1(29) . . .
38.1(34) . . .
33.0(30) . . .
37.1(32) . . .
37.6(32) . . .
38.8(34) . . .
36(4) . . .
35.3(32) . . .
35.2(32) . . .
28.9(28) . . .
38.3(34) . . .
28.7(31) . . .
33.8(34) . . .
35.1(31) . . .
25.2(26) . . .
36.3(32) . . .
30.2(29) . . .
31.1(29) . . .
47(4) . . .
33.1(31) . . .
36.8(32) . . .
40.0(35) . . .
42(4) . . .
30.4(29) . . .
37.0(32) . . .
33.9(32) . . .
40(4) . . .
38.5(32) . . .
48(4) . . .
31.5(29) . . .
36.8(34) . . .
39(4) . . .
27.8(27) . . .
36.0(33) . . .
37.7(33) . . .
43.0(35) . . .
37.3(34) . . .
32.2(31) . . .
29.0(28) . . .
38.5(32) . . .
37.2(32) . . .
34.7(32) . . .
30.8(31) . . .
41.4(34) . . .
43(4) . . .
35.5(32) . . .
48(4) . . .
31.1(29) . . .
31.3(30) . . .
33.1(31) . . .
43(4) . . .
32.5(30) . . .
37.5(32) . . .
34.2(30) . . .
32.7(31) . . .
36.1(35) . . .
39.1(35) . . .
31.1(30) . . .
38.1(32) . . .
38.1(33) . . .
38.5(33) . . .
42(4) . . .
35.6(33) . . .
35.2(33) . . .
45(4) . . .
35.1(31) . . .
38.3(35) . . .
38.5(32) . . .
41.0(34) . . .
36.9(34) . . .
37.4(33) . . .
37.2(31) . . .
43.0(35) . . .
33.0(32) . . .
42(4) . . .
43(4) . . .
32.2(29) . . .
33.0(30) . . .
39.7(33) . . .
38.5(33) . . .
32.8(29) . . .
36.8(32) . . .
26.2(27) . . .
27.9(28) . . .
39.4(35) . . .
39.2(34) . . .
36.2(32) . . .
39.6(33) . . .
32.6(30) . . .
40.1(34) . . .
43(4) . . .
32.4(31) . . .
37.0(32) . . .
29.0(27) . . .
37.4(35) . . .
33.7(33) . . .
33.0(30) . . .
31.4(29) . . .
30.8(31) . . .
31.0(31) . . .
36.7(32) . . .
39.5(33) . . .
31.9(29) . . .
31.9(31) . . .
32.6(31) . . .
31.1(29) . . .
38.8(33) . . .
34.3(32) . . .
43(4) . . .
33.2(31) . . .
34.8(31) . . .
38.7(33) . . .
28.3(28) . . .
29.5(28) . . .
34.1(33) . . .
31.0(30) . . .
37.3(32) . . .
32.4(31) . . .
35.0(33) . . .
45(4) . . .
34.0(31) . . .
35.2(31) . . .
38.1(35) . . .
33.8(30) . . .
31.7(30) . . .
31.1(31) . . .
33.0(31) . . .
32.3(32) . . .
35.6(33) . . .
35.7(33) . . .
40(4) . . .
38.4(32) . . .
36.7(32) . . .
35.0(31) . . .
35.9(32) . . .
34.8(31) . . .
35.1(32) . . .
33.0(31) . . .
39(4) . . .
41.9(35) . . .
36.0(31) . . .
35.2(31) . . .
32.3(30) . . .
34.6(33) . . .
43(4) . . .
42.8(35) . . .
33.2(30) . . .
39.3(33) . . .
42(4) . . .
42(4) . . .
29.8(29) . . .
40.6(33) . . .
35.8(32) . . .
34.2(33) . . .
32.2(30) . . .
37.7(32) . . .
41.1(34) . . .
29.1(29) . . .
39(4) . . .
32.5(31) . . .
33.7(30) . . .
44(4) . . .
36.3(32) . . .
33.9(34) . . .
32.2(30) . . .
29.4(28) . . .
25.9(27) . . .
41(4) . . .
37.0(33) . . .
35.9(32) . . .
44.4(35) . . .
34.9(32) . . .
41(4) . . .
42(4) . . .
34.3(32) . . .
41.1(33) . . .
31.1(29) . . .
40.9(33) . . .
38.4(33) . . .
43.9(35) . . .
39.2(33) . . .
26.7(27) . . .
40.3(34) . . .
35.8(33) . . .
28.8(28) . . .
39.3(33) . . .
37.3(34) . . .
44(4) . . .
42.4(33) . . .
31.5(29) . . .
33.2(30) . . .
35.6(31) . . .
32.5(31) . . .
30.4(30) . . .
35.3(31) . . .
32.5(29) . . .
28.6(28) . . .
28.0(31) . . .
33.9(33) . . .
32.9(30) . . .
33.2(30) . . .
42.1(33) . . .
40(4) . . .
33.3(32) . . .
35.4(31) . . .
32.0(32) . . .
33.1(30) . . .
36.2(31) . . .
38.7(32) . . .
42.6(33) . . .
31.7(29) . . .
38.6(33) . . .
34.3(30) . . .
38.8(33) . . .
36.2(32) . . .
34.8(31) . . .
34.5(31) . . .
39.6(34) . . .
30.5(30) . . .
40.7(33) . . .
30.9(30) . . .
35.8(34) . . .
37.8(34) . . .
41(4) . . .
27.3(28) . . .
32.3(30) . . .
26.7(27) . . .
30.8(31) . . .
35.4(32) . . .
34.0(31) . . .
43(4) . . .
34.8(33) . . .
36.4(33) . . .
36.2(32) . . .
34.1(31) . . .
38.9(33) . . .
40.6(35) . . .
31.7(29) . . .
33.7(30) . . .
34.3(32) . . .
32.0(33) . . .
41(4) . . .
42.8(35) . . .
32.5(30) . . .
29.9(29) . . .
34.1(33) . . .
30.5(31) . . .
33.9(31) . . .
40.1(35) . . .
37.1(32) . . .
32.1(30) . . .
36.9(35) . . .
38.3(33) . . .
43.1(34) . . .
36.0(31) . . .
41.2(34) . . .
34.5(31) . . .
41.8(35) . . .
31.9(30) . . .
42.2(34) . . .
39.3(35) . . .
35.0(33) . . .
33.6(34) . . .
37.0(32) . . .
33.3(31) . . .
42(4) . . .
39.4(33) . . .
33.5(31) . . .
32.9(30) . . .
30.2(29) . . .
40.8(34) . . .
34.3(31) . . .
33.1(31) . . .
34.9(31) . . .
35.5(32) . . .
32.2(32) . . .
36.1(33) . . .
36.0(32) . . .
39.6(33) . . .
34.9(35) . . .
44(4) . . .
34.8(31) . . .
42.8(34) . . .
35.0(31) . . .
36.5(32) . . .
38.7(35) . . .
26.5(26) . . .
35.6(31) . . .
43.4(34) . . .
38.4(34) . . .
34.2(33) . . .
32.1(31) . . .
33.8(30) . . .
40.7(34) . . .
34.6(30) . . .
33.6(31) . . .
42(4) . . .
30.1(29) . . .
36.9(32) . . .
34.4(30) . . .
37.4(35) . . .
41.1(34) . . .
44(4) . . .
37.0(32) . . .
36.9(33) . . .
48(4) . . .
40.1(34) . . .
33.5(31) . . .
37.0(33) . . .
30.2(31) . . .
36.0(32) . . .
41.0(35) . . .
40.7(33) . . .
44(4) . . .
32.8(30) . . .
33.5(31) . . .
44(4) . . .
35.9(31) . . .
38.7(32) . . .
39.1(34) . . .
34.8(31) . . .
38.4(33) . . .
33.6(30) . . .
29.9(30) . . .
42(4) . . .
41(4) . . .
40.6(34) . . .
36.2(31) . . .
30.0(30) . . .
35.6(34) . . .
41(4) . . .
30.2(30) . . .
34.3(30) . . .
37.1(33) . . .
27.2(29) . . .
37.3(33) . . .
35.1(31) . . .
38.9(33) . . .
28.2(28) . . .
33.0(34) . . .
34.3(32) . . .
33.7(30) . . .
38.3(32) . . .
32.7(33) . . .
38(4) . . .
34.3(33) . . .
31.5(30) . . .
30.6(30) . . .
29.7(29) . . .
44(4) . . .
26.8(27) . . .
29.5(28) . . .
37.9(33) . . .
40(4) . . .
35.5(33) . . .
37.1(33) . . .
35.3(31) . . .
29.2(30) . . .
33.5(31) . . .
39(4) . . .
40.3(34) . . .
39.2(32) . . .
24.0(27) . . .
42(4) . . .
41.7(34) . . .
47(4) . . .
32.0(30) . . .
30.0(30) . . .
34.5(30) . . .
36.8(32) . . .
34.7(31) . . .
40.7(33) . . .
40.9(34) . . .
28.0(28) . . .
32.9(31) . . .
40.6(34) . . .
36.3(31) . . .
31.5(31) . . .
33.3(33) . . .
41(4) . . .
38.6(34) . . .
25.9(26) . . .
39(4) . . .
27.8(30) . . .
25.5(28) . . .
34.6(32) . . .
42.9(34) . . .
48(4) . . .
27.3(27) . . .
31.9(30) . . .
41.4(34) . . .
33.0(30) . . .
35.3(32) . . .
33.9(31) . . .
32.3(30) . . .
33.3(32) . . .
33.9(30) . . .
27.4(29) . . .
33.3(32) . . .
37.2(33) . . .
34.8(32) . . .
36.7(32) . . .
36.9(32) . . .
38(4) . . .
42(4) . . .
43.5(35) . . .
34.0(30) . . .
34.2(30) . . .
35.6(31) . . .
33.8(32) . . .
37.5(32) . . .
39.8(33) . . .
43.8(35) . . .
43(4) . . .
38.6(32) . . .
34.6(31) . . .
37.2(32) . . .
39.5(33) . . .
28.0(28) . . .
33.1(31) . . .
44.8(35) . . .
31.5(30) . . .
29.9(30) . . .
42(4) . . .
25.5(26) . . .
28.6(28) . . .
33.6(30) . . .
33.7(33) . . .
30.9(30) . . .
44(4) . . .
33.8(31) . . .
37.5(34) . . .
34.3(33) . . .
35.9(33) . . .
36.3(32) . . .
41.8(34) . . .
37.9(35) . . .
31.9(29) . . .
36.5(31) . . .
35.7(31) . . .
29.6(29) . . .
33.4(32) . . .
32.0(31) . . .
28.5(29) . . .
39.3(33) . . .
28.9(28) . . .
32.1(31) . . .
31.5(32) . . .
35.7(33) . . .
30.9(29) . . .
30.9(29) . . .
30.7(30) . . .
31.5(31) . . .
37.8(35) . . .
38.9(32) . . .
39.7(33) . . .
40.4(34) . . .
31.2(30) . . .
40.3(35) . . .
38.0(32) . . .
38.7(32) . . .
42(4) . . .
27.8(30) . . .
30.4(31) . . .
33.6(30) . . .
33.2(32) . . .
33.6(31) . . .
38.9(34) . . .
36.3(34) . . .
35.2(31) . . .
34.5(31) . . .
31.5(29) . . .
39.3(33) . . .
34.7(33) . . .
34.4(31) . . .
50(4) . . .
36.3(31) . . .
37.1(32) . . .
37.5(32) . . .
31.1(29) . . .
38.7(34) . . .
36.4(32) . . .
37.3(33) . . .
41.3(34) . . .
37.2(32) . . .
37.0(34) . . .
42(4) . . .
46(4) . . .
41.6(35) . . .
44.3(34) . . .
43(4) . . .
32.3(29) . . .
33.7(30) . . .
29.6(30) . . .
30.3(29) . . .
34.6(32) . . .
34.1(32) . . .
37.8(33) . . .
39.9(33) . . .
37.4(32) . . .
34.8(31) . . .
35(4) . . .
30.9(30) . . .
36.0(32) . . .
38.0(34) . . .
30.9(28) . . .
45(4) . . .
35.6(32) . . .
38.5(32) . . .
30.5(28) . . .
33.8(31) . . .
29.4(28) . . .
34.4(32) . . .
30.5(29) . . .
37.7(32) . . .
29.9(29) . . .
29.2(30) . . .
34.4(32) . . .
34.6(30) . . .
34.3(31) . . .
33.5(31) . . .
29.5(28) . . .
42(4) . . .
30.7(28) . . .
39.1(35) . . .
44(4) . . .
34.9(30) . . .
28.4(27) . . .
29.3(29) . . .
31.9(29) . . .
34.4(30) . . .
37.8(34) . . .
40(4) . . .
38.0(32) . . .
33.9(31) . . .
28.7(29) . . .
42(4) . . .
43.1(34) . . .
44.8(35) . . .
35.7(31) . . .
32.1(29) . . .
34.8(32) . . .
27.7(28) . . .
34.0(31) . . .
31.3(30) . . .
33.3(30) . . .
42.0(35) . . .
28.3(28) . . .
34.6(31) . . .
31.8(28) . . .
39.8(35) . . .
39.2(33) . . .
40.9(33) . . .
37.2(32) . . .
40.2(35) . . .
44(4) . . .
45(4) . . .
37.2(31) . . .
33.4(31) . . .
36.6(34) . . .
39(4) . . .
39.9(34) . . .
37.9(32) . . .
37.2(33) . . .
30.8(32) . . .
28.4(29) . . .
48(4) . . .
38.4(33) . . .
33.4(30) . . .
38.5(34) . . .
34.0(31) . . .
40.7(35) . . .
37.1(31) . . .
37.5(32) . . .
36.7(34) . . .
30.0(29) . . .
45(4) . . .
33.0(31) . . .
40.5(34) . . .
36.4(33) . . .
46(4) . . .
33.5(31) . . .
38.6(34) . . .
33.5(31) . . .
46(4) . . .
34.9(31) . . .
32.2(31) . . .
38.6(32) . . .
34.6(30) . . .
34.1(31) . . .
37(4) . . .
34.3(31) . . .
35.5(30) . . .
28.0(28) . . .
31.5(31) . . .
35.9(32) . . .
38.8(33) . . .
34.0(30) . . .
45(4) . . .
33.0(31) . . .
32.0(30) . . .
33.8(30) . . .
43.4(34) . . .
29.5(29) . . .
36.6(34) . . .
39.1(33) . . .
31.0(29) . . .
30.4(29) . . .
37.3(33) . . .
33.9(31) . . .
32.5(31) . . .
32.2(29) . . .
27.0(27) . . .
33.0(31) . . .
32.2(30) . . .
32.5(30) . . .
33.8(31) . . .
33.7(31) . . .
34.1(31) . . .
35.3(31) . . .
31.9(31) . . .
29.5(29) . . .
35.6(33) . . .
32.9(31) . . .
32.8(32) . . .
39.2(33) . . .
33.9(30) . . .
34.4(31) . . .
34.9(32) . . .
32.3(31) . . .
33.8(32) . . .
37.6(32) . . .
42.1(35) . . .
24.9(26) . . .
40(4) . . .
36.5(32) . . .
34.6(30) . . .
26.4(27) . . .
29.8(30) . . .
40.8(35) . . .
35.0(31) . . .
26.4(27) . . .
38.2(33) . . .
29.5(30) . . .
35.8(32) . . .
40.6(33) . . .
36.9(31) . . .
41.8(35) . . .
36.9(34) . . .
42(4) . . .
35.6(32) . . .
35.5(31) . . .
32.8(32) . . .
36.5(34) . . .
38.0(35) . . .
32.5(30) . . .
30.7(29) . . .
33.8(30) . . .
40(4) . . .
45(4) . . .
38.7(32) . . .
37.2(32) . . .
34.9(32) . . .
36.3(34) . . .
30.3(30) . . .
38.4(32) . . .
36.1(32) . . .
34.1(31) . . .
34.5(32) . . .
30.6(29) . . .
37.2(32) . . .
37.9(32) . . .
38.0(32) . . .
33.8(31) . . .
35.3(31) . . .
35.3(31) . . .
38.5(33) . . .
39.1(35) . . .
36.1(33) . . .
40.2(34) . . .
38.3(32) . . .
41.8(34) . . .
37.8(33) . . .
37.4(33) . . .
31.2(29) . . .
29.3(28) . . .
31.2(30) . . .
32.4(31) . . .
39.4(34) . . .
36.1(32) . . .
40.3(33) . . .
39.2(34) . . .
32.9(32) . . .
33.3(31) . . .
33.1(30) . . .
35.5(32) . . .
28.7(29) . . .
34.4(33) . . .
38.8(33) . . .
36.3(31) . . .
33.2(30) . . .
31.6(31) . . .
31.2(32) . . .
32.9(32) . . .
42.0(34) . . .
34.0(30) . . .
37.8(32) . . .
39(4) . . .
37.1(34) . . .
32.5(30) . . .
30.7(28) . . .
29.4(28) . . .
43(4) . . .
35.1(31) . . .
30.8(29) . . .
39.2(33) . . .
37.2(32) . . .
32.4(32) . . .
35.0(32) . . .
36.2(31) . . .
37.9(32) . . .
42.4(34) . . .
38.5(32) . . .
40.4(34) . . .
37.0(32) . . .
30.3(29) . . .
36.5(33) . . .
36.8(33) . . .
31.0(29) . . .
33.3(30) . . .
36.0(32) . . .
32.2(31) . . .
27.7(28) . . .
25.3(28) . . .
35.2(31) . . .
29.6(29) . . .
37.4(35) . . .
29.5(29) . . .
32.7(30) . . .
26.3(27) . . .
35.9(31) . . .
39.2(33) . . .
41.3(33) . . .
41.9(34) . . .
38.9(34) . . .
37.2(34) . . .
41(4) . . .
32.3(30) . . .
37.6(32) . . .
40.5(34) . . .
32.5(31) . . .
29.4(29) . . .
42.2(35) . . .
31.1(30) . . .
35.8(31) . . .
33.2(33) . . .
33.7(33) . . .
39(4) . . .
35.1(31) . . .
34.1(30) . . .
41(4) . . .
42(4) . . .
39.0(34) . . .
32.0(29) . . .
40.8(34) . . .
32.2(29) . . .
32.6(30) . . .
41.4(34) . . .
35.2(31) . . .
29.1(28) . . .
39.5(34) . . .
40.1(34) . . .
44(4) . . .
32.4(30) . . .
39.6(34) . . .
26.9(27) . . .
28.3(28) . . .
29.3(28) . . .
35.1(31) . . .
29.8(29) . . .
29.1(30) . . .
30.5(30) . . .
28.6(30) . . .
35.9(31) . . .
30.9(29) . . .
23.8(28) . . .
31.5(31) . . .
38.6(33) . . .
38.3(33) . . .
39.1(32) . . .
41(4) . . .
30.9(30) . . .
39.2(33) . . .
36.7(32) . . .
38.3(35) . . .
35.0(33) . . .
35.0(32) . . .
39.5(33) . . .
35.9(32) . . .
32.3(30) . . .
35.7(33) . . .
28.4(28) . . .
38.0(32) . . .
38.5(33) . . .
37.6(32) . . .
38.3(34) . . .
39.7(35) . . .
34.2(31) . . .
34.4(30) . . .
37.0(33) . . .
33.9(33) . . .
35.9(34) . . .
30.3(28) . . .
27.0(28) . . .
32.8(31) . . .
32.9(30) . . .
37.2(32) . . .
30.4(29) . . .
36.8(33) . . .
40.6(35) . . .
31.1(31) . . .
31.9(31) . . .
35.2(31) . . .
38.2(34) . . .
36.1(32) . . .
36.2(32) . . .
38.5(33) . . .
28.0(27) . . .
36.3(32) . . .
36.1(33) . . .
34.7(32) . . .
38.2(33) . . .
27.4(28) . . .
37.9(34) . . .
31.7(29) . . .
31.1(30) . . .
32.2(30) . . .
34.3(31) . . .
31.0(30) . . .
33.6(33) . . .
33.3(33) . . .
40(4) . . .
40.5(33) . . .
35.5(33) . . .
33.1(32) . . .
37.0(33) . . .
35.7(32) . . .
37.7(32) . . .
37.3(32) . . .
34.0(32) . . .
39.3(34) . . .
35.0(31) . . .
30.5(31) . . .
37(4) . . .
37.0(33) . . .
36.4(32) . . .
36.5(33) . . .
34.7(31) . . .
38.7(34) . . .
34.8(32) . . .
28.2(27) . . .
34.6(31) . . .
39.8(33) . . .
42(4) . . .
27.4(27) . . .
40(4) . . .
29.8(28) . . .
29.9(30) . . .
44(4) . . .
35.0(32) . . .
41.1(34) . . .
33.3(30) . . .
36.8(34) . . .
42(4) . . .
33.8(31) . . .
34.0(32) . . .
35.3(31) . . .
27.7(28) . . .
30.9(29) . . .
37.7(34) . . .
29.9(29) . . .
34.1(31) . . .
33.4(31) . . .
36.0(33) . . .
34.3(31) . . .
36.5(32) . . .
42.6(34) . . .
44(4) . . .
35.4(34) . . .
37.4(33) . . .
30.8(29) . . .
41.7(34) . . .
35.9(32) . . .
34.0(31) . . .
39.8(35) . . .
37.9(33) . . .
33.4(30) . . .
33.8(30) . . .
38(4) . . .
32.4(31) . . .
34.3(32) . . .
31.7(30) . . .
36(4) . . .
34.5(33) . . .
38.0(33) . . .
36.8(31) . . .
32.4(29) . . .
28.6(30) . . .
30.6(33) . . .
29.8(30) . . .
38.2(32) . . .
43(4) . . .
42(4) . . .
36.4(32) . . .
35.4(31) . . .
33.5(30) . . .
35.8(32) . . .
38.9(34) . . .
31.0(28) . . .
31.4(29) . . .
29.8(28) . . .
29.3(28) . . .
42(4) . . .
41(4) . . .
40.9(34) . . .
37.7(32) . . .
38.3(33) . . .
27.8(28) . . .
37.0(33) . . .
35.0(33) . . .
35.3(31) . . .
30.8(30) . . .
29.5(30) . . .
31.1(29) . . .
41.2(33) . . .
26.8(28) . . .
33.2(30) . . .
35.2(32) . . .
31.8(33) . . .
30.6(29) . . .
37.1(32) . . .
37.6(34) . . .
41(4) . . .
32.1(29) . . .
36.4(32) . . .
38.6(32) . . .
35.7(32) . . .
37.6(35) . . .
37.0(35) . . .
36.9(32) . . .
35.5(32) . . .
37.7(34) . . .
28.8(30) . . .
31.6(29) . . .
36.2(32) . . .
41.5(33) . . .
33.3(31) . . .
34.6(32) . . .
31.9(30) . . .
38.6(32) . . .
34.0(31) . . .
41.9(34) . . .
44(4) . . .
35.5(32) . . .
33.0(30) . . .
40.6(33) . . .
38.8(34) . . .
28.1(28) . . .
26.9(28) . . .
31.0(29) . . .
34.8(31) . . .
36.0(32) . . .
38.7(34) . . .
30.4(29) . . .
36.7(32) . . .
37.2(32) . . .
33.5(34) . . .
22.7(25) . . .
33.2(32) . . .
38.3(32) . . .
37.6(33) . . .
34.3(32) . . .
37.2(33) . . .
28.1(28) . . .
33.1(30) . . .
30.3(30) . . .
31.7(31) . . .
34.2(33) . . .
33.0(31) . . .
33.2(30) . . .
30.9(29) . . .
26.3(28) . . .
34.6(32) . . .
35.8(31) . . .
31.9(30) . . .
46(4) . . .
36.6(33) . . .
46(4) . . .
30.5(29) . . .
36.9(31) . . .
35.3(32) . . .
36.3(33) . . .
33.8(31) . . .
35.7(31) . . .
34.8(32) . . .
47(4) . . .
31.4(31) . . .
41.6(34) . . .
42.0(34) . . .
29.8(29) . . .
34.1(32) . . .
36.6(33) . . .
39.5(34) . . .
24.5(26) . . .
30.7(29) . . .
37.0(33) . . .
41(4) . . .
32.5(30) . . .
36.4(31) . . .
41.6(34) . . .
38.2(33) . . .
32.4(31) . . .
32.1(30) . . .
32.1(30) . . .
37.2(32) . . .
29.1(28) . . .
35.0(34) . . .
27.8(29) . . .
30.4(29) . . .
36.8(35) . . .
35.6(32) . . .
37.2(34) . . .
33.7(32) . . .
31.7(30) . . .
31.3(29) . . .
28.3(27) . . .
35.4(31) . . .
39.1(33) . . .
37.6(32) . . .
38.1(33) . . .
39.5(34) . . .
33.4(30) . . .
38.9(33) . . .
36.3(33) . . .
40.7(34) . . .
39(4) . . .
31.1(31) . . .
35.1(31) . . .
40.8(34) . . .
28.7(30) . . .
33.5(34) . . .
32.3(30) . . .
31.3(30) . . .
38.9(33) . . .
36.8(32) . . .
42(4) . . .
36.3(34) . . .
37.3(33) . . .
45.9(35) . . .
36.5(33) . . .
34.8(34) . . .
36.9(33) . . .
40.9(33) . . .
32.0(30) . . .
37.8(32) . . .
32.3(31) . . .
39.4(34) . . .
38.2(32) . . .
33.7(30) . . .
28.2(30) . . .
39(4) . . .
32.6(32) . . .
31.5(30) . . .
31.5(29) . . .
37.0(32) . . .
38.2(35) . . .
35.1(32) . . .
37.7(32) . . .
35.0(32) . . .
32.8(31) . . .
33.4(34) . . .
24.4(27) . . .
34.7(31) . . .
33.5(32) . . .
31.1(30) . . .
31.7(30) . . .
30.3(29) . . .
26.5(26) . . .
28.9(30) . . .
31.6(30) . . .
32.4(30) . . .
36.6(32) . . .
40.5(33) . . .
25.8(27) . . .
35.0(34) . . .
37.8(34) . . .
36.1(31) . . .
31.3(29) . . .
33.0(30) . . .
31.2(32) . . .
25.5(26) . . .
36.0(32) . . .
39.8(33) . . .
30.7(29) . . .
38(4) . . .
35.1(31) . . .
38.7(33) . . .
28.3(27) . . .
43(4) . . .
30.5(30) . . .
43(4) . . .
47(4) . . .
45(4) . . .
43.2(34) . . .
44(4) . . .
39.0(32) . . .
36.4(32) . . .
40.6(33) . . .
40.6(33) . . .
41(4) . . .
33.6(31) . . .
25.6(29) . . .
35.6(32) . . .
36.1(31) . . .
38.2(33) . . .
38.4(33) . . .
30.6(29) . . .
36.3(33) . . .
29.8(32) . . .
26.6(31) . . .
26.5(28) . . .
35.4(31) . . .
35.9(33) . . .
37.5(34) . . .
32.5(32) . . .
27.8(28) . . .
49(4) . . .
35.3(32) . . .
33.3(31) . . .
35.4(31) . . .
37.3(32) . . .
34.5(31) . . .
26.5(28) . . .
33.0(32) . . .
34.0(31) . . .
29.1(29) . . .
36.6(32) . . .
36.8(32) . . .
37.8(35) . . .
35.1(32) . . .
35.8(32) . . .
37.2(32) . . .
32.8(32) . . .
36(4) . . .
31.2(31) . . .
35.0(31) . . .
42(4) . . .
33.6(32) . . .
34.1(33) . . .
32.6(32) . . .
29.0(28) . . .
40.2(33) . . .
36.3(32) . . .
41.0(34) . . .
39.3(32) . . .
31.7(30) . . .
34.6(31) . . .
32.6(30) . . .
35.3(33) . . .
36.0(32) . . .
36.5(33) . . .
34.7(31) . . .
31.9(29) . . .
35.0(33) . . .
36.0(32) . . .
38.4(32) . . .
35.5(31) . . .
31.4(31) . . .
32.0(31) . . .
40.6(34) . . .
34.7(31) . . .
32.1(31) . . .
30.3(31) . . .
38.2(35) . . .
35.6(33) . . .
40.3(33) . . .
47(4) . . .
37.5(34) . . .
32.5(30) . . .
28.4(28) . . .
29.6(28) . . .
35.5(31) . . .
33.6(32) . . .
28.9(27) . . .
41.3(33) . . .
33.2(30) . . .
38.1(32) . . .
43(4) . . .
36.9(32) . . .
38.4(33) . . .
40.7(33) . . .
43(4) . . .
42(4) . . .
34.5(31) . . .
32.1(29) . . .
45.0(35) . . .
38.1(33) . . .
36.9(33) . . .
43.9(35) . . .
37.1(32) . . .
35.6(31) . . .
34.4(34) . . .
32.5(31) . . .
35.6(35) . . .
31.9(29) . . .
39.9(35) . . .
34.6(32) . . .
33.1(31) . . .
30.4(30) . . .
26.9(27) . . .
38.0(32) . . .
36.9(32) . . .
32.1(31) . . .
27.5(28) . . .
38.1(32) . . .
32.3(31) . . .
33.6(31) . . .
35.0(33) . . .
31.3(30) . . .
34.6(31) . . .
32.3(29) . . .
36.3(33) . . .
29.6(29) . . .
41.4(34) . . .
37.5(32) . . .
32.0(31) . . .
26.5(26) . . .
38.6(34) . . .
27.3(27) . . .
30.7(28) . . .
37.4(34) . . .
45(4) . . .
37.9(32) . . .
39.0(33) . . .
32.8(30) . . .
45(4) . . .
31.8(31) . . .
38.6(35) . . .
31.8(29) . . .
25.7(26) . . .
39(4) . . .
32.1(32) . . .
40(4) . . .
41.9(33) . . .
38.6(32) . . .
43.6(35) . . .
35.8(33) . . .
29.6(29) . . .
40.5(33) . . .
34.3(30) . . .
36.9(33) . . .
36.2(32) . . .
40(4) . . .
30.8(29) . . .
41.8(33) . . .
36.1(32) . . .
39.6(35) . . .
38.5(33) . . .
33.7(30) . . .
31.6(30) . . .
33.2(32) . . .
37.2(35) . . .
30.5(29) . . .
40.4(33) . . .
31.9(33) . . .
32.2(30) . . .
45(4) . . .
47(4) . . .
30.0(28) . . .
31.8(30) . . .
35.0(33) . . .
39.8(34) . . .
32.7(30) . . .
33.9(30) . . .
38.6(33) . . .
33.0(31) . . .
38(4) . . .
41(4) . . .
36.0(32) . . .
36.4(33) . . .
30.9(31) . . .
39(4) . . .
33.6(32) . . .
34.1(30) . . .
34.5(31) . . .
34.3(33) . . .
30.0(29) . . .
37.1(32) . . .
33.8(31) . . .
31.4(30) . . .
37.3(34) . . .
35.6(34) . . .
32.4(30) . . .
31.6(29) . . .
40.0(35) . . .
34.4(32) . . .
37.3(34) . . .
35.3(31) . . .
38.3(33) . . .
33.9(35) . . .
34.4(35) . . .
33.7(31) . . .
33.1(30) . . .
28.4(28) . . .
29.0(30) . . .
34.0(35) . . .
35.8(32) . . .
26.3(27) . . .
29.4(28) . . .
36.3(33) . . .
29.9(29) . . .
31.4(31) . . .
36.2(32) . . .
30.2(30) . . .
32.8(32) . . .
31.5(30) . . .
39.2(34) . . .
40.1(33) . . .
36.3(32) . . .
37.1(34) . . .
40(4) . . .
34.9(34) . . .
34.5(31) . . .
36.7(34) . . .
30.5(33) . . .
26.3(28) . . .
32.9(29) . . .
37.0(32) . . .
30.0(29) . . .
35.8(33) . . .
40.0(34) . . .
37.3(32) . . .
41.7(34) . . .
42.9(35) . . .
39.3(35) . . .
31.5(30) . . .
38.0(32) . . .
38.5(33) . . .
34.1(30) . . .
35.6(33) . . .
39.3(33) . . .
33.6(30) . . .
39.2(34) . . .
41.3(34) . . .
29.8(29) . . .
35.1(32) . . .
35.7(30) . . .
37.8(34) . . .
35.2(32) . . .
41(4) . . .
31.7(30) . . .
35.4(32) . . .
30.5(29) . . .
35.6(31) . . .
40.3(34) . . .
46(4) . . .
30.4(29) . . .
28.9(29) . . .
30.6(30) . . .
33.0(31) . . .
35.8(32) . . .
38.9(33) . . .
34.3(32) . . .
38.3(35) . . .
29.7(29) . . .
35.8(32) . . .
34.1(31) . . .
29.4(29) . . .
26.2(29) . . .
29.9(30) . . .
29.1(30) . . .
35.3(31) . . .
32.7(32) . . .
26.6(28) . . .
32.0(30) . . .
32.5(30) . . .
30.0(28) . . .
34.6(31) . . .
42(4) . . .
34.0(31) . . .
36.3(31) . . .
34.2(30) . . .
31.4(30) . . .
38(4) . . .
35.3(34) . . .
33.9(31) . . .
27.0(27) . . .
23.8(26) . . .
30.4(31) . . .
37.7(34) . . .
43(4) . . .
45(4) . . .
34.0(31) . . .
40.2(34) . . .
46(4) . . .
39.1(33) . . .
34.4(30) . . .
38.4(34) . . .
35.8(33) . . .
31.8(29) . . .
30.5(28) . . .
38.2(33) . . .
37.7(32) . . .
41(4) . . .
29.6(28) . . .
35.5(31) . . .
31.5(31) . . .
23.0(28) . . .
27.7(30) . . .
31.0(31) . . .
35.2(31) . . .
46(4) . . .
32.4(31) . . .
31.8(32) . . .
39.4(34) . . .
29.1(28) . . .
34.8(32) . . .
33.2(31) . . .
32.9(32) . . .
39.0(33) . . .
34.8(31) . . .
36.6(32) . . .
35.0(30) . . .
35.5(33) . . .
35.9(32) . . .
32.0(30) . . .
38.7(33) . . .
35.7(32) . . .
39(4) . . .
38.7(32) . . .
27.8(27) . . .
34.6(31) . . .
30.5(30) . . .
32.3(30) . . .
36.4(32) . . .
30.3(29) . . .
35.2(32) . . .
37.7(34) . . .
34.0(31) . . .
30.7(29) . . .
29.9(28) . . .
35.6(32) . . .
39(4) . . .
28.8(28) . . .
35.5(31) . . .
31.5(29) . . .
30.9(29) . . .
35.9(34) . . .
37(4) . . .
30.2(29) . . .
30.7(29) . . .
39.7(33) . . .
30.5(29) . . .
29.0(28) . . .
22.0(25) . . .
35.6(31) . . .
33.0(30) . . .
29.0(29) . . .
34.6(31) . . .
29.6(29) . . .
32.6(30) . . .
33.4(34) . . .
38.2(33) . . .
38.4(33) . . .
34.0(30) . . .
38.8(35) . . .
34.4(32) . . .
35.1(34) . . .
39.2(35) . . .
32.1(30) . . .
46(4) . . .
40(4) . . .
32.1(29) . . .
26.3(28) . . .
34.0(32) . . .
30.3(29) . . .
37.0(34) . . .
39.3(35) . . .
31.5(30) . . .
27.1(28) . . .
38.5(33) . . .
41.7(35) . . .
39.0(34) . . .
36.5(32) . . .
35.6(31) . . .
41.3(34) . . .
38(4) . . .
29.5(29) . . .
37.3(32) . . .
39.8(33) . . .
28.8(30) . . .
34.2(34) . . .
36.0(32) . . .
39.8(33) . . .
42.3(34) . . .
36.1(31) . . .
37.7(34) . . .
32.1(31) . . .
35.4(31) . . .
38.6(33) . . .
38.5(33) . . .
31.3(32) . . .
28.8(28) . . .
44.1(35) . . .
36.0(32) . . .
43(4) . . .
33.3(30) . . .
30.6(29) . . .
27.5(28) . . .
35.1(31) . . .
31.7(30) . . .
29.8(29) . . .
34.4(33) . . .
39.8(33) . . .
31.4(30) . . .
29.3(31) . . .
34.0(31) . . .
36.0(32) . . .
39.1(33) . . .
42.3(33) . . .
41.8(34) . . .
39.7(34) . . .
26.0(27) . . .
32.8(30) . . .
32.4(30) . . .
34.1(30) . . .
36.7(32) . . .
38.6(33) . . .
30.6(29) . . .
32.7(31) . . .
36.6(35) . . .
33.5(33) . . .
42(4) . . .
38.0(32) . . .
34.8(32) . . .
32.4(32) . . .
32.6(30) . . .
35.3(32) . . .
36.7(31) . . .
40.7(34) . . .
31.4(31) . . .
35.0(32) . . .
28.7(28) . . .
29.3(28) . . .
29.0(29) . . .
34.4(34) . . .
32.4(29) . . .
34.0(30) . . .
33.8(30) . . .
29.9(29) . . .
37(4) . . .
32.2(30) . . .
36.1(31) . . .
40.3(35) . . .
37.3(33) . . .
39(4) . . .
39.8(35) . . .
37.4(32) . . .
34.0(30) . . .
31.3(30) . . .
34.7(33) . . .
40(4) . . .
31.7(29) . . .
39.1(34) . . .
40.4(35) . . .
29.2(29) . . .
36.0(33) . . .
29.3(29) . . .
37.3(32) . . .
34.7(32) . . .
30.2(28) . . .
27.7(27) . . .
40.1(33) . . .
30.5(30) . . .
27.8(27) . . .
40.4(35) . . .
36.5(32) . . .
34.0(31) . . .
42(4) . . .
36.7(33) . . .
40.2(34) . . .
37.4(33) . . .
26.8(28) . . .
27.4(30) . . .
26.2(27) . . .
32.4(30) . . .
31.7(30) . . .
29.7(28) . . .
34.4(32) . . .
34.3(33) . . .
26.3(27) . . .
34.5(31) . . .
24.1(26) . . .
28.4(28) . . .
32.4(32) . . .
31.5(29) . . .
37.0(31) . . .
27.7(28) . . .
35.9(34) . . .
29.9(32) . . .
32.7(31) . . .
32.0(30) . . .
40.2(34) . . .
32.9(31) . . .
27.1(27) . . .
25.9(30) . . .
26.8(28) . . .
29.2(28) . . .
36.2(33) . . .
29.5(28) . . .
33.3(31) . . .
37.7(32) . . .
36.3(33) . . .
41(4) . . .
40.4(34) . . .
47(4) . . .
36.3(31) . . .
33.5(30) . . .
31.1(30) . . .
42(4) . . .
42(4) . . .
31.8(29) . . .
30.4(29) . . .
34.5(33) . . .
27.8(30) . . .
33.1(30) . . .
38.0(32) . . .
46(4) . . .
33.4(32) . . .
36.5(32) . . .
38.1(32) . . .
34.7(31) . . .
32.8(31) . . .
35.3(33) . . .
42(4) . . .
28.6(28) . . .
28.5(28) . . .
37.5(34) . . .
39(4) . . .
36.5(33) . . .
31.5(29) . . .
31.6(30) . . .
43(4) . . .
35.3(33) . . .
36.0(32) . . .
33.1(30) . . .
36.4(34) . . .
35.5(32) . . .
34.7(32) . . .
30.5(29) . . .
28.1(28) . . .
35.7(33) . . .
34.2(31) . . .
32.2(30) . . .
39(4) . . .
35.1(31) . . .
39.0(33) . . .
33.5(31) . . .
31.4(31) . . .
29.6(33) . . .
34.6(31) . . .
29.8(29) . . .
33.5(30) . . .
39.2(34) . . .
38.0(33) . . .
29.1(28) . . .
27.0(28) . . .
37(4) . . .
31.7(31) . . .
34.0(30) . . .
32.5(30) . . .
35.0(33) . . .
26.8(28) . . .
35.1(33) . . .
41.3(35) . . .
34.3(30) . . .
32.0(30) . . .
31.8(30) . . .
39.8(35) . . .
34.5(31) . . .
41.5(34) . . .
39.2(33) . . .
31.4(30) . . .
31.6(30) . . .
34.8(34) . . .
35.0(31) . . .
29.6(31) . . .
37(4) . . .
36.1(32) . . .
41.4(34) . . .
30.3(28) . . .
34.8(32) . . .
37.0(34) . . .
32.0(30) . . .
36.7(31) . . .
27.3(28) . . .
33.7(32) . . .
26.6(27) . . .
36.3(32) . . .
30.7(29) . . .
34.7(31) . . .
41(4) . . .
39.1(35) . . .
39.1(33) . . .
39.7(33) . . .
25.7(27) . . .
26.1(28) . . .
37.7(35) . . .
37.4(35) . . .
33.1(30) . . .
30.5(29) . . .
33.1(33) . . .
30.4(30) . . .
29.6(29) . . .
33.7(30) . . .
36.3(32) . . .
25.9(28) . . .
30.7(30) . . .
43(4) . . .
41.4(34) . . .
34.0(30) . . .
35.1(33) . . .
32.8(31) . . .
34.2(31) . . .
23.7(26) . . .
30.6(31) . . .
31.7(32) . . .
34.1(31) . . .
37.9(33) . . .
36.3(31) . . .
34.4(32) . . .
33.9(33) . . .
35.7(32) . . .
33.8(30) . . .
31.3(29) . . .
34.0(31) . . .
29.3(29) . . .
27.9(28) . . .
37.5(34) . . .
36.5(32) . . .
36.3(34) . . .
29.4(31) . . .
27.5(27) . . .
37.7(34) . . .
37.5(34) . . .
27.9(28) . . .
31.9(33) . . .
28.6(29) . . .
39.8(33) . . .
36.8(32) . . .
36.3(33) . . .
29.6(31) . . .
31.0(29) . . .
37.8(33) . . .
42(4) . . .
36.9(34) . . .
32.4(32) . . .
31.9(32) . . .
34.8(32) . . .
38.5(33) . . .
38.0(33) . . .
37.6(32) . . .
43.1(35) . . .
34.4(31) . . .
39.7(34) . . .
36.5(31) . . .
43(4) . . .
31.8(31) . . .
27.4(28) . . .
32.7(29) . . .
33.2(31) . . .
39(4) . . .
39.2(35) . . .
27.5(27) . . .
37.7(33) . . .
32.6(31) . . .
38.2(33) . . .
35.3(32) . . .
29.7(29) . . .
31.2(32) . . .
33.3(31) . . .
31.8(31) . . .
37.4(32) . . .
40.3(33) . . .
39(4) . . .
32.6(30) . . .
27.9(27) . . .
39.2(33) . . .
30.0(28) . . .
43(4) . . .
30.8(31) . . .
29.1(28) . . .
37.1(32) . . .
34.1(30) . . .
40.6(35) . . .
40(4) . . .
46(4) . . .
33.3(30) . . .
32.4(30) . . .
36.3(33) . . .
37.3(34) . . .
41.5(35) . . .
31.8(30) . . .
28.2(28) . . .
33.8(32) . . .
29.5(30) . . .
33.8(31) . . .
37.4(32) . . .
44(4) . . .
35.8(32) . . .
37.1(34) . . .
34.8(31) . . .
35.3(31) . . .
35.7(31) . . .
37.6(32) . . .
39.9(34) . . .
44(4) . . .
35.0(31) . . .
40.7(34) . . .
38.3(33) . . .
33.9(31) . . .
49(4) . . .
32.2(29) . . .
38.3(33) . . .
32.7(30) . . .
37.0(35) . . .
27.5(27) . . .
41.6(33) . . .
36.2(32) . . .
33.6(31) . . .
32.1(30) . . .
36.6(32) . . .
33.2(30) . . .
32.0(32) . . .
31.6(35) . . .
29.5(30) . . .
35.0(31) . . .
32.1(30) . . .
26.5(30) . . .
34.8(35) . . .
30.9(31) . . .
39.3(32) . . .
39.8(34) . . .
29.1(30) . . .
35.3(33) . . .
41.0(34) . . .
33.0(30) . . .
33.8(31) . . .
28.4(27) . . .
39.7(34) . . .
37.0(32) . . .
29.1(28) . . .
24.5(26) . . .
36.5(34) . . .
33.8(33) . . .
39.4(33) . . .
38.8(32) . . .
37.0(32) . . .
33.7(31) . . .
33.0(33) . . .
31.5(29) . . .
34.5(31) . . .
27.0(27) . . .
31.6(31) . . .
33.9(34) . . .
35.0(31) . . .
32.1(29) . . .
37.5(32) . . .
35.4(33) . . .
35.5(34) . . .
37.5(33) . . .
37.0(32) . . .
30.4(29) . . .
30.3(30) . . .
27.0(27) . . .
42.4(35) . . .
35.7(32) . . .
40.2(34) . . .
38.9(34) . . .
25.3(26) . . .
34.9(32) . . .
34.5(31) . . .
26.5(27) . . .
40(4) . . .
43(4) . . .
26.5(26) . . .
35.3(31) . . .
37.8(32) . . .
39.5(34) . . .
38.9(34) . . .
33.0(30) . . .
33.2(30) . . .
32.5(32) . . .
40(4) . . .
38.2(34) . . .
32.7(30) . . .
35.7(31) . . .
30.6(30) . . .
42(4) . . .
41.8(35) . . .
31.7(29) . . .
34.6(32) . . .
28.7(28) . . .
31.8(31) . . .
29.6(30) . . .
32.0(30) . . .
37.6(32) . . .
34.0(31) . . .
30.2(28) . . .
34.4(31) . . .
34.1(31) . . .
35.9(31) . . .
31.6(32) . . .
30.7(31) . . .
31.0(30) . . .
34.4(31) . . .
32.8(29) . . .
42.5(34) . . .
35.3(34) . . .
31.7(31) . . .
34.4(31) . . .
29.8(28) . . .
37.9(33) . . .
33.4(32) . . .
29.0(29) . . .
34.0(31) . . .
35.6(31) . . .
33.4(29) . . .
31.7(29) . . .
33.8(31) . . .
36.8(32) . . .
32.5(32) . . .
36.0(33) . . .
41(4) . . .
31.0(29) . . .
32.3(30) . . .
35.0(31) . . .
35.7(32) . . .
35.6(32) . . .
34.3(30) . . .
30.5(29) . . .
38.0(33) . . .
41(4) . . .
49(4) . . .
34.1(30) . . .
33.8(31) . . .
34.6(33) . . .
32.6(34) . . .
32.0(32) . . .
35.1(31) . . .
36.3(32) . . .
35.7(34) . . .
36.1(34) . . .
35.4(32) . . .
32.8(29) . . .
35.2(31) . . .
42.1(34) . . .
42(4) . . .
39(4) . . .
32.8(30) . . .
32.0(29) . . .
32.4(31) . . .
36.1(35) . . .
22.1(24) . . .
26.5(27) . . .
33.7(31) . . .
39.4(35) . . .
34.2(33) . . .
30.9(29) . . .
33.8(31) . . .
28.6(28) . . .
36.5(33) . . .
32.8(32) . . .
32.0(30) . . .
34.6(31) . . .
30.8(31) . . .
33.2(32) . . .
41(4) . . .
35.7(31) . . .
34.5(31) . . .
37.3(32) . . .
40.7(35) . . .
42.2(35) . . .
34.2(30) . . .
30.6(29) . . .
39.3(35) . . .
36.5(33) . . .
37.8(33) . . .
40.2(33) . . .
31.1(29) . . .
28.1(27) . . .
32.9(33) . . .
38.4(34) . . .
36.3(32) . . .
41.5(34) . . .
40.1(35) . . .
36.0(34) . . .
39.6(35) . . .
30.4(30) . . .
38.6(32) . . .
38.3(34) . . .
36(4) . . .
32.0(30) . . .
45.4(35) . . .
28.6(28) . . .
30.3(31) . . .
36.2(34) . . .
36.2(32) . . .
33.2(30) . . .
31.3(29) . . .
33.0(32) . . .
31.8(29) . . .
31.8(29) . . .
37.7(32) . . .
35.4(32) . . .
38.3(32) . . .
38.1(34) . . .
30.8(29) . . .
37.2(32) . . .
31.8(31) . . .
43(4) . . .
29.1(28) . . .
43(4) . . .
42.8(34) . . .
27.5(28) . . .
32.0(31) . . .
37(4) . . .
31.0(32) . . .
26.9(27) . . .
31.7(32) . . .
41(4) . . .
34.1(32) . . .
34.9(32) . . .
37.5(32) . . .
32.6(30) . . .
30.4(31) . . .
32.1(30) . . .
32.4(30) . . .
35.1(30) . . .
36.5(34) . . .
26.2(28) . . .
31.1(30) . . .
43(4) . . .
30.1(29) . . .
25.4(26) . . .
33.0(33) . . .
45(4) . . .
38.8(32) . . .
39.3(33) . . .
30.4(30) . . .
32.6(31) . . .
35.7(31) . . .
33.1(30) . . .
32.7(30) . . .
30.2(31) . . .
37(4) . . .
36.7(32) . . .
36.0(31) . . .
34.8(31) . . .
45(4) . . .
35.1(32) . . .
37.0(33) . . .
36.3(31) . . .
27.6(29) . . .
32.6(31) . . .
33.4(32) . . .
28.7(29) . . .
36.8(31) . . .
28.0(28) . . .
33.2(32) . . .
34.3(32) . . .
27.6(28) . . .
33.0(30) . . .
30.1(28) . . .
26.4(28) . . .
30.3(29) . . .
29.3(29) . . .
36.3(31) . . .
38.5(33) . . .
32.8(31) . . .
37.6(32) . . .
40.7(33) . . .
33.5(30) . . .
30.2(29) . . .
33.5(31) . . .
36.1(32) . . .
38.2(32) . . .
31.2(29) . . .
34.3(34) . . .
37(4) . . .
30.6(30) . . .
36.3(31) . . .
36.7(32) . . .
32.5(31) . . .
35(4) . . .
33.0(31) . . .
24.1(25) . . .
34.9(31) . . .
37.6(33) . . .
34.3(34) . . .
29.6(28) . . .
36.6(31) . . .
35.8(32) . . .
32.8(31) . . .
25.3(26) . . .
28.5(30) . . .
36.3(32) . . .
35.7(31) . . .
35.0(33) . . .
38.9(35) . . .
34.7(31) . . .
33.5(31) . . .
27.2(28) . . .
36.2(33) . . .
40.9(35) . . .
28.7(29) . . .
33.1(30) . . .
30.6(29) . . .
29.7(31) . . .
39(4) . . .
42(4) . . .
33.3(31) . . .
28.5(29) . . .
30.5(28) . . .
40.0(34) . . .
33.7(31) . . .
36.0(32) . . .
32.3(30) . . .
33.8(33) . . .
35.6(33) . . .
33.0(31) . . .
28.4(28) . . .
41.2(35) . . .
37.3(35) . . .
34.4(33) . . .
37.2(32) . . .
38.1(33) . . .
30.3(29) . . .
46(4) . . .
33.9(31) . . .
34.2(31) . . .
32.9(30) . . .
23.9(26) . . .
37.1(34) . . .
38.5(34) . . .
30.4(28) . . .
34.2(30) . . .
31.1(30) . . .
33.1(33) . . .
33.7(31) . . .
33.8(31) . . .
37.3(32) . . .
42(4) . . .
31.1(32) . . .
24.2(30) . . .
26.1(27) . . .
38.0(33) . . .
30.4(29) . . .
34.8(34) . . .
40(4) . . .
35.5(31) . . .
22.0(25) . . .
34.0(33) . . .
35.0(32) . . .
40.2(34) . . .
34.4(31) . . .
33.6(30) . . .
39(4) . . .
35.1(34) . . .
32.4(31) . . .
37.2(32) . . .
36.6(31) . . .
32.2(29) . . .
38.0(32) . . .
39.1(34) . . .
31.4(30) . . .
33.6(31) . . .
36.0(33) . . .
31.2(29) . . .
37.3(32) . . .
30.8(29) . . .
26.3(28) . . .
38.3(34) . . .
37.6(34) . . .
36.4(32) . . .
32.4(30) . . .
24.5(26) . . .
33.5(32) . . .
38.8(34) . . .
29.0(28) . . .
32.6(30) . . .
33.0(31) . . .
47(4) . . .
35.5(33) . . .
32.4(30) . . .
28.7(28) . . .
34.1(32) . . .
29.6(31) . . .
26.8(29) . . .
29.2(28) . . .
34.2(30) . . .
34.4(32) . . .
36.3(34) . . .
37.3(32) . . .
39.6(33) . . .
38.0(34) . . .
36.2(32) . . .
33.7(32) . . .
32.2(32) . . .
28.2(28) . . .
29.2(28) . . .
39(4) . . .
38(4) . . .
26.8(28) . . .
37.5(33) . . .
29.2(30) . . .
27.0(27) . . .
39(4) . . .
41(4) . . .
36.5(32) . . .
41.2(34) . . .
32.5(31) . . .
36.5(33) . . .
32.1(31) . . .
38.4(32) . . .
43.3(35) . . .
27.3(27) . . .
31.4(31) . . .
29.1(28) . . .
34.5(30) . . .
29.2(28) . . .
38.6(34) . . .
41(4) . . .
42.4(34) . . .
48(4) . . .
37.5(32) . . .
43(4) . . .
29.7(29) . . .
37.5(33) . . .
33.1(31) . . .
32.4(30) . . .
40(4) . . .
34.1(31) . . .
37.0(31) . . .
30.3(29) . . .
28.3(28) . . .
32.9(30) . . .
35.8(32) . . .
40.4(34) . . .
29.7(28) . . .
38.2(35) . . .
33.8(32) . . .
38.1(32) . . .
38.8(33) . . .
29.3(28) . . .
30.4(29) . . .
23.1(25) . . .
32.2(29) . . .
36.4(31) . . .
37.6(32) . . .
45(4) . . .
33.0(32) . . .
29.4(31) . . .
27.6(28) . . .
33.9(31) . . .
28.4(28) . . .
34.5(31) . . .
40.8(35) . . .
33.8(30) . . .
25.8(28) . . .
40.6(35) . . .
42(4) . . .
28.7(28) . . .
35.7(31) . . .
36.4(33) . . .
38.7(33) . . .
41(4) . . .
30.0(29) . . .
30.0(29) . . .
30.7(31) . . .
31.6(30) . . .
32.5(31) . . .
30.1(29) . . .
35.8(31) . . .
28.0(29) . . .
28.0(31) . . .
30.5(29) . . .
34.7(32) . . .
39.1(32) . . .
31.8(33) . . .
30.4(32) . . .
27.9(29) . . .
28.6(28) . . .
40.8(33) . . .
37.1(33) . . .
34.4(32) . . .
27.2(26) . . .
38.2(32) . . .
35.5(33) . . .
32.2(31) . . .
31.5(32) . . .
34.5(32) . . .
38.4(32) . . .
42.5(34) . . .
42.7(35) . . .
46(4) . . .
36.7(33) . . .
31.6(29) . . .
40.3(33) . . .
35.5(31) . . .
28.8(29) . . .
29.9(29) . . .
37.2(32) . . .
40.9(34) . . .
36.8(32) . . .
38.0(33) . . .
35.1(31) . . .
31.1(29) . . .
23.2(26) . . .
36.7(34) . . .
31.8(31) . . .
39(4) . . .
29.7(29) . . .
33.9(31) . . .
30.5(31) . . .
31.5(31) . . .
28.6(28) . . .
26.1(27) . . .
34.8(31) . . .
35.8(34) . . .
29.9(29) . . .
25.1(26) . . .
31.7(29) . . .
25.5(26) . . .
30.0(29) . . .
31.0(30) . . .
27.7(29) . . .
26.8(28) . . .
39.4(35) . . .
30.0(29) . . .
32.9(31) . . .
28.8(28) . . .
38.1(32) . . .
52(4) . . .
51(4) . . .
29.5(27) . . .
34.8(31) . . .
38.9(32) . . .
30.4(31) . . .
29.9(31) . . .
30.9(30) . . .
32.9(30) . . .
39.7(34) . . .
35.7(32) . . .
35.5(33) . . .
50(4) . . .
36.6(31) . . .
32.8(30) . . .
34.2(32) . . .
30.1(31) . . .
30.2(29) . . .
39.3(33) . . .
32.9(30) . . .
31.7(32) . . .
28.6(29) . . .
36.3(32) . . .
29.4(29) . . .
27.5(28) . . .
31.4(30) . . .
35.8(33) . . .
33.2(33) . . .
30.7(29) . . .
35.6(31) . . .
28.9(28) . . .
32.5(30) . . .
30.2(29) . . .
35.5(32) . . .
30.9(29) . . .
29.3(28) . . .
30.8(30) . . .
36.1(31) . . .
40.8(33) . . .
30.0(30) . . .
30.8(29) . . .
33.9(30) . . .
35.5(32) . . .
29.3(29) . . .
37.2(34) . . .
26.9(29) . . .
31.6(31) . . .
32.5(31) . . .
35.5(32) . . .
36.4(32) . . .
33.2(30) . . .
33.3(30) . . .
33.4(29) . . .
36.4(32) . . .
34.8(33) . . .
32.5(32) . . .
30.5(33) . . .
32.6(31) . . .
34.7(31) . . .
38.0(33) . . .
40(4) . . .
31.1(29) . . .
37.8(32) . . .
32.0(30) . . .
27.5(27) . . .
35.0(33) . . .
37.9(34) . . .
36.0(32) . . .
25.4(27) . . .
40(4) . . .
27.3(28) . . .
32.6(30) . . .
28.1(27) . . .
30.4(31) . . .
33.9(33) . . .
39.0(34) . . .
40.4(34) . . .
39.3(33) . . .
41.2(33) . . .
41(4) . . .
25.7(27) . . .
36.8(32) . . .
38.9(32) . . .
35.3(32) . . .
37.4(33) . . .
46(4) . . .
34.4(31) . . .
28.9(28) . . .
35.8(32) . . .
37.5(33) . . .
27.5(27) . . .
24.5(26) . . .
28.0(27) . . .
34.4(32) . . .
32.7(31) . . .
37.6(33) . . .
38.1(32) . . .
39.5(33) . . .
34.3(34) . . .
32.5(31) . . .
33.4(30) . . .
43.6(35) . . .
42.0(34) . . .
35.7(32) . . .
35.5(34) . . .
38.3(35) . . .
31.4(29) . . .
35.8(31) . . .
35.3(32) . . .
47(4) . . .
29.6(29) . . .
30.5(28) . . .
32.7(30) . . .
36.3(31) . . .
31.0(29) . . .
35.1(33) . . .
38.9(32) . . .
27.9(28) . . .
27.2(27) . . .
24.7(26) . . .
27.4(27) . . .
29.1(28) . . .
31.0(30) . . .
46(4) . . .
37.5(35) . . .
34.7(33) . . .
34.3(30) . . .
37.4(31) . . .
31.5(32) . . .
29.3(30) . . .
29.9(29) . . .
30.4(29) . . .
29.6(28) . . .
32.5(31) . . .
33.2(33) . . .
35.0(32) . . .
38.9(33) . . .
22.1(26) . . .
30.1(30) . . .
36.3(34) . . .
25.2(26) . . .
27.6(27) . . .
32.4(31) . . .
32.9(33) . . .
29.1(29) . . .
36.8(31) . . .
35.0(31) . . .
36.4(34) . . .
35.2(32) . . .
39.8(34) . . .
34.9(31) . . .
37.8(32) . . .
39.9(34) . . .
35.0(32) . . .
32.1(32) . . .
37.1(33) . . .
29.4(28) . . .
33.8(30) . . .
31.0(30) . . .
30.6(29) . . .
42.3(34) . . .
32.8(30) . . .
32.6(30) . . .
35.3(33) . . .
24.1(26) . . .
38.8(32) . . .
30.3(30) . . .
34.9(33) . . .
33.2(34) . . .
35.7(33) . . .
37.4(32) . . .
43.6(35) . . .
40.2(34) . . .
41(4) . . .
33.1(31) . . .
37.4(32) . . .
33.5(30) . . .
41(4) . . .
29.8(29) . . .
31.1(30) . . .
32.8(30) . . .
36.5(35) . . .
44(4) . . .
34.0(31) . . .
30.9(29) . . .
32.0(30) . . .
33.0(31) . . .
36.8(33) . . .
35.9(32) . . .
29.0(28) . . .
40.9(34) . . .
42.3(35) . . .
30.5(29) . . .
33.8(32) . . .
24.1(25) . . .
32.4(29) . . .
32.0(30) . . .
28.0(28) . . .
35.8(35) . . .
34.7(31) . . .
40.7(34) . . .
38.3(35) . . .
33.0(31) . . .
41(4) . . .
36.8(32) . . .
36.0(32) . . .
31.6(30) . . .
30.9(32) . . .
29.2(29) . . .
26.1(27) . . .
30.2(30) . . .
34.5(33) . . .
35.0(34) . . .
34.5(31) . . .
40.0(34) . . .
39.9(34) . . .
36.7(31) . . .
31.5(29) . . .
33.2(32) . . .
36.0(31) . . .
36.6(32) . . .
28.6(27) . . .
34.5(32) . . .
30.1(29) . . .
33.5(30) . . .
40.0(34) . . .
35.8(33) . . .
34.3(33) . . .
36.5(34) . . .
38.7(33) . . .
39.9(33) . . .
38.2(35) . . .
34.3(33) . . .
31.0(31) . . .
31.5(29) . . .
28.8(28) . . .
36.6(34) . . .
33.9(33) . . .
36.5(33) . . .
37.8(32) . . .
38.9(34) . . .
30.9(30) . . .
38(4) . . .
32.3(30) . . .
32.0(29) . . .
25.9(27) . . .
37.3(34) . . .
34.5(32) . . .
34.4(31) . . .
39.0(32) . . .
31.7(31) . . .
27.1(30) . . .
37.2(34) . . .
33.9(31) . . .
35.2(31) . . .
29.0(29) . . .
32.5(33) . . .
34.0(32) . . .
31.8(29) . . .
32.2(30) . . .
27.4(27) . . .
35.0(35) . . .
31.8(30) . . .
38.4(32) . . .
34.7(31) . . .
32.3(30) . . .
41(4) . . .
37.5(33) . . .
40.1(35) . . .
35.5(31) . . .
35.7(33) . . .
29.9(30) . . .
27.9(28) . . .
29.6(29) . . .
31.1(29) . . .
31.4(29) . . .
36.5(34) . . .
42(4) . . .
26.1(27) . . .
32.8(31) . . .
31.8(30) . . .
37.8(34) . . .
34.0(31) . . .
39.4(33) . . .
35.0(32) . . .
36.3(32) . . .
39.4(34) . . .
30.3(28) . . .
36.5(31) . . .
36.0(31) . . .
35.2(31) . . .
41(4) . . .
28.6(27) . . .
32.2(30) . . .
35.3(32) . . .
42(4) . . .
29.5(31) . . .
28.3(27) . . .
30.4(30) . . .
32.1(31) . . .
39.3(35) . . .
35.7(32) . . .
39.2(33) . . .
39.6(33) . . .
35.1(32) . . .
39(4) . . .
39.0(33) . . .
45(4) . . .
32.3(30) . . .
29.4(29) . . .
35.8(33) . . .
34.4(33) . . .
33.7(30) . . .
32.6(30) . . .
30.3(32) . . .
27.5(29) . . .
35.5(33) . . .
30.0(29) . . .
37.1(32) . . .
41(4) . . .
32.5(31) . . .
29.6(29) . . .
29.4(28) . . .
27.3(28) . . .
31.5(31) . . .
39(4) . . .
31.5(29) . . .
42.1(34) . . .
33.2(31) . . .
24.0(26) . . .
31.3(31) . . .
35.5(33) . . .
22.3(26) . . .
32.2(31) . . .
36.8(34) . . .
33.0(32) . . .
30.4(29) . . .
28.4(28) . . .
35.3(32) . . .
29.3(30) . . .
32.0(32) . . .
29.9(29) . . .
40.0(33) . . .
34.5(30) . . .
32.4(31) . . .
36.6(33) . . .
39.3(34) . . .
30.6(29) . . .
34.7(33) . . .
33.1(33) . . .
35.5(32) . . .
32.5(30) . . .
30.7(29) . . .
33.1(29) . . .
33.2(32) . . .
30.9(29) . . .
35.4(31) . . .
33.5(31) . . .
30.2(29) . . .
31.0(32) . . .
41(4) . . .
36.1(31) . . .
35.2(32) . . .
32.0(30) . . .
34.9(32) . . .
38.2(33) . . .
34.6(31) . . .
32.7(30) . . .
31.2(31) . . .
31.6(30) . . .
32.4(31) . . .
29.6(28) . . .
34.9(31) . . .
27.0(26) . . .
33.4(32) . . .
41(4) . . .
30.1(29) . . .
32.2(31) . . .
40(4) . . .
29.9(29) . . .
29.7(30) . . .
36.6(32) . . .
32.8(30) . . .
32.3(32) . . .
28.0(28) . . .
34.8(31) . . .
30.1(28) . . .
36.8(32) . . .
38.3(35) . . .
34.1(31) . . .
36.2(32) . . .
33.6(31) . . .
35.5(32) . . .
42(4) . . .
38.6(34) . . .
29.8(29) . . .
33.1(30) . . .
43(4) . . .
35.8(32) . . .
39(4) . . .
34.4(31) . . .
29.6(28) . . .
34.2(33) . . .
35.3(32) . . .
39.5(33) . . .
40.5(34) . . .
30.4(29) . . .
38.9(35) . . .
42(4) . . .
38.7(33) . . .
37.1(32) . . .
37.7(32) . . .
37.7(34) . . .
33.7(33) . . .
27.3(29) . . .
21.0(24) . . .
33.4(30) . . .
42.5(34) . . .
44(4) . . .
33.6(30) . . .
48(4) . . .
42(4) . . .
28.8(28) . . .
42(4) . . .
35.3(31) . . .
37.8(32) . . .
29.5(28) . . .
31.8(30) . . .
34.1(32) . . .
36.2(33) . . .
24.8(26) . . .
29.5(29) . . .
45(4) . . .
34.8(32) . . .
36.5(33) . . .
35.0(31) . . .
40(4) . . .
27.1(27) . . .
32.5(30) . . .
35.4(32) . . .
23.4(26) . . .
32.0(31) . . .
44(4) . . .
26.5(26) . . .
32.3(31) . . .
33.0(30) . . .
29.6(29) . . .
36.0(33) . . .
32.9(32) . . .
31.3(30) . . .
39.9(33) . . .
33.7(32) . . .
31.9(31) . . .
37.5(33) . . .
42.1(34) . . .
41.1(34) . . .
36.9(34) . . .
32.8(32) . . .
34.0(33) . . .
31.5(29) . . .
37.3(32) . . .
28.2(28) . . .
38(4) . . .
35.2(31) . . .
38.2(33) . . .
34.2(31) . . .
34.5(33) . . .
32.2(32) . . .
32.8(31) . . .
39.6(33) . . .
45(4) . . .
34.1(31) . . .
33.1(31) . . .
30.6(31) . . .
39.3(33) . . .
33.9(31) . . .
37.0(33) . . .
35.4(31) . . .
38.0(34) . . .
36.5(32) . . .
32.7(31) . . .
36.3(33) . . .
32.6(32) . . .
31.2(31) . . .
33.4(30) . . .
35.3(32) . . .
29.5(28) . . .
39.8(34) . . .
35.8(33) . . .
25.0(26) . . .
38.4(35) . . .
35.7(34) . . .
26.2(27) . . .
30.8(29) . . .
30.6(29) . . .
30.4(34) . . .
29.4(29) . . .
34.7(34) . . .
37.7(33) . . .
29.8(29) . . .
39.8(35) . . .
28.5(29) . . .
31.3(29) . . .
35.9(32) . . .
39.6(33) . . .
46(4) . . .
39.1(32) . . .
37.5(33) . . .
38.0(32) . . .
39.0(33) . . .
40.8(34) . . .
26.3(27) . . .
41(4) . . .
37.6(33) . . .
36.4(31) . . .
33.0(32) . . .
42(4) . . .
30.4(30) . . .
28.4(28) . . .
36.0(31) . . .
27.8(28) . . .
33.8(32) . . .
33.9(31) . . .
35.3(32) . . .
24.0(27) . . .
25.8(29) . . .
27.7(30) . . .
36.1(33) . . .
30.6(29) . . .
33.7(31) . . .
32.7(31) . . .
31.1(31) . . .
32.2(30) . . .
41.8(33) . . .
33.7(30) . . .
28.0(27) . . .
36.5(33) . . .
33.3(31) . . .
33.1(30) . . .
38.3(33) . . .
31.1(31) . . .
34.2(32) . . .
27.8(27) . . .
34.7(30) . . .
31.2(30) . . .
37.4(35) . . .
42.4(35) . . .
33.6(30) . . .
31.8(29) . . .
35.9(33) . . .
25.6(27) . . .
37.5(33) . . .
32.2(29) . . .
32.0(29) . . .
31.3(32) . . .
33.0(32) . . .
33.1(31) . . .
29.3(28) . . .
36.0(32) . . .
30.8(32) . . .
23.9(29) . . .
29.5(29) . . .
40.2(34) . . .
37.0(32) . . .
37.6(33) . . .
28.5(30) . . .
27.8(28) . . .
29.6(29) . . .
28.7(28) . . .
31.8(31) . . .
32.5(30) . . .
30.1(29) . . .
37.7(33) . . .
43(4) . . .
29.9(29) . . .
27.6(28) . . .
33.9(32) . . .
27.9(27) . . .
29.0(29) . . .
28.0(28) . . .
32.3(30) . . .
34.0(30) . . .
31.0(29) . . .
32.7(30) . . .
32.6(33) . . .
35.1(35) . . .
29.2(30) . . .
40.1(33) . . .
35.5(32) . . .
32.4(30) . . .
35.7(31) . . .
37.2(33) . . .
36.0(31) . . .
38.6(33) . . .
33.7(33) . . .
31.3(31) . . .
32.8(29) . . .
38.4(33) . . .
31.7(30) . . .
37.3(34) . . .
37.2(33) . . .
34.1(31) . . .
34.5(31) . . .
32.0(32) . . .
25.5(28) . . .
38(4) . . .
33.0(30) . . .
32.9(30) . . .
34.2(32) . . .
33.6(32) . . .
36.2(35) . . .
33.4(30) . . .
36.4(31) . . .
38.5(33) . . .
32.1(30) . . .
29.3(28) . . .
39.0(33) . . .
37.4(33) . . .
31.2(30) . . .
35.8(35) . . .
36.0(33) . . .
34.4(30) . . .
25.8(27) . . .
26.2(28) . . .
28.8(32) . . .
24.8(27) . . .
27.7(28) . . .
31.8(30) . . .
23.5(25) . . .
27.2(28) . . .
35.2(33) . . .
42.4(35) . . .
34.1(30) . . .
29.3(28) . . .
37.0(34) . . .
36.5(32) . . .
28.5(28) . . .
31.0(31) . . .
36(4) . . .
33.5(31) . . .
30.6(29) . . .
30.2(29) . . .
34.9(31) . . .
34.8(34) . . .
45(4) . . .
33.8(31) . . .
29.9(28) . . .
39.6(34) . . .
47(4) . . .
26.9(27) . . .
28.9(28) . . .
31.7(30) . . .
27.4(27) . . .
37.8(35) . . .
35.2(34) . . .
26.7(28) . . .
29.3(29) . . .
35.3(33) . . .
27.6(29) . . .
39(4) . . .
33.7(31) . . .
38.6(32) . . .
35.1(33) . . .
39(4) . . .
31.3(29) . . .
31.4(29) . . .
41.7(34) . . .
39.0(34) . . .
36.0(33) . . .
39.4(33) . . .
39.1(33) . . .
34.6(30) . . .
45(4) . . .
39.7(35) . . .
28.5(30) . . .
33.2(30) . . .
27.7(28) . . .
26.1(27) . . .
33.0(31) . . .
28.9(28) . . .
34.5(30) . . .
31.2(30) . . .
38.9(34) . . .
48(4) . . .
34.9(31) . . .
37.6(32) . . .
26.4(27) . . .
34.2(33) . . .
33.0(33) . . .
41(4) . . .
39.0(33) . . .
36.7(34) . . .
41(4) . . .
40.2(35) . . .
41.3(35) . . .
42.5(34) . . .
32.0(31) . . .
28.9(30) . . .
30.5(29) . . .
35.7(33) . . .
36.0(31) . . .
28.4(28) . . .
38(4) . . .
27.9(28) . . .
38.7(32) . . .
30.3(30) . . .
37(4) . . .
31.7(33) . . .
23.2(25) . . .
28.9(28) . . .
28.4(28) . . .
35.7(33) . . .
36(4) . . .
28.6(30) . . .
41.5(33) . . .
41.4(35) . . .
36.7(33) . . .
38(4) . . .
32.9(32) . . .
35.7(31) . . .
43.0(34) . . .
33.2(30) . . .
37.7(34) . . .
46(4) . . .
40.8(33) . . .
41.3(34) . . .
29.2(28) . . .
38(4) . . .
32.3(32) . . .
33.4(30) . . .
37.7(33) . . .
43(4) . . .
38.5(35) . . .
28.8(28) . . .
21.9(25) . . .
33.8(31) . . .
32.7(30) . . .
35.8(33) . . .
31.0(31) . . .
45.3(34) . . .
34.8(34) . . .
37.4(34) . . .
31.3(29) . . .
38.1(32) . . .
29.6(28) . . .
32.5(30) . . .
29.1(29) . . .
33.1(30) . . .
44(4) . . .
36.2(32) . . .
29.9(29) . . .
25.3(28) . . .
31.0(33) . . .
26.6(28) . . .
34.5(31) . . .
35.9(32) . . .
30.8(30) . . .
37.0(33) . . .
31.6(30) . . .
35.3(32) . . .
33.5(30) . . .
36.4(34) . . .
29.9(29) . . .
35.7(33) . . .
30.3(29) . . .
34.5(33) . . .
30.7(31) . . .
26.1(26) . . .
42.6(34) . . .
33.9(30) . . .
32.1(30) . . .
34.0(32) . . .
39.7(33) . . .
34.4(31) . . .
33.8(30) . . .
39.3(34) . . .
32.0(30) . . .
38.0(33) . . .
35.4(31) . . .
29.8(28) . . .
30.5(31) . . .
38(4) . . .
38(4) . . .
35.6(32) . . .
36.4(32) . . .
33.2(30) . . .
35.5(33) . . .
33.4(31) . . .
33.4(30) . . .
37.8(32) . . .
37.2(33) . . .
42(4) . . .
34.3(32) . . .
34.5(30) . . .
25.8(27) . . .
32.3(32) . . .
31.3(30) . . .
35.9(31) . . .
33.3(31) . . .
24.5(25) . . .
37.1(34) . . .
37.3(33) . . .
43.5(34) . . .
33.3(31) . . .
34.1(32) . . .
33.6(33) . . .
33.7(31) . . .
31.0(29) . . .
36.7(34) . . .
36.5(34) . . .
36(4) . . .
33.5(31) . . .
38.9(32) . . .
41.7(33) . . .
41.6(34) . . .
42.0(35) . . .
36.7(33) . . .
35.0(32) . . .
34.9(31) . . .
31.5(32) . . .
31.4(31) . . .
38.2(33) . . .
32.0(30) . . .
29.9(28) . . .
29.3(27) . . .
37.1(35) . . .
40(4) . . .
32.4(30) . . .
30.0(28) . . .
33.0(31) . . .
32.5(31) . . .
36.2(32) . . .
38.9(33) . . .
32.2(32) . . .
34.9(33) . . .
33.8(31) . . .
40.6(34) . . .
30.0(28) . . .
37.2(32) . . .
37.8(33) . . .
40.4(34) . . .
34.9(30) . . .
31.3(30) . . .
31.2(31) . . .
28.8(29) . . .
35.0(33) . . .
33.8(31) . . .
37.6(32) . . .
38.5(34) . . .
27.6(28) . . .
30.1(30) . . .
33.3(30) . . .
28.8(28) . . .
35.3(32) . . .
35.5(35) . . .
37.1(33) . . .
32.2(30) . . .
33.6(32) . . .
32.2(31) . . .
45(4) . . .
32.7(31) . . .
34.8(31) . . .
33.2(30) . . .
31.0(31) . . .
29.0(30) . . .
32.6(31) . . .
37.3(33) . . .
34.8(31) . . .
35.9(33) . . .
30.8(31) . . .
27.0(27) . . .
34.6(31) . . .
38.3(34) . . .
36.0(32) . . .
33.1(32) . . .
34.6(33) . . .
31.0(29) . . .
29.2(30) . . .
30.5(31) . . .
31.2(33) . . .
27.7(29) . . .
33.3(30) . . .
33.8(30) . . .
33.3(31) . . .
31.0(31) . . .
28.4(28) . . .
36.5(32) . . .
37.9(33) . . .
41(4) . . .
33.0(30) . . .
44(4) . . .
31.5(29) . . .
33.5(31) . . .
36.3(33) . . .
38.7(34) . . .
32.6(30) . . .
36.4(32) . . .
33.0(32) . . .
30.4(30) . . .
33.1(30) . . .
29.7(28) . . .
27.7(28) . . .
30.7(31) . . .
37.0(34) . . .
36.1(32) . . .
31.4(29) . . .
32.3(30) . . .
26.7(28) . . .
30.6(31) . . .
29.6(28) . . .
32.9(31) . . .
35.6(31) . . .
32.0(33) . . .
39(4) . . .
31.7(29) . . .
37.9(32) . . .
34.8(32) . . .
30.6(29) . . .
28.7(29) . . .
35.1(31) . . .
29.4(28) . . .
35.0(30) . . .
34.3(30) . . .
32.6(31) . . .
36.3(35) . . .
29.0(28) . . .
32.9(32) . . .
26.8(29) . . .
31.2(30) . . .
34.1(32) . . .
33.3(30) . . .
32.5(30) . . .
36.1(32) . . .
33.8(33) . . .
33.8(31) . . .
36.5(32) . . .
38.1(34) . . .
36.3(32) . . .
35.4(32) . . .
32.0(30) . . .
36.5(32) . . .
33.0(31) . . .
31.2(32) . . .
34.7(33) . . .
30.4(29) . . .
35.2(31) . . .
33.7(32) . . .
36.3(34) . . .
31.8(30) . . .
36.2(31) . . .
35.0(31) . . .
37.3(33) . . .
37.0(34) . . .
38.1(33) . . .
37.2(32) . . .
35.6(31) . . .
32.7(31) . . .
30.8(30) . . .
40.8(33) . . .
34.9(31) . . .
32.1(29) . . .
33.2(31) . . .
40(4) . . .
24.1(26) . . .
27.9(29) . . .
33.2(30) . . .
38.9(34) . . .
43(4) . . .
39.5(34) . . .
31.4(29) . . .
39.5(34) . . .
34.5(34) . . .
27.2(30) . . .
23.8(26) . . .
30.8(29) . . .
36.3(32) . . .
42(4) . . .
29.0(29) . . .
33.4(31) . . .
40.5(33) . . .
34.0(30) . . .
34.1(31) . . .
34.8(31) . . .
36.1(33) . . .
35.8(31) . . .
27.0(28) . . .
30.2(29) . . .
31.5(29) . . .
32.3(29) . . .
32.2(30) . . .
33.2(31) . . .
36.1(33) . . .
29.6(29) . . .
37.9(34) . . .
34.0(30) . . .
29.2(29) . . .
38.7(33) . . .
37.0(32) . . .
35.5(33) . . .
29.8(28) . . .
34.1(30) . . .
33.6(32) . . .
30.5(30) . . .
36.2(33) . . .
33.9(31) . . .
34.7(31) . . .
31.5(31) . . .
36.5(31) . . .
36.4(32) . . .
37.9(33) . . .
32.0(29) . . .
35.5(34) . . .
30.2(31) . . .
31.8(31) . . .
33.2(30) . . .
25.3(28) . . .
33.8(34) . . .
31.0(30) . . .
33.5(30) . . .
28.8(28) . . .
35.7(34) . . .
38.2(33) . . .
38.7(33) . . .
34.4(30) . . .
38.3(33) . . .
38.2(35) . . .
30.9(30) . . .
28.0(29) . . .
32.1(29) . . .
34.8(32) . . .
48(4) . . .
40(4) . . .
39.6(34) . . .
35.1(31) . . .
33.5(31) . . .
25.8(27) . . .
28.2(30) . . .
35.0(32) . . .
30.0(29) . . .
30.5(29) . . .
39.4(34) . . .
37.7(32) . . .
34.2(31) . . .
35.7(32) . . .
41.3(35) . . .
36.6(34) . . .
35.8(32) . . .
37.5(35) . . .
26.7(27) . . .
29.6(30) . . .
31.1(30) . . .
33.1(31) . . .
26.6(27) . . .
24.0(26) . . .
35.6(32) . . .
34.8(32) . . .
36.4(31) . . .
33.1(31) . . .
30.9(29) . . .
33.9(33) . . .
38(4) . . .
32.5(31) . . .
34.6(31) . . .
34.9(31) . . .
29.7(28) . . .
42(4) . . .
42.5(34) . . .
39.5(33) . . .
29.4(28) . . .
40.6(34) . . .
33.8(31) . . .
30.5(30) . . .
34.3(31) . . .
41.1(34) . . .
35.7(32) . . .
29.4(28) . . .
36.7(34) . . .
34.0(31) . . .
40.9(34) . . .
31.2(29) . . .
32.5(32) . . .
40(4) . . .
34.4(30) . . .
40.2(33) . . .
33.1(30) . . .
29.7(29) . . .
31.8(30) . . .
37.2(32) . . .
33.8(31) . . .
41(4) . . .
35.2(33) . . .
27.6(27) . . .
32.9(30) . . .
32.3(30) . . .
26.6(27) . . .
28.6(30) . . .
31.5(30) . . .
35.8(31) . . .
32.7(33) . . .
36.3(33) . . .
34.1(30) . . .
35.4(31) . . .
31.8(29) . . .
37.9(33) . . .
37.6(34) . . .
34.8(33) . . .
33.4(30) . . .
32.9(31) . . .
38.2(33) . . .
31.1(31) . . .
33.8(32) . . .
34.8(30) . . .
38.1(33) . . .
37.6(34) . . .
36.0(33) . . .
33.0(31) . . .
35.7(32) . . .
42.4(34) . . .
36.7(31) . . .
35.7(32) . . .
44(4) . . .
38.7(33) . . .
30.3(29) . . .
25.0(26) . . .
37.4(34) . . .
39.6(33) . . .
39.1(33) . . .
39.0(33) . . .
34.7(32) . . .
36.0(33) . . .
39.8(35) . . .
30.7(29) . . .
32.7(30) . . .
29.8(28) . . .
46(4) . . .
38.3(33) . . .
37.7(33) . . .
31.6(30) . . .
23.9(26) . . .
32.0(31) . . .
27.1(29) . . .
29.6(29) . . .
38.4(34) . . .
37.6(32) . . .
35.3(33) . . .
26.8(27) . . .
30.6(29) . . .
22.8(25) . . .
33.0(34) . . .
34.2(34) . . .
33.0(31) . . .
34.9(31) . . .
34.2(31) . . .
23.7(26) . . .
32.1(30) . . .
33.8(30) . . .
28.1(28) . . .
36.0(32) . . .
34.3(33) . . .
29.5(29) . . .
28.2(30) . . .
35.7(31) . . .
28.7(27) . . .
32.5(33) . . .
37.1(32) . . .
40.1(33) . . .
30.3(29) . . .
34.0(30) . . .
38.8(33) . . .
34.3(30) . . .
35.3(31) . . .
39.3(33) . . .
36.4(31) . . .
36.6(32) . . .
34.9(31) . . .
39.2(33) . . .
38.5(33) . . .
30.7(30) . . .
29.7(30) . . .
23.7(25) . . .
34.6(32) . . .
37.7(33) . . .
31.2(30) . . .
36.0(33) . . .
38.1(32) . . .
41.2(33) . . .
30.8(30) . . .
35.1(30) . . .
40.1(34) . . .
24.5(25) . . .
32.3(30) . . .
37.9(35) . . .
38.7(34) . . .
36.5(33) . . .
29.8(29) . . .
26.8(27) . . .
32.2(31) . . .
43(4) . . .
35.7(33) . . .
42(4) . . .
32.4(30) . . .
38.2(33) . . .
34.5(34) . . .
33.0(30) . . .
30.3(29) . . .
37.8(32) . . .
35.5(32) . . .
28.4(29) . . .
35.7(32) . . .
33.1(32) . . .
31.4(29) . . .
33.0(31) . . .
33.9(33) . . .
34.1(32) . . .
35.7(32) . . .
32.9(30) . . .
31.1(30) . . .
29.7(29) . . .
31.6(30) . . .
29.0(28) . . .
28.9(28) . . .
29.5(30) . . .
32.6(31) . . .
29.9(30) . . .
36.7(31) . . .
32.3(30) . . .
33.1(30) . . .
34.9(33) . . .
33.5(31) . . .
40.2(33) . . .
30.7(29) . . .
36.1(32) . . .
37.8(35) . . .
40.1(34) . . .
28.5(28) . . .
27.9(28) . . .
31.3(32) . . .
30.4(31) . . .
39.5(35) . . .
42.5(35) . . .
37.6(32) . . .
35.6(33) . . .
39.9(35) . . .
32.6(30) . . .
37.6(32) . . .
38.8(33) . . .
33.5(30) . . .
31.9(30) . . .
29.9(29) . . .
39.2(33) . . .
32.1(29) . . .
32.7(33) . . .
29.8(31) . . .
33.0(32) . . .
35.2(31) . . .
38.3(32) . . .
40.9(35) . . .
37.3(33) . . .
33.9(32) . . .
31.6(29) . . .
36.7(34) . . .
47(4) . . .
36.0(34) . . .
32.9(30) . . .
39.5(33) . . .
35.5(30) . . .
36.1(33) . . .
27.9(29) . . .
32.1(30) . . .
25.6(27) . . .
35.5(32) . . .
32.9(33) . . .
34.0(34) . . .
32.8(30) . . .
33.8(31) . . .
37.8(33) . . .
28.4(27) . . .
28.5(28) . . .
29.9(28) . . .
29.2(28) . . .
33.3(31) . . .
28.0(29) . . .
35.6(32) . . .
33.8(31) . . .
34.2(31) . . .
31.5(31) . . .
35.3(33) . . .
34.1(31) . . .
41.1(34) . . .
38.6(33) . . .
21.5(24) . . .
30.4(32) . . .
45(4) . . .
28.0(28) . . .
40.1(34) . . .
35.7(34) . . .
31.7(31) . . .
36.2(32) . . .
41.1(33) . . .
34.7(33) . . .
32.8(32) . . .
29.9(30) . . .
34.6(31) . . .
30.0(28) . . .
30.8(32) . . .
35.6(33) . . .
34.9(32) . . .
29.5(28) . . .
35.3(30) . . .
33.6(31) . . .
30.5(30) . . .
32.1(31) . . .
28.5(27) . . .
39.0(34) . . .
31.1(29) . . .
27.0(30) . . .
27.8(30) . . .
35.3(31) . . .
33.2(30) . . .
36.4(32) . . .
31.9(33) . . .
29.3(30) . . .
33.6(30) . . .
31.8(30) . . .
42(4) . . .
34.4(34) . . .
35.7(32) . . .
41.5(34) . . .
30.5(30) . . .
39.1(34) . . .
32.8(30) . . .
42.3(34) . . .
37.1(32) . . .
34.8(31) . . .
31.2(29) . . .
29.4(30) . . .
29.7(30) . . .
29.7(28) . . .
32.1(32) . . .
27.0(27) . . .
39.5(35) . . .
35.0(32) . . .
30.1(28) . . .
30.9(29) . . .
37.5(34) . . .
36.5(32) . . .
30.9(30) . . .
31.3(30) . . .
36.4(35) . . .
33.8(33) . . .
31.5(30) . . .
32.7(30) . . .
36.9(32) . . .
43(4) . . .
25.1(26) . . .
36.9(32) . . .
34.8(31) . . .
36.0(31) . . .
40.3(34) . . .
41(4) . . .
36.5(32) . . .
37.3(31) . . .
26.0(27) . . .
27.1(29) . . .
36(4) . . .
33.7(32) . . .
37.9(33) . . .
33.8(30) . . .
23.2(26) . . .
37(4) . . .
34.7(33) . . .
34.2(32) . . .
37.4(32) . . .
35.4(32) . . .
29.8(31) . . .
30.5(29) . . .
35.7(31) . . .
39.4(34) . . .
35.3(31) . . .
33.0(32) . . .
35.1(33) . . .
32.0(29) . . .
29.5(29) . . .
38.0(34) . . .
41(4) . . .
25.9(27) . . .
34.2(31) . . .
33.5(32) . . .
25.1(27) . . .
33.5(34) . . .
31.4(30) . . .
28.8(28) . . .
45(4) . . .
34.4(30) . . .
40.7(34) . . .
30.9(29) . . .
33.6(30) . . .
38.4(33) . . .
37.9(33) . . .
28.4(27) . . .
44(4) . . .
36.9(33) . . .
29.4(30) . . .
32.5(30) . . .
30.6(32) . . .
34.9(31) . . .
44.0(35) . . .
35.6(31) . . .
39(4) . . .
32.7(34) . . .
28.9(28) . . .
40.3(33) . . .
31.9(30) . . .
24.9(27) . . .
30.5(34) . . .
38.4(32) . . .
36.3(31) . . .
37.7(33) . . .
37.1(33) . . .
24.2(26) . . .
27.9(28) . . .
35.6(31) . . .
28.1(29) . . .
27.5(30) . . .
36.0(33) . . .
34.6(31) . . .
27.4(28) . . .
30.2(31) . . .
39(4) . . .
36.8(34) . . .
34.0(31) . . .
26.5(28) . . .
31.8(31) . . .
41(4) . . .
34.9(31) . . .
33.9(30) . . .
37.7(34) . . .
36.4(32) . . .
23.8(27) . . .
32.1(30) . . .
29.4(29) . . .
30.9(30) . . .
29.6(29) . . .
29.2(29) . . .
43(4) . . .
33.6(31) . . .
41.6(35) . . .
42(4) . . .
29.9(28) . . .
39.2(33) . . .
34.6(30) . . .
32.4(32) . . .
36.7(34) . . .
40(4) . . .
32.0(30) . . .
29.2(29) . . .
32.2(31) . . .
40(4) . . .
30.9(29) . . .
34.1(30) . . .
34.2(31) . . .
35.3(31) . . .
36.6(33) . . .
37.4(34) . . .
33.3(31) . . .
31.9(29) . . .
26.8(27) . . .
29.1(31) . . .
44(4) . . .
32.3(30) . . .
34.1(30) . . .
34.6(31) . . .
26.8(28) . . .
33.6(33) . . .
32.3(30) . . .
35.0(31) . . .
34.0(32) . . .
36.5(34) . . .
27.6(29) . . .
32.0(30) . . .
31.4(30) . . .
32.6(32) . . .
34.0(32) . . .
34.7(31) . . .
33.9(31) . . .
35.0(32) . . .
38.4(33) . . .
39.7(34) . . .
37.2(33) . . .
35.8(32) . . .
38.8(33) . . .
33.4(31) . . .
31.0(29) . . .
31.8(30) . . .
37.9(32) . . .
35.5(32) . . .
42(4) . . .
33.9(30) . . .
34.2(31) . . .
23.4(25) . . .
40.6(34) . . .
35.3(33) . . .
37.5(34) . . .
38.9(34) . . .
34.0(30) . . .
41.8(34) . . .
36.1(33) . . .
34.0(33) . . .
26.0(27) . . .
32.2(30) . . .
31.2(29) . . .
36.2(33) . . .
33.2(29) . . .
40.3(33) . . .
41.0(34) . . .
33.0(30) . . .
30.4(28) . . .
42.9(35) . . .
32.5(30) . . .
40.7(34) . . .
33.8(33) . . .
33.4(32) . . .
30.9(31) . . .
35.6(32) . . .
35.9(31) . . .
34.2(33) . . .
23.7(29) . . .
31.9(30) . . .
39.2(33) . . .
31.6(30) . . .
28.0(29) . . .
31.3(32) . . .
28.1(29) . . .
35.9(31) . . .
36.2(31) . . .
33.6(30) . . .
38.7(35) . . .
36.3(34) . . .
33.2(31) . . .
39.9(33) . . .
33.7(31) . . .
38.9(35) . . .
40.5(34) . . .
39.1(33) . . .
31.4(29) . . .
31.6(30) . . .
30.5(30) . . .
21.8(25) . . .
29.9(29) . . .
35.9(33) . . .
37(4) . . .
36.2(33) . . .
31.5(30) . . .
38.2(32) . . .
33.8(31) . . .
28.7(29) . . .
34.0(33) . . .
36.1(33) . . .
35.4(31) . . .
34.6(34) . . .
24.8(27) . . .
33.4(32) . . .
35.5(32) . . .
36.7(31) . . .
25.0(28) . . .
28.0(29) . . .
40.6(34) . . .
34.7(31) . . .
36.2(32) . . .
34.1(32) . . .
31.2(30) . . .
32.7(32) . . .
39.2(33) . . .
41.5(33) . . .
32.9(30) . . .
35.1(35) . . .
35.8(33) . . .
33.0(32) . . .
31.5(30) . . .
32.3(31) . . .
37.5(34) . . .
42.8(35) . . .
35.3(31) . . .
32.0(29) . . .
40.2(34) . . .
39.4(35) . . .
36.2(31) . . .
28.6(27) . . .
33.5(30) . . .
37.2(34) . . .
35.3(34) . . .
36.0(32) . . .
36.2(32) . . .
26.1(28) . . .
32.1(32) . . .
44(4) . . .
30.6(29) . . .
28.9(28) . . .
43(4) . . .
43(4) . . .
36.5(31) . . .
42.9(34) . . .
25.7(26) . . .
26.4(27) . . .
34.3(34) . . .
27.5(29) . . .
31.6(30) . . .
25.9(27) . . .
30.1(30) . . .
32.5(31) . . .
28.6(28) . . .
30.3(28) . . .
39.0(33) . . .
33.9(31) . . .
26.4(29) . . .
26.3(27) . . .
31.5(29) . . .
28.1(27) . . .
32.5(30) . . .
33.0(32) . . .
35.6(32) . . .
39.5(33) . . .
29.9(28) . . .
32.7(31) . . .
36.3(34) . . .
33.0(31) . . .
33.2(30) . . .
37.0(34) . . .
36.6(34) . . .
33.3(31) . . .
33.5(31) . . .
33.8(31) . . .
36.9(33) . . .
28.0(31) . . .
31.7(31) . . .
41.0(35) . . .
31.9(30) . . .
35.1(31) . . .
40.0(34) . . .
29.4(30) . . .
36.3(32) . . .
44.1(35) . . .
41.8(35) . . .
35.2(32) . . .
32.3(30) . . .
31.7(29) . . .
37.5(32) . . .
32.7(31) . . .
32.8(32) . . .
31.7(31) . . .
32.4(30) . . .
33.5(30) . . .
26.5(28) . . .
33.5(33) . . .
30.3(29) . . .
39(4) . . .
39.5(33) . . .
34.3(31) . . .
29.2(30) . . .
31.3(30) . . .
38.8(32) . . .
29.5(29) . . .
37(4) . . .
28.0(29) . . .
33.3(32) . . .
32.3(32) . . .
34.3(30) . . .
39.1(35) . . .
40.0(35) . . .
32.0(30) . . .
28.2(28) . . .
37.8(32) . . .
42(4) . . .
35.8(33) . . .
26.2(27) . . .
26.3(27) . . .
33.1(30) . . .
38.8(33) . . .
40.4(34) . . .
41.2(35) . . .
36.2(32) . . .
35.6(32) . . .
30.5(31) . . .
39(4) . . .
30.3(30) . . .
35.7(31) . . .
37.0(33) . . .
31.2(31) . . .
29.2(27) . . .
35.0(31) . . .
30.4(29) . . .
34.9(32) . . .
34.8(32) . . .
33.9(33) . . .
35.3(32) . . .
29.7(28) . . .
24.2(27) . . .
36(4) . . .
23.8(27) . . .
31.1(30) . . .
33.5(31) . . .
33.8(31) . . .
34.8(32) . . .
30.6(29) . . .
35.6(31) . . .
27.4(27) . . .
31.3(30) . . .
28.0(28) . . .
38.0(34) . . .
34.3(30) . . .
32.3(31) . . .
33.2(31) . . .
40(4) . . .
36.4(32) . . .
32.4(30) . . .
32.2(29) . . .
25.1(27) . . .
34.2(33) . . .
44(4) . . .
31.1(29) . . .
33.6(30) . . .
40.9(35) . . .
35.4(34) . . .
36.9(34) . . .
36.7(32) . . .
28.2(27) . . .
35.9(33) . . .
38.1(35) . . .
35.6(32) . . .
37.9(31) . . .
39.0(33) . . .
39.7(34) . . .
34.2(32) . . .
37.3(33) . . .
41.8(34) . . .
33.1(30) . . .
37.0(33) . . .
30.5(31) . . .
30.4(32) . . .
24.2(26) . . .
38.1(33) . . .
33.5(31) . . .
33.5(32) . . .
40.1(34) . . .
37.0(32) . . .
40.4(35) . . .
37.3(35) . . .
31.0(29) . . .
26.5(27) . . .
31.0(29) . . .
35.6(31) . . .
32.3(32) . . .
29.6(29) . . .
39.5(33) . . .
34.2(31) . . .
36.6(33) . . .
37.9(34) . . .
39.5(34) . . .
25.5(27) . . .
40.9(34) . . .
34.0(32) . . .
31.3(30) . . .
39.5(33) . . .
39.9(34) . . .
32.1(29) . . .
33.9(33) . . .
41(4) . . .
38.1(33) . . .
27.2(28) . . .
31.0(30) . . .
loop_
_refln_index_h
_refln_index_k
_refln_index_l
_refln_observed_status
_refln_F_squared_meas
_refln_F_squared_calc
_refln_phase_calc
_refln_d_spacing
_gsas_i100_meas
0 2 0 o 1334.829 1368.589 180.00 8.37897 5.94
0 0 2 o 534.353 18.301 180.00 6.39680 1.39
1 0 1 o 13507.923 13899.797 0.00 5.88614 59.38
0 2 2 o 30472.490 30611.244 0.00 5.08446 100.00
0 3 1 o 1120.737 1244.981 180.00 5.11928 3.73
1 2 1 o 1672.588 1731.179 0.00 4.81647 9.85
1 1 2 o 4039.856 4174.625 0.00 4.43885 20.22
0 1 3 o 518.098 42.857 0.00 4.13281 1.12
0 4 0 o 2874.100 842.531 0.00 4.18948 3.20
1 0 3 o 467.258 237.247 180.00 3.58656 0.76
1 3 2 o 3683.702 3695.848 0.00 3.55245 11.83
0 0 4 o 422.469 230.054 180.00 3.19840 0.28
0 4 2 o 10.117 7.148 0.00 3.50472 0.02
0 3 3 o 11347.424 11390.865 0.00 3.38964 16.59
1 4 1 o 858.800 906.224 180.00 3.41320 2.55
1 2 3 o 942.767 1154.998 0.00 3.29720 2.61
0 5 1 o 66.496 83.735 180.00 3.24218 0.09
2 0 0 o 2110.447 2257.049 180.00 3.31473 1.48
0 2 4 o 1639.511 2009.196 0.00 2.98810 1.87
2 1 1 o 945.084 1004.053 180.00 3.15153 2.39
2 2 0 o 140.934 185.617 0.00 3.08230 0.17
1 1 4 o 80.192 34.975 0.00 2.83903 0.16
2 0 2 o 353.446 373.724 0.00 2.94307 0.39
0 6 0 o 1490.299 1571.041 0.00 2.79299 0.74
2 3 1 o 822.355 882.835 0.00 2.78239 1.62
2 2 2 o 2365.993 2347.019 180.00 2.77676 4.65
0 1 5 o 2014.621 2047.620 180.00 2.52940 1.65
1 4 3 o 5059.466 5275.528 0.00 2.72454 9.58
1 5 2 o 3014.321 2917.715 180.00 2.70950 5.65
1 3 4 o 59.176 84.110 0.00 2.56027 0.10
2 1 3 o 1481.221 1343.521 0.00 2.58578 2.53
2 4 0 o 1772.720 1711.808 180.00 2.59949 1.53
0 5 3 o 619.744 585.973 180.00 2.63515 0.55
0 4 4 o 10242.117 11814.450 0.00 2.54223 8.46
0 6 2 o 106.420 159.253 0.00 2.55964 0.09
1 6 1 o 790.061 789.976 0.00 2.52333 1.29
1 0 5 o 441.862 370.779 180.00 2.38709 0.32
0 3 5 o 175.802 200.682 0.00 2.32628 0.12
1 2 5 o 514.176 448.407 0.00 2.29574 0.69
0 7 1 o 153.187 307.419 0.00 2.35315 0.11
2 0 4 o 2636.646 2382.094 180.00 2.30164 1.79
2 3 3 o 105.019 145.611 180.00 2.36991 0.15
2 4 2 o 96.694 58.810 180.00 2.40824 0.14
2 5 1 o 0.613 0.593 180.00 2.31779 0.00
0 0 6 o 4106.033 3703.044 0.00 2.13227 1.20
2 2 4 o 55.206 28.235 0.00 2.21943 0.07
0 2 6 o 200.745 153.206 180.00 2.06641 0.11
1 5 4 o 5426.635 5584.077 0.00 2.18463 6.64
1 6 3 o 4959.438 4746.565 180.00 2.20363 6.17
0 8 0 o 20.535 12.878 180.00 2.09474 0.01
1 1 6 o 975.603 802.480 180.00 2.01513 1.02
2 6 0 o 1485.121 1363.862 180.00 2.13587 0.87
1 7 2 o 2783.820 2635.149 0.00 2.12393 3.22
1 4 5 o 12.373 10.613 180.00 2.07404 0.01
3 0 1 o 3084.846 2754.993 180.00 2.17758 1.87
2 1 5 o 441.244 347.594 180.00 2.01083 0.46
0 6 4 o 9900.351 7763.898 180.00 2.10377 5.62
0 7 3 o 7554.161 6090.127 0.00 2.08755 4.22
0 5 5 o 22104.490 21398.980 0.00 2.03378 11.74
3 2 1 o 53.959 52.194 0.00 2.10757 0.06
3 1 2 o 3149.880 2979.846 180.00 2.07266 3.47
2 5 3 o 465.902 377.732 0.00 2.06275 0.51
2 4 4 o 1609.630 1448.470 180.00 2.01726 1.68
0 8 2 o 3873.588 2612.593 180.00 1.99072 1.97
2 6 2 o 596.242 498.539 180.00 2.02592 0.63
1 8 1 o 982.482 785.661 180.00 1.97350 0.98
1 3 6 o 710.361 578.615 0.00 1.90780 0.67
0 4 6 o 2074.412 1695.840 180.00 1.90030 0.96
3 0 3 o 2738.696 2646.050 0.00 1.96205 1.35
0 1 7 o 417.835 510.298 0.00 1.81688 0.18
2 3 5 o 1253.040 984.855 0.00 1.90415 1.17
2 7 1 o 301.153 282.595 180.00 1.91880 0.29
3 3 2 o 1276.282 711.368 0.00 1.95641 1.26
3 2 3 o 5103.519 4251.139 180.00 1.91037 4.79
3 4 1 o 983.938 453.559 180.00 1.93216 0.94
1 0 7 o 1022.878 1085.817 0.00 1.76193 0.41
0 9 1 o 3157.915 3344.232 0.00 1.84258 1.38
2 0 6 o 6.301 8.254 180.00 1.79328 0.00
0 3 7 o 1250.612 1420.057 0.00 1.73704 0.49
1 2 7 o 734.730 680.040 180.00 1.72422 0.56
3 1 4 o 3194.339 3042.642 0.00 1.80748 2.69
2 2 6 o 1601.740 1552.338 180.00 1.75357 1.27
1 6 5 o 312.588 365.133 0.00 1.81463 0.27
1 7 4 o 444.400 407.000 180.00 1.84118 0.39
1 8 3 o 125.004 115.823 0.00 1.80883 0.11
2 8 0 o 38.962 36.572 0.00 1.77078 0.02
1 5 6 o 1232.864 1448.587 0.00 1.73625 0.96
3 4 3 o 323.496 312.287 180.00 1.77684 0.26
2 6 4 o 1463.541 1386.535 0.00 1.77623 1.19
2 5 5 o 2243.985 2650.826 180.00 1.73350 1.74
2 7 3 o 1522.436 1511.910 180.00 1.76643 1.23
1 9 2 o 15.551 14.676 0.00 1.72613 0.01
3 5 2 o 473.569 455.970 0.00 1.77265 0.38
0 7 5 o 1642.301 1381.017 180.00 1.74814 0.65
3 3 4 o 209.228 228.405 180.00 1.72882 0.16
0 6 6 o 4917.148 6366.371 0.00 1.69482 1.82
0 10 0 o 10763.996 11898.177 180.00 1.67579 1.95
0 8 4 o 982.244 888.126 0.00 1.75236 0.39
0 0 8 o 84.456 130.462 0.00 1.59920 0.01
2 8 2 o 8.755 6.978 0.00 1.70660 0.01
0 9 3 o 164.013 130.083 180.00 1.70643 0.06
3 6 1 o 1887.615 1524.757 180.00 1.71731 1.44
1 4 7 o 298.681 328.986 180.00 1.62414 0.20
3 0 5 o 2343.437 2578.886 180.00 1.67244 0.85
2 4 6 o 1947.218 1843.703 0.00 1.64860 1.37
0 2 8 o 718.751 624.381 180.00 1.57084 0.23
2 1 7 o 261.964 352.575 0.00 1.59324 0.17
3 2 5 o 33.365 28.540 0.00 1.64009 0.02
0 5 7 o 5.064 7.804 0.00 1.60459 0.00
1 1 8 o 803.179 761.834 0.00 1.54796 0.50
1 10 1 o 305.355 619.539 180.00 1.61175 0.21
0 10 2 o 330.239 455.927 0.00 1.62109 0.11
2 9 1 o 29.412 53.622 180.00 1.61049 0.02
4 0 0 o 1866.145 2175.705 0.00 1.65737 0.33
2 3 7 o 2290.401 2091.217 180.00 1.53858 1.41
4 1 1 o 1158.271 875.665 0.00 1.63578 0.80
1 3 8 o 226.982 166.883 0.00 1.49769 0.13
4 2 0 o 457.956 225.456 180.00 1.62587 0.16
3 5 4 o 248.238 451.939 180.00 1.59810 0.16
3 1 6 o 4.042 2.961 180.00 1.52803 0.00
3 6 3 o 470.984 669.306 0.00 1.60549 0.31
4 0 2 o 138.640 135.267 180.00 1.60439 0.05
0 4 8 o 0.323 0.240 180.00 1.49405 0.00
3 4 5 o 51.823 51.531 180.00 1.55325 0.03
3 7 2 o 1890.550 1890.036 180.00 1.57387 1.21
1 7 6 o 260.078 263.197 0.00 1.54823 0.16
4 2 2 o 1432.154 1630.401 0.00 1.57576 0.92
0 11 1 o 5961.629 5466.093 180.00 1.51276 1.77
1 8 5 o 382.188 414.218 180.00 1.57448 0.25
1 9 4 o 169.244 207.301 0.00 1.56376 0.11
4 3 1 o 786.496 767.281 180.00 1.57679 0.51
1 6 7 o 1228.588 884.473 0.00 1.49019 0.71
2 7 5 o 2039.554 2009.224 0.00 1.54628 1.27
2 0 8 o 1263.318 1176.043 180.00 1.44033 0.34
2 6 6 o 2861.085 2971.565 180.00 1.50901 1.69
1 10 3 o 12.886 9.561 180.00 1.51824 0.01
4 1 3 o 519.550 506.720 180.00 1.53828 0.32
0 1 9 o 1729.262 2407.346 0.00 1.41642 0.45
2 8 4 o 1974.007 2199.083 180.00 1.54920 1.23
2 10 0 o 339.242 258.564 0.00 1.49553 0.10
2 9 3 o 287.656 229.116 0.00 1.51719 0.17
4 4 0 o 1509.697 1615.626 0.00 1.54115 0.47
3 3 6 o 6.741 3.626 180.00 1.47962 0.00
3 8 1 o 92.170 97.162 0.00 1.50964 0.05
1 0 9 o 275.019 438.600 180.00 1.38992 0.07
0 8 6 o 1375.291 1158.071 180.00 1.49430 0.40
2 2 8 o 531.019 670.413 0.00 1.41951 0.28
2 5 7 o 2208.646 1975.201 0.00 1.44427 1.20
0 7 7 o 4437.001 4338.000 0.00 1.45270 1.22
1 5 8 o 103.955 152.802 180.00 1.41028 0.05
0 3 9 o 13.209 28.573 0.00 1.37760 0.00
1 11 2 o 318.121 260.889 180.00 1.44630 0.17
2 10 2 o 264.535 254.053 180.00 1.45626 0.15
0 10 4 o 256.633 126.658 180.00 1.48439 0.07
4 4 2 o 1864.495 1251.693 180.00 1.49828 1.09
1 2 9 o 37.526 50.749 180.00 1.37118 0.02
4 3 3 o 2600.993 1983.263 0.00 1.48892 1.50
0 9 5 o 576.008 724.422 0.00 1.50555 0.17
4 0 4 o 1184.004 1058.832 0.00 1.47153 0.33
3 0 7 o 975.811 1419.216 180.00 1.40838 0.25
4 5 1 o 2567.188 2411.401 0.00 1.47573 1.45
0 11 3 o 371.584 340.919 0.00 1.43465 0.10
4 2 4 o 897.732 696.214 180.00 1.44935 0.49
3 2 7 o 19.844 29.509 0.00 1.38890 0.01
0 6 8 o 0.225 0.351 0.00 1.38781 0.00
0 12 0 o 1456.774 2767.195 0.00 1.39649 0.19
3 6 5 o 14.401 13.636 180.00 1.43486 0.01
2 4 8 o 1846.616 1904.823 180.00 1.36208 0.90
3 7 4 o 79.121 58.264 0.00 1.44788 0.04
3 8 3 o 642.741 577.032 180.00 1.43199 0.34
4 6 0 o 4159.554 3710.275 180.00 1.42531 1.10
3 5 6 o 181.029 365.413 180.00 1.39516 0.09
2 11 1 o 139.493 452.374 0.00 1.37622 0.07
4 1 5 o 731.963 1208.130 0.00 1.38628 0.37
1 12 1 o 14.963 14.208 180.00 1.35878 0.01
3 9 2 o 13.307 18.414 180.00 1.38989 0.01
1 4 9 o 42.939 57.446 0.00 1.31921 0.02
2 1 9 o 927.143 1339.371 180.00 1.30249 0.41
0 12 2 o 3991.685 4311.482 180.00 1.36436 0.97
0 5 9 o 8.611 11.519 0.00 1.30867 0.00
0 0 10 o 4231.512 5448.553 180.00 1.27936 0.45
4 5 3 o 419.343 382.866 180.00 1.40295 0.22
4 4 4 o 572.939 716.912 0.00 1.38838 0.29
4 6 2 o 772.841 1129.315 0.00 1.39120 0.39
3 4 7 o 51.247 84.442 0.00 1.33497 0.02
0 2 10 o 276.528 388.675 0.00 1.26470 0.06
1 8 7 o 68.411 73.302 0.00 1.34837 0.03
1 9 6 o 182.604 208.613 180.00 1.37214 0.09
2 8 6 o 2685.332 2568.516 0.00 1.36227 1.30
4 3 5 o 133.929 118.722 180.00 1.34982 0.06
2 7 7 o 2575.740 3019.207 180.00 1.33053 1.19
3 1 8 o 682.274 1420.073 180.00 1.29169 0.30
1 1 10 o 86.057 76.401 0.00 1.25267 0.04
1 10 5 o 134.440 135.838 0.00 1.37156 0.07
2 9 5 o 2958.475 3074.507 180.00 1.37078 1.45
4 7 1 o 2809.821 2331.983 180.00 1.35501 1.35
2 10 4 o 1079.363 907.309 0.00 1.35475 0.52
1 11 4 o 15.400 17.750 180.00 1.34672 0.01
3 10 1 o 140.122 177.008 0.00 1.32806 0.06
2 3 9 o 470.473 641.019 0.00 1.27212 0.20
1 7 8 o 576.938 798.834 0.00 1.30382 0.26
4 0 6 o 897.288 1238.510 180.00 1.30856 0.20
2 11 3 o 924.046 899.076 180.00 1.31662 0.42
2 6 8 o 1474.026 1825.344 0.00 1.28014 0.63
2 12 0 o 299.385 560.230 180.00 1.28695 0.07
1 3 10 o 3.475 3.831 180.00 1.22557 0.00
3 3 8 o 13.668 18.579 180.00 1.26204 0.01
4 2 6 o 203.050 397.472 0.00 1.29289 0.09
0 13 1 o 2062.036 2648.674 0.00 1.28258 0.45
0 4 10 o 0.632 0.662 180.00 1.22358 0.00
1 12 3 o 105.386 136.881 180.00 1.30133 0.05
0 9 7 o 3.961 5.436 180.00 1.30432 0.00
0 8 8 o 564.094 815.366 0.00 1.27112 0.12
0 11 5 o 296.901 396.810 0.00 1.30900 0.07
1 6 9 o 194.690 154.534 180.00 1.24435 0.08
4 8 0 o 1105.170 1620.550 0.00 1.29974 0.24
0 10 6 o 33.711 33.230 180.00 1.31757 0.01
3 7 6 o 32.692 75.106 0.00 1.29185 0.01
5 0 1 o 2075.662 2051.961 0.00 1.31883 0.47
3 8 5 o 16.860 34.481 180.00 1.30698 0.01
4 6 4 o 135.119 149.792 180.00 1.30189 0.06
3 9 4 o 59.165 72.453 180.00 1.30083 0.03
0 12 4 o 182.465 223.272 180.00 1.27982 0.04
2 12 2 o 859.949 1147.509 0.00 1.26167 0.36
4 7 3 o 270.148 626.553 0.00 1.29802 0.12
4 5 5 o 262.007 348.794 0.00 1.28478 0.11
2 5 9 o 1455.434 1498.113 180.00 1.21724 0.57
3 6 7 o 433.081 704.117 180.00 1.25755 0.18
5 2 1 o 427.268 485.769 0.00 1.30279 0.19
5 1 2 o 321.079 450.080 0.00 1.29442 0.14
0 7 9 o 536.710 525.771 0.00 1.22227 0.11
1 13 2 o 41.346 29.115 180.00 1.24132 0.02
3 10 3 o 198.234 249.870 180.00 1.27427 0.08
4 8 2 o 1343.816 1654.820 180.00 1.27372 0.57
4 4 6 o 80.247 32.215 180.00 1.24905 0.03
0 13 3 o 1075.657 770.487 180.00 1.23393 0.22
4 1 7 o 391.644 450.347 180.00 1.22445 0.15
5 0 3 o 4.848 9.834 0.00 1.26611 0.00
3 5 8 o 169.493 266.457 0.00 1.20840 0.07
5 3 2 o 377.444 508.635 0.00 1.26459 0.16
3 11 2 o 594.144 619.086 0.00 1.23083 0.24
5 4 1 o 7.366 13.033 180.00 1.25797 0.00
5 2 3 o 330.666 381.950 0.00 1.25190 0.14
4 9 1 o 1410.239 1296.840 0.00 1.23223 0.56
5 1 4 o 12.796 10.991 0.00 1.22156 0.01
2 9 7 o 74.489 92.272 0.00 1.21373 0.03
1 10 7 o 82.301 110.798 180.00 1.21427 0.03
2 11 5 o 25.353 35.694 180.00 1.21750 0.01
2 10 6 o 110.085 209.417 180.00 1.22439 0.04
5 4 3 o 1107.482 1123.423 0.00 1.21197 0.43
1 11 6 o 86.509 87.832 0.00 1.21845 0.03
5 5 2 o 408.733 326.128 180.00 1.21064 0.16
