#------------------------------------------------------------------------------
#$Date: 2016-03-21 01:21:50 +0200 (Mon, 21 Mar 2016) $
#$Revision: 178377 $
#$URL: svn://www.crystallography.net/cod/cif/4/00/20/4002092.cif $
#------------------------------------------------------------------------------
#
# This file is available in the Crystallography Open Database (COD),
# http://www.crystallography.net/
#
# All data on this site have been placed in the public domain by the
# contributors.
#
data_4002092
loop_
_publ_author_name
'Nanthamathee, Chompoonoot'
'Ling, Sanliang'
'Slater, Ben'
'Attfield, Martin P.'
_publ_section_title
;
 Contradistinct Thermoresponsive Behavior of Isostructural MIL-53 Type
 Metal--Organic Frameworks by Modifying the Framework Inorganic Anion
;
_journal_name_full               'Chemistry of Materials'
_journal_page_first              141223143002002
_journal_paper_doi               10.1021/cm503311x
_journal_year                    2014
_chemical_formula_sum            'C8 Al F O4'
_chemical_formula_weight         206.06
_chemical_name_systematic        ' ?'
_space_group_IT_number           74
_symmetry_cell_setting           orthorhombic
_symmetry_space_group_name_Hall  '-I 2b 2'
_symmetry_space_group_name_H-M   'I m m a'
_audit_creation_date             2014-08-28T13:19
_audit_creation_method           'from EXP file using GSAS2CIF'
_audit_update_record
' 2014-08-28T13:19  Initial CIF as created by GSAS2CIF'
_cell_angle_alpha                90.0
_cell_angle_beta                 90.0
_cell_angle_gamma                90.0
_cell_formula_units_Z            4
_cell_length_a                   6.56879(17)
_cell_length_b                   16.3828(5)
_cell_length_c                   13.1723(7)
_cell_volume                     1417.54(9)
_computing_structure_refinement  GSAS
_diffrn_radiation_polarisn_ratio 0.95
_diffrn_radiation_probe          x-ray
_diffrn_radiation_wavelength     0.825993
_exptl_absorpt_correction_T_max  1.00000
_exptl_absorpt_correction_T_min  1.00000
_exptl_absorpt_process_details
;   GSAS Absorption/surface roughness correction: function number 0
 No correction is applied.
;
_pd_block_id                     2014-08-28T13:19|500K|500K|i11
_pd_calc_method                  'Rietveld Refinement'
_pd_instr_location               ' ?'
_pd_meas_2theta_range_inc        0.003
_pd_meas_2theta_range_max        149.9955
_pd_meas_2theta_range_min        0.0015
_pd_meas_number_of_points        49999
_pd_phase_name                   300K
_pd_proc_2theta_range_inc        0.003
_pd_proc_2theta_range_max        150.00478
_pd_proc_2theta_range_min        0.010778
_pd_proc_info_datetime           2014-08-28T13:19:56
_pd_proc_info_excluded_regions   ' ?'
_pd_proc_ls_background_function
;   GSAS Background function number 1 with  2 terms.
 Shifted Chebyshev function of 1st kind
      1:    0.00000     2:    0.00000    
;
_pd_proc_ls_peak_cutoff          0.00010
_pd_proc_ls_profile_function
;
 CW Profile function number 4 with  18 terms
 Pseudovoigt profile coefficients as parameterized in
 P. Thompson, D.E. Cox & J.B. Hastings (1987). J. Appl. Cryst.,20,79-83.
 Asymmetry correction of L.W. Finger, D.E. Cox & A. P. Jephcoat (1994).
 J. Appl. Cryst.,27,892-900.
 Microstrain broadening by P.W. Stephens,  (1999). J. Appl. Cryst.,32,281-289.
 Peak tails are ignored  where the intensity is below 0.0001 times the peak
   Aniso. broadening axis   1.0   0.0   1.0
;
_pd_proc_ls_prof_R_factor        0.0333
_pd_proc_ls_prof_wR_expected     0.0258
_pd_proc_ls_prof_wR_factor       0.0423
_pd_proc_number_of_points        49999
_pd_spec_mounting                ' ?'
_refine_ls_goodness_of_fit_all   1.64
_refine_ls_matrix_type           full
_refine_ls_number_parameters     28
_refine_ls_number_restraints     0
_refine_ls_R_Fsqd_factor         0.18163
_refine_ls_shift/su_max          0.03
_refine_ls_shift/su_mean         0.01
_reflns_d_resolution_high        1.209
_reflns_d_resolution_low         8.191
_reflns_limit_h_max              5
_reflns_limit_h_min              0
_reflns_limit_k_max              13
_reflns_limit_k_min              0
_reflns_limit_l_max              11
_reflns_limit_l_min              0
_reflns_number_total             252
_cod_data_source_file            alf500K.cif
_cod_data_source_block           500K_publ
_cod_depositor_comments
;
The following automatic conversions were performed:

'_geom_bond_publ_flag' value 'N' changed to 'n' according to
/home/saulius/struct/COD-crude-data--automatic-downloads/rss-feeds/ACS/lib/dictionaries/cif_core.dic
dictionary named 'cif_core.dic' version 2.4.2 from 2011-04-26 (18
times).

'_geom_angle_publ_flag' value 'N' changed to 'n' according
to
/home/saulius/struct/COD-crude-data--automatic-downloads/rss-feeds/ACS/lib/dictionaries/cif_core.dic
dictionary named 'cif_core.dic' version 2.4.2 from 2011-04-26 (24
times).

Automatic conversion script
Id: cif_fix_values 2935 2014-11-11 08:27:57Z andrius 
;
_cod_database_code               4002092
#BEGIN Tags that were not found in dictionaries:
_gsas_exptl_extinct_corr_t_min   1.00000
_gsas_exptl_extinct_corr_t_max   1.00000
#END Tags that were not found in dictionaries
loop_
_symmetry_equiv_pos_site_id
_symmetry_equiv_pos_as_xyz
1 +x,+y,+z
2 -x,+y,+z
3 +x,-y+1/2,+z
4 -x,-y+1/2,+z
-1 -x,-y,-z
-2 +x,-y,-z
-3 -x,+y+1/2,-z
-4 +x,+y+1/2,-z
101 +x+1/2,+y+1/2,+z+1/2
102 -x+1/2,+y+1/2,+z+1/2
103 +x+1/2,-y,+z+1/2
104 -x+1/2,-y,+z+1/2
-101 -x+1/2,-y+1/2,-z+1/2
-102 +x+1/2,-y+1/2,-z+1/2
-103 -x+1/2,+y,-z+1/2
-104 +x+1/2,+y,-z+1/2
loop_
_atom_site_type_symbol
_atom_site_label
_atom_site_fract_x
_atom_site_fract_y
_atom_site_fract_z
_atom_site_occupancy
_atom_site_thermal_displace_type
_atom_site_U_iso_or_equiv
_atom_site_symmetry_multiplicity
Al Al1 0.25 0.25 0.75 1.0 Uiso 0.0178(17) 4
F F1 0.0 0.25 0.6909(6) 1.0 Uiso 0.0073(12) 4
O O1 0.1693(6) 0.16838(24) 0.83985(32) 1.0 Uiso 0.0073(12) 16
C C1 -0.1936(7) 0.0254(5) 0.9543(7) 1.0 Uiso 0.0304(24) 16
C C2 0.0 0.0644(6) 0.9451(9) 1.0 Uiso 0.0304(24) 8
C C3 0.0 0.1396(7) 0.8733(9) 1.0 Uiso 0.0304(24) 8
loop_
_atom_type_symbol
_atom_type_number_in_cell
_atom_type_scat_dispersion_real
_atom_type_scat_dispersion_imag
_atom_type_scat_Cromer_Mann_a1
_atom_type_scat_Cromer_Mann_a2
_atom_type_scat_Cromer_Mann_a3
_atom_type_scat_Cromer_Mann_a4
_atom_type_scat_Cromer_Mann_b1
_atom_type_scat_Cromer_Mann_b2
_atom_type_scat_Cromer_Mann_b3
_atom_type_scat_Cromer_Mann_b4
_atom_type_scat_Cromer_Mann_c
_atom_type_scat_source
Al 4.0 0.000 0.000 6.42020 3.03870 1.90020 0.74260 1.59360 31.5472 1.96460
85.0886 1.11510 International_Tables_Vol_C
F 4.0 0.000 0.000 3.53920 10.2825 2.64120 4.29440 1.51700 0.26150 1.02430
26.1476 0.27760 International_Tables_Vol_C
O 16.0 0.000 0.000 3.04850 13.2771 2.28680 5.70110 1.54630 0.32390 0.86700
32.9089 0.25080 International_Tables_Vol_C
C 32.0 0.000 0.000 2.31000 20.8439 1.02000 10.2075 1.58860 0.56870 0.86500
51.6512 0.21560 International_Tables_Vol_C
loop_
_geom_angle_atom_site_label_1
_geom_angle_atom_site_label_2
_geom_angle_atom_site_label_3
_geom_angle
_geom_angle_site_symmetry_1
_geom_angle_site_symmetry_3
_geom_angle_publ_flag
F1 Al1 F1 180.0 1_555 -101_546 n
F1 Al1 O1 90.86(17) 1_555 1_555 n
F1 Al1 O1 90.86(17) 1_555 3_555 n
F1 Al1 O1 89.14(17) 1_555 -101_566 n
F1 Al1 O1 89.14(17) 1_555 -103_566 n
F1 Al1 O1 89.14(17) -101_566 1_555 n
F1 Al1 O1 89.14(17) -101_566 3_555 n
F1 Al1 O1 90.86(17) -101_566 -101_566 n
F1 Al1 O1 90.86(17) -101_566 -103_566 n
O1 Al1 O1 91.75(30) 1_555 3_555 n
O1 Al1 O1 180.0 1_555 -101_566 n
O1 Al1 O1 88.25(30) 1_555 -103_566 n
O1 Al1 O1 88.25(30) 3_555 -101_566 n
O1 Al1 O1 180.0 3_555 -103_566 n
O1 Al1 O1 91.75(30) -101_566 -103_566 n
Al1 F1 Al1 129.3(4) 1_555 2_555 n
Al1 O1 C3 136.7(5) 1_555 1_555 n
C1 C1 C2 108.9(7) -2_557 1_555 n
C1 C2 C1 125.8(11) 1_555 2_555 n
C1 C2 C3 114.0(6) 1_555 1_555 n
C1 C2 C3 114.0(6) 2_555 1_555 n
O1 C3 O1 119.7(9) 1_555 2_555 n
O1 C3 C2 120.0(5) 1_555 1_555 n
O1 C3 C2 120.0(5) 2_555 1_555 n
loop_
_geom_bond_atom_site_label_1
_geom_bond_atom_site_label_2
_geom_bond_distance
_geom_bond_site_symmetry_2
_geom_bond_publ_flag
Al1 F1 1.8174(32) 1_555 n
Al1 F1 1.8174(32) -101_445 n
Al1 O1 1.8627(31) 1_555 n
Al1 O1 1.8627(31) 3_555 n
Al1 O1 1.8627(31) -101_445 n
Al1 O1 1.8627(31) -103_445 n
F1 Al1 1.8174(32) 1_555 n
F1 Al1 1.8174(32) 2_555 n
O1 Al1 1.8627(31) 1_555 n
O1 C3 1.286(5) 1_555 n
C1 C1 1.464(12) -2_557 n
C1 C2 1.428(6) 1_555 n
C2 C1 1.428(6) 1_555 n
C2 C1 1.428(6) 2_555 n
C2 C3 1.553(10) 1_555 n
C3 O1 1.286(5) 1_555 n
C3 O1 1.286(5) 2_555 n
C3 C2 1.553(10) 1_555 n
loop_
_pd_meas_intensity_total
_pd_proc_ls_weight
_pd_proc_intensity_bkg_calc
_pd_calc_intensity_total
16.0(21) 0.0 0.00 .
14.4(21) 0.0 0.00 .
23.1(28) 0.0 0.00 .
26.5(28) 0.0 0.00 .
39.8(35) 0.0 0.00 .
206(7) 0.0 0.0 .
153(6) 0.0 0.0 .
986(17) 0.0 0.0 .
1748(22) 0.0 0.0 .
3395(31) 0.0 0.0 .
4067(33) 0.0 0.0 .
3902(33) 0.0 0.0 .
3998(35) 0.0 0. .
1667(22) 0.0 0.0 .
129(6) 0.0 0.0 .
75(5) 0.0 0.0 .
54(4) 0.0 0.0 .
41.1(35) 0.0 0.00 .
43(4) 0.0 0.0 .
63(4) 0.0 0.0 .
236(8) 0.0 0.0 .
391(10) 0.0 0.0 .
773(15) 0.0 0.0 .
1080(18) 0.0 0.0 .
1142(18) 0.0 0.0 .
1299(19) 0.0 0.0 .
1380(20) 0.0 0.0 .
1547(22) 0.0 0.0 .
1829(23) 0.0 0.0 .
1894(23) 0.0 0.0 .
2105(24) 0.0 0.0 .
2140(25) 0.0 0.0 .
1939(24) 0.0 0.0 .
1703(22) 0.0 0.0 .
1280(19) 0.0 0.0 .
709(14) 0.0 0.0 .
377(10) 0.0 0.0 .
258(9) 0.0 0.0 .
154(7) 0.0 0.0 .
81(5) 0.0 0.0 .
50(4) 0.0 0.0 .
35.7(33) 0.0 0.00 .
31.4(30) 0.0 0.00 .
26.9(27) 0.0 0.00 .
29.6(28) 0.0 0.00 .
30.0(29) 0.0 0.00 .
33.4(31) 0.0 0.00 .
34.5(31) 0.0 0.00 .
38.4(33) 0.0 0.00 .
28.0(28) 0.0 0.00 .
35.6(32) 0.0 0.00 .
29.0(30) 0.0 0.00 .
32.1(29) 0.0 0.00 .
34.5(31) 0.0 0.00 .
27.9(28) 0.0 0.00 .
36.7(34) 0.0 0.00 .
34.6(33) 0.0 0.00 .
44(4) 0.0 0.0 .
40.5(33) 0.0 0.00 .
28.2(28) 0.0 0.00 .
29.8(30) 0.0 0.00 .
30.2(32) 0.0 0.00 .
33.8(31) 0.0 0.00 .
32.8(30) 0.0 0.00 .
33.4(31) 0.0 0.00 .
32.6(31) 0.0 0.00 .
27.2(28) 0.0 0.00 .
35.1(31) 0.0 0.00 .
34.5(30) 0.0 0.00 .
29.0(29) 0.0 0.00 .
35.8(35) 0.0 0.00 .
29.5(29) 0.0 0.00 .
25.0(26) 0.0 0.00 .
44.0(35) 0.0 0.00 .
43(4) 0.0 0.0 .
36.0(31) 0.0 0.00 .
39(4) 0.0 0.0 .
35.2(33) 0.0 0.00 .
49(4) 0.0 0.0 .
43(4) 0.0 0.0 .
33.3(29) 0.0 0.00 .
38.3(33) 0.0 0.00 .
36.0(31) 0.0 0.00 .
30.7(29) 0.0 0.00 .
38.4(33) 0.0 0.00 .
40.4(33) 0.0 0.00 .
33.4(30) 0.0 0.00 .
34.4(30) 0.0 0.00 .
43.0(35) 0.0 0.00 .
39.3(33) 0.0 0.00 .
35.7(31) 0.0 0.00 .
44(4) 0.0 0.0 .
47(4) 0.0 0.0 .
47(4) 0.0 0.0 .
43.3(35) 0.0 0.00 .
61(4) 0.0 0.0 .
63(4) 0.0 0.0 .
80(5) 0.0 0.0 .
87(5) 0.0 0.0 .
92(5) 0.0 0.0 .
114(6) 0.0 0.0 .
115(6) 0.0 0.0 .
114(6) 0.0 0.0 .
133(6) 0.0 0.0 .
129(6) 0.0 0.0 .
136(6) 0.0 0.0 .
158(7) 0.0 0.0 .
175(7) 0.0 0.0 .
185(7) 0.0 0.0 .
186(7) 0.0 0.0 .
188(7) 0.0 0.0 .
197(7) 0.0 0.0 .
197(7) 0.0 0.0 .
228(8) 0.0 0.0 .
231(8) 0.0 0.0 .
217(8) 0.0 0.0 .
239(8) 0.0 0.0 .
237(8) 0.0 0.0 .
246(8) 0.0 0.0 .
277(9) 0.0 0.0 .
292(9) 0.0 0.0 .
288(9) 0.0 0.0 .
305(9) 0.0 0.0 .
317(9) 0.0 0.0 .
315(9) 0.0 0.0 .
312(10) 0.0 0.0 .
319(10) 0.0 0.0 .
350(10) 0.0 0.0 .
344(10) 0.0 0.0 .
347(10) 0.0 0.0 .
357(10) 0.0 0.0 .
388(11) 0.0 0.0 .
376(10) 0.0 0.0 .
372(10) 0.0 0.0 .
406(11) 0.0 0.0 .
378(11) 0.0 0.0 .
390(11) 0.0 0.0 .
451(11) 0.0 0.0 .
437(11) 0.0 0.0 .
459(12) 0.0 0.0 .
466(12) 0.0 0.0 .
448(11) 0.0 0.0 .
478(11) 0.0 0.0 .
448(11) 0.0 0.0 .
470(12) 0.0 0.0 .
473(12) 0.0 0.0 .
517(12) 0.0 0.0 .
496(12) 0.0 0.0 .
513(12) 0.0 0.0 .
499(12) 0.0 0.0 .
505(12) 0.0 0.0 .
523(12) 0.0 0.0 .
540(12) 0.0 0.0 .
503(12) 0.0 0.0 .
499(12) 0.0 0.0 .
522(12) 0.0 0.0 .
525(12) 0.0 0.0 .
545(12) 0.0 0.0 .
555(13) 0.0 0.0 .
524(12) 0.0 0.0 .
570(13) 0.0 0.0 .
594(13) 0.0 0.0 .
533(12) 0.0 0.0 .
567(13) 0.0 0.0 .
603(14) 0.0 0.0 .
616(13) 0.0 0.0 .
574(13) 0.0 0.0 .
555(12) 0.0 0.0 .
586(13) 0.0 0.0 .
592(13) 0.0 0.0 .
619(13) 0.0 0.0 .
609(13) 0.0 0.0 .
588(13) 0.0 0.0 .
599(13) 0.0 0.0 .
623(14) 0.0 0.0 .
592(13) 0.0 0.0 .
612(13) 0.0 0.0 .
631(13) 0.0 0.0 .
595(13) 0.0 0.0 .
620(14) 0.0 0.0 .
594(13) 0.0 0.0 .
636(13) 0.0 0.0 .
632(13) 0.0 0.0 .
611(13) 0.0 0.0 .
591(13) 0.0 0.0 .
572(13) 0.0 0.0 .
631(13) 0.0 0.0 .
640(13) 0.0 0.0 .
649(14) 0.0 0.0 .
637(14) 0.0 0.0 .
641(13) 0.0 0.0 .
647(13) 0.0 0.0 .
676(14) 0.0 0.0 .
665(14) 0.0 0.0 .
657(14) 0.0 0.0 .
676(14) 0.0 0.0 .
660(13) 0.0 0.0 .
667(14) 0.0 0.0 .
647(14) 0.0 0.0 .
695(14) 0.0 0.0 .
683(14) 0.0 0.0 .
681(13) 0.0 0.0 .
703(14) 0.0 0.0 .
718(15) 0.0 0.0 .
674(14) 0.0 0.0 .
710(14) 0.0 0.0 .
685(14) 0.0 0.0 .
690(14) 0.0 0.0 .
718(15) 0.0 0.0 .
719(14) 0.0 0.0 .
719(14) 0.0 0.0 .
731(14) 0.0 0.0 .
733(15) 0.0 0.0 .
712(15) 0.0 0.0 .
713(14) 0.0 0.0 .
717(14) 0.0 0.0 .
731(14) 0.0 0.0 .
755(15) 0.0 0.0 .
726(15) 0.0 0.0 .
773(15) 0.0 0.0 .
753(14) 0.0 0.0 .
802(15) 0.0 0.0 .
783(15) 0.0 0.0 .
744(15) 0.0 0.0 .
728(14) 0.0 0.0 .
767(14) 0.0 0.0 .
763(14) 0.0 0.0 .
765(15) 0.0 0.0 .
751(15) 0.0 0.0 .
786(15) 0.0 0.0 .
781(15) 0.0 0.0 .
752(14) 0.0 0.0 .
788(15) 0.0 0.0 .
811(15) 0.0 0.0 .
785(15) 0.0 0.0 .
796(15) 0.0 0.0 .
763(15) 0.0 0.0 .
838(16) 0.0 0.0 .
808(15) 0.0 0.0 .
791(15) 0.0 0.0 .
785(15) 0.0 0.0 .
838(16) 0.0 0.0 .
796(15) 0.0 0.0 .
834(16) 0.0 0.0 .
791(15) 0.0 0.0 .
817(15) 0.0 0.0 .
837(16) 0.0 0.0 .
792(15) 0.0 0.0 .
847(16) 0.0 0.0 .
826(15) 0.0 0.0 .
809(15) 0.0 0.0 .
838(16) 0.0 0.0 .
856(16) 0.0 0.0 .
835(16) 0.0 0.0 .
803(15) 0.0 0.0 .
861(15) 0.0 0.0 .
850(16) 0.0 0.0 .
834(16) 0.0 0.0 .
838(15) 0.0 0.0 .
877(15) 0.0 0.0 .
842(15) 0.0 0.0 .
855(16) 0.0 0.0 .
863(16) 0.0 0.0 .
838(15) 0.0 0.0 .
856(15) 0.0 0.0 .
867(15) 0.0 0.0 .
880(16) 0.0 0.0 .
893(16) 0.0 0.0 .
880(16) 0.0 0.0 .
871(15) 0.0 0.0 .
851(15) 0.0 0.0 .
827(15) 0.0 0.0 .
887(16) 0.0 0.0 .
887(16) 0.0 0.0 .
890(16) 0.0 0.0 .
879(15) 0.0 0.0 .
863(16) 0.0 0.0 .
889(16) 0.0 0.0 .
926(16) 0.0 0.0 .
877(15) 0.0 0.0 .
884(16) 0.0 0.0 .
879(16) 0.0 0.0 .
872(16) 0.0 0.0 .
909(16) 0.0 0.0 .
895(16) 0.0 0.0 .
887(16) 0.0 0.0 .
907(16) 0.0 0.0 .
967(17) 0.0 0.0 .
898(16) 0.0 0.0 .
924(16) 0.0 0.0 .
928(16) 0.0 0.0 .
897(16) 0.0 0.0 .
916(16) 0.0 0.0 .
865(16) 0.0 0.0 .
901(16) 0.0 0.0 .
908(16) 0.0 0.0 .
890(16) 0.0 0.0 .
923(16) 0.0 0.0 .
923(16) 0.0 0.0 .
925(16) 0.0 0.0 .
904(16) 0.0 0.0 .
930(17) 0.0 0.0 .
890(16) 0.0 0.0 .
927(16) 0.0 0.0 .
925(16) 0.0 0.0 .
937(16) 0.0 0.0 .
957(17) 0.0 0.0 .
933(17) 0.0 0.0 .
951(16) 0.0 0.0 .
942(16) 0.0 0.0 .
929(16) 0.0 0.0 .
948(17) 0.0 0.0 .
956(16) 0.0 0.0 .
954(16) 0.0 0.0 .
923(16) 0.0 0.0 .
945(16) 0.0 0.0 .
991(18) 0.0 0.0 .
987(17) 0.0 0.0 .
957(16) 0.0 0.0 .
942(16) 0.0 0.0 .
939(16) 0.0 0.0 .
987(17) 0.0 0.0 .
969(17) 0.0 0.0 .
927(16) 0.0 0.0 .
982(16) 0.0 0.0 .
998(17) 0.0 0.0 .
1007(17) 0.0 0.0 .
1026(17) 0.0 0.0 .
1023(17) 0.0 0.0 .
979(16) 0.0 0.0 .
1000(17) 0.0 0.0 .
962(17) 0.0 0.0 .
1003(17) 0.0 0.0 .
1007(16) 0.0 0.0 .
985(16) 0.0 0.0 .
1023(17) 0.0 0.0 .
1027(17) 0.0 0.0 .
1058(17) 0.0 0.0 .
1022(17) 0.0 0.0 .
1010(17) 0.0 0.0 .
973(17) 0.0 0.0 .
1025(17) 0.0 0.0 .
1044(17) 0.0 0.0 .
1018(17) 0.0 0.0 .
1036(17) 0.0 0.0 .
987(17) 0.0 0.0 .
1013(17) 0.0 0.0 .
1044(17) 0.0 0.0 .
999(16) 0.0 0.0 .
1026(17) 0.0 0.0 .
1064(18) 0.0 0.0 .
1044(17) 0.0 0.0 .
1056(17) 0.0 0.0 .
1050(17) 0.0 0.0 .
1070(18) 0.0 0.0 .
1073(18) 0.0 0.0 .
1073(17) 0.0 0.0 .
1078(17) 0.0 0.0 .
1043(17) 0.0 0.0 .
1041(17) 0.0 0.0 .
1113(19) 0.0 0.0 .
1089(18) 0.0 0.0 .
1084(17) 0.0 0.0 .
1056(17) 0.0 0.0 .
1067(17) 0.0 0.0 .
1102(19) 0.0 0.0 .
1048(17) 0.0 0.0 .
1098(17) 0.0 0.0 .
1063(17) 0.0 0.0 .
1103(18) 0.0 0.0 .
1152(19) 0.0 0.0 .
1120(18) 0.0 0.0 .
1090(17) 0.0 0.0 .
1098(17) 0.0 0.0 .
1131(18) 0.0 0.0 .
1175(19) 0.0 0.0 .
1098(18) 0.0 0.0 .
1134(17) 0.0 0.0 .
1136(18) 0.0 0.0 .
1151(18) 0.0 0.0 .
1092(18) 0.0 0.0 .
1121(18) 0.0 0.0 .
1117(17) 0.0 0.0 .
1105(17) 0.0 0.0 .
1126(18) 0.0 0.0 .
1161(19) 0.0 0.0 .
1172(18) 0.0 0.0 .
1231(18) 0.0 0.0 .
1137(18) 0.0 0.0 .
1174(19) 0.0 0.0 .
1119(18) 0.0 0.0 .
1111(18) 0.0 0.0 .
1182(18) 0.0 0.0 .
1135(18) 0.0 0.0 .
1132(18) 0.0 0.0 .
1171(18) 0.0 0.0 .
1163(18) 0.0 0.0 .
1169(18) 0.0 0.0 .
1153(18) 0.0 0.0 .
1211(19) 0.0 0.0 .
1192(18) 0.0 0.0 .
1181(18) 0.0 0.0 .
1169(18) 0.0 0.0 .
1202(19) 0.0 0.0 .
1131(18) 0.0 0.0 .
1164(18) 0.0 0.0 .
1147(18) 0.0 0.0 .
1105(17) 0.0 0.0 .
1154(18) 0.0 0.0 .
1142(19) 0.0 0.0 .
1162(18) 0.0 0.0 .
1160(18) 0.0 0.0 .
1185(18) 0.0 0.0 .
1177(18) 0.0 0.0 .
1190(19) 0.0 0.0 .
1202(19) 0.0 0.0 .
1217(18) 0.0 0.0 .
1128(17) 0.0 0.0 .
1183(18) 0.0 0.0 .
1186(19) 0.0 0.0 .
1190(19) 0.0 0.0 .
1158(18) 0.0 0.0 .
1196(18) 0.0 0.0 .
1159(18) 0.0 0.0 .
1218(19) 0.0 0.0 .
1250(19) 0.0 0.0 .
1235(18) 0.0 0.0 .
1223(18) 0.0 0.0 .
1222(19) 0.0 0.0 .
1194(19) 0.0 0.0 .
1194(19) 0.0 0.0 .
1188(18) 0.0 0.0 .
1232(18) 0.0 0.0 .
1190(19) 0.0 0.0 .
1208(19) 0.0 0.0 .
1219(19) 0.0 0.0 .
1254(18) 0.0 0.0 .
1229(19) 0.0 0.0 .
1208(19) 0.0 0.0 .
1215(19) 0.0 0.0 .
1223(19) 0.0 0.0 .
1201(18) 0.0 0.0 .
1220(19) 0.0 0.0 .
1222(19) 0.0 0.0 .
1231(19) 0.0 0.0 .
1204(19) 0.0 0.0 .
1244(18) 0.0 0.0 .
1236(19) 0.0 0.0 .
1188(19) 0.0 0.0 .
1262(19) 0.0 0.0 .
1250(19) 0.0 0.0 .
1208(18) 0.0 0.0 .
1233(19) 0.0 0.0 .
1209(19) 0.0 0.0 .
1211(19) 0.0 0.0 .
1206(18) 0.0 0.0 .
1250(18) 0.0 0.0 .
1228(19) 0.0 0.0 .
1235(19) 0.0 0.0 .
1230(19) 0.0 0.0 .
1226(18) 0.0 0.0 .
1227(18) 0.0 0.0 .
1269(19) 0.0 0.0 .
1211(19) 0.0 0.0 .
1266(19) 0.0 0.0 .
1188(18) 0.0 0.0 .
1255(18) 0.0 0.0 .
1226(19) 0.0 0.0 .
1201(19) 0.0 0.0 .
1220(19) 0.0 0.0 .
1193(18) 0.0 0.0 .
1227(18) 0.0 0.0 .
1232(19) 0.0 0.0 .
1172(19) 0.0 0.0 .
1191(18) 0.0 0.0 .
1265(18) 0.0 0.0 .
1211(18) 0.0 0.0 .
1189(19) 0.0 0.0 .
1227(19) 0.0 0.0 .
1230(19) 0.0 0.0 .
1216(18) 0.0 0.0 .
1229(18) 0.0 0.0 .
1200(19) 0.0 0.0 .
1205(19) 0.0 0.0 .
1263(19) 0.0 0.0 .
1267(18) 0.0 0.0 .
1228(19) 0.0 0.0 .
1217(19) 0.0 0.0 .
1226(19) 0.0 0.0 .
1235(19) 0.0 0.0 .
1248(18) 0.0 0.0 .
1189(18) 0.0 0.0 .
1185(19) 0.0 0.0 .
1213(19) 0.0 0.0 .
1281(19) 0.0 0.0 .
1231(18) 0.0 0.0 .
1219(19) 0.0 0.0 .
1230(19) 0.0 0.0 .
1284(19) 0.0 0.0 .
1266(19) 0.0 0.0 .
1239(18) 0.0 0.0 .
1252(19) 0.0 0.0 .
1270(20) 0.0 0.0 .
1197(19) 0.0 0.0 .
1229(18) 0.0 0.0 .
1203(18) 0.0 0.0 .
1229(19) 0.0 0.0 .
1198(19) 0.0 0.0 .
1209(19) 0.0 0.0 .
1193(18) 0.0 0.0 .
1218(18) 0.0 0.0 .
1225(19) 0.0 0.0 .
1227(19) 0.0 0.0 .
1222(19) 0.0 0.0 .
1226(18) 0.0 0.0 .
1271(19) 0.0 0.0 .
1260(19) 0.0 0.0 .
1246(20) 0.0 0.0 .
1279(19) 0.0 0.0 .
1245(18) 0.0 0.0 .
1210(18) 0.0 0.0 .
1202(19) 0.0 0.0 .
1233(20) 0.0 0.0 .
1195(19) 0.0 0.0 .
1242(18) 0.0 0.0 .
1218(18) 0.0 0.0 .
1262(19) 0.0 0.0 .
1238(20) 0.0 0.0 .
1156(18) 0.0 0.0 .
1205(18) 0.0 0.0 .
1258(19) 0.0 0.0 .
1200(18) 0.0 0.0 .
1238(19) 0.0 0.0 .
1227(19) 0.0 0.0 .
1229(18) 0.0 0.0 .
1244(19) 0.0 0.0 .
1189(18) 0.0 0.0 .
1268(19) 0.0 0.0 .
1216(19) 0.0 0.0 .
1172(18) 0.0 0.0 .
1255(19) 0.0 0.0 .
1168(18) 0.0 0.0 .
1216(19) 0.0 0.0 .
1192(18) 0.0 0.0 .
1263(19) 0.0 0.0 .
1244(19) 0.0 0.0 .
1173(19) 0.0 0.0 .
1193(19) 0.0 0.0 .
1176(18) 0.0 0.0 .
1180(18) 0.0 0.0 .
1174(18) 0.0 0.0 .
1157(18) 0.0 0.0 .
1197(18) 0.0 0.0 .
1251(19) 0.0 0.0 .
1217(18) 0.0 0.0 .
1223(19) 0.0 0.0 .
1172(19) 0.0 0.0 .
1176(18) 0.0 0.0 .
1177(18) 0.0 0.0 .
1234(18) 0.0 0.0 .
1229(19) 0.0 0.0 .
1208(19) 0.0 0.0 .
1149(18) 0.0 0.0 .
1128(18) 0.0 0.0 .
1178(18) 0.0 0.0 .
1192(19) 0.0 0.0 .
1201(20) 0.0 0.0 .
1171(18) 0.0 0.0 .
1187(18) 0.0 0.0 .
1164(18) 0.0 0.0 .
1166(18) 0.0 0.0 .
1116(18) 0.0 0.0 .
1195(19) 0.0 0.0 .
1211(18) 0.0 0.0 .
1155(18) 0.0 0.0 .
1169(18) 0.0 0.0 .
1209(19) 0.0 0.0 .
1163(18) 0.0 0.0 .
1147(18) 0.0 0.0 .
1154(18) 0.0 0.0 .
1201(19) 0.0 0.0 .
1159(19) 0.0 0.0 .
1167(18) 0.0 0.0 .
1165(18) 0.0 0.0 .
1146(18) 0.0 0.0 .
1133(18) 0.0 0.0 .
1170(19) 0.0 0.0 .
1145(18) 0.0 0.0 .
1195(18) 0.0 0.0 .
1211(19) 0.0 0.0 .
1190(19) 0.0 0.0 .
1163(18) 0.0 0.0 .
1194(18) 0.0 0.0 .
1200(18) 0.0 0.0 .
1193(18) 0.0 0.0 .
1180(19) 0.0 0.0 .
1171(18) 0.0 0.0 .
1146(18) 0.0 0.0 .
1165(18) 0.0 0.0 .
1194(19) 0.0 0.0 .
1169(19) 0.0 0.0 .
1181(18) 0.0 0.0 .
1168(18) 0.0 0.0 .
1202(18) 0.0 0.0 .
1162(18) 0.0 0.0 .
1167(19) 0.0 0.0 .
1130(18) 0.0 0.0 .
1172(18) 0.0 0.0 .
1165(18) 0.0 0.0 .
1129(18) 0.0 0.0 .
1148(19) 0.0 0.0 .
1200(19) 0.0 0.0 .
1234(18) 0.0 0.0 .
1187(18) 0.0 0.0 .
1134(18) 0.0 0.0 .
1161(19) 0.0 0.0 .
1124(18) 0.0 0.0 .
1143(18) 0.0 0.0 .
1159(18) 0.0 0.0 .
1152(18) 0.0 0.0 .
1147(19) 0.0 0.0 .
1180(18) 0.0 0.0 .
1103(17) 0.0 0.0 .
1180(18) 0.0 0.0 .
1198(19) 0.0 0.0 .
1166(19) 0.0 0.0 .
1146(18) 0.0 0.0 .
1122(17) 0.0 0.0 .
1129(18) 0.0 0.0 .
1165(18) 0.0 0.0 .
1127(18) 0.0 0.0 .
1123(18) 0.0 0.0 .
1106(17) 0.0 0.0 .
1128(18) 0.0 0.0 .
1139(18) 0.0 0.0 .
1153(18) 0.0 0.0 .
1173(18) 0.0 0.0 .
1105(17) 0.0 0.0 .
1129(18) 0.0 0.0 .
1088(18) 0.0 0.0 .
1137(18) 0.0 0.0 .
1105(18) 0.0 0.0 .
1141(18) 0.0 0.0 .
1160(18) 0.0 0.0 .
1130(18) 0.0 0.0 .
1123(18) 0.0 0.0 .
1107(18) 0.0 0.0 .
1115(17) 0.0 0.0 .
1115(18) 0.0 0.0 .
1093(18) 0.0 0.0 .
1135(18) 0.0 0.0 .
1097(17) 0.0 0.0 .
1106(17) 0.0 0.0 .
1126(18) 0.0 0.0 .
1129(18) 0.0 0.0 .
1149(18) 0.0 0.0 .
1055(17) 0.0 0.0 .
1104(17) 0.0 0.0 .
1111(18) 0.0 0.0 .
1139(19) 0.0 0.0 .
1115(18) 0.0 0.0 .
1095(17) 0.0 0.0 .
1107(17) 0.0 0.0 .
1094(18) 0.0 0.0 .
1121(19) 0.0 0.0 .
1109(18) 0.0 0.0 .
1105(17) 0.0 0.0 .
1113(17) 0.0 0.0 .
1138(18) 0.0 0.0 .
1085(18) 0.0 0.0 .
1081(18) 0.0 0.0 .
1115(17) 0.0 0.0 .
1088(17) 0.0 0.0 .
1129(18) 0.0 0.0 .
1111(18) 0.0 0.0 .
1104(18) 0.0 0.0 .
1133(17) 0.0 0.0 .
1092(17) 0.0 0.0 .
1121(18) 0.0 0.0 .
1099(18) 0.0 0.0 .
1073(18) 0.0 0.0 .
1069(17) 0.0 0.0 .
1118(18) 0.0 0.0 .
1064(17) 0.0 0.0 .
1057(18) 0.0 0.0 .
1106(18) 0.0 0.0 .
1112(17) 0.0 0.0 .
1087(17) 0.0 0.0 .
1084(18) 0.0 0.0 .
1083(18) 0.0 0.0 .
1044(17) 0.0 0.0 .
1096(17) 0.0 0.0 .
1131(18) 0.0 0.0 .
1115(18) 0.0 0.0 .
1047(17) 0.0 0.0 .
1049(17) 0.0 0.0 .
1020(16) 0.0 0.0 .
1009(17) 0.0 0.0 .
1084(18) 0.0 0.0 .
1022(17) 0.0 0.0 .
1053(17) 0.0 0.0 .
1071(17) 0.0 0.0 .
1063(18) 0.0 0.0 .
1030(17) 0.0 0.0 .
1081(18) 0.0 0.0 .
1094(17) 0.0 0.0 .
1053(17) 0.0 0.0 .
1073(18) 0.0 0.0 .
1058(18) 0.0 0.0 .
1070(18) 0.0 0.0 .
1030(17) 0.0 0.0 .
1057(17) 0.0 0.0 .
1044(17) 0.0 0.0 .
1068(18) 0.0 0.0 .
1027(17) 0.0 0.0 .
1060(17) 0.0 0.0 .
1015(17) 0.0 0.0 .
1037(17) 0.0 0.0 .
1049(18) 0.0 0.0 .
1047(17) 0.0 0.0 .
1010(16) 0.0 0.0 .
1033(17) 0.0 0.0 .
1052(18) 0.0 0.0 .
1005(17) 0.0 0.0 .
1037(17) 0.0 0.0 .
1062(17) 0.0 0.0 .
1081(17) 0.0 0.0 .
1019(17) 0.0 0.0 .
1041(18) 0.0 0.0 .
1049(17) 0.0 0.0 .
1045(17) 0.0 0.0 .
995(16) 0.0 0.0 .
1004(17) 0.0 0.0 .
1023(18) 0.0 0.0 .
991(17) 0.0 0.0 .
998(16) 0.0 0.0 .
1000(17) 0.0 0.0 .
1014(17) 0.0 0.0 .
1016(17) 0.0 0.0 .
1005(17) 0.0 0.0 .
993(16) 0.0 0.0 .
1019(17) 0.0 0.0 .
1034(17) 0.0 0.0 .
995(17) 0.0 0.0 .
1028(17) 0.0 0.0 .
1020(17) 0.0 0.0 .
990(17) 0.0 0.0 .
957(17) 0.0 0.0 .
976(17) 0.0 0.0 .
1017(17) 0.0 0.0 .
1017(17) 0.0 0.0 .
991(17) 0.0 0.0 .
990(17) 0.0 0.0 .
994(17) 0.0 0.0 .
979(16) 0.0 0.0 .
1010(16) 0.0 0.0 .
1027(17) 0.0 0.0 .
1019(18) 0.0 0.0 .
1054(18) 0.0 0.0 .
1024(17) 0.0 0.0 .
1022(17) 0.0 0.0 .
983(17) 0.0 0.0 .
993(17) 0.0 0.0 .
969(17) 0.0 0.0 .
1000(16) 0.0 0.0 .
989(16) 0.0 0.0 .
983(17) 0.0 0.0 .
1003(18) 0.0 0.0 .
993(17) 0.0 0.0 .
980(16) 0.0 0.0 .
977(16) 0.0 0.0 .
976(17) 0.0 0.0 .
982(17) 0.0 0.0 .
1008(17) 0.0 0.0 .
994(16) 0.0 0.0 .
1031(17) 0.0 0.0 .
1010(17) 0.0 0.0 .
1010(17) 0.0 0.0 .
1003(17) 0.0 0.0 .
994(16) 0.0 0.0 .
980(17) 0.0 0.0 .
985(17) 0.0 0.0 .
992(17) 0.0 0.0 .
999(17) 0.0 0.0 .
971(16) 0.0 0.0 .
955(16) 0.0 0.0 .
941(16) 0.0 0.0 .
993(17) 0.0 0.0 .
988(17) 0.0 0.0 .
1013(17) 0.0 0.0 .
995(17) 0.0 0.0 .
954(17) 0.0 0.0 .
992(17) 0.0 0.0 .
1042(17) 0.0 0.0 .
954(16) 0.0 0.0 .
965(16) 0.0 0.0 .
949(17) 0.0 0.0 .
1006(17) 0.0 0.0 .
929(16) 0.0 0.0 .
960(16) 0.0 0.0 .
952(17) 0.0 0.0 .
950(17) 0.0 0.0 .
955(17) 0.0 0.0 .
964(16) 0.0 0.0 .
971(16) 0.0 0.0 .
972(17) 0.0 0.0 .
971(17) 0.0 0.0 .
932(16) 0.0 0.0 .
955(16) 0.0 0.0 .
978(16) 0.0 0.0 .
992(17) 0.0 0.0 .
945(17) 0.0 0.0 .
996(17) 0.0 0.0 .
968(16) 0.0 0.0 .
974(16) 0.0 0.0 .
1017(17) 0.0 0.0 .
944(17) 0.0 0.0 .
934(16) 0.0 0.0 .
949(16) 0.0 0.0 .
967(16) 0.0 0.0 .
983(17) 0.0 0.0 .
973(17) 0.0 0.0 .
930(16) 0.0 0.0 .
944(16) 0.0 0.0 .
960(16) 0.0 0.0 .
928(16) 0.0 0.0 .
959(17) 0.0 0.0 .
949(16) 0.0 0.0 .
922(16) 0.0 0.0 .
959(16) 0.0 0.0 .
954(17) 0.0 0.0 .
934(17) 0.0 0.0 .
984(17) 0.0 0.0 .
916(16) 0.0 0.0 .
964(16) 0.0 0.0 .
926(16) 0.0 0.0 .
985(17) 0.0 0.0 .
979(17) 0.0 0.0 .
943(16) 0.0 0.0 .
921(16) 0.0 0.0 .
927(17) 0.0 0.0 .
921(17) 0.0 0.0 .
921(16) 0.0 0.0 .
927(16) 0.0 0.0 .
907(16) 0.0 0.0 .
945(17) 0.0 0.0 .
969(17) 0.0 0.0 .
978(17) 0.0 0.0 .
921(16) 0.0 0.0 .
871(16) 0.0 0.0 .
926(17) 0.0 0.0 .
912(16) 0.0 0.0 .
904(16) 0.0 0.0 .
906(16) 0.0 0.0 .
907(16) 0.0 0.0 .
903(16) 0.0 0.0 .
917(16) 0.0 0.0 .
901(16) 0.0 0.0 .
891(15) 0.0 0.0 .
929(16) 0.0 0.0 .
931(17) 0.0 0.0 .
929(16) 0.0 0.0 .
926(16) 0.0 0.0 .
931(16) 0.0 0.0 .
930(16) 0.0 0.0 .
914(17) 0.0 0.0 .
936(16) 0.0 0.0 .
917(16) 0.0 0.0 .
900(16) 0.0 0.0 .
887(16) 0.0 0.0 .
913(17) 0.0 0.0 .
892(16) 0.0 0.0 .
909(16) 0.0 0.0 .
863(15) 0.0 0.0 .
942(17) 0.0 0.0 .
894(16) 0.0 0.0 .
885(16) 0.0 0.0 .
899(16) 0.0 0.0 .
879(15) 0.0 0.0 .
885(16) 0.0 0.0 .
931(17) 0.0 0.0 .
908(16) 0.0 0.0 .
886(15) 0.0 0.0 .
919(16) 0.0 0.0 .
868(16) 0.0 0.0 .
953(17) 0.0 0.0 .
915(16) 0.0 0.0 .
901(16) 0.0 0.0 .
907(16) 0.0 0.0 .
928(16) 0.0 0.0 .
890(16) 0.0 0.0 .
899(16) 0.0 0.0 .
892(16) 0.0 0.0 .
889(16) 0.0 0.0 .
920(17) 0.0 0.0 .
882(16) 0.0 0.0 .
877(16) 0.0 0.0 .
907(16) 0.0 0.0 .
889(16) 0.0 0.0 .
898(16) 0.0 0.0 .
876(16) 0.0 0.0 .
901(16) 0.0 0.0 .
905(16) 0.0 0.0 .
887(16) 0.0 0.0 .
885(16) 0.0 0.0 .
899(16) 0.0 0.0 .
930(16) 0.0 0.0 .
885(15) 0.0 0.0 .
895(16) 0.0 0.0 .
906(16) 0.0 0.0 .
908(16) 0.0 0.0 .
892(16) 0.0 0.0 .
950(16) 0.0 0.0 .
871(16) 0.0 0.0 .
888(17) 0.0 0.0 .
869(16) 0.0 0.0 .
908(16) 0.0 0.0 .
893(16) 0.0 0.0 .
922(16) 0.0 0.0 .
874(16) 0.0 0.0 .
904(16) 0.0 0.0 .
915(16) 0.0 0.0 .
861(15) 0.0 0.0 .
829(15) 0.0 0.0 .
857(16) 0.0 0.0 .
909(16) 0.0 0.0 .
925(16) 0.0 0.0 .
850(15) 0.0 0.0 .
882(16) 0.0 0.0 .
879(17) 0.0 0.0 .
864(16) 0.0 0.0 .
841(15) 0.0 0.0 .
862(15) 0.0 0.0 .
907(16) 0.0 0.0 .
843(16) 0.0 0.0 .
853(16) 0.0 0.0 .
874(15) 0.0 0.0 .
877(16) 0.0 0.0 .
844(16) 0.0 0.0 .
844(16) 0.0 0.0 .
852(16) 0.0 0.0 .
868(15) 0.0 0.0 .
837(15) 0.0 0.0 .
883(16) 0.0 0.0 .
895(16) 0.0 0.0 .
873(16) 0.0 0.0 .
822(15) 0.0 0.0 .
805(15) 0.0 0.0 .
834(16) 0.0 0.0 .
833(16) 0.0 0.0 .
837(15) 0.0 0.0 .
885(15) 0.0 0.0 .
851(16) 0.0 0.0 .
863(16) 0.0 0.0 .
871(16) 0.0 0.0 .
848(15) 0.0 0.0 .
825(15) 0.0 0.0 .
849(16) 0.0 0.0 .
877(16) 0.0 0.0 .
821(15) 0.0 0.0 .
858(15) 0.0 0.0 .
843(15) 0.0 0.0 .
848(16) 0.0 0.0 .
829(16) 0.0 0.0 .
803(15) 0.0 0.0 .
817(15) 0.0 0.0 .
854(15) 0.0 0.0 .
869(16) 0.0 0.0 .
830(16) 0.0 0.0 .
852(16) 0.0 0.0 .
855(15) 0.0 0.0 .
840(15) 0.0 0.0 .
850(16) 0.0 0.0 .
879(16) 0.0 0.0 .
820(15) 0.0 0.0 .
831(15) 0.0 0.0 .
847(15) 0.0 0.0 .
823(15) 0.0 0.0 .
844(16) 0.0 0.0 .
839(16) 0.0 0.0 .
842(15) 0.0 0.0 .
800(15) 0.0 0.0 .
805(15) 0.0 0.0 .
824(16) 0.0 0.0 .
852(16) 0.0 0.0 .
831(15) 0.0 0.0 .
780(15) 0.0 0.0 .
850(16) 0.0 0.0 .
861(16) 0.0 0.0 .
787(15) 0.0 0.0 .
815(15) 0.0 0.0 .
803(15) 0.0 0.0 .
802(15) 0.0 0.0 .
803(15) 0.0 0.0 .
806(15) 0.0 0.0 .
854(15) 0.0 0.0 .
806(15) 0.0 0.0 .
770(15) 0.0 0.0 .
818(15) 0.0 0.0 .
794(15) 0.0 0.0 .
871(15) 0.0 0.0 .
827(16) 0.0 0.0 .
798(16) 0.0 0.0 .
798(15) 0.0 0.0 .
802(15) 0.0 0.0 .
844(15) 0.0 0.0 .
797(15) 0.0 0.0 .
856(16) 0.0 0.0 .
842(16) 0.0 0.0 .
824(15) 0.0 0.0 .
793(15) 0.0 0.0 .
784(15) 0.0 0.0 .
791(15) 0.0 0.0 .
799(15) 0.0 0.0 .
792(15) 0.0 0.0 .
811(15) 0.0 0.0 .
816(15) 0.0 0.0 .
793(16) 0.0 0.0 .
806(15) 0.0 0.0 .
811(15) 0.0 0.0 .
807(15) 0.0 0.0 .
788(15) 0.0 0.0 .
802(16) 0.0 0.0 .
791(15) 0.0 0.0 .
789(14) 0.0 0.0 .
786(15) 0.0 0.0 .
779(15) 0.0 0.0 .
806(16) 0.0 0.0 .
787(15) 0.0 0.0 .
802(15) 0.0 0.0 .
766(14) 0.0 0.0 .
787(15) 0.0 0.0 .
791(16) 0.0 0.0 .
808(15) 0.0 0.0 .
801(15) 0.0 0.0 .
804(15) 0.0 0.0 .
775(15) 0.0 0.0 .
796(15) 0.0 0.0 .
799(15) 0.0 0.0 .
777(14) 0.0 0.0 .
765(15) 0.0 0.0 .
765(15) 0.0 0.0 .
779(15) 0.0 0.0 .
797(15) 0.0 0.0 .
772(14) 0.0 0.0 .
800(15) 0.0 0.0 .
783(15) 0.0 0.0 .
824(16) 0.0 0.0 .
767(15) 0.0 0.0 .
788(15) 0.0 0.0 .
755(15) 0.0 0.0 .
757(15) 0.0 0.0 .
770(15) 0.0 0.0 .
762(15) 0.0 0.0 .
757(14) 0.0 0.0 .
749(15) 0.0 0.0 .
794(16) 0.0 0.0 .
751(15) 0.0 0.0 .
766(15) 0.0 0.0 .
789(15) 0.0 0.0 .
794(15) 0.0 0.0 .
736(15) 0.0 0.0 .
777(15) 0.0 0.0 .
748(14) 0.0 0.0 .
746(14) 0.0 0.0 .
819(15) 0.0 0.0 .
766(15) 0.0 0.0 .
761(15) 0.0 0.0 .
719(14) 0.0 0.0 .
715(14) 0.0 0.0 .
756(15) 0.0 0.0 .
781(16) 0.0 0.0 .
777(15) 0.0 0.0 .
768(14) 0.0 0.0 .
780(15) 0.0 0.0 .
760(15) 0.0 0.0 .
809(16) 0.0 0.0 .
791(15) 0.0 0.0 .
760(14) 0.0 0.0 .
782(15) 0.0 0.0 .
747(15) 0.0 0.0 .
768(15) 0.0 0.0 .
764(15) 0.0 0.0 .
730(14) 0.0 0.0 .
756(14) 0.0 0.0 .
755(15) 0.0 0.0 .
785(15) 0.0 0.0 .
763(15) 0.0 0.0 .
761(14) 0.0 0.0 .
729(14) 0.0 0.0 .
736(15) 0.0 0.0 .
744(15) 0.0 0.0 .
736(14) 0.0 0.0 .
768(14) 0.0 0.0 .
755(15) 0.0 0.0 .
721(14) 0.0 0.0 .
761(15) 0.0 0.0 .
761(15) 0.0 0.0 .
746(14) 0.0 0.0 .
710(14) 0.0 0.0 .
726(15) 0.0 0.0 .
751(15) 0.0 0.0 .
728(14) 0.0 0.0 .
742(14) 0.0 0.0 .
746(15) 0.0 0.0 .
741(15) 0.0 0.0 .
744(15) 0.0 0.0 .
696(14) 0.0 0.0 .
705(14) 0.0 0.0 .
710(14) 0.0 0.0 .
693(14) 0.0 0.0 .
734(15) 0.0 0.0 .
706(14) 0.0 0.0 .
722(14) 0.0 0.0 .
734(15) 0.0 0.0 .
733(15) 0.0 0.0 .
693(14) 0.0 0.0 .
697(14) 0.0 0.0 .
725(14) 0.0 0.0 .
735(15) 0.0 0.0 .
746(15) 0.0 0.0 .
693(14) 0.0 0.0 .
712(14) 0.0 0.0 .
750(14) 0.0 0.0 .
760(15) 0.0 0.0 .
743(15) 0.0 0.0 .
732(15) 0.0 0.0 .
689(14) 0.0 0.0 .
692(14) 0.0 0.0 .
731(15) 0.0 0.0 .
743(15) 0.0 0.0 .
753(15) 0.0 0.0 .
759(14) 0.0 0.0 .
723(14) 0.0 0.0 .
707(14) 0.0 0.0 .
701(15) 0.0 0.0 .
731(15) 0.0 0.0 .
759(14) 0.0 0.0 .
705(14) 0.0 0.0 .
688(14) 0.0 0.0 .
693(14) 0.0 0.0 .
700(14) 0.0 0.0 .
698(14) 0.0 0.0 .
730(14) 0.0 0.0 .
698(14) 0.0 0.0 .
723(15) 0.0 0.0 .
678(14) 0.0 0.0 .
723(14) 0.0 0.0 .
734(15) 0.0 0.0 .
726(15) 0.0 0.0 .
718(14) 0.0 0.0 .
704(14) 0.0 0.0 .
678(13) 0.0 0.0 .
738(15) 0.0 0.0 .
684(14) 0.0 0.0 .
691(14) 0.0 0.0 .
721(14) 0.0 0.0 .
746(14) 0.0 0.0 .
725(14) 0.0 0.0 .
736(15) 0.0 0.0 .
706(14) 0.0 0.0 .
717(14) 0.0 0.0 .
705(14) 0.0 0.0 .
717(14) 0.0 0.0 .
725(15) 0.0 0.0 .
696(14) 0.0 0.0 .
701(14) 0.0 0.0 .
726(14) 0.0 0.0 .
733(15) 0.0 0.0 .
691(15) 0.0 0.0 .
703(14) 0.0 0.0 .
706(14) 0.0 0.0 .
678(14) 0.0 0.0 .
678(14) 0.0 0.0 .
699(15) 0.0 0.0 .
676(14) 0.0 0.0 .
709(14) 0.0 0.0 .
694(14) 0.0 0.0 .
694(14) 0.0 0.0 .
727(15) 0.0 0.0 .
711(14) 0.0 0.0 .
691(14) 0.0 0.0 .
677(14) 0.0 0.0 .
676(14) 0.0 0.0 .
704(15) 0.0 0.0 .
714(14) 0.0 0.0 .
709(14) 0.0 0.0 .
664(13) 0.0 0.0 .
666(14) 0.0 0.0 .
712(14) 0.0 0.0 .
708(14) 0.0 0.0 .
685(14) 0.0 0.0 .
690(14) 0.0 0.0 .
708(14) 0.0 0.0 .
694(14) 0.0 0.0 .
742(15) 0.0 0.0 .
699(14) 0.0 0.0 .
731(14) 0.0 0.0 .
718(15) 0.0 0.0 .
678(14) 0.0 0.0 .
706(14) 0.0 0.0 .
697(14) 0.0 0.0 .
668(14) 0.0 0.0 .
694(15) 0.0 0.0 .
716(14) 0.0 0.0 .
672(14) 0.0 0.0 .
710(14) 0.0 0.0 .
691(14) 0.0 0.0 .
673(14) 0.0 0.0 .
685(14) 0.0 0.0 .
664(13) 0.0 0.0 .
675(14) 0.0 0.0 .
678(14) 0.0 0.0 .
680(15) 0.0 0.0 .
684(14) 0.0 0.0 .
724(14) 0.0 0.0 .
709(14) 0.0 0.0 .
651(14) 0.0 0.0 .
661(14) 0.0 0.0 .
687(14) 0.0 0.0 .
690(14) 0.0 0.0 .
706(14) 0.0 0.0 .
693(14) 0.0 0.0 .
668(15) 0.0 0.0 .
667(14) 0.0 0.0 .
708(14) 0.0 0.0 .
635(13) 0.0 0.0 .
652(14) 0.0 0.0 .
681(15) 0.0 0.0 .
660(14) 0.0 0.0 .
638(13) 0.0 0.0 .
663(13) 0.0 0.0 .
664(14) 0.0 0.0 .
672(14) 0.0 0.0 .
650(14) 0.0 0.0 .
675(13) 0.0 0.0 .
680(14) 0.0 0.0 .
666(14) 0.0 0.0 .
646(14) 0.0 0.0 .
641(14) 0.0 0.0 .
699(14) 0.0 0.0 .
694(14) 0.0 0.0 .
673(14) 0.0 0.0 .
664(14) 0.0 0.0 .
686(14) 0.0 0.0 .
676(13) 0.0 0.0 .
678(14) 0.0 0.0 .
650(14) 0.0 0.0 .
699(14) 0.0 0.0 .
679(14) 0.0 0.0 .
680(14) 0.0 0.0 .
658(14) 0.0 0.0 .
677(14) 0.0 0.0 .
666(14) 0.0 0.0 .
673(14) 0.0 0.0 .
663(13) 0.0 0.0 .
678(14) 0.0 0.0 .
659(14) 0.0 0.0 .
681(14) 0.0 0.0 .
684(14) 0.0 0.0 .
648(13) 0.0 0.0 .
652(14) 0.0 0.0 .
653(14) 0.0 0.0 .
667(14) 0.0 0.0 .
676(14) 0.0 0.0 .
666(13) 0.0 0.0 .
685(14) 0.0 0.0 .
627(14) 0.0 0.0 .
646(14) 0.0 0.0 .
656(13) 0.0 0.0 .
630(13) 0.0 0.0 .
686(14) 0.0 0.0 .
653(14) 0.0 0.0 .
624(13) 0.0 0.0 .
660(13) 0.0 0.0 .
648(13) 0.0 0.0 .
687(14) 0.0 0.0 .
636(14) 0.0 0.0 .
652(14) 0.0 0.0 .
617(13) 0.0 0.0 .
644(13) 0.0 0.0 .
627(13) 0.0 0.0 .
656(14) 0.0 0.0 .
678(14) 0.0 0.0 .
654(13) 0.0 0.0 .
650(13) 0.0 0.0 .
632(13) 0.0 0.0 .
652(14) 0.0 0.0 .
657(14) 0.0 0.0 .
675(13) 0.0 0.0 .
635(13) 0.0 0.0 .
628(13) 0.0 0.0 .
650(14) 0.0 0.0 .
655(14) 0.0 0.0 .
664(13) 0.0 0.0 .
637(13) 0.0 0.0 .
645(14) 0.0 0.0 .
651(14) 0.0 0.0 .
620(13) 0.0 0.0 .
670(13) 0.0 0.0 .
650(14) 0.0 0.0 .
656(14) 0.0 0.0 .
653(14) 0.0 0.0 .
673(14) 0.0 0.0 .
663(13) 0.0 0.0 .
629(13) 0.0 0.0 .
641(14) 0.0 0.0 .
664(14) 0.0 0.0 .
628(13) 0.0 0.0 .
585(13) 0.0 0.0 .
660(14) 0.0 0.0 .
669(14) 0.0 0.0 .
631(13) 0.0 0.0 .
636(13) 0.0 0.0 .
623(13) 0.0 0.0 .
643(14) 0.0 0.0 .
640(14) 0.0 0.0 .
648(14) 0.0 0.0 .
634(13) 0.0 0.0 .
666(13) 0.0 0.0 .
645(13) 0.0 0.0 .
637(14) 0.0 0.0 .
634(13) 0.0 0.0 .
657(13) 0.0 0.0 .
615(13) 0.0 0.0 .
623(13) 0.0 0.0 .
630(14) 0.0 0.0 .
635(13) 0.0 0.0 .
645(13) 0.0 0.0 .
675(14) 0.0 0.0 .
657(14) 0.0 0.0 .
646(14) 0.0 0.0 .
630(13) 0.0 0.0 .
640(13) 0.0 0.0 .
649(13) 0.0 0.0 .
618(13) 0.0 0.0 .
588(13) 0.0 0.0 .
629(13) 0.0 0.0 .
611(13) 0.0 0.0 .
621(13) 0.0 0.0 .
641(14) 0.0 0.0 .
632(14) 0.0 0.0 .
635(13) 0.0 0.0 .
631(13) 0.0 0.0 .
623(13) 0.0 0.0 .
623(13) 0.0 0.0 .
640(14) 0.0 0.0 .
645(13) 0.0 0.0 .
608(13) 0.0 0.0 .
661(14) 0.0 0.0 .
644(14) 0.0 0.0 .
624(14) 0.0 0.0 .
608(13) 0.0 0.0 .
616(13) 0.0 0.0 .
648(14) 0.0 0.0 .
634(14) 0.0 0.0 .
613(13) 0.0 0.0 .
643(13) 0.0 0.0 .
621(13) 0.0 0.0 .
626(13) 0.0 0.0 .
618(14) 0.0 0.0 .
642(14) 0.0 0.0 .
621(13) 0.0 0.0 .
638(13) 0.0 0.0 .
630(13) 0.0 0.0 .
653(14) 0.0 0.0 .
629(13) 0.0 0.0 .
679(14) 0.0 0.0 .
627(13) 0.0 0.0 .
635(14) 0.0 0.0 .
610(14) 0.0 0.0 .
643(14) 0.0 0.0 .
633(13) 0.0 0.0 .
648(13) 0.0 0.0 .
628(13) 0.0 0.0 .
647(14) 0.0 0.0 .
607(13) 0.0 0.0 .
599(13) 0.0 0.0 .
614(13) 0.0 0.0 .
640(14) 0.0 0.0 .
645(14) 0.0 0.0 .
644(14) 0.0 0.0 .
655(13) 0.0 0.0 .
613(13) 0.0 0.0 .
654(14) 0.0 0.0 .
642(14) 0.0 0.0 .
630(14) 0.0 0.0 .
648(13) 0.0 0.0 .
659(14) 0.0 0.0 .
636(14) 0.0 0.0 .
633(14) 0.0 0.0 .
634(14) 0.0 0.0 .
641(13) 0.0 0.0 .
624(13) 0.0 0.0 .
643(14) 0.0 0.0 .
623(13) 0.0 0.0 .
646(14) 0.0 0.0 .
628(13) 0.0 0.0 .
645(13) 0.0 0.0 .
625(13) 0.0 0.0 .
593(13) 0.0 0.0 .
653(14) 0.0 0.0 .
637(13) 0.0 0.0 .
631(13) 0.0 0.0 .
637(14) 0.0 0.0 .
641(14) 0.0 0.0 .
632(13) 0.0 0.0 .
615(13) 0.0 0.0 .
638(14) 0.0 0.0 .
647(14) 0.0 0.0 .
639(14) 0.0 0.0 .
648(13) 0.0 0.0 .
634(13) 0.0 0.0 .
635(14) 0.0 0.0 .
619(14) 0.0 0.0 .
639(14) 0.0 0.0 .
626(13) 0.0 0.0 .
635(13) 0.0 0.0 .
590(13) 0.0 0.0 .
622(14) 0.0 0.0 .
668(14) 0.0 0.0 .
646(13) 0.0 0.0 .
636(13) 0.0 0.0 .
662(14) 0.0 0.0 .
679(14) 0.0 0.0 .
642(13) 0.0 0.0 .
624(13) 0.0 0.0 .
620(13) 0.0 0.0 .
615(13) 0.0 0.0 .
640(14) 0.0 0.0 .
678(14) 0.0 0.0 .
660(13) 0.0 0.0 .
648(13) 0.0 0.0 .
668(14) 0.0 0.0 .
683(14) 0.0 0.0 .
684(14) 0.0 0.0 .
674(13) 0.0 0.0 .
641(13) 0.0 0.0 .
649(14) 0.0 0.0 .
672(14) 0.0 0.0 .
656(14) 0.0 0.0 .
640(13) 0.0 0.0 .
643(13) 0.0 0.0 .
647(14) 0.0 0.0 .
648(14) 0.0 0.0 .
656(14) 0.0 0.0 .
655(13) 0.0 0.0 .
673(14) 0.0 0.0 .
657(14) 0.0 0.0 .
650(14) 0.0 0.0 .
626(13) 0.0 0.0 .
637(13) 0.0 0.0 .
666(14) 0.0 0.0 .
652(14) 0.0 0.0 .
682(14) 0.0 0.0 .
694(14) 0.0 0.0 .
676(14) 0.0 0.0 .
696(14) 0.0 0.0 .
638(14) 0.0 0.0 .
661(14) 0.0 0.0 .
705(14) 0.0 0.0 .
689(14) 0.0 0.0 .
706(14) 0.0 0.0 .
692(14) 0.0 0.0 .
699(14) 0.0 0.0 .
715(14) 0.0 0.0 .
681(14) 0.0 0.0 .
692(14) 0.0 0.0 .
732(15) 0.0 0.0 .
756(15) 0.0 0.0 .
699(14) 0.0 0.0 .
696(14) 0.0 0.0 .
724(15) 0.0 0.0 .
678(14) 0.0 0.0 .
718(14) 0.0 0.0 .
725(14) 0.0 0.0 .
751(14) 0.0 0.0 .
745(15) 0.0 0.0 .
768(16) 0.0 0.0 .
751(15) 0.0 0.0 .
803(15) 0.0 0.0 .
807(15) 0.0 0.0 .
826(15) 0.0 0.0 .
804(16) 0.0 0.0 .
826(15) 0.0 0.0 .
847(15) 0.0 0.0 .
873(15) 0.0 0.0 .
864(16) 0.0 0.0 .
941(17) 0.0 0.0 .
938(16) 0.0 0.0 .
956(16) 0.0 0.0 .
963(16) 0.0 0.0 .
1017(17) 0.0 0.0 .
1080(18) 0.0 0.0 .
1119(18) 0.0 0.0 .
1094(17) 0.0 0.0 .
1184(18) 0.0 0.0 .
1231(19) 0.0 0.0 .
1324(20) 0.0 0.0 .
1358(20) 0.0 0.0 .
1423(20) 0.0 0.0 .
1450(20) 0.0 0.0 .
1500(21) 0.0 0.0 .
1586(22) 0.0 0.0 .
1674(22) 0.0 0.0 .
1733(22) 0.0 0.0 .
1853(23) 0.0 0.0 .
2007(24) 0.0 0.0 .
2111(25) 0.0 0.0 .
2333(26) 0.0 0.0 .
2578(26) 0.0 0.0 .
2808(28) 0.0 0.0 .
3177(31) 0.0 0.0 .
3576(32) 0.0 0.0 .
4067(34) 0.0 0.0 .
4637(35) 0.0 0. .
5478(40) 0.0 0. .
6328(44) 0.0 0. .
7197(46) 0.0 0. .
8386(48) 0.0 0. .
9482(51) 0.0 0. .
10734(56) 0.0 0. .
12112(62) 0.0 0. .
13383(63) 0.0 0. .
14826(64) 0.0 0. .
16205(67) 0.0 0. .
17585(72) 0.0 0. .
19684(79) 0.0 0. .
21862(81) 0.0 0. .
24249(82) 0.0 0. .
27114(88) 0.0 0. .
30462(96) 0.0 0. .
33580(100) 0.0 0. .
36290(110) 0.0 0. .
37720(100) 0.0 0. .
36470(100) 0.0 0. .
32780(100) 0.0 0. .
27813(93) 0.0 0. .
23323(83) 0.0 0. .
19343(73) 0.0 0. .
15973(68) 0.0 0. .
13272(63) 0.0 0. .
11000(58) 0.0 0. .
9316(52) 0.0 0. .
7923(46) 0.0 0. .
6664(44) 0.0 0. .
5789(41) 0.0 0. .
4946(38) 0.0 0. .
4384(35) 0.0 0. .
3897(32) 0.0 0.0 .
3535(32) 0.0 0.0 .
3119(30) 0.0 0.0 .
2836(29) 0.0 0.0 .
2539(26) 0.0 0.0 .
2281(25) 0.0 0.0 .
2125(25) 0.0 0.0 .
2024(24) 0.0 0.0 .
1826(23) 0.0 0.0 .
1686(22) 0.0 0.0 .
1592(21) 0.0 0.0 .
1513(21) 0.0 0.0 .
1433(21) 0.0 0.0 .
1378(20) 0.0 0.0 .
1352(19) 0.0 0.0 .
1256(18) 0.0 0.0 .
1144(18) 0.0 0.0 .
1147(19) 0.0 0.0 .
1069(18) 0.0 0.0 .
1055(17) 0.0 0.0 .
1025(17) 0.0 0.0 .
984(17) 0.0 0.0 .
956(17) 0.0 0.0 .
951(17) 0.0 0.0 .
970(16) 0.0 0.0 .
905(16) 0.0 0.0 .
902(16) 0.0 0.0 .
872(16) 0.0 0.0 .
837(15) 0.0 0.0 .
840(15) 0.0 0.0 .
812(15) 0.0 0.0 .
785(15) 0.0 0.0 .
789(16) 0.0 0.0 .
793(15) 0.0 0.0 .
770(14) 0.0 0.0 .
760(14) 0.0 0.0 .
798(15) 0.0 0.0 .
750(15) 0.0 0.0 .
723(14) 0.0 0.0 .
756(14) 0.0 0.0 .
744(14) 0.0 0.0 .
702(14) 0.0 0.0 .
754(15) 0.0 0.0 .
695(14) 0.0 0.0 .
714(14) 0.0 0.0 .
718(14) 0.0 0.0 .
700(14) 0.0 0.0 .
678(14) 0.0 0.0 .
650(14) 0.0 0.0 .
663(13) 0.0 0.0 .
694(14) 0.0 0.0 .
665(14) 0.0 0.0 .
661(14) 0.0 0.0 .
677(14) 0.0 0.0 .
673(13) 0.0 0.0 .
673(14) 0.0 0.0 .
685(14) 0.0 0.0 .
662(14) 0.0 0.0 .
659(13) 0.0 0.0 .
645(13) 0.0 0.0 .
659(14) 0.0 0.0 .
644(14) 0.0 0.0 .
619(13) 0.0 0.0 .
617(13) 0.0 0.0 .
609(13) 0.0 0.0 .
659(14) 0.0 0.0 .
645(14) 0.0 0.0 .
628(13) 0.0 0.0 .
625(13) 0.0 0.0 .
659(13) 0.0 0.0 .
652(14) 0.0 0.0 .
621(14) 0.0 0.0 .
589(13) 0.0 0.0 .
603(13) 0.0 0.0 .
626(13) 0.0 0.0 .
590(13) 0.0 0.0 .
622(14) 0.0 0.0 .
619(13) 0.0 0.0 .
589(13) 0.0 0.0 .
585(13) 0.0 0.0 .
630(13) 0.0 0.0 .
606(13) 0.0 0.0 .
615(13) 0.0 0.0 .
604(13) 0.0 0.0 .
580(13) 0.0 0.0 .
608(13) 0.0 0.0 .
573(13) 0.0 0.0 .
595(13) 0.0 0.0 .
591(13) 0.0 0.0 .
575(13) 0.0 0.0 .
569(13) 0.0 0.0 .
588(13) 0.0 0.0 .
587(13) 0.0 0.0 .
570(12) 0.0 0.0 .
578(13) 0.0 0.0 .
572(13) 0.0 0.0 .
614(13) 0.0 0.0 .
555(12) 0.0 0.0 .
543(12) 0.0 0.0 .
561(13) 0.0 0.0 .
578(13) 0.0 0.0 .
606(14) 0.0 0.0 .
611(13) 0.0 0.0 .
593(13) 0.0 0.0 .
575(13) 0.0 0.0 .
628(14) 0.0 0.0 .
585(13) 0.0 0.0 .
588(13) 0.0 0.0 .
592(13) 0.0 0.0 .
590(13) 0.0 0.0 .
557(13) 0.0 0.0 .
581(13) 0.0 0.0 .
566(12) 0.0 0.0 .
585(13) 0.0 0.0 .
561(13) 0.0 0.0 .
588(13) 0.0 0.0 .
562(13) 0.0 0.0 .
555(12) 0.0 0.0 .
565(12) 0.00624 561.2 42.7
588(13) 0.00546 561.2 42.1
545(13) 0.00572 561.2 41.5
578(13) 0.00572 561.0 40.9
561(12) 0.00617 560.7 40.3
560(12) 0.00622 560.4 39.7
560(13) 0.00577 560.1 39.2
559(13) 0.00536 559.8 38.6
581(13) 0.00569 559.5 38.1
563(12) 0.00618 559.2 37.6
572(12) 0.00609 558.9 37.0
536(12) 0.00617 558.7 36.5
551(13) 0.00579 558.4 36.1
591(13) 0.00560 558.1 35.6
563(12) 0.00623 557.8 35.1
577(13) 0.00600 557.5 34.6
559(13) 0.00583 557.2 34.2
520(12) 0.00627 556.9 33.7
585(13) 0.00559 556.6 33.3
556(12) 0.00629 556.3 32.9
569(12) 0.00612 556.0 32.5
574(13) 0.00573 555.8 32.0
572(13) 0.00547 555.5 31.6
565(13) 0.00570 555.2 31.2
555(12) 0.00635 554.9 30.9
535(12) 0.00622 554.6 30.5
555(13) 0.00593 554.3 30.1
569(13) 0.00580 554.0 29.7
531(12) 0.00631 553.7 29.4
585(13) 0.00594 553.4 29.0
550(12) 0.00626 553.1 28.7
553(13) 0.00583 552.8 28.3
538(12) 0.00607 552.6 28.0
548(13) 0.00598 552.3 27.7
538(12) 0.00653 552.0 27.4
538(13) 0.00598 551.7 27.1
554(13) 0.00547 551.4 26.7
521(12) 0.00619 551.1 26.4
590(13) 0.00578 550.8 26.1
554(12) 0.00632 550.5 25.8
564(13) 0.00587 550.2 25.6
551(13) 0.00566 549.9 25.3
537(13) 0.00602 549.7 25.0
540(12) 0.00629 549.4 24.7
540(12) 0.00645 549.1 24.5
548(13) 0.00584 548.8 24.2
537(13) 0.00598 548.5 23.9
567(13) 0.00566 548.2 23.7
538(12) 0.00643 547.9 23.4
545(12) 0.00637 547.6 23.2
548(13) 0.00599 547.3 22.9
557(13) 0.00565 547.0 22.7
558(13) 0.00605 546.7 22.5
536(12) 0.00654 546.5 22.2
522(12) 0.00663 546.2 22.0
542(12) 0.00609 545.9 21.8
547(13) 0.00577 545.6 21.6
535(12) 0.00611 545.3 21.3
534(12) 0.00647 545.0 21.1
537(12) 0.00647 544.7 20.9
537(12) 0.00607 544.4 20.7
554(13) 0.00545 544.1 20.5
544(12) 0.00611 543.8 20.3
530(12) 0.00665 543.6 20.1
528(12) 0.00660 543.3 19.9
573(13) 0.00572 543.0 19.7
559(13) 0.00550 542.7 19.6
506(12) 0.00643 542.4 19.4
548(12) 0.00638 542.1 19.2
514(12) 0.00671 541.8 19.0
540(13) 0.00590 541.5 18.8
537(13) 0.00587 541.2 18.7
537(13) 0.00598 540.9 18.5
534(12) 0.00653 540.6 18.3
543(12) 0.00639 540.4 18.2
542(12) 0.00610 540.1 18.0
532(13) 0.00602 539.8 17.8
542(12) 0.00608 539.5 17.7
535(12) 0.00656 539.2 17.5
536(12) 0.00639 538.9 17.4
542(12) 0.00607 538.6 17.2
501(12) 0.00663 538.3 17.1
522(12) 0.00633 538.0 16.9
539(12) 0.00651 537.7 16.8
565(13) 0.00583 537.5 16.7
519(12) 0.00623 537.2 16.5
503(12) 0.00651 536.9 16.4
539(12) 0.00625 536.6 16.2
543(12) 0.00647 536.3 16.1
543(12) 0.00607 536.0 16.0
547(13) 0.00599 535.7 15.9
526(12) 0.00638 535.4 15.7
543(12) 0.00630 535.1 15.6
515(12) 0.00678 534.8 15.5
546(13) 0.00579 534.5 15.4
526(13) 0.00602 534.3 15.2
511(12) 0.00636 534.0 15.1
542(12) 0.00623 533.7 15.0
524(12) 0.00663 533.4 14.9
522(12) 0.00616 533.1 14.8
518(13) 0.00592 532.8 14.7
509(12) 0.00640 532.5 14.6
505(12) 0.00679 532.2 14.5
520(12) 0.00675 531.9 14.4
586(13) 0.00562 531.6 14.3
533(13) 0.00576 531.4 14.2
505(12) 0.00654 531.1 14.1
557(12) 0.00632 530.8 14.0
538(12) 0.00645 530.5 13.9
548(13) 0.00587 530.2 13.8
529(13) 0.00556 529.9 13.7
529(12) 0.00628 529.6 13.6
543(12) 0.00641 529.3 13.5
546(12) 0.00634 529.0 13.4
551(13) 0.00602 528.7 13.3
560(13) 0.00549 528.5 13.2
548(12) 0.00615 528.2 13.1
548(12) 0.00636 527.9 13.1
565(13) 0.00601 527.6 13.0
529(12) 0.00610 527.3 12.9
503(12) 0.00619 527.0 12.8
516(12) 0.00629 526.7 12.7
493(12) 0.00708 526.4 12.7
520(12) 0.00647 526.1 12.6
524(12) 0.00619 525.8 12.5
530(13) 0.00590 525.5 12.5
537(13) 0.00605 525.3 12.4
552(12) 0.00631 525.0 12.3
527(12) 0.00641 524.7 12.2
510(12) 0.00626 524.4 12.2
524(12) 0.00607 524.1 12.1
546(12) 0.00620 523.8 12.1
511(12) 0.00688 523.5 12.0
521(12) 0.00635 523.2 11.9
540(13) 0.00592 522.9 11.9
526(13) 0.00605 522.6 11.8
512(12) 0.00650 522.4 11.8
537(12) 0.00655 522.1 11.7
507(12) 0.00650 521.8 11.6
507(12) 0.00613 521.5 11.6
504(12) 0.00623 521.2 11.5
530(12) 0.00640 520.9 11.5
545(12) 0.00645 520.6 11.5
481(12) 0.00681 520.3 11.4
522(13) 0.00599 520.0 11.4
519(12) 0.00643 519.7 11.3
531(12) 0.00646 519.4 11.3
538(12) 0.00651 519.2 11.2
520(12) 0.00631 518.9 11.2
512(12) 0.00626 518.6 11.2
527(12) 0.00628 518.3 11.1
512(12) 0.00671 518.0 11.1
471(11) 0.00739 517.7 11.1
519(12) 0.00625 517.4 11.0
527(13) 0.00588 517.1 11.0
524(12) 0.00630 516.8 11.0
523(12) 0.00664 516.5 10.9
508(12) 0.00675 516.3 10.9
521(12) 0.00633 516.0 10.9
536(13) 0.00559 515.7 10.9
511(12) 0.00649 515.4 10.9
510(12) 0.00679 515.1 10.8
515(12) 0.00666 514.8 10.8
518(12) 0.00633 514.5 10.8
502(12) 0.00628 514.2 10.8
521(12) 0.00617 513.9 10.8
546(12) 0.00644 513.6 10.8
529(12) 0.00649 513.3 10.8
512(12) 0.00625 513.1 10.8
503(12) 0.00621 512.8 10.8
501(12) 0.00655 512.6 10.8
523(12) 0.00664 512.4 10.8
519(12) 0.00668 512.3 10.8
533(12) 0.00620 512.1 10.8
538(13) 0.00587 512.0 10.8
504(12) 0.00632 511.8 10.8
535(12) 0.00655 511.7 10.9
513(12) 0.00660 511.5 10.9
524(13) 0.00596 511.4 10.9
522(13) 0.00600 511.2 10.9
508(12) 0.00646 511.1 11.0
514(12) 0.00680 510.9 11.0
488(12) 0.00685 510.8 11.1
510(12) 0.00624 510.6 11.1
502(12) 0.00649 510.5 11.1
506(12) 0.00647 510.3 11.2
504(12) 0.00692 510.2 11.3
500(12) 0.00672 510.0 11.3
502(12) 0.00642 509.9 11.4
515(12) 0.00632 509.7 11.5
541(12) 0.00621 509.6 11.5
535(12) 0.00649 509.4 11.6
511(12) 0.00637 509.3 11.7
514(13) 0.00605 509.1 11.8
512(12) 0.00640 508.9 11.9
540(12) 0.00626 508.8 12.0
522(12) 0.00666 508.6 12.2
501(12) 0.00661 508.5 12.3
535(13) 0.00585 508.3 12.4
520(12) 0.00645 508.2 12.6
524(12) 0.00653 508.0 12.7
520(12) 0.00669 507.9 12.9
523(12) 0.00638 507.7 13.1
520(12) 0.00609 507.6 13.3
548(12) 0.00611 507.4 13.5
545(12) 0.00634 507.3 13.7
546(12) 0.00639 507.1 14.0
566(13) 0.00584 507.0 14.2
524(13) 0.00584 506.8 14.5
495(12) 0.00667 506.7 14.8
522(12) 0.00663 506.5 15.1
494(12) 0.00706 506.4 15.4
518(12) 0.00642 506.2 15.8
505(12) 0.00612 506.1 16.2
511(12) 0.00630 505.9 16.6
484(11) 0.00710 505.8 17.0
485(12) 0.00708 505.6 17.5
509(12) 0.00647 505.5 18.0
525(13) 0.00599 505.3 18.6
516(12) 0.00626 505.1 19.2
541(12) 0.00643 505.0 19.8
522(12) 0.00663 504.8 20.6
556(13) 0.00594 504.7 21.3
542(13) 0.00575 504.5 22.2
566(13) 0.00567 504.4 23.1
543(12) 0.00647 504.2 24.1
534(12) 0.00643 504.1 25.2
533(12) 0.00621 503.9 26.4
530(12) 0.00607 503.8 27.8
524(12) 0.00615 503.6 29.2
562(12) 0.00626 503.5 30.9
572(13) 0.00592 503.3 32.8
564(13) 0.00572 503.2 34.9
509(12) 0.00634 503.0 37.3
524(12) 0.00644 502.9 40.1
556(12) 0.00637 502.7 43.2
571(13) 0.00585 502.6 46.8
536(12) 0.00612 502.4 51.0
574(13) 0.00559 502.3 55.8
585(13) 0.00574 502.1 61.3
550(12) 0.00641 502.0 67.7
606(13) 0.00541 501.8 75.0
599(13) 0.00532 501.7 83.4
594(13) 0.00544 501.5 93.0
636(13) 0.00537 501.3 103.8
604(13) 0.00580 501.2 116.0
625(13) 0.00524 501.0 129.6
635(14) 0.00494 500.9 144.6
632(13) 0.00537 500.7 160.8
677(14) 0.00519 500.6 178.1
673(13) 0.00524 500.4 196.1
674(14) 0.00486 500.3 214.2
684(14) 0.00457 500.1 231.5
706(14) 0.00473 500.0 246.9
672(14) 0.00513 499.8 259.3
705(14) 0.00506 499.7 267.3
703(14) 0.00480 499.5 270.1
710(15) 0.00444 499.4 267.5
721(14) 0.00471 499.2 259.6
686(14) 0.00520 499.1 247.4
685(14) 0.00516 498.9 232.0
645(14) 0.00515 498.8 214.7
632(14) 0.00501 498.6 196.6
671(14) 0.00491 498.5 178.5
604(13) 0.00583 498.3 161.1
557(12) 0.00633 498.2 144.8
552(12) 0.00612 498.0 129.7
557(13) 0.00567 497.9 116.0
560(13) 0.00580 497.7 103.7
560(12) 0.00623 497.5 92.8
554(12) 0.00616 497.4 83.1
535(12) 0.00611 497.2 74.6
516(12) 0.00617 497.1 67.2
510(12) 0.00633 496.9 60.7
514(12) 0.00679 496.8 55.1
527(12) 0.00657 496.6 50.2
528(12) 0.00624 496.5 46.0
501(12) 0.00643 496.3 42.3
509(12) 0.00640 496.2 39.1
504(12) 0.00688 496.0 36.3
518(12) 0.00661 495.9 33.8
545(13) 0.00603 495.7 31.6
522(12) 0.00617 495.6 29.7
496(12) 0.00662 495.4 27.9
508(12) 0.00690 495.3 26.4
509(12) 0.00658 495.1 25.0
515(12) 0.00624 495.0 23.7
495(12) 0.00657 494.8 22.5
518(12) 0.00663 494.7 21.5
494(12) 0.00704 494.5 20.5
480(12) 0.00688 494.4 19.6
514(12) 0.00633 494.2 18.8
521(12) 0.00614 494.1 18.0
488(12) 0.00681 493.9 17.3
519(12) 0.00670 493.7 16.6
508(12) 0.00635 493.6 16.0
499(12) 0.00637 493.4 15.4
524(12) 0.00630 493.3 14.9
488(12) 0.00691 493.1 14.4
496(12) 0.00703 493.0 13.9
506(12) 0.00654 492.8 13.5
482(12) 0.00657 492.7 13.1
552(13) 0.00595 492.5 12.7
531(12) 0.00647 492.4 12.3
503(12) 0.00697 492.2 12.0
484(12) 0.00674 492.1 11.6
505(13) 0.00603 491.9 11.3
529(13) 0.00604 491.8 11.0
476(11) 0.00729 491.6 10.8
505(12) 0.00689 491.5 10.5
512(12) 0.00654 491.3 10.2
471(12) 0.00669 491.2 10.0
515(12) 0.00631 491.0 9.8
506(12) 0.00686 490.9 9.6
529(12) 0.00645 490.7 9.3
497(12) 0.00653 490.6 9.1
481(12) 0.00639 490.4 9.0
454(11) 0.00727 490.3 8.8
477(11) 0.00721 490.1 8.6
481(11) 0.00717 489.9 8.4
507(12) 0.00642 489.8 8.3
520(13) 0.00603 489.6 8.1
535(13) 0.00597 489.5 8.0
511(12) 0.00684 489.3 7.8
509(12) 0.00668 489.2 7.7
480(12) 0.00682 489.0 7.6
486(12) 0.00638 488.9 7.4
503(12) 0.00636 488.7 7.3
531(12) 0.00653 488.6 7.2
514(12) 0.00661 488.4 7.1
516(12) 0.00637 488.3 7.0
468(12) 0.00683 488.1 6.9
502(12) 0.00639 488.0 6.8
520(12) 0.00667 487.8 6.7
482(12) 0.00694 487.7 6.6
506(12) 0.00626 487.5 6.5
499(12) 0.00647 487.4 6.4
536(12) 0.00634 487.2 6.3
480(11) 0.00718 487.1 6.2
478(12) 0.00704 486.9 6.2
485(12) 0.00657 486.8 6.1
479(12) 0.00680 486.6 6.0
467(11) 0.00711 486.5 5.9
477(11) 0.00728 486.3 5.9
490(12) 0.00639 486.2 5.8
496(12) 0.00652 486.0 5.7
484(12) 0.00673 485.8 5.7
503(12) 0.00674 485.7 5.6
497(12) 0.00701 485.5 5.5
501(12) 0.00646 485.4 5.5
469(12) 0.00684 485.2 5.4
532(12) 0.00624 485.1 5.4
519(12) 0.00667 484.9 5.3
494(11) 0.00709 484.8 5.2
461(11) 0.00722 484.6 5.2
490(12) 0.00634 484.5 5.1
458(11) 0.00728 484.3 5.1
473(11) 0.00717 484.2 5.0
517(12) 0.00672 484.0 5.0
490(12) 0.00662 483.9 4.9
498(13) 0.00580 483.7 4.9
487(12) 0.00674 483.6 4.9
495(12) 0.00708 483.4 4.8
499(12) 0.00699 483.3 4.8
490(12) 0.00663 483.1 4.9
497(12) 0.00611 483.0 4.9
500(12) 0.00638 482.8 4.9
467(11) 0.00742 482.7 4.8
483(11) 0.00714 482.5 4.8
497(12) 0.00669 482.4 4.8
513(12) 0.00606 482.2 4.7
493(12) 0.00662 482.0 4.7
488(11) 0.00714 481.9 4.6
461(11) 0.00736 481.9 4.6
466(12) 0.00689 481.8 4.6
462(12) 0.00678 481.8 4.5
476(12) 0.00688 481.8 4.5
463(11) 0.00743 481.8 4.5
479(11) 0.00718 481.8 4.4
515(12) 0.00632 481.8 4.4
483(12) 0.00668 481.8 4.4
499(12) 0.00662 481.8 4.4
495(12) 0.00698 481.8 4.3
483(12) 0.00686 481.7 4.3
476(12) 0.00663 481.7 4.3
482(12) 0.00668 481.7 4.2
484(12) 0.00701 481.7 4.2
496(12) 0.00704 481.7 4.2
488(12) 0.00667 481.7 4.2
465(12) 0.00706 481.7 4.1
481(12) 0.00679 481.7 4.1
501(12) 0.00671 481.7 4.1
479(11) 0.00725 481.6 4.1
475(12) 0.00699 481.6 4.0
491(12) 0.00647 481.6 4.0
507(12) 0.00638 481.6 4.0
501(12) 0.00670 481.6 4.0
476(11) 0.00735 481.6 3.9
495(12) 0.00664 481.6 3.9
490(12) 0.00639 481.6 3.9
477(12) 0.00689 481.6 3.9
481(11) 0.00709 481.5 3.9
501(12) 0.00695 481.5 3.8
494(12) 0.00668 481.5 3.8
472(12) 0.00646 481.5 3.8
464(12) 0.00675 481.5 3.8
478(11) 0.00717 481.5 3.8
495(12) 0.00704 481.5 3.7
518(12) 0.00637 481.5 3.7
499(12) 0.00608 481.5 3.7
500(12) 0.00657 481.4 3.7
500(12) 0.00691 481.4 3.7
489(11) 0.00715 481.4 3.6
512(12) 0.00628 481.4 3.6
491(12) 0.00616 481.4 3.6
477(12) 0.00680 481.4 3.6
491(12) 0.00708 481.4 3.6
488(12) 0.00690 481.4 3.6
470(12) 0.00690 481.4 3.5
471(12) 0.00668 481.3 3.5
483(12) 0.00689 481.3 3.5
483(11) 0.00721 481.3 3.5
491(12) 0.00689 481.3 3.5
480(12) 0.00683 481.3 3.5
480(12) 0.00640 481.3 3.4
456(11) 0.00709 481.3 3.4
520(12) 0.00674 481.3 3.4
474(11) 0.00710 481.3 3.4
486(12) 0.00665 481.2 3.4
487(12) 0.00651 481.2 3.4
476(12) 0.00680 481.2 3.4
478(11) 0.00725 481.2 3.3
516(12) 0.00652 481.2 3.3
533(13) 0.00601 481.2 3.3
505(12) 0.00628 481.2 3.3
459(11) 0.00724 481.2 3.3
468(11) 0.00746 481.2 3.3
493(12) 0.00662 481.1 3.3
462(11) 0.00717 481.1 3.2
489(12) 0.00653 481.1 3.2
518(12) 0.00654 481.1 3.2
489(11) 0.00713 481.1 3.2
442(11) 0.00745 481.1 3.2
484(12) 0.00642 481.1 3.2
468(12) 0.00699 481.1 3.2
492(12) 0.00696 481.1 3.2
502(12) 0.00689 481.0 3.1
506(12) 0.00658 481.0 3.1
488(12) 0.00649 481.0 3.1
480(12) 0.00683 481.0 3.1
498(12) 0.00693 481.0 3.1
483(11) 0.00717 481.0 3.1
467(12) 0.00701 481.0 3.1
465(12) 0.00663 481.0 3.1
472(12) 0.00703 481.0 3.1
480(11) 0.00730 480.9 3.0
512(12) 0.00678 480.9 3.0
491(12) 0.00688 480.9 3.0
471(12) 0.00654 480.9 3.0
500(12) 0.00640 480.9 3.0
456(11) 0.00755 480.9 3.0
473(11) 0.00716 480.9 3.0
495(12) 0.00659 480.9 3.0
491(12) 0.00635 480.9 3.0
486(12) 0.00682 480.8 3.0
448(11) 0.00776 480.8 3.0
481(11) 0.00724 480.8 3.0
475(12) 0.00695 480.8 2.9
486(12) 0.00646 480.8 2.9
483(12) 0.00678 480.8 2.9
475(11) 0.00729 480.8 2.9
461(11) 0.00752 480.8 2.9
486(12) 0.00654 480.8 2.9
506(13) 0.00595 480.7 2.9
481(12) 0.00687 480.7 2.9
480(11) 0.00722 480.7 2.9
469(11) 0.00735 480.7 2.9
497(12) 0.00636 480.7 2.9
485(12) 0.00640 480.7 2.8
483(12) 0.00681 480.7 2.8
491(12) 0.00707 480.7 2.8
512(12) 0.00647 480.7 2.8
507(12) 0.00645 480.6 2.8
479(12) 0.00674 480.6 2.8
486(12) 0.00677 480.6 2.8
457(11) 0.00761 480.6 2.8
496(12) 0.00662 480.6 2.8
473(12) 0.00661 480.6 2.8
476(12) 0.00680 480.6 2.8
501(12) 0.00671 480.6 2.8
487(11) 0.00714 480.6 2.8
493(12) 0.00676 480.5 2.7
493(12) 0.00653 480.5 2.7
479(12) 0.00688 480.5 2.7
498(12) 0.00697 480.5 2.7
464(11) 0.00741 480.5 2.7
470(12) 0.00691 480.5 2.7
472(12) 0.00656 480.5 2.7
446(11) 0.00744 480.5 2.7
476(11) 0.00719 480.4 2.7
471(11) 0.00736 480.4 2.7
479(12) 0.00684 480.4 2.7
487(12) 0.00638 480.4 2.7
504(12) 0.00649 480.4 2.7
481(11) 0.00721 480.4 2.7
487(12) 0.00707 480.4 2.7
489(12) 0.00652 480.4 2.7
493(12) 0.00619 480.4 2.6
459(11) 0.00731 480.3 2.6
465(11) 0.00745 480.3 2.6
485(11) 0.00710 480.3 2.6
501(12) 0.00637 480.3 2.6
509(13) 0.00596 480.3 2.6
496(12) 0.00664 480.3 2.6
489(12) 0.00706 480.3 2.6
440(11) 0.00789 480.3 2.6
457(12) 0.00703 480.3 2.6
467(12) 0.00659 480.2 2.6
491(12) 0.00669 480.2 2.6
470(11) 0.00741 480.2 2.6
501(12) 0.00686 480.2 2.6
489(12) 0.00667 480.2 2.6
501(12) 0.00615 480.2 2.6
495(12) 0.00636 480.2 2.6
471(11) 0.00731 480.2 2.6
491(12) 0.00700 480.2 2.6
482(12) 0.00680 480.1 2.6
471(12) 0.00679 480.1 2.5
482(12) 0.00686 480.1 2.5
478(11) 0.00726 480.1 2.5
478(12) 0.00708 480.1 2.5
476(12) 0.00681 480.1 2.5
487(12) 0.00661 480.1 2.5
487(12) 0.00671 480.1 2.5
484(11) 0.00717 480.1 2.5
463(11) 0.00722 480.0 2.5
489(12) 0.00644 480.0 2.5
501(12) 0.00625 480.0 2.5
490(12) 0.00683 480.0 2.5
482(11) 0.00726 480.0 2.5
493(12) 0.00667 480.0 2.5
510(12) 0.00612 480.0 2.5
526(13) 0.00605 480.0 2.5
493(12) 0.00681 480.0 2.5
504(12) 0.00692 479.9 2.5
480(12) 0.00686 479.9 2.5
491(12) 0.00641 479.9 2.5
469(12) 0.00691 479.9 2.5
474(11) 0.00726 479.9 2.5
457(11) 0.00754 479.9 2.5
488(12) 0.00681 479.9 2.5
507(12) 0.00621 479.9 2.5
510(12) 0.00653 479.9 2.5
501(12) 0.00684 479.8 2.5
481(11) 0.00715 479.8 2.5
490(12) 0.00659 479.8 2.5
517(13) 0.00596 479.8 2.5
483(12) 0.00673 479.8 2.5
507(12) 0.00687 479.8 2.5
469(11) 0.00723 479.8 2.5
492(12) 0.00641 479.8 2.4
460(12) 0.00660 479.8 2.4
510(12) 0.00624 479.7 2.4
483(11) 0.00722 479.7 2.4
482(11) 0.00713 479.7 2.4
488(12) 0.00664 479.7 2.4
454(12) 0.00675 479.7 2.4
491(12) 0.00675 479.7 2.4
503(12) 0.00693 479.7 2.4
491(12) 0.00700 479.7 2.4
506(12) 0.00643 479.7 2.4
482(12) 0.00656 479.7 2.4
467(12) 0.00692 479.7 2.4
522(12) 0.00667 479.7 2.4
494(12) 0.00693 479.7 2.4
496(12) 0.00635 479.7 2.4
477(12) 0.00652 479.8 2.4
476(12) 0.00676 479.8 2.4
468(11) 0.00741 479.8 2.4
458(11) 0.00731 479.8 2.4
481(12) 0.00674 479.8 2.4
486(12) 0.00665 479.8 2.4
508(12) 0.00648 479.9 2.4
495(12) 0.00705 479.9 2.4
477(11) 0.00709 479.9 2.4
474(12) 0.00675 479.9 2.4
463(12) 0.00699 479.9 2.4
446(11) 0.00743 479.9 2.4
455(11) 0.00758 479.9 2.4
463(12) 0.00707 480.0 2.4
457(12) 0.00707 480.0 2.4
482(12) 0.00677 480.0 2.4
490(12) 0.00683 480.0 2.4
512(12) 0.00688 480.0 2.4
481(12) 0.00665 480.0 2.5
489(12) 0.00642 480.1 2.5
480(12) 0.00670 480.1 2.5
495(12) 0.00685 480.1 2.5
488(11) 0.00714 480.1 2.5
492(12) 0.00671 480.1 2.5
520(12) 0.00608 480.1 2.5
461(11) 0.00729 480.1 2.5
474(11) 0.00720 480.2 2.5
500(12) 0.00696 480.2 2.5
484(12) 0.00674 480.2 2.5
476(12) 0.00657 480.2 2.5
522(12) 0.00609 480.2 2.5
469(11) 0.00721 480.2 2.5
477(11) 0.00732 480.3 2.5
495(12) 0.00662 480.3 2.5
485(12) 0.00625 480.3 2.5
487(12) 0.00679 480.3 2.5
501(12) 0.00689 480.3 2.5
475(11) 0.00734 480.3 2.5
475(12) 0.00683 480.3 2.5
469(12) 0.00638 480.4 2.5
486(12) 0.00658 480.4 2.5
482(11) 0.00724 480.4 2.5
487(11) 0.00708 480.4 2.5
507(12) 0.00618 480.4 2.6
453(12) 0.00676 480.4 2.6
489(12) 0.00654 480.5 2.6
491(12) 0.00702 480.5 2.6
490(12) 0.00693 480.5 2.6
482(12) 0.00660 480.5 2.6
467(12) 0.00658 480.5 2.6
462(12) 0.00693 480.5 2.6
455(11) 0.00763 480.5 2.6
470(11) 0.00710 480.6 2.6
465(12) 0.00699 480.6 2.6
513(12) 0.00610 480.6 2.6
483(12) 0.00680 480.6 2.7
509(12) 0.00684 480.6 2.7
485(12) 0.00680 480.6 2.7
481(12) 0.00685 480.7 2.7
497(12) 0.00655 480.7 2.7
509(12) 0.00654 480.7 2.7
493(11) 0.00709 480.7 2.7
507(12) 0.00646 480.7 2.7
489(12) 0.00662 480.7 2.8
502(12) 0.00651 480.7 2.8
502(12) 0.00667 480.8 2.8
483(11) 0.00724 480.8 2.8
495(12) 0.00656 480.8 2.8
514(12) 0.00625 480.8 2.8
493(12) 0.00676 480.8 2.9
513(12) 0.00651 480.8 2.9
487(11) 0.00718 480.9 3.3
495(12) 0.00649 480.9 3.4
512(13) 0.00586 480.9 3.4
466(11) 0.00719 480.9 3.4
487(12) 0.00698 480.9 3.4
490(11) 0.00712 480.9 3.5
487(12) 0.00675 480.9 3.5
489(12) 0.00638 481.0 3.5
467(11) 0.00715 481.0 3.5
470(11) 0.00735 481.0 3.6
481(11) 0.00730 481.0 3.6
502(12) 0.00648 481.0 3.6
490(12) 0.00625 481.0 3.7
475(12) 0.00698 481.1 3.7
485(11) 0.00713 481.1 3.7
492(12) 0.00704 481.1 3.8
470(11) 0.00709 481.1 3.8
475(12) 0.00641 481.1 3.8
482(12) 0.00695 481.1 3.9
473(11) 0.00730 481.1 3.9
481(11) 0.00713 481.2 4.0
503(12) 0.00646 481.2 4.0
516(13) 0.00601 481.2 4.1
502(12) 0.00666 481.2 4.1
501(12) 0.00693 481.2 4.2
476(11) 0.00711 481.2 4.2
478(12) 0.00666 481.3 4.3
505(12) 0.00611 481.3 4.3
493(12) 0.00660 481.3 4.4
499(12) 0.00700 481.3 4.5
479(11) 0.00711 481.3 4.6
473(12) 0.00689 481.3 4.6
503(12) 0.00627 481.3 4.7
515(12) 0.00628 481.4 4.8
478(11) 0.00727 481.4 4.9
481(12) 0.00687 481.4 5.0
495(12) 0.00639 481.4 5.1
497(12) 0.00651 481.4 5.2
501(12) 0.00654 481.4 5.3
478(11) 0.00727 481.5 5.5
470(12) 0.00706 481.5 5.6
486(12) 0.00651 481.5 5.7
455(11) 0.00715 481.5 5.9
479(12) 0.00690 481.5 6.0
482(11) 0.00718 481.5 6.2
498(12) 0.00659 481.5 6.4
464(12) 0.00692 481.6 6.6
502(12) 0.00645 481.6 6.8
485(12) 0.00686 481.6 7.1
489(11) 0.00713 481.6 7.3
462(11) 0.00711 481.6 7.6
481(12) 0.00645 481.6 7.9
488(12) 0.00667 481.7 8.2
512(12) 0.00664 481.7 8.5
480(11) 0.00731 481.7 8.9
489(12) 0.00670 481.7 9.3
488(12) 0.00638 481.7 9.7
492(12) 0.00686 481.7 10.2
500(12) 0.00697 481.7 10.7
498(12) 0.00692 481.8 11.3
476(12) 0.00693 481.8 11.9
458(12) 0.00675 481.8 12.5
486(12) 0.00665 481.8 13.2
508(12) 0.00677 481.8 13.9
485(11) 0.00721 481.8 14.7
489(12) 0.00664 481.9 15.6
491(13) 0.00603 481.9 16.4
482(12) 0.00685 481.9 17.4
465(11) 0.00744 481.9 18.3
505(12) 0.00684 481.9 19.3
506(12) 0.00656 481.9 20.3
520(13) 0.00581 481.9 21.3
500(12) 0.00646 482.0 22.3
503(12) 0.00702 482.0 23.3
492(12) 0.00700 482.0 24.2
476(12) 0.00707 482.0 25.0
505(12) 0.00618 482.0 25.6
507(12) 0.00635 482.0 26.1
509(12) 0.00682 482.1 26.5
506(12) 0.00682 482.1 26.6
501(12) 0.00655 482.1 26.6
484(12) 0.00646 482.1 26.3
479(12) 0.00671 482.1 25.9
488(11) 0.00710 482.1 25.3
531(12) 0.00625 482.1 24.6
486(12) 0.00684 482.2 23.7
494(12) 0.00624 482.2 22.8
492(12) 0.00655 482.2 21.8
443(11) 0.00780 482.2 20.8
471(12) 0.00698 482.2 19.8
475(12) 0.00662 482.2 18.9
470(12) 0.00670 482.3 17.9
533(12) 0.00622 482.3 17.0
499(12) 0.00695 482.3 16.1
490(12) 0.00657 482.3 15.3
497(12) 0.00625 482.3 14.5
488(12) 0.00651 482.3 13.7
487(12) 0.00686 482.3 13.0
443(11) 0.00773 482.4 12.4
484(12) 0.00657 482.4 11.8
502(12) 0.00629 482.4 11.3
493(12) 0.00668 482.4 10.7
501(12) 0.00681 482.4 10.3
513(12) 0.00677 482.4 9.8
494(12) 0.00661 482.5 9.4
517(13) 0.00578 482.5 9.1
494(12) 0.00651 482.5 8.7
495(12) 0.00688 482.5 8.4
507(12) 0.00684 482.5 8.1
495(12) 0.00661 482.5 7.9
498(12) 0.00621 482.5 7.6
491(12) 0.00661 482.6 7.4
480(11) 0.00722 482.6 7.2
485(11) 0.00721 482.6 7.0
461(11) 0.00720 482.6 6.8
528(13) 0.00578 482.6 6.7
500(12) 0.00663 482.6 6.5
510(12) 0.00690 482.7 6.4
505(12) 0.00692 482.7 6.2
522(12) 0.00626 482.7 6.1
517(13) 0.00567 482.7 6.0
494(12) 0.00655 482.7 5.9
492(11) 0.00713 482.7 5.8
473(11) 0.00733 482.7 5.7
441(11) 0.00738 482.8 5.6
466(12) 0.00658 482.8 5.6
499(12) 0.00647 482.8 5.5
507(12) 0.00689 482.8 5.4
481(12) 0.00706 482.8 5.4
494(12) 0.00666 482.8 5.3
491(12) 0.00638 482.9 5.2
459(12) 0.00705 482.9 5.2
514(12) 0.00676 482.9 5.1
489(12) 0.00692 482.9 5.1
533(13) 0.00591 482.9 5.1
466(12) 0.00678 482.9 5.0
483(12) 0.00677 482.9 5.0
514(12) 0.00676 483.0 5.0
502(12) 0.00665 483.0 4.9
483(12) 0.00671 483.0 4.9
484(12) 0.00664 483.0 4.9
484(12) 0.00697 483.0 4.8
501(12) 0.00700 483.0 4.8
498(12) 0.00678 483.1 4.8
525(13) 0.00587 483.1 4.8
500(12) 0.00638 483.1 4.8
504(12) 0.00666 483.1 4.8
509(12) 0.00684 483.1 4.7
496(12) 0.00660 483.1 4.7
513(12) 0.00622 483.1 4.7
470(12) 0.00704 483.2 4.7
486(12) 0.00693 483.2 4.7
485(11) 0.00713 483.2 4.7
482(12) 0.00667 483.2 4.7
490(12) 0.00642 483.2 4.7
487(12) 0.00675 483.2 4.7
486(12) 0.00694 483.3 4.7
488(11) 0.00715 483.3 4.7
508(12) 0.00620 483.3 4.7
476(12) 0.00637 483.3 4.7
494(12) 0.00654 483.3 4.7
470(11) 0.00730 483.3 4.7
503(12) 0.00691 483.3 4.7
517(12) 0.00647 483.4 4.7
530(13) 0.00581 483.4 4.7
501(12) 0.00662 483.4 4.7
496(12) 0.00706 483.4 4.7
505(12) 0.00684 483.4 4.7
498(12) 0.00664 483.4 4.8
490(13) 0.00603 483.5 4.8
452(11) 0.00715 483.5 4.8
485(11) 0.00716 483.5 4.8
502(12) 0.00694 483.5 4.8
504(12) 0.00639 483.5 4.8
477(12) 0.00676 483.5 4.8
501(12) 0.00660 483.5 4.8
516(12) 0.00677 483.6 4.9
501(12) 0.00678 483.6 4.9
484(12) 0.00688 483.6 4.9
481(12) 0.00655 483.6 4.9
488(12) 0.00661 483.6 4.9
523(12) 0.00662 483.6 5.0
498(12) 0.00672 483.7 5.0
501(12) 0.00654 483.7 5.0
518(12) 0.00623 483.7 5.0
511(12) 0.00650 483.7 5.0
501(12) 0.00680 483.7 5.1
471(12) 0.00702 483.7 5.1
503(12) 0.00636 483.7 5.1
510(12) 0.00634 483.8 5.1
498(12) 0.00684 483.8 5.2
494(12) 0.00691 483.8 5.2
488(12) 0.00668 483.8 5.2
494(12) 0.00638 483.8 5.3
497(12) 0.00662 483.8 5.3
506(12) 0.00661 483.9 5.3
475(11) 0.00723 483.9 5.3
450(11) 0.00721 483.9 5.4
508(12) 0.00626 483.9 5.4
543(12) 0.00610 483.9 5.4
502(12) 0.00673 483.9 5.5
506(12) 0.00686 483.9 5.5
502(12) 0.00659 484.0 5.6
500(12) 0.00625 484.0 5.6
489(12) 0.00670 484.0 5.6
494(12) 0.00686 484.0 5.7
468(11) 0.00741 484.0 5.7
500(12) 0.00631 484.0 5.7
503(12) 0.00610 484.1 5.8
507(12) 0.00640 484.1 5.8
497(12) 0.00686 484.3 5.9
504(12) 0.00681 484.5 5.9
487(12) 0.00666 484.8 6.0
489(12) 0.00626 485.1 6.0
502(12) 0.00660 485.3 6.1
491(11) 0.00709 485.6 6.1
491(12) 0.00694 485.9 6.2
504(12) 0.00652 486.1 6.2
518(13) 0.00574 486.4 6.3
477(12) 0.00674 486.6 6.3
480(11) 0.00715 486.9 6.4
511(12) 0.00656 487.2 6.4
481(12) 0.00673 487.4 6.5
485(12) 0.00613 487.7 6.6
514(12) 0.00627 487.9 6.6
511(12) 0.00683 488.2 6.7
514(12) 0.00682 488.5 6.7
491(12) 0.00680 488.7 6.8
496(12) 0.00628 489.0 6.9
481(12) 0.00685 489.2 6.9
496(12) 0.00701 489.5 7.0
527(12) 0.00649 489.8 7.1
514(12) 0.00642 490.0 7.2
520(13) 0.00600 490.3 7.2
485(12) 0.00670 490.5 7.3
499(12) 0.00700 490.8 7.4
504(12) 0.00680 491.1 7.5
525(12) 0.00630 491.3 7.5
506(12) 0.00653 491.6 7.6
522(12) 0.00642 491.8 7.7
495(12) 0.00701 492.1 7.8
502(12) 0.00668 492.4 7.9
514(12) 0.00619 492.6 8.0
507(12) 0.00621 492.9 8.1
510(12) 0.00664 493.2 8.2
517(12) 0.00675 493.4 8.3
469(11) 0.00713 493.7 8.4
508(12) 0.00624 493.9 8.5
499(12) 0.00658 494.2 8.6
508(12) 0.00682 494.5 8.7
503(12) 0.00695 494.7 8.8
520(12) 0.00618 495.0 8.9
506(12) 0.00630 495.2 9.1
516(12) 0.00638 495.5 9.2
518(12) 0.00649 495.8 9.3
523(12) 0.00665 496.0 9.4
518(12) 0.00607 496.3 9.6
495(12) 0.00612 496.5 9.7
517(12) 0.00621 496.8 9.8
523(12) 0.00660 497.1 10.0
522(12) 0.00674 497.3 10.1
508(12) 0.00636 497.6 10.3
490(12) 0.00621 497.8 10.4
508(12) 0.00660 498.1 10.6
516(12) 0.00674 498.4 10.8
501(12) 0.00695 498.6 10.9
481(12) 0.00691 498.9 11.1
487(13) 0.00603 499.1 11.3
508(12) 0.00651 499.4 11.5
506(12) 0.00691 499.7 11.7
501(12) 0.00695 499.9 11.9
519(12) 0.00632 500.2 12.1
528(13) 0.00574 500.4 12.3
539(13) 0.00595 500.7 12.5
495(12) 0.00702 501.0 12.7
537(12) 0.00635 501.2 12.9
517(12) 0.00644 501.5 13.2
553(13) 0.00548 501.8 13.4
480(12) 0.00693 502.0 13.7
515(12) 0.00677 502.3 13.9
505(12) 0.00680 502.5 14.2
533(13) 0.00597 502.8 14.5
519(13) 0.00600 503.1 14.8
497(12) 0.00661 503.3 15.1
535(12) 0.00656 503.6 15.4
508(12) 0.00667 503.8 15.7
508(12) 0.00639 504.1 16.0
534(13) 0.00600 504.4 16.4
491(12) 0.00677 504.6 16.8
509(12) 0.00684 504.9 17.1
527(12) 0.00645 505.1 17.5
503(12) 0.00653 505.4 17.9
511(12) 0.00640 505.7 18.3
521(12) 0.00651 505.9 18.8
529(12) 0.00662 506.2 19.2
500(12) 0.00650 506.4 19.7
530(13) 0.00600 506.7 20.2
507(12) 0.00641 507.0 20.7
498(12) 0.00676 507.2 21.2
484(11) 0.00720 507.5 21.8
505(12) 0.00627 507.7 22.3
537(13) 0.00581 508.0 22.9
496(12) 0.00653 508.3 23.6
494(12) 0.00694 508.5 24.2
540(12) 0.00648 508.8 24.9
533(12) 0.00616 509.1 25.6
517(13) 0.00603 509.3 26.4
544(13) 0.00596 509.6 27.2
526(12) 0.00665 509.8 28.0
537(12) 0.00642 510.1 28.9
526(12) 0.00620 510.4 29.8
530(13) 0.00583 510.6 30.8
542(12) 0.00609 510.9 31.8
542(12) 0.00646 511.1 32.9
539(12) 0.00648 511.4 34.0
555(13) 0.00599 511.7 35.2
523(12) 0.00610 511.9 36.4
532(12) 0.00631 512.2 37.8
537(12) 0.00649 512.4 39.2
548(12) 0.00639 512.7 40.7
541(12) 0.00609 513.0 42.3
547(13) 0.00559 513.2 43.9
508(12) 0.00653 513.5 45.7
541(12) 0.00645 513.7 47.7
520(12) 0.00668 514.0 49.7
579(13) 0.00564 514.3 51.9
569(13) 0.00550 514.5 54.2
518(12) 0.00652 514.8 56.7
568(12) 0.00622 515.0 59.4
558(12) 0.00621 515.3 62.3
534(12) 0.00617 515.6 65.3
571(13) 0.00558 515.8 68.7
577(13) 0.00573 516.1 72.3
605(13) 0.00586 516.4 76.2
568(12) 0.00613 516.6 80.5
577(13) 0.00569 516.9 85.1
594(13) 0.00537 517.1 90.1
582(13) 0.00573 517.4 95.6
577(12) 0.00605 517.7 101.6
594(13) 0.00586 517.9 108.2
620(13) 0.00539 518.2 115.5
597(13) 0.00557 518.4 123.5
595(13) 0.00562 518.7 132.4
626(13) 0.00566 519.0 142.3
635(13) 0.00542 519.2 153.4
647(14) 0.00516 519.5 165.8
686(14) 0.00474 519.7 179.9
692(14) 0.00497 520.0 195.9
721(14) 0.00494 520.3 214.4
721(15) 0.00455 520.5 235.8
752(15) 0.00439 520.8 261.2
796(15) 0.00415 521.0 291.8
839(15) 0.00415 521.3 329.2
903(16) 0.00395 521.6 375.7
986(17) 0.003365 521.8 434.4
1041(18) 0.003105 522.1 508.9
1162(18) 0.002914 522.3 603.8
1308(19) 0.002758 522.6 724.1
1430(20) 0.002535 522.9 875.0
1633(22) 0.002076 523.1 1061.8
1844(24) 0.001766 523.4 1288.1
2148(25) 0.001584 523.7 1556.3
2346(25) 0.001546 523.9 1865.2
2618(27) 0.001398 524.2 2208.6
2930(29) 0.001182 524.4 2573.3
3361(32) 0.000943 524.7 2935.3
3735(33) 0.000915 525.0 3258.2
4047(33) 0.000897 525.2 3495.1
4326(34) 0.000850 525.5 3601.8
4368(35) 0.000792 526. 3555.
4076(36) 0.000782 526. 3365.
3577(32) 0.000974 526.3 3070.8
3089(29) 0.001188 526.5 2719.2
2729(27) 0.001315 526.8 2352.0
2421(26) 0.001409 527.0 1998.0
2181(26) 0.001494 527.3 1674.4
1981(24) 0.001727 527.6 1389.7
1671(21) 0.002177 527.8 1146.8
1555(21) 0.002311 528.1 944.8
1413(20) 0.002402 528.3 780.2
1245(19) 0.002624 528.6 648.4
1176(18) 0.002901 528.9 544.1
1102(17) 0.003284 529.1 462.0
1005(17) 0.003500 529.4 397.6
915(16) 0.00360 529.6 346.7
897(16) 0.00358 529.9 306.0
857(16) 0.00392 530.2 273.0
821(15) 0.00435 530.4 245.7
765(14) 0.00456 530.7 222.8
769(15) 0.00423 531.0 203.3
713(14) 0.00461 531.2 186.4
715(14) 0.00470 531.5 171.6
710(14) 0.00499 531.7 158.5
684(14) 0.00493 532.0 147.0
663(14) 0.00490 532.3 136.6
655(14) 0.00498 532.5 127.4
660(14) 0.00522 532.8 119.0
683(14) 0.00520 533.0 111.5
588(13) 0.00563 533.3 104.6
620(14) 0.00519 533.6 98.4
646(14) 0.00495 533.8 92.7
612(13) 0.00553 534.1 87.5
590(13) 0.00598 534.3 82.8
591(13) 0.00551 534.6 78.4
576(13) 0.00558 534.9 74.4
578(13) 0.00563 535.1 70.7
610(13) 0.00552 535.4 67.2
578(12) 0.00613 535.6 64.1
586(13) 0.00566 535.9 61.1
569(13) 0.00536 536.2 58.4
562(13) 0.00586 536.4 55.8
565(12) 0.00619 536.7 53.5
594(13) 0.00588 536.9 51.2
587(13) 0.00546 537.2 49.2
534(13) 0.00583 537.5 47.2
575(13) 0.00572 537.7 45.4
577(12) 0.00609 538.0 43.7
539(12) 0.00646 538.2 42.1
540(12) 0.00612 538.5 40.6
543(13) 0.00561 538.8 39.1
564(13) 0.00595 539.0 37.8
506(12) 0.00691 539.3 36.5
533(12) 0.00656 539.6 35.3
565(13) 0.00591 539.8 34.2
581(13) 0.00530 540.1 33.1
577(13) 0.00559 540.3 32.1
533(12) 0.00654 540.6 31.1
557(12) 0.00614 540.9 30.2
549(12) 0.00619 541.1 29.3
550(13) 0.00566 541.4 28.5
525(12) 0.00611 541.6 27.7
549(12) 0.00637 541.9 27.0
542(12) 0.00639 542.2 26.2
559(13) 0.00585 542.4 25.6
526(13) 0.00593 542.7 24.9
525(12) 0.00606 542.9 24.3
514(12) 0.00683 543.2 23.7
540(12) 0.00624 543.5 23.1
549(13) 0.00598 543.7 22.6
544(13) 0.00601 544.0 22.1
513(12) 0.00665 544.2 21.6
552(12) 0.00632 544.5 21.1
535(12) 0.00629 544.8 20.7
539(13) 0.00595 545.0 20.2
544(13) 0.00590 545.3 19.8
558(12) 0.00606 545.5 19.4
563(12) 0.00626 545.8 19.0
527(12) 0.00633 546.1 18.7
539(13) 0.00578 546.3 18.3
519(12) 0.00628 546.6 18.0
548(12) 0.00623 546.9 17.6
582(13) 0.00605 547.1 17.3
555(13) 0.00592 547.4 17.0
551(13) 0.00571 547.6 16.7
555(13) 0.00595 547.9 16.4
545(12) 0.00628 548.2 16.2
539(12) 0.00648 548.4 15.9
577(13) 0.00578 548.7 15.6
560(13) 0.00564 548.9 15.4
542(13) 0.00593 549.2 15.2
529(12) 0.00653 549.5 14.9
527(12) 0.00661 549.7 14.7
523(12) 0.00635 550.0 14.5
539(13) 0.00565 550.2 14.3
554(12) 0.00609 550.5 14.1
581(13) 0.00601 550.8 13.9
541(12) 0.00646 551.0 13.7
563(13) 0.00592 551.3 13.6
597(14) 0.00506 551.5 13.4
561(13) 0.00594 551.8 13.2
551(12) 0.00641 552.1 13.1
594(13) 0.00580 552.3 12.9
550(12) 0.00616 552.6 12.8
548(13) 0.00565 552.8 12.6
554(12) 0.00610 553.1 12.5
546(12) 0.00645 553.4 12.3
528(12) 0.00651 553.6 12.2
548(13) 0.00593 553.9 12.1
563(13) 0.00560 554.2 12.0
558(13) 0.00585 554.4 11.9
553(12) 0.00632 554.7 11.7
549(12) 0.00620 554.9 11.6
538(12) 0.00616 555.2 11.5
545(13) 0.00600 555.5 11.4
569(13) 0.00580 555.7 11.3
575(12) 0.00610 556.0 11.2
568(13) 0.00596 556.2 11.1
529(12) 0.00624 556.5 11.1
562(13) 0.00559 556.8 11.0
555(13) 0.00584 557.0 10.9
551(12) 0.00637 557.3 10.8
547(12) 0.00627 557.5 10.7
551(13) 0.00603 557.8 10.7
575(13) 0.00566 558.1 10.6
559(13) 0.00605 558.3 10.5
549(12) 0.00639 558.6 10.5
568(13) 0.00597 558.8 10.4
553(13) 0.00584 559.1 10.3
583(13) 0.00555 559.4 10.3
576(13) 0.00590 559.6 10.2
544(12) 0.00645 559.9 10.2
555(13) 0.00576 560.1 10.1
544(13) 0.00597 560.4 10.1
553(13) 0.00580 560.7 10.0
516(12) 0.00655 560.9 10.0
517(12) 0.00681 561.2 9.9
546(13) 0.00594 561.5 9.9
563(13) 0.00550 561.7 9.9
549(13) 0.00588 562.0 9.8
566(12) 0.00614 562.2 9.8
574(12) 0.00616 562.5 9.8
577(13) 0.00572 562.8 9.7
575(13) 0.00549 563.0 9.7
576(13) 0.00584 563.3 9.7
591(13) 0.00588 563.5 9.7
527(12) 0.00660 563.8 9.6
539(12) 0.00635 564.1 9.6
564(13) 0.00553 564.3 9.6
571(13) 0.00587 564.6 9.6
552(12) 0.00627 564.8 9.6
589(13) 0.00589 565.1 9.5
579(13) 0.00546 565.4 9.5
521(13) 0.00601 565.6 9.5
567(13) 0.00584 565.9 9.5
569(12) 0.00619 566.1 9.5
543(12) 0.00645 566.4 9.5
555(13) 0.00590 566.7 9.5
566(13) 0.00543 566.9 9.5
569(13) 0.00585 567.2 9.5
577(12) 0.00608 567.4 9.5
563(12) 0.00615 567.7 9.5
564(13) 0.00574 568.0 9.5
574(13) 0.00545 568.2 9.5
607(13) 0.00525 568.5 9.5
593(13) 0.00597 568.7 9.5
604(13) 0.00573 569.0 9.5
581(13) 0.00576 569.3 9.5
576(13) 0.00545 569.5 9.5
584(13) 0.00565 569.8 9.5
595(13) 0.00596 570.1 9.5
565(12) 0.00613 570.3 9.5
586(13) 0.00552 570.6 9.5
537(13) 0.00598 570.8 9.6
571(13) 0.00571 571.1 9.6
581(12) 0.00608 571.4 9.6
546(12) 0.00619 571.6 9.6
569(13) 0.00580 571.9 9.6
557(13) 0.00584 572.1 9.7
551(12) 0.00608 572.4 9.7
561(12) 0.00624 572.7 9.7
557(13) 0.00593 572.9 9.7
576(13) 0.00567 573.2 9.8
597(13) 0.00555 573.4 9.8
570(12) 0.00605 573.7 9.8
595(13) 0.00589 574.0 9.9
611(14) 0.00522 574.2 9.9
558(13) 0.00563 574.5 9.9
573(13) 0.00575 574.7 10.0
582(13) 0.00587 575.0 10.0
592(13) 0.00594 575.3 10.0
572(13) 0.00577 575.7 10.1
582(13) 0.00530 576.1 10.1
594(13) 0.00553 576.5 10.2
569(12) 0.00605 576.9 10.2
584(13) 0.00604 577.4 10.2
561(13) 0.00600 577.8 10.3
583(13) 0.00528 578.2 10.3
590(13) 0.00568 578.7 10.4
613(13) 0.00567 579.1 10.4
582(13) 0.00604 579.5 10.5
575(13) 0.00566 579.9 10.6
570(13) 0.00546 580.4 10.6
596(13) 0.00550 580.8 10.7
575(12) 0.00606 581.2 10.7
599(13) 0.00588 581.6 10.8
636(13) 0.00527 582.1 10.9
578(13) 0.00551 582.5 10.9
581(13) 0.00578 582.9 11.0
595(13) 0.00586 583.4 11.1
573(13) 0.00601 583.8 11.1
591(13) 0.00549 584.2 11.2
581(13) 0.00543 584.6 11.3
585(13) 0.00564 585.1 11.3
546(12) 0.00639 585.5 11.4
569(12) 0.00607 585.9 11.5
601(13) 0.00543 586.3 11.6
619(14) 0.00520 586.8 11.7
604(13) 0.00543 587.2 11.8
580(12) 0.00606 587.6 11.8
603(13) 0.00556 588.1 11.9
564(13) 0.00578 588.5 12.0
587(13) 0.00546 588.9 12.1
588(13) 0.00569 589.3 12.2
595(13) 0.00595 589.8 12.3
622(13) 0.00537 590.2 12.4
611(14) 0.00517 590.6 12.5
584(13) 0.00557 591.0 12.6
587(13) 0.00577 591.5 12.7
570(12) 0.00611 591.9 12.8
625(13) 0.00532 592.3 12.9
580(13) 0.00562 592.8 13.1
573(13) 0.00574 593.2 13.2
532(12) 0.00652 593.6 13.3
598(13) 0.00583 594.0 13.4
559(13) 0.00587 594.5 13.6
572(13) 0.00548 594.9 13.7
590(13) 0.00543 595.3 13.8
576(12) 0.00606 595.8 14.0
625(13) 0.00564 596.2 14.1
640(14) 0.00512 596.6 14.2
578(13) 0.00549 597.0 14.4
622(13) 0.00527 597.5 14.5
592(13) 0.00586 597.9 14.7
599(13) 0.00581 598.3 14.8
585(13) 0.00569 598.7 15.0
611(14) 0.00508 599.2 15.2
625(13) 0.00526 599.6 15.3
570(12) 0.00613 600.0 15.5
604(13) 0.00578 600.5 15.7
590(13) 0.00560 600.9 15.8
599(14) 0.00506 601.3 16.0
583(13) 0.00560 601.7 16.2
570(12) 0.00613 602.2 16.4
594(13) 0.00586 602.6 16.6
600(13) 0.00552 603.0 16.8
579(13) 0.00548 603.4 17.0
632(14) 0.00512 603.9 17.2
619(13) 0.00568 604.3 17.4
597(13) 0.00581 604.7 17.6
603(13) 0.00556 605.2 17.9
614(14) 0.00512 605.6 18.1
616(13) 0.00528 606.0 18.3
597(13) 0.00594 606.4 18.6
604(13) 0.00572 606.9 18.8
594(13) 0.00559 607.3 19.1
614(14) 0.00520 607.7 19.4
597(13) 0.00546 608.1 19.6
600(13) 0.00587 608.6 19.9
598(13) 0.00557 609.0 20.2
621(14) 0.00519 609.4 20.5
594(13) 0.00543 609.9 20.8
576(13) 0.00580 610.3 21.1
626(13) 0.00568 610.7 21.4
602(13) 0.00561 611.1 21.7
595(13) 0.00546 611.6 22.0
643(14) 0.00490 612.0 22.4
585(13) 0.00571 612.4 22.7
654(13) 0.00541 612.8 23.1
583(13) 0.00590 613.3 23.5
594(13) 0.00536 613.7 23.8
595(13) 0.00545 614.1 24.2
586(13) 0.00588 614.6 24.6
592(13) 0.00591 615.0 25.0
623(14) 0.00521 615.4 25.5
639(14) 0.00504 615.8 25.9
616(13) 0.00539 616.3 26.3
625(13) 0.00560 616.7 26.8
634(13) 0.00555 617.1 27.3
672(14) 0.00495 617.5 27.8
594(13) 0.00546 618.0 28.3
607(13) 0.00554 618.4 28.8
612(13) 0.00578 618.8 29.3
594(13) 0.00591 619.3 29.9
653(14) 0.00503 619.7 30.5
658(14) 0.00462 620.1 31.0
633(14) 0.00522 620.5 31.7
636(13) 0.00537 621.0 32.3
643(13) 0.00547 621.4 32.9
605(13) 0.00556 621.8 33.6
625(14) 0.00484 622.2 34.3
621(13) 0.00523 622.7 35.0
607(13) 0.00582 623.1 35.7
634(13) 0.00550 623.5 36.5
637(14) 0.00521 624.0 37.3
624(14) 0.00497 624.4 38.1
629(14) 0.00517 624.8 39.0
611(13) 0.00576 625.2 39.8
605(13) 0.00580 625.7 40.8
622(13) 0.00532 626.1 41.7
659(14) 0.00466 626.5 42.7
623(14) 0.00516 626.9 43.7
632(13) 0.00557 627.4 44.7
675(14) 0.00512 627.8 45.8
685(14) 0.00491 628.2 47.0
690(14) 0.00459 628.7 48.2
662(14) 0.00495 629.1 49.4
673(13) 0.00530 629.5 50.7
683(14) 0.00505 629.9 52.0
653(14) 0.00520 630.4 53.4
695(14) 0.00468 630.8 54.8
677(14) 0.00499 631.2 56.3
644(13) 0.00551 631.6 57.9
687(14) 0.00484 632.1 59.6
664(14) 0.00492 632.5 61.3
656(14) 0.00495 632.9 63.1
683(14) 0.00489 633.4 65.0
689(14) 0.00515 633.8 66.9
670(14) 0.00502 634.2 69.0
686(14) 0.00472 634.6 71.2
657(14) 0.00507 635.1 73.4
678(14) 0.00516 635.5 75.8
695(14) 0.00508 635.9 78.3
670(14) 0.00494 636.3 80.9
706(14) 0.00459 636.8 83.7
712(14) 0.00466 637.2 86.6
728(14) 0.00478 637.6 89.7
707(14) 0.00503 638.1 92.9
703(14) 0.00469 638.5 96.3
660(14) 0.00494 638.9 100.0
704(14) 0.00476 639.3 103.8
740(14) 0.00468 639.8 107.8
709(14) 0.00499 640.2 112.1
680(14) 0.00482 640.6 116.7
698(14) 0.00464 641.0 121.6
749(15) 0.00446 641.5 126.7
712(14) 0.00501 641.9 132.2
733(14) 0.00482 642.3 138.1
753(15) 0.00439 642.8 144.4
752(15) 0.00419 643.2 151.1
739(15) 0.00454 643.6 158.3
722(14) 0.00487 644.0 166.0
764(14) 0.00462 644.5 174.4
806(15) 0.00403 644.9 183.3
773(15) 0.00410 645.3 193.0
787(15) 0.00412 645.7 203.4
735(14) 0.00487 646.2 214.7
814(15) 0.00437 646.6 226.9
824(15) 0.00404 647.0 240.3
843(16) 0.00378 647.5 254.8
860(16) 0.00385 647.9 270.7
872(15) 0.00406 648.3 288.1
874(15) 0.00404 648.7 307.3
921(16) 0.00359 649.2 328.4
929(17) 0.003472 649.6 351.9
909(16) 0.00366 650.0 378.0
950(16) 0.00378 650.4 407.3
1002(17) 0.003487 650.9 440.4
1055(18) 0.003122 651.3 478.0
1093(18) 0.002991 651.7 521.0
1151(18) 0.002930 652.2 570.7
1215(18) 0.002985 652.6 628.5
1302(19) 0.002704 653.0 696.2
1391(20) 0.002402 653.4 775.9
1482(21) 0.002261 653.9 870.1
1621(22) 0.002117 654.3 981.8
1766(22) 0.002073 654.7 1113.9
1904(23) 0.001823 655.1 1270.1
2067(25) 0.001629 655.6 1453.7
2362(26) 0.001432 656.0 1668.1
2617(27) 0.001339 656.4 1916.3
2937(28) 0.001247 656.9 2200.4
3334(31) 0.001031 657.3 2521.5
3702(33) 0.000891 657.7 2877.9
4060(34) 0.000834 658.1 3264.3
4502(36) 0.000784 659. 3670.
4965(37) 0.000738 659. 4078.
5435(40) 0.000630 659. 4459.
5770(42) 0.000576 660. 4780.
5976(42) 0.000566 660. 5001.
5822(40) 0.000615 661. 5092.
5716(39) 0.000642 661. 5039.
5454(40) 0.000625 662. 4849.
5085(40) 0.000636 662. 4551.
4560(36) 0.000759 662. 4182.
4226(34) 0.000861 662.8 3779.2
3899(33) 0.000934 663.3 3371.3
3498(32) 0.000970 663.7 2978.7
3193(31) 0.001002 664.1 2614.2
2941(29) 0.001169 664.6 2284.3
2689(27) 0.001350 665.0 1990.9
2506(26) 0.001460 665.4 1734.0
2312(26) 0.001486 665.8 1511.5
2155(26) 0.001487 666.3 1320.7
1968(24) 0.001756 666.7 1158.3
1939(23) 0.001877 667.1 1020.8
1755(22) 0.002052 667.5 904.7
1680(22) 0.002039 668.0 806.8
1590(22) 0.002005 668.4 724.2
1518(21) 0.002240 668.8 654.4
1387(19) 0.002619 669.3 594.9
1315(19) 0.002696 669.7 544.1
1317(20) 0.002541 670.1 500.3
1230(19) 0.002653 670.5 462.4
1151(18) 0.002900 671.0 429.2
1145(18) 0.003152 671.4 400.1
1128(18) 0.003098 671.8 374.4
1074(17) 0.003207 672.2 351.6
1070(18) 0.003043 672.7 331.4
984(17) 0.003375 673.1 313.4
1040(17) 0.003470 673.5 297.4
1027(17) 0.003379 674.0 283.1
983(17) 0.003411 674.4 270.6
989(17) 0.003279 674.8 259.6
953(17) 0.00354 675.2 250.0
959(16) 0.00375 675.7 241.9
914(16) 0.00378 676.1 235.2
889(16) 0.00373 676.5 229.8
892(16) 0.00373 676.9 225.8
915(16) 0.00366 677.4 223.2
909(16) 0.00396 677.8 222.0
877(16) 0.00383 678.2 222.3
880(16) 0.00369 678.7 224.1
867(16) 0.00384 679.1 227.5
855(16) 0.00400 679.5 232.4
890(15) 0.00403 679.9 238.8
898(16) 0.00374 680.4 246.6
900(16) 0.00365 680.8 255.8
895(16) 0.00377 681.2 265.8
889(16) 0.00396 681.6 276.4
923(16) 0.00388 682.1 286.6
957(17) 0.003498 682.5 295.6
964(17) 0.003327 682.9 302.3
946(16) 0.00360 683.4 305.7
921(16) 0.00382 683.8 305.0
952(16) 0.00379 684.2 299.9
966(17) 0.003465 684.6 290.5
930(17) 0.003434 685.1 277.7
901(16) 0.00369 685.5 262.4
883(16) 0.00399 685.9 245.7
883(15) 0.00408 686.3 228.5
848(15) 0.00402 686.8 211.5
871(16) 0.00359 687.2 195.2
840(16) 0.00393 687.6 180.0
799(15) 0.00438 688.1 165.9
789(15) 0.00443 688.5 153.0
776(15) 0.00433 688.9 141.4
784(16) 0.00395 689.3 131.0
771(15) 0.00427 689.8 121.6
780(14) 0.00457 690.2 113.3
744(14) 0.00473 690.6 105.9
731(15) 0.00451 691.0 99.3
768(15) 0.00405 691.5 93.4
758(15) 0.00441 691.9 88.2
713(14) 0.00496 692.3 83.5
760(14) 0.00459 692.8 79.3
715(14) 0.00464 693.2 75.5
752(15) 0.00415 693.6 72.1
716(14) 0.00466 694.0 68.9
742(14) 0.00476 694.5 66.1
740(14) 0.00464 694.9 63.5
694(14) 0.00474 695.3 61.1
741(15) 0.00433 695.7 58.9
729(14) 0.00460 696.2 56.8
700(14) 0.00500 696.6 54.9
704(14) 0.00490 697.0 53.1
706(15) 0.00455 697.5 51.4
704(14) 0.00469 697.9 49.8
706(14) 0.00485 698.3 48.3
733(14) 0.00482 698.7 46.9
686(14) 0.00498 699.2 45.5
701(14) 0.00461 699.6 44.3
728(15) 0.00454 700.0 43.1
726(14) 0.00462 700.4 41.9
733(14) 0.00488 700.9 40.8
715(15) 0.00456 701.3 39.8
701(14) 0.00461 701.7 38.8
689(14) 0.00488 702.2 37.9
702(14) 0.00488 702.6 37.0
706(14) 0.00505 703.0 36.1
697(14) 0.00482 703.4 35.3
694(14) 0.00468 703.9 34.5
697(14) 0.00486 704.3 33.7
697(14) 0.00509 704.7 33.0
723(14) 0.00493 705.1 32.3
718(14) 0.00465 705.6 31.6
742(15) 0.00421 706.0 31.0
770(15) 0.00435 706.4 30.4
717(14) 0.00498 706.9 29.8
726(14) 0.00486 707.3 29.2
738(14) 0.00458 707.7 28.6
728(15) 0.00429 708.1 28.1
704(14) 0.00487 708.6 27.6
734(14) 0.00487 709.0 27.1
699(14) 0.00499 709.4 26.6
697(14) 0.00475 709.8 26.2
715(15) 0.00447 710.3 25.7
773(15) 0.00430 710.7 25.3
754(14) 0.00473 711.1 24.9
720(14) 0.00485 711.6 24.4
706(14) 0.00475 712.0 24.1
703(15) 0.00448 712.4 23.7
721(14) 0.00464 712.8 23.3
729(14) 0.00490 713.3 23.0
751(14) 0.00462 713.7 22.6
703(14) 0.00468 714.1 22.3
707(15) 0.00452 714.5 22.0
737(14) 0.00461 715.0 21.7
738(14) 0.00483 715.4 21.4
728(14) 0.00477 715.8 21.1
706(14) 0.00478 716.3 20.8
742(15) 0.00438 716.7 20.5
694(14) 0.00475 717.1 20.2
680(13) 0.00524 717.5 20.0
704(14) 0.00482 718.0 19.7
738(15) 0.00438 718.4 19.5
721(15) 0.00454 718.8 19.3
716(14) 0.00465 719.2 19.1
752(14) 0.00473 719.7 18.8
701(14) 0.00478 720.1 18.6
714(15) 0.00453 720.5 18.4
712(14) 0.00458 721.0 18.2
721(14) 0.00471 721.4 18.0
712(14) 0.00498 721.8 17.9
736(15) 0.00446 722.2 17.7
713(15) 0.00446 722.7 17.5
697(14) 0.00481 723.1 17.4
743(14) 0.00470 723.5 17.2
729(14) 0.00487 723.9 17.1
774(15) 0.00436 724.4 16.9
737(15) 0.00427 724.8 16.8
738(15) 0.00442 725.3 16.6
724(14) 0.00475 725.8 16.5
745(14) 0.00475 726.4 16.4
725(14) 0.00457 727.0 16.3
720(15) 0.00446 727.6 16.2
774(15) 0.00430 728.2 16.1
732(14) 0.00477 728.8 16.0
695(14) 0.00512 729.4 15.9
678(14) 0.00489 730.0 15.8
717(15) 0.00432 730.6 15.8
740(15) 0.00442 731.1 15.7
769(15) 0.00456 731.7 15.6
758(14) 0.00468 732.3 15.6
749(15) 0.00450 732.9 15.5
738(15) 0.00425 733.5 15.5
691(14) 0.00488 734.1 15.4
756(14) 0.00466 734.7 15.4
770(14) 0.00456 735.3 15.4
772(15) 0.00434 735.9 15.4
752(15) 0.00423 736.4 15.4
757(15) 0.00448 737.0 15.4
744(14) 0.00479 737.6 15.4
727(14) 0.00480 738.2 15.4
790(15) 0.00420 738.8 15.5
765(15) 0.00427 739.4 15.5
749(15) 0.00443 740.0 15.6
773(14) 0.00463 740.6 15.6
746(14) 0.00461 741.2 15.7
770(15) 0.00422 741.7 15.8
743(15) 0.00436 742.3 15.9
751(15) 0.00441 742.9 16.0
759(14) 0.00469 743.5 16.1
728(14) 0.00461 744.1 16.3
731(15) 0.00451 744.7 16.5
738(15) 0.00445 745.3 16.6
743(15) 0.00447 745.9 16.8
719(14) 0.00499 746.5 17.1
749(15) 0.00451 747.0 17.3
733(15) 0.00443 747.6 17.6
767(15) 0.00429 748.2 17.9
759(15) 0.00433 748.8 18.2
707(14) 0.00502 749.4 18.6
762(15) 0.00448 750.0 19.0
804(15) 0.00401 750.6 19.4
790(15) 0.00426 751.2 19.9
782(15) 0.00435 751.8 20.5
788(15) 0.00455 752.3 21.0
786(15) 0.00422 752.9 21.7
774(15) 0.00418 753.5 22.4
756(15) 0.00446 754.1 23.2
739(14) 0.00477 754.7 24.1
765(14) 0.00464 755.3 25.1
790(15) 0.00417 755.9 26.2
786(15) 0.00407 756.5 27.4
781(15) 0.00423 757.1 28.7
796(15) 0.00443 757.6 30.3
781(14) 0.00459 758.2 32.0
809(15) 0.00417 758.8 33.9
790(16) 0.00389 759.4 36.1
766(15) 0.00438 760.0 38.7
819(15) 0.00433 760.6 41.6
817(15) 0.00437 761.2 45.0
808(15) 0.00424 761.8 49.0
820(16) 0.00385 762.4 53.8
869(16) 0.00388 762.9 59.7
870(15) 0.00411 763.5 67.2
856(15) 0.00415 764.1 76.9
875(16) 0.00393 764.7 89.5
908(16) 0.00358 765.3 106.2
880(16) 0.00391 765.9 128.4
965(16) 0.00374 766.5 157.5
1013(17) 0.003492 767.1 195.0
1069(18) 0.003143 767.7 242.3
1129(19) 0.002787 768.2 300.1
1163(19) 0.002847 768.8 368.3
1210(18) 0.002988 769.4 445.2
1279(19) 0.002758 770.0 527.0
1325(20) 0.002547 770.6 606.7
1433(21) 0.002256 771.2 673.6
1471(21) 0.002307 771.8 714.6
1536(20) 0.002367 772.4 719.6
1511(21) 0.002310 773.0 687.4
1410(20) 0.002368 773.6 626.1
1308(20) 0.002521 774.1 548.5
1187(18) 0.002912 774.7 466.3
1068(17) 0.003354 775.3 387.6
1030(17) 0.003317 775.9 316.7
990(17) 0.003371 776.5 256.0
918(16) 0.00364 777.1 205.9
879(16) 0.00390 777.7 165.9
898(16) 0.00399 778.3 134.6
879(16) 0.00384 778.9 110.7
844(16) 0.00390 779.4 92.6
855(16) 0.00394 780.0 78.9
812(15) 0.00428 780.6 68.5
796(15) 0.00447 781.2 60.4
850(16) 0.00389 781.8 54.0
810(15) 0.00404 782.4 48.9
823(16) 0.00398 783.0 44.6
793(15) 0.00440 783.6 41.0
806(15) 0.00444 784.2 37.9
816(15) 0.00417 784.7 35.2
824(16) 0.00385 785.3 32.8
804(15) 0.00419 785.9 30.7
826(15) 0.00424 786.5 28.9
838(15) 0.00424 787.1 27.2
814(15) 0.00412 787.7 25.7
791(16) 0.00400 788.3 24.4
760(15) 0.00448 788.9 23.2
784(15) 0.00448 789.5 22.1
823(15) 0.00430 790.0 21.1
794(15) 0.00418 790.6 20.2
801(16) 0.00374 791.2 19.4
791(15) 0.00422 791.8 18.6
790(15) 0.00449 792.4 18.0
822(15) 0.00432 793.0 17.3
784(15) 0.00426 793.6 16.7
800(16) 0.00390 794.2 16.2
788(15) 0.00431 794.8 15.7
807(15) 0.00443 795.3 15.2
823(15) 0.00431 795.9 14.8
835(15) 0.00412 796.5 14.4
851(16) 0.00381 797.1 14.0
784(15) 0.00430 797.7 13.7
805(15) 0.00444 798.3 13.4
791(15) 0.00444 798.9 13.1
805(15) 0.00419 799.5 12.8
789(15) 0.00418 800.1 12.5
783(15) 0.00425 800.6 12.3
801(15) 0.00445 801.2 12.0
798(15) 0.00436 801.8 11.8
791(15) 0.00415 802.4 11.6
798(15) 0.00403 803.0 11.4
821(15) 0.00412 803.6 11.2
845(15) 0.00425 804.2 11.1
801(15) 0.00432 804.8 10.9
810(16) 0.00399 805.4 10.7
766(15) 0.00433 805.9 10.6
804(15) 0.00425 806.5 10.5
807(15) 0.00440 807.1 10.3
834(15) 0.00415 807.7 10.2
836(16) 0.00384 808.3 10.1
801(15) 0.00413 808.9 10.0
845(15) 0.00408 809.5 9.9
823(15) 0.00433 810.1 9.8
800(15) 0.00414 810.7 9.7
865(16) 0.00362 811.2 9.6
821(15) 0.00410 811.8 9.5
845(15) 0.00415 812.4 9.5
837(15) 0.00426 813.0 9.4
831(16) 0.00394 813.6 9.3
811(16) 0.00396 814.2 9.3
810(15) 0.00420 814.8 9.2
842(15) 0.00418 815.4 9.2
819(15) 0.00439 816.0 9.1
823(15) 0.00407 816.5 9.1
813(16) 0.00394 817.1 9.0
865(16) 0.00382 817.7 9.0
844(15) 0.00424 818.3 9.0
821(15) 0.00430 818.9 8.9
831(15) 0.00402 819.5 8.9
834(16) 0.00372 820.1 8.9
832(16) 0.00399 820.7 8.9
801(15) 0.00440 821.3 8.8
782(15) 0.00453 821.8 8.8
859(16) 0.00373 822.4 8.8
813(16) 0.00382 823.0 8.8
856(16) 0.00387 823.6 8.8
831(15) 0.00425 824.2 8.8
843(15) 0.00419 824.8 8.8
866(16) 0.00391 825.4 8.8
861(16) 0.00381 826.0 8.8
872(16) 0.00394 826.6 8.8
851(15) 0.00424 827.1 8.8
813(15) 0.00432 827.7 8.8
812(15) 0.00416 828.3 8.8
851(16) 0.00373 828.9 8.8
859(16) 0.00384 829.5 8.9
843(15) 0.00424 830.1 8.9
845(15) 0.00413 830.7 8.9
850(16) 0.00380 831.3 8.9
828(16) 0.00390 831.9 9.0
850(16) 0.00396 832.4 9.0
830(15) 0.00433 833.0 9.0
838(15) 0.00402 833.6 9.1
826(15) 0.00401 834.2 9.1
837(16) 0.00391 834.8 9.2
832(15) 0.00411 835.4 9.2
855(15) 0.00421 836.0 9.3
856(16) 0.00387 836.6 9.3
846(16) 0.00391 837.2 9.4
854(16) 0.00390 837.7 9.4
808(15) 0.00429 838.3 9.5
846(15) 0.00422 838.8 9.5
847(16) 0.00391 839.4 9.6
847(16) 0.00379 839.9 9.7
815(15) 0.00410 840.4 9.8
874(16) 0.00394 840.9 9.8
884(15) 0.00406 841.4 9.9
887(16) 0.00378 841.9 10.0
867(16) 0.00375 842.4 10.1
864(16) 0.00390 842.9 10.2
905(16) 0.00386 843.4 10.3
860(15) 0.00413 843.9 10.4
836(15) 0.00406 844.4 10.5
862(16) 0.00362 844.9 10.6
842(16) 0.00394 845.4 10.7
854(15) 0.00416 845.9 10.9
846(15) 0.00419 846.4 11.0
846(16) 0.00400 846.9 11.1
836(16) 0.00375 847.4 11.3
873(16) 0.00380 847.9 11.4
846(15) 0.00425 848.4 11.6
884(16) 0.00400 848.9 11.7
873(16) 0.00392 849.4 11.9
844(16) 0.00363 849.9 12.0
827(15) 0.00411 850.4 12.2
859(15) 0.00412 850.9 12.4
852(15) 0.00416 851.4 12.6
863(16) 0.00386 851.9 12.8
841(16) 0.00373 852.4 13.0
848(16) 0.00397 852.9 13.2
865(15) 0.00414 853.4 13.4
869(15) 0.00406 853.9 13.6
882(16) 0.00376 854.4 13.9
895(16) 0.00358 854.9 14.1
857(16) 0.00398 855.4 14.4
866(15) 0.00416 855.9 14.7
862(15) 0.00402 856.4 15.0
863(16) 0.00381 856.9 15.3
839(16) 0.00389 857.4 15.6
843(16) 0.00394 857.9 15.9
907(16) 0.00396 858.4 16.2
869(16) 0.00399 858.9 16.6
864(16) 0.00387 859.4 16.9
893(16) 0.00372 859.9 17.3
891(16) 0.00382 860.4 17.7
866(15) 0.00413 860.9 18.2
863(16) 0.00395 861.4 18.6
882(16) 0.00371 861.9 19.1
885(16) 0.00375 862.4 19.5
880(16) 0.00394 862.9 20.0
865(15) 0.00416 863.4 20.6
837(16) 0.00391 863.9 21.1
899(16) 0.00361 864.4 21.7
949(16) 0.00357 865.0 22.3
881(16) 0.00395 865.5 23.0
936(16) 0.00385 866.0 23.7
897(16) 0.00375 866.5 24.4
881(16) 0.00359 867.0 25.2
880(16) 0.00388 867.5 26.0
911(16) 0.00382 868.0 26.8
885(15) 0.00406 868.5 27.7
883(16) 0.00379 869.0 28.7
859(16) 0.00374 869.5 29.7
925(16) 0.00362 870.0 30.7
911(16) 0.00387 870.5 31.8
886(15) 0.00407 871.0 33.0
889(16) 0.00383 871.5 34.3
923(17) 0.003372 872.0 35.7
880(16) 0.00383 872.5 37.2
906(16) 0.00396 873.0 38.7
884(16) 0.00400 873.5 40.4
881(16) 0.00381 874.0 42.1
914(17) 0.003360 874.5 44.0
892(16) 0.00375 875.0 46.0
942(16) 0.00378 875.5 48.2
939(16) 0.00384 876.0 50.6
920(16) 0.00369 876.5 53.1
919(17) 0.003354 877.0 55.8
922(16) 0.00362 877.5 58.8
946(16) 0.00378 878.0 62.0
925(16) 0.00379 878.5 65.5
953(17) 0.003438 879.0 69.3
942(17) 0.003408 879.5 73.5
913(16) 0.00365 880.0 78.1
938(16) 0.00380 880.5 83.2
983(16) 0.00356 881.0 88.8
971(17) 0.003442 881.5 95.1
1009(18) 0.003148 882.0 102.0
1009(17) 0.003247 882.5 109.8
1002(16) 0.00360 883.0 118.4
995(17) 0.003502 883.5 128.2
978(17) 0.003490 884.0 139.1
1033(17) 0.003177 884.5 151.4
1062(17) 0.003220 885.0 165.2
1062(17) 0.003407 885.5 180.7
1028(17) 0.003364 886.0 198.1
1054(18) 0.003138 886.5 217.6
1122(18) 0.002982 887.0 239.4
1156(18) 0.002987 887.5 263.7
1157(18) 0.003123 888.0 290.6
1181(19) 0.002831 888.5 320.2
1207(19) 0.002779 889.0 352.7
1260(19) 0.002697 889.5 387.8
1338(19) 0.002602 890.1 425.4
1369(19) 0.002650 890.6 464.8
1393(20) 0.002394 891.1 505.2
1453(21) 0.002235 891.6 545.3
1531(21) 0.002204 892.1 583.4
1565(21) 0.002274 892.6 617.4
1629(21) 0.002232 893.1 645.0
1628(22) 0.002086 893.6 663.9
1594(22) 0.002043 894.1 672.6
1609(22) 0.002101 894.6 670.1
1615(21) 0.002221 895.1 656.8
1509(20) 0.002398 895.6 633.8
1497(21) 0.002238 896.1 603.2
1457(21) 0.002210 896.6 567.1
1447(20) 0.002342 897.1 527.8
1344(19) 0.002680 897.6 487.4
1325(19) 0.002721 898.1 447.3
1263(19) 0.002707 898.6 408.6
1325(21) 0.002314 899.1 372.0
1290(19) 0.002624 899.6 338.0
1228(18) 0.002945 900.1 306.7
1167(18) 0.003090 900.6 278.3
1165(18) 0.002921 901.1 252.5
1191(19) 0.002627 901.6 229.3
1137(18) 0.002982 902.1 208.5
1153(18) 0.003117 902.6 190.0
1176(18) 0.003025 903.1 173.4
1170(18) 0.002850 903.6 158.6
1076(18) 0.003009 904.1 145.5
1046(17) 0.003207 904.6 133.8
1089(17) 0.003323 905.1 123.4
1048(17) 0.003411 905.6 114.2
1086(18) 0.003061 906.1 105.9
1071(18) 0.002972 906.6 98.5
1061(18) 0.003152 907.1 91.8
999(16) 0.00360 907.6 85.9
1062(17) 0.003297 908.1 80.5
1006(17) 0.003343 908.6 75.6
998(17) 0.003272 909.1 71.1
990(17) 0.003471 909.6 67.1
994(16) 0.00363 910.1 63.4
1001(17) 0.003440 910.6 60.0
992(17) 0.003304 911.1 56.9
955(17) 0.003506 911.6 54.0
1001(17) 0.003415 912.1 51.4
997(16) 0.00361 912.6 48.9
995(17) 0.003341 913.1 46.6
970(17) 0.003386 913.6 44.5
937(17) 0.00353 914.1 42.5
984(16) 0.00357 914.6 40.7
991(16) 0.00362 915.1 38.9
952(17) 0.003460 915.7 37.3
954(17) 0.003358 916.2 35.8
945(16) 0.00357 916.7 34.4
981(16) 0.00358 917.2 33.0
948(16) 0.00376 917.7 31.8
957(17) 0.00355 918.2 30.6
984(17) 0.003237 918.7 29.5
982(17) 0.003434 919.2 28.4
941(16) 0.00378 919.7 27.4
961(16) 0.00373 920.2 26.5
948(17) 0.003504 920.7 25.6
928(17) 0.003364 921.2 24.7
931(16) 0.00363 921.7 23.9
1008(17) 0.00352 922.2 23.2
972(16) 0.00368 922.7 22.4
989(17) 0.003332 923.2 21.8
977(18) 0.003094 923.7 21.1
958(17) 0.003468 924.2 20.5
942(16) 0.00382 924.7 19.9
980(16) 0.00360 925.2 19.3
962(17) 0.003451 925.7 18.8
973(17) 0.003254 926.2 18.3
975(17) 0.003480 926.7 17.8
926(16) 0.00389 927.2 17.3
952(16) 0.00373 927.7 16.8
942(16) 0.00360 928.2 16.4
924(17) 0.003473 928.7 16.0
946(17) 0.00351 929.2 15.6
924(16) 0.00386 929.7 15.2
939(16) 0.00377 930.2 14.8
953(17) 0.003481 930.7 14.5
954(17) 0.003347 931.2 14.1
908(16) 0.00366 931.7 13.8
993(16) 0.00364 932.2 13.5
958(16) 0.00362 932.7 13.2
941(16) 0.00358 933.2 12.9
979(17) 0.003315 933.7 12.6
977(17) 0.003462 934.2 12.4
965(16) 0.00373 934.7 12.1
955(16) 0.00365 935.2 11.8
957(17) 0.003490 935.7 11.6
980(17) 0.003337 936.2 11.4
953(16) 0.00362 936.7 11.1
1007(16) 0.00357 937.2 10.9
952(16) 0.00361 937.7 10.7
975(17) 0.003352 938.2 10.5
941(16) 0.00362 938.7 10.3
1012(17) 0.003442 939.2 10.1
997(16) 0.00362 939.7 9.9
1024(17) 0.003287 940.2 9.8
962(17) 0.003444 940.8 9.6
959(17) 0.00352 941.3 9.4
941(16) 0.00371 941.8 9.3
946(16) 0.00378 942.3 9.1
914(16) 0.00367 942.8 9.0
953(17) 0.003415 943.3 8.8
977(17) 0.003460 943.8 8.7
976(16) 0.00360 944.3 8.5
958(16) 0.00372 944.8 8.4
1001(17) 0.003398 945.3 8.3
962(17) 0.003297 945.8 8.1
951(17) 0.00355 946.3 8.0
952(16) 0.00376 946.8 7.9
945(16) 0.00376 947.3 7.8
957(17) 0.00353 947.8 7.7
948(17) 0.003331 948.3 7.5
947(17) 0.00353 948.8 7.4
945(16) 0.00375 949.3 7.3
958(16) 0.00374 949.8 7.2
945(16) 0.00356 950.3 7.1
991(18) 0.003133 950.8 7.0
950(16) 0.00357 951.3 6.9
958(16) 0.00373 951.8 6.8
951(16) 0.00372 952.3 6.8
974(17) 0.003461 952.8 6.7
1022(18) 0.003105 953.3 6.6
964(17) 0.00353 953.8 6.5
995(16) 0.00363 954.3 6.4
974(16) 0.00362 954.8 6.3
961(17) 0.00355 955.3 6.3
958(17) 0.003337 955.8 6.2
988(17) 0.003388 956.3 6.1
982(16) 0.00366 956.8 6.1
999(17) 0.00351 957.3 6.0
971(17) 0.003471 957.8 5.9
1007(17) 0.003182 958.3 5.8
965(17) 0.003482 958.8 5.8
956(16) 0.00376 959.3 5.7
991(17) 0.003489 959.8 5.7
979(17) 0.003390 960.3 5.6
1008(17) 0.003289 960.8 5.5
997(17) 0.003489 961.3 5.5
966(16) 0.00372 961.8 5.4
979(17) 0.003496 962.3 5.4
998(17) 0.003286 962.8 5.3
981(17) 0.003374 963.3 5.3
993(17) 0.003464 963.8 5.2
967(16) 0.00372 964.3 5.2
932(16) 0.00358 964.8 5.1
983(17) 0.003358 965.3 5.1
960(17) 0.003490 965.7 5.0
951(16) 0.00364 966.1 5.0
992(16) 0.00361 966.5 5.0
1007(17) 0.003253 966.9 4.9
982(17) 0.003275 967.3 4.9
973(17) 0.003433 967.7 4.8
1014(17) 0.003438 968.1 4.8
954(16) 0.00378 968.6 4.8
1023(17) 0.003280 969.0 4.7
983(17) 0.003288 969.4 4.7
960(17) 0.003504 969.8 4.6
943(16) 0.00374 970.2 4.6
977(16) 0.00366 970.6 4.6
943(16) 0.00361 971.0 4.6
968(17) 0.003278 971.4 4.5
980(17) 0.003507 971.8 4.5
1031(17) 0.003476 972.3 4.5
1018(17) 0.00354 972.7 4.4
1000(17) 0.003363 973.1 4.4
1002(18) 0.003119 973.5 4.4
1010(17) 0.003296 973.9 4.4
1023(17) 0.003496 974.3 4.3
1027(17) 0.003453 974.7 4.3
1024(17) 0.003311 975.1 4.3
1000(17) 0.003213 975.5 4.3
972(17) 0.00351 975.9 4.3
991(16) 0.00361 976.4 4.2
988(16) 0.00356 976.8 4.2
989(17) 0.003425 977.2 4.2
1011(18) 0.003160 977.6 4.2
995(17) 0.003390 978.0 4.2
967(16) 0.00375 978.4 4.2
965(16) 0.00367 978.8 4.1
1020(17) 0.003253 979.2 4.1
970(17) 0.003348 979.6 4.1
975(17) 0.003457 980.1 4.1
1006(16) 0.00357 980.5 4.1
997(17) 0.003499 980.9 4.1
995(17) 0.003419 981.3 4.1
988(17) 0.003371 981.7 4.1
1000(17) 0.003338 982.1 4.1
958(16) 0.00376 982.5 4.1
989(17) 0.003394 982.9 4.1
971(17) 0.003448 983.3 4.1
984(17) 0.003347 983.8 4.1
980(17) 0.00351 984.2 4.1
983(16) 0.00365 984.6 4.1
977(17) 0.003483 985.0 4.1
1003(17) 0.003313 985.4 4.1
980(17) 0.003403 985.8 4.1
995(17) 0.003448 986.2 4.0
999(16) 0.00359 986.6 4.0
965(17) 0.003483 987.0 4.0
990(17) 0.003198 987.4 4.0
1026(17) 0.003242 987.9 4.0
1033(17) 0.003354 988.3 4.0
1012(16) 0.00358 988.7 4.0
994(17) 0.003400 989.1 4.0
990(17) 0.003261 989.5 3.9
983(17) 0.003487 989.9 3.9
989(16) 0.00358 990.3 3.9
1024(17) 0.00353 990.7 3.9
1019(17) 0.003407 991.1 3.9
992(17) 0.003288 991.6 3.8
1009(17) 0.003368 992.0 3.8
991(16) 0.00362 992.4 3.8
979(16) 0.00371 992.8 3.8
999(17) 0.003430 993.2 3.8
989(17) 0.003194 993.6 3.8
982(17) 0.003432 994.0 3.8
1004(17) 0.00356 994.4 3.7
1043(17) 0.003434 994.8 3.7
1023(17) 0.003268 995.3 3.7
1007(17) 0.003188 995.7 3.7
1027(17) 0.003284 996.1 3.7
995(16) 0.00365 996.5 3.7
995(17) 0.00355 996.9 3.7
993(17) 0.003392 997.3 3.7
1063(18) 0.002961 997.7 3.7
1038(17) 0.003237 998.1 3.7
983(16) 0.00365 998.5 3.7
1028(17) 0.003421 998.9 3.7
994(17) 0.003316 999.4 3.7
994(17) 0.003238 999.8 3.7
975(17) 0.003453 1000.2 3.7
1001(16) 0.00359 1000.6 3.7
1015(17) 0.003362 1001.0 3.7
988(17) 0.003345 1001.4 3.7
987(17) 0.003352 1001.8 3.7
990(17) 0.003448 1002.2 3.7
1019(17) 0.00352 1002.6 3.7
984(17) 0.00351 1003.1 3.7
994(17) 0.003338 1003.5 3.7
998(17) 0.003228 1003.9 3.8
998(17) 0.003410 1004.3 3.8
1035(17) 0.003472 1004.7 3.8
1029(17) 0.003366 1005.1 3.8
1014(17) 0.003299 1005.5 3.8
1001(17) 0.003378 1005.9 3.9
1021(17) 0.003420 1006.3 3.9
1008(17) 0.00355 1006.8 3.9
1055(17) 0.003214 1007.2 3.9
1044(17) 0.003172 1007.6 3.9
1003(17) 0.003345 1008.0 4.0
1017(17) 0.003430 1008.4 4.0
1032(17) 0.003479 1008.8 4.0
1001(17) 0.003338 1009.0 4.1
1013(18) 0.003150 1008.9 4.1
947(16) 0.00359 1008.9 4.1
1004(17) 0.00353 1008.9 4.2
997(16) 0.00357 1008.8 4.2
1013(17) 0.003306 1008.8 4.3
1054(18) 0.002953 1008.7 4.3
1033(17) 0.003274 1008.7 4.4
1014(17) 0.003494 1008.6 4.4
990(16) 0.00365 1008.6 4.5
1001(17) 0.003382 1008.6 4.5
1047(18) 0.002959 1008.5 4.6
1019(17) 0.003325 1008.5 4.6
1066(17) 0.003317 1008.4 4.7
1019(17) 0.003489 1008.4 4.8
965(17) 0.003507 1008.3 4.8
1003(18) 0.003118 1008.3 4.9
968(17) 0.003494 1008.3 5.0
1010(16) 0.00356 1008.2 5.1
986(16) 0.00360 1008.2 5.2
1028(17) 0.003269 1008.1 5.3
1015(17) 0.003206 1008.1 5.4
1029(17) 0.003296 1008.1 5.5
994(16) 0.00363 1008.0 5.6
1032(17) 0.003409 1008.0 5.7
997(17) 0.003417 1007.9 5.8
1014(18) 0.003167 1007.9 5.9
989(17) 0.003368 1007.8 6.1
957(16) 0.00376 1007.8 6.2
957(16) 0.00372 1007.8 6.4
992(17) 0.003385 1007.7 6.5
1014(17) 0.003227 1007.7 6.7
1002(17) 0.003304 1007.6 6.9
977(16) 0.00368 1007.6 7.1
1006(17) 0.003372 1007.5 7.3
984(17) 0.003304 1007.5 7.5
1005(17) 0.003187 1007.5 7.8
980(17) 0.003461 1007.4 8.0
1002(16) 0.00361 1007.4 8.3
1024(17) 0.003335 1007.3 8.6
988(17) 0.003419 1007.3 8.9
1018(17) 0.003259 1007.2 9.2
1009(17) 0.003395 1007.2 9.5
997(16) 0.00357 1007.2 9.9
1003(17) 0.003390 1007.1 10.3
991(17) 0.003374 1007.1 10.7
1039(17) 0.003221 1007.0 11.2
1003(17) 0.00351 1007.0 11.6
993(16) 0.00358 1006.9 12.2
1035(17) 0.003238 1006.9 12.7
986(17) 0.003269 1006.9 13.3
1005(17) 0.003339 1006.8 14.0
1007(17) 0.003488 1006.8 14.7
1039(17) 0.003460 1006.7 15.5
1046(17) 0.003213 1006.7 16.3
1028(18) 0.003065 1006.6 17.2
1023(17) 0.003272 1006.6 18.1
1001(17) 0.00356 1006.6 19.2
1051(17) 0.003423 1006.5 20.3
1027(17) 0.003284 1006.5 21.4
1028(18) 0.003099 1006.4 22.7
1015(17) 0.003354 1006.4 24.1
1027(17) 0.003413 1006.3 25.5
1009(16) 0.00357 1006.3 27.0
1028(17) 0.003250 1006.3 28.7
1057(18) 0.002957 1006.2 30.4
1072(18) 0.003085 1006.2 32.2
1057(17) 0.003394 1006.1 34.0
1024(17) 0.00351 1006.1 35.9
1031(17) 0.003253 1006.0 37.9
1044(18) 0.002991 1006.0 39.8
1025(17) 0.003241 1006.0 41.7
1030(17) 0.003495 1005.9 43.6
1061(17) 0.003374 1005.9 45.3
1056(17) 0.003216 1005.8 46.8
1047(18) 0.003026 1005.8 48.2
1059(18) 0.003146 1005.8 49.2
1020(17) 0.00353 1005.7 50.0
991(16) 0.00356 1005.7 50.4
996(17) 0.003349 1005.6 50.4
1102(18) 0.002906 1005.6 50.1
1006(17) 0.003296 1005.5 49.4
1016(17) 0.00354 1005.5 48.4
1004(17) 0.00351 1005.5 47.1
1086(18) 0.003093 1005.4 45.6
1098(18) 0.003028 1005.4 43.9
1085(18) 0.003146 1005.3 42.1
1012(16) 0.00356 1005.3 40.2
989(17) 0.003453 1005.2 38.2
1033(18) 0.003144 1005.2 36.3
1028(17) 0.003247 1005.2 34.4
1001(17) 0.003474 1005.1 32.5
1027(17) 0.003502 1005.1 30.7
1003(17) 0.003382 1005.0 28.9
1007(17) 0.003245 1005.0 27.3
1056(17) 0.003218 1004.9 25.7
1046(17) 0.003358 1004.9 24.2
991(16) 0.00363 1004.9 22.8
1042(18) 0.003149 1004.8 21.5
1031(17) 0.003173 1004.8 20.3
990(17) 0.003485 1004.7 19.2
1047(17) 0.003348 1004.7 18.1
1005(16) 0.00359 1004.6 17.2
1019(17) 0.003330 1004.6 16.2
1041(18) 0.003061 1004.6 15.4
1014(17) 0.003358 1004.5 14.6
1012(17) 0.003475 1004.5 13.9
1011(17) 0.00355 1004.4 13.2
1023(17) 0.003254 1004.4 12.6
1072(18) 0.002872 1004.3 12.0
999(17) 0.003375 1004.3 11.4
1046(17) 0.003438 1004.3 10.9
1035(17) 0.003479 1004.2 10.5
1083(18) 0.003107 1004.2 10.0
1023(18) 0.003067 1004.1 9.6
1037(17) 0.003255 1004.1 9.2
1040(17) 0.003482 1004.0 8.9
1010(16) 0.00358 1004.0 8.5
1013(17) 0.003245 1004.0 8.2
1004(17) 0.003177 1003.9 7.9
1049(17) 0.003174 1003.9 7.7
1015(16) 0.00356 1003.8 7.4
1027(17) 0.003432 1003.8 7.1
1008(17) 0.003374 1003.7 6.9
1016(17) 0.003199 1003.7 6.7
1008(17) 0.003364 1003.7 6.5
1029(17) 0.00352 1003.6 6.3
1024(17) 0.003459 1003.6 6.1
1020(17) 0.003331 1003.5 5.9
992(17) 0.003278 1003.5 5.8
1008(17) 0.003286 1003.4 5.6
987(16) 0.00362 1003.4 5.5
1025(17) 0.003407 1003.4 5.3
994(17) 0.003360 1003.3 5.2
961(17) 0.003391 1003.3 5.1
1057(17) 0.003184 1003.2 4.9
1038(17) 0.003487 1003.2 4.8
997(17) 0.00351 1003.2 4.7
1005(17) 0.003314 1003.1 4.6
1008(17) 0.003333 1003.1 4.5
1061(17) 0.003272 1003.0 4.4
1060(17) 0.003404 1003.0 4.3
993(17) 0.003481 1002.9 4.2
991(17) 0.003366 1002.9 4.1
1022(17) 0.003256 1002.9 4.0
1039(17) 0.003351 1002.8 4.0
988(16) 0.00364 1002.8 3.9
1010(17) 0.003341 1002.7 3.8
1007(17) 0.003237 1002.7 3.8
1020(17) 0.003348 1002.6 3.7
1048(17) 0.003354 1002.6 3.6
1010(16) 0.00359 1002.6 3.6
1008(17) 0.003315 1002.5 3.5
1027(18) 0.003088 1002.5 3.4
1010(17) 0.003308 1002.4 3.4
1010(17) 0.003460 1002.4 3.3
1025(17) 0.00351 1002.3 3.3
995(17) 0.003360 1002.3 3.2
998(17) 0.003173 1002.3 3.2
1046(17) 0.003201 1002.2 3.1
1032(17) 0.003449 1002.2 3.1
1038(17) 0.003466 1002.1 3.0
1028(17) 0.003278 1002.1 3.0
1023(18) 0.003039 1002.0 3.0
982(17) 0.00351 1002.0 2.9
1037(17) 0.003420 1002.0 2.9
1058(17) 0.003403 1001.9 2.8
1024(17) 0.003279 1001.9 2.8
975(17) 0.003220 1001.8 2.8
1011(17) 0.003359 1001.8 2.7
1035(17) 0.003448 1001.7 2.7
984(16) 0.00366 1001.7 2.7
1023(17) 0.003313 1001.7 2.6
1000(17) 0.003200 1001.6 2.6
988(17) 0.003330 1001.6 2.6
1002(16) 0.00361 1001.5 2.6
1008(17) 0.003488 1001.5 2.5
1024(17) 0.003368 1001.4 2.5
1038(18) 0.003172 1001.4 2.5
1016(17) 0.003302 1001.4 2.5
1028(17) 0.00352 1001.3 2.4
982(16) 0.00356 1001.3 2.4
986(17) 0.003376 1001.2 2.4
1025(18) 0.003129 1001.2 2.4
989(17) 0.003459 1001.1 2.3
972(16) 0.00369 1001.1 2.3
994(17) 0.003501 1001.1 2.3
984(17) 0.003443 1001.0 2.3
1030(17) 0.003204 1001.0 2.3
1036(17) 0.003255 1000.9 2.2
1043(17) 0.003455 1000.9 2.2
1022(17) 0.003321 1000.9 2.2
1044(18) 0.003129 1000.8 2.2
995(17) 0.003373 1000.8 2.2
1003(17) 0.003462 1000.7 2.1
1015(17) 0.00354 1000.7 2.1
982(17) 0.003343 1000.6 2.1
1032(18) 0.003120 1000.6 2.1
1006(17) 0.003393 1000.6 2.1
1002(17) 0.00354 1000.5 2.1
1009(16) 0.00356 1000.5 2.0
1021(17) 0.003233 1000.4 1.9
1034(18) 0.003153 1000.4 1.9
1034(17) 0.003261 1000.3 1.9
997(17) 0.00354 1000.3 1.9
981(16) 0.00364 1000.3 1.8
1038(17) 0.003267 1000.2 1.8
1008(18) 0.003128 1000.0 1.8
987(17) 0.003439 999.5 1.8
1020(17) 0.003500 999.0 1.8
1030(17) 0.003493 998.5 1.8
991(17) 0.003436 998.1 1.8
1024(18) 0.003056 997.6 1.8
1007(17) 0.003347 997.1 1.7
990(16) 0.00359 996.6 1.7
984(16) 0.00367 996.2 1.7
1012(17) 0.003355 995.7 1.7
1014(18) 0.003105 995.2 1.7
1008(17) 0.003353 994.7 1.7
1017(17) 0.00352 994.3 1.7
1006(16) 0.00357 993.8 1.7
991(17) 0.003391 993.3 1.7
1035(18) 0.003052 992.8 1.7
999(17) 0.003353 992.4 1.7
999(16) 0.00361 991.9 1.6
1017(17) 0.003430 991.4 1.6
1010(17) 0.003340 991.0 1.6
965(17) 0.003310 990.5 1.6
958(17) 0.003506 990.0 1.6
1031(17) 0.00351 989.5 1.6
1003(17) 0.003492 989.1 1.6
974(17) 0.003434 988.6 1.6
1001(17) 0.003234 988.1 1.6
1013(17) 0.003290 987.6 1.6
990(16) 0.00361 987.2 1.6
1036(17) 0.003345 986.7 1.6
988(17) 0.003451 986.2 1.5
1020(17) 0.003272 985.7 1.5
979(17) 0.003453 985.3 1.5
1029(17) 0.003503 984.8 1.5
974(17) 0.00353 984.3 1.5
997(17) 0.003318 983.8 1.5
968(17) 0.003464 983.4 1.5
1021(17) 0.003348 982.9 1.5
977(16) 0.00367 982.4 1.5
945(17) 0.00353 982.0 1.5
1003(17) 0.003181 981.5 1.5
981(17) 0.003397 981.0 1.5
967(16) 0.00360 980.5 1.5
1007(16) 0.00356 980.1 1.5
963(17) 0.003503 979.6 1.5
961(17) 0.003341 979.1 1.5
955(17) 0.003505 978.6 1.5
946(16) 0.00374 978.2 1.4
1003(16) 0.00358 977.7 1.4
982(17) 0.003394 977.2 1.4
988(17) 0.003239 976.7 1.4
1005(17) 0.003377 976.3 1.4
1029(17) 0.003419 975.8 1.4
1010(16) 0.00356 975.3 1.4
984(17) 0.003381 974.8 1.4
990(17) 0.003203 974.4 1.4
969(17) 0.003500 973.9 1.4
1023(17) 0.003506 973.4 1.4
993(16) 0.00363 973.0 1.4
1019(17) 0.003355 972.5 1.4
1041(18) 0.002974 972.0 1.4
980(17) 0.003420 971.5 1.4
983(16) 0.00361 971.1 1.4
1016(17) 0.00352 970.6 1.4
943(16) 0.00365 970.1 1.4
1014(18) 0.003116 969.6 1.4
973(17) 0.003471 969.2 1.4
1004(16) 0.00361 968.7 1.4
988(17) 0.00355 968.2 1.4
1001(17) 0.003329 967.7 1.4
992(17) 0.003243 967.3 1.4
975(17) 0.003362 966.8 1.4
962(16) 0.00374 966.3 1.4
981(16) 0.00359 965.8 1.3
989(17) 0.003359 965.4 1.3
965(17) 0.003353 964.9 1.3
980(17) 0.003399 964.4 1.3
951(16) 0.00375 964.0 1.3
969(16) 0.00361 963.5 1.3
986(17) 0.003250 963.0 1.3
990(17) 0.003237 962.5 1.3
986(17) 0.003383 962.1 1.3
997(16) 0.00363 961.6 1.3
937(16) 0.00358 961.1 1.3
942(17) 0.00351 960.6 1.3
944(16) 0.00357 960.2 1.3
964(16) 0.00357 959.7 1.3
917(16) 0.00391 959.2 1.3
929(16) 0.00357 958.7 1.3
967(17) 0.003367 958.3 1.3
982(17) 0.003338 957.8 1.3
963(16) 0.00364 957.3 1.3
982(16) 0.00366 956.8 1.3
999(17) 0.003285 956.4 1.3
986(17) 0.003278 955.9 1.3
972(17) 0.003482 955.4 1.3
929(16) 0.00376 955.0 1.3
988(16) 0.00363 954.5 1.3
991(17) 0.003498 954.0 1.3
961(17) 0.003399 953.5 1.3
999(17) 0.003317 953.1 1.3
951(16) 0.00373 952.6 1.3
991(16) 0.00363 952.1 1.3
954(17) 0.00354 951.6 1.3
923(17) 0.003473 951.2 1.3
954(16) 0.00364 950.7 1.3
948(16) 0.00377 950.2 1.3
1002(16) 0.00357 949.7 1.3
965(17) 0.003505 949.3 1.3
970(17) 0.003198 948.8 1.3
980(17) 0.003432 948.3 1.3
970(16) 0.00368 947.8 1.3
937(16) 0.00382 947.4 1.3
978(17) 0.003424 946.9 1.3
960(17) 0.003285 946.4 1.3
955(17) 0.003507 946.0 1.3
906(16) 0.00398 945.5 1.3
972(16) 0.00366 945.0 1.3
977(17) 0.003480 944.5 1.3
959(17) 0.003387 944.1 1.3
953(16) 0.00357 943.6 1.3
961(16) 0.00372 943.1 1.3
937(16) 0.00373 942.6 1.3
901(16) 0.00366 942.2 1.3
930(17) 0.003470 941.7 1.3
971(17) 0.003394 941.2 1.3
981(16) 0.00367 940.7 1.3
977(17) 0.00354 940.3 1.3
926(16) 0.00358 939.8 1.3
973(17) 0.003219 939.3 1.3
920(16) 0.00365 938.8 1.3
940(16) 0.00381 938.4 1.3
985(17) 0.003455 937.9 1.3
957(17) 0.003424 937.4 1.3
948(16) 0.00358 937.0 1.3
947(16) 0.00364 936.5 1.3
977(16) 0.00370 936.0 1.3
988(17) 0.003455 935.5 1.3
929(16) 0.00358 935.1 1.3
944(16) 0.00356 934.6 1.3
920(16) 0.00381 934.1 1.3
934(16) 0.00382 933.6 1.3
923(16) 0.00358 933.2 1.3
959(17) 0.003408 932.7 1.3
934(16) 0.00356 932.2 1.3
967(16) 0.00361 931.7 1.3
1006(16) 0.00358 931.3 1.3
940(17) 0.00354 930.8 1.3
978(18) 0.003162 930.3 1.3
937(16) 0.00363 929.8 1.3
980(16) 0.00363 929.4 1.3
947(16) 0.00377 928.9 1.3
915(16) 0.00363 928.4 1.3
911(17) 0.00351 928.0 1.3
950(17) 0.00353 927.5 1.3
976(16) 0.00367 927.0 1.3
970(16) 0.00370 926.5 1.3
935(16) 0.00359 926.1 1.3
938(17) 0.003268 925.6 1.3
926(16) 0.00366 925.1 1.3
948(16) 0.00379 924.6 1.3
946(16) 0.00382 924.2 1.3
919(16) 0.00365 923.7 1.3
984(18) 0.003107 923.2 1.3
926(16) 0.00366 922.7 1.3
951(16) 0.00379 922.3 1.3
942(16) 0.00375 921.8 1.3
940(17) 0.003482 921.3 1.3
910(17) 0.00352 920.8 1.3
956(17) 0.003468 920.4 1.3
963(16) 0.00373 919.9 1.3
923(16) 0.00374 919.4 1.3
976(17) 0.003373 919.0 1.3
935(17) 0.003423 918.5 1.3
883(16) 0.00376 918.0 1.3
895(16) 0.00401 917.5 1.3
935(16) 0.00371 917.1 1.3
927(16) 0.00365 916.6 1.3
946(17) 0.003484 916.1 1.3
902(16) 0.00373 915.6 1.3
930(16) 0.00386 915.2 1.3
919(16) 0.00373 914.7 1.3
948(17) 0.003495 914.2 1.3
952(17) 0.003440 913.7 1.3
914(16) 0.00377 913.3 1.3
920(16) 0.00392 912.8 1.3
926(16) 0.00369 912.3 1.3
940(17) 0.00353 911.8 1.3
995(17) 0.003314 911.4 1.3
910(16) 0.00376 910.9 1.3
942(16) 0.00383 910.4 1.3
961(17) 0.00353 909.9 1.4
960(17) 0.003352 909.5 1.4
925(17) 0.00353 909.0 1.4
886(16) 0.00398 908.5 1.4
952(16) 0.00377 908.1 1.4
938(17) 0.003504 907.6 1.4
927(17) 0.003480 907.1 1.4
930(16) 0.00363 906.6 1.4
932(16) 0.00376 906.2 1.4
930(16) 0.00387 905.7 1.4
912(16) 0.00371 905.2 1.4
932(17) 0.003413 904.7 1.4
909(16) 0.00374 904.3 1.4
897(16) 0.00394 903.8 1.4
923(16) 0.00390 903.3 1.4
940(16) 0.00357 902.8 1.4
920(17) 0.003426 902.4 1.4
887(16) 0.00384 901.9 1.4
893(15) 0.00404 901.4 1.4
884(15) 0.00407 900.9 1.4
920(16) 0.00361 900.5 1.4
934(17) 0.003349 900.0 1.4
894(16) 0.00381 899.5 1.4
927(16) 0.00387 899.1 1.4
941(16) 0.00377 898.6 1.4
906(16) 0.00380 898.1 1.4
902(17) 0.00352 897.6 1.5
898(16) 0.00371 897.2 1.5
929(16) 0.00386 896.7 1.5
907(16) 0.00386 896.2 1.5
945(17) 0.00355 895.7 1.5
924(17) 0.003477 895.3 1.5
902(16) 0.00370 894.8 1.5
890(16) 0.00399 894.3 1.5
915(16) 0.00378 893.8 1.5
963(17) 0.003451 893.4 1.5
879(16) 0.00376 892.9 1.5
929(16) 0.00361 892.4 1.5
909(16) 0.00392 891.9 1.5
920(16) 0.00376 891.5 1.5
908(16) 0.00363 891.0 1.5
933(17) 0.003489 890.5 1.5
885(16) 0.00386 890.1 1.6
870(15) 0.00412 889.6 1.6
885(16) 0.00380 889.1 1.6
900(16) 0.00363 888.6 1.6
870(16) 0.00382 888.2 1.6
844(16) 0.00397 887.7 1.6
916(16) 0.00394 887.2 1.6
872(16) 0.00389 886.7 1.6
875(16) 0.00370 886.3 1.6
869(16) 0.00388 885.8 1.6
875(16) 0.00397 885.3 1.6
886(15) 0.00402 884.8 1.6
931(17) 0.00354 884.4 1.6
892(16) 0.00360 883.9 1.7
925(16) 0.00358 883.4 1.7
923(16) 0.00382 882.9 1.7
897(16) 0.00399 882.5 1.7
891(16) 0.00380 882.0 1.7
898(16) 0.00356 881.5 1.7
898(16) 0.00375 881.1 1.7
899(16) 0.00390 880.6 1.7
866(15) 0.00414 880.1 1.7
853(16) 0.00388 879.6 1.7
905(17) 0.003432 879.2 1.8
891(16) 0.00374 878.7 1.8
853(15) 0.00419 878.2 1.8
920(16) 0.00390 877.7 1.8
901(16) 0.00367 877.3 1.8
927(17) 0.003316 876.8 1.8
892(16) 0.00378 876.3 1.8
881(15) 0.00407 875.8 1.8
950(16) 0.00372 875.4 1.9
879(16) 0.00384 874.9 1.9
852(16) 0.00377 874.4 1.9
859(16) 0.00397 873.9 1.9
906(16) 0.00395 873.5 1.9
849(15) 0.00416 873.0 1.9
852(16) 0.00390 872.5 2.0
887(16) 0.00358 872.1 2.0
894(16) 0.00374 871.6 2.0
865(15) 0.00414 871.1 2.0
903(16) 0.00391 870.6 2.0
884(16) 0.00389 870.2 2.0
883(16) 0.00374 869.7 2.1
889(16) 0.00381 869.2 2.1
924(16) 0.00386 868.7 2.1
865(15) 0.00403 868.3 2.1
899(16) 0.00365 867.8 2.2
877(16) 0.00371 867.3 2.2
864(16) 0.00385 866.8 2.2
888(15) 0.00405 866.3 2.2
897(16) 0.00377 865.8 2.3
874(16) 0.00377 865.2 2.3
893(16) 0.00371 864.7 2.3
866(16) 0.00398 864.2 2.3
897(15) 0.00402 863.7 2.4
863(16) 0.00390 863.1 2.4
834(16) 0.00384 862.6 2.4
846(16) 0.00392 862.1 2.5
889(16) 0.00394 861.6 2.5
853(15) 0.00417 861.0 2.5
892(16) 0.00369 860.5 2.6
870(16) 0.00368 860.0 2.6
868(16) 0.00384 859.4 2.7
886(16) 0.00397 858.9 2.7
831(15) 0.00429 858.4 2.7
851(16) 0.00389 857.9 2.8
886(16) 0.00361 857.3 2.8
876(16) 0.00387 856.8 2.9
830(15) 0.00424 856.3 3.0
842(15) 0.00420 855.8 3.0
885(16) 0.00378 855.2 3.1
858(16) 0.00375 854.7 3.1
879(16) 0.00391 854.2 3.2
865(15) 0.00412 853.7 3.3
807(15) 0.00446 853.1 3.3
867(16) 0.00389 852.6 3.4
907(17) 0.003466 852.1 3.5
872(16) 0.00390 851.5 3.6
811(15) 0.00441 851.0 3.7
851(15) 0.00420 850.5 3.8
859(16) 0.00385 850.0 3.9
825(16) 0.00374 849.4 4.0
835(16) 0.00397 848.9 4.1
841(15) 0.00428 848.4 4.2
907(16) 0.00386 847.9 4.4
846(15) 0.00402 847.3 4.5
823(16) 0.00394 846.8 4.7
851(16) 0.00390 846.3 4.8
862(15) 0.00415 845.8 5.0
833(15) 0.00422 845.2 5.2
837(16) 0.00393 844.7 5.3
894(16) 0.00357 844.2 5.5
850(16) 0.00386 843.6 5.7
835(15) 0.00430 843.1 6.0
845(15) 0.00413 842.6 6.2
850(16) 0.00396 842.1 6.4
873(16) 0.00364 841.5 6.7
843(16) 0.00399 841.0 6.9
872(15) 0.00411 840.5 7.2
867(16) 0.00396 840.0 7.4
872(16) 0.00379 839.4 7.7
866(16) 0.00387 838.9 8.0
853(16) 0.00395 838.4 8.2
833(15) 0.00430 837.9 8.5
860(16) 0.00388 837.3 8.7
814(15) 0.00407 836.8 9.0
866(16) 0.00383 836.3 9.2
862(15) 0.00402 835.8 9.4
828(15) 0.00432 835.2 9.5
822(15) 0.00404 834.7 9.6
834(16) 0.00386 834.2 9.7
869(16) 0.00382 833.6 9.8
888(16) 0.00390 833.1 9.8
881(15) 0.00408 832.6 9.8
894(16) 0.00369 832.1 9.7
872(16) 0.00361 831.5 9.6
858(16) 0.00389 831.0 9.5
850(15) 0.00414 830.5 9.3
844(15) 0.00424 830.0 9.1
851(16) 0.00393 829.4 8.9
827(16) 0.00386 828.9 8.7
882(16) 0.00378 828.4 8.5
882(15) 0.00401 827.9 8.3
852(15) 0.00422 827.3 8.0
868(16) 0.00385 826.8 7.8
843(16) 0.00374 826.3 7.6
838(15) 0.00403 825.7 7.4
854(15) 0.00418 825.2 7.2
854(15) 0.00410 824.7 7.0
840(16) 0.00397 824.2 6.8
810(16) 0.00381 823.6 6.6
868(16) 0.00380 823.1 6.5
836(15) 0.00429 822.6 6.3
827(15) 0.00428 822.1 6.2
820(15) 0.00408 821.5 6.0
839(16) 0.00380 821.0 5.9
834(15) 0.00402 820.5 5.8
810(15) 0.00443 820.0 5.7
817(15) 0.00423 819.4 5.6
833(15) 0.00403 818.9 5.5
825(16) 0.00389 818.4 5.5
816(15) 0.00407 817.8 5.4
830(15) 0.00430 817.3 5.3
831(15) 0.00416 816.8 5.3
846(16) 0.00401 816.3 5.2
828(15) 0.00401 815.7 5.2
851(16) 0.00390 815.2 5.2
865(15) 0.00413 814.7 5.1
833(15) 0.00412 814.2 5.1
841(16) 0.00401 813.6 5.1
863(16) 0.00375 813.1 5.1
824(15) 0.00409 812.6 5.1
839(15) 0.00427 812.1 5.1
813(15) 0.00419 811.5 5.1
797(15) 0.00405 811.0 5.1
804(15) 0.00411 810.5 5.1
840(15) 0.00405 810.0 5.1
810(15) 0.00439 809.4 5.1
825(15) 0.00407 808.9 5.2
781(15) 0.00417 808.4 5.2
828(16) 0.00387 807.8 5.2
820(15) 0.00412 807.3 5.3
763(14) 0.00467 806.8 5.3
798(15) 0.00415 806.3 5.3
828(16) 0.00393 805.7 5.4
872(16) 0.00374 805.2 5.4
794(15) 0.00443 804.7 5.5
800(15) 0.00448 804.2 5.6
788(15) 0.00427 803.6 5.6
822(16) 0.00386 803.1 5.7
818(15) 0.00409 802.6 5.8
842(15) 0.00423 802.1 5.8
806(15) 0.00447 801.5 5.9
817(15) 0.00412 801.0 6.0
810(16) 0.00376 800.5 6.1
780(15) 0.00432 799.9 6.2
812(15) 0.00437 799.4 6.3
815(15) 0.00436 798.9 6.4
821(15) 0.00412 798.4 6.5
820(16) 0.00382 797.8 6.6
789(15) 0.00430 797.3 6.8
811(15) 0.00437 796.8 6.9
823(15) 0.00432 796.3 7.0
812(15) 0.00420 795.7 7.2
794(16) 0.00398 795.2 7.3
769(15) 0.00430 794.7 7.5
832(15) 0.00430 794.2 7.7
826(15) 0.00425 793.6 7.8
826(15) 0.00407 793.1 8.0
820(16) 0.00390 792.6 8.2
798(15) 0.00418 792.0 8.4
783(14) 0.00457 791.5 8.7
849(15) 0.00415 791.0 8.9
808(15) 0.00415 790.5 9.1
783(15) 0.00415 789.9 9.4
792(15) 0.00426 789.4 9.7
800(15) 0.00446 788.9 10.0
798(15) 0.00425 788.4 10.3
761(15) 0.00432 787.8 10.6
755(15) 0.00440 787.3 11.0
804(15) 0.00417 786.8 11.3
785(15) 0.00455 786.3 11.7
808(15) 0.00419 785.7 12.2
818(16) 0.00393 785.2 12.6
792(15) 0.00414 784.7 13.1
785(15) 0.00427 784.2 13.6
800(15) 0.00448 783.6 14.2
820(16) 0.00399 783.1 14.8
758(15) 0.00438 782.6 15.4
843(16) 0.00393 782.0 16.1
832(15) 0.00421 781.5 16.9
805(15) 0.00444 781.0 17.7
810(15) 0.00406 780.5 18.6
797(15) 0.00408 779.9 19.6
767(15) 0.00436 779.4 20.6
796(15) 0.00433 778.9 21.8
815(15) 0.00441 778.4 23.0
828(16) 0.00398 777.8 24.4
783(15) 0.00412 777.3 26.0
805(15) 0.00418 776.8 27.7
819(15) 0.00432 776.3 29.5
839(15) 0.00422 775.7 31.6
814(15) 0.00404 775.2 34.0
818(16) 0.00386 774.7 36.6
812(15) 0.00413 774.1 39.6
796(15) 0.00446 773.6 43.0
831(15) 0.00426 773.1 46.9
829(15) 0.00410 772.6 51.3
800(16) 0.00397 772.0 56.6
846(15) 0.00404 771.5 62.8
863(15) 0.00419 771.0 70.3
810(15) 0.00438 770.5 79.6
924(16) 0.00360 769.9 91.3
862(16) 0.00371 769.4 106.2
872(16) 0.00384 768.9 125.5
893(15) 0.00402 768.4 150.5
936(16) 0.00381 767.8 182.7
982(17) 0.003379 767.3 223.8
995(17) 0.003200 766.8 275.2
992(17) 0.003387 766.2 337.9
1114(17) 0.003233 765.7 412.2
1200(18) 0.002951 765.2 497.0
1243(19) 0.002691 764.7 588.7
1377(20) 0.002353 764.1 680.4
1496(21) 0.002236 763.6 760.6
1578(21) 0.002298 763.1 814.3
1576(21) 0.002243 762.6 828.7
1645(22) 0.002050 762.0 799.7
1542(21) 0.002172 761.5 735.1
1397(20) 0.002508 761.0 649.5
1307(19) 0.002770 760.5 556.7
1262(19) 0.002733 759.9 466.9
1120(18) 0.002944 759.4 385.5
1071(18) 0.003151 758.9 315.3
1036(17) 0.003319 758.4 256.7
987(16) 0.00364 757.8 209.1
969(17) 0.003447 757.3 171.3
925(17) 0.00353 756.8 141.9
884(16) 0.00380 756.2 119.1
878(16) 0.00391 755.7 101.6
898(16) 0.00397 755.2 87.9
844(16) 0.00387 754.7 77.2
846(16) 0.00380 754.1 68.7
793(15) 0.00422 753.6 61.7
820(15) 0.00415 753.1 56.0
831(15) 0.00433 752.6 51.1
782(15) 0.00419 752.0 46.9
787(15) 0.00404 751.5 43.3
749(15) 0.00450 751.0 40.1
810(15) 0.00436 750.5 37.4
787(15) 0.00451 749.9 34.9
814(15) 0.00406 749.4 32.7
785(15) 0.00416 748.9 30.8
772(15) 0.00436 748.3 29.1
760(14) 0.00462 747.8 27.5
716(14) 0.00493 747.3 26.1
798(15) 0.00411 746.8 24.9
778(15) 0.00402 746.2 23.7
771(15) 0.00420 745.7 22.7
762(14) 0.00462 745.2 21.8
780(15) 0.00450 744.7 20.9
771(15) 0.00448 744.1 20.1
799(15) 0.00404 743.6 19.4
768(15) 0.00444 743.1 18.8
741(14) 0.00483 742.6 18.2
767(15) 0.00452 742.0 17.7
739(15) 0.00448 741.5 17.2
736(15) 0.00425 741.0 16.8
794(15) 0.00412 740.4 16.4
809(15) 0.00438 739.9 16.0
730(14) 0.00475 739.4 15.7
752(15) 0.00443 738.9 15.3
766(15) 0.00418 738.3 15.1
732(15) 0.00454 737.8 14.8
754(14) 0.00468 737.3 14.6
760(15) 0.00450 736.8 14.4
746(15) 0.00438 736.2 14.2
756(15) 0.00428 735.7 14.0
758(15) 0.00432 735.2 13.9
756(14) 0.00474 734.7 13.8
775(15) 0.00440 734.1 13.7
729(15) 0.00447 733.6 13.6
755(15) 0.00434 733.1 13.5
763(15) 0.00447 732.6 13.5
771(14) 0.00461 732.0 13.4
740(14) 0.00459 731.5 13.4
740(15) 0.00445 731.0 13.4
781(15) 0.00424 730.4 13.4
781(15) 0.00442 729.9 13.4
751(14) 0.00474 729.4 13.4
764(15) 0.00442 728.9 13.4
755(15) 0.00420 728.3 13.5
751(15) 0.00444 727.9 13.6
761(15) 0.00456 727.4 13.6
744(14) 0.00480 727.0 13.7
784(15) 0.00412 726.5 13.9
745(15) 0.00421 726.1 14.0
763(15) 0.00432 725.6 14.2
741(14) 0.00475 725.2 14.3
725(14) 0.00490 724.7 14.5
738(14) 0.00459 724.3 14.7
712(15) 0.00446 723.8 15.0
706(14) 0.00480 723.4 15.2
733(14) 0.00478 722.9 15.5
748(14) 0.00472 722.5 15.7
769(15) 0.00436 722.0 16.0
790(16) 0.00387 721.6 16.3
728(14) 0.00463 721.1 16.5
712(14) 0.00493 720.7 16.7
717(14) 0.00495 720.2 17.0
715(14) 0.00466 719.8 17.2
731(15) 0.00427 719.3 17.4
741(15) 0.00442 718.8 17.6
671(13) 0.00526 718.4 17.9
737(14) 0.00471 717.9 18.2
716(14) 0.00464 717.5 18.5
727(15) 0.00447 717.0 18.8
708(14) 0.00480 716.6 19.2
729(14) 0.00494 716.1 19.6
740(14) 0.00467 715.7 20.0
732(15) 0.00445 715.2 20.5
675(14) 0.00467 714.8 21.0
700(14) 0.00467 714.3 21.5
743(14) 0.00484 713.9 22.0
759(14) 0.00457 713.4 22.6
709(14) 0.00471 713.0 23.3
736(15) 0.00441 712.5 23.9
763(15) 0.00439 712.1 24.6
714(14) 0.00495 711.6 25.4
765(15) 0.00449 711.2 26.1
741(15) 0.00445 710.7 27.0
720(15) 0.00449 710.3 27.9
702(14) 0.00481 709.8 28.8
726(14) 0.00493 709.4 29.8
724(15) 0.00455 708.9 30.9
736(15) 0.00449 708.5 32.0
730(14) 0.00459 708.0 33.2
739(14) 0.00460 707.6 34.4
704(14) 0.00504 707.1 35.8
754(15) 0.00440 706.7 37.3
733(15) 0.00450 706.2 38.8
752(15) 0.00438 705.8 40.5
743(14) 0.00468 705.3 42.2
788(15) 0.00452 704.9 44.1
737(14) 0.00461 704.4 46.2
733(15) 0.00447 704.0 48.4
761(15) 0.00435 703.5 50.7
760(14) 0.00457 703.1 53.3
757(14) 0.00472 702.6 56.1
753(15) 0.00447 702.2 59.1
745(15) 0.00430 701.7 62.3
691(14) 0.00497 701.2 65.9
786(15) 0.00447 700.8 69.8
774(14) 0.00464 700.3 74.0
756(15) 0.00441 699.9 78.7
787(16) 0.00388 699.4 83.9
790(15) 0.00413 699.0 89.6
798(15) 0.00445 698.5 96.0
795(15) 0.00445 698.1 103.0
775(15) 0.00436 697.6 110.9
792(16) 0.00387 697.2 119.7
801(15) 0.00425 696.7 129.6
833(15) 0.00428 696.3 140.6
815(15) 0.00437 695.8 153.1
845(16) 0.00391 695.4 167.0
845(16) 0.00367 694.9 182.7
878(16) 0.00388 694.5 200.3
904(16) 0.00393 694.0 220.1
931(16) 0.00380 693.6 242.1
940(16) 0.00364 693.1 266.6
951(17) 0.003476 692.7 293.7
999(17) 0.003369 692.2 323.6
1038(17) 0.003464 691.8 356.3
1082(17) 0.003278 691.3 391.5
1147(18) 0.002987 690.9 428.9
1188(19) 0.002765 690.4 467.9
1203(18) 0.002855 690.0 507.4
1276(18) 0.002849 689.5 546.0
1321(19) 0.002655 689.1 581.7
1298(19) 0.002625 688.6 612.4
1350(20) 0.002424 688.2 635.7
1307(19) 0.002649 687.7 649.6
1303(19) 0.002784 687.3 652.8
1233(18) 0.002850 686.8 645.1
1270(19) 0.002657 686.4 627.1
1265(19) 0.002639 685.9 600.5
1162(18) 0.002968 685.5 567.5
1118(17) 0.003229 685.0 530.4
1137(18) 0.002881 684.6 491.3
1085(18) 0.003054 684.1 452.0
1042(17) 0.003243 683.6 413.6
1022(17) 0.003363 683.2 377.1
1003(16) 0.00360 682.7 343.0
985(17) 0.003385 682.3 311.6
941(17) 0.003426 681.8 282.9
925(16) 0.00364 681.4 257.0
934(16) 0.00374 680.9 233.6
924(16) 0.00390 680.5 212.6
905(16) 0.00367 680.0 193.9
837(16) 0.00387 679.6 177.2
870(16) 0.00385 679.1 162.4
860(15) 0.00415 678.7 149.1
849(15) 0.00420 678.2 137.4
812(15) 0.00419 677.8 126.9
839(16) 0.00374 677.3 117.6
812(15) 0.00420 676.9 109.3
786(15) 0.00450 676.4 101.9
761(14) 0.00467 676.0 95.2
779(15) 0.00423 675.5 89.3
764(16) 0.00396 675.1 83.9
758(15) 0.00435 674.6 79.1
783(15) 0.00454 674.2 74.7
771(14) 0.00457 673.7 70.7
731(15) 0.00452 673.3 67.1
745(15) 0.00412 672.8 63.8
720(14) 0.00458 672.4 60.8
733(14) 0.00488 671.9 58.1
748(14) 0.00478 671.5 55.5
757(15) 0.00446 671.0 53.2
743(15) 0.00424 670.6 51.1
748(15) 0.00433 670.1 49.2
714(14) 0.00499 669.7 47.4
711(14) 0.00483 669.2 45.7
731(15) 0.00452 668.8 44.2
769(15) 0.00418 668.3 42.9
716(14) 0.00468 667.9 41.6
674(13) 0.00525 667.4 40.5
737(14) 0.00467 666.9 39.4
728(15) 0.00453 666.5 38.5
725(15) 0.00455 666.0 37.6
740(14) 0.00464 665.6 36.9
716(14) 0.00495 665.1 36.2
712(14) 0.00463 664.7 35.6
699(14) 0.00469 664.2 35.1
705(14) 0.00464 663.8 34.7
700(14) 0.00490 663.3 34.4
748(14) 0.00475 662.9 34.1
651(14) 0.00509 662.4 34.0
696(14) 0.00460 662.0 33.9
713(14) 0.00458 661.5 33.9
712(14) 0.00480 661.1 34.1
691(14) 0.00510 660.6 34.3
699(14) 0.00478 660.2 34.6
703(15) 0.00455 659.7 35.1
690(14) 0.00480 659.3 35.7
685(14) 0.00517 658.8 36.4
695(14) 0.00515 658.4 37.3
708(14) 0.00459 657.9 38.3
724(15) 0.00443 657.5 39.5
722(14) 0.00476 657.0 40.9
719(14) 0.00487 656.6 42.5
678(14) 0.00522 656.1 44.3
734(15) 0.00448 655.7 46.3
727(15) 0.00439 655.2 48.6
732(15) 0.00448 654.8 51.1
687(14) 0.00519 654.3 53.8
684(14) 0.00517 653.9 56.8
669(14) 0.00495 653.4 60.0
698(15) 0.00445 653.0 63.4
739(15) 0.00443 652.5 67.0
763(14) 0.00468 652.1 70.6
721(14) 0.00496 651.6 74.2
733(14) 0.00462 651.2 77.5
703(15) 0.00440 650.7 80.6
683(14) 0.00490 650.3 83.2
741(14) 0.00482 649.8 85.1
750(14) 0.00469 649.3 86.2
745(15) 0.00449 648.9 86.5
748(15) 0.00429 648.4 85.9
784(15) 0.00414 648.0 84.5
795(15) 0.00450 647.5 82.5
753(14) 0.00467 647.1 79.8
696(14) 0.00487 646.6 76.9
745(15) 0.00426 646.2 73.7
701(14) 0.00481 645.7 70.4
733(14) 0.00485 645.3 67.3
675(14) 0.00510 644.8 64.2
681(14) 0.00485 644.4 61.4
704(14) 0.00456 643.9 58.9
667(14) 0.00505 643.5 56.6
676(13) 0.00526 643.0 54.6
715(14) 0.00474 642.6 53.0
665(14) 0.00495 642.1 51.6
665(14) 0.00489 641.7 50.6
703(14) 0.00490 641.2 49.8
668(13) 0.00527 640.8 49.3
708(14) 0.00474 640.3 49.1
699(14) 0.00469 639.9 49.2
705(14) 0.00470 639.4 49.6
666(14) 0.00523 639.0 50.2
700(14) 0.00508 638.5 51.0
707(14) 0.00464 638.1 52.1
672(14) 0.00487 637.6 53.3
670(14) 0.00503 637.2 54.8
685(14) 0.00502 636.7 56.4
667(13) 0.00532 636.3 58.1
689(14) 0.00477 635.8 59.9
679(14) 0.00475 635.4 61.7
693(14) 0.00475 634.9 63.4
681(14) 0.00516 634.5 65.0
698(14) 0.00508 634.0 66.4
699(14) 0.00480 633.6 67.5
721(15) 0.00432 633.1 68.2
700(14) 0.00469 632.7 68.5
678(14) 0.00510 632.2 68.3
668(13) 0.00537 631.7 67.6
688(14) 0.00490 631.3 66.5
682(14) 0.00458 630.8 64.9
721(14) 0.00462 630.4 63.0
703(14) 0.00504 629.9 60.8
682(14) 0.00519 629.5 58.4
730(15) 0.00452 629.0 55.8
670(14) 0.00472 628.6 53.2
648(14) 0.00513 628.1 50.5
664(13) 0.00534 627.7 47.9
664(13) 0.00529 627.2 45.4
701(14) 0.00484 626.8 42.9
662(14) 0.00484 626.3 40.6
666(14) 0.00497 625.9 38.4
643(13) 0.00548 625.4 36.3
687(14) 0.00509 625.0 34.4
654(14) 0.00494 624.5 32.6
644(14) 0.00489 624.1 30.9
653(14) 0.00502 623.6 29.4
650(13) 0.00546 623.2 28.0
654(13) 0.00531 622.7 26.7
677(14) 0.00481 622.3 25.5
659(14) 0.00490 621.8 24.4
626(14) 0.00520 621.4 23.3
603(13) 0.00584 620.9 22.4
635(13) 0.00533 620.5 21.6
653(14) 0.00494 620.0 20.8
679(14) 0.00472 619.6 20.1
623(13) 0.00544 619.1 19.4
652(13) 0.00546 618.7 18.8
629(13) 0.00530 618.2 18.3
628(14) 0.00512 617.8 17.8
646(14) 0.00498 617.3 17.3
617(13) 0.00548 616.9 16.9
622(13) 0.00571 616.4 16.6
652(14) 0.00511 616.0 16.3
606(13) 0.00538 615.5 16.0
623(13) 0.00540 615.1 15.7
625(13) 0.00546 614.6 15.5
616(13) 0.00566 614.1 15.3
605(13) 0.00535 613.7 15.1
653(14) 0.00490 613.2 15.0
618(13) 0.00548 612.8 14.9
628(13) 0.00556 612.3 14.8
673(13) 0.00527 611.9 14.7
633(13) 0.00530 611.4 14.7
621(14) 0.00519 611.0 14.7
634(13) 0.00530 610.5 14.7
616(13) 0.00565 610.1 14.8
632(13) 0.00558 609.6 14.8
594(13) 0.00537 609.2 15.0
594(14) 0.00520 608.7 15.1
629(13) 0.00541 608.3 15.3
626(13) 0.00566 607.8 15.5
615(13) 0.00572 607.4 15.8
635(14) 0.00521 606.9 16.2
609(14) 0.00511 606.5 16.7
616(13) 0.00541 606.0 17.3
629(13) 0.00560 605.6 18.1
630(13) 0.00550 605.1 19.2
648(14) 0.00509 604.7 20.8
660(14) 0.00480 604.2 23.2
641(13) 0.00540 603.8 26.8
626(13) 0.00567 603.3 32.2
640(13) 0.00552 602.9 40.3
715(14) 0.00463 602.4 51.6
721(15) 0.00443 602.0 66.7
734(15) 0.00456 601.5 85.5
730(14) 0.00485 601.1 106.9
733(14) 0.00478 600.6 128.5
757(15) 0.00447 600.2 146.4
744(15) 0.00437 599.7 155.4
748(15) 0.00452 599.3 152.1
757(14) 0.00470 598.8 137.7
700(14) 0.00489 598.4 117.0
708(14) 0.00464 597.9 94.7
666(14) 0.00482 597.5 74.1
682(14) 0.00478 597.0 56.7
646(13) 0.00546 596.5 43.2
617(13) 0.00544 596.1 33.2
637(14) 0.00505 595.6 26.2
617(13) 0.00527 595.2 21.4
646(13) 0.00533 594.7 18.2
581(13) 0.00602 594.3 16.0
616(13) 0.00544 593.8 14.4
593(13) 0.00554 593.4 13.2
614(13) 0.00529 592.9 12.2
625(13) 0.00544 592.5 11.4
580(13) 0.00605 592.0 10.7
596(13) 0.00557 591.6 10.1
599(13) 0.00542 591.1 9.6
596(13) 0.00547 590.7 9.1
589(13) 0.00592 590.2 8.7
579(13) 0.00603 589.8 8.4
603(13) 0.00540 589.3 8.0
615(14) 0.00503 588.9 7.7
612(13) 0.00548 588.4 7.4
588(13) 0.00591 588.0 7.2
609(13) 0.00580 587.5 6.9
602(13) 0.00545 587.1 6.7
612(13) 0.00525 586.6 6.5
628(13) 0.00534 586.2 6.3
599(13) 0.00582 585.7 6.2
606(13) 0.00581 585.3 6.0
582(13) 0.00576 584.8 5.9
613(14) 0.00493 584.4 5.7
599(13) 0.00544 583.9 5.6
606(13) 0.00583 583.5 5.4
594(13) 0.00591 583.0 5.3
590(13) 0.00571 582.6 5.2
608(14) 0.00520 582.1 5.1
580(13) 0.00578 581.7 5.0
592(13) 0.00593 581.2 4.9
589(13) 0.00587 580.8 4.8
623(13) 0.00546 580.3 4.7
608(14) 0.00516 579.9 4.6
597(13) 0.00543 579.4 4.5
601(13) 0.00586 578.9 4.4
589(13) 0.00586 578.5 4.4
598(13) 0.00540 578.0 4.3
565(13) 0.00569 577.6 4.2
589(13) 0.00549 577.1 4.2
594(13) 0.00596 576.7 4.1
583(13) 0.00579 576.2 4.0
575(13) 0.00563 575.8 4.0
555(13) 0.00589 575.3 3.9
591(13) 0.00567 574.9 3.9
626(13) 0.00560 574.4 3.8
580(13) 0.00581 574.0 3.7
583(13) 0.00545 573.5 3.7
593(13) 0.00532 573.1 3.6
572(13) 0.00581 572.6 3.6
604(13) 0.00581 572.2 3.5
597(13) 0.00549 571.7 3.5
585(13) 0.00551 571.3 3.5
579(13) 0.00567 570.8 3.4
578(13) 0.00587 570.5 3.4
575(12) 0.00610 570.2 3.3
562(13) 0.00587 569.8 3.3
561(13) 0.00554 569.5 3.3
574(13) 0.00557 569.1 3.2
582(13) 0.00586 568.8 3.2
559(12) 0.00627 568.4 3.2
582(13) 0.00574 568.1 3.1
554(13) 0.00574 567.7 3.1
591(13) 0.00560 567.4 3.1
583(13) 0.00600 567.0 3.0
566(12) 0.00619 566.7 3.0
572(13) 0.00576 566.4 3.0
551(13) 0.00566 566.0 2.9
569(13) 0.00587 565.7 2.9
585(13) 0.00591 565.3 2.9
558(12) 0.00635 565.0 2.9
568(13) 0.00588 564.6 2.8
558(13) 0.00549 564.3 2.8
573(13) 0.00575 563.9 2.8
605(13) 0.00574 563.6 2.8
585(13) 0.00600 563.3 2.7
599(13) 0.00548 562.9 2.7
557(13) 0.00568 562.6 2.7
599(13) 0.00544 562.2 2.7
562(12) 0.00630 561.9 2.7
599(13) 0.00574 561.5 2.6
551(12) 0.00606 561.2 2.6
556(13) 0.00579 560.8 2.6
547(12) 0.00606 560.5 2.6
534(12) 0.00662 560.1 2.6
574(13) 0.00591 559.8 2.5
559(13) 0.00579 559.5 2.5
545(13) 0.00590 559.1 2.5
542(12) 0.00619 558.8 2.5
559(12) 0.00625 558.4 2.5
575(13) 0.00595 558.1 2.5
570(13) 0.00579 557.7 2.4
572(13) 0.00558 557.4 2.4
565(13) 0.00590 557.0 2.4
563(12) 0.00627 556.7 2.4
567(13) 0.00585 556.3 2.4
582(13) 0.00560 556.0 2.4
558(13) 0.00583 555.7 2.4
538(12) 0.00620 555.3 2.4
573(12) 0.00614 555.0 2.3
586(13) 0.00575 554.6 2.3
555(13) 0.00594 554.3 2.3
571(13) 0.00579 553.9 2.3
571(13) 0.00583 553.6 2.3
530(12) 0.00660 553.2 2.3
518(12) 0.00645 552.9 2.3
565(13) 0.00562 552.6 2.3
579(13) 0.00554 552.2 2.3
564(13) 0.00596 551.9 2.3
535(12) 0.00652 551.5 2.3
585(13) 0.00559 551.2 2.3
553(13) 0.00563 550.8 2.2
536(12) 0.00623 550.5 2.2
567(12) 0.00606 550.1 2.2
555(12) 0.00637 549.8 2.2
559(13) 0.00584 549.4 2.2
560(13) 0.00545 549.1 2.2
571(13) 0.00587 548.8 2.2
578(13) 0.00598 548.4 2.2
578(12) 0.00611 548.1 2.2
612(13) 0.00527 547.7 2.2
564(13) 0.00569 547.4 2.2
569(13) 0.00569 547.0 2.2
549(12) 0.00639 546.7 2.2
553(12) 0.00631 546.3 2.2
561(13) 0.00584 546.0 2.2
565(13) 0.00528 545.7 2.2
556(13) 0.00594 545.3 2.3
561(12) 0.00617 545.0 2.3
588(13) 0.00592 544.6 2.3
548(13) 0.00604 544.3 2.3
531(13) 0.00586 543.9 2.3
515(12) 0.00636 543.6 2.3
562(12) 0.00628 543.2 2.3
544(12) 0.00647 542.9 2.3
582(13) 0.00571 542.5 2.3
539(13) 0.00601 542.2 2.4
530(12) 0.00608 541.9 2.4
550(12) 0.00637 541.5 2.4
526(12) 0.00647 541.2 2.4
544(13) 0.00596 540.8 2.4
573(13) 0.00546 540.5 2.4
572(13) 0.00573 540.1 2.5
539(12) 0.00650 539.8 2.5
577(13) 0.00586 539.4 2.5
557(13) 0.00587 539.1 2.5
522(12) 0.00620 538.7 2.5
565(13) 0.00577 538.4 2.5
549(12) 0.00636 538.1 2.5
563(13) 0.00601 537.7 2.5
539(12) 0.00607 537.4 2.5
558(13) 0.00571 537.0 2.5
555(13) 0.00593 536.7 2.5
511(12) 0.00679 536.3 2.5
538(12) 0.00618 536.0 2.5
550(13) 0.00587 535.6 2.5
519(12) 0.00634 535.3 2.5
517(12) 0.00648 535.0 2.5
539(12) 0.00653 534.6 2.5
544(13) 0.00596 534.3 2.5
547(13) 0.00572 533.9 2.5
534(12) 0.00619 533.6 2.5
538(12) 0.00655 533.2 2.5
549(12) 0.00638 532.9 2.5
524(12) 0.00635 532.5 2.5
557(13) 0.00564 532.2 2.5
554(13) 0.00588 531.8 2.5
512(12) 0.00660 531.5 2.5
513(12) 0.00686 531.2 2.5
543(12) 0.00606 530.8 2.5
538(13) 0.00570 530.5 2.6
502(12) 0.00667 530.1 2.6
531(12) 0.00660 529.8 2.6
516(12) 0.00676 529.4 2.6
518(12) 0.00638 529.1 2.6
528(13) 0.00583 528.8 2.7
527(12) 0.00609 528.6 2.7
542(12) 0.00643 528.4 2.7
566(12) 0.00609 528.1 2.7
548(13) 0.00602 527.9 2.8
564(13) 0.00551 527.7 2.8
556(13) 0.00596 527.4 2.9
562(12) 0.00622 527.2 2.9
527(12) 0.00652 526.9 3.0
533(12) 0.00613 526.7 3.0
523(13) 0.00603 526.5 3.1
513(12) 0.00638 526.2 3.1
507(12) 0.00689 526.0 3.2
523(12) 0.00639 525.8 3.3
526(12) 0.00611 525.5 3.3
510(12) 0.00628 525.3 3.4
504(12) 0.00655 525.1 3.5
544(12) 0.00641 524.8 3.6
538(12) 0.00611 524.6 3.7
537(12) 0.00605 524.3 3.8
556(13) 0.00581 524.1 4.0
537(12) 0.00622 523.9 4.1
550(12) 0.00636 523.6 4.3
552(13) 0.00602 523.4 4.4
512(12) 0.00640 523.2 4.6
533(13) 0.00604 522.9 4.8
507(12) 0.00648 522.7 5.0
554(12) 0.00632 522.5 5.2
526(12) 0.00635 522.2 5.5
504(12) 0.00620 522.0 5.8
523(12) 0.00617 521.7 6.1
550(12) 0.00614 521.5 6.5
528(12) 0.00663 521.3 6.9
562(13) 0.00562 521.0 7.3
550(13) 0.00575 520.8 7.9
521(12) 0.00638 520.6 8.4
531(12) 0.00639 520.3 9.1
525(12) 0.00673 520.1 9.9
572(13) 0.00558 519.8 10.8
565(13) 0.00546 519.6 11.8
565(13) 0.00580 519.4 13.1
542(12) 0.00634 519.1 14.6
536(12) 0.00654 518.9 16.5
545(13) 0.00598 518.7 19.0
546(13) 0.00576 518.4 22.1
558(13) 0.00591 518.2 26.3
559(12) 0.00627 518.0 31.8
577(12) 0.00610 517.7 38.9
579(13) 0.00570 517.5 48.1
559(13) 0.00555 517.2 59.5
612(13) 0.00528 517.0 73.5
599(13) 0.00585 516.8 89.9
666(13) 0.00534 516.5 108.2
690(14) 0.00488 516.3 127.3
689(14) 0.00470 516.1 145.1
690(14) 0.00479 515.8 158.5
724(14) 0.00490 515.6 164.1
721(14) 0.00484 515.4 160.5
703(14) 0.00465 515.1 148.6
674(14) 0.00473 514.9 131.5
661(14) 0.00500 514.6 112.5
622(13) 0.00566 514.4 93.9
622(13) 0.00559 514.2 77.0
586(13) 0.00581 513.9 62.5
589(13) 0.00545 513.7 50.5
566(13) 0.00575 513.5 40.9
553(12) 0.00638 513.2 33.3
528(12) 0.00630 513.0 27.5
511(12) 0.00637 512.8 23.1
514(12) 0.00641 512.5 19.7
563(13) 0.00582 512.3 17.2
524(12) 0.00670 512.0 15.1
544(12) 0.00614 511.8 13.5
541(12) 0.00611 511.6 12.2
508(12) 0.00642 511.3 11.1
538(12) 0.00615 511.1 10.2
491(11) 0.00716 510.9 9.4
492(12) 0.00674 510.6 8.8
502(12) 0.00637 510.4 8.2
525(12) 0.00626 510.2 7.7
523(12) 0.00662 509.9 7.2
514(12) 0.00677 509.7 6.8
528(12) 0.00618 509.4 6.4
507(12) 0.00621 509.2 6.1
505(12) 0.00637 509.0 5.8
528(12) 0.00653 508.7 5.6
554(12) 0.00634 508.5 5.3
536(12) 0.00618 508.3 5.1
522(12) 0.00605 508.0 4.9
487(12) 0.00672 507.8 4.8
500(12) 0.00689 507.6 4.6
526(12) 0.00665 507.3 4.5
537(12) 0.00615 507.1 4.4
531(13) 0.00579 506.8 4.2
499(12) 0.00663 506.6 4.1
496(12) 0.00704 506.4 4.0
521(12) 0.00670 506.1 3.9
513(12) 0.00638 505.9 3.9
520(13) 0.00594 505.7 3.8
535(12) 0.00607 505.4 3.7
510(12) 0.00690 505.2 3.7
527(12) 0.00657 505.0 3.6
520(12) 0.00644 504.7 3.6
512(12) 0.00610 504.5 3.5
506(12) 0.00645 504.2 3.5
508(12) 0.00690 504.0 3.5
503(12) 0.00679 503.8 3.4
557(13) 0.00584 503.5 3.4
497(12) 0.00637 503.3 3.4
510(12) 0.00629 503.1 3.4
501(12) 0.00691 502.8 3.4
486(11) 0.00708 502.6 3.4
501(12) 0.00670 502.4 3.4
502(12) 0.00638 502.1 3.4
508(12) 0.00650 501.9 3.4
475(11) 0.00729 501.6 3.4
518(12) 0.00652 501.4 3.4
503(12) 0.00664 501.2 3.4
490(12) 0.00651 500.9 3.4
524(12) 0.00609 500.7 3.4
515(12) 0.00673 500.5 3.5
499(12) 0.00675 500.2 3.5
513(12) 0.00644 500.0 3.5
511(12) 0.00630 499.8 3.6
495(12) 0.00659 499.5 3.6
505(12) 0.00692 499.3 3.6
516(12) 0.00636 499.0 3.7
504(12) 0.00626 498.8 3.7
516(12) 0.00612 498.6 3.8
479(12) 0.00695 498.3 3.8
474(11) 0.00732 498.1 3.9
498(12) 0.00652 497.9 4.0
526(13) 0.00602 497.6 4.0
503(12) 0.00642 497.4 4.1
486(12) 0.00682 497.2 4.2
454(11) 0.00759 496.9 4.3
502(12) 0.00657 496.7 4.4
507(12) 0.00606 496.4 4.5
495(12) 0.00669 496.2 4.6
515(12) 0.00650 496.0 4.7
502(12) 0.00694 495.7 4.8
507(12) 0.00652 495.5 4.9
533(13) 0.00597 495.3 5.0
517(12) 0.00631 495.0 5.2
525(12) 0.00649 494.8 5.3
498(12) 0.00693 494.6 5.5
515(12) 0.00644 494.3 5.6
519(13) 0.00583 494.1 5.8
510(12) 0.00640 493.8 6.0
506(12) 0.00683 493.6 6.2
505(12) 0.00684 493.4 6.4
527(12) 0.00628 493.1 6.6
505(13) 0.00584 492.9 6.8
494(12) 0.00671 492.7 7.0
524(12) 0.00662 492.4 7.2
486(12) 0.00698 492.2 7.5
493(12) 0.00665 492.0 7.7
497(12) 0.00634 491.7 8.0
519(12) 0.00648 491.5 8.3
520(12) 0.00657 491.2 8.6
530(12) 0.00658 491.0 8.9
497(12) 0.00659 490.8 9.2
535(13) 0.00597 490.5 9.5
541(12) 0.00609 490.3 9.8
506(12) 0.00684 490.1 10.1
512(12) 0.00670 489.8 10.4
503(12) 0.00634 489.6 10.7
506(12) 0.00616 489.4 11.0
506(12) 0.00645 489.1 11.3
531(12) 0.00658 488.9 11.6
488(12) 0.00678 488.6 11.8
503(12) 0.00642 488.4 12.1
480(12) 0.00667 488.2 12.3
503(12) 0.00646 487.9 12.5
501(12) 0.00695 487.7 12.7
490(12) 0.00683 487.5 12.8
531(13) 0.00591 487.2 12.9
492(12) 0.00664 487.0 13.1
521(12) 0.00653 486.8 13.2
518(12) 0.00679 486.5 13.2
497(12) 0.00661 486.3 13.3
532(12) 0.00615 486.0 13.4
512(12) 0.00653 485.8 13.6
505(12) 0.00670 485.6 13.7
524(12) 0.00663 485.3 13.9
517(12) 0.00619 485.1 14.1
540(13) 0.00582 484.9 14.2
515(12) 0.00637 484.6 14.3
524(12) 0.00655 484.4 14.4
504(12) 0.00693 484.2 14.2
521(12) 0.00631 483.9 13.8
505(12) 0.00624 483.7 13.3
526(12) 0.00628 483.4 12.6
527(12) 0.00662 483.2 11.9
504(12) 0.00693 483.0 11.1
486(12) 0.00673 482.7 10.5
500(12) 0.00623 482.5 9.8
495(12) 0.00665 482.3 9.2
487(12) 0.00706 482.0 8.7
491(11) 0.00714 481.8 8.3
506(12) 0.00657 481.6 7.9
485(12) 0.00635 481.3 7.5
480(12) 0.00701 481.1 7.1
479(11) 0.00725 480.8 6.8
476(11) 0.00724 480.6 6.6
496(12) 0.00667 480.4 6.3
522(13) 0.00589 480.1 6.1
495(12) 0.00675 479.9 5.8
497(12) 0.00707 479.7 5.6
506(12) 0.00676 479.4 5.4
502(12) 0.00661 479.2 5.3
506(12) 0.00618 479.0 5.1
523(12) 0.00641 478.7 4.9
514(12) 0.00681 478.5 4.8
456(11) 0.00748 478.2 4.6
491(12) 0.00658 478.0 4.5
481(12) 0.00666 477.8 4.3
500(12) 0.00657 477.5 4.2
488(11) 0.00715 477.3 4.1
480(12) 0.00704 477.1 4.0
458(12) 0.00703 476.8 3.9
521(13) 0.00596 476.6 3.8
526(12) 0.00615 476.4 3.7
475(11) 0.00733 476.1 3.6
480(12) 0.00695 475.9 3.5
485(12) 0.00669 475.6 3.4
464(12) 0.00689 475.4 3.3
467(11) 0.00715 475.2 3.2
458(11) 0.00755 474.9 3.2
483(12) 0.00677 474.7 3.1
492(12) 0.00646 474.5 3.0
451(11) 0.00730 474.2 3.0
457(11) 0.00738 474.0 2.9
498(12) 0.00699 473.8 2.8
470(12) 0.00685 473.5 2.8
471(12) 0.00681 473.3 2.7
477(12) 0.00664 473.0 2.7
445(11) 0.00752 472.8 2.6
483(11) 0.00722 472.6 2.6
483(12) 0.00680 472.3 2.5
470(12) 0.00679 472.1 2.5
514(12) 0.00623 471.9 2.5
469(11) 0.00739 471.6 2.4
455(11) 0.00759 471.4 2.4
493(12) 0.00663 471.2 2.3
503(12) 0.00621 470.9 2.3
475(12) 0.00705 470.7 2.3
477(11) 0.00715 470.4 2.2
491(11) 0.00716 470.2 2.2
484(12) 0.00691 470.0 2.2
468(12) 0.00660 469.7 2.1
501(12) 0.00647 469.5 2.1
489(11) 0.00712 469.3 2.1
490(12) 0.00700 469.0 2.1
496(12) 0.00650 468.8 2.0
461(12) 0.00671 468.6 2.0
499(12) 0.00643 468.3 2.0
477(11) 0.00732 468.1 2.0
482(11) 0.00720 467.8 2.0
465(12) 0.00699 467.6 1.9
470(12) 0.00657 467.4 1.9
469(12) 0.00704 467.1 1.9
486(11) 0.00720 466.9 1.9
489(12) 0.00682 466.7 1.9
505(12) 0.00652 466.4 1.8
461(12) 0.00695 466.2 1.8
456(11) 0.00730 466.0 1.8
482(11) 0.00728 465.7 1.8
454(11) 0.00737 465.5 1.8
478(12) 0.00673 465.2 1.8
474(12) 0.00666 465.0 1.8
443(11) 0.00748 464.8 1.8
468(11) 0.00745 464.5 1.7
466(12) 0.00701 464.3 1.7
488(12) 0.00668 464.1 1.7
488(12) 0.00670 463.8 1.7
461(11) 0.00728 463.6 1.7
494(11) 0.00709 463.3 1.7
486(12) 0.00674 463.1 1.7
463(12) 0.00693 462.9 1.7
482(12) 0.00677 462.6 1.7
487(12) 0.00685 462.4 1.7
460(11) 0.00760 462.2 1.6
461(12) 0.00693 461.9 1.6
448(12) 0.00706 461.7 1.6
453(12) 0.00704 461.5 1.6
471(11) 0.00709 461.2 1.6
491(11) 0.00713 461.0 1.6
460(12) 0.00701 460.7 1.6
452(11) 0.00718 460.6 1.6
465(11) 0.00709 460.4 1.6
440(11) 0.00774 460.2 1.6
486(11) 0.00718 460.0 1.6
458(12) 0.00696 459.8 1.6
454(12) 0.00672 459.6 1.6
474(12) 0.00681 459.4 1.6
462(11) 0.00745 459.2 1.6
470(11) 0.00734 459.0 1.6
478(12) 0.00693 458.8 1.6
492(12) 0.00625 458.7 1.6
504(12) 0.00624 458.5 1.6
462(11) 0.00750 458.3 1.6
475(11) 0.00723 458.1 1.6
454(12) 0.00697 457.9 1.6
426(11) 0.00719 457.7 1.6
461(11) 0.00710 457.5 1.6
470(11) 0.00737 457.3 1.6
461(11) 0.00742 457.1 1.6
473(12) 0.00688 456.9 1.6
486(12) 0.00638 456.8 1.6
478(12) 0.00677 456.6 1.6
457(11) 0.00759 456.4 1.6
459(11) 0.00750 456.2 1.6
463(12) 0.00698 456.0 1.6
467(12) 0.00679 455.8 1.6
485(12) 0.00660 455.6 1.6
454(11) 0.00767 455.4 1.6
446(11) 0.00749 455.2 1.6
474(12) 0.00677 455.0 1.6
469(12) 0.00678 454.9 1.7
469(12) 0.00700 454.7 1.7
455(11) 0.00759 454.5 1.7
447(11) 0.00751 454.3 1.7
453(12) 0.00694 454.1 1.7
444(11) 0.00708 453.9 1.7
450(11) 0.00723 453.7 1.7
457(11) 0.00759 453.5 1.7
466(11) 0.00713 453.3 1.8
459(12) 0.00689 453.2 1.8
466(12) 0.00694 453.0 1.8
476(12) 0.00696 452.8 1.8
449(11) 0.00767 452.6 1.8
465(12) 0.00687 452.4 1.8
448(12) 0.00702 452.2 1.9
453(11) 0.00719 452.0 1.9
487(12) 0.00690 451.8 1.9
466(11) 0.00744 451.6 1.9
475(12) 0.00674 451.4 2.0
463(12) 0.00669 451.3 2.0
458(11) 0.00726 451.1 2.0
490(12) 0.00705 450.9 2.1
463(11) 0.00747 450.7 2.1
453(11) 0.00726 450.5 2.2
464(12) 0.00668 450.3 2.2
463(12) 0.00689 450.1 2.3
456(11) 0.00753 449.9 2.3
466(11) 0.00734 449.7 2.4
466(12) 0.00705 449.5 2.4
468(12) 0.00633 449.4 2.5
452(11) 0.00721 449.2 2.6
464(11) 0.00734 449.0 2.6
438(11) 0.00791 448.8 2.7
439(11) 0.00739 448.6 2.8
470(12) 0.00639 448.4 2.9
471(12) 0.00691 448.2 3.0
442(11) 0.00775 448.0 3.1
453(11) 0.00758 447.8 3.2
438(11) 0.00755 447.6 3.4
441(12) 0.00703 447.5 3.5
474(12) 0.00678 447.3 3.7
453(11) 0.00756 447.1 3.9
415(11) 0.00811 446.9 4.1
441(11) 0.00723 446.7 4.4
467(12) 0.00669 446.5 4.7
495(12) 0.00642 446.3 5.0
459(11) 0.00756 446.1 5.4
456(11) 0.00750 445.9 5.8
455(12) 0.00707 445.8 6.2
455(12) 0.00693 445.6 6.8
466(12) 0.00693 445.4 7.4
438(11) 0.00792 445.2 8.1
458(11) 0.00717 445.0 8.9
444(11) 0.00714 444.8 9.8
448(12) 0.00703 444.6 10.8
451(12) 0.00705 444.4 11.9
477(11) 0.00729 444.2 13.1
467(11) 0.00717 444.0 14.4
468(12) 0.00691 443.9 15.8
468(12) 0.00701 443.7 17.3
466(12) 0.00706 443.5 18.7
498(12) 0.00702 443.3 20.0
482(12) 0.00687 443.1 21.1
479(12) 0.00667 442.9 21.9
464(12) 0.00700 442.7 22.3
435(11) 0.00762 442.5 22.3
464(11) 0.00745 442.3 21.8
453(11) 0.00729 442.1 21.0
457(12) 0.00693 442.0 19.9
438(11) 0.00740 441.8 18.5
469(11) 0.00716 441.6 17.1
494(12) 0.00702 441.4 15.7
476(12) 0.00679 441.2 14.3
449(12) 0.00702 441.0 13.0
448(11) 0.00723 440.8 11.8
434(11) 0.00787 440.6 10.8
464(11) 0.00745 440.4 9.8
446(11) 0.00730 440.2 8.9
439(12) 0.00685 440.1 8.2
457(12) 0.00705 439.9 7.5
458(11) 0.00767 439.7 6.9
476(11) 0.00730 439.5 6.4
452(11) 0.00713 439.3 6.0
453(12) 0.00670 439.1 5.6
446(11) 0.00739 438.9 5.2
437(11) 0.00795 438.7 4.9
467(11) 0.00739 438.5 4.7
452(11) 0.00719 438.4 4.4
427(11) 0.00716 438.2 4.3
456(11) 0.00711 438.0 4.1
451(11) 0.00773 437.8 3.9
480(12) 0.00707 437.6 3.8
445(11) 0.00743 437.4 3.7
431(11) 0.00712 437.2 3.6
419(11) 0.00762 437.0 3.5
457(11) 0.00760 436.8 3.4
475(11) 0.00715 436.6 3.3
422(11) 0.00792 436.5 3.3
443(11) 0.00722 436.3 3.2
468(11) 0.00717 436.1 3.2
434(11) 0.00790 435.9 3.1
432(11) 0.00764 435.7 3.1
424(11) 0.00778 435.5 3.1
456(12) 0.00687 435.3 3.0
439(11) 0.00768 435.1 3.0
441(11) 0.00782 434.9 3.0
413(11) 0.00789 434.7 3.0
415(11) 0.00807 434.6 3.0
439(11) 0.00747 434.4 3.0
434(11) 0.00756 434.2 3.0
442(11) 0.00782 434.0 3.0
429(11) 0.00755 433.8 3.1
446(12) 0.00686 433.6 3.1
427(11) 0.00736 433.4 3.1
444(11) 0.00743 433.2 3.1
452(11) 0.00768 433.0 3.2
454(11) 0.00715 432.8 3.2
463(12) 0.00674 432.7 3.2
438(11) 0.00740 432.5 3.3
437(11) 0.00770 432.3 3.3
460(11) 0.00761 432.1 3.4
440(11) 0.00728 431.9 3.4
412(11) 0.00780 431.7 3.5
450(11) 0.00725 431.5 3.5
441(11) 0.00756 431.3 3.6
434(11) 0.00798 431.1 3.7
460(12) 0.00698 431.0 3.7
432(12) 0.00706 430.8 3.8
440(11) 0.00746 430.6 3.9
444(11) 0.00769 430.4 3.9
420(11) 0.00811 430.2 4.0
431(11) 0.00763 430.0 4.1
440(12) 0.00695 429.8 4.1
414(11) 0.00808 429.6 4.2
434(11) 0.00787 429.4 4.2
414(11) 0.00819 429.2 4.3
437(11) 0.00734 429.1 4.4
446(12) 0.00699 428.9 4.4
449(11) 0.00736 428.7 4.4
440(11) 0.00795 428.5 4.5
426(11) 0.00806 428.3 4.5
425(11) 0.00791 428.1 4.5
438(12) 0.00703 427.9 4.5
427(11) 0.00774 427.7 4.5
422(11) 0.00818 427.5 4.5
469(11) 0.00716 427.3 4.5
434(11) 0.00735 427.2 4.4
410(11) 0.00776 427.0 4.4
442(12) 0.00706 426.8 4.4
408(11) 0.00832 426.6 4.3
443(11) 0.00744 426.4 4.2
445(11) 0.00718 426.2 4.2
432(11) 0.00739 426.0 4.1
451(11) 0.00725 425.8 4.0
438(11) 0.00787 425.6 4.0
426(11) 0.00763 425.4 3.9
447(11) 0.00725 425.3 3.8
462(12) 0.00686 425.1 3.7
428(11) 0.00778 424.9 3.7
446(11) 0.00777 424.7 3.6
417(11) 0.00792 424.5 3.5
422(11) 0.00766 424.3 3.4
434(11) 0.00738 424.1 3.4
448(11) 0.00739 423.9 3.3
399(10) 0.00855 423.7 3.2
437(11) 0.00745 423.6 3.2
447(11) 0.00724 423.4 3.1
450(11) 0.00713 423.2 3.0
439(11) 0.00749 423.0 3.0
429(11) 0.00809 422.8 2.9
425(11) 0.00769 422.6 2.8
446(11) 0.00710 422.4 2.8
441(11) 0.00739 422.2 2.7
438(11) 0.00772 422.0 2.7
457(11) 0.00760 421.8 2.6
420(11) 0.00744 421.7 2.6
425(11) 0.00710 421.5 2.6
424(11) 0.00741 421.3 2.5
420(11) 0.00821 421.1 2.5
437(11) 0.00787 420.9 2.4
423(11) 0.00794 420.7 2.4
457(12) 0.00659 420.5 2.4
431(11) 0.00755 420.3 2.4
431(11) 0.00800 420.1 2.3
439(11) 0.00788 419.9 2.3
412(11) 0.00786 419.8 2.3
416(11) 0.00742 419.6 2.2
455(12) 0.00704 419.4 2.2
412(10) 0.00840 419.2 2.2
416(11) 0.00811 419.0 2.2
436(11) 0.00738 418.8 2.2
414(11) 0.00734 418.6 2.1
425(11) 0.00757 418.4 2.1
446(11) 0.00774 418.2 2.1
430(11) 0.00792 418.0 2.1
444(11) 0.00720 417.9 2.1
405(11) 0.00777 417.7 2.1
436(11) 0.00733 417.5 2.1
449(11) 0.00769 417.3 2.0
426(11) 0.00778 417.1 2.0
415(11) 0.00776 416.9 2.0
431(11) 0.00726 416.7 2.0
446(11) 0.00733 416.5 2.0
450(11) 0.00769 416.3 2.0
410(11) 0.00835 416.2 2.0
412(11) 0.00777 416.0 2.0
438(11) 0.00727 415.8 2.0
428(11) 0.00780 415.6 2.0
437(11) 0.00790 415.4 2.0
436(11) 0.00762 415.2 2.0
472(12) 0.00646 415.0 2.0
394(11) 0.00825 414.8 1.9
427(11) 0.00772 414.6 1.9
418(11) 0.00825 414.4 1.9
410(11) 0.00798 414.3 1.9
412(11) 0.00759 414.1 1.9
406(11) 0.00787 413.9 1.9
436(11) 0.00764 413.7 1.9
445(11) 0.00779 413.5 1.9
424(11) 0.00768 413.3 1.9
428(11) 0.00730 413.1 1.9
436(11) 0.00740 412.9 1.9
406(11) 0.00827 412.7 1.9
425(11) 0.00816 412.5 1.9
416(11) 0.00757 412.4 1.9
420(11) 0.00726 412.2 1.9
434(11) 0.00738 412.0 1.9
422(11) 0.00797 411.8 1.9
422(11) 0.00817 411.6 2.0
436(11) 0.00751 411.4 2.0
418(11) 0.00720 411.2 2.0
420(11) 0.00765 411.0 2.0
410(10) 0.00845 410.8 2.0
425(11) 0.00809 410.6 2.0
413(11) 0.00781 410.5 2.0
429(12) 0.00703 410.3 2.0
381(10) 0.00868 410.1 2.0
394(10) 0.00877 409.9 2.0
424(11) 0.00806 409.7 2.0
433(11) 0.00760 409.5 2.0
430(12) 0.00707 409.3 2.0
396(11) 0.00837 409.1 2.0
431(11) 0.00804 408.9 2.0
453(11) 0.00755 408.8 2.0
429(11) 0.00753 408.6 2.0
421(11) 0.00738 408.4 2.0
399(11) 0.00804 408.2 2.1
404(10) 0.00856 408.0 2.1
435(11) 0.00769 407.8 2.1
414(11) 0.00767 407.6 2.1
405(11) 0.00781 407.4 2.1
419(11) 0.00762 407.2 2.1
438(11) 0.00787 407.0 2.1
424(11) 0.00779 406.9 2.1
409(11) 0.00783 406.7 2.1
420(11) 0.00755 406.5 2.1
415(11) 0.00798 406.3 2.2
387(10) 0.00881 406.1 2.2
404(11) 0.00813 405.9 2.2
411(11) 0.00741 405.7 2.2
406(11) 0.00793 405.6 2.2
422(11) 0.00792 405.5 2.2
427(11) 0.00801 405.4 2.2
398(11) 0.00826 405.3 2.2
405(11) 0.00747 405.2 2.3
406(11) 0.00784 405.1 2.3
422(11) 0.00791 405.0 2.3
429(11) 0.00802 404.9 2.3
399(11) 0.00815 404.8 2.3
412(11) 0.00760 404.7 2.3
418(11) 0.00768 404.6 2.3
409(11) 0.00812 404.5 2.4
394(10) 0.00870 404.4 2.4
414(11) 0.00771 404.3 2.4
408(11) 0.00757 404.2 2.4
443(11) 0.00729 404.1 2.4
427(11) 0.00791 404.0 2.4
393(10) 0.00867 403.9 2.5
434(11) 0.00733 403.8 2.5
408(11) 0.00742 403.7 2.5
393(11) 0.00816 403.7 2.5
390(10) 0.00861 403.6 2.5
443(11) 0.00788 403.5 2.6
426(11) 0.00759 403.4 2.6
419(11) 0.00717 403.3 2.6
402(11) 0.00811 403.2 2.6
406(10) 0.00847 403.1 2.7
431(11) 0.00791 403.0 2.7
422(11) 0.00753 402.9 2.7
412(11) 0.00727 402.8 2.7
439(11) 0.00735 402.7 2.7
419(11) 0.00832 402.6 2.8
405(11) 0.00830 402.5 2.8
412(11) 0.00766 402.4 2.8
401(11) 0.00755 402.3 2.9
410(11) 0.00752 402.2 2.9
413(10) 0.00844 402.1 2.9
423(11) 0.00801 402.0 2.9
424(11) 0.00756 401.9 3.0
394(11) 0.00806 401.8 3.0
421(11) 0.00776 401.7 3.0
415(11) 0.00827 401.6 3.1
412(11) 0.00808 401.5 3.1
410(11) 0.00784 401.4 3.1
397(11) 0.00788 401.3 3.2
410(11) 0.00793 401.3 3.2
405(10) 0.00845 401.2 3.2
407(11) 0.00789 401.1 3.3
392(11) 0.00816 401.0 3.3
424(11) 0.00732 400.9 3.4
412(11) 0.00776 400.8 3.4
436(11) 0.00795 400.7 3.4
412(11) 0.00786 400.6 3.5
378(11) 0.00834 400.5 3.5
388(10) 0.00841 400.4 3.6
400(10) 0.00860 400.3 3.6
407(10) 0.00839 400.2 3.7
412(11) 0.00745 400.1 3.7
409(11) 0.00748 400.0 3.8
399(11) 0.00796 399.9 3.8
409(11) 0.00810 399.8 3.9
447(11) 0.00772 399.7 3.9
417(11) 0.00765 399.6 4.0
417(11) 0.00745 399.5 4.0
414(11) 0.00788 399.4 4.1
435(11) 0.00783 399.3 4.2
402(10) 0.00848 399.2 4.2
414(11) 0.00782 399.1 4.3
414(11) 0.00732 399.0 4.4
399(11) 0.00795 398.9 4.4
386(10) 0.00888 398.9 4.5
385(10) 0.00891 398.8 4.6
381(10) 0.00844 398.7 4.7
410(11) 0.00741 398.6 4.7
401(11) 0.00796 398.5 4.8
413(11) 0.00825 398.4 4.9
441(11) 0.00778 398.3 5.0
411(11) 0.00801 398.2 5.1
411(11) 0.00725 398.1 5.2
378(10) 0.00868 398.0 5.3
383(10) 0.00893 397.9 5.4
396(10) 0.00867 397.8 5.5
405(11) 0.00795 397.7 5.6
405(11) 0.00731 397.6 5.8
400(11) 0.00785 397.5 5.9
407(10) 0.00848 397.4 6.0
391(10) 0.00851 397.3 6.1
391(10) 0.00846 397.2 6.3
421(11) 0.00746 397.1 6.4
407(11) 0.00773 397.0 6.6
403(10) 0.00851 396.9 6.8
408(11) 0.00820 396.8 6.9
424(11) 0.00735 396.7 7.1
415(11) 0.00752 396.6 7.3
406(11) 0.00822 396.6 7.5
390(10) 0.00884 396.5 7.7
387(10) 0.00853 396.4 7.9
402(11) 0.00805 396.3 8.2
422(11) 0.00760 396.2 8.4
428(11) 0.00738 396.1 8.7
400(10) 0.00858 396.0 8.9
419(11) 0.00776 395.9 9.2
405(11) 0.00798 395.8 9.6
422(11) 0.00777 395.7 9.9
411(11) 0.00808 395.6 10.2
407(10) 0.00844 395.5 10.6
403(11) 0.00810 395.4 11.0
383(11) 0.00817 395.3 11.5
401(11) 0.00809 395.2 11.9
403(10) 0.00843 395.1 12.4
444(11) 0.00774 395.0 13.0
428(11) 0.00743 394.9 13.6
399(11) 0.00753 394.8 14.2
409(11) 0.00777 394.7 14.9
432(11) 0.00784 394.6 15.6
381(10) 0.00900 394.5 16.5
412(11) 0.00772 394.4 17.4
399(11) 0.00764 394.3 18.4
438(11) 0.00716 394.2 19.5
399(10) 0.00847 394.2 20.7
424(11) 0.00823 394.1 22.1
419(11) 0.00800 394.0 23.6
437(12) 0.00685 393.9 25.3
399(11) 0.00832 393.8 27.3
409(11) 0.00827 393.7 29.6
421(11) 0.00824 393.6 32.2
429(11) 0.00752 393.5 35.3
428(11) 0.00710 393.4 38.9
443(11) 0.00757 393.3 43.2
455(11) 0.00752 393.2 48.1
421(11) 0.00799 393.1 54.0
463(12) 0.00687 393.0 60.9
449(12) 0.00695 392.9 68.9
459(11) 0.00708 392.8 78.3
502(12) 0.00694 392.7 89.1
531(12) 0.00647 392.6 101.3
508(12) 0.00652 392.5 115.1
555(13) 0.00545 392.4 130.1
558(13) 0.00580 392.3 146.1
561(12) 0.00627 392.2 162.2
580(13) 0.00593 392.1 177.5
616(13) 0.00543 392.0 190.4
664(14) 0.00488 391.9 199.2
629(13) 0.00534 391.8 202.8
637(13) 0.00556 391.8 200.4
645(13) 0.00524 391.7 192.7
597(13) 0.00559 391.6 180.8
580(13) 0.00548 391.5 166.3
535(12) 0.00630 391.4 150.9
541(12) 0.00647 391.3 135.5
542(12) 0.00624 391.2 121.1
533(13) 0.00587 391.1 108.0
492(12) 0.00664 391.0 96.4
492(12) 0.00670 390.9 86.4
467(11) 0.00748 390.8 77.9
474(12) 0.00694 390.7 70.8
486(12) 0.00643 390.6 65.0
445(12) 0.00701 390.5 60.5
455(11) 0.00720 390.4 57.0
478(11) 0.00726 390.3 54.6
434(11) 0.00776 390.2 53.1
460(12) 0.00672 390.1 52.5
433(11) 0.00724 390.0 52.7
461(11) 0.00733 389.9 53.8
467(11) 0.00744 389.8 55.6
482(12) 0.00680 389.7 58.2
464(12) 0.00669 389.6 61.5
465(12) 0.00692 389.5 65.3
474(11) 0.00718 389.4 69.6
478(11) 0.00735 389.4 74.0
477(12) 0.00689 389.3 78.0
484(12) 0.00648 389.2 81.0
498(12) 0.00652 389.1 82.6
504(12) 0.00687 389.0 82.4
473(11) 0.00720 388.9 80.3
455(11) 0.00721 388.8 76.6
479(12) 0.00640 388.7 72.0
461(12) 0.00704 388.6 66.9
469(11) 0.00733 388.5 61.8
464(11) 0.00748 388.4 57.0
437(11) 0.00764 388.3 52.7
434(11) 0.00727 388.2 48.8
432(11) 0.00762 388.1 45.6
414(11) 0.00831 388.0 42.9
407(10) 0.00842 387.9 40.7
415(11) 0.00749 387.8 38.9
412(11) 0.00744 387.7 37.5
428(11) 0.00738 387.6 36.5
401(10) 0.00853 387.5 35.9
380(10) 0.00888 387.4 35.4
422(11) 0.00753 387.3 35.3
407(11) 0.00787 387.2 35.3
459(12) 0.00680 387.1 35.5
432(11) 0.00796 387.0 35.9
405(11) 0.00834 387.0 36.5
414(11) 0.00781 386.9 37.2
421(11) 0.00767 386.8 38.1
402(11) 0.00796 386.7 39.1
422(11) 0.00811 386.6 40.3
408(11) 0.00813 386.5 41.6
395(11) 0.00822 386.4 43.0
436(11) 0.00735 386.3 44.7
412(11) 0.00798 386.2 46.5
385(10) 0.00887 386.1 48.5
418(11) 0.00758 386.0 50.7
413(11) 0.00766 385.9 53.1
427(11) 0.00722 385.8 55.8
424(11) 0.00785 385.7 58.8
444(11) 0.00779 385.6 62.1
434(11) 0.00742 385.5 65.8
438(11) 0.00729 385.4 70.0
433(11) 0.00762 385.3 74.7
447(11) 0.00764 385.2 80.1
424(11) 0.00814 385.1 86.4
439(11) 0.00735 385.0 93.7
462(12) 0.00623 384.9 102.3
481(12) 0.00665 384.8 112.7
524(12) 0.00657 384.7 125.2
499(12) 0.00694 384.6 140.2
525(12) 0.00614 384.6 158.5
546(13) 0.00562 384.5 180.5
552(13) 0.00589 384.4 206.8
556(12) 0.00622 384.3 237.9
599(13) 0.00589 384.2 274.3
658(14) 0.00504 384.1 316.1
680(15) 0.00449 384.0 362.8
812(15) 0.00403 383.9 413.3
804(15) 0.00441 383.8 464.8
830(15) 0.00425 383.7 513.0
887(16) 0.00379 383.6 552.2
906(17) 0.003487 383.5 575.7
969(17) 0.003392 383.4 579.0
887(16) 0.00396 383.3 561.2
851(15) 0.00410 383.2 525.8
793(15) 0.00421 383.1 478.9
773(15) 0.00402 383.0 426.9
760(15) 0.00429 382.9 374.7
685(14) 0.00518 382.8 325.5
692(14) 0.00498 382.7 281.0
611(13) 0.00541 382.6 241.9
618(14) 0.00503 382.5 208.1
562(13) 0.00586 382.4 179.5
531(12) 0.00660 382.3 155.5
507(12) 0.00658 382.2 135.5
521(13) 0.00604 382.2 119.0
497(12) 0.00632 382.1 105.3
485(12) 0.00653 382.0 94.1
483(11) 0.00718 381.9 84.7
483(12) 0.00673 381.8 76.9
457(12) 0.00693 381.7 70.3
436(11) 0.00731 381.6 64.7
418(11) 0.00784 381.5 59.8
447(11) 0.00778 381.4 55.6
438(11) 0.00720 381.3 51.9
424(11) 0.00768 381.2 48.7
434(11) 0.00741 381.1 45.8
421(11) 0.00791 381.0 43.2
431(11) 0.00801 380.9 40.8
411(11) 0.00784 380.8 38.8
398(11) 0.00814 380.7 36.9
430(11) 0.00756 380.6 35.2
416(11) 0.00812 380.5 33.6
416(11) 0.00822 380.4 32.2
391(11) 0.00828 380.3 30.9
401(11) 0.00786 380.2 29.8
440(11) 0.00727 380.1 28.7
391(10) 0.00851 380.0 27.8
417(11) 0.00816 379.9 26.9
383(10) 0.00846 379.9 26.1
406(11) 0.00744 379.8 25.4
371(10) 0.00884 379.7 24.7
378(10) 0.00911 379.6 24.1
389(10) 0.00882 379.5 23.6
392(11) 0.00822 379.4 23.1
424(12) 0.00680 379.3 22.7
398(11) 0.00801 379.2 22.3
402(10) 0.00852 379.1 21.9
390(10) 0.00883 379.0 21.7
374(10) 0.00861 378.9 21.4
390(11) 0.00765 378.8 21.2
392(11) 0.00836 378.7 21.0
362(10) 0.00929 378.6 20.9
381(10) 0.00899 378.5 20.8
387(10) 0.00839 378.4 20.7
411(11) 0.00741 378.3 20.7
418(11) 0.00767 378.2 20.7
391(10) 0.00885 378.1 20.8
397(10) 0.00840 378.0 20.9
392(11) 0.00820 377.9 21.0
386(11) 0.00824 377.8 21.2
406(11) 0.00786 377.7 21.4
414(11) 0.00822 377.6 21.6
401(10) 0.00843 377.5 21.9
389(10) 0.00847 377.5 22.3
425(11) 0.00714 377.4 22.7
381(10) 0.00855 377.3 23.1
390(10) 0.00883 377.2 23.7
417(11) 0.00792 377.1 24.2
423(11) 0.00765 377.0 24.9
416(11) 0.00775 376.9 25.6
409(11) 0.00793 376.8 26.4
413(11) 0.00837 376.7 27.3
384(10) 0.00857 376.6 28.3
392(11) 0.00808 376.5 29.4
405(11) 0.00788 376.4 30.7
396(11) 0.00838 376.3 32.0
411(10) 0.00846 376.2 33.6
404(11) 0.00802 376.1 35.3
424(11) 0.00741 376.0 37.2
437(11) 0.00720 375.9 39.3
421(11) 0.00783 375.8 41.6
434(11) 0.00796 375.7 44.3
432(11) 0.00749 375.6 47.2
446(12) 0.00693 375.5 50.5
416(11) 0.00785 375.4 54.1
449(11) 0.00750 375.3 58.2
473(11) 0.00735 375.2 62.8
453(11) 0.00725 375.1 67.8
485(12) 0.00637 375.1 73.3
495(12) 0.00646 375.0 79.5
467(11) 0.00726 374.9 86.2
470(11) 0.00728 374.8 93.6
476(12) 0.00682 374.7 101.5
488(12) 0.00612 374.6 110.1
499(12) 0.00643 374.5 119.1
515(12) 0.00673 374.4 128.4
502(12) 0.00693 374.3 137.9
528(12) 0.00632 374.2 147.2
543(13) 0.00577 374.1 155.9
551(13) 0.00603 374.0 163.7
552(12) 0.00631 373.9 169.9
538(12) 0.00651 373.8 174.2
596(13) 0.00551 373.7 176.3
585(13) 0.00533 373.6 175.9
586(13) 0.00561 373.5 173.1
558(12) 0.00628 373.4 168.2
541(12) 0.00647 373.3 161.4
562(13) 0.00566 373.2 153.2
543(13) 0.00558 373.1 144.2
515(12) 0.00629 373.0 134.7
519(12) 0.00675 372.9 125.2
486(12) 0.00705 372.8 115.8
474(12) 0.00696 372.7 106.8
464(12) 0.00666 372.7 98.4
461(12) 0.00678 372.6 90.5
405(10) 0.00842 372.5 83.2
441(11) 0.00741 372.4 76.5
414(11) 0.00794 372.3 70.5
433(11) 0.00734 372.2 64.9
445(11) 0.00724 372.1 60.0
421(11) 0.00821 372.0 55.5
406(11) 0.00805 371.9 51.4
427(12) 0.00701 371.8 47.7
386(11) 0.00830 371.7 44.4
396(10) 0.00847 371.6 41.5
393(10) 0.00875 371.5 38.8
417(11) 0.00774 371.4 36.4
395(11) 0.00801 371.3 34.2
389(11) 0.00806 371.2 32.3
372(10) 0.00897 371.1 30.5
349(10) 0.00976 371.0 28.9
400(11) 0.00780 370.9 27.4
384(11) 0.00818 370.8 26.0
407(11) 0.00794 370.7 24.8
383(10) 0.00887 370.6 23.7
369(10) 0.00926 370.5 22.7
390(11) 0.00796 370.4 21.7
393(11) 0.00765 370.3 20.8
400(11) 0.00784 370.3 20.0
392(10) 0.00854 370.2 19.3
372(10) 0.00911 370.1 18.6
395(11) 0.00798 370.0 18.0
367(11) 0.00820 369.9 17.4
376(11) 0.00830 369.8 16.8
377(10) 0.00885 369.7 16.3
382(10) 0.00889 369.6 15.8
373(10) 0.00881 369.5 15.4
368(10) 0.00841 369.4 14.9
367(10) 0.00891 369.3 14.5
372(10) 0.00923 369.2 14.2
376(10) 0.00910 369.1 13.8
372(10) 0.00847 369.0 13.5
379(11) 0.00799 368.9 13.2
375(10) 0.00854 368.8 12.9
382(10) 0.00894 368.7 12.6
383(10) 0.00887 368.6 12.4
375(10) 0.00880 368.5 12.2
373(10) 0.00856 368.4 11.9
378(11) 0.00824 368.3 11.7
370(10) 0.00926 368.2 11.5
373(10) 0.00894 368.1 11.4
357(10) 0.00919 368.0 11.2
394(11) 0.00785 367.9 11.0
355(10) 0.00902 367.9 10.9
392(10) 0.00865 367.8 10.7
366(10) 0.00919 367.7 10.6
369(10) 0.00877 367.6 10.5
366(10) 0.00859 367.5 10.4
346(10) 0.00925 367.4 10.3
371(10) 0.00908 367.3 10.2
357(10) 0.00917 367.2 10.1
350(10) 0.00917 367.1 10.0
376(11) 0.00832 367.0 9.9
325(9) 0.01016 366.9 9.9
371(10) 0.00920 366.8 9.8
364(10) 0.00872 366.7 9.8
358(10) 0.00870 366.6 9.7
384(11) 0.00807 366.5 9.7
385(10) 0.00858 366.4 9.7
389(10) 0.00882 366.3 9.6
375(10) 0.00863 366.2 9.6
360(10) 0.00863 366.1 9.6
375(10) 0.00841 366.0 9.6
366(10) 0.00879 365.9 9.6
369(10) 0.00930 365.8 9.6
382(11) 0.00838 365.7 9.6
393(11) 0.00800 365.5 9.6
378(10) 0.00852 365.4 9.7
380(10) 0.00889 365.2 9.7
397(10) 0.00864 365.1 9.7
366(10) 0.00897 365.0 9.8
364(11) 0.00818 364.8 9.8
363(10) 0.00882 364.7 9.9
353(10) 0.00958 364.5 10.0
375(10) 0.00911 364.4 10.1
381(10) 0.00857 364.3 10.2
381(11) 0.00777 364.1 10.3
352(10) 0.00912 364.0 10.4
386(10) 0.00892 363.9 10.5
358(10) 0.00945 363.7 10.7
365(10) 0.00900 363.6 10.8
371(11) 0.00823 363.4 11.0
403(11) 0.00784 363.3 11.2
370(10) 0.00926 363.2 11.4
367(10) 0.00924 363.0 11.7
353(10) 0.00919 362.9 12.0
363(11) 0.00815 362.7 12.4
360(10) 0.00853 362.6 12.8
380(10) 0.00889 362.5 13.3
385(10) 0.00886 362.3 13.9
352(10) 0.00902 362.2 14.8
359(10) 0.00857 362.1 15.8
389(11) 0.00802 361.9 17.2
378(10) 0.00894 361.8 18.9
369(10) 0.00908 361.6 21.2
372(10) 0.00867 361.5 24.0
371(10) 0.00847 361.4 27.4
387(11) 0.00828 361.2 31.4
366(10) 0.00923 361.1 35.9
401(11) 0.00834 360.9 40.4
411(11) 0.00734 360.8 44.5
388(11) 0.00804 360.7 47.4
406(11) 0.00805 360.5 48.3
403(10) 0.00852 360.4 47.0
420(11) 0.00779 360.3 44.0
396(11) 0.00793 360.1 40.0
405(11) 0.00753 360.0 35.8
365(10) 0.00917 359.8 31.9
382(10) 0.00888 359.7 28.4
413(11) 0.00788 359.6 25.6
376(11) 0.00834 359.4 23.3
383(10) 0.00843 359.3 21.6
395(10) 0.00840 359.1 20.4
395(10) 0.00858 359.0 19.6
378(10) 0.00846 358.9 19.0
394(11) 0.00787 358.7 18.7
358(10) 0.00928 358.6 18.5
365(10) 0.00929 358.5 18.4
356(10) 0.00961 358.3 18.5
361(10) 0.00884 358.2 18.6
357(10) 0.00840 358.0 18.7
352(10) 0.00893 357.9 18.9
363(10) 0.00910 357.8 19.2
359(10) 0.00961 357.6 19.5
383(11) 0.00824 357.5 19.8
359(11) 0.00838 357.4 20.2
364(10) 0.00890 357.2 20.6
384(10) 0.00888 357.1 21.0
397(10) 0.00854 356.9 21.5
404(11) 0.00777 356.8 21.9
370(11) 0.00799 356.7 22.5
387(11) 0.00799 356.5 23.0
395(10) 0.00851 356.4 23.6
368(10) 0.00932 356.2 24.2
367(10) 0.00912 356.1 24.9
397(11) 0.00756 356.0 25.6
380(10) 0.00855 355.8 26.3
406(10) 0.00845 355.7 27.0
392(10) 0.00876 355.6 27.9
387(11) 0.00835 355.4 28.7
401(11) 0.00769 355.3 29.6
399(11) 0.00824 355.1 30.5
373(10) 0.00907 355.0 31.5
379(10) 0.00873 354.9 32.6
384(10) 0.00843 354.7 33.7
369(11) 0.00836 354.6 34.9
362(10) 0.00884 354.4 36.1
367(10) 0.00922 354.3 37.4
360(10) 0.00896 354.2 38.8
401(11) 0.00802 354.0 40.3
407(11) 0.00803 353.9 41.8
402(11) 0.00821 353.8 43.5
403(10) 0.00860 353.6 45.2
369(10) 0.00886 353.5 47.1
402(11) 0.00774 353.3 49.0
394(11) 0.00809 353.2 51.1
403(11) 0.00792 353.1 53.2
393(10) 0.00884 352.9 55.5
400(11) 0.00804 352.8 57.8
396(11) 0.00822 352.6 60.3
418(11) 0.00782 352.5 62.8
429(11) 0.00798 352.4 65.4
420(11) 0.00821 352.2 67.9
435(11) 0.00721 352.1 70.5
412(11) 0.00775 352.0 72.9
468(12) 0.00705 351.8 75.2
431(11) 0.00798 351.7 77.2
448(11) 0.00777 351.5 79.0
442(11) 0.00733 351.4 80.3
464(12) 0.00666 351.3 81.2
470(12) 0.00690 351.1 81.7
436(11) 0.00784 351.0 81.6
471(11) 0.00733 350.8 81.1
466(12) 0.00693 350.7 80.1
450(12) 0.00666 350.6 78.6
449(11) 0.00732 350.4 76.9
395(10) 0.00866 350.3 74.9
394(10) 0.00868 350.2 72.7
404(11) 0.00796 350.0 70.4
412(11) 0.00738 349.9 68.0
387(10) 0.00845 349.7 65.7
424(11) 0.00812 349.6 63.3
400(10) 0.00866 349.5 61.1
416(11) 0.00754 349.3 59.0
404(11) 0.00723 349.2 57.0
409(11) 0.00786 349.0 55.2
408(10) 0.00849 348.9 53.4
410(11) 0.00824 348.8 51.9
403(11) 0.00807 348.6 50.4
393(11) 0.00760 348.5 49.1
385(11) 0.00812 348.4 48.0
411(11) 0.00838 348.2 47.0
413(11) 0.00813 348.1 46.1
388(11) 0.00800 347.9 45.4
381(11) 0.00828 347.8 44.7
399(11) 0.00812 347.7 44.2
407(10) 0.00842 347.5 43.8
368(10) 0.00900 347.4 43.6
375(10) 0.00852 347.3 43.4
376(11) 0.00829 347.1 43.4
379(10) 0.00844 347.0 43.5
388(10) 0.00892 346.8 43.6
387(10) 0.00851 346.7 44.0
376(10) 0.00870 346.6 44.4
385(11) 0.00837 346.4 44.9
381(10) 0.00886 346.3 45.6
375(10) 0.00909 346.1 46.4
391(11) 0.00813 346.0 47.3
412(11) 0.00757 345.9 48.4
397(11) 0.00780 345.7 49.6
400(11) 0.00825 345.6 51.0
397(10) 0.00854 345.5 52.6
371(10) 0.00876 345.3 54.4
398(11) 0.00800 345.2 56.3
420(11) 0.00780 345.0 58.5
392(10) 0.00865 344.9 60.9
398(10) 0.00861 344.8 63.6
404(11) 0.00794 344.6 66.5
420(11) 0.00750 344.5 69.8
407(11) 0.00804 344.3 73.4
368(10) 0.00916 344.2 77.4
400(10) 0.00855 344.1 81.7
410(11) 0.00788 343.9 86.6
414(11) 0.00725 343.8 91.8
426(11) 0.00759 343.7 97.6
421(11) 0.00811 343.5 104.0
450(11) 0.00765 343.4 111.0
459(11) 0.00711 343.2 118.5
469(12) 0.00653 343.1 126.8
510(12) 0.00637 343.0 135.7
460(11) 0.00745 342.8 145.4
483(11) 0.00713 342.7 155.7
524(12) 0.00622 342.5 166.8
526(12) 0.00611 342.4 178.4
531(12) 0.00633 342.3 190.6
551(12) 0.00636 342.1 203.1
542(12) 0.00631 342.0 215.7
554(13) 0.00591 341.9 228.2
567(13) 0.00551 341.7 240.2
572(13) 0.00569 341.6 251.4
581(12) 0.00605 341.4 261.2
629(13) 0.00548 341.3 269.4
601(13) 0.00546 341.2 275.5
567(13) 0.00560 341.0 279.4
553(13) 0.00596 340.9 281.0
566(12) 0.00619 340.7 280.2
546(12) 0.00633 340.6 277.3
563(13) 0.00565 340.5 272.4
565(13) 0.00556 340.3 265.9
536(12) 0.00629 340.2 258.1
483(11) 0.00718 340.1 249.3
537(12) 0.00625 339.9 239.6
538(13) 0.00597 339.8 229.2
534(13) 0.00603 339.6 218.3
502(12) 0.00673 339.5 207.0
492(12) 0.00704 339.4 195.4
492(12) 0.00662 339.2 183.8
474(12) 0.00674 339.1 172.2
492(12) 0.00666 339.0 160.9
493(12) 0.00682 338.8 150.0
470(11) 0.00737 338.7 139.6
483(12) 0.00663 338.5 129.8
471(12) 0.00671 338.4 120.7
479(12) 0.00664 338.3 112.1
424(11) 0.00785 338.1 104.3
444(11) 0.00776 338.0 97.0
433(11) 0.00744 337.8 90.4
422(11) 0.00741 337.7 84.3
436(11) 0.00754 337.6 78.8
415(11) 0.00815 337.4 73.7
414(11) 0.00829 337.3 69.1
391(11) 0.00808 337.2 64.8
382(11) 0.00814 337.0 61.0
420(11) 0.00743 336.9 57.5
387(10) 0.00854 336.7 54.2
384(10) 0.00900 336.6 51.3
388(11) 0.00835 336.5 48.6
397(11) 0.00762 336.3 46.1
380(10) 0.00871 336.2 43.8
379(10) 0.00884 336.0 41.7
420(11) 0.00818 335.9 39.7
405(11) 0.00792 335.8 37.9
390(11) 0.00773 335.6 36.3
369(10) 0.00881 335.5 34.7
395(10) 0.00856 335.4 33.3
376(10) 0.00898 335.2 31.9
349(10) 0.00944 335.1 30.7
375(11) 0.00837 334.9 29.5
379(10) 0.00844 334.8 28.4
354(10) 0.00954 334.7 27.4
372(10) 0.00913 334.5 26.4
347(10) 0.00952 334.4 25.5
343(10) 0.00900 334.2 24.7
362(10) 0.00886 334.1 23.9
362(10) 0.00944 334.0 23.1
338(10) 0.00955 333.8 22.4
355(10) 0.00858 333.7 21.8
351(10) 0.00882 333.6 21.1
377(10) 0.00849 333.4 20.5
356(10) 0.00954 333.3 20.0
360(10) 0.00910 333.1 19.5
376(11) 0.00818 333.0 19.0
363(10) 0.00862 332.9 18.5
325(9) 0.01008 332.7 18.0
379(10) 0.00904 332.6 17.6
366(10) 0.00879 332.4 17.2
364(10) 0.00869 332.3 16.9
364(10) 0.00884 332.2 16.5
358(10) 0.00913 332.0 16.2
343(10) 0.00985 331.9 15.9
355(10) 0.00908 331.8 15.6
343(10) 0.00895 331.6 15.3
348(10) 0.00897 331.5 15.1
329(9) 0.01016 331.3 14.8
345(10) 0.00988 331.2 14.6
331(10) 0.00975 331.1 14.4
372(11) 0.00800 330.9 14.2
348(10) 0.00896 330.8 14.1
366(10) 0.00898 330.7 13.9
337(10) 0.01000 330.5 13.8
336(10) 0.00972 330.4 13.7
366(11) 0.00821 330.2 13.6
344(10) 0.00921 330.1 13.5
322(9) 0.01043 330.0 13.5
327(9) 0.01027 329.8 13.4
345(10) 0.00939 329.7 13.4
359(11) 0.00831 329.5 13.4
335(10) 0.00956 329.4 13.4
339(10) 0.00990 329.3 13.5
367(10) 0.00911 329.1 13.5
353(10) 0.00914 329.0 13.6
354(10) 0.00858 328.9 13.7
334(10) 0.00963 328.7 13.8
337(10) 0.00986 328.6 14.0
359(10) 0.00940 328.4 14.2
359(10) 0.00911 328.3 14.4
345(10) 0.00908 328.2 14.6
334(10) 0.00975 328.0 14.9
346(10) 0.00979 327.9 15.1
356(10) 0.00948 327.7 15.4
342(10) 0.00908 327.6 15.8
351(10) 0.00853 327.5 16.1
359(10) 0.00877 327.3 16.4
323(9) 0.01032 327.2 16.8
337(10) 0.00986 327.1 17.1
344(10) 0.00893 326.9 17.5
333(10) 0.00901 326.8 17.8
332(10) 0.00940 326.6 18.1
334(9) 0.01015 326.5 18.3
337(10) 0.00963 326.4 18.5
355(10) 0.00880 326.2 18.6
327(10) 0.01002 326.1 18.6
337(10) 0.00944 325.9 18.6
329(9) 0.01042 325.8 18.5
342(10) 0.00940 325.7 18.3
337(10) 0.00916 325.5 18.0
341(10) 0.00903 325.4 17.7
342(10) 0.00939 325.3 17.3
346(10) 0.00980 325.1 16.9
368(10) 0.00871 325.0 16.5
346(10) 0.00918 324.8 16.0
342(10) 0.00920 324.7 15.5
313(9) 0.01036 324.6 15.0
338(10) 0.00997 324.4 14.5
338(10) 0.00953 324.3 14.0
331(10) 0.00945 324.1 13.5
363(10) 0.00851 324.0 13.1
319(9) 0.01031 324.0 12.6
336(10) 0.01005 323.9 12.2
341(10) 0.00942 323.8 11.8
330(10) 0.00909 323.7 11.4
351(10) 0.00896 323.6 11.1
325(9) 0.01027 323.5 10.8
314(9) 0.01073 323.5 10.5
322(10) 0.00932 323.4 10.2
349(11) 0.00832 323.3 9.9
317(9) 0.01009 323.2 9.6
347(10) 0.00958 323.1 9.4
355(10) 0.00961 323.0 9.2
346(10) 0.00897 323.0 9.0
320(10) 0.00915 322.9 8.8
338(10) 0.00941 322.8 8.6
341(10) 0.00990 322.7 8.5
361(10) 0.00922 322.6 8.3
332(10) 0.00974 322.5 8.2
344(10) 0.00844 322.5 8.1
312(10) 0.01007 322.4 8.0
336(9) 0.01018 322.3 7.9
351(10) 0.00945 322.2 7.8
337(10) 0.00918 322.1 7.7
327(10) 0.00900 322.0 7.6
340(10) 0.00953 322.0 7.5
365(10) 0.00928 321.9 7.5
323(9) 0.01040 321.8 7.4
333(10) 0.00909 321.7 7.3
330(10) 0.00920 321.6 7.3
309(9) 0.01024 321.5 7.3
313(9) 0.01073 321.5 7.2
322(9) 0.01009 321.4 7.2
314(10) 0.01000 321.3 7.2
312(9) 0.01017 321.2 7.2
316(10) 0.01007 321.1 7.2
336(10) 0.00994 321.1 7.2
323(10) 0.00974 321.0 7.2
304(9) 0.01025 320.9 7.2
351(10) 0.00893 320.8 7.2
331(10) 0.00996 320.7 7.2
332(9) 0.01017 320.6 7.2
308(9) 0.01032 320.6 7.2
357(10) 0.00856 320.5 7.3
338(10) 0.00953 320.4 7.3
337(10) 0.00971 320.3 7.4
340(10) 0.00992 320.2 7.4
336(10) 0.00934 320.1 7.5
332(10) 0.00879 320.1 7.5
316(10) 0.00955 320.0 7.6
337(10) 0.00995 319.9 7.7
325(9) 0.01030 319.8 7.8
341(10) 0.00909 319.7 7.9
319(10) 0.00966 319.6 8.0
355(10) 0.00850 319.6 8.1
345(10) 0.00955 319.5 8.2
331(9) 0.01022 319.4 8.3
347(10) 0.00901 319.3 8.5
329(10) 0.00912 319.2 8.6
348(10) 0.00922 319.1 8.8
351(10) 0.00955 319.1 8.9
364(10) 0.00930 319.0 9.1
315(9) 0.01016 318.9 9.3
319(10) 0.00906 318.8 9.5
327(10) 0.00919 318.7 9.7
317(9) 0.01057 318.6 10.0
335(10) 0.01004 318.6 10.2
309(9) 0.01060 318.5 10.5
356(10) 0.00848 318.4 10.8
347(10) 0.00884 318.3 11.1
322(9) 0.01039 318.2 11.4
326(9) 0.01010 318.1 11.7
313(9) 0.01009 318.1 12.1
342(10) 0.00903 318.0 12.5
316(9) 0.01018 317.9 12.9
344(10) 0.00976 317.8 13.3
369(10) 0.00893 317.7 13.8
329(10) 0.00939 317.7 14.3
312(10) 0.00979 317.6 14.8
351(10) 0.00884 317.5 15.4
335(9) 0.01010 317.4 16.0
349(10) 0.00946 317.3 16.6
335(10) 0.00933 317.2 17.2
337(10) 0.00916 317.2 17.9
352(10) 0.00914 317.1 18.6
332(9) 0.01011 317.0 19.4
329(10) 0.01004 316.9 20.2
339(10) 0.00947 316.8 21.0
367(11) 0.00834 316.7 21.9
353(10) 0.00901 316.7 22.7
335(10) 0.01007 316.6 23.6
362(10) 0.00891 316.5 24.5
351(10) 0.00892 316.4 25.5
301(9) 0.01044 316.3 26.4
349(10) 0.00933 316.2 27.3
344(10) 0.00987 316.2 28.1
338(10) 0.00951 316.1 29.0
339(10) 0.00917 316.0 29.7
328(10) 0.00965 315.9 30.5
361(10) 0.00921 315.8 31.1
338(10) 0.00996 315.7 31.6
314(9) 0.01011 315.7 32.0
339(10) 0.00872 315.6 32.3
358(10) 0.00891 315.5 32.5
340(10) 0.00983 315.4 32.5
333(9) 0.01020 315.3 32.4
340(10) 0.00936 315.2 32.2
351(10) 0.00845 315.2 31.8
353(10) 0.00895 315.1 31.3
321(9) 0.01024 315.0 30.7
351(10) 0.00971 314.9 30.1
345(10) 0.00936 314.8 29.3
358(11) 0.00799 314.7 28.5
347(10) 0.00903 314.7 27.7
350(10) 0.00959 314.6 26.8
338(10) 0.00996 314.5 25.9
340(10) 0.00932 314.4 25.0
338(10) 0.00888 314.3 24.1
313(9) 0.01027 314.2 23.2
318(9) 0.01068 314.2 22.4
326(9) 0.01014 314.1 21.5
321(10) 0.00943 314.0 20.7
315(10) 0.00938 313.9 19.9
343(10) 0.00924 313.8 19.2
343(10) 0.00995 313.8 18.5
308(9) 0.01082 313.7 17.8
316(9) 0.01017 313.6 17.2
330(10) 0.00916 313.5 16.6
349(10) 0.00907 313.4 16.0
355(10) 0.00953 313.3 15.5
331(10) 0.00989 313.3 14.9
342(10) 0.00908 313.2 14.5
302(9) 0.01010 313.1 14.0
324(10) 0.00968 313.0 13.6
312(9) 0.01070 312.9 13.2
336(10) 0.00973 312.8 12.9
319(10) 0.01004 312.8 12.5
331(10) 0.00952 312.7 12.2
323(9) 0.01008 312.6 11.9
330(9) 0.01029 312.5 11.7
308(9) 0.01048 312.4 11.4
333(10) 0.00956 312.3 11.2
355(10) 0.00882 312.3 11.0
314(9) 0.01054 312.2 10.8
315(9) 0.01072 312.1 10.6
316(9) 0.01009 312.0 10.5
323(10) 0.00983 311.9 10.3
319(10) 0.00991 311.8 10.2
319(9) 0.01040 311.8 10.1
296(9) 0.01132 311.7 10.0
312(10) 0.00985 311.6 9.9
327(10) 0.00937 311.5 9.8
344(10) 0.00930 311.4 9.7
344(10) 0.00977 311.3 9.7
319(9) 0.01053 311.3 9.6
318(10) 0.00996 311.2 9.6
323(10) 0.00912 311.1 9.6
316(10) 0.00981 311.0 9.6
330(10) 0.00992 310.9 9.6
328(9) 0.01010 310.8 9.6
299(9) 0.01074 310.8 9.6
323(10) 0.00867 310.7 9.6
307(10) 0.00987 310.6 9.6
343(10) 0.00977 310.5 9.6
336(9) 0.01011 310.4 9.7
326(10) 0.00979 310.3 9.7
330(10) 0.00886 310.3 9.8
309(9) 0.01022 310.2 9.8
318(9) 0.01048 310.1 9.9
332(9) 0.01010 310.0 9.9
333(10) 0.00933 309.9 10.0
312(10) 0.00998 309.9 10.0
339(10) 0.00940 309.8 10.1
328(9) 0.01020 309.7 10.1
322(9) 0.01024 309.6 10.2
299(9) 0.01087 309.5 10.2
318(10) 0.00944 309.4 10.3
323(10) 0.00961 309.4 10.3
308(9) 0.01088 309.3 10.4
296(9) 0.01100 309.2 10.4
321(10) 0.00991 309.1 10.4
338(10) 0.00897 309.0 10.4
299(9) 0.01033 308.9 10.4
331(9) 0.01014 308.9 10.4
334(10) 0.00984 308.8 10.4
327(10) 0.00948 308.7 10.4
324(10) 0.00956 308.6 10.4
299(9) 0.01104 308.5 10.3
314(9) 0.01068 308.4 10.2
324(10) 0.01005 308.4 10.2
312(10) 0.01007 308.3 10.1
305(9) 0.01014 308.2 10.0
333(10) 0.00956 308.1 9.9
326(9) 0.01026 308.0 9.8
311(9) 0.01020 307.9 9.7
302(9) 0.01015 307.9 9.6
303(9) 0.01053 307.8 9.5
322(10) 0.01007 307.7 9.3
318(9) 0.01052 307.6 9.2
327(10) 0.00964 307.5 9.0
342(10) 0.00910 307.4 8.9
323(10) 0.00974 307.4 8.7
316(9) 0.01022 307.3 8.6
331(9) 0.01029 307.2 8.4
334(10) 0.00905 307.1 8.3
338(10) 0.00863 307.0 8.1
318(10) 0.00976 306.9 8.0
334(10) 0.00985 306.9 7.8
312(9) 0.01072 306.8 7.6
330(10) 0.00935 306.7 7.5
319(10) 0.00922 306.6 7.3
318(10) 0.01003 306.5 7.2
319(9) 0.01050 306.5 7.0
321(9) 0.01045 306.4 6.9
324(10) 0.00950 306.3 6.8
306(10) 0.00944 306.2 6.6
325(10) 0.00976 306.1 6.5
322(9) 0.01043 306.0 6.4
328(10) 0.01004 306.0 6.2
302(9) 0.01020 305.9 6.1
305(10) 0.00964 305.8 6.0
321(10) 0.00954 305.7 5.9
324(9) 0.01024 305.6 5.7
327(9) 0.01019 305.5 5.6
311(9) 0.01031 305.5 5.5
330(10) 0.00916 305.4 5.4
322(10) 0.01000 305.3 5.3
338(10) 0.01001 305.2 5.2
319(9) 0.01013 305.1 5.1
307(10) 0.00971 305.0 5.0
315(10) 0.00942 305.0 4.9
296(9) 0.01062 304.9 4.9
300(9) 0.01109 304.8 4.8
295(9) 0.01125 304.7 4.7
316(9) 0.01013 304.6 4.6
336(10) 0.00943 304.5 4.6
335(10) 0.00973 304.5 4.5
334(9) 0.01015 304.4 4.4
328(10) 0.00992 304.3 4.3
295(9) 0.01082 304.2 4.3
325(10) 0.00953 304.1 4.2
324(10) 0.00999 304.0 4.2
317(9) 0.01066 304.0 4.1
334(10) 0.00932 303.9 4.0
346(10) 0.00865 303.8 4.0
307(9) 0.01031 303.7 3.9
313(9) 0.01012 303.6 3.9
334(10) 0.01007 303.5 3.8
321(10) 0.00959 303.5 3.8
331(10) 0.00904 303.4 3.7
306(9) 0.01041 303.3 3.7
317(9) 0.01050 303.2 3.7
317(9) 0.01065 303.1 3.6
332(10) 0.00948 303.0 3.6
317(10) 0.00963 303.0 3.5
317(10) 0.00981 302.9 3.5
300(9) 0.01086 302.8 3.5
313(9) 0.01075 302.7 3.4
310(9) 0.01045 302.6 3.4
308(10) 0.00996 302.6 3.4
330(10) 0.00932 302.5 3.3
306(9) 0.01088 302.4 3.3
296(9) 0.01132 302.3 3.3
311(9) 0.01049 302.2 3.3
306(10) 0.00959 302.1 3.2
309(9) 0.01010 302.1 3.2
297(9) 0.01115 302.0 3.2
314(9) 0.01089 301.9 3.2
308(9) 0.01033 301.9 3.2
317(10) 0.00916 301.9 3.1
300(9) 0.01028 301.8 3.1
321(9) 0.01054 301.8 3.1
292(9) 0.01137 301.7 3.1
275(9) 0.01136 301.7 3.1
317(10) 0.00911 301.6 3.1
318(10) 0.01002 301.6 3.1
330(9) 0.01026 301.5 3.0
318(9) 0.01039 301.5 3.0
301(9) 0.01047 301.4 3.0
317(10) 0.00954 301.4 3.0
314(10) 0.00998 301.3 3.0
299(9) 0.01113 301.3 3.0
309(9) 0.01046 301.2 3.0
312(10) 0.00995 301.2 3.0
314(10) 0.00993 301.1 3.0
325(10) 0.01000 301.1 3.0
313(9) 0.01065 301.0 3.0
309(9) 0.01033 301.0 3.0
294(9) 0.01052 300.9 3.0
327(10) 0.00927 300.9 3.0
319(10) 0.01007 300.8 3.0
297(9) 0.01124 300.8 3.0
309(10) 0.00977 300.7 3.0
311(10) 0.00966 300.7 3.0
306(10) 0.00981 300.6 3.1
304(9) 0.01067 300.6 3.1
291(9) 0.01136 300.5 3.1
309(9) 0.01033 300.5 3.1
310(9) 0.01012 300.4 3.1
320(10) 0.00996 300.4 3.1
282(9) 0.01143 300.3 3.2
300(9) 0.01122 300.3 3.2
298(9) 0.01071 300.2 3.2
304(10) 0.00993 300.2 3.3
309(9) 0.01035 300.1 3.3
333(10) 0.00992 300.1 3.3
316(9) 0.01072 300.0 3.4
319(9) 0.01021 300.0 3.4
323(10) 0.00948 299.9 3.5
304(9) 0.01042 299.9 3.5
299(9) 0.01118 299.8 3.6
319(9) 0.01037 299.8 3.7
306(9) 0.01017 299.7 3.8
305(10) 0.00961 299.7 3.8
299(9) 0.01019 299.6 3.9
307(9) 0.01100 299.6 4.0
294(9) 0.01138 299.5 4.2
315(10) 0.00986 299.5 4.3
310(10) 0.00958 299.4 4.4
298(9) 0.01065 299.4 4.6
297(9) 0.01125 299.3 4.8
315(9) 0.01077 299.3 5.0
317(10) 0.01006 299.2 5.2
278(9) 0.01090 299.2 5.5
286(9) 0.01101 299.1 5.8
296(9) 0.01130 299.1 6.2
308(9) 0.01091 299.0 6.6
346(10) 0.00914 299.0 7.1
302(9) 0.01046 298.9 7.7
312(9) 0.01019 298.9 8.3
300(9) 0.01105 298.8 9.1
295(9) 0.01125 298.8 10.0
292(9) 0.01088 298.7 11.1
297(9) 0.01020 298.7 12.3
311(9) 0.01009 298.7 13.7
311(9) 0.01080 298.6 15.2
292(9) 0.01070 298.6 16.9
289(9) 0.01012 298.5 18.7
308(10) 0.01007 298.5 20.7
304(9) 0.01044 298.4 22.6
328(9) 0.01036 298.4 24.4
317(10) 0.01007 298.3 25.8
313(10) 0.00997 298.3 26.8
300(9) 0.01053 298.2 27.2
334(10) 0.00967 298.2 26.9
308(9) 0.01101 298.1 26.0
310(9) 0.01018 298.1 24.5
307(10) 0.00999 298.0 22.8
323(10) 0.00990 298.0 20.9
296(9) 0.01080 297.9 19.0
283(9) 0.01181 297.9 17.2
297(9) 0.01050 297.8 15.6
316(10) 0.00976 297.8 14.0
298(9) 0.01075 297.7 12.7
314(9) 0.01056 297.7 11.5
320(9) 0.01055 297.6 10.5
311(9) 0.01009 297.6 9.7
289(9) 0.01015 297.5 8.9
284(9) 0.01103 297.5 8.3
309(9) 0.01085 297.4 7.8
325(9) 0.01026 297.4 7.3
301(9) 0.01077 297.3 6.9
313(10) 0.00933 297.3 6.6
289(9) 0.01107 297.2 6.4
314(9) 0.01080 297.2 6.1
318(9) 0.01059 297.1 6.0
280(9) 0.01109 297.1 5.8
295(10) 0.00989 297.0 5.7
307(9) 0.01018 297.0 5.6
321(9) 0.01036 296.9 5.5
299(9) 0.01115 296.9 5.4
309(10) 0.00978 296.8 5.4
309(10) 0.00934 296.8 5.4
294(9) 0.01064 296.7 5.3
301(9) 0.01107 296.7 5.3
318(9) 0.01033 296.6 5.3
288(9) 0.01108 296.6 5.3
304(9) 0.01020 296.5 5.4
297(9) 0.01098 296.5 5.4
316(9) 0.01069 296.4 5.5
303(9) 0.01088 296.4 5.5
289(9) 0.01117 296.3 5.6
296(9) 0.01080 296.3 5.7
313(9) 0.01016 296.2 5.8
320(9) 0.01051 296.2 5.9
304(9) 0.01033 296.1 6.0
296(9) 0.01032 296.1 6.1
312(10) 0.00970 296.0 6.3
314(10) 0.01007 296.0 6.4
264(8) 0.01244 295.9 6.5
309(9) 0.01011 295.9 6.7
321(10) 0.00935 295.8 6.8
294(9) 0.01031 295.8 6.9
299(9) 0.01099 295.7 7.0
318(9) 0.01053 295.7 7.1
301(9) 0.01021 295.6 7.1
318(10) 0.00955 295.6 7.0
315(10) 0.00971 295.5 7.0
291(9) 0.01141 295.5 6.8
293(9) 0.01150 295.5 6.7
289(9) 0.01022 295.4 6.5
320(10) 0.00907 295.4 6.4
305(10) 0.01000 295.3 6.2
277(9) 0.01195 295.3 6.0
328(9) 0.01030 295.2 5.8
315(9) 0.01017 295.2 5.7
281(9) 0.01086 295.1 5.5
305(9) 0.01022 295.1 5.4
294(9) 0.01142 295.0 5.3
305(9) 0.01097 295.0 5.2
281(9) 0.01135 294.9 5.1
300(10) 0.00990 294.9 5.0
303(9) 0.01031 294.8 5.0
288(9) 0.01143 294.8 4.9
303(9) 0.01102 294.7 4.9
307(9) 0.01061 294.7 4.8
305(10) 0.01004 294.6 4.8
300(9) 0.01040 294.6 4.8
302(9) 0.01079 294.5 4.8
315(9) 0.01072 294.5 4.8
307(9) 0.01046 294.4 4.8
317(10) 0.00956 294.4 4.8
305(9) 0.01034 294.3 4.8
301(9) 0.01109 294.3 4.8
269(8) 0.01239 294.2 4.9
305(9) 0.01008 294.2 4.9
294(9) 0.01020 294.1 4.9
301(9) 0.01038 294.1 5.0
295(9) 0.01132 294.0 5.0
319(9) 0.01027 294.0 5.1
301(9) 0.01022 293.9 5.1
280(9) 0.01107 293.9 5.2
302(9) 0.01060 293.8 5.3
318(9) 0.01057 293.8 5.3
290(9) 0.01118 293.7 5.4
306(9) 0.01031 293.7 5.5
305(10) 0.00993 293.6 5.6
289(9) 0.01061 293.6 5.7
288(9) 0.01161 293.5 5.8
295(9) 0.01079 293.5 5.9
296(9) 0.01080 293.4 6.0
308(9) 0.01032 293.4 6.1
299(9) 0.01075 293.3 6.2
307(9) 0.01104 293.3 6.3
293(9) 0.01095 293.2 6.4
283(9) 0.01089 293.2 6.6
300(10) 0.01000 293.1 6.7
280(9) 0.01125 293.1 6.8
315(9) 0.01064 293.0 7.0
300(9) 0.01061 293.0 7.1
305(9) 0.01039 292.9 7.3
310(9) 0.01030 292.9 7.4
298(9) 0.01106 292.8 7.6
308(9) 0.01080 292.8 7.8
318(10) 0.00957 292.7 7.9
288(9) 0.01063 292.7 8.1
314(9) 0.01016 292.6 8.3
293(9) 0.01129 292.6 8.4
286(9) 0.01170 292.5 8.6
296(9) 0.01071 292.5 8.8
307(10) 0.00941 292.4 8.9
321(10) 0.00968 292.4 9.1
294(9) 0.01123 292.3 9.2
311(9) 0.01081 292.3 9.4
302(9) 0.01054 292.3 9.5
307(10) 0.00960 292.2 9.7
286(9) 0.01137 292.2 9.8
314(9) 0.01066 292.1 9.9
297(9) 0.01119 292.1 10.1
301(9) 0.01041 292.0 10.2
319(10) 0.00904 292.0 10.3
302(9) 0.01059 291.9 10.4
295(9) 0.01143 291.9 10.4
301(9) 0.01069 291.8 10.5
312(10) 0.00975 291.8 10.6
302(10) 0.00989 291.7 10.6
297(9) 0.01076 291.7 10.7
279(9) 0.01196 291.6 10.7
312(9) 0.01042 291.6 10.7
314(10) 0.00994 291.5 10.8
313(10) 0.00962 291.5 10.8
303(9) 0.01059 291.4 10.8
330(9) 0.01027 291.4 10.8
316(9) 0.01031 291.3 10.9
330(10) 0.00933 291.3 10.9
295(9) 0.01042 291.2 10.9
306(9) 0.01039 291.2 10.9
313(9) 0.01074 291.1 11.0
316(10) 0.01004 291.1 11.0
315(10) 0.00997 291.0 11.1
327(10) 0.00953 291.0 11.1
310(9) 0.01060 290.9 11.2
322(9) 0.01036 290.9 11.3
304(9) 0.01033 290.8 11.4
295(9) 0.01041 290.8 11.5
336(10) 0.00916 290.7 11.6
331(10) 0.00995 290.7 11.8
317(9) 0.01063 290.6 11.9
317(10) 0.00989 290.6 12.1
299(9) 0.01032 290.5 12.3
316(10) 0.00979 290.5 12.5
305(9) 0.01066 290.4 12.7
287(9) 0.01158 290.4 13.0
314(10) 0.01000 290.3 13.3
290(9) 0.01051 290.3 13.6
314(10) 0.01002 290.2 13.9
318(9) 0.01027 290.2 14.2
310(9) 0.01087 290.1 14.5
318(10) 0.00998 290.1 14.9
326(10) 0.00921 290.0 15.2
328(10) 0.00953 290.0 15.6
328(9) 0.01018 289.9 15.9
340(10) 0.00982 289.9 16.3
311(9) 0.01030 289.8 16.7
321(10) 0.00920 289.8 17.0
336(10) 0.00972 289.7 17.4
338(10) 0.00995 289.7 17.7
346(10) 0.00969 289.6 18.0
324(10) 0.00974 289.6 18.2
325(10) 0.00925 289.5 18.4
323(10) 0.00978 289.5 18.6
325(9) 0.01044 289.4 18.7
335(10) 0.00984 289.4 18.8
313(9) 0.01025 289.3 18.8
292(9) 0.01039 289.3 18.7
326(10) 0.00951 289.2 18.6
328(9) 0.01024 289.2 18.4
333(10) 0.01002 289.1 18.2
308(9) 0.01013 289.1 18.0
307(10) 0.00978 289.1 17.7
318(10) 0.00996 289.0 17.3
336(10) 0.01004 289.0 16.9
338(10) 0.00958 288.9 16.5
308(9) 0.01061 288.9 16.1
326(10) 0.00952 288.8 15.7
300(9) 0.01066 288.8 15.2
304(9) 0.01095 288.7 14.8
327(10) 0.01002 288.7 14.3
342(10) 0.00905 288.6 13.9
313(10) 0.01006 288.6 13.4
307(9) 0.01065 288.5 13.0
314(9) 0.01078 288.5 12.6
325(10) 0.00956 288.4 12.2
300(9) 0.01019 288.4 11.8
319(10) 0.00965 288.3 11.4
313(9) 0.01027 288.3 11.1
311(9) 0.01084 288.2 10.8
300(9) 0.01065 288.2 10.4
278(9) 0.01096 288.1 10.1
307(9) 0.01033 288.1 9.8
314(9) 0.01046 288.0 9.6
300(9) 0.01107 288.0 9.3
291(9) 0.01062 287.9 9.1
301(9) 0.01017 287.9 8.9
317(10) 0.01004 287.8 8.7
314(9) 0.01052 287.8 8.5
321(9) 0.01052 287.7 8.3
280(9) 0.01128 287.7 8.1
297(10) 0.00988 287.6 8.0
305(10) 0.00995 287.6 7.8
289(9) 0.01127 287.5 7.7
302(9) 0.01124 287.5 7.6
302(10) 0.01004 287.4 7.5
287(9) 0.01028 287.4 7.4
287(9) 0.01110 287.3 7.3
318(9) 0.01054 287.3 7.2
280(9) 0.01186 287.2 7.2
309(9) 0.01022 287.2 7.1
318(10) 0.00949 287.1 7.1
289(9) 0.01106 287.1 7.0
295(9) 0.01134 287.0 7.0
283(9) 0.01165 287.0 7.0
319(10) 0.00929 286.9 7.0
303(10) 0.00991 286.9 6.9
293(9) 0.01054 286.8 6.9
298(9) 0.01121 286.8 6.9
298(9) 0.01115 286.7 6.9
302(9) 0.01043 286.7 6.9
318(10) 0.00915 286.6 6.9
290(9) 0.01052 286.6 6.9
294(9) 0.01124 286.5 6.9
298(9) 0.01124 286.5 6.8
287(9) 0.01105 286.4 6.8
287(9) 0.01047 286.4 6.8
277(9) 0.01128 286.3 6.8
291(9) 0.01134 286.3 6.7
299(9) 0.01075 286.2 6.7
301(9) 0.01063 286.2 6.6
301(9) 0.01070 286.1 6.6
308(9) 0.01031 286.1 6.5
298(9) 0.01121 286.0 6.4
286(9) 0.01116 286.0 6.4
309(9) 0.01033 285.9 6.3
279(9) 0.01166 285.9 6.2
295(9) 0.01080 285.9 6.1
272(9) 0.01224 285.8 6.0
310(9) 0.01010 285.8 5.9
294(9) 0.01038 285.7 5.8
284(9) 0.01119 285.7 5.7
286(9) 0.01162 285.6 5.6
290(9) 0.01142 285.6 5.4
281(9) 0.01057 285.5 5.3
298(10) 0.00967 285.5 5.2
305(9) 0.01025 285.4 5.1
283(9) 0.01163 285.4 5.0
272(9) 0.01222 285.3 4.9
288(9) 0.01059 285.3 4.8
277(9) 0.01082 285.2 4.7
289(9) 0.01072 285.2 4.6
272(9) 0.01188 285.1 4.5
286(9) 0.01155 285.1 4.4
298(9) 0.01077 285.0 4.4
310(10) 0.00973 285.0 4.3
302(9) 0.01039 284.9 4.2
290(9) 0.01149 284.9 4.1
294(9) 0.01129 284.8 4.1
268(9) 0.01180 284.8 4.0
295(10) 0.00987 284.7 3.9
265(9) 0.01180 284.7 3.9
296(9) 0.01117 284.6 3.8
289(9) 0.01150 284.6 3.7
302(10) 0.01003 284.5 3.7
286(9) 0.01066 284.5 3.7
328(10) 0.00945 284.4 3.6
309(9) 0.01086 284.4 3.6
285(9) 0.01155 284.3 3.5
288(9) 0.01078 284.3 3.5
294(9) 0.01017 284.2 3.5
296(9) 0.01073 284.2 3.4
292(9) 0.01135 284.1 3.4
307(9) 0.01043 284.1 3.4
290(9) 0.01072 284.0 3.4
291(9) 0.01038 284.0 3.4
294(9) 0.01059 283.9 3.4
249(8) 0.01325 283.9 3.4
305(9) 0.01069 283.8 3.4
283(9) 0.01123 283.8 3.4
282(9) 0.01083 283.7 3.4
306(9) 0.01031 283.7 3.4
288(9) 0.01149 283.6 3.4
262(8) 0.01235 283.6 3.4
306(10) 0.00992 283.5 3.4
299(9) 0.01023 283.5 3.4
265(9) 0.01196 283.4 3.4
280(9) 0.01176 283.4 3.4
309(9) 0.01033 283.3 3.4
304(10) 0.00998 283.3 3.4
288(9) 0.01072 283.2 3.4
303(9) 0.01072 283.2 3.3
289(9) 0.01154 283.1 3.3
308(9) 0.01013 283.1 3.3
284(9) 0.01087 283.0 3.2
270(9) 0.01144 283.0 3.2
280(9) 0.01163 282.9 3.1
279(9) 0.01190 282.9 3.1
298(9) 0.01010 282.8 3.0
286(9) 0.01066 282.8 3.0
286(9) 0.01092 282.7 2.9
272(9) 0.01216 282.7 2.9
279(9) 0.01183 282.7 2.9
286(9) 0.01114 282.6 2.8
287(9) 0.01040 282.6 2.8
288(9) 0.01078 282.5 2.7
293(9) 0.01120 282.5 2.7
308(9) 0.01079 282.4 2.7
291(9) 0.01061 282.4 2.6
273(9) 0.01093 282.3 2.6
271(9) 0.01193 282.3 2.6
275(9) 0.01200 282.2 2.6
297(9) 0.01104 282.2 2.5
282(9) 0.01097 282.1 2.5
288(9) 0.01031 282.1 2.5
303(9) 0.01069 282.0 2.5
307(9) 0.01090 282.0 2.5
289(9) 0.01153 281.9 2.5
256(9) 0.01228 281.9 2.4
280(9) 0.01045 281.8 2.4
279(9) 0.01122 281.8 2.4
263(8) 0.01252 281.7 2.4
285(9) 0.01151 281.7 2.4
299(9) 0.01032 281.6 2.4
287(9) 0.01061 281.6 2.4
278(9) 0.01107 281.5 2.4
286(9) 0.01165 281.5 2.4
290(9) 0.01133 281.4 2.4
291(9) 0.01080 281.4 2.4
296(9) 0.01064 281.3 2.4
273(9) 0.01147 281.3 2.3
270(8) 0.01233 281.2 2.3
297(9) 0.01060 281.2 2.3
262(9) 0.01199 281.1 2.3
286(9) 0.01087 281.1 2.3
264(9) 0.01165 281.0 2.3
286(9) 0.01175 281.0 2.3
305(9) 0.01017 280.9 2.3
285(9) 0.01092 280.9 2.3
297(9) 0.01052 280.8 2.3
291(9) 0.01104 280.8 2.3
273(9) 0.01201 280.7 2.3
299(9) 0.01049 280.7 2.3
277(9) 0.01099 280.6 2.3
286(9) 0.01083 280.6 2.3
275(9) 0.01195 280.5 2.3
281(9) 0.01169 280.5 2.3
293(9) 0.01097 280.4 2.3
284(9) 0.01070 280.4 2.3
284(9) 0.01067 280.3 2.3
265(9) 0.01227 280.3 2.3
298(9) 0.01131 280.2 2.3
303(9) 0.01027 280.2 2.4
279(9) 0.01099 280.1 2.4
296(9) 0.01076 280.1 2.4
277(9) 0.01175 280.0 2.4
287(9) 0.01168 280.0 2.4
273(9) 0.01191 280.0 2.4
309(10) 0.00923 280.0 2.4
278(9) 0.01151 280.0 2.4
273(9) 0.01205 280.0 2.4
269(9) 0.01209 280.0 2.4
297(9) 0.01009 280.0 2.4
278(9) 0.01066 280.0 2.4
291(9) 0.01085 280.0 2.4
272(9) 0.01216 279.9 2.4
280(9) 0.01184 279.9 2.4
287(9) 0.01091 279.9 2.5
285(9) 0.01026 279.9 2.5
284(9) 0.01107 279.9 2.5
282(9) 0.01170 279.9 2.5
316(9) 0.01037 279.9 2.5
268(9) 0.01172 279.9 2.5
295(10) 0.00985 279.9 2.5
270(9) 0.01159 279.9 2.5
295(9) 0.01128 279.9 2.5
297(9) 0.01074 279.9 2.6
275(9) 0.01131 279.9 2.6
291(9) 0.01039 279.9 2.6
275(9) 0.01113 279.9 2.6
262(8) 0.01267 279.9 2.6
300(9) 0.01060 279.9 2.6
301(9) 0.01037 279.9 2.6
292(9) 0.01055 279.8 2.7
272(9) 0.01162 279.8 2.7
278(9) 0.01196 279.8 2.7
300(9) 0.01054 279.8 2.7
285(9) 0.01093 279.8 2.7
310(9) 0.01023 279.8 2.8
315(9) 0.01012 279.8 2.8
290(9) 0.01151 279.8 2.8
286(9) 0.01102 279.8 2.8
296(9) 0.01022 279.8 2.8
279(9) 0.01135 279.8 2.9
278(9) 0.01167 279.8 2.9
277(9) 0.01196 279.8 2.9
283(9) 0.01124 279.8 2.9
275(9) 0.01096 279.8 3.0
294(9) 0.01054 279.8 3.0
277(9) 0.01181 279.8 3.0
276(9) 0.01166 279.7 3.1
277(9) 0.01135 279.7 3.1
281(9) 0.01061 279.7 3.1
268(9) 0.01166 279.7 3.2
267(9) 0.01228 279.7 3.2
283(9) 0.01171 279.7 3.3
259(9) 0.01214 279.7 3.3
279(9) 0.01044 279.7 3.3
272(9) 0.01157 279.7 3.4
296(9) 0.01116 279.7 3.4
272(9) 0.01204 279.7 3.5
270(9) 0.01186 279.7 3.5
294(9) 0.01028 279.7 3.6
305(9) 0.01022 279.7 3.7
297(9) 0.01132 279.7 3.7
276(9) 0.01167 279.7 3.8
263(9) 0.01185 279.7 3.9
275(9) 0.01046 279.7 3.9
278(9) 0.01137 279.6 4.0
290(9) 0.01154 279.6 4.1
269(9) 0.01222 279.6 4.2
300(9) 0.01054 279.6 4.2
280(9) 0.01080 279.6 4.3
281(9) 0.01109 279.6 4.4
279(9) 0.01191 279.6 4.5
301(9) 0.01088 279.6 4.6
267(9) 0.01187 279.6 4.7
274(9) 0.01106 279.6 4.8
300(9) 0.01033 279.6 4.9
269(9) 0.01226 279.6 5.0
272(9) 0.01139 279.6 5.1
288(9) 0.01070 279.6 5.2
309(10) 0.00982 279.6 5.3
284(9) 0.01123 279.6 5.4
273(9) 0.01215 279.6 5.5
279(9) 0.01125 279.6 5.5
272(9) 0.01109 279.5 5.6
278(9) 0.01106 279.5 5.6
274(9) 0.01188 279.5 5.7
286(9) 0.01154 279.5 5.7
300(9) 0.01053 279.5 5.7
272(9) 0.01136 279.5 5.8
268(9) 0.01177 279.5 5.8
286(9) 0.01135 279.5 5.8
293(9) 0.01137 279.5 5.7
254(8) 0.01266 279.5 5.7
275(9) 0.01092 279.5 5.7
274(9) 0.01125 279.5 5.6
269(9) 0.01201 279.5 5.6
300(9) 0.01099 279.5 5.6
271(9) 0.01164 279.5 5.5
312(10) 0.00949 279.5 5.5
284(9) 0.01097 279.5 5.4
277(9) 0.01176 279.4 5.4
262(8) 0.01270 279.4 5.4
274(9) 0.01169 279.4 5.3
280(9) 0.01055 279.4 5.3
256(8) 0.01235 279.4 5.3
284(9) 0.01155 279.4 5.2
268(9) 0.01216 279.4 5.2
280(9) 0.01137 279.4 5.2
272(9) 0.01088 279.4 5.2
306(9) 0.01023 279.4 5.2
291(9) 0.01150 279.4 5.2
292(9) 0.01116 279.4 5.2
301(9) 0.01049 279.4 5.2
288(9) 0.01026 279.4 5.2
274(9) 0.01153 279.4 5.2
291(9) 0.01147 279.4 5.2
279(9) 0.01193 279.4 5.2
269(9) 0.01172 279.4 5.3
293(10) 0.00996 279.3 5.3
273(9) 0.01138 279.3 5.3
284(9) 0.01164 279.3 5.3
284(9) 0.01168 279.3 5.4
295(9) 0.01046 279.3 5.4
267(9) 0.01140 279.3 5.4
267(9) 0.01183 279.3 5.5
277(9) 0.01189 279.3 5.5
306(9) 0.01068 279.3 5.6
286(9) 0.01072 279.3 5.6
289(9) 0.01058 279.3 5.7
288(9) 0.01056 279.3 5.7
274(9) 0.01201 279.3 5.8
273(9) 0.01134 279.3 5.8
282(9) 0.01064 279.3 5.9
271(9) 0.01130 279.3 6.0
294(9) 0.01065 279.3 6.0
282(9) 0.01181 279.3 6.1
276(9) 0.01108 279.2 6.2
275(9) 0.01148 279.2 6.3
288(9) 0.01065 279.2 6.3
264(9) 0.01186 279.2 6.4
274(9) 0.01206 279.2 6.5
298(9) 0.01030 279.2 6.6
292(9) 0.01053 279.2 6.7
262(8) 0.01242 279.2 6.8
256(8) 0.01286 279.2 6.9
276(9) 0.01200 279.2 7.0
277(9) 0.01113 279.2 7.1
300(10) 0.00991 279.2 7.2
291(9) 0.01100 279.2 7.3
295(9) 0.01112 279.2 7.4
307(9) 0.01098 279.2 7.5
308(9) 0.01014 279.2 7.7
290(9) 0.01068 279.2 7.8
310(9) 0.01010 279.1 7.9
280(9) 0.01173 279.1 8.1
303(9) 0.01106 279.1 8.2
302(9) 0.01040 279.1 8.4
270(9) 0.01094 279.1 8.5
286(9) 0.01070 279.1 8.7
281(9) 0.01160 279.1 8.8
283(9) 0.01158 279.1 9.0
283(9) 0.01141 279.1 9.2
273(9) 0.01080 279.1 9.4
294(9) 0.01060 279.1 9.5
272(9) 0.01194 279.1 9.7
273(9) 0.01199 279.1 9.9
277(9) 0.01099 279.1 10.1
299(10) 0.00955 279.1 10.4
294(9) 0.01052 279.1 10.6
289(9) 0.01155 279.1 10.8
284(9) 0.01155 279.1 11.1
294(9) 0.01101 279.0 11.3
311(10) 0.00987 279.0 11.6
285(9) 0.01135 279.0 11.8
298(9) 0.01114 279.0 12.1
270(9) 0.01162 279.0 12.4
280(9) 0.01107 279.0 12.7
294(9) 0.01042 279.0 13.0
285(9) 0.01095 279.0 13.4
303(9) 0.01096 279.0 13.7
305(9) 0.01059 279.0 14.1
281(9) 0.01138 279.0 14.4
286(9) 0.01103 279.0 14.8
289(9) 0.01127 279.0 15.2
266(8) 0.01237 279.0 15.6
275(9) 0.01184 279.0 16.1
288(9) 0.01067 279.0 16.6
307(9) 0.01008 279.0 17.0
296(9) 0.01105 279.0 17.5
318(9) 0.01058 278.9 18.1
289(9) 0.01092 278.9 18.6
286(9) 0.01038 278.9 19.2
312(10) 0.00986 278.9 19.8
303(9) 0.01091 278.9 20.5
302(9) 0.01116 278.9 21.2
302(10) 0.00996 278.9 21.9
292(9) 0.01018 278.9 22.6
304(9) 0.01027 278.9 23.4
282(9) 0.01168 278.9 24.3
335(9) 0.01017 278.9 25.2
311(10) 0.01003 278.9 26.1
304(9) 0.01010 278.9 27.1
323(9) 0.01016 278.9 28.2
322(9) 0.01026 278.9 29.3
297(9) 0.01127 278.9 30.5
337(10) 0.00964 278.9 31.8
325(10) 0.00955 278.8 33.2
318(9) 0.01009 278.8 34.7
328(10) 0.00990 278.8 36.3
294(9) 0.01149 278.8 38.0
323(10) 0.00996 278.8 39.8
346(10) 0.00844 278.8 41.8
329(10) 0.00973 278.8 44.0
363(10) 0.00935 278.8 46.4
337(10) 0.00986 278.8 49.0
324(10) 0.00984 278.8 51.8
321(10) 0.00932 278.8 54.9
335(10) 0.00926 278.8 58.4
353(10) 0.00960 278.8 62.3
366(10) 0.00916 278.8 66.6
352(10) 0.00895 278.8 71.4
347(10) 0.00907 278.8 76.9
358(10) 0.00903 278.8 83.1
375(10) 0.00907 278.8 90.1
395(10) 0.00848 278.7 98.1
404(11) 0.00807 278.7 107.2
394(11) 0.00796 278.7 117.6
415(11) 0.00775 278.7 129.4
410(11) 0.00831 278.7 142.8
407(11) 0.00830 278.7 158.0
454(12) 0.00704 278.7 175.1
474(12) 0.00671 278.7 194.3
452(11) 0.00726 278.7 215.7
517(12) 0.00679 278.7 239.1
556(13) 0.00592 278.7 264.4
554(13) 0.00587 278.7 291.3
617(13) 0.00524 278.7 318.8
604(13) 0.00548 278.7 346.0
663(13) 0.00531 278.7 371.3
697(14) 0.00478 278.7 393.3
681(14) 0.00483 278.7 410.5
675(14) 0.00499 278.7 421.8
705(14) 0.00498 278.6 427.2
685(14) 0.00512 278.6 427.3
711(14) 0.00465 278.6 423.4
673(14) 0.00487 278.6 417.0
643(14) 0.00514 278.6 409.3
664(13) 0.00523 278.6 401.1
660(13) 0.00535 278.6 392.8
655(14) 0.00509 278.6 384.1
656(14) 0.00496 278.6 374.5
692(14) 0.00489 278.6 363.4
686(14) 0.00510 278.6 350.1
647(13) 0.00539 278.6 334.5
643(13) 0.00523 278.6 316.6
603(14) 0.00516 278.6 296.9
589(13) 0.00560 278.6 276.2
560(12) 0.00628 278.6 255.0
522(12) 0.00660 278.6 234.2
495(12) 0.00666 278.5 214.2
485(12) 0.00619 278.5 195.3
470(12) 0.00697 278.5 177.9
425(11) 0.00805 278.5 161.9
447(11) 0.00763 278.5 147.4
439(11) 0.00735 278.5 134.3
394(11) 0.00791 278.5 122.6
364(10) 0.00894 278.5 112.0
379(10) 0.00904 278.5 102.7
371(10) 0.00883 278.5 94.3
359(10) 0.00936 278.5 86.8
365(11) 0.00836 278.5 80.2
325(10) 0.00947 278.5 74.3
353(10) 0.00943 278.5 69.0
345(10) 0.00964 278.5 64.3
330(10) 0.00973 278.5 60.0
342(10) 0.00901 278.5 56.2
321(10) 0.01006 278.5 52.8
345(10) 0.00979 278.4 49.7
345(10) 0.00974 278.4 46.9
335(10) 0.00957 278.4 44.4
309(9) 0.01014 278.4 42.0
346(10) 0.00928 278.4 39.9
320(9) 0.01050 278.4 38.0
315(9) 0.01011 278.4 36.2
324(10) 0.00951 278.4 34.6
302(9) 0.01042 278.4 33.0
320(9) 0.01031 278.4 31.6
304(9) 0.01099 278.4 30.3
286(9) 0.01095 278.4 29.1
281(9) 0.01102 278.4 28.0
298(9) 0.01062 278.4 27.0
310(9) 0.01068 278.4 26.0
301(9) 0.01112 278.4 25.1
327(10) 0.00937 278.4 24.3
296(10) 0.00998 278.4 23.5
277(9) 0.01139 278.3 22.8
326(9) 0.01023 278.3 22.1
326(9) 0.01029 278.3 21.4
294(9) 0.01103 278.3 20.8
313(10) 0.00964 278.3 20.3
306(9) 0.01029 278.3 19.8
289(9) 0.01134 278.3 19.3
292(9) 0.01156 278.3 18.8
312(10) 0.00987 278.3 18.4
322(10) 0.00917 278.3 18.0
318(10) 0.00992 278.3 17.7
315(9) 0.01063 278.3 17.4
321(9) 0.01041 278.3 17.1
317(10) 0.00992 278.3 16.8
328(10) 0.00882 278.3 16.6
294(9) 0.01065 278.3 16.4
317(9) 0.01076 278.3 16.2
296(9) 0.01115 278.2 16.1
307(10) 0.00997 278.2 16.0
300(10) 0.01003 278.2 15.9
290(9) 0.01111 278.2 15.8
292(9) 0.01135 278.2 15.8
282(9) 0.01154 278.2 15.9
295(9) 0.01075 278.2 15.9
315(10) 0.00946 278.2 16.1
309(9) 0.01013 278.2 16.3
307(9) 0.01094 278.2 16.5
293(9) 0.01113 278.2 16.8
319(10) 0.01003 278.2 17.3
313(10) 0.00965 278.2 17.8
311(10) 0.00993 278.2 18.5
308(9) 0.01089 278.2 19.3
327(10) 0.00997 278.2 20.4
330(10) 0.00947 278.2 21.8
322(10) 0.00961 278.2 23.6
334(10) 0.00944 278.1 25.9
316(9) 0.01058 278.1 28.8
326(10) 0.01006 278.1 32.6
337(10) 0.00920 278.1 37.3
340(10) 0.00906 278.1 43.2
334(10) 0.00976 278.1 50.2
352(10) 0.00963 278.1 58.5
385(10) 0.00842 278.1 67.9
361(10) 0.00891 278.1 78.2
385(11) 0.00832 278.1 88.6
397(10) 0.00853 278.1 98.0
398(10) 0.00863 278.1 105.0
401(11) 0.00806 278.1 108.1
393(11) 0.00833 278.1 106.5
407(11) 0.00780 278.1 100.5
369(10) 0.00897 278.1 91.6
378(10) 0.00901 278.1 81.2
351(10) 0.00908 278.1 70.6
337(10) 0.00932 278.0 60.7
335(10) 0.00990 278.0 51.8
354(10) 0.00950 278.0 44.1
332(9) 0.01008 278.0 37.7
328(10) 0.00996 278.0 32.4
321(10) 0.00930 278.0 28.1
309(9) 0.01039 278.0 24.7
306(9) 0.01091 278.0 21.9
339(10) 0.00993 278.0 19.8
328(10) 0.00971 278.0 18.0
304(10) 0.01007 278.0 16.7
306(9) 0.01032 278.0 15.5
313(9) 0.01068 278.0 14.6
300(9) 0.01115 278.0 13.8
280(9) 0.01134 278.0 13.1
304(10) 0.00982 278.0 12.5
314(9) 0.01011 278.0 12.0
317(9) 0.01054 277.9 11.5
273(9) 0.01207 277.9 11.1
286(9) 0.01082 277.9 10.7
311(10) 0.00929 277.9 10.4
290(9) 0.01128 277.9 10.1
334(9) 0.01012 277.9 9.9
325(9) 0.01010 277.9 9.6
291(9) 0.01092 277.9 9.4
264(9) 0.01168 277.9 9.2
311(10) 0.01006 277.9 9.0
309(9) 0.01074 277.9 8.8
308(9) 0.01039 277.9 8.7
276(9) 0.01142 277.9 8.6
275(9) 0.01125 277.9 8.4
312(10) 0.00994 277.9 8.3
286(9) 0.01171 277.9 8.2
267(9) 0.01196 277.9 8.1
295(9) 0.01045 277.9 8.0
294(9) 0.01047 277.8 7.9
315(9) 0.01014 277.8 7.9
311(9) 0.01076 277.8 7.8
310(9) 0.01026 277.8 7.7
290(9) 0.01053 277.8 7.7
297(9) 0.01033 277.8 7.6
277(9) 0.01133 277.8 7.6
282(9) 0.01177 277.8 7.5
312(10) 0.01005 277.8 7.5
303(9) 0.01027 277.8 7.5
301(9) 0.01030 277.8 7.4
276(9) 0.01181 277.9 7.4
319(9) 0.01052 277.9 7.4
326(10) 0.00963 277.9 7.4
299(9) 0.01028 277.9 7.3
292(9) 0.01109 278.0 7.3
284(9) 0.01187 278.0 7.3
279(9) 0.01177 278.0 7.3
290(9) 0.01106 278.0 7.3
290(9) 0.01049 278.0 7.3
277(9) 0.01114 278.1 7.3
275(9) 0.01193 278.1 7.3
284(9) 0.01166 278.1 7.3
285(9) 0.01077 278.1 7.3
310(10) 0.00937 278.2 7.4
271(9) 0.01131 278.2 7.4
290(9) 0.01146 278.2 7.4
276(9) 0.01189 278.2 7.4
288(9) 0.01057 278.2 7.4
274(9) 0.01030 278.3 7.5
295(9) 0.01043 278.3 7.5
282(9) 0.01193 278.3 7.5
300(9) 0.01121 278.3 7.6
293(9) 0.01097 278.4 7.6
288(9) 0.01031 278.4 7.6
297(9) 0.01053 278.4 7.7
304(9) 0.01113 278.4 7.7
315(9) 0.01049 278.5 7.8
281(9) 0.01101 278.5 7.8
281(9) 0.01041 278.5 7.9
286(9) 0.01116 278.5 7.9
299(9) 0.01119 278.5 8.0
294(9) 0.01085 278.6 8.0
293(9) 0.01071 278.6 8.1
281(9) 0.01060 278.6 8.2
298(9) 0.01037 278.6 8.2
285(9) 0.01182 278.7 8.3
317(10) 0.00998 278.7 8.4
287(9) 0.01058 278.7 8.5
288(9) 0.01038 278.7 8.5
305(9) 0.01046 278.7 8.6
285(9) 0.01162 278.8 8.7
298(9) 0.01078 278.8 8.8
309(10) 0.00987 278.8 8.9
290(9) 0.01069 278.8 9.0
330(10) 0.00966 278.9 9.1
298(9) 0.01128 278.9 9.2
278(9) 0.01094 278.9 9.3
286(9) 0.01043 278.9 9.4
285(9) 0.01080 279.0 9.5
287(9) 0.01150 279.0 9.7
290(9) 0.01147 279.0 9.8
285(9) 0.01060 279.0 9.9
299(10) 0.00999 279.0 10.0
287(9) 0.01080 279.1 10.2
288(9) 0.01138 279.1 10.3
300(9) 0.01110 279.1 10.4
285(9) 0.01105 279.1 10.6
313(10) 0.00972 279.2 10.7
306(9) 0.01043 279.2 10.9
307(9) 0.01077 279.2 11.0
315(9) 0.01060 279.2 11.2
311(9) 0.01022 279.2 11.3
294(9) 0.01015 279.3 11.5
293(9) 0.01052 279.3 11.6
290(9) 0.01132 279.3 11.8
290(9) 0.01157 279.3 11.9
293(9) 0.01090 279.4 12.1
296(10) 0.00969 279.4 12.3
320(10) 0.00965 279.4 12.4
305(9) 0.01104 279.4 12.6
339(10) 0.00980 279.4 12.8
293(9) 0.01056 279.5 12.9
298(10) 0.00980 279.5 13.1
294(9) 0.01063 279.5 13.3
302(9) 0.01108 279.5 13.4
281(9) 0.01178 279.6 13.6
295(9) 0.01099 279.6 13.8
291(9) 0.01036 279.6 13.9
286(9) 0.01098 279.6 14.1
299(9) 0.01121 279.7 14.3
293(9) 0.01138 279.7 14.4
323(10) 0.00981 279.7 14.6
335(10) 0.00911 279.7 14.7
319(10) 0.01006 279.7 14.9
293(9) 0.01129 279.8 15.0
304(9) 0.01056 279.8 15.1
294(9) 0.01055 279.8 15.3
292(9) 0.01043 279.8 15.4
303(9) 0.01059 279.9 15.5
288(9) 0.01153 279.9 15.7
280(9) 0.01119 279.9 15.8
307(10) 0.00978 279.9 15.9
298(9) 0.01029 279.9 16.0
290(9) 0.01117 280.0 16.2
303(9) 0.01101 280.0 16.3
305(9) 0.01031 280.0 16.4
281(9) 0.01072 280.0 16.5
295(9) 0.01053 280.1 16.7
293(9) 0.01087 280.1 16.8
329(9) 0.01024 280.1 16.9
295(9) 0.01061 280.1 17.1
328(10) 0.00949 280.1 17.2
306(9) 0.01058 280.2 17.4
304(9) 0.01057 280.2 17.5
298(9) 0.01117 280.2 17.7
291(9) 0.01096 280.2 17.9
303(9) 0.01015 280.3 18.1
313(9) 0.01014 280.3 18.3
296(9) 0.01097 280.3 18.5
291(9) 0.01142 280.3 18.7
299(9) 0.01038 280.4 19.0
320(10) 0.00930 280.4 19.3
313(10) 0.01000 280.4 19.5
289(9) 0.01141 280.4 19.9
299(9) 0.01131 280.4 20.2
320(10) 0.00992 280.5 20.6
318(10) 0.00927 280.5 20.9
343(10) 0.00923 280.5 21.4
305(9) 0.01096 280.5 21.8
313(9) 0.01073 280.6 22.3
336(10) 0.00930 280.6 22.8
323(10) 0.00944 280.6 23.4
304(9) 0.01085 280.6 24.0
325(9) 0.01037 280.6 24.7
311(9) 0.01061 280.7 25.4
331(10) 0.00946 280.7 26.2
337(10) 0.00892 280.7 27.0
321(10) 0.00970 280.7 28.0
298(9) 0.01124 280.8 29.0
340(10) 0.00978 280.8 30.1
316(9) 0.01010 280.8 31.3
297(9) 0.01075 280.8 32.6
336(10) 0.00929 280.9 34.1
335(9) 0.01015 280.9 35.8
338(10) 0.00972 280.9 37.6
309(9) 0.01011 280.9 39.6
324(10) 0.00944 280.9 41.9
334(10) 0.00950 281.0 44.6
347(10) 0.00977 281.0 47.6
358(10) 0.00903 281.0 51.2
336(10) 0.00935 281.0 55.6
366(10) 0.00842 281.1 61.2
376(10) 0.00868 281.1 68.2
399(10) 0.00860 281.1 77.5
409(11) 0.00796 281.1 89.8
396(11) 0.00803 281.1 106.1
406(11) 0.00788 281.2 127.1
412(11) 0.00812 281.2 153.9
470(11) 0.00732 281.2 186.7
524(12) 0.00637 281.2 225.0
536(13) 0.00594 281.3 267.7
601(13) 0.00548 281.3 311.1
671(14) 0.00514 281.3 349.8
691(14) 0.00514 281.3 375.9
689(14) 0.00482 281.3 382.7
713(15) 0.00445 281.4 368.4
662(14) 0.00509 281.4 337.8
645(13) 0.00543 281.4 298.7
570(12) 0.00612 281.4 258.0
530(13) 0.00602 281.5 220.1
520(13) 0.00598 281.5 187.0
480(12) 0.00702 281.5 159.7
474(11) 0.00718 281.5 138.1
435(11) 0.00788 281.6 121.7
417(11) 0.00770 281.6 109.4
421(12) 0.00696 281.6 100.3
396(11) 0.00820 281.6 93.7
381(10) 0.00910 281.6 88.8
399(10) 0.00847 281.7 85.1
385(11) 0.00835 281.7 82.2
380(11) 0.00791 281.7 79.9
385(11) 0.00821 281.7 78.0
381(10) 0.00904 281.8 76.5
382(10) 0.00872 281.8 75.2
359(10) 0.00917 281.8 74.2
389(11) 0.00776 281.8 73.5
367(10) 0.00864 281.8 72.9
377(10) 0.00904 281.9 72.6
375(10) 0.00901 281.9 72.4
353(10) 0.00934 281.9 72.4
367(10) 0.00840 281.9 72.6
359(10) 0.00890 282.0 72.9
360(10) 0.00949 282.0 73.4
385(10) 0.00866 282.0 74.0
341(10) 0.00951 282.0 74.6
379(11) 0.00808 282.0 75.3
377(10) 0.00849 282.1 76.1
378(10) 0.00898 282.1 76.8
380(10) 0.00848 282.1 77.6
380(11) 0.00835 282.1 78.3
390(11) 0.00779 282.2 78.9
324(9) 0.01011 282.2 79.4
352(10) 0.00962 282.2 79.8
372(10) 0.00875 282.2 80.0
395(11) 0.00783 282.3 80.1
381(11) 0.00818 282.3 80.0
393(10) 0.00841 282.3 79.7
368(10) 0.00928 282.3 79.2
382(11) 0.00823 282.3 78.6
393(11) 0.00780 282.4 77.7
388(11) 0.00818 282.4 76.7
346(10) 0.00968 282.4 75.4
340(10) 0.01002 282.4 74.0
369(10) 0.00888 282.5 72.3
380(11) 0.00784 282.5 70.4
338(10) 0.00941 282.5 68.3
333(10) 0.01006 282.5 66.2
354(10) 0.00952 282.5 64.0
353(10) 0.00907 282.6 61.9
339(10) 0.00911 282.6 59.8
352(10) 0.00899 282.6 57.8
320(9) 0.01030 282.6 55.8
317(9) 0.01069 282.7 54.0
330(10) 0.00969 282.7 52.3
344(10) 0.00865 282.7 50.6
331(10) 0.00955 282.7 49.1
325(9) 0.01045 282.8 47.7
371(10) 0.00908 282.8 46.4
322(10) 0.00983 282.8 45.1
316(10) 0.00927 282.8 44.0
321(10) 0.00985 282.8 42.9
330(9) 0.01012 282.9 41.9
334(10) 0.00995 282.9 41.0
324(10) 0.00976 282.9 40.2
321(10) 0.00925 282.9 39.4
315(9) 0.01018 283.0 38.7
336(9) 0.01015 283.0 38.1
330(9) 0.01008 283.0 37.6
301(9) 0.01064 283.0 37.1
311(10) 0.00987 283.0 36.6
336(10) 0.00933 283.1 36.2
327(9) 0.01026 283.1 35.9
303(9) 0.01086 283.1 35.6
322(10) 0.00971 283.1 35.4
302(9) 0.01034 283.2 35.3
324(10) 0.00973 283.2 35.1
314(9) 0.01079 283.2 35.1
295(9) 0.01100 283.2 35.0
312(10) 0.01007 283.2 35.1
327(10) 0.00960 283.3 35.1
319(10) 0.01004 283.3 35.3
327(9) 0.01029 283.3 35.4
327(10) 0.00966 283.3 35.6
333(10) 0.00947 283.4 35.9
356(10) 0.00878 283.4 36.2
324(9) 0.01016 283.4 36.6
313(9) 0.01076 283.4 37.0
316(9) 0.01025 283.5 37.4
342(10) 0.00884 283.5 38.0
319(10) 0.00961 283.5 38.5
335(10) 0.00967 283.5 39.1
348(10) 0.00973 283.5 39.8
342(10) 0.00921 283.6 40.6
355(10) 0.00862 283.6 41.4
335(10) 0.00953 283.6 42.3
352(10) 0.00935 283.6 43.2
340(10) 0.00997 283.7 44.3
329(10) 0.00979 283.7 45.4
333(10) 0.00905 283.7 46.6
341(10) 0.00931 283.7 47.9
345(10) 0.00947 283.7 49.3
341(10) 0.01005 283.8 50.8
348(10) 0.00925 283.8 52.4
378(11) 0.00760 283.8 54.2
376(10) 0.00843 283.8 56.1
367(10) 0.00923 283.9 58.1
346(10) 0.00988 283.9 60.3
362(10) 0.00875 283.9 62.7
347(10) 0.00856 283.9 65.3
330(10) 0.00979 283.9 68.0
369(10) 0.00934 284.0 71.0
372(10) 0.00917 284.0 74.1
358(10) 0.00902 284.0 77.6
368(11) 0.00809 284.0 81.2
365(10) 0.00873 284.1 85.1
377(10) 0.00909 284.1 89.3
402(10) 0.00850 284.1 93.7
395(11) 0.00824 284.1 98.4
376(10) 0.00847 284.2 103.4
388(11) 0.00822 284.2 108.6
396(10) 0.00862 284.2 114.1
415(11) 0.00824 284.2 119.7
420(11) 0.00790 284.2 125.5
443(11) 0.00715 284.3 131.3
447(11) 0.00730 284.3 137.2
427(11) 0.00804 284.3 143.0
448(11) 0.00746 284.3 148.7
439(11) 0.00753 284.4 154.2
448(11) 0.00725 284.4 159.4
464(12) 0.00693 284.4 164.5
472(11) 0.00729 284.4 169.3
499(12) 0.00670 284.4 174.1
496(12) 0.00651 284.5 178.8
462(12) 0.00700 284.5 183.8
471(12) 0.00707 284.5 189.1
501(12) 0.00698 284.5 194.9
501(12) 0.00645 284.6 201.4
509(12) 0.00611 284.6 208.6
493(12) 0.00649 284.6 216.6
488(12) 0.00689 284.6 225.2
500(12) 0.00692 284.7 234.2
500(12) 0.00648 284.7 243.0
532(12) 0.00608 284.7 250.9
546(13) 0.00585 284.7 257.1
539(12) 0.00634 284.7 260.8
515(12) 0.00677 284.8 261.4
514(12) 0.00632 284.8 258.9
472(12) 0.00658 284.8 253.5
495(12) 0.00640 284.8 246.1
504(12) 0.00684 284.9 237.5
474(11) 0.00736 284.9 228.6
427(11) 0.00785 284.9 220.0
463(12) 0.00674 284.9 212.2
481(12) 0.00679 284.9 205.6
487(11) 0.00710 285.0 200.3
446(11) 0.00773 285.0 196.4
470(12) 0.00700 285.0 193.9
469(12) 0.00656 285.0 192.7
485(12) 0.00669 285.1 192.9
475(11) 0.00729 285.1 194.2
481(11) 0.00721 285.1 196.7
489(12) 0.00659 285.1 200.3
544(13) 0.00564 285.1 204.7
490(12) 0.00681 285.2 210.1
518(12) 0.00674 285.2 216.1
520(12) 0.00661 285.2 222.7
517(12) 0.00651 285.2 229.8
551(13) 0.00566 285.3 237.0
519(12) 0.00627 285.3 244.3
534(12) 0.00652 285.3 251.5
552(12) 0.00622 285.3 258.2
575(13) 0.00571 285.4 264.3
571(13) 0.00546 285.4 269.5
509(12) 0.00641 285.4 273.5
541(12) 0.00644 285.4 276.3
574(13) 0.00598 285.4 277.6
585(13) 0.00548 285.5 277.3
531(12) 0.00611 285.5 275.5
546(12) 0.00612 285.5 272.1
537(12) 0.00654 285.5 267.3
539(12) 0.00632 285.6 261.1
506(12) 0.00636 285.6 253.8
467(12) 0.00701 285.6 245.6
502(12) 0.00659 285.6 236.6
498(12) 0.00705 285.6 227.0
500(12) 0.00671 285.7 217.0
487(12) 0.00645 285.7 206.9
470(12) 0.00681 285.7 196.7
440(11) 0.00775 285.7 186.6
437(11) 0.00790 285.8 176.8
435(11) 0.00719 285.8 167.3
487(12) 0.00609 285.8 158.2
431(11) 0.00745 285.8 149.6
408(11) 0.00803 285.9 141.4
405(10) 0.00847 285.9 133.7
388(11) 0.00829 285.9 126.4
442(12) 0.00688 285.9 119.7
397(10) 0.00844 285.9 113.3
407(10) 0.00839 286.0 107.4
377(10) 0.00909 286.0 101.8
377(10) 0.00843 286.0 96.7
356(11) 0.00838 286.0 91.9
378(11) 0.00838 286.1 87.4
379(10) 0.00880 286.1 83.2
378(10) 0.00902 286.1 79.3
380(11) 0.00836 286.1 75.7
367(11) 0.00810 286.1 72.3
347(10) 0.00957 286.2 69.1
378(10) 0.00896 286.2 66.2
361(10) 0.00939 286.2 63.4
378(10) 0.00864 286.2 60.9
359(11) 0.00827 286.3 58.5
353(10) 0.00924 286.3 56.2
353(10) 0.00964 286.3 54.1
331(9) 0.01021 286.3 52.2
338(10) 0.00950 286.3 50.3
339(10) 0.00889 286.4 48.6
329(10) 0.00957 286.4 46.9
352(10) 0.00958 286.4 45.4
346(10) 0.00959 286.4 43.9
350(10) 0.00925 286.5 42.6
337(10) 0.00917 286.5 41.3
358(10) 0.00864 286.5 40.0
357(10) 0.00947 286.5 38.9
308(9) 0.01034 286.6 37.8
336(10) 0.00956 286.6 36.7
331(10) 0.00924 286.6 35.8
320(10) 0.00969 286.6 34.8
355(10) 0.00955 286.6 33.9
359(10) 0.00907 286.7 33.0
330(10) 0.00970 286.7 32.2
319(10) 0.00954 286.7 31.4
345(10) 0.00904 286.7 30.7
352(10) 0.00951 286.8 29.9
334(10) 0.00947 286.8 29.3
322(10) 0.00981 286.8 28.6
337(10) 0.00930 286.8 27.9
335(10) 0.00979 286.8 27.3
328(9) 0.01011 286.9 26.7
318(10) 0.00974 286.9 26.2
313(10) 0.00973 286.9 25.6
329(10) 0.00939 286.9 25.1
313(9) 0.01031 287.0 24.6
291(9) 0.01135 287.0 24.1
308(10) 0.00993 287.0 23.7
327(10) 0.00970 287.0 23.2
328(10) 0.00959 287.0 22.8
303(9) 0.01093 287.1 22.4
321(9) 0.01037 287.1 22.0
334(10) 0.00912 287.1 21.7
312(10) 0.00924 287.1 21.3
305(9) 0.01024 287.2 21.0
313(9) 0.01039 287.2 20.7
301(9) 0.01115 287.2 20.4
292(9) 0.01067 287.2 20.2
318(10) 0.00916 287.3 19.9
304(9) 0.01044 287.3 19.7
277(9) 0.01164 287.3 19.5
287(9) 0.01152 287.3 19.3
270(9) 0.01155 287.3 19.2
293(10) 0.00986 287.4 19.0
302(9) 0.01035 287.4 18.9
334(9) 0.01016 287.4 18.8
307(9) 0.01083 287.4 18.7
341(10) 0.00935 287.5 18.7
317(10) 0.00966 287.5 18.7
333(10) 0.00927 287.5 18.7
324(9) 0.01041 287.5 18.8
304(9) 0.01067 287.5 18.8
312(9) 0.01015 287.6 18.9
310(10) 0.00930 287.6 19.1
301(9) 0.01040 287.6 19.3
319(9) 0.01047 287.6 19.5
316(9) 0.01056 287.7 19.8
308(9) 0.01040 287.7 20.2
292(9) 0.01071 287.7 20.5
314(10) 0.00998 287.7 21.0
321(9) 0.01051 287.8 21.5
317(9) 0.01025 287.8 22.1
322(10) 0.00948 287.8 22.7
311(10) 0.00986 287.8 23.4
334(10) 0.00960 287.8 24.2
331(9) 0.01031 287.9 25.1
327(10) 0.00999 287.9 26.0
321(10) 0.00972 287.9 27.0
321(10) 0.00981 287.9 28.1
332(10) 0.00956 288.0 29.2
339(10) 0.00999 288.0 30.4
360(10) 0.00885 288.0 31.6
332(10) 0.00934 288.0 32.7
332(10) 0.00947 288.0 33.8
330(10) 0.00997 288.1 34.8
316(9) 0.01067 288.1 35.7
315(10) 0.00976 288.1 36.4
318(10) 0.00974 288.1 36.8
324(10) 0.00983 288.2 37.0
299(9) 0.01099 288.2 36.9
324(9) 0.01028 288.2 36.6
340(10) 0.00959 288.2 35.9
333(10) 0.00932 288.2 35.1
327(10) 0.00971 288.3 34.0
346(10) 0.00966 288.3 32.8
304(9) 0.01107 288.3 31.5
301(9) 0.01034 288.3 30.1
299(10) 0.00989 288.4 28.8
319(10) 0.00984 288.4 27.4
325(9) 0.01030 288.4 26.1
297(9) 0.01140 288.4 24.8
295(9) 0.01077 288.5 23.5
350(11) 0.00801 288.5 22.4
316(10) 0.00991 288.5 21.3
297(9) 0.01109 288.5 20.3
292(9) 0.01146 288.5 19.3
321(10) 0.00989 288.6 18.5
292(9) 0.01035 288.6 17.6
291(9) 0.01067 288.6 16.9
324(9) 0.01037 288.6 16.2
313(9) 0.01051 288.7 15.6
289(9) 0.01098 288.7 15.0
293(9) 0.01054 288.7 14.5
291(9) 0.01131 288.7 14.0
304(9) 0.01099 288.7 13.5
307(9) 0.01050 288.8 13.1
298(9) 0.01035 288.8 12.7
321(10) 0.00912 288.8 12.4
297(9) 0.01067 288.8 12.1
302(9) 0.01112 288.9 11.8
317(9) 0.01028 288.9 11.5
336(10) 0.00947 288.9 11.2
314(10) 0.01007 288.9 11.0
308(9) 0.01022 288.9 10.8
292(9) 0.01142 289.0 10.6
315(9) 0.01047 289.0 10.4
288(9) 0.01089 289.0 10.3
309(10) 0.01003 289.0 10.1
313(9) 0.01021 289.1 10.0
292(9) 0.01143 289.1 9.9
306(9) 0.01058 289.1 9.8
288(9) 0.01118 289.1 9.7
322(10) 0.00973 289.2 9.6
294(9) 0.01141 289.2 9.5
298(9) 0.01115 289.2 9.4
298(9) 0.01077 289.2 9.4
293(9) 0.01037 289.2 9.3
307(9) 0.01008 289.3 9.3
313(9) 0.01023 289.3 9.3
298(9) 0.01132 289.3 9.3
288(9) 0.01109 289.3 9.3
282(9) 0.01049 289.4 9.3
292(9) 0.01052 289.4 9.3
290(9) 0.01143 289.4 9.4
326(9) 0.01035 289.4 9.4
299(9) 0.01071 289.4 9.5
273(9) 0.01058 289.5 9.6
293(9) 0.01045 289.5 9.7
278(9) 0.01198 289.5 9.8
298(9) 0.01131 289.5 9.9
303(9) 0.01025 289.6 10.1
295(10) 0.01001 289.6 10.2
318(10) 0.00994 289.6 10.4
334(9) 0.01016 289.6 10.6
291(9) 0.01141 289.7 10.9
317(10) 0.01006 289.7 11.2
306(10) 0.00963 289.7 11.5
327(10) 0.00956 289.7 11.8
282(9) 0.01177 289.7 12.1
318(9) 0.01058 289.8 12.5
279(9) 0.01110 289.8 13.0
291(9) 0.01020 289.8 13.4
312(9) 0.01018 289.8 13.9
297(9) 0.01122 289.9 14.4
276(9) 0.01170 289.9 15.0
291(9) 0.01099 289.9 15.6
312(10) 0.00951 289.9 16.1
278(9) 0.01081 289.9 16.7
305(9) 0.01101 290.0 17.3
321(10) 0.00994 290.0 17.9
297(9) 0.01066 290.0 18.4
263(9) 0.01186 290.0 18.9
287(9) 0.01103 290.1 19.3
324(9) 0.01051 290.1 19.6
289(9) 0.01124 290.1 19.8
290(9) 0.01055 290.1 19.9
287(9) 0.01042 290.1 19.8
314(10) 0.00998 290.2 19.7
305(9) 0.01107 290.2 19.4
282(9) 0.01136 290.2 19.0
314(10) 0.00966 290.2 18.5
317(10) 0.00984 290.3 18.0
304(9) 0.01063 290.3 17.4
305(9) 0.01099 290.3 16.7
280(9) 0.01107 290.3 16.1
301(9) 0.01019 290.4 15.4
278(9) 0.01127 290.4 14.8
316(10) 0.00984 290.4 14.2
294(9) 0.01138 290.4 13.6
291(9) 0.01054 290.4 13.0
291(9) 0.01040 290.5 12.4
309(9) 0.01009 290.5 11.9
289(9) 0.01128 290.5 11.4
292(9) 0.01146 290.5 11.0
291(9) 0.01064 290.6 10.6
311(10) 0.00973 290.6 10.2
308(10) 0.00985 290.6 9.8
293(9) 0.01117 290.6 9.5
282(9) 0.01174 290.6 9.2
302(9) 0.01035 290.7 8.9
285(9) 0.01027 290.7 8.6
282(9) 0.01095 290.7 8.4
286(9) 0.01136 290.7 8.2
289(9) 0.01154 290.8 8.0
268(9) 0.01211 290.8 7.8
285(9) 0.01009 290.8 7.6
291(9) 0.01044 290.8 7.4
313(9) 0.01062 290.9 7.3
312(9) 0.01075 290.9 7.2
308(9) 0.01017 290.9 7.0
284(9) 0.01092 290.9 6.9
303(10) 0.01003 290.9 6.8
322(9) 0.01043 291.0 6.7
313(9) 0.01065 291.0 6.6
314(10) 0.00990 291.0 6.5
313(10) 0.00953 291.0 6.4
313(9) 0.01024 291.0 6.4
279(9) 0.01183 290.9 6.3
311(9) 0.01072 290.9 6.2
295(9) 0.01054 290.9 6.2
276(9) 0.01123 290.8 6.1
279(9) 0.01114 290.8 6.0
280(9) 0.01180 290.7 6.0
270(9) 0.01189 290.7 6.0
288(9) 0.01022 290.7 5.9
287(9) 0.01024 290.6 5.9
281(9) 0.01158 290.6 5.8
294(9) 0.01126 290.6 5.8
297(9) 0.01088 290.5 5.8
307(9) 0.01026 290.5 5.8
291(9) 0.01107 290.4 5.7
306(9) 0.01059 290.4 5.7
301(9) 0.01100 290.4 5.7
311(10) 0.01006 290.3 5.7
318(10) 0.00951 290.3 5.7
317(10) 0.00981 290.3 5.7
315(9) 0.01028 290.2 5.6
300(9) 0.01111 290.2 5.6
297(9) 0.01038 290.1 5.6
287(9) 0.01069 290.1 5.6
297(9) 0.01045 290.1 5.6
299(9) 0.01091 290.0 5.6
283(9) 0.01176 290.0 5.6
310(9) 0.01045 290.0 5.6
297(10) 0.00985 289.9 5.6
286(9) 0.01041 289.9 5.6
265(8) 0.01239 289.8 5.7
299(9) 0.01133 289.8 5.7
287(9) 0.01139 289.8 5.7
322(10) 0.00933 289.7 5.7
321(10) 0.00961 289.7 5.7
306(9) 0.01088 289.7 5.7
284(9) 0.01155 289.6 5.7
294(9) 0.01051 289.6 5.8
296(10) 0.01001 289.5 5.8
283(9) 0.01132 289.5 5.8
313(9) 0.01060 289.5 5.8
287(9) 0.01165 289.4 5.9
302(9) 0.01017 289.4 5.9
291(10) 0.00996 289.4 5.9
280(9) 0.01087 289.3 6.0
300(9) 0.01116 289.3 6.0
313(9) 0.01034 289.2 6.0
287(9) 0.01094 289.2 6.1
293(9) 0.01030 289.2 6.1
289(9) 0.01086 289.1 6.2
280(9) 0.01203 289.1 6.2
294(9) 0.01118 289.1 6.3
301(9) 0.01064 289.0 6.3
306(9) 0.01009 289.0 6.4
295(9) 0.01063 288.9 6.4
282(9) 0.01175 288.9 6.5
298(9) 0.01088 288.9 6.6
301(9) 0.01043 288.8 6.6
317(10) 0.00959 288.8 6.7
296(9) 0.01055 288.8 6.8
282(9) 0.01190 288.7 6.8
288(9) 0.01085 288.7 6.9
307(10) 0.00976 288.7 7.0
314(10) 0.00977 288.6 7.1
324(10) 0.00991 288.6 7.2
288(9) 0.01147 288.5 7.3
300(9) 0.01046 288.5 7.4
303(9) 0.01028 288.5 7.5
281(9) 0.01089 288.4 7.6
281(9) 0.01142 288.4 7.7
287(9) 0.01158 288.4 7.8
305(9) 0.01013 288.3 8.0
297(9) 0.01061 288.3 8.1
305(9) 0.01061 288.2 8.2
288(9) 0.01129 288.2 8.4
293(9) 0.01135 288.2 8.5
282(9) 0.01130 288.1 8.7
282(9) 0.01055 288.1 8.9
292(9) 0.01057 288.1 9.0
271(9) 0.01221 288.0 9.2
327(9) 0.01029 288.0 9.4
291(9) 0.01088 287.9 9.6
309(10) 0.00927 287.9 9.8
303(10) 0.01003 287.9 10.1
279(9) 0.01175 287.8 10.3
278(9) 0.01206 287.8 10.6
291(9) 0.01072 287.8 10.8
289(9) 0.01017 287.7 11.1
289(9) 0.01124 287.7 11.4
300(9) 0.01108 287.6 11.8
298(9) 0.01132 287.6 12.1
315(10) 0.00975 287.6 12.5
306(10) 0.00957 287.5 12.9
302(9) 0.01061 287.5 13.3
293(9) 0.01159 287.5 13.7
278(9) 0.01161 287.4 14.2
281(9) 0.01089 287.4 14.7
293(9) 0.01016 287.3 15.3
300(9) 0.01079 287.3 15.9
319(9) 0.01048 287.3 16.5
314(9) 0.01075 287.2 17.2
323(10) 0.00981 287.2 18.0
307(10) 0.00988 287.2 18.8
311(9) 0.01013 287.1 19.7
314(9) 0.01063 287.1 20.6
289(9) 0.01115 287.0 21.6
322(10) 0.00955 287.0 22.8
295(9) 0.01083 287.0 24.0
321(10) 0.00959 286.9 25.3
328(9) 0.01035 286.9 26.8
300(9) 0.01082 286.9 28.3
291(9) 0.01058 286.8 30.0
304(10) 0.00995 286.8 31.9
315(9) 0.01030 286.7 33.8
334(9) 0.01023 286.7 35.9
303(9) 0.01053 286.7 38.2
302(9) 0.01031 286.6 40.6
325(10) 0.01000 286.6 43.2
330(10) 0.00992 286.6 45.8
303(9) 0.01109 286.5 48.6
327(10) 0.00984 286.5 51.4
365(11) 0.00834 286.4 54.2
325(10) 0.00994 286.4 56.9
348(10) 0.00947 286.4 59.5
349(10) 0.00973 286.3 61.9
347(10) 0.00948 286.3 63.9
335(10) 0.00925 286.3 65.6
375(11) 0.00810 286.2 66.7
357(10) 0.00920 286.2 67.3
349(10) 0.00980 286.2 67.4
355(10) 0.00913 286.1 66.9
349(10) 0.00872 286.1 65.9
363(10) 0.00877 286.0 64.5
331(9) 0.01010 286.0 62.7
343(10) 0.00977 286.0 60.7
351(10) 0.00910 285.9 58.5
336(10) 0.00903 285.9 56.3
324(9) 0.01022 285.9 54.0
335(9) 0.01009 285.8 51.7
326(9) 0.01022 285.8 49.6
362(10) 0.00874 285.7 47.5
345(10) 0.00860 285.7 45.5
346(10) 0.00938 285.7 43.7
309(9) 0.01089 285.6 42.0
320(9) 0.01048 285.6 40.4
325(10) 0.00975 285.6 38.9
344(10) 0.00855 285.5 37.5
329(10) 0.00976 285.5 36.3
338(10) 0.01000 285.4 35.1
325(9) 0.01013 285.4 34.0
355(10) 0.00856 285.4 33.1
355(10) 0.00865 285.3 32.2
359(10) 0.00871 285.3 31.3
299(9) 0.01132 285.3 30.6
339(10) 0.00963 285.2 29.9
302(9) 0.01009 285.2 29.3
312(10) 0.00977 285.1 28.7
329(10) 0.00952 285.1 28.2
347(10) 0.00966 285.1 27.7
337(10) 0.00978 285.0 27.3
308(9) 0.01030 285.0 26.9
328(10) 0.00929 285.0 26.6
306(9) 0.01074 284.9 26.3
308(9) 0.01087 284.9 26.1
327(10) 0.00940 284.8 25.9
310(10) 0.00995 284.8 25.7
344(10) 0.00902 284.8 25.6
317(9) 0.01020 284.7 25.5
317(9) 0.01062 284.7 25.4
327(10) 0.00963 284.7 25.4
319(10) 0.00938 284.6 25.4
307(9) 0.01036 284.6 25.5
318(9) 0.01038 284.5 25.5
304(9) 0.01095 284.5 25.6
301(9) 0.01019 284.5 25.7
331(10) 0.00916 284.4 25.9
323(10) 0.00977 284.4 26.1
297(9) 0.01104 284.4 26.3
328(9) 0.01035 284.3 26.6
325(10) 0.00952 284.3 26.9
330(10) 0.00894 284.2 27.2
298(9) 0.01019 284.2 27.6
313(9) 0.01047 284.2 28.0
296(9) 0.01151 284.1 28.6
315(10) 0.00996 284.1 29.1
348(10) 0.00860 284.1 29.8
319(9) 0.01030 284.0 30.6
334(9) 0.01017 284.0 31.5
315(9) 0.01043 283.9 32.6
326(10) 0.00964 283.9 33.8
362(11) 0.00794 283.9 35.3
339(10) 0.00930 283.8 36.9
344(10) 0.00980 283.8 38.8
344(10) 0.00986 283.8 41.0
344(10) 0.00956 283.7 43.4
354(10) 0.00850 283.7 46.0
359(10) 0.00909 283.7 48.9
358(10) 0.00957 283.6 51.9
363(10) 0.00917 283.6 55.0
368(10) 0.00866 283.5 57.9
373(10) 0.00858 283.5 60.3
384(11) 0.00834 283.5 62.2
399(10) 0.00863 283.4 63.1
370(10) 0.00918 283.4 63.0
383(10) 0.00858 283.4 62.0
365(10) 0.00857 283.3 60.2
339(10) 0.00949 283.3 57.8
365(10) 0.00930 283.2 55.1
342(10) 0.00962 283.2 52.4
336(10) 0.00947 283.2 49.7
319(10) 0.00958 283.1 47.3
338(10) 0.00940 283.1 45.1
337(10) 0.01007 283.1 43.1
331(10) 0.00968 283.0 41.4
335(10) 0.00932 283.0 40.0
340(10) 0.00938 282.9 38.8
342(10) 0.00971 282.9 37.9
356(10) 0.00961 282.9 37.1
334(10) 0.00951 282.8 36.5
309(10) 0.00967 282.8 36.0
311(9) 0.01016 282.8 35.6
346(10) 0.00966 282.7 35.4
335(9) 0.01019 282.7 35.2
325(10) 0.00970 282.6 35.0
303(9) 0.01040 282.6 34.9
356(10) 0.00876 282.6 34.9
336(10) 0.00996 282.5 34.9
329(9) 0.01028 282.5 34.8
319(10) 0.00982 282.5 34.8
342(10) 0.00855 282.4 34.8
324(9) 0.01011 282.4 34.8
321(9) 0.01034 282.3 34.7
308(9) 0.01096 282.3 34.6
341(10) 0.00939 282.3 34.6
293(9) 0.01052 282.2 34.4
333(10) 0.00948 282.2 34.3
317(9) 0.01052 282.2 34.1
336(9) 0.01012 282.1 34.0
313(9) 0.01014 282.1 33.7
315(10) 0.00944 282.0 33.5
304(9) 0.01025 282.0 33.2
319(9) 0.01041 282.0 33.0
317(9) 0.01056 281.9 32.7
296(9) 0.01099 281.9 32.4
321(10) 0.00922 281.9 32.0
341(10) 0.00932 281.8 31.7
327(9) 0.01032 281.8 31.4
322(9) 0.01026 281.7 31.0
326(10) 0.00960 281.7 30.7
304(9) 0.01019 281.7 30.4
336(10) 0.00951 281.6 30.0
312(9) 0.01087 281.6 29.7
310(9) 0.01026 281.6 29.4
335(10) 0.00923 281.5 29.1
303(9) 0.01028 281.5 28.8
314(9) 0.01017 281.4 28.6
325(9) 0.01046 281.4 28.4
294(9) 0.01099 281.4 28.2
328(10) 0.00953 281.3 28.0
323(10) 0.00951 281.3 27.8
314(9) 0.01016 281.3 27.7
300(9) 0.01112 281.2 27.6
302(9) 0.01064 281.2 27.5
329(10) 0.00956 281.2 27.4
309(9) 0.01020 281.1 27.4
295(9) 0.01070 281.1 27.4
297(9) 0.01128 281.0 27.4
308(9) 0.01016 281.0 27.4
311(9) 0.01031 281.0 27.5
322(10) 0.00992 280.9 27.5
325(10) 0.01005 280.9 27.6
314(9) 0.01065 280.9 27.7
316(10) 0.00976 280.8 27.8
331(10) 0.00921 280.8 27.9
330(10) 0.00946 280.7 28.0
335(10) 0.00991 280.7 28.1
310(9) 0.01087 280.7 28.1
320(10) 0.00981 280.6 28.2
313(10) 0.00956 280.6 28.2
308(9) 0.01044 280.6 28.2
322(9) 0.01012 280.5 28.2
330(9) 0.01037 280.5 28.2
317(10) 0.00998 280.4 28.1
309(10) 0.00980 280.4 28.0
306(9) 0.01074 280.4 27.8
298(9) 0.01113 280.3 27.6
280(9) 0.01168 280.3 27.4
299(9) 0.01037 280.3 27.2
303(10) 0.00938 280.2 26.9
295(9) 0.01064 280.2 26.6
307(9) 0.01089 280.1 26.3
308(9) 0.01086 280.1 25.9
297(9) 0.01041 280.1 25.6
313(10) 0.00932 280.0 25.2
302(9) 0.01070 280.0 24.9
296(9) 0.01125 280.0 24.5
302(9) 0.01103 279.9 24.2
317(10) 0.00969 279.9 23.9
316(10) 0.00940 279.8 23.5
307(10) 0.01007 279.8 23.2
292(9) 0.01134 279.8 23.0
312(9) 0.01015 279.7 22.7
300(9) 0.01034 279.7 22.5
290(9) 0.01103 279.7 22.3
297(9) 0.01054 279.6 22.1
281(9) 0.01178 279.6 21.9
304(9) 0.01079 279.5 21.8
301(9) 0.01024 279.5 21.8
309(10) 0.01001 279.5 21.7
304(9) 0.01061 279.4 21.7
312(9) 0.01075 279.4 21.8
296(9) 0.01116 279.4 21.8
301(9) 0.01060 279.3 22.0
319(10) 0.00963 279.3 22.1
317(9) 0.01013 279.2 22.4
298(9) 0.01131 279.2 22.7
293(9) 0.01077 279.2 23.0
305(9) 0.01022 279.1 23.5
312(10) 0.00979 279.1 24.0
306(9) 0.01056 279.1 24.6
315(9) 0.01067 279.0 25.3
311(9) 0.01022 279.0 26.1
309(10) 0.00986 278.9 27.1
324(10) 0.00974 278.9 28.1
315(9) 0.01043 278.9 29.4
321(9) 0.01045 278.8 30.7
328(10) 0.00941 278.8 32.3
315(10) 0.00994 278.8 34.1
319(9) 0.01008 278.7 36.0
359(10) 0.00927 278.7 38.2
341(10) 0.01004 278.7 40.6
312(9) 0.01047 278.6 43.3
350(10) 0.00858 278.6 46.1
338(10) 0.00949 278.5 49.1
370(10) 0.00923 278.5 52.3
337(10) 0.01001 278.5 55.5
331(10) 0.00951 278.4 58.6
333(10) 0.00884 278.4 61.5
350(10) 0.00916 278.4 64.2
361(10) 0.00940 278.3 66.5
393(10) 0.00866 278.3 68.4
377(10) 0.00856 278.2 70.0
353(11) 0.00829 278.2 71.5
375(11) 0.00818 278.2 72.8
367(10) 0.00907 278.1 74.3
371(10) 0.00932 278.1 75.9
398(11) 0.00808 278.1 78.0
369(11) 0.00831 278.0 80.5
394(11) 0.00799 278.0 83.4
392(10) 0.00867 277.9 86.9
395(10) 0.00848 277.9 90.9
411(11) 0.00780 277.9 95.4
397(11) 0.00788 277.8 100.3
430(11) 0.00741 277.8 105.4
467(11) 0.00747 277.8 110.8
446(11) 0.00747 277.7 116.0
465(12) 0.00686 277.7 121.0
441(11) 0.00726 277.6 125.4
468(12) 0.00700 277.6 129.0
438(11) 0.00786 277.6 131.4
443(11) 0.00765 277.5 132.5
442(11) 0.00711 277.5 132.1
407(11) 0.00788 277.5 130.3
402(11) 0.00812 277.4 127.1
405(10) 0.00852 277.4 122.7
384(10) 0.00866 277.3 117.4
397(11) 0.00804 277.3 111.4
404(11) 0.00766 277.3 105.1
371(10) 0.00880 277.2 98.5
378(10) 0.00906 277.2 92.0
365(10) 0.00877 277.2 85.6
385(11) 0.00834 277.1 79.5
350(10) 0.00925 277.1 73.7
365(10) 0.00904 277.0 68.3
356(10) 0.00958 277.0 63.3
346(10) 0.00924 277.0 58.7
350(10) 0.00889 276.9 54.4
324(9) 0.01016 276.9 50.5
328(9) 0.01018 276.9 47.0
324(9) 0.01041 276.8 43.8
331(10) 0.00939 276.8 40.8
326(10) 0.00953 276.7 38.2
320(9) 0.01015 276.7 35.8
309(9) 0.01050 276.7 33.6
331(9) 0.01023 276.6 31.6
339(10) 0.00921 276.6 29.8
318(10) 0.00914 276.6 28.2
309(9) 0.01011 276.5 26.7
328(9) 0.01027 276.5 25.4
298(9) 0.01118 276.4 24.2
293(9) 0.01110 276.4 23.1
298(10) 0.00989 276.4 22.1
300(9) 0.01050 276.3 21.1
312(9) 0.01062 276.3 20.3
291(9) 0.01149 276.3 19.5
299(9) 0.01056 276.2 18.8
293(10) 0.01005 276.2 18.1
304(9) 0.01027 276.2 17.5
298(9) 0.01122 276.1 17.0
286(9) 0.01147 276.1 16.5
315(10) 0.00992 276.0 16.0
288(9) 0.01024 276.0 15.6
272(9) 0.01107 276.0 15.2
286(9) 0.01165 275.9 14.8
322(9) 0.01017 275.9 14.4
311(9) 0.01033 275.9 14.1
308(9) 0.01009 275.8 13.9
285(9) 0.01099 275.8 13.6
278(9) 0.01195 275.7 13.4
284(9) 0.01153 275.7 13.1
291(9) 0.01070 275.7 13.0
284(9) 0.01093 275.6 12.8
300(9) 0.01079 275.6 12.6
298(9) 0.01127 275.6 12.5
300(9) 0.01073 275.5 12.4
303(10) 0.01007 275.5 12.3
286(9) 0.01084 275.4 12.2
303(9) 0.01055 275.4 12.2
283(9) 0.01185 275.4 12.1
294(9) 0.01083 275.3 12.1
290(9) 0.01071 275.3 12.1
302(9) 0.01017 275.3 12.1
295(9) 0.01118 275.2 12.1
310(9) 0.01077 275.2 12.1
286(9) 0.01058 275.1 12.2
313(10) 0.00944 275.1 12.3
306(9) 0.01036 275.1 12.4
296(9) 0.01139 275.0 12.5
280(9) 0.01184 275.0 12.6
265(9) 0.01180 275.0 12.7
293(9) 0.01014 274.9 12.8
282(9) 0.01085 274.9 13.0
282(9) 0.01154 274.8 13.2
285(9) 0.01155 274.8 13.3
284(9) 0.01105 274.8 13.5
281(9) 0.01040 274.7 13.7
295(9) 0.01027 274.7 13.9
270(9) 0.01215 274.7 14.1
269(9) 0.01224 274.6 14.2
282(9) 0.01129 274.6 14.4
282(9) 0.01030 274.5 14.6
286(9) 0.01053 274.5 14.7
301(9) 0.01115 274.5 14.9
298(9) 0.01109 274.4 15.0
307(10) 0.00967 274.4 15.1
291(10) 0.00980 274.4 15.1
288(9) 0.01101 274.3 15.1
291(9) 0.01141 274.3 15.1
293(9) 0.01135 274.2 15.1
305(9) 0.01014 274.2 15.0
289(9) 0.01043 274.2 14.9
286(9) 0.01076 274.1 14.7
290(9) 0.01154 274.1 14.6
285(9) 0.01149 274.1 14.4
276(9) 0.01153 274.0 14.1
303(10) 0.00988 274.0 13.9
304(9) 0.01022 273.9 13.6
271(9) 0.01212 273.9 13.4
283(9) 0.01131 273.9 13.1
265(9) 0.01166 273.8 12.8
267(9) 0.01101 273.8 12.5
298(9) 0.01078 273.8 12.2
294(9) 0.01132 273.7 11.9
281(9) 0.01132 273.7 11.6
276(9) 0.01122 273.7 11.4
288(9) 0.01059 273.6 11.1
288(9) 0.01124 273.6 10.8
279(9) 0.01165 273.5 10.6
289(9) 0.01085 273.5 10.3
293(9) 0.01013 273.5 10.1
260(8) 0.01246 273.4 9.9
297(9) 0.01070 273.4 9.7
296(9) 0.01131 273.4 9.5
287(9) 0.01074 273.3 9.3
273(9) 0.01135 273.3 9.1
289(9) 0.01056 273.2 8.9
277(9) 0.01152 273.2 8.8
283(9) 0.01196 273.2 8.6
289(9) 0.01079 273.1 8.5
264(9) 0.01111 273.1 8.3
279(9) 0.01124 273.1 8.2
276(9) 0.01175 273.0 8.1
280(9) 0.01189 273.0 8.0
303(9) 0.01039 272.9 7.9
280(9) 0.01083 272.9 7.8
286(9) 0.01116 272.9 7.7
307(9) 0.01083 272.8 7.6
280(9) 0.01203 272.8 7.5
276(9) 0.01167 272.8 7.5
287(9) 0.01061 272.7 7.4
294(9) 0.01052 272.7 7.3
305(9) 0.01097 272.6 7.3
280(9) 0.01195 272.6 7.2
275(9) 0.01115 272.6 7.2
269(9) 0.01038 272.5 7.1
270(9) 0.01124 272.5 7.1
269(9) 0.01220 272.5 7.1
279(9) 0.01192 272.4 7.0
313(10) 0.00983 272.4 7.0
286(9) 0.01055 272.3 7.0
281(9) 0.01129 272.3 7.0
293(9) 0.01133 272.3 6.9
275(9) 0.01173 272.2 6.9
307(10) 0.01002 272.2 6.9
268(9) 0.01131 272.2 6.9
266(9) 0.01119 272.1 6.9
290(9) 0.01160 272.1 6.8
266(9) 0.01193 272.0 6.8
283(9) 0.01101 272.0 6.8
268(9) 0.01144 272.0 6.8
289(9) 0.01082 271.9 6.8
304(9) 0.01084 271.9 6.8
275(9) 0.01217 271.9 6.8
259(8) 0.01244 271.8 6.8
274(9) 0.01154 271.8 6.7
273(9) 0.01138 271.7 6.7
268(9) 0.01224 271.7 6.7
271(9) 0.01180 271.7 6.7
281(9) 0.01118 271.6 6.7
272(9) 0.01170 271.6 6.7
284(9) 0.01102 271.6 6.7
282(9) 0.01171 271.5 6.6
281(9) 0.01084 271.5 6.6
271(9) 0.01094 271.4 6.6
282(9) 0.01085 271.4 6.6
297(9) 0.01105 271.4 6.6
293(9) 0.01134 271.3 6.5
291(9) 0.01092 271.3 6.5
300(10) 0.01007 271.3 6.5
257(8) 0.01261 271.2 6.4
260(8) 0.01264 271.2 6.4
279(9) 0.01184 271.2 6.4
277(9) 0.01158 271.1 6.4
271(9) 0.01130 271.1 6.3
270(9) 0.01159 271.0 6.3
286(9) 0.01140 271.0 6.2
308(9) 0.01091 271.0 6.2
286(9) 0.01078 270.9 6.2
294(10) 0.00965 270.9 6.1
283(9) 0.01145 270.9 6.1
282(9) 0.01181 270.8 6.0
286(9) 0.01177 270.8 6.0
275(9) 0.01112 270.7 6.0
263(9) 0.01113 270.7 5.9
254(8) 0.01238 270.7 5.9
276(9) 0.01188 270.6 5.8
271(9) 0.01223 270.6 5.8
268(9) 0.01133 270.6 5.7
259(9) 0.01157 270.5 5.7
269(9) 0.01216 270.5 5.6
281(9) 0.01190 270.4 5.6
284(9) 0.01168 270.4 5.5
289(9) 0.01018 270.4 5.5
272(9) 0.01070 270.3 5.4
285(9) 0.01069 270.3 5.4
270(9) 0.01228 270.3 5.4
280(9) 0.01180 270.2 5.3
280(9) 0.01096 270.2 5.3
288(9) 0.01044 270.1 5.2
298(9) 0.01054 270.1 5.2
269(9) 0.01226 270.1 5.1
280(9) 0.01135 270.0 5.1
274(9) 0.01138 270.0 5.0
274(9) 0.01121 270.0 5.0
300(9) 0.01059 269.9 5.0
282(9) 0.01174 269.9 4.9
275(9) 0.01173 269.8 4.9
290(9) 0.01076 269.8 4.9
300(9) 0.01047 269.8 4.8
287(9) 0.01134 269.7 4.8
268(9) 0.01225 269.7 4.7
281(9) 0.01113 269.7 4.7
285(9) 0.01041 269.6 4.7
254(9) 0.01183 269.6 4.6
287(9) 0.01119 269.5 4.6
284(9) 0.01175 269.5 4.6
282(9) 0.01073 269.5 4.6
257(9) 0.01206 269.4 4.5
258(8) 0.01235 269.4 4.5
276(9) 0.01193 269.4 4.5
253(8) 0.01303 269.3 4.4
264(9) 0.01173 269.3 4.4
268(9) 0.01114 269.2 4.4
276(9) 0.01116 269.2 4.4
280(9) 0.01171 269.2 4.4
276(9) 0.01192 269.1 4.3
267(9) 0.01169 269.1 4.3
293(10) 0.00975 269.1 4.3
258(8) 0.01248 269.0 4.3
276(9) 0.01189 269.0 4.3
286(9) 0.01151 269.0 4.2
282(9) 0.01056 269.0 4.2
266(9) 0.01092 269.0 4.2
262(9) 0.01212 268.9 4.2
273(9) 0.01226 268.9 4.2
272(9) 0.01214 268.9 4.2
284(9) 0.01082 268.9 4.2
271(9) 0.01055 268.9 4.1
258(9) 0.01199 268.9 4.1
272(9) 0.01219 268.9 4.1
272(9) 0.01196 268.9 4.1
257(9) 0.01186 268.9 4.1
259(9) 0.01162 268.9 4.1
311(10) 0.00982 268.8 4.1
283(9) 0.01180 268.8 4.1
274(9) 0.01164 268.8 4.1
283(9) 0.01095 268.8 4.1
263(9) 0.01180 268.8 4.1
282(9) 0.01119 268.8 4.1
251(8) 0.01293 268.8 4.1
263(9) 0.01211 268.8 4.1
250(8) 0.01241 268.8 4.1
296(10) 0.01004 268.8 4.1
281(9) 0.01101 268.7 4.1
289(9) 0.01156 268.7 4.1
301(9) 0.01040 268.7 4.1
284(9) 0.01087 268.7 4.1
273(9) 0.01123 268.7 4.1
248(8) 0.01275 268.7 4.1
274(9) 0.01208 268.7 4.1
299(9) 0.01076 268.7 4.1
290(9) 0.01052 268.7 4.1
271(9) 0.01110 268.7 4.1
286(9) 0.01122 268.7 4.1
267(8) 0.01235 268.6 4.1
252(8) 0.01255 268.6 4.2
291(9) 0.01044 268.6 4.2
265(9) 0.01190 268.6 4.2
270(9) 0.01198 268.6 4.2
280(9) 0.01181 268.6 4.2
279(9) 0.01078 268.6 4.2
270(9) 0.01132 268.6 4.2
279(9) 0.01139 268.6 4.3
278(9) 0.01180 268.6 4.3
275(9) 0.01208 268.5 4.3
284(9) 0.01081 268.5 4.3
266(9) 0.01081 268.5 4.3
268(9) 0.01137 268.5 4.4
280(9) 0.01198 268.5 4.4
263(8) 0.01257 268.5 4.4
286(9) 0.01099 268.5 4.5
278(9) 0.01032 268.5 4.5
280(9) 0.01116 268.5 4.5
266(8) 0.01231 268.5 4.5
281(9) 0.01185 268.4 4.6
269(9) 0.01154 268.4 4.6
290(9) 0.01018 268.4 4.6
279(9) 0.01160 268.4 4.7
264(9) 0.01229 268.4 4.7
256(8) 0.01264 268.4 4.8
291(9) 0.01048 268.4 4.8
266(9) 0.01084 268.4 4.9
256(9) 0.01196 268.4 4.9
269(9) 0.01230 268.4 5.0
273(9) 0.01186 268.4 5.0
277(9) 0.01174 268.3 5.1
292(9) 0.01043 268.3 5.1
308(9) 0.01008 268.3 5.2
276(9) 0.01187 268.3 5.3
289(9) 0.01130 268.3 5.3
299(9) 0.01044 268.3 5.4
280(9) 0.01092 268.3 5.5
280(9) 0.01150 268.3 5.5
283(9) 0.01171 268.3 5.6
290(9) 0.01130 268.3 5.7
275(9) 0.01134 268.2 5.8
298(9) 0.01018 268.2 5.9
271(9) 0.01179 268.2 6.0
266(8) 0.01236 268.2 6.1
297(9) 0.01028 268.2 6.3
245(8) 0.01246 268.2 6.4
289(9) 0.01083 268.2 6.5
278(9) 0.01123 268.2 6.7
272(9) 0.01222 268.2 6.9
268(9) 0.01159 268.2 7.0
266(9) 0.01168 268.1 7.2
301(9) 0.01054 268.1 7.4
299(9) 0.01090 268.1 7.7
287(9) 0.01167 268.1 7.9
256(9) 0.01198 268.1 8.2
281(9) 0.01078 268.1 8.5
289(9) 0.01065 268.1 8.9
281(9) 0.01170 268.1 9.3
278(9) 0.01205 268.1 9.8
268(9) 0.01190 268.1 10.3
281(9) 0.01078 268.1 10.9
279(9) 0.01144 268.0 11.6
301(9) 0.01089 268.0 12.4
286(9) 0.01172 268.0 13.3
272(9) 0.01147 268.0 14.3
287(9) 0.01014 268.0 15.5
297(9) 0.01052 268.0 16.8
295(9) 0.01147 268.0 18.3
314(9) 0.01070 268.0 20.0
306(9) 0.01044 268.0 21.8
294(9) 0.01009 268.0 23.8
300(9) 0.01048 267.9 25.9
293(9) 0.01124 267.9 28.0
309(9) 0.01080 267.9 30.1
304(9) 0.01059 267.9 32.0
313(10) 0.00952 267.9 33.5
299(9) 0.01047 267.9 34.6
290(9) 0.01148 267.9 35.1
307(9) 0.01069 267.9 34.9
299(9) 0.01073 267.9 34.1
304(9) 0.01011 267.9 32.8
295(9) 0.01090 267.8 31.1
289(9) 0.01151 267.8 29.2
271(9) 0.01212 267.8 27.3
283(9) 0.01113 267.8 25.4
292(9) 0.01058 267.8 23.7
293(9) 0.01083 267.8 22.1
296(9) 0.01133 267.8 20.6
302(9) 0.01077 267.8 19.4
289(9) 0.01102 267.8 18.3
310(9) 0.01013 267.8 17.3
306(9) 0.01047 267.8 16.5
265(8) 0.01253 267.7 15.9
301(9) 0.01075 267.7 15.3
290(9) 0.01082 267.7 14.9
268(9) 0.01174 267.7 14.6
282(9) 0.01153 267.7 14.4
279(9) 0.01185 267.7 14.2
275(9) 0.01138 267.7 14.1
295(10) 0.00996 267.7 14.1
290(9) 0.01023 267.7 14.1
285(9) 0.01148 267.7 14.2
295(9) 0.01125 267.6 14.4
296(9) 0.01046 267.6 14.6
255(9) 0.01199 267.6 14.8
265(9) 0.01174 267.6 15.1
259(8) 0.01233 267.6 15.4
268(8) 0.01232 267.6 15.8
287(9) 0.01085 267.6 16.3
279(9) 0.01052 267.6 16.8
276(9) 0.01138 267.6 17.3
282(9) 0.01153 267.6 18.0
279(9) 0.01200 267.5 18.7
276(9) 0.01156 267.5 19.4
312(10) 0.00929 267.5 20.3
271(9) 0.01167 267.5 21.2
291(9) 0.01146 267.5 22.1
314(9) 0.01071 267.5 23.2
292(9) 0.01058 267.5 24.3
295(10) 0.00980 267.5 25.5
286(9) 0.01090 267.5 26.8
304(9) 0.01112 267.5 28.0
298(9) 0.01117 267.5 29.3
308(9) 0.01035 267.4 30.5
285(9) 0.01073 267.4 31.7
318(10) 0.01004 267.4 32.8
290(9) 0.01149 267.4 33.7
286(9) 0.01149 267.4 34.4
309(9) 0.01023 267.4 34.9
324(10) 0.00916 267.4 35.2
278(9) 0.01146 267.4 35.3
297(9) 0.01121 267.4 35.2
292(9) 0.01120 267.4 35.0
278(9) 0.01135 267.3 34.7
311(10) 0.00978 267.3 34.3
303(9) 0.01045 267.3 33.9
282(9) 0.01179 267.3 33.6
298(9) 0.01067 267.3 33.4
282(9) 0.01034 267.3 33.2
269(9) 0.01110 267.3 33.1
295(9) 0.01045 267.3 33.1
291(9) 0.01139 267.3 33.3
318(10) 0.00993 267.3 33.5
318(10) 0.00977 267.2 33.9
289(9) 0.01063 267.2 34.4
296(9) 0.01063 267.2 35.0
307(9) 0.01097 267.2 35.7
276(9) 0.01165 267.2 36.5
320(10) 0.00939 267.2 37.5
301(9) 0.01024 267.2 38.6
293(9) 0.01093 267.2 39.8
316(9) 0.01057 267.2 41.1
307(9) 0.01058 267.2 42.5
304(9) 0.01036 267.2 44.1
289(9) 0.01110 267.1 45.8
284(9) 0.01131 267.1 47.6
344(10) 0.00976 267.1 49.5
302(9) 0.01057 267.1 51.5
306(10) 0.00977 267.1 53.6
324(10) 0.00970 267.1 55.8
307(9) 0.01088 267.1 58.1
322(9) 0.01048 267.1 60.5
341(10) 0.00954 267.1 62.9
354(10) 0.00866 267.1 65.4
363(10) 0.00884 267.0 67.8
350(10) 0.00955 267.0 70.2
359(10) 0.00938 267.0 72.5
359(10) 0.00885 267.0 74.8
364(11) 0.00814 267.0 76.8
362(10) 0.00881 267.0 78.7
355(10) 0.00955 267.0 80.3
357(10) 0.00955 267.0 81.6
362(10) 0.00890 267.0 82.7
361(11) 0.00819 267.0 83.3
323(10) 0.00979 266.9 83.7
338(10) 0.00990 266.9 83.6
380(10) 0.00858 266.9 83.2
333(10) 0.00972 266.9 82.5
341(10) 0.00895 266.9 81.4
335(10) 0.00906 266.9 80.0
333(9) 0.01011 266.9 78.5
332(10) 0.00987 266.9 76.7
325(10) 0.00953 266.9 74.8
327(10) 0.00924 266.9 72.7
317(10) 0.00964 266.9 70.6
313(9) 0.01076 266.8 68.5
320(9) 0.01033 266.8 66.4
332(10) 0.00957 266.8 64.3
325(10) 0.00969 266.8 62.2
322(10) 0.01000 266.8 60.2
321(9) 0.01049 266.8 58.3
307(9) 0.01071 266.8 56.4
334(10) 0.00897 266.8 54.7
337(10) 0.00904 266.8 53.0
305(9) 0.01040 266.8 51.5
311(9) 0.01085 266.7 50.0
322(10) 0.00948 266.7 48.6
330(10) 0.00935 266.7 47.4
338(10) 0.00931 266.7 46.2
335(10) 0.01003 266.7 45.1
326(9) 0.01033 266.7 44.0
334(10) 0.00931 266.7 43.1
318(10) 0.00960 266.7 42.2
326(10) 0.00971 266.7 41.4
307(9) 0.01056 266.7 40.6
289(9) 0.01146 266.6 39.9
292(9) 0.01103 266.6 39.2
320(10) 0.00952 266.6 38.6
302(9) 0.01056 266.6 38.0
278(9) 0.01202 266.6 37.5
325(9) 0.01037 266.6 37.0
320(10) 0.00984 266.6 36.5
316(10) 0.00952 266.6 36.0
307(9) 0.01035 266.6 35.5
303(9) 0.01109 266.6 35.1
337(10) 0.00994 266.6 34.6
286(9) 0.01162 266.5 34.2
313(10) 0.00945 266.5 33.8
305(9) 0.01064 266.5 33.3
310(9) 0.01095 266.5 32.9
305(9) 0.01103 266.5 32.4
299(9) 0.01097 266.5 32.0
301(9) 0.01017 266.5 31.5
286(9) 0.01114 266.5 31.1
299(9) 0.01118 266.5 30.6
294(9) 0.01123 266.5 30.1
317(10) 0.00975 266.4 29.6
294(10) 0.01006 266.4 29.2
296(9) 0.01055 266.4 28.7
304(9) 0.01086 266.4 28.2
315(9) 0.01049 266.4 27.7
276(9) 0.01149 266.4 27.2
288(9) 0.01089 266.4 26.7
304(9) 0.01038 266.4 26.2
298(9) 0.01109 266.4 25.7
291(9) 0.01136 266.4 25.2
297(9) 0.01054 266.3 24.8
264(9) 0.01206 266.3 24.3
309(10) 0.00979 266.3 23.8
289(9) 0.01155 266.3 23.4
273(9) 0.01178 266.3 22.9
270(9) 0.01191 266.3 22.5
291(9) 0.01090 266.3 22.1
274(9) 0.01156 266.3 21.6
277(9) 0.01211 266.3 21.2
284(9) 0.01117 266.3 20.8
274(9) 0.01146 266.3 20.5
275(9) 0.01133 266.2 20.1
268(9) 0.01195 266.2 19.7
290(9) 0.01145 266.2 19.4
259(9) 0.01210 266.2 19.1
272(9) 0.01130 266.2 18.7
285(9) 0.01102 266.2 18.4
295(9) 0.01098 266.2 18.2
273(9) 0.01220 266.2 17.9
284(9) 0.01098 266.2 17.6
296(9) 0.01021 266.2 17.4
290(9) 0.01088 266.1 17.1
291(9) 0.01136 266.1 16.9
281(9) 0.01178 266.1 16.7
270(9) 0.01166 266.1 16.5
288(9) 0.01024 266.1 16.3
303(9) 0.01034 266.1 16.1
271(9) 0.01203 266.1 16.0
283(9) 0.01175 266.1 15.8
307(10) 0.00991 266.1 15.7
306(10) 0.00961 266.1 15.6
275(9) 0.01162 266.0 15.5
292(9) 0.01149 266.0 15.4
282(9) 0.01181 266.0 15.3
276(9) 0.01130 266.0 15.2
273(9) 0.01068 266.0 15.1
272(9) 0.01141 266.0 15.1
282(9) 0.01170 266.0 15.1
276(9) 0.01174 266.0 15.0
286(9) 0.01093 266.0 15.0
294(9) 0.01023 266.0 15.0
283(9) 0.01099 266.0 15.1
260(8) 0.01283 265.9 15.1
290(9) 0.01113 265.9 15.1
271(9) 0.01166 265.9 15.2
287(9) 0.01033 265.9 15.3
266(9) 0.01177 265.9 15.4
296(9) 0.01132 265.9 15.5
293(9) 0.01127 265.9 15.6
288(9) 0.01130 265.9 15.7
309(9) 0.01009 265.9 15.9
285(9) 0.01112 265.9 16.1
306(9) 0.01099 265.8 16.2
284(9) 0.01106 265.8 16.4
281(9) 0.01082 265.8 16.6
280(9) 0.01096 265.8 16.9
284(9) 0.01129 265.8 17.1
270(9) 0.01222 265.8 17.3
289(9) 0.01077 265.8 17.6
285(9) 0.01131 265.8 17.8
301(9) 0.01040 265.8 18.1
286(9) 0.01136 265.8 18.3
309(9) 0.01091 265.7 18.6
315(10) 0.00969 265.7 18.8
271(9) 0.01141 265.7 19.0
275(9) 0.01132 265.7 19.2
286(9) 0.01132 265.7 19.4
274(9) 0.01207 265.7 19.6
289(9) 0.01068 265.7 19.7
276(9) 0.01088 265.7 19.8
277(9) 0.01112 265.7 19.9
281(9) 0.01170 265.7 20.0
278(9) 0.01185 265.7 20.0
273(9) 0.01134 265.6 20.0
277(9) 0.01077 265.6 20.0
300(9) 0.01034 265.6 20.0
296(9) 0.01133 265.6 19.9
289(9) 0.01144 265.6 19.9
286(9) 0.01100 265.6 19.8
301(10) 0.00986 265.6 19.7
300(9) 0.01079 265.6 19.7
283(9) 0.01190 265.6 19.6
282(9) 0.01185 265.6 19.5
320(10) 0.00975 265.5 19.4
293(10) 0.00996 265.5 19.4
304(9) 0.01061 265.5 19.3
288(9) 0.01146 265.5 19.2
288(9) 0.01173 265.5 19.1
297(9) 0.01025 265.5 19.1
291(9) 0.01028 265.5 19.0
278(9) 0.01120 265.5 18.9
258(8) 0.01268 265.5 18.9
275(9) 0.01181 265.5 18.8
280(9) 0.01061 265.4 18.7
281(9) 0.01047 265.4 18.7
290(9) 0.01103 265.4 18.6
289(9) 0.01149 265.4 18.6
277(9) 0.01188 265.4 18.5
287(9) 0.01085 265.4 18.4
300(10) 0.01003 265.4 18.4
294(9) 0.01094 265.4 18.3
280(9) 0.01197 265.4 18.3
290(9) 0.01096 265.4 18.2
270(9) 0.01167 265.4 18.2
277(9) 0.01074 265.3 18.1
279(9) 0.01130 265.3 18.1
296(9) 0.01131 265.3 18.0
278(9) 0.01129 265.3 18.0
299(9) 0.01027 265.3 18.0
294(9) 0.01067 265.3 17.9
297(9) 0.01074 265.3 17.9
287(9) 0.01155 265.3 17.9
284(9) 0.01129 265.3 17.9
275(9) 0.01151 265.3 17.9
294(9) 0.01026 265.2 17.9
276(9) 0.01181 265.2 17.9
289(9) 0.01145 265.2 18.0
279(9) 0.01107 265.2 18.0
292(10) 0.01001 265.2 18.1
290(9) 0.01033 265.2 18.2
302(9) 0.01095 265.2 18.3
301(9) 0.01112 265.2 18.4
296(9) 0.01022 265.2 18.6
277(9) 0.01089 265.2 18.8
305(9) 0.01025 265.1 19.0
277(9) 0.01187 265.1 19.2
283(9) 0.01162 265.1 19.5
282(9) 0.01112 265.1 19.9
307(10) 0.00984 265.1 20.3
273(9) 0.01192 265.1 20.7
294(9) 0.01137 265.1 21.3
284(9) 0.01134 265.1 21.9
288(9) 0.01084 265.1 22.6
296(10) 0.00999 265.1 23.4
290(9) 0.01073 265.1 24.3
281(9) 0.01179 265.0 25.4
293(9) 0.01129 265.0 26.6
306(9) 0.01048 265.0 28.0
317(10) 0.00954 265.0 29.5
296(9) 0.01076 265.0 31.2
297(9) 0.01109 265.0 33.0
314(9) 0.01053 265.0 35.1
314(9) 0.01013 265.0 37.2
320(10) 0.00945 265.0 39.4
328(10) 0.01001 265.0 41.7
355(10) 0.00953 264.9 43.8
332(10) 0.00991 264.9 45.8
334(10) 0.00941 264.9 47.3
342(10) 0.00904 264.9 48.4
347(10) 0.00920 264.9 48.9
340(10) 0.00994 264.9 48.9
331(10) 0.00994 264.9 48.2
343(10) 0.00925 264.9 47.2
347(10) 0.00920 264.9 45.8
341(10) 0.00965 264.9 44.3
306(9) 0.01105 264.8 42.8
330(10) 0.00956 264.8 41.3
305(9) 0.01044 264.8 39.9
310(9) 0.01045 264.8 38.6
322(10) 0.00977 264.8 37.5
290(9) 0.01145 264.8 36.4
328(10) 0.00997 264.8 35.5
332(10) 0.00941 264.8 34.6
281(9) 0.01146 264.8 33.7
312(9) 0.01037 264.8 32.8
291(9) 0.01137 264.8 31.9
330(10) 0.00956 264.7 31.0
286(9) 0.01120 264.7 30.0
287(9) 0.01051 264.7 29.1
279(9) 0.01169 264.7 28.2
291(9) 0.01136 264.7 27.3
296(9) 0.01057 264.7 26.5
298(9) 0.01038 264.7 25.8
306(9) 0.01027 264.7 25.1
294(9) 0.01127 264.7 24.5
289(9) 0.01151 264.7 23.9
272(9) 0.01144 264.6 23.4
279(9) 0.01083 264.6 23.0
291(9) 0.01120 264.6 22.6
298(9) 0.01135 264.6 22.3
300(9) 0.01098 264.6 21.9
279(9) 0.01108 264.6 21.7
306(10) 0.00914 264.6 21.4
276(9) 0.01117 264.6 21.2
288(9) 0.01145 264.6 21.1
278(9) 0.01195 264.6 20.9
311(10) 0.00993 264.5 20.8
283(9) 0.01041 264.5 20.7
284(9) 0.01101 264.5 20.6
303(9) 0.01104 264.5 20.6
268(8) 0.01234 264.5 20.5
261(9) 0.01203 264.5 20.5
269(9) 0.01117 264.5 20.5
291(9) 0.01065 264.5 20.6
297(9) 0.01130 264.5 20.6
311(9) 0.01040 264.5 20.7
298(9) 0.01011 264.5 20.7
322(10) 0.00953 264.4 20.8
293(9) 0.01106 264.4 20.9
308(9) 0.01078 264.4 21.1
291(9) 0.01116 264.4 21.2
310(10) 0.00959 264.4 21.4
270(9) 0.01149 264.4 21.5
292(9) 0.01094 264.4 21.7
289(9) 0.01147 264.4 21.9
289(9) 0.01116 264.4 22.1
276(9) 0.01126 264.4 22.4
282(9) 0.01111 264.3 22.6
269(9) 0.01146 264.3 22.8
293(9) 0.01131 264.3 23.1
280(9) 0.01126 264.3 23.3
274(9) 0.01164 264.3 23.6
303(9) 0.01028 264.3 23.9
276(9) 0.01151 264.3 24.2
269(9) 0.01227 264.3 24.5
274(9) 0.01142 264.3 24.8
283(9) 0.01070 264.3 25.1
279(9) 0.01103 264.2 25.4
293(9) 0.01101 264.2 25.7
293(9) 0.01136 264.2 26.1
312(10) 0.00995 264.2 26.5
283(9) 0.01114 264.2 26.9
296(9) 0.01078 264.2 27.3
304(9) 0.01090 264.2 27.7
301(9) 0.01109 264.2 28.2
301(9) 0.01067 264.2 28.6
298(10) 0.00993 264.2 29.0
287(9) 0.01090 264.2 29.4
287(9) 0.01146 264.1 29.8
296(9) 0.01112 264.1 30.1
297(9) 0.01081 264.1 30.3
293(9) 0.01015 264.1 30.4
299(9) 0.01073 264.1 30.5
284(9) 0.01183 264.1 30.4
316(9) 0.01045 264.1 30.4
279(9) 0.01105 264.1 30.3
288(10) 0.00994 264.1 30.2
289(9) 0.01077 264.1 30.1
308(9) 0.01082 264.0 30.2
312(9) 0.01038 264.0 30.3
295(9) 0.01070 264.0 30.6
300(9) 0.01028 264.0 31.0
290(9) 0.01050 264.0 31.6
297(9) 0.01094 264.0 32.4
293(9) 0.01142 264.0 33.5
312(10) 0.00987 264.0 34.9
291(9) 0.01076 264.0 36.6
296(9) 0.01100 264.0 38.7
310(9) 0.01070 263.9 41.2
310(9) 0.01069 263.9 44.1
333(10) 0.00943 263.9 47.4
325(10) 0.00968 263.9 51.1
312(9) 0.01026 263.9 55.2
323(9) 0.01047 263.9 59.4
312(9) 0.01025 263.9 63.7
327(10) 0.00973 263.9 67.7
345(10) 0.00868 263.9 71.0
338(10) 0.00895 263.9 73.3
336(9) 0.01011 263.9 74.3
320(10) 0.00990 263.8 74.1
328(10) 0.00971 263.8 72.9
314(10) 0.00990 263.8 70.9
329(10) 0.00989 263.8 68.4
346(10) 0.00984 263.8 65.8
321(10) 0.00984 263.8 63.1
337(10) 0.00900 263.8 60.4
340(10) 0.00900 263.8 57.9
344(10) 0.00930 263.8 55.5
314(9) 0.01074 263.8 53.2
311(10) 0.00959 263.7 51.1
315(10) 0.00941 263.7 49.2
325(10) 0.00967 263.7 47.4
318(9) 0.01014 263.7 45.8
279(9) 0.01181 263.7 44.3
317(10) 0.00974 263.7 43.1
301(10) 0.01001 263.7 42.0
306(9) 0.01030 263.7 41.0
311(9) 0.01073 263.7 40.3
299(9) 0.01090 263.7 39.7
289(9) 0.01072 263.6 39.2
315(10) 0.00898 263.6 38.9
259(8) 0.01267 263.6 38.8
300(9) 0.01090 263.6 38.8
298(9) 0.01132 263.6 39.0
298(9) 0.01050 263.6 39.4
295(10) 0.00986 263.6 39.9
287(9) 0.01101 263.6 40.5
305(9) 0.01104 263.6 41.3
297(9) 0.01121 263.6 42.3
320(10) 0.00969 263.6 43.4
320(10) 0.00946 263.5 44.6
307(9) 0.01030 263.5 46.0
313(9) 0.01082 263.5 47.4
301(9) 0.01086 263.5 49.0
334(10) 0.00895 263.5 50.7
314(10) 0.00947 263.5 52.4
313(9) 0.01012 263.5 54.2
334(9) 0.01015 263.5 55.9
322(9) 0.01009 263.5 57.6
320(10) 0.00998 263.5 59.3
303(9) 0.01032 263.4 60.8
325(10) 0.00949 263.4 62.2
322(9) 0.01034 263.4 63.5
293(9) 0.01135 263.4 64.5
307(9) 0.01025 263.4 65.3
314(10) 0.00993 263.4 65.8
324(10) 0.00973 263.4 66.1
306(9) 0.01103 263.4 66.2
325(10) 0.00967 263.4 66.0
319(10) 0.00969 263.4 65.5
320(10) 0.00997 263.3 64.8
326(9) 0.01021 263.3 63.9
327(9) 0.01031 263.3 62.8
295(9) 0.01074 263.3 61.4
299(9) 0.01011 263.3 59.8
304(9) 0.01013 263.3 58.0
296(9) 0.01107 263.3 56.0
307(9) 0.01099 263.3 53.8
307(9) 0.01026 263.3 51.5
298(9) 0.01010 263.3 49.2
301(9) 0.01020 263.3 46.9
282(9) 0.01167 263.2 44.5
292(9) 0.01154 263.2 42.2
295(9) 0.01078 263.2 40.0
309(10) 0.00995 263.2 37.9
306(9) 0.01030 263.2 35.9
272(9) 0.01211 263.2 34.0
283(9) 0.01179 263.2 32.2
303(9) 0.01021 263.2 30.6
290(10) 0.00991 263.2 29.0
264(9) 0.01192 263.2 27.6
276(9) 0.01200 263.1 26.3
274(9) 0.01208 263.1 25.1
266(9) 0.01104 263.1 24.0
280(9) 0.01064 263.1 23.0
293(9) 0.01090 263.1 22.0
289(9) 0.01147 263.1 21.2
294(9) 0.01148 263.1 20.4
286(9) 0.01110 263.1 19.7
279(9) 0.01058 263.1 19.0
305(10) 0.00992 263.1 18.5
299(9) 0.01135 263.0 17.9
293(9) 0.01126 263.0 17.5
273(9) 0.01170 263.0 17.0
281(9) 0.01062 263.0 16.7
278(9) 0.01137 263.0 16.3
294(9) 0.01144 263.0 16.0
270(8) 0.01232 263.0 15.8
279(9) 0.01114 263.0 15.6
255(9) 0.01200 263.0 15.4
286(9) 0.01076 263.0 15.2
280(9) 0.01187 263.0 15.1
284(9) 0.01116 262.9 15.0
243(8) 0.01281 262.9 15.0
273(9) 0.01071 262.9 14.9
268(9) 0.01124 262.9 14.9
286(9) 0.01161 262.9 14.9
275(9) 0.01150 262.9 14.9
284(9) 0.01109 262.9 15.0
264(9) 0.01157 262.9 15.0
279(9) 0.01154 262.9 15.0
289(9) 0.01152 262.9 15.0
268(9) 0.01177 262.8 15.0
301(10) 0.00994 262.8 15.0
262(9) 0.01165 262.8 15.0
270(9) 0.01161 262.8 14.9
307(9) 0.01091 262.8 14.8
283(9) 0.01156 262.8 14.7
257(8) 0.01249 262.8 14.5
274(9) 0.01132 262.8 14.3
240(8) 0.01343 262.8 14.0
273(9) 0.01219 262.8 13.8
286(9) 0.01095 262.7 13.5
277(9) 0.01067 262.7 13.2
269(9) 0.01185 262.7 12.9
282(9) 0.01154 262.7 12.6
263(8) 0.01255 262.7 12.3
266(9) 0.01161 262.7 12.1
261(9) 0.01103 262.7 11.8
281(9) 0.01111 262.7 11.5
285(9) 0.01157 262.7 11.3
272(9) 0.01196 262.7 11.0
257(9) 0.01189 262.7 10.8
259(9) 0.01135 262.6 10.6
276(9) 0.01123 262.6 10.4
268(8) 0.01236 262.6 10.3
273(9) 0.01206 262.6 10.1
260(9) 0.01196 262.6 10.0
284(9) 0.01062 262.6 9.8
279(9) 0.01145 262.6 9.7
258(8) 0.01275 262.6 9.6
269(9) 0.01229 262.6 9.5
270(9) 0.01147 262.6 9.4
243(9) 0.01162 262.5 9.3
261(9) 0.01158 262.5 9.3
245(8) 0.01335 262.5 9.2
255(8) 0.01270 262.5 9.2
262(9) 0.01193 262.5 9.2
271(9) 0.01077 262.5 9.2
279(9) 0.01131 262.5 9.1
266(8) 0.01253 262.5 9.1
260(8) 0.01235 262.5 9.1
266(9) 0.01156 262.5 9.2
273(9) 0.01123 262.4 9.2
261(9) 0.01198 262.4 9.2
285(9) 0.01169 262.4 9.3
266(9) 0.01216 262.4 9.3
283(9) 0.01057 262.4 9.4
265(9) 0.01111 262.4 9.4
270(9) 0.01135 262.4 9.5
281(9) 0.01187 262.4 9.6
269(9) 0.01165 262.4 9.7
286(9) 0.01046 262.4 9.8
286(9) 0.01063 262.4 9.9
280(9) 0.01155 262.4 10.1
240(8) 0.01360 262.4 10.2
251(8) 0.01231 262.5 10.3
278(9) 0.01078 262.5 10.5
275(9) 0.01077 262.5 10.7
275(9) 0.01153 262.5 10.9
270(8) 0.01232 262.5 11.1
255(8) 0.01237 262.6 11.3
251(9) 0.01201 262.6 11.5
270(9) 0.01157 262.6 11.7
268(8) 0.01239 262.6 12.0
246(8) 0.01336 262.6 12.3
267(9) 0.01134 262.6 12.6
270(9) 0.01045 262.7 12.9
270(9) 0.01114 262.7 13.2
268(9) 0.01228 262.7 13.6
279(9) 0.01197 262.7 14.0
270(9) 0.01153 262.7 14.4
255(9) 0.01194 262.8 14.8
269(9) 0.01121 262.8 15.3
262(8) 0.01235 262.8 15.7
281(9) 0.01197 262.8 16.3
271(9) 0.01175 262.8 16.8
263(9) 0.01129 262.8 17.4
287(9) 0.01094 262.9 18.0
273(9) 0.01196 262.9 18.7
311(9) 0.01050 262.9 19.4
263(9) 0.01199 262.9 20.1
271(9) 0.01088 262.9 20.9
266(9) 0.01132 263.0 21.8
264(8) 0.01240 263.0 22.7
300(9) 0.01111 263.0 23.6
285(9) 0.01110 263.0 24.6
265(9) 0.01167 263.0 25.6
298(9) 0.01049 263.1 26.7
293(9) 0.01151 263.1 27.9
287(9) 0.01117 263.1 29.1
277(9) 0.01136 263.1 30.3
277(9) 0.01085 263.1 31.6
295(9) 0.01041 263.1 32.9
281(9) 0.01193 263.2 34.2
292(9) 0.01086 263.2 35.6
288(9) 0.01088 263.2 37.0
306(10) 0.01005 263.2 38.3
307(9) 0.01066 263.2 39.7
295(9) 0.01126 263.3 41.0
305(9) 0.01033 263.3 42.2
278(9) 0.01100 263.3 43.4
281(9) 0.01068 263.3 44.5
295(9) 0.01102 263.3 45.4
294(9) 0.01139 263.3 46.2
291(9) 0.01085 263.4 46.8
332(10) 0.00896 263.4 47.2
286(9) 0.01086 263.4 47.5
289(9) 0.01101 263.4 47.5
295(9) 0.01138 263.4 47.4
323(10) 0.00993 263.5 47.0
277(9) 0.01120 263.5 46.5
309(10) 0.00991 263.5 45.8
298(9) 0.01113 263.5 44.9
291(9) 0.01126 263.5 43.9
325(10) 0.00934 263.5 42.8
283(9) 0.01076 263.6 41.6
283(9) 0.01123 263.6 40.3
296(9) 0.01104 263.6 39.0
290(9) 0.01152 263.6 37.7
270(8) 0.01238 263.6 36.4
314(10) 0.00951 263.7 35.0
303(10) 0.01000 263.7 33.7
279(9) 0.01191 263.7 32.4
303(9) 0.01111 263.7 31.2
289(9) 0.01123 263.7 30.0
339(10) 0.00859 263.8 28.8
283(9) 0.01122 263.8 27.7
258(8) 0.01276 263.8 26.6
284(9) 0.01154 263.8 25.6
279(9) 0.01126 263.8 24.7
284(9) 0.01038 263.8 23.8
286(9) 0.01083 263.9 22.9
308(9) 0.01087 263.9 22.1
310(9) 0.01085 263.9 21.3
289(9) 0.01099 263.9 20.6
302(10) 0.00985 263.9 20.0
273(9) 0.01160 264.0 19.3
268(9) 0.01222 264.0 18.8
256(8) 0.01281 264.0 18.2
303(9) 0.01019 264.0 17.7
274(9) 0.01105 264.0 17.2
289(9) 0.01076 264.0 16.8
292(9) 0.01151 264.1 16.4
289(9) 0.01136 264.1 16.0
285(9) 0.01095 264.1 15.7
293(9) 0.01036 264.1 15.4
275(9) 0.01162 264.1 15.1
268(8) 0.01243 264.2 14.9
292(9) 0.01093 264.2 14.6
293(9) 0.01034 264.2 14.4
267(9) 0.01161 264.2 14.2
272(9) 0.01171 264.2 14.1
268(9) 0.01224 264.3 13.9
284(9) 0.01120 264.3 13.8
271(9) 0.01133 264.3 13.7
262(9) 0.01176 264.3 13.6
291(9) 0.01104 264.3 13.6
278(9) 0.01197 264.3 13.6
283(9) 0.01104 264.4 13.6
255(9) 0.01184 264.4 13.6
258(9) 0.01182 264.4 13.6
257(8) 0.01247 264.4 13.7
279(9) 0.01191 264.4 13.7
259(9) 0.01145 264.5 13.8
260(9) 0.01120 264.5 14.0
281(9) 0.01120 264.5 14.1
274(9) 0.01200 264.5 14.3
288(9) 0.01159 264.5 14.5
271(9) 0.01130 264.5 14.7
290(9) 0.01017 264.6 15.0
268(9) 0.01177 264.6 15.3
260(8) 0.01235 264.6 15.6
279(9) 0.01165 264.6 16.0
288(9) 0.01071 264.6 16.4
273(9) 0.01129 264.7 16.8
290(9) 0.01084 264.7 17.3
265(8) 0.01252 264.7 17.9
276(9) 0.01200 264.7 18.5
277(9) 0.01126 264.7 19.1
280(9) 0.01082 264.8 19.8
288(9) 0.01124 264.8 20.6
300(9) 0.01113 264.8 21.4
312(9) 0.01052 264.8 22.3
283(9) 0.01168 264.8 23.3
308(10) 0.00962 264.8 24.3
263(9) 0.01185 264.9 25.4
292(9) 0.01149 264.9 26.5
283(9) 0.01120 264.9 27.8
307(10) 0.01000 264.9 29.1
305(9) 0.01010 264.9 30.4
307(10) 0.00985 265.0 31.9
291(9) 0.01140 265.0 33.3
291(9) 0.01111 265.0 34.8
289(9) 0.01091 265.0 36.3
298(10) 0.00998 265.0 37.7
303(9) 0.01054 265.0 39.1
304(9) 0.01101 265.1 40.5
284(9) 0.01127 265.1 41.6
289(9) 0.01050 265.1 42.7
293(9) 0.01065 265.1 43.5
316(9) 0.01010 265.1 44.1
312(9) 0.01069 265.2 44.4
308(9) 0.01042 265.2 44.5
300(9) 0.01038 265.2 44.3
301(9) 0.01020 265.2 43.9
317(9) 0.01031 265.2 43.2
304(9) 0.01101 265.2 42.4
318(10) 0.00982 265.3 41.3
299(10) 0.00998 265.3 40.2
301(9) 0.01008 265.3 38.9
301(9) 0.01084 265.3 37.5
287(9) 0.01165 265.3 36.2
289(9) 0.01055 265.4 34.8
288(9) 0.01047 265.4 33.5
281(9) 0.01107 265.4 32.2
301(9) 0.01089 265.4 30.9
301(9) 0.01098 265.4 29.7
277(9) 0.01093 265.5 28.6
271(9) 0.01110 265.5 27.5
290(9) 0.01083 265.5 26.6
292(9) 0.01147 265.5 25.7
257(8) 0.01280 265.5 24.8
295(9) 0.01064 265.5 24.1
288(9) 0.01024 265.6 23.4
300(9) 0.01037 265.6 22.8
282(9) 0.01163 265.6 22.3
273(9) 0.01202 265.6 21.8
263(9) 0.01207 265.6 21.3
285(9) 0.01008 265.7 21.0
276(9) 0.01137 265.7 20.7
280(9) 0.01207 265.7 20.4
288(9) 0.01136 265.7 20.2
275(9) 0.01107 265.7 20.0
276(9) 0.01057 265.7 19.9
294(9) 0.01052 265.8 19.8
304(9) 0.01103 265.8 19.8
275(9) 0.01178 265.8 19.8
257(8) 0.01234 265.8 19.8
275(9) 0.01077 265.8 19.9
294(9) 0.01040 265.9 20.0
300(9) 0.01125 265.9 20.1
284(9) 0.01169 265.9 20.2
299(9) 0.01061 265.9 20.4
296(9) 0.01054 265.9 20.6
300(9) 0.01039 266.0 20.8
302(9) 0.01110 266.0 21.0
275(9) 0.01177 266.0 21.2
302(9) 0.01051 266.0 21.5
291(9) 0.01077 266.0 21.7
296(9) 0.01071 266.0 21.9
309(9) 0.01101 266.1 22.2
290(9) 0.01121 266.1 22.4
291(9) 0.01060 266.1 22.6
292(9) 0.01050 266.1 22.8
291(9) 0.01108 266.1 22.9
277(9) 0.01190 266.2 23.1
301(9) 0.01011 266.2 23.2
303(10) 0.00992 266.2 23.3
295(9) 0.01023 266.2 23.4
300(9) 0.01093 266.2 23.4
287(9) 0.01155 266.2 23.4
281(9) 0.01102 266.3 23.3
290(9) 0.01030 266.3 23.3
294(9) 0.01081 266.3 23.2
288(9) 0.01160 266.3 23.0
314(9) 0.01063 266.3 22.9
289(9) 0.01071 266.4 22.7
284(9) 0.01044 266.4 22.4
286(9) 0.01046 266.4 22.2
306(9) 0.01069 266.4 22.0
297(9) 0.01141 266.4 21.7
284(9) 0.01127 266.5 21.4
290(10) 0.01005 266.5 21.1
286(9) 0.01115 266.5 20.8
287(9) 0.01173 266.5 20.5
300(9) 0.01104 266.5 20.2
307(9) 0.01027 266.5 19.9
307(10) 0.00938 266.6 19.6
286(9) 0.01117 266.6 19.3
296(9) 0.01138 266.6 19.0
277(9) 0.01200 266.6 18.7
288(9) 0.01119 266.6 18.4
297(10) 0.00971 266.7 18.1
311(10) 0.00977 266.7 17.8
314(9) 0.01052 266.7 17.5
273(9) 0.01210 266.7 17.3
297(9) 0.01038 266.7 17.0
305(10) 0.00966 266.7 16.8
254(9) 0.01229 266.8 16.5
277(9) 0.01202 266.8 16.3
256(8) 0.01270 266.8 16.1
280(9) 0.01102 266.8 15.9
287(9) 0.01041 266.8 15.7
274(9) 0.01126 266.9 15.5
282(9) 0.01194 266.9 15.4
269(9) 0.01197 266.9 15.2
284(9) 0.01092 266.9 15.1
289(9) 0.01042 266.9 15.0
270(9) 0.01195 267.0 14.9
276(9) 0.01208 267.0 14.8
267(9) 0.01168 267.0 14.7
262(9) 0.01173 267.0 14.7
273(9) 0.01139 267.0 14.6
274(9) 0.01162 267.0 14.6
237(8) 0.01367 267.1 14.6
275(9) 0.01158 267.1 14.6
274(9) 0.01115 267.1 14.7
283(9) 0.01067 267.1 14.7
269(9) 0.01207 267.1 14.8
267(8) 0.01237 267.2 14.8
268(9) 0.01171 267.2 14.9
269(9) 0.01117 267.2 15.0
299(9) 0.01057 267.2 15.2
266(8) 0.01248 267.2 15.3
274(9) 0.01196 267.2 15.5
271(9) 0.01181 267.3 15.6
278(9) 0.01066 267.3 15.8
281(9) 0.01114 267.3 16.0
293(9) 0.01158 267.3 16.3
272(9) 0.01209 267.3 16.5
256(8) 0.01245 267.4 16.8
267(9) 0.01128 267.4 17.1
274(9) 0.01168 267.4 17.4
287(9) 0.01153 267.4 17.7
286(9) 0.01168 267.4 18.0
267(9) 0.01209 267.4 18.4
257(9) 0.01142 267.5 18.7
280(9) 0.01094 267.5 19.1
296(9) 0.01112 267.5 19.6
276(9) 0.01189 267.5 20.0
280(9) 0.01126 267.5 20.4
294(9) 0.01019 267.6 20.9
281(9) 0.01125 267.6 21.4
298(9) 0.01130 267.6 21.9
288(9) 0.01166 267.6 22.4
274(9) 0.01152 267.6 23.0
255(9) 0.01182 267.7 23.5
270(9) 0.01136 267.7 24.1
268(8) 0.01240 267.7 24.6
299(9) 0.01095 267.7 25.2
287(9) 0.01143 267.7 25.8
308(10) 0.00989 267.7 26.3
277(9) 0.01127 267.8 26.9
291(9) 0.01150 267.8 27.5
272(9) 0.01196 267.8 28.0
291(9) 0.01077 267.8 28.6
303(10) 0.01003 267.8 29.1
299(9) 0.01064 267.9 29.5
294(9) 0.01141 267.9 30.0
309(9) 0.01019 267.9 30.4
287(9) 0.01103 267.9 30.8
279(9) 0.01105 267.9 31.1
277(9) 0.01118 267.9 31.4
277(9) 0.01208 268.0 31.6
274(9) 0.01153 268.0 31.8
276(9) 0.01114 268.0 31.9
279(9) 0.01096 268.0 32.0
282(9) 0.01145 268.0 32.0
261(8) 0.01272 268.1 31.9
270(9) 0.01134 268.1 31.8
311(10) 0.00925 268.1 31.6
287(9) 0.01067 268.1 31.3
297(9) 0.01099 268.1 31.0
284(9) 0.01170 268.2 30.6
290(9) 0.01096 268.2 30.2
298(10) 0.00993 268.2 29.8
279(9) 0.01082 268.2 29.3
288(9) 0.01134 268.2 28.8
304(9) 0.01112 268.2 28.3
286(9) 0.01114 268.3 27.7
280(9) 0.01074 268.3 27.2
272(9) 0.01156 268.3 26.6
264(8) 0.01244 268.3 26.0
284(9) 0.01158 268.3 25.4
260(9) 0.01212 268.4 24.8
268(9) 0.01136 268.4 24.2
305(9) 0.01050 268.4 23.6
298(9) 0.01118 268.4 23.0
292(9) 0.01129 268.4 22.5
294(9) 0.01045 268.4 21.9
283(9) 0.01015 268.5 21.4
291(9) 0.01061 268.5 20.8
276(9) 0.01207 268.5 20.3
281(9) 0.01188 268.5 19.8
289(9) 0.01089 268.5 19.3
261(9) 0.01177 268.6 18.9
294(9) 0.01071 268.6 18.4
275(9) 0.01216 268.6 18.0
275(9) 0.01194 268.6 17.6
262(9) 0.01170 268.6 17.2
249(9) 0.01195 268.7 16.8
268(9) 0.01105 268.7 16.4
283(9) 0.01170 268.7 16.1
265(9) 0.01196 268.7 15.8
278(9) 0.01086 268.7 15.4
273(9) 0.01100 268.7 15.2
247(8) 0.01280 268.8 14.9
275(9) 0.01198 268.8 14.6
282(9) 0.01108 268.8 14.3
273(9) 0.01131 268.8 14.1
299(9) 0.01045 268.8 13.9
271(9) 0.01149 268.9 13.7
272(9) 0.01220 268.9 13.5
242(8) 0.01303 268.9 13.3
262(9) 0.01131 268.9 13.1
291(9) 0.01021 268.9 12.9
279(9) 0.01156 268.9 12.8
251(8) 0.01304 269.0 12.6
297(9) 0.01047 269.0 12.5
260(9) 0.01201 269.0 12.4
258(9) 0.01195 269.0 12.3
266(9) 0.01219 269.0 12.2
265(8) 0.01233 269.0 12.1
260(9) 0.01155 269.0 12.0
262(9) 0.01169 269.0 11.9
269(9) 0.01167 269.0 11.9
261(8) 0.01260 269.0 11.8
274(9) 0.01211 269.0 11.7
281(9) 0.01133 269.0 11.7
300(10) 0.00950 269.0 11.7
273(9) 0.01136 269.0 11.6
242(8) 0.01351 269.0 11.6
267(9) 0.01215 269.0 11.6
268(9) 0.01188 269.0 11.6
269(9) 0.01136 269.0 11.6
276(9) 0.01128 269.0 11.6
288(9) 0.01147 269.0 11.6
274(9) 0.01216 269.0 11.6
295(9) 0.01048 269.0 11.7
268(9) 0.01091 269.0 11.7
270(9) 0.01183 269.0 11.7
266(9) 0.01227 269.0 11.8
267(9) 0.01213 269.0 11.8
279(9) 0.01089 269.0 11.9
265(9) 0.01136 269.0 12.0
281(9) 0.01085 269.0 12.0
275(9) 0.01203 269.0 12.1
285(9) 0.01153 269.0 12.2
277(9) 0.01118 269.0 12.3
258(9) 0.01180 269.0 12.4
280(9) 0.01092 269.0 12.5
258(8) 0.01285 269.0 12.6
265(9) 0.01182 269.0 12.8
280(9) 0.01079 269.0 12.9
275(9) 0.01115 269.0 13.0
267(9) 0.01178 269.0 13.2
284(9) 0.01166 269.0 13.3
283(9) 0.01128 269.0 13.5
280(9) 0.01081 269.0 13.6
271(9) 0.01095 269.0 13.8
290(9) 0.01109 269.0 13.9
288(9) 0.01139 269.0 14.1
278(9) 0.01169 269.0 14.2
270(9) 0.01139 269.0 14.4
240(8) 0.01282 269.0 14.5
253(8) 0.01244 269.0 14.7
281(9) 0.01196 269.0 14.8
278(9) 0.01157 269.0 14.9
272(9) 0.01125 269.0 15.0
249(8) 0.01259 269.0 15.1
248(8) 0.01285 269.0 15.2
260(8) 0.01267 269.0 15.2
275(9) 0.01103 269.0 15.3
276(9) 0.01084 269.0 15.3
274(9) 0.01113 269.0 15.3
265(8) 0.01236 269.0 15.3
260(8) 0.01275 269.0 15.3
280(9) 0.01075 269.0 15.3
266(9) 0.01172 269.0 15.3
282(9) 0.01101 269.0 15.3
290(9) 0.01126 269.0 15.2
292(9) 0.01162 269.0 15.2
267(9) 0.01180 269.0 15.2
290(10) 0.00977 269.0 15.1
287(9) 0.01075 269.0 15.1
281(9) 0.01184 269.0 15.1
280(9) 0.01201 269.0 15.1
274(9) 0.01160 269.0 15.1
293(10) 0.00961 269.0 15.1
258(8) 0.01241 269.0 15.1
258(8) 0.01262 269.0 15.2
267(8) 0.01241 269.0 15.2
285(9) 0.01064 269.0 15.3
290(9) 0.01027 269.0 15.4
291(9) 0.01051 269.0 15.6
288(9) 0.01166 269.0 15.8
296(9) 0.01110 269.0 16.0
289(9) 0.01078 269.0 16.3
280(9) 0.01062 269.0 16.6
291(9) 0.01080 269.0 17.0
310(9) 0.01081 269.0 17.6
275(9) 0.01178 269.0 18.3
251(9) 0.01224 269.0 19.1
274(9) 0.01135 269.0 20.2
292(9) 0.01078 269.0 21.5
285(9) 0.01169 269.0 23.1
286(9) 0.01102 269.0 25.0
304(10) 0.01004 269.0 27.3
291(9) 0.01024 269.0 29.8
296(9) 0.01071 269.0 32.7
285(9) 0.01163 269.0 35.8
301(9) 0.01038 269.0 38.9
305(9) 0.01022 269.0 41.9
321(10) 0.00957 269.0 44.5
289(9) 0.01086 269.0 46.2
296(9) 0.01129 269.0 46.8
286(9) 0.01120 269.0 46.2
299(9) 0.01039 269.0 44.5
295(9) 0.01050 269.0 42.1
301(9) 0.01091 269.0 39.4
316(9) 0.01066 269.0 36.5
298(9) 0.01049 269.0 33.7
273(9) 0.01140 269.0 31.1
294(9) 0.01086 269.0 28.9
292(9) 0.01136 269.0 27.0
309(9) 0.01086 269.0 25.4
290(9) 0.01089 269.0 24.0
293(9) 0.01027 269.0 23.0
282(9) 0.01124 269.0 22.1
284(9) 0.01148 269.0 21.5
282(9) 0.01180 269.0 21.0
307(9) 0.01014 269.0 20.6
305(10) 0.00972 269.0 20.3
299(9) 0.01009 269.0 20.0
295(9) 0.01119 269.0 19.8
273(9) 0.01211 269.0 19.6
294(9) 0.01083 269.0 19.5
302(10) 0.00970 269.0 19.3
294(9) 0.01064 269.0 19.2
262(8) 0.01266 269.0 19.1
291(9) 0.01137 269.0 18.9
273(9) 0.01159 269.0 18.8
297(10) 0.01005 269.0 18.6
286(9) 0.01109 269.0 18.5
287(9) 0.01139 269.0 18.3
275(9) 0.01176 269.0 18.1
289(9) 0.01068 269.0 17.9
282(9) 0.01060 269.0 17.8
279(9) 0.01134 269.0 17.6
292(9) 0.01137 269.0 17.4
283(9) 0.01118 269.0 17.2
270(9) 0.01182 269.0 17.0
301(10) 0.00973 269.0 16.8
289(9) 0.01081 269.0 16.5
284(9) 0.01165 269.0 16.3
289(9) 0.01130 269.0 16.1
287(9) 0.01065 269.0 15.9
271(9) 0.01108 269.0 15.6
293(9) 0.01054 269.0 15.4
275(9) 0.01202 269.0 15.2
278(9) 0.01106 269.0 15.0
279(9) 0.01139 269.0 14.7
272(9) 0.01166 269.0 14.5
297(9) 0.01099 269.0 14.3
268(9) 0.01217 269.0 14.1
277(9) 0.01134 269.0 13.9
270(9) 0.01166 269.0 13.6
269(9) 0.01179 269.0 13.4
272(9) 0.01170 269.0 13.2
276(9) 0.01184 269.0 13.0
276(9) 0.01106 269.0 12.8
278(9) 0.01078 269.0 12.6
279(9) 0.01094 269.0 12.5
266(9) 0.01191 269.0 12.3
272(9) 0.01217 269.0 12.1
261(9) 0.01217 269.0 11.9
285(9) 0.01065 269.0 11.8
279(9) 0.01128 269.0 11.6
273(9) 0.01193 269.0 11.5
290(9) 0.01160 269.0 11.3
275(9) 0.01141 269.0 11.2
273(9) 0.01087 269.0 11.0
268(9) 0.01188 269.0 10.9
274(9) 0.01210 269.0 10.8
296(9) 0.01117 269.0 10.7
272(9) 0.01147 269.0 10.5
285(10) 0.00970 269.0 10.4
263(9) 0.01198 269.0 10.3
251(8) 0.01312 269.0 10.2
277(9) 0.01189 269.0 10.1
269(9) 0.01189 269.0 10.1
273(9) 0.01080 269.0 10.0
275(9) 0.01167 269.0 9.9
293(9) 0.01143 269.0 9.8
279(9) 0.01136 269.0 9.8
260(9) 0.01185 269.0 9.7
277(9) 0.01028 269.0 9.7
260(9) 0.01217 269.0 9.6
251(8) 0.01318 269.0 9.6
290(9) 0.01114 269.0 9.6
282(9) 0.01134 269.0 9.5
290(9) 0.01027 269.0 9.5
260(8) 0.01234 269.0 9.5
291(9) 0.01142 269.0 9.5
299(9) 0.01101 269.0 9.5
285(9) 0.01137 269.0 9.5
282(9) 0.01093 269.0 9.5
278(9) 0.01098 269.0 9.5
263(8) 0.01254 269.0 9.6
275(9) 0.01155 269.0 9.6
267(9) 0.01189 269.0 9.7
269(9) 0.01138 269.0 9.7
250(9) 0.01212 269.0 9.8
272(9) 0.01215 269.0 9.9
276(9) 0.01126 269.0 10.0
266(9) 0.01175 269.0 10.1
280(9) 0.01087 269.0 10.3
285(9) 0.01116 269.0 10.5
267(8) 0.01234 269.0 10.6
284(9) 0.01065 269.0 10.9
284(9) 0.01069 269.0 11.1
309(9) 0.01017 269.0 11.5
272(9) 0.01195 269.0 11.9
260(8) 0.01270 269.0 12.3
275(9) 0.01085 269.0 12.9
326(10) 0.00926 269.0 13.6
286(9) 0.01105 269.0 14.4
273(9) 0.01167 269.0 15.5
287(9) 0.01178 269.0 16.8
302(9) 0.01014 269.0 18.3
299(10) 0.00965 269.0 20.1
269(9) 0.01162 269.0 22.3
291(9) 0.01117 269.0 24.8
301(9) 0.01103 269.0 27.6
294(9) 0.01092 269.0 30.8
340(10) 0.00844 269.0 34.3
309(9) 0.01042 269.0 38.0
311(9) 0.01072 269.0 41.8
307(9) 0.01081 269.0 45.3
314(10) 0.00971 269.0 48.3
331(10) 0.00871 269.0 50.3
316(9) 0.01011 269.0 51.2
330(9) 0.01015 269.0 50.6
307(9) 0.01099 269.0 48.8
307(9) 0.01025 269.0 46.0
317(10) 0.00938 269.0 42.5
319(10) 0.00959 269.0 38.8
278(9) 0.01182 269.0 35.0
296(9) 0.01127 269.0 31.4
304(9) 0.01025 269.0 28.0
296(9) 0.01030 269.0 25.0
293(9) 0.01093 269.0 22.4
289(9) 0.01134 269.0 20.1
275(9) 0.01166 269.0 18.2
276(9) 0.01099 269.0 16.5
247(9) 0.01228 269.0 15.2
254(8) 0.01237 269.0 14.0
282(9) 0.01184 269.0 13.1
311(9) 0.01027 269.0 12.3
300(9) 0.01025 269.0 11.7
266(9) 0.01184 269.0 11.2
285(9) 0.01094 269.0 10.7
276(9) 0.01204 269.0 10.3
265(9) 0.01168 269.0 10.0
289(9) 0.01080 269.0 9.7
285(9) 0.01123 269.0 9.5
261(9) 0.01227 269.0 9.3
299(9) 0.01115 269.0 9.1
247(8) 0.01242 269.0 8.9
274(9) 0.01061 269.0 8.8
268(9) 0.01176 269.0 8.6
264(8) 0.01248 269.0 8.5
282(9) 0.01192 269.0 8.4
273(9) 0.01150 269.0 8.3
271(9) 0.01116 269.0 8.2
265(9) 0.01184 269.0 8.1
270(9) 0.01202 269.0 8.1
279(9) 0.01196 269.0 8.0
265(9) 0.01139 269.0 7.9
272(9) 0.01065 269.0 7.9
253(8) 0.01245 269.0 7.8
271(9) 0.01186 269.0 7.8
298(9) 0.01121 269.0 7.7
270(9) 0.01161 269.0 7.7
276(9) 0.01078 269.0 7.6
265(9) 0.01186 269.0 7.6
259(9) 0.01226 269.0 7.6
268(9) 0.01228 269.0 7.6
294(9) 0.01075 269.0 7.5
258(9) 0.01150 269.0 7.5
258(9) 0.01230 269.0 7.5
276(9) 0.01211 269.0 7.5
271(9) 0.01210 269.0 7.5
284(9) 0.01090 269.0 7.5
282(9) 0.01046 269.0 7.6
280(9) 0.01093 269.0 7.6
266(8) 0.01247 269.0 7.7
283(9) 0.01147 269.0 7.8
268(9) 0.01144 269.0 7.9
284(9) 0.01050 269.0 8.0
286(9) 0.01105 269.0 8.2
250(8) 0.01305 269.0 8.4
276(9) 0.01153 269.0 8.7
306(10) 0.00991 269.0 9.0
272(9) 0.01115 269.0 9.4
262(9) 0.01214 269.0 9.8
275(9) 0.01200 269.0 10.3
265(9) 0.01218 269.0 10.9
308(10) 0.01004 269.0 11.4
291(9) 0.01032 269.0 11.9
278(9) 0.01152 269.0 12.4
313(9) 0.01070 269.0 12.8
287(9) 0.01150 269.0 12.9
281(9) 0.01134 269.0 12.9
285(9) 0.01082 269.0 12.7
274(9) 0.01170 269.0 12.2
272(9) 0.01216 269.0 11.7
297(9) 0.01031 269.0 11.1
302(9) 0.01009 269.0 10.5
277(9) 0.01119 269.0 9.9
266(9) 0.01179 269.0 9.4
271(9) 0.01230 269.0 8.9
288(9) 0.01068 269.0 8.4
286(9) 0.01104 269.0 8.0
297(9) 0.01087 269.0 7.7
272(9) 0.01208 269.0 7.4
280(9) 0.01196 269.0 7.2
268(9) 0.01146 269.0 7.0
276(9) 0.01057 269.0 6.8
293(9) 0.01053 269.0 6.7
281(9) 0.01188 269.0 6.6
298(9) 0.01120 269.0 6.5
285(9) 0.01114 269.0 6.4
282(9) 0.01038 269.0 6.3
276(9) 0.01141 269.0 6.3
285(9) 0.01170 269.0 6.2
297(9) 0.01126 269.0 6.2
274(9) 0.01162 269.0 6.1
264(9) 0.01105 269.0 6.1
270(9) 0.01139 269.0 6.1
289(9) 0.01152 269.0 6.1
297(9) 0.01135 269.0 6.0
275(9) 0.01114 269.0 6.0
275(9) 0.01049 269.0 6.0
255(8) 0.01246 269.0 6.0
276(9) 0.01213 269.0 6.0
277(9) 0.01151 269.0 6.0
246(8) 0.01310 269.0 6.0
287(9) 0.01052 269.0 6.0
280(9) 0.01153 269.0 6.0
274(9) 0.01213 269.0 6.0
265(8) 0.01233 269.0 6.0
269(9) 0.01196 269.0 6.0
287(9) 0.01041 269.0 6.1
281(9) 0.01085 269.0 6.1
257(8) 0.01276 269.0 6.1
278(9) 0.01164 269.0 6.1
272(9) 0.01151 269.0 6.1
287(9) 0.01046 269.0 6.2
277(9) 0.01138 269.0 6.2
271(9) 0.01200 269.0 6.2
278(9) 0.01140 269.0 6.3
276(9) 0.01072 269.0 6.3
276(9) 0.01080 269.0 6.4
278(9) 0.01175 269.0 6.4
266(8) 0.01256 269.0 6.5
283(9) 0.01144 269.0 6.5
277(9) 0.01119 269.0 6.6
262(9) 0.01191 269.0 6.6
258(9) 0.01221 269.0 6.7
243(8) 0.01343 269.0 6.8
282(9) 0.01103 269.1 6.8
276(9) 0.01121 269.1 6.9
263(9) 0.01200 269.1 7.0
270(9) 0.01224 269.1 7.1
280(9) 0.01174 269.1 7.1
272(9) 0.01145 269.1 7.2
291(9) 0.01053 269.2 7.3
275(9) 0.01168 269.2 7.4
268(9) 0.01207 269.2 7.5
284(9) 0.01171 269.2 7.7
288(9) 0.01093 269.2 7.8
280(9) 0.01059 269.3 7.9
287(9) 0.01108 269.3 8.0
286(9) 0.01164 269.3 8.2
273(9) 0.01211 269.3 8.3
287(9) 0.01097 269.3 8.5
272(9) 0.01062 269.3 8.6
290(9) 0.01090 269.4 8.8
292(9) 0.01159 269.4 9.0
279(9) 0.01174 269.4 9.2
265(9) 0.01172 269.4 9.4
278(9) 0.01068 269.4 9.7
278(9) 0.01147 269.5 9.9
279(9) 0.01165 269.5 10.2
273(9) 0.01218 269.5 10.5
254(9) 0.01225 269.5 10.8
287(9) 0.01008 269.5 11.1
270(9) 0.01150 269.6 11.5
271(9) 0.01224 269.6 11.9
294(9) 0.01105 269.6 12.3
286(9) 0.01129 269.6 12.8
273(9) 0.01137 269.6 13.3
259(8) 0.01249 269.6 13.8
279(9) 0.01200 269.7 14.4
290(9) 0.01113 269.7 15.1
280(9) 0.01124 269.7 15.8
278(9) 0.01056 269.7 16.5
272(9) 0.01214 269.7 17.4
290(9) 0.01098 269.8 18.3
273(9) 0.01163 269.8 19.2
287(9) 0.01074 269.8 20.2
284(9) 0.01137 269.8 21.3
309(9) 0.01080 269.8 22.3
279(9) 0.01141 269.8 23.4
267(9) 0.01154 269.9 24.5
291(9) 0.01057 269.9 25.6
293(9) 0.01078 269.9 26.6
296(9) 0.01139 269.9 27.5
312(9) 0.01024 269.9 28.3
285(9) 0.01081 270.0 28.9
288(9) 0.01078 270.0 29.4
292(9) 0.01122 270.0 29.7
296(9) 0.01114 270.0 29.8
325(10) 0.00975 270.0 29.8
292(9) 0.01054 270.0 29.7
286(9) 0.01100 270.1 29.5
306(9) 0.01037 270.1 29.2
294(9) 0.01133 270.1 28.7
307(10) 0.00983 270.1 28.2
284(9) 0.01036 270.1 27.6
289(9) 0.01104 270.2 26.9
291(9) 0.01130 270.2 26.2
303(9) 0.01115 270.2 25.4
289(9) 0.01075 270.2 24.7
284(9) 0.01031 270.2 23.9
303(9) 0.01027 270.2 23.2
280(9) 0.01198 270.3 22.5
300(9) 0.01122 270.3 21.8
300(9) 0.01065 270.3 21.1
304(10) 0.00947 270.3 20.5
291(9) 0.01069 270.3 20.0
299(9) 0.01119 270.4 19.4
279(9) 0.01168 270.4 19.0
276(9) 0.01107 270.4 18.5
250(9) 0.01169 270.4 18.1
273(9) 0.01089 270.4 17.7
289(9) 0.01156 270.4 17.3
303(9) 0.01083 270.5 17.0
277(9) 0.01129 270.5 16.6
273(9) 0.01101 270.5 16.3
294(9) 0.01064 270.5 16.0
300(9) 0.01117 270.5 15.7
296(9) 0.01092 270.6 15.5
291(9) 0.01054 270.6 15.2
293(9) 0.01039 270.6 15.0
282(9) 0.01101 270.6 14.7
271(9) 0.01218 270.6 14.5
277(9) 0.01172 270.6 14.2
273(9) 0.01153 270.7 14.0
283(9) 0.01093 270.7 13.8
291(9) 0.01101 270.7 13.6
278(9) 0.01183 270.7 13.4
291(9) 0.01107 270.7 13.2
287(9) 0.01075 270.8 13.0
280(9) 0.01073 270.8 12.8
272(9) 0.01203 270.8 12.6
278(9) 0.01195 270.8 12.5
272(9) 0.01123 270.8 12.3
275(9) 0.01118 270.9 12.1
283(9) 0.01088 270.9 12.0
289(9) 0.01093 270.9 11.8
271(9) 0.01206 270.9 11.7
278(9) 0.01125 270.9 11.5
267(9) 0.01145 270.9 11.4
262(9) 0.01192 271.0 11.3
261(9) 0.01230 271.0 11.1
257(8) 0.01281 271.0 11.0
272(9) 0.01112 271.0 10.9
267(9) 0.01116 271.0 10.8
307(10) 0.00991 271.1 10.7
288(9) 0.01127 271.1 10.6
297(9) 0.01104 271.1 10.5
297(9) 0.01047 271.1 10.4
301(10) 0.00978 271.1 10.3
274(9) 0.01125 271.1 10.2
285(9) 0.01167 271.2 10.1
284(9) 0.01153 271.2 10.1
307(9) 0.01035 271.2 10.0
293(10) 0.01001 271.2 9.9
291(9) 0.01048 271.2 9.9
287(9) 0.01144 271.3 9.8
284(9) 0.01174 271.3 9.7
282(9) 0.01118 271.3 9.7
252(9) 0.01222 271.3 9.7
297(9) 0.01066 271.3 9.6
283(9) 0.01170 271.3 9.6
277(9) 0.01112 271.4 9.5
253(9) 0.01209 271.4 9.5
255(9) 0.01139 271.4 9.5
256(9) 0.01194 271.4 9.5
285(9) 0.01170 271.4 9.4
278(9) 0.01174 271.5 9.4
280(9) 0.01122 271.5 9.4
276(9) 0.01076 271.5 9.4
309(10) 0.00993 271.5 9.4
270(9) 0.01223 271.5 9.4
269(9) 0.01193 271.5 9.4
270(9) 0.01147 271.6 9.3
275(9) 0.01104 271.6 9.3
259(8) 0.01245 271.6 9.3
265(8) 0.01243 271.6 9.3
273(9) 0.01144 271.6 9.3
288(9) 0.01102 271.7 9.3
279(9) 0.01124 271.7 9.3
276(9) 0.01142 271.7 9.3
268(8) 0.01238 271.7 9.3
260(9) 0.01225 271.7 9.3
272(9) 0.01123 271.7 9.3
284(9) 0.01080 271.8 9.4
267(9) 0.01175 271.8 9.4
262(8) 0.01256 271.8 9.4
267(9) 0.01117 271.8 9.4
282(9) 0.01069 271.8 9.4
310(10) 0.01004 271.9 9.4
292(9) 0.01095 271.9 9.4
285(9) 0.01159 271.9 9.4
271(9) 0.01146 271.9 9.5
262(9) 0.01113 271.9 9.5
239(8) 0.01315 272.0 9.5
282(9) 0.01132 272.0 9.5
285(9) 0.01183 272.0 9.6
280(9) 0.01140 272.0 9.6
253(9) 0.01204 272.0 9.7
284(9) 0.01085 272.0 9.7
252(8) 0.01289 272.1 9.8
287(9) 0.01153 272.1 9.8
279(9) 0.01079 272.1 9.9
259(9) 0.01085 272.1 10.0
273(9) 0.01135 272.1 10.0
267(9) 0.01217 272.2 10.1
276(9) 0.01197 272.2 10.2
288(9) 0.01103 272.2 10.3
281(9) 0.01045 272.2 10.5
303(9) 0.01043 272.2 10.6
257(8) 0.01276 272.2 10.7
261(8) 0.01245 272.3 10.9
272(9) 0.01153 272.3 11.1
255(9) 0.01154 272.3 11.2
265(9) 0.01146 272.3 11.5
279(9) 0.01182 272.3 11.7
275(9) 0.01170 272.4 12.0
275(9) 0.01156 272.4 12.3
278(9) 0.01093 272.4 12.6
279(9) 0.01131 272.4 13.0
262(8) 0.01247 272.4 13.5
273(9) 0.01173 272.4 14.1
290(9) 0.01042 272.5 14.7
308(10) 0.00964 272.5 15.4
285(9) 0.01107 272.5 16.2
302(9) 0.01114 272.5 17.2
287(9) 0.01120 272.5 18.2
298(9) 0.01036 272.6 19.5
270(9) 0.01156 272.6 20.8
281(9) 0.01118 272.6 22.3
301(9) 0.01106 272.6 24.0
278(9) 0.01119 272.6 25.7
304(10) 0.01003 272.6 27.5
281(9) 0.01115 272.7 29.4
278(9) 0.01153 272.7 31.0
294(9) 0.01135 272.7 32.5
281(9) 0.01120 272.7 33.6
306(10) 0.00978 272.7 34.3
292(9) 0.01026 272.8 34.4
308(9) 0.01050 272.8 34.0
327(9) 0.01044 272.8 33.3
299(9) 0.01076 272.8 32.2
310(10) 0.00945 272.8 31.0
267(9) 0.01173 272.8 29.7
285(9) 0.01139 272.9 28.5
301(9) 0.01113 272.9 27.4
297(9) 0.01030 272.9 26.4
291(9) 0.01048 272.9 25.6
312(9) 0.01013 272.9 25.0
298(9) 0.01085 273.0 24.5
289(9) 0.01159 273.0 24.2
281(9) 0.01030 273.0 24.0
300(10) 0.00984 273.0 24.0
320(10) 0.00994 273.0 24.2
307(9) 0.01094 273.0 24.5
316(9) 0.01055 273.1 24.9
308(9) 0.01022 273.1 25.6
295(9) 0.01015 273.1 26.3
294(9) 0.01073 273.1 27.2
280(9) 0.01188 273.1 28.4
307(9) 0.01098 273.2 29.6
293(9) 0.01086 273.2 31.1
292(9) 0.01038 273.2 32.9
315(10) 0.00988 273.2 34.8
288(9) 0.01161 273.2 37.0
292(9) 0.01143 273.3 39.5
314(9) 0.01014 273.3 42.2
317(10) 0.00952 273.3 45.2
280(9) 0.01114 273.3 48.5
316(9) 0.01063 273.3 52.0
344(10) 0.00943 273.3 55.6
329(10) 0.00954 273.4 59.3
339(10) 0.00923 273.4 62.9
349(10) 0.00897 273.4 66.3
353(10) 0.00970 273.4 69.2
353(10) 0.00945 273.4 71.4
350(10) 0.00916 273.5 72.8
322(10) 0.00993 273.5 73.2
330(10) 0.00955 273.5 72.7
307(9) 0.01092 273.5 71.5
353(10) 0.00912 273.5 69.7
333(10) 0.00928 273.5 67.6
308(10) 0.01004 273.6 65.4
312(9) 0.01026 273.6 63.3
338(10) 0.00994 273.6 61.4
312(10) 0.01000 273.6 59.9
319(10) 0.00980 273.6 58.7
317(9) 0.01027 273.7 57.9
326(10) 0.01006 273.7 57.4
336(10) 0.00993 273.7 57.2
322(10) 0.01003 273.7 57.1
332(10) 0.00937 273.7 56.9
324(10) 0.00957 273.7 56.5
329(10) 0.00985 273.8 55.7
334(9) 0.01018 273.8 54.5
320(10) 0.00987 273.8 52.8
306(10) 0.00984 273.8 50.7
313(10) 0.00996 273.8 48.2
288(9) 0.01136 273.9 45.6
298(9) 0.01125 273.9 43.0
318(10) 0.01001 273.9 40.5
295(9) 0.01039 273.9 38.1
319(9) 0.01018 273.9 35.9
315(9) 0.01055 273.9 33.9
269(9) 0.01223 274.0 32.2
318(10) 0.00968 274.0 30.6
293(10) 0.00971 274.0 29.3
296(9) 0.01043 274.0 28.1
308(9) 0.01073 274.0 27.2
311(9) 0.01081 274.1 26.4
295(9) 0.01087 274.1 25.8
301(10) 0.00981 274.1 25.3
287(9) 0.01095 274.1 25.0
288(9) 0.01150 274.1 24.8
280(9) 0.01207 274.1 24.7
282(9) 0.01097 274.2 24.6
298(10) 0.00988 274.2 24.7
286(9) 0.01087 274.2 24.9
303(9) 0.01118 274.2 25.1
305(9) 0.01081 274.2 25.4
305(9) 0.01045 274.3 25.8
304(10) 0.00989 274.3 26.3
330(10) 0.00945 274.3 26.8
328(9) 0.01035 274.3 27.4
295(9) 0.01107 274.3 28.1
288(9) 0.01110 274.3 28.8
304(9) 0.01043 274.4 29.5
313(9) 0.01027 274.4 30.3
306(9) 0.01105 274.4 31.1
289(9) 0.01104 274.4 32.0
285(9) 0.01090 274.4 32.8
303(9) 0.01038 274.5 33.7
310(9) 0.01018 274.5 34.5
305(9) 0.01096 274.5 35.4
318(10) 0.01003 274.5 36.1
288(9) 0.01108 274.5 36.9
287(9) 0.01108 274.6 37.6
314(9) 0.01028 274.6 38.2
298(9) 0.01108 274.6 38.8
309(10) 0.01004 274.6 39.3
315(10) 0.00947 274.6 39.7
313(9) 0.01021 274.6 40.0
299(9) 0.01114 274.7 40.2
318(9) 0.01066 274.7 40.3
288(9) 0.01091 274.7 40.3
288(9) 0.01052 274.7 40.1
301(9) 0.01074 274.7 39.8
302(9) 0.01072 274.8 39.3
321(9) 0.01058 274.8 38.8
314(9) 0.01030 274.8 38.1
295(9) 0.01039 274.8 37.3
295(9) 0.01072 274.8 36.4
306(9) 0.01076 274.8 35.5
294(9) 0.01147 274.9 34.5
305(9) 0.01049 274.9 33.5
317(10) 0.00920 274.9 32.5
295(9) 0.01054 274.9 31.4
300(9) 0.01112 274.9 30.4
319(9) 0.01040 275.0 29.5
278(9) 0.01156 275.0 28.5
315(10) 0.00944 275.0 27.6
308(9) 0.01021 275.0 26.8
287(9) 0.01158 275.0 26.0
303(9) 0.01082 275.0 25.3
274(9) 0.01150 275.1 24.6
287(9) 0.01019 275.1 24.0
318(10) 0.00986 275.1 23.5
278(9) 0.01185 275.1 23.0
287(9) 0.01128 275.1 22.5
301(10) 0.00995 275.2 22.2
267(9) 0.01122 275.2 21.8
277(9) 0.01122 275.2 21.6
257(8) 0.01282 275.2 21.3
299(9) 0.01073 275.2 21.1
267(9) 0.01175 275.2 21.0
289(9) 0.01083 275.3 20.9
281(9) 0.01172 275.3 20.8
280(9) 0.01193 275.3 20.8
303(9) 0.01064 275.3 20.8
271(9) 0.01152 275.3 20.8
281(9) 0.01047 275.4 20.8
265(9) 0.01192 275.4 20.9
284(9) 0.01163 275.4 20.9
287(9) 0.01124 275.4 21.0
289(9) 0.01079 275.4 21.1
304(10) 0.00988 275.4 21.2
292(9) 0.01111 275.5 21.4
294(9) 0.01125 275.5 21.5
284(9) 0.01114 275.5 21.7
292(9) 0.01088 275.5 22.0
306(9) 0.01031 275.5 22.3
288(9) 0.01140 275.6 22.7
286(9) 0.01151 275.6 23.2
293(9) 0.01074 275.6 23.8
307(10) 0.00978 275.6 24.5
313(10) 0.00989 275.6 25.3
298(9) 0.01093 275.6 26.3
283(9) 0.01180 275.7 27.4
288(9) 0.01056 275.7 28.6
292(10) 0.00961 275.7 30.0
298(9) 0.01045 275.7 31.6
314(9) 0.01065 275.7 33.3
298(9) 0.01119 275.8 35.2
300(9) 0.01047 275.8 37.2
306(9) 0.01016 275.8 39.2
326(10) 0.00994 275.8 41.3
324(9) 0.01044 275.8 43.3
359(10) 0.00943 275.9 45.2
331(10) 0.00982 275.9 46.8
336(10) 0.00858 275.9 48.0
322(10) 0.00967 275.9 48.8
328(9) 0.01031 275.9 49.0
335(10) 0.01002 275.9 48.6
319(10) 0.00991 276.0 47.7
336(10) 0.00893 276.0 46.4
336(10) 0.00957 276.0 44.6
325(9) 0.01033 276.0 42.7
303(9) 0.01106 276.0 40.5
325(10) 0.00994 276.1 38.4
330(10) 0.00946 276.1 36.2
315(9) 0.01019 276.1 34.2
281(9) 0.01182 276.1 32.2
312(9) 0.01061 276.1 30.4
308(9) 0.01028 276.1 28.8
297(9) 0.01088 276.2 27.3
299(9) 0.01036 276.2 26.0
304(9) 0.01108 276.2 24.8
307(9) 0.01035 276.2 23.8
264(9) 0.01193 276.2 22.9
305(10) 0.00982 276.3 22.2
287(9) 0.01144 276.3 21.6
316(9) 0.01067 276.3 21.2
312(9) 0.01014 276.3 20.8
304(10) 0.00981 276.3 20.6
296(9) 0.01033 276.3 20.5
265(9) 0.01198 276.4 20.5
283(9) 0.01174 276.4 20.5
310(9) 0.01024 276.4 20.7
314(10) 0.00983 276.4 21.0
301(9) 0.01035 276.4 21.4
283(9) 0.01133 276.5 21.9
285(9) 0.01163 276.5 22.5
305(9) 0.01008 276.5 23.2
297(10) 0.00989 276.5 24.0
315(10) 0.00988 276.5 24.9
297(9) 0.01099 276.5 25.9
310(9) 0.01085 276.6 27.0
289(9) 0.01078 276.6 28.2
298(10) 0.01001 276.6 29.6
305(9) 0.01027 276.6 31.0
303(9) 0.01099 276.6 32.6
289(9) 0.01128 276.7 34.2
308(10) 0.01003 276.7 35.9
306(10) 0.00987 276.7 37.6
309(9) 0.01039 276.7 39.4
326(9) 0.01026 276.7 41.1
317(9) 0.01056 276.7 42.7
327(10) 0.00972 276.8 44.2
341(11) 0.00832 276.8 45.5
305(10) 0.00998 276.8 46.6
331(9) 0.01013 276.8 47.3
325(9) 0.01043 276.8 47.7
321(10) 0.01000 276.9 47.7
309(10) 0.00986 276.9 47.3
302(9) 0.01059 276.9 46.6
307(9) 0.01093 276.9 45.6
300(9) 0.01116 276.9 44.3
294(9) 0.01039 277.0 42.8
296(10) 0.01000 277.0 41.1
325(10) 0.00957 277.0 39.4
303(9) 0.01097 277.0 37.6
308(9) 0.01075 277.0 35.8
303(9) 0.01039 277.0 34.0
321(10) 0.00966 277.1 32.3
299(9) 0.01070 277.1 30.7
325(9) 0.01037 277.1 29.2
293(9) 0.01121 277.1 27.8
323(10) 0.00958 277.1 26.5
283(9) 0.01136 277.2 25.3
290(9) 0.01096 277.2 24.3
296(9) 0.01130 277.2 23.3
317(10) 0.00988 277.2 22.5
306(10) 0.01004 277.2 21.7
291(9) 0.01056 277.2 21.1
283(9) 0.01146 277.3 20.6
295(9) 0.01138 277.3 20.1
303(9) 0.01049 277.3 19.7
310(9) 0.01024 277.3 19.5
338(10) 0.00883 277.3 19.3
263(9) 0.01219 277.4 19.1
317(9) 0.01062 277.4 19.1
281(9) 0.01134 277.4 19.1
294(9) 0.01038 277.4 19.1
274(9) 0.01146 277.4 19.2
296(9) 0.01091 277.4 19.3
282(9) 0.01178 277.5 19.4
289(9) 0.01085 277.5 19.5
303(10) 0.00964 277.5 19.5
297(9) 0.01076 277.5 19.5
296(9) 0.01124 277.5 19.4
309(9) 0.01094 277.6 19.2
283(9) 0.01098 277.6 19.0
289(9) 0.01049 277.6 18.7
304(9) 0.01060 277.6 18.3
298(9) 0.01107 277.6 17.9
270(8) 0.01234 277.6 17.4
278(9) 0.01135 277.7 16.9
303(10) 0.00914 277.7 16.3
288(9) 0.01077 277.7 15.8
304(9) 0.01092 277.7 15.3
324(9) 0.01027 277.7 14.9
278(9) 0.01120 277.8 14.4
279(9) 0.01039 277.8 14.0
307(9) 0.01024 277.8 13.6
278(9) 0.01196 277.8 13.3
272(9) 0.01189 277.8 12.9
312(10) 0.00967 277.8 12.7
308(10) 0.00929 277.9 12.4
286(9) 0.01085 277.9 12.2
300(9) 0.01105 277.9 12.1
291(9) 0.01128 277.9 11.9
307(9) 0.01024 277.9 11.8
285(9) 0.01098 278.0 11.8
312(10) 0.01006 278.0 11.7
292(9) 0.01143 278.0 11.7
280(9) 0.01155 278.0 11.8
278(9) 0.01091 278.0 11.9
279(9) 0.01089 278.0 12.0
299(9) 0.01047 278.1 12.2
291(9) 0.01147 278.1 12.4
303(9) 0.01062 278.1 12.7
301(9) 0.01014 278.1 13.0
265(9) 0.01182 278.1 13.4
277(9) 0.01159 278.2 13.9
309(9) 0.01088 278.2 14.4
296(9) 0.01049 278.2 15.1
276(9) 0.01122 278.2 15.8
304(10) 0.01006 278.2 16.6
259(8) 0.01262 278.3 17.5
299(9) 0.01117 278.3 18.5
294(9) 0.01065 278.3 19.6
298(9) 0.01040 278.3 20.8
302(9) 0.01024 278.3 22.0
296(9) 0.01115 278.3 23.4
316(9) 0.01067 278.4 24.7
303(9) 0.01045 278.4 26.1
314(10) 0.00911 278.4 27.3
309(10) 0.00965 278.4 28.5
342(10) 0.00981 278.4 29.4
310(9) 0.01093 278.5 30.0
299(9) 0.01075 278.5 30.3
313(10) 0.00975 278.5 30.3
322(10) 0.00959 278.5 30.0
292(9) 0.01140 278.5 29.3
289(9) 0.01151 278.5 28.5
297(9) 0.01064 278.6 27.5
297(9) 0.01025 278.6 26.5
286(9) 0.01103 278.6 25.4
306(9) 0.01103 278.6 24.3
276(9) 0.01195 278.6 23.4
284(9) 0.01122 278.7 22.5
290(9) 0.01011 278.7 21.7
299(9) 0.01072 278.7 21.0
301(9) 0.01119 278.7 20.5
300(9) 0.01123 278.7 20.0
295(9) 0.01055 278.7 19.6
326(10) 0.00927 278.8 19.4
304(9) 0.01034 278.8 19.2
286(9) 0.01168 278.8 19.2
305(9) 0.01057 278.8 19.2
298(9) 0.01063 278.8 19.3
316(10) 0.00967 278.9 19.5
308(10) 0.00998 278.9 19.8
309(9) 0.01086 278.9 20.2
284(9) 0.01165 278.9 20.6
319(10) 0.00991 278.9 21.0
296(9) 0.01058 278.9 21.6
306(9) 0.01035 279.0 22.2
305(9) 0.01099 279.0 22.8
316(10) 0.00995 279.0 23.5
297(9) 0.01044 279.0 24.3
286(9) 0.01114 279.0 25.1
311(9) 0.01024 279.1 25.9
308(9) 0.01081 279.1 26.8
322(10) 0.00998 279.1 27.7
292(9) 0.01054 279.1 28.7
308(10) 0.00992 279.1 29.7
313(9) 0.01042 279.1 30.6
336(10) 0.00995 279.2 31.6
310(9) 0.01023 279.2 32.6
317(10) 0.00976 279.2 33.5
302(9) 0.01033 279.2 34.4
294(9) 0.01099 279.2 35.2
313(9) 0.01080 279.3 35.9
298(9) 0.01029 279.3 36.6
279(9) 0.01078 279.3 37.1
309(9) 0.01009 279.3 37.5
320(9) 0.01037 279.3 37.8
329(9) 0.01039 279.3 37.9
333(10) 0.00941 279.4 37.9
282(9) 0.01051 279.4 37.7
316(10) 0.00981 279.4 37.4
287(9) 0.01155 279.4 37.0
296(9) 0.01109 279.4 36.4
320(10) 0.00959 279.5 35.7
276(9) 0.01077 279.5 34.9
279(9) 0.01101 279.5 34.0
295(9) 0.01127 279.5 33.1
299(9) 0.01116 279.5 32.1
298(9) 0.01040 279.6 31.1
318(10) 0.00918 279.6 30.0
277(9) 0.01165 279.6 29.0
314(9) 0.01071 279.6 27.9
314(9) 0.01064 279.6 26.9
296(9) 0.01073 279.6 25.9
325(10) 0.00895 279.7 24.9
280(9) 0.01133 279.7 24.0
296(9) 0.01139 279.7 23.0
277(9) 0.01195 279.7 22.2
279(9) 0.01083 279.7 21.3
275(9) 0.01058 279.8 20.5
321(10) 0.00922 279.8 19.8
299(9) 0.01124 279.8 19.0
294(9) 0.01103 279.8 18.3
307(9) 0.01019 279.8 17.7
301(9) 0.01014 279.8 17.1
283(9) 0.01133 279.9 16.5
307(9) 0.01092 279.9 16.0
312(9) 0.01045 279.9 15.5
292(9) 0.01060 279.9 15.0
294(9) 0.01041 279.9 14.5
286(9) 0.01148 280.0 14.1
306(9) 0.01100 280.0 13.7
287(9) 0.01135 280.0 13.4
316(10) 0.00993 280.0 13.1
311(10) 0.01003 280.0 12.7
292(9) 0.01098 280.0 12.5
281(9) 0.01174 280.1 12.2
289(9) 0.01063 280.1 11.9
313(10) 0.00977 280.1 11.7
314(10) 0.00987 280.1 11.5
271(9) 0.01161 280.1 11.3
275(9) 0.01217 280.2 11.1
293(9) 0.01044 280.2 11.0
296(9) 0.01034 280.2 10.8
292(9) 0.01073 280.2 10.7
304(9) 0.01074 280.2 10.6
262(8) 0.01268 280.2 10.5
312(10) 0.00995 280.3 10.4
276(9) 0.01112 280.3 10.3
288(9) 0.01075 280.3 10.2
308(9) 0.01100 280.3 10.1
301(9) 0.01098 280.3 10.0
296(9) 0.01041 280.4 10.0
278(9) 0.01057 280.4 9.9
318(10) 0.01002 280.4 9.9
296(9) 0.01129 280.4 9.8
279(9) 0.01194 280.4 9.8
276(9) 0.01149 280.4 9.7
309(10) 0.00936 280.5 9.7
297(9) 0.01085 280.5 9.6
311(9) 0.01081 280.5 9.6
297(9) 0.01115 280.5 9.5
280(9) 0.01122 280.5 9.5
295(10) 0.00957 280.6 9.4
294(9) 0.01031 280.6 9.3
289(9) 0.01155 280.6 9.3
276(9) 0.01203 280.6 9.2
289(9) 0.01083 280.6 9.1
293(9) 0.01047 280.7 9.1
306(9) 0.01014 280.7 9.0
309(9) 0.01078 280.7 8.9
302(9) 0.01104 280.7 8.8
320(10) 0.00981 280.7 8.7
288(9) 0.01088 280.7 8.7
300(9) 0.01076 280.8 8.6
302(9) 0.01113 280.8 8.5
301(9) 0.01080 280.8 8.4
293(9) 0.01082 280.8 8.3
311(10) 0.00987 280.8 8.2
289(9) 0.01122 280.9 8.1
282(9) 0.01176 280.9 8.1
303(9) 0.01047 280.9 8.0
305(10) 0.01003 280.9 7.9
287(9) 0.01073 280.9 7.8
287(9) 0.01120 280.9 7.7
290(9) 0.01147 281.0 7.7
293(9) 0.01061 281.0 7.6
294(9) 0.01073 281.0 7.5
299(9) 0.01025 281.0 7.5
283(9) 0.01155 281.0 7.4
280(9) 0.01182 281.1 7.4
292(9) 0.01044 281.1 7.3
302(9) 0.01009 281.1 7.3
298(9) 0.01016 281.1 7.3
288(9) 0.01100 281.1 7.2
313(9) 0.01054 281.1 7.2
309(9) 0.01032 281.2 7.2
295(9) 0.01018 281.2 7.2
314(10) 0.01003 281.2 7.2
292(9) 0.01124 281.2 7.2
291(9) 0.01131 281.2 7.2
274(9) 0.01114 281.3 7.3
298(10) 0.00955 281.3 7.3
303(9) 0.01014 281.3 7.3
270(9) 0.01226 281.3 7.4
291(9) 0.01133 281.3 7.4
284(9) 0.01132 281.3 7.5
308(10) 0.00942 281.4 7.6
288(9) 0.01089 281.4 7.7
269(9) 0.01228 281.4 7.8
303(9) 0.01098 281.4 7.9
303(9) 0.01013 281.4 8.0
292(10) 0.01002 281.5 8.2
289(9) 0.01084 281.5 8.4
273(9) 0.01207 281.5 8.6
263(8) 0.01234 281.5 8.8
285(9) 0.01076 281.5 9.0
276(9) 0.01085 281.5 9.3
293(9) 0.01038 281.6 9.7
282(9) 0.01192 281.6 10.1
274(9) 0.01193 281.6 10.5
279(9) 0.01129 281.6 11.0
302(9) 0.01008 281.6 11.6
310(10) 0.00980 281.7 12.2
281(9) 0.01184 281.7 12.9
281(9) 0.01158 281.7 13.8
276(9) 0.01145 281.7 14.7
284(9) 0.01045 281.7 15.7
316(9) 0.01009 281.7 16.8
316(9) 0.01065 281.8 18.1
315(9) 0.01039 281.8 19.5
339(10) 0.00916 281.8 21.0
300(9) 0.01041 281.8 22.6
317(9) 0.01010 281.8 24.3
330(9) 0.01032 281.9 26.1
333(10) 0.00961 281.9 27.8
343(10) 0.00908 281.9 29.6
318(10) 0.00986 281.9 31.2
313(9) 0.01033 281.9 32.6
331(9) 0.01020 282.0 33.7
304(9) 0.01029 282.0 34.3
312(10) 0.00941 282.0 34.6
315(10) 0.00987 282.0 34.3
307(9) 0.01089 282.0 33.6
338(10) 0.01002 282.0 32.6
295(9) 0.01062 282.1 31.2
295(9) 0.01013 282.1 29.6
300(9) 0.01051 282.1 27.9
288(9) 0.01147 282.1 26.1
314(9) 0.01074 282.1 24.4
309(10) 0.00998 282.2 22.8
317(10) 0.00912 282.2 21.2
305(9) 0.01030 282.2 19.8
296(9) 0.01104 282.2 18.4
281(9) 0.01182 282.2 17.2
288(9) 0.01105 282.2 16.2
315(10) 0.00954 282.3 15.2
309(9) 0.01042 282.3 14.3
305(9) 0.01105 282.3 13.6
323(9) 0.01033 282.3 12.9
298(9) 0.01076 282.3 12.3
298(10) 0.00984 282.4 11.8
271(9) 0.01149 282.4 11.3
299(9) 0.01121 282.4 11.0
284(9) 0.01153 282.4 10.6
290(9) 0.01105 282.4 10.3
286(9) 0.01066 282.4 10.1
289(9) 0.01122 282.5 9.9
320(9) 0.01058 282.5 9.7
289(9) 0.01136 282.5 9.5
293(9) 0.01058 282.5 9.4
269(9) 0.01094 282.5 9.3
302(9) 0.01014 282.6 9.2
304(9) 0.01104 282.6 9.1
311(9) 0.01044 282.6 9.1
285(9) 0.01091 282.6 9.0
291(9) 0.01015 282.6 9.0
315(10) 0.00972 282.6 9.0
295(9) 0.01121 282.7 9.0
307(9) 0.01049 282.7 9.0
299(9) 0.01043 282.7 9.0
293(9) 0.01073 282.7 9.0
288(9) 0.01088 282.7 9.1
304(9) 0.01100 282.8 9.1
293(9) 0.01094 282.8 9.1
329(10) 0.00927 282.8 9.2
291(9) 0.01070 282.8 9.3
296(9) 0.01117 282.8 9.3
305(9) 0.01080 282.8 9.4
293(9) 0.01067 282.9 9.5
287(9) 0.01050 282.9 9.6
301(9) 0.01013 282.9 9.7
300(9) 0.01078 282.9 9.8
311(9) 0.01070 282.9 9.9
306(9) 0.01034 283.0 10.1
285(9) 0.01071 283.0 10.2
315(10) 0.01004 283.0 10.4
304(9) 0.01090 283.0 10.6
296(9) 0.01119 283.0 10.7
308(9) 0.01024 283.0 10.9
283(9) 0.01030 283.1 11.1
281(9) 0.01105 283.1 11.4
292(9) 0.01122 283.1 11.6
318(9) 0.01042 283.1 11.9
323(10) 0.00968 283.1 12.2
294(9) 0.01019 283.2 12.5
303(9) 0.01056 283.2 12.8
314(9) 0.01056 283.2 13.2
285(9) 0.01158 283.2 13.6
317(10) 0.00998 283.2 14.0
309(10) 0.00994 283.3 14.5
336(10) 0.00945 283.3 15.1
288(9) 0.01164 283.3 15.7
298(9) 0.01104 283.3 16.3
316(10) 0.00972 283.3 17.1
312(10) 0.00957 283.3 17.9
327(10) 0.00952 283.4 18.8
318(9) 0.01056 283.4 19.9
301(9) 0.01085 283.4 21.0
311(9) 0.01012 283.4 22.3
327(10) 0.00919 283.4 23.7
345(10) 0.00897 283.5 25.2
297(9) 0.01126 283.5 26.9
330(10) 0.00994 283.5 28.8
335(10) 0.00958 283.5 30.8
333(10) 0.00935 283.5 32.9
339(10) 0.00967 283.5 35.1
359(10) 0.00951 283.6 37.4
377(11) 0.00836 283.6 39.7
363(10) 0.00869 283.6 41.9
355(10) 0.00883 283.6 44.0
352(10) 0.00915 283.6 45.8
349(10) 0.00973 283.7 47.2
355(10) 0.00909 283.7 48.2
340(10) 0.00923 283.7 48.6
376(11) 0.00830 283.7 48.5
362(10) 0.00907 283.7 48.0
339(10) 0.01004 283.7 47.1
337(10) 0.00939 283.8 45.9
331(10) 0.00901 283.8 44.6
331(10) 0.00932 283.8 43.3
318(9) 0.01015 283.8 42.0
320(9) 0.01051 283.8 40.8
340(10) 0.00916 283.9 39.7
330(10) 0.00949 283.9 38.8
309(9) 0.01048 283.9 38.2
321(9) 0.01030 283.9 37.7
317(9) 0.01072 283.9 37.5
319(10) 0.00983 283.9 37.5
309(10) 0.00950 284.0 37.7
337(10) 0.00940 284.0 38.1
362(10) 0.00926 284.0 38.8
316(9) 0.01064 284.0 39.7
353(10) 0.00911 284.0 40.8
332(10) 0.00923 284.1 42.1
372(10) 0.00877 284.1 43.6
350(10) 0.00956 284.1 45.3
349(10) 0.00971 284.1 47.2
355(10) 0.00929 284.1 49.1
364(11) 0.00810 284.1 51.2
342(10) 0.00920 284.2 53.4
350(10) 0.00961 284.2 55.5
361(10) 0.00920 284.2 57.5
372(10) 0.00856 284.2 59.3
358(10) 0.00855 284.2 60.8
371(10) 0.00869 284.3 61.9
353(10) 0.00968 284.3 62.6
377(10) 0.00901 284.3 62.8
380(11) 0.00823 284.3 62.4
371(11) 0.00809 284.3 61.5
363(10) 0.00878 284.3 60.2
320(9) 0.01056 284.4 58.5
352(10) 0.00945 284.4 56.5
347(10) 0.00919 284.4 54.3
338(10) 0.00903 284.4 52.1
327(10) 0.00959 284.4 49.8
328(9) 0.01030 284.5 47.5
334(10) 0.00965 284.5 45.3
320(9) 0.01011 284.5 43.2
337(10) 0.00916 284.5 41.2
327(10) 0.00953 284.5 39.4
344(10) 0.00987 284.6 37.6
323(9) 0.01024 284.6 36.0
333(10) 0.00940 284.6 34.5
329(10) 0.00953 284.6 33.1
330(10) 0.00969 284.6 31.9
341(10) 0.01000 284.6 30.7
306(9) 0.01056 284.7 29.6
326(10) 0.00960 284.7 28.7
350(10) 0.00882 284.7 27.8
314(10) 0.00998 284.7 27.0
317(9) 0.01062 284.7 26.2
314(10) 0.00978 284.8 25.5
318(10) 0.00934 284.8 24.9
316(10) 0.01007 284.8 24.3
339(10) 0.00997 284.8 23.8
303(9) 0.01102 284.8 23.3
290(9) 0.01086 284.8 22.8
315(10) 0.00927 284.9 22.4
299(9) 0.01016 284.9 22.0
292(9) 0.01136 284.9 21.7
321(9) 0.01048 284.9 21.3
329(10) 0.00973 284.9 21.0
309(10) 0.00989 285.0 20.7
324(10) 0.00950 285.0 20.5
316(9) 0.01064 285.0 20.2
313(9) 0.01053 285.0 20.0
312(10) 0.00995 285.0 19.8
299(10) 0.00963 285.0 19.6
321(10) 0.00986 285.1 19.5
327(9) 0.01017 285.1 19.3
309(9) 0.01085 285.1 19.2
320(9) 0.01011 285.1 19.1
322(10) 0.00927 285.1 19.0
296(9) 0.01086 285.2 18.9
283(9) 0.01187 285.2 18.9
300(9) 0.01105 285.2 18.9
325(10) 0.00977 285.2 18.8
303(10) 0.00986 285.2 18.8
300(9) 0.01047 285.2 18.9
298(9) 0.01133 285.3 18.9
318(9) 0.01024 285.3 18.9
298(9) 0.01030 285.3 19.0
311(10) 0.00996 285.3 19.1
318(10) 0.00981 285.3 19.2
290(9) 0.01148 285.4 19.4
301(9) 0.01025 285.4 19.5
290(9) 0.01040 285.4 19.7
290(9) 0.01056 285.4 19.9
308(9) 0.01029 285.4 20.1
324(9) 0.01041 285.4 20.3
324(10) 0.00993 285.5 20.6
308(10) 0.01005 285.5 20.9
324(10) 0.00953 285.5 21.2
297(9) 0.01084 285.5 21.6
331(9) 0.01015 285.5 21.9
319(9) 0.01011 285.6 22.3
319(10) 0.00966 285.6 22.7
303(9) 0.01041 285.6 23.1
328(10) 0.00994 285.6 23.6
312(9) 0.01074 285.6 24.0
316(10) 0.00985 285.7 24.5
280(9) 0.01102 285.7 25.0
306(9) 0.01015 285.7 25.5
279(9) 0.01153 285.7 26.0
294(9) 0.01145 285.7 26.5
310(10) 0.00995 285.7 27.0
351(11) 0.00835 285.8 27.5
302(9) 0.01030 285.8 28.1
297(9) 0.01128 285.8 28.5
328(9) 0.01028 285.8 29.0
334(10) 0.00980 285.8 29.5
319(10) 0.00953 285.9 30.0
314(9) 0.01019 285.9 30.5
308(9) 0.01071 285.9 30.9
312(9) 0.01086 285.9 31.4
295(9) 0.01069 285.9 31.8
309(10) 0.00982 285.9 32.3
330(10) 0.00994 286.0 32.8
304(9) 0.01090 286.0 33.2
335(9) 0.01008 286.0 33.7
315(9) 0.01012 286.0 34.2
317(10) 0.00938 286.0 34.7
325(10) 0.00965 286.1 35.1
314(9) 0.01066 286.1 35.6
339(10) 0.00995 286.1 36.1
325(10) 0.00942 286.1 36.5
316(10) 0.00946 286.1 36.9
312(9) 0.01015 286.1 37.3
296(9) 0.01129 286.2 37.6
299(9) 0.01110 286.2 37.9
338(10) 0.00930 286.2 38.2
309(10) 0.00995 286.2 38.4
313(10) 0.00971 286.2 38.6
307(9) 0.01096 286.3 38.8
316(9) 0.01065 286.3 38.8
324(10) 0.00981 286.3 38.9
327(10) 0.00944 286.3 38.9
322(10) 0.00989 286.3 38.8
344(10) 0.00989 286.3 38.8
325(10) 0.00993 286.4 38.7
342(10) 0.00919 286.4 38.6
338(10) 0.00914 286.4 38.5
348(10) 0.00894 286.4 38.3
333(9) 0.01025 286.4 38.2
347(10) 0.00927 286.5 38.1
319(10) 0.00958 286.5 37.9
309(9) 0.01020 286.5 37.8
323(9) 0.01021 286.5 37.7
301(9) 0.01109 286.5 37.7
334(10) 0.00927 286.5 37.6
337(10) 0.00894 286.6 37.6
340(10) 0.00902 286.6 37.7
313(9) 0.01037 286.6 37.7
308(9) 0.01094 286.6 37.8
313(10) 0.00979 286.6 37.9
337(10) 0.00877 286.7 38.1
310(9) 0.01022 286.7 38.2
325(10) 0.00991 286.7 38.5
336(9) 0.01012 286.7 38.7
343(10) 0.00945 286.7 39.0
332(10) 0.00930 286.7 39.4
341(10) 0.00934 286.8 39.7
348(10) 0.00971 286.8 40.1
344(10) 0.00991 286.8 40.6
301(9) 0.01057 286.8 41.1
323(10) 0.00896 286.8 41.7
333(10) 0.00948 286.9 42.3
318(9) 0.01057 286.9 43.0
335(9) 0.01016 286.9 43.7
329(10) 0.00962 286.9 44.5
336(10) 0.00900 286.9 45.4
320(10) 0.00982 287.0 46.3
318(9) 0.01066 287.0 47.4
343(10) 0.00971 287.0 48.5
311(9) 0.01032 287.0 49.8
311(10) 0.00960 287.0 51.1
322(10) 0.00987 287.0 52.6
334(9) 0.01010 287.1 54.2
369(10) 0.00895 287.1 55.8
344(10) 0.00895 287.1 57.6
336(10) 0.00890 287.1 59.4
327(10) 0.00951 287.1 61.3
350(10) 0.00970 287.2 63.1
350(10) 0.00952 287.2 64.9
368(10) 0.00866 287.2 66.6
377(11) 0.00822 287.2 68.1
355(10) 0.00874 287.2 69.2
360(10) 0.00949 287.2 70.0
359(10) 0.00885 287.3 70.3
355(10) 0.00854 287.3 70.1
348(10) 0.00876 287.3 69.4
332(10) 0.00973 287.3 68.2
368(10) 0.00921 287.3 66.5
342(10) 0.00949 287.4 64.5
339(10) 0.00898 287.4 62.2
340(10) 0.00916 287.4 59.6
344(10) 0.00948 287.4 57.0
322(9) 0.01045 287.4 54.3
340(10) 0.00931 287.4 51.7
343(10) 0.00888 287.5 49.1
315(10) 0.01005 287.5 46.6
325(9) 0.01012 287.5 44.2
367(10) 0.00921 287.5 42.0
330(10) 0.00961 287.5 39.9
332(10) 0.00915 287.6 37.9
302(9) 0.01064 287.6 36.1
327(9) 0.01010 287.6 34.4
342(10) 0.00999 287.6 32.9
321(10) 0.00976 287.6 31.5
304(10) 0.00991 287.6 30.1
320(10) 0.00953 287.7 28.9
320(9) 0.01065 287.7 27.8
319(9) 0.01049 287.7 26.8
300(9) 0.01054 287.7 25.9
307(10) 0.00930 287.7 25.0
285(9) 0.01090 287.8 24.2
333(10) 0.01001 287.8 23.5
306(9) 0.01088 287.8 22.9
308(9) 0.01008 287.8 22.2
336(10) 0.00840 287.8 21.7
324(10) 0.00990 287.8 21.2
330(9) 0.01014 287.9 20.7
340(10) 0.00998 287.9 20.2
317(9) 0.01026 287.9 19.8
319(10) 0.00938 287.9 19.4
296(9) 0.01091 287.9 19.1
318(9) 0.01059 288.0 18.8
297(9) 0.01109 288.0 18.5
313(10) 0.01000 288.0 18.2
304(10) 0.00995 288.0 17.9
304(9) 0.01014 288.0 17.7
305(9) 0.01106 288.0 17.4
329(10) 0.00985 288.1 17.2
305(9) 0.01044 288.1 17.0
324(10) 0.00971 288.1 16.8
331(10) 0.00971 288.1 16.7
307(9) 0.01088 288.1 16.5
327(10) 0.00985 288.2 16.4
300(9) 0.01039 288.2 16.2
301(9) 0.01046 288.2 16.1
312(9) 0.01044 288.2 16.0
288(9) 0.01156 288.2 15.9
315(10) 0.01004 288.3 15.8
297(9) 0.01049 288.3 15.7
345(10) 0.00888 288.3 15.7
313(9) 0.01044 288.3 15.6
321(9) 0.01040 288.3 15.5
286(9) 0.01109 288.3 15.5
305(9) 0.01010 288.4 15.5
312(10) 0.01004 288.4 15.4
309(9) 0.01030 288.4 15.4
302(9) 0.01111 288.4 15.4
307(10) 0.00999 288.4 15.4
315(10) 0.00993 288.5 15.4
292(9) 0.01099 288.5 15.4
303(9) 0.01075 288.5 15.5
305(9) 0.01107 288.5 15.5
293(9) 0.01079 288.5 15.5
308(10) 0.00969 288.5 15.6
287(9) 0.01082 288.6 15.6
322(9) 0.01046 288.6 15.7
314(9) 0.01074 288.6 15.8
308(9) 0.01020 288.6 15.9
302(9) 0.01011 288.6 16.0
322(10) 0.00973 288.7 16.1
289(9) 0.01133 288.7 16.2
297(9) 0.01126 288.7 16.3
324(10) 0.00987 288.7 16.5
331(10) 0.00900 288.7 16.6
297(9) 0.01051 288.7 16.8
282(9) 0.01172 288.8 17.0
308(9) 0.01086 288.8 17.1
319(10) 0.00997 288.8 17.3
327(10) 0.00875 288.8 17.6
290(9) 0.01083 288.8 17.8
279(9) 0.01180 288.9 18.0
299(9) 0.01099 288.9 18.2
308(9) 0.01062 288.9 18.5
326(10) 0.00877 288.9 18.7
306(10) 0.00966 288.9 18.9
311(9) 0.01092 288.9 19.1
333(10) 0.00999 289.0 19.3
317(10) 0.01001 289.0 19.5
316(10) 0.00944 289.0 19.6
304(9) 0.01018 289.0 19.7
314(9) 0.01067 289.0 19.7
292(9) 0.01118 289.1 19.7
318(10) 0.00972 289.1 19.6
326(10) 0.00902 289.1 19.5
308(9) 0.01035 289.1 19.3
314(9) 0.01073 289.1 19.0
313(10) 0.01005 289.1 18.8
304(9) 0.01030 289.2 18.4
332(10) 0.00902 289.2 18.1
302(9) 0.01039 289.2 17.7
304(9) 0.01102 289.2 17.3
303(9) 0.01059 289.2 16.9
299(9) 0.01040 289.3 16.4
296(9) 0.01070 289.3 16.0
300(9) 0.01095 289.3 15.6
306(9) 0.01089 289.3 15.1
301(9) 0.01009 289.3 14.7
332(10) 0.00913 289.4 14.3
314(9) 0.01017 289.4 13.9
314(9) 0.01053 289.4 13.6
325(9) 0.01040 289.4 13.2
331(10) 0.00939 289.4 12.9
321(10) 0.00947 289.4 12.5
302(9) 0.01045 289.5 12.2
306(9) 0.01075 289.5 11.9
305(9) 0.01108 289.5 11.7
290(9) 0.01107 289.5 11.4
308(10) 0.00950 289.5 11.1
310(10) 0.00993 289.6 10.9
332(10) 0.00999 289.6 10.7
310(9) 0.01102 289.6 10.5
313(9) 0.01038 289.6 10.2
320(10) 0.00922 289.6 10.1
301(9) 0.01040 289.6 9.9
309(9) 0.01093 289.7 9.7
297(9) 0.01128 289.7 9.5
306(10) 0.00986 289.7 9.4
292(9) 0.01015 289.7 9.2
307(9) 0.01059 289.7 9.1
316(9) 0.01059 289.8 9.0
318(9) 0.01052 289.8 8.8
306(9) 0.01035 289.8 8.7
319(10) 0.00917 289.8 8.6
324(10) 0.00980 289.8 8.5
285(9) 0.01170 289.8 8.4
300(9) 0.01085 289.9 8.3
295(9) 0.01063 289.9 8.2
295(9) 0.01066 289.9 8.1
298(9) 0.01047 289.9 8.1
295(9) 0.01138 289.9 8.0
313(9) 0.01038 290.0 7.9
317(10) 0.00953 290.0 7.9
299(10) 0.00982 290.0 7.8
280(9) 0.01045 290.0 7.8
284(9) 0.01177 290.0 7.7
310(9) 0.01041 290.0 7.7
314(10) 0.01007 290.1 7.7
299(9) 0.01030 290.1 7.6
299(9) 0.01057 290.1 7.6
295(9) 0.01123 290.1 7.6
323(10) 0.01002 290.1 7.6
310(10) 0.00991 290.2 7.5
290(9) 0.01089 290.2 7.5
306(9) 0.01069 290.2 7.5
309(9) 0.01092 290.2 7.5
302(9) 0.01072 290.2 7.5
316(9) 0.01009 290.2 7.5
319(10) 0.00991 290.3 7.4
303(9) 0.01089 290.3 7.4
293(9) 0.01136 290.3 7.4
286(9) 0.01076 290.3 7.4
301(10) 0.00977 290.3 7.3
289(9) 0.01079 290.4 7.3
289(9) 0.01141 290.4 7.3
297(9) 0.01128 290.4 7.3
334(10) 0.00937 290.4 7.2
303(10) 0.00978 290.4 7.2
285(9) 0.01127 290.4 7.2
300(9) 0.01078 290.5 7.2
306(9) 0.01091 290.5 7.2
326(10) 0.00986 290.5 7.2
323(10) 0.00929 290.5 7.2
293(9) 0.01078 290.5 7.2
307(9) 0.01103 290.6 7.2
297(9) 0.01116 290.6 7.2
317(10) 0.00999 290.6 7.2
296(10) 0.00995 290.6 7.2
298(9) 0.01099 290.6 7.2
303(9) 0.01112 290.7 7.2
319(9) 0.01036 290.7 7.3
313(9) 0.01014 290.7 7.3
305(10) 0.00999 290.7 7.3
318(10) 0.00962 290.7 7.4
312(9) 0.01093 290.7 7.4
300(9) 0.01074 290.8 7.4
268(9) 0.01194 290.8 7.5
298(9) 0.01037 290.8 7.5
313(10) 0.00974 290.8 7.6
302(9) 0.01106 290.8 7.7
301(9) 0.01080 290.9 7.7
295(9) 0.01065 290.9 7.8
302(9) 0.01013 290.9 7.8
289(9) 0.01103 290.9 7.9
273(9) 0.01225 290.9 7.9
311(9) 0.01043 290.9 8.0
285(9) 0.01116 291.0 8.1
303(9) 0.01017 291.0 8.1
313(9) 0.01050 291.0 8.2
295(9) 0.01130 291.0 8.2
312(10) 0.01005 291.0 8.3
324(10) 0.00966 291.0 8.3
305(9) 0.01054 291.0 8.4
308(9) 0.01039 291.0 8.4
308(9) 0.01078 291.0 8.5
306(9) 0.01044 291.0 8.5
284(9) 0.01060 291.0 8.5
277(9) 0.01136 291.0 8.6
277(9) 0.01154 291.0 8.6
293(9) 0.01129 291.0 8.6
298(9) 0.01063 291.0 8.6
275(9) 0.01091 291.0 8.7
313(10) 0.00962 291.0 8.7
291(9) 0.01140 291.0 8.7
295(9) 0.01122 291.0 8.7
296(9) 0.01078 291.0 8.7
312(10) 0.00960 291.0 8.7
309(9) 0.01034 291.0 8.7
304(9) 0.01081 291.0 8.7
289(9) 0.01165 291.0 8.7
309(10) 0.01008 291.0 8.7
305(10) 0.00963 291.0 8.6
303(9) 0.01055 290.9 8.6
333(9) 0.01019 290.9 8.6
317(9) 0.01062 290.9 8.6
314(9) 0.01039 290.9 8.5
307(10) 0.00975 290.9 8.5
304(9) 0.01034 290.9 8.4
292(9) 0.01146 290.9 8.4
304(9) 0.01098 290.9 8.4
289(9) 0.01068 290.9 8.3
296(9) 0.01011 290.9 8.3
322(10) 0.00957 290.9 8.2
315(9) 0.01071 290.9 8.2
332(10) 0.00993 290.9 8.1
307(9) 0.01044 290.9 8.1
316(10) 0.00971 290.9 8.0
313(10) 0.01003 290.9 7.9
295(9) 0.01124 290.9 7.9
276(9) 0.01163 290.9 7.8
307(10) 0.00996 290.9 7.8
304(10) 0.00966 290.9 7.7
300(9) 0.01038 290.9 7.7
298(9) 0.01124 290.9 7.6
305(9) 0.01062 290.9 7.6
306(10) 0.00997 290.9 7.5
280(9) 0.01085 290.9 7.5
298(9) 0.01086 290.9 7.4
311(9) 0.01085 290.9 7.4
310(9) 0.01032 290.9 7.3
319(10) 0.00948 290.9 7.3
332(10) 0.00895 290.9 7.2
314(9) 0.01028 290.9 7.2
319(9) 0.01057 290.8 7.1
298(9) 0.01047 290.8 7.1
280(9) 0.01152 290.8 7.0
279(9) 0.01125 290.8 7.0
295(9) 0.01103 290.8 6.9
297(9) 0.01123 290.8 6.9
320(10) 0.00993 290.8 6.8
303(10) 0.00974 290.8 6.8
313(10) 0.00984 290.8 6.8
307(9) 0.01087 290.8 6.7
299(9) 0.01121 290.8 6.7
309(9) 0.01024 290.8 6.6
299(9) 0.01012 290.8 6.6
320(10) 0.00949 290.8 6.6
313(9) 0.01053 290.8 6.6
301(9) 0.01101 290.8 6.5
302(9) 0.01025 290.8 6.5
299(10) 0.01002 290.8 6.5
299(9) 0.01054 290.8 6.4
294(9) 0.01132 290.8 6.4
317(9) 0.01052 290.8 6.4
297(9) 0.01094 290.8 6.4
301(10) 0.00962 290.8 6.4
287(9) 0.01079 290.8 6.4
308(9) 0.01078 290.8 6.4
302(9) 0.01060 290.8 6.3
294(9) 0.01042 290.8 6.3
304(10) 0.00978 290.8 6.3
303(9) 0.01022 290.8 6.3
280(9) 0.01193 290.8 6.3
300(9) 0.01078 290.8 6.3
283(9) 0.01085 290.8 6.4
291(9) 0.01042 290.7 6.4
307(9) 0.01042 290.7 6.4
317(9) 0.01058 290.7 6.4
281(9) 0.01190 290.7 6.4
329(10) 0.00897 290.7 6.4
286(10) 0.01001 290.7 6.5
273(9) 0.01117 290.7 6.5
315(9) 0.01072 290.7 6.5
324(10) 0.00995 290.7 6.6
289(9) 0.01080 290.7 6.6
317(10) 0.00940 290.7 6.7
296(9) 0.01029 290.7 6.7
296(9) 0.01119 290.7 6.8
286(9) 0.01157 290.7 6.8
282(9) 0.01076 290.7 6.9
290(9) 0.01052 290.7 7.0
324(10) 0.00981 290.7 7.1
307(9) 0.01080 290.7 7.1
304(9) 0.01065 290.7 7.2
313(9) 0.01009 290.7 7.3
328(10) 0.00976 290.7 7.4
288(9) 0.01098 290.7 7.5
296(9) 0.01112 290.7 7.7
301(9) 0.01041 290.7 7.8
301(9) 0.01036 290.7 7.9
297(9) 0.01084 290.7 8.1
305(9) 0.01064 290.7 8.2
270(9) 0.01225 290.7 8.4
306(10) 0.01004 290.7 8.6
280(9) 0.01087 290.7 8.8
328(10) 0.00983 290.7 9.0
305(9) 0.01093 290.7 9.2
305(9) 0.01099 290.6 9.4
328(10) 0.00954 290.6 9.6
322(10) 0.00944 290.6 9.9
280(9) 0.01119 290.6 10.1
316(9) 0.01031 290.6 10.4
318(9) 0.01064 290.6 10.7
315(10) 0.01001 290.6 11.0
340(10) 0.00847 290.6 11.3
316(10) 0.00973 290.6 11.7
312(9) 0.01076 290.6 12.0
319(9) 0.01021 290.6 12.4
309(9) 0.01047 290.6 12.8
320(10) 0.00925 290.6 13.1
306(9) 0.01032 290.6 13.5
305(9) 0.01117 290.6 13.9
304(9) 0.01084 290.6 14.2
302(9) 0.01046 290.6 14.6
300(10) 0.01005 290.6 14.9
276(9) 0.01154 290.6 15.2
311(9) 0.01066 290.6 15.5
317(9) 0.01048 290.6 15.7
299(9) 0.01076 290.6 15.9
285(9) 0.01072 290.6 16.0
282(9) 0.01069 290.6 16.1
293(9) 0.01150 290.6 16.2
282(9) 0.01159 290.6 16.2
303(9) 0.01008 290.6 16.1
296(10) 0.00986 290.6 16.0
301(9) 0.01040 290.6 15.8
322(9) 0.01049 290.6 15.6
296(9) 0.01083 290.6 15.4
279(9) 0.01134 290.5 15.2
271(9) 0.01144 290.5 14.9
300(9) 0.01035 290.5 14.6
316(9) 0.01065 290.5 14.4
296(9) 0.01075 290.5 14.1
306(10) 0.00994 290.5 13.8
300(9) 0.01027 290.5 13.6
307(9) 0.01048 290.5 13.3
300(9) 0.01125 290.5 13.1
303(9) 0.01027 290.5 12.9
281(9) 0.01058 290.5 12.7
301(9) 0.01029 290.5 12.5
305(9) 0.01063 290.5 12.3
314(9) 0.01066 290.5 12.2
326(10) 0.00962 290.5 12.1
323(10) 0.00944 290.5 12.0
318(10) 0.01000 290.5 11.9
300(9) 0.01131 290.5 11.8
310(9) 0.01075 290.5 11.8
317(9) 0.01017 290.5 11.7
326(10) 0.00926 290.5 11.7
308(10) 0.00998 290.5 11.7
296(9) 0.01116 290.5 11.7
315(9) 0.01073 290.5 11.8
325(10) 0.00969 290.5 11.8
298(10) 0.00990 290.5 11.9
315(10) 0.01000 290.5 12.0
330(9) 0.01008 290.5 12.1
304(9) 0.01093 290.5 12.2
293(9) 0.01047 290.5 12.4
300(10) 0.00962 290.5 12.5
316(10) 0.01006 290.5 12.7
310(9) 0.01074 290.4 12.9
286(9) 0.01162 290.4 13.1
328(10) 0.00932 290.4 13.4
308(10) 0.00965 290.4 13.6
302(9) 0.01041 290.4 13.9
315(9) 0.01072 290.4 14.3
319(9) 0.01034 290.4 14.6
288(9) 0.01095 290.4 15.0
305(10) 0.00984 290.4 15.4
297(9) 0.01059 290.4 15.9
336(10) 0.01006 290.4 16.3
335(10) 0.00982 290.4 16.9
338(10) 0.00906 290.4 17.4
303(10) 0.00987 290.4 18.0
327(10) 0.00955 290.4 18.7
311(9) 0.01075 290.4 19.4
327(10) 0.00998 290.4 20.1
342(10) 0.00896 290.4 20.8
347(10) 0.00889 290.4 21.6
331(10) 0.00959 290.4 22.5
311(9) 0.01084 290.4 23.3
324(10) 0.00972 290.4 24.2
307(9) 0.01015 290.4 25.1
340(10) 0.00907 290.4 25.9
314(9) 0.01039 290.4 26.7
320(9) 0.01046 290.4 27.5
348(10) 0.00893 290.4 28.2
323(10) 0.00949 290.4 28.8
339(10) 0.00912 290.4 29.2
319(9) 0.01017 290.4 29.5
332(9) 0.01023 290.4 29.7
339(10) 0.00942 290.4 29.6
298(9) 0.01069 290.3 29.4
323(10) 0.00980 290.3 29.1
319(9) 0.01053 290.3 28.6
327(9) 0.01020 290.3 28.0
334(10) 0.00962 290.3 27.2
337(10) 0.00901 290.3 26.4
301(9) 0.01054 290.3 25.5
287(9) 0.01155 290.3 24.5
309(9) 0.01091 290.3 23.6
302(9) 0.01075 290.3 22.6
327(10) 0.00916 290.3 21.7
289(9) 0.01091 290.3 20.7
287(9) 0.01150 290.3 19.8
338(10) 0.00997 290.3 19.0
319(9) 0.01008 290.3 18.2
300(10) 0.00968 290.3 17.4
310(10) 0.00944 290.3 16.6
296(9) 0.01138 290.3 16.0
321(9) 0.01040 290.3 15.3
314(9) 0.01013 290.3 14.7
304(10) 0.00982 290.3 14.2
302(9) 0.01059 290.3 13.6
315(9) 0.01065 290.3 13.2
308(9) 0.01071 290.3 12.7
286(9) 0.01125 290.3 12.3
318(10) 0.00931 290.3 12.0
293(9) 0.01073 290.3 11.6
263(8) 0.01262 290.3 11.3
295(9) 0.01112 290.3 11.0
302(9) 0.01051 290.3 10.8
305(9) 0.01016 290.3 10.5
292(9) 0.01101 290.2 10.3
290(9) 0.01151 290.2 10.1
327(10) 0.00984 290.2 9.9
294(9) 0.01076 290.2 9.8
320(10) 0.00954 290.2 9.6
308(9) 0.01042 290.2 9.5
281(9) 0.01180 290.2 9.4
311(9) 0.01037 290.2 9.2
296(9) 0.01073 290.2 9.1
307(9) 0.01014 290.2 9.0
287(9) 0.01114 290.2 9.0
320(9) 0.01050 290.2 8.9
304(9) 0.01045 290.2 8.8
324(10) 0.00915 290.2 8.7
310(10) 0.01007 290.2 8.6
290(9) 0.01140 290.2 8.5
309(9) 0.01074 290.2 8.5
291(9) 0.01067 290.2 8.4
293(9) 0.01024 290.2 8.3
322(10) 0.00952 290.2 8.2
308(9) 0.01043 290.2 8.1
300(9) 0.01122 290.2 8.1
321(10) 0.01005 290.2 8.0
282(9) 0.01081 290.2 7.9
306(10) 0.01007 290.2 7.8
315(9) 0.01050 290.2 7.7
292(9) 0.01159 290.2 7.6
325(10) 0.00967 290.2 7.6
302(10) 0.00976 290.2 7.5
281(9) 0.01131 290.2 7.4
286(9) 0.01157 290.2 7.3
307(9) 0.01083 290.2 7.2
322(10) 0.00985 290.1 7.2
318(10) 0.00942 290.1 7.1
308(9) 0.01039 290.1 7.0
281(9) 0.01157 290.1 7.0
311(9) 0.01062 290.1 6.9
304(9) 0.01062 290.1 6.8
304(10) 0.00998 290.1 6.8
297(9) 0.01070 290.1 6.7
285(9) 0.01160 290.1 6.7
288(9) 0.01150 290.1 6.7
301(9) 0.01047 290.1 6.6
297(9) 0.01042 290.1 6.6
309(9) 0.01033 290.1 6.6
301(9) 0.01105 290.1 6.6
292(9) 0.01106 290.1 6.6
310(9) 0.01022 290.1 6.5
285(9) 0.01093 290.1 6.5
283(9) 0.01084 290.1 6.5
311(9) 0.01072 290.1 6.5
306(9) 0.01083 290.1 6.6
315(9) 0.01034 290.1 6.6
326(10) 0.00932 290.1 6.6
296(9) 0.01072 290.1 6.6
285(9) 0.01163 290.1 6.7
324(10) 0.00978 290.1 6.7
295(9) 0.01068 290.1 6.8
292(9) 0.01047 290.1 6.8
291(9) 0.01100 290.1 6.9
315(9) 0.01076 290.1 6.9
305(9) 0.01038 290.1 7.0
290(9) 0.01042 290.1 7.1
306(10) 0.00998 290.1 7.2
308(9) 0.01039 290.0 7.3
294(9) 0.01128 290.0 7.4
296(9) 0.01058 290.0 7.5
297(9) 0.01012 290.0 7.7
283(9) 0.01117 290.0 7.8
309(9) 0.01061 290.0 8.0
307(9) 0.01083 290.0 8.2
301(9) 0.01030 290.0 8.4
309(10) 0.00998 290.0 8.6
313(10) 0.00988 290.0 8.9
293(9) 0.01114 290.0 9.2
292(9) 0.01144 290.0 9.5
297(9) 0.01041 290.0 9.8
309(10) 0.00980 290.0 10.2
301(9) 0.01048 290.0 10.6
320(9) 0.01047 290.0 11.0
311(9) 0.01085 290.0 11.4
296(9) 0.01083 290.0 11.9
303(10) 0.00976 290.0 12.5
294(9) 0.01088 290.0 13.0
309(9) 0.01083 290.0 13.6
294(9) 0.01128 290.0 14.2
339(10) 0.00929 290.0 14.9
353(11) 0.00829 290.0 15.5
303(9) 0.01080 290.0 16.1
322(9) 0.01036 290.0 16.7
321(9) 0.01049 290.0 17.3
329(10) 0.00975 290.0 17.8
321(10) 0.00942 290.0 18.2
333(10) 0.00933 290.0 18.5
307(9) 0.01105 290.0 18.7
312(9) 0.01045 289.9 18.7
313(9) 0.01018 289.9 18.7
309(10) 0.01001 289.9 18.6
328(10) 0.00955 289.9 18.5
322(9) 0.01031 289.9 18.3
282(9) 0.01148 289.9 18.0
287(9) 0.01084 289.9 17.8
316(10) 0.00992 289.9 17.6
322(10) 0.01004 289.9 17.4
325(9) 0.01028 289.9 17.2
314(9) 0.01032 289.9 17.1
302(9) 0.01031 289.9 17.0
317(10) 0.00990 289.9 16.9
330(10) 0.00960 289.9 16.9
325(9) 0.01027 289.9 16.9
328(10) 0.00947 289.9 16.9
327(10) 0.00914 289.9 17.0
322(10) 0.00942 289.9 17.1
338(10) 0.00952 289.9 17.2
307(9) 0.01091 289.9 17.3
303(9) 0.01059 289.9 17.5
308(9) 0.01009 289.9 17.7
287(9) 0.01104 289.9 17.9
318(9) 0.01031 289.9 18.0
323(9) 0.01040 289.9 18.2
304(9) 0.01029 289.9 18.4
335(10) 0.00908 289.9 18.6
331(10) 0.00979 289.9 18.7
321(9) 0.01032 289.9 18.9
319(9) 0.01048 289.9 19.0
321(10) 0.00986 289.9 19.1
325(10) 0.00938 289.9 19.2
319(10) 0.01004 289.8 19.2
327(9) 0.01013 289.8 19.3
342(10) 0.00998 289.8 19.3
337(10) 0.00969 289.8 19.3
332(10) 0.00900 289.8 19.3
324(10) 0.00959 289.8 19.2
307(9) 0.01059 289.8 19.2
297(9) 0.01125 289.8 19.1
321(10) 0.00983 289.8 19.0
327(10) 0.00898 289.8 18.9
319(10) 0.00973 289.8 18.8
308(9) 0.01105 289.8 18.8
322(9) 0.01023 289.8 18.7
339(10) 0.00955 289.8 18.6
322(10) 0.00928 289.8 18.5
324(10) 0.00972 289.8 18.5
333(9) 0.01010 289.8 18.4
304(9) 0.01079 289.8 18.4
302(9) 0.01026 289.8 18.4
303(10) 0.00992 289.8 18.4
317(10) 0.00977 289.8 18.4
325(9) 0.01034 289.8 18.4
318(9) 0.01039 289.8 18.5
326(10) 0.00995 289.8 18.6
328(10) 0.00962 289.8 18.7
328(10) 0.00947 289.8 18.8
331(9) 0.01018 289.8 18.9
306(9) 0.01083 289.8 19.1
331(10) 0.00966 289.8 19.3
335(10) 0.00903 289.8 19.5
303(9) 0.01073 289.8 19.8
320(9) 0.01050 289.8 20.1
316(9) 0.01013 289.7 20.4
318(10) 0.00944 289.7 20.7
309(9) 0.01018 289.7 21.0
326(10) 0.01001 289.7 21.4
348(10) 0.00975 289.7 21.7
329(10) 0.00966 289.7 22.1
340(10) 0.00911 289.7 22.4
321(10) 0.00975 289.7 22.7
306(9) 0.01087 289.7 23.0
322(9) 0.01037 289.7 23.2
315(10) 0.00991 289.7 23.3
296(9) 0.01030 289.7 23.4
317(10) 0.00979 289.7 23.3
324(9) 0.01028 289.7 23.2
328(9) 0.01026 289.7 23.0
340(10) 0.00946 289.7 22.7
302(10) 0.00992 289.7 22.3
320(10) 0.00966 289.7 21.9
325(9) 0.01015 289.7 21.4
338(10) 0.00986 289.7 20.9
316(9) 0.01009 289.7 20.3
304(10) 0.00980 289.7 19.7
330(10) 0.00932 289.7 19.1
311(9) 0.01085 289.7 18.6
322(9) 0.01043 289.7 18.0
331(10) 0.00955 289.7 17.5
294(10) 0.01002 289.7 16.9
290(9) 0.01089 289.7 16.5
300(9) 0.01085 289.7 16.0
289(9) 0.01143 289.7 15.6
296(9) 0.01092 289.7 15.2
296(9) 0.01032 289.6 14.8
323(10) 0.00977 289.6 14.4
318(9) 0.01057 289.6 14.1
302(9) 0.01088 289.6 13.8
327(10) 0.00972 289.6 13.6
326(10) 0.00933 289.6 13.4
286(9) 0.01062 289.6 13.2
305(9) 0.01093 289.6 13.0
339(10) 0.00951 289.6 12.9
288(9) 0.01127 289.6 12.7
323(10) 0.00943 289.6 12.7
318(10) 0.01005 289.6 12.6
317(9) 0.01057 289.6 12.6
314(9) 0.01013 289.6 12.6
331(10) 0.00923 289.6 12.6
319(10) 0.00933 289.6 12.7
310(9) 0.01010 289.6 12.8
284(9) 0.01172 289.6 12.9
304(9) 0.01073 289.6 13.0
310(10) 0.01005 289.6 13.2
292(9) 0.01081 289.6 13.4
310(9) 0.01047 289.6 13.7
317(9) 0.01060 289.6 14.0
301(9) 0.01082 289.6 14.4
303(9) 0.01043 289.6 14.8
296(9) 0.01088 289.6 15.2
293(9) 0.01122 289.6 15.7
326(9) 0.01032 289.6 16.2
347(10) 0.00919 289.6 16.8
301(9) 0.01023 289.6 17.4
299(9) 0.01044 289.6 18.1
302(9) 0.01093 289.6 18.8
332(9) 0.01014 289.5 19.5
319(9) 0.01023 289.5 20.3
304(10) 0.00984 289.5 21.1
295(9) 0.01029 289.5 21.9
327(9) 0.01030 289.5 22.6
315(9) 0.01069 289.5 23.3
316(10) 0.00984 289.5 24.0
299(10) 0.00993 289.5 24.6
306(10) 0.01001 289.5 25.0
306(9) 0.01057 289.5 25.3
293(9) 0.01144 289.5 25.5
320(10) 0.00992 289.5 25.5
341(10) 0.00858 289.5 25.4
314(9) 0.01022 289.5 25.0
315(9) 0.01069 289.5 24.6
323(9) 0.01028 289.5 24.0
332(10) 0.00937 289.5 23.3
292(9) 0.01041 289.5 22.6
304(9) 0.01036 289.5 21.8
298(9) 0.01126 289.5 21.0
304(9) 0.01093 289.5 20.2
308(9) 0.01009 289.5 19.4
314(10) 0.00973 289.5 18.6
277(9) 0.01191 289.5 17.8
323(9) 0.01039 289.5 17.1
329(9) 0.01019 289.5 16.4
316(10) 0.00992 289.5 15.8
312(10) 0.01003 289.5 15.2
318(9) 0.01013 289.5 14.7
298(9) 0.01116 289.5 14.2
289(9) 0.01139 289.5 13.8
309(9) 0.01009 289.5 13.4
304(9) 0.01053 289.4 13.0
336(10) 0.00946 289.4 12.7
306(9) 0.01098 289.4 12.4
293(9) 0.01074 289.4 12.1
283(9) 0.01116 289.4 11.9
331(10) 0.00948 289.4 11.8
315(9) 0.01021 289.4 11.6
308(9) 0.01091 289.4 11.5
294(9) 0.01106 289.4 11.4
320(10) 0.00950 289.4 11.4
308(10) 0.00989 289.4 11.4
274(9) 0.01168 289.4 11.5
311(9) 0.01077 289.4 11.6
298(9) 0.01042 289.4 11.7
277(9) 0.01078 289.4 11.9
292(9) 0.01060 289.4 12.1
316(9) 0.01032 289.4 12.4
318(9) 0.01064 289.4 12.7
292(9) 0.01091 289.4 13.1
290(10) 0.00997 289.4 13.6
306(10) 0.01006 289.4 14.1
321(9) 0.01035 289.4 14.7
295(9) 0.01148 289.4 15.3
306(9) 0.01025 289.4 15.9
285(9) 0.01101 289.4 16.6
337(10) 0.00943 289.4 17.3
303(9) 0.01100 289.4 17.8
295(9) 0.01156 289.4 18.4
297(9) 0.01076 289.4 18.7
301(10) 0.00987 289.4 19.0
302(9) 0.01040 289.4 19.0
294(9) 0.01121 289.3 18.9
315(9) 0.01052 289.3 18.6
297(9) 0.01079 289.3 18.2
313(10) 0.00911 289.3 17.8
316(10) 0.00969 289.3 17.3
301(9) 0.01112 289.3 16.8
286(9) 0.01165 289.3 16.4
328(10) 0.00967 289.3 15.9
325(10) 0.00939 289.3 15.6
303(9) 0.01028 289.3 15.2
305(9) 0.01108 289.3 15.0
319(9) 0.01047 289.3 14.8
303(10) 0.01000 289.3 14.6
279(9) 0.01076 289.3 14.5
312(10) 0.00976 289.3 14.4
288(9) 0.01155 289.3 14.4
282(9) 0.01148 289.3 14.4
308(9) 0.01038 289.3 14.5
302(9) 0.01051 289.3 14.6
289(9) 0.01104 289.3 14.7
307(9) 0.01085 289.3 14.9
287(9) 0.01148 289.3 15.0
305(9) 0.01015 289.3 15.3
291(9) 0.01068 289.3 15.5
330(10) 0.00990 289.3 15.7
330(9) 0.01025 289.3 16.0
297(9) 0.01089 289.3 16.3
303(9) 0.01036 289.3 16.7
296(9) 0.01071 289.3 17.0
305(9) 0.01055 289.3 17.4
332(9) 0.01010 289.3 17.9
343(10) 0.00928 289.3 18.3
315(10) 0.00988 289.2 18.8
334(10) 0.00909 289.2 19.4
301(9) 0.01096 289.2 20.0
313(9) 0.01061 289.2 20.6
300(9) 0.01061 289.2 21.3
303(9) 0.01036 289.2 22.0
310(9) 0.01035 289.2 22.9
343(10) 0.00944 289.2 23.8
335(9) 0.01009 289.2 24.8
329(10) 0.00937 289.2 25.8
299(9) 0.01047 289.2 27.0
318(10) 0.00987 289.2 28.3
313(9) 0.01061 289.2 29.8
337(9) 0.01015 289.2 31.3
329(10) 0.00968 289.2 33.0
327(10) 0.00912 289.2 34.9
326(10) 0.00992 289.2 37.0
361(10) 0.00919 289.2 39.2
333(9) 0.01020 289.2 41.7
317(10) 0.00972 289.2 44.4
336(10) 0.00848 289.2 47.3
314(9) 0.01029 289.2 50.4
317(9) 0.01067 289.2 53.7
349(10) 0.00968 289.2 57.3
391(11) 0.00799 289.2 61.1
358(10) 0.00845 289.2 65.1
363(10) 0.00887 289.2 69.2
385(10) 0.00891 289.2 73.5
385(10) 0.00878 289.2 77.8
391(10) 0.00839 289.2 82.1
431(12) 0.00708 289.2 86.2
381(10) 0.00861 289.2 90.0
430(11) 0.00798 289.1 93.4
420(11) 0.00782 289.1 96.2
382(10) 0.00870 289.1 98.4
405(11) 0.00774 289.1 99.7
404(11) 0.00776 289.1 100.1
369(10) 0.00924 289.1 99.5
376(10) 0.00890 289.1 98.2
411(11) 0.00750 289.1 96.0
370(10) 0.00865 289.1 93.1
409(11) 0.00787 289.1 89.7
363(10) 0.00933 289.1 85.9
344(10) 0.00957 289.1 81.8
355(10) 0.00908 289.1 77.6
366(10) 0.00878 289.1 73.4
389(11) 0.00828 289.1 69.2
340(10) 0.00981 289.1 65.1
335(10) 0.00954 289.1 61.2
341(10) 0.00888 289.1 57.5
326(10) 0.00969 289.1 53.9
330(10) 0.01000 289.1 50.6
339(10) 0.00995 289.1 47.4
314(10) 0.00975 289.1 44.5
325(10) 0.00906 289.1 41.8
318(9) 0.01021 289.1 39.2
352(10) 0.00966 289.1 36.9
346(10) 0.00972 289.1 34.7
318(10) 0.00981 289.1 32.7
295(10) 0.00996 289.1 30.9
295(9) 0.01049 289.1 29.2
329(9) 0.01023 289.1 27.6
312(9) 0.01076 289.1 26.2
318(10) 0.01005 289.0 24.9
309(10) 0.00954 289.0 23.7
319(10) 0.00999 289.0 22.6
303(9) 0.01111 289.0 21.6
294(9) 0.01135 289.0 20.7
328(10) 0.00982 289.0 19.8
327(10) 0.00902 289.0 19.1
317(9) 0.01010 289.0 18.4
333(9) 0.01018 289.0 17.7
325(9) 0.01040 289.0 17.1
296(9) 0.01087 289.0 16.6
309(10) 0.00947 289.0 16.1
309(10) 0.01004 289.0 15.6
310(9) 0.01098 289.0 15.2
317(9) 0.01033 289.0 14.8
286(9) 0.01114 289.0 14.4
279(9) 0.01114 289.0 14.1
310(9) 0.01037 289.0 13.7
316(9) 0.01057 289.0 13.5
302(9) 0.01079 289.0 13.2
285(9) 0.01144 289.0 13.0
303(9) 0.01019 289.0 12.7
313(9) 0.01009 289.0 12.5
339(10) 0.01001 289.0 12.3
314(9) 0.01021 289.0 12.2
288(9) 0.01101 289.0 12.0
307(10) 0.00995 289.0 11.9
300(9) 0.01040 289.0 11.7
314(9) 0.01071 289.0 11.6
322(10) 0.01004 289.0 11.5
303(9) 0.01061 289.0 11.3
326(10) 0.00952 289.0 11.2
301(9) 0.01062 288.9 11.1
318(9) 0.01068 288.9 11.0
284(9) 0.01099 288.9 10.9
284(9) 0.01096 288.9 10.8
288(9) 0.01069 288.9 10.7
302(9) 0.01026 288.9 10.6
287(9) 0.01167 288.9 10.4
292(9) 0.01091 288.9 10.3
309(10) 0.00969 288.9 10.2
291(9) 0.01056 288.9 10.1
288(9) 0.01123 288.9 10.0
334(10) 0.01003 288.9 9.9
310(10) 0.00991 288.9 9.8
275(9) 0.01083 288.9 9.7
285(9) 0.01095 288.9 9.6
307(9) 0.01064 288.9 9.6
308(9) 0.01091 288.9 9.5
325(10) 0.01005 288.9 9.4
293(9) 0.01086 288.9 9.4
266(9) 0.01171 288.9 9.3
302(9) 0.01079 288.9 9.3
302(9) 0.01106 288.9 9.2
325(10) 0.00978 288.9 9.2
318(10) 0.00930 288.9 9.1
310(9) 0.01054 288.9 9.1
299(9) 0.01121 288.9 9.1
309(9) 0.01085 288.9 9.1
301(9) 0.01036 288.9 9.1
312(10) 0.00948 288.9 9.1
308(9) 0.01020 288.9 9.1
309(9) 0.01070 288.9 9.1
308(9) 0.01086 288.9 9.2
306(9) 0.01037 288.8 9.2
288(9) 0.01039 288.8 9.2
307(9) 0.01017 288.8 9.3
325(9) 0.01040 288.8 9.3
297(9) 0.01088 288.8 9.4
322(10) 0.00961 288.8 9.4
267(9) 0.01132 288.8 9.5
307(10) 0.00992 288.8 9.5
294(9) 0.01137 288.8 9.6
294(9) 0.01108 288.8 9.7
290(9) 0.01087 288.9 9.7
307(10) 0.00980 288.9 9.8
295(9) 0.01100 288.9 9.9
312(9) 0.01080 288.9 10.0
311(9) 0.01035 288.9 10.0
296(9) 0.01033 289.0 10.1
294(9) 0.01010 289.0 10.2
340(10) 0.00945 289.0 10.3
292(9) 0.01137 289.0 10.3
322(10) 0.01006 289.1 10.4
281(9) 0.01136 289.1 10.5
315(10) 0.00955 289.1 10.6
297(9) 0.01097 289.1 10.6
305(9) 0.01086 289.1 10.7
308(10) 0.00996 289.2 10.8
314(10) 0.00990 289.2 10.8
303(9) 0.01049 289.2 10.9
308(9) 0.01074 289.2 10.9
333(9) 0.01015 289.2 11.0
306(9) 0.01047 289.3 11.1
290(9) 0.01035 289.3 11.1
303(9) 0.01068 289.3 11.2
334(10) 0.00985 289.3 11.2
336(9) 0.01022 289.4 11.3
273(9) 0.01175 289.4 11.3
295(10) 0.00992 289.4 11.4
308(9) 0.01026 289.4 11.4
296(9) 0.01123 289.4 11.5
305(9) 0.01099 289.5 11.5
301(9) 0.01057 289.5 11.6
324(10) 0.00902 289.5 11.6
286(9) 0.01114 289.5 11.7
289(9) 0.01150 289.6 11.7
299(9) 0.01103 289.6 11.8
280(9) 0.01172 289.6 11.8
315(10) 0.00921 289.6 11.9
313(9) 0.01018 289.6 11.9
306(9) 0.01089 289.7 12.0
303(9) 0.01075 289.7 12.1
319(10) 0.00971 289.7 12.1
323(10) 0.00902 289.7 12.2
312(10) 0.00998 289.8 12.2
320(9) 0.01047 289.8 12.3
282(9) 0.01152 289.8 12.4
293(9) 0.01087 289.8 12.4
313(10) 0.00939 289.8 12.5
293(9) 0.01087 289.9 12.6
307(9) 0.01092 289.9 12.7
306(9) 0.01047 289.9 12.7
297(9) 0.01051 289.9 12.8
314(10) 0.00965 290.0 12.9
286(9) 0.01115 290.0 13.0
312(9) 0.01075 290.0 13.1
287(9) 0.01126 290.0 13.3
282(9) 0.01121 290.0 13.4
315(10) 0.00938 290.1 13.5
303(9) 0.01023 290.1 13.7
333(9) 0.01018 290.1 13.8
323(10) 0.00984 290.1 14.0
297(9) 0.01028 290.2 14.2
289(9) 0.01100 290.2 14.4
296(9) 0.01065 290.2 14.6
290(9) 0.01166 290.2 14.8
310(9) 0.01033 290.2 15.0
326(10) 0.00944 290.3 15.3
320(10) 0.00973 290.3 15.5
298(9) 0.01076 290.3 15.8
315(9) 0.01066 290.3 16.1
310(9) 0.01012 290.3 16.4
317(10) 0.00966 290.4 16.8
290(9) 0.01084 290.4 17.1
301(9) 0.01065 290.4 17.5
326(9) 0.01035 290.4 17.9
292(9) 0.01107 290.5 18.3
306(10) 0.00986 290.5 18.7
316(10) 0.00995 290.5 19.2
309(9) 0.01091 290.5 19.7
315(9) 0.01053 290.5 20.2
313(10) 0.00993 290.6 20.7
333(10) 0.00885 290.6 21.3
338(10) 0.00935 290.6 21.9
311(9) 0.01076 290.6 22.5
312(9) 0.01074 290.7 23.1
289(9) 0.01083 290.7 23.8
332(10) 0.00866 290.7 24.6
344(10) 0.00943 290.7 25.3
334(9) 0.01020 290.7 26.1
305(9) 0.01078 290.8 27.0
338(10) 0.00943 290.8 27.8
343(10) 0.00886 290.8 28.7
329(10) 0.00939 290.8 29.7
326(9) 0.01039 290.9 30.7
346(10) 0.00958 290.9 31.7
326(10) 0.00970 290.9 32.8
337(10) 0.00907 290.9 33.9
319(10) 0.00999 290.9 35.0
342(10) 0.00996 291.0 36.2
340(10) 0.00991 291.0 37.4
350(10) 0.00891 291.0 38.6
335(10) 0.00911 291.0 39.9
344(10) 0.00919 291.1 41.1
313(9) 0.01078 291.1 42.4
336(10) 0.00961 291.1 43.7
355(10) 0.00876 291.1 44.9
385(11) 0.00794 291.1 46.2
370(10) 0.00882 291.2 47.4
367(10) 0.00938 291.2 48.6
361(10) 0.00911 291.2 49.8
363(10) 0.00863 291.2 50.9
361(10) 0.00869 291.3 52.0
356(10) 0.00898 291.3 53.0
341(10) 0.00991 291.3 53.9
355(10) 0.00897 291.3 54.8
333(10) 0.00934 291.3 55.6
335(10) 0.00964 291.4 56.3
341(10) 0.00980 291.4 56.9
337(10) 0.00992 291.4 57.5
368(10) 0.00862 291.4 58.0
371(11) 0.00835 291.5 58.4
381(11) 0.00832 291.5 58.7
336(9) 0.01011 291.5 59.0
360(10) 0.00946 291.5 59.2
362(10) 0.00922 291.5 59.2
343(10) 0.00922 291.6 59.2
335(10) 0.00957 291.6 59.1
350(10) 0.00963 291.6 58.8
338(10) 0.01005 291.6 58.5
359(10) 0.00873 291.6 58.0
371(11) 0.00791 291.7 57.4
346(10) 0.00915 291.7 56.6
354(10) 0.00945 291.7 55.8
330(9) 0.01023 291.7 54.8
319(9) 0.01025 291.8 53.8
355(10) 0.00855 291.8 52.6
354(10) 0.00894 291.8 51.4
346(10) 0.00971 291.8 50.1
352(10) 0.00963 291.8 48.8
327(10) 0.00957 291.9 47.4
341(10) 0.00864 291.9 46.0
337(10) 0.00961 291.9 44.7
351(10) 0.00965 291.9 43.3
320(9) 0.01048 292.0 42.0
330(10) 0.00969 292.0 40.6
338(10) 0.00881 292.0 39.4
338(10) 0.00930 292.0 38.1
308(9) 0.01089 292.0 36.9
301(9) 0.01107 292.1 35.8
337(10) 0.00937 292.1 34.6
335(10) 0.00890 292.1 33.6
321(10) 0.00985 292.1 32.5
308(9) 0.01080 292.2 31.6
299(9) 0.01090 292.2 30.6
316(10) 0.00981 292.2 29.8
329(10) 0.00915 292.2 28.9
322(10) 0.00992 292.2 28.1
319(9) 0.01051 292.3 27.3
308(9) 0.01035 292.3 26.6
314(9) 0.01012 292.3 25.9
318(10) 0.01001 292.3 25.3
325(10) 0.00987 292.4 24.6
325(9) 0.01042 292.4 24.0
318(10) 0.00968 292.4 23.5
306(10) 0.00987 292.4 22.9
297(9) 0.01103 292.4 22.4
319(9) 0.01042 292.5 21.9
299(9) 0.01119 292.5 21.5
294(9) 0.01060 292.5 21.0
313(10) 0.00977 292.5 20.6
296(9) 0.01025 292.6 20.2
283(9) 0.01144 292.6 19.8
305(9) 0.01097 292.6 19.4
304(9) 0.01054 292.6 19.1
339(10) 0.00929 292.6 18.7
324(9) 0.01033 292.7 18.4
300(9) 0.01127 292.7 18.1
293(9) 0.01131 292.7 17.8
297(9) 0.01065 292.7 17.5
314(10) 0.00963 292.7 17.2
299(9) 0.01078 292.8 16.9
335(10) 0.01004 292.8 16.7
342(10) 0.00985 292.8 16.4
329(10) 0.00939 292.8 16.2
297(10) 0.00984 292.9 15.9
271(9) 0.01173 292.9 15.7
322(9) 0.01041 292.9 15.5
331(9) 0.01012 292.9 15.3
299(9) 0.01015 292.9 15.1
275(9) 0.01032 293.0 14.8
298(10) 0.00996 293.0 14.6
308(9) 0.01094 293.0 14.5
315(9) 0.01052 293.0 14.3
304(9) 0.01011 293.1 14.1
301(10) 0.00995 293.1 13.9
290(9) 0.01085 293.1 13.7
344(10) 0.00968 293.1 13.6
305(9) 0.01089 293.1 13.4
311(10) 0.00997 293.2 13.3
302(10) 0.00988 293.2 13.1
294(9) 0.01063 293.2 12.9
305(9) 0.01086 293.2 12.8
299(9) 0.01118 293.3 12.7
307(10) 0.00999 293.3 12.5
303(10) 0.00991 293.3 12.4
302(9) 0.01008 293.3 12.2
306(9) 0.01100 293.3 12.1
291(9) 0.01104 293.4 12.0
315(10) 0.00974 293.4 11.9
266(9) 0.01206 293.4 11.8
327(10) 0.00990 293.4 11.6
311(9) 0.01077 293.5 11.5
304(10) 0.01000 293.5 11.4
281(9) 0.01070 293.5 11.3
305(10) 0.01003 293.5 11.2
311(9) 0.01059 293.5 11.1
293(9) 0.01137 293.6 11.0
319(10) 0.00988 293.6 10.9
298(9) 0.01032 293.6 10.8
297(9) 0.01064 293.6 10.7
290(9) 0.01142 293.7 10.6
327(9) 0.01030 293.7 10.6
287(9) 0.01100 293.7 10.5
301(10) 0.00998 293.7 10.4
310(10) 0.00978 293.7 10.3
287(9) 0.01135 293.8 10.3
301(9) 0.01105 293.8 10.2
295(9) 0.01058 293.8 10.1
316(10) 0.00959 293.8 10.1
289(9) 0.01096 293.8 10.0
309(9) 0.01089 293.9 10.0
300(9) 0.01104 293.9 9.9
292(9) 0.01057 293.9 9.9
302(10) 0.00955 293.9 9.8
291(9) 0.01047 294.0 9.8
273(9) 0.01181 294.0 9.7
297(9) 0.01137 294.0 9.7
304(9) 0.01038 294.0 9.7
303(10) 0.00938 294.0 9.6
284(9) 0.01099 294.1 9.6
299(9) 0.01121 294.1 9.6
305(9) 0.01095 294.1 9.5
287(9) 0.01079 294.1 9.5
285(9) 0.01089 294.2 9.5
316(10) 0.00992 294.2 9.5
292(9) 0.01143 294.2 9.5
304(9) 0.01095 294.2 9.5
284(9) 0.01116 294.2 9.5
317(10) 0.00931 294.3 9.5
297(9) 0.01085 294.3 9.5
291(9) 0.01149 294.3 9.5
301(9) 0.01083 294.3 9.5
307(9) 0.01041 294.4 9.5
291(9) 0.01099 294.4 9.5
298(9) 0.01059 294.4 9.5
298(9) 0.01141 294.4 9.5
299(9) 0.01071 294.4 9.6
307(9) 0.01036 294.5 9.6
295(9) 0.01028 294.5 9.6
293(9) 0.01062 294.5 9.6
289(9) 0.01155 294.5 9.7
285(9) 0.01080 294.6 9.7
299(9) 0.01037 294.6 9.7
296(9) 0.01072 294.6 9.8
308(9) 0.01013 294.6 9.8
318(9) 0.01055 294.6 9.9
317(9) 0.01018 294.7 9.9
297(9) 0.01028 294.7 10.0
308(10) 0.00971 294.7 10.0
295(9) 0.01086 294.7 10.1
300(9) 0.01112 294.8 10.2
299(9) 0.01066 294.8 10.2
295(9) 0.01025 294.8 10.3
318(10) 0.00968 294.8 10.4
304(9) 0.01067 294.8 10.5
308(9) 0.01070 294.9 10.5
294(9) 0.01040 294.9 10.6
304(10) 0.00967 294.9 10.7
290(9) 0.01090 294.9 10.8
289(9) 0.01128 294.9 10.9
291(9) 0.01150 295.0 11.0
320(10) 0.01002 295.0 11.1
312(10) 0.00937 295.0 11.2
295(9) 0.01042 295.0 11.3
301(9) 0.01088 295.1 11.4
322(9) 0.01049 295.1 11.5
296(9) 0.01080 295.1 11.6
289(9) 0.01046 295.1 11.7
293(9) 0.01097 295.1 11.8
287(9) 0.01147 295.2 11.9
301(9) 0.01105 295.2 12.0
291(9) 0.01083 295.2 12.1
307(10) 0.00965 295.2 12.2
311(10) 0.00996 295.3 12.3
313(9) 0.01075 295.3 12.4
322(9) 0.01039 295.3 12.5
289(9) 0.01014 295.3 12.5
296(10) 0.00980 295.3 12.6
317(10) 0.01005 295.4 12.7
325(9) 0.01031 295.4 12.8
289(9) 0.01128 295.4 12.9
284(9) 0.01091 295.4 13.0
290(9) 0.01088 295.4 13.1
306(9) 0.01049 295.4 13.1
276(9) 0.01203 295.4 13.2
316(9) 0.01020 295.3 13.3
291(9) 0.01069 295.3 13.3
281(9) 0.01071 295.3 13.4
305(9) 0.01027 295.3 13.5
304(9) 0.01112 295.3 13.5
307(9) 0.01027 295.2 13.6
280(9) 0.01081 295.2 13.6
312(10) 0.00979 295.2 13.7
317(10) 0.00982 295.2 13.8
288(9) 0.01148 295.2 13.8
307(9) 0.01029 295.1 13.9
304(9) 0.01053 295.1 13.9
301(9) 0.01064 295.1 14.0
323(10) 0.01006 295.1 14.1
324(9) 0.01039 295.0 14.1
284(9) 0.01099 295.0 14.2
283(9) 0.01088 295.0 14.2
289(9) 0.01100 295.0 14.3
301(9) 0.01085 295.0 14.4
305(9) 0.01112 294.9 14.4
305(9) 0.01065 294.9 14.5
313(10) 0.00992 294.9 14.5
300(9) 0.01072 294.9 14.6
276(9) 0.01198 294.9 14.7
310(9) 0.01069 294.8 14.7
300(9) 0.01061 294.8 14.8
314(10) 0.00931 294.8 14.9
289(9) 0.01065 294.8 14.9
314(9) 0.01070 294.7 15.0
315(9) 0.01045 294.7 15.0
308(9) 0.01021 294.7 15.1
293(9) 0.01012 294.7 15.1
297(9) 0.01057 294.7 15.1
301(9) 0.01104 294.6 15.2
319(9) 0.01054 294.6 15.2
303(10) 0.01003 294.6 15.2
278(9) 0.01071 294.6 15.2
322(10) 0.00957 294.6 15.2
288(9) 0.01143 294.5 15.2
294(9) 0.01127 294.5 15.2
316(10) 0.00980 294.5 15.2
308(10) 0.00963 294.5 15.2
316(10) 0.00999 294.4 15.2
318(9) 0.01063 294.4 15.1
288(9) 0.01163 294.4 15.1
281(9) 0.01097 294.4 15.1
280(9) 0.01061 294.4 15.0
300(9) 0.01050 294.3 15.0
306(9) 0.01102 294.3 14.9
295(9) 0.01114 294.3 14.9
290(9) 0.01071 294.3 14.8
294(9) 0.01027 294.3 14.8
304(9) 0.01032 294.2 14.7
297(9) 0.01116 294.2 14.6
302(9) 0.01067 294.2 14.6
300(10) 0.01004 294.2 14.5
304(10) 0.00981 294.2 14.4
327(10) 0.00952 294.1 14.4
294(9) 0.01140 294.1 14.3
303(9) 0.01031 294.1 14.2
289(9) 0.01074 294.1 14.2
326(10) 0.00920 294.0 14.1
297(9) 0.01096 294.0 14.0
299(9) 0.01118 294.0 14.0
279(9) 0.01137 294.0 13.9
289(9) 0.01072 294.0 13.9
294(9) 0.01076 293.9 13.8
297(9) 0.01113 293.9 13.7
320(9) 0.01055 293.9 13.7
289(9) 0.01075 293.9 13.6
316(10) 0.00970 293.9 13.6
329(10) 0.00972 293.8 13.5
276(9) 0.01187 293.8 13.5
317(9) 0.01063 293.8 13.4
280(9) 0.01092 293.8 13.4
273(9) 0.01105 293.7 13.3
302(9) 0.01039 293.7 13.3
295(9) 0.01129 293.7 13.3
285(9) 0.01158 293.7 13.2
323(10) 0.00993 293.7 13.2
296(10) 0.01007 293.6 13.2
317(10) 0.01006 293.6 13.2
330(9) 0.01015 293.6 13.2
285(9) 0.01161 293.6 13.2
304(9) 0.01036 293.6 13.2
274(9) 0.01080 293.5 13.3
303(10) 0.00996 293.5 13.3
299(9) 0.01120 293.5 13.4
299(9) 0.01119 293.5 13.5
312(9) 0.01019 293.5 13.7
315(10) 0.00928 293.4 13.8
293(9) 0.01043 293.4 14.1
317(9) 0.01053 293.4 14.3
294(9) 0.01111 293.4 14.7
304(9) 0.01024 293.3 15.1
317(10) 0.00915 293.3 15.6
291(9) 0.01075 293.3 16.2
322(9) 0.01035 293.3 16.9
328(9) 0.01024 293.3 17.6
303(9) 0.01050 293.2 18.6
287(9) 0.01077 293.2 19.6
300(9) 0.01047 293.2 20.7
313(9) 0.01056 293.2 22.0
309(9) 0.01061 293.2 23.3
291(9) 0.01061 293.1 24.8
304(10) 0.00990 293.1 26.2
301(9) 0.01020 293.1 27.7
303(9) 0.01107 293.1 29.1
330(10) 0.00948 293.0 30.3
332(10) 0.00920 293.0 31.3
306(9) 0.01036 293.0 32.0
319(9) 0.01029 293.0 32.2
307(9) 0.01093 293.0 32.0
303(9) 0.01077 292.9 31.3
317(10) 0.00967 292.9 30.3
301(9) 0.01055 292.9 29.1
305(9) 0.01057 292.9 27.6
334(9) 0.01012 292.9 26.1
323(9) 0.01008 292.8 24.6
301(9) 0.01031 292.8 23.1
296(9) 0.01081 292.8 21.7
303(9) 0.01091 292.8 20.3
291(9) 0.01145 292.8 19.1
314(10) 0.00995 292.7 18.0
317(10) 0.00985 292.7 17.1
320(9) 0.01013 292.7 16.2
301(9) 0.01113 292.7 15.5
305(9) 0.01089 292.6 14.8
302(9) 0.01029 292.6 14.3
303(10) 0.00956 292.6 13.8
300(9) 0.01047 292.6 13.4
316(9) 0.01044 292.6 13.1
302(9) 0.01069 292.5 12.9
308(9) 0.01057 292.5 12.6
320(10) 0.00935 292.5 12.5
295(9) 0.01098 292.5 12.3
295(9) 0.01145 292.5 12.2
300(9) 0.01092 292.4 12.1
305(9) 0.01012 292.4 12.1
314(10) 0.00982 292.4 12.1
298(9) 0.01070 292.4 12.0
302(9) 0.01120 292.3 12.0
338(10) 0.00966 292.3 12.0
285(9) 0.01133 292.3 12.0
316(10) 0.00989 292.3 12.1
313(9) 0.01034 292.3 12.1
314(9) 0.01055 292.2 12.2
297(9) 0.01066 292.2 12.2
296(9) 0.01077 292.2 12.3
308(10) 0.01004 292.2 12.4
292(9) 0.01066 292.2 12.5
286(9) 0.01170 292.1 12.6
301(9) 0.01095 292.1 12.7
309(10) 0.01003 292.1 12.8
321(10) 0.00922 292.1 12.9
300(9) 0.01056 292.1 13.1
321(9) 0.01046 292.0 13.2
316(9) 0.01037 292.0 13.4
313(10) 0.01002 292.0 13.6
318(10) 0.00932 292.0 13.8
311(9) 0.01018 291.9 14.0
312(9) 0.01068 291.9 14.2
296(9) 0.01072 291.9 14.4
303(10) 0.00975 291.9 14.6
310(10) 0.00994 291.9 14.8
302(9) 0.01084 291.8 15.1
322(9) 0.01037 291.8 15.3
296(9) 0.01087 291.8 15.6
294(9) 0.01062 291.8 15.9
315(10) 0.01004 291.8 16.2
312(9) 0.01079 291.7 16.4
326(9) 0.01031 291.7 16.7
291(9) 0.01072 291.7 17.0
312(10) 0.00942 291.7 17.3
299(9) 0.01055 291.6 17.6
296(9) 0.01088 291.6 17.9
315(9) 0.01058 291.6 18.2
301(9) 0.01041 291.6 18.5
308(10) 0.00977 291.6 18.8
331(10) 0.00954 291.5 19.1
320(9) 0.01059 291.5 19.3
332(9) 0.01016 291.5 19.6
306(9) 0.01009 291.5 19.9
284(9) 0.01070 291.5 20.2
320(10) 0.00989 291.4 20.5
307(9) 0.01101 291.4 20.8
300(9) 0.01116 291.4 21.2
302(9) 0.01052 291.4 21.5
307(10) 0.00950 291.3 21.8
303(9) 0.01059 291.3 22.2
328(9) 0.01036 291.3 22.5
307(9) 0.01057 291.3 22.9
295(9) 0.01102 291.3 23.3
335(10) 0.00897 291.2 23.7
323(10) 0.00984 291.2 24.1
298(9) 0.01120 291.2 24.5
298(9) 0.01104 291.2 24.9
324(10) 0.00974 291.2 25.3
301(9) 0.01053 291.1 25.8
321(10) 0.00938 291.1 26.2
312(9) 0.01080 291.1 26.6
316(9) 0.01046 291.1 27.1
317(9) 0.01018 291.1 27.5
309(10) 0.01006 291.0 27.9
318(10) 0.01003 291.0 28.4
325(9) 0.01031 291.0 28.8
308(9) 0.01050 291.0 29.2
328(10) 0.00936 290.9 29.7
321(10) 0.00953 290.9 30.1
337(10) 0.00972 290.9 30.5
332(9) 0.01020 290.9 30.8
316(10) 0.00997 290.9 31.2
312(10) 0.00985 290.8 31.5
331(10) 0.00947 290.8 31.9
318(9) 0.01047 290.8 32.2
306(9) 0.01095 290.8 32.4
300(9) 0.01041 290.8 32.7
314(10) 0.00969 290.7 32.9
323(10) 0.00945 290.7 33.0
309(9) 0.01056 290.7 33.2
306(9) 0.01086 290.7 33.3
333(10) 0.00917 290.6 33.4
337(10) 0.00878 290.6 33.4
320(10) 0.00976 290.6 33.4
325(9) 0.01021 290.6 33.4
343(10) 0.00985 290.6 33.4
331(10) 0.00932 290.5 33.3
329(10) 0.00917 290.5 33.2
338(10) 0.00946 290.5 33.1
313(9) 0.01077 290.5 33.0
333(10) 0.01003 290.5 32.8
309(9) 0.01052 290.4 32.7
310(10) 0.00976 290.4 32.5
321(10) 0.01002 290.4 32.3
312(9) 0.01070 290.4 32.0
309(9) 0.01072 290.4 31.8
326(10) 0.00896 290.3 31.5
320(10) 0.00920 290.3 31.2
301(9) 0.01059 290.3 30.9
327(9) 0.01029 290.3 30.6
366(10) 0.00921 290.2 30.2
326(10) 0.00991 290.2 29.8
351(11) 0.00836 290.2 29.3
295(9) 0.01100 290.2 28.9
311(9) 0.01079 290.2 28.4
293(9) 0.01112 290.1 27.9
309(9) 0.01020 290.1 27.3
306(10) 0.00966 290.1 26.8
310(10) 0.01007 290.1 26.3
318(9) 0.01059 290.1 25.8
304(9) 0.01088 290.0 25.3
324(10) 0.00951 290.0 24.9
293(9) 0.01069 290.0 24.5
298(9) 0.01046 290.0 24.1
299(9) 0.01117 289.9 23.7
298(9) 0.01073 289.9 23.4
283(9) 0.01125 289.9 23.2
305(10) 0.00998 289.9 23.0
323(10) 0.00980 289.9 22.8
312(9) 0.01084 289.8 22.7
329(10) 0.00977 289.8 22.7
318(10) 0.00966 289.8 22.7
294(9) 0.01040 289.8 22.8
291(9) 0.01071 289.8 23.0
296(9) 0.01117 289.7 23.2
325(10) 0.00955 289.7 23.5
297(9) 0.01059 289.7 23.7
293(9) 0.01088 289.7 24.0
320(9) 0.01027 289.7 24.3
325(9) 0.01019 289.6 24.5
335(10) 0.00916 289.6 24.7
297(9) 0.01038 289.6 24.7
299(9) 0.01039 289.6 24.5
291(9) 0.01140 289.5 24.2
298(9) 0.01107 289.5 23.8
297(9) 0.01076 289.5 23.2
336(10) 0.00870 289.5 22.5
323(10) 0.00965 289.5 21.7
330(9) 0.01031 289.4 20.9
325(9) 0.01033 289.4 20.1
309(9) 0.01028 289.4 19.3
301(10) 0.01003 289.4 18.6
322(10) 0.00953 289.4 17.9
313(9) 0.01045 289.3 17.2
295(9) 0.01137 289.3 16.6
310(10) 0.00980 289.3 16.1
310(10) 0.00926 289.3 15.7
312(10) 0.00994 289.2 15.2
299(9) 0.01120 289.2 14.9
288(9) 0.01159 289.2 14.6
316(10) 0.00984 289.2 14.3
312(10) 0.00941 289.2 14.1
293(9) 0.01061 289.1 13.9
306(9) 0.01082 289.1 13.8
301(9) 0.01086 289.1 13.7
290(9) 0.01080 289.1 13.6
284(9) 0.01073 289.1 13.5
297(9) 0.01048 289.0 13.5
287(9) 0.01176 289.0 13.4
326(10) 0.00999 289.0 13.4
312(10) 0.00990 289.0 13.5
292(9) 0.01047 289.0 13.5
305(10) 0.00998 288.9 13.5
315(9) 0.01062 288.9 13.6
319(9) 0.01017 288.9 13.7
316(10) 0.01002 288.9 13.8
317(10) 0.01000 288.8 13.9
318(10) 0.00996 288.8 14.1
307(9) 0.01101 288.8 14.2
306(9) 0.01043 288.8 14.4
287(9) 0.01091 288.8 14.7
322(10) 0.00941 288.7 14.9
280(9) 0.01166 288.7 15.2
337(10) 0.00997 288.7 15.6
304(9) 0.01039 288.7 15.9
294(10) 0.00995 288.7 16.3
292(9) 0.01063 288.6 16.8
306(9) 0.01034 288.6 17.2
320(9) 0.01058 288.6 17.7
301(9) 0.01062 288.6 18.3
301(9) 0.01015 288.5 18.8
308(9) 0.01051 288.5 19.4
326(10) 0.01006 288.5 20.0
287(9) 0.01169 288.5 20.6
287(9) 0.01106 288.5 21.2
281(9) 0.01047 288.4 21.8
305(9) 0.01037 288.4 22.4
314(9) 0.01042 288.4 23.0
288(9) 0.01170 288.4 23.5
294(9) 0.01030 288.4 24.0
295(10) 0.00987 288.3 24.4
324(10) 0.00968 288.3 24.9
303(9) 0.01079 288.3 25.2
300(9) 0.01093 288.3 25.5
317(10) 0.00988 288.2 25.8
296(9) 0.01040 288.2 25.9
323(10) 0.00969 288.2 26.0
326(9) 0.01024 288.2 25.9
329(9) 0.01013 288.2 25.8
302(9) 0.01044 288.1 25.5
297(10) 0.01005 288.1 25.1
301(10) 0.01007 288.1 24.7
296(9) 0.01127 288.1 24.2
321(9) 0.01026 288.1 23.7
297(9) 0.01022 288.0 23.2
318(10) 0.00982 288.0 22.7
305(9) 0.01051 288.0 22.2
289(9) 0.01146 288.0 21.7
306(9) 0.01080 288.0 21.3
331(10) 0.00950 287.9 20.9
327(10) 0.00932 287.9 20.6
324(10) 0.00979 287.9 20.3
343(10) 0.00983 287.9 20.0
303(9) 0.01079 287.8 19.8
319(10) 0.00964 287.8 19.6
305(9) 0.01033 287.8 19.4
331(10) 0.00954 287.8 19.2
309(9) 0.01087 287.8 19.1
311(10) 0.00978 287.7 18.9
322(10) 0.00956 287.7 18.8
284(9) 0.01143 287.7 18.6
281(9) 0.01133 287.7 18.4
329(9) 0.01038 287.7 18.3
286(9) 0.01069 287.6 18.1
306(10) 0.00984 287.6 17.9
281(9) 0.01136 287.6 17.7
295(9) 0.01097 287.6 17.5
329(9) 0.01020 287.5 17.3
285(9) 0.01088 287.5 17.0
304(9) 0.01034 287.5 16.8
312(10) 0.01006 287.5 16.5
313(9) 0.01020 287.5 16.2
297(9) 0.01108 287.4 16.0
307(10) 0.00993 287.4 15.6
308(10) 0.00995 287.4 15.3
330(10) 0.00981 287.4 15.0
288(9) 0.01149 287.4 14.7
295(9) 0.01111 287.3 14.3
300(9) 0.01009 287.3 14.0
306(10) 0.00964 287.3 13.6
307(9) 0.01037 287.3 13.2
310(9) 0.01053 287.3 12.9
268(8) 0.01240 287.2 12.5
296(9) 0.01047 287.2 12.2
290(9) 0.01013 287.2 11.8
279(9) 0.01086 287.2 11.5
303(9) 0.01058 287.1 11.2
316(9) 0.01049 287.1 10.9
303(9) 0.01016 287.1 10.5
298(10) 0.00966 287.1 10.2
307(10) 0.00980 287.1 10.0
303(9) 0.01118 287.0 9.7
270(9) 0.01199 287.0 9.4
269(9) 0.01170 287.0 9.1
320(10) 0.00932 287.0 8.9
300(9) 0.01052 287.0 8.7
294(9) 0.01137 286.9 8.4
293(9) 0.01114 286.9 8.2
281(9) 0.01177 286.9 8.0
290(9) 0.01079 286.9 7.8
303(10) 0.00996 286.8 7.6
310(9) 0.01074 286.8 7.4
296(9) 0.01094 286.8 7.3
300(9) 0.01071 286.8 7.1
287(9) 0.01083 286.8 7.0
292(9) 0.01052 286.7 6.8
309(9) 0.01079 286.7 6.7
272(9) 0.01201 286.7 6.5
299(9) 0.01045 286.7 6.4
317(10) 0.00988 286.7 6.3
289(9) 0.01107 286.6 6.2
292(9) 0.01138 286.6 6.1
318(9) 0.01015 286.6 5.9
294(9) 0.01076 286.6 5.8
296(9) 0.01071 286.6 5.7
281(9) 0.01124 286.5 5.7
292(9) 0.01144 286.5 5.6
281(9) 0.01123 286.5 5.5
300(9) 0.01015 286.5 5.4
292(9) 0.01070 286.4 5.3
285(9) 0.01108 286.4 5.3
277(9) 0.01192 286.4 5.2
289(9) 0.01085 286.4 5.1
291(10) 0.01006 286.4 5.1
303(9) 0.01028 286.3 5.0
294(9) 0.01117 286.3 4.9
309(9) 0.01084 286.3 4.9
303(9) 0.01043 286.3 4.8
288(9) 0.01021 286.3 4.8
270(9) 0.01163 286.2 4.7
287(9) 0.01146 286.2 4.7
275(9) 0.01217 286.2 4.6
300(9) 0.01036 286.2 4.6
317(10) 0.00943 286.1 4.6
293(9) 0.01116 286.1 4.5
305(9) 0.01077 286.1 4.5
304(9) 0.01084 286.1 4.5
293(9) 0.01078 286.1 4.4
280(9) 0.01040 286.0 4.4
273(9) 0.01127 286.0 4.4
298(9) 0.01127 286.0 4.3
305(9) 0.01082 286.0 4.3
296(9) 0.01063 286.0 4.3
302(10) 0.00971 285.9 4.3
301(9) 0.01031 285.9 4.3
269(8) 0.01241 285.9 4.2
287(9) 0.01117 285.9 4.2
302(9) 0.01012 285.9 4.2
296(9) 0.01013 285.8 4.2
289(9) 0.01062 285.8 4.2
288(9) 0.01149 285.8 4.2
290(9) 0.01125 285.8 4.1
271(9) 0.01178 285.7 4.1
318(10) 0.00943 285.7 4.1
294(9) 0.01050 285.7 4.1
301(9) 0.01101 285.7 4.1
288(9) 0.01108 285.7 4.1
271(9) 0.01136 285.6 4.1
313(10) 0.00955 285.6 4.1
282(9) 0.01111 285.6 4.1
289(9) 0.01140 285.6 4.1
301(9) 0.01021 285.6 4.1
276(9) 0.01143 285.5 4.1
298(9) 0.01032 285.5 4.1
301(9) 0.01061 285.5 4.1
283(9) 0.01182 285.5 4.1
306(9) 0.01021 285.4 4.1
293(9) 0.01047 285.4 4.1
322(10) 0.00955 285.4 4.1
276(9) 0.01157 285.4 4.1
291(9) 0.01143 285.4 4.1
286(9) 0.01102 285.3 4.2
295(10) 0.01002 285.3 4.2
299(9) 0.01053 285.3 4.2
294(9) 0.01123 285.3 4.2
291(9) 0.01151 285.3 4.2
301(9) 0.01079 285.2 4.2
302(10) 0.01004 285.2 4.3
289(9) 0.01103 285.2 4.3
274(9) 0.01210 285.2 4.3
286(9) 0.01137 285.1 4.3
296(9) 0.01080 285.1 4.3
291(9) 0.01040 285.1 4.4
308(9) 0.01023 285.1 4.4
282(9) 0.01184 285.1 4.4
307(9) 0.01077 285.0 4.5
286(9) 0.01112 285.0 4.5
298(10) 0.00961 285.0 4.5
292(9) 0.01100 285.0 4.6
303(9) 0.01114 285.0 4.6
316(9) 0.01051 284.9 4.6
284(9) 0.01102 284.9 4.7
304(10) 0.00961 284.9 4.7
271(9) 0.01139 284.9 4.8
311(9) 0.01080 284.9 4.8
275(9) 0.01212 284.8 4.9
291(9) 0.01070 284.8 4.9
278(9) 0.01076 284.8 5.0
314(10) 0.01006 284.8 5.0
305(9) 0.01100 284.7 5.1
305(9) 0.01073 284.7 5.1
275(9) 0.01185 284.7 5.2
278(9) 0.01086 284.7 5.3
301(9) 0.01048 284.7 5.3
294(9) 0.01131 284.6 5.4
287(9) 0.01116 284.6 5.5
294(9) 0.01079 284.6 5.5
293(9) 0.01062 284.6 5.6
267(9) 0.01201 284.6 5.7
305(9) 0.01096 284.5 5.8
300(9) 0.01060 284.5 5.8
290(9) 0.01093 284.5 5.9
276(9) 0.01138 284.5 6.0
283(9) 0.01112 284.4 6.1
281(9) 0.01191 284.4 6.2
263(9) 0.01184 284.4 6.3
283(9) 0.01077 284.4 6.4
320(10) 0.00968 284.4 6.5
286(9) 0.01130 284.4 6.6
290(9) 0.01151 284.4 6.7
290(9) 0.01094 284.4 6.8
281(9) 0.01110 284.4 6.9
270(9) 0.01145 284.3 7.0
302(9) 0.01050 284.3 7.1
295(9) 0.01145 284.3 7.2
296(9) 0.01045 284.3 7.3
294(10) 0.00989 284.3 7.4
266(9) 0.01225 284.3 7.5
299(9) 0.01116 284.3 7.6
289(9) 0.01158 284.3 7.7
284(9) 0.01090 284.3 7.8
264(9) 0.01123 284.3 7.9
284(9) 0.01089 284.3 8.0
299(9) 0.01139 284.2 8.1
310(9) 0.01085 284.2 8.2
295(9) 0.01087 284.2 8.3
287(10) 0.00999 284.2 8.4
284(9) 0.01092 284.2 8.4
296(9) 0.01142 284.2 8.5
276(9) 0.01199 284.2 8.6
270(9) 0.01153 284.2 8.6
288(10) 0.00996 284.2 8.7
286(9) 0.01100 284.2 8.7
313(9) 0.01075 284.2 8.7
287(9) 0.01133 284.1 8.8
282(9) 0.01136 284.1 8.8
307(10) 0.00968 284.1 8.8
287(9) 0.01087 284.1 8.8
295(9) 0.01136 284.1 8.9
292(9) 0.01097 284.1 8.9
273(9) 0.01127 284.1 8.9
266(9) 0.01139 284.1 8.9
268(9) 0.01153 284.1 8.9
266(8) 0.01243 284.1 8.9
304(9) 0.01072 284.1 9.0
307(9) 0.01051 284.0 9.0
304(9) 0.01008 284.0 9.0
282(9) 0.01113 284.0 9.0
281(9) 0.01181 284.0 9.1
292(9) 0.01081 284.0 9.1
273(9) 0.01165 284.0 9.1
282(9) 0.01096 284.0 9.2
267(9) 0.01174 284.0 9.2
305(9) 0.01114 284.0 9.3
297(9) 0.01053 284.0 9.3
269(9) 0.01185 284.0 9.4
312(10) 0.01004 283.9 9.5
323(10) 0.00990 283.9 9.6
308(9) 0.01090 283.9 9.6
279(9) 0.01119 283.9 9.7
281(9) 0.01072 283.9 9.8
306(9) 0.01018 283.9 10.0
314(9) 0.01036 283.9 10.1
291(9) 0.01156 283.9 10.2
281(9) 0.01110 283.9 10.3
295(9) 0.01030 283.9 10.5
292(9) 0.01090 283.9 10.6
307(9) 0.01068 283.8 10.8
289(9) 0.01150 283.8 11.0
306(9) 0.01019 283.8 11.2
300(10) 0.01005 283.8 11.4
302(9) 0.01039 283.8 11.6
282(9) 0.01183 283.8 11.8
294(9) 0.01136 283.8 12.1
303(9) 0.01010 283.8 12.3
291(9) 0.01039 283.8 12.6
285(9) 0.01086 283.8 12.9
284(9) 0.01166 283.8 13.2
296(9) 0.01117 283.8 13.5
310(9) 0.01008 283.7 13.8
291(9) 0.01028 283.7 14.2
269(9) 0.01196 283.7 14.5
283(9) 0.01177 283.7 14.9
303(9) 0.01081 283.7 15.3
318(9) 0.01011 283.7 15.8
323(10) 0.00947 283.7 16.2
316(9) 0.01031 283.7 16.7
317(9) 0.01056 283.7 17.1
286(9) 0.01162 283.7 17.6
320(10) 0.01001 283.7 18.1
317(10) 0.00996 283.6 18.7
293(9) 0.01072 283.6 19.2
290(9) 0.01149 283.6 19.7
321(9) 0.01025 283.6 20.3
316(10) 0.00981 283.6 20.8
298(9) 0.01009 283.6 21.3
290(9) 0.01055 283.6 21.9
289(9) 0.01150 283.6 22.4
292(9) 0.01101 283.6 22.8
318(10) 0.00998 283.6 23.3
313(9) 0.01031 283.6 23.7
310(9) 0.01050 283.5 24.1
309(9) 0.01089 283.5 24.4
308(9) 0.01043 283.5 24.7
310(9) 0.01011 283.5 24.9
325(10) 0.00952 283.5 25.1
314(10) 0.01005 283.5 25.1
288(9) 0.01144 283.5 25.2
320(9) 0.01009 283.5 25.2
309(10) 0.00972 283.5 25.1
296(9) 0.01050 283.5 24.9
328(10) 0.01000 283.5 24.8
315(9) 0.01070 283.4 24.5
304(9) 0.01012 283.4 24.3
302(10) 0.00999 283.4 24.0
301(9) 0.01022 283.4 23.7
309(9) 0.01052 283.4 23.4
320(9) 0.01062 283.4 23.1
300(9) 0.01057 283.4 22.7
284(9) 0.01075 283.4 22.4
307(9) 0.01018 283.4 22.1
290(9) 0.01122 283.4 21.8
305(9) 0.01100 283.4 21.5
306(9) 0.01043 283.3 21.3
291(9) 0.01032 283.3 21.1
278(9) 0.01166 283.3 20.9
289(9) 0.01157 283.3 20.7
314(9) 0.01065 283.3 20.6
310(10) 0.00992 283.3 20.5
307(10) 0.00984 283.3 20.5
305(9) 0.01061 283.3 20.5
290(9) 0.01158 283.3 20.5
281(9) 0.01173 283.3 20.6
307(9) 0.01031 283.3 20.7
327(10) 0.00904 283.2 20.9
308(10) 0.00992 283.2 21.1
310(9) 0.01096 283.2 21.3
298(9) 0.01075 283.2 21.5
293(9) 0.01060 283.2 21.7
350(11) 0.00822 283.2 21.8
274(9) 0.01147 283.2 22.0
323(9) 0.01038 283.2 22.0
335(10) 0.01007 283.2 22.0
286(9) 0.01091 283.2 21.8
290(9) 0.01036 283.2 21.6
287(9) 0.01067 283.1 21.2
292(9) 0.01147 283.1 20.8
306(9) 0.01054 283.1 20.2
301(9) 0.01029 283.1 19.6
300(9) 0.01037 283.1 19.0
301(9) 0.01036 283.1 18.3
304(9) 0.01114 283.1 17.7
298(9) 0.01059 283.1 17.0
281(9) 0.01129 283.1 16.3
305(9) 0.01037 283.1 15.7
305(9) 0.01078 283.1 15.1
290(9) 0.01148 283.0 14.6
280(9) 0.01128 283.0 14.1
273(9) 0.01136 283.0 13.6
314(10) 0.00982 283.0 13.1
295(9) 0.01120 283.0 12.7
299(9) 0.01125 283.0 12.3
319(10) 0.00982 283.0 11.9
303(9) 0.01018 283.0 11.6
307(9) 0.01034 283.0 11.3
297(9) 0.01096 283.0 11.0
300(9) 0.01112 283.0 10.7
294(9) 0.01067 282.9 10.5
275(9) 0.01066 282.9 10.2
314(10) 0.00968 282.9 10.0
308(9) 0.01086 282.9 9.8
291(9) 0.01137 282.9 9.6
304(9) 0.01030 282.9 9.4
281(9) 0.01077 282.9 9.2
275(9) 0.01100 282.9 9.1
301(9) 0.01117 282.9 8.9
280(9) 0.01178 282.9 8.8
299(9) 0.01050 282.9 8.6
308(10) 0.00967 282.8 8.5
310(10) 0.00991 282.8 8.3
296(9) 0.01138 282.8 8.2
299(9) 0.01091 282.8 8.1
299(9) 0.01095 282.8 8.0
323(10) 0.00931 282.8 7.9
260(9) 0.01214 282.8 7.7
298(9) 0.01122 282.8 7.6
302(9) 0.01060 282.8 7.5
299(9) 0.01056 282.8 7.4
289(9) 0.01047 282.8 7.4
298(9) 0.01021 282.7 7.3
272(9) 0.01219 282.7 7.2
284(9) 0.01152 282.7 7.1
275(9) 0.01158 282.7 7.0
310(10) 0.00943 282.7 6.9
310(10) 0.01002 282.7 6.9
283(9) 0.01171 282.7 6.8
304(9) 0.01070 282.7 6.7
292(9) 0.01071 282.7 6.7
292(9) 0.01076 282.7 6.6
287(9) 0.01074 282.7 6.6
277(9) 0.01195 282.6 6.5
286(9) 0.01081 282.6 6.5
285(9) 0.01050 282.6 6.4
287(9) 0.01045 282.6 6.4
280(9) 0.01146 282.6 6.3
318(9) 0.01045 282.6 6.3
300(9) 0.01078 282.6 6.3
310(10) 0.00998 282.6 6.2
308(9) 0.01031 282.6 6.2
294(9) 0.01096 282.6 6.2
282(9) 0.01179 282.6 6.2
281(9) 0.01121 282.6 6.1
303(9) 0.01029 282.5 6.1
271(9) 0.01196 282.5 6.1
301(9) 0.01085 282.5 6.1
299(9) 0.01129 282.5 6.1
295(9) 0.01053 282.5 6.1
273(9) 0.01139 282.5 6.1
315(10) 0.00956 282.5 6.1
309(9) 0.01071 282.5 6.1
300(9) 0.01102 282.5 6.1
315(10) 0.00990 282.5 6.2
263(9) 0.01205 282.5 6.2
292(9) 0.01076 282.4 6.2
297(9) 0.01102 282.4 6.3
278(9) 0.01195 282.4 6.3
285(9) 0.01082 282.4 6.4
286(9) 0.01028 282.4 6.5
296(9) 0.01029 282.4 6.5
277(9) 0.01194 282.4 6.6
304(9) 0.01105 282.4 6.7
269(9) 0.01166 282.4 6.8
296(9) 0.01030 282.4 6.9
313(10) 0.00995 282.4 7.0
277(9) 0.01181 282.3 7.2
295(9) 0.01125 282.3 7.3
283(9) 0.01153 282.3 7.5
310(10) 0.00988 282.3 7.6
298(9) 0.01062 282.3 7.8
312(9) 0.01074 282.3 8.0
321(9) 0.01034 282.3 8.1
307(9) 0.01030 282.3 8.3
302(9) 0.01036 282.3 8.5
292(9) 0.01089 282.3 8.7
312(9) 0.01080 282.3 8.9
285(9) 0.01131 282.2 9.0
297(9) 0.01042 282.2 9.2
335(10) 0.00879 282.2 9.3
324(10) 0.00975 282.2 9.4
297(9) 0.01122 282.2 9.4
311(9) 0.01013 282.2 9.5
282(9) 0.01128 282.2 9.5
277(9) 0.01112 282.2 9.5
309(9) 0.01021 282.2 9.4
293(9) 0.01144 282.2 9.3
295(9) 0.01041 282.2 9.2
323(10) 0.00940 282.1 9.1
306(9) 0.01018 282.1 9.0
276(9) 0.01184 282.1 8.9
289(9) 0.01161 282.1 8.8
304(9) 0.01054 282.1 8.7
326(10) 0.00937 282.1 8.6
273(9) 0.01167 282.1 8.5
276(9) 0.01198 282.1 8.4
295(9) 0.01129 282.1 8.3
293(9) 0.01043 282.1 8.2
294(9) 0.01010 282.1 8.2
301(9) 0.01018 282.0 8.1
315(9) 0.01063 282.0 8.1
319(9) 0.01048 282.0 8.1
297(9) 0.01078 282.0 8.0
307(10) 0.00996 282.0 8.0
301(9) 0.01082 282.0 8.0
299(9) 0.01111 282.0 8.0
279(9) 0.01181 282.0 8.1
267(9) 0.01161 282.0 8.1
283(9) 0.01036 282.0 8.1
296(9) 0.01096 282.0 8.2
279(9) 0.01193 281.9 8.2
300(9) 0.01090 281.9 8.2
279(9) 0.01143 281.9 8.3
302(10) 0.00943 281.9 8.4
277(9) 0.01118 281.9 8.4
313(9) 0.01077 281.9 8.5
299(9) 0.01107 281.9 8.5
300(9) 0.01019 281.9 8.6
305(10) 0.00974 281.9 8.7
297(9) 0.01059 281.9 8.8
279(9) 0.01178 281.9 8.8
290(9) 0.01128 281.8 8.9
276(9) 0.01139 281.8 9.0
308(10) 0.00966 281.8 9.1
284(9) 0.01097 281.8 9.2
299(9) 0.01103 281.8 9.2
287(9) 0.01106 281.8 9.3
296(9) 0.01044 281.8 9.4
289(9) 0.01079 281.8 9.5
289(9) 0.01109 281.8 9.6
314(9) 0.01067 281.8 9.6
319(9) 0.01009 281.8 9.7
301(9) 0.01039 281.7 9.8
311(10) 0.00977 281.7 9.9
305(9) 0.01046 281.7 9.9
271(9) 0.01222 281.7 10.0
294(9) 0.01099 281.7 10.1
348(10) 0.00877 281.7 10.1
313(9) 0.01010 281.7 10.2
322(9) 0.01032 281.7 10.2
314(9) 0.01066 281.7 10.3
273(9) 0.01131 281.7 10.3
310(10) 0.00976 281.7 10.4
316(10) 0.00978 281.6 10.4
323(10) 0.00989 281.6 10.4
290(9) 0.01152 281.6 10.4
289(9) 0.01075 281.6 10.5
313(10) 0.00944 281.6 10.5
328(10) 0.00966 281.6 10.5
307(9) 0.01075 281.6 10.5
298(9) 0.01123 281.6 10.5
291(9) 0.01086 281.6 10.5
286(9) 0.01076 281.6 10.5
300(9) 0.01054 281.6 10.5
295(9) 0.01132 281.5 10.5
297(9) 0.01115 281.5 10.5
301(10) 0.00989 281.5 10.4
279(9) 0.01074 281.5 10.4
281(9) 0.01132 281.5 10.4
326(9) 0.01032 281.5 10.3
325(9) 0.01036 281.5 10.3
311(9) 0.01035 281.5 10.3
307(10) 0.00977 281.5 10.2
299(9) 0.01059 281.5 10.2
286(9) 0.01164 281.5 10.1
316(9) 0.01050 281.5 10.1
311(10) 0.00995 281.4 10.0
288(9) 0.01087 281.4 10.0
284(9) 0.01111 281.4 9.9
288(9) 0.01152 281.4 9.9
282(9) 0.01155 281.4 9.8
278(9) 0.01152 281.4 9.8
294(9) 0.01027 281.4 9.7
290(9) 0.01094 281.4 9.7
309(9) 0.01082 281.4 9.6
294(9) 0.01106 281.4 9.5
292(9) 0.01099 281.4 9.5
286(9) 0.01115 281.3 9.4
299(9) 0.01096 281.3 9.4
284(9) 0.01171 281.3 9.3
300(9) 0.01082 281.3 9.3
304(9) 0.01077 281.3 9.2
299(9) 0.01043 281.3 9.1
310(9) 0.01048 281.3 9.1
308(9) 0.01078 281.3 9.0
284(9) 0.01137 281.3 9.0
303(9) 0.01036 281.3 8.9
296(9) 0.01029 281.3 8.8
281(9) 0.01121 281.2 8.8
286(9) 0.01174 281.2 8.7
290(9) 0.01112 281.2 8.7
299(10) 0.01003 281.2 8.6
298(9) 0.01009 281.2 8.5
290(9) 0.01138 281.2 8.5
299(9) 0.01126 281.2 8.4
283(9) 0.01087 281.2 8.3
287(9) 0.01032 281.2 8.3
296(9) 0.01089 281.2 8.2
310(9) 0.01063 281.2 8.1
307(9) 0.01101 281.1 8.1
301(9) 0.01029 281.1 8.0
317(10) 0.00942 281.1 7.9
317(10) 0.00978 281.1 7.9
311(9) 0.01064 281.1 7.8
285(9) 0.01171 281.1 7.7
309(10) 0.01001 281.1 7.6
270(9) 0.01115 281.1 7.6
291(9) 0.01080 281.1 7.5
290(9) 0.01156 281.1 7.4
296(9) 0.01123 281.1 7.4
281(9) 0.01101 281.0 7.3
301(10) 0.00960 281.0 7.2
283(9) 0.01111 281.0 7.2
271(9) 0.01222 281.0 7.1
282(9) 0.01172 281.0 7.1
271(9) 0.01168 281.0 7.0
265(9) 0.01123 281.0 6.9
298(9) 0.01052 281.0 6.9
301(9) 0.01108 281.0 6.8
296(9) 0.01119 281.0 6.8
302(9) 0.01027 281.0 6.7
302(10) 0.00944 280.9 6.7
296(9) 0.01024 280.9 6.6
303(9) 0.01103 280.9 6.6
308(9) 0.01060 280.9 6.5
293(9) 0.01078 280.9 6.5
291(9) 0.01044 280.9 6.4
278(9) 0.01085 280.9 6.4
278(9) 0.01195 280.9 6.4
308(9) 0.01049 280.9 6.3
290(9) 0.01067 280.9 6.3
295(9) 0.01034 280.9 6.3
295(9) 0.01065 280.8 6.2
274(9) 0.01215 280.8 6.2
305(9) 0.01056 280.8 6.2
267(9) 0.01180 280.8 6.2
265(9) 0.01150 280.8 6.2
284(9) 0.01129 280.8 6.1
310(9) 0.01085 280.8 6.1
291(9) 0.01074 280.8 6.1
311(10) 0.00999 280.8 6.1
290(9) 0.01074 280.8 6.1
297(9) 0.01092 280.8 6.1
304(9) 0.01085 280.7 6.1
278(9) 0.01118 280.7 6.1
285(9) 0.01069 280.7 6.1
305(9) 0.01058 280.7 6.1
299(9) 0.01093 280.7 6.1
301(9) 0.01114 280.7 6.1
313(10) 0.01005 280.7 6.1
290(9) 0.01051 280.7 6.1
288(9) 0.01080 280.7 6.1
282(9) 0.01160 280.7 6.1
284(9) 0.01174 280.7 6.1
273(9) 0.01157 280.6 6.1
303(9) 0.01017 280.6 6.1
301(9) 0.01076 280.6 6.1
303(9) 0.01116 280.6 6.2
308(9) 0.01077 280.6 6.2
320(10) 0.00968 280.6 6.2
305(10) 0.00956 280.6 6.2
301(10) 0.01001 280.6 6.3
288(9) 0.01162 280.6 6.3
302(9) 0.01096 280.6 6.3
314(10) 0.00996 280.6 6.3
291(10) 0.00995 280.5 6.4
273(9) 0.01179 280.5 6.4
288(9) 0.01157 280.5 6.4
289(9) 0.01151 280.5 6.5
295(9) 0.01062 280.5 6.5
288(9) 0.01069 280.5 6.6
269(9) 0.01155 280.5 6.6
292(9) 0.01131 280.5 6.6
298(9) 0.01093 280.5 6.7
297(9) 0.01088 280.5 6.7
293(9) 0.01043 280.5 6.8
296(9) 0.01066 280.4 6.8
281(9) 0.01187 280.4 6.9
286(9) 0.01098 280.4 6.9
273(9) 0.01128 280.4 7.0
281(9) 0.01073 280.4 7.1
325(10) 0.00956 280.4 7.1
290(9) 0.01146 280.4 7.2
272(9) 0.01145 280.4 7.2
284(9) 0.01084 280.4 7.3
290(9) 0.01079 280.4 7.4
293(9) 0.01092 280.4 7.4
310(9) 0.01098 280.4 7.5
306(9) 0.01023 280.3 7.6
281(9) 0.01120 280.3 7.6
264(9) 0.01172 280.3 7.7
272(9) 0.01171 280.3 7.8
279(9) 0.01182 280.3 7.9
305(10) 0.00978 280.3 7.9
287(9) 0.01083 280.3 8.0
284(9) 0.01118 280.3 8.1
290(9) 0.01085 280.3 8.2
292(9) 0.01149 280.3 8.3
267(9) 0.01167 280.3 8.3
287(9) 0.01077 280.2 8.4
289(9) 0.01113 280.2 8.5
301(9) 0.01083 280.2 8.6
278(9) 0.01194 280.2 8.7
291(9) 0.01110 280.2 8.8
312(10) 0.00939 280.2 8.9
273(9) 0.01109 280.2 9.0
273(9) 0.01184 280.2 9.1
280(9) 0.01186 280.2 9.1
271(9) 0.01189 280.2 9.2
266(9) 0.01101 280.2 9.3
295(9) 0.01061 280.1 9.4
284(9) 0.01158 280.1 9.5
294(9) 0.01150 280.1 9.6
308(9) 0.01040 280.1 9.7
291(9) 0.01030 280.1 9.8
308(9) 0.01014 280.1 9.9
317(9) 0.01058 280.1 10.0
300(9) 0.01107 280.1 10.1
291(9) 0.01077 280.1 10.2
259(9) 0.01119 280.1 10.3
285(9) 0.01062 280.1 10.4
278(9) 0.01185 280.0 10.5
299(9) 0.01091 280.0 10.6
291(9) 0.01104 280.0 10.7
297(10) 0.00979 280.0 10.8
277(9) 0.01124 280.0 10.9
298(9) 0.01124 280.0 11.0
296(9) 0.01087 280.1 11.1
295(9) 0.01043 280.2 11.2
257(9) 0.01185 280.2 11.3
301(9) 0.01057 280.3 11.4
297(9) 0.01129 280.4 11.5
289(9) 0.01126 280.4 11.6
292(9) 0.01077 280.5 11.7
296(9) 0.01061 280.6 11.8
285(9) 0.01116 280.6 11.9
269(9) 0.01230 280.7 12.0
294(9) 0.01087 280.8 12.1
302(10) 0.01005 280.9 12.3
268(9) 0.01171 280.9 12.4
274(9) 0.01166 281.0 12.5
300(9) 0.01106 281.1 12.7
291(9) 0.01102 281.1 12.8
288(9) 0.01065 281.2 13.0
311(9) 0.01011 281.3 13.2
290(9) 0.01128 281.4 13.3
278(9) 0.01184 281.4 13.5
295(9) 0.01075 281.5 13.7
302(10) 0.00980 281.6 13.9
286(9) 0.01090 281.6 14.1
283(9) 0.01165 281.7 14.2
286(9) 0.01152 281.8 14.4
301(9) 0.01039 281.8 14.6
313(10) 0.00950 281.9 14.7
294(9) 0.01028 282.0 14.8
273(9) 0.01214 282.1 14.8
288(9) 0.01159 282.1 14.9
321(10) 0.00967 282.2 14.9
318(10) 0.00939 282.3 14.9
303(9) 0.01009 282.3 14.8
299(9) 0.01103 282.4 14.7
277(9) 0.01199 282.5 14.7
293(9) 0.01073 282.6 14.5
312(10) 0.00907 282.6 14.4
278(9) 0.01148 282.7 14.3
288(9) 0.01139 282.8 14.2
298(9) 0.01128 282.8 14.1
292(9) 0.01076 282.9 14.0
274(9) 0.01070 283.0 13.9
301(9) 0.01051 283.0 13.9
288(9) 0.01162 283.1 13.8
302(9) 0.01073 283.2 13.8
294(9) 0.01024 283.3 13.7
306(10) 0.00971 283.3 13.7
287(9) 0.01111 283.4 13.7
291(9) 0.01136 283.5 13.7
302(9) 0.01103 283.5 13.8
300(9) 0.01033 283.6 13.8
309(10) 0.00985 283.7 13.9
308(10) 0.00993 283.8 13.9
297(9) 0.01131 283.8 14.0
296(9) 0.01108 283.9 14.1
274(9) 0.01134 284.0 14.2
293(9) 0.01062 284.0 14.4
303(10) 0.01001 284.1 14.5
286(9) 0.01173 284.2 14.6
285(9) 0.01077 284.3 14.8
279(9) 0.01117 284.3 15.0
305(9) 0.01029 284.4 15.2
293(9) 0.01087 284.5 15.4
301(9) 0.01103 284.5 15.6
294(9) 0.01095 284.6 15.8
342(10) 0.00905 284.7 16.1
307(10) 0.00996 284.7 16.3
294(9) 0.01092 284.8 16.6
313(9) 0.01065 284.9 16.8
306(10) 0.01007 285.0 17.1
298(10) 0.00987 285.0 17.4
315(10) 0.00971 285.1 17.7
305(9) 0.01082 285.2 18.0
313(9) 0.01064 285.2 18.3
307(9) 0.01019 285.3 18.6
307(10) 0.00965 285.4 18.9
283(9) 0.01103 285.5 19.1
295(9) 0.01095 285.5 19.4
296(9) 0.01136 285.6 19.7
301(9) 0.01052 285.7 19.9
292(9) 0.01008 285.7 20.1
289(9) 0.01071 285.8 20.3
307(9) 0.01073 285.9 20.5
318(9) 0.01057 285.9 20.6
306(9) 0.01061 286.0 20.6
323(10) 0.00891 286.1 20.6
289(9) 0.01107 286.2 20.5
302(9) 0.01107 286.2 20.4
296(9) 0.01117 286.3 20.2
306(9) 0.01015 286.4 20.0
308(10) 0.00963 286.4 19.8
289(9) 0.01088 286.5 19.5
300(9) 0.01104 286.6 19.3
283(9) 0.01163 286.7 19.0
297(9) 0.01073 286.7 18.7
289(9) 0.01074 286.8 18.5
299(9) 0.01043 286.9 18.2
272(9) 0.01216 286.9 17.9
297(9) 0.01109 287.0 17.7
318(10) 0.00962 287.1 17.4
296(9) 0.01076 287.1 17.2
292(9) 0.01082 287.2 17.0
318(9) 0.01055 287.3 16.8
283(9) 0.01121 287.4 16.6
293(9) 0.01024 287.4 16.4
285(9) 0.01057 287.5 16.2
299(9) 0.01051 287.6 16.1
278(9) 0.01193 287.6 15.9
281(9) 0.01120 287.7 15.8
293(9) 0.01076 287.8 15.7
286(9) 0.01126 287.9 15.6
305(9) 0.01084 287.9 15.5
329(9) 0.01031 288.0 15.4
301(9) 0.01072 288.1 15.3
297(10) 0.01002 288.1 15.2
274(9) 0.01137 288.2 15.1
311(9) 0.01020 288.3 14.9
286(9) 0.01159 288.3 14.8
293(9) 0.01053 288.4 14.7
310(10) 0.00964 288.5 14.5
294(9) 0.01074 288.6 14.4
287(9) 0.01135 288.6 14.2
303(9) 0.01099 288.7 14.1
287(9) 0.01054 288.8 13.9
280(9) 0.01100 288.8 13.7
281(9) 0.01124 288.9 13.5
310(9) 0.01055 289.0 13.3
297(9) 0.01114 289.1 13.2
282(9) 0.01070 289.1 13.0
297(10) 0.01004 289.2 12.8
283(9) 0.01133 289.3 12.6
303(9) 0.01100 289.3 12.5
307(9) 0.01087 289.4 12.3
270(9) 0.01149 289.5 12.1
293(9) 0.01011 289.5 12.0
296(9) 0.01101 289.6 11.8
315(9) 0.01068 289.7 11.7
282(9) 0.01145 289.8 11.6
281(9) 0.01131 289.8 11.4
278(9) 0.01075 289.9 11.3
307(9) 0.01008 290.0 11.2
269(9) 0.01226 290.0 11.1
299(9) 0.01088 290.1 11.0
281(9) 0.01085 290.2 10.9
288(9) 0.01010 290.3 10.8
295(9) 0.01054 290.3 10.7
304(9) 0.01094 290.4 10.6
302(9) 0.01067 290.5 10.5
293(9) 0.01057 290.5 10.4
293(9) 0.01009 290.6 10.4
289(9) 0.01072 290.7 10.3
276(9) 0.01205 290.7 10.2
284(9) 0.01124 290.8 10.2
309(9) 0.01024 290.9 10.1
302(10) 0.00997 291.0 10.1
306(9) 0.01022 291.0 10.0
306(9) 0.01084 291.0 10.0
293(9) 0.01106 291.0 10.0
306(9) 0.01032 291.0 9.9
278(9) 0.01107 291.0 9.9
289(9) 0.01119 291.0 9.9
288(9) 0.01160 291.0 9.9
283(9) 0.01091 291.0 9.9
296(10) 0.01005 291.0 9.9
327(10) 0.00923 291.0 9.9
290(9) . . .
299(9) . . .
285(9) . . .
288(9) . . .
292(9) . . .
296(9) . . .
275(9) . . .
285(9) . . .
285(9) . . .
300(9) . . .
277(9) . . .
276(9) . . .
288(9) . . .
278(9) . . .
293(9) . . .
277(9) . . .
278(9) . . .
289(9) . . .
299(10) . . .
292(9) . . .
277(9) . . .
278(9) . . .
279(9) . . .
274(9) . . .
284(9) . . .
321(9) . . .
294(9) . . .
300(9) . . .
298(10) . . .
305(10) . . .
297(9) . . .
321(9) . . .
291(9) . . .
278(9) . . .
276(9) . . .
308(9) . . .
312(9) . . .
322(10) . . .
264(9) . . .
263(9) . . .
274(9) . . .
290(9) . . .
294(9) . . .
302(9) . . .
304(9) . . .
325(9) . . .
313(9) . . .
288(9) . . .
303(9) . . .
294(9) . . .
286(9) . . .
308(10) . . .
264(9) . . .
276(9) . . .
303(9) . . .
296(9) . . .
307(9) . . .
290(9) . . .
296(9) . . .
286(9) . . .
283(9) . . .
313(10) . . .
289(9) . . .
298(9) . . .
284(9) . . .
283(9) . . .
299(9) . . .
268(9) . . .
280(9) . . .
297(9) . . .
273(9) . . .
267(9) . . .
291(10) . . .
280(9) . . .
287(9) . . .
278(9) . . .
274(9) . . .
284(9) . . .
260(9) . . .
271(9) . . .
304(9) . . .
284(9) . . .
287(9) . . .
294(9) . . .
310(9) . . .
292(9) . . .
302(9) . . .
264(9) . . .
283(9) . . .
279(9) . . .
272(9) . . .
270(9) . . .
293(9) . . .
286(9) . . .
278(9) . . .
292(9) . . .
280(9) . . .
301(9) . . .
286(9) . . .
281(9) . . .
287(9) . . .
291(9) . . .
263(9) . . .
277(9) . . .
285(9) . . .
287(9) . . .
284(9) . . .
279(9) . . .
287(9) . . .
322(9) . . .
278(9) . . .
299(9) . . .
287(9) . . .
274(9) . . .
264(8) . . .
272(9) . . .
280(9) . . .
310(10) . . .
294(9) . . .
294(9) . . .
305(9) . . .
265(9) . . .
268(9) . . .
281(9) . . .
282(9) . . .
289(9) . . .
303(10) . . .
293(9) . . .
293(9) . . .
272(9) . . .
264(9) . . .
263(9) . . .
289(9) . . .
294(9) . . .
256(8) . . .
257(9) . . .
286(9) . . .
271(9) . . .
313(9) . . .
287(9) . . .
268(9) . . .
269(9) . . .
288(9) . . .
299(9) . . .
291(9) . . .
294(9) . . .
299(9) . . .
275(9) . . .
278(9) . . .
277(9) . . .
284(9) . . .
282(9) . . .
280(9) . . .
282(9) . . .
276(9) . . .
304(10) . . .
283(9) . . .
263(9) . . .
254(8) . . .
269(9) . . .
286(9) . . .
293(10) . . .
290(9) . . .
270(8) . . .
277(9) . . .
266(9) . . .
299(9) . . .
283(9) . . .
264(8) . . .
267(9) . . .
293(9) . . .
297(9) . . .
268(9) . . .
276(9) . . .
287(9) . . .
281(9) . . .
285(9) . . .
261(8) . . .
293(9) . . .
278(9) . . .
293(9) . . .
262(9) . . .
270(9) . . .
270(9) . . .
270(9) . . .
267(9) . . .
275(9) . . .
285(9) . . .
289(9) . . .
282(9) . . .
268(9) . . .
279(9) . . .
269(8) . . .
242(8) . . .
265(9) . . .
260(9) . . .
270(9) . . .
273(9) . . .
271(9) . . .
254(8) . . .
283(9) . . .
275(9) . . .
290(9) . . .
291(9) . . .
269(9) . . .
299(9) . . .
247(8) . . .
287(9) . . .
284(9) . . .
266(9) . . .
281(9) . . .
272(9) . . .
237(8) . . .
275(9) . . .
271(9) . . .
267(9) . . .
284(9) . . .
276(9) . . .
284(9) . . .
280(9) . . .
272(9) . . .
256(8) . . .
267(8) . . .
247(8) . . .
285(10) . . .
233(8) . . .
280(9) . . .
266(9) . . .
256(9) . . .
303(10) . . .
257(9) . . .
253(8) . . .
266(8) . . .
294(9) . . .
261(9) . . .
271(9) . . .
278(9) . . .
281(9) . . .
263(9) . . .
264(9) . . .
265(9) . . .
261(8) . . .
258(8) . . .
291(9) . . .
298(9) . . .
297(9) . . .
266(8) . . .
273(9) . . .
274(9) . . .
282(9) . . .
266(9) . . .
290(9) . . .
289(9) . . .
252(8) . . .
288(9) . . .
261(8) . . .
264(8) . . .
266(9) . . .
259(9) . . .
267(9) . . .
278(9) . . .
267(9) . . .
288(9) . . .
266(9) . . .
271(9) . . .
260(8) . . .
264(8) . . .
266(9) . . .
254(9) . . .
262(9) . . .
274(9) . . .
261(8) . . .
308(9) . . .
267(9) . . .
262(9) . . .
275(9) . . .
271(8) . . .
259(9) . . .
267(9) . . .
276(9) . . .
271(9) . . .
260(8) . . .
265(9) . . .
274(9) . . .
269(9) . . .
280(9) . . .
274(9) . . .
279(9) . . .
277(9) . . .
270(9) . . .
252(8) . . .
259(8) . . .
281(9) . . .
284(9) . . .
284(9) . . .
258(8) . . .
257(9) . . .
267(9) . . .
282(9) . . .
280(9) . . .
277(9) . . .
270(9) . . .
290(9) . . .
271(9) . . .
284(9) . . .
271(9) . . .
278(9) . . .
310(10) . . .
304(9) . . .
281(9) . . .
298(9) . . .
303(9) . . .
305(10) . . .
288(9) . . .
301(9) . . .
295(9) . . .
288(9) . . .
290(9) . . .
297(9) . . .
292(9) . . .
298(9) . . .
295(9) . . .
272(9) . . .
297(9) . . .
278(9) . . .
299(9) . . .
316(10) . . .
278(9) . . .
292(9) . . .
274(9) . . .
309(9) . . .
284(9) . . .
309(10) . . .
308(10) . . .
284(9) . . .
261(9) . . .
283(9) . . .
281(9) . . .
291(9) . . .
274(9) . . .
265(9) . . .
283(9) . . .
275(9) . . .
303(9) . . .
261(8) . . .
267(9) . . .
285(9) . . .
290(9) . . .
259(9) . . .
273(9) . . .
254(8) . . .
270(9) . . .
298(9) . . .
269(8) . . .
279(9) . . .
256(9) . . .
273(9) . . .
265(9) . . .
286(9) . . .
270(9) . . .
272(9) . . .
284(9) . . .
261(9) . . .
290(9) . . .
265(8) . . .
276(9) . . .
290(10) . . .
289(9) . . .
276(9) . . .
274(9) . . .
279(9) . . .
275(9) . . .
296(9) . . .
276(9) . . .
264(8) . . .
264(9) . . .
298(10) . . .
278(9) . . .
276(9) . . .
284(9) . . .
289(9) . . .
304(10) . . .
284(9) . . .
279(9) . . .
292(9) . . .
274(9) . . .
270(9) . . .
289(9) . . .
277(9) . . .
278(9) . . .
276(9) . . .
288(9) . . .
311(9) . . .
289(9) . . .
270(9) . . .
284(9) . . .
309(10) . . .
279(9) . . .
289(9) . . .
290(9) . . .
295(9) . . .
289(9) . . .
256(8) . . .
272(9) . . .
269(9) . . .
301(10) . . .
292(9) . . .
306(9) . . .
267(8) . . .
255(9) . . .
267(9) . . .
289(9) . . .
291(9) . . .
280(9) . . .
279(9) . . .
304(10) . . .
269(9) . . .
269(9) . . .
249(8) . . .
277(9) . . .
260(9) . . .
283(9) . . .
277(9) . . .
301(9) . . .
285(9) . . .
297(10) . . .
297(9) . . .
287(9) . . .
283(9) . . .
269(9) . . .
270(9) . . .
297(9) . . .
277(9) . . .
269(9) . . .
285(9) . . .
297(9) . . .
268(9) . . .
270(9) . . .
284(9) . . .
291(9) . . .
302(9) . . .
282(9) . . .
255(8) . . .
279(9) . . .
280(9) . . .
267(9) . . .
264(9) . . .
305(9) . . .
263(9) . . .
280(9) . . .
263(9) . . .
299(9) . . .
286(9) . . .
270(9) . . .
289(9) . . .
253(8) . . .
263(8) . . .
247(8) . . .
249(9) . . .
268(9) . . .
268(9) . . .
247(8) . . .
249(8) . . .
269(9) . . .
262(9) . . .
274(9) . . .
250(8) . . .
252(8) . . .
258(9) . . .
258(9) . . .
264(9) . . .
259(8) . . .
250(8) . . .
256(9) . . .
258(9) . . .
277(9) . . .
261(8) . . .
264(9) . . .
244(8) . . .
263(9) . . .
264(9) . . .
265(8) . . .
254(8) . . .
280(9) . . .
286(9) . . .
273(9) . . .
251(8) . . .
243(8) . . .
265(9) . . .
238(8) . . .
247(8) . . .
256(8) . . .
240(8) . . .
255(8) . . .
274(9) . . .
252(9) . . .
265(8) . . .
251(8) . . .
263(9) . . .
264(9) . . .
264(9) . . .
267(8) . . .
260(9) . . .
251(8) . . .
250(9) . . .
256(8) . . .
248(8) . . .
251(9) . . .
266(9) . . .
258(9) . . .
261(8) . . .
253(8) . . .
265(9) . . .
269(9) . . .
268(9) . . .
252(8) . . .
250(8) . . .
259(9) . . .
250(9) . . .
261(9) . . .
288(9) . . .
273(9) . . .
288(9) . . .
252(9) . . .
233(8) . . .
264(8) . . .
267(9) . . .
281(9) . . .
234(9) . . .
238(8) . . .
258(8) . . .
270(9) . . .
261(9) . . .
271(9) . . .
275(9) . . .
238(8) . . .
261(8) . . .
235(8) . . .
249(9) . . .
243(8) . . .
274(9) . . .
245(8) . . .
268(9) . . .
245(8) . . .
241(8) . . .
256(8) . . .
254(9) . . .
247(9) . . .
274(9) . . .
263(8) . . .
241(8) . . .
218(8) . . .
250(9) . . .
229(8) . . .
278(9) . . .
256(8) . . .
256(9) . . .
248(9) . . .
245(8) . . .
248(8) . . .
231(8) . . .
266(9) . . .
257(9) . . .
254(9) . . .
264(8) . . .
236(8) . . .
254(9) . . .
245(9) . . .
263(9) . . .
266(8) . . .
238(8) . . .
258(9) . . .
263(9) . . .
285(9) . . .
229(8) . . .
267(8) . . .
250(8) . . .
247(9) . . .
268(9) . . .
255(8) . . .
224(8) . . .
243(8) . . .
238(8) . . .
262(9) . . .
248(8) . . .
233(8) . . .
250(9) . . .
268(9) . . .
254(8) . . .
247(8) . . .
235(8) . . .
230(8) . . .
276(9) . . .
276(9) . . .
267(8) . . .
256(8) . . .
263(9) . . .
272(9) . . .
275(9) . . .
274(9) . . .
248(8) . . .
264(9) . . .
239(8) . . .
265(9) . . .
268(8) . . .
259(9) . . .
255(9) . . .
252(8) . . .
256(8) . . .
253(8) . . .
256(9) . . .
245(9) . . .
254(8) . . .
245(8) . . .
247(8) . . .
258(9) . . .
245(9) . . .
267(9) . . .
255(8) . . .
270(8) . . .
233(8) . . .
227(8) . . .
226(8) . . .
230(8) . . .
248(8) . . .
260(9) . . .
264(9) . . .
226(8) . . .
233(8) . . .
256(8) . . .
240(8) . . .
263(9) . . .
264(9) . . .
251(8) . . .
236(8) . . .
277(9) . . .
256(9) . . .
270(9) . . .
255(8) . . .
248(8) . . .
248(8) . . .
228(8) . . .
254(9) . . .
269(8) . . .
254(8) . . .
240(8) . . .
258(9) . . .
239(8) . . .
268(8) . . .
232(8) . . .
257(9) . . .
248(9) . . .
256(8) . . .
255(8) . . .
253(9) . . .
240(8) . . .
274(9) . . .
241(8) . . .
246(8) . . .
292(9) . . .
243(8) . . .
251(8) . . .
234(8) . . .
236(8) . . .
268(9) . . .
239(8) . . .
260(9) . . .
233(8) . . .
261(8) . . .
250(8) . . .
236(8) . . .
233(8) . . .
239(8) . . .
246(8) . . .
243(8) . . .
253(9) . . .
238(8) . . .
241(8) . . .
249(8) . . .
252(8) . . .
247(9) . . .
244(8) . . .
236(8) . . .
226(8) . . .
231(8) . . .
259(9) . . .
253(9) . . .
254(8) . . .
249(8) . . .
238(8) . . .
241(8) . . .
236(8) . . .
245(8) . . .
238(8) . . .
249(9) . . .
232(8) . . .
253(8) . . .
241(8) . . .
253(9) . . .
232(8) . . .
238(8) . . .
258(8) . . .
244(8) . . .
231(8) . . .
256(9) . . .
253(9) . . .
241(8) . . .
243(8) . . .
246(8) . . .
246(8) . . .
248(8) . . .
244(8) . . .
239(8) . . .
245(8) . . .
269(9) . . .
244(8) . . .
257(8) . . .
240(8) . . .
231(8) . . .
234(9) . . .
252(9) . . .
245(8) . . .
244(8) . . .
248(8) . . .
232(8) . . .
262(9) . . .
243(8) . . .
230(8) . . .
241(8) . . .
217(8) . . .
240(8) . . .
251(8) . . .
228(8) . . .
248(8) . . .
225(8) . . .
238(8) . . .
237(8) . . .
251(8) . . .
251(8) . . .
236(8) . . .
235(8) . . .
238(8) . . .
221(8) . . .
227(8) . . .
225(8) . . .
230(8) . . .
242(8) . . .
232(8) . . .
240(9) . . .
244(9) . . .
213(8) . . .
234(8) . . .
226(8) . . .
245(8) . . .
245(9) . . .
241(8) . . .
235(8) . . .
244(8) . . .
256(9) . . .
238(8) . . .
250(8) . . .
234(8) . . .
242(8) . . .
236(8) . . .
239(8) . . .
259(8) . . .
256(8) . . .
251(9) . . .
253(9) . . .
262(9) . . .
243(8) . . .
270(9) . . .
268(9) . . .
279(9) . . .
261(9) . . .
276(9) . . .
277(9) . . .
259(8) . . .
249(9) . . .
255(9) . . .
263(8) . . .
260(8) . . .
243(8) . . .
261(9) . . .
244(8) . . .
251(8) . . .
229(8) . . .
266(9) . . .
250(9) . . .
254(9) . . .
249(8) . . .
262(8) . . .
244(8) . . .
253(9) . . .
234(8) . . .
219(8) . . .
252(8) . . .
237(8) . . .
228(8) . . .
257(9) . . .
229(8) . . .
244(8) . . .
231(8) . . .
244(8) . . .
238(8) . . .
251(8) . . .
227(8) . . .
241(9) . . .
245(8) . . .
237(8) . . .
250(8) . . .
241(9) . . .
244(9) . . .
235(8) . . .
236(8) . . .
233(8) . . .
213(8) . . .
232(8) . . .
229(8) . . .
215(8) . . .
230(8) . . .
221(8) . . .
226(8) . . .
225(8) . . .
240(8) . . .
241(8) . . .
217(8) . . .
224(8) . . .
225(8) . . .
243(8) . . .
220(8) . . .
228(8) . . .
206(8) . . .
230(8) . . .
226(8) . . .
245(8) . . .
235(8) . . .
237(8) . . .
225(8) . . .
204(7) . . .
209(7) . . .
217(8) . . .
226(8) . . .
226(8) . . .
222(8) . . .
208(8) . . .
224(8) . . .
203(8) . . .
241(8) . . .
240(8) . . .
211(8) . . .
215(8) . . .
214(8) . . .
222(8) . . .
208(8) . . .
224(8) . . .
249(9) . . .
244(8) . . .
241(8) . . .
218(8) . . .
218(8) . . .
208(8) . . .
213(8) . . .
222(8) . . .
218(8) . . .
214(8) . . .
234(8) . . .
238(8) . . .
226(8) . . .
225(8) . . .
208(8) . . .
204(8) . . .
238(8) . . .
224(8) . . .
196(7) . . .
220(8) . . .
209(8) . . .
224(8) . . .
229(8) . . .
209(8) . . .
231(8) . . .
249(9) . . .
227(8) . . .
223(8) . . .
223(8) . . .
236(8) . . .
220(8) . . .
219(8) . . .
209(7) . . .
200(8) . . .
199(8) . . .
214(8) . . .
203(8) . . .
220(8) . . .
223(8) . . .
228(8) . . .
209(8) . . .
219(8) . . .
230(8) . . .
243(8) . . .
218(8) . . .
203(8) . . .
199(8) . . .
207(7) . . .
230(8) . . .
221(8) . . .
227(8) . . .
214(8) . . .
196(7) . . .
223(8) . . .
207(8) . . .
237(8) . . .
201(7) . . .
216(8) . . .
218(8) . . .
223(8) . . .
211(8) . . .
194(7) . . .
208(7) . . .
220(8) . . .
218(8) . . .
219(8) . . .
218(8) . . .
222(8) . . .
218(8) . . .
203(8) . . .
217(8) . . .
206(7) . . .
224(8) . . .
214(8) . . .
217(8) . . .
198(7) . . .
224(8) . . .
235(8) . . .
241(9) . . .
186(8) . . .
202(8) . . .
228(8) . . .
220(8) . . .
230(8) . . .
210(8) . . .
232(8) . . .
196(7) . . .
223(8) . . .
213(8) . . .
226(8) . . .
222(8) . . .
230(8) . . .
208(8) . . .
223(8) . . .
211(8) . . .
202(8) . . .
207(7) . . .
222(8) . . .
195(7) . . .
211(8) . . .
195(7) . . .
221(8) . . .
218(8) . . .
217(8) . . .
217(8) . . .
202(7) . . .
222(8) . . .
221(8) . . .
222(8) . . .
222(8) . . .
221(8) . . .
218(8) . . .
215(8) . . .
218(8) . . .
181(7) . . .
209(8) . . .
244(8) . . .
200(7) . . .
203(8) . . .
219(8) . . .
224(8) . . .
208(8) . . .
228(8) . . .
218(8) . . .
210(8) . . .
215(8) . . .
226(8) . . .
204(8) . . .
227(8) . . .
201(7) . . .
215(8) . . .
211(8) . . .
211(8) . . .
222(8) . . .
238(8) . . .
201(7) . . .
239(8) . . .
235(8) . . .
218(8) . . .
214(8) . . .
190(7) . . .
217(8) . . .
188(7) . . .
211(8) . . .
216(8) . . .
207(7) . . .
215(8) . . .
198(7) . . .
201(8) . . .
200(8) . . .
211(8) . . .
237(8) . . .
226(8) . . .
197(8) . . .
210(8) . . .
216(8) . . .
205(8) . . .
218(8) . . .
208(8) . . .
212(8) . . .
215(8) . . .
210(8) . . .
213(8) . . .
200(8) . . .
195(7) . . .
225(8) . . .
225(8) . . .
239(9) . . .
217(8) . . .
213(8) . . .
226(8) . . .
201(7) . . .
199(8) . . .
214(8) . . .
229(8) . . .
215(8) . . .
220(8) . . .
216(8) . . .
216(8) . . .
218(8) . . .
190(7) . . .
224(8) . . .
201(8) . . .
213(8) . . .
216(8) . . .
206(8) . . .
214(8) . . .
217(8) . . .
245(9) . . .
235(8) . . .
207(8) . . .
219(8) . . .
214(8) . . .
227(8) . . .
199(7) . . .
203(7) . . .
199(7) . . .
213(8) . . .
207(8) . . .
202(7) . . .
213(8) . . .
233(8) . . .
233(8) . . .
230(8) . . .
236(8) . . .
215(8) . . .
226(8) . . .
199(7) . . .
217(8) . . .
202(7) . . .
224(8) . . .
235(9) . . .
204(8) . . .
206(8) . . .
204(7) . . .
213(8) . . .
202(8) . . .
225(8) . . .
228(8) . . .
220(8) . . .
211(8) . . .
212(8) . . .
207(8) . . .
218(8) . . .
211(8) . . .
209(8) . . .
212(8) . . .
218(8) . . .
203(7) . . .
216(8) . . .
209(8) . . .
221(8) . . .
223(8) . . .
219(8) . . .
226(8) . . .
213(8) . . .
215(8) . . .
211(8) . . .
213(8) . . .
212(8) . . .
195(7) . . .
222(8) . . .
218(8) . . .
188(7) . . .
204(8) . . .
237(8) . . .
238(8) . . .
200(8) . . .
211(8) . . .
240(8) . . .
204(8) . . .
206(8) . . .
207(8) . . .
221(8) . . .
233(8) . . .
224(8) . . .
206(8) . . .
203(7) . . .
226(8) . . .
217(8) . . .
215(8) . . .
199(8) . . .
204(7) . . .
201(7) . . .
198(8) . . .
205(8) . . .
235(8) . . .
214(8) . . .
216(8) . . .
196(7) . . .
200(8) . . .
183(7) . . .
190(7) . . .
221(8) . . .
216(8) . . .
203(8) . . .
207(8) . . .
187(7) . . .
224(8) . . .
239(8) . . .
205(8) . . .
203(8) . . .
220(8) . . .
215(8) . . .
214(8) . . .
203(8) . . .
193(7) . . .
196(7) . . .
192(7) . . .
202(8) . . .
205(8) . . .
224(8) . . .
201(7) . . .
222(8) . . .
206(8) . . .
195(7) . . .
209(8) . . .
221(8) . . .
221(8) . . .
205(8) . . .
204(7) . . .
204(8) . . .
211(8) . . .
207(8) . . .
209(8) . . .
202(8) . . .
179(7) . . .
196(7) . . .
212(8) . . .
201(8) . . .
195(8) . . .
210(8) . . .
217(8) . . .
206(8) . . .
211(8) . . .
198(7) . . .
223(8) . . .
197(7) . . .
211(8) . . .
217(8) . . .
207(8) . . .
207(8) . . .
219(8) . . .
205(8) . . .
202(8) . . .
198(8) . . .
207(7) . . .
199(7) . . .
187(7) . . .
223(8) . . .
213(8) . . .
202(7) . . .
224(8) . . .
226(8) . . .
210(8) . . .
209(8) . . .
192(7) . . .
212(8) . . .
191(7) . . .
198(8) . . .
218(8) . . .
193(7) . . .
220(8) . . .
214(8) . . .
175(7) . . .
206(8) . . .
195(7) . . .
195(7) . . .
214(8) . . .
187(7) . . .
212(8) . . .
211(8) . . .
191(8) . . .
198(8) . . .
191(8) . . .
186(7) . . .
205(7) . . .
209(8) . . .
217(8) . . .
174(7) . . .
187(7) . . .
198(7) . . .
214(8) . . .
206(8) . . .
195(8) . . .
205(8) . . .
209(8) . . .
192(8) . . .
197(8) . . .
186(7) . . .
213(8) . . .
208(8) . . .
183(7) . . .
188(8) . . .
212(8) . . .
198(7) . . .
212(8) . . .
194(8) . . .
219(8) . . .
182(7) . . .
200(7) . . .
200(7) . . .
200(7) . . .
182(7) . . .
190(7) . . .
191(7) . . .
189(7) . . .
208(8) . . .
185(7) . . .
197(7) . . .
200(7) . . .
182(7) . . .
205(8) . . .
186(7) . . .
198(8) . . .
214(8) . . .
212(8) . . .
189(8) . . .
197(8) . . .
201(7) . . .
190(7) . . .
209(8) . . .
191(7) . . .
180(7) . . .
205(8) . . .
188(7) . . .
193(7) . . .
214(8) . . .
210(8) . . .
185(7) . . .
193(7) . . .
192(7) . . .
195(8) . . .
192(7) . . .
196(7) . . .
194(7) . . .
178(7) . . .
200(8) . . .
223(8) . . .
216(8) . . .
211(8) . . .
195(7) . . .
201(8) . . .
226(8) . . .
223(8) . . .
220(8) . . .
211(8) . . .
213(8) . . .
205(8) . . .
205(7) . . .
201(7) . . .
185(7) . . .
211(8) . . .
215(8) . . .
214(8) . . .
199(7) . . .
195(7) . . .
226(8) . . .
208(8) . . .
195(7) . . .
195(7) . . .
197(8) . . .
201(8) . . .
206(8) . . .
240(8) . . .
186(7) . . .
184(7) . . .
193(7) . . .
178(7) . . .
179(7) . . .
203(8) . . .
201(8) . . .
215(8) . . .
224(8) . . .
197(7) . . .
205(8) . . .
204(8) . . .
188(7) . . .
192(7) . . .
198(7) . . .
201(8) . . .
214(8) . . .
208(8) . . .
172(7) . . .
203(7) . . .
216(8) . . .
198(8) . . .
206(8) . . .
222(8) . . .
213(8) . . .
164(7) . . .
206(8) . . .
209(8) . . .
206(7) . . .
206(8) . . .
181(7) . . .
190(8) . . .
181(7) . . .
208(7) . . .
203(7) . . .
194(7) . . .
205(8) . . .
179(7) . . .
197(7) . . .
201(7) . . .
199(8) . . .
207(8) . . .
201(8) . . .
199(7) . . .
219(8) . . .
217(8) . . .
207(8) . . .
213(8) . . .
198(7) . . .
203(8) . . .
190(7) . . .
217(8) . . .
205(8) . . .
198(7) . . .
206(8) . . .
205(8) . . .
199(8) . . .
208(8) . . .
195(7) . . .
200(8) . . .
185(7) . . .
208(8) . . .
195(7) . . .
197(7) . . .
212(8) . . .
210(8) . . .
204(8) . . .
195(7) . . .
218(8) . . .
187(7) . . .
197(8) . . .
209(8) . . .
216(8) . . .
210(8) . . .
210(8) . . .
190(8) . . .
173(7) . . .
196(7) . . .
188(7) . . .
194(7) . . .
200(8) . . .
189(7) . . .
204(7) . . .
217(8) . . .
206(8) . . .
187(7) . . .
193(7) . . .
213(8) . . .
192(7) . . .
200(8) . . .
190(8) . . .
192(7) . . .
205(7) . . .
191(8) . . .
169(7) . . .
189(8) . . .
189(7) . . .
217(8) . . .
203(8) . . .
203(8) . . .
168(7) . . .
183(7) . . .
184(7) . . .
178(7) . . .
180(7) . . .
179(7) . . .
211(8) . . .
196(7) . . .
186(7) . . .
217(8) . . .
187(7) . . .
195(7) . . .
194(7) . . .
180(7) . . .
203(8) . . .
186(7) . . .
201(7) . . .
174(7) . . .
197(7) . . .
212(8) . . .
200(8) . . .
183(7) . . .
190(7) . . .
190(7) . . .
189(8) . . .
181(7) . . .
178(7) . . .
201(7) . . .
191(7) . . .
207(8) . . .
196(7) . . .
200(7) . . .
213(8) . . .
206(8) . . .
178(7) . . .
186(7) . . .
182(7) . . .
199(7) . . .
195(8) . . .
200(8) . . .
186(7) . . .
202(7) . . .
192(7) . . .
228(9) . . .
224(8) . . .
205(8) . . .
173(7) . . .
205(7) . . .
202(8) . . .
188(8) . . .
180(7) . . .
191(7) . . .
201(8) . . .
206(8) . . .
192(7) . . .
177(7) . . .
181(7) . . .
191(7) . . .
182(7) . . .
175(7) . . .
181(7) . . .
196(7) . . .
182(7) . . .
201(8) . . .
187(7) . . .
184(7) . . .
185(7) . . .
169(7) . . .
175(7) . . .
186(7) . . .
180(7) . . .
175(7) . . .
177(7) . . .
180(7) . . .
189(7) . . .
196(7) . . .
180(7) . . .
185(7) . . .
169(7) . . .
204(8) . . .
186(7) . . .
188(7) . . .
191(7) . . .
171(7) . . .
175(7) . . .
182(7) . . .
193(7) . . .
199(8) . . .
186(7) . . .
183(7) . . .
184(7) . . .
184(7) . . .
193(7) . . .
175(7) . . .
193(7) . . .
195(7) . . .
175(7) . . .
201(8) . . .
166(7) . . .
203(8) . . .
197(7) . . .
182(7) . . .
200(8) . . .
188(7) . . .
174(7) . . .
181(7) . . .
197(8) . . .
178(7) . . .
192(7) . . .
184(7) . . .
183(7) . . .
191(8) . . .
180(7) . . .
190(7) . . .
204(8) . . .
175(7) . . .
173(7) . . .
195(8) . . .
170(7) . . .
196(7) . . .
198(7) . . .
201(8) . . .
199(8) . . .
170(7) . . .
203(8) . . .
182(7) . . .
190(7) . . .
201(8) . . .
207(8) . . .
197(7) . . .
167(7) . . .
188(7) . . .
178(7) . . .
188(7) . . .
190(7) . . .
189(7) . . .
172(7) . . .
179(7) . . .
169(7) . . .
212(8) . . .
178(7) . . .
214(8) . . .
190(7) . . .
193(7) . . .
184(7) . . .
168(7) . . .
184(7) . . .
190(7) . . .
187(7) . . .
180(7) . . .
191(7) . . .
183(7) . . .
175(7) . . .
192(7) . . .
196(7) . . .
191(7) . . .
183(7) . . .
186(7) . . .
180(7) . . .
194(7) . . .
168(7) . . .
194(8) . . .
169(7) . . .
179(7) . . .
188(7) . . .
175(7) . . .
179(8) . . .
160(7) . . .
195(7) . . .
176(7) . . .
174(7) . . .
184(8) . . .
188(7) . . .
169(7) . . .
188(7) . . .
176(7) . . .
196(8) . . .
177(7) . . .
181(7) . . .
169(7) . . .
189(7) . . .
184(8) . . .
177(7) . . .
184(7) . . .
169(7) . . .
163(7) . . .
172(7) . . .
164(7) . . .
191(7) . . .
187(7) . . .
174(7) . . .
185(8) . . .
181(7) . . .
188(7) . . .
191(7) . . .
168(7) . . .
186(8) . . .
179(7) . . .
168(7) . . .
193(7) . . .
179(7) . . .
187(7) . . .
198(8) . . .
208(7) . . .
199(7) . . .
174(7) . . .
184(7) . . .
205(8) . . .
186(7) . . .
207(8) . . .
183(7) . . .
160(7) . . .
179(7) . . .
181(7) . . .
183(7) . . .
180(7) . . .
175(7) . . .
187(7) . . .
189(7) . . .
181(7) . . .
178(7) . . .
189(7) . . .
182(7) . . .
181(7) . . .
183(7) . . .
197(8) . . .
196(7) . . .
183(7) . . .
203(7) . . .
202(8) . . .
205(8) . . .
174(7) . . .
197(7) . . .
177(7) . . .
180(7) . . .
168(7) . . .
164(7) . . .
191(7) . . .
165(7) . . .
176(7) . . .
159(7) . . .
188(8) . . .
172(7) . . .
184(7) . . .
184(7) . . .
184(7) . . .
182(7) . . .
168(7) . . .
178(7) . . .
181(7) . . .
186(7) . . .
157(7) . . .
184(7) . . .
182(7) . . .
197(8) . . .
197(8) . . .
179(7) . . .
175(7) . . .
180(7) . . .
204(8) . . .
196(7) . . .
202(8) . . .
174(7) . . .
206(8) . . .
190(7) . . .
202(8) . . .
175(7) . . .
183(7) . . .
189(7) . . .
198(8) . . .
186(7) . . .
175(7) . . .
199(7) . . .
187(7) . . .
188(8) . . .
181(7) . . .
201(8) . . .
171(7) . . .
185(7) . . .
183(8) . . .
192(7) . . .
177(7) . . .
178(7) . . .
190(7) . . .
184(7) . . .
190(7) . . .
197(7) . . .
175(7) . . .
171(7) . . .
201(8) . . .
198(8) . . .
215(8) . . .
214(8) . . .
203(8) . . .
192(7) . . .
189(7) . . .
191(7) . . .
192(7) . . .
192(7) . . .
204(8) . . .
174(7) . . .
173(7) . . .
189(7) . . .
185(7) . . .
188(7) . . .
187(7) . . .
168(7) . . .
188(8) . . .
188(7) . . .
183(7) . . .
173(7) . . .
191(7) . . .
179(7) . . .
179(7) . . .
215(8) . . .
203(7) . . .
192(7) . . .
180(7) . . .
158(7) . . .
167(7) . . .
204(8) . . .
185(7) . . .
180(7) . . .
166(7) . . .
170(7) . . .
179(7) . . .
180(7) . . .
174(7) . . .
202(8) . . .
187(7) . . .
202(7) . . .
173(7) . . .
194(8) . . .
191(8) . . .
174(7) . . .
198(7) . . .
198(7) . . .
166(7) . . .
185(7) . . .
168(7) . . .
195(7) . . .
207(8) . . .
195(8) . . .
197(8) . . .
193(8) . . .
190(7) . . .
183(7) . . .
180(7) . . .
204(8) . . .
194(7) . . .
163(7) . . .
173(7) . . .
165(7) . . .
183(7) . . .
176(7) . . .
167(7) . . .
175(7) . . .
175(7) . . .
196(8) . . .
189(7) . . .
182(7) . . .
167(7) . . .
163(7) . . .
188(7) . . .
174(7) . . .
183(7) . . .
201(8) . . .
194(8) . . .
172(7) . . .
178(7) . . .
197(7) . . .
172(7) . . .
197(8) . . .
207(8) . . .
201(7) . . .
180(7) . . .
172(7) . . .
176(7) . . .
180(7) . . .
190(7) . . .
186(7) . . .
185(7) . . .
164(7) . . .
172(7) . . .
186(7) . . .
181(7) . . .
200(8) . . .
185(8) . . .
188(7) . . .
184(7) . . .
182(7) . . .
197(8) . . .
189(8) . . .
179(7) . . .
193(7) . . .
182(7) . . .
177(7) . . .
166(7) . . .
172(7) . . .
172(7) . . .
168(7) . . .
157(7) . . .
169(7) . . .
186(7) . . .
193(7) . . .
166(7) . . .
176(7) . . .
187(8) . . .
203(7) . . .
196(7) . . .
192(7) . . .
169(7) . . .
188(7) . . .
175(7) . . .
175(7) . . .
197(8) . . .
187(7) . . .
187(7) . . .
184(7) . . .
176(7) . . .
183(7) . . .
165(7) . . .
176(7) . . .
175(7) . . .
180(7) . . .
176(7) . . .
179(7) . . .
173(7) . . .
178(7) . . .
189(7) . . .
193(8) . . .
184(8) . . .
181(7) . . .
174(7) . . .
184(7) . . .
194(7) . . .
177(7) . . .
169(7) . . .
190(7) . . .
170(7) . . .
185(7) . . .
185(8) . . .
178(7) . . .
161(7) . . .
183(7) . . .
184(7) . . .
179(7) . . .
187(7) . . .
181(7) . . .
178(7) . . .
175(7) . . .
173(7) . . .
176(7) . . .
167(7) . . .
192(7) . . .
189(7) . . .
194(8) . . .
167(7) . . .
160(7) . . .
174(7) . . .
170(7) . . .
171(7) . . .
165(7) . . .
187(7) . . .
161(7) . . .
168(7) . . .
175(7) . . .
198(7) . . .
197(7) . . .
185(7) . . .
188(8) . . .
162(7) . . .
180(7) . . .
183(7) . . .
189(7) . . .
199(8) . . .
181(7) . . .
178(7) . . .
184(7) . . .
164(7) . . .
177(7) . . .
176(7) . . .
167(7) . . .
159(7) . . .
179(7) . . .
195(8) . . .
192(7) . . .
183(7) . . .
172(7) . . .
184(7) . . .
174(7) . . .
170(7) . . .
178(7) . . .
155(7) . . .
180(7) . . .
182(7) . . .
188(7) . . .
171(7) . . .
174(7) . . .
183(7) . . .
175(7) . . .
172(7) . . .
175(7) . . .
174(7) . . .
180(7) . . .
193(8) . . .
159(7) . . .
175(7) . . .
156(7) . . .
174(7) . . .
179(7) . . .
174(7) . . .
183(7) . . .
163(7) . . .
164(7) . . .
169(7) . . .
168(7) . . .
181(7) . . .
177(7) . . .
168(7) . . .
178(7) . . .
170(7) . . .
163(7) . . .
177(7) . . .
176(7) . . .
166(7) . . .
167(7) . . .
180(7) . . .
192(8) . . .
162(7) . . .
172(7) . . .
168(7) . . .
165(7) . . .
164(7) . . .
193(8) . . .
196(8) . . .
177(7) . . .
171(7) . . .
186(7) . . .
181(7) . . .
164(7) . . .
163(7) . . .
189(7) . . .
183(7) . . .
190(8) . . .
183(7) . . .
191(7) . . .
176(7) . . .
206(8) . . .
186(7) . . .
173(7) . . .
163(7) . . .
191(7) . . .
175(7) . . .
187(8) . . .
183(7) . . .
186(7) . . .
175(7) . . .
155(7) . . .
173(7) . . .
166(7) . . .
179(7) . . .
162(7) . . .
152(7) . . .
177(7) . . .
183(7) . . .
162(7) . . .
166(7) . . .
192(8) . . .
185(7) . . .
181(7) . . .
176(7) . . .
160(7) . . .
182(8) . . .
167(7) . . .
169(7) . . .
170(7) . . .
172(7) . . .
173(7) . . .
165(7) . . .
193(7) . . .
171(7) . . .
199(8) . . .
183(7) . . .
187(7) . . .
152(6) . . .
179(7) . . .
187(8) . . .
178(7) . . .
180(7) . . .
181(7) . . .
170(7) . . .
162(7) . . .
160(7) . . .
162(7) . . .
182(7) . . .
176(7) . . .
166(7) . . .
176(7) . . .
177(7) . . .
170(7) . . .
162(7) . . .
177(7) . . .
158(7) . . .
170(7) . . .
149(6) . . .
158(7) . . .
174(7) . . .
181(7) . . .
182(7) . . .
180(7) . . .
167(7) . . .
161(7) . . .
178(7) . . .
178(7) . . .
165(7) . . .
156(7) . . .
159(7) . . .
178(7) . . .
175(7) . . .
169(7) . . .
163(7) . . .
161(7) . . .
159(7) . . .
169(7) . . .
168(7) . . .
158(7) . . .
171(7) . . .
171(7) . . .
155(6) . . .
170(7) . . .
181(7) . . .
174(7) . . .
174(7) . . .
176(7) . . .
183(7) . . .
189(7) . . .
177(7) . . .
167(7) . . .
161(7) . . .
172(7) . . .
186(7) . . .
175(7) . . .
171(7) . . .
173(7) . . .
174(7) . . .
159(7) . . .
148(6) . . .
172(7) . . .
173(7) . . .
175(7) . . .
144(6) . . .
143(6) . . .
162(7) . . .
177(7) . . .
189(7) . . .
165(7) . . .
176(7) . . .
163(7) . . .
160(7) . . .
179(7) . . .
161(7) . . .
175(7) . . .
195(7) . . .
192(7) . . .
172(7) . . .
180(7) . . .
185(7) . . .
186(7) . . .
187(7) . . .
163(7) . . .
167(7) . . .
184(7) . . .
157(6) . . .
161(7) . . .
183(7) . . .
157(7) . . .
161(7) . . .
170(7) . . .
160(7) . . .
175(7) . . .
184(8) . . .
174(7) . . .
181(7) . . .
172(7) . . .
181(7) . . .
175(7) . . .
188(7) . . .
188(7) . . .
168(7) . . .
163(7) . . .
183(7) . . .
186(7) . . .
173(7) . . .
173(7) . . .
162(7) . . .
165(7) . . .
176(7) . . .
173(7) . . .
173(7) . . .
168(7) . . .
166(7) . . .
165(7) . . .
178(7) . . .
182(7) . . .
176(7) . . .
180(7) . . .
158(7) . . .
163(7) . . .
175(7) . . .
170(7) . . .
174(7) . . .
166(7) . . .
175(7) . . .
161(7) . . .
185(8) . . .
171(7) . . .
153(6) . . .
168(7) . . .
176(7) . . .
165(7) . . .
181(7) . . .
165(7) . . .
176(7) . . .
164(7) . . .
181(8) . . .
189(7) . . .
172(7) . . .
175(7) . . .
168(7) . . .
172(7) . . .
164(7) . . .
169(7) . . .
166(7) . . .
168(7) . . .
176(8) . . .
169(7) . . .
178(7) . . .
163(7) . . .
162(7) . . .
170(7) . . .
168(7) . . .
174(7) . . .
171(7) . . .
165(7) . . .
165(7) . . .
185(8) . . .
174(7) . . .
183(7) . . .
174(7) . . .
173(7) . . .
175(7) . . .
184(7) . . .
179(7) . . .
176(7) . . .
159(7) . . .
169(7) . . .
178(7) . . .
165(7) . . .
159(7) . . .
169(7) . . .
168(7) . . .
174(7) . . .
184(7) . . .
166(7) . . .
171(7) . . .
176(7) . . .
174(7) . . .
186(7) . . .
195(8) . . .
163(7) . . .
162(7) . . .
172(7) . . .
179(7) . . .
175(7) . . .
154(7) . . .
168(7) . . .
157(7) . . .
175(7) . . .
176(7) . . .
173(7) . . .
182(7) . . .
168(7) . . .
169(7) . . .
179(8) . . .
175(7) . . .
210(8) . . .
185(7) . . .
175(7) . . .
187(8) . . .
184(7) . . .
182(7) . . .
185(7) . . .
176(7) . . .
191(8) . . .
195(8) . . .
187(7) . . .
171(7) . . .
188(8) . . .
182(7) . . .
153(7) . . .
163(7) . . .
167(7) . . .
169(7) . . .
179(7) . . .
172(7) . . .
161(7) . . .
155(7) . . .
170(7) . . .
162(7) . . .
167(7) . . .
173(7) . . .
188(7) . . .
168(7) . . .
152(7) . . .
152(6) . . .
177(7) . . .
184(7) . . .
181(8) . . .
163(7) . . .
169(7) . . .
189(7) . . .
153(7) . . .
164(7) . . .
180(7) . . .
168(7) . . .
154(6) . . .
178(7) . . .
185(8) . . .
168(7) . . .
171(7) . . .
174(7) . . .
171(7) . . .
179(8) . . .
175(7) . . .
178(7) . . .
163(7) . . .
173(7) . . .
186(7) . . .
164(7) . . .
155(6) . . .
187(7) . . .
170(7) . . .
156(7) . . .
174(7) . . .
181(7) . . .
182(7) . . .
183(7) . . .
167(7) . . .
162(7) . . .
180(7) . . .
165(7) . . .
170(7) . . .
169(7) . . .
175(7) . . .
167(7) . . .
180(7) . . .
181(7) . . .
175(7) . . .
177(7) . . .
157(6) . . .
158(7) . . .
172(7) . . .
161(7) . . .
180(7) . . .
177(7) . . .
204(8) . . .
190(8) . . .
175(7) . . .
162(7) . . .
166(7) . . .
175(7) . . .
148(7) . . .
178(7) . . .
172(7) . . .
158(7) . . .
170(7) . . .
176(7) . . .
173(7) . . .
187(7) . . .
164(7) . . .
171(7) . . .
166(7) . . .
150(7) . . .
187(7) . . .
175(7) . . .
205(8) . . .
176(7) . . .
161(7) . . .
185(7) . . .
168(7) . . .
158(7) . . .
169(7) . . .
182(7) . . .
174(7) . . .
167(7) . . .
171(7) . . .
168(7) . . .
159(7) . . .
173(7) . . .
177(7) . . .
180(7) . . .
170(7) . . .
171(7) . . .
168(7) . . .
165(7) . . .
169(7) . . .
177(7) . . .
154(7) . . .
169(7) . . .
158(7) . . .
175(7) . . .
185(7) . . .
175(7) . . .
169(7) . . .
178(7) . . .
173(7) . . .
175(7) . . .
200(7) . . .
189(7) . . .
178(7) . . .
188(8) . . .
187(8) . . .
170(7) . . .
179(7) . . .
166(7) . . .
171(7) . . .
168(7) . . .
164(7) . . .
176(7) . . .
183(7) . . .
158(7) . . .
184(7) . . .
176(7) . . .
165(7) . . .
176(7) . . .
182(7) . . .
196(8) . . .
177(7) . . .
182(7) . . .
169(7) . . .
175(7) . . .
171(7) . . .
183(7) . . .
181(7) . . .
177(7) . . .
157(7) . . .
156(7) . . .
174(7) . . .
166(7) . . .
161(7) . . .
178(7) . . .
171(7) . . .
174(7) . . .
177(7) . . .
158(7) . . .
189(7) . . .
189(7) . . .
179(7) . . .
160(7) . . .
172(7) . . .
181(7) . . .
170(7) . . .
177(7) . . .
176(7) . . .
161(7) . . .
179(7) . . .
175(7) . . .
154(6) . . .
157(7) . . .
182(8) . . .
171(7) . . .
181(7) . . .
178(7) . . .
155(7) . . .
173(8) . . .
165(7) . . .
185(7) . . .
187(7) . . .
171(7) . . .
178(7) . . .
174(7) . . .
176(7) . . .
175(7) . . .
172(7) . . .
153(6) . . .
173(7) . . .
177(7) . . .
176(7) . . .
178(7) . . .
162(7) . . .
176(7) . . .
189(7) . . .
165(7) . . .
143(6) . . .
162(7) . . .
170(7) . . .
155(6) . . .
179(7) . . .
183(7) . . .
173(7) . . .
180(7) . . .
181(7) . . .
190(7) . . .
182(7) . . .
179(7) . . .
160(7) . . .
208(7) . . .
162(7) . . .
153(7) . . .
178(7) . . .
191(7) . . .
183(7) . . .
191(7) . . .
183(7) . . .
187(7) . . .
188(7) . . .
156(6) . . .
166(7) . . .
188(8) . . .
196(8) . . .
168(7) . . .
159(7) . . .
176(7) . . .
182(8) . . .
157(7) . . .
179(7) . . .
186(7) . . .
178(7) . . .
177(7) . . .
170(7) . . .
161(7) . . .
155(6) . . .
162(7) . . .
172(7) . . .
169(7) . . .
186(7) . . .
180(7) . . .
199(8) . . .
164(7) . . .
170(7) . . .
185(7) . . .
179(7) . . .
173(7) . . .
172(7) . . .
165(7) . . .
175(7) . . .
160(7) . . .
165(7) . . .
169(7) . . .
174(7) . . .
155(6) . . .
163(7) . . .
184(7) . . .
187(7) . . .
188(7) . . .
179(7) . . .
165(7) . . .
171(7) . . .
175(7) . . .
176(7) . . .
182(7) . . .
164(7) . . .
180(7) . . .
164(7) . . .
169(7) . . .
176(7) . . .
165(7) . . .
174(7) . . .
164(7) . . .
161(7) . . .
181(7) . . .
168(7) . . .
193(8) . . .
188(8) . . .
169(7) . . .
180(7) . . .
170(7) . . .
178(7) . . .
169(7) . . .
187(7) . . .
178(7) . . .
178(7) . . .
184(8) . . .
167(7) . . .
174(7) . . .
185(7) . . .
171(7) . . .
187(8) . . .
167(7) . . .
169(7) . . .
176(7) . . .
165(7) . . .
162(7) . . .
179(7) . . .
187(7) . . .
175(7) . . .
174(7) . . .
176(7) . . .
173(7) . . .
174(7) . . .
190(7) . . .
156(6) . . .
170(7) . . .
169(7) . . .
171(7) . . .
172(7) . . .
164(7) . . .
180(8) . . .
162(7) . . .
171(7) . . .
170(7) . . .
153(7) . . .
182(7) . . .
165(7) . . .
172(7) . . .
156(7) . . .
168(7) . . .
167(7) . . .
156(7) . . .
152(6) . . .
163(7) . . .
149(7) . . .
166(7) . . .
142(6) . . .
159(7) . . .
172(7) . . .
160(7) . . .
178(7) . . .
163(7) . . .
171(7) . . .
175(7) . . .
173(8) . . .
144(7) . . .
168(7) . . .
144(6) . . .
177(7) . . .
154(7) . . .
169(7) . . .
174(7) . . .
179(7) . . .
160(7) . . .
182(8) . . .
180(7) . . .
170(7) . . .
151(6) . . .
164(7) . . .
173(7) . . .
170(7) . . .
160(7) . . .
156(7) . . .
169(7) . . .
197(8) . . .
173(7) . . .
167(7) . . .
171(7) . . .
160(7) . . .
168(7) . . .
155(7) . . .
174(7) . . .
170(7) . . .
168(7) . . .
152(7) . . .
168(7) . . .
170(7) . . .
158(7) . . .
157(7) . . .
172(7) . . .
152(7) . . .
189(7) . . .
153(6) . . .
167(7) . . .
169(7) . . .
180(7) . . .
165(7) . . .
175(7) . . .
174(7) . . .
155(7) . . .
167(7) . . .
190(7) . . .
161(7) . . .
162(7) . . .
167(7) . . .
191(7) . . .
171(7) . . .
171(7) . . .
168(7) . . .
172(7) . . .
177(7) . . .
177(7) . . .
184(8) . . .
154(7) . . .
150(7) . . .
166(7) . . .
169(7) . . .
174(7) . . .
164(7) . . .
152(7) . . .
176(7) . . .
161(7) . . .
175(7) . . .
183(7) . . .
174(7) . . .
164(7) . . .
172(7) . . .
163(7) . . .
179(7) . . .
180(7) . . .
176(7) . . .
174(7) . . .
171(7) . . .
159(7) . . .
170(7) . . .
179(7) . . .
174(7) . . .
156(7) . . .
177(7) . . .
172(7) . . .
172(7) . . .
180(7) . . .
173(7) . . .
171(7) . . .
179(7) . . .
179(7) . . .
174(7) . . .
174(7) . . .
174(7) . . .
167(7) . . .
188(7) . . .
170(7) . . .
202(8) . . .
184(7) . . .
173(7) . . .
170(7) . . .
179(7) . . .
186(7) . . .
167(7) . . .
163(7) . . .
171(7) . . .
195(8) . . .
178(8) . . .
152(7) . . .
186(7) . . .
184(7) . . .
183(7) . . .
163(7) . . .
185(8) . . .
176(7) . . .
180(7) . . .
165(7) . . .
184(8) . . .
180(7) . . .
177(7) . . .
163(7) . . .
174(7) . . .
166(7) . . .
170(7) . . .
179(7) . . .
178(7) . . .
172(7) . . .
167(7) . . .
173(7) . . .
171(7) . . .
194(8) . . .
181(7) . . .
185(7) . . .
163(7) . . .
176(7) . . .
153(7) . . .
155(7) . . .
168(7) . . .
182(7) . . .
157(7) . . .
169(7) . . .
196(8) . . .
167(7) . . .
171(7) . . .
189(7) . . .
161(7) . . .
177(7) . . .
167(7) . . .
176(7) . . .
185(7) . . .
172(7) . . .
161(7) . . .
164(7) . . .
179(7) . . .
173(7) . . .
174(7) . . .
168(7) . . .
182(7) . . .
164(7) . . .
178(7) . . .
162(7) . . .
168(7) . . .
150(6) . . .
193(7) . . .
189(7) . . .
175(7) . . .
160(7) . . .
182(7) . . .
164(7) . . .
178(7) . . .
148(7) . . .
163(7) . . .
165(7) . . .
169(7) . . .
171(7) . . .
177(7) . . .
167(7) . . .
169(7) . . .
171(7) . . .
177(7) . . .
181(7) . . .
170(7) . . .
173(7) . . .
172(7) . . .
190(7) . . .
181(7) . . .
162(7) . . .
175(7) . . .
174(7) . . .
167(7) . . .
158(7) . . .
167(7) . . .
182(7) . . .
168(7) . . .
185(7) . . .
193(8) . . .
178(7) . . .
175(7) . . .
190(7) . . .
188(7) . . .
157(7) . . .
183(7) . . .
175(7) . . .
173(7) . . .
171(7) . . .
176(8) . . .
187(7) . . .
193(7) . . .
155(6) . . .
168(7) . . .
159(7) . . .
177(7) . . .
160(7) . . .
174(7) . . .
156(7) . . .
158(7) . . .
163(7) . . .
186(7) . . .
196(7) . . .
172(7) . . .
178(8) . . .
177(7) . . .
166(7) . . .
162(7) . . .
157(7) . . .
183(7) . . .
159(7) . . .
179(7) . . .
168(7) . . .
193(7) . . .
194(8) . . .
184(7) . . .
188(7) . . .
172(7) . . .
188(8) . . .
171(7) . . .
197(8) . . .
166(7) . . .
166(7) . . .
179(7) . . .
177(7) . . .
162(7) . . .
163(7) . . .
171(7) . . .
167(7) . . .
170(7) . . .
167(7) . . .
177(7) . . .
163(7) . . .
163(7) . . .
179(7) . . .
169(7) . . .
175(7) . . .
165(7) . . .
170(7) . . .
164(7) . . .
173(7) . . .
178(7) . . .
170(7) . . .
162(7) . . .
156(7) . . .
161(7) . . .
179(7) . . .
180(7) . . .
183(8) . . .
169(7) . . .
174(7) . . .
172(7) . . .
152(7) . . .
180(7) . . .
172(7) . . .
169(7) . . .
182(7) . . .
172(7) . . .
173(7) . . .
162(7) . . .
163(7) . . .
174(7) . . .
154(7) . . .
164(7) . . .
186(7) . . .
178(7) . . .
159(7) . . .
182(7) . . .
164(7) . . .
167(7) . . .
176(7) . . .
155(7) . . .
173(7) . . .
171(7) . . .
166(7) . . .
174(7) . . .
171(7) . . .
167(7) . . .
178(7) . . .
172(7) . . .
173(7) . . .
163(7) . . .
164(7) . . .
153(7) . . .
151(6) . . .
151(6) . . .
172(7) . . .
150(7) . . .
167(7) . . .
167(7) . . .
136(6) . . .
181(7) . . .
183(7) . . .
181(7) . . .
168(7) . . .
161(7) . . .
179(7) . . .
166(7) . . .
155(7) . . .
171(7) . . .
165(7) . . .
180(7) . . .
166(7) . . .
172(7) . . .
163(7) . . .
172(7) . . .
157(7) . . .
169(7) . . .
171(7) . . .
177(7) . . .
170(7) . . .
168(7) . . .
171(7) . . .
159(7) . . .
167(7) . . .
155(7) . . .
159(7) . . .
178(7) . . .
172(7) . . .
175(7) . . .
163(7) . . .
143(6) . . .
179(7) . . .
161(7) . . .
166(7) . . .
147(6) . . .
152(7) . . .
153(7) . . .
164(7) . . .
175(7) . . .
174(7) . . .
171(7) . . .
166(7) . . .
155(7) . . .
164(7) . . .
172(7) . . .
171(7) . . .
156(7) . . .
163(7) . . .
152(6) . . .
181(7) . . .
158(7) . . .
157(7) . . .
180(7) . . .
177(7) . . .
169(7) . . .
184(8) . . .
163(7) . . .
158(7) . . .
149(6) . . .
171(7) . . .
162(7) . . .
182(7) . . .
162(7) . . .
170(7) . . .
175(7) . . .
179(7) . . .
170(7) . . .
184(7) . . .
176(7) . . .
176(7) . . .
163(7) . . .
173(7) . . .
166(7) . . .
153(7) . . .
158(7) . . .
185(8) . . .
164(7) . . .
181(7) . . .
160(7) . . .
153(7) . . .
156(7) . . .
184(7) . . .
166(7) . . .
188(7) . . .
157(7) . . .
154(7) . . .
181(7) . . .
174(7) . . .
156(7) . . .
171(7) . . .
170(7) . . .
151(6) . . .
163(7) . . .
166(7) . . .
171(8) . . .
156(7) . . .
153(6) . . .
154(6) . . .
161(7) . . .
167(7) . . .
161(7) . . .
165(7) . . .
164(7) . . .
163(7) . . .
165(7) . . .
161(7) . . .
162(7) . . .
168(7) . . .
149(6) . . .
169(7) . . .
177(7) . . .
177(7) . . .
181(7) . . .
164(7) . . .
183(7) . . .
165(7) . . .
169(7) . . .
173(7) . . .
182(7) . . .
168(7) . . .
154(7) . . .
162(7) . . .
163(7) . . .
171(7) . . .
171(7) . . .
170(7) . . .
168(7) . . .
174(7) . . .
172(7) . . .
176(7) . . .
177(7) . . .
161(7) . . .
175(7) . . .
175(7) . . .
185(7) . . .
194(7) . . .
166(7) . . .
170(7) . . .
156(7) . . .
156(7) . . .
182(7) . . .
151(6) . . .
165(7) . . .
173(7) . . .
167(7) . . .
173(7) . . .
162(7) . . .
176(7) . . .
164(7) . . .
163(7) . . .
181(7) . . .
175(7) . . .
173(7) . . .
158(7) . . .
156(7) . . .
163(7) . . .
159(7) . . .
154(7) . . .
181(8) . . .
175(7) . . .
175(7) . . .
161(7) . . .
180(7) . . .
164(7) . . .
148(7) . . .
155(7) . . .
181(7) . . .
182(7) . . .
165(7) . . .
185(7) . . .
165(7) . . .
183(7) . . .
172(7) . . .
189(8) . . .
172(7) . . .
161(7) . . .
161(7) . . .
175(7) . . .
170(7) . . .
157(7) . . .
172(7) . . .
179(7) . . .
163(7) . . .
164(7) . . .
175(7) . . .
168(7) . . .
175(7) . . .
183(7) . . .
177(7) . . .
166(7) . . .
174(7) . . .
168(7) . . .
178(7) . . .
170(7) . . .
176(7) . . .
164(7) . . .
171(7) . . .
170(7) . . .
164(7) . . .
154(6) . . .
165(7) . . .
154(7) . . .
158(7) . . .
168(7) . . .
161(7) . . .
183(7) . . .
160(7) . . .
172(7) . . .
176(7) . . .
170(7) . . .
169(7) . . .
180(7) . . .
168(7) . . .
153(7) . . .
168(7) . . .
182(7) . . .
165(7) . . .
183(7) . . .
172(7) . . .
160(7) . . .
157(7) . . .
172(7) . . .
170(7) . . .
170(7) . . .
175(7) . . .
178(7) . . .
184(7) . . .
173(7) . . .
151(6) . . .
169(7) . . .
169(7) . . .
167(7) . . .
158(7) . . .
180(7) . . .
163(7) . . .
147(7) . . .
164(7) . . .
161(7) . . .
171(7) . . .
181(7) . . .
156(7) . . .
179(7) . . .
184(7) . . .
157(7) . . .
183(7) . . .
180(7) . . .
175(7) . . .
176(7) . . .
167(7) . . .
155(6) . . .
156(7) . . .
165(7) . . .
166(7) . . .
181(7) . . .
158(7) . . .
168(7) . . .
185(8) . . .
147(6) . . .
166(7) . . .
176(7) . . .
162(7) . . .
178(7) . . .
179(7) . . .
169(7) . . .
175(7) . . .
168(7) . . .
185(8) . . .
182(7) . . .
163(7) . . .
159(7) . . .
165(7) . . .
163(7) . . .
158(7) . . .
150(6) . . .
162(7) . . .
172(7) . . .
160(7) . . .
170(7) . . .
166(7) . . .
149(7) . . .
152(7) . . .
163(7) . . .
181(7) . . .
185(7) . . .
169(7) . . .
164(7) . . .
172(7) . . .
163(7) . . .
171(7) . . .
170(7) . . .
169(7) . . .
167(7) . . .
166(7) . . .
165(7) . . .
169(7) . . .
174(7) . . .
166(7) . . .
170(7) . . .
178(7) . . .
178(7) . . .
169(7) . . .
147(7) . . .
169(7) . . .
158(6) . . .
177(7) . . .
176(7) . . .
144(6) . . .
160(7) . . .
159(7) . . .
176(7) . . .
161(7) . . .
166(7) . . .
152(6) . . .
162(7) . . .
177(7) . . .
160(7) . . .
157(7) . . .
172(7) . . .
164(7) . . .
174(7) . . .
166(7) . . .
156(7) . . .
168(7) . . .
157(6) . . .
162(7) . . .
157(7) . . .
165(7) . . .
172(7) . . .
170(7) . . .
165(7) . . .
158(7) . . .
150(6) . . .
173(7) . . .
152(7) . . .
164(7) . . .
156(7) . . .
166(7) . . .
167(7) . . .
170(7) . . .
159(7) . . .
155(7) . . .
163(7) . . .
168(7) . . .
148(7) . . .
164(7) . . .
148(7) . . .
141(6) . . .
152(6) . . .
157(7) . . .
159(7) . . .
174(7) . . .
164(7) . . .
161(7) . . .
156(7) . . .
181(8) . . .
164(7) . . .
158(7) . . .
170(7) . . .
165(7) . . .
162(7) . . .
169(7) . . .
162(7) . . .
159(7) . . .
151(7) . . .
160(7) . . .
157(7) . . .
158(7) . . .
157(7) . . .
173(7) . . .
168(7) . . .
172(7) . . .
160(7) . . .
174(7) . . .
175(7) . . .
161(7) . . .
155(7) . . .
153(6) . . .
168(7) . . .
172(7) . . .
168(7) . . .
149(6) . . .
165(7) . . .
160(7) . . .
158(7) . . .
153(7) . . .
135(6) . . .
165(7) . . .
157(7) . . .
161(7) . . .
161(7) . . .
173(7) . . .
152(6) . . .
173(7) . . .
158(7) . . .
164(7) . . .
178(7) . . .
159(7) . . .
162(7) . . .
179(8) . . .
164(7) . . .
168(7) . . .
150(6) . . .
165(7) . . .
184(8) . . .
165(7) . . .
154(6) . . .
156(7) . . .
158(7) . . .
156(7) . . .
171(7) . . .
165(7) . . .
148(6) . . .
152(7) . . .
168(7) . . .
155(7) . . .
155(7) . . .
161(7) . . .
152(7) . . .
161(7) . . .
165(7) . . .
178(7) . . .
159(7) . . .
162(7) . . .
155(7) . . .
169(7) . . .
161(7) . . .
154(7) . . .
182(7) . . .
173(7) . . .
154(7) . . .
183(7) . . .
153(7) . . .
174(7) . . .
153(7) . . .
151(6) . . .
165(7) . . .
174(7) . . .
171(7) . . .
156(7) . . .
162(7) . . .
165(7) . . .
168(7) . . .
158(7) . . .
156(7) . . .
168(7) . . .
183(7) . . .
188(7) . . .
166(7) . . .
161(7) . . .
163(7) . . .
149(6) . . .
150(7) . . .
162(7) . . .
173(7) . . .
180(7) . . .
153(6) . . .
153(7) . . .
142(7) . . .
173(7) . . .
177(7) . . .
176(7) . . .
172(7) . . .
177(7) . . .
170(7) . . .
147(6) . . .
149(6) . . .
168(7) . . .
162(7) . . .
188(7) . . .
154(6) . . .
150(6) . . .
134(6) . . .
154(7) . . .
171(7) . . .
175(7) . . .
164(7) . . .
177(7) . . .
163(7) . . .
159(7) . . .
145(6) . . .
165(7) . . .
153(7) . . .
177(7) . . .
166(7) . . .
178(7) . . .
158(7) . . .
168(7) . . .
145(6) . . .
153(6) . . .
179(7) . . .
171(7) . . .
171(7) . . .
154(7) . . .
167(7) . . .
158(7) . . .
158(7) . . .
160(7) . . .
166(7) . . .
170(7) . . .
169(7) . . .
145(7) . . .
174(8) . . .
173(7) . . .
151(6) . . .
164(7) . . .
184(7) . . .
161(7) . . .
178(7) . . .
178(7) . . .
158(7) . . .
168(7) . . .
146(7) . . .
141(6) . . .
158(7) . . .
156(7) . . .
164(7) . . .
177(7) . . .
153(7) . . .
151(6) . . .
165(7) . . .
168(7) . . .
164(7) . . .
171(7) . . .
150(6) . . .
168(7) . . .
157(7) . . .
155(7) . . .
153(6) . . .
167(7) . . .
175(7) . . .
165(7) . . .
147(7) . . .
174(7) . . .
158(6) . . .
149(7) . . .
154(7) . . .
140(6) . . .
172(7) . . .
178(7) . . .
168(7) . . .
163(7) . . .
157(7) . . .
151(6) . . .
195(7) . . .
169(7) . . .
154(7) . . .
173(7) . . .
166(7) . . .
165(7) . . .
188(7) . . .
168(7) . . .
168(7) . . .
159(6) . . .
163(7) . . .
143(6) . . .
174(8) . . .
158(7) . . .
162(7) . . .
166(7) . . .
174(7) . . .
173(7) . . .
150(7) . . .
158(7) . . .
155(7) . . .
168(7) . . .
173(7) . . .
166(7) . . .
155(7) . . .
163(7) . . .
160(7) . . .
165(7) . . .
152(7) . . .
167(7) . . .
167(7) . . .
182(8) . . .
175(7) . . .
142(6) . . .
148(6) . . .
172(7) . . .
164(7) . . .
171(7) . . .
186(7) . . .
160(7) . . .
158(7) . . .
163(7) . . .
172(7) . . .
138(6) . . .
160(7) . . .
158(7) . . .
167(7) . . .
165(7) . . .
168(7) . . .
182(7) . . .
141(6) . . .
140(6) . . .
153(7) . . .
175(7) . . .
196(7) . . .
175(7) . . .
152(7) . . .
161(7) . . .
176(7) . . .
177(7) . . .
173(7) . . .
147(7) . . .
175(7) . . .
162(7) . . .
160(7) . . .
133(6) . . .
144(7) . . .
158(7) . . .
160(7) . . .
153(6) . . .
149(7) . . .
161(7) . . .
186(7) . . .
170(7) . . .
169(7) . . .
166(7) . . .
171(7) . . .
153(7) . . .
156(6) . . .
168(7) . . .
165(7) . . .
149(6) . . .
172(7) . . .
161(7) . . .
158(7) . . .
161(7) . . .
170(7) . . .
156(7) . . .
169(7) . . .
190(7) . . .
181(7) . . .
171(7) . . .
152(6) . . .
180(7) . . .
163(7) . . .
173(7) . . .
170(7) . . .
167(7) . . .
149(6) . . .
151(7) . . .
178(7) . . .
175(7) . . .
168(7) . . .
157(6) . . .
170(7) . . .
164(7) . . .
154(7) . . .
155(6) . . .
140(6) . . .
171(7) . . .
161(7) . . .
160(7) . . .
161(7) . . .
181(7) . . .
145(6) . . .
149(7) . . .
169(7) . . .
161(7) . . .
163(7) . . .
133(6) . . .
145(7) . . .
154(7) . . .
159(6) . . .
151(6) . . .
154(7) . . .
156(7) . . .
147(7) . . .
153(6) . . .
154(7) . . .
155(7) . . .
156(7) . . .
170(7) . . .
147(6) . . .
170(7) . . .
161(7) . . .
159(7) . . .
155(7) . . .
168(7) . . .
144(6) . . .
162(7) . . .
170(7) . . .
163(7) . . .
152(6) . . .
165(7) . . .
157(7) . . .
164(7) . . .
159(7) . . .
180(7) . . .
156(7) . . .
149(7) . . .
147(6) . . .
165(7) . . .
158(7) . . .
168(7) . . .
175(7) . . .
153(7) . . .
158(6) . . .
179(7) . . .
147(6) . . .
166(7) . . .
169(7) . . .
159(7) . . .
155(6) . . .
167(7) . . .
169(7) . . .
166(7) . . .
161(7) . . .
154(7) . . .
152(7) . . .
158(7) . . .
162(7) . . .
165(7) . . .
162(7) . . .
163(7) . . .
168(7) . . .
164(7) . . .
169(7) . . .
190(7) . . .
172(7) . . .
163(7) . . .
155(7) . . .
167(7) . . .
148(6) . . .
154(7) . . .
161(7) . . .
169(7) . . .
165(7) . . .
163(7) . . .
156(7) . . .
147(6) . . .
179(7) . . .
171(7) . . .
142(6) . . .
184(7) . . .
156(6) . . .
160(7) . . .
144(6) . . .
159(7) . . .
166(7) . . .
151(7) . . .
171(7) . . .
175(7) . . .
181(7) . . .
158(7) . . .
169(7) . . .
150(6) . . .
160(7) . . .
164(7) . . .
156(7) . . .
159(7) . . .
156(6) . . .
156(6) . . .
170(7) . . .
168(7) . . .
173(7) . . .
172(7) . . .
173(7) . . .
170(7) . . .
158(7) . . .
141(6) . . .
177(7) . . .
164(7) . . .
157(7) . . .
165(7) . . .
168(7) . . .
159(7) . . .
150(6) . . .
158(7) . . .
153(7) . . .
146(6) . . .
138(6) . . .
173(7) . . .
166(7) . . .
173(7) . . .
151(7) . . .
175(7) . . .
149(6) . . .
138(6) . . .
165(7) . . .
139(6) . . .
166(7) . . .
157(7) . . .
152(7) . . .
164(7) . . .
166(7) . . .
164(7) . . .
167(7) . . .
138(6) . . .
147(7) . . .
142(6) . . .
141(6) . . .
154(7) . . .
156(7) . . .
171(7) . . .
154(7) . . .
139(6) . . .
164(7) . . .
162(7) . . .
176(7) . . .
161(7) . . .
144(6) . . .
142(6) . . .
169(7) . . .
172(7) . . .
166(7) . . .
159(7) . . .
156(7) . . .
171(7) . . .
134(6) . . .
173(7) . . .
147(6) . . .
154(7) . . .
143(7) . . .
152(7) . . .
165(7) . . .
161(7) . . .
156(7) . . .
153(7) . . .
164(7) . . .
137(6) . . .
150(6) . . .
144(6) . . .
166(7) . . .
170(7) . . .
166(7) . . .
157(7) . . .
165(7) . . .
171(7) . . .
166(7) . . .
176(7) . . .
169(7) . . .
172(7) . . .
150(7) . . .
165(7) . . .
158(7) . . .
153(7) . . .
164(7) . . .
157(7) . . .
148(6) . . .
162(7) . . .
155(7) . . .
170(7) . . .
152(7) . . .
160(7) . . .
167(7) . . .
145(6) . . .
148(7) . . .
148(7) . . .
143(6) . . .
163(7) . . .
155(7) . . .
190(8) . . .
159(7) . . .
163(7) . . .
163(7) . . .
180(7) . . .
174(7) . . .
155(7) . . .
153(6) . . .
165(7) . . .
156(7) . . .
164(7) . . .
164(7) . . .
154(6) . . .
150(6) . . .
151(7) . . .
164(7) . . .
173(7) . . .
170(7) . . .
150(6) . . .
159(7) . . .
153(7) . . .
149(7) . . .
151(6) . . .
151(7) . . .
166(7) . . .
150(7) . . .
149(7) . . .
165(7) . . .
171(7) . . .
157(7) . . .
161(7) . . .
187(7) . . .
180(7) . . .
158(7) . . .
147(7) . . .
167(7) . . .
159(7) . . .
157(6) . . .
151(7) . . .
148(7) . . .
162(7) . . .
159(7) . . .
142(6) . . .
159(7) . . .
156(7) . . .
160(7) . . .
155(6) . . .
156(7) . . .
146(6) . . .
149(7) . . .
149(6) . . .
147(6) . . .
153(6) . . .
162(7) . . .
166(7) . . .
175(7) . . .
149(6) . . .
157(7) . . .
148(6) . . .
152(7) . . .
171(7) . . .
145(6) . . .
143(6) . . .
151(6) . . .
161(7) . . .
158(7) . . .
152(6) . . .
143(6) . . .
143(7) . . .
141(7) . . .
153(7) . . .
175(7) . . .
167(7) . . .
155(7) . . .
155(7) . . .
167(7) . . .
143(6) . . .
150(6) . . .
150(7) . . .
167(7) . . .
158(7) . . .
155(6) . . .
148(7) . . .
157(7) . . .
162(7) . . .
170(7) . . .
145(6) . . .
143(6) . . .
160(7) . . .
160(7) . . .
168(7) . . .
147(6) . . .
175(7) . . .
176(7) . . .
141(6) . . .
153(6) . . .
154(6) . . .
148(6) . . .
153(7) . . .
175(7) . . .
162(7) . . .
163(7) . . .
161(7) . . .
149(7) . . .
179(7) . . .
166(7) . . .
167(7) . . .
169(7) . . .
164(7) . . .
171(7) . . .
161(7) . . .
145(6) . . .
142(6) . . .
160(7) . . .
160(7) . . .
151(6) . . .
158(7) . . .
166(7) . . .
144(7) . . .
155(7) . . .
157(7) . . .
162(7) . . .
154(7) . . .
151(7) . . .
175(7) . . .
169(7) . . .
148(6) . . .
158(7) . . .
167(7) . . .
153(7) . . .
151(6) . . .
170(7) . . .
155(7) . . .
158(7) . . .
152(6) . . .
171(7) . . .
163(7) . . .
175(7) . . .
153(7) . . .
159(7) . . .
139(6) . . .
148(7) . . .
163(7) . . .
151(6) . . .
157(7) . . .
156(6) . . .
148(7) . . .
141(7) . . .
153(7) . . .
151(6) . . .
162(7) . . .
166(7) . . .
145(7) . . .
146(6) . . .
162(7) . . .
149(6) . . .
161(7) . . .
153(7) . . .
157(7) . . .
177(7) . . .
170(7) . . .
159(7) . . .
164(7) . . .
170(7) . . .
154(6) . . .
168(7) . . .
159(7) . . .
160(7) . . .
178(7) . . .
174(7) . . .
171(7) . . .
157(7) . . .
150(7) . . .
162(7) . . .
148(6) . . .
149(6) . . .
161(7) . . .
158(7) . . .
167(7) . . .
148(6) . . .
148(7) . . .
148(7) . . .
145(6) . . .
176(7) . . .
158(7) . . .
162(7) . . .
160(7) . . .
140(6) . . .
146(7) . . .
160(7) . . .
155(7) . . .
155(7) . . .
140(6) . . .
155(6) . . .
145(6) . . .
150(7) . . .
170(7) . . .
151(7) . . .
154(6) . . .
158(7) . . .
153(7) . . .
162(7) . . .
143(6) . . .
146(6) . . .
162(7) . . .
156(7) . . .
151(7) . . .
153(7) . . .
148(6) . . .
147(6) . . .
171(7) . . .
168(7) . . .
168(7) . . .
149(6) . . .
144(6) . . .
177(7) . . .
138(6) . . .
156(7) . . .
161(7) . . .
149(6) . . .
152(7) . . .
149(6) . . .
170(7) . . .
156(6) . . .
158(7) . . .
149(7) . . .
164(7) . . .
166(7) . . .
169(7) . . .
151(6) . . .
147(6) . . .
151(7) . . .
158(7) . . .
157(7) . . .
172(7) . . .
160(7) . . .
171(7) . . .
174(7) . . .
161(7) . . .
165(7) . . .
163(7) . . .
154(6) . . .
169(7) . . .
156(6) . . .
146(7) . . .
152(7) . . .
171(7) . . .
170(7) . . .
151(6) . . .
153(7) . . .
150(7) . . .
156(7) . . .
156(7) . . .
145(6) . . .
164(7) . . .
162(7) . . .
157(7) . . .
156(6) . . .
158(7) . . .
168(7) . . .
148(6) . . .
160(7) . . .
140(6) . . .
151(6) . . .
164(7) . . .
153(7) . . .
165(7) . . .
172(7) . . .
156(7) . . .
159(7) . . .
141(6) . . .
169(7) . . .
173(7) . . .
141(6) . . .
159(7) . . .
162(7) . . .
149(6) . . .
161(7) . . .
160(7) . . .
166(7) . . .
162(7) . . .
138(6) . . .
159(7) . . .
168(7) . . .
137(6) . . .
160(7) . . .
151(6) . . .
174(7) . . .
157(7) . . .
170(7) . . .
166(7) . . .
157(6) . . .
158(7) . . .
130(6) . . .
163(7) . . .
165(7) . . .
159(7) . . .
137(6) . . .
172(7) . . .
163(7) . . .
164(7) . . .
161(7) . . .
156(6) . . .
164(7) . . .
154(7) . . .
153(7) . . .
155(6) . . .
163(7) . . .
160(7) . . .
160(7) . . .
136(6) . . .
139(6) . . .
157(6) . . .
142(6) . . .
151(7) . . .
175(7) . . .
179(7) . . .
156(7) . . .
168(7) . . .
147(7) . . .
164(7) . . .
158(7) . . .
168(7) . . .
154(7) . . .
142(6) . . .
157(7) . . .
153(6) . . .
146(6) . . .
141(7) . . .
154(7) . . .
159(7) . . .
170(7) . . .
148(7) . . .
147(7) . . .
151(6) . . .
158(7) . . .
145(6) . . .
166(7) . . .
149(7) . . .
142(6) . . .
156(7) . . .
169(7) . . .
148(7) . . .
152(7) . . .
158(7) . . .
146(6) . . .
148(6) . . .
143(6) . . .
175(7) . . .
172(7) . . .
154(6) . . .
151(6) . . .
151(7) . . .
140(7) . . .
149(6) . . .
160(7) . . .
141(6) . . .
140(6) . . .
171(7) . . .
151(7) . . .
145(6) . . .
148(6) . . .
173(7) . . .
146(7) . . .
152(7) . . .
149(6) . . .
161(7) . . .
156(7) . . .
155(7) . . .
153(7) . . .
124(6) . . .
133(6) . . .
146(7) . . .
144(6) . . .
169(7) . . .
158(7) . . .
154(6) . . .
161(7) . . .
152(7) . . .
139(6) . . .
149(6) . . .
136(6) . . .
160(7) . . .
153(7) . . .
144(6) . . .
154(6) . . .
169(7) . . .
153(7) . . .
142(7) . . .
157(7) . . .
151(6) . . .
164(7) . . .
162(7) . . .
167(7) . . .
156(7) . . .
132(6) . . .
133(6) . . .
150(7) . . .
171(7) . . .
158(7) . . .
141(6) . . .
155(7) . . .
145(7) . . .
151(7) . . .
159(7) . . .
177(7) . . .
153(7) . . .
156(7) . . .
146(6) . . .
149(6) . . .
180(7) . . .
156(7) . . .
174(7) . . .
166(7) . . .
154(6) . . .
141(6) . . .
163(7) . . .
144(7) . . .
154(7) . . .
150(6) . . .
169(7) . . .
161(7) . . .
151(7) . . .
158(7) . . .
149(6) . . .
151(6) . . .
156(7) . . .
135(6) . . .
159(7) . . .
131(6) . . .
145(6) . . .
159(7) . . .
178(7) . . .
166(7) . . .
136(6) . . .
150(7) . . .
147(7) . . .
157(7) . . .
138(6) . . .
131(6) . . .
150(7) . . .
156(7) . . .
147(7) . . .
142(6) . . .
153(6) . . .
170(7) . . .
156(7) . . .
148(6) . . .
154(6) . . .
150(6) . . .
140(6) . . .
143(7) . . .
156(7) . . .
136(6) . . .
150(6) . . .
136(6) . . .
152(7) . . .
146(6) . . .
143(6) . . .
157(7) . . .
161(7) . . .
148(7) . . .
146(6) . . .
148(6) . . .
145(6) . . .
138(6) . . .
156(7) . . .
157(7) . . .
160(7) . . .
162(7) . . .
146(7) . . .
144(6) . . .
136(6) . . .
145(6) . . .
151(6) . . .
155(7) . . .
178(7) . . .
152(6) . . .
144(6) . . .
150(6) . . .
148(7) . . .
163(7) . . .
149(6) . . .
146(6) . . .
166(7) . . .
158(7) . . .
138(6) . . .
150(7) . . .
159(7) . . .
145(6) . . .
163(7) . . .
169(7) . . .
152(7) . . .
156(6) . . .
157(7) . . .
148(6) . . .
155(7) . . .
156(6) . . .
153(6) . . .
154(7) . . .
142(7) . . .
146(7) . . .
139(6) . . .
140(6) . . .
139(6) . . .
147(7) . . .
155(7) . . .
143(6) . . .
140(6) . . .
147(6) . . .
142(7) . . .
145(6) . . .
164(7) . . .
162(7) . . .
164(7) . . .
157(7) . . .
135(6) . . .
150(6) . . .
157(7) . . .
166(7) . . .
141(6) . . .
149(7) . . .
150(6) . . .
149(7) . . .
166(7) . . .
160(7) . . .
148(7) . . .
138(6) . . .
136(6) . . .
132(6) . . .
135(6) . . .
139(6) . . .
158(6) . . .
134(6) . . .
147(7) . . .
146(7) . . .
142(6) . . .
163(7) . . .
156(7) . . .
164(7) . . .
147(6) . . .
136(6) . . .
140(6) . . .
145(6) . . .
157(7) . . .
152(7) . . .
156(7) . . .
142(6) . . .
143(7) . . .
149(7) . . .
154(7) . . .
151(6) . . .
136(6) . . .
149(6) . . .
154(7) . . .
166(7) . . .
153(6) . . .
143(6) . . .
164(7) . . .
154(7) . . .
155(7) . . .
156(6) . . .
144(6) . . .
129(6) . . .
154(7) . . .
145(6) . . .
144(6) . . .
137(6) . . .
134(6) . . .
149(7) . . .
148(6) . . .
155(6) . . .
152(7) . . .
147(7) . . .
155(7) . . .
155(7) . . .
149(6) . . .
152(7) . . .
151(7) . . .
143(7) . . .
156(7) . . .
148(6) . . .
150(7) . . .
147(7) . . .
153(7) . . .
134(6) . . .
144(6) . . .
141(6) . . .
164(7) . . .
149(6) . . .
152(6) . . .
150(6) . . .
158(7) . . .
156(7) . . .
141(6) . . .
136(6) . . .
170(7) . . .
147(6) . . .
156(7) . . .
154(7) . . .
140(6) . . .
162(7) . . .
144(6) . . .
143(7) . . .
133(6) . . .
161(7) . . .
171(7) . . .
147(6) . . .
156(7) . . .
139(6) . . .
147(6) . . .
147(6) . . .
150(7) . . .
154(7) . . .
149(7) . . .
147(6) . . .
154(7) . . .
167(7) . . .
138(6) . . .
148(7) . . .
133(6) . . .
155(7) . . .
154(7) . . .
161(7) . . .
155(7) . . .
154(7) . . .
147(6) . . .
158(7) . . .
169(7) . . .
139(6) . . .
146(6) . . .
148(7) . . .
152(7) . . .
157(7) . . .
145(7) . . .
137(6) . . .
149(7) . . .
146(7) . . .
138(6) . . .
150(7) . . .
146(6) . . .
137(6) . . .
150(7) . . .
143(6) . . .
144(6) . . .
153(6) . . .
148(6) . . .
139(6) . . .
145(6) . . .
157(6) . . .
160(7) . . .
132(6) . . .
145(7) . . .
155(7) . . .
176(7) . . .
162(7) . . .
143(6) . . .
154(7) . . .
140(6) . . .
164(7) . . .
155(6) . . .
150(7) . . .
153(7) . . .
146(6) . . .
146(6) . . .
151(7) . . .
151(7) . . .
141(6) . . .
161(7) . . .
151(6) . . .
148(6) . . .
146(7) . . .
149(7) . . .
129(6) . . .
129(6) . . .
151(6) . . .
155(7) . . .
141(7) . . .
147(6) . . .
144(6) . . .
137(6) . . .
153(7) . . .
150(7) . . .
160(7) . . .
153(6) . . .
148(7) . . .
141(7) . . .
142(7) . . .
146(6) . . .
146(6) . . .
142(6) . . .
148(7) . . .
136(6) . . .
123(6) . . .
138(6) . . .
153(7) . . .
144(7) . . .
137(6) . . .
141(6) . . .
147(6) . . .
128(6) . . .
165(7) . . .
151(7) . . .
153(6) . . .
153(6) . . .
150(7) . . .
157(7) . . .
161(7) . . .
143(6) . . .
149(6) . . .
157(7) . . .
143(7) . . .
144(6) . . .
150(6) . . .
140(6) . . .
146(7) . . .
142(7) . . .
132(6) . . .
147(6) . . .
154(7) . . .
152(7) . . .
147(7) . . .
141(6) . . .
140(6) . . .
144(6) . . .
150(7) . . .
150(7) . . .
130(6) . . .
143(6) . . .
136(6) . . .
126(6) . . .
141(6) . . .
145(6) . . .
144(6) . . .
160(7) . . .
158(7) . . .
149(7) . . .
152(6) . . .
157(7) . . .
142(6) . . .
157(7) . . .
136(6) . . .
137(6) . . .
161(7) . . .
143(6) . . .
137(6) . . .
148(7) . . .
154(6) . . .
158(7) . . .
148(7) . . .
159(7) . . .
146(7) . . .
145(6) . . .
143(6) . . .
140(6) . . .
151(7) . . .
126(6) . . .
138(6) . . .
141(6) . . .
121(6) . . .
150(7) . . .
143(7) . . .
127(6) . . .
127(6) . . .
137(6) . . .
147(7) . . .
155(7) . . .
156(7) . . .
137(6) . . .
149(7) . . .
148(7) . . .
129(6) . . .
153(6) . . .
154(7) . . .
142(6) . . .
144(6) . . .
149(7) . . .
141(6) . . .
152(7) . . .
148(7) . . .
163(7) . . .
147(6) . . .
150(6) . . .
132(6) . . .
142(6) . . .
155(7) . . .
157(7) . . .
151(6) . . .
144(6) . . .
154(7) . . .
155(7) . . .
132(6) . . .
131(6) . . .
163(7) . . .
158(7) . . .
146(7) . . .
147(6) . . .
144(6) . . .
142(6) . . .
131(6) . . .
142(6) . . .
168(7) . . .
135(6) . . .
156(7) . . .
155(7) . . .
161(7) . . .
154(6) . . .
144(6) . . .
151(7) . . .
152(7) . . .
170(7) . . .
154(6) . . .
162(7) . . .
150(7) . . .
151(7) . . .
147(7) . . .
146(6) . . .
159(7) . . .
131(6) . . .
134(6) . . .
141(7) . . .
157(7) . . .
155(6) . . .
139(6) . . .
139(6) . . .
161(7) . . .
154(6) . . .
150(7) . . .
152(7) . . .
163(7) . . .
148(6) . . .
151(6) . . .
156(7) . . .
154(7) . . .
150(7) . . .
162(7) . . .
153(6) . . .
150(7) . . .
149(7) . . .
157(7) . . .
131(6) . . .
137(6) . . .
147(7) . . .
154(7) . . .
142(6) . . .
139(6) . . .
136(6) . . .
141(6) . . .
145(7) . . .
148(7) . . .
142(6) . . .
160(7) . . .
134(6) . . .
124(6) . . .
132(6) . . .
158(7) . . .
142(6) . . .
133(6) . . .
151(7) . . .
161(7) . . .
174(7) . . .
147(6) . . .
143(7) . . .
146(7) . . .
160(7) . . .
151(6) . . .
145(6) . . .
149(7) . . .
156(7) . . .
128(6) . . .
118(6) . . .
144(6) . . .
147(7) . . .
146(7) . . .
141(6) . . .
147(6) . . .
129(6) . . .
155(7) . . .
146(7) . . .
159(7) . . .
146(6) . . .
156(7) . . .
154(7) . . .
138(6) . . .
145(6) . . .
149(6) . . .
134(6) . . .
143(7) . . .
140(6) . . .
142(6) . . .
148(6) . . .
154(7) . . .
132(6) . . .
151(7) . . .
143(6) . . .
154(6) . . .
155(7) . . .
142(7) . . .
142(6) . . .
147(6) . . .
155(7) . . .
145(6) . . .
149(7) . . .
152(7) . . .
147(6) . . .
138(6) . . .
159(7) . . .
147(7) . . .
148(7) . . .
143(6) . . .
145(6) . . .
153(7) . . .
142(7) . . .
158(7) . . .
153(6) . . .
159(7) . . .
165(7) . . .
156(7) . . .
154(7) . . .
141(6) . . .
144(6) . . .
130(6) . . .
135(6) . . .
156(7) . . .
137(6) . . .
154(7) . . .
158(7) . . .
156(7) . . .
158(7) . . .
141(6) . . .
143(6) . . .
129(6) . . .
135(6) . . .
136(6) . . .
197(7) . . .
152(7) . . .
146(6) . . .
156(7) . . .
158(7) . . .
129(6) . . .
149(7) . . .
162(7) . . .
144(6) . . .
156(7) . . .
143(6) . . .
136(6) . . .
143(7) . . .
166(7) . . .
140(6) . . .
140(6) . . .
142(6) . . .
153(7) . . .
153(7) . . .
134(6) . . .
153(6) . . .
151(7) . . .
156(7) . . .
154(6) . . .
148(6) . . .
157(7) . . .
159(7) . . .
170(7) . . .
141(6) . . .
171(7) . . .
151(6) . . .
142(6) . . .
135(6) . . .
144(6) . . .
140(6) . . .
148(6) . . .
139(6) . . .
143(7) . . .
162(7) . . .
123(6) . . .
142(6) . . .
151(7) . . .
145(6) . . .
163(7) . . .
161(7) . . .
144(6) . . .
156(7) . . .
147(6) . . .
147(6) . . .
161(7) . . .
146(6) . . .
152(7) . . .
132(6) . . .
128(6) . . .
151(6) . . .
147(7) . . .
155(7) . . .
159(7) . . .
156(7) . . .
154(6) . . .
134(6) . . .
132(6) . . .
146(6) . . .
156(7) . . .
143(6) . . .
149(7) . . .
144(7) . . .
142(6) . . .
146(6) . . .
146(6) . . .
158(7) . . .
135(6) . . .
142(6) . . .
143(6) . . .
154(6) . . .
153(7) . . .
146(6) . . .
151(7) . . .
152(6) . . .
154(6) . . .
162(7) . . .
155(7) . . .
151(7) . . .
141(6) . . .
157(7) . . .
153(7) . . .
165(7) . . .
133(6) . . .
147(6) . . .
141(6) . . .
139(6) . . .
139(6) . . .
173(7) . . .
152(6) . . .
142(6) . . .
147(7) . . .
151(7) . . .
134(6) . . .
136(6) . . .
145(6) . . .
141(7) . . .
131(6) . . .
140(6) . . .
143(6) . . .
136(6) . . .
128(6) . . .
152(7) . . .
146(6) . . .
136(6) . . .
137(6) . . .
135(6) . . .
147(7) . . .
137(6) . . .
140(6) . . .
147(6) . . .
149(7) . . .
144(6) . . .
139(6) . . .
133(6) . . .
138(6) . . .
129(6) . . .
127(6) . . .
133(6) . . .
141(6) . . .
138(6) . . .
142(7) . . .
138(6) . . .
148(6) . . .
140(6) . . .
134(6) . . .
156(7) . . .
151(7) . . .
155(6) . . .
141(6) . . .
145(6) . . .
148(7) . . .
153(7) . . .
130(6) . . .
117(6) . . .
136(6) . . .
134(6) . . .
141(6) . . .
145(6) . . .
129(6) . . .
148(7) . . .
145(7) . . .
153(7) . . .
146(6) . . .
151(6) . . .
141(7) . . .
150(7) . . .
158(7) . . .
146(6) . . .
135(6) . . .
147(7) . . .
139(6) . . .
133(6) . . .
140(6) . . .
145(6) . . .
144(7) . . .
146(7) . . .
124(6) . . .
147(6) . . .
149(7) . . .
149(7) . . .
137(6) . . .
130(6) . . .
123(6) . . .
131(6) . . .
144(7) . . .
140(6) . . .
145(6) . . .
143(6) . . .
118(6) . . .
119(6) . . .
149(7) . . .
130(6) . . .
137(6) . . .
127(6) . . .
137(7) . . .
130(6) . . .
133(6) . . .
134(6) . . .
134(6) . . .
138(7) . . .
145(6) . . .
152(6) . . .
138(6) . . .
132(6) . . .
137(6) . . .
129(6) . . .
139(6) . . .
144(6) . . .
138(6) . . .
151(7) . . .
155(7) . . .
141(6) . . .
155(7) . . .
130(6) . . .
145(7) . . .
147(6) . . .
143(6) . . .
151(7) . . .
144(6) . . .
136(6) . . .
138(6) . . .
154(6) . . .
134(6) . . .
142(7) . . .
136(6) . . .
147(7) . . .
145(6) . . .
120(6) . . .
127(6) . . .
153(7) . . .
168(7) . . .
164(7) . . .
137(6) . . .
138(7) . . .
149(6) . . .
140(6) . . .
134(6) . . .
131(6) . . .
145(7) . . .
144(6) . . .
164(7) . . .
147(6) . . .
128(6) . . .
132(6) . . .
146(6) . . .
139(6) . . .
136(6) . . .
143(6) . . .
156(7) . . .
116(6) . . .
142(6) . . .
143(6) . . .
118(6) . . .
128(6) . . .
155(7) . . .
140(6) . . .
129(6) . . .
139(6) . . .
132(6) . . .
147(6) . . .
126(6) . . .
137(6) . . .
132(6) . . .
133(6) . . .
135(6) . . .
147(6) . . .
144(6) . . .
133(6) . . .
144(6) . . .
151(7) . . .
130(6) . . .
138(6) . . .
141(7) . . .
136(6) . . .
144(6) . . .
131(6) . . .
146(6) . . .
159(7) . . .
140(6) . . .
126(6) . . .
139(6) . . .
144(7) . . .
149(7) . . .
147(7) . . .
149(6) . . .
145(6) . . .
143(7) . . .
122(6) . . .
123(6) . . .
138(6) . . .
147(6) . . .
127(6) . . .
135(6) . . .
145(6) . . .
140(6) . . .
145(6) . . .
142(6) . . .
143(7) . . .
144(6) . . .
140(6) . . .
136(6) . . .
135(6) . . .
141(6) . . .
138(6) . . .
154(6) . . .
131(6) . . .
120(6) . . .
131(6) . . .
135(6) . . .
139(6) . . .
138(6) . . .
145(7) . . .
141(7) . . .
145(6) . . .
135(6) . . .
140(6) . . .
138(6) . . .
132(6) . . .
145(6) . . .
129(6) . . .
160(7) . . .
131(6) . . .
154(7) . . .
137(6) . . .
129(6) . . .
141(7) . . .
159(7) . . .
125(6) . . .
147(6) . . .
140(6) . . .
143(7) . . .
139(7) . . .
156(7) . . .
155(6) . . .
154(6) . . .
157(7) . . .
142(7) . . .
133(6) . . .
125(6) . . .
128(6) . . .
127(6) . . .
136(7) . . .
139(6) . . .
127(6) . . .
136(6) . . .
140(6) . . .
138(7) . . .
129(6) . . .
139(6) . . .
130(6) . . .
122(6) . . .
141(7) . . .
141(6) . . .
143(6) . . .
157(7) . . .
129(6) . . .
124(6) . . .
144(6) . . .
139(6) . . .
135(6) . . .
146(7) . . .
147(7) . . .
160(7) . . .
152(6) . . .
122(6) . . .
133(6) . . .
126(6) . . .
141(6) . . .
143(6) . . .
137(6) . . .
145(6) . . .
144(6) . . .
139(6) . . .
131(6) . . .
134(6) . . .
124(6) . . .
143(7) . . .
154(7) . . .
136(6) . . .
140(6) . . .
143(7) . . .
135(6) . . .
137(6) . . .
142(6) . . .
134(6) . . .
133(6) . . .
122(6) . . .
133(6) . . .
144(6) . . .
131(6) . . .
141(7) . . .
143(6) . . .
140(6) . . .
139(6) . . .
140(6) . . .
129(6) . . .
141(6) . . .
148(6) . . .
135(6) . . .
130(6) . . .
138(6) . . .
144(6) . . .
147(6) . . .
151(6) . . .
150(7) . . .
133(6) . . .
133(6) . . .
135(6) . . .
159(7) . . .
134(6) . . .
131(6) . . .
137(6) . . .
134(6) . . .
141(6) . . .
132(6) . . .
151(7) . . .
150(6) . . .
139(6) . . .
144(7) . . .
144(7) . . .
136(6) . . .
143(6) . . .
137(6) . . .
138(6) . . .
137(6) . . .
142(7) . . .
132(6) . . .
111(5) . . .
132(6) . . .
133(6) . . .
144(6) . . .
149(6) . . .
142(6) . . .
153(7) . . .
144(7) . . .
136(6) . . .
139(6) . . .
148(6) . . .
147(6) . . .
131(6) . . .
137(6) . . .
143(6) . . .
123(6) . . .
140(6) . . .
143(7) . . .
150(7) . . .
135(6) . . .
144(6) . . .
134(6) . . .
137(6) . . .
130(6) . . .
117(6) . . .
131(6) . . .
137(6) . . .
151(7) . . .
142(7) . . .
144(6) . . .
154(7) . . .
129(6) . . .
134(6) . . .
138(6) . . .
151(6) . . .
126(6) . . .
138(6) . . .
129(6) . . .
142(6) . . .
149(6) . . .
162(7) . . .
139(6) . . .
155(7) . . .
155(7) . . .
122(6) . . .
140(6) . . .
158(7) . . .
149(6) . . .
149(6) . . .
139(6) . . .
126(6) . . .
120(6) . . .
135(6) . . .
147(6) . . .
129(6) . . .
139(6) . . .
163(7) . . .
139(6) . . .
127(6) . . .
125(6) . . .
125(6) . . .
155(7) . . .
128(6) . . .
136(6) . . .
140(6) . . .
130(6) . . .
154(7) . . .
156(7) . . .
149(6) . . .
119(6) . . .
149(7) . . .
142(6) . . .
153(7) . . .
137(6) . . .
127(6) . . .
127(6) . . .
130(6) . . .
154(7) . . .
142(6) . . .
148(6) . . .
146(6) . . .
134(6) . . .
138(6) . . .
138(6) . . .
150(6) . . .
132(6) . . .
133(6) . . .
126(6) . . .
129(6) . . .
138(6) . . .
144(6) . . .
140(7) . . .
120(6) . . .
124(6) . . .
130(6) . . .
134(6) . . .
132(6) . . .
123(6) . . .
121(6) . . .
124(6) . . .
135(6) . . .
125(6) . . .
158(7) . . .
141(6) . . .
127(6) . . .
130(6) . . .
155(7) . . .
133(6) . . .
129(6) . . .
133(6) . . .
144(7) . . .
129(6) . . .
162(7) . . .
149(6) . . .
146(6) . . .
142(7) . . .
150(7) . . .
115(6) . . .
130(6) . . .
135(6) . . .
125(6) . . .
141(7) . . .
131(6) . . .
134(6) . . .
144(7) . . .
145(7) . . .
146(6) . . .
138(6) . . .
146(6) . . .
114(6) . . .
134(7) . . .
114(6) . . .
134(6) . . .
126(6) . . .
125(6) . . .
137(6) . . .
148(7) . . .
120(6) . . .
137(6) . . .
124(6) . . .
133(6) . . .
123(6) . . .
114(6) . . .
132(6) . . .
138(6) . . .
151(7) . . .
133(6) . . .
138(6) . . .
125(6) . . .
131(6) . . .
145(7) . . .
137(6) . . .
132(6) . . .
139(6) . . .
147(7) . . .
138(6) . . .
132(6) . . .
126(6) . . .
134(6) . . .
130(6) . . .
135(6) . . .
118(6) . . .
129(6) . . .
118(6) . . .
118(6) . . .
130(6) . . .
136(6) . . .
135(6) . . .
139(6) . . .
127(6) . . .
137(6) . . .
155(6) . . .
138(6) . . .
135(6) . . .
132(6) . . .
133(6) . . .
141(6) . . .
125(6) . . .
136(6) . . .
130(6) . . .
139(6) . . .
131(6) . . .
139(6) . . .
146(7) . . .
136(6) . . .
135(6) . . .
120(6) . . .
119(6) . . .
127(6) . . .
137(6) . . .
142(6) . . .
124(6) . . .
126(6) . . .
144(7) . . .
136(6) . . .
138(6) . . .
133(6) . . .
128(6) . . .
138(6) . . .
125(6) . . .
138(6) . . .
133(6) . . .
117(6) . . .
124(6) . . .
136(6) . . .
147(6) . . .
137(6) . . .
136(7) . . .
122(6) . . .
136(6) . . .
143(6) . . .
125(6) . . .
129(6) . . .
130(6) . . .
139(6) . . .
138(6) . . .
132(6) . . .
141(7) . . .
132(6) . . .
135(6) . . .
121(6) . . .
132(6) . . .
123(6) . . .
120(6) . . .
128(6) . . .
123(6) . . .
139(6) . . .
150(7) . . .
141(7) . . .
132(6) . . .
117(6) . . .
127(6) . . .
130(6) . . .
138(6) . . .
134(6) . . .
131(6) . . .
123(6) . . .
141(7) . . .
125(6) . . .
132(6) . . .
135(6) . . .
139(6) . . .
128(6) . . .
129(6) . . .
121(6) . . .
123(6) . . .
125(6) . . .
135(6) . . .
130(6) . . .
140(6) . . .
136(6) . . .
124(6) . . .
133(7) . . .
120(6) . . .
128(6) . . .
123(6) . . .
118(6) . . .
113(6) . . .
123(6) . . .
137(6) . . .
119(6) . . .
136(7) . . .
119(6) . . .
125(6) . . .
133(6) . . .
144(6) . . .
124(6) . . .
133(7) . . .
125(6) . . .
148(6) . . .
134(6) . . .
130(6) . . .
124(6) . . .
129(6) . . .
145(6) . . .
135(6) . . .
139(6) . . .
147(7) . . .
135(6) . . .
133(6) . . .
127(6) . . .
119(6) . . .
128(6) . . .
133(6) . . .
121(6) . . .
119(6) . . .
152(7) . . .
131(6) . . .
139(6) . . .
142(6) . . .
116(6) . . .
124(6) . . .
135(6) . . .
130(6) . . .
120(6) . . .
133(6) . . .
137(6) . . .
136(6) . . .
135(6) . . .
135(6) . . .
126(6) . . .
124(6) . . .
131(6) . . .
138(6) . . .
139(6) . . .
120(6) . . .
134(6) . . .
138(6) . . .
118(6) . . .
133(6) . . .
129(6) . . .
141(7) . . .
138(6) . . .
119(6) . . .
134(6) . . .
133(6) . . .
146(7) . . .
133(6) . . .
128(6) . . .
130(6) . . .
130(6) . . .
143(7) . . .
130(6) . . .
134(6) . . .
121(6) . . .
125(6) . . .
128(6) . . .
123(6) . . .
114(6) . . .
125(6) . . .
123(6) . . .
130(6) . . .
143(6) . . .
146(6) . . .
149(6) . . .
126(6) . . .
146(6) . . .
133(6) . . .
124(6) . . .
118(6) . . .
133(6) . . .
136(6) . . .
141(6) . . .
136(6) . . .
129(6) . . .
153(7) . . .
136(6) . . .
129(6) . . .
128(6) . . .
122(6) . . .
131(6) . . .
119(6) . . .
131(6) . . .
139(6) . . .
131(6) . . .
116(6) . . .
128(6) . . .
150(6) . . .
142(6) . . .
127(6) . . .
138(7) . . .
131(6) . . .
126(6) . . .
149(6) . . .
133(6) . . .
125(6) . . .
128(6) . . .
126(6) . . .
135(6) . . .
129(6) . . .
117(6) . . .
137(6) . . .
142(6) . . .
145(6) . . .
140(6) . . .
138(6) . . .
125(6) . . .
143(6) . . .
135(6) . . .
139(6) . . .
134(6) . . .
131(6) . . .
153(6) . . .
155(7) . . .
148(7) . . .
142(6) . . .
135(6) . . .
138(6) . . .
123(6) . . .
134(6) . . .
141(6) . . .
146(7) . . .
134(6) . . .
140(6) . . .
122(6) . . .
127(6) . . .
144(6) . . .
123(6) . . .
131(6) . . .
143(6) . . .
139(6) . . .
131(6) . . .
121(6) . . .
137(6) . . .
122(6) . . .
115(6) . . .
140(6) . . .
126(6) . . .
134(6) . . .
128(6) . . .
129(6) . . .
130(6) . . .
133(6) . . .
152(7) . . .
146(7) . . .
119(6) . . .
129(6) . . .
134(6) . . .
144(7) . . .
136(7) . . .
133(6) . . .
140(6) . . .
125(6) . . .
130(6) . . .
123(6) . . .
126(6) . . .
140(6) . . .
125(6) . . .
134(6) . . .
142(7) . . .
150(7) . . .
127(6) . . .
119(6) . . .
144(7) . . .
127(6) . . .
117(6) . . .
157(7) . . .
139(6) . . .
126(6) . . .
129(6) . . .
120(6) . . .
149(6) . . .
127(6) . . .
149(7) . . .
135(6) . . .
121(6) . . .
132(6) . . .
127(6) . . .
125(6) . . .
126(6) . . .
128(6) . . .
134(6) . . .
135(6) . . .
118(6) . . .
125(6) . . .
119(6) . . .
116(6) . . .
127(6) . . .
135(6) . . .
139(6) . . .
140(6) . . .
128(6) . . .
134(6) . . .
127(6) . . .
132(6) . . .
128(6) . . .
131(6) . . .
140(6) . . .
129(6) . . .
141(6) . . .
146(6) . . .
142(6) . . .
125(6) . . .
145(7) . . .
128(6) . . .
130(6) . . .
134(6) . . .
136(6) . . .
140(6) . . .
140(6) . . .
151(6) . . .
123(6) . . .
111(6) . . .
121(6) . . .
111(6) . . .
127(6) . . .
123(6) . . .
135(7) . . .
121(6) . . .
127(6) . . .
141(6) . . .
129(6) . . .
112(6) . . .
138(6) . . .
141(6) . . .
132(6) . . .
145(6) . . .
139(6) . . .
134(6) . . .
123(6) . . .
127(6) . . .
131(6) . . .
124(6) . . .
133(6) . . .
123(6) . . .
114(6) . . .
117(6) . . .
134(6) . . .
148(6) . . .
127(6) . . .
130(6) . . .
136(6) . . .
130(6) . . .
109(6) . . .
110(6) . . .
139(6) . . .
137(6) . . .
143(7) . . .
131(6) . . .
138(6) . . .
133(6) . . .
149(6) . . .
142(6) . . .
141(6) . . .
132(6) . . .
136(6) . . .
127(6) . . .
155(7) . . .
127(6) . . .
144(6) . . .
136(6) . . .
132(6) . . .
125(6) . . .
137(6) . . .
129(6) . . .
112(6) . . .
143(7) . . .
125(6) . . .
127(6) . . .
151(6) . . .
139(6) . . .
122(6) . . .
134(6) . . .
130(6) . . .
141(6) . . .
139(6) . . .
132(6) . . .
133(6) . . .
125(6) . . .
129(6) . . .
121(6) . . .
136(6) . . .
135(6) . . .
135(6) . . .
121(6) . . .
138(6) . . .
129(6) . . .
132(6) . . .
138(6) . . .
119(6) . . .
112(6) . . .
123(6) . . .
140(6) . . .
131(6) . . .
118(6) . . .
129(6) . . .
126(6) . . .
141(6) . . .
112(6) . . .
106(5) . . .
122(6) . . .
124(6) . . .
114(6) . . .
114(5) . . .
119(6) . . .
131(6) . . .
134(6) . . .
122(6) . . .
125(6) . . .
142(6) . . .
124(6) . . .
119(6) . . .
112(6) . . .
127(6) . . .
121(6) . . .
130(6) . . .
139(7) . . .
128(6) . . .
133(6) . . .
132(6) . . .
135(6) . . .
152(7) . . .
125(6) . . .
133(6) . . .
137(6) . . .
142(6) . . .
126(6) . . .
141(6) . . .
132(6) . . .
124(6) . . .
140(7) . . .
117(6) . . .
124(6) . . .
125(6) . . .
134(6) . . .
137(6) . . .
122(6) . . .
130(6) . . .
137(6) . . .
150(7) . . .
132(6) . . .
140(6) . . .
140(6) . . .
139(6) . . .
125(6) . . .
143(7) . . .
137(6) . . .
133(6) . . .
131(6) . . .
131(6) . . .
117(6) . . .
143(6) . . .
128(6) . . .
131(6) . . .
123(6) . . .
121(6) . . .
129(6) . . .
122(6) . . .
122(6) . . .
133(6) . . .
145(7) . . .
131(6) . . .
129(6) . . .
139(6) . . .
129(6) . . .
112(6) . . .
127(6) . . .
133(6) . . .
133(6) . . .
137(7) . . .
131(6) . . .
124(6) . . .
130(6) . . .
132(6) . . .
130(6) . . .
125(6) . . .
117(6) . . .
138(6) . . .
120(6) . . .
132(6) . . .
123(6) . . .
133(6) . . .
137(6) . . .
135(6) . . .
138(6) . . .
120(6) . . .
117(6) . . .
133(6) . . .
127(6) . . .
141(7) . . .
139(6) . . .
124(6) . . .
133(6) . . .
135(6) . . .
133(7) . . .
128(6) . . .
120(6) . . .
129(6) . . .
123(6) . . .
131(7) . . .
131(6) . . .
129(6) . . .
127(6) . . .
130(6) . . .
139(7) . . .
130(6) . . .
124(6) . . .
133(6) . . .
129(6) . . .
122(6) . . .
123(6) . . .
134(6) . . .
130(6) . . .
143(6) . . .
128(6) . . .
141(6) . . .
129(6) . . .
146(6) . . .
131(7) . . .
125(6) . . .
145(6) . . .
120(6) . . .
125(6) . . .
117(6) . . .
123(6) . . .
147(6) . . .
130(6) . . .
121(6) . . .
125(6) . . .
135(6) . . .
130(6) . . .
122(6) . . .
115(6) . . .
109(6) . . .
111(6) . . .
134(6) . . .
133(6) . . .
121(6) . . .
133(6) . . .
133(6) . . .
138(6) . . .
126(6) . . .
119(6) . . .
141(7) . . .
129(6) . . .
124(6) . . .
115(6) . . .
130(6) . . .
121(6) . . .
129(6) . . .
133(6) . . .
140(6) . . .
115(6) . . .
115(6) . . .
127(6) . . .
117(6) . . .
138(6) . . .
125(6) . . .
137(7) . . .
124(6) . . .
133(6) . . .
130(6) . . .
132(6) . . .
138(7) . . .
119(6) . . .
120(6) . . .
125(6) . . .
117(6) . . .
132(6) . . .
147(7) . . .
132(6) . . .
142(6) . . .
134(6) . . .
131(6) . . .
132(6) . . .
129(6) . . .
128(6) . . .
108(6) . . .
124(6) . . .
130(6) . . .
131(6) . . .
123(6) . . .
140(6) . . .
120(6) . . .
118(6) . . .
132(6) . . .
117(6) . . .
130(6) . . .
132(6) . . .
121(6) . . .
137(6) . . .
122(6) . . .
119(6) . . .
132(6) . . .
111(6) . . .
130(6) . . .
129(6) . . .
120(6) . . .
126(6) . . .
147(6) . . .
133(6) . . .
134(6) . . .
143(7) . . .
131(6) . . .
103(5) . . .
137(6) . . .
119(6) . . .
128(6) . . .
134(6) . . .
120(6) . . .
132(6) . . .
122(6) . . .
134(6) . . .
125(6) . . .
124(6) . . .
117(6) . . .
117(6) . . .
122(6) . . .
132(6) . . .
124(6) . . .
143(6) . . .
129(6) . . .
126(6) . . .
128(6) . . .
132(6) . . .
127(6) . . .
133(6) . . .
125(6) . . .
139(6) . . .
122(6) . . .
132(6) . . .
133(6) . . .
120(6) . . .
122(6) . . .
124(6) . . .
129(6) . . .
133(6) . . .
127(6) . . .
118(6) . . .
139(6) . . .
122(6) . . .
142(7) . . .
144(6) . . .
125(6) . . .
136(6) . . .
126(6) . . .
128(6) . . .
125(6) . . .
131(6) . . .
130(6) . . .
124(6) . . .
120(6) . . .
122(6) . . .
116(6) . . .
128(6) . . .
126(6) . . .
126(6) . . .
122(6) . . .
128(6) . . .
127(6) . . .
115(6) . . .
116(6) . . .
129(6) . . .
103(5) . . .
112(6) . . .
130(6) . . .
129(6) . . .
143(6) . . .
136(6) . . .
128(6) . . .
123(6) . . .
108(6) . . .
119(6) . . .
115(6) . . .
128(6) . . .
111(6) . . .
134(6) . . .
137(6) . . .
138(6) . . .
121(6) . . .
132(6) . . .
132(6) . . .
121(6) . . .
117(6) . . .
124(6) . . .
122(6) . . .
127(6) . . .
136(6) . . .
124(6) . . .
140(6) . . .
136(7) . . .
124(6) . . .
121(6) . . .
122(6) . . .
128(6) . . .
124(6) . . .
116(6) . . .
130(6) . . .
124(6) . . .
134(6) . . .
129(6) . . .
113(6) . . .
123(6) . . .
130(6) . . .
128(6) . . .
119(6) . . .
133(6) . . .
118(6) . . .
135(6) . . .
115(6) . . .
136(6) . . .
133(6) . . .
121(6) . . .
135(6) . . .
136(6) . . .
118(6) . . .
122(6) . . .
132(6) . . .
124(6) . . .
132(6) . . .
119(6) . . .
143(6) . . .
135(6) . . .
121(6) . . .
128(6) . . .
126(6) . . .
129(6) . . .
108(5) . . .
127(6) . . .
123(6) . . .
124(6) . . .
135(6) . . .
123(6) . . .
135(6) . . .
121(6) . . .
117(6) . . .
126(6) . . .
128(6) . . .
124(6) . . .
124(6) . . .
124(6) . . .
121(6) . . .
128(6) . . .
121(6) . . .
119(6) . . .
116(6) . . .
115(6) . . .
122(6) . . .
123(6) . . .
122(6) . . .
128(6) . . .
128(6) . . .
124(6) . . .
135(6) . . .
152(7) . . .
115(6) . . .
134(6) . . .
116(6) . . .
137(7) . . .
120(6) . . .
126(6) . . .
123(6) . . .
131(6) . . .
121(6) . . .
128(6) . . .
122(6) . . .
109(5) . . .
126(6) . . .
143(7) . . .
138(6) . . .
136(6) . . .
128(6) . . .
128(6) . . .
122(6) . . .
123(6) . . .
117(6) . . .
127(6) . . .
126(6) . . .
126(6) . . .
133(6) . . .
132(6) . . .
124(6) . . .
126(6) . . .
109(6) . . .
110(6) . . .
121(6) . . .
124(6) . . .
120(6) . . .
113(6) . . .
130(6) . . .
123(6) . . .
123(6) . . .
140(6) . . .
126(6) . . .
138(6) . . .
121(6) . . .
108(5) . . .
144(7) . . .
147(7) . . .
128(6) . . .
119(6) . . .
111(5) . . .
117(6) . . .
131(6) . . .
133(6) . . .
122(6) . . .
123(6) . . .
125(6) . . .
143(7) . . .
137(6) . . .
129(6) . . .
124(6) . . .
138(6) . . .
135(6) . . .
135(6) . . .
134(6) . . .
135(6) . . .
122(6) . . .
118(6) . . .
117(6) . . .
137(6) . . .
130(6) . . .
137(6) . . .
124(6) . . .
130(6) . . .
127(6) . . .
133(6) . . .
122(6) . . .
130(6) . . .
124(6) . . .
144(6) . . .
121(6) . . .
137(6) . . .
130(6) . . .
107(5) . . .
134(6) . . .
128(6) . . .
126(6) . . .
117(6) . . .
125(6) . . .
128(6) . . .
133(6) . . .
136(6) . . .
130(6) . . .
129(6) . . .
134(6) . . .
130(6) . . .
127(7) . . .
121(6) . . .
118(6) . . .
115(6) . . .
127(6) . . .
119(6) . . .
113(6) . . .
107(5) . . .
140(6) . . .
120(6) . . .
131(7) . . .
137(6) . . .
129(6) . . .
125(6) . . .
130(6) . . .
145(7) . . .
128(6) . . .
136(6) . . .
132(6) . . .
114(6) . . .
127(6) . . .
127(6) . . .
124(6) . . .
127(6) . . .
123(6) . . .
126(6) . . .
131(6) . . .
119(6) . . .
114(6) . . .
128(6) . . .
127(6) . . .
120(6) . . .
123(6) . . .
125(6) . . .
117(6) . . .
121(6) . . .
111(6) . . .
121(6) . . .
118(6) . . .
136(6) . . .
113(6) . . .
128(6) . . .
122(6) . . .
128(6) . . .
120(6) . . .
130(6) . . .
134(6) . . .
134(6) . . .
137(6) . . .
138(6) . . .
117(6) . . .
124(6) . . .
138(6) . . .
137(6) . . .
131(7) . . .
126(6) . . .
126(6) . . .
125(6) . . .
128(6) . . .
130(6) . . .
134(6) . . .
134(6) . . .
123(6) . . .
119(6) . . .
107(6) . . .
118(6) . . .
110(6) . . .
124(6) . . .
134(6) . . .
137(6) . . .
145(7) . . .
125(6) . . .
130(6) . . .
132(6) . . .
129(6) . . .
135(6) . . .
128(6) . . .
144(6) . . .
144(6) . . .
140(6) . . .
129(6) . . .
115(6) . . .
162(7) . . .
130(6) . . .
130(6) . . .
126(6) . . .
143(6) . . .
145(6) . . .
133(6) . . .
121(6) . . .
134(6) . . .
152(6) . . .
146(6) . . .
145(7) . . .
132(6) . . .
139(6) . . .
140(6) . . .
137(6) . . .
140(6) . . .
138(6) . . .
140(6) . . .
125(6) . . .
137(6) . . .
129(6) . . .
123(6) . . .
131(6) . . .
132(6) . . .
125(6) . . .
132(6) . . .
106(5) . . .
116(6) . . .
122(6) . . .
122(6) . . .
124(6) . . .
128(6) . . .
124(6) . . .
130(6) . . .
137(6) . . .
135(6) . . .
120(6) . . .
120(6) . . .
125(6) . . .
131(6) . . .
135(6) . . .
139(6) . . .
124(6) . . .
122(6) . . .
119(6) . . .
114(6) . . .
124(6) . . .
146(6) . . .
120(6) . . .
134(6) . . .
123(6) . . .
127(6) . . .
116(6) . . .
127(6) . . .
134(6) . . .
141(6) . . .
134(6) . . .
120(6) . . .
129(6) . . .
119(6) . . .
132(6) . . .
129(6) . . .
132(6) . . .
120(6) . . .
118(6) . . .
125(6) . . .
118(6) . . .
135(6) . . .
136(6) . . .
138(7) . . .
145(6) . . .
127(6) . . .
141(6) . . .
118(6) . . .
121(6) . . .
130(6) . . .
127(6) . . .
126(6) . . .
122(6) . . .
114(6) . . .
142(7) . . .
126(6) . . .
128(6) . . .
132(6) . . .
139(7) . . .
114(6) . . .
120(6) . . .
128(6) . . .
155(7) . . .
134(6) . . .
111(6) . . .
106(5) . . .
128(6) . . .
142(6) . . .
139(6) . . .
127(6) . . .
147(6) . . .
127(6) . . .
136(6) . . .
132(6) . . .
118(6) . . .
142(6) . . .
126(6) . . .
117(6) . . .
133(6) . . .
122(6) . . .
130(6) . . .
139(6) . . .
138(6) . . .
137(6) . . .
135(6) . . .
129(6) . . .
138(6) . . .
125(6) . . .
128(6) . . .
133(6) . . .
133(6) . . .
114(6) . . .
116(6) . . .
125(6) . . .
127(6) . . .
138(6) . . .
130(6) . . .
135(6) . . .
121(6) . . .
136(6) . . .
123(6) . . .
131(6) . . .
129(6) . . .
141(7) . . .
130(6) . . .
124(6) . . .
149(7) . . .
119(6) . . .
128(6) . . .
126(6) . . .
137(6) . . .
136(6) . . .
132(6) . . .
141(6) . . .
129(6) . . .
137(6) . . .
144(7) . . .
146(7) . . .
137(6) . . .
131(6) . . .
134(6) . . .
129(6) . . .
128(6) . . .
128(6) . . .
139(6) . . .
122(6) . . .
129(6) . . .
120(6) . . .
142(7) . . .
144(6) . . .
131(6) . . .
119(6) . . .
118(6) . . .
134(6) . . .
126(6) . . .
128(6) . . .
111(6) . . .
115(6) . . .
120(6) . . .
128(6) . . .
137(6) . . .
141(6) . . .
130(6) . . .
115(6) . . .
132(6) . . .
118(6) . . .
125(6) . . .
138(6) . . .
160(6) . . .
139(6) . . .
123(6) . . .
127(6) . . .
134(6) . . .
130(6) . . .
117(6) . . .
121(6) . . .
127(6) . . .
148(7) . . .
127(6) . . .
141(6) . . .
129(6) . . .
131(6) . . .
141(6) . . .
126(6) . . .
124(6) . . .
130(6) . . .
130(6) . . .
127(6) . . .
143(6) . . .
137(6) . . .
139(6) . . .
130(6) . . .
137(6) . . .
131(6) . . .
127(6) . . .
117(6) . . .
112(6) . . .
124(6) . . .
133(6) . . .
146(6) . . .
126(6) . . .
129(6) . . .
116(6) . . .
137(6) . . .
136(6) . . .
130(6) . . .
126(6) . . .
128(6) . . .
139(6) . . .
130(6) . . .
130(6) . . .
121(6) . . .
121(6) . . .
110(5) . . .
139(7) . . .
128(6) . . .
119(6) . . .
120(6) . . .
119(6) . . .
117(6) . . .
121(6) . . .
123(6) . . .
138(6) . . .
131(6) . . .
118(6) . . .
130(6) . . .
137(6) . . .
126(6) . . .
114(6) . . .
150(7) . . .
139(7) . . .
123(6) . . .
119(6) . . .
118(6) . . .
122(6) . . .
128(6) . . .
118(6) . . .
116(6) . . .
134(6) . . .
146(7) . . .
132(6) . . .
137(6) . . .
136(6) . . .
123(6) . . .
120(6) . . .
123(6) . . .
132(6) . . .
140(6) . . .
123(6) . . .
125(6) . . .
136(6) . . .
140(6) . . .
121(6) . . .
126(6) . . .
128(6) . . .
124(6) . . .
103(5) . . .
122(6) . . .
126(6) . . .
129(6) . . .
143(7) . . .
125(6) . . .
132(6) . . .
132(6) . . .
128(6) . . .
128(6) . . .
117(6) . . .
130(6) . . .
148(7) . . .
125(6) . . .
128(6) . . .
125(6) . . .
120(6) . . .
123(6) . . .
128(6) . . .
122(6) . . .
125(6) . . .
125(6) . . .
123(6) . . .
140(7) . . .
114(6) . . .
114(6) . . .
116(6) . . .
117(6) . . .
126(6) . . .
128(6) . . .
156(6) . . .
144(6) . . .
137(6) . . .
127(6) . . .
128(6) . . .
131(6) . . .
124(6) . . .
117(6) . . .
141(7) . . .
130(6) . . .
128(6) . . .
114(6) . . .
141(6) . . .
134(6) . . .
95(5) . . .
113(5) . . .
129(6) . . .
122(6) . . .
123(6) . . .
141(6) . . .
122(6) . . .
143(7) . . .
117(6) . . .
130(6) . . .
134(6) . . .
125(6) . . .
135(6) . . .
129(6) . . .
128(6) . . .
139(6) . . .
143(6) . . .
109(6) . . .
131(6) . . .
122(6) . . .
124(6) . . .
127(6) . . .
117(6) . . .
108(6) . . .
124(6) . . .
125(6) . . .
130(6) . . .
135(6) . . .
127(6) . . .
128(6) . . .
130(6) . . .
144(6) . . .
133(6) . . .
129(6) . . .
120(6) . . .
121(6) . . .
116(6) . . .
128(6) . . .
120(6) . . .
107(6) . . .
120(6) . . .
128(6) . . .
141(7) . . .
132(6) . . .
139(6) . . .
138(6) . . .
131(6) . . .
146(7) . . .
121(6) . . .
125(6) . . .
122(6) . . .
111(6) . . .
147(7) . . .
126(6) . . .
123(6) . . .
125(6) . . .
127(6) . . .
119(6) . . .
130(6) . . .
131(6) . . .
123(6) . . .
106(5) . . .
116(6) . . .
127(6) . . .
128(6) . . .
127(6) . . .
117(6) . . .
138(7) . . .
135(6) . . .
129(6) . . .
117(6) . . .
114(6) . . .
126(6) . . .
125(6) . . .
119(6) . . .
138(6) . . .
136(6) . . .
136(7) . . .
131(6) . . .
126(6) . . .
120(6) . . .
122(6) . . .
123(6) . . .
122(6) . . .
117(6) . . .
131(6) . . .
114(6) . . .
123(6) . . .
121(6) . . .
114(6) . . .
141(6) . . .
132(6) . . .
144(7) . . .
113(6) . . .
138(6) . . .
127(6) . . .
127(6) . . .
127(6) . . .
121(6) . . .
123(6) . . .
138(6) . . .
126(6) . . .
129(6) . . .
126(6) . . .
142(6) . . .
131(6) . . .
128(6) . . .
109(5) . . .
131(6) . . .
127(6) . . .
120(6) . . .
144(7) . . .
123(6) . . .
120(6) . . .
120(6) . . .
136(6) . . .
151(7) . . .
157(7) . . .
136(6) . . .
123(6) . . .
126(6) . . .
143(7) . . .
141(6) . . .
119(6) . . .
118(6) . . .
116(6) . . .
136(6) . . .
123(6) . . .
130(6) . . .
125(6) . . .
119(6) . . .
137(6) . . .
135(6) . . .
128(6) . . .
138(6) . . .
138(6) . . .
125(6) . . .
128(6) . . .
112(6) . . .
125(6) . . .
115(6) . . .
129(6) . . .
123(6) . . .
119(6) . . .
126(6) . . .
122(6) . . .
133(6) . . .
131(6) . . .
132(6) . . .
125(6) . . .
132(6) . . .
141(7) . . .
113(6) . . .
133(6) . . .
118(6) . . .
131(6) . . .
123(6) . . .
126(6) . . .
121(6) . . .
126(6) . . .
114(6) . . .
136(6) . . .
116(6) . . .
136(6) . . .
134(6) . . .
120(6) . . .
144(6) . . .
143(6) . . .
124(6) . . .
111(6) . . .
126(6) . . .
116(6) . . .
133(6) . . .
125(6) . . .
120(6) . . .
139(7) . . .
125(6) . . .
128(6) . . .
126(6) . . .
123(6) . . .
128(6) . . .
132(6) . . .
127(6) . . .
119(6) . . .
116(6) . . .
118(6) . . .
129(6) . . .
118(6) . . .
131(6) . . .
134(6) . . .
124(6) . . .
121(6) . . .
137(6) . . .
118(6) . . .
131(6) . . .
136(6) . . .
130(6) . . .
126(6) . . .
133(6) . . .
130(6) . . .
126(6) . . .
121(6) . . .
113(6) . . .
128(6) . . .
108(6) . . .
113(6) . . .
113(6) . . .
111(5) . . .
111(6) . . .
123(6) . . .
133(6) . . .
135(6) . . .
121(6) . . .
135(6) . . .
122(6) . . .
121(6) . . .
118(6) . . .
135(6) . . .
123(6) . . .
129(6) . . .
116(6) . . .
133(6) . . .
133(6) . . .
124(6) . . .
122(6) . . .
121(6) . . .
99(5) . . .
125(6) . . .
121(6) . . .
117(6) . . .
116(6) . . .
127(6) . . .
104(6) . . .
115(6) . . .
135(6) . . .
131(6) . . .
126(6) . . .
130(6) . . .
122(6) . . .
108(5) . . .
121(6) . . .
114(6) . . .
105(5) . . .
113(6) . . .
132(6) . . .
122(6) . . .
120(6) . . .
117(6) . . .
124(6) . . .
120(6) . . .
108(6) . . .
121(6) . . .
124(6) . . .
112(5) . . .
111(6) . . .
129(6) . . .
132(6) . . .
125(6) . . .
129(6) . . .
121(6) . . .
110(6) . . .
115(6) . . .
135(6) . . .
132(6) . . .
129(6) . . .
120(6) . . .
127(6) . . .
113(6) . . .
111(5) . . .
112(6) . . .
117(6) . . .
107(5) . . .
110(5) . . .
130(6) . . .
127(6) . . .
134(6) . . .
118(6) . . .
126(6) . . .
123(6) . . .
120(6) . . .
118(6) . . .
129(6) . . .
123(6) . . .
123(6) . . .
118(6) . . .
119(6) . . .
120(6) . . .
127(6) . . .
114(6) . . .
127(6) . . .
119(6) . . .
112(6) . . .
114(6) . . .
126(6) . . .
139(6) . . .
120(6) . . .
132(6) . . .
110(5) . . .
128(6) . . .
112(6) . . .
121(6) . . .
120(6) . . .
109(5) . . .
116(6) . . .
119(6) . . .
114(6) . . .
122(6) . . .
123(6) . . .
132(7) . . .
132(6) . . .
128(6) . . .
122(6) . . .
103(5) . . .
116(6) . . .
107(6) . . .
107(6) . . .
113(6) . . .
119(6) . . .
127(6) . . .
109(6) . . .
108(5) . . .
128(6) . . .
125(6) . . .
123(6) . . .
109(6) . . .
116(6) . . .
130(6) . . .
119(6) . . .
115(6) . . .
114(6) . . .
126(6) . . .
122(6) . . .
112(5) . . .
121(6) . . .
114(6) . . .
124(6) . . .
137(6) . . .
124(6) . . .
112(6) . . .
107(6) . . .
106(5) . . .
115(6) . . .
133(6) . . .
120(6) . . .
111(6) . . .
116(6) . . .
124(6) . . .
120(6) . . .
129(6) . . .
127(6) . . .
118(6) . . .
121(6) . . .
119(6) . . .
113(6) . . .
133(6) . . .
115(6) . . .
132(6) . . .
130(6) . . .
117(6) . . .
125(6) . . .
125(6) . . .
140(6) . . .
110(6) . . .
126(6) . . .
117(6) . . .
134(6) . . .
110(5) . . .
117(6) . . .
120(6) . . .
121(6) . . .
111(6) . . .
120(6) . . .
106(5) . . .
116(6) . . .
127(6) . . .
122(6) . . .
116(6) . . .
112(6) . . .
110(6) . . .
113(6) . . .
131(6) . . .
125(6) . . .
125(6) . . .
111(6) . . .
109(6) . . .
105(5) . . .
130(6) . . .
138(6) . . .
124(6) . . .
123(6) . . .
112(5) . . .
111(5) . . .
121(6) . . .
129(6) . . .
115(6) . . .
119(6) . . .
120(6) . . .
126(6) . . .
132(6) . . .
128(6) . . .
117(6) . . .
121(6) . . .
125(6) . . .
136(6) . . .
118(6) . . .
122(6) . . .
120(6) . . .
112(6) . . .
120(6) . . .
121(6) . . .
135(6) . . .
132(6) . . .
129(6) . . .
119(6) . . .
119(6) . . .
133(6) . . .
121(6) . . .
120(6) . . .
117(6) . . .
106(5) . . .
104(5) . . .
117(6) . . .
127(6) . . .
129(6) . . .
127(6) . . .
127(6) . . .
110(6) . . .
114(6) . . .
116(6) . . .
112(5) . . .
125(6) . . .
121(6) . . .
121(6) . . .
119(6) . . .
140(6) . . .
108(5) . . .
117(6) . . .
120(6) . . .
127(6) . . .
111(5) . . .
117(6) . . .
119(6) . . .
122(6) . . .
117(6) . . .
121(6) . . .
109(6) . . .
123(6) . . .
132(6) . . .
121(6) . . .
106(5) . . .
123(6) . . .
126(6) . . .
120(6) . . .
121(6) . . .
114(6) . . .
114(6) . . .
108(6) . . .
108(6) . . .
108(5) . . .
113(6) . . .
115(6) . . .
127(6) . . .
123(6) . . .
118(6) . . .
119(6) . . .
107(6) . . .
119(6) . . .
116(6) . . .
133(6) . . .
110(6) . . .
132(6) . . .
119(6) . . .
132(6) . . .
125(6) . . .
119(6) . . .
120(6) . . .
121(6) . . .
123(6) . . .
126(6) . . .
113(5) . . .
123(6) . . .
118(6) . . .
120(6) . . .
125(6) . . .
126(6) . . .
117(6) . . .
129(6) . . .
121(6) . . .
123(6) . . .
116(6) . . .
123(6) . . .
120(6) . . .
100(5) . . .
111(5) . . .
119(6) . . .
115(6) . . .
123(6) . . .
116(6) . . .
124(6) . . .
141(6) . . .
136(6) . . .
126(6) . . .
132(6) . . .
123(6) . . .
124(6) . . .
122(6) . . .
132(6) . . .
119(6) . . .
114(6) . . .
131(6) . . .
127(6) . . .
125(6) . . .
110(6) . . .
120(6) . . .
114(6) . . .
116(6) . . .
122(6) . . .
106(5) . . .
131(6) . . .
126(6) . . .
119(6) . . .
127(6) . . .
117(6) . . .
120(6) . . .
118(6) . . .
108(6) . . .
120(6) . . .
122(6) . . .
121(6) . . .
114(6) . . .
113(6) . . .
123(6) . . .
108(5) . . .
123(6) . . .
122(6) . . .
108(6) . . .
125(6) . . .
133(6) . . .
121(6) . . .
126(6) . . .
102(5) . . .
123(6) . . .
110(6) . . .
116(6) . . .
126(6) . . .
119(6) . . .
127(6) . . .
117(6) . . .
132(6) . . .
106(6) . . .
108(6) . . .
119(6) . . .
120(6) . . .
104(5) . . .
142(7) . . .
115(6) . . .
129(6) . . .
126(6) . . .
137(6) . . .
125(6) . . .
114(6) . . .
115(6) . . .
123(6) . . .
113(6) . . .
121(6) . . .
133(6) . . .
122(6) . . .
116(6) . . .
116(6) . . .
107(6) . . .
126(6) . . .
117(6) . . .
126(6) . . .
121(6) . . .
128(6) . . .
125(6) . . .
125(6) . . .
117(6) . . .
111(6) . . .
122(6) . . .
115(6) . . .
120(6) . . .
117(6) . . .
116(6) . . .
126(6) . . .
129(6) . . .
115(6) . . .
117(6) . . .
120(6) . . .
128(6) . . .
132(6) . . .
109(5) . . .
118(6) . . .
128(6) . . .
115(6) . . .
114(6) . . .
134(6) . . .
120(6) . . .
114(6) . . .
129(6) . . .
123(6) . . .
139(6) . . .
105(5) . . .
109(6) . . .
117(6) . . .
112(6) . . .
119(6) . . .
122(6) . . .
108(6) . . .
110(6) . . .
113(6) . . .
117(6) . . .
110(6) . . .
128(7) . . .
105(5) . . .
129(6) . . .
131(6) . . .
118(6) . . .
114(6) . . .
106(6) . . .
123(6) . . .
119(6) . . .
109(6) . . .
122(6) . . .
123(6) . . .
137(6) . . .
114(6) . . .
120(6) . . .
129(6) . . .
124(6) . . .
119(6) . . .
130(6) . . .
117(6) . . .
124(6) . . .
121(6) . . .
134(6) . . .
119(6) . . .
119(6) . . .
115(6) . . .
123(6) . . .
118(6) . . .
122(6) . . .
114(6) . . .
108(6) . . .
116(6) . . .
115(6) . . .
124(6) . . .
121(6) . . .
122(6) . . .
120(6) . . .
117(6) . . .
125(6) . . .
123(6) . . .
110(6) . . .
112(5) . . .
130(6) . . .
115(6) . . .
123(6) . . .
124(6) . . .
113(6) . . .
106(5) . . .
136(6) . . .
123(6) . . .
110(6) . . .
104(5) . . .
120(6) . . .
119(6) . . .
107(6) . . .
126(6) . . .
114(5) . . .
131(6) . . .
121(6) . . .
122(6) . . .
116(6) . . .
104(5) . . .
113(6) . . .
114(6) . . .
114(6) . . .
119(6) . . .
130(6) . . .
116(6) . . .
104(5) . . .
120(6) . . .
114(6) . . .
123(6) . . .
116(6) . . .
113(6) . . .
120(6) . . .
134(7) . . .
126(6) . . .
113(6) . . .
123(6) . . .
116(6) . . .
112(6) . . .
122(6) . . .
118(6) . . .
114(6) . . .
120(6) . . .
123(6) . . .
106(5) . . .
123(6) . . .
129(6) . . .
107(5) . . .
118(6) . . .
111(5) . . .
121(6) . . .
112(6) . . .
127(6) . . .
133(6) . . .
120(6) . . .
131(6) . . .
111(6) . . .
122(6) . . .
131(6) . . .
110(5) . . .
125(6) . . .
130(6) . . .
117(6) . . .
127(6) . . .
125(6) . . .
123(6) . . .
130(6) . . .
117(6) . . .
123(6) . . .
121(6) . . .
119(6) . . .
110(6) . . .
137(6) . . .
129(6) . . .
134(6) . . .
129(6) . . .
115(6) . . .
120(6) . . .
124(6) . . .
114(6) . . .
114(6) . . .
130(6) . . .
135(6) . . .
131(6) . . .
138(6) . . .
123(6) . . .
121(6) . . .
122(6) . . .
108(5) . . .
126(6) . . .
117(6) . . .
115(6) . . .
119(6) . . .
120(6) . . .
128(6) . . .
129(6) . . .
113(6) . . .
125(6) . . .
135(6) . . .
115(6) . . .
124(6) . . .
122(6) . . .
134(6) . . .
129(6) . . .
122(6) . . .
122(6) . . .
113(6) . . .
123(6) . . .
121(6) . . .
115(6) . . .
105(6) . . .
111(6) . . .
115(6) . . .
125(6) . . .
122(6) . . .
129(6) . . .
135(6) . . .
124(6) . . .
116(6) . . .
106(5) . . .
121(6) . . .
134(6) . . .
113(6) . . .
127(6) . . .
123(6) . . .
120(6) . . .
119(6) . . .
114(6) . . .
118(6) . . .
116(6) . . .
117(6) . . .
108(6) . . .
128(6) . . .
142(6) . . .
118(6) . . .
128(6) . . .
124(6) . . .
119(6) . . .
120(6) . . .
124(6) . . .
114(6) . . .
101(5) . . .
113(6) . . .
126(6) . . .
144(7) . . .
136(6) . . .
118(6) . . .
115(6) . . .
140(7) . . .
123(6) . . .
126(6) . . .
116(6) . . .
117(6) . . .
124(6) . . .
138(6) . . .
117(6) . . .
112(6) . . .
130(6) . . .
109(6) . . .
114(6) . . .
120(6) . . .
122(6) . . .
121(6) . . .
115(6) . . .
126(6) . . .
125(6) . . .
130(6) . . .
122(6) . . .
121(6) . . .
119(6) . . .
119(6) . . .
111(6) . . .
120(6) . . .
129(6) . . .
121(6) . . .
109(6) . . .
123(6) . . .
126(6) . . .
119(6) . . .
129(6) . . .
112(6) . . .
137(6) . . .
118(6) . . .
133(6) . . .
126(6) . . .
133(6) . . .
119(6) . . .
121(6) . . .
117(6) . . .
130(6) . . .
105(5) . . .
126(6) . . .
110(5) . . .
110(6) . . .
111(6) . . .
121(6) . . .
120(6) . . .
113(6) . . .
121(6) . . .
115(6) . . .
116(6) . . .
125(6) . . .
111(6) . . .
114(6) . . .
126(6) . . .
116(6) . . .
126(6) . . .
114(6) . . .
117(6) . . .
112(6) . . .
116(6) . . .
129(6) . . .
139(6) . . .
122(6) . . .
128(6) . . .
123(6) . . .
123(6) . . .
133(6) . . .
125(6) . . .
126(6) . . .
126(6) . . .
120(6) . . .
113(6) . . .
110(6) . . .
119(6) . . .
134(6) . . .
120(6) . . .
121(6) . . .
128(6) . . .
110(6) . . .
131(6) . . .
118(6) . . .
130(6) . . .
119(6) . . .
142(7) . . .
124(6) . . .
128(6) . . .
97(5) . . .
114(6) . . .
124(6) . . .
117(6) . . .
117(6) . . .
123(6) . . .
116(6) . . .
129(6) . . .
131(6) . . .
129(6) . . .
116(6) . . .
108(6) . . .
107(5) . . .
113(5) . . .
122(6) . . .
118(6) . . .
121(6) . . .
112(6) . . .
114(5) . . .
125(6) . . .
125(6) . . .
129(6) . . .
130(6) . . .
132(6) . . .
111(6) . . .
130(6) . . .
112(6) . . .
110(5) . . .
121(6) . . .
126(6) . . .
133(7) . . .
118(6) . . .
116(6) . . .
110(5) . . .
115(6) . . .
121(6) . . .
124(6) . . .
135(6) . . .
122(6) . . .
120(6) . . .
121(6) . . .
107(6) . . .
131(6) . . .
107(6) . . .
105(6) . . .
121(6) . . .
131(6) . . .
133(6) . . .
141(6) . . .
121(6) . . .
139(6) . . .
132(6) . . .
139(6) . . .
134(6) . . .
131(6) . . .
117(6) . . .
131(6) . . .
123(6) . . .
123(6) . . .
127(6) . . .
123(6) . . .
132(6) . . .
120(6) . . .
142(7) . . .
126(6) . . .
127(6) . . .
136(6) . . .
115(6) . . .
112(6) . . .
127(6) . . .
132(6) . . .
141(6) . . .
142(6) . . .
123(6) . . .
123(6) . . .
120(6) . . .
130(6) . . .
117(6) . . .
131(6) . . .
129(6) . . .
116(6) . . .
128(6) . . .
112(6) . . .
129(6) . . .
129(6) . . .
130(6) . . .
116(6) . . .
126(6) . . .
127(6) . . .
120(6) . . .
121(6) . . .
124(6) . . .
131(6) . . .
133(6) . . .
105(6) . . .
118(6) . . .
109(5) . . .
129(6) . . .
117(6) . . .
123(6) . . .
125(6) . . .
134(6) . . .
130(6) . . .
116(6) . . .
114(6) . . .
126(6) . . .
124(6) . . .
122(6) . . .
123(6) . . .
145(7) . . .
128(6) . . .
132(6) . . .
125(6) . . .
113(6) . . .
124(6) . . .
123(6) . . .
121(6) . . .
124(6) . . .
123(6) . . .
123(6) . . .
119(6) . . .
136(6) . . .
143(6) . . .
126(6) . . .
133(6) . . .
124(6) . . .
113(6) . . .
121(6) . . .
125(6) . . .
129(6) . . .
124(6) . . .
111(5) . . .
111(6) . . .
116(6) . . .
125(6) . . .
131(6) . . .
128(6) . . .
113(6) . . .
130(6) . . .
132(6) . . .
119(6) . . .
130(6) . . .
120(6) . . .
126(6) . . .
109(5) . . .
126(6) . . .
123(6) . . .
139(6) . . .
126(6) . . .
128(6) . . .
136(6) . . .
121(6) . . .
135(6) . . .
110(6) . . .
121(6) . . .
116(6) . . .
131(6) . . .
125(6) . . .
117(6) . . .
110(6) . . .
117(6) . . .
126(6) . . .
123(6) . . .
122(6) . . .
110(5) . . .
134(6) . . .
119(6) . . .
123(6) . . .
125(6) . . .
127(6) . . .
123(6) . . .
127(6) . . .
121(6) . . .
131(6) . . .
130(6) . . .
136(6) . . .
128(6) . . .
122(6) . . .
128(6) . . .
118(6) . . .
126(6) . . .
118(6) . . .
124(6) . . .
122(6) . . .
132(6) . . .
130(6) . . .
128(6) . . .
113(6) . . .
122(6) . . .
127(6) . . .
114(6) . . .
137(6) . . .
131(6) . . .
132(6) . . .
120(6) . . .
124(6) . . .
115(6) . . .
138(7) . . .
122(6) . . .
122(6) . . .
123(6) . . .
126(6) . . .
127(6) . . .
124(6) . . .
132(6) . . .
119(6) . . .
132(6) . . .
129(6) . . .
111(6) . . .
124(6) . . .
125(6) . . .
115(6) . . .
111(6) . . .
116(6) . . .
146(6) . . .
112(6) . . .
114(6) . . .
130(6) . . .
128(6) . . .
114(6) . . .
124(6) . . .
126(6) . . .
120(6) . . .
142(6) . . .
139(6) . . .
118(6) . . .
119(6) . . .
121(6) . . .
118(6) . . .
128(6) . . .
110(6) . . .
134(7) . . .
135(6) . . .
112(6) . . .
115(6) . . .
124(6) . . .
122(6) . . .
132(6) . . .
121(6) . . .
129(6) . . .
139(6) . . .
121(6) . . .
134(6) . . .
131(6) . . .
127(6) . . .
127(6) . . .
123(6) . . .
123(6) . . .
138(6) . . .
112(6) . . .
108(6) . . .
97(5) . . .
112(6) . . .
111(6) . . .
109(6) . . .
126(6) . . .
128(6) . . .
117(6) . . .
125(6) . . .
129(6) . . .
126(6) . . .
142(6) . . .
130(6) . . .
125(6) . . .
119(6) . . .
123(6) . . .
143(7) . . .
122(6) . . .
122(6) . . .
123(6) . . .
130(6) . . .
121(6) . . .
119(6) . . .
112(6) . . .
116(6) . . .
110(6) . . .
124(6) . . .
114(6) . . .
135(6) . . .
110(6) . . .
122(6) . . .
125(6) . . .
125(6) . . .
137(6) . . .
129(6) . . .
126(6) . . .
128(6) . . .
128(6) . . .
125(6) . . .
118(6) . . .
121(6) . . .
117(6) . . .
116(6) . . .
114(6) . . .
123(6) . . .
131(6) . . .
132(6) . . .
126(6) . . .
132(6) . . .
127(6) . . .
123(6) . . .
120(6) . . .
112(5) . . .
121(6) . . .
98(5) . . .
112(6) . . .
140(6) . . .
111(6) . . .
117(6) . . .
114(6) . . .
103(6) . . .
127(6) . . .
134(6) . . .
123(6) . . .
138(7) . . .
117(6) . . .
112(6) . . .
117(6) . . .
124(6) . . .
122(6) . . .
110(6) . . .
123(6) . . .
128(6) . . .
121(6) . . .
124(6) . . .
131(6) . . .
115(6) . . .
112(5) . . .
132(6) . . .
110(6) . . .
134(6) . . .
113(5) . . .
123(6) . . .
138(6) . . .
125(6) . . .
124(6) . . .
126(6) . . .
126(6) . . .
126(6) . . .
119(6) . . .
121(6) . . .
111(5) . . .
114(6) . . .
123(6) . . .
127(6) . . .
120(6) . . .
131(6) . . .
128(6) . . .
131(6) . . .
117(6) . . .
112(6) . . .
114(6) . . .
121(6) . . .
103(5) . . .
126(6) . . .
128(6) . . .
126(6) . . .
116(6) . . .
112(6) . . .
128(6) . . .
127(6) . . .
123(6) . . .
114(6) . . .
136(6) . . .
132(6) . . .
123(6) . . .
116(6) . . .
113(6) . . .
117(6) . . .
125(6) . . .
122(6) . . .
123(6) . . .
128(6) . . .
129(6) . . .
121(6) . . .
120(6) . . .
117(6) . . .
124(6) . . .
131(6) . . .
121(6) . . .
124(6) . . .
125(6) . . .
131(6) . . .
122(6) . . .
130(6) . . .
127(6) . . .
115(6) . . .
123(6) . . .
121(6) . . .
109(6) . . .
134(6) . . .
117(6) . . .
117(6) . . .
129(6) . . .
117(6) . . .
122(6) . . .
137(6) . . .
122(6) . . .
114(6) . . .
117(6) . . .
126(6) . . .
141(6) . . .
126(6) . . .
113(6) . . .
134(6) . . .
116(6) . . .
113(6) . . .
113(6) . . .
139(6) . . .
116(6) . . .
128(6) . . .
111(6) . . .
126(6) . . .
127(6) . . .
132(6) . . .
134(6) . . .
128(6) . . .
126(6) . . .
127(6) . . .
126(6) . . .
126(6) . . .
125(6) . . .
113(6) . . .
132(6) . . .
121(6) . . .
114(6) . . .
128(6) . . .
127(6) . . .
127(6) . . .
112(5) . . .
128(6) . . .
127(6) . . .
110(6) . . .
123(6) . . .
121(6) . . .
124(6) . . .
109(6) . . .
123(6) . . .
134(6) . . .
124(6) . . .
125(6) . . .
126(6) . . .
128(6) . . .
129(6) . . .
132(6) . . .
133(6) . . .
118(6) . . .
126(6) . . .
108(6) . . .
127(6) . . .
123(6) . . .
126(6) . . .
122(6) . . .
133(6) . . .
129(6) . . .
123(6) . . .
136(6) . . .
128(6) . . .
113(6) . . .
127(6) . . .
111(6) . . .
117(6) . . .
124(6) . . .
121(6) . . .
120(6) . . .
130(6) . . .
130(6) . . .
123(6) . . .
132(6) . . .
125(6) . . .
118(6) . . .
134(6) . . .
120(6) . . .
116(6) . . .
117(6) . . .
111(6) . . .
116(6) . . .
112(6) . . .
107(5) . . .
107(5) . . .
136(7) . . .
135(7) . . .
113(6) . . .
124(6) . . .
129(6) . . .
120(6) . . .
138(6) . . .
123(6) . . .
112(5) . . .
121(6) . . .
126(6) . . .
122(6) . . .
125(6) . . .
130(6) . . .
132(6) . . .
123(6) . . .
116(6) . . .
119(6) . . .
124(6) . . .
118(6) . . .
119(6) . . .
120(6) . . .
111(6) . . .
114(6) . . .
126(6) . . .
107(6) . . .
125(6) . . .
126(6) . . .
122(6) . . .
127(6) . . .
119(6) . . .
132(7) . . .
124(6) . . .
107(5) . . .
115(6) . . .
126(6) . . .
130(6) . . .
133(6) . . .
124(6) . . .
121(6) . . .
121(6) . . .
111(6) . . .
134(6) . . .
130(6) . . .
120(6) . . .
122(6) . . .
136(6) . . .
135(6) . . .
121(6) . . .
132(6) . . .
131(6) . . .
120(6) . . .
119(6) . . .
128(6) . . .
123(6) . . .
125(6) . . .
124(6) . . .
149(6) . . .
133(6) . . .
130(6) . . .
114(6) . . .
114(6) . . .
115(6) . . .
129(6) . . .
129(6) . . .
127(6) . . .
133(6) . . .
126(6) . . .
123(6) . . .
122(6) . . .
116(6) . . .
138(6) . . .
134(6) . . .
126(6) . . .
140(6) . . .
122(6) . . .
128(6) . . .
118(6) . . .
120(6) . . .
133(6) . . .
133(6) . . .
113(6) . . .
102(5) . . .
116(6) . . .
127(6) . . .
125(6) . . .
121(6) . . .
110(6) . . .
113(6) . . .
126(6) . . .
131(6) . . .
127(6) . . .
128(6) . . .
125(6) . . .
107(6) . . .
121(6) . . .
119(6) . . .
117(6) . . .
119(6) . . .
118(6) . . .
130(6) . . .
131(6) . . .
113(6) . . .
136(6) . . .
126(6) . . .
127(6) . . .
126(6) . . .
119(6) . . .
116(6) . . .
122(6) . . .
110(6) . . .
127(6) . . .
122(6) . . .
113(6) . . .
124(6) . . .
123(6) . . .
134(6) . . .
129(6) . . .
124(6) . . .
114(6) . . .
113(6) . . .
125(6) . . .
122(6) . . .
117(6) . . .
131(6) . . .
124(6) . . .
124(6) . . .
126(6) . . .
140(7) . . .
142(7) . . .
123(6) . . .
118(6) . . .
117(6) . . .
128(6) . . .
118(6) . . .
124(6) . . .
103(5) . . .
114(6) . . .
112(5) . . .
134(6) . . .
132(6) . . .
122(6) . . .
113(6) . . .
125(6) . . .
120(6) . . .
120(6) . . .
136(6) . . .
131(6) . . .
122(6) . . .
124(6) . . .
135(6) . . .
123(6) . . .
128(6) . . .
127(6) . . .
128(6) . . .
120(6) . . .
134(6) . . .
116(6) . . .
119(6) . . .
114(6) . . .
125(6) . . .
117(6) . . .
110(6) . . .
126(6) . . .
128(6) . . .
116(6) . . .
111(5) . . .
132(6) . . .
121(6) . . .
122(6) . . .
125(6) . . .
125(6) . . .
111(6) . . .
130(6) . . .
112(6) . . .
124(6) . . .
120(6) . . .
132(6) . . .
130(6) . . .
137(6) . . .
121(6) . . .
113(6) . . .
122(6) . . .
123(6) . . .
126(6) . . .
140(6) . . .
123(6) . . .
126(6) . . .
96(5) . . .
121(6) . . .
123(6) . . .
127(6) . . .
114(6) . . .
132(6) . . .
132(6) . . .
123(6) . . .
122(6) . . .
130(6) . . .
152(7) . . .
138(6) . . .
129(6) . . .
118(6) . . .
116(6) . . .
112(6) . . .
106(5) . . .
137(6) . . .
123(6) . . .
124(6) . . .
122(6) . . .
139(6) . . .
116(6) . . .
124(6) . . .
125(6) . . .
117(6) . . .
122(6) . . .
112(6) . . .
118(6) . . .
119(6) . . .
127(6) . . .
126(6) . . .
112(6) . . .
117(6) . . .
120(6) . . .
116(6) . . .
120(6) . . .
118(6) . . .
117(6) . . .
114(6) . . .
126(6) . . .
121(6) . . .
134(6) . . .
118(6) . . .
120(6) . . .
127(6) . . .
105(5) . . .
132(6) . . .
124(6) . . .
124(6) . . .
110(5) . . .
123(6) . . .
130(6) . . .
130(6) . . .
120(6) . . .
121(6) . . .
105(5) . . .
121(6) . . .
115(6) . . .
126(6) . . .
117(6) . . .
143(6) . . .
118(6) . . .
119(6) . . .
117(6) . . .
132(6) . . .
117(6) . . .
112(6) . . .
120(6) . . .
120(6) . . .
146(6) . . .
108(5) . . .
118(6) . . .
119(6) . . .
117(6) . . .
121(6) . . .
119(6) . . .
129(6) . . .
126(6) . . .
126(6) . . .
119(6) . . .
130(6) . . .
119(6) . . .
113(6) . . .
132(6) . . .
130(6) . . .
118(6) . . .
127(6) . . .
113(6) . . .
117(6) . . .
119(6) . . .
125(6) . . .
129(6) . . .
123(6) . . .
119(6) . . .
132(6) . . .
119(6) . . .
113(6) . . .
123(6) . . .
127(6) . . .
117(6) . . .
120(6) . . .
122(6) . . .
131(6) . . .
113(6) . . .
118(6) . . .
118(6) . . .
121(6) . . .
113(6) . . .
110(6) . . .
104(5) . . .
119(6) . . .
134(6) . . .
123(6) . . .
122(6) . . .
102(5) . . .
112(6) . . .
129(6) . . .
125(6) . . .
130(6) . . .
118(6) . . .
122(6) . . .
130(6) . . .
122(6) . . .
123(6) . . .
129(6) . . .
127(6) . . .
124(6) . . .
125(6) . . .
120(6) . . .
117(6) . . .
119(6) . . .
117(6) . . .
120(6) . . .
120(6) . . .
123(6) . . .
113(6) . . .
120(6) . . .
114(6) . . .
124(6) . . .
117(6) . . .
120(6) . . .
121(6) . . .
117(6) . . .
115(6) . . .
117(6) . . .
117(6) . . .
114(6) . . .
127(6) . . .
112(5) . . .
119(6) . . .
140(7) . . .
137(6) . . .
117(6) . . .
131(6) . . .
126(6) . . .
117(6) . . .
125(6) . . .
106(5) . . .
138(6) . . .
146(6) . . .
121(6) . . .
125(6) . . .
133(6) . . .
133(6) . . .
122(6) . . .
142(7) . . .
130(6) . . .
116(6) . . .
116(6) . . .
128(6) . . .
133(6) . . .
134(6) . . .
110(5) . . .
104(5) . . .
129(6) . . .
130(6) . . .
107(6) . . .
124(6) . . .
131(6) . . .
116(6) . . .
96(5) . . .
129(6) . . .
125(6) . . .
114(6) . . .
115(6) . . .
117(6) . . .
123(6) . . .
114(6) . . .
123(6) . . .
107(5) . . .
126(6) . . .
117(6) . . .
131(6) . . .
111(6) . . .
111(6) . . .
120(6) . . .
98(5) . . .
121(6) . . .
118(6) . . .
123(6) . . .
124(6) . . .
125(6) . . .
103(5) . . .
123(6) . . .
122(6) . . .
111(6) . . .
130(6) . . .
130(6) . . .
119(6) . . .
120(6) . . .
126(6) . . .
122(6) . . .
121(6) . . .
130(6) . . .
130(6) . . .
130(6) . . .
126(6) . . .
126(6) . . .
117(6) . . .
122(6) . . .
124(6) . . .
115(6) . . .
114(6) . . .
112(6) . . .
112(6) . . .
117(6) . . .
108(5) . . .
119(6) . . .
111(6) . . .
114(6) . . .
120(6) . . .
110(6) . . .
111(5) . . .
110(6) . . .
130(7) . . .
117(6) . . .
114(6) . . .
114(6) . . .
104(5) . . .
117(6) . . .
119(6) . . .
113(5) . . .
128(6) . . .
116(6) . . .
109(6) . . .
126(6) . . .
116(6) . . .
125(6) . . .
124(6) . . .
114(6) . . .
111(6) . . .
108(5) . . .
118(6) . . .
112(6) . . .
101(5) . . .
114(6) . . .
123(6) . . .
125(6) . . .
143(6) . . .
127(6) . . .
116(6) . . .
112(6) . . .
110(6) . . .
106(6) . . .
102(5) . . .
128(6) . . .
128(6) . . .
132(6) . . .
119(6) . . .
133(7) . . .
112(6) . . .
123(6) . . .
106(5) . . .
118(6) . . .
132(6) . . .
115(6) . . .
120(6) . . .
120(6) . . .
112(6) . . .
112(6) . . .
122(6) . . .
128(6) . . .
123(6) . . .
123(6) . . .
120(6) . . .
118(6) . . .
140(6) . . .
126(6) . . .
123(6) . . .
121(6) . . .
116(6) . . .
127(6) . . .
114(6) . . .
129(6) . . .
97(5) . . .
124(6) . . .
112(6) . . .
124(6) . . .
123(6) . . .
112(6) . . .
130(6) . . .
127(6) . . .
126(6) . . .
141(6) . . .
121(6) . . .
116(6) . . .
125(6) . . .
116(6) . . .
128(6) . . .
125(6) . . .
119(6) . . .
130(6) . . .
116(6) . . .
107(6) . . .
133(6) . . .
115(6) . . .
107(6) . . .
118(6) . . .
120(6) . . .
125(6) . . .
119(6) . . .
122(6) . . .
130(7) . . .
114(6) . . .
122(6) . . .
113(6) . . .
121(6) . . .
116(6) . . .
120(6) . . .
127(6) . . .
119(6) . . .
131(6) . . .
124(6) . . .
123(6) . . .
121(6) . . .
144(6) . . .
122(6) . . .
120(6) . . .
128(6) . . .
119(6) . . .
118(6) . . .
118(6) . . .
120(6) . . .
127(6) . . .
120(6) . . .
111(5) . . .
124(6) . . .
105(5) . . .
123(6) . . .
125(6) . . .
127(6) . . .
134(6) . . .
123(6) . . .
116(6) . . .
109(5) . . .
127(6) . . .
122(6) . . .
114(6) . . .
120(6) . . .
115(6) . . .
129(6) . . .
124(6) . . .
113(6) . . .
112(6) . . .
103(5) . . .
111(6) . . .
118(6) . . .
105(5) . . .
120(6) . . .
109(5) . . .
118(6) . . .
105(6) . . .
111(6) . . .
134(6) . . .
114(6) . . .
120(6) . . .
122(6) . . .
114(6) . . .
114(6) . . .
130(6) . . .
120(6) . . .
124(6) . . .
110(6) . . .
109(5) . . .
123(6) . . .
116(6) . . .
110(6) . . .
111(6) . . .
109(5) . . .
130(6) . . .
133(6) . . .
132(6) . . .
127(6) . . .
119(6) . . .
115(6) . . .
127(6) . . .
111(6) . . .
106(5) . . .
106(5) . . .
125(6) . . .
131(6) . . .
109(5) . . .
112(6) . . .
122(6) . . .
101(5) . . .
113(6) . . .
106(6) . . .
108(5) . . .
114(6) . . .
120(6) . . .
124(6) . . .
122(6) . . .
139(6) . . .
127(6) . . .
116(6) . . .
119(6) . . .
105(6) . . .
117(6) . . .
133(6) . . .
130(6) . . .
115(6) . . .
110(6) . . .
111(5) . . .
131(6) . . .
138(6) . . .
118(6) . . .
117(6) . . .
121(6) . . .
99(5) . . .
124(6) . . .
126(6) . . .
119(6) . . .
105(5) . . .
120(6) . . .
120(6) . . .
133(6) . . .
128(6) . . .
126(6) . . .
126(6) . . .
119(6) . . .
118(6) . . .
113(6) . . .
113(5) . . .
117(6) . . .
115(6) . . .
117(6) . . .
124(6) . . .
103(5) . . .
116(6) . . .
104(5) . . .
119(6) . . .
119(6) . . .
131(6) . . .
126(6) . . .
116(6) . . .
107(6) . . .
114(6) . . .
119(6) . . .
114(6) . . .
117(6) . . .
135(6) . . .
124(6) . . .
131(6) . . .
136(6) . . .
125(6) . . .
127(6) . . .
128(6) . . .
126(6) . . .
118(6) . . .
127(6) . . .
126(6) . . .
129(6) . . .
129(6) . . .
117(6) . . .
110(6) . . .
109(6) . . .
110(6) . . .
117(6) . . .
111(6) . . .
104(6) . . .
112(6) . . .
106(5) . . .
116(6) . . .
120(6) . . .
112(6) . . .
104(6) . . .
104(5) . . .
109(5) . . .
137(6) . . .
111(6) . . .
124(6) . . .
124(6) . . .
120(6) . . .
111(6) . . .
107(6) . . .
119(6) . . .
130(6) . . .
127(6) . . .
121(6) . . .
110(6) . . .
123(6) . . .
130(6) . . .
122(6) . . .
125(6) . . .
108(6) . . .
109(5) . . .
123(6) . . .
105(5) . . .
108(6) . . .
107(6) . . .
142(6) . . .
110(5) . . .
113(6) . . .
115(6) . . .
121(6) . . .
118(6) . . .
118(6) . . .
107(5) . . .
129(7) . . .
124(6) . . .
124(6) . . .
117(6) . . .
117(6) . . .
110(6) . . .
120(6) . . .
119(6) . . .
109(5) . . .
114(6) . . .
120(6) . . .
116(6) . . .
99(5) . . .
133(6) . . .
125(6) . . .
112(6) . . .
113(6) . . .
125(6) . . .
124(6) . . .
129(6) . . .
108(6) . . .
111(6) . . .
130(6) . . .
126(6) . . .
119(6) . . .
118(6) . . .
121(6) . . .
114(5) . . .
117(6) . . .
132(6) . . .
122(6) . . .
116(6) . . .
108(5) . . .
109(6) . . .
117(6) . . .
111(6) . . .
121(6) . . .
127(6) . . .
121(6) . . .
120(6) . . .
124(6) . . .
121(6) . . .
112(6) . . .
133(6) . . .
134(7) . . .
114(6) . . .
121(6) . . .
123(6) . . .
109(6) . . .
119(6) . . .
118(6) . . .
114(6) . . .
127(6) . . .
120(6) . . .
115(6) . . .
122(6) . . .
121(6) . . .
116(6) . . .
119(6) . . .
124(6) . . .
122(6) . . .
108(5) . . .
116(6) . . .
131(6) . . .
122(6) . . .
121(6) . . .
117(6) . . .
129(6) . . .
130(6) . . .
135(6) . . .
108(6) . . .
113(6) . . .
129(6) . . .
122(6) . . .
102(5) . . .
125(6) . . .
116(6) . . .
133(6) . . .
110(6) . . .
121(6) . . .
113(6) . . .
95(5) . . .
122(6) . . .
116(6) . . .
108(6) . . .
114(6) . . .
119(6) . . .
116(6) . . .
114(6) . . .
135(6) . . .
131(6) . . .
123(6) . . .
120(6) . . .
106(6) . . .
120(6) . . .
134(6) . . .
126(6) . . .
116(6) . . .
103(5) . . .
116(6) . . .
124(6) . . .
122(6) . . .
120(6) . . .
115(6) . . .
108(6) . . .
121(6) . . .
125(6) . . .
122(6) . . .
112(6) . . .
134(6) . . .
127(6) . . .
94(5) . . .
101(6) . . .
107(6) . . .
110(5) . . .
111(5) . . .
125(6) . . .
110(6) . . .
123(6) . . .
112(6) . . .
116(6) . . .
97(5) . . .
113(6) . . .
106(5) . . .
123(6) . . .
100(5) . . .
113(6) . . .
122(6) . . .
111(6) . . .
109(6) . . .
114(6) . . .
131(6) . . .
127(6) . . .
117(6) . . .
126(6) . . .
125(6) . . .
105(5) . . .
129(6) . . .
121(6) . . .
121(6) . . .
132(6) . . .
132(6) . . .
136(7) . . .
107(5) . . .
112(6) . . .
99(5) . . .
113(6) . . .
121(6) . . .
123(6) . . .
118(6) . . .
128(6) . . .
131(6) . . .
97(5) . . .
123(6) . . .
128(6) . . .
114(6) . . .
113(6) . . .
115(6) . . .
122(6) . . .
114(6) . . .
124(6) . . .
129(6) . . .
117(6) . . .
116(6) . . .
121(6) . . .
128(6) . . .
127(6) . . .
119(6) . . .
111(6) . . .
120(6) . . .
120(6) . . .
123(6) . . .
119(6) . . .
112(6) . . .
125(6) . . .
135(6) . . .
114(6) . . .
113(6) . . .
121(6) . . .
123(6) . . .
141(6) . . .
115(6) . . .
121(6) . . .
112(6) . . .
117(6) . . .
119(6) . . .
122(6) . . .
107(6) . . .
116(6) . . .
119(6) . . .
127(6) . . .
119(6) . . .
131(6) . . .
121(6) . . .
111(6) . . .
112(6) . . .
121(6) . . .
118(6) . . .
123(6) . . .
115(6) . . .
131(6) . . .
114(6) . . .
121(6) . . .
119(6) . . .
116(6) . . .
108(6) . . .
114(6) . . .
118(6) . . .
116(6) . . .
106(6) . . .
123(6) . . .
118(6) . . .
101(5) . . .
125(6) . . .
131(6) . . .
115(6) . . .
116(6) . . .
120(6) . . .
117(6) . . .
104(5) . . .
116(6) . . .
122(6) . . .
114(6) . . .
117(6) . . .
108(5) . . .
116(6) . . .
125(6) . . .
118(6) . . .
111(5) . . .
122(6) . . .
124(6) . . .
124(6) . . .
103(5) . . .
117(6) . . .
130(6) . . .
113(6) . . .
124(6) . . .
119(6) . . .
116(6) . . .
108(6) . . .
106(6) . . .
126(6) . . .
118(6) . . .
112(5) . . .
120(6) . . .
122(6) . . .
119(6) . . .
117(6) . . .
124(6) . . .
113(6) . . .
125(6) . . .
119(6) . . .
126(6) . . .
129(6) . . .
123(6) . . .
113(6) . . .
126(6) . . .
125(6) . . .
129(6) . . .
106(5) . . .
125(6) . . .
107(6) . . .
112(5) . . .
109(6) . . .
105(6) . . .
108(6) . . .
105(5) . . .
106(5) . . .
111(5) . . .
108(6) . . .
117(6) . . .
110(6) . . .
122(6) . . .
122(6) . . .
116(6) . . .
111(6) . . .
118(6) . . .
97(5) . . .
102(5) . . .
115(6) . . .
111(6) . . .
98(5) . . .
115(6) . . .
122(6) . . .
116(6) . . .
125(6) . . .
132(6) . . .
110(5) . . .
117(6) . . .
121(6) . . .
115(6) . . .
115(6) . . .
108(5) . . .
117(6) . . .
111(6) . . .
118(6) . . .
113(6) . . .
126(6) . . .
104(5) . . .
110(6) . . .
127(6) . . .
127(6) . . .
115(6) . . .
100(5) . . .
124(6) . . .
106(6) . . .
102(5) . . .
121(6) . . .
123(6) . . .
122(6) . . .
132(6) . . .
125(6) . . .
106(5) . . .
103(5) . . .
113(6) . . .
121(6) . . .
116(6) . . .
124(6) . . .
123(6) . . .
122(6) . . .
101(6) . . .
114(5) . . .
102(5) . . .
110(6) . . .
103(6) . . .
110(6) . . .
112(6) . . .
110(6) . . .
108(6) . . .
121(6) . . .
139(6) . . .
122(6) . . .
120(6) . . .
111(6) . . .
110(6) . . .
109(6) . . .
119(6) . . .
119(6) . . .
118(6) . . .
125(6) . . .
111(6) . . .
119(6) . . .
118(6) . . .
112(6) . . .
105(5) . . .
100(5) . . .
113(5) . . .
127(6) . . .
107(6) . . .
125(6) . . .
132(6) . . .
101(5) . . .
125(6) . . .
104(5) . . .
114(6) . . .
131(6) . . .
112(6) . . .
110(6) . . .
106(6) . . .
104(6) . . .
114(5) . . .
118(6) . . .
100(5) . . .
109(6) . . .
126(6) . . .
120(6) . . .
116(6) . . .
114(6) . . .
111(6) . . .
110(6) . . .
119(6) . . .
120(6) . . .
111(6) . . .
115(6) . . .
120(6) . . .
110(5) . . .
111(6) . . .
106(6) . . .
123(6) . . .
118(6) . . .
110(5) . . .
114(6) . . .
100(5) . . .
110(6) . . .
108(5) . . .
120(6) . . .
103(6) . . .
118(6) . . .
120(6) . . .
123(6) . . .
133(6) . . .
114(6) . . .
112(6) . . .
120(6) . . .
137(6) . . .
113(5) . . .
114(6) . . .
103(6) . . .
122(6) . . .
111(5) . . .
114(6) . . .
124(6) . . .
108(6) . . .
116(6) . . .
110(5) . . .
114(5) . . .
116(6) . . .
112(6) . . .
122(6) . . .
114(6) . . .
108(5) . . .
117(6) . . .
110(6) . . .
124(6) . . .
116(6) . . .
112(6) . . .
125(6) . . .
113(6) . . .
115(6) . . .
125(6) . . .
114(6) . . .
121(6) . . .
126(6) . . .
121(6) . . .
122(6) . . .
112(6) . . .
109(6) . . .
113(6) . . .
125(6) . . .
109(5) . . .
111(6) . . .
109(6) . . .
112(6) . . .
134(6) . . .
121(6) . . .
124(6) . . .
120(6) . . .
125(6) . . .
117(6) . . .
114(6) . . .
116(6) . . .
130(6) . . .
128(6) . . .
127(6) . . .
105(5) . . .
108(6) . . .
127(6) . . .
110(6) . . .
115(6) . . .
99(5) . . .
110(6) . . .
113(6) . . .
109(6) . . .
102(5) . . .
117(6) . . .
104(6) . . .
119(6) . . .
113(5) . . .
122(6) . . .
107(5) . . .
107(6) . . .
108(6) . . .
106(5) . . .
118(6) . . .
117(6) . . .
104(5) . . .
123(6) . . .
101(5) . . .
112(6) . . .
115(6) . . .
116(6) . . .
122(6) . . .
114(6) . . .
127(6) . . .
118(6) . . .
114(6) . . .
114(6) . . .
116(6) . . .
122(6) . . .
108(6) . . .
118(6) . . .
123(6) . . .
122(6) . . .
114(6) . . .
122(6) . . .
127(6) . . .
113(6) . . .
114(6) . . .
107(5) . . .
104(5) . . .
113(6) . . .
111(6) . . .
117(6) . . .
115(6) . . .
118(6) . . .
120(6) . . .
116(6) . . .
117(6) . . .
96(5) . . .
111(6) . . .
116(6) . . .
105(5) . . .
110(5) . . .
114(6) . . .
129(6) . . .
114(6) . . .
121(6) . . .
111(5) . . .
107(5) . . .
114(6) . . .
123(6) . . .
122(6) . . .
114(6) . . .
120(6) . . .
110(6) . . .
117(6) . . .
123(6) . . .
109(5) . . .
114(6) . . .
110(6) . . .
136(7) . . .
109(6) . . .
116(6) . . .
106(5) . . .
115(6) . . .
128(6) . . .
107(5) . . .
100(5) . . .
120(6) . . .
110(6) . . .
108(6) . . .
105(6) . . .
122(6) . . .
111(6) . . .
116(6) . . .
108(6) . . .
110(6) . . .
108(5) . . .
109(6) . . .
107(6) . . .
108(6) . . .
109(5) . . .
110(5) . . .
109(6) . . .
120(6) . . .
101(5) . . .
106(5) . . .
127(6) . . .
125(6) . . .
126(6) . . .
111(5) . . .
125(6) . . .
105(5) . . .
105(5) . . .
116(6) . . .
106(6) . . .
115(6) . . .
112(5) . . .
110(5) . . .
110(6) . . .
110(6) . . .
108(5) . . .
110(5) . . .
109(6) . . .
115(6) . . .
114(6) . . .
118(6) . . .
121(6) . . .
104(5) . . .
108(6) . . .
103(5) . . .
111(5) . . .
120(6) . . .
120(6) . . .
120(6) . . .
103(5) . . .
105(5) . . .
115(6) . . .
108(6) . . .
120(6) . . .
128(6) . . .
114(6) . . .
119(6) . . .
105(6) . . .
118(6) . . .
112(6) . . .
105(5) . . .
102(5) . . .
121(6) . . .
118(6) . . .
108(5) . . .
112(5) . . .
118(6) . . .
115(6) . . .
113(6) . . .
128(6) . . .
114(6) . . .
108(5) . . .
113(6) . . .
106(5) . . .
112(5) . . .
96(5) . . .
100(5) . . .
101(5) . . .
110(6) . . .
120(6) . . .
103(5) . . .
116(6) . . .
121(6) . . .
110(6) . . .
107(5) . . .
106(5) . . .
111(6) . . .
111(6) . . .
96(5) . . .
110(6) . . .
95(5) . . .
106(6) . . .
113(6) . . .
119(6) . . .
105(5) . . .
112(6) . . .
101(5) . . .
113(6) . . .
114(6) . . .
115(6) . . .
117(6) . . .
114(6) . . .
121(6) . . .
115(6) . . .
97(5) . . .
127(6) . . .
111(6) . . .
109(6) . . .
97(5) . . .
114(6) . . .
107(6) . . .
112(6) . . .
113(6) . . .
107(6) . . .
98(5) . . .
116(6) . . .
111(6) . . .
128(6) . . .
125(6) . . .
119(6) . . .
111(6) . . .
108(6) . . .
123(6) . . .
105(5) . . .
121(6) . . .
118(6) . . .
118(6) . . .
110(6) . . .
108(5) . . .
116(6) . . .
122(6) . . .
94(5) . . .
100(6) . . .
112(5) . . .
117(6) . . .
108(6) . . .
113(6) . . .
126(6) . . .
104(5) . . .
100(5) . . .
99(5) . . .
106(6) . . .
114(6) . . .
106(5) . . .
117(6) . . .
121(6) . . .
116(6) . . .
109(5) . . .
101(5) . . .
108(5) . . .
122(6) . . .
129(6) . . .
132(6) . . .
91(5) . . .
100(5) . . .
103(6) . . .
110(6) . . .
115(6) . . .
101(5) . . .
108(6) . . .
107(6) . . .
103(6) . . .
96(5) . . .
108(5) . . .
113(6) . . .
86(5) . . .
94(5) . . .
106(5) . . .
96(5) . . .
105(5) . . .
117(6) . . .
111(6) . . .
113(5) . . .
111(5) . . .
128(6) . . .
112(6) . . .
118(6) . . .
113(6) . . .
103(5) . . .
104(5) . . .
111(6) . . .
111(6) . . .
113(6) . . .
111(6) . . .
112(6) . . .
130(6) . . .
122(6) . . .
116(6) . . .
108(6) . . .
119(6) . . .
118(6) . . .
112(6) . . .
121(6) . . .
127(6) . . .
114(6) . . .
102(5) . . .
116(6) . . .
113(5) . . .
117(6) . . .
112(6) . . .
116(6) . . .
109(6) . . .
112(5) . . .
110(6) . . .
123(6) . . .
119(6) . . .
119(6) . . .
125(6) . . .
118(6) . . .
113(6) . . .
116(6) . . .
116(6) . . .
112(5) . . .
112(6) . . .
100(5) . . .
115(6) . . .
112(6) . . .
106(5) . . .
108(6) . . .
101(5) . . .
104(5) . . .
102(5) . . .
109(5) . . .
101(5) . . .
97(5) . . .
97(5) . . .
104(5) . . .
118(6) . . .
115(6) . . .
115(6) . . .
116(6) . . .
120(6) . . .
124(6) . . .
114(6) . . .
126(6) . . .
102(5) . . .
105(5) . . .
108(5) . . .
111(6) . . .
118(6) . . .
101(5) . . .
109(5) . . .
111(5) . . .
124(6) . . .
113(6) . . .
116(6) . . .
133(6) . . .
103(5) . . .
110(6) . . .
107(6) . . .
131(6) . . .
108(5) . . .
111(6) . . .
104(6) . . .
111(6) . . .
120(6) . . .
98(5) . . .
103(5) . . .
127(6) . . .
118(6) . . .
114(6) . . .
107(5) . . .
107(5) . . .
108(6) . . .
102(6) . . .
111(6) . . .
121(6) . . .
112(6) . . .
123(6) . . .
101(5) . . .
117(6) . . .
120(6) . . .
110(6) . . .
120(6) . . .
113(6) . . .
118(6) . . .
108(5) . . .
116(6) . . .
108(6) . . .
127(6) . . .
122(6) . . .
129(6) . . .
120(6) . . .
121(6) . . .
115(6) . . .
115(6) . . .
123(6) . . .
106(6) . . .
104(6) . . .
116(6) . . .
108(5) . . .
122(6) . . .
103(5) . . .
116(6) . . .
114(6) . . .
113(5) . . .
122(6) . . .
108(5) . . .
107(6) . . .
116(6) . . .
115(6) . . .
121(6) . . .
114(6) . . .
114(6) . . .
106(6) . . .
113(6) . . .
104(5) . . .
125(6) . . .
111(6) . . .
97(5) . . .
128(6) . . .
122(6) . . .
113(6) . . .
104(5) . . .
100(5) . . .
101(5) . . .
105(6) . . .
98(5) . . .
115(6) . . .
117(6) . . .
112(6) . . .
113(6) . . .
127(6) . . .
125(6) . . .
107(5) . . .
106(5) . . .
108(6) . . .
98(5) . . .
109(6) . . .
113(6) . . .
103(5) . . .
115(6) . . .
102(5) . . .
101(5) . . .
106(5) . . .
115(6) . . .
106(5) . . .
108(6) . . .
111(6) . . .
113(5) . . .
112(6) . . .
109(6) . . .
111(6) . . .
107(6) . . .
113(6) . . .
105(5) . . .
109(6) . . .
105(6) . . .
107(6) . . .
112(5) . . .
113(6) . . .
117(6) . . .
121(6) . . .
112(6) . . .
121(6) . . .
118(6) . . .
113(6) . . .
112(6) . . .
107(5) . . .
108(5) . . .
118(6) . . .
114(6) . . .
111(6) . . .
104(5) . . .
101(5) . . .
108(6) . . .
124(6) . . .
102(5) . . .
101(5) . . .
100(5) . . .
107(6) . . .
101(6) . . .
97(5) . . .
118(6) . . .
121(6) . . .
105(5) . . .
122(6) . . .
118(6) . . .
99(5) . . .
105(5) . . .
124(6) . . .
114(6) . . .
112(6) . . .
109(5) . . .
119(6) . . .
107(6) . . .
117(6) . . .
118(6) . . .
120(6) . . .
102(5) . . .
110(6) . . .
112(6) . . .
118(6) . . .
112(5) . . .
103(5) . . .
103(5) . . .
111(6) . . .
117(6) . . .
117(6) . . .
111(6) . . .
123(6) . . .
115(6) . . .
100(5) . . .
110(5) . . .
117(6) . . .
110(6) . . .
101(5) . . .
106(6) . . .
112(5) . . .
108(6) . . .
97(5) . . .
109(6) . . .
112(6) . . .
116(6) . . .
112(6) . . .
109(6) . . .
109(6) . . .
102(5) . . .
105(5) . . .
104(6) . . .
105(6) . . .
109(6) . . .
96(5) . . .
108(5) . . .
103(6) . . .
110(6) . . .
115(6) . . .
111(5) . . .
107(5) . . .
95(5) . . .
93(5) . . .
107(5) . . .
101(5) . . .
121(6) . . .
104(5) . . .
105(6) . . .
114(6) . . .
109(5) . . .
104(5) . . .
120(6) . . .
121(6) . . .
100(5) . . .
117(6) . . .
127(6) . . .
104(5) . . .
118(6) . . .
109(6) . . .
108(5) . . .
102(5) . . .
109(6) . . .
110(6) . . .
119(6) . . .
114(5) . . .
108(6) . . .
108(6) . . .
106(6) . . .
113(6) . . .
108(5) . . .
109(5) . . .
129(6) . . .
99(5) . . .
109(5) . . .
119(6) . . .
114(6) . . .
101(6) . . .
99(5) . . .
112(6) . . .
114(6) . . .
122(6) . . .
113(6) . . .
98(5) . . .
103(5) . . .
103(5) . . .
116(6) . . .
108(6) . . .
109(6) . . .
121(6) . . .
111(5) . . .
122(6) . . .
116(6) . . .
114(6) . . .
108(5) . . .
106(5) . . .
114(6) . . .
106(6) . . .
117(6) . . .
120(6) . . .
109(5) . . .
120(6) . . .
119(6) . . .
96(5) . . .
108(5) . . .
119(6) . . .
110(6) . . .
102(6) . . .
123(6) . . .
117(6) . . .
110(6) . . .
115(6) . . .
98(5) . . .
106(5) . . .
109(5) . . .
103(5) . . .
113(6) . . .
105(5) . . .
108(5) . . .
103(5) . . .
110(6) . . .
109(5) . . .
111(6) . . .
110(6) . . .
107(5) . . .
133(6) . . .
114(6) . . .
102(5) . . .
114(6) . . .
108(5) . . .
109(6) . . .
102(5) . . .
98(5) . . .
104(5) . . .
127(6) . . .
97(5) . . .
113(6) . . .
114(6) . . .
102(5) . . .
109(5) . . .
108(6) . . .
99(5) . . .
99(5) . . .
100(5) . . .
91(5) . . .
102(5) . . .
122(6) . . .
112(6) . . .
120(6) . . .
115(6) . . .
103(5) . . .
114(6) . . .
112(6) . . .
108(5) . . .
114(6) . . .
106(5) . . .
108(6) . . .
120(6) . . .
112(5) . . .
109(6) . . .
106(5) . . .
130(6) . . .
97(5) . . .
107(5) . . .
120(6) . . .
119(6) . . .
112(6) . . .
116(6) . . .
107(5) . . .
111(6) . . .
99(5) . . .
104(5) . . .
99(5) . . .
104(5) . . .
106(5) . . .
105(6) . . .
108(5) . . .
107(5) . . .
117(6) . . .
113(6) . . .
111(6) . . .
119(6) . . .
101(5) . . .
102(5) . . .
99(5) . . .
98(5) . . .
110(6) . . .
101(5) . . .
119(6) . . .
116(6) . . .
115(6) . . .
109(6) . . .
102(5) . . .
112(6) . . .
106(6) . . .
92(5) . . .
105(5) . . .
97(5) . . .
107(5) . . .
109(6) . . .
119(6) . . .
106(5) . . .
102(5) . . .
91(5) . . .
97(6) . . .
109(6) . . .
105(6) . . .
100(5) . . .
100(5) . . .
105(6) . . .
111(6) . . .
115(6) . . .
105(5) . . .
116(6) . . .
111(6) . . .
116(6) . . .
103(5) . . .
110(5) . . .
108(6) . . .
96(5) . . .
101(5) . . .
117(6) . . .
122(6) . . .
108(5) . . .
114(6) . . .
115(6) . . .
98(5) . . .
100(5) . . .
102(5) . . .
103(6) . . .
110(6) . . .
112(6) . . .
113(6) . . .
104(5) . . .
110(6) . . .
117(6) . . .
104(5) . . .
118(6) . . .
115(6) . . .
94(5) . . .
100(5) . . .
108(5) . . .
132(6) . . .
128(7) . . .
95(6) . . .
108(5) . . .
98(5) . . .
120(6) . . .
120(6) . . .
108(6) . . .
110(6) . . .
99(5) . . .
106(5) . . .
118(6) . . .
108(6) . . .
106(6) . . .
110(5) . . .
106(5) . . .
95(5) . . .
113(6) . . .
108(5) . . .
98(5) . . .
99(5) . . .
98(5) . . .
121(6) . . .
119(6) . . .
99(5) . . .
102(6) . . .
116(6) . . .
114(6) . . .
119(6) . . .
101(5) . . .
116(6) . . .
105(6) . . .
99(5) . . .
104(5) . . .
112(5) . . .
104(5) . . .
99(6) . . .
98(5) . . .
101(5) . . .
107(5) . . .
103(5) . . .
93(5) . . .
104(6) . . .
102(5) . . .
124(6) . . .
117(6) . . .
105(6) . . .
120(6) . . .
98(5) . . .
106(5) . . .
108(5) . . .
109(6) . . .
99(5) . . .
120(6) . . .
110(5) . . .
122(6) . . .
108(6) . . .
100(5) . . .
93(5) . . .
86(5) . . .
93(5) . . .
110(6) . . .
117(6) . . .
119(6) . . .
101(5) . . .
113(6) . . .
112(6) . . .
113(6) . . .
100(5) . . .
106(5) . . .
110(6) . . .
113(6) . . .
112(6) . . .
112(5) . . .
116(6) . . .
104(6) . . .
97(5) . . .
113(6) . . .
109(5) . . .
115(6) . . .
99(5) . . .
110(6) . . .
109(6) . . .
110(5) . . .
99(5) . . .
94(5) . . .
107(6) . . .
111(5) . . .
103(5) . . .
112(6) . . .
112(6) . . .
103(6) . . .
98(5) . . .
99(5) . . .
100(6) . . .
113(6) . . .
113(6) . . .
110(5) . . .
104(5) . . .
108(6) . . .
101(5) . . .
120(6) . . .
109(5) . . .
118(6) . . .
124(6) . . .
111(6) . . .
107(6) . . .
97(5) . . .
108(6) . . .
97(5) . . .
102(6) . . .
110(6) . . .
125(6) . . .
107(5) . . .
102(5) . . .
106(6) . . .
111(6) . . .
110(5) . . .
104(5) . . .
107(6) . . .
102(6) . . .
106(6) . . .
115(6) . . .
120(6) . . .
105(6) . . .
99(5) . . .
106(6) . . .
107(5) . . .
118(6) . . .
116(6) . . .
114(6) . . .
115(6) . . .
104(5) . . .
109(6) . . .
108(6) . . .
114(6) . . .
117(6) . . .
106(5) . . .
102(5) . . .
105(5) . . .
103(6) . . .
98(5) . . .
116(6) . . .
105(5) . . .
116(6) . . .
103(5) . . .
112(6) . . .
107(5) . . .
107(6) . . .
101(6) . . .
100(5) . . .
102(5) . . .
101(5) . . .
112(6) . . .
116(6) . . .
105(5) . . .
88(5) . . .
104(5) . . .
102(5) . . .
97(5) . . .
95(5) . . .
97(5) . . .
106(5) . . .
113(6) . . .
104(6) . . .
99(5) . . .
104(5) . . .
122(6) . . .
120(6) . . .
111(6) . . .
94(5) . . .
105(5) . . .
103(5) . . .
101(6) . . .
95(5) . . .
99(5) . . .
116(6) . . .
103(5) . . .
117(6) . . .
106(5) . . .
98(5) . . .
114(6) . . .
111(6) . . .
110(6) . . .
113(6) . . .
108(6) . . .
97(5) . . .
96(5) . . .
98(5) . . .
118(6) . . .
106(5) . . .
98(5) . . .
101(5) . . .
91(5) . . .
112(6) . . .
105(5) . . .
109(5) . . .
100(5) . . .
102(6) . . .
115(6) . . .
102(5) . . .
105(5) . . .
110(6) . . .
111(6) . . .
116(6) . . .
100(5) . . .
124(6) . . .
102(5) . . .
120(6) . . .
97(5) . . .
104(5) . . .
92(5) . . .
96(5) . . .
113(6) . . .
100(5) . . .
104(5) . . .
103(5) . . .
127(6) . . .
108(6) . . .
103(6) . . .
114(6) . . .
104(5) . . .
101(5) . . .
112(6) . . .
118(6) . . .
98(5) . . .
95(5) . . .
100(5) . . .
100(5) . . .
99(5) . . .
113(5) . . .
96(5) . . .
100(5) . . .
101(5) . . .
106(6) . . .
115(6) . . .
93(5) . . .
106(6) . . .
108(6) . . .
105(5) . . .
101(5) . . .
112(6) . . .
116(6) . . .
108(6) . . .
99(5) . . .
110(5) . . .
103(6) . . .
98(5) . . .
121(6) . . .
107(5) . . .
107(5) . . .
102(5) . . .
96(5) . . .
108(6) . . .
108(5) . . .
104(5) . . .
118(6) . . .
96(6) . . .
105(5) . . .
116(6) . . .
106(5) . . .
105(5) . . .
110(6) . . .
103(5) . . .
102(5) . . .
108(5) . . .
108(6) . . .
101(5) . . .
86(5) . . .
103(5) . . .
100(5) . . .
105(6) . . .
95(6) . . .
101(5) . . .
101(5) . . .
115(6) . . .
113(6) . . .
106(6) . . .
98(5) . . .
103(5) . . .
107(6) . . .
98(5) . . .
105(6) . . .
108(6) . . .
92(5) . . .
105(6) . . .
104(6) . . .
101(5) . . .
112(6) . . .
109(5) . . .
103(6) . . .
103(6) . . .
101(5) . . .
96(5) . . .
97(5) . . .
103(5) . . .
95(5) . . .
109(6) . . .
114(6) . . .
107(5) . . .
94(5) . . .
110(6) . . .
105(5) . . .
118(6) . . .
93(5) . . .
104(6) . . .
98(6) . . .
94(5) . . .
106(5) . . .
103(5) . . .
105(5) . . .
102(5) . . .
112(6) . . .
114(6) . . .
104(5) . . .
95(5) . . .
101(5) . . .
120(6) . . .
110(5) . . .
104(5) . . .
115(6) . . .
104(5) . . .
111(6) . . .
104(5) . . .
100(5) . . .
99(5) . . .
108(6) . . .
106(6) . . .
119(6) . . .
107(5) . . .
117(6) . . .
112(6) . . .
100(5) . . .
109(5) . . .
109(5) . . .
95(5) . . .
104(5) . . .
89(5) . . .
103(5) . . .
98(5) . . .
106(6) . . .
115(6) . . .
111(6) . . .
111(6) . . .
100(5) . . .
88(5) . . .
113(6) . . .
91(5) . . .
99(5) . . .
112(6) . . .
114(6) . . .
119(6) . . .
108(5) . . .
125(6) . . .
120(6) . . .
106(6) . . .
105(5) . . .
97(5) . . .
93(5) . . .
99(5) . . .
104(6) . . .
102(5) . . .
103(5) . . .
102(5) . . .
100(5) . . .
108(6) . . .
113(6) . . .
101(5) . . .
91(5) . . .
112(6) . . .
97(5) . . .
105(6) . . .
113(5) . . .
96(5) . . .
102(6) . . .
110(6) . . .
116(6) . . .
125(6) . . .
103(5) . . .
107(6) . . .
111(6) . . .
116(6) . . .
108(5) . . .
109(5) . . .
109(6) . . .
102(6) . . .
110(6) . . .
93(5) . . .
97(5) . . .
90(5) . . .
95(5) . . .
115(6) . . .
115(6) . . .
104(5) . . .
98(5) . . .
110(6) . . .
128(6) . . .
103(5) . . .
99(5) . . .
102(6) . . .
109(6) . . .
100(5) . . .
110(5) . . .
99(5) . . .
111(6) . . .
128(6) . . .
89(5) . . .
102(5) . . .
106(5) . . .
103(6) . . .
108(6) . . .
107(5) . . .
104(5) . . .
111(6) . . .
94(5) . . .
98(5) . . .
98(5) . . .
105(5) . . .
86(5) . . .
118(6) . . .
96(5) . . .
101(5) . . .
102(5) . . .
104(5) . . .
111(6) . . .
97(6) . . .
99(5) . . .
102(5) . . .
97(5) . . .
105(6) . . .
113(6) . . .
96(5) . . .
103(5) . . .
93(5) . . .
107(5) . . .
109(5) . . .
108(5) . . .
99(5) . . .
105(6) . . .
112(6) . . .
108(5) . . .
99(5) . . .
120(6) . . .
114(6) . . .
115(6) . . .
104(5) . . .
110(5) . . .
101(5) . . .
110(6) . . .
97(5) . . .
103(5) . . .
100(5) . . .
114(6) . . .
100(6) . . .
96(5) . . .
109(5) . . .
100(5) . . .
98(5) . . .
110(6) . . .
107(6) . . .
102(5) . . .
103(5) . . .
107(6) . . .
115(6) . . .
102(5) . . .
98(5) . . .
100(5) . . .
93(5) . . .
89(5) . . .
101(5) . . .
109(5) . . .
101(5) . . .
102(6) . . .
101(5) . . .
93(5) . . .
103(5) . . .
110(6) . . .
104(6) . . .
112(6) . . .
90(5) . . .
101(5) . . .
102(5) . . .
102(5) . . .
106(6) . . .
97(5) . . .
118(6) . . .
98(5) . . .
101(5) . . .
101(5) . . .
94(5) . . .
101(5) . . .
97(5) . . .
110(6) . . .
120(6) . . .
117(6) . . .
104(5) . . .
105(6) . . .
87(5) . . .
94(5) . . .
92(5) . . .
94(5) . . .
96(5) . . .
86(5) . . .
102(5) . . .
94(5) . . .
94(5) . . .
101(5) . . .
104(5) . . .
107(5) . . .
110(5) . . .
99(5) . . .
97(5) . . .
106(6) . . .
101(5) . . .
106(5) . . .
111(5) . . .
104(5) . . .
102(6) . . .
107(6) . . .
98(5) . . .
96(5) . . .
98(5) . . .
105(6) . . .
119(6) . . .
107(5) . . .
102(5) . . .
98(5) . . .
106(6) . . .
102(5) . . .
100(5) . . .
99(5) . . .
99(5) . . .
103(5) . . .
106(6) . . .
93(5) . . .
99(5) . . .
110(6) . . .
95(5) . . .
105(5) . . .
103(5) . . .
100(6) . . .
98(5) . . .
109(6) . . .
121(6) . . .
87(5) . . .
101(5) . . .
86(5) . . .
101(5) . . .
111(5) . . .
100(5) . . .
110(6) . . .
103(6) . . .
100(5) . . .
104(5) . . .
112(5) . . .
96(5) . . .
103(6) . . .
109(6) . . .
100(5) . . .
102(5) . . .
110(6) . . .
111(6) . . .
95(5) . . .
99(5) . . .
111(5) . . .
114(6) . . .
101(6) . . .
97(5) . . .
96(5) . . .
103(5) . . .
116(6) . . .
94(5) . . .
106(5) . . .
103(5) . . .
98(5) . . .
97(5) . . .
94(5) . . .
99(5) . . .
106(5) . . .
101(5) . . .
102(5) . . .
107(6) . . .
97(5) . . .
107(5) . . .
106(5) . . .
100(5) . . .
118(6) . . .
98(5) . . .
107(5) . . .
102(5) . . .
103(6) . . .
117(6) . . .
103(5) . . .
106(5) . . .
112(6) . . .
103(5) . . .
116(6) . . .
102(5) . . .
99(5) . . .
94(5) . . .
113(6) . . .
97(5) . . .
105(5) . . .
106(5) . . .
106(6) . . .
94(5) . . .
103(6) . . .
108(5) . . .
90(5) . . .
97(5) . . .
106(6) . . .
95(5) . . .
112(6) . . .
95(5) . . .
102(5) . . .
107(6) . . .
121(6) . . .
104(5) . . .
101(5) . . .
118(6) . . .
124(6) . . .
102(5) . . .
112(6) . . .
93(5) . . .
100(5) . . .
110(6) . . .
98(5) . . .
98(5) . . .
101(5) . . .
110(6) . . .
107(6) . . .
113(6) . . .
102(5) . . .
109(6) . . .
106(6) . . .
104(5) . . .
103(5) . . .
91(5) . . .
90(5) . . .
105(6) . . .
112(6) . . .
119(6) . . .
90(5) . . .
99(5) . . .
97(5) . . .
85(5) . . .
89(5) . . .
107(5) . . .
88(5) . . .
86(5) . . .
100(5) . . .
107(5) . . .
100(5) . . .
95(5) . . .
92(5) . . .
110(6) . . .
102(5) . . .
95(5) . . .
109(6) . . .
94(5) . . .
96(5) . . .
85(5) . . .
96(5) . . .
105(6) . . .
91(5) . . .
94(5) . . .
112(5) . . .
92(5) . . .
98(5) . . .
89(5) . . .
95(5) . . .
95(5) . . .
115(6) . . .
113(6) . . .
94(5) . . .
94(5) . . .
108(5) . . .
114(6) . . .
105(6) . . .
103(6) . . .
107(6) . . .
106(5) . . .
99(5) . . .
110(6) . . .
92(5) . . .
109(6) . . .
105(5) . . .
103(6) . . .
101(6) . . .
105(6) . . .
95(5) . . .
94(5) . . .
95(5) . . .
93(5) . . .
97(5) . . .
97(5) . . .
102(5) . . .
92(5) . . .
103(6) . . .
95(5) . . .
99(5) . . .
96(5) . . .
109(6) . . .
94(5) . . .
108(6) . . .
104(5) . . .
94(5) . . .
115(6) . . .
101(6) . . .
104(6) . . .
105(5) . . .
108(5) . . .
95(5) . . .
93(5) . . .
105(5) . . .
90(5) . . .
90(5) . . .
93(5) . . .
106(6) . . .
100(5) . . .
109(5) . . .
123(6) . . .
100(5) . . .
98(5) . . .
102(6) . . .
88(5) . . .
91(5) . . .
101(6) . . .
104(6) . . .
102(5) . . .
101(5) . . .
100(5) . . .
107(6) . . .
94(5) . . .
106(5) . . .
116(6) . . .
110(6) . . .
93(5) . . .
84(5) . . .
102(5) . . .
98(5) . . .
107(6) . . .
107(5) . . .
103(5) . . .
100(5) . . .
92(5) . . .
99(5) . . .
103(6) . . .
97(5) . . .
108(5) . . .
99(5) . . .
94(5) . . .
93(5) . . .
103(6) . . .
99(5) . . .
105(5) . . .
108(6) . . .
104(6) . . .
103(6) . . .
106(5) . . .
105(5) . . .
99(5) . . .
110(6) . . .
95(5) . . .
103(5) . . .
110(6) . . .
101(5) . . .
99(5) . . .
89(5) . . .
98(5) . . .
96(5) . . .
93(5) . . .
99(5) . . .
93(5) . . .
100(5) . . .
102(5) . . .
91(5) . . .
90(5) . . .
101(5) . . .
98(5) . . .
87(5) . . .
87(5) . . .
101(6) . . .
96(5) . . .
96(5) . . .
108(6) . . .
102(6) . . .
87(5) . . .
105(5) . . .
122(6) . . .
117(6) . . .
97(5) . . .
106(6) . . .
102(5) . . .
101(5) . . .
95(5) . . .
99(6) . . .
101(5) . . .
106(5) . . .
98(5) . . .
90(5) . . .
91(5) . . .
93(5) . . .
92(5) . . .
104(5) . . .
105(5) . . .
102(6) . . .
95(5) . . .
102(5) . . .
107(5) . . .
98(5) . . .
94(5) . . .
106(5) . . .
99(5) . . .
99(5) . . .
108(5) . . .
97(6) . . .
95(5) . . .
94(5) . . .
94(5) . . .
103(5) . . .
96(5) . . .
98(5) . . .
113(6) . . .
106(5) . . .
104(6) . . .
108(6) . . .
100(5) . . .
103(5) . . .
100(5) . . .
103(5) . . .
97(5) . . .
93(5) . . .
95(5) . . .
97(5) . . .
106(5) . . .
116(6) . . .
105(5) . . .
101(5) . . .
101(5) . . .
107(6) . . .
104(6) . . .
102(5) . . .
92(5) . . .
90(5) . . .
104(6) . . .
100(5) . . .
95(5) . . .
120(6) . . .
122(6) . . .
109(6) . . .
89(5) . . .
108(6) . . .
88(5) . . .
84(5) . . .
89(5) . . .
94(5) . . .
102(5) . . .
101(5) . . .
105(5) . . .
95(5) . . .
107(5) . . .
97(5) . . .
88(5) . . .
98(5) . . .
91(5) . . .
92(5) . . .
107(5) . . .
102(5) . . .
103(6) . . .
94(5) . . .
101(6) . . .
87(5) . . .
109(5) . . .
120(6) . . .
104(6) . . .
100(5) . . .
92(5) . . .
96(5) . . .
94(5) . . .
97(5) . . .
93(5) . . .
96(5) . . .
89(5) . . .
109(6) . . .
96(5) . . .
107(5) . . .
102(5) . . .
95(5) . . .
96(5) . . .
83(5) . . .
103(5) . . .
99(5) . . .
84(5) . . .
110(6) . . .
108(6) . . .
91(5) . . .
86(5) . . .
99(6) . . .
101(5) . . .
98(5) . . .
113(6) . . .
99(5) . . .
84(5) . . .
88(5) . . .
98(5) . . .
100(5) . . .
100(5) . . .
111(6) . . .
100(6) . . .
104(5) . . .
104(5) . . .
112(5) . . .
104(6) . . .
96(6) . . .
91(5) . . .
99(5) . . .
110(5) . . .
100(5) . . .
110(6) . . .
97(5) . . .
101(5) . . .
88(5) . . .
98(5) . . .
107(6) . . .
105(5) . . .
98(5) . . .
104(5) . . .
87(5) . . .
95(5) . . .
97(5) . . .
92(5) . . .
91(5) . . .
92(5) . . .
98(5) . . .
101(6) . . .
98(5) . . .
86(5) . . .
105(6) . . .
101(5) . . .
96(5) . . .
101(5) . . .
99(5) . . .
80(5) . . .
86(5) . . .
107(5) . . .
101(5) . . .
97(5) . . .
106(6) . . .
103(5) . . .
107(5) . . .
76(5) . . .
97(5) . . .
113(6) . . .
100(6) . . .
90(5) . . .
100(5) . . .
98(5) . . .
105(6) . . .
90(5) . . .
98(5) . . .
103(5) . . .
90(5) . . .
99(6) . . .
91(5) . . .
98(5) . . .
103(5) . . .
96(5) . . .
83(5) . . .
89(5) . . .
95(5) . . .
78(5) . . .
93(5) . . .
90(5) . . .
98(5) . . .
98(5) . . .
90(5) . . .
102(5) . . .
95(5) . . .
99(5) . . .
92(5) . . .
98(5) . . .
91(5) . . .
94(5) . . .
93(5) . . .
118(6) . . .
106(5) . . .
97(5) . . .
93(5) . . .
101(5) . . .
97(5) . . .
90(5) . . .
90(5) . . .
103(6) . . .
90(5) . . .
85(5) . . .
100(5) . . .
101(5) . . .
101(5) . . .
97(5) . . .
101(5) . . .
93(5) . . .
92(5) . . .
85(5) . . .
99(5) . . .
97(5) . . .
102(5) . . .
90(5) . . .
93(5) . . .
106(5) . . .
88(5) . . .
110(6) . . .
94(5) . . .
102(5) . . .
101(5) . . .
86(5) . . .
105(5) . . .
97(5) . . .
98(5) . . .
95(5) . . .
97(5) . . .
86(5) . . .
94(5) . . .
98(5) . . .
91(5) . . .
93(5) . . .
99(5) . . .
91(5) . . .
104(5) . . .
108(5) . . .
92(5) . . .
100(5) . . .
100(5) . . .
98(5) . . .
88(5) . . .
94(5) . . .
90(5) . . .
99(5) . . .
106(6) . . .
104(5) . . .
101(5) . . .
98(5) . . .
101(5) . . .
100(6) . . .
90(5) . . .
83(5) . . .
90(5) . . .
110(6) . . .
88(5) . . .
99(5) . . .
92(5) . . .
103(6) . . .
92(5) . . .
102(5) . . .
93(5) . . .
93(5) . . .
86(5) . . .
85(5) . . .
87(5) . . .
105(5) . . .
107(6) . . .
98(5) . . .
91(5) . . .
98(5) . . .
106(5) . . .
86(5) . . .
88(5) . . .
98(5) . . .
106(5) . . .
92(5) . . .
97(5) . . .
105(5) . . .
102(5) . . .
103(5) . . .
107(5) . . .
117(6) . . .
101(5) . . .
101(5) . . .
104(5) . . .
84(5) . . .
104(5) . . .
107(6) . . .
97(5) . . .
105(5) . . .
96(5) . . .
94(5) . . .
93(5) . . .
101(5) . . .
111(5) . . .
124(6) . . .
97(5) . . .
87(5) . . .
101(5) . . .
98(5) . . .
93(5) . . .
85(5) . . .
96(5) . . .
94(5) . . .
90(5) . . .
108(6) . . .
83(5) . . .
77(5) . . .
88(5) . . .
93(5) . . .
95(5) . . .
88(5) . . .
92(5) . . .
97(5) . . .
99(5) . . .
95(5) . . .
98(5) . . .
92(5) . . .
107(5) . . .
92(5) . . .
101(5) . . .
91(5) . . .
94(5) . . .
90(5) . . .
85(5) . . .
106(6) . . .
91(5) . . .
89(5) . . .
93(5) . . .
99(5) . . .
95(5) . . .
93(5) . . .
95(5) . . .
97(5) . . .
104(5) . . .
89(5) . . .
98(5) . . .
100(5) . . .
100(5) . . .
91(5) . . .
79(5) . . .
104(6) . . .
90(5) . . .
104(5) . . .
98(5) . . .
94(5) . . .
105(6) . . .
97(5) . . .
90(5) . . .
87(5) . . .
93(5) . . .
87(5) . . .
98(5) . . .
82(5) . . .
91(5) . . .
86(5) . . .
94(5) . . .
88(5) . . .
84(5) . . .
91(5) . . .
110(6) . . .
99(5) . . .
95(5) . . .
95(5) . . .
101(5) . . .
103(6) . . .
102(5) . . .
91(5) . . .
108(5) . . .
111(6) . . .
108(6) . . .
107(6) . . .
91(5) . . .
99(5) . . .
95(5) . . .
100(6) . . .
93(5) . . .
100(5) . . .
107(5) . . .
91(5) . . .
93(5) . . .
92(5) . . .
108(5) . . .
106(5) . . .
89(5) . . .
90(5) . . .
89(5) . . .
98(5) . . .
100(5) . . .
89(5) . . .
90(5) . . .
99(5) . . .
95(5) . . .
88(5) . . .
86(5) . . .
94(5) . . .
95(5) . . .
91(5) . . .
98(5) . . .
98(5) . . .
90(5) . . .
92(5) . . .
90(5) . . .
101(5) . . .
101(6) . . .
107(6) . . .
96(5) . . .
91(5) . . .
98(5) . . .
94(5) . . .
83(5) . . .
99(5) . . .
93(5) . . .
91(5) . . .
93(5) . . .
95(5) . . .
98(5) . . .
94(5) . . .
86(5) . . .
85(5) . . .
88(5) . . .
108(5) . . .
95(5) . . .
86(5) . . .
107(6) . . .
96(5) . . .
92(5) . . .
96(5) . . .
99(5) . . .
89(5) . . .
97(5) . . .
88(5) . . .
85(5) . . .
98(5) . . .
87(5) . . .
95(5) . . .
99(5) . . .
89(5) . . .
108(6) . . .
98(5) . . .
98(5) . . .
98(5) . . .
79(5) . . .
87(5) . . .
98(5) . . .
95(5) . . .
90(5) . . .
91(5) . . .
99(6) . . .
93(5) . . .
94(5) . . .
95(5) . . .
102(5) . . .
95(5) . . .
96(5) . . .
89(5) . . .
98(5) . . .
87(5) . . .
98(6) . . .
95(5) . . .
101(5) . . .
101(5) . . .
91(5) . . .
98(6) . . .
100(5) . . .
112(6) . . .
102(5) . . .
88(5) . . .
96(6) . . .
99(5) . . .
90(5) . . .
97(5) . . .
91(5) . . .
95(6) . . .
93(5) . . .
80(5) . . .
98(5) . . .
100(5) . . .
104(6) . . .
87(5) . . .
88(5) . . .
100(5) . . .
102(6) . . .
93(5) . . .
93(5) . . .
78(5) . . .
85(5) . . .
111(6) . . .
98(5) . . .
87(5) . . .
110(5) . . .
98(5) . . .
94(5) . . .
92(5) . . .
113(6) . . .
94(5) . . .
93(5) . . .
81(5) . . .
100(6) . . .
101(5) . . .
102(5) . . .
116(6) . . .
97(5) . . .
103(6) . . .
104(5) . . .
85(5) . . .
79(5) . . .
94(5) . . .
83(5) . . .
92(5) . . .
98(5) . . .
114(6) . . .
91(5) . . .
96(6) . . .
90(5) . . .
79(5) . . .
87(5) . . .
88(5) . . .
106(6) . . .
98(5) . . .
83(5) . . .
87(5) . . .
89(5) . . .
90(5) . . .
90(5) . . .
84(5) . . .
96(5) . . .
101(6) . . .
98(5) . . .
88(5) . . .
100(5) . . .
108(6) . . .
98(5) . . .
85(5) . . .
93(5) . . .
89(5) . . .
90(5) . . .
95(5) . . .
92(5) . . .
84(5) . . .
90(5) . . .
86(5) . . .
89(5) . . .
98(5) . . .
92(5) . . .
100(5) . . .
90(5) . . .
91(5) . . .
86(5) . . .
99(5) . . .
99(5) . . .
102(5) . . .
102(6) . . .
96(5) . . .
97(5) . . .
116(6) . . .
99(5) . . .
98(5) . . .
90(5) . . .
85(5) . . .
101(6) . . .
95(5) . . .
114(6) . . .
112(6) . . .
90(5) . . .
89(5) . . .
94(5) . . .
101(5) . . .
108(5) . . .
111(6) . . .
99(5) . . .
105(6) . . .
91(5) . . .
104(5) . . .
89(5) . . .
104(6) . . .
95(5) . . .
96(5) . . .
82(5) . . .
95(5) . . .
93(5) . . .
94(5) . . .
92(5) . . .
96(5) . . .
101(5) . . .
93(5) . . .
96(5) . . .
93(5) . . .
91(5) . . .
95(5) . . .
94(5) . . .
82(5) . . .
99(5) . . .
101(5) . . .
94(5) . . .
82(5) . . .
85(5) . . .
87(5) . . .
96(5) . . .
100(6) . . .
84(5) . . .
86(5) . . .
90(5) . . .
101(5) . . .
95(5) . . .
88(5) . . .
93(5) . . .
98(5) . . .
96(5) . . .
84(5) . . .
92(5) . . .
87(5) . . .
101(5) . . .
78(5) . . .
94(5) . . .
86(5) . . .
84(5) . . .
98(5) . . .
98(5) . . .
102(5) . . .
90(5) . . .
85(5) . . .
80(5) . . .
84(5) . . .
95(5) . . .
89(5) . . .
98(5) . . .
93(5) . . .
97(5) . . .
92(5) . . .
96(5) . . .
99(5) . . .
97(5) . . .
79(5) . . .
103(5) . . .
91(5) . . .
100(6) . . .
99(5) . . .
91(5) . . .
82(5) . . .
83(5) . . .
89(5) . . .
100(5) . . .
91(5) . . .
89(5) . . .
108(6) . . .
103(5) . . .
99(5) . . .
88(5) . . .
100(6) . . .
99(5) . . .
90(5) . . .
104(5) . . .
94(5) . . .
83(5) . . .
83(5) . . .
87(5) . . .
93(5) . . .
93(5) . . .
91(5) . . .
102(5) . . .
95(5) . . .
101(5) . . .
100(5) . . .
94(5) . . .
103(5) . . .
95(5) . . .
107(5) . . .
94(5) . . .
86(5) . . .
80(5) . . .
102(5) . . .
95(5) . . .
94(5) . . .
99(6) . . .
103(5) . . .
107(5) . . .
102(5) . . .
87(5) . . .
91(5) . . .
95(5) . . .
107(5) . . .
110(5) . . .
94(6) . . .
89(5) . . .
104(6) . . .
97(5) . . .
88(5) . . .
84(5) . . .
95(5) . . .
103(5) . . .
98(5) . . .
94(5) . . .
93(5) . . .
93(5) . . .
93(5) . . .
89(5) . . .
82(5) . . .
89(5) . . .
90(5) . . .
98(5) . . .
95(5) . . .
96(5) . . .
96(6) . . .
81(5) . . .
99(5) . . .
99(5) . . .
85(5) . . .
90(5) . . .
87(5) . . .
101(5) . . .
92(5) . . .
80(5) . . .
94(6) . . .
90(5) . . .
83(5) . . .
87(5) . . .
95(5) . . .
90(5) . . .
86(5) . . .
82(5) . . .
92(5) . . .
121(6) . . .
84(5) . . .
88(5) . . .
80(5) . . .
94(5) . . .
95(5) . . .
95(5) . . .
80(5) . . .
85(5) . . .
90(5) . . .
97(5) . . .
90(5) . . .
82(5) . . .
97(5) . . .
76(5) . . .
77(5) . . .
95(5) . . .
88(5) . . .
101(5) . . .
103(6) . . .
81(5) . . .
94(5) . . .
83(5) . . .
83(5) . . .
92(5) . . .
85(5) . . .
90(5) . . .
85(5) . . .
87(5) . . .
97(5) . . .
92(5) . . .
96(5) . . .
96(5) . . .
95(5) . . .
95(5) . . .
97(5) . . .
91(5) . . .
87(5) . . .
81(5) . . .
98(5) . . .
81(5) . . .
90(5) . . .
100(5) . . .
99(5) . . .
89(5) . . .
93(5) . . .
78(5) . . .
93(5) . . .
86(5) . . .
104(6) . . .
86(5) . . .
87(5) . . .
83(5) . . .
97(5) . . .
90(5) . . .
104(6) . . .
101(6) . . .
98(5) . . .
96(5) . . .
85(5) . . .
93(5) . . .
80(5) . . .
91(5) . . .
88(5) . . .
87(5) . . .
80(5) . . .
96(5) . . .
90(5) . . .
100(5) . . .
90(5) . . .
96(5) . . .
80(5) . . .
87(5) . . .
82(5) . . .
108(6) . . .
86(5) . . .
80(5) . . .
86(5) . . .
96(5) . . .
94(5) . . .
91(5) . . .
107(6) . . .
94(5) . . .
91(5) . . .
95(5) . . .
98(6) . . .
97(5) . . .
94(5) . . .
88(5) . . .
92(5) . . .
95(5) . . .
88(5) . . .
92(5) . . .
91(5) . . .
96(6) . . .
92(5) . . .
80(5) . . .
82(5) . . .
104(5) . . .
93(5) . . .
84(5) . . .
81(5) . . .
88(5) . . .
100(5) . . .
93(5) . . .
74(5) . . .
85(5) . . .
94(5) . . .
92(5) . . .
81(5) . . .
92(5) . . .
94(5) . . .
83(5) . . .
84(5) . . .
90(5) . . .
80(5) . . .
82(5) . . .
93(5) . . .
96(5) . . .
82(5) . . .
99(5) . . .
90(5) . . .
85(5) . . .
81(5) . . .
84(5) . . .
91(5) . . .
85(5) . . .
88(5) . . .
84(5) . . .
94(5) . . .
102(5) . . .
85(5) . . .
93(5) . . .
79(5) . . .
92(5) . . .
85(5) . . .
85(5) . . .
97(5) . . .
86(5) . . .
94(5) . . .
90(5) . . .
102(5) . . .
87(5) . . .
96(6) . . .
79(5) . . .
79(5) . . .
90(5) . . .
79(5) . . .
92(5) . . .
101(5) . . .
94(5) . . .
90(5) . . .
89(5) . . .
86(5) . . .
92(5) . . .
85(5) . . .
99(5) . . .
94(5) . . .
104(6) . . .
79(5) . . .
86(5) . . .
84(5) . . .
96(5) . . .
88(5) . . .
94(5) . . .
91(5) . . .
86(5) . . .
85(5) . . .
80(5) . . .
95(5) . . .
86(5) . . .
86(5) . . .
86(5) . . .
82(5) . . .
89(5) . . .
99(5) . . .
103(5) . . .
82(5) . . .
87(5) . . .
96(5) . . .
109(5) . . .
86(5) . . .
97(5) . . .
100(6) . . .
78(5) . . .
90(5) . . .
88(5) . . .
84(5) . . .
95(5) . . .
86(5) . . .
96(5) . . .
84(5) . . .
100(6) . . .
80(5) . . .
82(5) . . .
92(5) . . .
97(5) . . .
87(5) . . .
95(5) . . .
94(5) . . .
86(5) . . .
88(5) . . .
102(5) . . .
98(5) . . .
87(5) . . .
89(5) . . .
74(4) . . .
79(5) . . .
88(5) . . .
90(5) . . .
79(5) . . .
93(5) . . .
95(5) . . .
104(5) . . .
92(5) . . .
97(5) . . .
104(6) . . .
104(5) . . .
91(5) . . .
84(5) . . .
83(5) . . .
93(5) . . .
91(5) . . .
102(5) . . .
82(5) . . .
78(5) . . .
81(5) . . .
96(5) . . .
90(5) . . .
96(5) . . .
98(5) . . .
96(5) . . .
92(5) . . .
87(5) . . .
86(5) . . .
89(5) . . .
78(5) . . .
105(6) . . .
90(5) . . .
106(5) . . .
71(4) . . .
88(5) . . .
95(5) . . .
86(5) . . .
85(5) . . .
84(5) . . .
98(6) . . .
92(5) . . .
91(5) . . .
82(5) . . .
91(5) . . .
93(5) . . .
92(5) . . .
89(5) . . .
86(5) . . .
80(5) . . .
80(5) . . .
91(5) . . .
92(5) . . .
81(5) . . .
83(5) . . .
95(5) . . .
87(5) . . .
89(5) . . .
95(5) . . .
94(5) . . .
92(5) . . .
80(5) . . .
97(5) . . .
78(5) . . .
86(5) . . .
90(5) . . .
78(5) . . .
92(5) . . .
87(5) . . .
86(5) . . .
88(5) . . .
101(6) . . .
95(5) . . .
94(5) . . .
97(5) . . .
102(5) . . .
97(5) . . .
83(5) . . .
88(5) . . .
85(5) . . .
101(6) . . .
86(5) . . .
107(5) . . .
88(5) . . .
82(5) . . .
100(5) . . .
102(5) . . .
79(5) . . .
92(5) . . .
94(5) . . .
88(5) . . .
78(5) . . .
91(5) . . .
97(5) . . .
97(6) . . .
80(5) . . .
89(5) . . .
89(5) . . .
81(5) . . .
83(5) . . .
85(5) . . .
89(5) . . .
85(5) . . .
89(5) . . .
92(5) . . .
81(5) . . .
83(5) . . .
96(5) . . .
83(5) . . .
94(5) . . .
85(5) . . .
82(5) . . .
86(5) . . .
97(5) . . .
89(5) . . .
88(5) . . .
104(5) . . .
106(5) . . .
98(5) . . .
83(5) . . .
85(5) . . .
93(5) . . .
82(5) . . .
88(5) . . .
100(5) . . .
95(5) . . .
87(5) . . .
97(5) . . .
87(5) . . .
83(5) . . .
106(5) . . .
92(5) . . .
82(5) . . .
101(6) . . .
88(5) . . .
104(5) . . .
91(5) . . .
100(5) . . .
82(5) . . .
97(5) . . .
82(5) . . .
98(5) . . .
87(5) . . .
92(5) . . .
92(5) . . .
83(5) . . .
86(5) . . .
95(5) . . .
79(5) . . .
80(5) . . .
94(5) . . .
92(5) . . .
86(5) . . .
88(5) . . .
91(5) . . .
91(5) . . .
89(5) . . .
78(5) . . .
100(6) . . .
85(5) . . .
86(5) . . .
86(5) . . .
87(5) . . .
86(5) . . .
90(5) . . .
100(5) . . .
102(5) . . .
88(5) . . .
86(5) . . .
85(5) . . .
85(5) . . .
90(5) . . .
87(5) . . .
85(5) . . .
97(5) . . .
83(5) . . .
91(5) . . .
86(5) . . .
86(5) . . .
92(5) . . .
81(5) . . .
87(5) . . .
94(5) . . .
89(5) . . .
96(5) . . .
96(5) . . .
91(5) . . .
87(5) . . .
89(5) . . .
79(5) . . .
94(5) . . .
88(5) . . .
78(5) . . .
73(5) . . .
91(5) . . .
82(5) . . .
90(5) . . .
79(5) . . .
80(5) . . .
95(5) . . .
95(5) . . .
86(5) . . .
80(5) . . .
91(5) . . .
82(5) . . .
91(5) . . .
73(4) . . .
87(5) . . .
79(5) . . .
85(5) . . .
85(5) . . .
93(5) . . .
90(5) . . .
92(5) . . .
82(5) . . .
97(5) . . .
80(5) . . .
69(4) . . .
83(5) . . .
91(5) . . .
74(5) . . .
100(5) . . .
96(5) . . .
90(5) . . .
85(5) . . .
81(5) . . .
89(5) . . .
92(5) . . .
83(5) . . .
97(5) . . .
96(5) . . .
99(5) . . .
86(5) . . .
85(5) . . .
86(5) . . .
90(5) . . .
95(5) . . .
95(5) . . .
86(5) . . .
85(5) . . .
86(5) . . .
73(5) . . .
79(5) . . .
83(5) . . .
72(4) . . .
78(5) . . .
90(5) . . .
98(5) . . .
84(5) . . .
89(5) . . .
87(5) . . .
88(5) . . .
97(5) . . .
89(5) . . .
94(5) . . .
96(5) . . .
95(5) . . .
85(5) . . .
85(5) . . .
97(5) . . .
96(5) . . .
95(5) . . .
97(5) . . .
83(5) . . .
100(6) . . .
92(5) . . .
93(5) . . .
93(5) . . .
86(5) . . .
93(5) . . .
76(5) . . .
86(5) . . .
82(5) . . .
79(5) . . .
88(5) . . .
90(5) . . .
85(5) . . .
80(5) . . .
93(5) . . .
95(5) . . .
88(5) . . .
83(5) . . .
100(5) . . .
98(5) . . .
76(5) . . .
88(5) . . .
91(5) . . .
94(5) . . .
90(5) . . .
97(6) . . .
90(5) . . .
94(5) . . .
82(5) . . .
93(5) . . .
83(5) . . .
88(5) . . .
95(5) . . .
88(5) . . .
87(5) . . .
90(5) . . .
92(5) . . .
82(5) . . .
90(5) . . .
91(5) . . .
83(5) . . .
92(5) . . .
82(5) . . .
83(5) . . .
81(5) . . .
94(5) . . .
90(5) . . .
97(5) . . .
74(5) . . .
77(5) . . .
88(5) . . .
81(5) . . .
91(5) . . .
83(5) . . .
83(5) . . .
84(5) . . .
81(5) . . .
79(5) . . .
94(5) . . .
85(5) . . .
88(5) . . .
86(5) . . .
93(5) . . .
95(5) . . .
85(5) . . .
92(5) . . .
94(5) . . .
103(5) . . .
88(5) . . .
83(5) . . .
82(5) . . .
91(5) . . .
76(4) . . .
81(5) . . .
106(6) . . .
81(5) . . .
82(5) . . .
84(5) . . .
88(5) . . .
90(5) . . .
90(5) . . .
76(5) . . .
79(5) . . .
100(5) . . .
88(5) . . .
81(5) . . .
84(5) . . .
93(5) . . .
87(5) . . .
90(5) . . .
76(5) . . .
92(5) . . .
82(5) . . .
85(5) . . .
91(5) . . .
84(5) . . .
90(5) . . .
76(5) . . .
86(5) . . .
79(5) . . .
78(5) . . .
77(5) . . .
79(5) . . .
84(5) . . .
87(5) . . .
92(5) . . .
86(5) . . .
86(5) . . .
81(5) . . .
87(5) . . .
78(5) . . .
77(5) . . .
79(5) . . .
98(5) . . .
88(5) . . .
87(5) . . .
91(5) . . .
83(5) . . .
76(5) . . .
76(5) . . .
79(5) . . .
82(5) . . .
91(5) . . .
74(5) . . .
92(5) . . .
94(5) . . .
76(5) . . .
80(5) . . .
85(5) . . .
89(5) . . .
74(5) . . .
97(5) . . .
72(4) . . .
95(5) . . .
84(5) . . .
86(5) . . .
84(5) . . .
100(5) . . .
84(5) . . .
85(5) . . .
75(5) . . .
72(4) . . .
79(5) . . .
86(5) . . .
87(5) . . .
90(5) . . .
84(5) . . .
81(5) . . .
91(5) . . .
92(5) . . .
90(5) . . .
82(5) . . .
91(5) . . .
92(5) . . .
90(5) . . .
76(5) . . .
77(5) . . .
80(5) . . .
80(5) . . .
82(5) . . .
82(5) . . .
85(5) . . .
82(5) . . .
89(5) . . .
88(5) . . .
77(5) . . .
93(5) . . .
90(5) . . .
85(5) . . .
79(5) . . .
83(5) . . .
81(5) . . .
87(5) . . .
93(5) . . .
84(5) . . .
91(5) . . .
77(5) . . .
88(5) . . .
92(5) . . .
91(5) . . .
74(5) . . .
90(5) . . .
81(5) . . .
82(5) . . .
105(6) . . .
90(5) . . .
82(5) . . .
91(5) . . .
83(5) . . .
80(5) . . .
71(4) . . .
87(5) . . .
84(5) . . .
73(5) . . .
81(5) . . .
84(5) . . .
98(5) . . .
82(5) . . .
79(5) . . .
89(5) . . .
99(5) . . .
64(4) . . .
88(5) . . .
84(5) . . .
86(5) . . .
77(5) . . .
85(5) . . .
90(5) . . .
82(5) . . .
95(5) . . .
94(5) . . .
88(5) . . .
71(4) . . .
79(5) . . .
76(5) . . .
80(5) . . .
86(5) . . .
90(5) . . .
79(5) . . .
79(5) . . .
105(5) . . .
92(5) . . .
82(5) . . .
84(5) . . .
73(4) . . .
76(5) . . .
93(5) . . .
92(5) . . .
74(5) . . .
88(5) . . .
81(5) . . .
84(5) . . .
90(5) . . .
95(5) . . .
84(5) . . .
79(5) . . .
77(5) . . .
87(5) . . .
94(5) . . .
87(5) . . .
86(5) . . .
81(5) . . .
80(5) . . .
77(5) . . .
81(5) . . .
89(5) . . .
83(5) . . .
92(5) . . .
70(4) . . .
78(5) . . .
79(5) . . .
86(5) . . .
89(5) . . .
80(5) . . .
85(5) . . .
82(5) . . .
78(5) . . .
79(5) . . .
91(5) . . .
82(5) . . .
87(5) . . .
92(5) . . .
88(5) . . .
82(5) . . .
88(5) . . .
87(5) . . .
88(5) . . .
99(5) . . .
87(5) . . .
79(5) . . .
79(5) . . .
80(5) . . .
88(5) . . .
86(5) . . .
89(5) . . .
87(5) . . .
93(5) . . .
77(5) . . .
73(4) . . .
66(4) . . .
76(5) . . .
80(5) . . .
81(5) . . .
83(5) . . .
87(5) . . .
82(5) . . .
93(6) . . .
85(5) . . .
90(5) . . .
92(5) . . .
85(5) . . .
78(5) . . .
93(5) . . .
96(5) . . .
95(5) . . .
74(5) . . .
86(5) . . .
92(5) . . .
80(5) . . .
78(5) . . .
84(5) . . .
92(5) . . .
75(5) . . .
87(5) . . .
85(5) . . .
86(5) . . .
70(4) . . .
82(5) . . .
72(4) . . .
94(5) . . .
96(5) . . .
78(5) . . .
88(5) . . .
79(5) . . .
80(5) . . .
82(5) . . .
79(5) . . .
90(5) . . .
74(5) . . .
86(5) . . .
74(5) . . .
87(5) . . .
99(5) . . .
92(5) . . .
94(5) . . .
85(5) . . .
86(5) . . .
78(5) . . .
70(4) . . .
82(5) . . .
90(5) . . .
85(5) . . .
69(4) . . .
85(5) . . .
84(5) . . .
67(4) . . .
76(4) . . .
77(5) . . .
80(5) . . .
69(5) . . .
91(5) . . .
84(5) . . .
78(5) . . .
92(5) . . .
87(5) . . .
88(5) . . .
86(5) . . .
85(5) . . .
78(5) . . .
91(5) . . .
81(5) . . .
78(5) . . .
90(5) . . .
81(5) . . .
79(5) . . .
93(5) . . .
80(5) . . .
79(5) . . .
95(5) . . .
87(5) . . .
83(5) . . .
78(5) . . .
73(4) . . .
90(5) . . .
89(5) . . .
81(5) . . .
95(5) . . .
88(5) . . .
93(5) . . .
76(5) . . .
76(5) . . .
94(5) . . .
78(5) . . .
93(5) . . .
77(5) . . .
77(5) . . .
75(5) . . .
79(5) . . .
72(5) . . .
83(5) . . .
76(5) . . .
86(5) . . .
85(5) . . .
77(5) . . .
91(5) . . .
77(5) . . .
93(5) . . .
89(5) . . .
85(5) . . .
85(5) . . .
82(5) . . .
77(5) . . .
83(5) . . .
76(5) . . .
104(6) . . .
90(5) . . .
84(5) . . .
99(5) . . .
87(5) . . .
73(5) . . .
84(5) . . .
77(5) . . .
84(5) . . .
78(5) . . .
89(5) . . .
74(5) . . .
81(5) . . .
78(5) . . .
84(5) . . .
82(5) . . .
79(5) . . .
78(5) . . .
86(5) . . .
79(5) . . .
72(4) . . .
86(5) . . .
68(4) . . .
74(5) . . .
82(5) . . .
73(5) . . .
76(5) . . .
92(5) . . .
92(5) . . .
84(5) . . .
80(5) . . .
76(5) . . .
89(5) . . .
82(5) . . .
80(5) . . .
82(5) . . .
77(5) . . .
82(5) . . .
70(4) . . .
74(5) . . .
75(5) . . .
93(5) . . .
82(5) . . .
81(5) . . .
78(5) . . .
71(5) . . .
90(5) . . .
87(5) . . .
74(5) . . .
66(4) . . .
92(5) . . .
81(5) . . .
78(5) . . .
77(5) . . .
81(5) . . .
86(5) . . .
82(5) . . .
87(5) . . .
83(5) . . .
76(5) . . .
78(5) . . .
81(5) . . .
77(5) . . .
90(5) . . .
83(5) . . .
85(5) . . .
82(5) . . .
69(4) . . .
84(5) . . .
73(5) . . .
69(4) . . .
90(5) . . .
71(4) . . .
75(5) . . .
84(5) . . .
80(5) . . .
82(5) . . .
86(5) . . .
89(5) . . .
90(5) . . .
78(5) . . .
90(5) . . .
80(5) . . .
72(5) . . .
79(5) . . .
76(5) . . .
84(5) . . .
79(5) . . .
86(5) . . .
84(5) . . .
84(5) . . .
76(5) . . .
84(5) . . .
82(5) . . .
78(5) . . .
90(5) . . .
99(5) . . .
86(5) . . .
92(6) . . .
82(5) . . .
76(5) . . .
74(4) . . .
85(5) . . .
77(5) . . .
90(5) . . .
89(5) . . .
94(5) . . .
95(5) . . .
89(5) . . .
76(5) . . .
92(5) . . .
91(5) . . .
73(5) . . .
79(5) . . .
80(5) . . .
76(4) . . .
79(5) . . .
83(5) . . .
91(5) . . .
73(4) . . .
92(5) . . .
90(5) . . .
93(5) . . .
87(5) . . .
76(5) . . .
76(5) . . .
73(4) . . .
86(5) . . .
84(5) . . .
80(5) . . .
86(5) . . .
84(5) . . .
79(5) . . .
77(5) . . .
84(5) . . .
94(5) . . .
78(5) . . .
79(5) . . .
83(5) . . .
91(5) . . .
79(5) . . .
89(5) . . .
92(5) . . .
78(5) . . .
79(5) . . .
74(4) . . .
84(5) . . .
93(5) . . .
72(4) . . .
80(5) . . .
88(5) . . .
81(5) . . .
83(5) . . .
82(5) . . .
86(5) . . .
91(5) . . .
88(5) . . .
76(5) . . .
64(4) . . .
72(4) . . .
78(5) . . .
80(5) . . .
72(5) . . .
87(5) . . .
76(5) . . .
79(5) . . .
86(5) . . .
85(5) . . .
68(4) . . .
77(5) . . .
82(5) . . .
74(5) . . .
90(5) . . .
70(4) . . .
86(5) . . .
82(5) . . .
72(5) . . .
71(5) . . .
80(5) . . .
84(5) . . .
88(5) . . .
81(5) . . .
82(5) . . .
93(5) . . .
86(5) . . .
77(5) . . .
72(5) . . .
72(4) . . .
78(5) . . .
84(5) . . .
76(5) . . .
78(5) . . .
66(4) . . .
92(5) . . .
86(5) . . .
81(5) . . .
79(5) . . .
82(5) . . .
80(5) . . .
81(5) . . .
77(5) . . .
91(5) . . .
83(5) . . .
70(4) . . .
90(5) . . .
80(5) . . .
68(5) . . .
69(4) . . .
80(5) . . .
88(5) . . .
78(5) . . .
82(5) . . .
76(5) . . .
83(5) . . .
79(5) . . .
94(5) . . .
73(5) . . .
76(5) . . .
85(5) . . .
96(5) . . .
84(5) . . .
79(5) . . .
72(5) . . .
83(5) . . .
78(5) . . .
79(5) . . .
83(5) . . .
74(4) . . .
93(5) . . .
84(5) . . .
85(5) . . .
74(5) . . .
79(5) . . .
74(4) . . .
74(5) . . .
79(5) . . .
81(5) . . .
74(4) . . .
79(5) . . .
83(5) . . .
80(5) . . .
75(5) . . .
76(5) . . .
75(4) . . .
79(5) . . .
82(5) . . .
84(5) . . .
85(5) . . .
81(5) . . .
93(5) . . .
86(5) . . .
88(5) . . .
83(5) . . .
85(5) . . .
88(5) . . .
78(5) . . .
81(5) . . .
85(5) . . .
73(5) . . .
73(5) . . .
77(5) . . .
73(5) . . .
84(5) . . .
92(5) . . .
91(5) . . .
90(5) . . .
81(5) . . .
78(5) . . .
76(5) . . .
86(5) . . .
83(5) . . .
79(5) . . .
90(5) . . .
89(5) . . .
81(5) . . .
71(5) . . .
81(5) . . .
91(5) . . .
78(5) . . .
79(5) . . .
85(5) . . .
84(5) . . .
75(4) . . .
72(4) . . .
79(5) . . .
87(5) . . .
80(5) . . .
78(5) . . .
80(5) . . .
80(5) . . .
76(5) . . .
91(5) . . .
83(5) . . .
84(5) . . .
80(5) . . .
71(5) . . .
83(5) . . .
78(5) . . .
71(4) . . .
76(5) . . .
81(5) . . .
89(5) . . .
81(5) . . .
87(5) . . .
72(5) . . .
89(5) . . .
74(4) . . .
87(5) . . .
78(5) . . .
82(5) . . .
69(5) . . .
81(5) . . .
84(5) . . .
77(5) . . .
67(5) . . .
74(5) . . .
74(5) . . .
68(4) . . .
93(5) . . .
88(5) . . .
78(5) . . .
76(5) . . .
76(5) . . .
87(5) . . .
80(5) . . .
81(5) . . .
80(5) . . .
83(5) . . .
81(5) . . .
80(5) . . .
83(5) . . .
95(5) . . .
80(5) . . .
81(5) . . .
92(5) . . .
67(4) . . .
72(4) . . .
70(5) . . .
74(5) . . .
81(5) . . .
83(5) . . .
74(4) . . .
67(4) . . .
75(5) . . .
81(5) . . .
80(5) . . .
71(4) . . .
77(5) . . .
82(5) . . .
74(5) . . .
82(5) . . .
80(5) . . .
76(5) . . .
79(5) . . .
82(5) . . .
78(5) . . .
74(4) . . .
74(5) . . .
69(4) . . .
87(5) . . .
86(5) . . .
83(5) . . .
74(5) . . .
76(5) . . .
75(5) . . .
76(4) . . .
72(4) . . .
72(5) . . .
92(5) . . .
79(5) . . .
81(5) . . .
68(4) . . .
71(5) . . .
71(5) . . .
80(5) . . .
80(5) . . .
80(5) . . .
78(5) . . .
78(5) . . .
91(5) . . .
76(4) . . .
71(4) . . .
76(5) . . .
75(5) . . .
82(5) . . .
79(5) . . .
80(5) . . .
99(6) . . .
78(5) . . .
82(5) . . .
76(5) . . .
90(5) . . .
80(5) . . .
78(5) . . .
89(5) . . .
82(5) . . .
80(5) . . .
88(5) . . .
81(5) . . .
77(5) . . .
72(4) . . .
85(5) . . .
82(5) . . .
64(4) . . .
78(5) . . .
80(5) . . .
67(4) . . .
75(5) . . .
77(5) . . .
69(4) . . .
68(4) . . .
75(5) . . .
75(5) . . .
82(5) . . .
94(5) . . .
72(5) . . .
79(5) . . .
91(5) . . .
74(5) . . .
97(5) . . .
84(5) . . .
75(5) . . .
74(5) . . .
75(5) . . .
72(4) . . .
80(5) . . .
91(5) . . .
75(5) . . .
94(5) . . .
85(5) . . .
77(5) . . .
73(5) . . .
79(5) . . .
82(5) . . .
70(4) . . .
78(5) . . .
79(5) . . .
72(5) . . .
84(5) . . .
72(4) . . .
78(5) . . .
77(5) . . .
81(5) . . .
72(4) . . .
79(5) . . .
92(5) . . .
98(5) . . .
79(5) . . .
82(5) . . .
86(5) . . .
81(5) . . .
93(6) . . .
86(5) . . .
68(4) . . .
85(5) . . .
96(5) . . .
74(5) . . .
90(5) . . .
81(5) . . .
80(5) . . .
76(5) . . .
69(4) . . .
80(5) . . .
89(5) . . .
82(5) . . .
81(5) . . .
80(5) . . .
67(4) . . .
87(5) . . .
85(5) . . .
77(5) . . .
79(5) . . .
77(5) . . .
92(5) . . .
83(5) . . .
81(5) . . .
69(5) . . .
81(5) . . .
85(5) . . .
82(5) . . .
71(4) . . .
79(5) . . .
79(5) . . .
80(5) . . .
78(5) . . .
85(5) . . .
78(5) . . .
76(5) . . .
73(4) . . .
70(4) . . .
79(5) . . .
83(5) . . .
67(4) . . .
70(4) . . .
82(5) . . .
79(5) . . .
81(5) . . .
68(4) . . .
81(5) . . .
69(5) . . .
70(4) . . .
82(5) . . .
81(5) . . .
76(5) . . .
63(4) . . .
70(5) . . .
83(5) . . .
77(5) . . .
84(5) . . .
82(5) . . .
78(5) . . .
95(5) . . .
80(5) . . .
76(4) . . .
72(4) . . .
73(5) . . .
76(5) . . .
86(5) . . .
77(5) . . .
80(5) . . .
76(5) . . .
78(5) . . .
75(4) . . .
83(5) . . .
71(5) . . .
68(5) . . .
73(5) . . .
79(5) . . .
77(5) . . .
80(5) . . .
87(5) . . .
89(5) . . .
76(5) . . .
79(5) . . .
79(5) . . .
77(5) . . .
75(4) . . .
84(5) . . .
80(5) . . .
77(5) . . .
64(4) . . .
80(5) . . .
82(5) . . .
78(5) . . .
76(5) . . .
70(4) . . .
79(5) . . .
89(5) . . .
96(5) . . .
79(5) . . .
74(5) . . .
72(4) . . .
87(5) . . .
73(5) . . .
78(5) . . .
74(5) . . .
70(4) . . .
67(4) . . .
71(5) . . .
69(5) . . .
70(4) . . .
68(4) . . .
67(4) . . .
76(5) . . .
73(5) . . .
79(5) . . .
96(5) . . .
69(4) . . .
77(5) . . .
76(5) . . .
80(5) . . .
76(5) . . .
79(5) . . .
71(4) . . .
84(5) . . .
73(4) . . .
81(5) . . .
72(4) . . .
85(5) . . .
76(5) . . .
68(4) . . .
81(5) . . .
73(4) . . .
74(5) . . .
77(5) . . .
73(5) . . .
91(5) . . .
75(5) . . .
66(5) . . .
74(5) . . .
78(5) . . .
68(4) . . .
63(4) . . .
75(5) . . .
73(5) . . .
81(5) . . .
81(5) . . .
81(5) . . .
82(5) . . .
71(5) . . .
71(4) . . .
71(4) . . .
76(5) . . .
73(5) . . .
72(5) . . .
72(4) . . .
74(5) . . .
72(5) . . .
64(4) . . .
86(5) . . .
72(4) . . .
77(5) . . .
78(5) . . .
73(5) . . .
73(5) . . .
77(5) . . .
79(5) . . .
74(5) . . .
86(5) . . .
90(5) . . .
68(4) . . .
87(5) . . .
82(5) . . .
79(5) . . .
72(4) . . .
85(5) . . .
85(5) . . .
70(4) . . .
79(5) . . .
76(4) . . .
67(4) . . .
74(5) . . .
70(5) . . .
78(5) . . .
87(5) . . .
86(5) . . .
68(4) . . .
66(4) . . .
76(5) . . .
84(5) . . .
80(5) . . .
77(5) . . .
81(5) . . .
71(5) . . .
73(4) . . .
74(4) . . .
75(5) . . .
71(4) . . .
77(5) . . .
76(5) . . .
82(5) . . .
75(5) . . .
75(5) . . .
74(5) . . .
66(4) . . .
78(5) . . .
77(5) . . .
81(5) . . .
82(5) . . .
65(4) . . .
73(5) . . .
71(5) . . .
83(5) . . .
88(5) . . .
70(4) . . .
74(5) . . .
81(5) . . .
66(4) . . .
70(4) . . .
77(5) . . .
76(5) . . .
73(5) . . .
77(5) . . .
81(5) . . .
72(4) . . .
74(5) . . .
65(4) . . .
80(5) . . .
75(5) . . .
59(4) . . .
61(4) . . .
70(5) . . .
68(5) . . .
74(5) . . .
78(5) . . .
72(5) . . .
72(5) . . .
88(5) . . .
83(5) . . .
71(4) . . .
83(5) . . .
83(5) . . .
61(4) . . .
76(4) . . .
89(5) . . .
79(5) . . .
94(6) . . .
77(5) . . .
66(4) . . .
68(4) . . .
73(5) . . .
85(5) . . .
82(5) . . .
73(4) . . .
79(5) . . .
84(5) . . .
76(5) . . .
69(4) . . .
81(5) . . .
78(5) . . .
83(5) . . .
76(5) . . .
70(5) . . .
73(4) . . .
73(5) . . .
82(5) . . .
78(5) . . .
71(4) . . .
70(4) . . .
75(5) . . .
72(5) . . .
84(5) . . .
72(4) . . .
76(5) . . .
60(4) . . .
68(5) . . .
77(5) . . .
70(4) . . .
87(5) . . .
85(5) . . .
75(5) . . .
85(5) . . .
83(5) . . .
79(5) . . .
78(5) . . .
74(5) . . .
83(5) . . .
85(5) . . .
89(5) . . .
81(5) . . .
77(5) . . .
81(5) . . .
86(5) . . .
72(4) . . .
74(5) . . .
80(5) . . .
72(5) . . .
79(5) . . .
75(4) . . .
71(5) . . .
77(5) . . .
77(5) . . .
78(5) . . .
87(5) . . .
68(4) . . .
67(5) . . .
76(5) . . .
74(4) . . .
58(4) . . .
79(5) . . .
81(5) . . .
79(5) . . .
81(5) . . .
79(5) . . .
73(5) . . .
76(5) . . .
80(5) . . .
81(5) . . .
73(5) . . .
71(5) . . .
73(5) . . .
77(5) . . .
85(5) . . .
73(5) . . .
72(5) . . .
83(5) . . .
79(5) . . .
79(5) . . .
69(5) . . .
84(5) . . .
86(5) . . .
63(4) . . .
79(5) . . .
81(5) . . .
79(5) . . .
80(5) . . .
75(5) . . .
77(5) . . .
77(5) . . .
90(5) . . .
75(5) . . .
71(4) . . .
65(4) . . .
72(4) . . .
78(5) . . .
81(5) . . .
82(5) . . .
72(4) . . .
72(4) . . .
68(4) . . .
77(5) . . .
69(4) . . .
68(4) . . .
68(5) . . .
67(5) . . .
76(5) . . .
74(4) . . .
70(4) . . .
72(5) . . .
74(5) . . .
75(5) . . .
64(4) . . .
85(5) . . .
68(4) . . .
69(5) . . .
63(4) . . .
70(4) . . .
65(4) . . .
68(4) . . .
68(4) . . .
79(5) . . .
73(4) . . .
77(5) . . .
71(5) . . .
66(4) . . .
59(4) . . .
87(5) . . .
79(5) . . .
73(4) . . .
87(5) . . .
89(5) . . .
82(5) . . .
71(5) . . .
65(4) . . .
74(4) . . .
84(5) . . .
71(4) . . .
75(4) . . .
82(5) . . .
82(5) . . .
83(5) . . .
67(4) . . .
67(4) . . .
60(4) . . .
76(5) . . .
73(4) . . .
74(4) . . .
73(5) . . .
70(5) . . .
75(4) . . .
75(4) . . .
86(5) . . .
71(5) . . .
76(5) . . .
81(5) . . .
73(4) . . .
70(4) . . .
81(5) . . .
76(5) . . .
71(4) . . .
63(4) . . .
80(5) . . .
76(5) . . .
70(5) . . .
81(5) . . .
78(5) . . .
79(5) . . .
77(5) . . .
74(5) . . .
74(5) . . .
78(5) . . .
66(4) . . .
81(5) . . .
69(4) . . .
89(5) . . .
75(5) . . .
71(5) . . .
69(4) . . .
68(4) . . .
87(5) . . .
85(5) . . .
62(4) . . .
65(4) . . .
71(4) . . .
69(4) . . .
73(4) . . .
80(5) . . .
74(5) . . .
78(5) . . .
79(5) . . .
72(4) . . .
76(5) . . .
81(5) . . .
89(5) . . .
85(5) . . .
77(5) . . .
71(5) . . .
78(5) . . .
67(5) . . .
73(4) . . .
89(5) . . .
75(5) . . .
75(5) . . .
78(5) . . .
86(5) . . .
78(5) . . .
80(5) . . .
78(5) . . .
67(4) . . .
70(4) . . .
72(4) . . .
72(4) . . .
80(5) . . .
74(5) . . .
74(5) . . .
80(5) . . .
64(4) . . .
68(4) . . .
66(4) . . .
68(4) . . .
76(5) . . .
85(5) . . .
68(4) . . .
71(5) . . .
74(4) . . .
76(5) . . .
73(5) . . .
77(5) . . .
77(5) . . .
81(5) . . .
73(5) . . .
79(5) . . .
83(5) . . .
81(5) . . .
67(4) . . .
87(5) . . .
75(5) . . .
76(5) . . .
72(4) . . .
82(5) . . .
77(5) . . .
68(5) . . .
68(4) . . .
70(4) . . .
64(4) . . .
67(4) . . .
72(5) . . .
69(4) . . .
66(4) . . .
75(4) . . .
68(4) . . .
74(5) . . .
85(5) . . .
72(4) . . .
67(4) . . .
79(5) . . .
84(5) . . .
76(5) . . .
87(5) . . .
86(5) . . .
68(4) . . .
93(5) . . .
80(5) . . .
67(4) . . .
63(4) . . .
66(4) . . .
72(5) . . .
76(5) . . .
76(5) . . .
74(5) . . .
75(5) . . .
93(5) . . .
77(5) . . .
75(5) . . .
75(5) . . .
91(5) . . .
85(5) . . .
81(5) . . .
73(4) . . .
75(5) . . .
87(5) . . .
79(5) . . .
67(4) . . .
73(4) . . .
70(4) . . .
85(5) . . .
75(5) . . .
72(5) . . .
72(4) . . .
74(5) . . .
67(5) . . .
87(5) . . .
84(5) . . .
81(5) . . .
74(4) . . .
73(5) . . .
84(5) . . .
67(4) . . .
66(4) . . .
71(5) . . .
65(5) . . .
80(5) . . .
75(4) . . .
80(5) . . .
74(5) . . .
81(5) . . .
86(5) . . .
74(4) . . .
78(5) . . .
74(5) . . .
77(5) . . .
78(5) . . .
81(5) . . .
63(4) . . .
70(4) . . .
74(4) . . .
80(5) . . .
84(5) . . .
70(4) . . .
62(4) . . .
71(5) . . .
76(5) . . .
91(5) . . .
75(5) . . .
71(4) . . .
80(5) . . .
72(4) . . .
81(5) . . .
75(5) . . .
70(5) . . .
73(5) . . .
77(5) . . .
78(5) . . .
67(4) . . .
87(5) . . .
76(5) . . .
71(4) . . .
72(4) . . .
74(5) . . .
84(5) . . .
67(4) . . .
85(5) . . .
66(4) . . .
92(5) . . .
76(5) . . .
77(5) . . .
68(4) . . .
79(5) . . .
79(5) . . .
71(5) . . .
82(5) . . .
78(5) . . .
80(5) . . .
73(5) . . .
62(4) . . .
70(5) . . .
75(5) . . .
61(4) . . .
78(5) . . .
68(4) . . .
71(5) . . .
71(4) . . .
73(4) . . .
75(5) . . .
78(5) . . .
71(4) . . .
71(4) . . .
79(5) . . .
78(5) . . .
77(5) . . .
82(5) . . .
71(4) . . .
66(4) . . .
73(5) . . .
64(4) . . .
80(5) . . .
83(5) . . .
70(5) . . .
67(4) . . .
76(5) . . .
80(5) . . .
63(4) . . .
72(5) . . .
75(5) . . .
72(4) . . .
78(5) . . .
69(4) . . .
79(5) . . .
72(5) . . .
84(5) . . .
74(5) . . .
62(4) . . .
80(5) . . .
71(5) . . .
69(5) . . .
73(4) . . .
77(5) . . .
76(4) . . .
71(4) . . .
70(4) . . .
72(4) . . .
72(4) . . .
72(5) . . .
72(5) . . .
75(5) . . .
89(5) . . .
66(4) . . .
90(5) . . .
90(5) . . .
75(5) . . .
68(4) . . .
79(5) . . .
72(4) . . .
79(5) . . .
75(5) . . .
70(4) . . .
69(4) . . .
82(5) . . .
81(5) . . .
90(5) . . .
68(4) . . .
68(5) . . .
74(5) . . .
68(4) . . .
70(4) . . .
74(4) . . .
73(5) . . .
75(5) . . .
83(5) . . .
77(5) . . .
71(4) . . .
76(5) . . .
69(5) . . .
82(5) . . .
76(5) . . .
78(5) . . .
73(4) . . .
76(5) . . .
66(4) . . .
65(4) . . .
72(4) . . .
72(5) . . .
86(5) . . .
79(5) . . .
82(5) . . .
66(4) . . .
89(5) . . .
72(5) . . .
75(5) . . .
61(4) . . .
68(4) . . .
61(4) . . .
79(5) . . .
79(5) . . .
76(5) . . .
74(5) . . .
69(5) . . .
75(5) . . .
66(4) . . .
69(4) . . .
69(4) . . .
74(5) . . .
70(5) . . .
73(5) . . .
63(4) . . .
67(4) . . .
75(5) . . .
75(5) . . .
79(5) . . .
75(5) . . .
84(5) . . .
69(5) . . .
68(5) . . .
81(5) . . .
68(4) . . .
75(5) . . .
84(5) . . .
66(4) . . .
82(5) . . .
80(5) . . .
79(5) . . .
65(4) . . .
72(5) . . .
73(5) . . .
62(4) . . .
67(4) . . .
72(5) . . .
73(5) . . .
71(4) . . .
77(5) . . .
62(4) . . .
63(4) . . .
74(5) . . .
55(4) . . .
58(4) . . .
66(4) . . .
65(5) . . .
72(5) . . .
74(4) . . .
77(5) . . .
74(5) . . .
69(5) . . .
79(5) . . .
65(4) . . .
75(5) . . .
75(5) . . .
69(4) . . .
78(5) . . .
78(5) . . .
79(5) . . .
83(5) . . .
73(5) . . .
74(5) . . .
65(4) . . .
84(5) . . .
64(4) . . .
82(5) . . .
68(4) . . .
68(4) . . .
76(5) . . .
72(5) . . .
74(5) . . .
69(4) . . .
73(4) . . .
76(5) . . .
82(5) . . .
86(5) . . .
69(4) . . .
68(4) . . .
74(5) . . .
70(5) . . .
70(4) . . .
76(5) . . .
81(5) . . .
79(5) . . .
86(5) . . .
71(4) . . .
74(4) . . .
77(5) . . .
73(5) . . .
66(5) . . .
71(5) . . .
73(4) . . .
70(4) . . .
80(5) . . .
77(5) . . .
81(5) . . .
90(5) . . .
74(4) . . .
72(5) . . .
80(5) . . .
73(5) . . .
75(4) . . .
75(5) . . .
69(5) . . .
86(5) . . .
67(4) . . .
63(4) . . .
69(4) . . .
68(4) . . .
67(4) . . .
84(5) . . .
73(4) . . .
81(5) . . .
82(5) . . .
72(4) . . .
81(5) . . .
63(4) . . .
73(4) . . .
73(5) . . .
74(5) . . .
72(5) . . .
76(5) . . .
68(4) . . .
78(5) . . .
76(5) . . .
60(4) . . .
63(4) . . .
66(4) . . .
85(5) . . .
70(5) . . .
67(4) . . .
65(4) . . .
73(5) . . .
61(4) . . .
81(5) . . .
73(5) . . .
76(5) . . .
80(5) . . .
71(5) . . .
60(4) . . .
75(5) . . .
69(4) . . .
73(5) . . .
71(5) . . .
66(4) . . .
67(4) . . .
70(5) . . .
73(4) . . .
71(5) . . .
73(5) . . .
72(4) . . .
73(4) . . .
86(5) . . .
75(5) . . .
68(4) . . .
72(4) . . .
75(5) . . .
65(4) . . .
91(5) . . .
75(5) . . .
58(4) . . .
68(4) . . .
59(4) . . .
69(5) . . .
73(4) . . .
73(4) . . .
75(5) . . .
70(5) . . .
68(4) . . .
72(5) . . .
81(5) . . .
75(4) . . .
62(4) . . .
75(5) . . .
72(4) . . .
64(4) . . .
60(4) . . .
74(5) . . .
69(5) . . .
58(4) . . .
65(4) . . .
77(5) . . .
74(5) . . .
73(5) . . .
79(5) . . .
73(5) . . .
80(5) . . .
66(5) . . .
67(4) . . .
76(4) . . .
78(5) . . .
72(5) . . .
78(5) . . .
69(4) . . .
83(5) . . .
69(4) . . .
72(5) . . .
58(4) . . .
78(5) . . .
68(4) . . .
76(5) . . .
67(4) . . .
69(5) . . .
74(5) . . .
68(4) . . .
71(4) . . .
72(4) . . .
75(5) . . .
64(4) . . .
70(4) . . .
70(4) . . .
71(5) . . .
75(5) . . .
75(4) . . .
76(5) . . .
70(4) . . .
78(5) . . .
72(5) . . .
79(5) . . .
72(4) . . .
73(5) . . .
64(4) . . .
68(4) . . .
77(5) . . .
67(4) . . .
65(4) . . .
69(5) . . .
63(4) . . .
61(4) . . .
64(4) . . .
61(4) . . .
67(4) . . .
75(4) . . .
89(5) . . .
83(5) . . .
70(5) . . .
78(5) . . .
67(4) . . .
81(5) . . .
75(5) . . .
77(5) . . .
78(5) . . .
66(4) . . .
71(4) . . .
74(5) . . .
59(4) . . .
78(5) . . .
71(4) . . .
80(5) . . .
75(5) . . .
65(4) . . .
66(5) . . .
63(4) . . .
76(5) . . .
69(4) . . .
67(4) . . .
66(5) . . .
81(5) . . .
74(4) . . .
67(4) . . .
72(4) . . .
62(4) . . .
66(4) . . .
68(4) . . .
68(4) . . .
76(5) . . .
67(5) . . .
70(4) . . .
65(4) . . .
65(4) . . .
72(5) . . .
70(5) . . .
68(4) . . .
73(5) . . .
78(5) . . .
70(4) . . .
72(5) . . .
73(5) . . .
79(5) . . .
75(5) . . .
75(5) . . .
74(5) . . .
67(4) . . .
71(4) . . .
74(5) . . .
65(4) . . .
70(4) . . .
84(5) . . .
73(4) . . .
65(4) . . .
68(5) . . .
71(5) . . .
80(5) . . .
76(5) . . .
65(4) . . .
72(5) . . .
74(5) . . .
68(4) . . .
67(4) . . .
74(5) . . .
66(5) . . .
70(4) . . .
76(4) . . .
67(4) . . .
69(4) . . .
68(5) . . .
84(5) . . .
75(5) . . .
63(4) . . .
54(4) . . .
63(4) . . .
66(4) . . .
70(4) . . .
79(5) . . .
79(5) . . .
74(5) . . .
71(4) . . .
69(4) . . .
67(4) . . .
76(5) . . .
72(5) . . .
66(4) . . .
63(4) . . .
73(5) . . .
71(5) . . .
82(5) . . .
80(5) . . .
60(4) . . .
62(4) . . .
67(4) . . .
78(5) . . .
80(5) . . .
75(5) . . .
61(4) . . .
70(5) . . .
78(5) . . .
70(4) . . .
64(4) . . .
63(4) . . .
60(4) . . .
69(4) . . .
75(5) . . .
77(5) . . .
70(4) . . .
75(5) . . .
67(4) . . .
80(5) . . .
76(5) . . .
69(5) . . .
71(5) . . .
70(4) . . .
72(4) . . .
84(5) . . .
68(4) . . .
71(5) . . .
67(4) . . .
66(4) . . .
80(5) . . .
74(4) . . .
75(5) . . .
79(5) . . .
81(5) . . .
83(5) . . .
59(4) . . .
69(4) . . .
71(5) . . .
67(4) . . .
63(4) . . .
71(4) . . .
80(5) . . .
80(5) . . .
71(4) . . .
70(4) . . .
88(5) . . .
75(5) . . .
76(5) . . .
67(4) . . .
69(4) . . .
69(5) . . .
81(5) . . .
72(4) . . .
74(5) . . .
64(4) . . .
60(4) . . .
77(5) . . .
76(5) . . .
61(4) . . .
70(4) . . .
75(5) . . .
78(5) . . .
64(4) . . .
62(4) . . .
67(4) . . .
74(5) . . .
70(4) . . .
61(4) . . .
64(4) . . .
62(4) . . .
64(5) . . .
66(4) . . .
77(5) . . .
77(5) . . .
68(4) . . .
66(5) . . .
63(4) . . .
67(4) . . .
75(5) . . .
71(4) . . .
69(5) . . .
75(5) . . .
84(5) . . .
71(4) . . .
68(4) . . .
78(5) . . .
76(5) . . .
77(5) . . .
78(5) . . .
71(4) . . .
75(5) . . .
68(4) . . .
73(4) . . .
66(4) . . .
69(5) . . .
73(5) . . .
76(5) . . .
76(5) . . .
72(4) . . .
78(5) . . .
64(4) . . .
70(4) . . .
77(5) . . .
70(5) . . .
69(5) . . .
66(4) . . .
67(4) . . .
78(5) . . .
79(5) . . .
64(4) . . .
56(4) . . .
69(4) . . .
80(5) . . .
79(5) . . .
76(5) . . .
64(4) . . .
61(4) . . .
78(5) . . .
74(5) . . .
69(5) . . .
69(4) . . .
63(4) . . .
66(4) . . .
89(5) . . .
82(5) . . .
72(5) . . .
63(4) . . .
72(4) . . .
60(4) . . .
68(5) . . .
61(4) . . .
74(4) . . .
77(5) . . .
83(5) . . .
80(5) . . .
75(5) . . .
67(4) . . .
63(4) . . .
75(5) . . .
63(4) . . .
66(4) . . .
67(4) . . .
67(4) . . .
76(5) . . .
75(5) . . .
69(4) . . .
73(4) . . .
80(5) . . .
77(5) . . .
74(5) . . .
83(5) . . .
75(5) . . .
76(5) . . .
70(4) . . .
69(5) . . .
64(4) . . .
72(4) . . .
83(5) . . .
70(4) . . .
66(4) . . .
68(4) . . .
70(4) . . .
57(4) . . .
68(5) . . .
76(5) . . .
68(4) . . .
63(4) . . .
69(4) . . .
69(5) . . .
54(4) . . .
71(4) . . .
78(5) . . .
74(5) . . .
73(5) . . .
76(5) . . .
73(4) . . .
71(4) . . .
59(4) . . .
70(5) . . .
71(5) . . .
74(4) . . .
61(4) . . .
70(4) . . .
67(4) . . .
75(5) . . .
64(4) . . .
70(4) . . .
67(4) . . .
69(5) . . .
69(4) . . .
78(5) . . .
66(4) . . .
61(4) . . .
61(4) . . .
65(4) . . .
72(4) . . .
75(5) . . .
74(5) . . .
59(4) . . .
72(5) . . .
71(4) . . .
63(4) . . .
56(4) . . .
68(5) . . .
69(4) . . .
80(5) . . .
67(4) . . .
68(4) . . .
69(4) . . .
73(5) . . .
69(4) . . .
71(4) . . .
72(5) . . .
65(4) . . .
74(5) . . .
56(4) . . .
53(4) . . .
66(5) . . .
66(4) . . .
73(4) . . .
65(4) . . .
68(4) . . .
68(5) . . .
77(5) . . .
79(5) . . .
79(5) . . .
81(5) . . .
64(4) . . .
68(4) . . .
73(4) . . .
64(4) . . .
68(4) . . .
69(5) . . .
66(4) . . .
68(4) . . .
73(5) . . .
65(4) . . .
76(5) . . .
68(5) . . .
76(4) . . .
74(5) . . .
66(4) . . .
65(4) . . .
71(5) . . .
58(4) . . .
66(4) . . .
71(4) . . .
66(4) . . .
68(4) . . .
64(4) . . .
70(4) . . .
70(5) . . .
72(5) . . .
64(4) . . .
75(4) . . .
75(5) . . .
81(5) . . .
66(4) . . .
65(4) . . .
80(5) . . .
73(5) . . .
80(5) . . .
61(4) . . .
74(5) . . .
61(4) . . .
57(4) . . .
64(4) . . .
62(4) . . .
75(5) . . .
72(5) . . .
59(4) . . .
69(5) . . .
68(4) . . .
65(4) . . .
67(4) . . .
63(4) . . .
73(5) . . .
68(4) . . .
83(5) . . .
80(5) . . .
79(5) . . .
68(4) . . .
71(4) . . .
84(5) . . .
65(4) . . .
66(4) . . .
69(5) . . .
66(4) . . .
76(5) . . .
64(4) . . .
64(4) . . .
67(4) . . .
75(5) . . .
64(4) . . .
72(4) . . .
73(5) . . .
59(4) . . .
63(4) . . .
58(4) . . .
66(4) . . .
79(5) . . .
86(5) . . .
64(4) . . .
72(4) . . .
64(4) . . .
63(4) . . .
71(5) . . .
74(4) . . .
67(4) . . .
59(4) . . .
57(4) . . .
60(4) . . .
70(4) . . .
62(4) . . .
69(5) . . .
62(4) . . .
65(4) . . .
68(4) . . .
66(4) . . .
60(4) . . .
74(5) . . .
81(5) . . .
70(4) . . .
73(4) . . .
64(4) . . .
62(4) . . .
67(4) . . .
65(4) . . .
72(4) . . .
59(4) . . .
57(4) . . .
67(4) . . .
74(4) . . .
70(4) . . .
60(4) . . .
70(5) . . .
69(5) . . .
67(4) . . .
61(4) . . .
65(4) . . .
66(5) . . .
66(4) . . .
68(4) . . .
74(4) . . .
70(5) . . .
71(5) . . .
81(5) . . .
76(5) . . .
71(4) . . .
67(5) . . .
64(4) . . .
76(5) . . .
64(4) . . .
62(4) . . .
69(5) . . .
65(4) . . .
71(4) . . .
81(5) . . .
69(4) . . .
75(5) . . .
72(5) . . .
72(4) . . .
70(4) . . .
69(4) . . .
61(4) . . .
54(4) . . .
67(4) . . .
75(4) . . .
68(4) . . .
61(5) . . .
65(4) . . .
66(4) . . .
71(4) . . .
75(5) . . .
63(4) . . .
70(4) . . .
64(4) . . .
67(4) . . .
81(5) . . .
67(4) . . .
65(4) . . .
62(4) . . .
75(5) . . .
83(5) . . .
74(5) . . .
68(4) . . .
68(4) . . .
72(4) . . .
81(5) . . .
68(4) . . .
69(5) . . .
64(4) . . .
64(4) . . .
62(4) . . .
56(4) . . .
62(4) . . .
66(4) . . .
63(4) . . .
63(4) . . .
76(5) . . .
62(4) . . .
66(4) . . .
62(4) . . .
62(4) . . .
72(5) . . .
61(4) . . .
65(4) . . .
62(4) . . .
71(5) . . .
73(5) . . .
63(4) . . .
75(4) . . .
63(4) . . .
70(5) . . .
63(4) . . .
69(4) . . .
81(5) . . .
75(5) . . .
74(5) . . .
64(4) . . .
65(4) . . .
72(4) . . .
70(4) . . .
69(5) . . .
66(4) . . .
67(4) . . .
68(4) . . .
73(5) . . .
70(5) . . .
63(4) . . .
66(4) . . .
63(4) . . .
66(4) . . .
59(4) . . .
54(4) . . .
69(4) . . .
71(4) . . .
66(4) . . .
69(4) . . .
64(4) . . .
68(4) . . .
68(4) . . .
67(5) . . .
59(4) . . .
66(4) . . .
75(5) . . .
63(4) . . .
53(4) . . .
74(5) . . .
75(5) . . .
70(4) . . .
60(4) . . .
66(4) . . .
61(4) . . .
58(4) . . .
67(4) . . .
70(5) . . .
62(4) . . .
61(4) . . .
61(4) . . .
70(4) . . .
62(4) . . .
77(5) . . .
70(5) . . .
66(4) . . .
65(4) . . .
67(4) . . .
59(4) . . .
60(4) . . .
70(4) . . .
68(4) . . .
65(4) . . .
72(5) . . .
63(4) . . .
64(4) . . .
71(5) . . .
69(5) . . .
67(5) . . .
78(5) . . .
74(4) . . .
62(4) . . .
66(5) . . .
73(5) . . .
70(5) . . .
63(4) . . .
67(4) . . .
72(4) . . .
75(5) . . .
75(5) . . .
66(4) . . .
57(4) . . .
65(4) . . .
71(5) . . .
64(4) . . .
70(4) . . .
63(4) . . .
77(5) . . .
70(4) . . .
72(5) . . .
73(4) . . .
71(4) . . .
68(4) . . .
69(5) . . .
81(5) . . .
72(4) . . .
60(4) . . .
70(4) . . .
72(5) . . .
68(4) . . .
70(4) . . .
53(4) . . .
68(4) . . .
67(4) . . .
71(5) . . .
62(4) . . .
67(4) . . .
71(5) . . .
70(5) . . .
62(4) . . .
66(4) . . .
70(5) . . .
63(4) . . .
87(5) . . .
77(5) . . .
67(4) . . .
67(4) . . .
76(5) . . .
68(5) . . .
68(4) . . .
70(4) . . .
67(4) . . .
57(4) . . .
74(5) . . .
66(4) . . .
56(4) . . .
60(4) . . .
65(5) . . .
67(4) . . .
61(4) . . .
64(4) . . .
69(5) . . .
64(5) . . .
70(5) . . .
57(4) . . .
63(4) . . .
74(5) . . .
63(4) . . .
55(4) . . .
56(4) . . .
60(4) . . .
63(4) . . .
64(4) . . .
65(4) . . .
63(4) . . .
49(4) . . .
59(4) . . .
73(5) . . .
70(4) . . .
68(4) . . .
76(5) . . .
61(4) . . .
67(5) . . .
65(4) . . .
58(4) . . .
65(4) . . .
73(5) . . .
65(4) . . .
65(4) . . .
62(4) . . .
71(5) . . .
64(4) . . .
73(5) . . .
65(4) . . .
57(4) . . .
74(5) . . .
64(5) . . .
66(5) . . .
66(4) . . .
61(4) . . .
69(5) . . .
66(5) . . .
70(5) . . .
65(4) . . .
67(4) . . .
72(5) . . .
55(4) . . .
47(4) . . .
75(4) . . .
72(5) . . .
65(4) . . .
71(5) . . .
73(5) . . .
72(4) . . .
73(4) . . .
66(4) . . .
76(5) . . .
51(4) . . .
66(4) . . .
74(4) . . .
67(4) . . .
61(4) . . .
71(4) . . .
65(4) . . .
76(5) . . .
57(4) . . .
74(5) . . .
69(5) . . .
68(4) . . .
62(4) . . .
68(5) . . .
83(5) . . .
69(4) . . .
85(5) . . .
71(4) . . .
59(4) . . .
69(5) . . .
56(4) . . .
66(4) . . .
68(4) . . .
61(4) . . .
67(4) . . .
73(4) . . .
75(5) . . .
62(4) . . .
61(4) . . .
71(5) . . .
61(4) . . .
67(4) . . .
70(5) . . .
55(4) . . .
62(4) . . .
82(5) . . .
68(4) . . .
64(4) . . .
62(4) . . .
76(5) . . .
73(4) . . .
66(4) . . .
68(5) . . .
66(5) . . .
68(4) . . .
77(5) . . .
68(4) . . .
74(5) . . .
64(4) . . .
59(4) . . .
74(5) . . .
55(4) . . .
56(4) . . .
63(4) . . .
55(4) . . .
70(4) . . .
68(5) . . .
60(4) . . .
61(4) . . .
62(4) . . .
53(4) . . .
75(5) . . .
69(5) . . .
66(4) . . .
54(4) . . .
59(4) . . .
66(5) . . .
66(5) . . .
61(4) . . .
63(4) . . .
60(4) . . .
59(4) . . .
79(5) . . .
51(4) . . .
60(4) . . .
59(4) . . .
63(4) . . .
65(4) . . .
64(4) . . .
62(4) . . .
59(4) . . .
61(4) . . .
57(4) . . .
57(4) . . .
74(4) . . .
69(4) . . .
81(5) . . .
55(4) . . .
66(4) . . .
60(4) . . .
61(4) . . .
70(5) . . .
64(4) . . .
65(5) . . .
55(4) . . .
63(4) . . .
66(4) . . .
55(4) . . .
54(4) . . .
70(4) . . .
73(5) . . .
73(5) . . .
59(4) . . .
66(4) . . .
63(4) . . .
60(4) . . .
68(4) . . .
65(4) . . .
69(4) . . .
57(4) . . .
67(5) . . .
62(4) . . .
52(4) . . .
61(4) . . .
57(4) . . .
64(4) . . .
64(4) . . .
73(5) . . .
75(4) . . .
62(4) . . .
54(4) . . .
65(5) . . .
65(4) . . .
62(4) . . .
77(5) . . .
70(5) . . .
61(4) . . .
61(4) . . .
66(4) . . .
61(4) . . .
58(4) . . .
74(5) . . .
80(5) . . .
63(4) . . .
71(4) . . .
59(4) . . .
77(5) . . .
74(5) . . .
63(4) . . .
58(4) . . .
57(4) . . .
56(4) . . .
53(4) . . .
60(4) . . .
60(4) . . .
76(5) . . .
58(4) . . .
64(4) . . .
71(4) . . .
73(4) . . .
60(4) . . .
65(4) . . .
71(4) . . .
61(4) . . .
75(5) . . .
73(5) . . .
64(4) . . .
67(4) . . .
58(4) . . .
61(4) . . .
68(5) . . .
62(4) . . .
64(4) . . .
61(4) . . .
68(4) . . .
79(5) . . .
73(5) . . .
63(4) . . .
61(4) . . .
66(4) . . .
69(5) . . .
57(4) . . .
50(4) . . .
58(4) . . .
62(4) . . .
65(4) . . .
67(4) . . .
58(4) . . .
66(4) . . .
72(5) . . .
66(5) . . .
65(4) . . .
60(4) . . .
64(4) . . .
62(4) . . .
71(5) . . .
57(4) . . .
63(4) . . .
59(4) . . .
58(4) . . .
49(4) . . .
57(4) . . .
58(4) . . .
67(4) . . .
63(4) . . .
66(4) . . .
70(4) . . .
73(4) . . .
58(4) . . .
67(5) . . .
69(5) . . .
68(4) . . .
66(4) . . .
62(4) . . .
75(5) . . .
67(4) . . .
61(4) . . .
67(4) . . .
70(5) . . .
61(4) . . .
59(4) . . .
72(5) . . .
56(4) . . .
70(5) . . .
63(5) . . .
65(5) . . .
56(4) . . .
64(4) . . .
57(4) . . .
57(4) . . .
70(5) . . .
69(4) . . .
60(4) . . .
61(4) . . .
67(5) . . .
66(4) . . .
66(4) . . .
61(4) . . .
66(4) . . .
61(4) . . .
71(5) . . .
67(4) . . .
70(4) . . .
70(5) . . .
65(4) . . .
56(4) . . .
55(4) . . .
58(4) . . .
65(4) . . .
68(5) . . .
57(4) . . .
65(4) . . .
61(4) . . .
64(5) . . .
53(4) . . .
67(4) . . .
59(4) . . .
61(4) . . .
74(5) . . .
71(4) . . .
75(5) . . .
68(4) . . .
67(4) . . .
56(4) . . .
60(4) . . .
69(5) . . .
63(4) . . .
61(4) . . .
59(4) . . .
65(4) . . .
63(4) . . .
65(4) . . .
68(5) . . .
63(4) . . .
63(4) . . .
72(5) . . .
69(4) . . .
64(4) . . .
70(5) . . .
62(4) . . .
66(4) . . .
65(4) . . .
60(4) . . .
57(4) . . .
61(4) . . .
58(4) . . .
63(4) . . .
69(4) . . .
64(5) . . .
75(5) . . .
59(4) . . .
67(4) . . .
61(4) . . .
61(5) . . .
74(5) . . .
62(4) . . .
63(4) . . .
57(4) . . .
62(4) . . .
64(4) . . .
56(4) . . .
60(4) . . .
63(4) . . .
71(5) . . .
60(4) . . .
61(4) . . .
57(4) . . .
69(5) . . .
62(4) . . .
60(4) . . .
63(4) . . .
67(4) . . .
67(5) . . .
71(5) . . .
65(4) . . .
63(4) . . .
57(4) . . .
64(4) . . .
60(4) . . .
65(4) . . .
57(4) . . .
58(4) . . .
62(4) . . .
56(4) . . .
62(4) . . .
68(4) . . .
75(5) . . .
68(5) . . .
60(4) . . .
73(5) . . .
72(4) . . .
70(5) . . .
64(5) . . .
61(4) . . .
63(4) . . .
55(4) . . .
76(5) . . .
61(4) . . .
47(4) . . .
62(4) . . .
66(4) . . .
62(4) . . .
72(5) . . .
58(4) . . .
65(4) . . .
63(4) . . .
73(5) . . .
62(4) . . .
64(4) . . .
70(4) . . .
73(5) . . .
69(4) . . .
80(5) . . .
64(4) . . .
67(4) . . .
76(5) . . .
63(4) . . .
54(4) . . .
54(4) . . .
59(4) . . .
59(4) . . .
71(5) . . .
55(4) . . .
65(4) . . .
61(4) . . .
59(4) . . .
62(4) . . .
69(4) . . .
70(4) . . .
60(4) . . .
64(4) . . .
58(4) . . .
74(5) . . .
71(5) . . .
55(4) . . .
64(4) . . .
56(4) . . .
67(4) . . .
59(4) . . .
71(4) . . .
71(5) . . .
65(5) . . .
52(4) . . .
65(4) . . .
67(4) . . .
70(4) . . .
77(5) . . .
69(4) . . .
70(4) . . .
55(4) . . .
66(4) . . .
69(5) . . .
71(5) . . .
63(4) . . .
61(4) . . .
58(4) . . .
53(4) . . .
66(4) . . .
60(4) . . .
61(4) . . .
58(4) . . .
68(5) . . .
61(4) . . .
62(4) . . .
62(4) . . .
63(4) . . .
65(4) . . .
60(4) . . .
63(4) . . .
67(4) . . .
68(4) . . .
68(5) . . .
58(4) . . .
57(4) . . .
68(4) . . .
59(4) . . .
65(4) . . .
74(5) . . .
66(4) . . .
61(4) . . .
63(4) . . .
64(4) . . .
60(4) . . .
56(4) . . .
59(4) . . .
64(4) . . .
61(4) . . .
66(4) . . .
66(4) . . .
72(5) . . .
61(4) . . .
53(4) . . .
55(4) . . .
65(4) . . .
62(4) . . .
63(4) . . .
70(5) . . .
67(4) . . .
60(4) . . .
62(4) . . .
60(4) . . .
57(4) . . .
73(4) . . .
69(4) . . .
70(4) . . .
74(5) . . .
61(4) . . .
77(5) . . .
65(4) . . .
66(4) . . .
72(5) . . .
66(4) . . .
64(4) . . .
64(4) . . .
65(5) . . .
66(4) . . .
71(4) . . .
62(4) . . .
63(4) . . .
73(5) . . .
67(4) . . .
71(5) . . .
71(4) . . .
61(4) . . .
61(4) . . .
66(4) . . .
55(4) . . .
71(4) . . .
72(4) . . .
62(4) . . .
74(5) . . .
58(4) . . .
68(4) . . .
60(4) . . .
65(4) . . .
56(4) . . .
56(4) . . .
51(4) . . .
60(4) . . .
73(5) . . .
65(4) . . .
64(4) . . .
65(4) . . .
73(5) . . .
66(5) . . .
68(5) . . .
55(4) . . .
61(4) . . .
70(5) . . .
66(4) . . .
71(4) . . .
70(4) . . .
58(4) . . .
62(4) . . .
67(5) . . .
74(5) . . .
60(4) . . .
66(4) . . .
63(4) . . .
63(5) . . .
62(4) . . .
67(4) . . .
76(5) . . .
60(4) . . .
55(4) . . .
61(4) . . .
60(4) . . .
54(4) . . .
59(4) . . .
61(4) . . .
67(4) . . .
62(4) . . .
61(4) . . .
58(4) . . .
61(4) . . .
57(4) . . .
74(5) . . .
61(4) . . .
67(4) . . .
75(5) . . .
61(4) . . .
53(4) . . .
62(4) . . .
61(4) . . .
68(5) . . .
57(4) . . .
62(4) . . .
67(4) . . .
73(5) . . .
64(4) . . .
67(4) . . .
65(4) . . .
61(4) . . .
59(4) . . .
73(5) . . .
70(4) . . .
64(4) . . .
65(4) . . .
78(5) . . .
67(4) . . .
64(4) . . .
61(4) . . .
66(4) . . .
60(4) . . .
55(4) . . .
59(4) . . .
61(4) . . .
60(4) . . .
70(5) . . .
63(4) . . .
76(5) . . .
60(4) . . .
59(4) . . .
66(5) . . .
56(4) . . .
69(4) . . .
58(4) . . .
59(4) . . .
68(5) . . .
67(4) . . .
64(4) . . .
62(4) . . .
64(4) . . .
69(4) . . .
70(4) . . .
60(4) . . .
50(4) . . .
62(4) . . .
60(4) . . .
68(4) . . .
65(4) . . .
63(4) . . .
64(4) . . .
64(4) . . .
64(4) . . .
68(4) . . .
78(5) . . .
75(5) . . .
67(4) . . .
66(4) . . .
58(4) . . .
57(4) . . .
66(4) . . .
55(4) . . .
53(4) . . .
59(4) . . .
61(4) . . .
61(4) . . .
62(4) . . .
62(4) . . .
66(4) . . .
61(4) . . .
61(4) . . .
67(4) . . .
74(5) . . .
62(4) . . .
61(4) . . .
61(4) . . .
59(4) . . .
50(4) . . .
57(4) . . .
61(4) . . .
67(4) . . .
70(4) . . .
66(4) . . .
54(4) . . .
63(4) . . .
63(4) . . .
56(4) . . .
71(4) . . .
57(4) . . .
67(5) . . .
66(4) . . .
68(4) . . .
69(4) . . .
76(5) . . .
59(4) . . .
53(4) . . .
65(4) . . .
65(4) . . .
62(4) . . .
59(4) . . .
58(4) . . .
73(5) . . .
67(4) . . .
69(5) . . .
67(5) . . .
62(4) . . .
62(4) . . .
56(4) . . .
59(4) . . .
70(5) . . .
57(4) . . .
60(4) . . .
59(4) . . .
67(4) . . .
57(4) . . .
60(4) . . .
63(4) . . .
64(4) . . .
65(4) . . .
67(5) . . .
66(4) . . .
79(5) . . .
54(4) . . .
64(4) . . .
63(4) . . .
60(4) . . .
55(4) . . .
65(4) . . .
57(4) . . .
61(4) . . .
70(5) . . .
71(4) . . .
54(4) . . .
58(4) . . .
54(4) . . .
66(4) . . .
63(4) . . .
58(4) . . .
60(4) . . .
64(5) . . .
66(4) . . .
60(4) . . .
61(4) . . .
60(4) . . .
61(4) . . .
49(4) . . .
62(4) . . .
70(5) . . .
56(4) . . .
67(5) . . .
64(4) . . .
74(4) . . .
59(4) . . .
73(5) . . .
61(4) . . .
64(4) . . .
54(4) . . .
64(4) . . .
55(4) . . .
66(4) . . .
50(4) . . .
61(4) . . .
57(4) . . .
64(4) . . .
60(4) . . .
52(4) . . .
51(4) . . .
64(4) . . .
63(4) . . .
56(4) . . .
71(4) . . .
67(4) . . .
64(4) . . .
56(4) . . .
67(4) . . .
57(4) . . .
57(4) . . .
74(5) . . .
66(5) . . .
54(4) . . .
54(4) . . .
69(4) . . .
82(5) . . .
65(4) . . .
61(4) . . .
53(4) . . .
49(4) . . .
59(4) . . .
63(4) . . .
70(4) . . .
59(4) . . .
58(4) . . .
57(4) . . .
58(4) . . .
74(5) . . .
62(4) . . .
64(4) . . .
60(4) . . .
63(4) . . .
70(5) . . .
67(4) . . .
65(4) . . .
59(4) . . .
53(4) . . .
58(4) . . .
50(4) . . .
60(4) . . .
66(5) . . .
62(4) . . .
59(4) . . .
65(4) . . .
57(4) . . .
54(4) . . .
55(4) . . .
51(4) . . .
63(4) . . .
52(4) . . .
64(5) . . .
62(4) . . .
57(4) . . .
63(4) . . .
56(4) . . .
73(5) . . .
64(4) . . .
51(4) . . .
66(4) . . .
69(4) . . .
65(5) . . .
59(4) . . .
60(4) . . .
54(4) . . .
66(4) . . .
66(4) . . .
70(5) . . .
71(4) . . .
71(4) . . .
51(4) . . .
58(4) . . .
62(4) . . .
55(4) . . .
62(4) . . .
58(4) . . .
78(5) . . .
70(5) . . .
63(4) . . .
80(5) . . .
64(4) . . .
77(5) . . .
61(4) . . .
63(4) . . .
65(4) . . .
65(4) . . .
69(5) . . .
62(4) . . .
64(4) . . .
67(5) . . .
73(5) . . .
55(4) . . .
55(4) . . .
62(4) . . .
55(4) . . .
54(4) . . .
55(4) . . .
63(4) . . .
65(4) . . .
66(4) . . .
63(4) . . .
73(5) . . .
63(4) . . .
60(4) . . .
58(4) . . .
62(4) . . .
62(4) . . .
59(4) . . .
74(5) . . .
73(5) . . .
54(4) . . .
62(4) . . .
70(4) . . .
60(4) . . .
55(4) . . .
60(4) . . .
56(4) . . .
69(4) . . .
59(4) . . .
76(5) . . .
62(4) . . .
60(4) . . .
69(4) . . .
71(5) . . .
81(5) . . .
80(5) . . .
60(4) . . .
62(4) . . .
56(4) . . .
66(5) . . .
63(5) . . .
61(4) . . .
65(4) . . .
67(4) . . .
67(4) . . .
58(4) . . .
61(4) . . .
64(4) . . .
72(4) . . .
52(4) . . .
51(4) . . .
61(4) . . .
57(4) . . .
59(4) . . .
58(4) . . .
50(4) . . .
62(4) . . .
70(4) . . .
66(4) . . .
57(4) . . .
61(4) . . .
54(4) . . .
61(4) . . .
67(4) . . .
73(5) . . .
65(4) . . .
64(4) . . .
61(4) . . .
54(4) . . .
64(5) . . .
61(4) . . .
63(4) . . .
74(4) . . .
59(4) . . .
55(4) . . .
63(4) . . .
58(4) . . .
66(4) . . .
58(4) . . .
56(4) . . .
61(4) . . .
64(4) . . .
59(4) . . .
73(5) . . .
59(4) . . .
66(4) . . .
69(4) . . .
65(4) . . .
54(4) . . .
59(4) . . .
52(4) . . .
60(4) . . .
53(4) . . .
69(5) . . .
62(4) . . .
65(4) . . .
67(4) . . .
65(4) . . .
63(4) . . .
57(4) . . .
55(4) . . .
52(4) . . .
58(4) . . .
62(4) . . .
62(4) . . .
66(4) . . .
57(4) . . .
59(4) . . .
65(4) . . .
66(4) . . .
54(4) . . .
65(4) . . .
67(4) . . .
54(4) . . .
51(4) . . .
68(4) . . .
65(4) . . .
69(4) . . .
63(4) . . .
58(4) . . .
61(4) . . .
58(4) . . .
68(4) . . .
62(4) . . .
74(5) . . .
63(4) . . .
70(5) . . .
62(4) . . .
64(4) . . .
67(4) . . .
64(4) . . .
72(5) . . .
59(4) . . .
65(4) . . .
62(4) . . .
60(4) . . .
67(4) . . .
65(4) . . .
61(4) . . .
57(4) . . .
60(4) . . .
57(4) . . .
66(4) . . .
74(5) . . .
68(5) . . .
57(4) . . .
72(5) . . .
63(4) . . .
57(4) . . .
61(4) . . .
58(4) . . .
62(4) . . .
56(4) . . .
62(4) . . .
66(4) . . .
48(4) . . .
61(4) . . .
54(4) . . .
50(4) . . .
67(4) . . .
59(4) . . .
57(4) . . .
58(4) . . .
64(5) . . .
64(4) . . .
54(4) . . .
60(4) . . .
65(4) . . .
70(4) . . .
57(4) . . .
63(4) . . .
57(4) . . .
61(4) . . .
66(4) . . .
72(4) . . .
59(4) . . .
56(4) . . .
65(5) . . .
57(4) . . .
56(4) . . .
59(4) . . .
60(4) . . .
59(4) . . .
52(4) . . .
62(4) . . .
55(4) . . .
57(4) . . .
58(4) . . .
68(5) . . .
58(4) . . .
57(4) . . .
61(4) . . .
61(4) . . .
67(4) . . .
58(4) . . .
54(4) . . .
67(5) . . .
60(4) . . .
54(4) . . .
71(4) . . .
59(4) . . .
66(5) . . .
53(4) . . .
66(4) . . .
70(4) . . .
54(4) . . .
76(5) . . .
67(4) . . .
64(4) . . .
56(4) . . .
69(5) . . .
61(4) . . .
58(4) . . .
60(4) . . .
70(4) . . .
62(4) . . .
67(5) . . .
56(4) . . .
54(4) . . .
56(4) . . .
62(4) . . .
52(4) . . .
63(4) . . .
69(4) . . .
62(4) . . .
67(4) . . .
74(5) . . .
53(4) . . .
67(4) . . .
44.7(35) . . .
73(5) . . .
62(4) . . .
51(4) . . .
55(4) . . .
63(4) . . .
72(5) . . .
67(4) . . .
66(4) . . .
57(4) . . .
66(4) . . .
60(4) . . .
71(5) . . .
53(4) . . .
56(4) . . .
59(4) . . .
53(4) . . .
58(4) . . .
55(4) . . .
63(4) . . .
59(4) . . .
54(4) . . .
62(4) . . .
61(4) . . .
65(4) . . .
52(4) . . .
50(4) . . .
73(5) . . .
63(4) . . .
71(4) . . .
59(4) . . .
61(4) . . .
68(4) . . .
65(4) . . .
53(4) . . .
54(4) . . .
54(4) . . .
60(4) . . .
66(4) . . .
73(5) . . .
65(4) . . .
62(4) . . .
63(4) . . .
63(4) . . .
62(4) . . .
69(5) . . .
63(4) . . .
67(4) . . .
55(4) . . .
59(4) . . .
64(4) . . .
59(4) . . .
65(4) . . .
57(4) . . .
70(4) . . .
61(4) . . .
73(5) . . .
52(4) . . .
50(4) . . .
61(4) . . .
69(5) . . .
68(5) . . .
69(4) . . .
81(5) . . .
56(4) . . .
55(4) . . .
51(4) . . .
56(4) . . .
63(4) . . .
67(4) . . .
52(4) . . .
59(4) . . .
68(4) . . .
53(4) . . .
54(4) . . .
67(5) . . .
71(5) . . .
71(4) . . .
62(4) . . .
48(4) . . .
49(4) . . .
53(4) . . .
58(4) . . .
49(4) . . .
57(4) . . .
64(4) . . .
59(4) . . .
56(4) . . .
52(4) . . .
56(4) . . .
55(4) . . .
63(4) . . .
59(4) . . .
66(4) . . .
65(4) . . .
57(4) . . .
55(4) . . .
64(4) . . .
58(4) . . .
61(4) . . .
60(4) . . .
55(4) . . .
67(4) . . .
63(4) . . .
59(4) . . .
53(4) . . .
56(4) . . .
56(4) . . .
48(4) . . .
71(5) . . .
61(4) . . .
51(4) . . .
67(4) . . .
58(4) . . .
60(4) . . .
59(4) . . .
63(4) . . .
54(4) . . .
61(4) . . .
55(4) . . .
52(4) . . .
52(4) . . .
61(4) . . .
64(4) . . .
65(4) . . .
60(4) . . .
65(4) . . .
61(4) . . .
59(4) . . .
62(5) . . .
60(4) . . .
53(4) . . .
67(4) . . .
58(4) . . .
56(4) . . .
58(4) . . .
63(4) . . .
62(4) . . .
53(4) . . .
54(4) . . .
71(5) . . .
65(4) . . .
66(4) . . .
58(4) . . .
64(5) . . .
58(4) . . .
62(4) . . .
63(4) . . .
64(4) . . .
50(4) . . .
56(4) . . .
52(4) . . .
61(4) . . .
61(4) . . .
64(4) . . .
62(4) . . .
68(4) . . .
62(4) . . .
69(5) . . .
53(4) . . .
73(5) . . .
73(4) . . .
69(4) . . .
69(4) . . .
60(4) . . .
68(4) . . .
65(4) . . .
62(4) . . .
68(5) . . .
60(4) . . .
49(4) . . .
56(4) . . .
62(4) . . .
69(5) . . .
50(4) . . .
65(4) . . .
58(4) . . .
66(4) . . .
66(4) . . .
56(4) . . .
67(5) . . .
71(4) . . .
60(4) . . .
58(4) . . .
66(5) . . .
60(4) . . .
61(4) . . .
60(4) . . .
63(4) . . .
59(4) . . .
52(4) . . .
56(4) . . .
60(4) . . .
58(4) . . .
59(4) . . .
77(5) . . .
71(4) . . .
68(4) . . .
58(4) . . .
58(4) . . .
62(4) . . .
59(4) . . .
58(4) . . .
55(4) . . .
69(4) . . .
64(4) . . .
56(4) . . .
50(4) . . .
70(5) . . .
64(4) . . .
58(4) . . .
69(4) . . .
56(4) . . .
60(4) . . .
71(4) . . .
71(4) . . .
66(4) . . .
65(4) . . .
49(4) . . .
67(4) . . .
58(4) . . .
48(4) . . .
63(4) . . .
60(4) . . .
57(4) . . .
54(4) . . .
49(4) . . .
63(4) . . .
58(4) . . .
56(4) . . .
59(4) . . .
57(4) . . .
61(4) . . .
67(4) . . .
57(4) . . .
57(4) . . .
51(4) . . .
55(4) . . .
72(5) . . .
43.5(34) . . .
46(4) . . .
54(4) . . .
55(4) . . .
60(4) . . .
59(4) . . .
60(4) . . .
57(4) . . .
55(4) . . .
52(4) . . .
52(4) . . .
57(4) . . .
60(4) . . .
55(4) . . .
54(4) . . .
57(4) . . .
61(4) . . .
55(4) . . .
66(4) . . .
70(5) . . .
62(4) . . .
58(4) . . .
65(4) . . .
63(4) . . .
55(4) . . .
58(4) . . .
60(4) . . .
60(4) . . .
57(4) . . .
55(4) . . .
55(4) . . .
60(4) . . .
65(4) . . .
58(4) . . .
60(4) . . .
57(4) . . .
61(4) . . .
67(4) . . .
65(4) . . .
60(4) . . .
60(4) . . .
61(4) . . .
56(4) . . .
66(4) . . .
59(4) . . .
59(4) . . .
57(4) . . .
65(4) . . .
58(4) . . .
56(4) . . .
78(5) . . .
61(4) . . .
55(4) . . .
52(4) . . .
67(4) . . .
62(4) . . .
51(4) . . .
59(4) . . .
65(4) . . .
61(4) . . .
69(4) . . .
65(4) . . .
58(4) . . .
52(4) . . .
62(4) . . .
64(4) . . .
69(5) . . .
62(4) . . .
69(5) . . .
71(4) . . .
64(4) . . .
60(4) . . .
61(4) . . .
57(4) . . .
66(4) . . .
69(4) . . .
64(4) . . .
64(4) . . .
58(4) . . .
64(4) . . .
65(4) . . .
58(4) . . .
54(4) . . .
55(4) . . .
60(4) . . .
51(4) . . .
56(4) . . .
62(4) . . .
64(4) . . .
64(4) . . .
57(4) . . .
68(5) . . .
58(4) . . .
62(4) . . .
56(4) . . .
54(4) . . .
56(4) . . .
59(4) . . .
54(4) . . .
55(4) . . .
67(5) . . .
67(5) . . .
53(4) . . .
65(4) . . .
65(4) . . .
54(4) . . .
55(4) . . .
56(4) . . .
62(4) . . .
63(4) . . .
54(4) . . .
58(4) . . .
57(4) . . .
70(4) . . .
51(4) . . .
54(4) . . .
67(5) . . .
64(4) . . .
68(4) . . .
51(4) . . .
62(4) . . .
61(4) . . .
63(4) . . .
50(4) . . .
57(4) . . .
62(4) . . .
62(4) . . .
61(4) . . .
57(4) . . .
54(4) . . .
61(4) . . .
57(4) . . .
54(4) . . .
57(4) . . .
66(4) . . .
60(4) . . .
55(4) . . .
61(4) . . .
50(4) . . .
73(5) . . .
63(5) . . .
55(4) . . .
60(4) . . .
64(4) . . .
66(4) . . .
65(4) . . .
54(4) . . .
60(4) . . .
60(4) . . .
63(4) . . .
67(4) . . .
58(4) . . .
54(4) . . .
61(4) . . .
55(4) . . .
59(4) . . .
51(4) . . .
48(4) . . .
69(4) . . .
54(4) . . .
64(4) . . .
61(4) . . .
55(4) . . .
62(4) . . .
64(4) . . .
70(5) . . .
71(5) . . .
73(4) . . .
63(4) . . .
57(4) . . .
54(4) . . .
64(4) . . .
58(4) . . .
61(4) . . .
52(4) . . .
61(4) . . .
60(4) . . .
53(4) . . .
57(4) . . .
61(4) . . .
74(5) . . .
60(4) . . .
65(4) . . .
67(4) . . .
61(4) . . .
65(4) . . .
73(4) . . .
63(4) . . .
63(4) . . .
60(4) . . .
61(4) . . .
65(4) . . .
69(4) . . .
53(4) . . .
63(4) . . .
64(4) . . .
54(4) . . .
63(4) . . .
62(4) . . .
67(5) . . .
61(4) . . .
68(4) . . .
59(4) . . .
58(4) . . .
60(4) . . .
66(5) . . .
54(4) . . .
61(4) . . .
57(4) . . .
61(4) . . .
64(4) . . .
68(4) . . .
62(4) . . .
58(4) . . .
46(4) . . .
58(4) . . .
62(4) . . .
73(4) . . .
57(4) . . .
49(4) . . .
65(4) . . .
59(4) . . .
62(4) . . .
66(5) . . .
59(4) . . .
65(5) . . .
61(4) . . .
67(4) . . .
66(4) . . .
75(5) . . .
48(4) . . .
62(4) . . .
54(4) . . .
56(4) . . .
71(5) . . .
64(4) . . .
47(4) . . .
38.9(34) . . .
60(4) . . .
55(4) . . .
58(4) . . .
50(4) . . .
57(4) . . .
61(4) . . .
45(4) . . .
62(4) . . .
50(4) . . .
55(4) . . .
55(4) . . .
52(4) . . .
57(4) . . .
54(4) . . .
65(4) . . .
69(5) . . .
68(4) . . .
65(4) . . .
69(4) . . .
64(4) . . .
70(5) . . .
63(4) . . .
57(4) . . .
54(4) . . .
52(4) . . .
55(4) . . .
40.1(34) . . .
60(4) . . .
53(4) . . .
57(4) . . .
72(5) . . .
49(4) . . .
56(4) . . .
66(4) . . .
52(4) . . .
65(5) . . .
54(4) . . .
58(4) . . .
62(4) . . .
57(4) . . .
56(4) . . .
60(4) . . .
58(4) . . .
58(4) . . .
62(4) . . .
61(4) . . .
67(4) . . .
62(4) . . .
62(4) . . .
75(5) . . .
55(4) . . .
56(4) . . .
59(4) . . .
67(4) . . .
60(4) . . .
58(4) . . .
68(4) . . .
57(4) . . .
50(4) . . .
63(4) . . .
61(4) . . .
65(4) . . .
56(4) . . .
57(4) . . .
61(4) . . .
60(4) . . .
54(4) . . .
62(4) . . .
58(4) . . .
56(4) . . .
52(4) . . .
58(4) . . .
49(4) . . .
56(4) . . .
58(4) . . .
57(4) . . .
57(4) . . .
48(4) . . .
67(4) . . .
71(5) . . .
56(4) . . .
59(4) . . .
54(4) . . .
64(4) . . .
58(4) . . .
58(4) . . .
59(4) . . .
47(4) . . .
53(4) . . .
53(4) . . .
63(4) . . .
43.7(35) . . .
62(4) . . .
63(4) . . .
69(5) . . .
62(4) . . .
64(4) . . .
57(4) . . .
65(5) . . .
60(4) . . .
63(4) . . .
64(4) . . .
53(4) . . .
58(4) . . .
53(4) . . .
52(4) . . .
56(4) . . .
67(4) . . .
67(5) . . .
57(4) . . .
58(4) . . .
58(4) . . .
63(4) . . .
62(4) . . .
56(4) . . .
54(4) . . .
65(4) . . .
64(4) . . .
57(4) . . .
64(4) . . .
59(4) . . .
62(4) . . .
51(4) . . .
66(4) . . .
57(4) . . .
54(4) . . .
51(4) . . .
62(4) . . .
49(4) . . .
51(4) . . .
59(4) . . .
58(4) . . .
63(4) . . .
72(5) . . .
56(4) . . .
64(4) . . .
68(4) . . .
56(4) . . .
50(4) . . .
56(4) . . .
61(4) . . .
57(4) . . .
74(5) . . .
61(4) . . .
59(4) . . .
64(4) . . .
55(4) . . .
60(4) . . .
57(4) . . .
63(4) . . .
61(4) . . .
53(4) . . .
61(4) . . .
65(4) . . .
48(4) . . .
48(4) . . .
53(4) . . .
63(5) . . .
65(5) . . .
61(4) . . .
52(4) . . .
67(5) . . .
59(4) . . .
62(4) . . .
61(4) . . .
69(4) . . .
69(5) . . .
58(4) . . .
62(4) . . .
75(5) . . .
60(4) . . .
57(4) . . .
65(5) . . .
52(4) . . .
56(4) . . .
61(4) . . .
58(4) . . .
50(4) . . .
67(5) . . .
56(4) . . .
58(4) . . .
61(4) . . .
53(4) . . .
59(4) . . .
61(4) . . .
57(4) . . .
54(4) . . .
53(4) . . .
56(4) . . .
58(4) . . .
64(4) . . .
72(5) . . .
51(4) . . .
56(4) . . .
66(4) . . .
49(4) . . .
58(4) . . .
50(4) . . .
59(4) . . .
61(4) . . .
63(4) . . .
57(4) . . .
54(4) . . .
48(4) . . .
68(4) . . .
57(4) . . .
53(4) . . .
55(4) . . .
57(4) . . .
59(4) . . .
61(4) . . .
65(5) . . .
53(4) . . .
58(4) . . .
66(4) . . .
73(5) . . .
65(5) . . .
62(4) . . .
52(4) . . .
65(4) . . .
61(4) . . .
60(4) . . .
63(4) . . .
62(4) . . .
59(4) . . .
52(4) . . .
49(4) . . .
65(4) . . .
56(4) . . .
65(4) . . .
65(4) . . .
64(4) . . .
65(4) . . .
48(4) . . .
63(4) . . .
60(4) . . .
59(4) . . .
49(4) . . .
53(4) . . .
64(4) . . .
58(4) . . .
60(4) . . .
55(4) . . .
57(4) . . .
63(4) . . .
59(4) . . .
64(4) . . .
73(4) . . .
48(4) . . .
54(4) . . .
61(4) . . .
55(4) . . .
64(4) . . .
66(4) . . .
63(4) . . .
53(4) . . .
66(4) . . .
55(4) . . .
68(4) . . .
54(4) . . .
63(4) . . .
71(5) . . .
59(4) . . .
55(4) . . .
50(4) . . .
54(4) . . .
61(4) . . .
55(4) . . .
60(4) . . .
54(4) . . .
59(4) . . .
47(4) . . .
61(4) . . .
66(4) . . .
60(4) . . .
53(4) . . .
61(4) . . .
60(4) . . .
62(4) . . .
67(4) . . .
53(4) . . .
49(4) . . .
67(4) . . .
54(4) . . .
56(4) . . .
56(4) . . .
60(4) . . .
59(4) . . .
59(4) . . .
59(4) . . .
59(4) . . .
64(4) . . .
61(4) . . .
52(4) . . .
57(4) . . .
72(5) . . .
56(4) . . .
64(4) . . .
59(4) . . .
58(4) . . .
63(4) . . .
64(4) . . .
54(4) . . .
54(4) . . .
57(4) . . .
55(4) . . .
66(4) . . .
77(5) . . .
60(4) . . .
58(4) . . .
44(4) . . .
59(4) . . .
48(4) . . .
60(4) . . .
62(4) . . .
59(4) . . .
63(4) . . .
55(4) . . .
60(4) . . .
51(4) . . .
61(4) . . .
57(4) . . .
54(4) . . .
55(4) . . .
50(4) . . .
49(4) . . .
66(4) . . .
58(4) . . .
63(4) . . .
63(4) . . .
56(4) . . .
57(4) . . .
57(4) . . .
60(4) . . .
60(4) . . .
65(4) . . .
66(4) . . .
65(4) . . .
56(4) . . .
53(4) . . .
57(4) . . .
58(4) . . .
64(4) . . .
59(4) . . .
54(4) . . .
59(4) . . .
56(4) . . .
52(4) . . .
66(5) . . .
61(4) . . .
53(4) . . .
57(4) . . .
65(4) . . .
60(4) . . .
51(4) . . .
53(4) . . .
60(4) . . .
61(4) . . .
51(4) . . .
55(4) . . .
64(4) . . .
65(4) . . .
61(4) . . .
52(4) . . .
63(4) . . .
65(4) . . .
43.0(34) . . .
64(5) . . .
57(4) . . .
54(4) . . .
52(4) . . .
62(4) . . .
63(4) . . .
59(4) . . .
53(4) . . .
55(4) . . .
45(4) . . .
57(4) . . .
63(4) . . .
63(4) . . .
64(4) . . .
60(4) . . .
58(4) . . .
58(4) . . .
63(4) . . .
54(4) . . .
54(4) . . .
57(4) . . .
53(4) . . .
76(5) . . .
54(4) . . .
57(4) . . .
62(4) . . .
54(4) . . .
58(4) . . .
69(4) . . .
59(4) . . .
52(4) . . .
60(4) . . .
56(4) . . .
63(4) . . .
56(4) . . .
57(4) . . .
62(4) . . .
64(4) . . .
60(4) . . .
59(4) . . .
65(4) . . .
55(4) . . .
58(4) . . .
55(4) . . .
70(5) . . .
62(4) . . .
60(4) . . .
53(4) . . .
58(4) . . .
67(5) . . .
54(4) . . .
58(4) . . .
68(4) . . .
72(5) . . .
66(4) . . .
73(5) . . .
61(4) . . .
59(4) . . .
71(4) . . .
57(4) . . .
57(4) . . .
69(4) . . .
60(4) . . .
57(4) . . .
53(4) . . .
60(4) . . .
55(4) . . .
55(4) . . .
60(4) . . .
62(4) . . .
55(4) . . .
52(4) . . .
53(4) . . .
56(4) . . .
60(4) . . .
58(4) . . .
54(4) . . .
55(4) . . .
56(4) . . .
60(4) . . .
50(4) . . .
67(4) . . .
58(4) . . .
50(4) . . .
54(4) . . .
53(4) . . .
61(4) . . .
65(4) . . .
65(4) . . .
54(4) . . .
59(4) . . .
58(4) . . .
51(4) . . .
55(4) . . .
61(5) . . .
63(4) . . .
56(4) . . .
63(4) . . .
51(4) . . .
58(4) . . .
57(4) . . .
68(4) . . .
52(4) . . .
54(4) . . .
61(4) . . .
58(4) . . .
59(4) . . .
56(4) . . .
71(4) . . .
62(4) . . .
65(4) . . .
61(4) . . .
58(4) . . .
65(4) . . .
53(4) . . .
55(4) . . .
71(4) . . .
56(4) . . .
56(4) . . .
56(4) . . .
59(4) . . .
55(4) . . .
64(4) . . .
56(4) . . .
49(4) . . .
58(4) . . .
53(4) . . .
57(4) . . .
60(4) . . .
53(4) . . .
58(4) . . .
62(4) . . .
51(4) . . .
49(4) . . .
49(4) . . .
62(4) . . .
55(4) . . .
52(4) . . .
51(4) . . .
50(4) . . .
51(4) . . .
59(4) . . .
53(4) . . .
59(4) . . .
49(4) . . .
51(4) . . .
58(4) . . .
60(4) . . .
62(4) . . .
49(4) . . .
55(4) . . .
62(4) . . .
65(4) . . .
65(4) . . .
64(4) . . .
54(4) . . .
65(4) . . .
67(5) . . .
59(4) . . .
46(4) . . .
63(4) . . .
44.8(34) . . .
59(4) . . .
55(4) . . .
54(4) . . .
55(4) . . .
53(4) . . .
65(4) . . .
54(4) . . .
58(4) . . .
44(4) . . .
58(4) . . .
42.2(34) . . .
55(4) . . .
59(4) . . .
55(4) . . .
58(4) . . .
70(4) . . .
61(4) . . .
52(4) . . .
56(4) . . .
45(4) . . .
59(4) . . .
59(4) . . .
55(4) . . .
57(4) . . .
63(4) . . .
64(4) . . .
52(4) . . .
46(4) . . .
55(4) . . .
59(4) . . .
58(4) . . .
62(4) . . .
54(4) . . .
54(4) . . .
59(4) . . .
49(4) . . .
57(4) . . .
50(4) . . .
47(4) . . .
55(4) . . .
75(5) . . .
61(4) . . .
58(4) . . .
62(4) . . .
56(4) . . .
63(4) . . .
53(4) . . .
60(4) . . .
74(4) . . .
66(4) . . .
62(4) . . .
62(4) . . .
56(4) . . .
57(4) . . .
56(4) . . .
55(4) . . .
50(4) . . .
64(4) . . .
65(4) . . .
55(4) . . .
53(4) . . .
62(4) . . .
56(4) . . .
56(4) . . .
57(4) . . .
63(4) . . .
57(4) . . .
60(4) . . .
61(4) . . .
67(4) . . .
59(4) . . .
50(4) . . .
39.1(33) . . .
48(4) . . .
66(4) . . .
56(4) . . .
68(4) . . .
55(4) . . .
63(4) . . .
67(5) . . .
56(4) . . .
54(4) . . .
53(4) . . .
52(4) . . .
55(4) . . .
49(4) . . .
63(4) . . .
55(4) . . .
66(4) . . .
57(4) . . .
64(4) . . .
52(4) . . .
56(4) . . .
56(4) . . .
63(4) . . .
52(4) . . .
59(4) . . .
63(4) . . .
62(4) . . .
59(4) . . .
61(4) . . .
52(4) . . .
52(4) . . .
64(5) . . .
55(4) . . .
70(5) . . .
55(4) . . .
57(4) . . .
58(4) . . .
56(4) . . .
64(4) . . .
53(4) . . .
57(4) . . .
50(4) . . .
57(4) . . .
57(4) . . .
47(4) . . .
59(4) . . .
51(4) . . .
55(4) . . .
57(4) . . .
61(4) . . .
58(4) . . .
70(4) . . .
66(4) . . .
60(4) . . .
51(4) . . .
66(4) . . .
50(4) . . .
62(4) . . .
63(4) . . .
60(4) . . .
63(4) . . .
57(4) . . .
60(4) . . .
52(4) . . .
61(4) . . .
53(4) . . .
46(4) . . .
66(4) . . .
54(4) . . .
49(4) . . .
58(4) . . .
53(4) . . .
61(5) . . .
65(4) . . .
60(4) . . .
55(4) . . .
63(4) . . .
54(4) . . .
64(4) . . .
57(4) . . .
47(4) . . .
58(4) . . .
55(4) . . .
57(4) . . .
61(4) . . .
70(5) . . .
62(4) . . .
65(4) . . .
58(4) . . .
54(4) . . .
49(4) . . .
67(5) . . .
63(4) . . .
69(4) . . .
51(4) . . .
61(4) . . .
61(4) . . .
59(4) . . .
62(4) . . .
56(4) . . .
63(4) . . .
51(4) . . .
56(4) . . .
70(4) . . .
60(4) . . .
58(4) . . .
54(4) . . .
50(4) . . .
61(4) . . .
61(4) . . .
53(4) . . .
62(4) . . .
57(4) . . .
56(4) . . .
67(4) . . .
63(4) . . .
59(4) . . .
54(4) . . .
53(4) . . .
59(4) . . .
52(4) . . .
51(4) . . .
59(4) . . .
53(4) . . .
61(4) . . .
47(4) . . .
59(4) . . .
55(4) . . .
54(4) . . .
56(4) . . .
54(4) . . .
61(4) . . .
58(4) . . .
53(4) . . .
55(4) . . .
51(4) . . .
57(4) . . .
47(4) . . .
53(4) . . .
54(4) . . .
66(4) . . .
57(4) . . .
57(4) . . .
58(4) . . .
53(4) . . .
66(5) . . .
55(4) . . .
58(4) . . .
56(4) . . .
56(4) . . .
58(4) . . .
59(4) . . .
62(4) . . .
51(4) . . .
55(4) . . .
57(4) . . .
56(4) . . .
55(4) . . .
53(4) . . .
55(4) . . .
61(4) . . .
67(4) . . .
50(4) . . .
53(4) . . .
49(4) . . .
55(4) . . .
54(4) . . .
55(4) . . .
51(4) . . .
61(5) . . .
55(4) . . .
53(4) . . .
64(4) . . .
57(4) . . .
61(4) . . .
62(4) . . .
64(4) . . .
58(4) . . .
51(4) . . .
59(4) . . .
59(4) . . .
64(4) . . .
64(4) . . .
64(4) . . .
52(4) . . .
64(4) . . .
63(4) . . .
62(4) . . .
51(4) . . .
51(4) . . .
49(4) . . .
58(4) . . .
52(4) . . .
56(4) . . .
52(4) . . .
40(4) . . .
59(4) . . .
58(4) . . .
51(4) . . .
54(4) . . .
48(4) . . .
61(4) . . .
51(4) . . .
59(4) . . .
53(4) . . .
67(5) . . .
72(4) . . .
66(4) . . .
69(4) . . .
62(4) . . .
57(4) . . .
58(4) . . .
66(4) . . .
57(4) . . .
55(4) . . .
57(4) . . .
60(4) . . .
62(4) . . .
53(4) . . .
64(4) . . .
59(4) . . .
58(4) . . .
53(4) . . .
50(4) . . .
63(5) . . .
62(4) . . .
56(4) . . .
58(4) . . .
59(4) . . .
57(4) . . .
66(4) . . .
64(4) . . .
51(4) . . .
48(4) . . .
62(4) . . .
47(4) . . .
66(4) . . .
58(4) . . .
70(5) . . .
65(4) . . .
50(4) . . .
57(4) . . .
56(4) . . .
55(4) . . .
62(4) . . .
62(4) . . .
58(4) . . .
62(4) . . .
55(4) . . .
53(4) . . .
61(4) . . .
58(4) . . .
63(4) . . .
51(4) . . .
40.5(32) . . .
51(4) . . .
57(4) . . .
65(5) . . .
63(4) . . .
64(4) . . .
58(4) . . .
54(4) . . .
51(4) . . .
52(4) . . .
52(4) . . .
66(4) . . .
60(4) . . .
53(4) . . .
60(4) . . .
63(4) . . .
52(4) . . .
55(4) . . .
55(4) . . .
67(4) . . .
53(4) . . .
56(4) . . .
57(4) . . .
62(4) . . .
57(4) . . .
59(4) . . .
60(4) . . .
66(5) . . .
61(5) . . .
48(4) . . .
70(4) . . .
53(4) . . .
59(4) . . .
56(4) . . .
64(4) . . .
53(4) . . .
61(4) . . .
54(4) . . .
60(4) . . .
57(4) . . .
59(4) . . .
52(4) . . .
60(4) . . .
63(4) . . .
59(4) . . .
60(4) . . .
53(4) . . .
52(4) . . .
57(4) . . .
46(4) . . .
51(4) . . .
66(5) . . .
54(4) . . .
67(5) . . .
58(4) . . .
52(4) . . .
59(4) . . .
64(5) . . .
60(4) . . .
62(4) . . .
56(4) . . .
52(4) . . .
54(4) . . .
56(4) . . .
59(4) . . .
64(4) . . .
55(4) . . .
54(4) . . .
52(4) . . .
67(4) . . .
76(4) . . .
57(4) . . .
64(5) . . .
50(4) . . .
59(4) . . .
65(4) . . .
53(4) . . .
55(4) . . .
53(4) . . .
52(4) . . .
56(4) . . .
50(4) . . .
51(4) . . .
52(4) . . .
53(4) . . .
44.4(34) . . .
59(4) . . .
47(4) . . .
46(4) . . .
63(4) . . .
64(4) . . .
50(4) . . .
50(4) . . .
53(4) . . .
44.7(34) . . .
46(4) . . .
57(4) . . .
54(4) . . .
50(4) . . .
50(4) . . .
60(4) . . .
46(4) . . .
47(4) . . .
59(4) . . .
50(4) . . .
60(4) . . .
62(4) . . .
53(4) . . .
54(4) . . .
53(4) . . .
42.7(34) . . .
59(4) . . .
61(4) . . .
52(4) . . .
57(4) . . .
49(4) . . .
48(4) . . .
56(4) . . .
47(4) . . .
50(4) . . .
61(4) . . .
71(5) . . .
62(4) . . .
59(4) . . .
53(4) . . .
62(4) . . .
71(5) . . .
56(4) . . .
47(4) . . .
66(4) . . .
62(4) . . .
54(4) . . .
53(4) . . .
57(4) . . .
62(4) . . .
54(4) . . .
60(4) . . .
49(4) . . .
49(4) . . .
60(4) . . .
58(4) . . .
58(4) . . .
59(4) . . .
71(4) . . .
54(4) . . .
60(4) . . .
52(4) . . .
48(4) . . .
60(4) . . .
60(4) . . .
47(4) . . .
55(4) . . .
47(4) . . .
52(4) . . .
51(4) . . .
62(4) . . .
54(4) . . .
55(4) . . .
60(4) . . .
52(4) . . .
63(4) . . .
64(4) . . .
60(4) . . .
64(4) . . .
66(4) . . .
63(4) . . .
61(4) . . .
53(4) . . .
52(4) . . .
58(4) . . .
60(4) . . .
52(4) . . .
46(4) . . .
44.7(35) . . .
55(4) . . .
51(4) . . .
52(4) . . .
48(4) . . .
53(4) . . .
58(4) . . .
59(4) . . .
52(4) . . .
45.6(35) . . .
66(4) . . .
53(4) . . .
61(5) . . .
56(4) . . .
53(4) . . .
57(4) . . .
66(4) . . .
60(4) . . .
53(4) . . .
44.4(35) . . .
52(4) . . .
47(4) . . .
59(4) . . .
59(4) . . .
57(4) . . .
52(4) . . .
48(4) . . .
62(4) . . .
59(4) . . .
59(4) . . .
58(4) . . .
57(4) . . .
56(4) . . .
58(4) . . .
64(4) . . .
68(4) . . .
50(4) . . .
65(4) . . .
48(4) . . .
43(4) . . .
54(4) . . .
66(4) . . .
56(4) . . .
59(4) . . .
56(4) . . .
60(4) . . .
55(4) . . .
47(4) . . .
66(4) . . .
60(4) . . .
59(4) . . .
59(4) . . .
55(4) . . .
62(4) . . .
57(4) . . .
63(4) . . .
54(4) . . .
52(4) . . .
55(4) . . .
40.7(35) . . .
55(4) . . .
56(4) . . .
54(4) . . .
50(4) . . .
56(4) . . .
58(4) . . .
58(4) . . .
51(4) . . .
52(4) . . .
58(4) . . .
49(4) . . .
61(4) . . .
62(4) . . .
51(4) . . .
58(4) . . .
52(4) . . .
64(4) . . .
53(4) . . .
55(4) . . .
59(4) . . .
53(4) . . .
51(4) . . .
56(4) . . .
67(5) . . .
52(4) . . .
59(4) . . .
57(4) . . .
56(4) . . .
54(4) . . .
43.2(35) . . .
56(4) . . .
58(4) . . .
52(4) . . .
59(4) . . .
61(4) . . .
54(4) . . .
56(4) . . .
56(4) . . .
49(4) . . .
53(4) . . .
52(4) . . .
48(4) . . .
54(4) . . .
53(4) . . .
51(4) . . .
55(4) . . .
57(4) . . .
61(4) . . .
57(4) . . .
59(4) . . .
53(4) . . .
56(4) . . .
61(4) . . .
46(4) . . .
58(4) . . .
61(4) . . .
49(4) . . .
53(4) . . .
55(4) . . .
56(4) . . .
50(4) . . .
47(4) . . .
60(4) . . .
58(4) . . .
48(4) . . .
58(4) . . .
58(4) . . .
48(4) . . .
50(4) . . .
70(4) . . .
57(4) . . .
61(4) . . .
54(4) . . .
64(4) . . .
57(4) . . .
52(4) . . .
69(4) . . .
56(4) . . .
57(4) . . .
56(4) . . .
47(4) . . .
58(4) . . .
56(4) . . .
70(5) . . .
55(4) . . .
52(4) . . .
56(4) . . .
42.3(34) . . .
51(4) . . .
48(4) . . .
59(4) . . .
52(4) . . .
49(4) . . .
58(4) . . .
53(4) . . .
62(4) . . .
54(4) . . .
52(4) . . .
57(4) . . .
48(4) . . .
51(4) . . .
57(4) . . .
52(4) . . .
47(4) . . .
54(4) . . .
56(4) . . .
55(4) . . .
66(4) . . .
60(4) . . .
50(4) . . .
54(4) . . .
50(4) . . .
52(4) . . .
57(4) . . .
54(4) . . .
59(4) . . .
61(4) . . .
48(4) . . .
55(4) . . .
59(4) . . .
63(4) . . .
65(4) . . .
58(4) . . .
64(4) . . .
54(4) . . .
55(4) . . .
50(4) . . .
59(4) . . .
59(4) . . .
56(4) . . .
65(4) . . .
60(4) . . .
54(4) . . .
53(4) . . .
45.2(35) . . .
56(4) . . .
60(4) . . .
59(4) . . .
48(4) . . .
56(4) . . .
53(4) . . .
57(4) . . .
56(4) . . .
60(4) . . .
64(4) . . .
55(4) . . .
56(4) . . .
48(4) . . .
57(4) . . .
53(4) . . .
53(4) . . .
52(4) . . .
48(4) . . .
57(4) . . .
56(4) . . .
63(4) . . .
50(4) . . .
51(4) . . .
54(4) . . .
53(4) . . .
55(4) . . .
55(4) . . .
62(4) . . .
60(4) . . .
62(4) . . .
58(4) . . .
53(4) . . .
56(4) . . .
52(4) . . .
55(4) . . .
54(4) . . .
76(5) . . .
53(4) . . .
60(4) . . .
54(4) . . .
56(4) . . .
59(4) . . .
57(4) . . .
48(4) . . .
55(4) . . .
51(4) . . .
57(4) . . .
55(4) . . .
53(4) . . .
57(4) . . .
55(4) . . .
43.6(34) . . .
63(4) . . .
40.6(34) . . .
59(4) . . .
52(4) . . .
47(4) . . .
57(4) . . .
55(4) . . .
53(4) . . .
60(4) . . .
56(4) . . .
59(4) . . .
67(4) . . .
55(4) . . .
41.3(33) . . .
56(4) . . .
46(4) . . .
53(4) . . .
56(4) . . .
50(4) . . .
61(4) . . .
56(4) . . .
52(4) . . .
64(4) . . .
54(4) . . .
54(4) . . .
60(4) . . .
63(4) . . .
57(4) . . .
60(4) . . .
62(4) . . .
59(4) . . .
55(4) . . .
62(4) . . .
54(4) . . .
53(4) . . .
42.2(34) . . .
62(4) . . .
47(4) . . .
46(4) . . .
49(4) . . .
58(4) . . .
59(4) . . .
58(4) . . .
52(4) . . .
63(4) . . .
64(4) . . .
55(4) . . .
52(4) . . .
46(4) . . .
46(4) . . .
49(4) . . .
60(4) . . .
47(4) . . .
56(4) . . .
54(4) . . .
49(4) . . .
52(4) . . .
64(5) . . .
55(4) . . .
46(4) . . .
61(4) . . .
53(4) . . .
52(4) . . .
56(4) . . .
53(4) . . .
54(4) . . .
47(4) . . .
60(4) . . .
53(4) . . .
50(4) . . .
64(4) . . .
57(4) . . .
57(4) . . .
57(4) . . .
56(4) . . .
49(4) . . .
61(4) . . .
52(4) . . .
66(4) . . .
63(4) . . .
62(4) . . .
73(5) . . .
62(4) . . .
51(4) . . .
55(4) . . .
55(4) . . .
61(4) . . .
59(4) . . .
52(4) . . .
55(4) . . .
52(4) . . .
44(4) . . .
46(4) . . .
53(4) . . .
66(4) . . .
63(4) . . .
49(4) . . .
59(4) . . .
50(4) . . .
52(4) . . .
55(4) . . .
55(4) . . .
60(4) . . .
69(4) . . .
68(4) . . .
61(4) . . .
66(4) . . .
64(4) . . .
48(4) . . .
51(4) . . .
46(4) . . .
60(4) . . .
56(4) . . .
57(4) . . .
63(4) . . .
58(4) . . .
58(4) . . .
53(4) . . .
55(4) . . .
58(4) . . .
52(4) . . .
48(4) . . .
61(4) . . .
50(4) . . .
57(4) . . .
56(4) . . .
56(4) . . .
50(4) . . .
62(4) . . .
59(4) . . .
58(4) . . .
46(4) . . .
64(4) . . .
51(4) . . .
56(4) . . .
52(4) . . .
60(4) . . .
58(4) . . .
62(4) . . .
66(4) . . .
49(4) . . .
57(4) . . .
60(4) . . .
52(4) . . .
51(4) . . .
59(4) . . .
53(4) . . .
52(4) . . .
52(4) . . .
48(4) . . .
70(5) . . .
52(4) . . .
62(4) . . .
65(4) . . .
61(4) . . .
51(4) . . .
53(4) . . .
46(4) . . .
49(4) . . .
55(4) . . .
56(4) . . .
63(4) . . .
65(4) . . .
47(4) . . .
55(4) . . .
56(4) . . .
66(4) . . .
51(4) . . .
57(4) . . .
55(4) . . .
59(4) . . .
56(4) . . .
51(4) . . .
58(4) . . .
46(4) . . .
48(4) . . .
50(4) . . .
57(4) . . .
53(4) . . .
61(4) . . .
50(4) . . .
46(4) . . .
53(4) . . .
52(4) . . .
59(4) . . .
62(4) . . .
61(4) . . .
51(4) . . .
63(4) . . .
52(4) . . .
63(4) . . .
56(4) . . .
56(4) . . .
49(4) . . .
53(4) . . .
55(4) . . .
59(4) . . .
57(4) . . .
52(4) . . .
52(4) . . .
60(4) . . .
59(4) . . .
61(4) . . .
58(4) . . .
53(4) . . .
43.7(35) . . .
49(4) . . .
55(4) . . .
53(4) . . .
52(4) . . .
53(4) . . .
61(4) . . .
52(4) . . .
61(4) . . .
59(4) . . .
54(4) . . .
56(4) . . .
55(4) . . .
54(4) . . .
51(4) . . .
52(4) . . .
50(4) . . .
52(4) . . .
61(4) . . .
61(4) . . .
59(4) . . .
57(4) . . .
64(5) . . .
46(4) . . .
51(4) . . .
50(4) . . .
51(4) . . .
48(4) . . .
51(4) . . .
55(4) . . .
43.4(34) . . .
54(4) . . .
52(4) . . .
49(4) . . .
55(4) . . .
49(4) . . .
59(4) . . .
52(4) . . .
58(4) . . .
60(4) . . .
51(4) . . .
53(4) . . .
50(4) . . .
45(4) . . .
57(4) . . .
54(4) . . .
52(4) . . .
57(4) . . .
53(4) . . .
62(4) . . .
54(4) . . .
49(4) . . .
49(4) . . .
49(4) . . .
47(4) . . .
65(4) . . .
62(4) . . .
59(4) . . .
48(4) . . .
52(4) . . .
58(4) . . .
59(4) . . .
54(4) . . .
47(4) . . .
68(4) . . .
52(4) . . .
54(4) . . .
51(4) . . .
53(4) . . .
59(4) . . .
55(4) . . .
57(4) . . .
61(4) . . .
53(4) . . .
51(4) . . .
52(4) . . .
51(4) . . .
52(4) . . .
59(4) . . .
62(4) . . .
67(4) . . .
56(4) . . .
54(4) . . .
62(4) . . .
71(4) . . .
54(4) . . .
49(4) . . .
55(4) . . .
46(4) . . .
53(4) . . .
63(4) . . .
52(4) . . .
57(4) . . .
50(4) . . .
56(4) . . .
62(4) . . .
62(4) . . .
61(4) . . .
59(4) . . .
63(4) . . .
53(4) . . .
54(4) . . .
66(5) . . .
56(4) . . .
58(4) . . .
53(4) . . .
52(4) . . .
53(4) . . .
56(4) . . .
66(4) . . .
61(4) . . .
57(4) . . .
45(4) . . .
58(4) . . .
51(4) . . .
50(4) . . .
53(4) . . .
51(4) . . .
50(4) . . .
50(4) . . .
50(4) . . .
48(4) . . .
50(4) . . .
52(4) . . .
58(4) . . .
53(4) . . .
61(4) . . .
53(4) . . .
52(4) . . .
55(4) . . .
62(4) . . .
66(4) . . .
66(4) . . .
59(4) . . .
69(4) . . .
49(4) . . .
55(4) . . .
59(4) . . .
54(4) . . .
54(4) . . .
54(4) . . .
55(4) . . .
52(4) . . .
50(4) . . .
48(4) . . .
55(4) . . .
56(4) . . .
50(4) . . .
45.5(35) . . .
48(4) . . .
49(4) . . .
59(4) . . .
46(4) . . .
56(4) . . .
66(4) . . .
52(4) . . .
60(4) . . .
53(4) . . .
54(4) . . .
52(4) . . .
73(5) . . .
66(5) . . .
56(4) . . .
58(4) . . .
41.7(34) . . .
58(4) . . .
57(4) . . .
47(4) . . .
54(4) . . .
50(4) . . .
48(4) . . .
55(4) . . .
50(4) . . .
42.9(34) . . .
53(4) . . .
55(4) . . .
58(4) . . .
62(4) . . .
55(4) . . .
61(4) . . .
52(4) . . .
53(4) . . .
47(4) . . .
52(4) . . .
49(4) . . .
60(4) . . .
46(4) . . .
45.6(35) . . .
60(4) . . .
51(4) . . .
57(4) . . .
53(4) . . .
57(4) . . .
57(4) . . .
53(4) . . .
51(4) . . .
42.5(33) . . .
60(4) . . .
50(4) . . .
53(4) . . .
62(4) . . .
59(4) . . .
46(4) . . .
51(4) . . .
47(4) . . .
44(4) . . .
46(4) . . .
58(4) . . .
51(4) . . .
57(4) . . .
54(4) . . .
42.8(35) . . .
49(4) . . .
51(4) . . .
51(4) . . .
55(4) . . .
59(4) . . .
53(4) . . .
53(4) . . .
52(4) . . .
50(4) . . .
48(4) . . .
46(4) . . .
50(4) . . .
55(4) . . .
55(4) . . .
55(4) . . .
55(4) . . .
55(4) . . .
54(4) . . .
57(4) . . .
52(4) . . .
53(4) . . .
51(4) . . .
49(4) . . .
57(4) . . .
58(4) . . .
58(4) . . .
53(4) . . .
59(4) . . .
64(4) . . .
44.3(35) . . .
57(4) . . .
58(4) . . .
61(4) . . .
55(4) . . .
59(4) . . .
56(4) . . .
53(4) . . .
51(4) . . .
57(4) . . .
60(4) . . .
53(4) . . .
51(4) . . .
51(4) . . .
58(4) . . .
61(4) . . .
57(4) . . .
58(4) . . .
43.4(34) . . .
52(4) . . .
49(4) . . .
50(4) . . .
48(4) . . .
47(4) . . .
46(4) . . .
42.5(34) . . .
44(4) . . .
59(4) . . .
58(4) . . .
54(4) . . .
55(4) . . .
60(4) . . .
53(4) . . .
59(4) . . .
53(4) . . .
52(4) . . .
62(4) . . .
47(4) . . .
47(4) . . .
56(4) . . .
61(4) . . .
56(4) . . .
54(4) . . .
56(4) . . .
40.7(32) . . .
62(4) . . .
54(4) . . .
51(4) . . .
41.6(35) . . .
57(4) . . .
54(4) . . .
55(4) . . .
54(4) . . .
47(4) . . .
52(4) . . .
51(4) . . .
54(4) . . .
54(4) . . .
58(4) . . .
57(4) . . .
60(4) . . .
62(4) . . .
57(4) . . .
52(4) . . .
45(4) . . .
43.7(34) . . .
47(4) . . .
56(4) . . .
42.6(35) . . .
47(4) . . .
46(4) . . .
51(4) . . .
53(4) . . .
51(4) . . .
48(4) . . .
49(4) . . .
58(4) . . .
64(4) . . .
56(4) . . .
50(4) . . .
53(4) . . .
53(4) . . .
55(4) . . .
57(4) . . .
52(4) . . .
45(4) . . .
50(4) . . .
50(4) . . .
51(4) . . .
41.5(34) . . .
49(4) . . .
54(4) . . .
51(4) . . .
53(4) . . .
54(4) . . .
58(4) . . .
48(4) . . .
53(4) . . .
54(4) . . .
57(4) . . .
40.0(34) . . .
54(4) . . .
49(4) . . .
50(4) . . .
52(4) . . .
56(4) . . .
54(4) . . .
54(4) . . .
56(4) . . .
56(4) . . .
61(4) . . .
47(4) . . .
51(4) . . .
49(4) . . .
45(4) . . .
48(4) . . .
53(4) . . .
55(4) . . .
56(4) . . .
48(4) . . .
51(4) . . .
52(4) . . .
40.4(34) . . .
44.4(35) . . .
54(4) . . .
55(4) . . .
47(4) . . .
53(4) . . .
57(4) . . .
51(4) . . .
62(4) . . .
51(4) . . .
43.5(35) . . .
54(4) . . .
51(4) . . .
49(4) . . .
53(4) . . .
48(4) . . .
51(4) . . .
55(4) . . .
48(4) . . .
54(4) . . .
48(4) . . .
51(4) . . .
53(4) . . .
56(4) . . .
56(4) . . .
52(4) . . .
54(4) . . .
53(4) . . .
53(4) . . .
48(4) . . .
50(4) . . .
53(4) . . .
56(4) . . .
53(4) . . .
49(4) . . .
53(4) . . .
47(4) . . .
47(4) . . .
49(4) . . .
55(4) . . .
48(4) . . .
53(4) . . .
59(4) . . .
40.9(33) . . .
51(4) . . .
53(4) . . .
51(4) . . .
41.6(34) . . .
50(4) . . .
52(4) . . .
51(4) . . .
57(4) . . .
59(4) . . .
63(4) . . .
50(4) . . .
52(4) . . .
53(4) . . .
53(4) . . .
60(4) . . .
56(4) . . .
52(4) . . .
45(4) . . .
58(4) . . .
57(4) . . .
56(4) . . .
61(4) . . .
51(4) . . .
60(4) . . .
57(4) . . .
64(4) . . .
56(4) . . .
63(5) . . .
52(4) . . .
45(4) . . .
50(4) . . .
55(4) . . .
44.9(35) . . .
42.8(35) . . .
56(4) . . .
51(4) . . .
44.5(34) . . .
49(4) . . .
42(4) . . .
48(4) . . .
52(4) . . .
54(4) . . .
56(4) . . .
57(4) . . .
42.6(34) . . .
47(4) . . .
57(4) . . .
49(4) . . .
47(4) . . .
53(4) . . .
55(4) . . .
55(4) . . .
52(4) . . .
52(4) . . .
48(4) . . .
53(4) . . .
58(4) . . .
51(4) . . .
46(4) . . .
55(4) . . .
56(4) . . .
50(4) . . .
48(4) . . .
57(4) . . .
56(4) . . .
50(4) . . .
54(4) . . .
52(4) . . .
55(4) . . .
50(4) . . .
48(4) . . .
53(4) . . .
49(4) . . .
51(4) . . .
51(4) . . .
55(4) . . .
56(4) . . .
49(4) . . .
55(4) . . .
59(4) . . .
58(4) . . .
52(4) . . .
60(4) . . .
50(4) . . .
56(4) . . .
45.1(34) . . .
54(4) . . .
45(4) . . .
50(4) . . .
52(4) . . .
49(4) . . .
53(4) . . .
46(4) . . .
45(4) . . .
56(4) . . .
57(4) . . .
52(4) . . .
41(4) . . .
44(4) . . .
40.2(33) . . .
51(4) . . .
50(4) . . .
54(4) . . .
56(4) . . .
51(4) . . .
51(4) . . .
46(4) . . .
43.5(35) . . .
58(4) . . .
64(4) . . .
57(4) . . .
59(4) . . .
57(4) . . .
57(4) . . .
53(4) . . .
55(4) . . .
57(4) . . .
48(4) . . .
56(4) . . .
52(4) . . .
51(4) . . .
53(4) . . .
58(4) . . .
49(4) . . .
54(4) . . .
57(4) . . .
43.3(34) . . .
49(4) . . .
58(4) . . .
50(4) . . .
43(4) . . .
64(5) . . .
57(4) . . .
47(4) . . .
54(4) . . .
38.3(32) . . .
57(4) . . .
54(4) . . .
45.2(35) . . .
51(4) . . .
45(4) . . .
53(4) . . .
53(4) . . .
50(4) . . .
54(4) . . .
50(4) . . .
50(4) . . .
49(4) . . .
49(4) . . .
55(4) . . .
44(4) . . .
51(4) . . .
52(4) . . .
51(4) . . .
51(4) . . .
48(4) . . .
56(4) . . .
54(4) . . .
59(4) . . .
54(4) . . .
55(4) . . .
62(4) . . .
57(4) . . .
61(4) . . .
58(4) . . .
55(4) . . .
64(4) . . .
51(4) . . .
58(4) . . .
55(4) . . .
44(4) . . .
52(4) . . .
58(4) . . .
57(4) . . .
48(4) . . .
55(4) . . .
53(4) . . .
48(4) . . .
43.9(34) . . .
48(4) . . .
48(4) . . .
57(4) . . .
48(4) . . .
48(4) . . .
58(4) . . .
48(4) . . .
49(4) . . .
51(4) . . .
52(4) . . .
61(4) . . .
41(4) . . .
45(4) . . .
59(4) . . .
48(4) . . .
54(4) . . .
52(4) . . .
52(4) . . .
59(4) . . .
55(4) . . .
48(4) . . .
53(4) . . .
52(4) . . .
43.4(34) . . .
57(4) . . .
51(4) . . .
60(4) . . .
55(4) . . .
59(4) . . .
42.7(34) . . .
52(4) . . .
46(4) . . .
54(4) . . .
51(4) . . .
57(4) . . .
52(4) . . .
53(4) . . .
47(4) . . .
58(4) . . .
47(4) . . .
62(4) . . .
46(4) . . .
43.3(34) . . .
58(4) . . .
36.7(31) . . .
37.5(32) . . .
52(4) . . .
48(4) . . .
46(4) . . .
49(4) . . .
66(5) . . .
45(4) . . .
47(4) . . .
56(4) . . .
42(4) . . .
49(4) . . .
50(4) . . .
55(4) . . .
46(4) . . .
48(4) . . .
58(4) . . .
55(4) . . .
51(4) . . .
57(4) . . .
56(4) . . .
56(4) . . .
56(4) . . .
46(4) . . .
49(4) . . .
49(4) . . .
58(4) . . .
47(4) . . .
53(4) . . .
38.8(32) . . .
41.7(35) . . .
48(4) . . .
52(4) . . .
47(4) . . .
50(4) . . .
52(4) . . .
56(4) . . .
56(4) . . .
55(4) . . .
57(4) . . .
54(4) . . .
51(4) . . .
47(4) . . .
51(4) . . .
44.7(35) . . .
46(4) . . .
52(4) . . .
56(4) . . .
47(4) . . .
48(4) . . .
51(4) . . .
57(5) . . .
60(4) . . .
50(4) . . .
42.4(34) . . .
47(4) . . .
50(4) . . .
49(4) . . .
48(4) . . .
51(4) . . .
52(4) . . .
58(4) . . .
45.4(35) . . .
47(4) . . .
53(4) . . .
63(5) . . .
56(4) . . .
50(4) . . .
45.6(35) . . .
50(4) . . .
50(4) . . .
51(4) . . .
52(4) . . .
58(4) . . .
62(4) . . .
52(4) . . .
47(4) . . .
49(4) . . .
45.1(35) . . .
42.9(35) . . .
43(4) . . .
51(4) . . .
50(4) . . .
52(4) . . .
52(4) . . .
58(4) . . .
48(4) . . .
48(4) . . .
52(4) . . .
58(4) . . .
50(4) . . .
47(4) . . .
47(4) . . .
52(4) . . .
51(4) . . .
52(4) . . .
51(4) . . .
46(4) . . .
52(4) . . .
59(4) . . .
48(4) . . .
51(4) . . .
59(4) . . .
52(4) . . .
52(4) . . .
56(4) . . .
44(4) . . .
54(4) . . .
57(4) . . .
50(4) . . .
56(4) . . .
50(4) . . .
55(4) . . .
49(4) . . .
55(4) . . .
51(4) . . .
52(4) . . .
53(4) . . .
58(4) . . .
55(4) . . .
48(4) . . .
61(4) . . .
59(4) . . .
56(4) . . .
51(4) . . .
60(4) . . .
58(4) . . .
57(4) . . .
44(4) . . .
55(4) . . .
50(4) . . .
50(4) . . .
51(4) . . .
56(4) . . .
52(4) . . .
48(4) . . .
46(4) . . .
47(4) . . .
49(4) . . .
53(4) . . .
48(4) . . .
48(4) . . .
48(4) . . .
55(4) . . .
54(4) . . .
48(4) . . .
61(4) . . .
52(4) . . .
45(4) . . .
59(4) . . .
57(4) . . .
61(4) . . .
47(4) . . .
58(4) . . .
55(4) . . .
47(4) . . .
47(4) . . .
49(4) . . .
42.2(34) . . .
42.5(34) . . .
55(4) . . .
47(4) . . .
54(4) . . .
63(4) . . .
56(4) . . .
49(4) . . .
55(4) . . .
46(4) . . .
42(4) . . .
58(4) . . .
59(4) . . .
44.0(34) . . .
43(4) . . .
55(4) . . .
61(4) . . .
64(4) . . .
64(4) . . .
48(4) . . .
41.6(33) . . .
56(4) . . .
53(4) . . .
52(4) . . .
55(4) . . .
55(4) . . .
56(4) . . .
56(4) . . .
35.8(31) . . .
51(4) . . .
50(4) . . .
56(4) . . .
59(4) . . .
51(4) . . .
49(4) . . .
43(4) . . .
48(4) . . .
50(4) . . .
42.0(35) . . .
48(4) . . .
52(4) . . .
51(4) . . .
58(4) . . .
53(4) . . .
42.7(34) . . .
55(4) . . .
51(4) . . .
59(4) . . .
53(4) . . .
56(4) . . .
49(4) . . .
51(4) . . .
49(4) . . .
59(4) . . .
52(4) . . .
53(4) . . .
41.0(33) . . .
51(4) . . .
43.9(35) . . .
55(4) . . .
56(4) . . .
54(4) . . .
47(4) . . .
53(4) . . .
53(4) . . .
50(4) . . .
50(4) . . .
44(4) . . .
51(4) . . .
51(4) . . .
50(4) . . .
56(4) . . .
48(4) . . .
51(4) . . .
53(4) . . .
52(4) . . .
50(4) . . .
44.0(35) . . .
47(4) . . .
52(4) . . .
50(4) . . .
42.4(34) . . .
51(4) . . .
53(4) . . .
42(4) . . .
44(4) . . .
49(4) . . .
55(4) . . .
53(4) . . .
48(4) . . .
53(4) . . .
51(4) . . .
49(4) . . .
48(4) . . .
48(4) . . .
59(4) . . .
58(4) . . .
53(4) . . .
53(4) . . .
49(4) . . .
55(4) . . .
52(4) . . .
53(4) . . .
55(4) . . .
40.0(34) . . .
46(4) . . .
53(4) . . .
50(4) . . .
51(4) . . .
54(4) . . .
63(4) . . .
54(4) . . .
48(4) . . .
55(4) . . .
49(4) . . .
49(4) . . .
51(4) . . .
56(4) . . .
45(4) . . .
60(4) . . .
56(4) . . .
48(4) . . .
44(4) . . .
50(4) . . .
50(4) . . .
51(4) . . .
48(4) . . .
54(4) . . .
53(4) . . .
50(4) . . .
39.5(33) . . .
53(4) . . .
52(4) . . .
43.9(35) . . .
49(4) . . .
42.3(34) . . .
51(4) . . .
44(4) . . .
49(4) . . .
51(4) . . .
54(4) . . .
48(4) . . .
46(4) . . .
54(4) . . .
56(4) . . .
49(4) . . .
56(4) . . .
58(4) . . .
53(4) . . .
54(4) . . .
50(4) . . .
39.6(34) . . .
51(4) . . .
56(4) . . .
50(4) . . .
52(4) . . .
62(4) . . .
50(4) . . .
58(4) . . .
58(4) . . .
58(4) . . .
55(4) . . .
62(5) . . .
51(4) . . .
58(4) . . .
53(4) . . .
52(4) . . .
51(4) . . .
48(4) . . .
46(4) . . .
38.7(32) . . .
50(4) . . .
48(4) . . .
55(4) . . .
58(4) . . .
57(4) . . .
53(4) . . .
54(4) . . .
51(4) . . .
46(4) . . .
61(4) . . .
55(4) . . .
48(4) . . .
41.4(33) . . .
50(4) . . .
45.7(35) . . .
54(4) . . .
49(4) . . .
58(4) . . .
45(4) . . .
56(4) . . .
55(4) . . .
47(4) . . .
42.3(34) . . .
50(4) . . .
43(4) . . .
53(4) . . .
36.8(33) . . .
52(4) . . .
57(4) . . .
48(4) . . .
50(4) . . .
53(4) . . .
54(4) . . .
43.6(34) . . .
51(4) . . .
51(4) . . .
46(4) . . .
48(4) . . .
51(4) . . .
55(4) . . .
51(4) . . .
48(4) . . .
48(4) . . .
52(4) . . .
55(4) . . .
53(4) . . .
48(4) . . .
48(4) . . .
46(4) . . .
53(4) . . .
43.8(34) . . .
46(4) . . .
52(4) . . .
39.5(33) . . .
55(4) . . .
54(4) . . .
45(4) . . .
50(4) . . .
54(4) . . .
46(4) . . .
43(4) . . .
54(4) . . .
39.0(33) . . .
46(4) . . .
53(4) . . .
47(4) . . .
44(4) . . .
57(4) . . .
52(4) . . .
52(4) . . .
51(4) . . .
49(4) . . .
47(4) . . .
45.2(35) . . .
46(4) . . .
45(4) . . .
48(4) . . .
61(4) . . .
46(4) . . .
54(4) . . .
35.6(31) . . .
43.3(34) . . .
59(4) . . .
56(4) . . .
51(4) . . .
49(4) . . .
46(4) . . .
45(4) . . .
56(4) . . .
53(4) . . .
56(4) . . .
59(4) . . .
56(4) . . .
49(4) . . .
49(4) . . .
44(4) . . .
62(4) . . .
42.5(34) . . .
50(4) . . .
53(4) . . .
52(4) . . .
63(4) . . .
49(4) . . .
50(4) . . .
39.8(35) . . .
39.9(35) . . .
48(4) . . .
56(4) . . .
49(4) . . .
45(4) . . .
45(4) . . .
50(4) . . .
48(4) . . .
48(4) . . .
45(4) . . .
53(4) . . .
52(4) . . .
47(4) . . .
43(4) . . .
53(4) . . .
54(4) . . .
45.2(35) . . .
43.1(35) . . .
51(4) . . .
56(4) . . .
51(4) . . .
43.7(35) . . .
52(4) . . .
48(4) . . .
52(4) . . .
49(4) . . .
44.8(35) . . .
62(4) . . .
51(4) . . .
52(4) . . .
46(4) . . .
44.4(34) . . .
52(4) . . .
45(4) . . .
42(4) . . .
45(4) . . .
46.4(35) . . .
42.1(34) . . .
50(4) . . .
40.8(34) . . .
44.8(35) . . .
56(4) . . .
48(4) . . .
51(4) . . .
46(4) . . .
57(4) . . .
50(4) . . .
50(4) . . .
48(4) . . .
42(4) . . .
48(4) . . .
40.8(33) . . .
53(4) . . .
51(4) . . .
45(4) . . .
61(4) . . .
54(4) . . .
44(4) . . .
50(4) . . .
45(4) . . .
50(4) . . .
54(4) . . .
48(4) . . .
51(4) . . .
51(4) . . .
47(4) . . .
54(4) . . .
57(4) . . .
47(4) . . .
43.1(35) . . .
52(4) . . .
59(4) . . .
51(4) . . .
51(4) . . .
46(4) . . .
44.5(34) . . .
49(4) . . .
46(4) . . .
48(4) . . .
46(4) . . .
47(4) . . .
41.0(35) . . .
45(4) . . .
57(4) . . .
49(4) . . .
52(4) . . .
44.1(35) . . .
45(4) . . .
59(4) . . .
53(4) . . .
41.7(33) . . .
49(4) . . .
58(4) . . .
54(4) . . .
46(4) . . .
51(4) . . .
41.9(34) . . .
45(4) . . .
47(4) . . .
49(4) . . .
43.3(35) . . .
60(4) . . .
42.8(34) . . .
56(4) . . .
39.6(33) . . .
58(4) . . .
48(4) . . .
46(4) . . .
39.8(34) . . .
41.5(34) . . .
50(4) . . .
56(4) . . .
56(4) . . .
45(4) . . .
52(4) . . .
58(4) . . .
55(4) . . .
45.9(35) . . .
44.3(34) . . .
51(4) . . .
40(4) . . .
40(4) . . .
48(4) . . .
50(4) . . .
39.9(33) . . .
43(4) . . .
55(4) . . .
52(4) . . .
50(4) . . .
62(4) . . .
55(4) . . .
51(4) . . .
47(4) . . .
53(4) . . .
41.0(34) . . .
53(4) . . .
49(4) . . .
45(4) . . .
50(4) . . .
46.5(35) . . .
47(4) . . .
46(4) . . .
47(4) . . .
56(4) . . .
45(4) . . .
42.3(34) . . .
43(4) . . .
51(4) . . .
43.3(34) . . .
46.1(35) . . .
52(4) . . .
52(4) . . .
40.3(34) . . .
48(4) . . .
52(4) . . .
51(4) . . .
54(4) . . .
57(4) . . .
53(4) . . .
42.8(34) . . .
56(4) . . .
57(4) . . .
53(4) . . .
45(4) . . .
53(4) . . .
52(4) . . .
55(4) . . .
47(4) . . .
45.8(35) . . .
50(4) . . .
52(4) . . .
51(4) . . .
52(4) . . .
48(4) . . .
43.8(35) . . .
46(4) . . .
44(4) . . .
50(4) . . .
52(4) . . .
48(4) . . .
52(4) . . .
52(4) . . .
51(4) . . .
49(4) . . .
55(4) . . .
50(4) . . .
60(4) . . .
55(4) . . .
45(4) . . .
56(4) . . .
54(4) . . .
49(4) . . .
54(4) . . .
48(4) . . .
51(4) . . .
50(4) . . .
45(4) . . .
50(4) . . .
54(4) . . .
43.2(34) . . .
47(4) . . .
38.3(33) . . .
41.0(33) . . .
46.0(35) . . .
51(4) . . .
50(4) . . .
49(4) . . .
57(4) . . .
50(4) . . .
63(4) . . .
44.1(35) . . .
51(4) . . .
54(4) . . .
49(4) . . .
46(4) . . .
47(4) . . .
50(4) . . .
47(4) . . .
46(4) . . .
44.1(35) . . .
55(4) . . .
45(4) . . .
44.5(35) . . .
43.5(34) . . .
49(4) . . .
49(4) . . .
53(4) . . .
40.3(33) . . .
47(4) . . .
55(4) . . .
46(4) . . .
52(4) . . .
55(4) . . .
50(4) . . .
46(4) . . .
46(4) . . .
55(4) . . .
47(4) . . .
46(4) . . .
44(4) . . .
43(4) . . .
42.6(35) . . .
49(4) . . .
46(4) . . .
51(4) . . .
48(4) . . .
46.5(35) . . .
54(4) . . .
60(4) . . .
51(4) . . .
55(4) . . .
44.9(35) . . .
39.6(33) . . .
48(4) . . .
53(4) . . .
48(4) . . .
56(4) . . .
51(4) . . .
56(4) . . .
46(4) . . .
42.9(35) . . .
41.7(34) . . .
40.7(34) . . .
45(4) . . .
54(4) . . .
55(4) . . .
42.0(34) . . .
44(4) . . .
47(4) . . .
41.3(35) . . .
40.1(35) . . .
57(4) . . .
60(4) . . .
56(4) . . .
52(4) . . .
53(4) . . .
61(4) . . .
55(4) . . .
43(4) . . .
53(4) . . .
43.5(34) . . .
46(4) . . .
56(4) . . .
48(4) . . .
61(4) . . .
47(4) . . .
47(4) . . .
45(4) . . .
38(4) . . .
41(4) . . .
52(4) . . .
55(4) . . .
44(4) . . .
46(4) . . .
49(4) . . .
54(4) . . .
58(4) . . .
49(4) . . .
49(4) . . .
50(4) . . .
54(4) . . .
50(4) . . .
47(4) . . .
39.0(34) . . .
42(4) . . .
53(4) . . .
45(4) . . .
50(4) . . .
49(4) . . .
49(4) . . .
54(4) . . .
52(4) . . .
46(4) . . .
46(4) . . .
51(4) . . .
50(4) . . .
51(4) . . .
37.9(34) . . .
43(4) . . .
55(4) . . .
51(4) . . .
47(4) . . .
53(4) . . .
45(4) . . .
51(4) . . .
51(4) . . .
48(4) . . .
56(4) . . .
63(4) . . .
43.6(34) . . .
49(4) . . .
45(4) . . .
40.5(34) . . .
43.1(35) . . .
50(4) . . .
48(4) . . .
46(4) . . .
45(4) . . .
46(4) . . .
40.5(34) . . .
50(4) . . .
56(4) . . .
40.9(35) . . .
43(4) . . .
41.9(34) . . .
48(4) . . .
48(4) . . .
52(4) . . .
54(4) . . .
48(4) . . .
56(4) . . .
49(4) . . .
50(4) . . .
47(4) . . .
43.5(34) . . .
54(4) . . .
44.2(34) . . .
54(4) . . .
49(4) . . .
56(4) . . .
51(4) . . .
51(4) . . .
49(4) . . .
48(4) . . .
46(4) . . .
44.2(35) . . .
44(4) . . .
42.7(33) . . .
52(4) . . .
38.1(33) . . .
41.8(34) . . .
50(4) . . .
51(4) . . .
47(4) . . .
50(4) . . .
51(4) . . .
52(4) . . .
49(4) . . .
54(4) . . .
49(4) . . .
44(4) . . .
50(4) . . .
54(4) . . .
53(4) . . .
50(4) . . .
49(4) . . .
46(4) . . .
60(4) . . .
44.5(35) . . .
44(4) . . .
46(4) . . .
43(4) . . .
43(4) . . .
47(4) . . .
60(4) . . .
54(4) . . .
45(4) . . .
47(4) . . .
50(4) . . .
46(4) . . .
42.4(35) . . .
50(4) . . .
40.7(34) . . .
50(4) . . .
46(4) . . .
53(4) . . .
47(4) . . .
58(4) . . .
56(4) . . .
47(4) . . .
56(4) . . .
60(4) . . .
54(4) . . .
38.8(32) . . .
51(4) . . .
46(4) . . .
45(4) . . .
44(4) . . .
49(4) . . .
51(4) . . .
51(4) . . .
56(4) . . .
54(4) . . .
46(4) . . .
51(4) . . .
46(4) . . .
45(4) . . .
44(4) . . .
37.9(31) . . .
39.7(34) . . .
46(4) . . .
45(4) . . .
47(4) . . .
49(4) . . .
42(4) . . .
45(4) . . .
46(4) . . .
55(4) . . .
50(4) . . .
47(4) . . .
48(4) . . .
50(4) . . .
38.4(33) . . .
49(4) . . .
45(4) . . .
49(4) . . .
47(4) . . .
43.7(35) . . .
39.2(32) . . .
45(4) . . .
50(4) . . .
49(4) . . .
43.3(34) . . .
51(4) . . .
49(4) . . .
52(4) . . .
49(4) . . .
56(4) . . .
51(4) . . .
57(4) . . .
46(4) . . .
42(4) . . .
48(4) . . .
52(4) . . .
50(4) . . .
46(4) . . .
51(4) . . .
47(4) . . .
49(4) . . .
44(4) . . .
42.3(35) . . .
43.0(35) . . .
41.7(34) . . .
49(4) . . .
43(4) . . .
51(4) . . .
53(4) . . .
47(4) . . .
50(4) . . .
46(4) . . .
67(4) . . .
56(4) . . .
45.6(35) . . .
49(4) . . .
49(4) . . .
45(4) . . .
47(4) . . .
59(4) . . .
38.1(34) . . .
36.3(33) . . .
40.0(33) . . .
44.9(35) . . .
53(4) . . .
49(4) . . .
47(4) . . .
47(4) . . .
54(4) . . .
53(4) . . .
46.1(35) . . .
51(4) . . .
38.5(32) . . .
54(4) . . .
57(4) . . .
54(4) . . .
55(4) . . .
50(4) . . .
56(4) . . .
38.1(34) . . .
44(4) . . .
43.9(35) . . .
51(4) . . .
44.4(34) . . .
52(4) . . .
42(4) . . .
55(4) . . .
50(4) . . .
43.9(34) . . .
53(4) . . .
50(4) . . .
46(4) . . .
44(4) . . .
49(4) . . .
46(4) . . .
57(4) . . .
48(4) . . .
53(4) . . .
50(4) . . .
43.9(35) . . .
45(4) . . .
49(4) . . .
44(4) . . .
54(4) . . .
45(4) . . .
48(4) . . .
44.7(34) . . .
52(4) . . .
41.4(33) . . .
48(4) . . .
45(4) . . .
42.0(35) . . .
44.6(35) . . .
50(4) . . .
53(4) . . .
54(4) . . .
55(4) . . .
44(4) . . .
32.6(30) . . .
50(4) . . .
40.6(35) . . .
43(4) . . .
50(4) . . .
43.6(34) . . .
51(4) . . .
53(4) . . .
48(4) . . .
48(4) . . .
48(4) . . .
47(4) . . .
34.8(31) . . .
52(4) . . .
48(4) . . .
37.1(32) . . .
51(4) . . .
58(4) . . .
56(4) . . .
38.8(33) . . .
32.6(31) . . .
39.1(33) . . .
43.6(35) . . .
49(4) . . .
50(4) . . .
47(4) . . .
47(4) . . .
50(4) . . .
50(4) . . .
44.0(35) . . .
39.1(34) . . .
49(4) . . .
36.6(32) . . .
45(4) . . .
51(4) . . .
56(4) . . .
48(4) . . .
40.6(35) . . .
46(4) . . .
43.4(35) . . .
54(4) . . .
61(4) . . .
53(4) . . .
46(4) . . .
40.0(33) . . .
41.4(35) . . .
50(4) . . .
59(4) . . .
47(4) . . .
49(4) . . .
42.3(34) . . .
51(4) . . .
45(4) . . .
52(4) . . .
42.0(33) . . .
53(4) . . .
49(4) . . .
47(4) . . .
44.7(35) . . .
45.3(35) . . .
50(4) . . .
50(4) . . .
48(4) . . .
57(4) . . .
58(4) . . .
47(4) . . .
50(4) . . .
43(4) . . .
42.6(34) . . .
44(4) . . .
45(4) . . .
48(4) . . .
50(4) . . .
56(4) . . .
48(4) . . .
47(4) . . .
48(4) . . .
46(4) . . .
41.7(34) . . .
49(4) . . .
46(4) . . .
51(4) . . .
49(4) . . .
47(4) . . .
49(4) . . .
51(4) . . .
45(4) . . .
43.6(34) . . .
46.2(35) . . .
49(4) . . .
48(4) . . .
47(4) . . .
44.3(34) . . .
54(4) . . .
41.9(34) . . .
49(4) . . .
42.5(35) . . .
49(4) . . .
40.5(33) . . .
43.5(35) . . .
50(4) . . .
47(4) . . .
49(4) . . .
46(4) . . .
39.0(32) . . .
44(4) . . .
48(4) . . .
43.2(34) . . .
45(4) . . .
45(4) . . .
51(4) . . .
47(4) . . .
48(4) . . .
54(4) . . .
58(4) . . .
56(4) . . .
49(4) . . .
51(4) . . .
61(4) . . .
57(4) . . .
45.7(35) . . .
54(4) . . .
54(4) . . .
47(4) . . .
56(4) . . .
37.4(32) . . .
52(4) . . .
42.4(35) . . .
45(4) . . .
50(4) . . .
46(4) . . .
33.8(31) . . .
53(4) . . .
53(4) . . .
50(4) . . .
51(4) . . .
49(4) . . .
37.3(32) . . .
47(4) . . .
51(4) . . .
41.6(34) . . .
52(4) . . .
45.0(35) . . .
46(4) . . .
52(4) . . .
50(4) . . .
51(4) . . .
49(4) . . .
55(4) . . .
52(4) . . .
41.8(34) . . .
41.3(34) . . .
45.4(35) . . .
47(4) . . .
51(4) . . .
48(4) . . .
47(4) . . .
38.7(33) . . .
43.7(35) . . .
37.5(32) . . .
46(4) . . .
48(4) . . .
42.9(34) . . .
42.3(34) . . .
47(4) . . .
48(4) . . .
47(4) . . .
54(4) . . .
45(4) . . .
54(4) . . .
48(4) . . .
44.1(35) . . .
47(4) . . .
45(4) . . .
43(4) . . .
44.3(34) . . .
55(4) . . .
56(4) . . .
45(4) . . .
45(4) . . .
44(4) . . .
55(4) . . .
52(4) . . .
53(4) . . .
51(4) . . .
47(4) . . .
42.0(34) . . .
42.0(35) . . .
52(4) . . .
54(4) . . .
50(4) . . .
43.9(34) . . .
45(4) . . .
47(4) . . .
52(4) . . .
48(4) . . .
46(4) . . .
48(4) . . .
48(4) . . .
45(4) . . .
55(4) . . .
59(4) . . .
44.8(34) . . .
52(4) . . .
42.8(35) . . .
50(4) . . .
56(4) . . .
50(4) . . .
47(4) . . .
44(4) . . .
54(4) . . .
51(4) . . .
45(4) . . .
40(4) . . .
46(4) . . .
49(4) . . .
48(4) . . .
48(4) . . .
46(4) . . .
55(4) . . .
46(4) . . .
40.1(33) . . .
39.4(35) . . .
45(4) . . .
45(4) . . .
45(4) . . .
50(4) . . .
52(4) . . .
48(4) . . .
50(4) . . .
44.8(34) . . .
51(4) . . .
50(4) . . .
52(4) . . .
45.4(35) . . .
48(4) . . .
51(4) . . .
52(4) . . .
42.4(33) . . .
45(4) . . .
53(4) . . .
56(4) . . .
50(4) . . .
48(4) . . .
57(4) . . .
44.7(35) . . .
48(4) . . .
36.3(32) . . .
47(4) . . .
54(4) . . .
51(4) . . .
47(4) . . .
48(4) . . .
49(4) . . .
54(4) . . .
47(4) . . .
39.5(33) . . .
48(4) . . .
49(4) . . .
53(4) . . .
53(4) . . .
52(4) . . .
52(4) . . .
53(4) . . .
38.5(32) . . .
53(4) . . .
48(4) . . .
49(4) . . .
56(4) . . .
48(4) . . .
45.8(35) . . .
53(4) . . .
53(4) . . .
48(4) . . .
47(4) . . .
48(4) . . .
53(4) . . .
43(4) . . .
40.7(34) . . .
50(4) . . .
47(4) . . .
48(4) . . .
40.2(33) . . .
47(4) . . .
47(4) . . .
52(4) . . .
47(4) . . .
49(4) . . .
53(4) . . .
50(4) . . .
51(4) . . .
48(4) . . .
45(4) . . .
47(4) . . .
38.4(32) . . .
42.4(34) . . .
49(4) . . .
39.9(34) . . .
45(4) . . .
52(4) . . .
41.1(32) . . .
55(4) . . .
52(4) . . .
44.5(34) . . .
55(4) . . .
59(4) . . .
50(4) . . .
49(4) . . .
57(4) . . .
50(4) . . .
49(4) . . .
49(4) . . .
50(4) . . .
40.0(33) . . .
50(4) . . .
41.5(35) . . .
46(4) . . .
50(4) . . .
43.5(34) . . .
46(4) . . .
47(4) . . .
52(4) . . .
43.1(35) . . .
59(4) . . .
54(4) . . .
53(4) . . .
47(4) . . .
53(4) . . .
46(4) . . .
57(4) . . .
41(4) . . .
37.6(34) . . .
48(4) . . .
49(4) . . .
46(4) . . .
46(4) . . .
42.1(35) . . .
56(4) . . .
53(4) . . .
59(4) . . .
57(4) . . .
41.9(35) . . .
46(4) . . .
52(4) . . .
47(4) . . .
48(4) . . .
47(4) . . .
53(4) . . .
54(4) . . .
61(4) . . .
50(4) . . .
46(4) . . .
43.5(34) . . .
45.0(35) . . .
53(4) . . .
55(4) . . .
44.5(35) . . .
50(4) . . .
43.7(35) . . .
55(4) . . .
53(4) . . .
49(4) . . .
48(4) . . .
51(4) . . .
46(4) . . .
44(4) . . .
46(4) . . .
45.1(35) . . .
54(4) . . .
39.5(33) . . .
49(4) . . .
45(4) . . .
50(4) . . .
47(4) . . .
51(4) . . .
53(4) . . .
52(4) . . .
53(4) . . .
48(4) . . .
51(4) . . .
43.7(34) . . .
49(4) . . .
40.0(33) . . .
45(4) . . .
46(4) . . .
53(4) . . .
55(4) . . .
55(4) . . .
41.9(35) . . .
52(4) . . .
49(4) . . .
41.0(33) . . .
52(4) . . .
51(4) . . .
40.5(35) . . .
43(4) . . .
45.3(35) . . .
46(4) . . .
40.9(34) . . .
40(4) . . .
48(4) . . .
50(4) . . .
49(4) . . .
42.7(35) . . .
50(4) . . .
49(4) . . .
42.0(34) . . .
51(4) . . .
37.8(32) . . .
41.3(35) . . .
41(4) . . .
46(4) . . .
43.0(34) . . .
37.3(35) . . .
41(4) . . .
50(4) . . .
44.8(34) . . .
42.2(34) . . .
44(4) . . .
50(4) . . .
43.7(35) . . .
44.5(35) . . .
43(4) . . .
44(4) . . .
45(4) . . .
52(4) . . .
44.3(35) . . .
47(4) . . .
40.8(33) . . .
55(4) . . .
48(4) . . .
51(4) . . .
39.9(34) . . .
48(4) . . .
50(4) . . .
46(4) . . .
55(4) . . .
52(4) . . .
43(4) . . .
50(4) . . .
45.8(35) . . .
49(4) . . .
51(4) . . .
42(4) . . .
45.1(35) . . .
39.2(33) . . .
36.1(31) . . .
43.0(34) . . .
49(4) . . .
41.6(35) . . .
44.9(34) . . .
46(4) . . .
45.5(35) . . .
48(4) . . .
45(4) . . .
44.6(35) . . .
52(4) . . .
53(4) . . .
52(4) . . .
54(4) . . .
45(4) . . .
53(4) . . .
58(4) . . .
50(4) . . .
45(4) . . .
48(4) . . .
51(4) . . .
43(4) . . .
46(4) . . .
47(4) . . .
43.6(34) . . .
49(4) . . .
51(4) . . .
57(4) . . .
57(4) . . .
44(4) . . .
31.9(30) . . .
35.8(33) . . .
55(4) . . .
56(4) . . .
52(4) . . .
44(4) . . .
52(4) . . .
44(4) . . .
40.8(34) . . .
39.2(32) . . .
48(4) . . .
47(4) . . .
46(4) . . .
41.8(35) . . .
51(4) . . .
43(4) . . .
50(4) . . .
57(4) . . .
46(4) . . .
52(4) . . .
51(4) . . .
50(4) . . .
46(4) . . .
49(4) . . .
50(4) . . .
62(4) . . .
51(4) . . .
50(4) . . .
47(4) . . .
42.7(34) . . .
44.9(35) . . .
61(4) . . .
46(4) . . .
38.7(33) . . .
45(4) . . .
53(4) . . .
53(4) . . .
51(4) . . .
63(4) . . .
51(4) . . .
48(4) . . .
41.5(33) . . .
45(4) . . .
46(4) . . .
44(4) . . .
48(4) . . .
52(4) . . .
52(4) . . .
44.5(35) . . .
46(4) . . .
45(4) . . .
49(4) . . .
53(4) . . .
48(4) . . .
46(4) . . .
50(4) . . .
46(4) . . .
41.4(33) . . .
43.4(35) . . .
47(4) . . .
49(4) . . .
46(4) . . .
44(4) . . .
46(4) . . .
50(4) . . .
51(4) . . .
47(4) . . .
59(4) . . .
54(4) . . .
52(4) . . .
42(4) . . .
40.9(34) . . .
43(4) . . .
50(4) . . .
43.3(35) . . .
47(4) . . .
40.1(34) . . .
40.7(33) . . .
47(4) . . .
59(4) . . .
44(4) . . .
45(4) . . .
42.5(34) . . .
41.7(33) . . .
45(4) . . .
52(4) . . .
43(4) . . .
47(4) . . .
40.5(33) . . .
48(4) . . .
50(4) . . .
49(4) . . .
45(4) . . .
46(4) . . .
42.5(35) . . .
48(4) . . .
48(4) . . .
54(4) . . .
50(4) . . .
54(4) . . .
44(4) . . .
53(4) . . .
45.3(35) . . .
46(4) . . .
41.8(34) . . .
52(4) . . .
57(4) . . .
64(4) . . .
46(4) . . .
52(4) . . .
47(4) . . .
48(4) . . .
46(4) . . .
45(4) . . .
48(4) . . .
39.0(34) . . .
45(4) . . .
53(4) . . .
49(4) . . .
42.5(35) . . .
52(4) . . .
45.7(35) . . .
48(4) . . .
54(4) . . .
48(4) . . .
44(4) . . .
49(4) . . .
41.4(33) . . .
52(4) . . .
45(4) . . .
45(4) . . .
62(4) . . .
48(4) . . .
41(4) . . .
48(4) . . .
51(4) . . .
53(4) . . .
53(4) . . .
46(4) . . .
42(4) . . .
41.3(34) . . .
45(4) . . .
50(4) . . .
43(4) . . .
44(4) . . .
51(4) . . .
54(4) . . .
52(4) . . .
46(4) . . .
47(4) . . .
49(4) . . .
48(4) . . .
46(4) . . .
51(4) . . .
58(4) . . .
52(4) . . .
43.9(35) . . .
49(4) . . .
50(4) . . .
48(4) . . .
50(4) . . .
49(4) . . .
51(4) . . .
56(4) . . .
58(4) . . .
48(4) . . .
51(4) . . .
53(4) . . .
45(4) . . .
44(4) . . .
46(4) . . .
51(4) . . .
41(4) . . .
41(4) . . .
45(4) . . .
53(4) . . .
44.9(35) . . .
53(4) . . .
45.2(35) . . .
41.5(35) . . .
47(4) . . .
48(4) . . .
44(4) . . .
45(4) . . .
51(4) . . .
48(4) . . .
42.5(34) . . .
46(4) . . .
52(4) . . .
50(4) . . .
48(4) . . .
36.3(31) . . .
46(4) . . .
57(4) . . .
53(4) . . .
46(4) . . .
36.3(32) . . .
51(4) . . .
44(4) . . .
46(4) . . .
48(4) . . .
44(4) . . .
46(4) . . .
43.2(34) . . .
36.2(32) . . .
49(4) . . .
51(4) . . .
51(4) . . .
45(4) . . .
36.3(32) . . .
47(4) . . .
47(4) . . .
37.8(33) . . .
48(4) . . .
42.7(34) . . .
49(4) . . .
56(4) . . .
43.0(35) . . .
45(4) . . .
51(4) . . .
47(4) . . .
55(4) . . .
47(4) . . .
39.7(33) . . .
49(4) . . .
41.5(34) . . .
52(4) . . .
40.2(34) . . .
46(4) . . .
44.8(35) . . .
51(4) . . .
41.0(33) . . .
43(4) . . .
49(4) . . .
51(4) . . .
50(4) . . .
53(4) . . .
46(4) . . .
46(4) . . .
43.7(34) . . .
35.6(33) . . .
48(4) . . .
43(4) . . .
50(4) . . .
49(4) . . .
44.6(35) . . .
58(4) . . .
45(4) . . .
49(4) . . .
49(4) . . .
61(4) . . .
57(4) . . .
50(4) . . .
40.8(33) . . .
44.4(35) . . .
47(4) . . .
51(4) . . .
54(4) . . .
45(4) . . .
48(4) . . .
50(4) . . .
45(4) . . .
42.0(35) . . .
42.0(34) . . .
47(4) . . .
48(4) . . .
51(4) . . .
52(4) . . .
52(4) . . .
41.5(34) . . .
38.0(33) . . .
52(4) . . .
43(4) . . .
46(4) . . .
52(4) . . .
49(4) . . .
43(4) . . .
54(4) . . .
49(4) . . .
50(4) . . .
52(4) . . .
52(4) . . .
51(4) . . .
44.3(34) . . .
52(4) . . .
52(4) . . .
39(4) . . .
44(4) . . .
56(4) . . .
47(4) . . .
46(4) . . .
52(4) . . .
58(4) . . .
50(4) . . .
40.3(33) . . .
46(4) . . .
43.7(35) . . .
43(4) . . .
49(4) . . .
44.4(35) . . .
46(4) . . .
55(4) . . .
46(4) . . .
48(4) . . .
48(4) . . .
41.5(34) . . .
51(4) . . .
39.4(32) . . .
46(4) . . .
46(4) . . .
55(4) . . .
43.9(35) . . .
37.7(32) . . .
43.0(34) . . .
49(4) . . .
50(4) . . .
53(4) . . .
45.4(35) . . .
43.7(34) . . .
51(4) . . .
53(4) . . .
38.4(32) . . .
42(4) . . .
42.8(33) . . .
46(4) . . .
49(4) . . .
48(4) . . .
44.6(35) . . .
36.4(34) . . .
47(4) . . .
55(4) . . .
56(4) . . .
48(4) . . .
47(4) . . .
39.0(33) . . .
45(4) . . .
42(4) . . .
54(4) . . .
49(4) . . .
43.2(34) . . .
52(4) . . .
41.1(34) . . .
47(4) . . .
40.3(35) . . .
42(4) . . .
52(4) . . .
38.8(32) . . .
41.4(34) . . .
45(4) . . .
37.9(31) . . .
46(4) . . .
43.7(35) . . .
46(4) . . .
43.1(34) . . .
43.5(35) . . .
47(4) . . .
46(4) . . .
48(4) . . .
53(4) . . .
49(4) . . .
49(4) . . .
42.3(34) . . .
42.3(34) . . .
45(4) . . .
49(4) . . .
42(4) . . .
37.7(32) . . .
58(4) . . .
43.4(34) . . .
41(4) . . .
49(4) . . .
51(4) . . .
44(4) . . .
50(4) . . .
48(4) . . .
52(4) . . .
37.3(32) . . .
51(4) . . .
42.3(34) . . .
55(4) . . .
51(4) . . .
50(4) . . .
55(4) . . .
39.2(34) . . .
38.8(35) . . .
45(4) . . .
50(4) . . .
42.9(34) . . .
41.4(33) . . .
47(4) . . .
45(4) . . .
42.7(34) . . .
46(4) . . .
46(4) . . .
46(4) . . .
53(4) . . .
41.7(34) . . .
53(4) . . .
38.3(34) . . .
49(4) . . .
54(4) . . .
49(4) . . .
45(4) . . .
43(4) . . .
46(4) . . .
38.6(33) . . .
40.7(33) . . .
41.7(34) . . .
40.4(34) . . .
47(4) . . .
44.8(35) . . .
57(4) . . .
44.0(34) . . .
39.8(34) . . .
42.4(34) . . .
43.7(34) . . .
52(4) . . .
48(4) . . .
44(4) . . .
55(4) . . .
52(4) . . .
48(4) . . .
59(4) . . .
52(4) . . .
36.3(32) . . .
41.7(34) . . .
40.5(33) . . .
52(4) . . .
38.7(34) . . .
48(4) . . .
41.4(33) . . .
49(4) . . .
47(4) . . .
47(4) . . .
52(4) . . .
41.9(34) . . .
43.9(35) . . .
43.0(34) . . .
47(4) . . .
43.8(35) . . .
47(4) . . .
34.6(31) . . .
41(4) . . .
50(4) . . .
53(4) . . .
47(4) . . .
42.1(35) . . .
44.3(35) . . .
45(4) . . .
38.1(34) . . .
44.3(35) . . .
55(4) . . .
43(4) . . .
45(4) . . .
46(4) . . .
46(4) . . .
51(4) . . .
49(4) . . .
46(4) . . .
41.8(34) . . .
42.8(34) . . .
49(4) . . .
41.2(35) . . .
46(4) . . .
37.4(33) . . .
44.7(34) . . .
39.1(33) . . .
51(4) . . .
50(4) . . .
40.5(33) . . .
45.8(35) . . .
39.0(33) . . .
50(4) . . .
47(4) . . .
46.1(35) . . .
46(4) . . .
47(4) . . .
44(4) . . .
58(4) . . .
43.3(34) . . .
56(4) . . .
48(4) . . .
45(4) . . .
41(4) . . .
51(4) . . .
52(4) . . .
37.1(31) . . .
45(4) . . .
41.5(35) . . .
37.3(32) . . .
46(4) . . .
47(4) . . .
56(4) . . .
41.1(34) . . .
35.7(31) . . .
55(4) . . .
51(4) . . .
49(4) . . .
47(4) . . .
51(4) . . .
46(4) . . .
46(4) . . .
46(4) . . .
55(4) . . .
47(4) . . .
47(4) . . .
46(4) . . .
55(4) . . .
54(4) . . .
43.9(35) . . .
35.1(32) . . .
38.4(34) . . .
50(4) . . .
43.5(34) . . .
46(4) . . .
43(4) . . .
48(4) . . .
49(4) . . .
46(4) . . .
43.9(34) . . .
46(4) . . .
51(4) . . .
47(4) . . .
40.9(33) . . .
50(4) . . .
50(4) . . .
44.2(35) . . .
55(4) . . .
49(4) . . .
49(4) . . .
37.8(32) . . .
47(4) . . .
48(4) . . .
49(4) . . .
46(4) . . .
37.7(33) . . .
43(4) . . .
42.8(35) . . .
44.6(35) . . .
54(4) . . .
53(4) . . .
43(4) . . .
48(4) . . .
42.6(34) . . .
38.1(32) . . .
43.6(35) . . .
43(4) . . .
52(4) . . .
49(4) . . .
54(4) . . .
48(4) . . .
53(4) . . .
44.2(35) . . .
35.4(31) . . .
49(4) . . .
42(4) . . .
41.3(34) . . .
49(4) . . .
44.3(35) . . .
50(4) . . .
55(4) . . .
47(4) . . .
44.2(34) . . .
40.7(34) . . .
47(4) . . .
44(4) . . .
50(4) . . .
36.8(32) . . .
43.6(34) . . .
50(4) . . .
53(4) . . .
43.5(34) . . .
49(4) . . .
50(4) . . .
50(4) . . .
45(4) . . .
48(4) . . .
42.3(34) . . .
56(4) . . .
42.8(35) . . .
39.1(35) . . .
40.4(34) . . .
45.0(35) . . .
47(4) . . .
51(4) . . .
47(4) . . .
45(4) . . .
36.4(32) . . .
47(4) . . .
42.2(35) . . .
44(4) . . .
38.1(33) . . .
48(4) . . .
40.4(34) . . .
48(4) . . .
36.7(32) . . .
39.4(35) . . .
43.6(35) . . .
43(4) . . .
45(4) . . .
48(4) . . .
40.1(33) . . .
53(4) . . .
46(4) . . .
45(4) . . .
38.9(32) . . .
49(4) . . .
43.0(34) . . .
44(4) . . .
38.6(33) . . .
49(4) . . .
51(4) . . .
53(4) . . .
63(4) . . .
52(4) . . .
44(4) . . .
46(4) . . .
34.5(31) . . .
51(4) . . .
38.1(34) . . .
45(4) . . .
49(4) . . .
48(4) . . .
58(4) . . .
44(4) . . .
48(4) . . .
46.2(35) . . .
50(4) . . .
48(4) . . .
41.6(35) . . .
54(4) . . .
55(4) . . .
53(4) . . .
47(4) . . .
45(4) . . .
54(4) . . .
43.7(34) . . .
52(4) . . .
46(4) . . .
47(4) . . .
45(4) . . .
50(4) . . .
38.6(34) . . .
42.8(34) . . .
46(4) . . .
41.7(34) . . .
46(4) . . .
54(4) . . .
57(4) . . .
40.5(34) . . .
40.1(34) . . .
45.0(35) . . .
49(4) . . .
44(4) . . .
52(4) . . .
48(4) . . .
60(4) . . .
49(4) . . .
44(4) . . .
36.8(32) . . .
39.6(33) . . .
49(4) . . .
51(4) . . .
49(4) . . .
48(4) . . .
48(4) . . .
45.1(34) . . .
44(4) . . .
42(4) . . .
50(4) . . .
48(4) . . .
48(4) . . .
53(4) . . .
48(4) . . .
50(4) . . .
48(4) . . .
58(4) . . .
51(4) . . .
42(4) . . .
53(4) . . .
49(4) . . .
39.4(33) . . .
50(4) . . .
42(4) . . .
51(4) . . .
39.2(33) . . .
41.4(34) . . .
40.5(34) . . .
48(4) . . .
44(4) . . .
44.5(34) . . .
50(4) . . .
46(4) . . .
57(4) . . .
39.9(33) . . .
49(4) . . .
44.7(34) . . .
48(4) . . .
56(4) . . .
47(4) . . .
56(4) . . .
44(4) . . .
38.9(32) . . .
43.2(34) . . .
45(4) . . .
51(4) . . .
41.5(34) . . .
46(4) . . .
48(4) . . .
51(4) . . .
48(4) . . .
47(4) . . .
41.4(35) . . .
48(4) . . .
46(4) . . .
37.8(32) . . .
49(4) . . .
44(4) . . .
39.3(33) . . .
47(4) . . .
43.2(35) . . .
51(4) . . .
63(5) . . .
55(4) . . .
40.8(34) . . .
38.9(33) . . .
46(4) . . .
45(4) . . .
52(4) . . .
42.2(35) . . .
50(4) . . .
58(4) . . .
51(4) . . .
47(4) . . .
52(4) . . .
49(4) . . .
43.2(34) . . .
47(4) . . .
46(4) . . .
36.7(32) . . .
50(4) . . .
53(4) . . .
57(4) . . .
39.3(33) . . .
39.1(33) . . .
48(4) . . .
43(4) . . .
38.0(32) . . .
50(4) . . .
40.3(33) . . .
49(4) . . .
48(4) . . .
36.8(32) . . .
46(4) . . .
47(4) . . .
49(4) . . .
50(4) . . .
51(4) . . .
44.7(35) . . .
47(4) . . .
43.8(35) . . .
43(4) . . .
45(4) . . .
43.1(35) . . .
44.2(35) . . .
48(4) . . .
43.1(34) . . .
43.7(34) . . .
48(4) . . .
55(4) . . .
46(4) . . .
43(4) . . .
45(4) . . .
42.7(34) . . .
42.1(34) . . .
47(4) . . .
52(4) . . .
48(4) . . .
51(4) . . .
58(4) . . .
48(4) . . .
43(4) . . .
40.1(35) . . .
38.9(32) . . .
47(4) . . .
40.6(34) . . .
48(4) . . .
50(4) . . .
39.0(33) . . .
49(4) . . .
47(4) . . .
48(4) . . .
53(4) . . .
49(4) . . .
44.1(35) . . .
39.8(33) . . .
44(4) . . .
39.6(33) . . .
41.3(33) . . .
42.8(34) . . .
47(4) . . .
50(4) . . .
49(4) . . .
56(4) . . .
45(4) . . .
46(4) . . .
43(4) . . .
40.8(33) . . .
39.8(33) . . .
45.5(35) . . .
49(4) . . .
51(4) . . .
47(4) . . .
40.3(34) . . .
41.2(35) . . .
43(4) . . .
37.3(33) . . .
43.0(34) . . .
47(4) . . .
41.7(34) . . .
46(4) . . .
49(4) . . .
46.0(35) . . .
43.8(35) . . .
41.0(34) . . .
40(4) . . .
44(4) . . .
40.8(34) . . .
51(4) . . .
48(4) . . .
50(4) . . .
49(4) . . .
47(4) . . .
45.3(35) . . .
49(4) . . .
35.4(32) . . .
46(4) . . .
39.3(33) . . .
40.4(34) . . .
44(4) . . .
53(4) . . .
44(4) . . .
48(4) . . .
43(4) . . .
45(4) . . .
48(4) . . .
49(4) . . .
43.8(35) . . .
50(4) . . .
54(4) . . .
40.0(32) . . .
38.8(32) . . .
44.9(35) . . .
47(4) . . .
51(4) . . .
50(4) . . .
37.5(33) . . .
37.6(32) . . .
45(4) . . .
48(4) . . .
45.3(35) . . .
59(4) . . .
43.3(34) . . .
59(4) . . .
43(4) . . .
47(4) . . .
51(4) . . .
47(4) . . .
36.2(31) . . .
46(4) . . .
42.1(35) . . .
37.4(32) . . .
52(4) . . .
42.0(34) . . .
45(4) . . .
42.6(34) . . .
59(4) . . .
40.2(32) . . .
48(4) . . .
51(4) . . .
41.9(34) . . .
51(4) . . .
47(4) . . .
43.4(34) . . .
54(4) . . .
60(4) . . .
43.4(35) . . .
42.0(35) . . .
55(4) . . .
41.6(34) . . .
46(4) . . .
51(4) . . .
48(4) . . .
48(4) . . .
46(4) . . .
49(4) . . .
39.8(33) . . .
39.1(34) . . .
48(4) . . .
48(4) . . .
46(4) . . .
50(4) . . .
51(4) . . .
49(4) . . .
48(4) . . .
39.9(33) . . .
33.5(30) . . .
50(4) . . .
48(4) . . .
44(4) . . .
38.4(33) . . .
40.2(33) . . .
44(4) . . .
50(4) . . .
43(4) . . .
31.2(29) . . .
46(4) . . .
57(4) . . .
50(4) . . .
40.8(35) . . .
37.6(32) . . .
54(4) . . .
44(4) . . .
50(4) . . .
36.7(32) . . .
46(4) . . .
46.6(35) . . .
53(4) . . .
45(4) . . .
47(4) . . .
42.7(34) . . .
47(4) . . .
47(4) . . .
52(4) . . .
56(4) . . .
49(4) . . .
40.9(35) . . .
48(4) . . .
45(4) . . .
41.5(35) . . .
49(4) . . .
44.3(34) . . .
47(4) . . .
50(4) . . .
48(4) . . .
50(4) . . .
55(4) . . .
49(4) . . .
45(4) . . .
41(4) . . .
41.2(33) . . .
47(4) . . .
53(4) . . .
45(4) . . .
42(4) . . .
49(4) . . .
51(4) . . .
63(5) . . .
46(4) . . .
51(4) . . .
57(4) . . .
39.0(33) . . .
34.3(30) . . .
36.7(32) . . .
52(4) . . .
53(4) . . .
46(4) . . .
46(4) . . .
47(4) . . .
44.2(34) . . .
56(4) . . .
57(4) . . .
55(4) . . .
51(4) . . .
43.9(34) . . .
40.1(33) . . .
42(4) . . .
48(4) . . .
45(4) . . .
44(4) . . .
57(4) . . .
38.7(33) . . .
42.4(34) . . .
48(4) . . .
46(4) . . .
47(4) . . .
54(4) . . .
46(4) . . .
51(4) . . .
41.7(33) . . .
49(4) . . .
39.2(33) . . .
38(4) . . .
46(4) . . .
42.9(35) . . .
49(4) . . .
44(4) . . .
40(4) . . .
42(4) . . .
46(4) . . .
35.3(31) . . .
41.9(34) . . .
52(4) . . .
48(4) . . .
50(4) . . .
44.4(34) . . .
46(4) . . .
43(4) . . .
40.0(33) . . .
43.0(34) . . .
50(4) . . .
42(4) . . .
54(4) . . .
38.9(33) . . .
43.6(35) . . .
46(4) . . .
44(4) . . .
43(4) . . .
44.7(35) . . .
44.6(34) . . .
34.4(32) . . .
45(4) . . .
50(4) . . .
39.0(32) . . .
42.9(34) . . .
44(4) . . .
50(4) . . .
46(4) . . .
49(4) . . .
44(4) . . .
48(4) . . .
44(4) . . .
46(4) . . .
33.3(30) . . .
41.4(34) . . .
39.4(34) . . .
41(4) . . .
40.0(34) . . .
47(4) . . .
40.8(33) . . .
48(4) . . .
46(4) . . .
40.7(34) . . .
49(4) . . .
47(4) . . .
39.6(34) . . .
42(4) . . .
51(4) . . .
42.9(34) . . .
56(4) . . .
49(4) . . .
48(4) . . .
48(4) . . .
44.1(34) . . .
41.4(34) . . .
47(4) . . .
46(4) . . .
45(4) . . .
45(4) . . .
44.5(35) . . .
61(4) . . .
45(4) . . .
42.0(33) . . .
52(4) . . .
44(4) . . .
44(4) . . .
39.5(33) . . .
45(4) . . .
41.8(33) . . .
43.0(33) . . .
51(4) . . .
45(4) . . .
55(4) . . .
49(4) . . .
43.2(35) . . .
51(4) . . .
46(4) . . .
41.8(34) . . .
42.2(33) . . .
49(4) . . .
40(4) . . .
41.8(34) . . .
51(4) . . .
42.3(34) . . .
41.8(34) . . .
45(4) . . .
52(4) . . .
48(4) . . .
52(4) . . .
41.0(34) . . .
40(4) . . .
45(4) . . .
50(4) . . .
52(4) . . .
48(4) . . .
46(4) . . .
48(4) . . .
52(4) . . .
38.3(32) . . .
50(4) . . .
49(4) . . .
46(4) . . .
44(4) . . .
43(4) . . .
44(4) . . .
48(4) . . .
51(4) . . .
43.1(35) . . .
51(4) . . .
39.8(33) . . .
36.8(31) . . .
39.0(34) . . .
34.0(31) . . .
48(4) . . .
48(4) . . .
48(4) . . .
47(4) . . .
47(4) . . .
46(4) . . .
45(4) . . .
45(4) . . .
51(4) . . .
50(4) . . .
39.7(33) . . .
38.3(33) . . .
47(4) . . .
44.9(35) . . .
43.5(34) . . .
33.8(31) . . .
49(4) . . .
43(4) . . .
45.2(34) . . .
46(4) . . .
47(4) . . .
48(4) . . .
41.7(35) . . .
44.3(35) . . .
41.5(34) . . .
45(4) . . .
46(4) . . .
35.6(32) . . .
47(4) . . .
48(4) . . .
48(4) . . .
43(4) . . .
48(4) . . .
50(4) . . .
45(4) . . .
51(4) . . .
49(4) . . .
41.5(34) . . .
56(4) . . .
51(4) . . .
39.6(35) . . .
46(4) . . .
45.2(35) . . .
47(4) . . .
45(4) . . .
50(4) . . .
50(4) . . .
42.9(34) . . .
55(4) . . .
54(4) . . .
57(4) . . .
41.1(34) . . .
44(4) . . .
41.4(34) . . .
42(4) . . .
41.1(33) . . .
51(4) . . .
44(4) . . .
54(4) . . .
51(4) . . .
44(4) . . .
39.4(34) . . .
52(4) . . .
47(4) . . .
44.4(35) . . .
46(4) . . .
39.5(34) . . .
47(4) . . .
50(4) . . .
47(4) . . .
54(4) . . .
48(4) . . .
47(4) . . .
54(4) . . .
42.3(34) . . .
33.5(31) . . .
51(4) . . .
48(4) . . .
42.4(34) . . .
57(4) . . .
46(4) . . .
48(4) . . .
46(4) . . .
48(4) . . .
48(4) . . .
46(4) . . .
46(4) . . .
48(4) . . .
35.4(32) . . .
39.8(33) . . .
44(4) . . .
39.2(34) . . .
47(4) . . .
44(4) . . .
46(4) . . .
38.7(32) . . .
47(4) . . .
47(4) . . .
44(4) . . .
48(4) . . .
45(4) . . .
40.9(34) . . .
42.0(34) . . .
41.5(35) . . .
49(4) . . .
38.1(33) . . .
45(4) . . .
45.0(34) . . .
57(4) . . .
44(4) . . .
46(4) . . .
42.5(34) . . .
44.0(34) . . .
47(4) . . .
49(4) . . .
45.0(34) . . .
44.7(35) . . .
52(4) . . .
42.0(34) . . .
45(4) . . .
57(4) . . .
44.4(35) . . .
51(4) . . .
42(4) . . .
46(4) . . .
46(4) . . .
44.8(35) . . .
42.4(33) . . .
54(4) . . .
48(4) . . .
50(4) . . .
36.8(32) . . .
41.3(33) . . .
45(4) . . .
32.6(30) . . .
46(4) . . .
44.7(35) . . .
47(4) . . .
45(4) . . .
36.8(33) . . .
38.0(33) . . .
39.7(33) . . .
49(4) . . .
40.1(35) . . .
37.8(34) . . .
47(4) . . .
47(4) . . .
44.0(34) . . .
41.0(34) . . .
52(4) . . .
49(4) . . .
38.1(32) . . .
49(4) . . .
46(4) . . .
49(4) . . .
38.6(33) . . .
49(4) . . .
43.3(34) . . .
44(4) . . .
42.7(34) . . .
56(4) . . .
48(4) . . .
51(4) . . .
45(4) . . .
48(4) . . .
46(4) . . .
42.3(34) . . .
52(4) . . .
43(4) . . .
37.3(32) . . .
54(4) . . .
45(4) . . .
40.6(35) . . .
47(4) . . .
50(4) . . .
51(4) . . .
50(4) . . .
43.8(34) . . .
53(4) . . .
42(4) . . .
46(4) . . .
38.4(32) . . .
47(4) . . .
42(4) . . .
53(4) . . .
47(4) . . .
44(4) . . .
49(4) . . .
43(4) . . .
44(4) . . .
51(4) . . .
45(4) . . .
47(4) . . .
45(4) . . .
45(4) . . .
37.2(32) . . .
41(4) . . .
53(4) . . .
50(4) . . .
50(4) . . .
50(4) . . .
42.3(35) . . .
49(4) . . .
40.7(33) . . .
45.8(35) . . .
42.6(34) . . .
40.8(35) . . .
40.3(35) . . .
46(4) . . .
50(4) . . .
40.0(33) . . .
42.2(34) . . .
49(4) . . .
36.8(33) . . .
45(4) . . .
44.0(34) . . .
51(4) . . .
43(4) . . .
42.0(33) . . .
45(4) . . .
40.0(33) . . .
49(4) . . .
42(4) . . .
51(4) . . .
46(4) . . .
38.8(32) . . .
38.1(31) . . .
42(4) . . .
40.5(35) . . .
43.0(34) . . .
44.4(35) . . .
47(4) . . .
50(4) . . .
46(4) . . .
48(4) . . .
51(4) . . .
57(4) . . .
48(4) . . .
51(4) . . .
55(4) . . .
47(4) . . .
49(4) . . .
44(4) . . .
41.3(33) . . .
43.6(34) . . .
42(4) . . .
44(4) . . .
55(4) . . .
46(4) . . .
55(4) . . .
49(4) . . .
48(4) . . .
41.7(33) . . .
47(4) . . .
39.1(33) . . .
50(4) . . .
46(4) . . .
48(4) . . .
36.8(34) . . .
46.2(35) . . .
51(4) . . .
50(4) . . .
51(4) . . .
45.4(35) . . .
39.4(33) . . .
41.2(34) . . .
45(4) . . .
42.5(35) . . .
43.2(34) . . .
42.9(34) . . .
56(4) . . .
47(4) . . .
44(4) . . .
45(4) . . .
36.6(31) . . .
51(4) . . .
39.2(35) . . .
45(4) . . .
55(4) . . .
53(4) . . .
49(4) . . .
51(4) . . .
50(4) . . .
33.4(31) . . .
38.7(33) . . .
53(4) . . .
54(4) . . .
49(4) . . .
48(4) . . .
49(4) . . .
48(4) . . .
42.8(34) . . .
35.1(34) . . .
41.2(33) . . .
46(4) . . .
52(4) . . .
56(4) . . .
41.9(34) . . .
41.1(34) . . .
49(4) . . .
40.1(33) . . .
45(4) . . .
46(4) . . .
47(4) . . .
47(4) . . .
38.1(32) . . .
51(4) . . .
44.4(35) . . .
51(4) . . .
45(4) . . .
43(4) . . .
38.6(33) . . .
38.9(32) . . .
50(4) . . .
39.7(34) . . .
49(4) . . .
44.6(35) . . .
53(4) . . .
47(4) . . .
39.6(34) . . .
43(4) . . .
39.1(33) . . .
38.3(32) . . .
40.5(34) . . .
44(4) . . .
43(4) . . .
38.7(33) . . .
46(4) . . .
42.1(35) . . .
42.0(34) . . .
45(4) . . .
46(4) . . .
37.0(32) . . .
41.7(33) . . .
50(4) . . .
44.6(35) . . .
39.8(33) . . .
43.4(34) . . .
41.2(34) . . .
42(4) . . .
40.4(34) . . .
40.1(34) . . .
42.0(33) . . .
40.7(35) . . .
46(4) . . .
46(4) . . .
43.9(35) . . .
55(4) . . .
50(4) . . .
45(4) . . .
46(4) . . .
43(4) . . .
42.1(34) . . .
48(4) . . .
48(4) . . .
47(4) . . .
45.2(35) . . .
42.7(34) . . .
44(4) . . .
45(4) . . .
50(4) . . .
58(4) . . .
53(4) . . .
48(4) . . .
49(4) . . .
47(4) . . .
45(4) . . .
39.3(32) . . .
46(4) . . .
46(4) . . .
51(4) . . .
42.0(34) . . .
42(4) . . .
42.4(35) . . .
53(4) . . .
52(4) . . .
42.4(33) . . .
43(4) . . .
48(4) . . .
53(4) . . .
46(4) . . .
48(4) . . .
45(4) . . .
57(4) . . .
48(4) . . .
44(4) . . .
48(4) . . .
51(4) . . .
41.8(34) . . .
49(4) . . .
45(4) . . .
53(4) . . .
48(4) . . .
46(4) . . .
52(4) . . .
47(4) . . .
46(4) . . .
47(4) . . .
44(4) . . .
41.6(35) . . .
48(4) . . .
38.8(33) . . .
53(4) . . .
55(4) . . .
56(4) . . .
46(4) . . .
47(4) . . .
40.0(34) . . .
45(4) . . .
47(4) . . .
35.2(30) . . .
45(4) . . .
55(4) . . .
43(4) . . .
43(4) . . .
36.1(32) . . .
42.8(34) . . .
41.7(35) . . .
36.9(33) . . .
41.2(34) . . .
52(4) . . .
40.4(33) . . .
42(4) . . .
39(4) . . .
45(4) . . .
54(4) . . .
41.6(34) . . .
48(4) . . .
56(4) . . .
43.3(34) . . .
47(4) . . .
42.6(34) . . .
49(4) . . .
45(4) . . .
45(4) . . .
45.4(35) . . .
50(4) . . .
41(4) . . .
34.4(31) . . .
48(4) . . .
50(4) . . .
44(4) . . .
45(4) . . .
43(4) . . .
34.0(32) . . .
39.8(33) . . .
34.1(30) . . .
43(4) . . .
44(4) . . .
34.8(31) . . .
38.7(32) . . .
37.8(32) . . .
49(4) . . .
50(4) . . .
44(4) . . .
39.8(33) . . .
51(4) . . .
54(4) . . .
47(4) . . .
55(4) . . .
50(4) . . .
43(4) . . .
40(4) . . .
44(4) . . .
54(4) . . .
36.8(31) . . .
49(4) . . .
47(4) . . .
42.3(35) . . .
47(4) . . .
49(4) . . .
49(4) . . .
52(4) . . .
51(4) . . .
40.1(32) . . .
49(4) . . .
43(4) . . .
46(4) . . .
46(4) . . .
47(4) . . .
43.7(34) . . .
37.7(33) . . .
45(4) . . .
41.6(35) . . .
49(4) . . .
50(4) . . .
42(4) . . .
33.2(32) . . .
45(4) . . .
54(4) . . .
50(4) . . .
49(4) . . .
41(4) . . .
39.8(32) . . .
53(4) . . .
50(4) . . .
45(4) . . .
35.8(32) . . .
53(4) . . .
43.1(34) . . .
43.8(35) . . .
38.2(33) . . .
33.2(32) . . .
39.7(34) . . .
40.2(34) . . .
45(4) . . .
44(4) . . .
45(4) . . .
46(4) . . .
52(4) . . .
42(4) . . .
52(4) . . .
54(4) . . .
46(4) . . .
45.5(35) . . .
40.5(33) . . .
46(4) . . .
41.3(34) . . .
42.5(35) . . .
45.2(35) . . .
55(4) . . .
44(4) . . .
51(4) . . .
48(4) . . .
47(4) . . .
57(4) . . .
59(4) . . .
49(4) . . .
52(4) . . .
39.1(33) . . .
38.0(34) . . .
36.9(32) . . .
46(4) . . .
42.5(34) . . .
54(4) . . .
49(4) . . .
46(4) . . .
44(4) . . .
43.7(35) . . .
54(4) . . .
48(4) . . .
46(4) . . .
40.4(35) . . .
50(4) . . .
54(4) . . .
45(4) . . .
40.5(34) . . .
43.9(35) . . .
45(4) . . .
51(4) . . .
46(4) . . .
40.9(34) . . .
47(4) . . .
38.6(32) . . .
49(4) . . .
44(4) . . .
48(4) . . .
50(4) . . .
43.4(34) . . .
45(4) . . .
39.1(35) . . .
47(4) . . .
39.7(32) . . .
42.0(34) . . .
47(4) . . .
52(4) . . .
50(4) . . .
44.7(34) . . .
46(4) . . .
49(4) . . .
39.7(34) . . .
53(4) . . .
50(4) . . .
45(4) . . .
45(4) . . .
42(4) . . .
47(4) . . .
40.3(33) . . .
47(4) . . .
39.9(33) . . .
44(4) . . .
51(4) . . .
48(4) . . .
38.5(35) . . .
46(4) . . .
44(4) . . .
45(4) . . .
43.0(34) . . .
46(4) . . .
50(4) . . .
41.4(35) . . .
54(4) . . .
49(4) . . .
42.5(34) . . .
43(4) . . .
40.3(34) . . .
53(4) . . .
40.5(33) . . .
47(4) . . .
45(4) . . .
43.0(35) . . .
43.6(35) . . .
43.3(34) . . .
47(4) . . .
41.5(35) . . .
48(4) . . .
49(4) . . .
47(4) . . .
41.0(34) . . .
47(4) . . .
45.0(35) . . .
55(4) . . .
40.8(33) . . .
51(4) . . .
41.9(34) . . .
58(4) . . .
42.6(33) . . .
42.1(34) . . .
44(4) . . .
54(4) . . .
39.9(32) . . .
52(4) . . .
51(4) . . .
52(4) . . .
50(4) . . .
45(4) . . .
49(4) . . .
41.0(34) . . .
49(4) . . .
50(4) . . .
37.7(34) . . .
34.7(31) . . .
50(4) . . .
51(4) . . .
45(4) . . .
44(4) . . .
49(4) . . .
51(4) . . .
47(4) . . .
38.0(32) . . .
51(4) . . .
47(4) . . .
48(4) . . .
38.6(34) . . .
48(4) . . .
60(4) . . .
41.1(34) . . .
39.6(34) . . .
42(4) . . .
46(4) . . .
49(4) . . .
44.5(35) . . .
46(4) . . .
53(4) . . .
54(4) . . .
50(4) . . .
48(4) . . .
44(4) . . .
42(4) . . .
44(4) . . .
47(4) . . .
41.9(34) . . .
57(4) . . .
54(4) . . .
50(4) . . .
49(4) . . .
39.6(32) . . .
48(4) . . .
44(4) . . .
36.7(32) . . .
44(4) . . .
53(4) . . .
44.0(35) . . .
46(4) . . .
46(4) . . .
40.9(33) . . .
44.0(35) . . .
39(4) . . .
46(4) . . .
43(4) . . .
37.7(32) . . .
47(4) . . .
49(4) . . .
45(4) . . .
42.5(34) . . .
42.4(34) . . .
39.3(33) . . .
42.0(35) . . .
50(4) . . .
40(4) . . .
45(4) . . .
48(4) . . .
49(4) . . .
35.0(31) . . .
44.0(35) . . .
58(4) . . .
45(4) . . .
50(4) . . .
54(4) . . .
40.4(33) . . .
45.5(35) . . .
53(4) . . .
48(4) . . .
43(4) . . .
43.7(35) . . .
50(4) . . .
50(4) . . .
43(4) . . .
52(4) . . .
42.6(34) . . .
62(4) . . .
49(4) . . .
44(4) . . .
45(4) . . .
40.7(33) . . .
32.7(31) . . .
51(4) . . .
48(4) . . .
44(4) . . .
35.7(31) . . .
48(4) . . .
46(4) . . .
44(4) . . .
48(4) . . .
48(4) . . .
37.9(32) . . .
40.7(35) . . .
51(4) . . .
46(4) . . .
44.4(34) . . .
55(4) . . .
46(4) . . .
55(4) . . .
41.7(34) . . .
53(4) . . .
41.1(34) . . .
41(4) . . .
49(4) . . .
53(4) . . .
39.7(33) . . .
44.4(35) . . .
43.5(35) . . .
48(4) . . .
47(4) . . .
38.6(32) . . .
44(4) . . .
42(4) . . .
44.2(35) . . .
39.1(32) . . .
42.7(35) . . .
51(4) . . .
43(4) . . .
49(4) . . .
49(4) . . .
48(4) . . .
43(4) . . .
43.1(33) . . .
45.1(35) . . .
43.1(34) . . .
41.5(34) . . .
45(4) . . .
33.9(32) . . .
40.4(34) . . .
39.0(32) . . .
53(4) . . .
52(4) . . .
51(4) . . .
52(4) . . .
48(4) . . .
39.7(33) . . .
52(4) . . .
42(4) . . .
46(4) . . .
43.8(35) . . .
44.0(35) . . .
56(4) . . .
51(4) . . .
33.8(29) . . .
48(4) . . .
46(4) . . .
52(4) . . .
47(4) . . .
49(4) . . .
47(4) . . .
49(4) . . .
45.3(34) . . .
43(4) . . .
47(4) . . .
47(4) . . .
45.1(35) . . .
47(4) . . .
43(4) . . .
48(4) . . .
55(4) . . .
47(4) . . .
43.0(35) . . .
50(4) . . .
52(4) . . .
38.2(32) . . .
36.5(32) . . .
46(4) . . .
50(4) . . .
44(4) . . .
41.6(33) . . .
48(4) . . .
45(4) . . .
43.2(35) . . .
43(4) . . .
39.2(32) . . .
48(4) . . .
46(4) . . .
43(4) . . .
44(4) . . .
45.3(35) . . .
50(4) . . .
36.4(32) . . .
41.7(34) . . .
50(4) . . .
42.9(34) . . .
50(4) . . .
53(4) . . .
47.3(35) . . .
56(4) . . .
47(4) . . .
42.7(35) . . .
58(5) . . .
52(4) . . .
42.5(34) . . .
48(4) . . .
45(4) . . .
40(4) . . .
36.6(32) . . .
41.7(33) . . .
43.1(34) . . .
46(4) . . .
43(4) . . .
38.7(34) . . .
47(4) . . .
51(4) . . .
44.0(35) . . .
43(4) . . .
43(4) . . .
42.5(34) . . .
51(4) . . .
52(4) . . .
48(4) . . .
41.2(35) . . .
38.3(32) . . .
45(4) . . .
45(4) . . .
47(4) . . .
51(4) . . .
47(4) . . .
47(4) . . .
39.8(34) . . .
43(4) . . .
51(4) . . .
45(4) . . .
45(4) . . .
50(4) . . .
55(4) . . .
49(4) . . .
45(4) . . .
51(4) . . .
39.3(33) . . .
51(4) . . .
54(4) . . .
51(4) . . .
40(4) . . .
42(4) . . .
44(4) . . .
42.6(34) . . .
43.8(34) . . .
49(4) . . .
50(4) . . .
43(4) . . .
38.7(33) . . .
45.9(35) . . .
49(4) . . .
50(4) . . .
45(4) . . .
37.8(31) . . .
44(4) . . .
40(4) . . .
48(4) . . .
38.1(34) . . .
49(4) . . .
41.1(33) . . .
43(4) . . .
50(4) . . .
53(4) . . .
46(4) . . .
46(4) . . .
47(4) . . .
55(4) . . .
49(4) . . .
37.5(32) . . .
41.1(34) . . .
45(4) . . .
42.3(34) . . .
46(4) . . .
47(4) . . .
48(4) . . .
45(4) . . .
35.9(33) . . .
38.7(33) . . .
49(4) . . .
42.4(34) . . .
40(4) . . .
46(4) . . .
52(4) . . .
50(4) . . .
50(4) . . .
46(4) . . .
47(4) . . .
43.3(35) . . .
44.4(35) . . .
49(4) . . .
47(4) . . .
44.3(35) . . .
37.2(31) . . .
41.1(33) . . .
48(4) . . .
47(4) . . .
44(4) . . .
37.7(32) . . .
44.9(35) . . .
48(4) . . .
39.5(35) . . .
49(4) . . .
46(4) . . .
40.5(34) . . .
43(4) . . .
41(4) . . .
42(4) . . .
50(4) . . .
49(4) . . .
43.8(35) . . .
46(4) . . .
46(4) . . .
44.8(35) . . .
38.5(33) . . .
49(4) . . .
35.8(32) . . .
52(4) . . .
51(4) . . .
50(4) . . .
47(4) . . .
43(4) . . .
45(4) . . .
43.2(34) . . .
39.3(32) . . .
44(4) . . .
46(4) . . .
47(4) . . .
51(4) . . .
48(4) . . .
50(4) . . .
46(4) . . .
48(4) . . .
47(4) . . .
48(4) . . .
37.7(33) . . .
46(4) . . .
46(4) . . .
46(4) . . .
43(4) . . .
57(4) . . .
40.4(34) . . .
44(4) . . .
40.6(33) . . .
42(4) . . .
50(4) . . .
42(4) . . .
46(4) . . .
52(4) . . .
42.7(34) . . .
47(4) . . .
48(4) . . .
51(4) . . .
47(4) . . .
51(4) . . .
42.3(34) . . .
49(4) . . .
44.0(35) . . .
50(4) . . .
48(4) . . .
40.7(35) . . .
42(4) . . .
39.2(33) . . .
50(4) . . .
35.3(31) . . .
42(4) . . .
46(4) . . .
43.6(34) . . .
49(4) . . .
52(4) . . .
44(4) . . .
47(4) . . .
40.4(33) . . .
46(4) . . .
46(4) . . .
37.5(33) . . .
52(4) . . .
43.0(34) . . .
41.4(35) . . .
47(4) . . .
47(4) . . .
46(4) . . .
42.4(34) . . .
45(4) . . .
46(4) . . .
39.5(34) . . .
47(4) . . .
39.3(33) . . .
44.7(35) . . .
57(4) . . .
54(4) . . .
48(4) . . .
38.7(32) . . .
54(4) . . .
48(4) . . .
50(4) . . .
43.2(35) . . .
36.4(31) . . .
45(4) . . .
46(4) . . .
49(4) . . .
47(4) . . .
41.8(34) . . .
42(4) . . .
50(4) . . .
39.6(33) . . .
50(4) . . .
38.3(32) . . .
44(4) . . .
48(4) . . .
43.5(34) . . .
44.1(35) . . .
48(4) . . .
38.9(32) . . .
47(4) . . .
56(4) . . .
49(4) . . .
41.4(34) . . .
42.2(34) . . .
45(4) . . .
47(4) . . .
46(4) . . .
43.4(34) . . .
46(4) . . .
41.4(34) . . .
48(4) . . .
52(4) . . .
41(4) . . .
44(4) . . .
43(4) . . .
58(4) . . .
51(4) . . .
48(4) . . .
48(4) . . .
37.9(33) . . .
39.4(33) . . .
44.9(35) . . .
47(4) . . .
47(4) . . .
52(4) . . .
51(4) . . .
50(4) . . .
44(4) . . .
44(4) . . .
49(4) . . .
43.1(34) . . .
43.4(34) . . .
49(4) . . .
48(4) . . .
41.9(34) . . .
46(4) . . .
41.4(33) . . .
47(4) . . .
49(4) . . .
48(4) . . .
40.9(33) . . .
44.3(35) . . .
38.7(33) . . .
39.6(35) . . .
47(4) . . .
38.1(32) . . .
41.8(35) . . .
46(4) . . .
47(4) . . .
43(4) . . .
40.8(33) . . .
37.1(32) . . .
47(4) . . .
54(4) . . .
57(4) . . .
47(4) . . .
52(4) . . .
41.4(35) . . .
37.7(33) . . .
43.7(35) . . .
40.6(33) . . .
46(4) . . .
38.1(33) . . .
47(4) . . .
45.2(35) . . .
46(4) . . .
36.3(34) . . .
47(4) . . .
43(4) . . .
50(4) . . .
41.3(33) . . .
46(4) . . .
50(4) . . .
44(4) . . .
38.5(34) . . .
49(4) . . .
49(4) . . .
45(4) . . .
39.5(34) . . .
43.4(34) . . .
47(4) . . .
50(4) . . .
51(4) . . .
52(4) . . .
49(4) . . .
47(4) . . .
49(4) . . .
41(4) . . .
43(4) . . .
49(4) . . .
54(4) . . .
46(4) . . .
41(4) . . .
46(4) . . .
50(4) . . .
59(4) . . .
57(4) . . .
52(4) . . .
45(4) . . .
40.5(32) . . .
51(4) . . .
55(4) . . .
44(4) . . .
48(4) . . .
47(4) . . .
48(4) . . .
52(4) . . .
40.1(35) . . .
47(4) . . .
44.6(35) . . .
33.0(30) . . .
39.2(35) . . .
48(4) . . .
51(4) . . .
39.9(33) . . .
49(4) . . .
47(4) . . .
47(4) . . .
49(4) . . .
44.1(34) . . .
41(4) . . .
47(4) . . .
37.9(33) . . .
44(4) . . .
50(4) . . .
45(4) . . .
45(4) . . .
41(4) . . .
43.2(35) . . .
47(4) . . .
46(4) . . .
42(4) . . .
45(4) . . .
47(4) . . .
43.1(34) . . .
41.5(33) . . .
39.1(34) . . .
46(4) . . .
48(4) . . .
57(4) . . .
47(4) . . .
48(4) . . .
41.3(33) . . .
46(4) . . .
49(4) . . .
45(4) . . .
48(4) . . .
43(4) . . .
48(4) . . .
46(4) . . .
52(4) . . .
52(4) . . .
50(4) . . .
42.1(33) . . .
46(4) . . .
44(4) . . .
40(4) . . .
45(4) . . .
55(4) . . .
50(4) . . .
43.3(35) . . .
46(4) . . .
56(4) . . .
42.9(34) . . .
55(4) . . .
42.7(35) . . .
44(4) . . .
37.8(32) . . .
47(4) . . .
31.9(30) . . .
40.1(35) . . .
53(4) . . .
50(4) . . .
49(4) . . .
47(4) . . .
49(4) . . .
40.3(35) . . .
37.4(32) . . .
47(4) . . .
46(4) . . .
47(4) . . .
45(4) . . .
38.0(32) . . .
36.8(32) . . .
36.6(32) . . .
36.5(35) . . .
41(4) . . .
50(4) . . .
45(4) . . .
50(4) . . .
39.1(33) . . .
49(4) . . .
52(4) . . .
47(4) . . .
42(4) . . .
47(4) . . .
53(4) . . .
42.7(34) . . .
43.7(35) . . .
44(4) . . .
50(4) . . .
46(4) . . .
43.0(35) . . .
47(4) . . .
53(4) . . .
48(4) . . .
46(4) . . .
41.1(34) . . .
50(4) . . .
50(4) . . .
42(4) . . .
44(4) . . .
51(4) . . .
34.2(32) . . .
44(4) . . .
52(4) . . .
43(4) . . .
63(4) . . .
49(4) . . .
42(4) . . .
38.1(33) . . .
42.5(34) . . .
49(4) . . .
47(4) . . .
47(4) . . .
45(4) . . .
39.9(33) . . .
48(4) . . .
45(4) . . .
43(4) . . .
48(4) . . .
51(4) . . .
47(4) . . .
47(4) . . .
41.3(34) . . .
45(4) . . .
36.8(32) . . .
39.2(33) . . .
38.6(32) . . .
58(4) . . .
48(4) . . .
40.8(33) . . .
39.5(33) . . .
49(4) . . .
42.6(34) . . .
52(4) . . .
44.7(34) . . .
49(4) . . .
53(4) . . .
38.5(33) . . .
41.6(34) . . .
47(4) . . .
39.2(33) . . .
40.7(35) . . .
50(4) . . .
43.1(35) . . .
44.0(35) . . .
39.5(34) . . .
43(4) . . .
49(4) . . .
40.4(33) . . .
36.8(32) . . .
34.5(31) . . .
40(4) . . .
39(4) . . .
46(4) . . .
44.4(35) . . .
41.5(34) . . .
52(4) . . .
51(4) . . .
41.6(34) . . .
45.2(35) . . .
47(4) . . .
46(4) . . .
44(4) . . .
56(4) . . .
46.0(35) . . .
47(4) . . .
55(4) . . .
49(4) . . .
49(4) . . .
46(4) . . .
40.8(33) . . .
41(4) . . .
36.6(33) . . .
42.5(34) . . .
49(4) . . .
42(4) . . .
42(4) . . .
40.4(35) . . .
39.7(33) . . .
43.3(34) . . .
48(4) . . .
44(4) . . .
48(4) . . .
53(4) . . .
41.2(34) . . .
50(4) . . .
37.9(33) . . .
46(4) . . .
50(4) . . .
42.1(34) . . .
43(4) . . .
47(4) . . .
52(4) . . .
51(4) . . .
42.4(34) . . .
53(4) . . .
47(4) . . .
42(4) . . .
43.4(34) . . .
57(4) . . .
41.6(34) . . .
38.9(34) . . .
52(4) . . .
50(4) . . .
54(4) . . .
45(4) . . .
44(4) . . .
44.6(35) . . .
55(4) . . .
55(4) . . .
52(4) . . .
45(4) . . .
46(4) . . .
42.5(34) . . .
48(4) . . .
50(4) . . .
46(4) . . .
53(4) . . .
43.5(35) . . .
48(4) . . .
55(4) . . .
44.0(34) . . .
44.5(34) . . .
40.6(34) . . .
47(4) . . .
44(4) . . .
41.4(34) . . .
43.7(35) . . .
48(4) . . .
49(4) . . .
45(4) . . .
51(4) . . .
40.7(33) . . .
42.5(35) . . .
44(4) . . .
47(4) . . .
41.6(34) . . .
48(4) . . .
46(4) . . .
50(4) . . .
49(4) . . .
42.8(34) . . .
52(4) . . .
44(4) . . .
45(4) . . .
45(4) . . .
51(4) . . .
40.6(33) . . .
49(4) . . .
39.5(35) . . .
35.4(32) . . .
41.2(33) . . .
49(4) . . .
42.8(34) . . .
51(4) . . .
46(4) . . .
48(4) . . .
46.0(35) . . .
44(4) . . .
46(4) . . .
39.8(33) . . .
40.5(34) . . .
56(4) . . .
44(4) . . .
52(4) . . .
50(4) . . .
48(4) . . .
36.0(31) . . .
38.9(33) . . .
45(4) . . .
38.7(32) . . .
42.0(33) . . .
44.6(35) . . .
43.2(35) . . .
39.3(35) . . .
41.3(34) . . .
45.9(34) . . .
44.7(35) . . .
49(4) . . .
49(4) . . .
46(4) . . .
38.8(33) . . .
45(4) . . .
39.5(34) . . .
45(4) . . .
38.6(34) . . .
45(4) . . .
52(4) . . .
43.0(35) . . .
52(4) . . .
42.2(34) . . .
44.9(35) . . .
41.4(33) . . .
39.9(34) . . .
36.7(33) . . .
51(4) . . .
40.6(33) . . .
52(4) . . .
42.7(34) . . .
37.8(33) . . .
49(4) . . .
42.3(33) . . .
55(4) . . .
43.5(35) . . .
48(4) . . .
49(4) . . .
49(4) . . .
35.6(32) . . .
51(4) . . .
43.0(34) . . .
42.3(34) . . .
49(4) . . .
44(4) . . .
43(4) . . .
45(4) . . .
45(4) . . .
47(4) . . .
45(4) . . .
45(4) . . .
53(4) . . .
40.8(33) . . .
49(4) . . .
50(4) . . .
46(4) . . .
43(4) . . .
54(4) . . .
51(4) . . .
38.2(34) . . .
35.0(34) . . .
40.2(34) . . .
47(4) . . .
36.4(31) . . .
48(4) . . .
46(4) . . .
46(4) . . .
43.3(34) . . .
48(4) . . .
35.3(31) . . .
50(4) . . .
47(4) . . .
52(4) . . .
46(4) . . .
48(4) . . .
53(4) . . .
38.1(32) . . .
50(4) . . .
48(4) . . .
43(4) . . .
45(4) . . .
49(4) . . .
56(4) . . .
45(4) . . .
35.6(33) . . .
49(4) . . .
39.5(32) . . .
44.5(35) . . .
47(4) . . .
43(4) . . .
47(4) . . .
54(4) . . .
50(4) . . .
45(4) . . .
39.5(33) . . .
45(4) . . .
46(4) . . .
45(4) . . .
28.3(27) . . .
47(4) . . .
41.4(33) . . .
51(4) . . .
41.0(34) . . .
42.6(34) . . .
44(4) . . .
48(4) . . .
57(4) . . .
49(4) . . .
46(4) . . .
36.9(35) . . .
40.4(35) . . .
44(4) . . .
48(4) . . .
48(4) . . .
51(4) . . .
41.9(34) . . .
44.4(35) . . .
41.2(33) . . .
54(4) . . .
55(4) . . .
47(4) . . .
40.2(33) . . .
50(4) . . .
43(4) . . .
36.0(33) . . .
40.4(34) . . .
40.6(34) . . .
51(4) . . .
46(4) . . .
44(4) . . .
47(4) . . .
40.3(33) . . .
56(4) . . .
51(4) . . .
53(4) . . .
40.2(33) . . .
55(4) . . .
51(4) . . .
42(4) . . .
43.5(35) . . .
34.8(30) . . .
48(4) . . .
39.1(34) . . .
37.7(35) . . .
48(4) . . .
52(4) . . .
53(4) . . .
43(4) . . .
35.6(33) . . .
50(4) . . .
45(4) . . .
47(4) . . .
44(4) . . .
43(4) . . .
37.5(32) . . .
38.5(32) . . .
37.1(32) . . .
42.7(34) . . .
47(4) . . .
54(4) . . .
48(4) . . .
38.9(32) . . .
47(4) . . .
58(4) . . .
47(4) . . .
35.3(32) . . .
44(4) . . .
52(4) . . .
43.2(35) . . .
44(4) . . .
54(4) . . .
50(4) . . .
51(4) . . .
51(4) . . .
52(4) . . .
53(4) . . .
50(4) . . .
49(4) . . .
49(4) . . .
59(4) . . .
48(4) . . .
54(4) . . .
48(4) . . .
41.2(34) . . .
41.3(35) . . .
39.6(33) . . .
40.4(35) . . .
46(4) . . .
37.3(32) . . .
47(4) . . .
50(4) . . .
52(4) . . .
48(4) . . .
45(4) . . .
51(4) . . .
46.0(35) . . .
47(4) . . .
38.7(33) . . .
39.0(35) . . .
45(4) . . .
50(4) . . .
43(4) . . .
41(4) . . .
45(4) . . .
40.5(34) . . .
42.2(34) . . .
51(4) . . .
54(4) . . .
49(4) . . .
38.3(32) . . .
49(4) . . .
52(4) . . .
41(4) . . .
46(4) . . .
42.8(34) . . .
34.3(31) . . .
37.8(33) . . .
49(4) . . .
50(4) . . .
37.2(32) . . .
52(4) . . .
44(4) . . .
45(4) . . .
49(4) . . .
47(4) . . .
46(4) . . .
45(4) . . .
48(4) . . .
40(4) . . .
36.5(31) . . .
45(4) . . .
50(4) . . .
47(4) . . .
45(4) . . .
44.2(34) . . .
41.5(35) . . .
45(4) . . .
49(4) . . .
47(4) . . .
48(4) . . .
48(4) . . .
44(4) . . .
46(4) . . .
54(4) . . .
50(4) . . .
43(4) . . .
53(4) . . .
55(4) . . .
43.5(34) . . .
45(4) . . .
44.8(35) . . .
51(4) . . .
54(4) . . .
44.1(35) . . .
45.4(35) . . .
40.0(34) . . .
33.8(31) . . .
51(4) . . .
40.0(32) . . .
46(4) . . .
51(4) . . .
44(4) . . .
43.3(34) . . .
43.5(35) . . .
47(4) . . .
40.9(34) . . .
57(4) . . .
42(4) . . .
46(4) . . .
38.5(32) . . .
48(4) . . .
38.5(32) . . .
46(4) . . .
48(4) . . .
51(4) . . .
48(4) . . .
44(4) . . .
45(4) . . .
43.6(34) . . .
52(4) . . .
54(4) . . .
42.7(35) . . .
55(4) . . .
50(4) . . .
46(4) . . .
52(4) . . .
54(4) . . .
48(4) . . .
54(4) . . .
45(4) . . .
46(4) . . .
43(4) . . .
39.0(33) . . .
46(4) . . .
56(4) . . .
48(4) . . .
40.4(33) . . .
54(4) . . .
43.7(34) . . .
45(4) . . .
47(4) . . .
50(4) . . .
44(4) . . .
41.8(34) . . .
43(4) . . .
45(4) . . .
41(4) . . .
47(4) . . .
31.0(30) . . .
44(4) . . .
43(4) . . .
40.1(34) . . .
39.6(33) . . .
48(4) . . .
55(4) . . .
41.6(33) . . .
50(4) . . .
39.7(33) . . .
46(4) . . .
39.2(33) . . .
39.4(34) . . .
45(4) . . .
46(4) . . .
46.1(35) . . .
47(4) . . .
36.6(34) . . .
50(4) . . .
52(4) . . .
49(4) . . .
46(4) . . .
43(4) . . .
40.7(34) . . .
37.7(32) . . .
40.2(35) . . .
57(4) . . .
49(4) . . .
44.3(35) . . .
45(4) . . .
42.6(34) . . .
46(4) . . .
49(4) . . .
41.5(33) . . .
49(4) . . .
32.7(32) . . .
35.1(34) . . .
45(4) . . .
43.6(34) . . .
42.9(34) . . .
39.6(33) . . .
42(4) . . .
37.9(33) . . .
37.0(33) . . .
39.9(33) . . .
52(4) . . .
50(4) . . .
46(4) . . .
39.2(33) . . .
37.8(32) . . .
48(4) . . .
55(4) . . .
33.9(30) . . .
42.2(33) . . .
48(4) . . .
49(4) . . .
42(4) . . .
37.7(34) . . .
39.8(33) . . .
51(4) . . .
41.7(34) . . .
38.5(32) . . .
44(4) . . .
43.5(34) . . .
47(4) . . .
42(4) . . .
40.7(34) . . .
41(4) . . .
43.4(34) . . .
54(4) . . .
42.4(34) . . .
44(4) . . .
50(4) . . .
59(4) . . .
44(4) . . .
37.8(33) . . .
37.1(33) . . .
40.8(33) . . .
55(4) . . .
41.9(34) . . .
43(4) . . .
46(4) . . .
50(4) . . .
50(4) . . .
51(4) . . .
44(4) . . .
48(4) . . .
47(4) . . .
40.2(33) . . .
39.9(34) . . .
46(4) . . .
44(4) . . .
46(4) . . .
41.6(33) . . .
43(4) . . .
43(4) . . .
46(4) . . .
41.0(34) . . .
45.1(35) . . .
44(4) . . .
46(4) . . .
44.5(35) . . .
43.6(34) . . .
35.5(31) . . .
49(4) . . .
46(4) . . .
42.4(35) . . .
51(4) . . .
50(4) . . .
57(4) . . .
56(4) . . .
45(4) . . .
52(4) . . .
46(4) . . .
39.4(34) . . .
54(4) . . .
48(4) . . .
41.8(34) . . .
36.6(33) . . .
38.5(33) . . .
48(4) . . .
57(4) . . .
51(4) . . .
38.6(33) . . .
53(4) . . .
49(4) . . .
42.8(34) . . .
49(4) . . .
39.6(33) . . .
46(4) . . .
45(4) . . .
46(4) . . .
35.8(31) . . .
43(4) . . .
42.6(35) . . .
50(4) . . .
52(4) . . .
52(4) . . .
41.0(34) . . .
48(4) . . .
49(4) . . .
43(4) . . .
41.9(34) . . .
36.5(31) . . .
49(4) . . .
48(4) . . .
41.6(34) . . .
41.4(34) . . .
46(4) . . .
50(4) . . .
44.5(35) . . .
38.0(32) . . .
47(4) . . .
40.8(34) . . .
43(4) . . .
46(4) . . .
51(4) . . .
43.4(34) . . .
41.4(35) . . .
55(4) . . .
51(4) . . .
41.8(33) . . .
41.8(34) . . .
41.7(34) . . .
44(4) . . .
52(4) . . .
40.8(33) . . .
51(4) . . .
46(4) . . .
46(4) . . .
45(4) . . .
47(4) . . .
43.2(34) . . .
43.8(35) . . .
44(4) . . .
41.4(33) . . .
41.2(33) . . .
44(4) . . .
44.1(34) . . .
43.5(35) . . .
46(4) . . .
48(4) . . .
48(4) . . .
44(4) . . .
42(4) . . .
48(4) . . .
41.6(34) . . .
40.4(34) . . .
41(4) . . .
44(4) . . .
46(4) . . .
43.2(34) . . .
39.8(34) . . .
45(4) . . .
46(4) . . .
43.8(35) . . .
48(4) . . .
44(4) . . .
50(4) . . .
44(4) . . .
39.0(32) . . .
47(4) . . .
44(4) . . .
49(4) . . .
49(4) . . .
58(4) . . .
45.1(34) . . .
37.9(33) . . .
42(4) . . .
56(4) . . .
52(4) . . .
49(4) . . .
50(4) . . .
50(4) . . .
43.4(35) . . .
42.7(34) . . .
39.4(33) . . .
49(4) . . .
48(4) . . .
41.5(34) . . .
39.1(33) . . .
43(4) . . .
49(4) . . .
54(4) . . .
54(4) . . .
48(4) . . .
37.5(32) . . .
50(4) . . .
49(4) . . .
39.4(33) . . .
49(4) . . .
47(4) . . .
47(4) . . .
43.4(35) . . .
52(4) . . .
51(4) . . .
39.0(33) . . .
45(4) . . .
43(4) . . .
46.4(35) . . .
46(4) . . .
46(4) . . .
46(4) . . .
42.8(35) . . .
51(4) . . .
45(4) . . .
54(4) . . .
38.6(32) . . .
48(4) . . .
49(4) . . .
43.9(35) . . .
49(4) . . .
42(4) . . .
47(4) . . .
42.5(34) . . .
48(4) . . .
42.2(35) . . .
38.7(34) . . .
42.3(35) . . .
55(4) . . .
38.7(32) . . .
43.2(35) . . .
48(4) . . .
45(4) . . .
46(4) . . .
45(4) . . .
45(4) . . .
50(4) . . .
51(4) . . .
40.2(33) . . .
36.6(33) . . .
45(4) . . .
47(4) . . .
57(4) . . .
45(4) . . .
42.3(35) . . .
53(4) . . .
47(4) . . .
41.8(35) . . .
51(4) . . .
48(4) . . .
48(4) . . .
36.5(32) . . .
51(4) . . .
43.6(34) . . .
47(4) . . .
36.1(30) . . .
46(4) . . .
55(4) . . .
41.1(34) . . .
35.7(35) . . .
39(4) . . .
56(4) . . .
42.2(35) . . .
50(4) . . .
39.1(34) . . .
46(4) . . .
46(4) . . .
46.3(35) . . .
49(4) . . .
41.5(34) . . .
44(4) . . .
40(4) . . .
43.2(35) . . .
43.8(35) . . .
47(4) . . .
46(4) . . .
42.5(34) . . .
55(4) . . .
39.0(33) . . .
49(4) . . .
45(4) . . .
46(4) . . .
47(4) . . .
48(4) . . .
49(4) . . .
53(4) . . .
54(4) . . .
47(4) . . .
39.4(32) . . .
40.0(34) . . .
51(4) . . .
49(4) . . .
43.8(35) . . .
36.1(32) . . .
51(4) . . .
47(4) . . .
48(4) . . .
54(4) . . .
45(4) . . .
46(4) . . .
41(4) . . .
41.5(34) . . .
39.0(32) . . .
36.2(32) . . .
41(4) . . .
44.7(35) . . .
46(4) . . .
44.6(35) . . .
46(4) . . .
39.3(35) . . .
41.5(35) . . .
47(4) . . .
41.9(34) . . .
46(4) . . .
48(4) . . .
42(4) . . .
38.0(32) . . .
49(4) . . .
52(4) . . .
35.0(31) . . .
46(4) . . .
47(4) . . .
36.7(32) . . .
49(4) . . .
39.8(35) . . .
41.9(34) . . .
52(4) . . .
49(4) . . .
51(4) . . .
46(4) . . .
47(4) . . .
40.9(33) . . .
43(4) . . .
47(4) . . .
51(4) . . .
36.8(32) . . .
43.9(35) . . .
43.5(35) . . .
44(4) . . .
52(4) . . .
44(4) . . .
48(4) . . .
42.3(35) . . .
45(4) . . .
47(4) . . .
38.3(34) . . .
43.6(34) . . .
51(4) . . .
37.8(33) . . .
39.4(34) . . .
41.2(34) . . .
36.7(31) . . .
39.1(34) . . .
50(4) . . .
50(4) . . .
48(4) . . .
35.6(31) . . .
36.8(32) . . .
37.5(35) . . .
42(4) . . .
44.6(34) . . .
49(4) . . .
32.6(31) . . .
52(4) . . .
52(4) . . .
47(4) . . .
49(4) . . .
45(4) . . .
47(4) . . .
42.9(35) . . .
43.5(34) . . .
55(4) . . .
48(4) . . .
36.4(33) . . .
45(4) . . .
47(4) . . .
53(4) . . .
51(4) . . .
45(4) . . .
51(4) . . .
44.2(35) . . .
45(4) . . .
48(4) . . .
39.2(34) . . .
38(4) . . .
47(4) . . .
40.2(33) . . .
43(4) . . .
49(4) . . .
44.3(35) . . .
42.3(34) . . .
43.3(34) . . .
46(4) . . .
45(4) . . .
45(4) . . .
47(4) . . .
42.3(35) . . .
51(4) . . .
33.4(31) . . .
48(4) . . .
39.5(33) . . .
48(4) . . .
50(4) . . .
46(4) . . .
47(4) . . .
41.3(33) . . .
51(4) . . .
53(4) . . .
39.7(33) . . .
38.2(32) . . .
45.1(35) . . .
45(4) . . .
56(4) . . .
52(4) . . .
47(4) . . .
41.7(34) . . .
51(4) . . .
50(4) . . .
37.1(33) . . .
50(4) . . .
52(4) . . .
47(4) . . .
41.3(35) . . .
48(4) . . .
48(4) . . .
43.4(34) . . .
39.3(34) . . .
45(4) . . .
37.2(32) . . .
47(4) . . .
48(4) . . .
41.9(35) . . .
41(4) . . .
45(4) . . .
47(4) . . .
44(4) . . .
46(4) . . .
50(4) . . .
41.3(34) . . .
43.7(35) . . .
48(4) . . .
43(4) . . .
46(4) . . .
45(4) . . .
41.7(34) . . .
47(4) . . .
46(4) . . .
43(4) . . .
43(4) . . .
34.3(31) . . .
38.0(32) . . .
47(4) . . .
44(4) . . .
39.2(33) . . .
55(4) . . .
46(4) . . .
49(4) . . .
51(4) . . .
44.9(34) . . .
46(4) . . .
45(4) . . .
45(4) . . .
49(4) . . .
43(4) . . .
45.5(35) . . .
55(4) . . .
37.5(31) . . .
47(4) . . .
57(4) . . .
41.3(33) . . .
45(4) . . .
36.0(33) . . .
42(4) . . .
40.3(33) . . .
49(4) . . .
37.1(32) . . .
36.2(33) . . .
49(4) . . .
51(4) . . .
43.2(34) . . .
38.8(32) . . .
40.1(33) . . .
45(4) . . .
47(4) . . .
37.9(33) . . .
38.1(33) . . .
48(4) . . .
38.8(33) . . .
38.8(32) . . .
42.3(35) . . .
47(4) . . .
47(4) . . .
49(4) . . .
44.5(35) . . .
44(4) . . .
55(4) . . .
45(4) . . .
40.2(34) . . .
46(4) . . .
48(4) . . .
41.0(34) . . .
48(4) . . .
48(4) . . .
39.7(33) . . .
47(4) . . .
48(4) . . .
43(4) . . .
44.8(35) . . .
45(4) . . .
52(4) . . .
47(4) . . .
39.9(35) . . .
41.2(34) . . .
44.0(34) . . .
38.9(34) . . .
49(4) . . .
48(4) . . .
49(4) . . .
54(4) . . .
44(4) . . .
50(4) . . .
48(4) . . .
48(4) . . .
43.7(34) . . .
41.6(34) . . .
38(4) . . .
44(4) . . .
47(4) . . .
45(4) . . .
35.8(30) . . .
57(4) . . .
46(4) . . .
42.8(34) . . .
54(4) . . .
46(4) . . .
46(4) . . .
49(4) . . .
43.4(35) . . .
40.4(34) . . .
38.3(32) . . .
46(4) . . .
44(4) . . .
53(4) . . .
50(4) . . .
45(4) . . .
49(4) . . .
43.3(34) . . .
40.3(33) . . .
45(4) . . .
53(4) . . .
50(4) . . .
47(4) . . .
42.4(34) . . .
44(4) . . .
39(4) . . .
40.6(34) . . .
42.7(34) . . .
42.0(34) . . .
46(4) . . .
50(4) . . .
56(4) . . .
47(4) . . .
37.3(32) . . .
41.1(34) . . .
48(4) . . .
46(4) . . .
48(4) . . .
43.2(34) . . .
39.4(35) . . .
45(4) . . .
48(4) . . .
47(4) . . .
49(4) . . .
35.8(31) . . .
47(4) . . .
38.8(33) . . .
42.6(35) . . .
45(4) . . .
52(4) . . .
51(4) . . .
42.4(34) . . .
45.2(35) . . .
39.6(33) . . .
32.2(31) . . .
41(4) . . .
43(4) . . .
40.3(34) . . .
38.6(32) . . .
41.3(34) . . .
46(4) . . .
43(4) . . .
53(4) . . .
38.6(34) . . .
47(4) . . .
58(4) . . .
42.9(35) . . .
48(4) . . .
54(4) . . .
39.7(33) . . .
42.3(33) . . .
43.3(34) . . .
45(4) . . .
53(4) . . .
46(4) . . .
43(4) . . .
46(4) . . .
42.3(34) . . .
51(4) . . .
44(4) . . .
39.4(32) . . .
43.6(34) . . .
40.5(33) . . .
41.9(34) . . .
43(4) . . .
44(4) . . .
52(4) . . .
36.5(32) . . .
41.2(35) . . .
57(4) . . .
45(4) . . .
42.8(34) . . .
49(4) . . .
37.8(32) . . .
36.6(35) . . .
47(4) . . .
39.0(32) . . .
38.9(32) . . .
46(4) . . .
52(4) . . .
37.7(32) . . .
33.0(30) . . .
47(4) . . .
45.3(35) . . .
43(4) . . .
39.8(33) . . .
45.5(35) . . .
42.7(35) . . .
41.2(34) . . .
46(4) . . .
50(4) . . .
42.8(34) . . .
51(4) . . .
47(4) . . .
49(4) . . .
41.1(34) . . .
48(4) . . .
39.3(35) . . .
45(4) . . .
44.6(35) . . .
48(4) . . .
47(4) . . .
38.7(32) . . .
48(4) . . .
50(4) . . .
44.9(35) . . .
50(4) . . .
42(4) . . .
41(4) . . .
36.7(32) . . .
39.7(33) . . .
48(4) . . .
46(4) . . .
42(4) . . .
40.6(34) . . .
41.5(34) . . .
54(4) . . .
50(4) . . .
42(4) . . .
42.1(34) . . .
50(4) . . .
53(4) . . .
46(4) . . .
50(4) . . .
50(4) . . .
44.8(35) . . .
42.4(34) . . .
42.0(33) . . .
43.0(35) . . .
44(4) . . .
43.3(34) . . .
50(4) . . .
49(4) . . .
48(4) . . .
48(4) . . .
42.3(34) . . .
51(4) . . .
43(4) . . .
40(4) . . .
41.8(34) . . .
46(4) . . .
40.8(33) . . .
49(4) . . .
48(4) . . .
47(4) . . .
42.8(34) . . .
38.8(32) . . .
49(4) . . .
54(4) . . .
36.0(33) . . .
50(4) . . .
43.5(35) . . .
38.3(33) . . .
42.8(35) . . .
49(4) . . .
51(4) . . .
52(4) . . .
40.9(33) . . .
48(4) . . .
46(4) . . .
47(4) . . .
47(4) . . .
51(4) . . .
48(4) . . .
32.9(30) . . .
37.2(32) . . .
38.9(33) . . .
45(4) . . .
44(4) . . .
37.7(33) . . .
44.0(34) . . .
45(4) . . .
43(4) . . .
49(4) . . .
38.3(33) . . .
49(4) . . .
49(4) . . .
56(4) . . .
37.5(31) . . .
40.4(33) . . .
46(4) . . .
46(4) . . .
47(4) . . .
44(4) . . .
46(4) . . .
47(4) . . .
51(4) . . .
50(4) . . .
38.9(33) . . .
50(4) . . .
46(4) . . .
44.5(35) . . .
46(4) . . .
41(4) . . .
38.6(32) . . .
50(4) . . .
53(4) . . .
51(4) . . .
38.6(34) . . .
35.7(32) . . .
41.5(34) . . .
48(4) . . .
50(4) . . .
42(4) . . .
41.7(34) . . .
40.0(34) . . .
49(4) . . .
49(4) . . .
52(4) . . .
46(4) . . .
39.4(32) . . .
33.5(30) . . .
45(4) . . .
47(4) . . .
53(4) . . .
41.1(34) . . .
45(4) . . .
41.5(34) . . .
38.2(32) . . .
41.4(35) . . .
43.6(35) . . .
45(4) . . .
47(4) . . .
48(4) . . .
36.5(33) . . .
48(4) . . .
39.4(32) . . .
44.3(35) . . .
49(4) . . .
48(4) . . .
40.6(34) . . .
52(4) . . .
48(4) . . .
35.5(31) . . .
39.5(32) . . .
43.3(35) . . .
38.8(34) . . .
41(4) . . .
36.2(31) . . .
43(4) . . .
37.2(32) . . .
56(4) . . .
46(4) . . .
43.3(35) . . .
47(4) . . .
41.0(34) . . .
44(4) . . .
47(4) . . .
43.5(34) . . .
45(4) . . .
58(4) . . .
51(4) . . .
43.3(35) . . .
40.7(34) . . .
40(4) . . .
47(4) . . .
52(4) . . .
41.9(34) . . .
49(4) . . .
46(4) . . .
50(4) . . .
44(4) . . .
47(4) . . .
46(4) . . .
53(4) . . .
47(4) . . .
42.0(34) . . .
48(4) . . .
42.3(34) . . .
38.8(33) . . .
40.7(34) . . .
41.7(34) . . .
37.6(32) . . .
45.9(35) . . .
53(4) . . .
48(4) . . .
38.2(34) . . .
51(4) . . .
50(4) . . .
46(4) . . .
45(4) . . .
47(4) . . .
46(4) . . .
50(4) . . .
48(4) . . .
42(4) . . .
41.5(34) . . .
44(4) . . .
47(4) . . .
47(4) . . .
52(4) . . .
45(4) . . .
40.7(33) . . .
31.3(31) . . .
46(4) . . .
47(4) . . .
54(4) . . .
44.4(35) . . .
39.0(34) . . .
36.3(31) . . .
49(4) . . .
36.0(33) . . .
39.5(33) . . .
36.8(32) . . .
43(4) . . .
42(4) . . .
46(4) . . .
44.1(35) . . .
33.0(30) . . .
44(4) . . .
37.3(33) . . .
32.7(30) . . .
47(4) . . .
41.7(35) . . .
38.3(33) . . .
44(4) . . .
47(4) . . .
47(4) . . .
41.1(33) . . .
49(4) . . .
51(4) . . .
41.3(35) . . .
48(4) . . .
37.8(32) . . .
39.7(35) . . .
53(4) . . .
47(4) . . .
51(4) . . .
54(4) . . .
47(4) . . .
41.0(34) . . .
51(4) . . .
40.8(33) . . .
53(4) . . .
46(4) . . .
42.8(34) . . .
51(4) . . .
45.5(35) . . .
39.9(34) . . .
35.4(32) . . .
37.7(33) . . .
40.2(32) . . .
48(4) . . .
44(4) . . .
53(4) . . .
44(4) . . .
37.7(32) . . .
47(4) . . .
45(4) . . .
44(4) . . .
49(4) . . .
37.7(32) . . .
48(4) . . .
46(4) . . .
49(4) . . .
44(4) . . .
51(4) . . .
38.1(35) . . .
46(4) . . .
50(4) . . .
45(4) . . .
45.4(35) . . .
44.3(35) . . .
43.0(35) . . .
41.5(34) . . .
49(4) . . .
39.8(32) . . .
48(4) . . .
43(4) . . .
46(4) . . .
55(4) . . .
45(4) . . .
43(4) . . .
35.7(33) . . .
44(4) . . .
42.6(34) . . .
46(4) . . .
47(4) . . .
46(4) . . .
48(4) . . .
52(4) . . .
44.5(34) . . .
53(4) . . .
55(4) . . .
45(4) . . .
48(4) . . .
41.3(34) . . .
53(4) . . .
51(4) . . .
49(4) . . .
44.9(35) . . .
37.4(32) . . .
40.5(33) . . .
50(4) . . .
40.6(34) . . .
42.7(34) . . .
45(4) . . .
49(4) . . .
40.3(34) . . .
49(4) . . .
44.4(35) . . .
44(4) . . .
39.0(33) . . .
47(4) . . .
45.6(35) . . .
43(4) . . .
46(4) . . .
40.8(34) . . .
41.8(33) . . .
41.4(35) . . .
41.8(34) . . .
47(4) . . .
53(4) . . .
40.3(34) . . .
39.7(32) . . .
52(4) . . .
40.4(33) . . .
38.6(34) . . .
48(4) . . .
36.5(31) . . .
44.9(35) . . .
51(4) . . .
48(4) . . .
47(4) . . .
48(4) . . .
43.9(35) . . .
43(4) . . .
37.9(33) . . .
47(4) . . .
41.9(34) . . .
37.7(32) . . .
39.8(34) . . .
39(4) . . .
41(4) . . .
39.3(33) . . .
37.7(33) . . .
36.6(32) . . .
40(4) . . .
51(4) . . .
41.0(34) . . .
45(4) . . .
47(4) . . .
42(4) . . .
53(4) . . .
53(4) . . .
44.6(35) . . .
41.6(35) . . .
48(4) . . .
43.7(35) . . .
52(4) . . .
48(4) . . .
45(4) . . .
46(4) . . .
43.5(34) . . .
42.2(34) . . .
43(4) . . .
39.5(35) . . .
48(4) . . .
45(4) . . .
38.2(33) . . .
43(4) . . .
41(4) . . .
40.7(35) . . .
39.0(34) . . .
49(4) . . .
44(4) . . .
53(4) . . .
48(4) . . .
51(4) . . .
45(4) . . .
33.6(33) . . .
36.4(34) . . .
57(4) . . .
50(4) . . .
43(4) . . .
37.7(32) . . .
53(4) . . .
50(4) . . .
42.4(33) . . .
47(4) . . .
51(4) . . .
46(4) . . .
54(4) . . .
46(4) . . .
46(4) . . .
45(4) . . .
51(4) . . .
50(4) . . .
37.8(32) . . .
50(4) . . .
56(4) . . .
49(4) . . .
42.9(34) . . .
42.0(34) . . .
35.1(33) . . .
43(4) . . .
42(4) . . .
43(4) . . .
57(4) . . .
50(4) . . .
43(4) . . .
39.9(34) . . .
61(4) . . .
49(4) . . .
38.9(35) . . .
43(4) . . .
45(4) . . .
51(4) . . .
50(4) . . .
41.9(35) . . .
49(4) . . .
49(4) . . .
46(4) . . .
45.6(35) . . .
47(4) . . .
33.8(30) . . .
40.9(34) . . .
50(4) . . .
38.2(32) . . .
44(4) . . .
50(4) . . .
47(4) . . .
52(4) . . .
51(4) . . .
46(4) . . .
45(4) . . .
34.7(32) . . .
40.4(33) . . .
51(4) . . .
45(4) . . .
42(4) . . .
43.9(35) . . .
51(4) . . .
42.5(34) . . .
39.1(33) . . .
38.7(35) . . .
44(4) . . .
37.9(32) . . .
48(4) . . .
45(4) . . .
50(4) . . .
32.2(30) . . .
47(4) . . .
42.8(35) . . .
45(4) . . .
47(4) . . .
50(4) . . .
54(4) . . .
50(4) . . .
49(4) . . .
50(4) . . .
43(4) . . .
49(4) . . .
46(4) . . .
46(4) . . .
38.0(32) . . .
40.1(34) . . .
48(4) . . .
47(4) . . .
43(4) . . .
36.5(32) . . .
52(4) . . .
40.5(34) . . .
56(4) . . .
49(4) . . .
44(4) . . .
45(4) . . .
42.6(34) . . .
38.9(34) . . .
42(4) . . .
54(4) . . .
43.6(35) . . .
47(4) . . .
54(4) . . .
46(4) . . .
36.0(32) . . .
46(4) . . .
44.0(34) . . .
46(4) . . .
48(4) . . .
41.4(34) . . .
40.5(33) . . .
34.5(31) . . .
43(4) . . .
35.1(33) . . .
37.6(32) . . .
42.5(34) . . .
38.3(32) . . .
46(4) . . .
44(4) . . .
34.8(32) . . .
44.0(35) . . .
47(4) . . .
41.2(35) . . .
42.0(35) . . .
45(4) . . .
37.1(31) . . .
39.8(35) . . .
41.0(35) . . .
49(4) . . .
42(4) . . .
36.6(32) . . .
47(4) . . .
52(4) . . .
39.8(34) . . .
47(4) . . .
42.0(34) . . .
45(4) . . .
40(4) . . .
42(4) . . .
48(4) . . .
47(4) . . .
44(4) . . .
38.6(34) . . .
41.1(35) . . .
42.6(35) . . .
40.6(33) . . .
42.7(34) . . .
35.7(31) . . .
40.4(34) . . .
48(4) . . .
52(4) . . .
49(4) . . .
46(4) . . .
43.4(34) . . .
44.3(34) . . .
45(4) . . .
46(4) . . .
51(4) . . .
57(4) . . .
46(4) . . .
46(4) . . .
42.5(35) . . .
38.9(33) . . .
51(4) . . .
45(4) . . .
52(4) . . .
45(4) . . .
43(4) . . .
34.0(31) . . .
33.1(30) . . .
43.4(35) . . .
37.4(33) . . .
38.1(34) . . .
41.0(34) . . .
39.2(32) . . .
41.5(35) . . .
49(4) . . .
41.0(33) . . .
48(4) . . .
51(4) . . .
48(4) . . .
45(4) . . .
42(4) . . .
39.3(32) . . .
40.2(34) . . .
42.4(34) . . .
54(4) . . .
52(4) . . .
46(4) . . .
43.4(34) . . .
38.3(33) . . .
42(4) . . .
45(4) . . .
46(4) . . .
45(4) . . .
52(4) . . .
48(4) . . .
53(4) . . .
50(4) . . .
51(4) . . .
38.8(34) . . .
42.4(35) . . .
53(4) . . .
41.9(34) . . .
45.3(35) . . .
53(4) . . .
45(4) . . .
44(4) . . .
48(4) . . .
41.6(33) . . .
37.5(33) . . .
40.5(35) . . .
47(4) . . .
43.6(34) . . .
42(4) . . .
49(4) . . .
39.0(33) . . .
42.7(35) . . .
42.9(34) . . .
44(4) . . .
43(4) . . .
40.0(34) . . .
53(4) . . .
43.3(34) . . .
46(4) . . .
52(4) . . .
47(4) . . .
43.0(35) . . .
44.9(35) . . .
42.8(35) . . .
47(4) . . .
45(4) . . .
41.4(33) . . .
49(4) . . .
37.8(32) . . .
47(4) . . .
44.4(35) . . .
48(4) . . .
42.7(34) . . .
57(4) . . .
46(4) . . .
41(4) . . .
44(4) . . .
50(4) . . .
37.9(32) . . .
44(4) . . .
40.2(33) . . .
46(4) . . .
46(4) . . .
41(4) . . .
39(4) . . .
49(4) . . .
41.7(34) . . .
50(4) . . .
44(4) . . .
38(4) . . .
48(4) . . .
43(4) . . .
44.0(34) . . .
45(4) . . .
42(4) . . .
36.9(32) . . .
44(4) . . .
44.4(35) . . .
40.6(33) . . .
48(4) . . .
40.0(33) . . .
37.4(32) . . .
48(4) . . .
46(4) . . .
43(4) . . .
40.8(34) . . .
47(4) . . .
43.6(34) . . .
52(4) . . .
55(4) . . .
47(4) . . .
52(4) . . .
49(4) . . .
46(4) . . .
46(4) . . .
47(4) . . .
52(4) . . .
44.7(34) . . .
42(4) . . .
45(4) . . .
44(4) . . .
44.5(34) . . .
45(4) . . .
42(4) . . .
39.7(33) . . .
42.9(34) . . .
40.2(33) . . .
46(4) . . .
45(4) . . .
42(4) . . .
46(4) . . .
43.7(35) . . .
43(4) . . .
38.8(34) . . .
49(4) . . .
52(4) . . .
45(4) . . .
36.7(31) . . .
46(4) . . .
42.2(35) . . .
49(4) . . .
41.5(33) . . .
44.1(35) . . .
43(4) . . .
47(4) . . .
42.1(35) . . .
36.6(31) . . .
40.3(33) . . .
44(4) . . .
45(4) . . .
54(4) . . .
43(4) . . .
45(4) . . .
43.7(34) . . .
45.0(35) . . .
41.6(34) . . .
39.3(33) . . .
48(4) . . .
54(4) . . .
45(4) . . .
37.5(32) . . .
41.6(34) . . .
41.4(34) . . .
32.8(29) . . .
51(4) . . .
34.8(31) . . .
45(4) . . .
42.1(34) . . .
48(4) . . .
41.3(33) . . .
33.1(30) . . .
43(4) . . .
58(4) . . .
50(4) . . .
53(4) . . .
47(4) . . .
47(4) . . .
45(4) . . .
36.8(32) . . .
50(4) . . .
45.5(35) . . .
46(4) . . .
50(4) . . .
41.9(34) . . .
37.8(32) . . .
46(4) . . .
44(4) . . .
45(4) . . .
42(4) . . .
43.4(35) . . .
45.5(35) . . .
42.2(35) . . .
45(4) . . .
44.6(35) . . .
49(4) . . .
40.2(33) . . .
38.3(34) . . .
38.1(34) . . .
46(4) . . .
41.1(34) . . .
52(4) . . .
41(4) . . .
42(4) . . .
45(4) . . .
41.3(34) . . .
45(4) . . .
48(4) . . .
50(4) . . .
43.1(35) . . .
35.5(31) . . .
39.4(34) . . .
33.5(32) . . .
37.8(35) . . .
36.2(34) . . .
47(4) . . .
48(4) . . .
45(4) . . .
41.6(34) . . .
51(4) . . .
46(4) . . .
51(4) . . .
38.0(32) . . .
43.7(34) . . .
53(4) . . .
50(4) . . .
35.8(32) . . .
41.4(34) . . .
53(4) . . .
50(4) . . .
39.8(33) . . .
48(4) . . .
38.3(33) . . .
45(4) . . .
35.9(32) . . .
40.1(32) . . .
41.5(34) . . .
43.9(34) . . .
47(4) . . .
45(4) . . .
47(4) . . .
45(4) . . .
42(4) . . .
42.1(34) . . .
47(4) . . .
44.3(34) . . .
34.1(31) . . .
33.4(31) . . .
46(4) . . .
38.8(32) . . .
41.5(35) . . .
39.0(32) . . .
42(4) . . .
52(4) . . .
46.3(35) . . .
39.0(34) . . .
43(4) . . .
40.0(34) . . .
49(4) . . .
47(4) . . .
38.4(32) . . .
42(4) . . .
42(4) . . .
42(4) . . .
45.2(35) . . .
47(4) . . .
46(4) . . .
37.6(35) . . .
36.9(34) . . .
37.5(32) . . .
44(4) . . .
42(4) . . .
46(4) . . .
46(4) . . .
60(4) . . .
54(4) . . .
49(4) . . .
46(4) . . .
54(4) . . .
55(4) . . .
46(4) . . .
40.5(34) . . .
53(4) . . .
46(4) . . .
38.4(32) . . .
45(4) . . .
40(4) . . .
37.1(32) . . .
41.4(34) . . .
43.2(34) . . .
41.2(35) . . .
45(4) . . .
50(4) . . .
47(4) . . .
41.4(34) . . .
49(4) . . .
35.5(31) . . .
39.2(32) . . .
35.5(31) . . .
47(4) . . .
36.0(31) . . .
42.0(35) . . .
39.3(33) . . .
37.8(32) . . .
40.1(33) . . .
47(4) . . .
31.1(30) . . .
41.7(35) . . .
45.3(35) . . .
41.8(34) . . .
33.1(33) . . .
47(4) . . .
51(4) . . .
43.9(35) . . .
40.0(33) . . .
47(4) . . .
41.4(34) . . .
53(4) . . .
48(4) . . .
41.5(34) . . .
43(4) . . .
48(4) . . .
43.4(34) . . .
49(4) . . .
49(4) . . .
44(4) . . .
45(4) . . .
41.8(34) . . .
45.1(34) . . .
40(4) . . .
37.0(34) . . .
48(4) . . .
42.9(34) . . .
40.1(33) . . .
34.0(32) . . .
46(4) . . .
41.3(33) . . .
41.2(34) . . .
41.4(34) . . .
48(4) . . .
49(4) . . .
44(4) . . .
41.6(33) . . .
37.9(32) . . .
40(4) . . .
48(4) . . .
44(4) . . .
44.3(35) . . .
46.1(35) . . .
49(4) . . .
48(4) . . .
40.5(34) . . .
36.4(31) . . .
47(4) . . .
45(4) . . .
36.5(33) . . .
47(4) . . .
35.9(32) . . .
51(4) . . .
40.1(34) . . .
37.5(34) . . .
49(4) . . .
55(4) . . .
47(4) . . .
47(4) . . .
54(4) . . .
52(4) . . .
49(4) . . .
47(4) . . .
49(4) . . .
41(4) . . .
40.5(34) . . .
46(4) . . .
46(4) . . .
38.3(33) . . .
48(4) . . .
44(4) . . .
42.9(35) . . .
46(4) . . .
44(4) . . .
36.8(33) . . .
40.6(35) . . .
46(4) . . .
38.8(35) . . .
37.7(34) . . .
48(4) . . .
46(4) . . .
49(4) . . .
42(4) . . .
37.9(34) . . .
49(4) . . .
44.4(35) . . .
38.3(32) . . .
45(4) . . .
44(4) . . .
45(4) . . .
43.6(35) . . .
45(4) . . .
31.6(29) . . .
46(4) . . .
41.7(35) . . .
40.7(33) . . .
50(4) . . .
50(4) . . .
43.0(35) . . .
44(4) . . .
42.0(34) . . .
37.0(32) . . .
43(4) . . .
45(4) . . .
37.4(31) . . .
39.6(33) . . .
48(4) . . .
50(4) . . .
38.9(34) . . .
50(4) . . .
54(4) . . .
41.8(34) . . .
53(4) . . .
42.0(33) . . .
42.7(34) . . .
43.7(34) . . .
40.9(34) . . .
43.1(35) . . .
44(4) . . .
41.1(34) . . .
54(4) . . .
54(4) . . .
45(4) . . .
55(4) . . .
43.1(34) . . .
40.4(33) . . .
39.6(33) . . .
44(4) . . .
49(4) . . .
52(4) . . .
42.7(34) . . .
37.7(32) . . .
42(4) . . .
38.5(34) . . .
41.8(33) . . .
43.7(35) . . .
41.2(33) . . .
43(4) . . .
45(4) . . .
49(4) . . .
46(4) . . .
42(4) . . .
47(4) . . .
49(4) . . .
41.6(34) . . .
42.3(35) . . .
41(4) . . .
53(4) . . .
47(4) . . .
43.5(34) . . .
49(4) . . .
48(4) . . .
37.8(34) . . .
40.6(34) . . .
38.8(32) . . .
34.3(31) . . .
39.3(35) . . .
44(4) . . .
39.3(33) . . .
39.7(33) . . .
38.8(34) . . .
39(4) . . .
41.3(33) . . .
42.6(34) . . .
41.1(34) . . .
29.2(29) . . .
45(4) . . .
40.1(35) . . .
44(4) . . .
53(4) . . .
49(4) . . .
41.8(35) . . .
44.1(35) . . .
48(4) . . .
38.2(32) . . .
30.7(29) . . .
39.0(35) . . .
42(4) . . .
40.1(33) . . .
47(4) . . .
44(4) . . .
40(4) . . .
41.2(35) . . .
41.0(34) . . .
43.8(35) . . .
40.5(34) . . .
43(4) . . .
49(4) . . .
41.2(34) . . .
43.5(34) . . .
40.0(35) . . .
40(4) . . .
42(4) . . .
48(4) . . .
45.6(34) . . .
36.2(31) . . .
49(4) . . .
42.3(35) . . .
45.0(35) . . .
46(4) . . .
42.6(35) . . .
45(4) . . .
33.6(31) . . .
42.8(34) . . .
41(4) . . .
38.8(32) . . .
41.4(35) . . .
34.5(31) . . .
43.8(34) . . .
45(4) . . .
50(4) . . .
49(4) . . .
38.8(34) . . .
40.3(33) . . .
40.8(35) . . .
45(4) . . .
44(4) . . .
36.6(32) . . .
49(4) . . .
49(4) . . .
51(4) . . .
49(4) . . .
43.5(34) . . .
39.6(33) . . .
48(4) . . .
43(4) . . .
39.5(34) . . .
49(4) . . .
43.1(34) . . .
50(4) . . .
40.5(34) . . .
40.7(33) . . .
40.8(34) . . .
46(4) . . .
34.6(31) . . .
39.4(34) . . .
45(4) . . .
43.1(34) . . .
43.1(34) . . .
43.1(35) . . .
56(4) . . .
51(4) . . .
54(4) . . .
55(4) . . .
45(4) . . .
35.5(33) . . .
46(4) . . .
39.7(33) . . .
38.3(34) . . .
47(4) . . .
53(4) . . .
41(4) . . .
43.7(35) . . .
43(4) . . .
45(4) . . .
50(4) . . .
45(4) . . .
44.7(35) . . .
38.9(34) . . .
35.0(30) . . .
42(4) . . .
38.1(33) . . .
40.3(33) . . .
45(4) . . .
53(4) . . .
55(4) . . .
41.9(34) . . .
49(4) . . .
32.0(30) . . .
45(4) . . .
46(4) . . .
39.6(34) . . .
54(4) . . .
45(4) . . .
46(4) . . .
44(4) . . .
38.2(32) . . .
54(4) . . .
44.0(35) . . .
50(4) . . .
40.7(34) . . .
44.9(35) . . .
51(4) . . .
45(4) . . .
44(4) . . .
30.5(29) . . .
36.4(31) . . .
43(4) . . .
44(4) . . .
46(4) . . .
48(4) . . .
40.6(33) . . .
64(4) . . .
50(4) . . .
40(4) . . .
45(4) . . .
55(4) . . .
40.9(33) . . .
44.8(35) . . .
48(4) . . .
42(4) . . .
45.0(35) . . .
44(4) . . .
48(4) . . .
43(4) . . .
43(4) . . .
36.5(31) . . .
43(4) . . .
39.6(34) . . .
48(4) . . .
36.7(34) . . .
46.1(35) . . .
49(4) . . .
41.8(35) . . .
51(4) . . .
37.7(33) . . .
40.2(33) . . .
39.4(34) . . .
41(4) . . .
48(4) . . .
43.1(34) . . .
37.1(32) . . .
43(4) . . .
34.8(32) . . .
42.6(35) . . .
41.8(35) . . .
47(4) . . .
39.0(33) . . .
43(4) . . .
39.2(33) . . .
50(4) . . .
40.7(33) . . .
42.8(35) . . .
43(4) . . .
35.7(32) . . .
41.6(34) . . .
47(4) . . .
45(4) . . .
43(4) . . .
46(4) . . .
52(4) . . .
42.0(34) . . .
47(4) . . .
42(4) . . .
51(4) . . .
48(4) . . .
40.3(33) . . .
50(4) . . .
50(4) . . .
46(4) . . .
53(4) . . .
49(4) . . .
42.8(34) . . .
38.8(33) . . .
44(4) . . .
47(4) . . .
47(4) . . .
46(4) . . .
46(4) . . .
47(4) . . .
32.7(30) . . .
31.9(32) . . .
38.3(35) . . .
34.7(32) . . .
41.6(35) . . .
47(4) . . .
44(4) . . .
35.7(33) . . .
43(4) . . .
42.5(35) . . .
52(4) . . .
44.5(35) . . .
48(4) . . .
38.9(34) . . .
44(4) . . .
42.0(34) . . .
44(4) . . .
49(4) . . .
47(4) . . .
45.5(35) . . .
49(4) . . .
53(4) . . .
44(4) . . .
35.6(31) . . .
36.3(31) . . .
44(4) . . .
47(4) . . .
53(4) . . .
44.2(34) . . .
54(4) . . .
53(4) . . .
34.6(32) . . .
42(4) . . .
40.3(34) . . .
48(4) . . .
45(4) . . .
42.0(35) . . .
37.5(33) . . .
48(4) . . .
39.4(32) . . .
50(4) . . .
45(4) . . .
45(4) . . .
45(4) . . .
39.8(33) . . .
43(4) . . .
44(4) . . .
46(4) . . .
44(4) . . .
40.8(34) . . .
48(4) . . .
44(4) . . .
43(4) . . .
49(4) . . .
48(4) . . .
48(4) . . .
45(4) . . .
38.1(34) . . .
50(4) . . .
42.0(34) . . .
50(4) . . .
56(4) . . .
48(4) . . .
48(4) . . .
35.6(31) . . .
45(4) . . .
44(4) . . .
41.9(35) . . .
51(4) . . .
37.2(32) . . .
32.7(30) . . .
40(4) . . .
43(4) . . .
41.0(33) . . .
40.1(33) . . .
38.7(33) . . .
42.9(34) . . .
52(4) . . .
47(4) . . .
44.6(34) . . .
47(4) . . .
36(4) . . .
42(4) . . .
40.8(33) . . .
46.6(35) . . .
48(4) . . .
46(4) . . .
46(4) . . .
42.2(34) . . .
46.0(35) . . .
37.5(32) . . .
45(4) . . .
47(4) . . .
47(4) . . .
41.7(33) . . .
47(4) . . .
44(4) . . .
50(4) . . .
47(4) . . .
41.6(34) . . .
41.2(35) . . .
37.1(33) . . .
42.1(35) . . .
52(4) . . .
49(4) . . .
48(4) . . .
44(4) . . .
43(4) . . .
50(4) . . .
37.2(33) . . .
46(4) . . .
47(4) . . .
50(4) . . .
45.9(35) . . .
41.5(34) . . .
47(4) . . .
47(4) . . .
39.8(33) . . .
48(4) . . .
47(4) . . .
50(4) . . .
35.4(31) . . .
46(4) . . .
47(4) . . .
39.3(34) . . .
45(4) . . .
53(4) . . .
50(4) . . .
42.3(34) . . .
38.1(32) . . .
43(4) . . .
42(4) . . .
41.5(34) . . .
42.6(34) . . .
36.2(34) . . .
37.6(34) . . .
36.5(32) . . .
47(4) . . .
43.5(34) . . .
41.6(34) . . .
39.8(34) . . .
42.0(34) . . .
49(4) . . .
40.0(33) . . .
43(4) . . .
46(4) . . .
36.1(32) . . .
36.5(31) . . .
51(4) . . .
36.8(32) . . .
45(4) . . .
47(4) . . .
44.0(35) . . .
36.4(31) . . .
39.2(32) . . .
47(4) . . .
43.6(34) . . .
40.0(33) . . .
42(4) . . .
37.1(32) . . .
47(4) . . .
44(4) . . .
42.4(34) . . .
46(4) . . .
41.6(35) . . .
36.5(33) . . .
39.6(32) . . .
41.5(34) . . .
48(4) . . .
44(4) . . .
43(4) . . .
40.0(33) . . .
45(4) . . .
46(4) . . .
44(4) . . .
46(4) . . .
49(4) . . .
41.3(33) . . .
31.4(29) . . .
44(4) . . .
37.3(33) . . .
28.9(28) . . .
36.1(32) . . .
41.5(35) . . .
45(4) . . .
50(4) . . .
43.2(34) . . .
38.3(32) . . .
44(4) . . .
35.0(29) . . .
50(4) . . .
39.0(33) . . .
42.1(34) . . .
42.3(34) . . .
45(4) . . .
37.0(32) . . .
44.8(35) . . .
36.6(32) . . .
42.2(35) . . .
41(4) . . .
39(4) . . .
40.3(33) . . .
30.7(29) . . .
43(4) . . .
41.8(35) . . .
39.1(33) . . .
41.8(34) . . .
39.7(35) . . .
46(4) . . .
45(4) . . .
44.2(35) . . .
40.7(33) . . .
34.6(32) . . .
46(4) . . .
49(4) . . .
43.4(35) . . .
47(4) . . .
45(4) . . .
61(5) . . .
43(4) . . .
40.6(33) . . .
40.4(33) . . .
38.0(34) . . .
48(4) . . .
39.3(33) . . .
46(4) . . .
44.2(35) . . .
39.0(34) . . .
40.5(35) . . .
47(4) . . .
43.6(35) . . .
49(4) . . .
38.8(33) . . .
40.3(34) . . .
41.8(33) . . .
40.3(34) . . .
40.1(33) . . .
44(4) . . .
41(4) . . .
38.6(34) . . .
41.1(34) . . .
38.5(33) . . .
46(4) . . .
37.0(34) . . .
33.3(30) . . .
40.1(33) . . .
37.2(32) . . .
45(4) . . .
36.7(32) . . .
38.5(32) . . .
49(4) . . .
42.5(34) . . .
47(4) . . .
48(4) . . .
39.8(32) . . .
48(4) . . .
43.3(35) . . .
44(4) . . .
43(4) . . .
42(4) . . .
54(4) . . .
45(4) . . .
41.5(35) . . .
40.9(34) . . .
48(4) . . .
45.3(35) . . .
48(4) . . .
41.5(34) . . .
43(4) . . .
49(4) . . .
41.4(33) . . .
49(4) . . .
44(4) . . .
41.1(34) . . .
39.5(33) . . .
37.8(32) . . .
41.1(34) . . .
55(4) . . .
38.3(34) . . .
38.4(32) . . .
34.0(32) . . .
44(4) . . .
47(4) . . .
48(4) . . .
51(4) . . .
54(4) . . .
42.6(35) . . .
43(4) . . .
38.3(34) . . .
43.8(35) . . .
44.2(35) . . .
33.6(30) . . .
44(4) . . .
41.0(33) . . .
48(4) . . .
43.2(35) . . .
40.8(34) . . .
46(4) . . .
46(4) . . .
39.5(32) . . .
42.1(34) . . .
41.3(35) . . .
53(4) . . .
47(4) . . .
42.5(34) . . .
48(4) . . .
39.3(34) . . .
35.6(33) . . .
43.2(34) . . .
47(4) . . .
43.1(34) . . .
43.1(35) . . .
51(4) . . .
48(4) . . .
35.6(31) . . .
41.1(34) . . .
54(4) . . .
45(4) . . .
37.7(32) . . .
48(4) . . .
38.5(32) . . .
40(4) . . .
38.1(34) . . .
48(4) . . .
48(4) . . .
37.0(31) . . .
46(4) . . .
45(4) . . .
43.6(34) . . .
49(4) . . .
35.9(31) . . .
51(4) . . .
54(4) . . .
31.0(30) . . .
40.8(33) . . .
40.5(33) . . .
50(4) . . .
39.0(34) . . .
41.6(33) . . .
39.4(33) . . .
46(4) . . .
41.8(35) . . .
37.6(32) . . .
35.2(31) . . .
48(4) . . .
49(4) . . .
48(4) . . .
45(4) . . .
39.2(33) . . .
45(4) . . .
43(4) . . .
44(4) . . .
46(4) . . .
39.5(33) . . .
42.0(34) . . .
39.9(35) . . .
43(4) . . .
37.2(32) . . .
46(4) . . .
43(4) . . .
39.8(34) . . .
45(4) . . .
49(4) . . .
43.6(34) . . .
46(4) . . .
53(4) . . .
49(4) . . .
48(4) . . .
40.0(33) . . .
44(4) . . .
32.1(30) . . .
46(4) . . .
48(4) . . .
47(4) . . .
39.2(33) . . .
41(4) . . .
45(4) . . .
42.7(34) . . .
37.3(32) . . .
39.1(33) . . .
38(4) . . .
39.1(33) . . .
42.4(34) . . .
49(4) . . .
49(4) . . .
43(4) . . .
42.4(34) . . .
42.4(34) . . .
41.2(34) . . .
51(4) . . .
36.0(34) . . .
44(4) . . .
47(4) . . .
51(4) . . .
41.6(35) . . .
39(4) . . .
36.3(32) . . .
45.3(35) . . .
52(4) . . .
37(4) . . .
36.4(32) . . .
47(4) . . .
43.9(34) . . .
36.7(31) . . .
46(4) . . .
41.4(35) . . .
49(4) . . .
53(4) . . .
32.9(30) . . .
43(4) . . .
37.4(34) . . .
41.5(33) . . .
40.9(33) . . .
38.9(33) . . .
40.3(35) . . .
44(4) . . .
46(4) . . .
39.5(33) . . .
44(4) . . .
46(4) . . .
52(4) . . .
39.0(33) . . .
52(4) . . .
45.1(35) . . .
36.8(35) . . .
35.3(33) . . .
45(4) . . .
42.2(34) . . .
35.3(31) . . .
39.9(35) . . .
42.2(34) . . .
42.4(35) . . .
38.8(32) . . .
42.8(34) . . .
47(4) . . .
39.6(34) . . .
30.6(29) . . .
43.7(34) . . .
45(4) . . .
53(4) . . .
48(4) . . .
47(4) . . .
38.2(31) . . .
42.3(35) . . .
52(4) . . .
53(4) . . .
40.6(33) . . .
46(4) . . .
37.3(33) . . .
38.4(34) . . .
47(4) . . .
36.1(31) . . .
45(4) . . .
42.4(34) . . .
44(4) . . .
37.6(32) . . .
40.2(33) . . .
43.9(34) . . .
45(4) . . .
39.3(33) . . .
44.4(35) . . .
51(4) . . .
49(4) . . .
45(4) . . .
42.8(35) . . .
45.8(35) . . .
39.6(33) . . .
46(4) . . .
45(4) . . .
38.6(33) . . .
46(4) . . .
39.8(33) . . .
36.1(33) . . .
34.9(30) . . .
32.6(30) . . .
33.8(30) . . .
41.2(34) . . .
40.2(33) . . .
45(4) . . .
41.0(34) . . .
50(4) . . .
36.8(31) . . .
37.2(32) . . .
42(4) . . .
40.3(33) . . .
43.9(34) . . .
37.8(32) . . .
57(4) . . .
47(4) . . .
30.0(29) . . .
43.5(34) . . .
34.1(30) . . .
43(4) . . .
41(4) . . .
45(4) . . .
40.0(33) . . .
45(4) . . .
46(4) . . .
43.8(35) . . .
39.8(33) . . .
47(4) . . .
44(4) . . .
38(4) . . .
36.6(33) . . .
40.1(34) . . .
38.2(32) . . .
39.2(33) . . .
47(4) . . .
50(4) . . .
39.8(33) . . .
39.0(33) . . .
52(4) . . .
36.4(31) . . .
41(4) . . .
36.2(32) . . .
40.1(33) . . .
50(4) . . .
56(4) . . .
42.3(34) . . .
36.6(32) . . .
45.1(35) . . .
49(4) . . .
44(4) . . .
46(4) . . .
41.3(34) . . .
33.5(30) . . .
38.7(33) . . .
42(4) . . .
43(4) . . .
40.9(34) . . .
45.7(35) . . .
49(4) . . .
42(4) . . .
41.2(34) . . .
42.7(34) . . .
42.0(33) . . .
42.5(34) . . .
47(4) . . .
44(4) . . .
43(4) . . .
43.0(35) . . .
46.2(35) . . .
45(4) . . .
38.5(33) . . .
49(4) . . .
44.2(35) . . .
45(4) . . .
41(4) . . .
41.6(34) . . .
47(4) . . .
43.9(34) . . .
43.3(35) . . .
47(4) . . .
44.6(35) . . .
33.2(30) . . .
39.1(34) . . .
38.8(33) . . .
41.5(34) . . .
39.5(33) . . .
38.9(32) . . .
44(4) . . .
45(4) . . .
37.2(31) . . .
47(4) . . .
39.6(33) . . .
35.0(34) . . .
44(4) . . .
42.9(34) . . .
49(4) . . .
43.3(35) . . .
43(4) . . .
40(4) . . .
47(4) . . .
48(4) . . .
43.7(34) . . .
37.3(34) . . .
47(4) . . .
34.3(30) . . .
34.5(32) . . .
33.6(30) . . .
47(4) . . .
50(4) . . .
45(4) . . .
43.4(34) . . .
41.5(34) . . .
49(4) . . .
40.1(34) . . .
49(4) . . .
49(4) . . .
45(4) . . .
38.3(33) . . .
44(4) . . .
42(4) . . .
40.0(33) . . .
31.6(29) . . .
41(4) . . .
38.6(34) . . .
49(4) . . .
59(4) . . .
46(4) . . .
44.5(34) . . .
47(4) . . .
44(4) . . .
41.0(33) . . .
48(4) . . .
35.8(32) . . .
42(4) . . .
49(4) . . .
38.8(33) . . .
44.0(35) . . .
49(4) . . .
44(4) . . .
40.7(34) . . .
39.6(33) . . .
31.0(29) . . .
29.7(29) . . .
51(4) . . .
46(4) . . .
38.4(33) . . .
38(4) . . .
33.0(31) . . .
47(4) . . .
50(4) . . .
36.3(31) . . .
53(4) . . .
47(4) . . .
39.8(33) . . .
44(4) . . .
40.1(33) . . .
45(4) . . .
45(4) . . .
42(4) . . .
48(4) . . .
44.8(35) . . .
39.4(33) . . .
42(4) . . .
42(4) . . .
40.6(33) . . .
33.4(30) . . .
39.0(32) . . .
45(4) . . .
44(4) . . .
36.4(31) . . .
41.0(33) . . .
45(4) . . .
38.8(34) . . .
43(4) . . .
46(4) . . .
39.8(33) . . .
47(4) . . .
48(4) . . .
41.8(34) . . .
48(4) . . .
41.0(33) . . .
36.9(31) . . .
42.9(34) . . .
36.7(34) . . .
29.7(29) . . .
41.3(35) . . .
46(4) . . .
35.9(31) . . .
49(4) . . .
47(4) . . .
50(4) . . .
38.6(35) . . .
37.8(34) . . .
49(4) . . .
34.8(32) . . .
47(4) . . .
40.2(33) . . .
40.5(34) . . .
43(4) . . .
39.5(32) . . .
37.4(32) . . .
38.5(33) . . .
47(4) . . .
38.1(32) . . .
36.0(32) . . .
32.9(31) . . .
39.7(35) . . .
45.0(35) . . .
41.1(34) . . .
31.3(30) . . .
34.0(31) . . .
48(4) . . .
50(4) . . .
48(4) . . .
48(4) . . .
41.2(33) . . .
46(4) . . .
34.0(30) . . .
52(4) . . .
41.5(33) . . .
45(4) . . .
46(4) . . .
42.9(35) . . .
41.3(34) . . .
38.9(33) . . .
46(4) . . .
48(4) . . .
44(4) . . .
54(4) . . .
54(4) . . .
46(4) . . .
52(4) . . .
39.7(33) . . .
44.1(35) . . .
46(4) . . .
46(4) . . .
39.1(32) . . .
38.0(32) . . .
39.4(33) . . .
46(4) . . .
47(4) . . .
42(4) . . .
41.1(34) . . .
48(4) . . .
49(4) . . .
43.2(34) . . .
48(4) . . .
41.7(34) . . .
42.3(34) . . .
42(4) . . .
39.6(35) . . .
47(4) . . .
46(4) . . .
49(4) . . .
47(4) . . .
46(4) . . .
38.6(33) . . .
43.9(35) . . .
47(4) . . .
47(4) . . .
42(4) . . .
38.5(34) . . .
38.6(33) . . .
45.0(35) . . .
39.7(34) . . .
43(4) . . .
34.1(31) . . .
41.9(34) . . .
45(4) . . .
42(4) . . .
46(4) . . .
39.7(33) . . .
44.9(35) . . .
54(4) . . .
41.7(35) . . .
48(4) . . .
40(4) . . .
36.0(31) . . .
33.4(31) . . .
46(4) . . .
43(4) . . .
40.3(34) . . .
42.5(34) . . .
37.1(32) . . .
44(4) . . .
44(4) . . .
50(4) . . .
43.3(34) . . .
35.3(31) . . .
42(4) . . .
37.7(34) . . .
38.7(35) . . .
39.3(33) . . .
32.1(32) . . .
44(4) . . .
45(4) . . .
42.6(35) . . .
34.4(31) . . .
40.1(33) . . .
46(4) . . .
42.5(35) . . .
37.0(32) . . .
48(4) . . .
40(4) . . .
36.2(34) . . .
37.0(33) . . .
43.1(34) . . .
38.1(32) . . .
41(4) . . .
43(4) . . .
31.9(29) . . .
34.5(30) . . .
36.6(32) . . .
41.9(35) . . .
36.5(33) . . .
37.0(32) . . .
36.3(32) . . .
35.5(32) . . .
40.4(35) . . .
40.2(35) . . .
40.0(33) . . .
39.3(33) . . .
35.3(30) . . .
47(4) . . .
49(4) . . .
33.2(31) . . .
46(4) . . .
49(4) . . .
43(4) . . .
45(4) . . .
44(4) . . .
39.6(33) . . .
50(4) . . .
42.2(34) . . .
42(4) . . .
41(4) . . .
35.0(32) . . .
33.1(30) . . .
45(4) . . .
48(4) . . .
39.7(33) . . .
42.4(34) . . .
37.0(32) . . .
43(4) . . .
46(4) . . .
46(4) . . .
43.0(34) . . .
45(4) . . .
38.9(33) . . .
48(4) . . .
43.2(35) . . .
39.2(32) . . .
39.8(34) . . .
39.8(33) . . .
45(4) . . .
38.8(33) . . .
45.4(35) . . .
44(4) . . .
35.6(31) . . .
37.5(32) . . .
42.2(34) . . .
31.9(29) . . .
39.9(34) . . .
37.2(33) . . .
38.6(33) . . .
41.3(33) . . .
54(4) . . .
41.5(35) . . .
37.8(33) . . .
42.2(34) . . .
39.0(33) . . .
40.1(33) . . .
38.9(33) . . .
36.3(33) . . .
40.5(34) . . .
41.3(34) . . .
34.4(30) . . .
41.5(34) . . .
41(4) . . .
37.6(33) . . .
43.3(34) . . .
34.2(31) . . .
37.3(34) . . .
43(4) . . .
46(4) . . .
47(4) . . .
34.8(30) . . .
45(4) . . .
42(4) . . .
43(4) . . .
44.5(34) . . .
40(4) . . .
46(4) . . .
47(4) . . .
41.3(34) . . .
32.8(30) . . .
39.5(35) . . .
44(4) . . .
47(4) . . .
51(4) . . .
35.5(31) . . .
49(4) . . .
47(4) . . .
33.7(31) . . .
39.8(32) . . .
43.0(34) . . .
45(4) . . .
41.0(34) . . .
46(4) . . .
41.8(33) . . .
37.1(32) . . .
41.3(33) . . .
49(4) . . .
49(4) . . .
50(4) . . .
44.4(35) . . .
42.5(34) . . .
38.9(34) . . .
41.4(35) . . .
40.5(33) . . .
53(4) . . .
43.6(34) . . .
46(4) . . .
46(4) . . .
41.2(34) . . .
36.1(32) . . .
39.1(32) . . .
51(4) . . .
43(4) . . .
42.5(34) . . .
48(4) . . .
41.1(34) . . .
46(4) . . .
36.3(32) . . .
37.8(32) . . .
40.2(34) . . .
43.7(35) . . .
43.2(34) . . .
42.7(34) . . .
45.4(35) . . .
41.1(33) . . .
40.5(34) . . .
42(4) . . .
41.5(34) . . .
38.2(32) . . .
42(4) . . .
46(4) . . .
49(4) . . .
43.1(35) . . .
40.4(34) . . .
44.1(35) . . .
45(4) . . .
47(4) . . .
49(4) . . .
39.7(33) . . .
30.3(29) . . .
42(4) . . .
47(4) . . .
46(4) . . .
42.1(34) . . .
32.9(31) . . .
43(4) . . .
32.9(30) . . .
35.8(32) . . .
40.0(33) . . .
38.3(32) . . .
37.8(34) . . .
35.5(32) . . .
37.2(32) . . .
38.1(32) . . .
39(4) . . .
35.9(35) . . .
37.7(33) . . .
37.6(32) . . .
45(4) . . .
53(4) . . .
43(4) . . .
42(4) . . .
40.0(33) . . .
40.3(33) . . .
44.2(35) . . .
37.9(33) . . .
40.9(35) . . .
48(4) . . .
39.5(33) . . .
40.2(33) . . .
46(4) . . .
43.0(34) . . .
47(4) . . .
33.2(31) . . .
45(4) . . .
39.4(33) . . .
40.8(33) . . .
34.1(31) . . .
35.8(33) . . .
37(4) . . .
41(4) . . .
41.1(33) . . .
50(4) . . .
46(4) . . .
39(4) . . .
36.1(31) . . .
41.9(35) . . .
40.8(33) . . .
52(4) . . .
47(4) . . .
32.8(32) . . .
36.0(32) . . .
45.3(35) . . .
42.0(34) . . .
45(4) . . .
47(4) . . .
48(4) . . .
40.5(34) . . .
35.8(34) . . .
43(4) . . .
42.3(34) . . .
58(4) . . .
38.8(33) . . .
41.5(35) . . .
32.4(28) . . .
38.3(33) . . .
34.1(30) . . .
45(4) . . .
43(4) . . .
40.6(33) . . .
31.8(29) . . .
33.2(31) . . .
43.8(34) . . .
46(4) . . .
41.4(34) . . .
43(4) . . .
41.3(34) . . .
48(4) . . .
35.5(31) . . .
38.8(34) . . .
49(4) . . .
43.7(34) . . .
35.4(31) . . .
34.2(31) . . .
37.7(33) . . .
47(4) . . .
46(4) . . .
37.0(31) . . .
43(4) . . .
43(4) . . .
35.0(31) . . .
43.7(35) . . .
39.0(34) . . .
45(4) . . .
36.3(32) . . .
33.5(31) . . .
37.3(32) . . .
40.4(34) . . .
43(4) . . .
34.4(31) . . .
32.1(31) . . .
37.2(32) . . .
35.1(31) . . .
44(4) . . .
44(4) . . .
42.6(33) . . .
44(4) . . .
39.4(34) . . .
42(4) . . .
41.5(35) . . .
40.8(34) . . .
47(4) . . .
43.3(34) . . .
49(4) . . .
46(4) . . .
45(4) . . .
44(4) . . .
38.0(34) . . .
34.2(30) . . .
40.9(33) . . .
39.6(32) . . .
47(4) . . .
45(4) . . .
46(4) . . .
41(4) . . .
46(4) . . .
41.9(34) . . .
42(4) . . .
46(4) . . .
38.8(34) . . .
36.6(32) . . .
40.5(33) . . .
44(4) . . .
31.3(29) . . .
36.0(32) . . .
42.9(34) . . .
37.9(33) . . .
38.5(33) . . .
47(4) . . .
41.1(33) . . .
40.0(33) . . .
39(4) . . .
37.4(33) . . .
42.0(34) . . .
45(4) . . .
35.7(31) . . .
38.4(33) . . .
39.8(34) . . .
40.7(35) . . .
40.8(34) . . .
38.8(32) . . .
39.3(33) . . .
44(4) . . .
40(4) . . .
38.3(32) . . .
46.1(35) . . .
54(4) . . .
40(4) . . .
39.1(34) . . .
43.8(34) . . .
48(4) . . .
45(4) . . .
48(4) . . .
36.6(32) . . .
38.5(32) . . .
41(4) . . .
32.4(29) . . .
46(4) . . .
39.6(34) . . .
36.7(31) . . .
38.3(32) . . .
46(4) . . .
37.2(33) . . .
40(4) . . .
46(4) . . .
41.0(33) . . .
36.8(33) . . .
33.7(32) . . .
35.3(33) . . .
41.5(34) . . .
42.3(35) . . .
45(4) . . .
35.7(33) . . .
35.7(32) . . .
44.1(35) . . .
44(4) . . .
44(4) . . .
43.8(35) . . .
47(4) . . .
46(4) . . .
41(4) . . .
47(4) . . .
42.1(34) . . .
35.3(30) . . .
39.7(33) . . .
42.5(34) . . .
38.7(32) . . .
50(4) . . .
48(4) . . .
41.7(34) . . .
47(4) . . .
36.2(32) . . .
42(4) . . .
36.2(31) . . .
33.4(31) . . .
36.5(34) . . .
39(4) . . .
40.9(34) . . .
38.6(32) . . .
47(4) . . .
41.3(35) . . .
48(4) . . .
46(4) . . .
42.8(34) . . .
39.2(32) . . .
45(4) . . .
44(4) . . .
41(4) . . .
39.0(33) . . .
45(4) . . .
35.6(32) . . .
34.5(32) . . .
37.6(32) . . .
32.6(30) . . .
41.7(35) . . .
40.3(34) . . .
39(4) . . .
48(4) . . .
47(4) . . .
41.0(34) . . .
43.0(34) . . .
46(4) . . .
44(4) . . .
37.3(32) . . .
40.0(34) . . .
42(4) . . .
43(4) . . .
36.3(32) . . .
38.5(32) . . .
35.8(32) . . .
41(4) . . .
35.0(32) . . .
32.7(31) . . .
42.1(34) . . .
41.8(35) . . .
48(4) . . .
40.7(34) . . .
38.7(32) . . .
38.0(33) . . .
32.0(30) . . .
43(4) . . .
33.1(32) . . .
39.3(33) . . .
48(4) . . .
38.2(33) . . .
42(4) . . .
45(4) . . .
45(4) . . .
58(4) . . .
46(4) . . .
38.4(32) . . .
41.8(34) . . .
39.2(32) . . .
46(4) . . .
38.6(32) . . .
38.8(34) . . .
40.5(35) . . .
42.7(34) . . .
39.7(33) . . .
37.7(34) . . .
32.7(33) . . .
34.2(34) . . .
38.7(32) . . .
48(4) . . .
44(4) . . .
41.9(35) . . .
48(4) . . .
42.0(33) . . .
42(4) . . .
47(4) . . .
45(4) . . .
41.4(34) . . .
50(4) . . .
46(4) . . .
46(4) . . .
42.7(34) . . .
41.4(35) . . .
38.3(32) . . .
46(4) . . .
42.7(35) . . .
35.9(32) . . .
40.0(33) . . .
37.1(33) . . .
32.8(31) . . .
33.7(31) . . .
45(4) . . .
39.2(32) . . .
43.0(34) . . .
41.5(34) . . .
44(4) . . .
52(4) . . .
42(4) . . .
40.6(33) . . .
47(4) . . .
45(4) . . .
40.5(34) . . .
43.4(34) . . .
40.2(34) . . .
38.2(34) . . .
39.4(34) . . .
41(4) . . .
33.6(30) . . .
40.8(33) . . .
33.7(33) . . .
36.5(34) . . .
31.8(30) . . .
36.0(32) . . .
40.6(34) . . .
50(4) . . .
43(4) . . .
41.0(35) . . .
36.0(31) . . .
33.6(30) . . .
29.9(28) . . .
32.3(32) . . .
36.3(32) . . .
37.1(31) . . .
49(4) . . .
50(4) . . .
44(4) . . .
36.1(32) . . .
40.1(33) . . .
35.8(33) . . .
41(4) . . .
38.5(32) . . .
48(4) . . .
42.3(34) . . .
36.2(32) . . .
45(4) . . .
34.7(32) . . .
30.8(30) . . .
41.1(33) . . .
43(4) . . .
37.3(33) . . .
48(4) . . .
41.6(35) . . .
44.2(34) . . .
35.6(30) . . .
46(4) . . .
47(4) . . .
42.8(35) . . .
36.1(32) . . .
44(4) . . .
37.2(34) . . .
43(4) . . .
48(4) . . .
41.2(33) . . .
51(4) . . .
35.8(34) . . .
40.3(34) . . .
35.0(31) . . .
49(4) . . .
45(4) . . .
37.8(32) . . .
36.5(32) . . .
42.5(34) . . .
33.4(29) . . .
43(4) . . .
35.6(34) . . .
40.5(35) . . .
41.6(33) . . .
33.5(30) . . .
36.1(31) . . .
37.9(32) . . .
43.1(34) . . .
47(4) . . .
50(4) . . .
39.4(33) . . .
39.1(34) . . .
47(4) . . .
41.8(34) . . .
37.8(32) . . .
40.7(33) . . .
41.9(34) . . .
39.3(34) . . .
35.5(31) . . .
49(4) . . .
38.0(33) . . .
42.7(35) . . .
37.3(32) . . .
40.7(33) . . .
39.5(35) . . .
39.3(35) . . .
31.7(28) . . .
35.8(32) . . .
39.5(33) . . .
45(4) . . .
34.6(32) . . .
36.3(34) . . .
37.4(32) . . .
32.4(30) . . .
47(4) . . .
42(4) . . .
36.8(32) . . .
41.3(33) . . .
38.5(32) . . .
39.8(33) . . .
38.8(34) . . .
32.8(30) . . .
45(4) . . .
45.4(35) . . .
38.0(33) . . .
37(4) . . .
42.3(34) . . .
52(4) . . .
43.2(34) . . .
44(4) . . .
48(4) . . .
50(4) . . .
42.4(34) . . .
37.8(31) . . .
47(4) . . .
38.4(33) . . .
34.7(31) . . .
35.1(31) . . .
36.4(31) . . .
39.4(33) . . .
34.6(32) . . .
33.9(32) . . .
44.0(35) . . .
48(4) . . .
29.8(28) . . .
42.8(35) . . .
50(4) . . .
41.2(34) . . .
47(4) . . .
39.7(33) . . .
39.4(35) . . .
41.9(34) . . .
45(4) . . .
30.5(29) . . .
36.5(34) . . .
41(4) . . .
41(4) . . .
39.7(34) . . .
35.6(32) . . .
34.7(32) . . .
34.3(31) . . .
32.1(30) . . .
42.0(33) . . .
42(4) . . .
41(4) . . .
35.2(33) . . .
43.2(35) . . .
36.1(31) . . .
41.3(34) . . .
42(4) . . .
41.3(35) . . .
51(4) . . .
48(4) . . .
38.6(32) . . .
38.6(34) . . .
40.2(33) . . .
40.3(33) . . .
43.1(34) . . .
38.3(33) . . .
37.3(34) . . .
38.2(32) . . .
35.5(31) . . .
33.7(31) . . .
44(4) . . .
33.2(32) . . .
39.7(34) . . .
50(4) . . .
39.1(33) . . .
36.5(33) . . .
41(4) . . .
43(4) . . .
41.5(33) . . .
35.0(32) . . .
43.6(35) . . .
49(4) . . .
25.1(26) . . .
39.0(32) . . .
48(4) . . .
41.3(33) . . .
38.5(32) . . .
39.5(34) . . .
36.8(32) . . .
35.6(32) . . .
46(4) . . .
42.1(35) . . .
42.5(35) . . .
38.7(32) . . .
38.7(33) . . .
41(4) . . .
40.7(33) . . .
49(4) . . .
46(4) . . .
45(4) . . .
36.5(35) . . .
41.1(34) . . .
51(4) . . .
42.3(33) . . .
42(4) . . .
48(4) . . .
47(4) . . .
41.1(33) . . .
37.2(32) . . .
37.2(32) . . .
39(4) . . .
43.5(35) . . .
40.0(33) . . .
40.6(33) . . .
42(4) . . .
36.8(35) . . .
32.0(30) . . .
49(4) . . .
40.4(33) . . .
32.4(29) . . .
39(4) . . .
38(4) . . .
37.7(32) . . .
38.0(32) . . .
36.8(32) . . .
44(4) . . .
42.8(34) . . .
40.5(33) . . .
46.0(35) . . .
39.5(34) . . .
34.7(33) . . .
38.4(35) . . .
39.1(33) . . .
38.9(33) . . .
41(4) . . .
47(4) . . .
39.6(32) . . .
35.3(31) . . .
40.3(35) . . .
40(4) . . .
41(4) . . .
41.0(33) . . .
33.9(30) . . .
43.1(34) . . .
46(4) . . .
43(4) . . .
36.3(32) . . .
39.8(33) . . .
34.8(31) . . .
42(4) . . .
36.6(34) . . .
39.0(33) . . .
40.6(33) . . .
38.5(33) . . .
37.6(35) . . .
42(4) . . .
47(4) . . .
35.9(31) . . .
45(4) . . .
52(4) . . .
47(4) . . .
52(4) . . .
34.8(31) . . .
35.5(33) . . .
38.0(33) . . .
51(4) . . .
46.4(35) . . .
44.4(34) . . .
37.0(32) . . .
40(4) . . .
45(4) . . .
39.9(33) . . .
42.1(34) . . .
40.5(34) . . .
39.1(34) . . .
40.5(33) . . .
48(4) . . .
38.5(32) . . .
36.9(32) . . .
36.4(33) . . .
32.6(30) . . .
36.2(31) . . .
42.3(35) . . .
36.4(33) . . .
37.2(33) . . .
42.6(34) . . .
48(4) . . .
36.8(31) . . .
41(4) . . .
36(4) . . .
38.8(34) . . .
43.8(35) . . .
36.6(34) . . .
39(4) . . .
40(4) . . .
37.5(32) . . .
42.7(34) . . .
37.6(32) . . .
45(4) . . .
37.3(35) . . .
43(4) . . .
43.6(35) . . .
42.0(34) . . .
36.2(33) . . .
30.3(30) . . .
34.8(31) . . .
39.4(34) . . .
38.2(34) . . .
38.2(34) . . .
30.4(28) . . .
39.6(34) . . .
41.9(33) . . .
39.0(33) . . .
46(4) . . .
37.0(32) . . .
36.5(31) . . .
40.5(33) . . .
34.5(32) . . .
38.5(34) . . .
40.0(34) . . .
32.8(30) . . .
35.4(32) . . .
41.7(35) . . .
38.0(33) . . .
41(4) . . .
44.1(35) . . .
39.1(33) . . .
40.0(35) . . .
36.3(33) . . .
28.6(29) . . .
34.5(31) . . .
39.6(32) . . .
38.3(33) . . .
28.1(27) . . .
37.1(33) . . .
33.4(30) . . .
36.1(31) . . .
37.5(33) . . .
39.0(34) . . .
39.5(33) . . .
44.5(35) . . .
47(4) . . .
33.2(30) . . .
40.0(34) . . .
38.4(32) . . .
37.1(32) . . .
39.2(34) . . .
44(4) . . .
35.8(33) . . .
27.0(28) . . .
40.8(33) . . .
42(4) . . .
40.2(35) . . .
41(4) . . .
39.7(33) . . .
48(4) . . .
46(4) . . .
37.3(33) . . .
44(4) . . .
45(4) . . .
37.1(31) . . .
41.5(34) . . .
44(4) . . .
41.7(35) . . .
40.9(35) . . .
40.3(33) . . .
37.7(34) . . .
42(4) . . .
42.0(35) . . .
40.8(34) . . .
49(4) . . .
39.3(34) . . .
39(4) . . .
36.8(34) . . .
44.0(34) . . .
39.3(34) . . .
34.5(31) . . .
38.4(33) . . .
32.6(30) . . .
38.4(33) . . .
40.5(35) . . .
30.2(29) . . .
35.3(34) . . .
43(4) . . .
37.8(32) . . .
44(4) . . .
36.3(33) . . .
33.1(31) . . .
32.7(30) . . .
40.6(33) . . .
40(4) . . .
35.8(33) . . .
44(4) . . .
37.2(32) . . .
47(4) . . .
38.3(33) . . .
35.8(35) . . .
34.9(32) . . .
36.4(32) . . .
41.3(33) . . .
38.6(34) . . .
32.8(30) . . .
48(4) . . .
39.8(34) . . .
39.4(33) . . .
41.2(34) . . .
39.2(35) . . .
31.1(29) . . .
35.0(31) . . .
43.2(34) . . .
33.8(31) . . .
42(4) . . .
37.2(34) . . .
33.4(31) . . .
42.5(35) . . .
36.9(32) . . .
45(4) . . .
33.7(31) . . .
38.8(32) . . .
33.1(30) . . .
37.5(32) . . .
34.3(31) . . .
39.2(33) . . .
37.5(32) . . .
28.3(27) . . .
42(4) . . .
41(4) . . .
41.8(35) . . .
46(4) . . .
45(4) . . .
40.3(34) . . .
32.0(31) . . .
36.1(33) . . .
36.8(32) . . .
37.9(34) . . .
39.7(34) . . .
46(4) . . .
41.6(34) . . .
35.7(32) . . .
34.8(32) . . .
33.8(33) . . .
40(4) . . .
46(4) . . .
48(4) . . .
39.6(33) . . .
42(4) . . .
38.5(33) . . .
37.9(32) . . .
39.6(33) . . .
42(4) . . .
38.5(35) . . .
39.7(34) . . .
41.6(33) . . .
44.9(35) . . .
37.2(33) . . .
28.7(30) . . .
33.8(33) . . .
39.1(32) . . .
34.3(30) . . .
35.6(32) . . .
39.8(35) . . .
39.3(35) . . .
33.1(30) . . .
39.0(33) . . .
41.8(35) . . .
41(4) . . .
35.7(32) . . .
40.4(33) . . .
38.5(32) . . .
39.8(33) . . .
47(4) . . .
38.9(34) . . .
39.6(33) . . .
36.0(32) . . .
42.4(34) . . .
42(4) . . .
38(4) . . .
39.9(33) . . .
41.8(34) . . .
36.3(33) . . .
51(4) . . .
37.3(32) . . .
38.0(32) . . .
39.6(35) . . .
41(4) . . .
41.9(34) . . .
42.5(34) . . .
54(4) . . .
42(4) . . .
37.2(34) . . .
40.8(34) . . .
48(4) . . .
42.9(34) . . .
42(4) . . .
34.3(32) . . .
36.0(31) . . .
42.9(34) . . .
42.5(34) . . .
35.5(32) . . .
45(4) . . .
39.2(34) . . .
41.9(34) . . .
38.4(32) . . .
44(4) . . .
35.8(33) . . .
35.9(33) . . .
42.6(34) . . .
38.8(33) . . .
39.8(33) . . .
43(4) . . .
43.1(34) . . .
46(4) . . .
34.6(30) . . .
35.1(33) . . .
37.3(34) . . .
35.8(32) . . .
35.1(30) . . .
39.4(33) . . .
35.7(31) . . .
38.7(34) . . .
36.6(32) . . .
35.5(31) . . .
35.1(31) . . .
37(4) . . .
37.1(34) . . .
32.9(31) . . .
34.7(30) . . .
43(4) . . .
41.4(35) . . .
39.0(34) . . .
34.8(32) . . .
43.5(35) . . .
37.0(32) . . .
37.7(33) . . .
48(4) . . .
36.8(33) . . .
42.4(34) . . .
33.9(31) . . .
40(4) . . .
37.8(34) . . .
38.5(32) . . .
48(4) . . .
42(4) . . .
37.7(34) . . .
44(4) . . .
48(4) . . .
35.2(30) . . .
31.6(29) . . .
43(4) . . .
30.1(28) . . .
40.8(33) . . .
36.3(31) . . .
34.6(31) . . .
34.9(32) . . .
48(4) . . .
41.6(33) . . .
42.5(34) . . .
35.5(32) . . .
38.6(33) . . .
45(4) . . .
38.2(32) . . .
38.3(33) . . .
29.3(29) . . .
36.7(34) . . .
34.1(32) . . .
46(4) . . .
40.4(33) . . .
44(4) . . .
41(4) . . .
41(4) . . .
42.6(34) . . .
43.9(35) . . .
49(4) . . .
40.5(34) . . .
31.5(30) . . .
32.0(29) . . .
38.8(34) . . .
31.3(32) . . .
35.1(34) . . .
42(4) . . .
34.9(31) . . .
45(4) . . .
38.9(33) . . .
38.3(33) . . .
38.3(34) . . .
37.4(31) . . .
40.0(34) . . .
34.4(32) . . .
39.3(33) . . .
37.4(31) . . .
41.1(34) . . .
37.9(32) . . .
43(4) . . .
44(4) . . .
42.3(33) . . .
37.6(32) . . .
39.3(34) . . .
40.5(35) . . .
39(4) . . .
33.8(31) . . .
32.5(30) . . .
34.1(32) . . .
34.3(33) . . .
32.3(31) . . .
34.4(31) . . .
41.9(33) . . .
32.4(31) . . .
35.8(34) . . .
46(4) . . .
43.2(35) . . .
29.7(28) . . .
49(4) . . .
48(4) . . .
40(4) . . .
46(4) . . .
51(4) . . .
39.0(34) . . .
30.0(30) . . .
37.9(34) . . .
41.1(33) . . .
35.8(31) . . .
35.3(33) . . .
41(4) . . .
32.3(30) . . .
43.7(34) . . .
36.6(31) . . .
41(4) . . .
34.8(31) . . .
38.1(34) . . .
35.2(31) . . .
37.5(32) . . .
43(4) . . .
39.7(35) . . .
40.8(35) . . .
43.5(35) . . .
40.6(34) . . .
44(4) . . .
36.9(33) . . .
42.3(34) . . .
37.8(32) . . .
33.4(32) . . .
30.5(33) . . .
26.3(27) . . .
33.5(31) . . .
37.9(32) . . .
37.3(33) . . .
38.6(35) . . .
31.4(29) . . .
35.6(31) . . .
36.8(32) . . .
45(4) . . .
40(4) . . .
33.2(32) . . .
39.5(34) . . .
40.8(34) . . .
39.7(33) . . .
39.6(33) . . .
43(4) . . .
38.7(32) . . .
38.2(32) . . .
40.0(33) . . .
48(4) . . .
46(4) . . .
33.8(31) . . .
34.8(31) . . .
32.7(30) . . .
40(4) . . .
30.2(28) . . .
36.5(32) . . .
36.6(31) . . .
36.6(32) . . .
46(4) . . .
33.9(30) . . .
40.6(33) . . .
38.9(34) . . .
40(4) . . .
39.7(33) . . .
36.7(32) . . .
41.7(34) . . .
30.2(29) . . .
43(4) . . .
43.0(35) . . .
37.8(33) . . .
31.5(30) . . .
37.0(32) . . .
36.0(31) . . .
42(4) . . .
37.4(32) . . .
42.2(33) . . .
33.4(31) . . .
29.5(29) . . .
39(4) . . .
38.3(34) . . .
36.3(31) . . .
43.3(35) . . .
36.7(35) . . .
42(4) . . .
38.8(33) . . .
35.0(31) . . .
34.4(32) . . .
36.2(33) . . .
39(4) . . .
41.4(33) . . .
40.9(33) . . .
39.0(34) . . .
38.8(34) . . .
36.2(33) . . .
42.9(34) . . .
35.0(31) . . .
31.7(29) . . .
38.7(34) . . .
47(4) . . .
46.2(35) . . .
47(4) . . .
43(4) . . .
46(4) . . .
40(4) . . .
28.6(28) . . .
40.5(33) . . .
34.8(32) . . .
39(4) . . .
35.2(31) . . .
41.6(34) . . .
45(4) . . .
43(4) . . .
28.7(28) . . .
40.2(34) . . .
38.1(32) . . .
42.3(34) . . .
38.9(35) . . .
31.3(31) . . .
38.3(34) . . .
32.4(30) . . .
36.8(32) . . .
36.5(33) . . .
37.4(34) . . .
43.0(35) . . .
43.2(34) . . .
41.9(34) . . .
43(4) . . .
36.4(32) . . .
40.9(34) . . .
37.5(32) . . .
38.6(33) . . .
46(4) . . .
41.7(35) . . .
28.7(29) . . .
31.5(29) . . .
38.5(32) . . .
40.0(34) . . .
37.9(32) . . .
33.4(30) . . .
44.1(34) . . .
42(4) . . .
37.2(34) . . .
43(4) . . .
40.2(34) . . .
35.8(31) . . .
41(4) . . .
48(4) . . .
38.8(33) . . .
38.6(33) . . .
37.3(32) . . .
34.4(33) . . .
33(4) . . .
29.8(29) . . .
38.6(33) . . .
37.8(32) . . .
41.6(34) . . .
34.5(32) . . .
35.7(32) . . .
29.3(28) . . .
39.2(33) . . .
46(4) . . .
35.2(30) . . .
40.9(33) . . .
33.0(30) . . .
30.5(29) . . .
34.3(32) . . .
43.6(35) . . .
41.0(34) . . .
43.0(34) . . .
51(4) . . .
37.7(32) . . .
37.6(33) . . .
43(4) . . .
39.2(32) . . .
37.4(33) . . .
31.2(29) . . .
38.5(35) . . .
37.9(34) . . .
36.9(32) . . .
35.6(31) . . .
35.0(32) . . .
35.9(31) . . .
46(4) . . .
43.7(35) . . .
39.5(34) . . .
36.8(34) . . .
32.9(31) . . .
42.3(34) . . .
37.6(32) . . .
40(4) . . .
40(4) . . .
36.0(32) . . .
39.9(34) . . .
31.6(29) . . .
37.0(33) . . .
35.9(34) . . .
33.8(31) . . .
39.0(32) . . .
31.4(30) . . .
33.1(31) . . .
36.3(35) . . .
30.8(30) . . .
39.3(32) . . .
36.1(33) . . .
33.3(31) . . .
37.4(33) . . .
44(4) . . .
44.6(35) . . .
37.1(31) . . .
38.7(32) . . .
43(4) . . .
37.4(32) . . .
50(4) . . .
41.0(33) . . .
37.8(32) . . .
46(4) . . .
40.8(35) . . .
47(4) . . .
41.4(35) . . .
38(4) . . .
43(4) . . .
45(4) . . .
41.5(34) . . .
33.3(30) . . .
39.3(34) . . .
48(4) . . .
42.2(34) . . .
34.9(31) . . .
30.4(30) . . .
42(4) . . .
39.1(34) . . .
38.0(32) . . .
40.7(33) . . .
35.5(31) . . .
39.0(34) . . .
31.2(29) . . .
41.2(34) . . .
45.1(34) . . .
41.2(35) . . .
40(4) . . .
42(4) . . .
31.6(30) . . .
37.1(32) . . .
46(4) . . .
35.9(33) . . .
39.6(33) . . .
47(4) . . .
40.9(34) . . .
35.3(31) . . .
43(4) . . .
37.2(32) . . .
39.0(32) . . .
34.9(32) . . .
32.4(30) . . .
36.6(32) . . .
50(4) . . .
37.6(32) . . .
33.4(30) . . .
38.8(35) . . .
33.9(33) . . .
37.4(33) . . .
33.5(30) . . .
36.9(31) . . .
36.5(30) . . .
33.9(29) . . .
32.9(31) . . .
43.5(35) . . .
48(4) . . .
37.9(32) . . .
38.0(32) . . .
40.3(34) . . .
35.1(31) . . .
37.1(32) . . .
37.6(32) . . .
43.0(35) . . .
41.4(33) . . .
34.8(31) . . .
36.1(32) . . .
33.6(30) . . .
44(4) . . .
40.9(34) . . .
29.9(29) . . .
37.0(33) . . .
49(4) . . .
41(4) . . .
28.2(27) . . .
33.7(31) . . .
34.1(33) . . .
45(4) . . .
40.2(34) . . .
35.5(31) . . .
42.1(34) . . .
42.9(35) . . .
44(4) . . .
45(4) . . .
40.6(33) . . .
35.2(31) . . .
38.6(35) . . .
38.8(34) . . .
37.7(32) . . .
46(4) . . .
38.5(33) . . .
35.5(31) . . .
35.1(34) . . .
32.6(31) . . .
47(4) . . .
37.7(32) . . .
38.4(34) . . .
36.9(33) . . .
42(4) . . .
30.0(28) . . .
36.5(34) . . .
43(4) . . .
32.8(30) . . .
39.8(33) . . .
41.7(34) . . .
34.7(31) . . .
53(4) . . .
33.3(31) . . .
35.9(34) . . .
31.3(29) . . .
37.0(32) . . .
36.8(34) . . .
36.5(32) . . .
37.7(32) . . .
39.9(33) . . .
37.2(34) . . .
31.6(30) . . .
39.1(35) . . .
39.0(33) . . .
36.4(31) . . .
36.5(31) . . .
42(4) . . .
42(4) . . .
30.9(29) . . .
29.8(29) . . .
36.7(33) . . .
38.4(35) . . .
36.3(32) . . .
49(4) . . .
37.6(32) . . .
37(4) . . .
37.1(33) . . .
38.1(33) . . .
38.3(33) . . .
42(4) . . .
38.2(34) . . .
38.5(33) . . .
44(4) . . .
28.6(27) . . .
36.9(32) . . .
38.2(33) . . .
39.5(34) . . .
40.4(33) . . .
41.6(33) . . .
45(4) . . .
42(4) . . .
33.4(33) . . .
43(4) . . .
35.7(30) . . .
36.6(32) . . .
41.5(34) . . .
41.3(34) . . .
38(4) . . .
37.2(32) . . .
31.5(31) . . .
35.6(32) . . .
39.3(35) . . .
36.6(33) . . .
42.3(34) . . .
31.7(30) . . .
46.2(35) . . .
39.2(35) . . .
24.9(27) . . .
40.3(33) . . .
37.8(32) . . .
33.4(31) . . .
36.1(34) . . .
34.9(33) . . .
38.8(32) . . .
31.1(29) . . .
40.4(34) . . .
45(4) . . .
38.3(32) . . .
35.1(31) . . .
42(4) . . .
40(4) . . .
36.5(35) . . .
37.1(32) . . .
42.3(34) . . .
33.4(30) . . .
32.1(30) . . .
35.1(31) . . .
34.1(31) . . .
40.7(32) . . .
37.9(34) . . .
39(4) . . .
29.0(29) . . .
34.3(31) . . .
34.0(31) . . .
34.5(31) . . .
36.7(33) . . .
32.9(31) . . .
37.5(33) . . .
32.9(30) . . .
40.7(34) . . .
42(4) . . .
41(4) . . .
37.2(33) . . .
38.4(32) . . .
41.5(34) . . .
38(4) . . .
37.2(32) . . .
30.3(28) . . .
37.5(32) . . .
33.2(30) . . .
40.5(34) . . .
45(4) . . .
46(4) . . .
43.3(34) . . .
43.0(34) . . .
42.6(35) . . .
49(4) . . .
38.1(32) . . .
39.6(33) . . .
35.7(31) . . .
40.0(34) . . .
34.7(32) . . .
38.2(33) . . .
39.4(35) . . .
40.1(35) . . .
37(4) . . .
30.3(28) . . .
44(4) . . .
37.1(33) . . .
34.7(33) . . .
35.6(31) . . .
44.9(35) . . .
42.4(34) . . .
35.8(34) . . .
34.2(32) . . .
44(4) . . .
38.1(34) . . .
40.1(34) . . .
34.3(32) . . .
34.8(32) . . .
34.3(31) . . .
46(4) . . .
35.8(31) . . .
35.2(32) . . .
35.9(32) . . .
37.4(32) . . .
45(4) . . .
31.9(29) . . .
40(4) . . .
36.6(35) . . .
41.9(35) . . .
40.0(32) . . .
42.3(34) . . .
37.9(33) . . .
42(4) . . .
41(4) . . .
38.5(32) . . .
36.3(31) . . .
36.9(33) . . .
51(4) . . .
38.7(33) . . .
36.3(31) . . .
44.5(34) . . .
47(4) . . .
36.3(33) . . .
41.4(35) . . .
41.4(34) . . .
42.0(35) . . .
38.1(35) . . .
36.2(33) . . .
44(4) . . .
41.0(33) . . .
37.9(33) . . .
44(4) . . .
32.7(32) . . .
33.5(30) . . .
42.7(34) . . .
38.3(33) . . .
36.3(32) . . .
36.2(32) . . .
43.2(35) . . .
36.2(32) . . .
43(4) . . .
31.9(30) . . .
38.3(34) . . .
32.2(30) . . .
36.5(32) . . .
42.0(34) . . .
45(4) . . .
34.6(31) . . .
42.3(34) . . .
40.3(33) . . .
34.5(32) . . .
32.8(33) . . .
37.6(34) . . .
29.6(29) . . .
32.6(29) . . .
36.3(31) . . .
40(4) . . .
39.2(33) . . .
36.1(32) . . .
37.9(32) . . .
39.9(34) . . .
41(4) . . .
35(4) . . .
34.7(31) . . .
35.7(31) . . .
32.1(31) . . .
39.8(35) . . .
38.0(34) . . .
36.9(33) . . .
34.3(30) . . .
33.9(31) . . .
31.6(30) . . .
42(4) . . .
40.3(33) . . .
41(4) . . .
35.9(34) . . .
31.0(30) . . .
35.6(31) . . .
47(4) . . .
41.6(34) . . .
34.8(31) . . .
40.7(34) . . .
38.6(33) . . .
37.4(32) . . .
47(4) . . .
33.9(31) . . .
43(4) . . .
37.3(33) . . .
34.8(31) . . .
39.2(33) . . .
39.7(33) . . .
36.2(33) . . .
32.8(31) . . .
35.1(31) . . .
37.0(32) . . .
41(4) . . .
36.2(33) . . .
34.1(31) . . .
35.5(31) . . .
35.3(32) . . .
45(4) . . .
33.9(30) . . .
24.1(25) . . .
34.1(31) . . .
41.0(35) . . .
41(4) . . .
35.6(32) . . .
42.1(34) . . .
37.9(32) . . .
35.5(32) . . .
39.9(34) . . .
42.0(35) . . .
40.8(34) . . .
33.7(31) . . .
36.3(32) . . .
34.5(33) . . .
33.4(33) . . .
34.3(31) . . .
32.0(30) . . .
34.8(34) . . .
30.6(30) . . .
37.1(32) . . .
36.4(31) . . .
37.2(32) . . .
34.3(32) . . .
42(4) . . .
35.8(32) . . .
49(4) . . .
46(4) . . .
38.4(34) . . .
46(4) . . .
44(4) . . .
39.2(32) . . .
42.9(35) . . .
27.2(27) . . .
31.2(29) . . .
39.9(35) . . .
29.3(28) . . .
32.2(30) . . .
41(4) . . .
39.5(35) . . .
45(4) . . .
36.8(32) . . .
39.5(34) . . .
38.3(34) . . .
38.7(34) . . .
37.4(32) . . .
40.6(33) . . .
38.3(33) . . .
34.5(32) . . .
32.9(31) . . .
24.9(26) . . .
29.9(29) . . .
41(4) . . .
38.1(33) . . .
37.2(31) . . .
32.1(29) . . .
32.8(31) . . .
28.5(29) . . .
33.6(33) . . .
34.4(31) . . .
42.2(34) . . .
37.3(32) . . .
39.9(33) . . .
39.3(33) . . .
46(4) . . .
46.3(35) . . .
35.2(31) . . .
37.4(33) . . .
37.1(34) . . .
32.5(32) . . .
35.0(31) . . .
46(4) . . .
37.5(33) . . .
41(4) . . .
41(4) . . .
39.1(33) . . .
35.8(31) . . .
34.8(32) . . .
36.1(32) . . .
41(4) . . .
29.6(29) . . .
33.8(33) . . .
33.6(30) . . .
31.7(30) . . .
34.9(31) . . .
36.7(31) . . .
37.8(33) . . .
35.8(33) . . .
29.2(28) . . .
35.4(31) . . .
38.5(33) . . .
41.6(35) . . .
31.3(29) . . .
30.4(29) . . .
39.6(33) . . .
41.7(34) . . .
44(4) . . .
26.0(27) . . .
36.6(34) . . .
38.0(33) . . .
33.2(30) . . .
50(4) . . .
36.0(32) . . .
40.8(35) . . .
39.5(33) . . .
37.0(32) . . .
35.2(31) . . .
47(4) . . .
37.6(35) . . .
29.5(29) . . .
42.2(34) . . .
37.7(32) . . .
30.2(29) . . .
50(4) . . .
36.6(32) . . .
25.9(27) . . .
32.5(30) . . .
38.3(33) . . .
35.0(31) . . .
44.6(35) . . .
44.9(34) . . .
39.0(33) . . .
36.0(33) . . .
40.1(35) . . .
36.8(32) . . .
31.2(31) . . .
41.2(35) . . .
37.2(34) . . .
38.1(34) . . .
38.8(32) . . .
31.4(29) . . .
38(4) . . .
35.6(33) . . .
42(4) . . .
36.5(31) . . .
38.7(34) . . .
32.2(32) . . .
33.4(32) . . .
38.3(34) . . .
35.9(31) . . .
35.8(35) . . .
37.2(34) . . .
33.8(31) . . .
45(4) . . .
38.2(32) . . .
39.3(33) . . .
41.5(35) . . .
42.0(34) . . .
39.1(33) . . .
40.5(33) . . .
34.6(31) . . .
38(4) . . .
32.4(31) . . .
36.7(31) . . .
32.6(30) . . .
42.1(33) . . .
37.0(31) . . .
44.8(35) . . .
35.0(32) . . .
37.3(32) . . .
40.4(33) . . .
46(4) . . .
30.6(30) . . .
44(4) . . .
34.3(31) . . .
37(4) . . .
41(4) . . .
43(4) . . .
46(4) . . .
38.5(34) . . .
34.7(31) . . .
38.8(35) . . .
40(4) . . .
36.1(31) . . .
29.1(28) . . .
40.2(34) . . .
45(4) . . .
36.7(31) . . .
34.1(30) . . .
35.9(31) . . .
43(4) . . .
37.5(34) . . .
40.5(34) . . .
29.1(29) . . .
38.5(34) . . .
31.9(31) . . .
53(4) . . .
34.6(31) . . .
36.9(31) . . .
36.5(33) . . .
44(4) . . .
43(4) . . .
35.9(31) . . .
37.7(33) . . .
38(4) . . .
35.1(33) . . .
29.2(29) . . .
34.6(31) . . .
45.0(35) . . .
42.5(34) . . .
34.8(30) . . .
40.4(35) . . .
37.9(32) . . .
38.8(34) . . .
34.9(30) . . .
42(4) . . .
39.4(35) . . .
31.0(29) . . .
34.3(31) . . .
45(4) . . .
38.2(32) . . .
39.0(33) . . .
34.2(30) . . .
37.0(31) . . .
30.9(29) . . .
28.7(29) . . .
27.4(27) . . .
41.8(35) . . .
38.9(32) . . .
47(4) . . .
42(4) . . .
39.9(34) . . .
29.3(28) . . .
31.7(30) . . .
43(4) . . .
40.2(34) . . .
43(4) . . .
31.5(29) . . .
38.7(33) . . .
45(4) . . .
39.6(35) . . .
37.2(32) . . .
34.0(30) . . .
43(4) . . .
35.7(32) . . .
31.5(30) . . .
39.2(34) . . .
34.2(31) . . .
38.0(34) . . .
32.6(32) . . .
37.9(34) . . .
41.3(34) . . .
36.0(31) . . .
42(4) . . .
38.6(33) . . .
34.7(32) . . .
35.7(31) . . .
38.2(33) . . .
39.3(33) . . .
41(4) . . .
42.5(35) . . .
38.1(32) . . .
40.6(34) . . .
32.6(30) . . .
48(4) . . .
36.3(31) . . .
32.6(29) . . .
38.7(33) . . .
48(4) . . .
38(4) . . .
42(4) . . .
39.9(32) . . .
40.9(34) . . .
34.0(31) . . .
45(4) . . .
42.0(35) . . .
35.1(30) . . .
39.5(33) . . .
35.7(32) . . .
34.8(32) . . .
37.3(32) . . .
40.8(33) . . .
34.5(30) . . .
32.9(31) . . .
36.6(33) . . .
38(4) . . .
37.7(32) . . .
38.7(33) . . .
32.8(30) . . .
41.5(35) . . .
34.8(32) . . .
33.3(30) . . .
32.4(31) . . .
35.3(33) . . .
29.8(29) . . .
37.3(32) . . .
37.8(33) . . .
45(4) . . .
34.2(31) . . .
34.7(32) . . .
34.5(31) . . .
39.7(33) . . .
42.8(35) . . .
37.8(33) . . .
41.2(35) . . .
30.3(28) . . .
39.5(33) . . .
36.7(32) . . .
36.0(31) . . .
40.2(34) . . .
40.2(34) . . .
33.1(30) . . .
37.7(34) . . .
34.4(32) . . .
37.3(34) . . .
36.6(31) . . .
39.7(33) . . .
40.3(33) . . .
35.1(31) . . .
39.7(32) . . .
39.7(33) . . .
29.8(28) . . .
33.6(31) . . .
36.6(34) . . .
46(4) . . .
42.5(34) . . .
34.9(30) . . .
34.4(31) . . .
40.4(35) . . .
40.7(33) . . .
45.5(35) . . .
31.8(30) . . .
36.8(32) . . .
47(4) . . .
32.0(30) . . .
34.3(30) . . .
32.0(31) . . .
44(4) . . .
44(4) . . .
46(4) . . .
39.9(33) . . .
38.2(32) . . .
35.7(33) . . .
39.6(35) . . .
39.3(32) . . .
33.5(30) . . .
46(4) . . .
43(4) . . .
43(4) . . .
40.2(33) . . .
41.2(34) . . .
42.8(35) . . .
40.7(33) . . .
36.0(33) . . .
38.7(32) . . .
41.5(34) . . .
34.4(31) . . .
44(4) . . .
40.4(34) . . .
40.3(33) . . .
33.0(30) . . .
31.7(30) . . .
34.0(34) . . .
44(4) . . .
37.0(32) . . .
33.9(31) . . .
39.3(34) . . .
35.8(32) . . .
34.6(31) . . .
49(4) . . .
33.6(31) . . .
34.4(32) . . .
31.8(32) . . .
34.8(33) . . .
38.1(33) . . .
36.0(31) . . .
28.6(28) . . .
33.1(31) . . .
34.3(31) . . .
30.6(28) . . .
34.9(31) . . .
33.8(32) . . .
33.6(32) . . .
29.1(31) . . .
33.6(30) . . .
38.1(33) . . .
36.0(33) . . .
32.5(32) . . .
39(4) . . .
39.0(32) . . .
41(4) . . .
31.7(31) . . .
37.1(34) . . .
28.3(28) . . .
37.9(32) . . .
39.6(32) . . .
42.3(34) . . .
29.6(28) . . .
33.0(30) . . .
31.9(29) . . .
32.1(31) . . .
35.7(33) . . .
39.7(34) . . .
34.0(31) . . .
34.8(31) . . .
40(4) . . .
40(4) . . .
31.1(30) . . .
30.7(29) . . .
30.2(29) . . .
31.0(31) . . .
38(4) . . .
34.3(31) . . .
44.6(35) . . .
37.4(32) . . .
35.7(32) . . .
33.7(34) . . .
39(4) . . .
35.1(31) . . .
32.2(29) . . .
32.0(31) . . .
37(4) . . .
27.0(28) . . .
37.7(32) . . .
44(4) . . .
32.2(29) . . .
31.3(32) . . .
38.5(35) . . .
36.9(32) . . .
31.0(30) . . .
26.0(28) . . .
37.0(34) . . .
35.2(32) . . .
37.0(31) . . .
32.5(30) . . .
37.2(32) . . .
33.8(30) . . .
39(4) . . .
32.1(29) . . .
34.2(32) . . .
35.0(31) . . .
33.3(31) . . .
33.4(32) . . .
31.4(29) . . .
36.3(31) . . .
34.0(30) . . .
32.6(31) . . .
37.5(32) . . .
37.1(32) . . .
36.9(33) . . .
28.2(28) . . .
34.9(33) . . .
37.1(33) . . .
34.9(31) . . .
31.5(30) . . .
38.6(33) . . .
32.7(30) . . .
33.2(30) . . .
34.2(31) . . .
32.4(30) . . .
41.4(35) . . .
39.2(34) . . .
31.7(29) . . .
37.9(32) . . .
30.9(29) . . .
35.0(35) . . .
32.2(33) . . .
37.3(33) . . .
32.1(29) . . .
31.7(31) . . .
32.2(32) . . .
48(4) . . .
27.7(28) . . .
41.2(34) . . .
30.5(29) . . .
32.2(31) . . .
38(4) . . .
36.5(31) . . .
39.3(33) . . .
35.9(31) . . .
37.3(33) . . .
36.2(33) . . .
36.1(31) . . .
40(4) . . .
34.6(32) . . .
37.7(34) . . .
34.0(31) . . .
36.9(32) . . .
34.7(31) . . .
34.3(30) . . .
34.2(32) . . .
36.4(32) . . .
44.0(34) . . .
44(4) . . .
42(4) . . .
40.3(34) . . .
37.6(32) . . .
31.0(29) . . .
34.2(34) . . .
31.2(32) . . .
31.4(30) . . .
44(4) . . .
34.7(30) . . .
29.2(28) . . .
31.7(30) . . .
31.0(30) . . .
32.2(30) . . .
36.5(31) . . .
40.9(34) . . .
39(4) . . .
36.7(32) . . .
43.1(34) . . .
46(4) . . .
31.0(29) . . .
50(4) . . .
42(4) . . .
38.5(32) . . .
36.8(33) . . .
39(4) . . .
38(4) . . .
39.0(33) . . .
39.2(32) . . .
49(4) . . .
31.4(29) . . .
37(4) . . .
40.0(34) . . .
28.8(28) . . .
40.7(33) . . .
31.5(31) . . .
32.2(30) . . .
31.9(31) . . .
32.4(30) . . .
33.4(31) . . .
41(4) . . .
36.3(34) . . .
33.5(32) . . .
36.8(31) . . .
35.8(33) . . .
40.1(34) . . .
37.8(34) . . .
37.3(35) . . .
33.8(30) . . .
27.0(27) . . .
26.7(28) . . .
39.7(33) . . .
39.2(33) . . .
34.5(30) . . .
35.4(32) . . .
42(4) . . .
40(4) . . .
37.9(33) . . .
41.3(34) . . .
40.3(34) . . .
34.9(31) . . .
37.6(33) . . .
37.2(31) . . .
41.2(33) . . .
29.6(29) . . .
31.4(31) . . .
47(4) . . .
41.9(35) . . .
34.8(31) . . .
31.7(30) . . .
40.2(34) . . .
38.7(34) . . .
37.6(32) . . .
22.7(26) . . .
36.7(32) . . .
44(4) . . .
41(4) . . .
29.1(29) . . .
31.6(30) . . .
32.1(31) . . .
33.9(33) . . .
30.0(28) . . .
41.2(34) . . .
39.0(33) . . .
36.4(33) . . .
37(4) . . .
34.5(31) . . .
39.2(32) . . .
36.5(31) . . .
31.5(29) . . .
44(4) . . .
37.7(34) . . .
32.2(29) . . .
40.5(33) . . .
37.3(33) . . .
38.5(35) . . .
38.6(32) . . .
35.8(31) . . .
32.4(30) . . .
31.6(30) . . .
35.5(32) . . .
38.6(32) . . .
42.5(34) . . .
39.4(35) . . .
36.9(33) . . .
33.6(29) . . .
36.4(31) . . .
30.4(29) . . .
36.1(35) . . .
42(4) . . .
31.3(30) . . .
28.0(28) . . .
36.2(31) . . .
37.3(32) . . .
33.1(31) . . .
35.5(32) . . .
44(4) . . .
40.2(33) . . .
37.2(34) . . .
39(4) . . .
33.3(30) . . .
40.0(33) . . .
37.6(32) . . .
33.1(31) . . .
31.6(31) . . .
40(4) . . .
30.1(29) . . .
38.9(34) . . .
39(4) . . .
34.5(32) . . .
39(4) . . .
44.1(34) . . .
37.3(32) . . .
32.6(31) . . .
32.7(32) . . .
39.3(34) . . .
39.6(33) . . .
38.8(33) . . .
30.4(30) . . .
42(4) . . .
35.8(32) . . .
39.7(32) . . .
41(4) . . .
38.8(33) . . .
38(4) . . .
36.2(32) . . .
34.0(31) . . .
36.7(34) . . .
42(4) . . .
35.0(31) . . .
36.1(31) . . .
31.4(30) . . .
31.0(31) . . .
36.3(33) . . .
34.2(31) . . .
32.2(30) . . .
31.2(29) . . .
38(4) . . .
34.1(31) . . .
29.7(30) . . .
34.9(31) . . .
32.6(30) . . .
34.6(32) . . .
32.2(31) . . .
35.3(31) . . .
36.8(32) . . .
43.5(34) . . .
39.3(34) . . .
35.2(32) . . .
34.7(31) . . .
36.3(31) . . .
36.0(31) . . .
40(4) . . .
34.7(33) . . .
35.1(31) . . .
37.2(32) . . .
28.8(28) . . .
38.0(33) . . .
37.6(35) . . .
40.5(35) . . .
44.2(34) . . .
34.8(31) . . .
41(4) . . .
34.1(31) . . .
31.9(31) . . .
33.1(30) . . .
29.5(28) . . .
39(4) . . .
27.0(29) . . .
32.4(31) . . .
38.4(33) . . .
36.5(32) . . .
31.5(30) . . .
36.5(33) . . .
31.6(30) . . .
34.3(30) . . .
28.6(30) . . .
41.0(35) . . .
54(4) . . .
41.8(34) . . .
28.7(29) . . .
37.7(34) . . .
37.8(33) . . .
41(4) . . .
38.6(35) . . .
34.2(31) . . .
33.4(32) . . .
30.8(31) . . .
30.3(29) . . .
31.6(31) . . .
31.7(30) . . .
37.6(34) . . .
33.5(32) . . .
32.7(30) . . .
33.1(31) . . .
37.8(32) . . .
35.7(31) . . .
36.2(33) . . .
37.7(33) . . .
29.5(28) . . .
40.3(33) . . .
36.9(33) . . .
38.1(35) . . .
38(4) . . .
32.5(29) . . .
35.6(31) . . .
33.5(31) . . .
31.9(32) . . .
31.7(30) . . .
38.2(33) . . .
38.2(32) . . .
33.3(32) . . .
31.1(32) . . .
33.5(31) . . .
30.4(29) . . .
42(4) . . .
38.4(32) . . .
41.1(34) . . .
28.7(29) . . .
28.9(28) . . .
38.4(32) . . .
33.2(31) . . .
32.4(32) . . .
33.6(32) . . .
33.6(30) . . .
40(4) . . .
38.5(33) . . .
38(4) . . .
25.4(29) . . .
34.8(30) . . .
34.6(33) . . .
35.8(32) . . .
37.9(34) . . .
45(4) . . .
37.1(31) . . .
36.0(33) . . .
27.7(30) . . .
39(4) . . .
35.5(31) . . .
41.6(34) . . .
43(4) . . .
33.8(32) . . .
33.2(32) . . .
31.9(30) . . .
33.5(30) . . .
37.3(33) . . .
35.5(33) . . .
41(4) . . .
39.4(33) . . .
31.5(29) . . .
29.6(28) . . .
37.1(34) . . .
34.6(31) . . .
40.5(34) . . .
36.3(31) . . .
38.5(34) . . .
37(4) . . .
39.2(33) . . .
33.4(30) . . .
28.2(28) . . .
38.6(33) . . .
47(4) . . .
39.3(33) . . .
39.9(33) . . .
34.3(30) . . .
38.9(34) . . .
41(4) . . .
48(4) . . .
39.9(34) . . .
37.6(32) . . .
36.0(34) . . .
29.6(28) . . .
32.5(30) . . .
35.7(31) . . .
41.0(34) . . .
35.7(33) . . .
27.4(29) . . .
37.8(32) . . .
31.6(29) . . .
32.5(30) . . .
36.3(31) . . .
37.7(35) . . .
33.0(31) . . .
39.3(33) . . .
44(4) . . .
36.7(32) . . .
44(4) . . .
37.2(34) . . .
36.1(32) . . .
36.8(33) . . .
39.8(34) . . .
39.6(34) . . .
35.8(32) . . .
34.2(31) . . .
40.7(34) . . .
31.5(31) . . .
29.2(28) . . .
35.5(32) . . .
36.1(31) . . .
30.6(29) . . .
32.6(34) . . .
33.3(32) . . .
34.8(31) . . .
32.8(29) . . .
33.5(31) . . .
30.9(31) . . .
34.5(35) . . .
39.9(33) . . .
35.6(31) . . .
34.7(31) . . .
35.5(33) . . .
28.2(29) . . .
36.9(31) . . .
43(4) . . .
37(4) . . .
37.3(35) . . .
37.7(33) . . .
36.9(32) . . .
36.7(32) . . .
38.8(34) . . .
38.0(34) . . .
37.5(35) . . .
37.3(31) . . .
28.7(29) . . .
30.0(31) . . .
29.6(30) . . .
30.3(29) . . .
26.4(27) . . .
31.5(31) . . .
28.3(29) . . .
34.2(33) . . .
33.2(32) . . .
35.5(31) . . .
29.6(28) . . .
31.2(31) . . .
31.8(31) . . .
35.7(32) . . .
37.4(32) . . .
32.1(30) . . .
37.0(33) . . .
38.2(33) . . .
31.9(31) . . .
29.2(28) . . .
37.5(34) . . .
36.3(32) . . .
33.0(31) . . .
29.0(29) . . .
32.8(31) . . .
34.2(31) . . .
38.2(34) . . .
32.2(29) . . .
36.4(32) . . .
33.9(32) . . .
40(4) . . .
35.5(33) . . .
45(4) . . .
40.0(33) . . .
32.3(29) . . .
37.3(32) . . .
37.2(34) . . .
41(4) . . .
27.5(27) . . .
32.2(30) . . .
32.1(31) . . .
41(4) . . .
31.7(30) . . .
44.0(35) . . .
40.8(35) . . .
23.5(26) . . .
29.2(31) . . .
44(4) . . .
32.5(30) . . .
36.9(32) . . .
45(4) . . .
29.8(31) . . .
33.6(31) . . .
36.7(32) . . .
29.6(30) . . .
34.5(32) . . .
37.9(32) . . .
38.9(33) . . .
34.9(31) . . .
38.9(34) . . .
37.0(34) . . .
40.3(35) . . .
30.8(29) . . .
37.5(32) . . .
35.5(32) . . .
30.7(33) . . .
30.1(30) . . .
33.1(30) . . .
26.0(27) . . .
41.8(35) . . .
30.7(31) . . .
27.1(26) . . .
36.9(31) . . .
27.5(27) . . .
34.1(31) . . .
33.4(32) . . .
36.5(35) . . .
25.6(26) . . .
40.4(34) . . .
37.7(35) . . .
36.0(35) . . .
41(4) . . .
34.3(31) . . .
30.6(29) . . .
33.3(30) . . .
35.0(32) . . .
39.5(33) . . .
44(4) . . .
28.8(28) . . .
34.4(34) . . .
33.2(33) . . .
27.8(28) . . .
33.4(30) . . .
31.8(29) . . .
28.4(29) . . .
30.7(31) . . .
31.9(30) . . .
31.8(29) . . .
45(4) . . .
46(4) . . .
35.1(33) . . .
23.8(26) . . .
30.1(29) . . .
33.9(30) . . .
35.7(31) . . .
38.7(34) . . .
37.5(33) . . .
30.9(29) . . .
39.0(33) . . .
34.8(31) . . .
39.8(35) . . .
31.2(31) . . .
27.1(27) . . .
37.8(33) . . .
40.5(34) . . .
39.0(35) . . .
32.5(31) . . .
36.8(31) . . .
33.3(32) . . .
34.6(35) . . .
33.4(31) . . .
33.9(30) . . .
33.9(30) . . .
36.5(34) . . .
38.5(34) . . .
29.8(29) . . .
33.6(31) . . .
33.1(30) . . .
32.3(31) . . .
32.8(31) . . .
37.6(32) . . .
38.4(33) . . .
29.4(28) . . .
26.4(28) . . .
38(4) . . .
34.8(31) . . .
39.5(34) . . .
40.1(33) . . .
41(4) . . .
34.0(32) . . .
28.5(28) . . .
29.3(28) . . .
39.4(33) . . .
32.8(32) . . .
30.6(32) . . .
31.2(29) . . .
40.0(33) . . .
35.0(31) . . .
38.5(34) . . .
31.3(31) . . .
30.4(29) . . .
41.5(33) . . .
39.0(32) . . .
37.8(33) . . .
39.0(35) . . .
33.1(33) . . .
35.6(31) . . .
33.6(32) . . .
35.6(33) . . .
33(4) . . .
34.0(31) . . .
34.1(30) . . .
30.3(30) . . .
27.9(29) . . .
40(4) . . .
41.4(35) . . .
29.8(28) . . .
28.4(29) . . .
32.3(31) . . .
36.4(32) . . .
34.3(30) . . .
36.3(32) . . .
39(4) . . .
42.8(35) . . .
44(4) . . .
25.5(27) . . .
40.8(33) . . .
30.3(28) . . .
29.8(31) . . .
31.9(31) . . .
36.7(33) . . .
37.5(32) . . .
32.1(29) . . .
41(4) . . .
34.2(32) . . .
29.1(29) . . .
30.2(29) . . .
32.4(32) . . .
31.8(31) . . .
33.5(34) . . .
29.3(28) . . .
38(4) . . .
40(4) . . .
33.2(30) . . .
32.8(32) . . .
38.4(34) . . .
31.4(29) . . .
35.5(33) . . .
35.9(33) . . .
39.3(35) . . .
43.8(35) . . .
28.3(28) . . .
41(4) . . .
38.0(33) . . .
38.9(34) . . .
31.5(29) . . .
34.4(30) . . .
32.1(29) . . .
37.6(35) . . .
28.5(28) . . .
32.1(29) . . .
35.1(34) . . .
29.2(29) . . .
27.6(29) . . .
28.8(28) . . .
33.5(30) . . .
41(4) . . .
36.2(34) . . .
29.6(30) . . .
30.6(29) . . .
33.1(30) . . .
34.5(30) . . .
40(4) . . .
31.0(29) . . .
47(4) . . .
32.6(29) . . .
35.0(32) . . .
25.3(26) . . .
41(4) . . .
29.5(28) . . .
36.3(32) . . .
35.7(32) . . .
35.8(34) . . .
37.2(33) . . .
41(4) . . .
32.6(30) . . .
43(4) . . .
38.5(35) . . .
31.9(31) . . .
40.5(33) . . .
31.7(30) . . .
34.6(31) . . .
35.1(33) . . .
38.3(33) . . .
42.0(34) . . .
42.3(35) . . .
41.4(35) . . .
35.2(32) . . .
32.2(31) . . .
37.2(32) . . .
33.3(31) . . .
35.0(33) . . .
38(4) . . .
40(4) . . .
29.0(29) . . .
30.5(31) . . .
37.2(33) . . .
31.8(30) . . .
36.8(33) . . .
32.3(30) . . .
30.3(29) . . .
33.7(34) . . .
29.6(30) . . .
41(4) . . .
26.8(26) . . .
31.7(31) . . .
43.3(35) . . .
36.3(33) . . .
34.3(32) . . .
32.6(30) . . .
29.5(29) . . .
29.5(30) . . .
33.3(30) . . .
42.6(34) . . .
36.1(31) . . .
36(4) . . .
32.3(32) . . .
34.4(31) . . .
31.5(29) . . .
32.5(31) . . .
35.7(35) . . .
40(4) . . .
34.7(31) . . .
39.9(33) . . .
34.7(31) . . .
31.0(31) . . .
30.6(32) . . .
32.2(32) . . .
34.3(30) . . .
42.9(35) . . .
35.9(33) . . .
37.5(34) . . .
35.9(31) . . .
36.1(31) . . .
33.6(31) . . .
40.3(34) . . .
45(4) . . .
35.9(31) . . .
34.0(30) . . .
32.5(30) . . .
30.5(32) . . .
36.5(35) . . .
27.2(27) . . .
30.0(28) . . .
26.5(28) . . .
36(4) . . .
37.2(33) . . .
40.5(34) . . .
34.4(31) . . .
34.9(31) . . .
41(4) . . .
31.6(32) . . .
30.2(29) . . .
32.2(30) . . .
36.1(33) . . .
29.4(29) . . .
44(4) . . .
41(4) . . .
27.9(29) . . .
41(4) . . .
37.8(33) . . .
36.8(32) . . .
31.4(29) . . .
32.7(29) . . .
44(4) . . .
38.5(35) . . .
32.1(29) . . .
40.6(34) . . .
35.7(31) . . .
33.3(32) . . .
33.3(31) . . .
36.2(34) . . .
37.8(33) . . .
35.2(31) . . .
36.7(33) . . .
38(4) . . .
34.0(30) . . .
41.2(33) . . .
37.2(32) . . .
34.5(33) . . .
29.0(29) . . .
28.9(28) . . .
37.4(32) . . .
44.0(35) . . .
30.6(29) . . .
28.1(29) . . .
35.1(33) . . .
28.1(28) . . .
34.8(31) . . .
32.5(31) . . .
36.7(34) . . .
35.6(32) . . .
25.6(26) . . .
33.0(31) . . .
37(4) . . .
33.8(32) . . .
33.8(31) . . .
34.1(30) . . .
39.7(34) . . .
38.1(34) . . .
31.5(30) . . .
41(4) . . .
37.7(32) . . .
32.1(30) . . .
34.8(32) . . .
36.8(33) . . .
40.8(33) . . .
37.6(32) . . .
38.8(32) . . .
30.9(28) . . .
42(4) . . .
30.2(28) . . .
31.1(30) . . .
28.7(28) . . .
38(4) . . .
36.9(33) . . .
37.7(33) . . .
26.9(27) . . .
38.4(33) . . .
31.0(30) . . .
26.1(28) . . .
32.5(30) . . .
35.1(30) . . .
38.0(33) . . .
35.5(34) . . .
26.3(28) . . .
30.9(30) . . .
28.2(27) . . .
28.1(30) . . .
30.9(32) . . .
40(4) . . .
36.4(31) . . .
35.3(32) . . .
29.3(31) . . .
34.7(34) . . .
36.7(33) . . .
37.4(32) . . .
29.5(28) . . .
26.7(28) . . .
37(4) . . .
33.2(33) . . .
34.1(30) . . .
33.8(30) . . .
37.8(32) . . .
31.7(32) . . .
36.7(33) . . .
35.4(31) . . .
39.7(34) . . .
37.9(34) . . .
38.5(34) . . .
37.5(33) . . .
37.4(32) . . .
34.5(32) . . .
35.7(33) . . .
35.9(32) . . .
38.0(33) . . .
35.5(31) . . .
31.2(30) . . .
39(4) . . .
30.6(31) . . .
40(4) . . .
37.2(31) . . .
31.3(29) . . .
39.6(35) . . .
32.8(31) . . .
37.0(32) . . .
29.8(28) . . .
33.7(30) . . .
35.9(33) . . .
37.0(33) . . .
43(4) . . .
33.8(31) . . .
40.1(34) . . .
37.2(33) . . .
31.3(29) . . .
42.7(35) . . .
41.2(33) . . .
43(4) . . .
32.2(31) . . .
36.3(32) . . .
33.5(31) . . .
27.2(27) . . .
37(4) . . .
27.5(30) . . .
33.3(31) . . .
33.2(30) . . .
33.4(30) . . .
35.1(34) . . .
31.1(29) . . .
35.8(32) . . .
43.7(35) . . .
32.7(30) . . .
30.1(29) . . .
31.0(32) . . .
34.0(34) . . .
27.6(27) . . .
29.0(28) . . .
38.8(35) . . .
29.3(29) . . .
35(4) . . .
34.7(30) . . .
31.2(30) . . .
33.5(32) . . .
36.3(33) . . .
39.4(34) . . .
45.0(35) . . .
36.6(33) . . .
43(4) . . .
37.3(33) . . .
37.7(33) . . .
33.8(30) . . .
33.7(32) . . .
32.7(31) . . .
34.6(32) . . .
28.8(28) . . .
39.3(33) . . .
33.3(30) . . .
37.3(34) . . .
30.6(30) . . .
26.0(27) . . .
42.6(34) . . .
32.3(30) . . .
34.9(34) . . .
31.5(29) . . .
36.4(32) . . .
31.0(29) . . .
41.0(35) . . .
34.3(34) . . .
24.1(27) . . .
33.9(31) . . .
33.0(30) . . .
39.2(33) . . .
29.7(30) . . .
27.6(28) . . .
32.3(30) . . .
33.5(31) . . .
28.1(28) . . .
28.8(27) . . .
35.4(31) . . .
27.9(28) . . .
32.2(30) . . .
30.0(29) . . .
29.3(30) . . .
30.4(30) . . .
36.2(32) . . .
30.8(29) . . .
29.1(30) . . .
34.3(32) . . .
33.9(30) . . .
34.8(30) . . .
33.6(31) . . .
30.5(28) . . .
34.2(32) . . .
30.3(30) . . .
36.7(31) . . .
30.6(29) . . .
37.2(35) . . .
32.4(30) . . .
35.2(31) . . .
25.4(26) . . .
28.8(28) . . .
27.9(27) . . .
33.1(30) . . .
32.9(30) . . .
31.6(30) . . .
22.3(25) . . .
28.7(30) . . .
44(4) . . .
42.6(34) . . .
43.0(34) . . .
41(4) . . .
33.1(32) . . .
37.9(33) . . .
27.0(27) . . .
26.7(27) . . .
41.0(35) . . .
45(4) . . .
36.0(32) . . .
38.3(32) . . .
37.5(32) . . .
39.0(33) . . .
31.6(30) . . .
36.1(33) . . .
36.2(31) . . .
40.3(33) . . .
37.4(33) . . .
30.0(29) . . .
41(4) . . .
41.2(33) . . .
40.8(33) . . .
40.3(35) . . .
27.3(27) . . .
37(4) . . .
30.6(29) . . .
31.9(29) . . .
40.5(34) . . .
34.5(31) . . .
34.6(32) . . .
34.1(31) . . .
39(4) . . .
31.4(30) . . .
32.4(32) . . .
25.9(27) . . .
28.7(28) . . .
34.2(31) . . .
42(4) . . .
34.0(33) . . .
29.2(29) . . .
37.9(33) . . .
33.4(31) . . .
43(4) . . .
31.4(29) . . .
36.8(32) . . .
37.1(32) . . .
30.8(29) . . .
25.6(28) . . .
29.7(29) . . .
26.1(27) . . .
27.7(27) . . .
31.2(30) . . .
39.6(34) . . .
40.7(34) . . .
32.2(29) . . .
36.0(31) . . .
33.7(31) . . .
38.8(35) . . .
31.1(31) . . .
22.7(24) . . .
30.3(29) . . .
34.6(31) . . .
48(4) . . .
40.4(34) . . .
23.6(25) . . .
30.2(29) . . .
32.4(29) . . .
29.9(30) . . .
31.3(30) . . .
34.5(30) . . .
29.3(30) . . .
40(4) . . .
42.8(34) . . .
40.8(33) . . .
36.2(31) . . .
35.2(31) . . .
33.1(33) . . .
37.0(33) . . .
41.1(34) . . .
32.5(30) . . .
32.6(29) . . .
39.0(34) . . .
40.1(34) . . .
37.1(32) . . .
33.3(30) . . .
33.2(30) . . .
36.0(31) . . .
38.8(33) . . .
38.5(32) . . .
39.2(33) . . .
44(4) . . .
36.0(33) . . .
29.4(30) . . .
33.9(32) . . .
38.7(32) . . .
36.0(33) . . .
32.4(33) . . .
38.8(35) . . .
43(4) . . .
27.5(27) . . .
29.9(30) . . .
39(4) . . .
40.2(35) . . .
43.2(34) . . .
30.2(28) . . .
34.4(33) . . .
32.0(32) . . .
33.9(32) . . .
36.3(32) . . .
34.2(31) . . .
28.2(29) . . .
29.7(30) . . .
32.7(31) . . .
31.3(30) . . .
30.8(29) . . .
25.6(26) . . .
44(4) . . .
41.6(34) . . .
32.7(29) . . .
32.6(29) . . .
32.0(31) . . .
37.2(33) . . .
37.0(33) . . .
28.8(28) . . .
27.1(27) . . .
25.5(26) . . .
33.0(32) . . .
31.3(30) . . .
36.2(31) . . .
40.2(33) . . .
40.1(34) . . .
34.7(31) . . .
39.3(33) . . .
26.9(28) . . .
35.3(30) . . .
40.0(33) . . .
30.2(30) . . .
38.4(34) . . .
35.3(32) . . .
34.9(33) . . .
37.4(34) . . .
33.9(29) . . .
38.6(32) . . .
28.9(28) . . .
30.0(29) . . .
32.8(33) . . .
40(4) . . .
28.2(28) . . .
43.6(35) . . .
39.8(34) . . .
36.2(33) . . .
38.8(34) . . .
33.5(32) . . .
32.0(30) . . .
25.1(27) . . .
30.3(31) . . .
41.0(35) . . .
34.4(30) . . .
29.9(30) . . .
35.2(34) . . .
31.9(31) . . .
36.9(32) . . .
24.6(26) . . .
28.7(30) . . .
32.5(32) . . .
31.4(31) . . .
46(4) . . .
32.0(29) . . .
31.4(30) . . .
27.7(28) . . .
27.5(31) . . .
28.0(30) . . .
34.8(31) . . .
28.8(29) . . .
41.1(35) . . .
33.3(31) . . .
43(4) . . .
39.0(32) . . .
40.2(33) . . .
38.3(33) . . .
38.5(34) . . .
35.9(32) . . .
35.4(31) . . .
33.8(32) . . .
25.0(27) . . .
28.4(31) . . .
21.8(25) . . .
28.8(28) . . .
46(4) . . .
33.9(32) . . .
32.5(33) . . .
28.5(27) . . .
40.9(34) . . .
30.9(31) . . .
26.8(28) . . .
32.5(34) . . .
38.4(34) . . .
19.9(26) . . .
37.6(33) . . .
27.1(27) . . .
31.9(30) . . .
40.6(34) . . .
26.0(27) . . .
32.6(32) . . .
34.5(31) . . .
31.3(30) . . .
40.1(33) . . .
28.6(28) . . .
30.1(28) . . .
37.3(34) . . .
31.9(30) . . .
36.3(31) . . .
38.0(32) . . .
25.8(26) . . .
29.1(30) . . .
37.8(34) . . .
33.7(30) . . .
31.4(30) . . .
31.4(29) . . .
45(4) . . .
31.2(30) . . .
30.3(28) . . .
38.2(33) . . .
36.6(32) . . .
26.0(30) . . .
29.3(29) . . .
28.4(28) . . .
31.0(30) . . .
31.6(30) . . .
29.2(29) . . .
32.3(30) . . .
37.0(33) . . .
37.5(35) . . .
30.8(28) . . .
40.9(34) . . .
46(4) . . .
39.4(33) . . .
40.3(34) . . .
33.2(34) . . .
31.1(29) . . .
33.4(31) . . .
30.1(29) . . .
28.6(28) . . .
31.0(30) . . .
33.1(30) . . .
31.3(30) . . .
33.7(31) . . .
41(4) . . .
33.4(32) . . .
31.3(30) . . .
27.1(29) . . .
37.8(33) . . .
24.3(26) . . .
26.6(27) . . .
29.4(28) . . .
27.3(27) . . .
33.5(30) . . .
40.7(35) . . .
38.8(35) . . .
30.1(29) . . .
31.0(29) . . .
38.0(33) . . .
33.1(33) . . .
38(4) . . .
35.9(31) . . .
35.3(31) . . .
35.3(31) . . .
38(4) . . .
28.5(28) . . .
32.3(31) . . .
30.1(29) . . .
37.1(32) . . .
40(4) . . .
37.5(33) . . .
45(4) . . .
39.1(33) . . .
39.6(34) . . .
32.9(31) . . .
34.4(32) . . .
30.4(29) . . .
35.6(32) . . .
37.0(32) . . .
33.3(30) . . .
29.8(29) . . .
33.9(31) . . .
34.1(30) . . .
36.3(31) . . .
31.3(29) . . .
32.1(32) . . .
29.5(30) . . .
38.3(33) . . .
31.5(30) . . .
35.2(34) . . .
28.1(27) . . .
31.4(29) . . .
26.3(27) . . .
29.8(29) . . .
37.9(33) . . .
30.4(30) . . .
34.7(31) . . .
36.8(32) . . .
28.3(28) . . .
37(4) . . .
31.8(31) . . .
28.6(28) . . .
26.9(27) . . .
26.7(27) . . .
35.5(34) . . .
33.2(31) . . .
25.6(27) . . .
32.6(30) . . .
22.5(26) . . .
32.5(33) . . .
28.3(29) . . .
30.6(29) . . .
25.9(26) . . .
26.1(26) . . .
26.1(27) . . .
26.9(28) . . .
34.0(30) . . .
32.9(31) . . .
32.3(32) . . .
32.9(32) . . .
30.6(30) . . .
28.9(28) . . .
24.5(27) . . .
33.0(33) . . .
37.2(34) . . .
38.5(33) . . .
32.5(29) . . .
35.4(32) . . .
39.8(34) . . .
33.4(30) . . .
31.3(31) . . .
39.0(33) . . .
41.7(35) . . .
34.7(33) . . .
34.9(33) . . .
31.5(31) . . .
33.6(30) . . .
37.7(33) . . .
32.2(32) . . .
29.3(30) . . .
30.1(30) . . .
34.6(31) . . .
27.0(28) . . .
29.5(30) . . .
27.0(29) . . .
42(4) . . .
28.6(27) . . .
32.9(33) . . .
25.1(27) . . .
35.9(32) . . .
36.6(31) . . .
34.0(31) . . .
34.6(33) . . .
28.6(31) . . .
36.4(33) . . .
29.1(28) . . .
30.6(29) . . .
23.2(25) . . .
30.8(31) . . .
31.7(30) . . .
36.2(31) . . .
33.9(33) . . .
31.3(29) . . .
36.8(35) . . .
27.7(28) . . .
32.6(30) . . .
30.4(29) . . .
33.3(31) . . .
34.3(31) . . .
41.7(35) . . .
32.0(29) . . .
34.0(31) . . .
34.8(31) . . .
25.4(26) . . .
33.2(32) . . .
37.9(33) . . .
33.9(31) . . .
32.4(30) . . .
34.8(32) . . .
31.9(31) . . .
36.5(31) . . .
32.0(29) . . .
38.4(33) . . .
31.5(29) . . .
38.5(32) . . .
32.1(29) . . .
26.4(27) . . .
39.1(35) . . .
31.5(30) . . .
34.0(30) . . .
45(4) . . .
37.4(34) . . .
30.3(31) . . .
33.7(31) . . .
34.2(32) . . .
28.9(28) . . .
27.6(27) . . .
37.0(34) . . .
35.2(30) . . .
29.0(28) . . .
29.5(28) . . .
30.7(30) . . .
33.6(33) . . .
35.2(32) . . .
32.6(30) . . .
32.8(31) . . .
35.1(33) . . .
30.2(30) . . .
27.3(27) . . .
28.6(28) . . .
31.6(29) . . .
35.9(31) . . .
39.6(34) . . .
39.2(34) . . .
27.9(28) . . .
29.2(30) . . .
35.2(33) . . .
29.7(29) . . .
33.8(32) . . .
34.4(30) . . .
32.6(29) . . .
28.3(29) . . .
32.7(33) . . .
26.2(29) . . .
28.8(29) . . .
27.9(27) . . .
38.3(34) . . .
37.3(34) . . .
29.1(29) . . .
30.4(28) . . .
31.7(30) . . .
27.7(27) . . .
30.7(30) . . .
32.2(30) . . .
37.0(32) . . .
35.1(31) . . .
37.8(34) . . .
35.5(31) . . .
37.8(32) . . .
35.9(31) . . .
38.0(32) . . .
39.7(35) . . .
27.9(27) . . .
39.0(33) . . .
34.8(30) . . .
32.5(30) . . .
32.1(30) . . .
36.8(32) . . .
34.2(31) . . .
34.7(31) . . .
35.4(31) . . .
36.0(34) . . .
36.3(33) . . .
37.2(32) . . .
41.2(34) . . .
40.0(35) . . .
37.7(34) . . .
40(4) . . .
36.5(33) . . .
32.2(30) . . .
34.3(31) . . .
42(4) . . .
36.3(32) . . .
28.8(27) . . .
30.8(29) . . .
35.6(32) . . .
27.4(27) . . .
36.2(32) . . .
29.5(29) . . .
33.3(31) . . .
31.6(30) . . .
27.5(29) . . .
31.1(30) . . .
28.2(28) . . .
40.2(34) . . .
42(4) . . .
27.2(26) . . .
28.8(29) . . .
27.2(27) . . .
34.8(31) . . .
33.5(34) . . .
36.4(33) . . .
36.5(31) . . .
30.2(29) . . .
28.2(27) . . .
41(4) . . .
25.7(26) . . .
34.3(31) . . .
36.8(32) . . .
32.8(30) . . .
36.3(31) . . .
39(4) . . .
35.0(32) . . .
33.1(30) . . .
38.1(32) . . .
36.2(31) . . .
31.7(32) . . .
28.7(28) . . .
37.5(32) . . .
33.6(31) . . .
33.4(31) . . .
33.5(31) . . .
31.1(29) . . .
38.1(32) . . .
33.4(33) . . .
30.8(32) . . .
35.5(33) . . .
34.8(31) . . .
26.8(27) . . .
35.4(33) . . .
38.1(33) . . .
35.2(32) . . .
32.6(30) . . .
27.3(28) . . .
38(4) . . .
37(4) . . .
27.1(27) . . .
31.8(29) . . .
30.4(29) . . .
25.6(26) . . .
25.4(30) . . .
26.8(29) . . .
28.7(28) . . .
43.3(35) . . .
35.6(33) . . .
40.2(35) . . .
38.2(33) . . .
36.9(32) . . .
39.8(33) . . .
29.5(28) . . .
37.3(33) . . .
39.9(35) . . .
39.0(32) . . .
28.7(27) . . .
37.2(33) . . .
34.8(31) . . .
37.5(32) . . .
30.4(29) . . .
35.3(33) . . .
30.2(29) . . .
29.5(28) . . .
32.4(30) . . .
31.0(29) . . .
34.5(32) . . .
27.9(27) . . .
37.3(32) . . .
32.9(30) . . .
31.8(30) . . .
35.2(31) . . .
41(4) . . .
25.5(26) . . .
31.4(29) . . .
30.8(31) . . .
36.9(34) . . .
31.6(30) . . .
29.8(28) . . .
36.7(33) . . .
33.6(29) . . .
31.7(30) . . .
28.4(31) . . .
31.8(30) . . .
30.2(28) . . .
33.1(30) . . .
39.6(35) . . .
35(4) . . .
27.5(27) . . .
34.6(30) . . .
40.2(34) . . .
36.5(32) . . .
39(4) . . .
33.0(32) . . .
31.0(29) . . .
26.7(27) . . .
27.7(27) . . .
35.4(32) . . .
32.3(30) . . .
34.1(31) . . .
45(4) . . .
33.0(30) . . .
31.1(30) . . .
37.4(33) . . .
40.3(33) . . .
34.7(32) . . .
30.5(31) . . .
36.4(32) . . .
37.4(32) . . .
35.9(31) . . .
27.8(28) . . .
40(4) . . .
28.4(28) . . .
34.1(31) . . .
36.9(32) . . .
33.6(32) . . .
23.4(26) . . .
30.8(30) . . .
29.2(29) . . .
30.8(28) . . .
34.7(32) . . .
35.2(33) . . .
33.5(31) . . .
34.8(32) . . .
34.0(31) . . .
33.3(33) . . .
33.3(33) . . .
33.8(32) . . .
28.1(28) . . .
28.9(28) . . .
29.3(29) . . .
40(4) . . .
33.4(30) . . .
36.3(31) . . .
37.3(31) . . .
35.5(31) . . .
36.5(35) . . .
27.5(28) . . .
23.0(25) . . .
30.5(29) . . .
30.9(30) . . .
31.9(32) . . .
35.4(32) . . .
31.9(30) . . .
26.6(26) . . .
39.9(34) . . .
37.4(33) . . .
37.0(33) . . .
31.7(30) . . .
45(4) . . .
30.2(29) . . .
28.5(29) . . .
35.8(32) . . .
32.4(29) . . .
34.0(31) . . .
31.6(32) . . .
38.0(34) . . .
42.5(34) . . .
36.5(32) . . .
35.8(31) . . .
32.4(31) . . .
29.6(30) . . .
37.1(34) . . .
34.0(30) . . .
32.0(30) . . .
44(4) . . .
26.8(26) . . .
33.7(30) . . .
34.1(30) . . .
31.1(29) . . .
31.5(30) . . .
29.7(27) . . .
31.8(30) . . .
34.7(31) . . .
35.9(32) . . .
33.9(31) . . .
40(4) . . .
33.4(30) . . .
32.7(32) . . .
36.1(33) . . .
34.0(32) . . .
29.4(28) . . .
36.2(31) . . .
38.3(32) . . .
28.8(29) . . .
36.9(34) . . .
25.2(25) . . .
32.2(30) . . .
29.4(28) . . .
34.0(31) . . .
36.6(33) . . .
29.3(31) . . .
32.2(29) . . .
34.0(31) . . .
32.0(32) . . .
29.9(32) . . .
33.1(31) . . .
35.3(31) . . .
33.4(30) . . .
44(4) . . .
32.8(31) . . .
30.9(30) . . .
38.6(32) . . .
38.9(33) . . .
35.9(34) . . .
34.6(32) . . .
25.0(27) . . .
36.8(32) . . .
30.5(28) . . .
35.3(34) . . .
33.5(34) . . .
33.1(31) . . .
34.1(30) . . .
32.7(31) . . .
27.0(26) . . .
32.4(33) . . .
29.6(30) . . .
37.9(33) . . .
30.4(29) . . .
35.5(33) . . .
32.0(30) . . .
33.3(30) . . .
37.8(33) . . .
29.3(30) . . .
31.1(31) . . .
33.6(31) . . .
31.2(29) . . .
42.5(34) . . .
39.4(34) . . .
26.7(27) . . .
23.8(26) . . .
33.8(31) . . .
24.5(27) . . .
32.0(30) . . .
38.3(35) . . .
34.5(31) . . .
37.4(32) . . .
25.7(26) . . .
32.7(33) . . .
35.0(35) . . .
28.1(29) . . .
35.9(31) . . .
36.1(32) . . .
32.2(30) . . .
32.8(30) . . .
30.9(30) . . .
39.5(33) . . .
28.5(29) . . .
27.3(30) . . .
25.7(28) . . .
32.0(30) . . .
35.1(31) . . .
28.8(28) . . .
32.4(30) . . .
31.3(32) . . .
37.3(34) . . .
27.9(28) . . .
34.4(32) . . .
32.8(30) . . .
37(4) . . .
33.2(32) . . .
35.1(30) . . .
22.2(25) . . .
29.9(31) . . .
36.1(33) . . .
31.5(30) . . .
28.8(28) . . .
34.0(31) . . .
35.3(32) . . .
24.2(25) . . .
35.5(31) . . .
40.8(35) . . .
35.4(32) . . .
30.9(31) . . .
29.5(28) . . .
34.8(31) . . .
27.2(27) . . .
39(4) . . .
35.2(34) . . .
30.5(29) . . .
34.5(30) . . .
37.8(33) . . .
36.6(35) . . .
35.0(32) . . .
31.0(29) . . .
31.6(30) . . .
32.4(29) . . .
38.7(34) . . .
32.6(32) . . .
31.1(28) . . .
38.1(32) . . .
34.3(30) . . .
32.0(30) . . .
30.6(30) . . .
32.6(31) . . .
32.5(29) . . .
29.9(29) . . .
28.4(27) . . .
34.3(33) . . .
26.2(26) . . .
37.3(32) . . .
39.2(35) . . .
32.5(30) . . .
24.1(26) . . .
26.9(27) . . .
45(4) . . .
29.5(28) . . .
32.4(30) . . .
28.2(27) . . .
39.3(34) . . .
35.6(32) . . .
28.7(28) . . .
34.0(33) . . .
39.5(33) . . .
37.9(32) . . .
28.5(27) . . .
34.5(31) . . .
29.5(29) . . .
35.2(31) . . .
32.5(30) . . .
29.1(28) . . .
35.2(32) . . .
37.0(34) . . .
36.8(32) . . .
45(4) . . .
26.4(27) . . .
23.9(25) . . .
31.5(32) . . .
33.9(31) . . .
32.8(30) . . .
34.3(31) . . .
33.7(31) . . .
38(4) . . .
41(4) . . .
32.8(29) . . .
31.6(29) . . .
38.5(34) . . .
47(4) . . .
33.9(31) . . .
34.4(31) . . .
27.2(28) . . .
27.2(29) . . .
30.5(32) . . .
33.8(32) . . .
33.9(30) . . .
34.4(31) . . .
36.8(35) . . .
31.3(31) . . .
31.2(31) . . .
34.3(30) . . .
32.6(30) . . .
28.5(29) . . .
21.5(26) . . .
26.5(28) . . .
31.0(29) . . .
26.4(27) . . .
46(4) . . .
37.5(35) . . .
23.0(27) . . .
24.5(26) . . .
27.1(28) . . .
26.7(29) . . .
28.6(29) . . .
26.5(27) . . .
32.5(30) . . .
36.2(33) . . .
33.0(30) . . .
35.0(31) . . .
24.8(27) . . .
20.7(24) . . .
26.0(27) . . .
30.3(29) . . .
30.8(29) . . .
31.4(29) . . .
32.7(30) . . .
37.9(33) . . .
36.7(34) . . .
31.0(29) . . .
24.6(26) . . .
27.7(27) . . .
33.1(32) . . .
31.3(30) . . .
36.4(32) . . .
34.1(30) . . .
31.3(29) . . .
30.6(30) . . .
31.2(32) . . .
34.6(34) . . .
28.9(28) . . .
29.5(28) . . .
33.2(31) . . .
33.5(32) . . .
39.4(34) . . .
31.0(29) . . .
26.3(27) . . .
29.7(31) . . .
28.1(31) . . .
27.5(28) . . .
33.9(30) . . .
38.5(34) . . .
31.9(31) . . .
34.9(32) . . .
40.8(35) . . .
34.8(31) . . .
33.8(31) . . .
28.9(29) . . .
35.8(33) . . .
42(4) . . .
31.8(29) . . .
34.7(33) . . .
32.2(33) . . .
28.1(30) . . .
29.8(30) . . .
31.7(29) . . .
36.3(32) . . .
32.5(31) . . .
33.6(32) . . .
36.2(31) . . .
32.9(30) . . .
42(4) . . .
35.2(32) . . .
38.1(33) . . .
23.3(25) . . .
32.3(30) . . .
28.9(30) . . .
27.0(29) . . .
32.7(30) . . .
33.4(30) . . .
30.5(29) . . .
49(4) . . .
43(4) . . .
30.2(29) . . .
28.7(29) . . .
30.7(30) . . .
27.7(29) . . .
32.2(35) . . .
34.0(31) . . .
35.8(31) . . .
31.0(29) . . .
28.4(28) . . .
36.3(34) . . .
28.7(27) . . .
34.0(32) . . .
33.7(30) . . .
38.2(34) . . .
32.3(32) . . .
32.7(32) . . .
31.1(29) . . .
33.3(31) . . .
34.8(31) . . .
35.2(32) . . .
36.2(33) . . .
31.0(29) . . .
37.2(33) . . .
32.2(31) . . .
31.8(31) . . .
31.6(30) . . .
37.6(32) . . .
32.9(31) . . .
41(4) . . .
30.7(29) . . .
29.0(28) . . .
33.0(30) . . .
29.8(29) . . .
31.2(30) . . .
31.4(29) . . .
35.5(31) . . .
30.8(29) . . .
35.0(32) . . .
29.0(30) . . .
24.7(27) . . .
30.1(29) . . .
30.4(29) . . .
38.7(34) . . .
32.6(32) . . .
32.6(31) . . .
33.4(32) . . .
39.6(32) . . .
32.3(30) . . .
30.5(30) . . .
36.3(32) . . .
42.4(34) . . .
41.0(33) . . .
28.8(27) . . .
35.1(34) . . .
25.5(26) . . .
30.4(28) . . .
27.6(27) . . .
43.0(35) . . .
33.5(33) . . .
28.5(29) . . .
35.6(32) . . .
36.0(32) . . .
29.7(28) . . .
26.0(27) . . .
31.4(30) . . .
40.2(34) . . .
41.9(35) . . .
38.4(32) . . .
36.5(33) . . .
36.2(35) . . .
36.4(31) . . .
33.4(30) . . .
34.3(31) . . .
26.0(28) . . .
31.1(32) . . .
30.8(29) . . .
31.0(30) . . .
33.0(31) . . .
34.6(32) . . .
29.2(28) . . .
32.9(30) . . .
36.4(32) . . .
44(4) . . .
34.8(33) . . .
35.1(31) . . .
35.6(31) . . .
31.7(31) . . .
34.8(33) . . .
30.2(31) . . .
33.7(31) . . .
36.6(32) . . .
33.2(32) . . .
27.3(28) . . .
29.8(30) . . .
35.7(32) . . .
24.2(26) . . .
37.5(33) . . .
35.9(34) . . .
27.3(28) . . .
37.3(32) . . .
40.0(33) . . .
24.6(26) . . .
32.1(32) . . .
33.6(30) . . .
36.5(31) . . .
35.2(32) . . .
37.7(33) . . .
39(4) . . .
28.0(27) . . .
33.4(30) . . .
37.0(32) . . .
23.8(26) . . .
24.1(28) . . .
31.1(29) . . .
29.7(28) . . .
46(4) . . .
28.7(28) . . .
42(4) . . .
34.1(31) . . .
35.1(31) . . .
35.0(30) . . .
37.3(32) . . .
28.0(28) . . .
35.6(34) . . .
30.3(29) . . .
32.0(31) . . .
32.3(31) . . .
32.2(33) . . .
32.8(30) . . .
35.3(31) . . .
32.4(31) . . .
30.6(31) . . .
26.6(28) . . .
30.8(29) . . .
38.8(32) . . .
33.7(32) . . .
31.3(30) . . .
30.7(34) . . .
28.4(29) . . .
41.4(33) . . .
33.0(30) . . .
38.4(35) . . .
34.0(31) . . .
35.2(30) . . .
33.2(30) . . .
34.7(32) . . .
40(4) . . .
28.0(29) . . .
22.7(25) . . .
28.3(28) . . .
42(4) . . .
29.7(31) . . .
28.3(29) . . .
29.7(29) . . .
29.0(29) . . .
32.6(29) . . .
35.9(34) . . .
28.2(28) . . .
35.8(32) . . .
32.9(30) . . .
32.5(30) . . .
27.5(30) . . .
27.4(28) . . .
24.4(27) . . .
28.1(27) . . .
32.9(32) . . .
31.8(32) . . .
34.2(32) . . .
28.1(28) . . .
30.5(28) . . .
28.9(30) . . .
33.4(34) . . .
35.4(31) . . .
33.6(30) . . .
32.7(30) . . .
32.2(30) . . .
32.0(31) . . .
27.7(29) . . .
31.4(30) . . .
30.1(28) . . .
34.7(33) . . .
42(4) . . .
30.8(30) . . .
28.3(28) . . .
32.2(30) . . .
29.7(31) . . .
28.9(30) . . .
32.8(31) . . .
36.0(31) . . .
37.1(32) . . .
34.5(33) . . .
31.6(31) . . .
35.4(33) . . .
29.9(28) . . .
33.8(32) . . .
33.2(33) . . .
30.9(30) . . .
37.2(33) . . .
33.3(30) . . .
31.3(32) . . .
40(4) . . .
30.8(29) . . .
33.5(31) . . .
34.7(30) . . .
30.9(29) . . .
41(4) . . .
34.5(32) . . .
33.1(30) . . .
29.6(28) . . .
33.6(30) . . .
41(4) . . .
30.6(29) . . .
29.5(28) . . .
34.2(31) . . .
33.6(30) . . .
42(4) . . .
31.1(29) . . .
42.2(34) . . .
33.7(31) . . .
29.2(30) . . .
21.8(25) . . .
34.2(32) . . .
28.2(29) . . .
32.4(30) . . .
33.8(30) . . .
35.4(33) . . .
30.5(31) . . .
24.8(26) . . .
31.5(29) . . .
27.4(28) . . .
32.6(31) . . .
33.8(31) . . .
36.1(32) . . .
31.5(29) . . .
37.0(33) . . .
29.1(28) . . .
30.4(30) . . .
32.0(30) . . .
22.1(26) . . .
30.2(32) . . .
33.9(32) . . .
37.0(32) . . .
23.5(25) . . .
29.9(30) . . .
33.2(32) . . .
33.5(32) . . .
28.8(29) . . .
36.7(32) . . .
30.9(30) . . .
30.7(31) . . .
31.1(30) . . .
28.8(28) . . .
42.5(34) . . .
29.9(28) . . .
42(4) . . .
27.7(27) . . .
28.8(28) . . .
32.3(30) . . .
27.0(27) . . .
34.5(32) . . .
30.0(30) . . .
27.0(27) . . .
32.0(30) . . .
33.1(31) . . .
34.8(35) . . .
22.8(27) . . .
31.7(30) . . .
33.6(30) . . .
31.2(30) . . .
26.1(29) . . .
31.5(30) . . .
33.4(30) . . .
35.6(34) . . .
35.3(32) . . .
30.4(29) . . .
29.6(30) . . .
28.6(28) . . .
31.6(31) . . .
34.0(32) . . .
30.0(30) . . .
38.7(33) . . .
27.7(28) . . .
26.8(27) . . .
28.0(29) . . .
26.7(28) . . .
33.2(33) . . .
38.8(33) . . .
31.7(32) . . .
36.2(34) . . .
30.6(30) . . .
26.3(27) . . .
35.9(31) . . .
27.7(30) . . .
34.7(35) . . .
36.2(34) . . .
22.0(25) . . .
23.8(25) . . .
27.8(29) . . .
31.8(31) . . .
26.6(27) . . .
34.7(30) . . .
35.6(31) . . .
32.4(30) . . .
41(4) . . .
29.3(29) . . .
38.3(32) . . .
36.4(32) . . .
31.5(30) . . .
33.3(34) . . .
44(4) . . .
30.9(29) . . .
34.0(30) . . .
27.3(27) . . .
33.0(33) . . .
32.6(30) . . .
36.3(31) . . .
43(4) . . .
29.4(30) . . .
26.4(30) . . .
41(4) . . .
37.6(32) . . .
30.4(29) . . .
31.4(30) . . .
30.9(30) . . .
31.5(29) . . .
29.2(28) . . .
30.8(30) . . .
43(4) . . .
30.4(30) . . .
29.6(28) . . .
31.3(29) . . .
25.6(26) . . .
23.6(28) . . .
28.5(30) . . .
27.9(28) . . .
35.3(31) . . .
33.8(31) . . .
33.9(31) . . .
33.9(31) . . .
33.3(30) . . .
31.9(30) . . .
32.0(31) . . .
26.9(27) . . .
33.0(31) . . .
36.0(31) . . .
37.3(32) . . .
30.1(30) . . .
34.2(34) . . .
23.9(27) . . .
26.6(28) . . .
28.9(29) . . .
39.2(34) . . .
26.4(28) . . .
37.3(34) . . .
40.1(33) . . .
29.8(28) . . .
31.9(31) . . .
33.6(33) . . .
31.7(31) . . .
34.4(31) . . .
36.1(32) . . .
36.5(32) . . .
32.9(32) . . .
36.4(34) . . .
25.2(26) . . .
29.1(28) . . .
33.3(32) . . .
29.8(30) . . .
31.2(29) . . .
29.4(28) . . .
36.8(32) . . .
33.3(31) . . .
30.8(28) . . .
28.8(29) . . .
27.7(28) . . .
30.5(29) . . .
24.4(25) . . .
28.3(30) . . .
25.2(26) . . .
34.6(31) . . .
33.6(30) . . .
44(4) . . .
38.2(31) . . .
35.6(31) . . .
35.4(31) . . .
40(4) . . .
26.5(28) . . .
37.2(34) . . .
37.1(32) . . .
30.1(28) . . .
24.6(27) . . .
21.4(24) . . .
31.3(30) . . .
36.7(32) . . .
43.7(34) . . .
25.5(29) . . .
29.3(34) . . .
27.4(29) . . .
40(4) . . .
35.0(31) . . .
35.1(32) . . .
35.8(33) . . .
29.5(28) . . .
26.4(27) . . .
28.9(28) . . .
37.1(34) . . .
29.0(29) . . .
34.0(32) . . .
26.3(27) . . .
30.2(28) . . .
33.9(31) . . .
31.7(31) . . .
35.6(31) . . .
34.5(30) . . .
34.7(31) . . .
36.3(32) . . .
28.2(28) . . .
36.7(33) . . .
38.7(32) . . .
37.0(34) . . .
31.8(30) . . .
29.4(30) . . .
34.2(32) . . .
28.9(28) . . .
28.3(28) . . .
34.5(34) . . .
25.7(28) . . .
29.2(28) . . .
26.1(26) . . .
42.2(35) . . .
34.4(32) . . .
40(4) . . .
27.8(28) . . .
34.7(30) . . .
36.2(33) . . .
38.3(35) . . .
32.7(30) . . .
44(4) . . .
32.9(30) . . .
43(4) . . .
24.3(25) . . .
38.2(34) . . .
32.2(30) . . .
29.0(28) . . .
26.2(26) . . .
37.0(33) . . .
37.9(34) . . .
27.0(28) . . .
33.0(30) . . .
37.8(32) . . .
29.4(29) . . .
35.2(32) . . .
29.5(28) . . .
26.5(27) . . .
28.6(30) . . .
36.8(35) . . .
31.9(30) . . .
41.2(34) . . .
28.2(28) . . .
34.1(34) . . .
29.9(32) . . .
34.8(31) . . .
38.7(33) . . .
32.2(30) . . .
28.8(28) . . .
36.2(32) . . .
39.0(33) . . .
33.8(30) . . .
40.3(34) . . .
23.2(27) . . .
32.8(33) . . .
26.5(28) . . .
32.6(31) . . .
24.4(27) . . .
36.1(33) . . .
37.2(32) . . .
33.8(30) . . .
26.0(27) . . .
24.1(26) . . .
33.4(34) . . .
27.5(30) . . .
31.7(29) . . .
32.6(30) . . .
36(4) . . .
25.7(27) . . .
31.3(32) . . .
24.8(26) . . .
33.4(30) . . .
35.1(31) . . .
36.5(33) . . .
40.1(34) . . .
40(4) . . .
28.2(27) . . .
30.0(29) . . .
27.5(28) . . .
28.4(27) . . .
30.9(30) . . .
26.1(27) . . .
38(4) . . .
31.0(31) . . .
30.7(34) . . .
26.2(27) . . .
29.1(28) . . .
32.3(29) . . .
29.9(30) . . .
23.8(26) . . .
33.6(31) . . .
30.7(29) . . .
36.0(32) . . .
37(4) . . .
34.0(32) . . .
36.5(31) . . .
37.3(34) . . .
21.5(24) . . .
37.0(35) . . .
30.5(29) . . .
27.3(27) . . .
30.3(30) . . .
34.5(33) . . .
35.4(31) . . .
36.3(31) . . .
34.7(32) . . .
32.1(30) . . .
26.6(28) . . .
32.7(33) . . .
29.7(30) . . .
34.4(31) . . .
36.6(31) . . .
27.4(28) . . .
33.8(33) . . .
36.1(33) . . .
25.1(26) . . .
32.3(30) . . .
26.2(27) . . .
29.3(29) . . .
38.0(32) . . .
30.8(29) . . .
24.8(29) . . .
25.2(29) . . .
25.7(27) . . .
28.8(28) . . .
40.2(33) . . .
41(4) . . .
26.4(29) . . .
36.3(35) . . .
27.1(27) . . .
33.1(30) . . .
32.7(32) . . .
31.4(30) . . .
32.3(29) . . .
24.0(25) . . .
35.2(31) . . .
28.1(27) . . .
38(4) . . .
34.1(32) . . .
30.8(29) . . .
27.1(27) . . .
23.6(25) . . .
28.9(30) . . .
36.3(32) . . .
33.7(31) . . .
28.9(28) . . .
34.9(33) . . .
29.2(31) . . .
30.2(30) . . .
33.5(30) . . .
32.4(31) . . .
31.7(31) . . .
26.2(27) . . .
30.0(30) . . .
26.4(27) . . .
27.2(27) . . .
31.8(32) . . .
34.3(34) . . .
44(4) . . .
36.4(31) . . .
26.6(27) . . .
29.7(30) . . .
30.7(30) . . .
31.7(30) . . .
28.8(28) . . .
33.8(32) . . .
25.6(26) . . .
27.9(29) . . .
26.2(28) . . .
29.4(28) . . .
26.8(27) . . .
31.9(31) . . .
31.2(30) . . .
30.2(30) . . .
35.1(31) . . .
34.9(32) . . .
27.6(28) . . .
31.4(31) . . .
31.2(30) . . .
31.3(29) . . .
33.5(31) . . .
33.6(32) . . .
37.4(34) . . .
32.3(30) . . .
34.3(31) . . .
29.3(29) . . .
34.6(32) . . .
36.1(32) . . .
37.5(33) . . .
35.8(31) . . .
26.4(28) . . .
33.3(33) . . .
35.7(32) . . .
34.7(30) . . .
24.4(26) . . .
35.6(35) . . .
35.7(34) . . .
39.1(33) . . .
38.8(32) . . .
29.4(28) . . .
32.1(32) . . .
32.7(32) . . .
36.4(34) . . .
35.0(31) . . .
29.8(29) . . .
35.0(32) . . .
40(4) . . .
30.2(30) . . .
29.2(28) . . .
28.3(30) . . .
32.6(30) . . .
30.0(29) . . .
30.5(30) . . .
34.8(31) . . .
35.1(31) . . .
40.7(34) . . .
39.4(34) . . .
28.0(28) . . .
37.5(32) . . .
29.0(29) . . .
32.1(33) . . .
29.2(32) . . .
31.2(31) . . .
42.6(35) . . .
26.9(27) . . .
37.3(33) . . .
26.4(27) . . .
32.6(30) . . .
43.9(35) . . .
27.3(28) . . .
23.2(26) . . .
33.6(34) . . .
34.7(31) . . .
30.3(29) . . .
30.0(30) . . .
31.3(31) . . .
33.8(32) . . .
33.5(30) . . .
32.8(31) . . .
28.6(28) . . .
33.9(33) . . .
26.2(29) . . .
24.9(27) . . .
37.4(32) . . .
35.4(32) . . .
33.2(34) . . .
29.8(29) . . .
35.3(31) . . .
31.6(29) . . .
30.9(29) . . .
33.7(33) . . .
32.3(31) . . .
32.7(30) . . .
32.3(31) . . .
33.0(30) . . .
32.0(31) . . .
31.1(30) . . .
32.3(30) . . .
42.2(34) . . .
28.0(27) . . .
30.5(29) . . .
34.3(32) . . .
36.8(32) . . .
39.7(34) . . .
31.1(29) . . .
28.3(28) . . .
30.1(29) . . .
32.8(30) . . .
34.5(31) . . .
28.7(27) . . .
30.4(29) . . .
29.5(29) . . .
36.6(32) . . .
30.8(30) . . .
30.6(31) . . .
32.9(31) . . .
33.5(30) . . .
36.5(31) . . .
27.4(27) . . .
41(4) . . .
31.3(32) . . .
29.5(29) . . .
30.6(29) . . .
30.8(30) . . .
33.7(32) . . .
26.4(29) . . .
26.0(26) . . .
31.8(29) . . .
31.9(30) . . .
34.3(33) . . .
28.7(28) . . .
34.8(33) . . .
28.5(28) . . .
30.0(29) . . .
35.1(31) . . .
37.5(32) . . .
31.4(29) . . .
26.0(27) . . .
27.3(28) . . .
29.8(31) . . .
33.4(32) . . .
35.9(31) . . .
36.7(32) . . .
33.2(31) . . .
36.0(35) . . .
23.5(26) . . .
37.4(32) . . .
31.3(29) . . .
27.0(27) . . .
30.0(28) . . .
39.6(35) . . .
33.3(30) . . .
31.4(29) . . .
28.3(29) . . .
25.3(27) . . .
33.3(31) . . .
28.7(28) . . .
32.5(31) . . .
31.8(29) . . .
34.1(31) . . .
31.5(29) . . .
28.0(28) . . .
29.8(29) . . .
29.1(29) . . .
30.5(30) . . .
31.2(29) . . .
27.8(28) . . .
37(4) . . .
31.3(30) . . .
32.1(30) . . .
36.4(32) . . .
33.7(31) . . .
36.5(31) . . .
33.1(31) . . .
27.4(27) . . .
42.3(34) . . .
27.8(27) . . .
26.7(28) . . .
28.5(30) . . .
34.0(32) . . .
34.5(30) . . .
31.6(30) . . .
32.1(31) . . .
31.8(33) . . .
32.7(31) . . .
35.2(31) . . .
30.1(29) . . .
27.8(27) . . .
37.3(34) . . .
34.3(32) . . .
26.5(27) . . .
31.8(30) . . .
33.1(32) . . .
33.0(33) . . .
38.1(34) . . .
35.5(31) . . .
35.5(31) . . .
27.8(27) . . .
27.3(28) . . .
27.3(28) . . .
27.7(28) . . .
27.0(27) . . .
30.5(30) . . .
30.8(30) . . .
34.7(31) . . .
26.7(27) . . .
32.1(30) . . .
36.8(34) . . .
34.4(32) . . .
27.7(27) . . .
34.7(31) . . .
26.6(27) . . .
33.1(30) . . .
38.0(32) . . .
37.1(31) . . .
40.9(34) . . .
33.8(32) . . .
26.9(27) . . .
31.1(29) . . .
35.4(32) . . .
30.6(29) . . .
24.8(29) . . .
31.9(32) . . .
29.5(30) . . .
25.8(26) . . .
33.5(30) . . .
30.9(30) . . .
35.5(34) . . .
24.6(27) . . .
24.6(26) . . .
35.0(31) . . .
38.9(33) . . .
32.8(31) . . .
33.4(31) . . .
32.1(30) . . .
38.8(32) . . .
30.5(30) . . .
34.1(34) . . .
29.1(28) . . .
24.8(26) . . .
29.5(28) . . .
29.2(27) . . .
32.1(30) . . .
34.9(33) . . .
30.6(29) . . .
31.1(31) . . .
28.1(29) . . .
30.5(30) . . .
28.7(29) . . .
29.8(29) . . .
32.4(30) . . .
25.6(26) . . .
30.5(29) . . .
31.3(31) . . .
37.6(31) . . .
26.4(28) . . .
35.3(35) . . .
32.1(32) . . .
31.0(30) . . .
38.3(32) . . .
40.8(34) . . .
26.0(30) . . .
35.2(33) . . .
33.5(30) . . .
38.4(32) . . .
31.6(31) . . .
28.5(29) . . .
29.0(28) . . .
29.4(30) . . .
28.6(28) . . .
30.1(29) . . .
22.9(27) . . .
29.4(31) . . .
34.5(31) . . .
32.8(30) . . .
33.6(32) . . .
34.0(34) . . .
44(4) . . .
29.1(29) . . .
24.6(26) . . .
30.4(29) . . .
34.1(32) . . .
28.3(28) . . .
34.5(32) . . .
37.5(32) . . .
34.5(31) . . .
32.7(31) . . .
34.2(31) . . .
46(4) . . .
29.4(29) . . .
35.3(33) . . .
29.4(30) . . .
29.8(30) . . .
36.4(33) . . .
30.6(29) . . .
32.1(31) . . .
31.5(30) . . .
38.3(33) . . .
35.3(31) . . .
32.6(29) . . .
36.8(32) . . .
30.4(29) . . .
30.1(28) . . .
41.7(34) . . .
29.9(29) . . .
31.6(29) . . .
32.1(31) . . .
37.5(33) . . .
34.7(31) . . .
29.7(28) . . .
25.5(27) . . .
25.3(27) . . .
33.4(30) . . .
36.3(31) . . .
33.3(31) . . .
37.2(34) . . .
30.8(29) . . .
39.1(33) . . .
34.8(31) . . .
36.5(33) . . .
30.0(30) . . .
32.1(31) . . .
34.4(30) . . .
30.2(29) . . .
36.4(34) . . .
26.0(27) . . .
32.0(30) . . .
35.9(32) . . .
30.2(29) . . .
39.8(33) . . .
41.0(34) . . .
32.7(30) . . .
30.6(30) . . .
31.9(30) . . .
25.7(27) . . .
31.2(33) . . .
25.1(26) . . .
26.3(27) . . .
32.4(30) . . .
30.5(30) . . .
31.6(32) . . .
32.3(32) . . .
31.8(29) . . .
27.3(27) . . .
29.0(30) . . .
32.6(32) . . .
33.6(31) . . .
26.9(27) . . .
29.6(29) . . .
35.9(34) . . .
35.1(34) . . .
30.3(30) . . .
31.4(29) . . .
24.2(26) . . .
30.5(30) . . .
30.6(30) . . .
42(4) . . .
28.1(27) . . .
34.6(31) . . .
30.9(32) . . .
33.8(34) . . .
24.7(26) . . .
29.9(29) . . .
32.2(31) . . .
38(4) . . .
30.5(29) . . .
28.9(28) . . .
34.8(31) . . .
33.8(31) . . .
33.4(30) . . .
17.8(22) . . .
33.4(31) . . .
37.2(32) . . .
30.6(29) . . .
30.8(30) . . .
28.1(28) . . .
30.1(28) . . .
28.8(29) . . .
27.8(30) . . .
29.2(32) . . .
33.3(32) . . .
28.3(28) . . .
24.5(25) . . .
37.4(34) . . .
33.7(33) . . .
35.5(33) . . .
27.9(28) . . .
28.3(27) . . .
32.9(30) . . .
43(4) . . .
31.6(30) . . .
31.3(29) . . .
33.8(31) . . .
28.2(28) . . .
32.9(32) . . .
31.3(30) . . .
24.7(26) . . .
35.2(32) . . .
41.3(33) . . .
34.8(32) . . .
28.8(28) . . .
39.5(33) . . .
30.8(29) . . .
42(4) . . .
31.1(29) . . .
33.7(31) . . .
22.6(25) . . .
30.4(30) . . .
30.5(29) . . .
29.3(30) . . .
27.3(27) . . .
27.1(27) . . .
25.5(27) . . .
32.2(32) . . .
30.1(29) . . .
35.7(32) . . .
27.5(27) . . .
29.7(28) . . .
30.8(30) . . .
31.5(29) . . .
35.6(31) . . .
36.3(32) . . .
36.0(32) . . .
29.2(29) . . .
29.2(29) . . .
32.9(32) . . .
33.8(31) . . .
34.4(32) . . .
31.0(29) . . .
38.8(34) . . .
31.3(29) . . .
33.0(31) . . .
24.5(26) . . .
27.3(27) . . .
34.3(32) . . .
33.2(31) . . .
36.0(32) . . .
35.7(33) . . .
26.0(27) . . .
28.2(28) . . .
27.4(27) . . .
35.6(31) . . .
33.5(32) . . .
34.3(32) . . .
36.6(32) . . .
26.6(27) . . .
30.6(28) . . .
36.7(32) . . .
33.3(30) . . .
32.5(29) . . .
36.3(32) . . .
27.8(28) . . .
25.1(27) . . .
23.5(27) . . .
35.1(32) . . .
28.3(28) . . .
30.7(29) . . .
27.7(28) . . .
34.3(33) . . .
33.9(31) . . .
33.1(30) . . .
29.7(28) . . .
33.5(33) . . .
22.7(26) . . .
25.9(26) . . .
23.8(25) . . .
31.8(30) . . .
27.2(28) . . .
20.1(25) . . .
35.0(33) . . .
32.1(30) . . .
33.5(31) . . .
33.8(32) . . .
33.5(31) . . .
34.0(31) . . .
26.6(28) . . .
35.5(31) . . .
30.9(30) . . .
28.3(30) . . .
26.0(26) . . .
31.4(29) . . .
26.1(28) . . .
28.5(30) . . .
32.9(33) . . .
36.1(33) . . .
34.4(31) . . .
29.0(29) . . .
31.0(31) . . .
22.3(24) . . .
30.7(29) . . .
30.3(28) . . .
28.4(28) . . .
36.1(33) . . .
36.6(32) . . .
40.7(34) . . .
36.0(31) . . .
35.7(33) . . .
25.3(27) . . .
25.4(27) . . .
37.0(32) . . .
31.2(31) . . .
25.1(28) . . .
34.8(33) . . .
38.0(33) . . .
33.6(30) . . .
36.9(31) . . .
29.3(29) . . .
25.0(26) . . .
27.1(27) . . .
26.5(27) . . .
35.7(31) . . .
37.1(32) . . .
31.6(30) . . .
32.5(30) . . .
28.5(28) . . .
36.6(34) . . .
34.5(33) . . .
29.6(31) . . .
37.6(32) . . .
39.4(33) . . .
32.3(31) . . .
35.4(35) . . .
28.5(29) . . .
35.7(31) . . .
43(4) . . .
35.3(31) . . .
32.5(31) . . .
30.4(29) . . .
30.1(29) . . .
30.5(29) . . .
32.2(31) . . .
31.7(32) . . .
21.4(24) . . .
28.5(28) . . .
34.9(31) . . .
35.6(32) . . .
29.2(30) . . .
30.6(30) . . .
40.7(34) . . .
26.5(28) . . .
35.8(34) . . .
26.5(28) . . .
27.2(29) . . .
25.7(26) . . .
32.0(29) . . .
31.2(30) . . .
31.4(30) . . .
34(4) . . .
26.6(27) . . .
32.7(31) . . .
34.8(34) . . .
30.4(31) . . .
20.9(25) . . .
31.7(29) . . .
31.5(30) . . .
30.9(29) . . .
32.2(32) . . .
25.1(27) . . .
28.3(28) . . .
35.9(32) . . .
30.9(30) . . .
30.1(31) . . .
26.5(27) . . .
28.9(28) . . .
30.1(29) . . .
31.7(29) . . .
35.8(33) . . .
35.3(32) . . .
39.2(33) . . .
22.1(25) . . .
33.3(35) . . .
27.6(27) . . .
30.3(28) . . .
29.9(28) . . .
29.5(28) . . .
37.6(35) . . .
39.3(33) . . .
29.1(28) . . .
26.9(27) . . .
34.4(31) . . .
31.9(29) . . .
40.8(32) . . .
27.4(29) . . .
28.0(27) . . .
36.0(32) . . .
37.1(34) . . .
30.8(31) . . .
24.9(27) . . .
28.4(28) . . .
29.1(29) . . .
32.2(33) . . .
32.7(31) . . .
31.9(29) . . .
26.8(28) . . .
25.1(26) . . .
31.4(32) . . .
30.3(29) . . .
32.9(30) . . .
29.6(28) . . .
32.7(32) . . .
28.9(29) . . .
32.8(32) . . .
36.4(32) . . .
34.1(30) . . .
40(4) . . .
30.7(30) . . .
28.0(28) . . .
27.5(27) . . .
34.6(31) . . .
33.1(32) . . .
31.3(30) . . .
39.7(35) . . .
35.4(31) . . .
27.2(29) . . .
34.3(34) . . .
29.8(30) . . .
34.3(32) . . .
35.1(31) . . .
26.8(28) . . .
35.2(35) . . .
29.0(29) . . .
27.5(28) . . .
28.6(28) . . .
38.8(33) . . .
33.1(30) . . .
35.3(31) . . .
38.3(33) . . .
35.8(31) . . .
38(4) . . .
27.0(29) . . .
37.0(32) . . .
33.0(32) . . .
42.3(35) . . .
32.5(32) . . .
30.9(31) . . .
26.9(27) . . .
36.0(32) . . .
32.0(29) . . .
32.2(29) . . .
41(4) . . .
37.5(32) . . .
28.5(28) . . .
27.9(28) . . .
32.0(30) . . .
35.1(33) . . .
39.7(34) . . .
34.3(31) . . .
32.7(31) . . .
34.5(31) . . .
34.1(33) . . .
29.7(30) . . .
30.4(29) . . .
32.6(31) . . .
32.1(31) . . .
35.5(33) . . .
43(4) . . .
34.8(31) . . .
32.0(30) . . .
37.1(33) . . .
34.4(32) . . .
38.0(33) . . .
37.5(32) . . .
37.2(32) . . .
34.0(33) . . .
35.1(31) . . .
41.1(35) . . .
33.8(31) . . .
28.2(28) . . .
31.9(32) . . .
31.6(30) . . .
30.7(31) . . .
37.6(32) . . .
34.1(31) . . .
33.3(31) . . .
23.5(26) . . .
28.6(29) . . .
35.8(32) . . .
34.2(31) . . .
33.3(31) . . .
34.8(31) . . .
30.9(30) . . .
31.0(30) . . .
27.5(28) . . .
35.4(34) . . .
33.8(31) . . .
25.4(26) . . .
32.2(30) . . .
28.6(32) . . .
29.5(31) . . .
33.8(31) . . .
28.8(29) . . .
26.5(27) . . .
30.4(28) . . .
40.2(35) . . .
32.8(31) . . .
31.5(29) . . .
34.6(30) . . .
28.2(28) . . .
30.9(31) . . .
30.4(29) . . .
31.8(29) . . .
29.8(28) . . .
27.1(27) . . .
28.8(29) . . .
32.4(30) . . .
32.5(30) . . .
26.1(27) . . .
31.8(30) . . .
33.9(32) . . .
32.6(30) . . .
25.5(26) . . .
34.0(32) . . .
29.6(30) . . .
21.8(25) . . .
25.8(27) . . .
32.7(29) . . .
33.4(32) . . .
36.0(32) . . .
28.5(30) . . .
26.0(26) . . .
24.8(27) . . .
34.1(31) . . .
27.5(28) . . .
25.3(27) . . .
32.0(31) . . .
27.7(27) . . .
29.4(29) . . .
29.8(31) . . .
28.2(29) . . .
33.0(30) . . .
26.0(27) . . .
32.0(31) . . .
28.1(29) . . .
34.8(32) . . .
29.8(28) . . .
26.5(27) . . .
33.1(30) . . .
34.3(32) . . .
31.0(29) . . .
28.1(28) . . .
39.9(33) . . .
32.9(30) . . .
29.0(31) . . .
27.5(29) . . .
31.0(30) . . .
26.1(27) . . .
25.8(30) . . .
31.4(33) . . .
35.4(32) . . .
29.1(28) . . .
24.3(25) . . .
36.2(33) . . .
32.4(35) . . .
19.8(26) . . .
25.4(27) . . .
31.4(29) . . .
33.8(32) . . .
31.0(30) . . .
29.9(29) . . .
32.1(30) . . .
33.7(31) . . .
35.1(34) . . .
31.8(30) . . .
37.4(33) . . .
31.5(30) . . .
31.9(30) . . .
28.2(29) . . .
24.9(27) . . .
27.1(27) . . .
31.5(30) . . .
34.5(31) . . .
27.7(29) . . .
28.7(29) . . .
26.3(27) . . .
30.2(28) . . .
31.8(31) . . .
40(4) . . .
36.5(32) . . .
37.2(31) . . .
32.0(29) . . .
27.1(27) . . .
29.1(29) . . .
36.6(33) . . .
28.8(28) . . .
28.5(28) . . .
36.3(33) . . .
34.3(35) . . .
31.7(31) . . .
24.8(26) . . .
33.5(30) . . .
29.6(31) . . .
35.1(34) . . .
37.7(33) . . .
38.2(32) . . .
30.5(29) . . .
32.2(32) . . .
28.9(29) . . .
25.9(27) . . .
25.3(27) . . .
40(4) . . .
36.5(34) . . .
34.7(35) . . .
28.8(28) . . .
30.8(29) . . .
27.9(27) . . .
40.4(34) . . .
32.3(31) . . .
23.5(25) . . .
28.8(28) . . .
28.0(28) . . .
33.2(31) . . .
34.9(32) . . .
31.3(29) . . .
25.4(26) . . .
31.9(31) . . .
28.0(28) . . .
33.8(31) . . .
29.4(28) . . .
26.9(27) . . .
27.7(29) . . .
24.1(27) . . .
31.9(32) . . .
27.2(29) . . .
32.4(30) . . .
33.1(30) . . .
36.6(34) . . .
31.0(31) . . .
34.8(30) . . .
32.9(30) . . .
26.2(26) . . .
32.3(32) . . .
35.4(31) . . .
37.0(34) . . .
38.2(32) . . .
31.0(29) . . .
29.0(30) . . .
22.5(29) . . .
22.4(25) . . .
27.1(27) . . .
33.3(32) . . .
37.5(34) . . .
29.7(28) . . .
36.5(31) . . .
24.3(25) . . .
26.9(27) . . .
32.5(31) . . .
32.8(31) . . .
33.8(30) . . .
25.7(26) . . .
25.3(27) . . .
34.6(32) . . .
27.4(27) . . .
29.6(29) . . .
20.6(24) . . .
29.5(29) . . .
32.3(32) . . .
25.6(27) . . .
34.0(30) . . .
30.6(29) . . .
36.0(32) . . .
32.8(31) . . .
40.6(34) . . .
30.8(29) . . .
27.2(27) . . .
35.5(33) . . .
30.7(30) . . .
20.2(25) . . .
30.1(29) . . .
33.7(31) . . .
28.8(31) . . .
31.2(31) . . .
29.5(29) . . .
35.0(31) . . .
24.9(26) . . .
42(4) . . .
31.8(30) . . .
33.0(33) . . .
31.3(29) . . .
29.3(29) . . .
39(4) . . .
32.8(30) . . .
34.8(31) . . .
26.4(27) . . .
33.3(34) . . .
29.8(33) . . .
26.0(27) . . .
23.1(26) . . .
26.8(27) . . .
29.1(28) . . .
29.2(29) . . .
26.1(26) . . .
31.5(29) . . .
31.5(29) . . .
25.1(26) . . .
31.3(32) . . .
24.7(27) . . .
24.6(27) . . .
32.0(30) . . .
29.2(30) . . .
31.6(32) . . .
29.8(29) . . .
36.4(32) . . .
34.2(31) . . .
30.8(30) . . .
34.6(33) . . .
33.2(32) . . .
31.9(29) . . .
27.5(27) . . .
26.4(26) . . .
33.1(32) . . .
28.3(30) . . .
33.2(31) . . .
32.9(30) . . .
33.2(31) . . .
22.5(25) . . .
30.6(32) . . .
31.6(29) . . .
33.8(31) . . .
39.8(34) . . .
32.5(31) . . .
26.9(28) . . .
27.2(27) . . .
32.0(31) . . .
33.9(31) . . .
32.6(30) . . .
35.8(31) . . .
37.8(32) . . .
41.1(34) . . .
37.1(33) . . .
34.6(32) . . .
31.0(29) . . .
32.0(30) . . .
34.0(32) . . .
32.2(31) . . .
27.8(29) . . .
30.5(28) . . .
29.5(29) . . .
28.9(30) . . .
32.5(32) . . .
38.1(33) . . .
33.1(31) . . .
25.8(27) . . .
24.2(26) . . .
28.8(31) . . .
25.8(27) . . .
31.3(29) . . .
25.1(26) . . .
23.7(25) . . .
32.7(32) . . .
35.8(33) . . .
28.4(28) . . .
30.0(29) . . .
30.9(32) . . .
34.3(33) . . .
29.5(29) . . .
24.9(26) . . .
32.2(29) . . .
30.3(29) . . .
33.1(34) . . .
27.2(28) . . .
34.1(31) . . .
29.6(28) . . .
31.4(30) . . .
39.1(34) . . .
37.7(33) . . .
31.3(29) . . .
28.7(28) . . .
36.1(32) . . .
39.1(34) . . .
32.1(29) . . .
26.5(27) . . .
27.6(30) . . .
31.6(32) . . .
29.8(29) . . .
27.4(27) . . .
31.6(29) . . .
32.5(31) . . .
32.2(31) . . .
34.8(34) . . .
30.6(29) . . .
31.0(29) . . .
27.7(29) . . .
31.3(32) . . .
31.7(31) . . .
42(4) . . .
30.1(28) . . .
37.4(33) . . .
34.2(31) . . .
31.5(29) . . .
29.9(29) . . .
30.0(28) . . .
33.4(32) . . .
27.1(30) . . .
22.3(24) . . .
29.9(29) . . .
22.0(24) . . .
23.5(26) . . .
36.3(34) . . .
31.8(31) . . .
32.3(30) . . .
36.5(32) . . .
31.0(30) . . .
28.5(31) . . .
41(4) . . .
31.8(30) . . .
24.7(26) . . .
30.2(30) . . .
27.7(30) . . .
34.1(31) . . .
35.2(31) . . .
37.7(33) . . .
33.3(31) . . .
34.5(33) . . .
32.9(31) . . .
33.9(30) . . .
26.8(29) . . .
22.7(25) . . .
33.3(31) . . .
35.5(31) . . .
43.5(35) . . .
32.6(31) . . .
35.3(31) . . .
37.4(33) . . .
28.7(28) . . .
34.3(31) . . .
33.5(30) . . .
41(4) . . .
24.4(27) . . .
35.3(32) . . .
29.4(28) . . .
29.9(30) . . .
26.0(28) . . .
31.5(32) . . .
27.0(28) . . .
31.6(30) . . .
36.0(34) . . .
28.2(31) . . .
31.5(30) . . .
34.4(31) . . .
24.6(26) . . .
28.2(29) . . .
34.5(34) . . .
27.4(29) . . .
29.2(28) . . .
38.8(33) . . .
31.1(29) . . .
25.5(27) . . .
24.3(26) . . .
34.2(31) . . .
25.8(26) . . .
32.6(32) . . .
27.7(30) . . .
27.8(32) . . .
33.5(31) . . .
33.5(32) . . .
30.3(29) . . .
26.2(28) . . .
31.0(30) . . .
33.0(30) . . .
36.2(32) . . .
34.4(34) . . .
28.2(31) . . .
30.4(31) . . .
25.8(27) . . .
32.2(30) . . .
34.1(35) . . .
28.1(30) . . .
32.3(31) . . .
37.4(32) . . .
34.6(32) . . .
33.3(31) . . .
31.5(30) . . .
26.3(27) . . .
35.3(32) . . .
33.9(32) . . .
29.8(30) . . .
38.0(33) . . .
27.5(28) . . .
37.8(32) . . .
41(4) . . .
29.4(30) . . .
34.3(33) . . .
23.3(25) . . .
36.5(31) . . .
29.5(27) . . .
29.8(29) . . .
40(4) . . .
31.5(29) . . .
34.3(30) . . .
29.5(27) . . .
35.3(32) . . .
28.7(28) . . .
32.3(29) . . .
32.9(30) . . .
32.7(30) . . .
34.2(34) . . .
31.4(30) . . .
27.7(27) . . .
33.1(31) . . .
26.2(29) . . .
30.8(31) . . .
26.7(27) . . .
29.1(28) . . .
30.0(28) . . .
30.6(29) . . .
30.6(33) . . .
24.3(26) . . .
32.4(30) . . .
25.2(27) . . .
27.2(29) . . .
35.0(34) . . .
31.3(30) . . .
33.8(30) . . .
31.8(29) . . .
34.6(32) . . .
39.5(34) . . .
38.4(34) . . .
29.2(28) . . .
35.0(34) . . .
32.9(32) . . .
29.4(29) . . .
30.4(29) . . .
33.4(31) . . .
32.1(30) . . .
37(4) . . .
31.0(31) . . .
22.0(24) . . .
27.9(27) . . .
24.1(27) . . .
31.9(31) . . .
29.6(29) . . .
34.4(32) . . .
30.7(30) . . .
33.6(31) . . .
30.7(30) . . .
32.4(30) . . .
29.6(29) . . .
24.4(26) . . .
26.6(28) . . .
25.7(28) . . .
31.3(30) . . .
26.9(26) . . .
19.6(24) . . .
33.3(32) . . .
29.4(31) . . .
36.1(34) . . .
29.6(28) . . .
33.3(31) . . .
31.8(31) . . .
31.2(30) . . .
29.6(29) . . .
30.1(29) . . .
28.1(29) . . .
27.2(27) . . .
33.2(30) . . .
32.2(30) . . .
32.5(30) . . .
32.0(29) . . .
26.5(27) . . .
29.4(31) . . .
31.0(31) . . .
28.9(28) . . .
33.7(33) . . .
32.0(32) . . .
35.2(34) . . .
31.8(30) . . .
30.0(28) . . .
30.3(29) . . .
25.0(28) . . .
30.4(32) . . .
25.3(26) . . .
27.9(27) . . .
29.3(28) . . .
32.6(30) . . .
28.5(28) . . .
34.3(31) . . .
30.9(29) . . .
35.8(32) . . .
37.0(34) . . .
33.6(32) . . .
25.5(27) . . .
31.4(29) . . .
28.1(28) . . .
26.4(29) . . .
32.4(31) . . .
30.0(29) . . .
21.0(24) . . .
25.4(28) . . .
26.7(29) . . .
26.3(28) . . .
32.0(29) . . .
27.8(27) . . .
34.8(33) . . .
27.1(29) . . .
30.5(30) . . .
31.3(29) . . .
30.0(29) . . .
34.9(32) . . .
29.4(30) . . .
36.2(33) . . .
35.9(31) . . .
32.5(30) . . .
32.8(31) . . .
31.9(30) . . .
41(4) . . .
33.6(30) . . .
31.6(30) . . .
24.9(27) . . .
37(4) . . .
31.1(28) . . .
32.6(30) . . .
27.9(27) . . .
27.4(27) . . .
39.1(34) . . .
32.2(29) . . .
33.3(30) . . .
34.4(31) . . .
28.4(29) . . .
28.7(30) . . .
35.1(31) . . .
31.4(29) . . .
36.7(32) . . .
33.0(32) . . .
30.1(29) . . .
32.7(30) . . .
32.4(30) . . .
33.8(32) . . .
31.9(31) . . .
33.6(30) . . .
30.4(29) . . .
34.4(31) . . .
32.4(32) . . .
28.2(30) . . .
29.7(29) . . .
25.6(28) . . .
31.2(29) . . .
31.4(30) . . .
32.4(33) . . .
38.5(33) . . .
29.5(28) . . .
29.0(29) . . .
32.1(32) . . .
32.3(32) . . .
30.0(30) . . .
33.0(30) . . .
33.2(30) . . .
34.1(32) . . .
34.1(31) . . .
26.1(26) . . .
33.1(30) . . .
29.5(29) . . .
29.4(31) . . .
24.8(27) . . .
33.5(34) . . .
23.7(26) . . .
31.4(30) . . .
30.1(29) . . .
34.7(33) . . .
32.2(32) . . .
30.5(29) . . .
36.6(32) . . .
21.4(24) . . .
27.9(30) . . .
29.9(31) . . .
29.1(28) . . .
30.2(31) . . .
29.0(30) . . .
34.5(34) . . .
38.8(33) . . .
35.0(31) . . .
31.5(31) . . .
31.3(31) . . .
26.4(27) . . .
32.2(30) . . .
33.2(31) . . .
30.1(29) . . .
24.0(26) . . .
29.0(29) . . .
23.6(26) . . .
25.2(27) . . .
29.2(29) . . .
39(4) . . .
32.6(29) . . .
22.6(24) . . .
37.2(32) . . .
38.1(32) . . .
31.9(30) . . .
27.4(27) . . .
29.4(29) . . .
32.2(30) . . .
30.6(30) . . .
37(4) . . .
35.7(32) . . .
37.3(31) . . .
35.2(31) . . .
31.8(30) . . .
33.0(32) . . .
27.0(27) . . .
27.3(27) . . .
30.6(30) . . .
36.9(33) . . .
28.3(28) . . .
36.5(33) . . .
28.5(28) . . .
30.6(29) . . .
28.2(28) . . .
28.3(30) . . .
29.1(29) . . .
31.5(30) . . .
31.0(29) . . .
26.3(29) . . .
37(4) . . .
34.9(32) . . .
33.7(30) . . .
32.3(30) . . .
32.2(34) . . .
31.4(31) . . .
36.1(33) . . .
35.8(32) . . .
33.5(32) . . .
24.9(25) . . .
35.4(35) . . .
33.0(31) . . .
35.1(31) . . .
31.3(33) . . .
31.5(31) . . .
30.7(31) . . .
29.5(29) . . .
32.2(30) . . .
23.8(25) . . .
33.0(32) . . .
31.4(30) . . .
26.7(27) . . .
37.8(33) . . .
28.0(28) . . .
27.0(30) . . .
35.3(32) . . .
34.5(30) . . .
30.4(29) . . .
25.8(27) . . .
25.0(28) . . .
27.0(28) . . .
26.4(26) . . .
31.7(29) . . .
30.9(29) . . .
29.2(31) . . .
28.2(29) . . .
27.5(28) . . .
32.0(29) . . .
35.5(34) . . .
28.6(29) . . .
29.8(29) . . .
40.6(33) . . .
33.3(30) . . .
35.8(32) . . .
43(4) . . .
28.5(28) . . .
32.6(30) . . .
31.6(32) . . .
28.6(30) . . .
24.5(27) . . .
31.8(30) . . .
38.6(32) . . .
37.7(32) . . .
32.7(31) . . .
33.8(33) . . .
31.9(30) . . .
31.2(30) . . .
34.0(32) . . .
34.3(32) . . .
29.4(28) . . .
27.8(30) . . .
24.3(26) . . .
39.5(34) . . .
37.6(34) . . .
38.9(34) . . .
39.9(34) . . .
37.8(32) . . .
30.3(31) . . .
26.6(29) . . .
29.0(30) . . .
28.1(28) . . .
32.5(30) . . .
30.7(29) . . .
31.6(31) . . .
42(4) . . .
32.9(30) . . .
35.8(31) . . .
33.3(31) . . .
22.9(25) . . .
30.0(28) . . .
34.7(31) . . .
39.2(33) . . .
39.5(35) . . .
26.7(29) . . .
25.8(30) . . .
20.9(24) . . .
32.0(31) . . .
30.3(28) . . .
28.0(28) . . .
35.9(33) . . .
31.3(29) . . .
28.3(28) . . .
28.1(28) . . .
33.3(32) . . .
33.1(30) . . .
31.9(29) . . .
30.6(29) . . .
27.9(27) . . .
33.5(33) . . .
23.1(26) . . .
36.3(32) . . .
31.3(29) . . .
30.4(30) . . .
36.0(33) . . .
41.0(34) . . .
31.0(30) . . .
31.9(31) . . .
32.0(33) . . .
27.7(29) . . .
26.3(27) . . .
24.9(27) . . .
35.4(32) . . .
37.5(35) . . .
34.3(31) . . .
34.9(32) . . .
31.9(29) . . .
29.2(30) . . .
29.0(29) . . .
30.3(30) . . .
32.8(31) . . .
30.9(28) . . .
27.9(28) . . .
24.4(29) . . .
28.3(29) . . .
36.2(32) . . .
31.5(29) . . .
29.6(29) . . .
33.7(32) . . .
32.6(30) . . .
33.2(30) . . .
34.3(31) . . .
30.8(30) . . .
27.3(28) . . .
34.3(32) . . .
33.2(30) . . .
30.6(29) . . .
34.2(31) . . .
31.3(33) . . .
24.6(27) . . .
34.2(31) . . .
29.6(30) . . .
29.8(29) . . .
35.3(34) . . .
29.8(30) . . .
25.3(26) . . .
30.0(29) . . .
27.9(30) . . .
30.6(31) . . .
33.5(32) . . .
35.4(31) . . .
33.0(30) . . .
34.2(33) . . .
30.7(31) . . .
31.9(32) . . .
30.5(28) . . .
27.9(29) . . .
31.5(30) . . .
33.9(33) . . .
32.6(32) . . .
34.1(31) . . .
32.0(35) . . .
24.5(26) . . .
30.1(29) . . .
23.6(25) . . .
30.1(29) . . .
26.7(27) . . .
24.9(28) . . .
31.1(31) . . .
32.1(29) . . .
32.6(30) . . .
27.7(28) . . .
24.7(28) . . .
37.6(34) . . .
27.4(28) . . .
34.9(32) . . .
26.1(28) . . .
29.2(30) . . .
37.8(34) . . .
32.0(29) . . .
27.3(28) . . .
25.8(27) . . .
28.3(29) . . .
29.5(29) . . .
22.8(25) . . .
25.0(26) . . .
35.7(33) . . .
33.5(32) . . .
31.9(32) . . .
25.4(26) . . .
33.3(30) . . .
37.5(32) . . .
33.0(32) . . .
35(4) . . .
26.3(27) . . .
33.3(30) . . .
36.5(34) . . .
33.2(31) . . .
31.8(30) . . .
31.5(30) . . .
31.9(30) . . .
37.7(34) . . .
34.2(32) . . .
29.9(30) . . .
26.2(27) . . .
30.7(29) . . .
30.3(29) . . .
29.9(29) . . .
30.7(29) . . .
26.8(27) . . .
43(4) . . .
34.6(33) . . .
27.3(27) . . .
30.1(29) . . .
29.9(29) . . .
27.4(28) . . .
27.1(29) . . .
32.9(31) . . .
33.5(31) . . .
29.5(28) . . .
35.1(32) . . .
31.0(31) . . .
31.8(30) . . .
30.2(29) . . .
26.8(27) . . .
33.9(32) . . .
31.0(31) . . .
33.3(32) . . .
27.6(28) . . .
30.5(29) . . .
28.4(30) . . .
28.4(28) . . .
30.4(30) . . .
33.7(30) . . .
24.5(26) . . .
25.7(26) . . .
32.5(33) . . .
29.8(31) . . .
30.4(29) . . .
29.1(30) . . .
27.3(27) . . .
31.8(33) . . .
36.1(33) . . .
30.5(29) . . .
34.2(30) . . .
33.1(33) . . .
36.3(33) . . .
28.5(29) . . .
33.9(31) . . .
31.1(29) . . .
25.8(28) . . .
31.7(30) . . .
26.5(27) . . .
37.0(32) . . .
27.5(27) . . .
26.1(27) . . .
28.2(30) . . .
29.9(31) . . .
39.5(33) . . .
26.6(28) . . .
28.4(28) . . .
23.9(26) . . .
30.5(29) . . .
25.3(27) . . .
30.2(30) . . .
31.2(32) . . .
32.4(32) . . .
29.2(28) . . .
26.9(27) . . .
43(4) . . .
36.0(33) . . .
31.9(30) . . .
29.0(28) . . .
33.8(30) . . .
30.3(30) . . .
29.7(32) . . .
28.2(29) . . .
36.0(31) . . .
33.8(30) . . .
36.0(32) . . .
32.7(30) . . .
30.8(30) . . .
37.1(32) . . .
27.9(27) . . .
25.0(26) . . .
28.0(29) . . .
36.3(33) . . .
29.6(29) . . .
30.9(30) . . .
32.5(33) . . .
31.0(32) . . .
33.3(31) . . .
27.8(28) . . .
29.5(28) . . .
27.6(29) . . .
41(4) . . .
32.2(29) . . .
27.8(28) . . .
32.4(29) . . .
27.4(27) . . .
28.6(28) . . .
34.8(32) . . .
49(4) . . .
33.7(32) . . .
25.2(27) . . .
33.1(32) . . .
39.3(33) . . .
34.8(31) . . .
34.2(31) . . .
32.4(30) . . .
33.4(31) . . .
23.8(25) . . .
38.3(32) . . .
34.4(34) . . .
25.7(28) . . .
22.5(26) . . .
28.0(27) . . .
33.4(32) . . .
31.7(31) . . .
30.5(30) . . .
29.8(29) . . .
29.3(28) . . .
24.5(26) . . .
30.9(29) . . .
33.5(31) . . .
27.1(27) . . .
30.4(29) . . .
31.5(29) . . .
33.3(33) . . .
24.2(27) . . .
25.5(27) . . .
28.0(27) . . .
28.2(28) . . .
26.1(28) . . .
22.0(28) . . .
28.2(28) . . .
28.0(27) . . .
33.5(30) . . .
31.1(29) . . .
28.5(29) . . .
32.8(33) . . .
36.0(31) . . .
26.8(28) . . .
28.2(29) . . .
37.5(34) . . .
31.1(29) . . .
30.8(28) . . .
25.7(27) . . .
34.3(31) . . .
34.9(32) . . .
27.7(27) . . .
33.3(30) . . .
24.6(27) . . .
35.2(35) . . .
32.1(31) . . .
31.0(30) . . .
34.3(31) . . .
34.0(31) . . .
33.6(33) . . .
32.3(32) . . .
34.8(35) . . .
32.9(29) . . .
23.3(25) . . .
35.8(33) . . .
28.0(29) . . .
26.6(27) . . .
31.5(29) . . .
28.6(28) . . .
35.6(33) . . .
22.8(26) . . .
33.7(31) . . .
29.0(29) . . .
32.3(30) . . .
29.6(30) . . .
26.6(28) . . .
20.3(24) . . .
30.3(28) . . .
28.0(30) . . .
35(4) . . .
29.0(29) . . .
22.3(24) . . .
27.0(27) . . .
27.0(28) . . .
25.4(27) . . .
33.0(31) . . .
23.1(25) . . .
30.2(29) . . .
35.9(33) . . .
34.9(32) . . .
32.8(31) . . .
36.7(31) . . .
30.0(29) . . .
31.0(31) . . .
20.3(26) . . .
30.0(30) . . .
29.3(28) . . .
31.6(30) . . .
32.1(30) . . .
36.7(32) . . .
28.0(28) . . .
25.1(26) . . .
25.8(26) . . .
33.1(33) . . .
28.0(28) . . .
28.9(29) . . .
38.7(32) . . .
37.0(32) . . .
33.9(31) . . .
33.2(29) . . .
29.3(28) . . .
27.7(27) . . .
31.6(29) . . .
38.8(33) . . .
36.7(32) . . .
33.4(31) . . .
29.8(28) . . .
28.5(28) . . .
29.9(28) . . .
28.7(28) . . .
34.1(30) . . .
27.0(27) . . .
28.7(29) . . .
34.0(34) . . .
24.1(27) . . .
29.4(28) . . .
26.5(27) . . .
28.1(28) . . .
33.8(32) . . .
30.4(29) . . .
30.9(30) . . .
26.8(27) . . .
31.0(29) . . .
34.4(31) . . .
32.9(30) . . .
26.0(27) . . .
21.3(26) . . .
26.6(29) . . .
34.5(35) . . .
27.1(29) . . .
30.1(29) . . .
25.4(27) . . .
29.5(32) . . .
28.7(28) . . .
29.2(28) . . .
26.5(27) . . .
29.7(28) . . .
31.0(29) . . .
37.5(33) . . .
38.1(32) . . .
35.5(31) . . .
27.3(27) . . .
36.9(34) . . .
28.3(28) . . .
28.8(28) . . .
24.5(26) . . .
34.5(32) . . .
33.2(32) . . .
26.2(28) . . .
31.1(29) . . .
25.7(26) . . .
31.9(30) . . .
29.6(29) . . .
31.0(30) . . .
22.1(24) . . .
23.1(25) . . .
30.3(30) . . .
31.0(32) . . .
31.2(30) . . .
32.1(30) . . .
35.8(31) . . .
30.8(30) . . .
35.0(33) . . .
32.2(30) . . .
27.5(28) . . .
28.1(27) . . .
31.0(29) . . .
40(4) . . .
30.1(28) . . .
36.3(31) . . .
37.5(32) . . .
31.1(30) . . .
31.0(31) . . .
28.0(27) . . .
35.4(32) . . .
23.3(26) . . .
30.0(30) . . .
34.3(34) . . .
28.8(28) . . .
28.5(28) . . .
26.0(26) . . .
30.4(34) . . .
28.8(29) . . .
36.8(33) . . .
32.5(30) . . .
33.9(30) . . .
32.1(31) . . .
37.5(34) . . .
29.8(28) . . .
31.5(30) . . .
34.6(32) . . .
33.4(31) . . .
30.1(31) . . .
30.5(30) . . .
27.5(29) . . .
30.5(30) . . .
28.6(29) . . .
27.3(28) . . .
27.5(27) . . .
27.6(28) . . .
32.0(31) . . .
25.0(29) . . .
26.3(29) . . .
27.9(29) . . .
30.8(29) . . .
33.7(33) . . .
26.8(28) . . .
32.1(30) . . .
28.1(27) . . .
26.9(27) . . .
33.5(33) . . .
33.0(33) . . .
31.1(33) . . .
27.8(28) . . .
35.6(31) . . .
35.2(32) . . .
30.1(29) . . .
40.8(35) . . .
30.2(28) . . .
22.5(25) . . .
31.1(31) . . .
27.4(29) . . .
35.6(34) . . .
36.6(32) . . .
34.5(31) . . .
27.9(28) . . .
31.5(33) . . .
26.4(27) . . .
23.3(26) . . .
24.1(26) . . .
27.4(29) . . .
28.9(32) . . .
31.9(30) . . .
32.6(30) . . .
24.1(26) . . .
31.7(33) . . .
33.0(33) . . .
25.7(27) . . .
36.9(32) . . .
27.0(28) . . .
23.1(26) . . .
27.1(30) . . .
27.1(28) . . .
25.5(26) . . .
27.0(30) . . .
33.5(34) . . .
33.2(33) . . .
32.1(33) . . .
17.0(22) . . .
32.0(31) . . .
29.1(31) . . .
26.4(28) . . .
31.1(30) . . .
37.9(32) . . .
34.4(31) . . .
46(4) . . .
33.8(32) . . .
21.8(24) . . .
29.5(28) . . .
24.4(26) . . .
32.6(31) . . .
37.6(32) . . .
31.8(29) . . .
26.9(28) . . .
28.8(30) . . .
28.6(29) . . .
29.3(30) . . .
29.1(29) . . .
32.4(30) . . .
34.3(31) . . .
32.6(30) . . .
29.6(28) . . .
32.9(30) . . .
26.8(27) . . .
33.0(33) . . .
28.4(28) . . .
27.5(27) . . .
27.4(30) . . .
27.6(27) . . .
43(4) . . .
21.1(25) . . .
29.6(31) . . .
34.5(31) . . .
31.2(31) . . .
37(4) . . .
20.8(25) . . .
30.9(30) . . .
26.3(26) . . .
34.8(31) . . .
32.0(32) . . .
28.4(31) . . .
32.9(31) . . .
29.1(28) . . .
28.5(27) . . .
33.1(31) . . .
32.8(32) . . .
33.9(31) . . .
34.6(31) . . .
29.6(30) . . .
32.4(31) . . .
26.9(27) . . .
31.6(29) . . .
27.1(28) . . .
28.0(29) . . .
31.4(32) . . .
34.1(31) . . .
33.3(32) . . .
31.7(30) . . .
25.6(27) . . .
27.0(32) . . .
24.2(28) . . .
28.4(30) . . .
33.3(30) . . .
22.6(25) . . .
33.4(34) . . .
23.9(27) . . .
23.6(26) . . .
27.0(27) . . .
21.1(23) . . .
25.6(28) . . .
39(4) . . .
33.5(31) . . .
29.1(28) . . .
23.1(25) . . .
39.3(35) . . .
32.4(30) . . .
31.0(29) . . .
19.7(23) . . .
27.2(29) . . .
29.8(30) . . .
26.2(27) . . .
34.8(31) . . .
29.7(28) . . .
26.8(28) . . .
31.8(31) . . .
29.7(28) . . .
23.6(25) . . .
25.4(26) . . .
36.5(35) . . .
26.3(27) . . .
24.2(30) . . .
25.9(27) . . .
31.1(29) . . .
31.3(30) . . .
35.4(33) . . .
31.8(30) . . .
35.0(31) . . .
30.9(30) . . .
29.9(29) . . .
32.9(30) . . .
35.2(35) . . .
28.8(28) . . .
30.7(29) . . .
24.3(27) . . .
31.4(31) . . .
31.7(32) . . .
28.2(28) . . .
29.5(28) . . .
25.9(29) . . .
29.2(31) . . .
31.5(32) . . .
38.0(32) . . .
28.1(28) . . .
33.4(32) . . .
36.5(33) . . .
31.9(29) . . .
28.4(28) . . .
30.3(31) . . .
29.5(31) . . .
28.3(30) . . .
28.3(30) . . .
29.8(29) . . .
30.3(29) . . .
27.7(30) . . .
29.8(28) . . .
34.8(32) . . .
34.5(31) . . .
30.1(29) . . .
37.0(35) . . .
33.8(32) . . .
28.2(28) . . .
31.4(30) . . .
31.7(29) . . .
30.6(32) . . .
32.3(31) . . .
34.3(31) . . .
30.8(29) . . .
21.3(24) . . .
24.2(26) . . .
28.3(28) . . .
39.6(33) . . .
31.1(32) . . .
30.0(30) . . .
27.3(29) . . .
30.0(29) . . .
31.1(29) . . .
30.3(29) . . .
31.2(31) . . .
31.5(31) . . .
27.5(28) . . .
39.5(33) . . .
32.4(29) . . .
29.6(28) . . .
32.2(31) . . .
32.5(32) . . .
26.4(26) . . .
19.7(25) . . .
29.1(30) . . .
25.9(26) . . .
28.7(28) . . .
30.8(30) . . .
35.2(32) . . .
31.7(31) . . .
26.5(26) . . .
34.1(31) . . .
38.4(33) . . .
26.3(28) . . .
19.3(24) . . .
23.1(25) . . .
30.2(29) . . .
27.0(27) . . .
35.5(32) . . .
23.8(26) . . .
29.2(30) . . .
30.0(29) . . .
24.5(25) . . .
25.3(28) . . .
37(4) . . .
20.8(24) . . .
27.2(27) . . .
24.2(26) . . .
33.5(31) . . .
29.5(28) . . .
35.8(32) . . .
26.0(26) . . .
27.2(27) . . .
34.0(31) . . .
35.0(32) . . .
27.9(27) . . .
32.2(29) . . .
36.9(31) . . .
33.2(31) . . .
29.5(29) . . .
25.0(27) . . .
35.0(31) . . .
31.8(30) . . .
30.3(30) . . .
31.7(31) . . .
28.2(28) . . .
26.9(27) . . .
30.8(29) . . .
30.8(29) . . .
32.0(30) . . .
29.7(29) . . .
29.6(28) . . .
30.3(32) . . .
31.3(31) . . .
24.1(27) . . .
24.2(26) . . .
32.4(30) . . .
29.1(31) . . .
28.3(29) . . .
33.0(30) . . .
34.2(31) . . .
28.0(27) . . .
30.6(30) . . .
31.0(30) . . .
35.8(33) . . .
28.0(28) . . .
31.7(29) . . .
33.4(30) . . .
35.6(34) . . .
28.2(30) . . .
20.2(23) . . .
26.8(27) . . .
32.3(32) . . .
32.9(32) . . .
34.7(32) . . .
24.8(26) . . .
25.7(26) . . .
28.6(29) . . .
30.8(32) . . .
28.2(33) . . .
25.7(27) . . .
32.0(29) . . .
35.3(32) . . .
29.1(29) . . .
26.5(27) . . .
32.9(30) . . .
36.7(32) . . .
31.3(29) . . .
31.2(31) . . .
22.1(25) . . .
25.5(26) . . .
24.4(26) . . .
26.4(28) . . .
29.1(30) . . .
28.3(29) . . .
26.2(27) . . .
34.2(31) . . .
32.6(33) . . .
27.7(29) . . .
32.1(31) . . .
23.2(25) . . .
31.6(29) . . .
32.1(30) . . .
25.6(27) . . .
29.9(31) . . .
34.1(31) . . .
29.1(29) . . .
38(4) . . .
32.8(31) . . .
28.4(27) . . .
28.5(28) . . .
31.3(30) . . .
27.4(30) . . .
24.7(27) . . .
23.7(28) . . .
32.4(30) . . .
30.6(31) . . .
32.6(34) . . .
26.5(27) . . .
25.3(26) . . .
31.9(30) . . .
32.3(31) . . .
22.5(27) . . .
28.9(30) . . .
34.6(31) . . .
24.4(26) . . .
21.1(26) . . .
29.0(32) . . .
28.7(29) . . .
31.6(30) . . .
34.7(31) . . .
34.9(33) . . .
30.2(30) . . .
33.7(31) . . .
29.0(28) . . .
29.4(29) . . .
31.4(30) . . .
32.4(31) . . .
27.0(29) . . .
35.1(31) . . .
33.0(29) . . .
31.0(29) . . .
39.2(34) . . .
29.1(28) . . .
30.6(29) . . .
25.0(28) . . .
32.1(33) . . .
29.8(30) . . .
23.1(25) . . .
31.5(29) . . .
32.6(30) . . .
23.4(25) . . .
23.4(25) . . .
28.8(28) . . .
34.6(31) . . .
26.9(28) . . .
30.1(30) . . .
30.9(31) . . .
28.1(28) . . .
32.0(29) . . .
34.9(31) . . .
30.1(31) . . .
23.9(27) . . .
29.8(29) . . .
29.9(29) . . .
35.3(32) . . .
30.8(32) . . .
27.7(28) . . .
34.6(32) . . .
30.3(28) . . .
29.4(28) . . .
28.2(29) . . .
37(4) . . .
25.6(28) . . .
32.5(30) . . .
34.5(32) . . .
28.6(30) . . .
29.6(30) . . .
36.7(32) . . .
30.7(30) . . .
25.1(27) . . .
25.9(29) . . .
22.7(25) . . .
22.5(25) . . .
33.3(31) . . .
33.2(30) . . .
39.0(34) . . .
30.5(28) . . .
31.5(30) . . .
41.6(34) . . .
28.9(31) . . .
34.3(34) . . .
28.5(28) . . .
30.7(29) . . .
30.8(31) . . .
35.5(32) . . .
35.3(33) . . .
30.0(29) . . .
35.2(31) . . .
31.1(29) . . .
35.4(33) . . .
32.4(32) . . .
29.5(28) . . .
25.9(27) . . .
32.7(31) . . .
32.6(32) . . .
31.5(30) . . .
32.8(31) . . .
27.1(27) . . .
24.8(27) . . .
29.0(31) . . .
26.8(29) . . .
36.7(33) . . .
30.0(29) . . .
28.7(29) . . .
32.9(31) . . .
34.1(32) . . .
32.8(30) . . .
31.9(29) . . .
41(4) . . .
32.6(30) . . .
31.4(29) . . .
43.6(35) . . .
32.9(29) . . .
20.5(25) . . .
32.6(33) . . .
29.3(28) . . .
33.0(30) . . .
27.1(27) . . .
26.0(27) . . .
27.1(28) . . .
41.7(34) . . .
30.1(29) . . .
20.0(23) . . .
26.2(30) . . .
27.9(29) . . .
30.3(30) . . .
27.1(26) . . .
28.6(30) . . .
24.3(28) . . .
24.8(27) . . .
33.2(32) . . .
30.9(29) . . .
30.3(31) . . .
32.7(33) . . .
22.6(25) . . .
32.0(33) . . .
28.2(28) . . .
25.9(28) . . .
26.6(27) . . .
31.8(30) . . .
26.8(29) . . .
27.1(28) . . .
28.7(29) . . .
30.2(30) . . .
34.8(32) . . .
34.2(31) . . .
28.3(28) . . .
25.0(26) . . .
32.3(30) . . .
30.5(31) . . .
23.3(25) . . .
32.6(30) . . .
28.4(29) . . .
25.5(29) . . .
22.7(25) . . .
39(4) . . .
28.4(28) . . .
25.6(30) . . .
26.9(30) . . .
26.1(27) . . .
33.1(31) . . .
32.2(29) . . .
29.9(29) . . .
25.9(28) . . .
31.1(30) . . .
22.8(24) . . .
29.5(29) . . .
33.5(31) . . .
27.2(30) . . .
26.8(30) . . .
36.7(31) . . .
27.3(28) . . .
22.7(25) . . .
29.9(29) . . .
22.5(26) . . .
26.2(27) . . .
29.4(29) . . .
26.9(28) . . .
31.7(31) . . .
43(4) . . .
36.5(32) . . .
34.5(31) . . .
32.5(31) . . .
24.8(27) . . .
29.4(30) . . .
39.7(33) . . .
34.1(30) . . .
31.2(31) . . .
27.6(30) . . .
26.8(28) . . .
27.9(28) . . .
31.5(31) . . .
24.5(27) . . .
30.0(30) . . .
25.6(27) . . .
39.4(33) . . .
33.8(31) . . .
34.3(32) . . .
27.4(29) . . .
27.9(28) . . .
26.6(27) . . .
36.5(32) . . .
26.2(28) . . .
29.9(30) . . .
29.3(29) . . .
30.4(28) . . .
32.0(31) . . .
37.9(34) . . .
23.2(24) . . .
32.3(30) . . .
31.1(29) . . .
33.4(33) . . .
31.8(32) . . .
32.1(30) . . .
37.9(32) . . .
30.9(30) . . .
28.2(28) . . .
39(4) . . .
37.5(32) . . .
33.8(30) . . .
29.5(29) . . .
31.1(31) . . .
26.3(28) . . .
28.4(29) . . .
31.4(28) . . .
27.5(28) . . .
25.6(27) . . .
27.4(29) . . .
28.1(28) . . .
29.6(28) . . .
40(4) . . .
29.6(30) . . .
23.7(26) . . .
35.8(35) . . .
25.9(27) . . .
25.8(28) . . .
30.4(31) . . .
31.2(29) . . .
31.0(29) . . .
26.1(26) . . .
33.8(31) . . .
32.0(31) . . .
31.9(30) . . .
35.9(32) . . .
29.5(29) . . .
22.9(27) . . .
30.7(30) . . .
36.2(32) . . .
27.7(27) . . .
31.3(29) . . .
32.1(30) . . .
26.0(30) . . .
22.9(27) . . .
26.4(27) . . .
22.1(24) . . .
29.3(29) . . .
28.0(28) . . .
31.3(31) . . .
29.7(28) . . .
29.0(28) . . .
35.6(32) . . .
35.5(32) . . .
38.0(33) . . .
29.4(28) . . .
33.3(30) . . .
22.6(24) . . .
29.7(29) . . .
29.5(29) . . .
19.3(23) . . .
27.2(28) . . .
27.7(27) . . .
23.4(26) . . .
21.4(25) . . .
26.4(27) . . .
26.2(27) . . .
35.1(33) . . .
28.6(29) . . .
29.7(29) . . .
24.4(26) . . .
26.4(27) . . .
31.3(30) . . .
26.9(27) . . .
28.9(29) . . .
26.4(27) . . .
31.2(30) . . .
35.6(32) . . .
30.7(31) . . .
28.7(29) . . .
32.6(30) . . .
21.5(24) . . .
26.4(29) . . .
29.9(31) . . .
29.4(28) . . .
35.8(31) . . .
25.9(27) . . .
35.2(34) . . .
29.6(30) . . .
29.5(29) . . .
22.9(26) . . .
31.6(32) . . .
27.7(30) . . .
30.2(29) . . .
28.2(30) . . .
25.8(26) . . .
24.6(27) . . .
25.6(26) . . .
32.6(30) . . .
25.2(26) . . .
29.3(28) . . .
33.6(30) . . .
32.6(31) . . .
25.5(27) . . .
33.5(31) . . .
30.8(28) . . .
34.8(32) . . .
31.5(33) . . .
25.4(28) . . .
30.5(29) . . .
26.7(27) . . .
27.8(30) . . .
30.6(34) . . .
32.8(32) . . .
33.2(30) . . .
28.0(28) . . .
28.9(29) . . .
35.8(33) . . .
32.8(31) . . .
26.8(27) . . .
24.7(26) . . .
26.0(27) . . .
31.1(31) . . .
30.8(30) . . .
24.3(26) . . .
25.9(28) . . .
28.8(30) . . .
31.3(32) . . .
32.8(32) . . .
30.0(30) . . .
27.8(27) . . .
33.6(33) . . .
32.8(33) . . .
23.0(27) . . .
24.7(27) . . .
33.3(31) . . .
25.1(26) . . .
29.9(30) . . .
26.0(27) . . .
25.2(26) . . .
25.6(27) . . .
28.6(29) . . .
29.6(31) . . .
22.4(25) . . .
25.7(26) . . .
25.0(26) . . .
37.1(34) . . .
30.3(30) . . .
29.9(29) . . .
30.1(28) . . .
28.3(28) . . .
30.3(31) . . .
34.5(33) . . .
36.3(33) . . .
28.9(28) . . .
36.7(32) . . .
25.1(26) . . .
29.0(30) . . .
33.4(30) . . .
28.4(28) . . .
29.4(29) . . .
29.8(30) . . .
28.7(29) . . .
29.9(28) . . .
38.1(32) . . .
41(4) . . .
33.2(32) . . .
32.0(30) . . .
27.7(28) . . .
34.8(30) . . .
35(4) . . .
26.9(29) . . .
31.2(30) . . .
29.6(28) . . .
29.5(29) . . .
25.4(27) . . .
26.5(28) . . .
24.2(29) . . .
31.3(29) . . .
25.9(26) . . .
32.3(32) . . .
27.6(29) . . .
24.4(27) . . .
28.3(28) . . .
30.9(30) . . .
26.7(30) . . .
22.5(25) . . .
36.3(31) . . .
29.5(29) . . .
24.9(26) . . .
25.0(25) . . .
31.0(29) . . .
33.7(30) . . .
24.4(26) . . .
21.8(28) . . .
34.0(33) . . .
28.4(28) . . .
30.1(29) . . .
30.2(29) . . .
32.9(32) . . .
29.1(30) . . .
26.6(28) . . .
30.0(28) . . .
33.9(31) . . .
26.4(27) . . .
31.4(29) . . .
27.1(26) . . .
26.3(27) . . .
28.0(27) . . .
29.9(30) . . .
28.5(30) . . .
26.8(27) . . .
24.7(26) . . .
28.7(28) . . .
28.8(29) . . .
28.4(31) . . .
30.3(30) . . .
27.1(27) . . .
31.0(30) . . .
30.5(30) . . .
26.5(28) . . .
30.5(30) . . .
32.7(30) . . .
25.7(27) . . .
28.2(29) . . .
32.5(30) . . .
36.4(33) . . .
35.8(31) . . .
30.3(29) . . .
29.8(31) . . .
30.0(31) . . .
34.0(32) . . .
23.3(25) . . .
29.6(30) . . .
29.3(30) . . .
25.2(28) . . .
38.8(35) . . .
34.4(31) . . .
31.2(30) . . .
28.2(28) . . .
31.5(30) . . .
32.1(31) . . .
33.9(31) . . .
25.5(28) . . .
27.3(29) . . .
25.5(27) . . .
37.0(32) . . .
36.7(32) . . .
37.2(32) . . .
24.4(26) . . .
25.4(28) . . .
18.9(22) . . .
30.5(29) . . .
32.8(32) . . .
33.0(33) . . .
25.3(27) . . .
32.0(30) . . .
25.6(26) . . .
25.7(28) . . .
25.2(29) . . .
37.4(34) . . .
37.0(32) . . .
26.5(27) . . .
27.6(27) . . .
29.1(30) . . .
25.8(26) . . .
33.1(30) . . .
26.3(27) . . .
34.8(32) . . .
34.0(33) . . .
27.2(28) . . .
25.4(26) . . .
40.3(33) . . .
32.8(30) . . .
25.5(27) . . .
24.3(27) . . .
30.3(29) . . .
32.3(31) . . .
28.2(29) . . .
26.1(28) . . .
32.4(32) . . .
30.0(29) . . .
25.8(27) . . .
29.2(29) . . .
24.5(25) . . .
30.5(29) . . .
34.0(30) . . .
39.0(34) . . .
32.5(30) . . .
37(4) . . .
29.8(29) . . .
27.4(28) . . .
29.7(30) . . .
24.7(26) . . .
24.8(25) . . .
23.0(26) . . .
21.0(24) . . .
29.1(29) . . .
27.8(31) . . .
25.7(28) . . .
25.6(26) . . .
30.9(30) . . .
31.1(29) . . .
27.9(29) . . .
31.4(30) . . .
31.3(29) . . .
36.8(32) . . .
24.4(26) . . .
38(4) . . .
27.1(28) . . .
30.5(29) . . .
31.6(29) . . .
21.3(24) . . .
32.3(31) . . .
38.3(32) . . .
34.5(30) . . .
29.4(28) . . .
30.1(29) . . .
28.9(30) . . .
35.1(33) . . .
21.8(24) . . .
24.5(26) . . .
24.0(27) . . .
26.4(29) . . .
30.6(29) . . .
32.1(30) . . .
29.0(29) . . .
29.5(30) . . .
32.3(31) . . .
33.3(31) . . .
29.1(28) . . .
35.9(32) . . .
32.1(30) . . .
29.9(28) . . .
27.1(27) . . .
25.1(26) . . .
24.5(26) . . .
29.7(30) . . .
27.6(28) . . .
25.9(27) . . .
28.2(28) . . .
23.4(27) . . .
21.7(25) . . .
26.5(27) . . .
35.6(33) . . .
32.5(29) . . .
28.9(30) . . .
27.9(29) . . .
24.2(25) . . .
26.0(27) . . .
26.2(27) . . .
34.5(33) . . .
34.5(34) . . .
25.1(26) . . .
20.2(24) . . .
29.0(28) . . .
30.2(31) . . .
25.2(28) . . .
27.9(30) . . .
28.1(27) . . .
33.6(30) . . .
27.0(29) . . .
29.6(32) . . .
30.7(31) . . .
30.3(30) . . .
32.0(30) . . .
29.9(31) . . .
31.4(32) . . .
24.3(27) . . .
25.5(26) . . .
27.3(27) . . .
27.9(28) . . .
21.9(27) . . .
23.5(27) . . .
27.6(27) . . .
23.8(25) . . .
27.4(29) . . .
28.6(29) . . .
28.3(29) . . .
32.1(30) . . .
30.8(30) . . .
21.2(25) . . .
31.5(31) . . .
36.4(32) . . .
24.4(25) . . .
27.9(29) . . .
31.0(31) . . .
25.2(28) . . .
28.1(29) . . .
34.8(31) . . .
31.0(29) . . .
31.0(30) . . .
21.2(24) . . .
28.4(28) . . .
27.0(28) . . .
30.5(32) . . .
36.1(34) . . .
28.3(29) . . .
19.3(23) . . .
27.4(28) . . .
35.5(33) . . .
25.2(28) . . .
30.0(32) . . .
26.1(27) . . .
33.4(31) . . .
36.8(33) . . .
22.1(26) . . .
28.5(28) . . .
31.8(29) . . .
32.6(30) . . .
30.0(29) . . .
21.4(25) . . .
19.3(22) . . .
25.6(27) . . .
25.8(26) . . .
26.4(27) . . .
28.7(28) . . .
30.0(29) . . .
31.8(29) . . .
29.6(28) . . .
20.7(23) . . .
24.6(26) . . .
37.3(33) . . .
29.6(28) . . .
25.1(27) . . .
33.0(32) . . .
25.5(29) . . .
26.0(29) . . .
24.6(26) . . .
28.4(28) . . .
22.8(24) . . .
26.5(27) . . .
29.5(29) . . .
28.4(28) . . .
22.6(25) . . .
40(4) . . .
28.4(29) . . .
29.4(30) . . .
26.4(28) . . .
31.9(29) . . .
31.1(30) . . .
25.5(27) . . .
31.2(30) . . .
29.6(29) . . .
39.7(35) . . .
30.5(29) . . .
28.5(28) . . .
27.6(27) . . .
25.6(27) . . .
25.7(27) . . .
34.2(32) . . .
31.9(30) . . .
27.6(27) . . .
26.8(27) . . .
29.4(31) . . .
27.3(28) . . .
34.2(32) . . .
28.8(28) . . .
27.2(28) . . .
29.2(30) . . .
25.7(29) . . .
26.6(31) . . .
19.7(23) . . .
24.7(26) . . .
46(4) . . .
35.9(32) . . .
35.0(32) . . .
34.3(30) . . .
32.9(30) . . .
28.0(28) . . .
36.4(33) . . .
42.8(35) . . .
29.6(28) . . .
28.7(29) . . .
33.7(32) . . .
24.8(25) . . .
24.6(27) . . .
31.6(31) . . .
27.0(27) . . .
30.8(31) . . .
28.8(31) . . .
26.6(29) . . .
21.5(24) . . .
24.9(27) . . .
27.9(29) . . .
25.5(27) . . .
20.1(23) . . .
30.3(29) . . .
31.0(29) . . .
34.7(33) . . .
24.2(25) . . .
27.9(27) . . .
30.9(29) . . .
29.4(29) . . .
33.8(33) . . .
33.5(32) . . .
40.1(34) . . .
32.0(30) . . .
27.5(29) . . .
29.1(32) . . .
31.4(29) . . .
27.9(27) . . .
29.0(29) . . .
28.1(28) . . .
35.1(32) . . .
33.7(31) . . .
23.9(25) . . .
26.7(26) . . .
23.8(29) . . .
27.4(32) . . .
22.0(24) . . .
27.5(27) . . .
29.6(28) . . .
33.7(32) . . .
37(4) . . .
33.1(31) . . .
37.0(32) . . .
34.0(30) . . .
27.0(29) . . .
24.5(26) . . .
30.6(29) . . .
33.0(30) . . .
22.6(25) . . .
24.0(26) . . .
26.6(30) . . .
35.8(33) . . .
34.6(31) . . .
28.7(27) . . .
28.3(30) . . .
20.3(24) . . .
23.3(25) . . .
36.7(31) . . .
29.6(28) . . .
29.4(30) . . .
29.7(30) . . .
27.5(30) . . .
31.0(30) . . .
18.4(23) . . .
27.3(30) . . .
25.5(27) . . .
38.8(33) . . .
32.1(29) . . .
28.0(31) . . .
28.3(31) . . .
28.1(33) . . .
31.6(29) . . .
31.5(29) . . .
24.2(27) . . .
30.7(31) . . .
28.3(27) . . .
28.4(27) . . .
27.1(27) . . .
23.7(26) . . .
26.2(29) . . .
20.8(24) . . .
26.0(27) . . .
32.3(29) . . .
30.3(29) . . .
31.0(30) . . .
24.5(26) . . .
32.9(30) . . .
24.9(26) . . .
30.9(32) . . .
28.4(32) . . .
25.0(26) . . .
27.7(27) . . .
31.6(29) . . .
29.4(28) . . .
28.7(28) . . .
31.8(29) . . .
31.7(29) . . .
36.2(32) . . .
31.3(30) . . .
35.2(33) . . .
26.5(27) . . .
23.6(25) . . .
26.7(27) . . .
29.5(30) . . .
31.8(31) . . .
36.1(32) . . .
42.1(34) . . .
27.8(28) . . .
26.4(27) . . .
30.9(29) . . .
34.9(32) . . .
26.1(27) . . .
28.7(28) . . .
26.4(26) . . .
32.2(31) . . .
33.9(32) . . .
30.8(29) . . .
34.1(33) . . .
34.5(31) . . .
29.5(29) . . .
24.4(26) . . .
24.3(26) . . .
32.9(32) . . .
24.7(25) . . .
29.1(29) . . .
29.2(30) . . .
35.2(31) . . .
31.8(29) . . .
32.6(32) . . .
27.3(27) . . .
37.7(32) . . .
37.7(32) . . .
27.6(30) . . .
22.6(27) . . .
18.9(23) . . .
30.5(29) . . .
30.5(29) . . .
39.8(33) . . .
36.5(33) . . .
32.8(31) . . .
23.1(25) . . .
28.4(28) . . .
27.0(29) . . .
25.1(29) . . .
27.9(30) . . .
29.8(29) . . .
25.8(27) . . .
29.5(29) . . .
26.1(28) . . .
24.9(27) . . .
26.9(27) . . .
31.7(30) . . .
25.5(27) . . .
29.8(30) . . .
26.4(28) . . .
36.9(32) . . .
36.0(33) . . .
26.8(28) . . .
31.6(30) . . .
30.3(30) . . .
33.5(30) . . .
26.0(27) . . .
34.0(32) . . .
24.5(26) . . .
22.8(24) . . .
23.1(25) . . .
25.1(27) . . .
33.4(32) . . .
34.2(31) . . .
34.8(32) . . .
32.1(30) . . .
29.2(29) . . .
24.6(27) . . .
29.9(30) . . .
26.1(28) . . .
23.7(25) . . .
31.8(30) . . .
33.3(32) . . .
33.7(31) . . .
31.9(29) . . .
23.0(25) . . .
29.3(30) . . .
29.3(30) . . .
26.4(27) . . .
30.9(29) . . .
28.1(27) . . .
27.7(29) . . .
23.8(26) . . .
31.8(32) . . .
27.2(27) . . .
37.4(33) . . .
29.9(31) . . .
27.1(30) . . .
28.5(30) . . .
28.0(27) . . .
39.4(33) . . .
29.7(31) . . .
31.0(29) . . .
32.2(31) . . .
26.9(28) . . .
29.7(28) . . .
30.2(30) . . .
37.3(33) . . .
34.9(32) . . .
29.2(28) . . .
30.3(29) . . .
30.2(31) . . .
23.8(27) . . .
28.7(28) . . .
32.9(30) . . .
23.6(27) . . .
29.8(31) . . .
28.0(28) . . .
23.0(25) . . .
26.9(27) . . .
24.7(27) . . .
30.2(30) . . .
22.2(24) . . .
31.4(30) . . .
29.3(28) . . .
36.8(33) . . .
30.5(31) . . .
27.8(29) . . .
30.0(28) . . .
33.6(31) . . .
25.6(26) . . .
30.1(30) . . .
32.6(31) . . .
28.1(28) . . .
29.9(29) . . .
27.2(27) . . .
33.0(31) . . .
27.4(28) . . .
33.6(31) . . .
33.2(29) . . .
36.5(33) . . .
31.9(33) . . .
26.1(30) . . .
32.6(30) . . .
32.0(30) . . .
30.8(28) . . .
35.8(33) . . .
35.0(32) . . .
32.9(30) . . .
32.9(30) . . .
32.2(29) . . .
33.1(33) . . .
28.8(30) . . .
29.4(28) . . .
29.9(30) . . .
33.1(30) . . .
32.8(30) . . .
35.3(32) . . .
20.6(25) . . .
25.9(28) . . .
26.7(29) . . .
31.0(29) . . .
31.5(31) . . .
22.6(24) . . .
30.9(29) . . .
22.7(26) . . .
20.8(24) . . .
30.8(32) . . .
30.6(29) . . .
23.1(24) . . .
21.8(26) . . .
24.6(27) . . .
28.4(29) . . .
21.8(24) . . .
32.9(32) . . .
27.7(29) . . .
25.6(27) . . .
34.0(32) . . .
28.5(28) . . .
35.3(32) . . .
27.1(28) . . .
28.7(29) . . .
27.7(29) . . .
35.5(31) . . .
35.1(31) . . .
38.0(32) . . .
28.8(28) . . .
28.8(29) . . .
30.3(29) . . .
28.3(28) . . .
31.9(32) . . .
35.5(32) . . .
43.2(34) . . .
27.0(28) . . .
27.7(28) . . .
24.8(29) . . .
30.3(29) . . .
35.8(32) . . .
34.5(31) . . .
31.6(31) . . .
28.1(30) . . .
25.4(27) . . .
34.2(31) . . .
31.1(30) . . .
33.4(30) . . .
31.4(29) . . .
30.9(29) . . .
31.8(29) . . .
28.3(29) . . .
29.6(30) . . .
21.0(25) . . .
24.3(27) . . .
25.0(26) . . .
25.6(27) . . .
35.2(32) . . .
36.5(33) . . .
34.0(30) . . .
29.7(29) . . .
29.7(30) . . .
30.9(30) . . .
25.5(26) . . .
30.5(30) . . .
22.8(25) . . .
29.0(30) . . .
29.3(30) . . .
33.1(30) . . .
30.0(28) . . .
31.7(30) . . .
32.7(31) . . .
29.9(30) . . .
25.1(26) . . .
26.0(27) . . .
24.2(26) . . .
30.3(30) . . .
37.9(34) . . .
30.2(29) . . .
31.9(29) . . .
32.2(30) . . .
28.4(28) . . .
29.3(30) . . .
32.3(30) . . .
35.9(31) . . .
30.5(29) . . .
25.9(27) . . .
24.4(29) . . .
24.5(26) . . .
24.5(25) . . .
31.4(29) . . .
29.3(30) . . .
26.3(30) . . .
22.4(25) . . .
30.7(28) . . .
29.6(28) . . .
27.8(27) . . .
27.7(28) . . .
27.7(29) . . .
29.7(28) . . .
29.5(30) . . .
29.5(30) . . .
26.1(28) . . .
32.3(30) . . .
33.9(30) . . .
23.4(26) . . .
29.1(29) . . .
26.0(28) . . .
27.9(28) . . .
31.7(30) . . .
24.9(25) . . .
28.6(28) . . .
28.4(29) . . .
27.9(28) . . .
26.9(27) . . .
30.3(29) . . .
22.1(24) . . .
34.1(33) . . .
24.4(26) . . .
29.5(28) . . .
30.9(31) . . .
29.8(28) . . .
31.4(30) . . .
30.3(29) . . .
33.4(30) . . .
20.0(24) . . .
24.8(29) . . .
27.0(27) . . .
25.6(26) . . .
26.5(27) . . .
25.2(28) . . .
27.2(28) . . .
37.3(33) . . .
33.3(31) . . .
27.3(27) . . .
29.1(29) . . .
30.7(33) . . .
24.6(26) . . .
31.6(29) . . .
32.6(31) . . .
26.6(27) . . .
31.7(32) . . .
31.2(30) . . .
31.7(30) . . .
37.2(32) . . .
32.7(31) . . .
23.8(27) . . .
23.9(26) . . .
31.4(29) . . .
29.7(29) . . .
20.4(23) . . .
31.3(31) . . .
32.3(31) . . .
26.3(28) . . .
27.9(27) . . .
26.4(26) . . .
27.9(28) . . .
30.3(30) . . .
31.2(29) . . .
33.0(30) . . .
30.2(31) . . .
30.2(31) . . .
31.1(30) . . .
24.4(26) . . .
43(4) . . .
27.1(29) . . .
28.1(29) . . .
27.0(28) . . .
24.7(27) . . .
24.7(27) . . .
24.1(28) . . .
19.2(25) . . .
24.9(26) . . .
27.4(27) . . .
27.0(27) . . .
35.8(34) . . .
36.7(33) . . .
23.7(25) . . .
37.7(32) . . .
25.9(26) . . .
28.6(30) . . .
26.1(28) . . .
29.3(30) . . .
27.7(27) . . .
25.2(27) . . .
29.1(30) . . .
30.3(29) . . .
30.7(29) . . .
20.7(25) . . .
22.2(25) . . .
27.5(30) . . .
29.0(29) . . .
25.5(26) . . .
24.6(27) . . .
30.6(30) . . .
34.9(34) . . .
30.0(30) . . .
27.8(28) . . .
22.8(29) . . .
27.2(30) . . .
26.7(29) . . .
25.4(29) . . .
25.3(26) . . .
26.0(26) . . .
23.4(25) . . .
25.9(29) . . .
24.5(26) . . .
32.2(29) . . .
34.1(31) . . .
34.0(32) . . .
22.9(25) . . .
32.9(30) . . .
38.5(33) . . .
32.9(30) . . .
23.3(25) . . .
32.8(32) . . .
28.5(28) . . .
37.5(32) . . .
25.1(26) . . .
29.2(28) . . .
29.0(28) . . .
32.1(30) . . .
29.6(28) . . .
29.7(31) . . .
28.8(29) . . .
24.3(26) . . .
27.6(27) . . .
23.8(25) . . .
30.4(30) . . .
38(4) . . .
24.4(27) . . .
20.3(23) . . .
24.3(26) . . .
22.4(26) . . .
33.2(34) . . .
20.0(24) . . .
31.9(30) . . .
30.8(29) . . .
25.5(28) . . .
29.5(31) . . .
26.6(29) . . .
32.7(29) . . .
32.6(31) . . .
28.0(29) . . .
33.6(34) . . .
31.8(31) . . .
36.5(31) . . .
37.7(33) . . .
34.5(31) . . .
29.0(31) . . .
24.2(26) . . .
34.6(31) . . .
32.5(30) . . .
34.9(32) . . .
33.8(32) . . .
24.4(26) . . .
34.5(30) . . .
36.0(32) . . .
28.8(30) . . .
21.0(26) . . .
25.8(28) . . .
25.7(27) . . .
29.8(29) . . .
31.8(30) . . .
32.8(30) . . .
30.3(30) . . .
32.3(31) . . .
26.3(28) . . .
28.5(30) . . .
40(4) . . .
33.4(30) . . .
21.6(24) . . .
30.3(30) . . .
25.0(26) . . .
31.4(31) . . .
30.4(29) . . .
30.0(28) . . .
29.8(28) . . .
24.4(28) . . .
35.9(33) . . .
32.4(31) . . .
29.0(28) . . .
23.5(26) . . .
44(4) . . .
28.7(29) . . .
31.8(29) . . .
31.6(30) . . .
26.9(28) . . .
25.4(28) . . .
34.8(32) . . .
37.5(32) . . .
34.8(31) . . .
30.5(29) . . .
28.4(30) . . .
27.0(28) . . .
26.5(27) . . .
28.5(29) . . .
29.2(31) . . .
21.6(25) . . .
31.3(31) . . .
35.7(31) . . .
28.6(29) . . .
31.0(30) . . .
26.4(27) . . .
26.2(30) . . .
31.0(29) . . .
26.3(28) . . .
28.3(30) . . .
33.5(34) . . .
23.5(26) . . .
15.9(21) . . .
23.8(26) . . .
19.7(23) . . .
31.7(31) . . .
32.6(30) . . .
23.8(26) . . .
31.5(29) . . .
28.0(29) . . .
27.5(29) . . .
30.6(29) . . .
29.7(29) . . .
23.4(26) . . .
34.4(34) . . .
27.8(29) . . .
29.6(30) . . .
26.6(27) . . .
33.7(30) . . .
33.5(32) . . .
31.0(30) . . .
29.7(28) . . .
33.0(30) . . .
35.7(32) . . .
26.8(30) . . .
31.7(32) . . .
28.4(27) . . .
28.3(28) . . .
27.3(27) . . .
29.9(29) . . .
35.2(31) . . .
30.1(28) . . .
32.2(29) . . .
29.5(29) . . .
31.2(32) . . .
27.1(28) . . .
25.5(26) . . .
23.4(25) . . .
31.2(30) . . .
29.0(29) . . .
36.7(34) . . .
32.5(30) . . .
25.4(26) . . .
35.3(34) . . .
30.5(30) . . .
30.1(29) . . .
29.1(29) . . .
24.5(26) . . .
31.8(33) . . .
28.2(30) . . .
24.7(27) . . .
25.3(26) . . .
26.5(27) . . .
27.5(28) . . .
26.2(29) . . .
37.4(33) . . .
36.0(31) . . .
37.3(33) . . .
27.1(29) . . .
30.0(29) . . .
35.1(32) . . .
31.6(29) . . .
27.5(30) . . .
33.9(32) . . .
32.9(33) . . .
35.2(32) . . .
27.3(27) . . .
31.2(30) . . .
28.7(30) . . .
28.7(30) . . .
32.1(29) . . .
38.8(32) . . .
30.5(30) . . .
24.9(28) . . .
27.0(29) . . .
27.0(27) . . .
28.9(28) . . .
29.9(30) . . .
28.2(29) . . .
24.1(25) . . .
33.8(30) . . .
26.9(29) . . .
35.7(32) . . .
35.8(34) . . .
25.5(27) . . .
24.9(26) . . .
28.6(29) . . .
30.2(29) . . .
31.8(32) . . .
24.5(26) . . .
30.3(28) . . .
25.8(30) . . .
27.9(29) . . .
38.2(35) . . .
33.1(30) . . .
27.5(28) . . .
24.9(26) . . .
27.8(28) . . .
30.4(29) . . .
28.0(28) . . .
31.6(29) . . .
32.8(31) . . .
31.0(30) . . .
26.1(28) . . .
24.6(28) . . .
31.8(30) . . .
23.3(25) . . .
25.9(28) . . .
24.5(27) . . .
25.9(27) . . .
31.8(29) . . .
30.2(31) . . .
34.0(30) . . .
26.1(26) . . .
29.1(29) . . .
30.5(29) . . .
24.1(27) . . .
33.9(32) . . .
28.5(30) . . .
37.3(33) . . .
30.9(29) . . .
22.0(25) . . .
23.9(26) . . .
31.3(30) . . .
31.2(30) . . .
33.2(30) . . .
28.3(27) . . .
38(4) . . .
26.9(27) . . .
27.3(27) . . .
19.9(23) . . .
26.6(29) . . .
25.2(28) . . .
35.8(33) . . .
20.0(23) . . .
27.5(27) . . .
28.4(30) . . .
23.8(27) . . .
28.7(29) . . .
29.3(29) . . .
31.1(29) . . .
23.6(25) . . .
30.0(31) . . .
33.2(33) . . .
26.0(27) . . .
26.5(27) . . .
24.9(27) . . .
32.7(32) . . .
30.3(30) . . .
27.3(27) . . .
28.0(27) . . .
29.4(29) . . .
31.1(31) . . .
24.9(26) . . .
29.3(28) . . .
24.4(26) . . .
23.2(25) . . .
25.1(27) . . .
28.9(28) . . .
30.9(29) . . .
36.0(31) . . .
34.4(32) . . .
28.9(29) . . .
32.6(30) . . .
30.9(29) . . .
26.1(28) . . .
27.7(30) . . .
29.8(29) . . .
32.6(31) . . .
24.0(25) . . .
34.8(31) . . .
31.1(30) . . .
28.3(28) . . .
27.0(27) . . .
29.8(29) . . .
30.8(30) . . .
32.9(33) . . .
35.4(33) . . .
34.1(30) . . .
33.0(30) . . .
30.6(29) . . .
30.3(31) . . .
28.9(31) . . .
29.6(28) . . .
25.5(26) . . .
21.8(23) . . .
26.5(28) . . .
29.4(28) . . .
31.5(29) . . .
25.4(27) . . .
22.7(24) . . .
29.6(29) . . .
22.7(25) . . .
27.5(28) . . .
30.0(29) . . .
26.2(29) . . .
27.9(28) . . .
24.0(26) . . .
31.0(29) . . .
34.5(33) . . .
25.4(32) . . .
28.1(29) . . .
31.2(31) . . .
32.8(30) . . .
29.0(28) . . .
27.1(29) . . .
33.9(32) . . .
32.1(31) . . .
29.7(28) . . .
26.5(27) . . .
32.3(32) . . .
27.1(28) . . .
37.8(32) . . .
40.1(33) . . .
24.1(27) . . .
29.1(30) . . .
25.9(27) . . .
24.8(25) . . .
29.9(29) . . .
32.8(31) . . .
37(4) . . .
26.2(28) . . .
27.1(27) . . .
25.0(26) . . .
33.9(32) . . .
38(4) . . .
25.3(27) . . .
27.3(28) . . .
29.3(28) . . .
32.3(31) . . .
30.0(31) . . .
35.9(34) . . .
33.0(31) . . .
27.6(27) . . .
38.3(34) . . .
29.6(29) . . .
26.1(30) . . .
33.0(29) . . .
32.7(31) . . .
31.3(30) . . .
29.7(28) . . .
35.9(31) . . .
28.4(28) . . .
36.7(32) . . .
20.9(24) . . .
32.8(31) . . .
25.5(27) . . .
26.4(28) . . .
27.2(28) . . .
22.0(25) . . .
31.4(32) . . .
31.7(32) . . .
31.7(29) . . .
23.9(26) . . .
23.0(26) . . .
26.0(26) . . .
25.8(27) . . .
25.2(26) . . .
32.5(31) . . .
36.0(31) . . .
28.0(27) . . .
27.7(27) . . .
29.2(28) . . .
27.6(28) . . .
27.5(27) . . .
23.7(26) . . .
24.8(28) . . .
25.7(27) . . .
25.1(26) . . .
32.1(33) . . .
21.5(28) . . .
26.5(28) . . .
25.4(26) . . .
23.4(28) . . .
25.7(30) . . .
32.8(33) . . .
28.7(28) . . .
25.9(26) . . .
24.9(26) . . .
23.3(27) . . .
22.7(26) . . .
29.5(29) . . .
33.1(30) . . .
33.0(31) . . .
29.6(31) . . .
21.6(25) . . .
25.1(26) . . .
31.6(30) . . .
22.7(26) . . .
20.7(23) . . .
31.1(28) . . .
33.1(30) . . .
25.3(28) . . .
26.6(29) . . .
25.0(28) . . .
33.5(31) . . .
27.9(28) . . .
27.3(27) . . .
29.1(30) . . .
28.1(28) . . .
33.5(32) . . .
32.8(30) . . .
24.9(27) . . .
21.9(26) . . .
30.1(30) . . .
31.2(30) . . .
24.2(26) . . .
27.9(30) . . .
26.5(29) . . .
30.3(30) . . .
28.1(28) . . .
32.8(30) . . .
31.7(31) . . .
30.9(30) . . .
27.0(27) . . .
19.1(23) . . .
28.1(28) . . .
23.5(28) . . .
25.1(26) . . .
28.5(30) . . .
27.6(27) . . .
35.2(31) . . .
31.1(30) . . .
23.8(26) . . .
28.6(30) . . .
33.6(30) . . .
24.9(26) . . .
30.0(28) . . .
35.9(35) . . .
34.1(34) . . .
29.0(28) . . .
27.5(27) . . .
26.7(27) . . .
21.8(24) . . .
24.5(27) . . .
24.9(25) . . .
31.1(29) . . .
32.1(30) . . .
22.8(25) . . .
25.4(28) . . .
21.6(24) . . .
32.9(30) . . .
29.2(28) . . .
27.3(29) . . .
34.3(32) . . .
25.6(26) . . .
26.9(27) . . .
30.5(30) . . .
33.0(30) . . .
32.4(30) . . .
34.5(30) . . .
29.1(28) . . .
30.4(29) . . .
29.9(29) . . .
38.4(32) . . .
35.9(32) . . .
32.7(32) . . .
33.9(31) . . .
30.9(30) . . .
26.7(27) . . .
35.6(32) . . .
32.3(31) . . .
27.6(30) . . .
29.7(29) . . .
31.0(29) . . .
39.5(33) . . .
24.0(25) . . .
35.1(34) . . .
30.1(31) . . .
30.2(30) . . .
41.4(33) . . .
37.7(34) . . .
24.5(26) . . .
35.0(32) . . .
37.3(32) . . .
27.9(28) . . .
31.6(32) . . .
26.2(28) . . .
26.6(27) . . .
27.1(27) . . .
27.1(27) . . .
31.0(30) . . .
25.9(27) . . .
30.6(31) . . .
31.5(29) . . .
27.8(27) . . .
27.9(28) . . .
23.3(25) . . .
31.9(30) . . .
23.9(25) . . .
28.0(29) . . .
21.8(25) . . .
28.5(32) . . .
26.0(30) . . .
28.8(28) . . .
35.6(32) . . .
31.8(30) . . .
32.8(32) . . .
40.7(35) . . .
32.2(30) . . .
24.0(25) . . .
28.2(28) . . .
31.8(32) . . .
29.6(30) . . .
27.0(27) . . .
26.8(28) . . .
27.0(29) . . .
27.3(29) . . .
33.7(31) . . .
25.0(26) . . .
26.8(27) . . .
25.2(29) . . .
22.3(27) . . .
19.8(23) . . .
28.9(28) . . .
34.9(32) . . .
30.1(32) . . .
25.1(27) . . .
21.9(24) . . .
26.3(27) . . .
23.5(27) . . .
27.3(29) . . .
32.1(33) . . .
24.2(27) . . .
24.8(26) . . .
29.8(29) . . .
29.9(32) . . .
26.2(28) . . .
27.2(30) . . .
33.9(30) . . .
35.5(33) . . .
26.5(27) . . .
33.1(30) . . .
32.9(31) . . .
35.6(31) . . .
29.9(29) . . .
33.5(33) . . .
31.0(30) . . .
31.7(30) . . .
30.9(29) . . .
26.3(27) . . .
26.1(29) . . .
29.8(29) . . .
32.3(30) . . .
16.4(21) . . .
28.8(30) . . .
31.1(31) . . .
19.7(24) . . .
29.6(29) . . .
33.6(30) . . .
26.8(27) . . .
27.5(29) . . .
36.1(33) . . .
22.1(26) . . .
32.1(31) . . .
33.5(33) . . .
27.1(27) . . .
28.7(28) . . .
25.5(26) . . .
32.5(32) . . .
35.9(35) . . .
30.4(28) . . .
29.0(28) . . .
34.2(31) . . .
25.8(28) . . .
24.5(28) . . .
29.6(31) . . .
29.8(30) . . .
28.5(28) . . .
33.5(32) . . .
24.1(25) . . .
30.2(29) . . .
24.9(26) . . .
33.0(31) . . .
29.2(30) . . .
24.8(29) . . .
22.5(26) . . .
23.5(25) . . .
27.3(28) . . .
25.5(27) . . .
25.6(31) . . .
28.3(29) . . .
31.1(29) . . .
26.1(26) . . .
28.0(27) . . .
20.4(24) . . .
27.8(29) . . .
32.7(30) . . .
29.4(28) . . .
34.1(34) . . .
29.6(30) . . .
25.9(27) . . .
22.2(25) . . .
31.6(29) . . .
29.7(29) . . .
31.1(29) . . .
32.2(30) . . .
24.3(27) . . .
46(4) . . .
31.3(31) . . .
23.0(27) . . .
25.6(28) . . .
27.9(28) . . .
25.4(28) . . .
28.8(30) . . .
27.9(29) . . .
33.5(31) . . .
32.7(30) . . .
27.9(28) . . .
40(4) . . .
28.1(28) . . .
24.4(26) . . .
26.3(27) . . .
25.6(28) . . .
28.4(29) . . .
36.6(32) . . .
38.2(33) . . .
28.9(28) . . .
35.3(31) . . .
22.3(24) . . .
30.7(33) . . .
30.4(30) . . .
36.7(32) . . .
29.7(29) . . .
21.6(25) . . .
20.8(24) . . .
35.1(32) . . .
37.1(33) . . .
27.2(30) . . .
31.7(33) . . .
23.9(26) . . .
30.9(30) . . .
31.2(31) . . .
26.5(27) . . .
27.2(28) . . .
29.3(29) . . .
24.3(26) . . .
23.2(26) . . .
34.0(32) . . .
33.3(31) . . .
33.8(30) . . .
27.0(28) . . .
30.0(28) . . .
28.6(30) . . .
22.3(25) . . .
33.2(31) . . .
24.3(26) . . .
30.0(29) . . .
22.7(24) . . .
24.3(27) . . .
25.9(28) . . .
22.3(25) . . .
31.3(33) . . .
38.9(35) . . .
38.0(34) . . .
23.1(25) . . .
28.6(28) . . .
37.7(32) . . .
31.6(30) . . .
26.0(28) . . .
25.6(29) . . .
29.5(29) . . .
26.4(27) . . .
29.6(32) . . .
29.5(28) . . .
28.6(28) . . .
29.6(29) . . .
27.5(28) . . .
29.8(30) . . .
29.7(28) . . .
30.7(29) . . .
29.9(30) . . .
25.3(26) . . .
23.4(27) . . .
30.1(31) . . .
32.3(29) . . .
26.3(27) . . .
24.7(26) . . .
20.9(26) . . .
28.5(30) . . .
24.5(26) . . .
29.3(28) . . .
29.1(31) . . .
29.9(31) . . .
30.8(29) . . .
25.8(27) . . .
23.5(25) . . .
31.4(32) . . .
33(4) . . .
26.0(27) . . .
28.5(28) . . .
18.3(22) . . .
30.9(32) . . .
27.2(29) . . .
24.9(27) . . .
27.6(27) . . .
26.5(27) . . .
20.8(26) . . .
28.2(30) . . .
31.9(31) . . .
29.9(28) . . .
25.3(26) . . .
29.8(32) . . .
27.4(29) . . .
30.8(32) . . .
33.1(30) . . .
29.2(29) . . .
25.5(28) . . .
31.9(31) . . .
27.9(28) . . .
26.1(27) . . .
32.0(31) . . .
24.9(26) . . .
28.9(29) . . .
37.8(32) . . .
29.2(28) . . .
25.5(30) . . .
32.3(31) . . .
25.6(26) . . .
29.6(28) . . .
26.0(28) . . .
29.4(30) . . .
21.8(27) . . .
25.0(28) . . .
30.9(29) . . .
28.0(27) . . .
25.8(27) . . .
25.3(26) . . .
33.0(32) . . .
24.9(27) . . .
33.4(30) . . .
23.2(26) . . .
24.6(30) . . .
25.4(28) . . .
24.7(27) . . .
21.1(26) . . .
29.3(29) . . .
27.3(29) . . .
23.0(27) . . .
22.8(25) . . .
19.4(23) . . .
25.0(29) . . .
26.9(28) . . .
35.8(34) . . .
25.0(25) . . .
34.9(32) . . .
27.2(29) . . .
26.5(30) . . .
27.0(28) . . .
30.6(29) . . .
34.3(31) . . .
23.2(24) . . .
34.3(33) . . .
28.9(29) . . .
27.5(28) . . .
24.3(27) . . .
30.5(31) . . .
31.4(29) . . .
30.6(29) . . .
34.7(31) . . .
36.4(32) . . .
37.4(34) . . .
34.5(32) . . .
23.0(25) . . .
29.2(28) . . .
24.6(28) . . .
29.9(29) . . .
28.3(29) . . .
33.0(33) . . .
28.0(27) . . .
28.1(29) . . .
33.8(32) . . .
26.3(27) . . .
29.2(28) . . .
24.0(26) . . .
33.0(34) . . .
22.9(27) . . .
33.7(32) . . .
26.4(27) . . .
30.5(29) . . .
39.1(33) . . .
30.4(30) . . .
31.8(31) . . .
32.3(29) . . .
25.4(26) . . .
24.9(27) . . .
25.9(30) . . .
27.5(27) . . .
29.8(29) . . .
28.6(28) . . .
26.0(26) . . .
31.8(34) . . .
27.9(29) . . .
28.5(28) . . .
24.6(28) . . .
30.9(30) . . .
34.6(32) . . .
35.3(32) . . .
28.2(28) . . .
28.1(29) . . .
22.4(25) . . .
32.5(33) . . .
29.8(30) . . .
32.1(29) . . .
27.5(27) . . .
31.9(30) . . .
30.5(32) . . .
24.1(27) . . .
27.5(28) . . .
32.0(32) . . .
28.1(29) . . .
33.8(31) . . .
36.4(32) . . .
33.8(31) . . .
30.5(29) . . .
27.6(29) . . .
30.0(31) . . .
29.3(28) . . .
23.9(26) . . .
26.9(29) . . .
29.2(33) . . .
22.7(25) . . .
25.9(28) . . .
23.8(25) . . .
28.8(28) . . .
27.2(27) . . .
34.7(31) . . .
31.6(29) . . .
32.3(29) . . .
25.8(27) . . .
27.0(28) . . .
30.5(31) . . .
34.6(31) . . .
34.7(31) . . .
24.4(26) . . .
22.8(27) . . .
29.4(29) . . .
31.8(30) . . .
22.5(24) . . .
41(4) . . .
25.2(29) . . .
23.5(28) . . .
26.0(27) . . .
27.0(29) . . .
25.2(28) . . .
29.3(30) . . .
31.0(30) . . .
32.0(29) . . .
27.8(28) . . .
24.8(27) . . .
25.0(28) . . .
30.6(31) . . .
25.2(26) . . .
18.8(23) . . .
23.7(27) . . .
31.9(30) . . .
34.0(31) . . .
27.1(28) . . .
27.1(28) . . .
29.0(29) . . .
33.6(31) . . .
29.1(29) . . .
28.9(28) . . .
27.0(28) . . .
26.1(29) . . .
29.6(30) . . .
26.4(27) . . .
28.5(28) . . .
30.5(31) . . .
32.4(34) . . .
29.7(30) . . .
28.5(28) . . .
30.5(29) . . .
29.8(29) . . .
24.6(27) . . .
31.1(31) . . .
31.0(29) . . .
36.0(31) . . .
27.1(27) . . .
29.5(31) . . .
35.8(32) . . .
34.7(31) . . .
33.8(31) . . .
22.1(25) . . .
29.7(32) . . .
29.3(28) . . .
29.2(29) . . .
32.4(30) . . .
26.5(27) . . .
23.0(25) . . .
23.2(25) . . .
32.1(29) . . .
36.5(32) . . .
26.2(27) . . .
26.0(30) . . .
26.2(27) . . .
37.8(32) . . .
23.8(26) . . .
30.3(30) . . .
31.7(31) . . .
34.2(32) . . .
25.0(26) . . .
33.5(31) . . .
27.8(28) . . .
32.1(33) . . .
28.1(29) . . .
25.6(28) . . .
44(4) . . .
24.7(27) . . .
25.1(27) . . .
24.6(26) . . .
23.5(25) . . .
28.5(29) . . .
26.6(28) . . .
23.1(24) . . .
27.6(27) . . .
28.2(28) . . .
33.7(30) . . .
31.6(30) . . .
32.7(32) . . .
32.2(31) . . .
27.4(28) . . .
37.2(32) . . .
32.3(31) . . .
32.7(31) . . .
25.8(27) . . .
25.8(26) . . .
33.3(32) . . .
25.5(28) . . .
22.9(26) . . .
28.8(28) . . .
26.9(27) . . .
33.6(30) . . .
33.7(31) . . .
39.2(35) . . .
23.1(25) . . .
33.4(31) . . .
27.5(26) . . .
29.3(30) . . .
24.6(26) . . .
31.5(31) . . .
30.9(28) . . .
31.2(31) . . .
35.7(35) . . .
22.7(26) . . .
27.9(28) . . .
29.6(29) . . .
36.3(33) . . .
30.0(29) . . .
29.0(28) . . .
39.7(32) . . .
28.2(28) . . .
32.4(32) . . .
29.1(29) . . .
33.8(32) . . .
30.6(29) . . .
29.5(28) . . .
31.4(31) . . .
30.2(31) . . .
20.8(24) . . .
26.7(27) . . .
27.3(28) . . .
28.4(28) . . .
29.9(29) . . .
32.2(30) . . .
25.2(26) . . .
28.7(29) . . .
34.1(33) . . .
23.7(26) . . .
20.4(23) . . .
30.5(29) . . .
28.0(29) . . .
32.8(31) . . .
30.6(31) . . .
27.5(27) . . .
34.4(31) . . .
31.9(29) . . .
23.8(26) . . .
27.2(29) . . .
27.5(27) . . .
33.2(30) . . .
20.9(23) . . .
33.0(34) . . .
28.7(29) . . .
24.2(26) . . .
25.1(26) . . .
32.7(32) . . .
24.5(25) . . .
33.6(32) . . .
30.5(29) . . .
28.3(28) . . .
26.0(27) . . .
17.4(21) . . .
29.3(29) . . .
24.4(26) . . .
30.4(28) . . .
29.3(30) . . .
21.4(28) . . .
25.7(31) . . .
32.2(30) . . .
27.5(28) . . .
26.3(27) . . .
26.5(28) . . .
32.8(30) . . .
32.1(29) . . .
29.9(29) . . .
26.8(27) . . .
33.1(30) . . .
35.5(32) . . .
27.1(27) . . .
35.1(31) . . .
22.2(24) . . .
28.3(29) . . .
30.9(29) . . .
28.0(27) . . .
29.4(29) . . .
34.0(35) . . .
25.3(27) . . .
28.4(28) . . .
24.7(26) . . .
21.7(25) . . .
34.7(35) . . .
24.8(27) . . .
31.2(30) . . .
33.1(30) . . .
28.9(28) . . .
39(4) . . .
21.8(24) . . .
25.2(26) . . .
31.1(29) . . .
34.1(32) . . .
31.9(32) . . .
28.2(29) . . .
26.4(27) . . .
31.9(30) . . .
38.7(34) . . .
34.8(33) . . .
41.3(35) . . .
43.0(34) . . .
27.2(27) . . .
22.8(27) . . .
23.4(29) . . .
22.1(27) . . .
23.4(26) . . .
24.8(26) . . .
28.0(27) . . .
36.4(33) . . .
28.2(28) . . .
31.1(29) . . .
28.7(30) . . .
21.9(25) . . .
28.4(30) . . .
28.9(28) . . .
23.6(26) . . .
30.9(30) . . .
25.6(26) . . .
35.5(34) . . .
38.8(35) . . .
25.5(26) . . .
24.2(26) . . .
24.9(26) . . .
27.1(27) . . .
29.9(29) . . .
28.0(28) . . .
27.1(27) . . .
32.5(31) . . .
25.7(28) . . .
31.9(31) . . .
41.6(34) . . .
29.3(31) . . .
29.3(32) . . .
24.6(27) . . .
34.2(31) . . .
31.0(29) . . .
34.6(30) . . .
25.9(28) . . .
27.6(28) . . .
27.9(27) . . .
24.9(26) . . .
36.3(33) . . .
30.4(31) . . .
28.4(31) . . .
28.7(28) . . .
34.3(30) . . .
32.8(31) . . .
28.9(31) . . .
31.8(30) . . .
30.0(29) . . .
30.1(29) . . .
27.9(28) . . .
28.5(28) . . .
24.1(28) . . .
32.0(30) . . .
29.0(28) . . .
24.4(27) . . .
27.4(29) . . .
33.3(32) . . .
31.6(29) . . .
30.0(30) . . .
26.0(28) . . .
29.2(31) . . .
35.7(32) . . .
29.2(29) . . .
37.0(32) . . .
24.4(27) . . .
28.1(30) . . .
33.1(30) . . .
36.3(31) . . .
29.4(28) . . .
25.6(27) . . .
26.9(27) . . .
33.3(31) . . .
23.7(26) . . .
30.1(30) . . .
21.8(25) . . .
27.5(29) . . .
25.8(27) . . .
28.3(28) . . .
34.0(33) . . .
26.6(28) . . .
30.6(30) . . .
29.1(29) . . .
27.6(27) . . .
27.6(29) . . .
34.7(34) . . .
36.0(32) . . .
26.2(27) . . .
27.9(27) . . .
32.5(31) . . .
26.8(27) . . .
32.5(31) . . .
35.9(32) . . .
26.0(26) . . .
28.3(29) . . .
31.3(30) . . .
32.4(30) . . .
24.4(25) . . .
26.1(28) . . .
29.1(29) . . .
29.5(31) . . .
25.9(28) . . .
30.7(29) . . .
26.0(27) . . .
30.4(31) . . .
20.7(24) . . .
26.4(26) . . .
31.7(30) . . .
19.3(22) . . .
26.1(27) . . .
24.5(26) . . .
33.4(33) . . .
27.6(28) . . .
23.8(27) . . .
25.3(30) . . .
27.5(29) . . .
26.9(27) . . .
29.7(29) . . .
26.4(28) . . .
31.6(34) . . .
23.6(26) . . .
37.3(33) . . .
25.5(26) . . .
23.9(26) . . .
26.0(27) . . .
22.8(26) . . .
20.3(24) . . .
36.9(31) . . .
27.0(28) . . .
28.6(30) . . .
30.6(30) . . .
32.8(34) . . .
29.4(29) . . .
39(4) . . .
25.0(26) . . .
27.0(27) . . .
26.3(26) . . .
33.6(30) . . .
31.7(31) . . .
24.1(26) . . .
24.4(26) . . .
24.0(25) . . .
26.7(27) . . .
24.6(27) . . .
26.8(27) . . .
26.6(28) . . .
27.9(28) . . .
23.3(25) . . .
24.9(27) . . .
22.6(27) . . .
24.5(29) . . .
23.4(26) . . .
21.4(24) . . .
33.3(32) . . .
31.4(31) . . .
31.4(32) . . .
31.9(30) . . .
25.9(26) . . .
29.5(30) . . .
22.5(25) . . .
31.0(29) . . .
27.6(28) . . .
32.1(30) . . .
26.3(28) . . .
28.6(30) . . .
30.4(30) . . .
31.3(29) . . .
30.3(28) . . .
32.0(30) . . .
29.0(28) . . .
34.9(32) . . .
24.2(26) . . .
22.5(26) . . .
24.9(27) . . .
27.3(27) . . .
29.5(29) . . .
27.9(28) . . .
19.8(24) . . .
25.5(28) . . .
30.9(31) . . .
29.0(29) . . .
25.7(27) . . .
29.6(30) . . .
28.5(30) . . .
23.7(26) . . .
30.4(29) . . .
27.1(27) . . .
29.4(30) . . .
30.3(30) . . .
32.8(31) . . .
31.2(30) . . .
34.2(31) . . .
32.7(33) . . .
31.3(31) . . .
31.6(29) . . .
32.1(30) . . .
25.7(27) . . .
23.1(25) . . .
28.6(31) . . .
23.3(25) . . .
36.0(32) . . .
25.8(27) . . .
28.6(29) . . .
27.7(29) . . .
22.9(24) . . .
25.8(27) . . .
32.9(30) . . .
28.7(30) . . .
29.5(30) . . .
25.8(27) . . .
31.0(29) . . .
34.4(31) . . .
25.1(24) . . .
35.2(33) . . .
26.5(28) . . .
29.0(28) . . .
25.4(27) . . .
27.9(29) . . .
31.2(32) . . .
29.6(29) . . .
23.7(26) . . .
29.6(29) . . .
31.1(30) . . .
28.7(28) . . .
27.4(28) . . .
27.8(28) . . .
22.5(25) . . .
29.0(30) . . .
26.5(28) . . .
27.7(27) . . .
28.9(29) . . .
24.3(27) . . .
36(4) . . .
27.7(30) . . .
28.4(29) . . .
26.6(27) . . .
32.6(30) . . .
36.0(30) . . .
29.0(29) . . .
30.4(30) . . .
31.4(29) . . .
26.9(28) . . .
32.4(34) . . .
27.3(30) . . .
33.0(30) . . .
28.6(28) . . .
26.8(28) . . .
30.8(31) . . .
30.5(29) . . .
25.1(26) . . .
27.2(27) . . .
24.0(26) . . .
29.7(30) . . .
33.9(32) . . .
23.9(25) . . .
31.5(29) . . .
31.0(29) . . .
24.5(27) . . .
20.3(25) . . .
26.9(27) . . .
25.5(27) . . .
34.4(31) . . .
31.8(29) . . .
28.0(29) . . .
26.4(27) . . .
35.0(31) . . .
25.6(26) . . .
35.7(33) . . .
27.6(29) . . .
28.2(27) . . .
26.2(26) . . .
24.0(25) . . .
29.1(28) . . .
25.2(26) . . .
29.9(28) . . .
35.5(33) . . .
30.5(30) . . .
29.7(29) . . .
26.6(27) . . .
27.1(27) . . .
28.6(28) . . .
28.6(28) . . .
31.2(29) . . .
27.3(27) . . .
31.3(29) . . .
33.2(31) . . .
33.6(32) . . .
21.2(24) . . .
30.9(29) . . .
28.2(27) . . .
33.0(32) . . .
27.5(30) . . .
35.3(32) . . .
28.4(28) . . .
29.0(28) . . .
24.5(25) . . .
30.0(30) . . .
29.1(29) . . .
27.1(27) . . .
26.7(27) . . .
28.7(28) . . .
29.1(30) . . .
28.5(29) . . .
29.9(28) . . .
28.4(28) . . .
30.9(31) . . .
31.7(33) . . .
24.5(27) . . .
30.8(28) . . .
30.2(29) . . .
32.0(32) . . .
28.1(30) . . .
27.9(31) . . .
30.4(28) . . .
21.0(25) . . .
23.8(26) . . .
20.3(24) . . .
26.5(27) . . .
30.8(29) . . .
25.1(26) . . .
22.8(26) . . .
30.0(31) . . .
20.1(23) . . .
27.2(28) . . .
26.9(28) . . .
32.0(32) . . .
33.3(34) . . .
26.9(28) . . .
29.6(29) . . .
30.1(28) . . .
27.4(28) . . .
34.0(32) . . .
42(4) . . .
23.8(25) . . .
29.3(29) . . .
28.8(29) . . .
23.2(26) . . .
23.6(26) . . .
32.0(29) . . .
41(4) . . .
24.1(25) . . .
25.6(27) . . .
27.4(28) . . .
30.4(29) . . .
27.8(27) . . .
33.8(31) . . .
31.9(30) . . .
27.8(27) . . .
26.6(27) . . .
30.9(30) . . .
28.2(30) . . .
22.4(25) . . .
32.3(30) . . .
29.8(29) . . .
32.8(33) . . .
34.2(34) . . .
30.2(30) . . .
29.3(28) . . .
27.1(28) . . .
34.6(34) . . .
24.9(29) . . .
28.7(29) . . .
34.7(31) . . .
29.5(28) . . .
31.6(29) . . .
37(4) . . .
28.2(29) . . .
29.0(29) . . .
30.9(29) . . .
30.9(31) . . .
26.8(28) . . .
28.7(29) . . .
30.9(29) . . .
27.3(29) . . .
28.7(29) . . .
29.7(30) . . .
29.4(30) . . .
32.4(30) . . .
32.7(31) . . .
29.7(30) . . .
32.4(31) . . .
23.5(25) . . .
32.9(30) . . .
34.7(31) . . .
35.5(33) . . .
27.3(28) . . .
31.7(31) . . .
26.5(27) . . .
29.8(30) . . .
31.6(31) . . .
28.8(29) . . .
29.7(29) . . .
27.2(27) . . .
29.0(30) . . .
28.0(31) . . .
29.3(30) . . .
30.9(29) . . .
32.8(30) . . .
23.5(26) . . .
26.5(31) . . .
26.6(27) . . .
27.4(28) . . .
28.9(28) . . .
27.8(30) . . .
26.0(29) . . .
29.4(29) . . .
28.9(28) . . .
34.5(30) . . .
30.0(30) . . .
24.7(28) . . .
33.0(32) . . .
32.7(30) . . .
30.5(29) . . .
21.3(26) . . .
22.1(28) . . .
21.7(24) . . .
23.8(26) . . .
30.1(29) . . .
33.9(32) . . .
28.1(29) . . .
27.5(28) . . .
32.3(30) . . .
40.0(33) . . .
38(4) . . .
29.6(28) . . .
27.6(30) . . .
26.1(26) . . .
30.4(29) . . .
22.5(25) . . .
21.4(27) . . .
37.2(34) . . .
33.2(30) . . .
30.6(31) . . .
36.5(34) . . .
31.5(32) . . .
32.4(29) . . .
28.5(28) . . .
29.0(30) . . .
28.5(31) . . .
30.2(33) . . .
26.5(27) . . .
30.2(30) . . .
29.7(29) . . .
29.6(31) . . .
35.1(32) . . .
27.2(27) . . .
23.2(25) . . .
26.8(30) . . .
33.0(32) . . .
21.9(24) . . .
32.5(30) . . .
24.3(26) . . .
22.4(28) . . .
28.9(33) . . .
20.6(24) . . .
28.2(27) . . .
27.7(27) . . .
26.4(29) . . .
25.0(27) . . .
26.9(27) . . .
28.0(27) . . .
27.0(28) . . .
25.6(28) . . .
30.9(31) . . .
30.6(31) . . .
32.2(30) . . .
32.5(30) . . .
26.3(27) . . .
30.2(32) . . .
32.9(31) . . .
31.9(29) . . .
24.2(26) . . .
30.5(31) . . .
23.7(26) . . .
27.4(28) . . .
31.8(30) . . .
29.0(28) . . .
28.5(29) . . .
21.6(26) . . .
25.2(27) . . .
29.6(29) . . .
25.3(28) . . .
23.6(27) . . .
23.4(29) . . .
27.4(27) . . .
24.7(26) . . .
25.2(27) . . .
29.0(31) . . .
30.2(28) . . .
41.6(35) . . .
30.6(29) . . .
28.3(28) . . .
28.3(31) . . .
23.2(26) . . .
31.0(30) . . .
38.0(33) . . .
26.3(29) . . .
20.6(25) . . .
31.4(32) . . .
26.8(27) . . .
25.7(26) . . .
26.8(27) . . .
26.9(30) . . .
30.0(30) . . .
33.5(30) . . .
27.8(28) . . .
28.6(30) . . .
20.9(23) . . .
35.8(33) . . .
26.3(27) . . .
28.4(29) . . .
28.6(29) . . .
26.5(29) . . .
34.0(31) . . .
34.4(31) . . .
24.5(26) . . .
33.8(33) . . .
38(4) . . .
32.4(30) . . .
26.7(28) . . .
27.0(27) . . .
21.5(25) . . .
28.7(31) . . .
23.5(27) . . .
26.9(27) . . .
33.6(32) . . .
30.1(29) . . .
34.2(34) . . .
24.7(28) . . .
31.4(29) . . .
21.3(24) . . .
33.9(33) . . .
31.9(30) . . .
27.0(27) . . .
28.3(29) . . .
29.6(30) . . .
28.7(29) . . .
27.0(27) . . .
32.2(30) . . .
31.6(29) . . .
39.0(33) . . .
37.8(33) . . .
32.5(29) . . .
32.0(29) . . .
31.1(29) . . .
31.1(31) . . .
28.5(31) . . .
28.6(28) . . .
27.6(28) . . .
24.2(25) . . .
28.6(28) . . .
29.2(28) . . .
34.3(32) . . .
24.7(26) . . .
22.4(25) . . .
28.4(31) . . .
30.4(31) . . .
36.2(33) . . .
24.0(26) . . .
30.0(29) . . .
26.9(28) . . .
28.9(31) . . .
24.6(26) . . .
24.2(26) . . .
29.3(28) . . .
28.7(28) . . .
35.9(32) . . .
26.7(29) . . .
29.9(28) . . .
25.1(28) . . .
28.3(29) . . .
25.7(28) . . .
32.8(32) . . .
22.4(25) . . .
38.0(32) . . .
36.6(33) . . .
24.3(27) . . .
34.8(35) . . .
32.9(30) . . .
37.6(33) . . .
37.0(32) . . .
30.7(28) . . .
26.9(27) . . .
27.2(27) . . .
26.8(28) . . .
26.2(27) . . .
32.2(31) . . .
30.1(29) . . .
23.3(25) . . .
27.0(27) . . .
23.4(26) . . .
24.0(27) . . .
32.9(32) . . .
31.3(29) . . .
20.2(24) . . .
23.0(27) . . .
25.2(26) . . .
31.1(30) . . .
21.3(24) . . .
25.2(26) . . .
27.9(31) . . .
21.0(25) . . .
29.2(28) . . .
29.1(27) . . .
28.3(27) . . .
26.5(28) . . .
27.8(28) . . .
28.0(28) . . .
20.8(24) . . .
18.5(24) . . .
22.0(25) . . .
33.7(31) . . .
32.0(29) . . .
33.0(31) . . .
38.4(35) . . .
24.5(26) . . .
22.6(24) . . .
27.5(28) . . .
21.4(26) . . .
32.5(32) . . .
28.4(29) . . .
28.2(28) . . .
30.6(29) . . .
30.0(30) . . .
35.0(34) . . .
25.0(27) . . .
25.1(26) . . .
27.2(28) . . .
24.1(27) . . .
25.9(29) . . .
27.4(28) . . .
30.1(30) . . .
35.3(32) . . .
25.4(26) . . .
22.5(25) . . .
23.9(28) . . .
26.6(27) . . .
30.6(29) . . .
28.6(31) . . .
24.7(28) . . .
27.3(30) . . .
29.7(29) . . .
29.7(28) . . .
27.1(30) . . .
26.6(30) . . .
29.7(31) . . .
25.7(27) . . .
28.2(28) . . .
31.9(30) . . .
30.4(30) . . .
35.3(32) . . .
40.0(33) . . .
24.6(26) . . .
25.6(26) . . .
28.2(30) . . .
25.9(27) . . .
25.7(26) . . .
24.5(26) . . .
34.8(32) . . .
25.9(27) . . .
22.6(24) . . .
24.2(26) . . .
29.2(28) . . .
29.2(30) . . .
28.2(29) . . .
27.5(28) . . .
17.9(23) . . .
36.3(33) . . .
29.2(29) . . .
25.7(28) . . .
23.3(27) . . .
32.1(29) . . .
33.3(31) . . .
31.1(30) . . .
23.8(26) . . .
33.7(31) . . .
27.1(27) . . .
28.3(27) . . .
24.7(26) . . .
21.8(26) . . .
25.2(27) . . .
35.4(31) . . .
27.2(28) . . .
27.2(30) . . .
21.8(25) . . .
30.4(30) . . .
32.1(29) . . .
21.9(24) . . .
27.8(30) . . .
23.3(27) . . .
30.9(29) . . .
26.2(27) . . .
24.7(28) . . .
26.0(28) . . .
23.5(26) . . .
23.2(25) . . .
32.4(30) . . .
31.3(31) . . .
29.1(31) . . .
28.5(29) . . .
29.4(29) . . .
27.0(27) . . .
26.8(27) . . .
25.1(26) . . .
29.3(30) . . .
31.2(30) . . .
25.4(27) . . .
33.6(32) . . .
25.7(28) . . .
28.8(30) . . .
28.1(29) . . .
21.6(24) . . .
22.3(26) . . .
21.5(26) . . .
27.8(31) . . .
27.2(28) . . .
23.6(26) . . .
29.2(31) . . .
25.3(28) . . .
31.0(30) . . .
34.1(30) . . .
22.5(26) . . .
30.8(31) . . .
31.0(32) . . .
23.7(27) . . .
30.3(28) . . .
32.9(32) . . .
24.5(27) . . .
27.1(30) . . .
28.3(29) . . .
30.6(29) . . .
29.4(29) . . .
24.4(27) . . .
27.1(29) . . .
29.2(28) . . .
26.0(26) . . .
28.7(30) . . .
36.1(35) . . .
28.0(28) . . .
23.3(28) . . .
30.0(28) . . .
25.5(26) . . .
31.4(31) . . .
27.3(30) . . .
30.0(29) . . .
24.5(26) . . .
31.8(30) . . .
28.5(29) . . .
26.4(28) . . .
32.6(30) . . .
27.8(28) . . .
26.3(28) . . .
30.3(30) . . .
28.1(27) . . .
32.6(30) . . .
31.5(31) . . .
25.5(27) . . .
34.0(32) . . .
27.0(28) . . .
27.4(28) . . .
31.0(29) . . .
30.8(32) . . .
25.1(28) . . .
24.2(26) . . .
28.9(28) . . .
27.0(27) . . .
27.3(27) . . .
25.9(29) . . .
18.0(22) . . .
31.2(30) . . .
28.4(29) . . .
25.1(27) . . .
24.9(27) . . .
25.7(27) . . .
22.9(25) . . .
27.9(28) . . .
30.8(31) . . .
33.5(32) . . .
25.9(28) . . .
26.5(27) . . .
30.9(29) . . .
29.1(30) . . .
17.9(23) . . .
27.4(27) . . .
31.2(29) . . .
35.4(33) . . .
33.5(32) . . .
34(4) . . .
23.4(26) . . .
20.4(24) . . .
27.3(27) . . .
29.5(30) . . .
25.3(27) . . .
29.9(29) . . .
26.7(26) . . .
19.6(22) . . .
32.2(33) . . .
26.3(27) . . .
29.1(28) . . .
27.3(27) . . .
23.4(25) . . .
22.5(27) . . .
29.5(30) . . .
29.0(30) . . .
28.3(28) . . .
39.4(35) . . .
31.4(30) . . .
26.5(28) . . .
30.8(30) . . .
22.0(25) . . .
26.2(28) . . .
36.7(32) . . .
28.3(27) . . .
27.1(28) . . .
21.7(25) . . .
33.5(33) . . .
25.8(27) . . .
32.4(32) . . .
29.4(28) . . .
35.6(32) . . .
29.7(30) . . .
25.6(28) . . .
20.3(24) . . .
34.5(30) . . .
34.2(31) . . .
26.4(27) . . .
29.6(29) . . .
32.4(30) . . .
27.9(28) . . .
31.0(29) . . .
36.1(34) . . .
32.8(31) . . .
28.0(27) . . .
30.7(29) . . .
28.0(28) . . .
22.9(24) . . .
34.0(31) . . .
26.7(29) . . .
34.3(30) . . .
33.0(31) . . .
27.6(28) . . .
22.4(27) . . .
27.0(27) . . .
24.4(26) . . .
28.5(29) . . .
29.5(29) . . .
32.4(30) . . .
36.5(33) . . .
24.1(25) . . .
30.8(30) . . .
28.9(30) . . .
29.7(28) . . .
26.8(28) . . .
26.2(28) . . .
25.6(27) . . .
34.3(34) . . .
34(4) . . .
28.6(27) . . .
28.4(29) . . .
25.0(27) . . .
25.6(27) . . .
35.5(32) . . .
31.3(29) . . .
28.6(28) . . .
31.1(29) . . .
27.6(28) . . .
30.9(29) . . .
29.4(28) . . .
28.3(28) . . .
27.0(27) . . .
26.7(27) . . .
24.3(26) . . .
31.1(29) . . .
28.9(28) . . .
41.4(35) . . .
35.8(31) . . .
34.3(31) . . .
28.0(28) . . .
29.0(31) . . .
41(4) . . .
30.0(29) . . .
28.4(28) . . .
28.5(28) . . .
30.4(31) . . .
32.7(32) . . .
30.0(29) . . .
27.0(28) . . .
30.8(29) . . .
31.5(31) . . .
32.3(33) . . .
30.5(31) . . .
29.1(28) . . .
31.4(29) . . .
25.5(27) . . .
26.5(29) . . .
21.8(25) . . .
20.9(24) . . .
32.5(30) . . .
32.6(32) . . .
25.3(28) . . .
32.9(32) . . .
32.4(30) . . .
24.5(27) . . .
30.2(30) . . .
25.6(27) . . .
41.2(33) . . .
34.1(30) . . .
28.0(28) . . .
31.6(29) . . .
35.0(31) . . .
28.5(30) . . .
26.8(27) . . .
34.2(31) . . .
32.3(31) . . .
24.9(28) . . .
30.8(31) . . .
32.7(30) . . .
28.2(27) . . .
26.0(26) . . .
24.4(25) . . .
32.6(30) . . .
36.1(32) . . .
24.6(28) . . .
21.5(23) . . .
25.7(29) . . .
35.5(35) . . .
37.6(32) . . .
28.9(28) . . .
21.6(25) . . .
23.8(26) . . .
23.2(25) . . .
31.9(29) . . .
22.0(24) . . .
28.0(30) . . .
26.7(28) . . .
31.6(30) . . .
26.6(27) . . .
39.8(35) . . .
31.7(29) . . .
32.0(31) . . .
29.9(29) . . .
24.2(26) . . .
31.8(31) . . .
29.5(29) . . .
22.1(25) . . .
27.8(27) . . .
31.5(29) . . .
33.8(32) . . .
31.1(31) . . .
27.8(29) . . .
22.5(25) . . .
28.9(28) . . .
27.2(27) . . .
29.5(30) . . .
32.4(32) . . .
25.3(27) . . .
28.5(28) . . .
28.7(30) . . .
20.7(26) . . .
20.2(24) . . .
32.0(29) . . .
31.0(30) . . .
28.1(28) . . .
34.8(34) . . .
26.7(29) . . .
27.0(27) . . .
24.8(26) . . .
28.1(28) . . .
30.7(30) . . .
30.8(31) . . .
21.5(25) . . .
28.1(27) . . .
22.8(25) . . .
21.7(24) . . .
23.4(25) . . .
27.3(27) . . .
23.9(25) . . .
25.7(27) . . .
28.6(29) . . .
25.2(27) . . .
33.2(30) . . .
20.9(25) . . .
29.9(31) . . .
26.1(29) . . .
25.7(27) . . .
35.3(31) . . .
23.8(29) . . .
31.8(32) . . .
32.7(30) . . .
38.9(33) . . .
28.2(28) . . .
27.9(28) . . .
32.2(31) . . .
29.3(31) . . .
16.3(23) . . .
25.9(27) . . .
28.7(30) . . .
29.9(31) . . .
34.0(33) . . .
23.9(26) . . .
21.5(24) . . .
29.6(30) . . .
30.9(33) . . .
25.9(27) . . .
33.0(30) . . .
30.8(29) . . .
27.5(29) . . .
32.3(34) . . .
19.3(24) . . .
19.1(23) . . .
28.6(28) . . .
36.8(34) . . .
24.8(27) . . .
23.5(27) . . .
29.4(29) . . .
24.8(26) . . .
25.1(27) . . .
24.6(27) . . .
23.2(25) . . .
30.2(28) . . .
24.9(27) . . .
27.1(29) . . .
36(4) . . .
36.2(34) . . .
34.0(31) . . .
29.6(29) . . .
36.0(33) . . .
31.0(29) . . .
37.3(32) . . .
32.5(30) . . .
29.1(29) . . .
24.1(26) . . .
24.0(30) . . .
25.0(29) . . .
34.5(30) . . .
35.0(35) . . .
30.3(29) . . .
32.2(29) . . .
32.7(29) . . .
32.3(30) . . .
30.6(30) . . .
30.0(32) . . .
32.0(29) . . .
35.4(31) . . .
29.2(28) . . .
21.9(25) . . .
35.0(34) . . .
21.4(25) . . .
28.4(29) . . .
30.1(29) . . .
27.1(27) . . .
24.5(27) . . .
24.4(26) . . .
26.6(28) . . .
24.7(26) . . .
19.8(24) . . .
25.6(29) . . .
33.9(31) . . .
33.4(31) . . .
29.0(28) . . .
28.3(28) . . .
30.4(30) . . .
40(4) . . .
22.2(25) . . .
24.3(27) . . .
22.5(26) . . .
28.5(30) . . .
26.4(28) . . .
27.9(27) . . .
29.3(29) . . .
26.9(28) . . .
27.4(28) . . .
35.6(33) . . .
27.5(27) . . .
26.5(27) . . .
34.3(32) . . .
30.7(30) . . .
27.5(29) . . .
24.0(26) . . .
31.0(29) . . .
27.2(28) . . .
28.9(29) . . .
23.8(26) . . .
33.0(30) . . .
27.7(27) . . .
30.0(29) . . .
32.2(30) . . .
25.1(26) . . .
31.1(29) . . .
33.1(31) . . .
37.5(35) . . .
23.8(25) . . .
25.3(26) . . .
29.1(30) . . .
32.8(33) . . .
27.7(29) . . .
31.0(32) . . .
29.3(28) . . .
22.6(25) . . .
30.2(29) . . .
38(4) . . .
31.5(32) . . .
23.8(26) . . .
20.9(24) . . .
17.4(22) . . .
30.6(29) . . .
30.4(29) . . .
29.0(29) . . .
29.7(29) . . .
26.5(28) . . .
24.7(29) . . .
21.6(24) . . .
31.7(30) . . .
21.0(23) . . .
27.6(28) . . .
32.3(33) . . .
26.3(28) . . .
22.3(25) . . .
34.2(31) . . .
25.1(26) . . .
24.5(26) . . .
23.7(25) . . .
21.4(24) . . .
34.5(30) . . .
32.3(31) . . .
27.1(27) . . .
23.8(27) . . .
18.3(22) . . .
30.5(29) . . .
23.3(25) . . .
24.6(27) . . .
26.5(27) . . .
34.1(30) . . .
25.5(26) . . .
25.4(28) . . .
34.3(32) . . .
26.3(27) . . .
33.7(31) . . .
23.5(26) . . .
24.3(26) . . .
25.1(25) . . .
31.7(29) . . .
37.5(32) . . .
33.2(30) . . .
29.9(30) . . .
29.5(30) . . .
22.0(24) . . .
33.3(30) . . .
35.5(34) . . .
23.0(26) . . .
27.5(28) . . .
25.7(26) . . .
33.1(31) . . .
31.8(30) . . .
30.4(29) . . .
28.2(27) . . .
29.2(28) . . .
23.2(25) . . .
26.2(28) . . .
22.8(26) . . .
29.3(29) . . .
27.9(28) . . .
24.4(26) . . .
24.3(29) . . .
26.3(30) . . .
30.2(31) . . .
30.2(28) . . .
20.3(24) . . .
34.9(34) . . .
31.4(31) . . .
32.2(33) . . .
22.3(25) . . .
29.6(29) . . .
33.4(31) . . .
29.6(30) . . .
30.4(30) . . .
27.5(28) . . .
33.0(30) . . .
30.9(29) . . .
30.0(30) . . .
19.6(24) . . .
21.9(24) . . .
31.3(31) . . .
34.4(32) . . .
24.4(26) . . .
25.0(26) . . .
32.8(30) . . .
32.0(31) . . .
24.9(28) . . .
26.9(30) . . .
25.7(26) . . .
27.8(28) . . .
18.6(23) . . .
27.3(29) . . .
30.1(31) . . .
33.4(31) . . .
29.6(28) . . .
28.5(29) . . .
27.3(29) . . .
31.0(31) . . .
27.2(27) . . .
26.5(28) . . .
24.8(25) . . .
31.5(31) . . .
32.1(29) . . .
28.9(28) . . .
39.0(34) . . .
23.6(25) . . .
28.5(31) . . .
17.1(21) . . .
30.7(29) . . .
37.5(34) . . .
29.7(29) . . .
26.8(30) . . .
41(4) . . .
35.6(31) . . .
34.3(32) . . .
32.8(32) . . .
24.2(25) . . .
30.5(29) . . .
29.8(29) . . .
28.1(28) . . .
31.3(31) . . .
27.7(28) . . .
22.6(28) . . .
26.0(27) . . .
27.3(27) . . .
29.8(30) . . .
30.0(30) . . .
24.9(27) . . .
27.3(28) . . .
30.2(30) . . .
36.7(32) . . .
28.0(27) . . .
24.7(26) . . .
30.3(29) . . .
28.1(29) . . .
31.6(30) . . .
32.3(30) . . .
31.7(30) . . .
24.1(25) . . .
28.0(29) . . .
29.0(30) . . .
32.5(31) . . .
27.8(28) . . .
32.8(30) . . .
28.1(28) . . .
22.0(28) . . .
32.0(31) . . .
29.4(28) . . .
30.9(29) . . .
25.9(27) . . .
31.5(33) . . .
30.0(30) . . .
26.2(27) . . .
32.6(29) . . .
37.2(31) . . .
33.0(30) . . .
24.2(25) . . .
22.3(25) . . .
27.1(27) . . .
34.1(32) . . .
35.3(34) . . .
25.4(27) . . .
28.8(28) . . .
34.3(31) . . .
28.1(29) . . .
24.5(28) . . .
27.6(28) . . .
32.2(31) . . .
30.5(29) . . .
29.4(28) . . .
32.5(33) . . .
22.4(28) . . .
19.3(23) . . .
30.3(30) . . .
29.8(29) . . .
24.9(27) . . .
29.5(29) . . .
23.9(25) . . .
31.2(29) . . .
31.0(30) . . .
27.1(28) . . .
33.6(32) . . .
29.5(28) . . .
29.3(28) . . .
31.8(31) . . .
27.5(28) . . .
22.7(25) . . .
23.5(25) . . .
30.1(29) . . .
34.7(32) . . .
23.8(26) . . .
34.6(31) . . .
31.1(29) . . .
27.0(28) . . .
26.9(28) . . .
29.7(29) . . .
36.4(32) . . .
33.9(30) . . .
25.6(28) . . .
31.0(32) . . .
22.3(25) . . .
29.2(28) . . .
28.1(28) . . .
27.6(30) . . .
30.6(32) . . .
36.0(32) . . .
31.6(29) . . .
20.7(24) . . .
20.9(26) . . .
24.9(28) . . .
22.1(26) . . .
20.4(24) . . .
32.5(30) . . .
31.2(29) . . .
32.9(32) . . .
24.0(26) . . .
20.8(23) . . .
24.9(26) . . .
22.8(24) . . .
27.6(28) . . .
22.2(25) . . .
30.1(28) . . .
28.2(29) . . .
27.9(30) . . .
27.0(29) . . .
32.3(33) . . .
24.2(26) . . .
22.5(27) . . .
21.0(26) . . .
24.9(29) . . .
24.8(26) . . .
28.6(28) . . .
24.4(26) . . .
26.6(28) . . .
31.4(31) . . .
24.5(26) . . .
23.4(26) . . .
29.2(29) . . .
30.4(31) . . .
25.0(27) . . .
29.6(29) . . .
27.0(28) . . .
21.3(24) . . .
29.0(29) . . .
29.6(29) . . .
30.1(30) . . .
30.9(30) . . .
28.3(30) . . .
24.8(27) . . .
31.3(31) . . .
23.4(25) . . .
22.9(25) . . .
34.0(32) . . .
27.4(31) . . .
22.2(25) . . .
19.8(23) . . .
33.2(30) . . .
32.8(32) . . .
33.1(33) . . .
28.6(28) . . .
26.9(27) . . .
25.7(28) . . .
19.6(23) . . .
26.8(30) . . .
25.6(26) . . .
30.0(29) . . .
25.5(26) . . .
26.0(28) . . .
30.1(30) . . .
33.6(31) . . .
29.5(29) . . .
21.8(25) . . .
27.2(27) . . .
36.5(33) . . .
21.4(24) . . .
28.2(27) . . .
36.2(33) . . .
24.4(25) . . .
29.0(28) . . .
33.9(31) . . .
29.3(28) . . .
32.7(30) . . .
27.5(27) . . .
29.5(29) . . .
24.6(26) . . .
24.6(26) . . .
28.4(28) . . .
24.4(25) . . .
28.8(31) . . .
28.4(29) . . .
33.9(30) . . .
20.0(24) . . .
24.2(28) . . .
30.9(30) . . .
26.5(26) . . .
24.3(26) . . .
27.8(29) . . .
31.1(32) . . .
29.9(30) . . .
38.5(33) . . .
38.6(32) . . .
33.7(32) . . .
35.2(34) . . .
35.2(33) . . .
26.5(26) . . .
29.3(28) . . .
24.5(27) . . .
26.4(30) . . .
29.2(29) . . .
26.6(27) . . .
19.9(23) . . .
22.1(25) . . .
32.2(32) . . .
26.9(28) . . .
24.9(27) . . .
32.8(30) . . .
29.8(30) . . .
39(4) . . .
23.0(25) . . .
25.4(26) . . .
26.5(30) . . .
32.2(32) . . .
24.2(28) . . .
26.4(28) . . .
28.4(28) . . .
34.6(33) . . .
31.2(31) . . .
25.3(27) . . .
28.1(28) . . .
31.1(29) . . .
34.3(31) . . .
31.2(32) . . .
31.7(32) . . .
27.6(28) . . .
23.6(25) . . .
31.7(32) . . .
30.3(29) . . .
29.8(27) . . .
32.2(30) . . .
24.5(26) . . .
26.7(28) . . .
25.3(28) . . .
32.6(30) . . .
31.0(29) . . .
26.8(27) . . .
32.5(31) . . .
20.0(23) . . .
27.9(28) . . .
29.0(28) . . .
26.2(27) . . .
33.0(30) . . .
30.1(30) . . .
25.9(26) . . .
32.3(30) . . .
27.2(27) . . .
25.8(26) . . .
27.2(29) . . .
28.7(29) . . .
34.7(31) . . .
28.1(27) . . .
26.4(27) . . .
35.2(34) . . .
20.5(25) . . .
25.3(27) . . .
25.7(27) . . .
29.8(29) . . .
27.9(29) . . .
25.5(27) . . .
20.6(24) . . .
25.8(27) . . .
27.3(28) . . .
31.0(30) . . .
24.1(27) . . .
28.6(27) . . .
27.0(29) . . .
27.4(29) . . .
27.4(28) . . .
28.6(28) . . .
28.5(28) . . .
23.0(24) . . .
30.2(30) . . .
33.5(32) . . .
19.9(24) . . .
22.3(25) . . .
23.7(26) . . .
28.1(28) . . .
32.7(31) . . .
18.9(23) . . .
27.9(27) . . .
26.6(29) . . .
28.0(28) . . .
29.6(28) . . .
27.2(27) . . .
35.9(31) . . .
39.5(34) . . .
27.5(29) . . .
23.3(27) . . .
30.2(30) . . .
23.5(26) . . .
21.6(26) . . .
29.0(31) . . .
27.4(28) . . .
23.1(25) . . .
41.5(34) . . .
30.5(29) . . .
32.5(32) . . .
27.8(27) . . .
33.3(30) . . .
28.3(28) . . .
34.5(31) . . .
24.4(28) . . .
21.4(25) . . .
27.4(27) . . .
22.2(25) . . .
27.4(29) . . .
29.3(31) . . .
30.0(30) . . .
23.9(26) . . .
30.7(30) . . .
26.3(27) . . .
26.9(28) . . .
37.3(33) . . .
21.0(25) . . .
23.9(27) . . .
28.9(29) . . .
27.7(27) . . .
32.2(30) . . .
26.3(27) . . .
38.8(34) . . .
29.8(32) . . .
27.6(31) . . .
22.1(25) . . .
23.6(25) . . .
25.8(28) . . .
30.4(33) . . .
19.0(22) . . .
36.7(32) . . .
28.9(28) . . .
26.7(28) . . .
28.7(29) . . .
33.2(32) . . .
34.6(31) . . .
33.4(30) . . .
24.7(27) . . .
28.7(28) . . .
29.8(28) . . .
30.8(30) . . .
35.1(32) . . .
33.7(31) . . .
24.7(26) . . .
32.3(31) . . .
27.0(27) . . .
27.1(28) . . .
21.8(25) . . .
28.7(31) . . .
27.6(29) . . .
29.9(29) . . .
27.8(27) . . .
24.3(26) . . .
28.4(30) . . .
26.6(30) . . .
32.0(30) . . .
30.8(29) . . .
37.1(35) . . .
28.9(29) . . .
23.1(25) . . .
27.1(28) . . .
27.0(29) . . .
21.2(25) . . .
23.9(29) . . .
22.0(26) . . .
27.7(27) . . .
27.3(29) . . .
24.4(31) . . .
22.9(28) . . .
25.5(28) . . .
31.6(29) . . .
34.7(31) . . .
29.0(28) . . .
24.4(27) . . .
21.9(25) . . .
26.3(27) . . .
29.5(28) . . .
29.3(29) . . .
33.5(31) . . .
21.3(24) . . .
28.4(28) . . .
23.2(25) . . .
22.0(25) . . .
31.6(32) . . .
23.0(25) . . .
30.2(28) . . .
30.4(29) . . .
29.5(29) . . .
27.7(27) . . .
30.8(29) . . .
23.7(25) . . .
23.2(27) . . .
25.5(30) . . .
31.6(32) . . .
28.8(28) . . .
40.0(33) . . .
33.7(32) . . .
29.0(31) . . .
33.3(31) . . .
30.1(29) . . .
29.4(29) . . .
35.5(32) . . .
29.5(32) . . .
21.8(26) . . .
21.8(24) . . .
33.9(31) . . .
27.3(28) . . .
28.8(30) . . .
25.4(26) . . .
29.3(29) . . .
30.5(30) . . .
31.3(32) . . .
23.8(26) . . .
30.2(29) . . .
32.4(29) . . .
28.4(28) . . .
28.6(30) . . .
24.1(28) . . .
25.5(28) . . .
27.6(27) . . .
32.4(31) . . .
29.6(29) . . .
30.2(30) . . .
28.5(28) . . .
25.5(26) . . .
21.6(25) . . .
27.6(31) . . .
29.6(32) . . .
31.9(30) . . .
23.7(25) . . .
25.3(28) . . .
26.1(29) . . .
27.5(30) . . .
23.1(25) . . .
25.6(26) . . .
29.0(28) . . .
26.2(27) . . .
27.6(28) . . .
25.6(27) . . .
27.8(27) . . .
32.9(32) . . .
24.5(25) . . .
32.1(31) . . .
35.8(32) . . .
29.2(29) . . .
25.0(25) . . .
28.2(29) . . .
24.1(25) . . .
27.4(27) . . .
25.0(26) . . .
33.8(32) . . .
23.8(27) . . .
22.6(26) . . .
32.2(30) . . .
30.5(30) . . .
21.5(25) . . .
21.9(26) . . .
32.8(31) . . .
25.9(26) . . .
28.3(30) . . .
30.6(30) . . .
29.6(29) . . .
23.3(26) . . .
26.2(27) . . .
23.9(25) . . .
36.0(35) . . .
26.4(27) . . .
25.0(26) . . .
30.4(29) . . .
20.1(25) . . .
22.8(26) . . .
34.7(32) . . .
28.6(28) . . .
23.0(25) . . .
24.3(26) . . .
22.5(26) . . .
21.6(24) . . .
35.5(33) . . .
20.5(23) . . .
31.4(30) . . .
28.8(28) . . .
27.8(29) . . .
31.4(29) . . .
30.0(29) . . .
31.7(32) . . .
24.3(26) . . .
28.6(29) . . .
26.6(27) . . .
31.8(29) . . .
27.5(27) . . .
31.9(33) . . .
32.4(33) . . .
31.9(29) . . .
29.2(28) . . .
32.1(30) . . .
28.2(29) . . .
21.3(23) . . .
25.9(27) . . .
29.8(28) . . .
29.6(29) . . .
30.5(31) . . .
27.1(29) . . .
25.0(26) . . .
31.3(29) . . .
27.1(28) . . .
33.0(31) . . .
35.4(32) . . .
29.8(29) . . .
26.5(27) . . .
36.4(32) . . .
29.8(29) . . .
28.0(29) . . .
28.2(28) . . .
25.7(27) . . .
24.7(26) . . .
30.3(30) . . .
25.6(28) . . .
31.9(29) . . .
24.6(27) . . .
25.9(27) . . .
21.5(24) . . .
22.1(25) . . .
36.3(32) . . .
30.2(29) . . .
29.0(29) . . .
33(4) . . .
33.4(31) . . .
32.8(30) . . .
31.2(29) . . .
33.8(31) . . .
34.9(30) . . .
31.8(29) . . .
23.1(26) . . .
27.7(30) . . .
28.0(30) . . .
23.9(27) . . .
25.3(28) . . .
30.6(29) . . .
29.4(32) . . .
26.4(28) . . .
26.4(27) . . .
24.3(26) . . .
32.0(29) . . .
21.5(24) . . .
35.4(34) . . .
31.8(32) . . .
29.0(28) . . .
35.1(31) . . .
30.8(29) . . .
27.1(31) . . .
30.3(30) . . .
29.7(28) . . .
32.4(30) . . .
29.5(30) . . .
26.9(29) . . .
23.1(26) . . .
29.7(28) . . .
31.5(30) . . .
30.9(30) . . .
27.3(28) . . .
28.9(29) . . .
26.0(27) . . .
28.4(28) . . .
22.9(26) . . .
31.3(31) . . .
28.3(30) . . .
21.8(24) . . .
20.8(25) . . .
28.4(30) . . .
34.8(34) . . .
26.0(27) . . .
26.1(26) . . .
33.3(30) . . .
29.1(28) . . .
30.7(29) . . .
31.1(30) . . .
31.7(29) . . .
25.3(26) . . .
22.7(27) . . .
31.8(31) . . .
22.8(24) . . .
20.6(24) . . .
28.8(30) . . .
29.1(29) . . .
28.0(28) . . .
29.7(28) . . .
26.6(27) . . .
20.3(24) . . .
30.6(32) . . .
29.4(28) . . .
31.4(29) . . .
30.3(28) . . .
31.4(31) . . .
36.9(34) . . .
26.7(28) . . .
32.7(30) . . .
34.9(30) . . .
34.8(34) . . .
31.7(32) . . .
25.4(26) . . .
29.5(28) . . .
32.3(30) . . .
30.6(30) . . .
23.7(27) . . .
29.9(30) . . .
28.0(28) . . .
29.2(28) . . .
26.5(27) . . .
24.5(28) . . .
26.7(28) . . .
24.6(25) . . .
27.7(28) . . .
27.0(28) . . .
30.7(32) . . .
37.0(34) . . .
28.5(28) . . .
22.8(25) . . .
28.3(29) . . .
23.0(27) . . .
26.2(29) . . .
27.6(27) . . .
29.8(32) . . .
30.0(31) . . .
26.6(28) . . .
29.9(29) . . .
25.2(26) . . .
26.4(27) . . .
30.9(31) . . .
29.9(29) . . .
27.3(27) . . .
28.4(28) . . .
23.0(25) . . .
16.2(20) . . .
21.0(24) . . .
24.3(27) . . .
20.9(24) . . .
34.8(31) . . .
28.7(29) . . .
25.8(28) . . .
24.3(26) . . .
26.6(27) . . .
27.2(29) . . .
32.8(30) . . .
35.2(32) . . .
35.9(35) . . .
42.0(34) . . .
29.7(29) . . .
28.0(31) . . .
26.8(28) . . .
29.7(30) . . .
26.6(27) . . .
29.0(28) . . .
34.2(34) . . .
26.0(26) . . .
33.6(31) . . .
23.4(25) . . .
29.0(29) . . .
33.9(33) . . .
29.9(31) . . .
38.1(33) . . .
35.0(31) . . .
22.4(25) . . .
28.3(32) . . .
29.9(33) . . .
26.2(26) . . .
22.3(26) . . .
20.9(26) . . .
19.8(23) . . .
26.5(28) . . .
33.1(30) . . .
22.4(26) . . .
34.0(32) . . .
28.8(29) . . .
31.3(30) . . .
24.1(26) . . .
32.1(30) . . .
25.1(28) . . .
27.6(30) . . .
23.7(26) . . .
32.9(30) . . .
29.3(28) . . .
32.5(29) . . .
30.8(30) . . .
20.2(23) . . .
32.5(30) . . .
26.6(27) . . .
34.9(33) . . .
28.1(28) . . .
25.8(27) . . .
30.1(28) . . .
28.5(28) . . .
26.2(28) . . .
23.6(27) . . .
28.6(28) . . .
25.5(26) . . .
23.5(27) . . .
24.0(29) . . .
22.3(28) . . .
27.0(27) . . .
18.9(23) . . .
31.5(32) . . .
25.3(27) . . .
40(4) . . .
37.5(32) . . .
26.5(26) . . .
23.0(25) . . .
31.5(32) . . .
34.7(34) . . .
25.5(27) . . .
27.5(27) . . .
26.3(28) . . .
30.0(31) . . .
30.8(30) . . .
36.8(32) . . .
26.1(26) . . .
22.8(26) . . .
23.9(29) . . .
29.3(29) . . .
31.5(29) . . .
23.1(25) . . .
30.9(32) . . .
28.5(33) . . .
26.8(27) . . .
36.1(32) . . .
32.0(29) . . .
29.6(28) . . .
29.8(31) . . .
26.5(29) . . .
26.8(27) . . .
24.8(28) . . .
26.2(28) . . .
22.9(26) . . .
24.2(27) . . .
32.5(30) . . .
23.4(27) . . .
30.5(31) . . .
28.2(28) . . .
27.0(27) . . .
29.8(29) . . .
26.5(27) . . .
29.0(31) . . .
23.6(25) . . .
30.9(29) . . .
29.6(28) . . .
34.3(33) . . .
32.7(32) . . .
28.5(29) . . .
27.5(28) . . .
21.4(24) . . .
27.9(30) . . .
23.5(26) . . .
28.5(29) . . .
21.3(25) . . .
28.0(28) . . .
25.7(29) . . .
29.3(32) . . .
25.9(27) . . .
26.8(27) . . .
26.8(27) . . .
29.1(31) . . .
17.8(23) . . .
31.5(33) . . .
30.9(30) . . .
29.6(29) . . .
26.5(28) . . .
26.4(29) . . .
32.0(29) . . .
28.8(29) . . .
22.5(25) . . .
19.4(24) . . .
26.3(29) . . .
19.1(23) . . .
23.4(25) . . .
26.8(28) . . .
28.5(32) . . .
28.9(29) . . .
33.2(30) . . .
25.4(26) . . .
29.5(29) . . .
27.8(28) . . .
39.3(35) . . .
33.3(31) . . .
25.7(27) . . .
17.3(22) . . .
29.4(33) . . .
22.7(27) . . .
24.3(27) . . .
30.2(29) . . .
24.1(25) . . .
37.0(34) . . .
25.8(28) . . .
32.0(31) . . .
25.6(27) . . .
34.9(32) . . .
30.1(32) . . .
29.2(29) . . .
34.0(31) . . .
27.3(27) . . .
25.3(27) . . .
29.8(31) . . .
25.1(26) . . .
31.4(29) . . .
35.0(31) . . .
31.5(29) . . .
33.7(33) . . .
35.3(32) . . .
26.8(28) . . .
28.5(29) . . .
29.8(29) . . .
33.3(34) . . .
18.7(22) . . .
26.8(27) . . .
28.6(28) . . .
25.4(26) . . .
28.4(31) . . .
26.5(29) . . .
29.9(29) . . .
24.3(25) . . .
20.5(23) . . .
27.8(30) . . .
25.7(27) . . .
26.3(26) . . .
28.0(28) . . .
27.4(29) . . .
29.8(28) . . .
34.7(31) . . .
22.1(25) . . .
23.6(27) . . .
26.1(29) . . .
26.8(29) . . .
24.6(26) . . .
26.1(26) . . .
26.6(27) . . .
27.3(28) . . .
34.5(32) . . .
33.9(30) . . .
22.6(25) . . .
36.6(34) . . .
29.3(30) . . .
36(4) . . .
24.1(27) . . .
32.5(29) . . .
27.5(27) . . .
31.2(31) . . .
26.9(29) . . .
26.4(27) . . .
20.9(24) . . .
28.2(29) . . .
31.3(31) . . .
30.3(29) . . .
22.1(24) . . .
22.6(25) . . .
22.9(25) . . .
32.5(34) . . .
27.3(29) . . .
29.5(28) . . .
23.2(25) . . .
30.8(29) . . .
28.8(30) . . .
27.5(27) . . .
34.0(30) . . .
32.3(30) . . .
27.2(28) . . .
34.4(34) . . .
28.7(29) . . .
23.3(26) . . .
22.4(24) . . .
27.0(28) . . .
36.3(34) . . .
26.4(27) . . .
29.5(28) . . .
31.5(30) . . .
24.7(26) . . .
30.4(31) . . .
32.8(31) . . .
24.3(26) . . .
29.9(30) . . .
21.0(24) . . .
20.6(25) . . .
32.7(31) . . .
26.0(26) . . .
25.0(27) . . .
28.8(30) . . .
30.4(32) . . .
22.6(25) . . .
28.3(28) . . .
29.2(30) . . .
26.4(29) . . .
32.8(33) . . .
31.2(30) . . .
23.9(26) . . .
27.5(30) . . .
24.9(27) . . .
20.5(25) . . .
22.0(25) . . .
28.6(28) . . .
24.9(27) . . .
20.5(26) . . .
27.4(29) . . .
30.3(29) . . .
26.9(27) . . .
28.8(28) . . .
33.9(34) . . .
29.9(28) . . .
30.2(30) . . .
26.4(27) . . .
31.9(31) . . .
30.9(31) . . .
25.5(27) . . .
32.3(30) . . .
36.4(31) . . .
28.2(27) . . .
32.2(31) . . .
29.9(31) . . .
19.3(24) . . .
26.3(26) . . .
28.9(30) . . .
24.4(28) . . .
24.8(27) . . .
24.3(26) . . .
18.0(22) . . .
26.8(29) . . .
32.3(32) . . .
25.3(26) . . .
28.7(28) . . .
26.3(27) . . .
30.0(29) . . .
30.5(31) . . .
28.6(28) . . .
27.7(27) . . .
27.5(27) . . .
29.3(29) . . .
28.7(29) . . .
27.7(27) . . .
33.5(30) . . .
30.7(30) . . .
24.5(28) . . .
27.6(29) . . .
22.5(25) . . .
27.8(27) . . .
23.4(25) . . .
23.7(27) . . .
28.7(29) . . .
28.7(28) . . .
33.5(30) . . .
38.9(33) . . .
26.3(27) . . .
25.5(27) . . .
25.6(26) . . .
28.0(28) . . .
25.8(27) . . .
26.5(29) . . .
27.6(29) . . .
27.0(27) . . .
28.8(28) . . .
34.9(31) . . .
35.3(34) . . .
25.1(27) . . .
23.9(26) . . .
30.7(29) . . .
26.5(27) . . .
29.8(31) . . .
28.5(29) . . .
26.4(27) . . .
20.3(23) . . .
26.4(30) . . .
28.8(29) . . .
33.1(31) . . .
21.7(25) . . .
32.1(30) . . .
26.7(29) . . .
36.8(35) . . .
27.5(28) . . .
30.1(29) . . .
25.4(27) . . .
37.3(34) . . .
23.4(24) . . .
25.5(27) . . .
28.6(28) . . .
23.3(28) . . .
31.8(32) . . .
31.1(32) . . .
30.4(31) . . .
23.5(25) . . .
26.6(30) . . .
34.2(32) . . .
29.8(30) . . .
22.8(24) . . .
27.0(27) . . .
24.0(27) . . .
28.8(29) . . .
29.1(29) . . .
20.5(25) . . .
26.8(27) . . .
25.1(26) . . .
31.3(31) . . .
29.7(29) . . .
28.4(30) . . .
31.6(30) . . .
22.6(26) . . .
23.2(28) . . .
16.6(21) . . .
25.2(26) . . .
39.4(33) . . .
29.0(28) . . .
26.6(28) . . .
20.5(23) . . .
31.7(29) . . .
32.4(30) . . .
25.7(29) . . .
21.0(24) . . .
31.1(29) . . .
19.5(23) . . .
25.2(26) . . .
30.7(30) . . .
21.6(24) . . .
32.2(30) . . .
31.9(29) . . .
27.3(29) . . .
34.8(32) . . .
24.8(26) . . .
27.7(28) . . .
24.8(26) . . .
20.1(24) . . .
34.1(32) . . .
35(4) . . .
19.8(23) . . .
27.0(27) . . .
27.9(28) . . .
33.2(31) . . .
23.3(26) . . .
29.5(31) . . .
26.1(27) . . .
33.3(32) . . .
28.6(30) . . .
34.2(32) . . .
29.8(28) . . .
31.4(30) . . .
37.8(34) . . .
29.1(32) . . .
24.1(25) . . .
29.3(29) . . .
29.3(28) . . .
29.9(33) . . .
19.1(24) . . .
28.5(29) . . .
25.9(27) . . .
26.9(27) . . .
26.1(28) . . .
21.6(25) . . .
20.4(25) . . .
35.7(31) . . .
25.6(27) . . .
36.4(33) . . .
34.9(32) . . .
30.1(29) . . .
24.8(27) . . .
26.9(27) . . .
24.8(27) . . .
35.5(33) . . .
32.1(30) . . .
27.4(28) . . .
26.9(27) . . .
26.8(28) . . .
30.8(33) . . .
25.1(26) . . .
35.1(31) . . .
38.7(32) . . .
29.5(29) . . .
36.9(34) . . .
31.9(29) . . .
26.7(27) . . .
29.9(30) . . .
30.4(28) . . .
27.4(27) . . .
22.7(24) . . .
30.6(29) . . .
24.2(26) . . .
31.5(31) . . .
30.8(30) . . .
26.9(28) . . .
27.5(28) . . .
37.8(33) . . .
28.9(28) . . .
25.4(26) . . .
23.7(26) . . .
33.5(30) . . .
28.1(28) . . .
31.5(31) . . .
31.2(30) . . .
28.4(28) . . .
33.7(31) . . .
29.4(28) . . .
27.0(28) . . .
27.6(28) . . .
27.5(29) . . .
33.0(30) . . .
36.2(33) . . .
33.6(32) . . .
38(4) . . .
31.7(31) . . .
34.6(31) . . .
26.0(26) . . .
32.8(34) . . .
27.3(28) . . .
28.6(29) . . .
31.1(30) . . .
35.2(31) . . .
25.2(26) . . .
29.6(28) . . .
32.4(30) . . .
33.3(30) . . .
33.0(31) . . .
30.0(31) . . .
24.9(27) . . .
26.8(27) . . .
29.2(28) . . .
32.8(31) . . .
33.0(30) . . .
25.7(27) . . .
31.4(30) . . .
36.7(32) . . .
29.6(32) . . .
24.7(27) . . .
24.2(27) . . .
25.0(26) . . .
30.0(29) . . .
20.3(23) . . .
29.4(30) . . .
30.2(30) . . .
25.0(26) . . .
24.6(27) . . .
26.3(28) . . .
31.1(29) . . .
27.4(27) . . .
28.3(28) . . .
32.4(31) . . .
29.6(30) . . .
28.1(30) . . .
26.7(27) . . .
27.7(27) . . .
27.9(29) . . .
30.0(29) . . .
32.1(30) . . .
27.2(27) . . .
29.2(29) . . .
21.4(24) . . .
19.6(26) . . .
28.4(29) . . .
30.0(28) . . .
28.5(28) . . .
30.3(30) . . .
23.3(27) . . .
27.5(29) . . .
23.4(25) . . .
27.5(28) . . .
26.3(27) . . .
29.4(31) . . .
31.5(30) . . .
28.6(28) . . .
30.5(29) . . .
32.7(30) . . .
29.0(30) . . .
27.1(30) . . .
26.4(27) . . .
22.6(26) . . .
30.0(30) . . .
34.6(35) . . .
23.7(27) . . .
33.9(31) . . .
33.4(31) . . .
24.9(26) . . .
26.7(27) . . .
31.0(31) . . .
33.0(31) . . .
33.3(30) . . .
25.4(26) . . .
29.4(29) . . .
33.2(32) . . .
21.9(25) . . .
22.4(26) . . .
30.5(30) . . .
39.3(34) . . .
32.0(29) . . .
23.2(25) . . .
26.0(28) . . .
27.6(29) . . .
28.2(29) . . .
19.5(24) . . .
25.4(27) . . .
35.8(33) . . .
31.6(29) . . .
35.4(32) . . .
27.0(28) . . .
33.3(30) . . .
29.6(29) . . .
33.3(34) . . .
28.0(30) . . .
29.1(28) . . .
24.7(25) . . .
30.6(28) . . .
28.2(27) . . .
29.6(29) . . .
28.3(28) . . .
32.3(30) . . .
31.7(31) . . .
18.9(24) . . .
30.3(31) . . .
36.5(31) . . .
31.4(30) . . .
23.5(27) . . .
30.5(32) . . .
27.3(27) . . .
25.4(26) . . .
29.3(28) . . .
28.4(28) . . .
32.0(31) . . .
22.2(25) . . .
20.0(23) . . .
21.7(25) . . .
24.9(26) . . .
26.1(27) . . .
24.9(28) . . .
33.8(31) . . .
27.5(28) . . .
29.3(28) . . .
31.1(32) . . .
20.4(26) . . .
31.1(29) . . .
35.4(31) . . .
26.6(28) . . .
27.9(31) . . .
32.5(31) . . .
19.5(23) . . .
30.0(29) . . .
21.4(24) . . .
27.6(29) . . .
34.4(31) . . .
26.3(26) . . .
32.9(31) . . .
32.6(30) . . .
25.8(26) . . .
29.8(28) . . .
27.4(27) . . .
30.5(29) . . .
34.7(32) . . .
26.9(27) . . .
27.3(27) . . .
38.6(32) . . .
28.1(27) . . .
27.8(28) . . .
23.6(27) . . .
23.4(25) . . .
26.6(28) . . .
33.6(33) . . .
33.4(33) . . .
23.0(25) . . .
25.4(26) . . .
22.7(25) . . .
22.7(26) . . .
30.2(31) . . .
24.9(26) . . .
28.6(28) . . .
30.4(29) . . .
26.9(28) . . .
29.3(29) . . .
22.8(25) . . .
33.7(31) . . .
34.7(31) . . .
30.3(29) . . .
25.4(27) . . .
29.6(29) . . .
29.4(28) . . .
31.1(30) . . .
25.5(28) . . .
25.0(29) . . .
26.6(27) . . .
43(4) . . .
33.7(32) . . .
27.4(27) . . .
33.1(29) . . .
35.0(32) . . .
26.2(27) . . .
24.3(25) . . .
27.3(29) . . .
28.4(30) . . .
32.5(30) . . .
31.9(29) . . .
32.8(30) . . .
35.4(34) . . .
24.3(27) . . .
35.4(32) . . .
23.8(26) . . .
29.2(28) . . .
25.2(28) . . .
29.2(29) . . .
32.9(30) . . .
27.4(27) . . .
26.4(28) . . .
26.9(28) . . .
29.8(29) . . .
26.2(26) . . .
33.7(31) . . .
28.0(28) . . .
28.8(30) . . .
37.0(33) . . .
24.3(26) . . .
28.2(27) . . .
23.5(25) . . .
30.6(33) . . .
21.6(25) . . .
27.5(27) . . .
26.4(27) . . .
20.6(24) . . .
22.2(25) . . .
34.4(32) . . .
25.2(26) . . .
33.4(31) . . .
26.5(26) . . .
26.7(28) . . .
25.6(27) . . .
33.2(30) . . .
27.1(29) . . .
33.0(32) . . .
26.3(28) . . .
26.2(29) . . .
30.8(30) . . .
30.9(30) . . .
24.6(28) . . .
26.0(30) . . .
27.9(29) . . .
22.9(25) . . .
30.8(32) . . .
27.0(29) . . .
22.9(25) . . .
32.4(31) . . .
36.8(32) . . .
34.2(33) . . .
25.4(27) . . .
29.7(31) . . .
28.6(28) . . .
35.0(31) . . .
26.5(29) . . .
25.3(27) . . .
31.1(29) . . .
26.4(27) . . .
31.0(29) . . .
33.5(32) . . .
24.1(25) . . .
27.0(27) . . .
33.0(31) . . .
28.6(28) . . .
31.5(33) . . .
32.3(33) . . .
28.5(28) . . .
28.0(27) . . .
23.7(27) . . .
37.9(34) . . .
22.8(24) . . .
22.7(25) . . .
27.5(28) . . .
25.4(26) . . .
27.7(29) . . .
26.8(30) . . .
30.8(32) . . .
26.4(28) . . .
26.6(27) . . .
36.6(34) . . .
30.7(34) . . .
29.6(31) . . .
29.8(29) . . .
26.8(28) . . .
27.0(28) . . .
28.2(29) . . .
28.0(28) . . .
27.6(28) . . .
23.3(26) . . .
23.8(29) . . .
33.5(33) . . .
32.5(32) . . .
24.1(26) . . .
36.0(33) . . .
27.0(27) . . .
32.5(31) . . .
26.0(27) . . .
28.7(28) . . .
22.0(26) . . .
27.1(29) . . .
35.1(33) . . .
35.1(31) . . .
24.5(27) . . .
25.4(28) . . .
27.4(29) . . .
28.9(29) . . .
27.6(28) . . .
29.7(29) . . .
33.8(31) . . .
27.4(28) . . .
32.0(30) . . .
31.8(29) . . .
28.5(29) . . .
20.3(24) . . .
32.7(34) . . .
26.1(28) . . .
29.9(30) . . .
23.5(26) . . .
28.9(29) . . .
31.8(30) . . .
35.7(32) . . .
28.8(29) . . .
26.3(28) . . .
25.1(27) . . .
32.8(33) . . .
28.6(27) . . .
36.0(32) . . .
25.6(26) . . .
36.4(32) . . .
29.6(28) . . .
30.5(30) . . .
23.4(25) . . .
25.5(26) . . .
25.5(27) . . .
24.9(28) . . .
24.3(28) . . .
23.2(25) . . .
31.2(31) . . .
27.4(28) . . .
24.6(28) . . .
29.5(29) . . .
36.6(31) . . .
30.6(28) . . .
29.8(30) . . .
29.5(30) . . .
28.4(28) . . .
25.6(27) . . .
33.9(31) . . .
30.0(31) . . .
25.8(29) . . .
32.5(32) . . .
32.0(29) . . .
29.9(30) . . .
31.5(32) . . .
25.5(29) . . .
29.0(30) . . .
27.3(27) . . .
28.8(29) . . .
28.3(29) . . .
27.5(29) . . .
26.5(27) . . .
32.0(29) . . .
26.2(29) . . .
26.6(30) . . .
21.0(24) . . .
32.2(30) . . .
28.4(27) . . .
27.5(28) . . .
28.9(31) . . .
30.1(31) . . .
31.1(29) . . .
22.6(24) . . .
21.8(25) . . .
26.0(28) . . .
22.9(25) . . .
22.8(25) . . .
36.7(32) . . .
27.6(29) . . .
28.7(30) . . .
28.5(28) . . .
34.2(30) . . .
32.0(29) . . .
28.8(29) . . .
25.6(27) . . .
27.3(29) . . .
30.1(28) . . .
25.2(28) . . .
23.4(26) . . .
34.3(34) . . .
25.3(26) . . .
25.1(26) . . .
29.5(29) . . .
27.7(27) . . .
26.3(28) . . .
24.2(26) . . .
23.0(25) . . .
32.3(30) . . .
30.8(31) . . .
31.6(31) . . .
32.3(30) . . .
31.1(29) . . .
34.1(33) . . .
26.4(29) . . .
31.9(31) . . .
32.1(31) . . .
26.2(27) . . .
24.9(28) . . .
28.2(30) . . .
18.8(22) . . .
27.7(29) . . .
21.9(25) . . .
22.3(25) . . .
36(4) . . .
31.7(31) . . .
32.2(29) . . .
23.9(27) . . .
24.5(27) . . .
23.5(29) . . .
26.4(28) . . .
26.8(27) . . .
26.6(29) . . .
25.3(27) . . .
21.9(24) . . .
30.0(29) . . .
25.6(27) . . .
26.4(27) . . .
25.0(26) . . .
29.7(31) . . .
23.1(25) . . .
28.6(28) . . .
21.8(25) . . .
22.4(24) . . .
26.5(32) . . .
24.8(28) . . .
32.2(29) . . .
32.0(31) . . .
28.1(28) . . .
34.5(34) . . .
28.7(29) . . .
29.6(28) . . .
26.3(29) . . .
29.2(31) . . .
32.4(32) . . .
28.0(31) . . .
29.2(28) . . .
28.7(28) . . .
33.2(33) . . .
28.9(32) . . .
26.5(28) . . .
22.6(26) . . .
28.7(29) . . .
37.7(34) . . .
32.3(30) . . .
28.9(29) . . .
23.8(25) . . .
30.2(30) . . .
29.0(31) . . .
28.8(29) . . .
26.0(27) . . .
27.0(27) . . .
29.9(29) . . .
22.9(26) . . .
27.7(29) . . .
26.4(27) . . .
27.1(27) . . .
28.0(30) . . .
29.9(30) . . .
23.4(25) . . .
22.8(25) . . .
32.5(30) . . .
26.1(26) . . .
33.8(31) . . .
35.9(32) . . .
31.7(30) . . .
29.8(28) . . .
28.3(27) . . .
30.0(31) . . .
33.3(32) . . .
22.4(24) . . .
21.2(24) . . .
23.6(25) . . .
24.4(28) . . .
27.3(30) . . .
30.3(29) . . .
31.0(31) . . .
34.8(31) . . .
32.9(31) . . .
31.9(30) . . .
30.8(29) . . .
26.8(27) . . .
24.5(26) . . .
35.9(35) . . .
28.1(29) . . .
27.1(27) . . .
29.3(28) . . .
27.0(28) . . .
24.5(25) . . .
23.7(26) . . .
23.2(25) . . .
25.4(27) . . .
25.3(28) . . .
35.9(32) . . .
27.8(28) . . .
24.0(26) . . .
27.6(28) . . .
27.4(29) . . .
29.8(30) . . .
26.8(27) . . .
27.5(27) . . .
22.9(25) . . .
30.4(29) . . .
33.5(30) . . .
40.7(33) . . .
25.7(28) . . .
28.1(28) . . .
29.0(30) . . .
18.8(23) . . .
22.4(25) . . .
35.3(31) . . .
29.5(28) . . .
34.8(35) . . .
24.7(25) . . .
19.8(23) . . .
23.2(25) . . .
32.0(32) . . .
26.1(30) . . .
29.9(33) . . .
24.2(26) . . .
33.6(31) . . .
24.9(26) . . .
23.9(28) . . .
22.3(27) . . .
26.9(28) . . .
31.4(30) . . .
30.1(29) . . .
26.2(28) . . .
30.3(31) . . .
23.1(25) . . .
30.0(29) . . .
26.1(27) . . .
28.5(31) . . .
33.6(34) . . .
30.3(29) . . .
22.1(25) . . .
30.5(31) . . .
26.5(28) . . .
23.7(26) . . .
32.8(30) . . .
27.5(30) . . .
30.0(30) . . .
27.6(27) . . .
25.1(28) . . .
23.2(25) . . .
35.6(32) . . .
25.9(27) . . .
25.6(27) . . .
32.0(30) . . .
27.0(28) . . .
33.1(33) . . .
27.1(30) . . .
25.3(27) . . .
25.6(26) . . .
25.3(26) . . .
27.1(27) . . .
23.7(27) . . .
28.9(33) . . .
26.5(27) . . .
21.6(24) . . .
26.5(28) . . .
26.6(30) . . .
28.1(28) . . .
28.9(28) . . .
31.4(29) . . .
39.2(34) . . .
26.9(29) . . .
24.1(28) . . .
20.1(23) . . .
30.6(29) . . .
26.4(27) . . .
23.9(27) . . .
30.9(30) . . .
33.0(30) . . .
29.4(28) . . .
25.5(30) . . .
32.5(33) . . .
32.8(31) . . .
25.7(27) . . .
23.9(26) . . .
17.5(22) . . .
30.7(30) . . .
24.8(26) . . .
23.4(25) . . .
28.7(28) . . .
28.1(28) . . .
28.5(28) . . .
32.3(31) . . .
30.6(29) . . .
24.6(26) . . .
22.3(24) . . .
29.8(28) . . .
23.5(25) . . .
24.3(26) . . .
32.1(32) . . .
25.9(27) . . .
28.9(29) . . .
32.1(30) . . .
30.7(29) . . .
31.6(32) . . .
32.5(35) . . .
26.0(27) . . .
27.3(27) . . .
36.9(32) . . .
25.6(26) . . .
22.7(26) . . .
27.8(30) . . .
31.3(30) . . .
28.2(28) . . .
18.1(23) . . .
19.5(24) . . .
26.6(28) . . .
28.9(29) . . .
35.8(31) . . .
26.7(27) . . .
26.1(30) . . .
20.9(24) . . .
27.6(29) . . .
32.5(31) . . .
19.5(24) . . .
34.2(33) . . .
28.9(28) . . .
34.0(30) . . .
35.6(32) . . .
21.9(25) . . .
22.8(26) . . .
27.5(27) . . .
38.5(33) . . .
31.7(29) . . .
29.7(30) . . .
32.9(32) . . .
23.0(25) . . .
29.9(29) . . .
22.1(26) . . .
27.7(31) . . .
29.3(31) . . .
27.9(28) . . .
24.0(26) . . .
24.6(26) . . .
27.5(27) . . .
26.5(28) . . .
23.7(26) . . .
34.2(31) . . .
27.3(29) . . .
29.5(30) . . .
27.1(28) . . .
28.0(28) . . .
31.9(30) . . .
30.8(29) . . .
27.2(29) . . .
26.9(28) . . .
29.6(29) . . .
34.3(31) . . .
16.6(22) . . .
34.0(34) . . .
33.2(31) . . .
27.1(27) . . .
32.5(30) . . .
33.2(32) . . .
32.8(32) . . .
23.0(26) . . .
20.3(23) . . .
23.6(25) . . .
27.9(30) . . .
28.0(31) . . .
23.0(26) . . .
34.0(31) . . .
26.5(27) . . .
31.5(32) . . .
31.1(30) . . .
28.8(29) . . .
17.0(21) . . .
26.6(28) . . .
25.4(26) . . .
38(4) . . .
30.0(32) . . .
34.8(31) . . .
27.8(28) . . .
23.7(26) . . .
32.2(31) . . .
34.2(32) . . .
31.9(30) . . .
24.4(26) . . .
21.5(25) . . .
24.6(28) . . .
23.0(26) . . .
32.8(31) . . .
27.9(28) . . .
23.1(26) . . .
34.3(32) . . .
24.4(25) . . .
29.8(29) . . .
32.1(32) . . .
32.4(32) . . .
33.9(30) . . .
36.8(31) . . .
22.1(24) . . .
19.3(23) . . .
30.2(31) . . .
26.4(30) . . .
20.1(23) . . .
28.8(28) . . .
23.6(26) . . .
30.0(30) . . .
34.1(31) . . .
30.3(29) . . .
30.3(29) . . .
20.1(24) . . .
26.5(29) . . .
21.4(24) . . .
26.5(26) . . .
32.7(30) . . .
28.1(28) . . .
24.5(29) . . .
33.9(32) . . .
29.7(28) . . .
26.1(26) . . .
28.8(28) . . .
27.7(28) . . .
27.6(30) . . .
27.7(28) . . .
27.6(28) . . .
29.4(28) . . .
27.5(28) . . .
19.8(23) . . .
28.0(27) . . .
33.2(32) . . .
23.9(26) . . .
25.7(30) . . .
27.1(29) . . .
26.5(27) . . .
29.4(28) . . .
28.1(29) . . .
27.0(29) . . .
26.7(27) . . .
30.3(29) . . .
35.7(32) . . .
30.1(29) . . .
30.5(29) . . .
41.6(35) . . .
28.4(27) . . .
24.5(29) . . .
27.0(29) . . .
32.3(32) . . .
19.7(23) . . .
24.6(26) . . .
29.1(30) . . .
23.5(27) . . .
22.7(25) . . .
23.7(25) . . .
23.7(26) . . .
22.3(24) . . .
28.0(29) . . .
30.7(31) . . .
21.3(25) . . .
21.9(25) . . .
27.2(29) . . .
28.6(30) . . .
25.5(27) . . .
26.5(27) . . .
29.0(30) . . .
33.5(32) . . .
21.7(25) . . .
30.1(29) . . .
26.7(26) . . .
30.9(29) . . .
26.2(28) . . .
33.1(34) . . .
29.4(30) . . .
38.3(33) . . .
22.9(27) . . .
23.2(26) . . .
33.0(33) . . .
34.3(31) . . .
35.5(31) . . .
27.8(29) . . .
22.2(25) . . .
20.6(24) . . .
25.4(26) . . .
24.3(25) . . .
30.1(28) . . .
33.9(31) . . .
29.5(28) . . .
25.1(27) . . .
27.6(28) . . .
22.7(25) . . .
25.6(27) . . .
27.1(28) . . .
22.1(26) . . .
24.1(26) . . .
26.9(29) . . .
31.6(31) . . .
27.4(30) . . .
25.9(28) . . .
25.5(26) . . .
29.7(29) . . .
26.0(30) . . .
24.6(27) . . .
30.4(30) . . .
27.8(27) . . .
33.6(31) . . .
34.0(32) . . .
29.2(29) . . .
28.5(28) . . .
32.0(29) . . .
31.3(30) . . .
40(4) . . .
33.2(30) . . .
22.6(25) . . .
28.8(28) . . .
31.0(31) . . .
23.9(29) . . .
18.1(24) . . .
20.8(24) . . .
27.0(27) . . .
32.2(30) . . .
27.0(27) . . .
36.0(32) . . .
26.9(28) . . .
28.2(28) . . .
24.3(27) . . .
32.9(35) . . .
25.0(27) . . .
34.7(31) . . .
30.2(30) . . .
39.0(33) . . .
36.4(31) . . .
34.6(31) . . .
27.3(28) . . .
23.0(26) . . .
21.3(25) . . .
21.2(27) . . .
25.1(28) . . .
34.0(31) . . .
24.2(26) . . .
33.0(32) . . .
23.6(26) . . .
25.0(28) . . .
30.8(29) . . .
28.1(29) . . .
25.9(26) . . .
29.6(31) . . .
22.6(25) . . .
28.0(27) . . .
30.6(30) . . .
33.9(32) . . .
37.3(33) . . .
33.7(31) . . .
29.6(28) . . .
28.1(28) . . .
25.7(28) . . .
25.2(28) . . .
30.0(29) . . .
19.4(24) . . .
25.6(27) . . .
24.9(27) . . .
30.8(30) . . .
30.1(30) . . .
26.0(26) . . .
28.9(30) . . .
21.8(26) . . .
28.8(30) . . .
34.3(31) . . .
27.1(28) . . .
26.9(30) . . .
21.6(23) . . .
25.5(26) . . .
22.2(24) . . .
26.7(27) . . .
29.1(28) . . .
30.2(29) . . .
27.6(27) . . .
28.2(28) . . .
32.9(30) . . .
33.0(30) . . .
36(4) . . .
28.1(32) . . .
29.9(28) . . .
27.2(27) . . .
33.6(31) . . .
29.9(31) . . .
27.7(29) . . .
25.2(26) . . .
27.8(28) . . .
25.6(28) . . .
26.5(28) . . .
26.8(29) . . .
26.2(27) . . .
25.7(26) . . .
33.4(33) . . .
30.6(30) . . .
26.7(29) . . .
27.6(27) . . .
24.1(26) . . .
29.9(31) . . .
32.5(31) . . .
31.3(29) . . .
26.1(27) . . .
29.0(30) . . .
31.2(31) . . .
25.0(27) . . .
31.3(29) . . .
28.6(28) . . .
24.7(25) . . .
29.9(30) . . .
24.3(29) . . .
23.6(25) . . .
25.8(26) . . .
28.8(28) . . .
33.2(34) . . .
25.9(28) . . .
30.6(30) . . .
30.3(28) . . .
32.7(31) . . .
21.4(26) . . .
loop_
_refln_index_h
_refln_index_k
_refln_index_l
_refln_observed_status
_refln_F_squared_meas
_refln_F_squared_calc
_refln_phase_calc
_refln_d_spacing
_gsas_i100_meas
0 0 2 o 320.100 368.458 180.00 6.58616 0.33
0 2 0 o 1268.929 1576.899 180.00 8.19141 2.05
0 1 3 o 22.364 10.318 180.00 4.24110 0.02
0 0 4 o 766.837 525.390 180.00 3.29308 0.20
1 0 1 o 12979.541 13258.909 0.00 5.87840 21.58
0 4 0 o 2561.617 2089.906 0.00 4.09570 1.04
0 3 1 o 1393.029 1703.937 180.00 5.04460 1.71
1 0 3 o 629.407 235.701 180.00 3.65037 0.40
0 2 2 o 31835.414 32550.406 0.00 5.13281 40.38
1 1 2 o 4391.323 3896.913 0.00 4.47416 8.47
0 1 5 o 1856.041 1875.346 180.00 2.60105 0.61
0 2 4 o 1461.711 660.962 0.00 3.05542 0.66
1 1 4 o 276.005 104.693 0.00 2.89746 0.22
1 2 1 o 1668.422 1744.344 0.00 4.77588 3.67
0 0 6 o 2081.268 1902.463 0.00 2.19539 0.24
1 0 5 o 1405.104 908.244 180.00 2.44515 0.41
0 5 1 o 52.670 17.850 180.00 3.17967 0.03
1 2 3 o 886.599 820.081 0.00 3.33428 0.95
0 1 7 o 1241.537 973.983 0.00 1.86947 0.21
1 1 6 o 1190.471 1073.676 180.00 2.06556 0.49
0 6 0 o 2982.745 3002.025 0.00 2.73047 0.54
0 2 6 o 1788.802 1248.672 180.00 2.12055 0.39
1 4 1 o 905.891 815.996 180.00 3.36047 0.99
0 3 3 o 13417.563 12852.749 0.00 3.42188 7.58
0 0 8 o 342.647 532.008 180.00 1.64654 0.02
1 0 7 o 916.713 860.711 0.00 1.80900 0.15
1 2 5 o 574.714 403.757 0.00 2.34299 0.31
0 3 5 o 187.192 149.913 0.00 2.37279 0.05
0 4 2 o 9.941 10.944 0.00 3.47804 0.01
1 3 2 o 4026.119 3823.977 0.00 3.54082 4.87
0 2 8 o 1036.109 1213.728 180.00 1.61425 0.13
1 2 7 o 1684.594 1502.308 180.00 1.76643 0.51
0 1 9 o 1511.536 1282.871 0.00 1.45779 0.16
0 7 1 o 507.724 354.661 0.00 2.30431 0.13
1 1 8 o 829.862 1023.930 0.00 1.58959 0.21
1 3 4 o 40.091 40.315 0.00 2.59132 0.03
2 0 2 o 847.545 498.966 0.00 2.93920 0.35
0 3 7 o 1018.234 896.013 0.00 1.77910 0.16
1 6 1 o 1208.032 1093.648 0.00 2.47636 0.72
0 0 10 o 4805.919 6803.613 180.00 1.31723 0.21
2 0 4 o 2433.975 1426.063 180.00 2.32548 0.64
2 1 3 o 1359.017 1341.867 0.00 2.59676 0.89
2 0 0 o 2636.046 2220.108 180.00 3.28439 0.69
1 0 9 o 1545.326 1065.877 180.00 1.42856 0.16
0 8 0 o 350.165 316.807 0.00 2.04785 0.04
2 1 1 o 1234.268 919.750 180.00 3.12819 1.17
0 6 2 o 725.133 683.714 0.00 2.52230 0.22
1 3 6 o 1145.351 933.944 0.00 1.94555 0.42
2 0 6 o 16.621 15.236 0.00 1.82519 0.00
1 5 2 o 3055.631 3026.715 180.00 2.67860 2.12
2 2 0 o 111.023 49.846 0.00 3.04848 0.05
2 1 5 o 219.320 185.192 180.00 2.03907 0.09
0 4 4 o 10576.654 11119.782 0.00 2.56641 3.37
2 2 4 o 59.862 105.530 0.00 2.23708 0.03
0 2 10 o 3.002 3.283 0.00 1.30052 0.00
0 3 9 o 6.109 4.579 0.00 1.41370 0.00
2 2 2 o 2494.135 2106.383 180.00 2.76650 1.85
1 3 8 o 25.191 26.317 0.00 1.53292 0.01
1 2 9 o 95.862 71.758 180.00 1.40732 0.02
1 1 10 o 13.905 13.762 0.00 1.28753 0.00
2 3 1 o 705.371 623.576 0.00 2.75243 0.52
2 4 0 o 1928.532 2016.694 180.00 2.56229 0.61
1 4 3 o 5086.178 5444.001 0.00 2.72510 3.66
2 2 6 o 765.083 674.240 180.00 1.78150 0.24
0 4 6 o 3627.802 3000.641 180.00 1.93494 0.66
1 8 1 o 641.475 532.968 180.00 1.93386 0.23
2 1 7 o 226.270 287.728 0.00 1.62471 0.06
0 9 1 o 4179.884 3946.706 0.00 1.80318 0.66
1 4 5 o 198.369 161.589 180.00 2.09947 0.09
2 0 8 o 545.648 470.864 180.00 1.47193 0.06
2 3 3 o 67.628 56.081 180.00 2.36953 0.04
0 8 2 o 1406.713 1229.995 180.00 1.95550 0.26
0 5 3 o 471.548 563.570 180.00 2.62598 0.16
1 7 2 o 3455.360 2985.636 0.00 2.09063 1.47
2 2 8 o 2076.870 1610.568 0.00 1.44873 0.43
0 4 8 o 192.742 195.573 180.00 1.52771 0.02
1 4 7 o 102.697 214.280 180.00 1.65477 0.03
2 5 1 o 35.537 22.233 0.00 2.28449 0.02
2 1 9 o 1429.338 1598.861 180.00 1.33243 0.25
2 3 5 o 1234.393 1078.633 0.00 1.92337 0.45
0 10 0 o 6550.667 8817.842 180.00 1.63828 0.43
1 3 10 o 18.222 16.103 180.00 1.25685 0.00
2 6 0 o 3854.216 3147.280 180.00 2.09965 0.83
2 0 10 o 3360.268 2971.253 0.00 1.22257 0.25
2 4 2 o 285.520 380.199 180.00 2.38794 0.16
2 3 7 o 1709.363 2123.570 180.00 1.56434 0.41
0 5 5 o 22727.865 22045.258 0.00 2.05313 4.66
0 4 10 o 91.394 76.102 180.00 1.25398 0.01
1 4 9 o 1.252 1.030 0.00 1.34887 0.00
0 7 3 o 7257.375 6799.956 0.00 2.06532 1.51
1 6 3 o 5433.306 5111.976 180.00 2.18648 2.52
2 7 1 o 740.542 656.404 180.00 1.88635 0.26
2 2 10 o 804.233 1121.648 180.00 1.20918 0.12
0 5 7 o 35.725 49.829 180.00 1.63180 0.00
2 3 9 o 1293.236 1394.511 0.00 1.29852 0.22
1 10 1 o 173.382 281.129 180.00 1.57814 0.04
2 8 0 o 0.382 0.438 180.00 1.73774 0.00
1 5 4 o 6638.276 6438.358 0.00 2.18983 3.09
1 9 2 o 2.355 2.736 0.00 1.69511 0.00
2 4 4 o 1159.644 1033.515 180.00 2.02225 0.46
1 5 6 o 871.673 836.656 0.00 1.75736 0.26
2 6 2 o 416.622 606.881 180.00 2.00046 0.16
0 11 1 o 7423.536 5909.864 180.00 1.47992 0.80
2 4 6 o 1879.934 3204.253 0.00 1.66714 0.51
0 10 2 o 1499.675 1838.647 0.00 1.58983 0.19
0 5 9 o 27.209 27.609 180.00 1.33633 0.00
1 5 8 o 145.813 98.842 180.00 1.43566 0.03
3 1 4 o 4726.731 4630.912 0.00 1.81214 1.52
3 0 3 o 4345.516 4259.643 0.00 1.95947 0.81
3 0 7 o 574.143 379.858 180.00 1.42714 0.06
3 0 5 o 2964.541 3082.278 180.00 1.68391 0.41
3 1 2 o 3212.730 3278.118 180.00 2.06127 1.33
3 0 1 o 3618.842 2678.442 180.00 2.15996 0.82
2 4 8 o 2563.293 1820.106 180.00 1.38519 0.49
3 1 6 o 128.895 144.679 180.00 1.54343 0.03
2 5 3 o 114.713 115.675 0.00 2.05102 0.05
0 9 3 o 65.097 69.163 180.00 1.68153 0.01
0 12 0 o 6560.474 5743.973 0.00 1.36523 0.30
1 8 3 o 480.891 426.178 0.00 1.78600 0.15
3 2 1 o 52.649 47.881 0.00 2.08857 0.02
3 2 3 o 5590.771 4542.755 180.00 1.90570 1.98
2 9 1 o 18.830 28.813 180.00 1.58063 0.00
3 2 5 o 300.057 620.888 0.00 1.64942 0.08
3 1 8 o 950.586 1395.994 180.00 1.31175 0.16
2 8 2 o 156.975 173.192 180.00 1.68024 0.04
3 2 7 o 176.458 134.264 0.00 1.40596 0.03
2 10 0 o 2.350 2.174 0.00 1.46602 0.00
3 0 9 o 2580.709 2861.806 0.00 1.21679 0.19
0 6 4 o 8703.352 7584.863 180.00 2.10192 1.87
1 12 1 o 3.683 4.536 0.00 1.32984 0.00
1 11 2 o 240.074 175.237 180.00 1.41840 0.05
3 3 2 o 1191.702 881.743 0.00 1.94196 0.44
0 6 6 o 5287.981 6675.978 0.00 1.71094 0.76
0 6 8 o 215.729 161.178 180.00 1.41001 0.02
2 5 5 o 2459.188 2785.190 180.00 1.74096 0.73
0 13 1 o 4807.957 4130.275 0.00 1.25449 0.38
3 3 4 o 274.935 348.336 180.00 1.72948 0.08
2 5 7 o 3743.189 3455.211 0.00 1.46137 0.79
0 12 2 o 3563.839 3568.260 180.00 1.33682 0.32
3 4 1 o 1097.569 874.685 180.00 1.91055 0.39
3 3 6 o 63.021 45.074 0.00 1.49139 0.01
1 6 7 o 626.980 469.336 0.00 1.50805 0.14
1 6 5 o 698.999 734.594 0.00 1.82153 0.23
2 7 3 o 1467.741 1485.955 180.00 1.74837 0.44
1 10 3 o 1.745 1.357 180.00 1.49466 0.00
3 3 8 o 12.353 10.994 180.00 1.27936 0.00
1 7 4 o 915.652 792.011 180.00 1.83200 0.30
0 11 3 o 1445.148 1076.531 0.00 1.41042 0.14
3 4 3 o 328.578 272.713 180.00 1.76759 0.10
0 8 4 o 1487.485 1769.448 0.00 1.73902 0.22
1 6 9 o 226.449 219.346 180.00 1.26579 0.04
2 5 9 o 2695.542 1684.006 180.00 1.23780 0.41
2 11 1 o 312.517 247.793 0.00 1.34927 0.06
2 10 2 o 768.623 526.035 180.00 1.43100 0.16
3 6 1 o 2009.985 2317.348 180.00 1.69401 0.57
2 6 4 o 1313.630 988.026 0.00 1.77041 0.40
3 5 2 o 324.682 315.650 0.00 1.75471 0.10
3 4 5 o 4.589 5.417 180.00 1.55742 0.00
1 13 2 o 9.043 10.378 180.00 1.21636 0.00
3 4 7 o 657.544 533.858 0.00 1.34767 0.12
2 12 0 o 852.041 836.585 180.00 1.26066 0.07
2 9 3 o 48.337 40.098 0.00 1.49677 0.01
2 6 6 o 3125.592 3322.259 180.00 1.51740 0.71
3 8 1 o 4.608 3.277 180.00 1.48610 0.00
3 7 2 o 1706.890 2154.982 180.00 1.55380 0.41
1 9 4 o 336.994 460.145 0.00 1.54824 0.08
0 10 4 o 16.943 16.259 180.00 1.46679 0.00
0 7 7 o 5122.567 4904.928 0.00 1.46652 0.54
1 12 3 o 43.558 38.159 180.00 1.27873 0.01
0 7 5 o 1704.306 1713.458 180.00 1.74968 0.26
2 6 8 o 3523.117 3787.375 0.00 1.29566 0.59
0 7 9 o 358.122 222.429 0.00 1.24092 0.03
4 0 6 o 884.861 1538.153 180.00 1.31501 0.08
2 12 2 o 1182.142 723.353 0.00 1.23818 0.18
3 5 4 o 449.284 543.321 180.00 1.59326 0.11
0 13 3 o 318.034 493.412 180.00 1.21131 0.02
4 1 7 o 861.940 540.505 180.00 1.23378 0.13
1 7 6 o 438.687 528.996 0.00 1.55564 0.10
3 5 6 o 395.422 276.972 180.00 1.40137 0.08
3 6 3 o 361.814 421.407 0.00 1.59196 0.09
2 11 3 o 1301.959 1401.827 180.00 1.29597 0.22
4 0 4 o 1103.479 1056.014 0.00 1.46960 0.12
3 5 8 o 906.216 910.615 0.00 1.22117 0.14
1 7 8 o 342.192 587.296 0.00 1.31922 0.06
2 8 4 o 2377.763 2649.035 180.00 1.53688 0.55
4 1 5 o 1989.599 1315.407 0.00 1.38860 0.38
4 1 3 o 528.349 556.350 180.00 1.53140 0.12
4 0 2 o 161.374 196.133 180.00 1.59341 0.02
3 10 1 o 7.290 8.497 0.00 1.30529 0.00
4 2 4 o 1037.287 799.913 180.00 1.44650 0.21
4 0 0 o 2340.349 3097.907 0.00 1.64220 0.15
4 1 1 o 1196.849 1280.118 0.00 1.62158 0.31
4 2 6 o 355.364 383.712 0.00 1.29838 0.06
3 9 2 o 89.941 83.299 180.00 1.36919 0.02
2 7 5 o 1803.815 1876.929 0.00 1.54423 0.42
4 2 2 o 1763.735 2072.327 0.00 1.56409 0.42
0 12 4 o 7.486 7.661 180.00 1.26115 0.00
1 11 4 o 13.437 17.728 180.00 1.32895 0.00
4 2 0 o 482.223 387.887 180.00 1.61016 0.06
2 7 7 o 4316.462 3951.052 180.00 1.33909 0.77
1 8 5 o 533.527 732.430 180.00 1.56997 0.13
4 3 1 o 867.601 1031.466 180.00 1.56154 0.21
4 3 5 o 177.327 129.846 180.00 1.35033 0.03
4 3 3 o 3150.610 2491.261 0.00 1.48053 0.68
3 8 3 o 1215.789 1049.544 180.00 1.41577 0.24
3 6 5 o 39.911 30.100 180.00 1.43327 0.01
2 10 4 o 614.235 556.773 0.00 1.33930 0.11
4 4 0 o 1871.950 1975.593 0.00 1.52424 0.21
0 9 5 o 1502.695 1310.451 0.00 1.49759 0.17
3 6 7 o 510.974 591.706 180.00 1.26480 0.08
0 8 8 o 770.462 752.373 0.00 1.28320 0.06
4 4 2 o 2269.699 1610.833 180.00 1.48499 0.49
0 8 6 o 1795.439 1575.705 180.00 1.49749 0.20
3 11 2 o 254.037 455.724 0.00 1.21049 0.04
4 5 1 o 2888.749 2820.115 0.00 1.45909 0.61
4 4 6 o 35.112 28.187 180.00 1.25205 0.01
3 7 4 o 48.072 29.323 0.00 1.43835 0.01
4 6 0 o 5133.206 4029.705 180.00 1.40728 0.50
4 4 4 o 1390.606 986.116 0.00 1.38325 0.26
3 10 3 o 754.291 724.276 180.00 1.25686 0.12
1 8 7 o 202.786 160.535 0.00 1.35577 0.04
1 10 5 o 400.890 368.580 0.00 1.36103 0.07
4 7 1 o 2793.692 2735.108 180.00 1.33734 0.50
4 5 3 o 944.333 629.748 180.00 1.39235 0.18
0 11 5 o 811.456 874.829 0.00 1.29651 0.07
4 6 2 o 1736.901 1528.910 0.00 1.37622 0.33
4 8 0 o 2214.537 2114.638 0.00 1.28114 0.18
3 7 6 o 64.700 73.519 0.00 1.29247 0.01
2 9 5 o 4369.608 3969.306 180.00 1.36262 0.80
2 8 6 o 3256.573 2966.259 0.00 1.36255 0.60
3 9 4 o 159.201 155.652 180.00 1.28822 0.03
4 5 5 o 512.001 493.040 0.00 1.28243 0.08
4 9 1 o 1248.379 1696.211 0.00 1.21414 0.18
4 8 2 o 2014.182 1963.366 180.00 1.25757 0.32
4 7 3 o 849.995 925.261 0.00 1.28539 0.14
3 8 5 o 99.484 104.022 180.00 1.30066 0.02
1 9 6 o 409.935 426.425 180.00 1.37044 0.08
4 6 4 o 274.555 304.360 180.00 1.29407 0.05
5 1 4 o 10.381 11.919 0.00 1.21687 0.00
0 9 7 o 10.962 15.749 180.00 1.30834 0.00
5 0 3 o 1.638 1.586 180.00 1.25863 0.00
5 2 3 o 626.391 339.343 0.00 1.24403 0.10
0 10 6 o 1.207 2.564 180.00 1.31299 0.00
5 1 2 o 525.045 572.645 0.00 1.28441 0.09
5 0 1 o 1663.018 2387.970 0.00 1.30727 0.14
5 2 1 o 521.361 559.373 0.00 1.29094 0.09
2 9 7 o 85.966 100.217 0.00 1.21545 0.01
5 3 2 o 653.092 644.229 0.00 1.25395 0.10
1 11 6 o 103.135 221.299 0.00 1.21136 0.02
2 10 6 o 278.045 319.885 180.00 1.21918 0.04
5 4 1 o 11.467 6.504 180.00 1.24537 0.00
1 10 7 o 148.958 199.967 180.00 1.21432 0.02
