#------------------------------------------------------------------------------
#$Date: 2016-08-04 06:10:08 +0300 (Thu, 04 Aug 2016) $
#$Revision: 184804 $
#$URL: file:///home/coder/svn-repositories/cod/cif/4/00/26/4002670.cif $
#------------------------------------------------------------------------------
#
# This file is available in the Crystallography Open Database (COD),
# http://www.crystallography.net/
#
# All data on this site have been placed in the public domain by the
# contributors.
#
data_4002670
loop_
_publ_author_name
'Wang, Jian'
'Kaseman, Derrick'
'Lee, Kathleen'
'Sen, Sabyasachi'
'Kovnir, Kirill'
_publ_section_title
;
 Enclathration of X@La4Tetrahedra in Channels of Zn--P Frameworks in
 La3Zn4P6X (X = Cl, Br)
;
_journal_issue                   13
_journal_name_full               'Chemistry of Materials'
_journal_page_first              4741
_journal_paper_doi               10.1021/acs.chemmater.6b01752
_journal_volume                  28
_journal_year                    2016
_chemical_formula_sum            'Cl La3 P6 Zn4'
_chemical_formula_weight         899.48
_space_group_crystal_system      orthorhombic
_space_group_IT_number           63
_space_group_name_Hall           '-C 2c 2'
_space_group_name_H-M_alt        'C m c m'
_symmetry_space_group_name_Hall  '-C 2c 2'
_symmetry_space_group_name_H-M   'C m c m'
_audit_creation_method           SHELXL-2014/6
_cell_angle_alpha                90
_cell_angle_beta                 90
_cell_angle_gamma                90
_cell_formula_units_Z            4
_cell_length_a                   4.0576(5)
_cell_length_b                   13.6319(16)
_cell_length_c                   21.547(3)
_cell_measurement_reflns_used    9413
_cell_measurement_temperature    90(2)
_cell_measurement_theta_max      30.577
_cell_measurement_theta_min      2.989
_cell_volume                     1191.8(3)
_computing_cell_refinement       'SMART	V5.625	(Bruker	2000)'
_computing_data_collection       'SMART	V5.625	(Bruker	2000)'
_computing_data_reduction        'SAINT	V6.32	(Bruker	2001)'
_computing_publication_material  'SHELXL-97	(Sheldrick	1997)'
_computing_structure_refinement  'SHELXL-97	(Sheldrick	1997)'
_computing_structure_solution    'SHELXS-97	(Sheldrick	1990)'
_diffrn_ambient_temperature      90(2)
_diffrn_measured_fraction_theta_full 0.998
_diffrn_measured_fraction_theta_max 0.999
_diffrn_measurement_device_type  'Bruker	APEX	II	CCD	area-detector'
_diffrn_measurement_method       'profile	data	from	\w	scans'
_diffrn_radiation_type           MoK\a
_diffrn_radiation_wavelength     0.71073
_diffrn_reflns_av_R_equivalents  0.0838
_diffrn_reflns_av_unetI/netI     0.0426
_diffrn_reflns_Laue_measured_fraction_full 0.998
_diffrn_reflns_Laue_measured_fraction_max 0.999
_diffrn_reflns_limit_h_max       5
_diffrn_reflns_limit_h_min       -5
_diffrn_reflns_limit_k_max       19
_diffrn_reflns_limit_k_min       -19
_diffrn_reflns_limit_l_max       30
_diffrn_reflns_limit_l_min       -30
_diffrn_reflns_number            9413
_diffrn_reflns_point_group_measured_fraction_full 0.998
_diffrn_reflns_point_group_measured_fraction_max 0.999
_diffrn_reflns_theta_full        25.242
_diffrn_reflns_theta_max         30.577
_diffrn_reflns_theta_min         2.989
_exptl_absorpt_coefficient_mu    19.391
_exptl_absorpt_correction_T_max  0.669
_exptl_absorpt_correction_T_min  0.498
_exptl_absorpt_correction_type   numerical
_exptl_absorpt_process_details   'SADABS v2.03 (Bruker	2003)'
_exptl_crystal_colour            Black
_exptl_crystal_density_diffrn    5.013
_exptl_crystal_description       needle
_exptl_crystal_F_000             1592
_exptl_crystal_size_max          0.050
_exptl_crystal_size_mid          0.030
_exptl_crystal_size_min          0.020
_refine_diff_density_max         2.339
_refine_diff_density_min         -1.782
_refine_diff_density_rms         0.412
_refine_ls_extinction_method     none
_refine_ls_goodness_of_fit_ref   1.067
_refine_ls_hydrogen_treatment    undef
_refine_ls_matrix_type           full
_refine_ls_number_parameters     45
_refine_ls_number_reflns         1058
_refine_ls_number_restraints     0
_refine_ls_restrained_S_all      1.067
_refine_ls_R_factor_all          0.0444
_refine_ls_R_factor_gt           0.0313
_refine_ls_shift/su_max          0.001
_refine_ls_shift/su_mean         0.000
_refine_ls_structure_factor_coef Fsqd
_refine_ls_weighting_details
'w=1/[\s^2^(Fo^2^)+(0.0249P)^2^+6.2983P] where P=(Fo^2^+2Fc^2^)/3'
_refine_ls_weighting_scheme      calc
_refine_ls_wR_factor_gt          0.0598
_refine_ls_wR_factor_ref         0.0644
_reflns_Friedel_coverage         0.000
_reflns_number_gt                856
_reflns_number_total             1058
_reflns_threshold_expression     'I > 2\s(I)'
_cod_data_source_file            cm6b01752_si_002.cif
_cod_data_source_block           x1
_cod_original_cell_volume        1191.8(2)
_cod_database_code               4002670
_shelx_space_group_comment
;
The symmetry employed for this shelxl refinement is uniquely defined
by the following loop, which should always be used as a source of
symmetry information in preference to the above space-group names.
They are only intended as comments.
;
_shelx_estimated_absorpt_t_min   0.444
_shelx_estimated_absorpt_t_max   0.698
_shelxl_version_number           2014/6
_shelx_res_file
;
TITL x in Cmcm
CELL 0.71073   4.0576  13.6319  21.5471  90.000  90.000  90.000
ZERR    4.00   0.0005   0.0016   0.0025   0.000   0.000   0.000
LATT  7
SYMM -X, -Y, 0.5+Z
SYMM -X, Y, 0.5-Z
SYMM X, -Y, -Z
SFAC P CL ZN LA
UNIT 24 4 16 12
TEMP -183.000
SIZE 0.02 0.03 0.05

L.S. 14
BOND
acta
FMAP 2
PLAN -5

WGHT    0.024900    6.298300
FVAR       0.09200
LA1   4    0.000000    0.241764    0.624483    10.50000    0.00260    0.00704 =
         0.00695    0.00018    0.00000    0.00000
LA2   4    0.000000    0.507149    0.250000    10.25000    0.00168    0.00635 =
         0.00660    0.00000    0.00000    0.00000
ZN1   3    0.000000    0.018053    0.110290    10.50000    0.00436    0.00773 =
         0.00970    0.00098    0.00000    0.00000
ZN2   3    0.000000    0.365187    0.014005    10.50000    0.00486    0.01512 =
         0.00743   -0.00246    0.00000    0.00000
P1    1    0.000000    0.143585    0.198453    10.50000    0.00466    0.00763 =
         0.00633   -0.00114    0.00000    0.00000
P2    1    0.000000    0.155690    0.041396    10.50000    0.00345    0.00860 =
         0.00750   -0.00044    0.00000    0.00000
P3    1    0.000000    0.421469    0.117411    10.50000    0.00300    0.00791 =
         0.00610    0.00068    0.00000    0.00000
CL1   2    0.000000    0.850485    0.250000    10.25000    0.00632    0.00599 =
         0.00841    0.00000    0.00000    0.00000
HKLF 4

REM  x in Cmcm
REM R1 =  0.0313 for     856 Fo > 4sig(Fo)  and  0.0444 for all    1058 data
REM     45 parameters refined using      0 restraints

END

WGHT      0.0249      6.3097

REM Highest difference peak  2.339,  deepest hole -1.782,  1-sigma level  0.412
Q1    1   0.0000  0.5000  0.0000  10.25000  0.05    2.34
Q2    1  -0.5000  0.3124  0.7500  10.25000  0.05    1.96
Q3    1   0.0000  0.2470  0.6924  10.50000  0.05    1.76
Q4    1   0.0000  0.3293  0.5985  10.50000  0.05    1.53
Q5    1   0.3751  0.4162  0.6479  11.00000  0.05    1.34
;
_shelx_res_checksum              39118
_shelx_hkl_file
;
   2   0   0 9729.68  145.21
   2   0   0 9992.91  162.79
  -2   0   0 9578.34  151.79
  -4   0   0 4767.77  123.79
   4   0   0 4745.50  111.96
   4   0   0 4655.67  125.88
   1   1   0   19.76    6.43
   1  -1   0   32.47    8.01
   1  -1   0   20.61    5.07
  -1  -1   0   12.34    5.83
   1  -1   0   10.06    5.90
   1   1   0   10.55    5.11
  -3  -1   0   40.14   12.98
   3  -1   0   29.20   12.13
   3  -1   0   28.07    9.81
   3   1   0   18.92   11.01
   3   1   0   26.04    9.64
  -3   1   0   25.63   10.19
  -5   1   0   11.97   14.83
   5   1   0   16.68   14.32
  -5  -1   0   15.66   14.67
   5  -1   0   -9.83   11.64
   5   1   0   10.61   15.76
   0  -2   0   19.94    4.57
   2  -2   0   13.75    5.74
  -2   2   0    8.61    4.52
  -2  -2   0   12.09    8.17
   2  -2   0   15.80    7.66
   2  -2   0   14.77    7.61
   2   2   0    7.45    6.81
   2   2   0    0.71    5.29
   4  -2   0   -0.91   10.24
  -4   2   0   24.24   12.92
   4   2   0    7.95   12.63
  -4  -2   0    8.66   11.32
   4  -2   0   12.34   10.11
   4   2   0    6.31    9.89
   1   3   0  123.40    7.71
   1  -3   0  141.84   14.27
   1  -3   0  129.46    9.13
   1   3   0  133.92   13.67
  -1   3   0  111.50   11.73
   1   3   0  135.18   10.99
  -1  -3   0  138.66   14.26
   1  -3   0  157.35   14.74
  -3   3   0   43.50   12.73
   3  -3   0   75.65   18.25
   3   3   0   35.51   11.49
   3  -3   0   68.76   12.41
   3   3   0   63.93   16.21
  -3  -3   0   66.68   16.10
  -3   3   0   64.10   11.23
  -5   3   0   22.80   17.66
  -5  -3   0   36.45   18.73
   5   3   0  105.12   30.07
   5  -3   0   48.97   20.27
   5   3   0   48.52   19.50
   0  -4   0  817.93   22.02
   0  -4   0  876.45   27.43
   0   4   0  851.64   22.65
   0   4   0  841.02   25.70
  -2  -4   0  642.28   31.36
   2  -4   0  666.81   31.89
  -2   4   0  604.86   26.08
   2   4   0  691.50   31.58
   2  -4   0  663.89   31.33
   2  -4   0  686.07   24.08
   2   4   0  648.04   30.22
   4   4   0  515.70   50.15
   4   4   0  387.21   38.97
  -4   4   0  394.70   42.71
   4  -4   0  437.80   37.45
  -4  -4   0  363.29   43.16
  -1   5   0  418.45   15.20
   1   5   0  405.51   20.88
   1  -5   0  415.36   22.56
   1  -5   0  414.37   19.88
  -1  -5   0  372.04   18.51
  -1   5   0  387.28   21.37
   1   5   0  397.59   17.32
  -1  -5   0  393.64   22.93
   3  -5   0  262.98   33.28
   3   5   0  181.11   23.57
   3   5   0  259.82   29.96
   3  -5   0  274.26   31.45
  -3   5   0  198.32   21.89
   3  -5   0  197.44   19.79
  -3  -5   0  169.04   24.38
   5   5   0   72.63   24.11
   5  -5   0   70.03   26.09
   5   5   0   67.77   26.43
  -5  -5   0   46.11   20.18
  -5   5   0   51.78   22.72
   0   6   0  143.88   11.85
   0  -6   0  130.15   16.17
   0   6   0  173.29   14.56
   0  -6   0  146.67   11.11
  -2  -6   0   95.12   17.66
  -2   6   0   65.89   12.31
   2   6   0   78.62   14.80
   2  -6   0   80.38   11.00
   2  -6   0   82.56   14.60
   2  -6   0  114.25   19.47
   2   6   0   96.10   10.04
  -2  -6   0  103.86   16.62
   4   6   0   38.07   17.61
  -4  -6   0   33.09   16.34
   4  -6   0   47.39   17.66
   4   6   0   16.92   12.23
  -4   6   0   34.40   17.63
  -1  -7   0   20.50    9.47
  -1  -7   0   61.61   11.49
   1   7   0   32.15    9.04
  -1   7   0   39.35    6.96
   1  -7   0   47.18   13.33
   1  -7   0   61.90   11.12
   1   7   0   21.74    7.78
  -1   7   0   40.79   10.42
  -3   7   0   23.48   10.18
   3  -7   0   17.49   12.97
   3   7   0    9.54    9.45
  -3  -7   0   -1.19    9.36
   3  -7   0   17.92   12.43
  -3  -7   0   19.64   10.82
  -5  -7   0   20.61   19.54
  -5  -7   0   37.13   21.50
   5   7   0   23.95   18.63
   5  -7   0    0.08   15.64
  -5   7   0   25.36   19.12
   0   8   0 3679.96   80.74
   0   8   0 3583.89   71.15
   0  -8   0 3680.80   85.27
   0  -8   0 3573.27   68.39
   2  -8   0 2812.61   73.61
  -2   8   0 2687.10   76.20
  -2  -8   0 2666.33   80.82
  -2  -8   0 2718.22   72.47
   2  -8   0 2724.34   79.06
   2   8   0 2808.97   59.29
   2   8   0 2669.73   74.28
   4  -8   0 1408.58   70.01
   4  -8   0 1436.51   72.04
   4   8   0 1550.87   69.36
  -4  -8   0 1626.31   72.44
  -4  -8   0 1516.43   74.45
   1  -9   0   13.67    9.03
   1  -9   0    2.42    6.36
   1   9   0    4.27    7.05
  -1  -9   0    8.81    8.71
  -1   9   0    1.07    5.49
  -1  -9   0   10.68    8.27
  -1   9   0    1.17    6.49
   1   9   0   -0.86    5.88
  -3  -9   0   11.24   10.53
  -3   9   0   -7.57    6.31
  -3  -9   0    1.30   10.17
   3   9   0   -4.26    8.29
   3  -9   0    8.94   11.63
   3  -9   0    9.68   14.07
   5  -9   0    4.12   18.62
  -5  -9   0   12.38   19.38
  -5  -9   0    2.57   20.41
  -5   9   0    1.55   14.91
   5   9   0    2.39   16.16
   0 -10   0  591.46   35.97
   0 -10   0  502.96   23.67
   0  10   0  492.07   25.58
   0  10   0  545.63   32.58
  -2 -10   0  432.96   31.04
   2 -10   0  486.35   30.69
  -2 -10   0  379.43   38.90
   2  10   0  488.59   33.42
  -2  10   0  512.54   35.77
   2  10   0  447.53   26.34
   2 -10   0  414.00   41.33
   4 -10   0  314.03   43.10
   4  10   0  241.70   36.02
   4 -10   0  213.24   37.77
  -4 -10   0  226.44   38.82
  -4 -10   0  222.74   34.63
   1 -11   0  385.77   24.61
   1  11   0  410.30   28.77
   1 -11   0  331.99   35.74
  -1 -11   0  396.45   41.29
  -1  11   0  367.47   31.04
   1  11   0  356.31   27.37
   3  11   0  293.00   36.93
   3 -11   0  268.18   36.53
   3 -11   0  308.01   37.10
  -3 -11   0  282.51   40.48
  -3  11   0  292.62   36.20
   0  12   0  857.31   46.37
   0 -12   0  935.29   50.80
   0  12   0 1033.67   41.13
   2 -12   0  779.55   50.90
  -2 -12   0  786.64   51.17
   2  12   0  835.50   46.30
  -2  12   0  776.03   49.75
  -4 -12   0  364.73   50.73
   4  12   0  498.28   52.69
   4 -12   0  377.18   51.21
   1 -13   0   90.31   24.07
  -1 -13   0   66.80   19.52
  -1  13   0   95.89   21.55
   1  13   0  105.51   20.37
   1  13   0   98.56   19.76
   3 -13   0   49.27   21.23
  -3  13   0   91.89   24.70
  -3 -13   0   50.44   22.10
   3  13   0   51.46   20.58
   0 -14   0   66.86   20.37
   0  14   0  114.11   23.51
  -2 -14   0   76.82   25.11
  -2  14   0   84.22   22.64
   2 -14   0  122.07   30.09
   2  14   0  117.00   24.76
   4  14   0   36.99   23.81
  -4 -14   0   37.99   25.92
   4 -14   0   43.78   25.90
  -4  14   0   19.14   16.88
   1 -15   0  928.65   61.77
   1  15   0  851.94   50.02
   1  15   0  933.59   50.41
  -1 -15   0  812.70   56.15
  -3  15   0  520.78   57.10
   3  15   0  787.81   55.95
   3 -15   0  497.44   61.10
  -3 -15   0  592.66   61.83
   0  16   0  110.80   25.92
   0 -16   0  201.14   36.61
  -2  16   0  147.82   33.66
  -2 -16   0  140.80   34.04
   2  16   0  196.13   32.62
   2 -16   0  123.04   33.68
   1  17   0   -0.36   13.94
   1 -17   0    8.73   19.44
  -1 -17   0   -0.07   15.33
  -1  17   0    2.98   15.37
   0 -18   0  165.92   37.36
   0  18   0  276.84   45.03
   2 -18   0  206.69   43.72
  -2  18   0  239.45   43.70
  -2 -18   0  147.60   37.77
  -1 -19   0  103.01   35.85
   1 -19   0   74.15   30.15
   1  19   0   72.74   25.26
  -1  19   0  141.97   34.97
  -2   0  -1   -4.34    4.29
   2   0  -1    7.10    6.80
   2   0   1    0.79    5.14
   2   0  -1   11.32    5.71
  -2   0   1    1.65    5.32
   2   0   1   -0.55    6.01
  -4   0  -1   -5.35    8.92
  -4   0   1    3.38    9.78
   4   0  -1   -2.33    8.70
   4   0  -1    2.43   10.88
   4   0   1    0.10   10.60
   4   0   1   -5.54    7.53
   1  -1   1  269.11   12.49
   1  -1   1  274.32   15.18
  -1  -1   1  288.12   15.30
   1  -1  -1  268.55   11.05
   1  -1   1  268.31   11.52
   1   1  -1  266.59   13.43
   1  -1  -1  238.03   13.97
  -1  -1  -1  283.10   14.18
  -1   1   1  286.44   11.09
   1  -1  -1  238.50   14.39
   1  -1   1  272.23   13.64
   1   1   1  282.28   14.10
   1   1  -1  284.77   14.89
   1   1   1  266.68   14.95
   3  -1  -1  164.67   19.72
   3   1   1  135.79   20.70
  -3  -1   1  140.57   21.76
   3  -1  -1  162.65   23.12
   3   1  -1  167.56   20.41
   3   1  -1  137.84   21.64
   3  -1   1  165.56   19.88
  -3   1  -1  184.08   23.91
   3   1   1  179.49   21.84
  -3  -1  -1  166.45   23.05
  -3   1   1  153.90   21.88
   3  -1   1  175.97   24.91
   5   1   1   87.49   23.56
   5  -1  -1   97.19   28.95
  -5  -1  -1   80.36   23.40
  -5   1  -1   39.00   19.24
   5   1  -1   85.77   22.37
  -5  -1   1   79.76   23.78
   5   1   1  136.73   30.47
   5  -1   1  145.24   32.64
   5   1  -1   99.22   27.21
  -5   1   1   81.83   25.49
   5  -1   1   93.53   23.03
   0   2   1   -3.86    2.62
   0  -2  -1    0.09    3.17
   0  -2   1    4.80    3.79
   0  -2  -1    3.79    4.28
   0  -2   1   -2.94    2.97
   0   2  -1    4.88    3.05
   2   2  -1   -3.65    4.23
  -2  -2  -1   -0.27    5.33
   2  -2  -1   -3.74    3.46
   2   2  -1    1.23    5.77
   2  -2   1   -2.67    5.36
   2  -2  -1    2.31    6.63
   2   2   1    4.42    5.83
   2  -2   1   -4.07    3.88
  -2  -2   1   -2.84    5.50
  -2   2   1    4.00    6.64
  -2   2   1    1.42    3.63
   2  -2   1   -4.44    5.83
   2   2   1    2.84    5.88
   4   2   1    3.08    9.79
   4  -2  -1  -11.11    6.38
   4  -2   1   -4.36   10.70
   4  -2  -1    4.47   10.88
  -4  -2  -1   -1.39    8.47
   4   2  -1    2.79    9.21
  -4  -2   1    8.08   10.25
   4   2  -1   -6.53    9.83
  -4   2  -1    5.15   11.22
  -4   2   1   -1.11    9.11
   4   2   1  -11.83    8.67
   4  -2   1   -2.09    7.57
   1  -3   1 1176.30   31.89
   1   3  -1 1204.60   33.00
   1   3   1 1180.33   32.50
  -1  -3  -1 1190.66   33.86
  -1  -3   1 1194.40   35.05
   1  -3   1 1222.69   33.46
   1  -3   1 1190.16   31.63
   1  -3   1 1228.57   28.80
   1  -3  -1 1198.49   23.50
   1   3   1 1208.65   24.68
   1   3   1 1221.76   32.76
   1  -3  -1 1187.16   33.26
  -1   3   1 1186.00   31.23
   1  -3  -1 1206.55   33.80
   1   3  -1 1156.38   30.64
  -3   3  -1  603.77   25.84
   3   3  -1  535.62   34.50
  -3   3  -1  547.71   33.60
   3  -3   1  597.91   29.41
  -3  -3  -1  586.06   34.19
   3   3  -1  594.80   32.62
   3   3   1  563.59   31.96
  -3   3   1  585.79   35.34
   3   3   1  533.93   34.49
   3  -3  -1  581.80   35.71
  -3   3   1  570.95   24.74
  -3  -3   1  577.82   35.19
   3  -3   1  565.57   35.31
   3  -3  -1  518.70   26.67
  -5   3   1  279.86   43.37
   5   3   1  325.00   43.17
   5   3   1  439.51   54.68
   5   3  -1  395.05   44.75
   5  -3  -1  345.94   47.14
  -5   3  -1  239.54   38.20
  -5  -3   1  229.17   36.21
   5  -3   1  298.32   45.40
  -5  -3  -1  378.33   47.81
   5   3  -1  269.93   41.84
   0   4  -1   41.22    7.38
   0   4   1   38.57    7.36
   0  -4   1   40.92    8.66
   0  -4  -1   55.72    8.91
   0  -4  -1   39.39    8.05
   0   4   1   44.32    6.35
   0  -4   1   35.39    7.35
   2   4  -1   38.48    9.90
  -2   4  -1   29.13    7.49
   2  -4   1   48.93   11.87
   2   4   1   28.32   10.04
   2  -4  -1   36.49   11.39
  -2   4   1   25.21    7.27
   2   4  -1   46.82   11.16
  -2  -4   1   30.56   10.63
   2  -4  -1   31.80   11.21
   2   4   1   35.72   10.30
   2  -4  -1   43.05    7.70
   2  -4   1   38.83    8.14
   2  -4   1   26.74   10.15
  -2  -4  -1   25.78    8.99
   4  -4  -1   28.94   13.21
   4   4   1    8.58   10.95
  -4  -4  -1   40.34   16.11
  -4   4   1   14.57   13.55
   4   4  -1   19.85   14.88
  -4  -4   1   -2.54    9.56
   4  -4   1    9.44   11.80
   4   4  -1   11.58   11.84
   4   4   1    8.08   13.13
  -4   4  -1    7.22   10.44
   1  -5   1  450.83   23.51
  -1   5   1  469.46   14.43
   1  -5  -1  466.64   22.15
  -1   5  -1  450.70   17.86
  -1  -5   1  450.64   24.90
   1   5  -1  441.38   22.11
   1  -5   1  461.04   22.59
   1   5   1  462.73   18.51
  -1  -5  -1  461.70   23.72
  -1  -5  -1  459.58   21.63
  -1  -5   1  463.57   19.16
   1  -5   1  456.53   20.42
  -1   5   1  429.56   22.15
   1   5  -1  434.80   17.91
   1   5   1  427.56   21.49
   1  -5  -1  470.66   23.97
   3   5   1  335.68   34.85
   3  -5   1  323.55   28.07
  -3   5  -1  305.05   22.16
   3  -5   1  280.00   21.07
   3  -5  -1  422.09   41.77
  -3  -5  -1  255.79   29.46
   3   5   1  324.08   31.36
   3  -5  -1  293.67   19.60
  -3   5   1  278.00   21.08
   3  -5  -1  327.33   34.81
   3   5  -1  298.36   29.99
   3   5  -1  318.96   27.21
   3  -5   1  319.86   34.24
  -3  -5   1  329.65   35.04
   5   5   1  251.90   37.57
   5   5  -1  224.66   36.29
   5   5  -1  150.65   34.96
  -5  -5   1  149.50   33.58
  -5   5  -1  151.16   33.13
  -5   5   1  194.85   36.12
  -5  -5  -1  172.68   34.71
   5  -5  -1  202.14   39.04
   5   5   1  144.61   33.89
   5  -5   1  185.52   35.67
   0   6   1    5.72    5.61
   0   6   1   -1.43    3.95
   0  -6  -1    7.04    5.86
   0  -6  -1   -1.34    5.76
   0  -6   1    4.43    5.94
   0   6  -1    6.95    5.37
   0  -6   1    4.77    4.10
   2  -6   1    5.27    5.21
   2   6  -1   -0.35    5.79
  -2   6   1   -2.24    4.61
   2  -6  -1    2.36    7.30
  -2  -6  -1   -4.99    5.92
   2  -6  -1   -1.04    3.56
   2   6  -1    2.84    6.21
   2  -6   1    4.34    7.65
   2   6  -1   -2.67    3.46
   2  -6  -1   -5.46    5.57
   2   6   1    7.10    4.08
  -2  -6   1    0.80    6.91
  -2  -6  -1   -1.13    5.71
   2  -6   1    3.19    6.48
   2   6   1    4.81    6.71
  -2   6  -1   -0.33    4.76
  -4  -6  -1   14.89   13.90
  -4   6  -1   -9.85    9.27
   4  -6   1   16.03   13.93
   4   6   1   12.35   12.41
  -4  -6   1    6.12   11.71
   4   6  -1   -4.07   10.40
  -4   6   1    3.00   10.54
   4  -6  -1   -3.05   11.54
   4   6  -1   -1.66   11.82
   4   6   1    1.62   13.74
  -1   7   1  373.99   15.05
  -1   7  -1  355.05   17.38
   1  -7  -1  413.88   25.76
  -1  -7  -1  418.12   23.64
   1   7   1  355.03   21.38
   1   7  -1  375.33   22.57
   1   7  -1  368.34   20.01
  -1  -7   1  365.09   19.95
  -1  -7  -1  351.73   24.40
  -1   7   1  367.49   23.73
  -1  -7   1  403.88   26.41
  -1   7  -1  436.57   25.83
   1  -7  -1  370.87   21.42
   1  -7   1  374.22   25.35
   1   7   1  354.19   20.14
   1  -7   1  353.95   19.59
  -3  -7   1  185.33   28.25
   3  -7  -1  216.07   31.25
  -3   7  -1  216.36   24.88
   3   7  -1  271.10   29.69
  -3  -7  -1  235.55   29.03
   3  -7   1  249.98   30.36
   3   7  -1  272.28   32.18
   3  -7   1  235.08   31.49
   3  -7  -1  238.00   30.66
   3   7   1  213.43   25.98
  -3   7   1  212.43   24.76
  -3  -7  -1  262.29   32.35
   5  -7  -1  109.16   29.18
  -5  -7   1  119.18   31.85
   5   7  -1  115.11   28.39
  -5   7  -1  151.83   34.10
   5   7  -1  157.81   36.78
  -5  -7   1   75.37   26.42
   5  -7   1   84.70   29.33
  -5  -7  -1   56.35   25.12
   5   7   1  134.10   30.68
  -5   7   1   80.49   26.99
  -5  -7  -1  157.66   35.61
   0   8   1  638.63   25.33
   0  -8  -1  630.85   26.25
   0   8  -1  626.76   31.04
   0   8  -1  617.09   26.50
   0   8   1  631.66   30.53
   0  -8   1  660.65   33.53
   0  -8  -1  698.90   33.70
   0  -8   1  650.61   22.08
   2  -8  -1  470.19   31.98
  -2   8   1  484.50   31.41
   2   8   1  525.95   31.40
   2   8   1  482.19   22.68
   2   8  -1  446.49   29.77
  -2  -8  -1  488.27   33.45
   2  -8   1  547.25   30.49
   2   8  -1  493.05   22.84
  -2   8  -1  438.34   30.30
  -2  -8   1  449.02   34.09
  -2  -8   1  532.82   29.56
  -2   8  -1  478.25   22.44
   2  -8   1  506.24   34.14
   2  -8  -1  490.78   30.37
  -2  -8  -1  517.67   31.20
   4  -8  -1  279.18   40.18
  -4  -8  -1  298.69   38.98
   4  -8  -1  300.53   40.74
   4  -8   1  378.28   44.92
  -4  -8   1  289.05   40.22
  -4  -8  -1  275.80   39.53
   4  -8   1  258.57   38.56
  -4  -8   1  323.92   40.60
   4   8  -1  268.11   34.84
   4   8   1  336.23   38.44
   1  -9   1  174.37   17.94
   1  -9  -1  152.85   23.53
   1  -9   1  143.62   22.43
   1   9  -1  152.17   18.84
  -1  -9  -1  156.72   23.07
   1   9   1  187.57   20.72
  -1  -9   1  144.11   22.70
  -1   9   1  166.37   12.85
  -1  -9  -1  160.46   21.97
  -1   9  -1  154.35   22.01
   1  -9  -1  165.49   19.08
   1   9  -1  141.14   18.38
  -1  -9   1  180.73   20.61
  -1   9   1  194.08   23.74
  -1   9  -1  174.26   14.27
   1   9   1  174.10   19.74
  -3  -9   1  170.25   29.35
  -3  -9  -1   78.14   18.92
   3   9  -1  104.89   22.00
  -3   9  -1   99.87   19.56
  -3   9   1   78.25   17.17
   3   9   1  130.07   23.52
   3  -9   1   75.46   21.68
  -3  -9   1  113.35   21.44
  -3  -9  -1  125.33   25.24
   3  -9  -1  175.72   27.13
   3  -9  -1  151.82   28.54
   3  -9   1  113.23   22.51
  -5   9   1   54.21   23.22
  -5  -9   1   89.21   31.97
  -5   9  -1   84.43   27.84
   5  -9   1   75.28   27.05
  -5  -9  -1   67.75   27.83
   5  -9  -1   50.17   23.38
   5   9  -1   56.99   22.28
  -5  -9  -1   84.89   30.62
  -5  -9   1   94.72   30.81
   5   9   1   54.78   23.81
   0 -10  -1   56.52   11.44
   0  10  -1   60.25   12.65
   0 -10  -1   60.08   15.18
   0  10  -1   79.50   15.95
   0  10   1   64.06   11.89
   0 -10   1   71.78   17.09
   0 -10   1   56.50   10.13
   0  10   1   90.46   17.04
   2 -10  -1   73.58   18.51
   2  10  -1   44.63   10.83
  -2 -10   1   62.82   15.46
  -2 -10   1   45.68   16.01
   2  10  -1   55.79   15.74
  -2  10   1   50.44   15.11
   2  10   1   50.63   12.09
  -2 -10  -1   48.14   16.64
  -2 -10  -1   57.71   15.91
   2 -10   1   46.83   16.67
   2 -10  -1   55.26   15.71
   2  10   1   49.81   14.06
  -2  10  -1   47.18   15.52
   2 -10   1   37.90   13.19
  -4 -10  -1   -2.58   14.54
   4  10  -1   32.45   17.34
   4 -10   1   35.16   20.94
   4 -10  -1   41.30   21.69
   4 -10   1   -4.06   13.46
  -4 -10  -1   12.93   17.66
  -4 -10   1   49.62   20.81
   4  10   1   24.45   16.32
   4 -10  -1   36.25   21.64
  -1  11  -1  161.28   23.54
   1 -11   1  120.81   23.14
   1  11  -1  122.10   19.93
  -1  11   1  125.16   22.61
   1  11   1  164.76   20.97
  -1 -11  -1  107.78   21.83
   1  11   1  115.58   19.13
  -1  11  -1  136.20   17.03
   1  11  -1  104.79   18.18
  -1 -11  -1  152.35   24.72
   1 -11  -1  178.06   29.64
  -1 -11   1  101.48   21.56
   1 -11  -1  141.21   19.56
   3  11  -1   82.83   21.57
   3  11   1   96.71   23.04
  -3 -11  -1  115.68   26.13
   3 -11  -1   92.63   24.28
   3 -11   1   55.15   21.50
  -3  11   1   68.66   19.57
  -3  11  -1   98.73   22.78
   3 -11   1  109.60   23.23
  -3 -11   1  133.64   29.78
   3 -11  -1   68.02   20.14
   0  12  -1  479.39   34.84
   0 -12   1  435.13   35.56
   0  12  -1  423.31   27.79
   0  12   1  424.49   27.04
   0  12   1  483.13   35.01
   0 -12  -1  414.37   41.40
   2 -12  -1  274.40   35.98
  -2 -12  -1  315.67   38.76
  -2  12   1  306.05   38.10
   2  12   1  370.37   36.66
   2  12  -1  378.98   37.21
  -2  12  -1  326.22   37.05
  -2 -12   1  325.81   40.09
   2 -12   1  342.88   42.26
   4  12  -1  236.66   38.07
  -4 -12  -1  184.05   36.72
  -4  12  -1  235.60   36.91
  -4 -12   1  153.51   35.82
   4 -12   1  191.85   36.69
   4 -12  -1  139.25   33.91
   4  12   1  258.92   40.06
  -1 -13   1  181.64   31.13
   1  13  -1  102.51   20.69
   1 -13   1  120.74   24.78
   1  13   1  181.02   24.55
  -1  13  -1  173.23   27.61
   1  13  -1  172.41   24.66
  -1 -13  -1  192.14   30.55
   1 -13  -1  165.53   31.20
  -1  13   1  198.96   31.71
   1  13   1  177.10   26.04
  -3 -13  -1   90.23   25.32
  -3 -13   1  156.10   32.22
   3  13   1  124.28   26.41
  -3  13  -1  111.05   27.59
   3  13  -1  175.04   31.60
   3 -13   1  208.89   40.19
   3 -13  -1   82.95   24.99
  -3  13   1   74.74   22.22
   0 -14   1   11.72   15.22
   0  14  -1   17.25   11.79
   0  14  -1   14.23   13.69
   0 -14  -1   -3.22    9.97
   0  14   1    7.22   11.46
  -2 -14   1   -4.39   15.35
  -2  14  -1   11.81   14.32
   2 -14   1    1.05   16.35
   2  14  -1   -5.62   11.84
  -2 -14  -1    1.91   14.18
   2 -14  -1    4.93   14.89
   2  14   1   -7.60   12.17
  -2  14   1    6.91   13.18
  -4  14   1  -14.15   12.98
  -4 -14   1    4.00   20.35
   4  14  -1    3.21   19.38
   4 -14  -1   11.09   23.02
   4  14   1   -2.51   16.65
  -4 -14  -1    9.83   20.52
   4 -14   1  -16.27   19.28
  -4  14  -1    7.05   15.69
  -1  15  -1  141.40   29.16
   1 -15   1  148.50   32.87
  -1 -15   1  140.40   30.20
  -1  15   1  161.04   30.63
   1  15  -1  226.02   30.11
  -1 -15  -1  199.77   35.14
   1  15  -1  200.41   33.43
   1  15   1  178.18   27.07
   1  15   1  180.67   28.81
   1 -15  -1  122.74   27.92
  -3  15  -1   81.17   25.89
   3  15   1  129.17   29.81
   3  15  -1   78.55   25.69
   3 -15   1   95.77   30.92
  -3  15   1   89.27   24.94
  -3 -15  -1   73.27   25.65
   3 -15  -1  106.57   35.87
  -3 -15   1  106.40   31.21
   0  16   1  274.65   38.72
   0 -16  -1  257.69   40.20
   0 -16   1  357.84   45.83
   0  16  -1  345.87   43.72
   2 -16   1  310.41   48.62
   2  16   1  275.89   37.39
   2  16  -1  297.78   38.88
  -2 -16  -1  267.96   41.85
   2 -16  -1  294.46   45.72
  -2 -16   1  228.02   40.88
  -2  16   1  370.03   47.30
  -2  16  -1  276.10   42.80
   1  17  -1   28.79   17.84
  -1  17   1   -8.83   12.42
  -1  17  -1   12.24   16.41
   1  17   1   39.21   18.74
   1 -17  -1   19.13   21.52
  -1 -17   1   -7.92   14.26
   1 -17   1   49.37   23.78
  -1 -17  -1   38.39   21.62
   0 -18  -1   11.69   21.88
   0  18   1   -6.55   14.09
   0  18  -1   -4.53   12.89
   0 -18   1   -9.42   13.77
   2 -18  -1   19.58   22.60
  -2 -18  -1   16.39   24.14
  -2 -18   1  -10.85   20.58
  -2  18  -1   -0.96   16.65
  -2  18   1    8.04   18.12
   2 -18   1    6.80   19.05
   2  18  -1   16.69   21.80
   1  19  -1   17.39   19.03
  -1  19   1    1.54   16.81
  -1 -19  -1   23.48   22.09
  -1 -19   1    0.91   24.71
  -1  19  -1    8.75   18.10
   1 -19  -1    1.48   21.91
   1  19   1   -7.78   15.62
   1 -19   1   20.60   23.59
   2   0  -2   10.43    7.52
   2   0   2   -1.36    3.10
   2   0   2    3.67    6.17
  -2   0   2    1.40    6.50
   2   0   2    5.09    5.32
  -2   0  -2   -1.78    4.48
   2   0  -2    1.30    4.88
   4   0   2    3.98   11.33
   4   0   2   12.91    9.95
   4   0  -2   -0.07    7.97
  -4   0   2    5.52   10.77
  -4   0  -2    1.89    9.57
   4   0  -2    4.68   11.79
   1   1   2   45.12    5.99
   1  -1   2   38.35    8.39
   1   1  -2   33.26    7.59
   1  -1  -2   26.60    7.52
  -1   1   2   39.91    5.99
   1  -1   2   37.93    7.38
  -1  -1   2   24.29    7.05
   1  -1  -2   24.37    7.35
   1   1   2   31.78    7.33
   1  -1  -2   27.29    5.12
  -1  -1  -2   30.28    6.59
   1  -1   2   26.61    6.25
   1   1  -2   23.06    6.35
   1   1   2   28.45    7.67
   1  -1   2   23.44    5.72
   3   1   2   10.58    8.15
   3  -1  -2   17.08   10.24
   3  -1  -2   13.36    7.51
   3   1  -2   32.90   10.08
   3  -1   2   11.60    9.97
  -3   1   2   26.89   12.03
   3  -1   2   18.22    8.13
   3   1   2   39.10   13.46
   3   1  -2   22.67   10.95
  -3   1  -2   19.88   10.02
  -3  -1  -2   26.33   11.06
  -3  -1   2   17.55    9.81
   5  -1   2   15.31   15.54
   5   1  -2    4.67   16.43
  -5   1   2   -1.99   12.95
   5  -1   2  -17.67   11.10
  -5   1  -2   24.36   17.81
  -5  -1   2   54.62   21.36
   5   1   2   22.24   17.74
  -5  -1  -2   11.88   13.37
   5  -1  -2   33.77   19.21
   5   1   2   24.16   16.03
   5   1  -2   24.31   17.68
   0   2  -2  279.59   11.59
   0  -2   2  278.72   11.69
   0  -2  -2  275.27   10.56
   0   2   2  276.75   11.81
   0  -2   2  290.18   12.57
   0  -2  -2  260.75   14.69
   2   2   2  195.08   19.88
   2  -2   2  215.75   22.71
   2   2  -2  187.38   18.11
  -2   2   2  177.32   12.13
   2  -2  -2  188.14   20.55
   2  -2   2  199.17   19.78
  -2  -2  -2  231.14   21.68
  -2   2   2  222.53   23.58
  -2  -2   2  161.50   19.59
   2   2   2  215.63   22.55
   2   2  -2  204.53   21.02
   2  -2   2  195.34   14.97
   2  -2   2  165.84   12.32
   2  -2  -2  192.74   12.89
  -4  -2   2   89.62   22.21
  -4   2   2   94.87   23.12
  -4   2  -2   87.16   21.13
  -4  -2  -2   93.80   20.78
   4  -2   2  110.26   24.26
   4   2  -2   91.56   19.67
   4  -2  -2  107.69   23.76
   4  -2   2   99.74   19.09
   4  -2  -2   91.38   17.54
   4   2   2   97.80   23.76
   4   2  -2  118.60   26.50
   4   2   2  126.62   22.21
   1   3  -2 1439.47   34.68
   1  -3   2 1472.81   36.67
  -1  -3   2 1436.51   39.83
   1  -3   2 1495.24   34.76
   1  -3  -2 1526.77   38.92
  -1  -3   2 1445.93   28.18
   1  -3   2 1457.69   36.94
  -1  -3  -2 1463.59   38.27
   1  -3   2 1457.26   36.23
   1   3   2 1447.90   29.78
   1   3   2 1466.53   37.21
   1  -3  -2 1484.69   38.96
   1   3  -2 1489.00   37.48
  -1   3   2 1469.38   36.15
  -1  -3  -2 1449.29   37.16
   3  -3  -2  701.59   30.05
   3   3   2  692.56   39.13
  -3   3   2  699.88   27.86
   3  -3  -2  606.37   37.31
   3   3   2  713.90   36.99
  -3   3   2  719.35   39.21
  -3  -3   2  696.36   39.09
  -3   3  -2  721.97   28.68
   3   3  -2  645.77   34.60
   3  -3   2  677.58   32.14
   3  -3   2  704.22   39.35
  -3   3  -2  699.97   37.48
   3   3  -2  710.70   39.03
  -3  -3  -2  745.54   38.08
   5   3  -2  338.43   40.86
  -5   3   2  327.21   46.54
  -5  -3   2  377.19   48.98
   5  -3  -2  255.08   42.66
   5   3  -2  357.77   48.85
   5   3   2  349.26   48.01
   5  -3   2  336.57   46.90
  -5   3  -2  336.84   44.67
   5   3   2  347.12   42.03
  -5  -3  -2  384.60   47.65
   0   4   2  707.43   23.77
   0  -4   2  715.85   23.71
   0  -4  -2  739.27   26.53
   0   4  -2  707.28   22.53
   0  -4   2  714.26   26.26
   0   4   2  690.96   18.78
   0  -4  -2  700.56   23.50
   2  -4  -2  494.06   18.39
   2  -4   2  494.17   27.88
   2  -4  -2  518.11   28.54
  -2  -4   2  491.04   28.46
   2   4  -2  497.62   26.84
   2  -4  -2  489.03   27.96
   2   4   2  529.08   27.09
   2   4  -2  467.75   25.88
  -2   4   2  549.25   24.56
   2   4   2  527.47   28.41
  -2  -4  -2  481.09   26.72
   2  -4   2  479.11   26.57
   2  -4   2  490.47   24.04
   2  -4   2  512.49   23.47
   4   4   2  253.33   36.49
   4   4  -2  355.62   42.01
   4   4  -2  279.38   32.84
  -4  -4   2  197.92   30.66
  -4  -4  -2  252.09   33.09
  -4   4   2  279.43   36.88
   4  -4  -2  251.30   36.55
   4   4   2  248.54   32.00
  -4   4  -2  243.87   32.97
   4  -4   2  237.39   28.52
   4  -4   2  310.37   39.06
   1  -5   2  759.79   25.53
  -1   5   2  776.70   16.35
   1  -5   2  793.85   31.17
  -1  -5   2  773.24   24.52
  -1   5  -2  772.14   25.58
  -1  -5  -2  778.89   30.50
  -1  -5  -2  749.80   29.18
   1  -5  -2  839.22   30.69
   1   5   2  754.01   28.08
  -1  -5   2  764.19   24.14
   1   5   2  818.61   25.60
   1  -5  -2  805.85   30.66
  -1   5   2  804.93   30.44
   1   5  -2  750.23   28.91
  -1  -5   2  757.13   32.38
   1  -5   2  797.43   30.49
   3   5   2  352.73   27.58
   3   5  -2  420.76   30.79
   3  -5   2  407.16   31.37
  -3  -5  -2  443.65   31.86
   3  -5  -2  422.39   32.34
   3  -5   2  405.91   31.22
   3   5  -2  418.72   30.20
   3  -5  -2  458.37   33.04
   3   5   2  432.17   32.08
  -3  -5   2  411.39   32.15
  -3   5   2  442.16   25.54
   3  -5   2  392.40   25.28
  -3   5  -2  439.94   26.48
  -5  -5   2  218.79   38.94
   5  -5  -2  208.01   37.56
  -5   5   2  187.24   34.74
   5   5   2  222.23   38.56
  -5  -5  -2  229.96   37.33
   5  -5   2  198.32   38.15
   5   5   2  304.77   42.47
  -5   5  -2  194.99   36.89
   5   5  -2  265.37   39.73
   5   5  -2  212.62   39.05
   0   6   2   58.11   10.38
   0  -6   2   80.69    6.84
   0   6  -2   78.86   11.26
   0   6   2   85.83   10.05
   0  -6  -2   89.98   13.38
   0  -6   2   73.02   13.23
   0  -6   2   72.58   12.24
   0  -6  -2   72.69   12.08
   2  -6   2   59.29   10.96
   2   6   2   63.55    8.65
   2  -6  -2   50.13    7.67
   2   6   2   59.01   13.22
   2  -6   2   69.54   15.64
   2   6  -2   51.42   11.86
   2   6  -2   55.19    8.20
  -2   6   2   40.52    9.65
  -2  -6  -2   66.59   14.75
  -2  -6   2   63.74   15.71
   2  -6  -2   91.62   16.89
   2  -6   2   46.83   12.47
  -2  -6  -2   43.61   11.38
   2  -6  -2   94.19   17.38
   2   6  -2   59.81   12.87
  -4   6   2   39.41   18.52
  -4  -6  -2   62.56   19.78
   4   6   2   37.29   16.64
   4   6  -2   25.60   16.94
  -4   6  -2   43.36   17.76
  -4  -6  -2   48.73   18.76
   4  -6   2   52.06   19.83
   4   6  -2    6.03   11.37
  -4  -6   2   22.41   16.44
   4  -6  -2   30.94   17.72
   1   7  -2   -1.04    5.65
  -1   7   2    4.24    3.55
  -1   7   2    8.68    7.06
  -1  -7  -2    3.95    7.98
   1  -7  -2    5.00    7.55
   1  -7   2    8.99    6.78
   1   7  -2   -0.04    5.05
   1  -7   2    6.79    5.59
  -1   7  -2    2.93    3.96
   1  -7   2    0.47    7.84
   1  -7  -2   -1.14    6.33
   1   7   2    1.54    6.03
   1   7   2    0.34    4.72
  -1  -7   2    3.84    5.31
  -1  -7  -2    5.35    6.68
  -1  -7   2    1.69    6.92
  -3   7   2    1.71    5.86
  -3   7  -2   -0.05    5.65
   3   7   2   -4.76    7.16
   3  -7   2   -8.96    8.67
   3  -7  -2   -3.69    9.18
  -3  -7   2    3.64    9.92
  -3  -7  -2    2.33    8.83
   3   7  -2   -3.17    8.28
  -3  -7  -2   -1.84    8.61
   3  -7  -2    2.61   10.15
   3  -7   2   -5.81   10.25
   3   7  -2    2.40    9.47
  -5  -7  -2    4.51   17.81
   5   7  -2    5.91   16.43
  -5   7   2   -1.30   13.29
  -5   7  -2   -0.23   14.67
  -5  -7   2   11.34   17.51
   5  -7  -2    0.67   16.46
   5   7   2   -7.13   14.04
   5  -7   2    6.91   15.29
   5   7  -2  -20.74   15.87
  -5  -7  -2   11.37   17.53
   0  -8   2   14.94    4.99
   0   8   2   20.53    8.54
   0  -8   2    5.11    7.64
   0  -8  -2    3.27    6.74
   0   8   2    4.53    5.21
   0  -8  -2   27.76    8.95
   0   8  -2    7.43    6.54
   2   8  -2  -10.10    4.94
  -2   8  -2   14.03    9.17
   2  -8  -2   14.17   10.10
   2  -8  -2    7.11    9.04
  -2  -8  -2   14.01    9.86
   2  -8   2    0.36    8.99
  -2  -8   2    6.22    6.85
  -2  -8  -2   19.77   10.76
   2   8   2   19.86    7.48
  -2   8  -2   22.67    8.10
   2  -8   2    5.07    8.08
   2   8  -2    6.04    6.21
  -2   8   2   20.77    9.60
   2   8   2   14.34    9.87
  -2  -8   2    9.89   10.30
   4  -8   2    8.78   14.24
   4  -8  -2    5.37   14.62
  -4  -8  -2   24.59   17.77
   4   8   2   24.56   14.98
  -4  -8   2    6.80   13.41
  -4  -8   2   25.98   17.95
   4  -8  -2   18.54   15.31
   4   8  -2    4.39   11.54
  -4   8   2    0.86   12.77
  -4  -8  -2   29.23   16.79
   4  -8   2    3.21   13.02
  -1   9   2   46.38   12.85
  -1  -9  -2  103.97   19.00
  -1  -9   2   68.88   15.99
  -1  -9  -2   94.64   17.98
  -1  -9   2  122.03   16.51
   1   9  -2  100.30   16.48
  -1   9  -2  112.57   14.05
   1   9   2   74.02   13.28
   1  -9   2  101.22   13.54
  -1   9  -2  102.40   18.84
   1  -9   2  102.30   19.91
   1  -9  -2   82.37   17.58
   1   9   2  104.45   16.45
   1   9  -2   73.09   13.82
   1  -9  -2   88.01   15.46
  -1   9   2   92.40   10.59
  -3  -9  -2   47.93   18.92
  -3  -9   2   48.45   17.53
  -3   9   2   60.05   17.11
   3  -9   2   69.14   18.78
  -3   9  -2   54.68   16.63
   3   9   2   37.82   14.50
   3  -9   2   91.27   23.63
   3   9  -2   38.77   15.14
  -3  -9  -2   52.55   17.51
   3  -9  -2   90.56   22.42
  -3  -9   2   32.40   13.89
   3  -9  -2   94.39   22.50
  -5   9   2   20.86   18.36
   5  -9  -2   14.78   19.97
  -5  -9  -2   14.16   23.12
   5   9  -2    6.36   17.57
   5  -9   2   15.91   19.33
  -5  -9  -2   13.98   21.59
  -5  -9   2    1.43   19.33
  -5   9  -2    0.26   17.11
   5   9   2   23.92   19.87
   0 -10  -2  193.39   27.03
   0  10   2  148.84   21.12
   0  10  -2  167.21   22.11
   0  10   2  191.67   18.31
   0 -10   2  241.43   30.66
   0 -10  -2  182.17   20.55
   0  10  -2  199.81   20.80
   2  10  -2  188.38   20.69
  -2  10   2  162.38   24.90
   2  10   2  191.05   25.11
  -2 -10  -2  165.45   27.19
   2 -10   2  143.33   20.45
  -2 -10  -2  190.99   27.39
  -2  10  -2  124.51   23.17
   2 -10  -2  156.56   26.61
   2 -10  -2  167.18   24.58
   2  10   2  176.16   19.86
   2 -10   2  203.41   30.47
   2  10  -2  132.99   21.93
  -2 -10   2  182.82   29.44
   4 -10  -2  107.57   27.66
   4 -10   2  151.81   31.78
  -4 -10   2   77.87   25.61
   4 -10   2  119.84   28.52
  -4 -10  -2  117.23   30.01
   4 -10  -2  105.18   26.22
   4  10  -2   62.10   20.42
  -4 -10  -2  105.61   27.85
   4  10   2   70.12   21.27
  -1 -11  -2  639.02   39.74
  -1 -11   2  620.05   41.65
  -1  11   2  589.02   38.82
   1  11   2  598.92   32.84
   1  11  -2  642.88   35.60
   1  11  -2  630.30   35.18
   1 -11  -2  613.79   40.88
  -1 -11  -2  628.76   40.38
   1 -11  -2  587.52   32.00
  -1  11  -2  602.65   30.26
  -1  11  -2  596.28   38.63
   1 -11   2  609.62   41.96
   1  11   2  590.94   33.71
  -3  11   2  330.41   37.91
  -3  11  -2  453.28   38.39
   3 -11   2  298.87   40.85
  -3 -11  -2  403.39   43.74
   3  11   2  420.16   41.69
   3 -11  -2  448.61   45.62
  -3 -11   2  513.66   56.24
  -3 -11  -2  341.97   41.98
   3 -11  -2  334.93   42.62
   3  11  -2  324.03   37.85
   0  12  -2  153.87   20.51
   0 -12  -2  159.10   26.80
   0  12   2  162.94   25.14
   0  12  -2  165.89   25.29
   0 -12   2  145.48   26.69
   0  12   2  130.29   17.40
  -2 -12  -2  125.79   26.37
   2 -12  -2   94.46   23.79
   2  12   2  147.19   24.60
  -2  12   2  151.88   27.29
   2 -12  -2  135.56   24.37
  -2 -12   2  139.98   27.07
   2 -12   2  115.25   26.31
  -2  12  -2  159.50   29.17
   2  12  -2  153.08   26.08
   4 -12  -2   30.88   21.11
   4  12  -2   70.76   23.54
  -4 -12  -2   47.14   25.30
  -4 -12   2   86.81   29.66
  -4  12  -2   96.30   26.47
   4 -12   2   88.35   30.30
   4  12   2  184.44   33.46
   4 -12  -2   95.00   28.78
  -1  13  -2   52.67   19.33
   1 -13   2   59.59   21.02
  -1  13   2   36.72   15.61
   1  13  -2   51.51   16.02
   1  13   2   36.95   13.79
   1 -13  -2   50.70   18.95
  -1 -13  -2   54.14   17.83
  -1 -13   2   42.82   17.69
   1  13  -2   34.60   14.29
   1  13   2   46.23   14.71
  -3  13   2   46.52   19.42
  -3  13  -2   27.19   16.53
   3  13   2   50.99   20.33
   3 -13   2    7.72   17.57
  -3 -13   2   61.83   23.73
   3 -13  -2   58.28   22.44
  -3 -13  -2   46.75   21.53
   3  13  -2   12.40   17.22
   0  14   2   64.46   19.32
   0  14  -2   39.28   14.72
   0 -14  -2   19.73   15.66
   0  14  -2   33.32   15.45
   0 -14   2   16.32   14.88
  -2 -14   2   33.70   20.96
  -2  14   2   20.94   14.86
  -2  14  -2   23.92   16.17
   2 -14  -2  -14.47   11.35
   2 -14   2   21.55   19.98
   2  14  -2   20.14   16.75
   2  14   2   57.14   19.09
  -2 -14  -2   24.10   18.55
   4  14   2   53.31   22.98
   4 -14  -2    0.30   19.06
  -4 -14   2   15.02   22.58
   4 -14   2   -3.39   21.18
  -4  14   2   10.83   18.67
  -4  14  -2   29.89   20.08
  -4 -14  -2  -22.33   16.89
   4  14  -2   28.29   22.28
  -1  15  -2   16.24   15.56
   1  15  -2    3.34   14.48
   1  15   2   29.86   16.37
  -1 -15  -2   19.12   15.93
  -1 -15   2   18.56   17.36
  -1  15   2    6.48   11.87
   1 -15   2    7.11   14.75
   1 -15  -2    3.80   16.50
   1  15  -2    2.65   13.34
   1  15   2   20.93   14.86
  -3  15  -2   12.24   16.84
  -3 -15   2   11.68   19.25
   3 -15  -2   13.10   20.91
   3 -15   2   10.18   18.87
   3  15   2   39.56   22.12
  -3  15   2   13.15   15.12
  -3 -15  -2   12.71   21.09
   3  15  -2    7.16   17.81
   0  16   2   44.04   19.98
   0 -16   2    6.96   16.69
   0 -16  -2   -4.68   14.01
   0  16  -2    3.39   14.41
  -2 -16   2   52.71   24.79
   2 -16  -2   32.66   21.29
   2 -16   2    2.48   19.48
   2  16   2   13.01   17.40
  -2  16  -2   36.84   20.91
   2  16  -2   38.66   19.64
  -2 -16  -2    2.30   17.94
  -2  16   2   40.54   18.83
  -1 -17  -2   85.15   28.05
  -1 -17   2   39.17   22.80
   1  17  -2   78.65   24.09
   1 -17   2   86.10   28.47
   1  17   2   63.69   21.45
  -1  17   2   60.63   22.20
  -1  17  -2   95.94   26.33
   1 -17  -2   31.63   22.09
   0 -18  -2    4.43   19.24
   0  18   2   32.14   19.83
   0  18  -2   32.94   19.77
   0 -18   2   34.35   23.20
  -2 -18  -2   26.41   22.62
   2  18  -2   72.50   27.69
   2 -18   2   45.14   26.64
  -2  18  -2    0.64   16.72
   2 -18  -2   55.67   28.56
  -2 -18   2   20.03   23.50
  -2  18   2   22.11   20.14
   1  19   2   92.72   27.96
   1  19  -2   45.56   22.55
  -1 -19  -2   97.31   33.12
  -1  19  -2   72.74   26.80
   1 -19  -2   32.38   28.36
  -1  19   2   94.43   30.35
  -1 -19   2   52.83   27.87
   1 -19   2  121.63   39.81
   0   0  -3    1.08    4.20
   0   0   3    0.99    2.91
   0   0   3   -3.61    2.67
   2   0  -3    8.12    6.49
  -2   0   3    0.98    2.78
   2   0   3    0.60    5.40
   2   0  -3    1.32    4.76
   2   0   3   -5.72    6.03
  -2   0   3   -7.23    5.64
  -2   0  -3   10.57    5.85
   2   0   3   -0.92    3.48
  -4   0   3    0.86    9.12
   4   0   3    2.46    8.93
   4   0   3  -13.21    7.40
  -4   0  -3    2.82    9.81
   4   0  -3   -3.27    9.37
   4   0  -3    6.60    8.81
  -1  -1   3  122.67   13.08
   1  -1   3  123.34   10.98
   1  -1   3  137.76   12.83
   1  -1  -3  100.94    8.32
  -1   1   3  121.85   12.80
   1   1   3   77.99    9.74
   1   1  -3  126.68   11.54
   1  -1   3  134.62   11.76
   1   1  -3  122.94   10.69
  -1  -1   3   94.96    7.18
   1  -1   3  145.29   14.21
   1  -1  -3  101.20   11.87
   1   1   3  109.15   13.09
  -1   1   3  108.28    8.60
   1   1   3  111.92    8.84
  -1  -1  -3  128.70   10.75
   3   1   3   55.49   13.46
   3  -1  -3   83.49   17.97
   3   1   3   88.47   18.23
   3   1  -3   93.63   15.75
  -3  -1   3   98.04   19.23
  -3  -1  -3   95.49   18.43
   3  -1  -3   69.67   13.44
  -3   1  -3   85.12   16.38
   3  -1   3   57.32   12.96
  -3   1   3   76.11   16.77
   3  -1   3   88.32   19.33
   3   1  -3   74.25   17.47
   5   1  -3   68.40   25.79
   5   1   3   44.85   21.20
  -5  -1  -3   11.33   13.00
   5   1   3   74.82   22.08
   5   1  -3   36.52   18.28
   5  -1   3   70.95   24.15
  -5   1  -3   33.22   18.81
  -5  -1   3   68.15   23.53
   5  -1   3   57.50   20.07
  -5   1   3   36.11   19.50
   5  -1  -3   47.77   21.76
   0  -2  -3   38.33    9.94
   0  -2   3   38.45    6.88
   0   2   3   38.36    6.37
   0  -2   3   33.34    6.57
   0  -2  -3   34.78    5.48
   0   2   3   31.46    4.30
   0   2  -3   35.99    6.82
   2   2  -3   25.50    8.24
   2  -2  -3   36.32    7.31
   2   2   3   29.48    8.98
  -2   2   3   23.87    6.26
   2   2  -3   35.47   10.51
   2  -2  -3   35.96   10.43
   2  -2   3   27.37    9.33
  -2   2   3    4.66    6.21
   2  -2   3   31.09    8.27
   2   2   3   22.16    9.02
  -2  -2  -3   18.59    7.82
  -2  -2   3   34.27   10.48
   2  -2   3   25.76    7.05
   2  -2   3   21.60    8.41
   4   2   3    6.69   11.03
   4   2  -3   29.92   15.08
  -4   2   3   11.50   12.01
   4   2   3    3.37   10.48
   4   2  -3   -3.34    9.11
  -4   2  -3    7.93   11.72
  -4  -2   3    0.63   10.03
   4  -2   3   20.67   11.17
  -4  -2  -3    9.67   12.10
   4  -2   3   -3.32   11.04
   4  -2  -3   12.65    8.79
   4  -2  -3    3.26   11.05
  -1  -3   3 1678.23   32.73
  -1  -3  -3 1660.27   38.97
   1   3  -3 1646.08   37.32
   1  -3  -3 1665.91   41.77
   1   3   3 1612.12   39.85
   1  -3   3 1628.31   39.75
   1  -3   3 1730.90   40.75
   1  -3   3 1681.43   39.37
   1  -3  -3 1626.83   43.05
  -1  -3  -3 1655.43   42.83
   1  -3   3 1706.59   39.54
  -1  -3   3 1658.60   43.72
  -1   3   3 1744.60   40.24
   1   3   3 1652.43   33.68
   1   3  -3 1695.04   41.56
   3   3   3  808.18   42.57
   3   3   3  836.39   39.89
   3  -3  -3  755.20   42.00
  -3  -3   3  781.65   41.91
   3   3  -3  812.62   38.77
   3  -3   3  877.85   37.62
  -3   3   3  881.84   31.37
   3  -3   3  818.84   42.75
  -3   3   3  834.22   42.75
  -3   3  -3  865.76   41.53
   3   3  -3  840.20   42.83
  -3  -3  -3  791.39   38.87
   3  -3  -3  872.69   32.89
   5  -3   3  456.50   55.29
  -5  -3  -3  361.51   44.25
  -5   3  -3  456.28   54.15
   5   3  -3  440.67   46.58
   5   3  -3  468.62   55.69
   5   3   3  527.53   52.81
   5  -3  -3  378.30   49.50
  -5   3   3  448.80   53.95
   5   3   3  536.31   61.65
  -5  -3   3  612.53   60.64
   0  -4   3    3.11    5.28
   0   4   3    3.53    3.79
   0   4   3   -1.13    4.00
   0  -4   3    0.15    5.77
   0   4  -3    5.82    4.79
   0  -4  -3   -5.17    4.24
   0  -4  -3    1.25    6.70
   2  -4  -3    4.07    3.57
  -2  -4   3   -2.25    5.54
   2   4   3    4.46    3.67
  -2   4   3   -5.97    2.92
   2  -4  -3    4.96    6.80
   2  -4   3    2.79    5.40
   2  -4   3   -7.60    4.85
   2   4  -3    0.38    5.64
   2  -4  -3   -4.48    6.48
   2  -4   3   -3.98    4.19
   2   4   3    1.53    5.19
   2  -4   3    2.37    6.93
  -2  -4  -3   -2.31    6.00
  -2  -4  -3    0.80    5.74
   2   4  -3    1.44    6.17
   4   4   3  -13.32    8.72
   4   4  -3  -10.92   10.70
  -4   4  -3    2.10    9.90
  -4   4   3  -11.27    8.66
   4  -4   3    1.99   10.12
   4  -4  -3   -5.63    9.75
  -4  -4   3   10.53   12.88
   4   4   3   12.96   11.70
  -4  -4  -3   23.89   13.65
   4  -4   3   -7.47    7.94
   4   4  -3    6.46   10.05
   1  -5   3  242.84   18.56
   1  -5  -3  222.41   17.05
  -1  -5   3  241.17   14.20
  -1  -5  -3  208.77   17.18
  -1  -5  -3  216.47   16.17
   1   5  -3  237.16   17.52
   1   5   3  235.98   14.34
   1   5  -3  241.70   13.14
  -1   5   3  212.74   16.15
  -1   5  -3  229.09   15.56
   1   5   3  234.24   16.35
   1  -5  -3  221.58   17.53
  -1  -5   3  238.99   18.95
   1  -5   3  255.58   14.97
   1  -5   3  262.73   18.10
   3   5  -3  181.37   25.30
   3  -5  -3  105.58   22.05
   3   5  -3  143.34   21.28
   3   5   3  119.37   21.86
   3   5   3  114.29   19.90
   3  -5   3  135.39   18.49
  -3   5  -3  138.00   18.77
  -3   5   3  129.49   17.31
   3  -5   3  201.64   26.88
  -3  -5   3  115.29   21.63
   3  -5   3  167.15   25.76
   3  -5  -3  159.44   25.63
  -3  -5  -3  165.58   23.81
  -5  -5  -3  101.52   27.42
  -5   5  -3   81.77   25.86
   5   5  -3   91.36   25.64
  -5  -5  -3   51.33   24.34
   5   5   3   33.97   20.36
  -5  -5   3   62.38   22.92
   5  -5  -3  102.31   29.44
   5   5  -3   97.65   28.04
   5  -5   3   97.33   28.61
  -5   5   3   58.19   23.73
   0   6   3    0.70    4.71
   0   6   3    3.73    3.99
   0  -6  -3   -3.32    5.43
   0  -6   3    1.98    5.43
   0  -6  -3    0.99    6.36
   0  -6   3    6.43    7.16
   0   6  -3    7.40    5.77
   2  -6   3    4.38    5.77
   2   6  -3   -9.66    5.06
   2  -6   3   -3.69    6.78
   2  -6   3   -8.25    5.30
  -2  -6  -3    5.16    6.66
   2   6  -3   -2.53    5.46
   2  -6  -3   -5.51    6.43
   2   6  -3    0.69    3.63
   2  -6  -3    2.04    6.33
   2  -6   3   -6.26    5.53
  -2  -6  -3    2.97    7.54
  -2   6   3   -3.02    4.67
   2   6   3   -4.57    3.52
  -2  -6   3   -3.97    7.58
   2   6   3   -5.65    5.00
   4   6  -3    8.77   11.61
  -4  -6   3    9.98   15.35
   4  -6   3    8.19   14.28
  -4  -6  -3    4.91   13.22
  -4  -6  -3   11.10   14.08
   4  -6  -3    6.39   12.09
  -4   6  -3   15.61   13.05
  -4   6   3   -6.47    8.48
   4   6  -3   -0.92   11.46
   4   6   3    7.66   10.60
   1  -7   3 1003.29   39.86
   1  -7  -3 1039.48   40.81
  -1   7  -3 1005.87   33.13
   1  -7  -3 1105.55   38.75
   1   7   3 1054.60   35.41
  -1  -7  -3 1062.98   42.18
  -1  -7   3 1083.32   30.64
   1   7   3 1018.89   36.11
  -1   7   3 1061.73   40.30
  -1  -7  -3 1114.63   40.80
   1  -7   3 1065.64   42.88
  -1  -7   3 1039.49   34.81
   1   7  -3 1065.82   39.21
   1  -7   3  999.86   30.43
  -1  -7   3 1054.46   43.59
  -1   7   3 1075.70   22.08
  -3  -7  -3  667.05   41.48
   3  -7  -3  648.83   41.27
   3   7  -3  632.93   38.89
  -3  -7   3  563.00   41.37
   3  -7  -3  667.26   42.22
  -3   7  -3  648.39   36.58
   3  -7   3  635.78   38.34
  -3  -7  -3  680.18   40.57
   3   7   3  611.09   37.76
   3  -7   3  625.44   40.36
   3  -7   3  654.74   34.17
   3   7  -3  625.00   37.85
  -3   7   3  626.15   34.76
  -5  -7   3  275.79   43.54
   5   7  -3  379.52   50.72
  -5   7   3  359.43   51.43
  -5  -7  -3  410.53   53.31
  -5  -7  -3  382.47   51.64
   5  -7   3  245.83   41.58
   5  -7  -3  388.79   50.47
   5   7  -3  259.86   39.01
  -5   7  -3  300.97   46.05
   5   7   3  355.79   45.15
   0  -8   3  391.67   25.09
   0   8  -3  385.48   22.85
   0   8   3  387.49   23.90
   0  -8  -3  339.08   22.92
   0   8   3  388.25   18.70
   0  -8   3  348.93   25.79
   0  -8   3  360.36   13.23
   0  -8  -3  442.53   26.59
  -2  -8  -3  306.48   32.15
   2   8   3  255.91   17.69
  -2  -8   3  263.30   30.34
   2   8   3  300.38   25.06
  -2   8  -3  254.05   19.55
   2  -8  -3  276.78   30.99
  -2   8   3  336.30   25.81
   2  -8  -3  309.93   31.23
   2   8  -3  263.57   17.57
   2  -8   3  356.52   35.77
  -2  -8  -3  262.07   29.04
   2  -8   3  310.63   22.46
   2   8  -3  250.94   27.28
  -2  -8   3  228.13   19.48
   4   8  -3  161.65   29.02
  -4  -8  -3  175.93   33.33
  -4  -8  -3  152.77   28.66
   4  -8   3  150.39   29.53
   4   8   3   94.76   25.70
  -4  -8   3  129.62   29.85
   4  -8   3  153.56   30.03
  -4   8   3  182.40   32.45
   4   8  -3  170.78   30.90
   4  -8  -3  133.81   29.47
  -1   9  -3   -2.49    5.09
  -1  -9  -3   -8.31    7.73
   1  -9   3  -12.88    6.64
   1  -9  -3   -4.62    7.48
   1   9   3    4.21    6.76
  -1   9   3   -7.14    5.91
  -1  -9   3   -2.38    5.86
   1  -9  -3    5.02    7.30
   1   9  -3   -1.16    6.97
   1   9  -3    4.64    6.26
   1   9   3    5.47    7.06
   1  -9   3   -9.93    6.12
   1  -9   3   -0.33    5.12
  -1  -9   3    4.15    9.31
  -1  -9  -3    0.04    6.84
   3  -9  -3    4.54   13.14
  -3  -9  -3   -5.72   10.11
  -3  -9   3    8.79   10.85
   3   9   3    8.94   11.26
  -3  -9  -3   19.94   13.66
   3   9  -3   -7.25    9.57
   3  -9  -3   -9.98    7.42
  -3   9  -3    3.88    9.46
   3  -9   3    6.60   10.59
   3  -9   3   12.83   13.31
  -3  -9   3  -11.90    9.48
  -3   9   3   -1.78    7.83
  -5  -9  -3   20.48   21.13
   5   9   3  -20.17   13.64
   5  -9  -3   17.58   19.10
   5   9  -3   12.16   15.43
  -5  -9   3   21.93   22.11
  -5   9   3    3.13   17.36
  -5   9  -3   24.12   19.76
   5  -9   3   -9.85   17.65
   0  10  -3   33.72   10.62
   0 -10  -3   11.64    9.80
   0 -10   3   14.95   12.26
   0  10   3   20.60    9.73
   0  10  -3   33.41   11.92
   0  10   3    9.90    6.59
   0 -10  -3   44.14   11.95
  -2 -10  -3   19.38   12.28
  -2  10  -3   18.83   11.34
   2  10   3   17.66   12.41
   2  10   3   20.14    8.70
   2 -10  -3   36.48   15.67
   2 -10  -3   18.02   13.29
   2 -10   3   22.52   13.25
   2 -10   3   18.91   10.04
  -2 -10   3    2.92   11.43
  -2  10   3   -0.90    8.10
  -2 -10  -3   24.71   12.88
   2  10  -3   21.89    9.73
   2  10  -3   15.50   10.98
   4  10  -3   43.67   19.18
  -4 -10   3   13.69   18.04
   4 -10  -3   -0.75   14.63
   4  10   3   16.90   16.17
  -4 -10  -3   17.56   17.36
   4 -10   3   15.17   18.25
   4 -10  -3    8.41   17.28
  -4 -10  -3    8.33   16.25
   4 -10   3   29.77   18.16
  -1 -11   3  445.27   36.37
   1  11   3  447.19   30.11
   1  11   3  454.95   28.88
  -1  11  -3  487.76   35.59
   1  11  -3  383.77   29.04
  -1  11  -3  396.81   26.09
   1 -11  -3  456.13   29.59
   1  11  -3  453.47   30.31
   1 -11   3  438.89   43.84
  -1 -11  -3  472.08   37.10
   1 -11  -3  409.34   33.80
  -1  11   3  459.93   33.57
  -1 -11  -3  455.86   33.94
  -3 -11   3  219.96   36.72
   3 -11   3  291.63   40.58
   3  11  -3  252.28   33.82
  -3 -11  -3  266.83   36.26
   3 -11  -3  306.68   38.83
  -3 -11  -3  232.91   33.93
   3  11   3  294.44   36.11
  -3  11  -3  314.15   38.44
  -3  11   3  278.16   34.03
   3 -11  -3  274.42   38.81
   0 -12   3  114.58   23.26
   0 -12  -3  195.04   23.42
   0  12  -3  206.00   27.01
   0 -12  -3  141.03   25.17
   0  12  -3  182.39   22.89
   0  12   3  188.73   19.89
   0  12   3  166.42   24.90
   2 -12  -3  125.61   23.59
  -2 -12  -3  151.69   27.85
   2  12   3  162.60   25.59
   2  12  -3  159.63   25.70
   2 -12  -3  117.40   28.12
  -2 -12   3  107.50   26.62
   2 -12   3  136.40   29.16
  -2  12   3  159.20   27.16
  -2  12  -3  110.36   22.80
  -4  12  -3   75.63   22.57
   4 -12   3   18.16   22.10
   4  12   3   68.00   25.02
   4  12  -3   55.50   22.87
  -4 -12  -3   56.05   24.07
   4 -12  -3   81.68   27.05
   4 -12  -3   27.91   20.10
  -4 -12   3  108.38   32.80
  -1 -13   3    6.30   14.28
   1  13  -3   22.05   12.66
  -1 -13  -3  -10.75   10.00
   1  13   3    0.01    9.86
   1 -13   3    1.54   14.17
   1 -13  -3    8.44   15.57
   1  13  -3   13.92   11.23
   1  13   3   15.54   11.19
  -1  13  -3   -0.30    9.71
  -1  13   3    3.60   10.55
   3  13  -3   -0.54   12.75
   3  13   3    9.19   14.05
  -3 -13   3   20.82   18.60
   3 -13   3   21.92   18.31
  -3  13  -3    6.59   14.07
  -3  13   3    1.41   13.38
   3 -13  -3   23.62   18.39
  -3 -13  -3    8.81   17.35
   0 -14  -3   35.22   17.94
   0  14  -3    8.26   12.15
   0 -14   3   11.52   14.02
   0  14  -3   14.63   11.72
   0  14   3   17.49   12.12
   2 -14   3   -6.43   14.95
  -2 -14   3    6.31   14.27
  -2  14   3   24.18   14.61
  -2  14  -3    9.00   14.10
   2  14   3   -1.56   13.18
  -2 -14  -3   28.69   18.93
   2  14  -3   30.82   16.01
   2 -14  -3    5.09   14.83
   4  14  -3   15.65   21.54
  -4  14  -3   15.82   18.62
   4 -14   3   40.03   27.10
  -4  14   3   18.81   19.57
  -4 -14  -3    5.28   21.93
   4 -14  -3   -2.68   19.03
  -4 -14   3  -13.70   19.69
   4  14   3   12.17   19.00
  -1 -15   3  694.46   53.53
  -1  15   3  859.43   54.94
   1  15  -3  715.58   47.47
   1  15  -3  881.29   50.64
   1 -15   3  726.25   56.30
  -1 -15  -3  758.10   53.39
   1 -15  -3  864.92   59.07
  -1  15  -3  704.31   51.09
   1  15   3  794.75   48.36
  -3  15   3  475.65   53.53
  -3 -15  -3  572.33   61.20
   3  15  -3  609.51   58.92
  -3 -15   3  439.26   58.36
  -3  15  -3  575.96   61.71
   3  15   3  564.39   54.26
   3 -15  -3  463.70   57.88
   0 -16  -3   15.98   17.88
   0 -16   3   30.77   21.00
   0  16  -3    3.02   13.49
   0  16   3   21.95   18.85
   2 -16  -3   65.60   27.48
  -2 -16   3    4.50   18.80
  -2 -16  -3    6.24   17.91
   2 -16   3   16.98   20.95
   2  16  -3    6.75   16.24
  -2  16   3   31.57   20.63
   2  16   3   -5.12   14.54
  -2  16  -3   32.19   21.56
   1 -17   3   20.30   21.41
   1 -17  -3   44.94   23.71
   1  17   3    9.31   15.85
  -1  17  -3   19.04   16.37
   1  17  -3    5.00   15.10
  -1 -17   3    2.28   17.40
  -1  17   3    1.63   16.29
   1  17  -3   44.70   22.17
  -1 -17  -3   52.79   24.20
   0  18  -3  270.93   44.88
   0 -18  -3  177.01   40.07
   0  18   3  157.81   33.90
   0 -18   3  179.66   41.06
  -2  18  -3  162.60   37.20
  -2 -18   3  128.44   37.06
   2 -18  -3  166.62   41.71
  -2  18   3  112.79   33.18
   2  18  -3  113.80   30.53
  -2 -18  -3  139.52   34.81
   2 -18   3  149.23   37.39
   1  19   3  181.08   36.46
   1  19  -3  183.43   35.95
  -1  19  -3  120.89   35.32
  -1  19   3  179.55   39.00
   1 -19   3  140.73   36.36
  -1 -19  -3  147.88   37.71
  -1 -19   3   90.54   33.64
   1 -19  -3  122.63   35.59
   0   0  -4  252.06   15.34
   0   0   4  240.40   12.38
   0   0   4  230.01   11.84
   2   0   4  197.70   21.75
  -2   0   4  154.77    9.84
   2   0   4  171.66   17.89
  -2   0  -4  166.87   17.16
  -2   0   4  177.54   20.26
   2   0  -4  159.25   13.52
   2   0  -4  162.55   18.71
   2   0   4  173.84   11.54
   4   0   4  110.49   25.82
  -4   0  -4   70.97   19.12
  -4   0   4   84.22   22.80
   4   0  -4   81.05   17.39
   4   0   4   87.11   18.91
   4   0  -4   65.86   19.94
  -1   1   4 1202.58   28.33
  -1  -1  -4 1158.54   33.92
  -1  -1   4 1203.51   33.89
   1   1  -4 1210.25   32.35
   1   1  -4 1191.07   29.91
   1  -1  -4 1226.29   24.84
   1  -1  -4 1202.24   34.66
  -1  -1  -4 1202.10   25.96
   1   1   4 1226.25   29.10
   1  -1   4 1200.33   32.54
  -1   1   4 1231.43   33.03
   1  -1   4 1098.40   30.93
   1  -1   4 1173.37   29.87
  -1  -1   4 1199.65   26.77
   1   1   4 1166.12   31.68
   1  -1   4 1203.61   27.37
  -3  -1   4  605.45   36.22
  -3   1  -4  578.50   32.47
   3  -1   4  582.66   36.04
   3  -1  -4  618.44   29.12
   3   1   4  618.38   34.01
   3  -1   4  596.35   23.36
   3   1  -4  590.40   35.95
   3  -1  -4  605.59   36.57
   3   1  -4  602.43   30.88
  -3   1   4  594.36   35.53
   3  -1   4  622.65   33.27
   3   1   4  542.27   35.31
  -3  -1  -4  565.87   32.38
   5   1   4  296.62   43.07
   5  -1   4  298.51   38.80
  -5  -1   4  242.68   38.72
   5   1  -4  263.65   41.07
   5   1   4  280.12   39.62
  -5   1   4  314.70   45.98
  -5   1  -4  289.33   41.44
   5  -1   4  239.56   39.58
   5  -1  -4  205.37   38.03
  -5  -1  -4  223.20   36.95
   0   2   4  604.12   15.76
   0   2   4  609.18   20.07
   0  -2  -4  597.87   26.57
   0  -2   4  589.92   19.99
   0  -2   4  661.06   20.03
   0  -2  -4  628.72   16.13
   0   2  -4  643.49   21.02
   2  -2  -4  458.80   18.86
  -2   2   4  459.00   19.80
   2   2   4  458.71   16.71
   2  -2   4  450.69   23.60
  -2  -2   4  471.33   26.78
   2  -2   4  465.37   26.55
  -2   2   4  480.15   26.73
   2   2   4  425.87   26.08
   2   2  -4  439.37   23.00
   2  -2   4  450.55   23.59
   2  -2   4  489.06   21.40
   2  -2  -4  419.53   25.96
   2   2   4  462.88   25.13
  -2  -2  -4  494.68   23.80
   2   2  -4  442.16   25.16
  -4   2  -4  358.71   39.23
   4  -2  -4  309.70   40.41
   4   2   4  262.22   31.94
   4   2  -4  254.34   35.19
   4   2  -4  319.71   33.48
  -4  -2  -4  343.39   37.72
   4  -2   4  291.02   35.97
  -4   2   4  232.38   32.30
   4   2   4  338.55   40.06
  -4  -2   4  313.88   39.15
   4  -2   4  262.06   30.42
  -1   3   4  523.50   21.76
   1  -3   4  502.44   21.80
   1  -3   4  516.64   22.08
   1   3   4  501.31   21.47
   1   3  -4  509.74   19.42
  -1  -3   4  508.03   17.51
  -1  -3   4  526.64   24.31
   1  -3  -4  527.51   22.72
   1  -3   4  526.29   21.41
   1  -3  -4  507.76   23.96
   1  -3   4  521.76   20.50
  -1  -3  -4  570.33   20.36
   1   3   4  507.47   18.89
   1   3  -4  525.88   22.52
  -3   3   4  288.01   33.07
   3  -3  -4  269.46   30.87
   3  -3  -4  271.18   18.86
   3   3  -4  239.82   25.48
  -3  -3  -4  289.38   28.56
   3   3   4  280.76   29.00
  -3  -3   4  285.13   33.38
   3  -3   4  278.78   19.27
  -3   3  -4  247.59   27.21
  -3   3   4  255.55   17.78
   3   3   4  257.59   30.16
   3  -3   4  332.71   34.73
   3  -3   4  301.44   23.03
   3   3  -4  270.99   30.49
  -5   3  -4   98.15   25.76
  -5  -3  -4   83.10   23.43
  -5  -3   4   90.75   25.25
   5  -3  -4  141.48   31.65
   5  -3   4  198.65   37.47
   5   3  -4   90.76   27.22
   5   3   4  176.46   35.90
   5   3   4  211.75   34.47
  -5   3   4  152.99   34.61
   5   3  -4  173.01   29.82
   0  -4   4 2801.59   59.14
   0  -4   4 2773.11   56.32
   0   4   4 2809.73   45.76
   0   4  -4 2855.92   55.75
   0   4   4 2839.47   56.64
   0  -4  -4 2703.62   65.69
   0  -4  -4 2794.45   52.53
   2  -4   4 1900.41   55.08
  -2  -4   4 1849.48   57.91
   2   4  -4 1852.22   52.60
   2   4  -4 1876.88   53.56
   2  -4   4 1827.46   53.18
   2  -4  -4 1871.30   58.68
   2  -4  -4 1861.10   56.25
  -2   4   4 1817.46   49.16
  -2  -4  -4 1815.54   57.23
   2  -4   4 1905.19   50.65
   2   4   4 1925.78   40.63
   2  -4   4 1846.43   50.60
   2   4   4 1836.49   53.98
   2  -4  -4 1903.15   36.38
  -2  -4  -4 1930.53   53.06
   4   4  -4  838.35   46.29
   4   4   4  833.88   53.09
  -4   4  -4  859.62   48.83
   4  -4   4  919.99   46.27
   4  -4   4  758.07   49.15
  -4  -4  -4  855.39   48.59
   4  -4  -4  892.54   53.07
   4   4  -4  867.46   51.96
  -4  -4   4  780.04   49.83
   4   4   4  782.44   46.37
  -4   4   4  702.07   47.30
  -1   5   4 1111.95   37.11
   1  -5   4 1107.43   30.98
  -1  -5   4 1164.73   41.06
  -1  -5  -4 1159.16   40.73
  -1   5  -4 1195.76   36.34
  -1  -5  -4 1155.48   35.74
   1   5  -4 1112.92   37.05
   1   5   4 1089.64   34.51
   1  -5   4 1203.94   39.17
   1   5  -4 1159.84   29.45
   1   5   4 1184.17   33.35
   1  -5   4 1159.80   38.45
   1  -5  -4 1144.63   37.79
   1  -5  -4 1137.38   38.70
  -1  -5   4 1140.77   32.64
   3  -5  -4  671.78   40.80
  -3  -5  -4  685.48   41.40
  -3   5   4  661.66   32.12
   3  -5  -4  685.55   41.04
   3   5  -4  667.39   37.51
  -3  -5   4  686.66   41.71
  -3  -5  -4  671.12   37.75
   3   5   4  734.41   39.23
   3  -5   4  606.84   37.44
   3   5  -4  660.37   38.35
   3  -5   4  681.21   34.55
   3  -5   4  581.22   31.30
   3  -5   4  657.41   39.00
  -5   5   4  314.14   44.05
  -5  -5  -4  289.23   41.10
   5   5   4  347.60   45.98
   5   5  -4  410.16   51.29
   5  -5   4  370.38   49.96
  -5   5  -4  325.21   46.21
  -5  -5  -4  456.95   58.38
   5  -5  -4  290.40   44.74
   5   5  -4  371.49   46.29
  -5  -5   4  355.42   48.38
   0  -6   4 2595.24   64.86
   0   6   4 2625.56   48.33
   0  -6  -4 2590.70   65.64
   0   6   4 2540.62   59.61
   0   6  -4 2493.89   56.74
   0  -6   4 2508.53   59.52
   0  -6  -4 2593.46   58.77
  -2   6   4 1835.55   55.05
   2  -6   4 1871.49   58.46
  -2  -6  -4 1942.30   58.31
   2  -6   4 1908.94   55.42
  -2  -6  -4 1901.24   60.91
   2  -6  -4 1866.95   60.72
   2  -6   4 1916.12   57.52
  -2  -6   4 1840.57   63.89
   2   6   4 1768.76   55.59
   2   6  -4 1878.68   53.15
   2   6  -4 1842.49   58.02
   2  -6   4 1882.33   54.05
   2  -6  -4 1923.48   61.07
   2   6   4 1892.40   44.17
   4   6   4 1149.92   57.18
  -4   6  -4 1024.80   57.38
  -4  -6  -4 1147.04   59.05
   4   6  -4 1102.28   58.16
  -4   6   4 1027.69   58.95
   4  -6  -4 1042.09   60.33
   4  -6   4 1070.91   58.04
  -4  -6  -4 1132.47   62.22
  -4  -6   4 1030.91   60.57
   4   6  -4 1090.92   55.80
  -1  -7  -4  529.29   28.07
  -1  -7  -4  573.84   32.58
   1   7   4  535.21   25.21
   1  -7   4  544.64   29.35
   1  -7  -4  553.29   28.21
   1  -7  -4  520.87   28.45
   1   7   4  527.10   26.16
  -1  -7   4  522.54   24.88
   1   7  -4  502.27   27.75
  -1   7  -4  521.89   24.94
   1  -7   4  544.04   31.11
  -1  -7   4  541.89   19.84
  -1   7   4  546.67   28.83
  -1  -7   4  550.39   32.27
   1  -7   4  510.65   20.62
   3  -7   4  404.34   40.53
  -3  -7  -4  354.65   35.33
   3  -7   4  374.49   37.34
   3   7   4  339.77   34.41
  -3   7   4  270.74   27.72
  -3  -7  -4  273.00   32.68
  -3  -7   4  263.18   34.30
  -3   7  -4  286.66   29.84
   3  -7  -4  348.10   36.85
   3   7  -4  267.30   29.90
   3  -7   4  320.43   25.64
   3  -7  -4  383.84   38.57
   3   7  -4  325.42   33.24
  -5  -7   4  176.87   38.95
   5   7  -4  186.12   38.77
   5  -7  -4  146.21   34.68
  -5   7   4  103.34   29.17
   5  -7   4  152.71   34.60
  -5  -7  -4  197.31   39.25
   5   7  -4  105.68   25.97
  -5   7  -4  140.64   34.19
   5   7   4   82.25   25.33
   0   8   4    5.82    5.28
   0   8  -4   -1.79    6.32
   0  -8  -4   -3.68    6.01
   0  -8  -4    0.28    6.80
   0  -8   4   10.07    7.48
   0   8   4   15.90    7.89
   0  -8   4   11.92    8.84
   2  -8  -4    6.09    8.85
   2  -8   4   11.77    8.82
   2   8  -4    5.21    7.70
   2   8   4    1.11    5.18
  -2  -8   4   -1.36    9.74
   2   8  -4    7.97    6.48
   2  -8  -4   11.30   10.33
  -2  -8  -4    3.85    8.50
   2  -8   4    9.40    8.46
   2   8   4    3.51    7.28
  -2   8  -4   -0.81    6.81
   2  -8   4   21.53   12.75
  -2  -8  -4   14.13   10.67
  -2  -8   4   -1.79    6.16
  -2   8   4    3.60    6.70
   4  -8  -4    1.94   14.57
  -4   8   4    6.09   14.05
   4  -8   4   17.04   14.13
   4  -8   4   15.35   16.02
   4   8  -4   -9.17   10.82
  -4  -8  -4   -8.31   12.96
  -4  -8  -4   13.76   16.69
   4   8   4    3.02   11.38
   4   8  -4    4.44   14.57
  -4  -8   4   -2.19   14.89
  -1  -9  -4 1471.22   53.13
   1   9  -4 1381.15   50.21
   1   9   4 1365.97   46.81
  -1  -9   4 1465.39   47.78
   1  -9   4 1340.34   52.50
  -1  -9   4 1320.34   55.18
   1  -9  -4 1335.56   48.19
  -1   9  -4 1374.79   43.85
   1  -9  -4 1399.74   53.35
   1   9   4 1353.03   45.65
  -1  -9  -4 1431.85   58.93
   1  -9   4 1369.75   36.75
   1  -9   4 1403.71   57.16
   3   9   4  901.53   48.31
   3  -9   4  856.07   45.96
   3  -9  -4  940.03   52.38
  -3   9   4  968.41   48.43
   3  -9  -4  865.91   49.94
  -3  -9   4  835.56   52.67
  -3  -9  -4  925.33   50.54
  -3  -9  -4  922.14   52.20
   3   9  -4  883.06   49.00
  -3  -9   4  899.03   45.50
  -3   9  -4 1007.32   50.76
   3  -9   4  928.23   53.32
  -5   9  -4  460.98   56.29
  -5   9   4  392.00   53.90
   5   9   4  458.16   55.15
   5  -9  -4  496.33   59.00
   5   9  -4  548.83   58.50
  -5  -9   4  518.30   65.14
   5  -9   4  501.28   57.22
  -5  -9  -4  458.96   56.82
   0 -10  -4  156.16   22.18
   0  10  -4  175.43   20.40
   0 -10  -4  176.37   24.67
   0  10   4  157.45   16.53
   0 -10   4  127.46   20.67
   0  10   4  194.62   23.48
   0 -10   4  168.53   22.98
   2  10   4  182.94   20.89
   2 -10  -4  125.57   22.94
   2 -10  -4  149.53   23.66
   2  10   4  179.61   24.52
  -2  10  -4  139.30   22.84
  -2 -10  -4  153.48   24.86
  -2 -10  -4  121.51   23.54
  -2  10   4  146.12   23.42
  -2  10  -4  159.21   19.54
   2  10  -4  124.39   18.31
  -2 -10   4  179.63   29.45
   2  10  -4  154.87   24.09
   2 -10   4  123.26   24.59
  -4 -10   4  116.61   30.05
   4 -10  -4  107.70   28.33
  -4 -10  -4   93.79   27.91
  -4 -10  -4  124.71   28.87
   4 -10   4  102.97   28.76
   4  10   4   63.47   20.62
   4  10  -4  126.28   29.19
   4 -10   4  149.80   30.84
   4 -10  -4   50.09   21.61
  -1  11   4   38.21   13.66
  -1 -11  -4   59.01   17.12
  -1  11  -4   33.24   12.62
  -1 -11   4   92.10   22.82
   1 -11  -4   91.45   17.58
   1 -11   4   42.11   17.97
  -1 -11  -4   51.92   18.82
   1  11   4   69.92   16.14
   1 -11  -4   60.70   17.30
  -1  11  -4   48.29   12.67
   1  11  -4   58.11   14.83
   1  11   4   59.39   13.81
   1  11  -4   63.66   15.62
   3  11   4   52.93   18.66
  -3  11   4   35.80   16.28
   3 -11  -4   53.37   20.17
  -3 -11  -4   33.28   17.80
  -3 -11  -4   38.75   20.60
  -3  11  -4   59.91   19.13
  -3 -11   4   58.58   22.33
   3 -11   4   13.62   16.77
   3 -11  -4   23.43   16.23
   3  11  -4   38.72   15.62
   0 -12  -4  399.17   29.82
   0  12  -4  374.24   28.45
   0  12  -4  314.04   33.14
   0 -12   4  312.16   37.89
   0  12   4  373.57   30.85
   0 -12  -4  381.53   39.61
  -2 -12   4  255.54   36.05
   2  12   4  382.97   36.59
  -2 -12  -4  272.31   37.68
   2 -12  -4  292.81   38.09
  -2  12   4  278.49   34.40
  -2  12  -4  277.59   34.71
   2 -12   4  327.06   40.84
  -2 -12  -4  335.22   39.11
   2 -12  -4  337.49   36.57
   2  12  -4  296.28   34.30
  -4  12  -4  181.45   32.34
   4 -12  -4  128.16   33.71
   4  12  -4  190.45   36.07
  -4 -12   4  137.00   35.16
  -4 -12  -4  153.52   34.78
   4 -12  -4  173.22   34.55
   4 -12   4  101.01   31.42
   4  12   4  206.04   37.30
   1 -13  -4  136.89   26.21
   1  13   4  164.95   24.49
   1 -13   4  122.30   26.29
   1  13   4  135.33   21.21
   1  13  -4  148.23   24.47
   1  13  -4  151.88   24.58
  -1  13   4  112.79   23.73
  -1  13  -4  102.84   21.72
  -1 -13  -4  204.13   30.15
  -1 -13   4  130.96   27.15
  -3 -13   4  113.26   30.52
  -3  13  -4   82.37   23.45
  -3  13   4  157.64   30.40
   3 -13   4   67.15   26.50
   3  13   4  129.08   26.79
  -3 -13  -4  126.19   31.03
   3 -13  -4   91.14   23.80
   3  13  -4  101.23   24.84
   3 -13  -4  118.00   29.42
   0  14   4  729.02   46.76
   0 -14  -4  797.48   51.15
   0  14  -4  899.43   51.90
   0 -14   4  731.60   52.82
   0  14  -4  832.35   45.27
   2  14  -4  738.36   48.68
  -2 -14   4  658.34   53.29
  -2  14   4  701.80   50.98
   2 -14  -4  710.94   53.92
   2 -14   4  702.44   56.66
   2  14   4  708.14   44.95
  -2 -14  -4  690.64   50.71
  -2  14  -4  709.13   51.87
  -1  15  -4   12.92   16.23
   1 -15  -4   14.34   16.23
   1  15   4   15.70   13.58
  -1 -15   4    0.83   14.26
   1  15  -4   -4.13   11.84
  -1 -15  -4   -2.24   12.69
   1  15  -4    1.34   14.28
   1 -15   4   -0.98   16.37
  -1  15   4   -5.70   10.63
  -3  15  -4   -2.03   13.95
   3  15   4   -7.85   13.40
   3 -15  -4   36.71   23.01
   3  15  -4    9.54   19.38
  -3 -15  -4    1.59   18.59
   3 -15   4   -5.57   19.17
  -3 -15   4  -15.78   18.73
  -3  15   4    4.10   13.83
   0 -16   4   -5.11   15.47
   0 -16  -4    4.84   18.12
   0  16   4   12.49   14.17
   0  16  -4   10.61   14.37
  -2  16  -4  -21.44   11.06
   2  16  -4    6.00   17.80
   2 -16  -4    9.71   21.02
  -2 -16   4    4.32   18.33
  -2  16   4   35.21   18.45
   2 -16   4    2.88   19.88
  -2 -16  -4   -4.85   17.29
   2  16   4   -6.18   16.06
  -1  17  -4  361.57   52.44
   1  17  -4  471.64   47.86
  -1 -17   4  332.87   49.58
   1 -17  -4  325.66   49.99
   1 -17   4  274.61   45.28
  -1  17   4  427.57   49.59
  -1 -17  -4  268.26   42.31
   1  17   4  321.95   41.71
   1  17  -4  338.58   43.07
   0 -18  -4  201.84   42.03
   0 -18   4  147.69   38.76
   0  18   4  204.70   39.26
   0  18  -4  254.54   45.23
   2  18  -4  142.99   32.93
   2 -18   4  119.25   35.23
   2 -18  -4  130.13   38.39
  -2 -18   4  146.92   37.82
  -2 -18  -4  102.96   32.24
  -2  18   4  148.47   36.17
  -2  18  -4  154.76   38.28
   1 -19   4  160.56   39.86
  -1  19   4  158.45   38.16
  -1 -19   4   82.60   28.93
  -1 -19  -4  149.14   39.49
   1  19   4  188.20   37.53
  -1  19  -4  145.02   34.67
   1  19  -4  125.85   33.21
   1 -19  -4  253.40   51.08
   0   0  -5    7.99    7.08
   0   0   5    3.82    4.86
   0   0   5   -6.94    4.08
   2   0   5   -0.45    6.00
   2   0   5   -1.80    4.72
  -2   0   5   14.21    7.71
  -2   0   5   -0.28    3.31
   2   0  -5    0.29    4.17
   2   0   5    0.26    4.30
   2   0  -5    0.53    5.57
  -2   0  -5    3.70    4.48
   4   0   5   -5.04    8.13
   4   0  -5    6.25    8.66
   4   0   5    4.81   10.92
  -4   0   5   -8.63    7.87
  -4   0  -5    0.34    8.75
   4   0  -5    5.44   12.25
   1   1  -5  819.19   24.90
  -1  -1   5  875.71   28.68
  -1  -1   5  821.36   23.58
  -1  -1  -5  824.64   29.00
  -1   1   5  840.87   27.49
  -1   1   5  783.67   24.19
   1   1   5  846.89   25.63
   1  -1   5  825.98   27.71
   1  -1   5  800.94   21.39
   1  -1  -5  803.71   20.59
   1  -1   5  830.35   26.30
   1   1   5  789.07   26.79
   1   1  -5  806.66   26.22
  -1  -1  -5  787.83   19.45
   1  -1   5  815.40   27.17
   1  -1  -5  812.84   29.41
   3  -1   5  434.00   20.60
   3  -1   5  366.32   26.30
  -3  -1  -5  393.53   27.19
   3  -1  -5  400.29   23.39
  -3   1  -5  392.37   26.65
  -3   1   5  393.12   29.45
   3   1  -5  433.77   30.67
   3   1   5  404.40   27.81
   3  -1  -5  425.54   31.34
  -3  -1   5  389.08   29.93
   3   1   5  387.34   30.35
   3   1  -5  425.72   26.64
   3  -1   5  394.98   30.21
   5   1   5  241.62   37.76
   5  -1  -5  249.86   41.78
   5   1  -5  256.86   42.51
  -5  -1  -5  277.58   41.03
  -5   1   5  123.75   27.31
  -5  -1   5  197.30   35.81
   5   1   5  181.21   35.73
   5  -1   5  263.37   42.65
  -5   1  -5  231.03   36.53
   5  -1   5  125.56   26.43
   0   2   5   -0.97    4.59
   0   2  -5    4.94    5.60
   0   2   5   -1.75    3.39
   0   2  -5    6.72    5.08
   0  -2   5    7.18    5.06
   0  -2   5    0.02    4.65
   0  -2  -5   -0.72    7.14
   0  -2  -5    4.45    3.81
   2   2   5    6.80    6.86
   2  -2   5   -4.21    4.58
  -2  -2   5    4.34    6.36
   2  -2  -5   -7.73    5.71
  -2   2   5   -2.98    5.14
   2   2  -5    0.65    4.80
   2  -2   5   -0.39    5.18
   2   2   5   -1.43    4.11
  -2  -2  -5    3.33    5.13
   2  -2  -5    0.20    3.60
  -2   2   5    2.88    4.13
   2   2   5    4.11    5.53
  -2  -2   5    8.67    3.88
   2  -2   5    7.59    5.67
   2   2  -5    8.61    6.96
   2  -2   5    7.47    6.67
   4   2   5   -5.04    8.13
   4   2   5    3.40   11.61
  -4  -2  -5  -10.87    8.22
  -4  -2   5    6.49   10.91
  -4   2   5   -0.97    9.69
   4   2  -5    5.23    9.00
   4  -2   5   -3.84    8.63
   4   2  -5   -5.59   10.39
  -4   2  -5    5.25   10.55
   4  -2  -5   -1.60    9.60
   4  -2   5   34.30   15.86
   1  -3   5  691.74   26.22
   1  -3  -5  644.79   28.01
  -1  -3   5  676.48   28.24
   1   3  -5  708.08   23.02
  -1  -3   5  696.13   22.12
   1   3   5  672.59   23.53
   1  -3   5  708.08   27.05
   1   3   5  664.95   25.36
   1  -3   5  680.93   23.86
  -1  -3  -5  714.15   22.24
   1  -3   5  709.72   24.72
   1  -3  -5  670.80   26.12
  -1  -3  -5  664.20   28.58
  -1   3   5  686.03   25.64
   1   3  -5  671.51   25.95
   3  -3   5  381.37   26.50
   3   3   5  381.70   30.89
   3   3  -5  398.82   27.51
   3  -3  -5  366.77   30.22
   3  -3  -5  370.60   21.34
  -3   3   5  383.57   30.03
   3  -3   5  325.33   27.87
  -3  -3  -5  380.47   25.98
   3  -3   5  385.24   22.99
   3   3  -5  371.99   28.69
  -3  -3   5  358.44   29.86
  -3   3   5  384.39   22.28
   3   3   5  398.83   29.12
  -3   3  -5  363.85   26.86
  -5   3  -5  233.45   39.48
   5  -3  -5  177.40   35.58
   5   3   5  214.16   36.30
   5   3   5  178.14   36.98
   5   3  -5  218.30   33.77
  -5  -3   5  205.66   37.38
  -5   3   5  216.58   42.12
   5   3  -5  233.04   40.42
   5  -3   5  167.68   32.70
   0   4   5   -0.31    3.22
   0  -4  -5    1.39    4.59
   0   4  -5    2.85    5.59
   0  -4   5    7.72    6.22
   0  -4   5   -2.26    5.15
   0  -4  -5   -5.57    7.63
   0   4   5    2.82    5.40
   2  -4  -5    6.51    7.32
  -2  -4   5   -2.53    6.80
  -2  -4   5    3.19    3.65
  -2   4   5   -3.55    4.03
   2  -4  -5   -1.95    6.45
   2  -4   5    2.82    5.55
   2  -4   5    0.35    5.77
  -2  -4  -5    6.51    6.35
   2  -4   5    8.31    7.33
   2   4   5    0.73    4.76
  -2  -4  -5    3.58    6.04
   2  -4  -5    2.51    3.14
   2   4   5   -8.57    3.64
   2  -4   5   -1.06    5.16
   2   4  -5   -5.61    5.05
   2   4  -5   -1.75    5.13
   4   4  -5   24.17   12.35
   4   4   5   -4.25   10.20
   4   4  -5   -2.76   10.19
  -4  -4  -5    9.14   11.85
   4  -4   5   10.50   12.00
  -4  -4  -5   -0.10   11.84
  -4   4   5   12.15   12.27
   4  -4   5   -0.59    9.58
  -4  -4   5    2.24   11.70
  -4   4  -5   -0.84    9.01
   4  -4  -5   -1.90   11.40
   1   5   5   20.67    7.05
  -1  -5  -5    9.58    5.96
   1  -5   5    9.14    5.42
  -1  -5   5   23.60    9.17
  -1  -5  -5   14.10    8.30
   1  -5  -5   14.04    8.21
   1   5   5    9.28    6.16
  -1   5   5    7.18    6.04
  -1   5  -5    8.96    6.66
   1  -5   5   17.74    7.57
  -1  -5   5   14.20    5.75
   1  -5   5   14.40    8.12
   1   5  -5   18.12    5.55
   1   5  -5    8.83    6.46
   1  -5  -5    7.71    6.29
   3   5  -5   19.98   11.61
   3   5   5    6.32    8.24
   3  -5   5   10.64   10.20
  -3  -5  -5    9.05    9.33
   3   5  -5   13.00    9.94
   3  -5   5    2.82    7.82
  -3  -5   5   12.76   11.35
  -3   5   5    3.17    8.28
  -3  -5  -5   10.78   10.21
   3  -5   5   26.66   10.53
   3  -5   5   -1.24    9.27
  -3   5   5    2.29    6.60
   3  -5  -5   19.27   12.22
   5   5  -5   54.17   22.53
   5  -5  -5  -11.11   12.68
   5   5  -5   31.32   16.61
  -5   5  -5   29.62   19.33
  -5  -5  -5   13.95   17.41
  -5  -5   5   24.14   17.16
   5  -5   5    3.70   12.53
   5   5   5   40.21   19.13
  -5   5   5    0.81   14.35
   0   6   5  174.88   11.14
   0  -6   5  257.93   26.35
   0  -6  -5  190.52   15.68
   0  -6   5  158.31   17.08
   0   6   5  173.41   18.06
   0   6  -5  192.81   15.81
   0  -6  -5  187.59   22.25
   2  -6  -5  222.92   27.23
  -2  -6  -5  151.02   20.07
   2  -6   5  126.34   18.33
   2  -6  -5  142.09   20.99
   2  -6   5  155.54   21.80
   2  -6   5  163.17   19.74
  -2  -6  -5  167.51   22.34
  -2  -6   5  132.47   13.06
   2   6   5  162.20   15.97
   2   6  -5  183.75   19.60
  -2   6   5  133.31   18.01
   2  -6   5  184.14   21.49
   2   6  -5  104.14   16.88
  -2  -6   5  170.52   24.88
   2   6   5  118.86   17.61
   4  -6  -5   92.67   24.79
   4   6  -5   30.75   17.23
  -4  -6   5   81.35   23.72
  -4   6  -5   47.59   18.80
  -4  -6  -5   80.77   22.39
   4  -6   5   76.43   22.36
  -4  -6  -5   73.08   20.55
  -4   6   5   88.07   22.12
   4   6   5   41.62   16.85
   4   6  -5   71.76   20.57
   1  -7   5  510.02   30.52
  -1   7   5  546.77   29.54
   1  -7  -5  513.22   27.96
  -1  -7  -5  611.98   34.98
   1  -7   5  530.00   29.34
  -1  -7   5  551.77   25.64
   1  -7  -5  554.73   29.93
  -1  -7   5  556.40   33.15
   1   7   5  575.64   26.75
   1   7   5  570.11   26.69
  -1   7  -5  544.08   26.80
   1  -7   5  588.69   21.43
   1   7  -5  531.65   28.90
  -1  -7   5  553.99   18.85
  -1  -7  -5  547.19   28.23
  -3  -7   5  354.11   40.58
   3   7   5  353.36   34.80
   3  -7  -5  404.09   40.85
  -3   7   5  349.31   27.10
   3  -7   5  345.34   29.53
  -3  -7  -5  362.40   30.27
   3   7  -5  365.82   37.33
   3  -7   5  349.46   28.53
  -3  -7  -5  383.39   33.49
   3   7  -5  342.17   28.73
   3  -7   5  325.82   36.90
   3  -7   5  366.03   28.22
   3  -7  -5  404.63   41.91
   5   7  -5  213.28   35.12
   5   7  -5  232.95   41.38
   5  -7  -5  207.46   38.18
  -5   7   5  148.39   33.16
   5   7   5  228.86   37.26
   5  -7   5  220.37   40.35
  -5   7  -5  189.44   37.67
  -5  -7  -5  231.19   43.43
  -5  -7   5   95.73   28.45
   0  -8  -5   84.06   16.34
   0  -8   5   92.25   16.91
   0  -8   5   57.71   12.41
   0   8  -5  101.11   15.36
   0  -8  -5   86.79   15.40
   0   8   5   67.40   13.15
   0   8   5   64.08    9.67
  -2   8   5   71.77   16.09
   2  -8   5   57.97   14.79
   2  -8   5   57.55   12.42
   2   8   5   61.74   14.09
   2   8   5   58.94   11.71
   2  -8  -5   68.85   16.48
   2  -8   5   73.49   18.51
   2   8  -5   43.70   11.60
  -2  -8   5   64.45   18.34
  -2   8  -5   58.38   13.99
  -2  -8  -5   34.50   13.08
  -2  -8  -5   52.77   14.29
   2  -8  -5   67.25   16.38
   2   8  -5   51.09   14.07
   4   8  -5   36.94   17.15
   4  -8   5   49.73   19.63
  -4  -8  -5   55.40   19.36
  -4  -8  -5   46.17   19.53
  -4   8   5   -1.45   10.81
   4  -8  -5   50.62   22.20
   4  -8   5   23.52   17.40
   4   8  -5   37.24   18.73
   4   8   5   36.45   16.57
  -4  -8   5   24.91   18.69
   1  -9   5  214.39   26.00
  -1  -9  -5  225.26   30.06
  -1  -9  -5  178.61   22.06
  -1  -9   5  218.60   23.35
  -1  -9   5  197.45   27.89
   1   9   5  208.00   22.13
  -1   9   5  222.16   26.95
   1   9  -5  298.25   28.63
   1   9   5  238.81   19.88
  -1   9  -5  229.59   22.59
   1  -9   5  228.01   27.94
   1  -9  -5  205.29   25.18
   1  -9  -5  234.84   25.69
   3  -9  -5   92.79   21.77
   3   9  -5  157.39   25.99
  -3  -9  -5  145.08   26.44
   3  -9  -5  192.05   30.72
   3   9   5  161.45   26.20
  -3   9  -5  140.65   25.43
  -3  -9  -5  167.62   29.52
   3  -9   5   97.56   22.98
   3  -9   5  209.87   28.62
  -3   9   5  167.21   24.26
  -3  -9   5  133.32   27.81
   5   9   5   91.81   27.78
  -5  -9  -5   12.87   20.99
  -5   9  -5   44.13   22.87
   5   9  -5   70.24   24.22
   5  -9  -5   71.37   28.76
   5  -9   5   32.94   22.90
  -5  -9   5   56.07   29.39
  -5   9   5   53.72   24.37
   0 -10   5    3.31    7.64
   0 -10   5   -1.48    6.83
   0  10  -5    2.88    7.63
   0  10   5    6.75    6.32
   0  10   5   11.70    8.22
   0 -10  -5   -9.14    6.13
   0 -10  -5    4.88    9.05
  -2 -10   5    1.16   12.36
   2  10   5   -1.87    8.00
   2 -10   5   -6.02    9.34
  -2  10   5    9.90   10.35
   2 -10  -5   11.27   11.85
   2 -10  -5    9.04   10.09
  -2 -10  -5    6.03   11.81
  -2 -10  -5    3.84   12.77
   2  10   5    1.26    6.42
   2 -10   5    1.24   10.86
   2  10  -5    5.08    9.92
  -2  10  -5    0.02    8.44
  -4 -10  -5    6.48   16.07
   4 -10   5   22.09   19.61
  -4 -10  -5    0.47   15.87
   4  10   5    5.27   13.22
   4  10  -5   -7.02   11.39
  -4 -10   5    4.85   16.83
   4 -10  -5    6.21   17.77
   4 -10  -5   11.76   18.25
   1  11   5  480.99   29.88
   1  11   5  420.73   29.78
  -1 -11   5  440.73   36.61
   1 -11   5  572.78   41.93
  -1  11  -5  431.25   28.49
   1 -11  -5  490.73   32.77
  -1  11   5  514.72   35.93
  -1 -11  -5  500.62   34.42
   1  11  -5  508.82   32.71
  -1 -11  -5  532.04   43.15
   1  11  -5  474.20   32.65
   1 -11  -5  449.35   35.25
   1 -11   5  454.95   34.54
  -3 -11  -5  283.88   37.37
   3 -11  -5  324.95   39.65
  -3 -11   5  271.85   41.10
  -3  11  -5  297.71   37.12
   3 -11   5  246.43   38.73
  -3  11   5  343.58   38.77
  -3 -11  -5  315.48   41.28
   3  11   5  326.86   37.94
   3 -11  -5  254.73   36.27
   3  11  -5  261.90   33.49
   0 -12  -5   27.36   14.30
   0 -12  -5   15.11   12.43
   0  12   5   20.14   11.57
   0 -12   5   19.00   13.83
   0  12  -5   14.36   11.64
   0  12  -5   54.68   14.89
  -2  12   5   16.54   13.04
   2 -12  -5    3.85   11.86
   2  12   5   35.11   15.76
  -2 -12  -5   20.21   14.16
  -2  12  -5   24.31   13.98
   2 -12  -5   31.59   16.19
   2  12  -5    9.30   12.39
  -2 -12   5   52.56   19.24
   2 -12   5   32.91   17.63
  -2 -12  -5   35.19   18.07
   4 -12   5  -16.79   13.92
   4  12  -5   20.54   17.25
   4  12   5    2.33   15.83
   4 -12  -5   18.71   19.74
  -4 -12   5  -18.87   16.37
   4 -12  -5   -3.70   18.19
  -4  12  -5   19.49   18.30
  -1  13   5   -5.81   10.12
   1  13   5    3.13    9.64
   1 -13  -5    3.62   11.49
   1  13   5   -0.79    8.94
  -1  13  -5   -3.38    9.65
   1 -13   5   27.13   17.95
   1  13  -5   10.56   10.58
   1  13  -5    1.21   10.88
  -1 -13  -5    5.38   11.74
  -1 -13   5    5.72   13.95
  -1  13  -5   -9.58    9.29
   1 -13  -5   18.18   12.15
  -3  13   5  -12.14    9.29
  -3 -13   5  -13.11   12.81
   3 -13   5    1.66   16.44
  -3  13  -5    4.18   13.99
  -3 -13  -5   11.85   15.03
   3  13   5   12.88   14.52
   3 -13  -5   14.07   17.25
   3 -13  -5    4.03   14.72
   3  13  -5    0.88   13.77
   0 -14  -5  257.92   37.14
   0  14   5  300.98   36.38
   0  14  -5  306.87   38.99
   0 -14   5  239.93   37.29
   0  14  -5  347.10   35.45
   2 -14   5  170.74   36.40
  -2 -14   5  167.80   35.79
  -2  14  -5  293.87   39.18
   2  14   5  246.51   33.05
   2 -14  -5  237.11   39.79
  -2  14   5  242.09   37.08
  -2 -14  -5  228.02   34.90
   2  14  -5  256.31   35.07
  -1 -15   5  352.91   48.30
   1  15  -5  262.13   36.09
  -1  15   5  304.23   39.54
   1 -15  -5  211.26   35.91
  -1  15  -5  346.16   45.27
   1  15  -5  318.46   37.06
   1  15   5  366.64   40.03
   1 -15   5  251.96   42.28
  -1 -15  -5  329.60   41.82
  -3  15  -5  181.44   34.29
   3 -15   5  100.59   29.41
   3 -15  -5  146.73   36.51
   3  15   5  231.82   38.54
   3  15  -5  230.67   38.43
  -3 -15   5  246.22   44.60
  -3  15   5  242.10   38.60
  -3 -15  -5  178.48   36.86
   0  16  -5   61.93   22.22
   0  16   5   31.52   17.85
   0 -16   5   68.57   26.50
   0 -16  -5    3.42   15.96
   2 -16  -5    2.39   18.60
  -2  16   5   26.50   19.29
   2  16  -5   53.58   22.15
   2 -16   5   12.80   21.90
  -2 -16   5   11.64   19.82
  -2  16  -5   28.67   20.55
   2  16   5   17.56   16.47
  -2 -16  -5   39.39   20.47
  -1  17   5   -8.52   13.12
  -1 -17  -5    6.44   18.99
  -1  17  -5  -19.18   11.18
   1 -17   5    7.75   20.24
   1  17  -5    3.06   16.34
   1 -17  -5  -10.86   14.84
   1  17   5    5.10   14.40
  -1 -17   5   14.91   19.18
   1  17  -5   -5.10   14.60
   0  18  -5  112.16   29.91
   0 -18  -5  146.82   35.45
   0  18   5  102.99   28.13
   0 -18   5  122.95   33.38
  -2 -18  -5  107.09   31.24
   2  18  -5  125.36   31.71
   2 -18  -5   57.26   30.61
  -2  18   5  111.90   31.45
  -2 -18   5   87.46   32.62
  -2  18  -5  119.14   35.72
   2 -18   5   70.10   31.03
   0   0   6  256.15   15.71
   0   0   6  261.00   14.76
   0   0  -6  268.22   19.50
  -2   0   6  174.77   20.65
   2   0   6  166.18   19.59
  -2   0   6  160.65   11.74
   2   0  -6  196.99   17.63
   2   0   6  173.31   13.51
   2   0   6  164.48   18.09
  -2   0  -6  164.26   13.35
   2   0  -6  193.77   22.68
   4   0  -6  123.80   26.41
  -4   0   6   69.33   20.19
   4   0   6   79.75   21.69
  -4   0  -6   91.25   20.83
   4   0  -6   87.88   17.86
   4   0   6   85.98   20.76
   1  -1  -6    7.41    6.48
  -1  -1  -6    0.66    2.84
   1   1  -6    3.48    5.08
   1  -1  -6   13.65    4.67
   1  -1   6    3.94    4.12
  -1   1   6   -0.26    5.47
  -1  -1   6   13.29    7.16
  -1  -1   6   -1.15    4.54
  -1  -1  -6    6.42    6.25
  -1   1  -6    4.90    5.48
  -1   1   6    8.58    5.72
   1  -1   6    5.78    6.20
   1   1   6    7.88    6.00
   1   1  -6    5.55    5.94
   1   1   6   10.32    5.95
   1  -1   6   14.52    6.55
   3   1   6   14.45   10.17
   3  -1   6    6.79    6.91
  -3   1   6    4.77    8.38
  -3  -1   6   -7.14    6.16
   3   1   6    4.70    7.57
   3  -1  -6   -2.92    5.01
   3  -1   6    1.42    5.22
   3  -1   6   -4.33    7.15
   3  -1  -6   -9.63    6.54
   3   1  -6    1.75    8.45
  -3   1  -6    8.81    7.63
   3   1  -6   -1.22    6.24
  -3  -1  -6    0.28    5.85
   5   1   6   -6.74   13.64
   5  -1   6    3.60   13.97
  -5  -1   6   -9.23   11.86
   5  -1  -6    9.35   16.04
   5   1  -6    8.19   16.68
   5  -1   6   -0.32   13.39
  -5   1   6    4.89   13.32
   5   1   6   15.93   16.16
   0   2   6  786.28   21.80
   0  -2  -6  789.81   34.42
   0  -2   6  801.00   26.36
   0  -2   6  814.62   23.81
   0   2  -6  810.86   25.14
   0  -2  -6  770.27   18.92
   0   2  -6  771.24   27.05
   0   2   6  800.52   26.76
   2  -2   6  506.50   27.95
   2   2  -6  551.37   28.15
   2  -2  -6  542.71   20.44
  -2  -2   6  556.57   18.91
  -2  -2   6  524.70   29.26
   2   2   6  566.18   22.49
   2  -2   6  512.35   24.40
   2  -2  -6  561.61   30.95
   2   2   6  487.21   27.03
  -2   2   6  499.17   28.08
  -2  -2  -6  522.35   23.07
  -2   2   6  525.41   22.66
   2  -2   6  536.83   27.32
   2   2  -6  524.85   25.58
  -2  -2  -6  523.06   30.19
   2  -2   6  543.19   24.47
   4   2  -6  253.27   29.78
   4   2   6  268.84   32.53
   4  -2  -6  272.82   37.23
  -4   2   6  271.35   37.09
   4   2   6  329.61   41.51
   4   2  -6  310.80   40.59
   4  -2   6  259.11   34.69
  -4  -2   6  292.15   37.72
  -4   2  -6  240.26   30.98
   4  -2   6  274.69   33.25
  -4  -2  -6  338.57   37.07
  -1  -3  -6  434.72   16.56
   1  -3  -6  454.19   24.84
  -1  -3   6  416.25   22.53
   1   3   6  437.18   21.48
   1   3  -6  417.84   21.64
   1   3   6  432.90   20.12
  -1  -3   6  441.47   18.91
   1  -3   6  424.72   19.47
   1  -3   6  415.72   21.63
   1  -3  -6  452.30   21.88
   1  -3   6  496.15   23.94
   1   3  -6  457.62   18.92
  -1  -3  -6  476.83   25.50
   1  -3   6  413.77   19.02
  -1   3   6  407.51   21.11
   3  -3  -6  235.43   17.15
   3  -3  -6  277.46   33.27
  -3   3   6  246.87   18.52
  -3  -3  -6  193.30   26.86
  -3  -3  -6  243.33   25.26
   3   3  -6  284.54   28.81
   3  -3   6  213.65   18.30
   3  -3   6  239.17   25.69
  -3   3  -6  237.71   26.38
  -3   3   6  263.81   30.67
  -3  -3   6  188.54   26.23
   3   3   6  207.89   25.64
   3   3  -6  294.09   33.00
   3  -3   6  201.95   27.83
   5  -3   6  132.85   31.82
   5  -3  -6  127.33   32.16
  -5  -3   6  153.83   32.55
   5   3  -6  107.59   25.20
   5   3  -6  110.33   30.45
  -5   3  -6  113.67   27.60
  -5  -3  -6  125.03   33.36
   5   3   6   98.47   26.01
   5  -3   6  152.95   30.53
  -5   3   6  139.41   32.58
   0  -4  -6 1335.98   32.59
   0  -4   6 1387.22   38.77
   0   4   6 1348.82   29.34
   0  -4   6 1304.19   38.76
   0   4  -6 1341.95   38.71
   0  -4  -6 1308.61   47.90
   0   4   6 1331.65   38.69
  -2  -4   6  958.21   41.98
   2   4  -6  925.89   37.69
   2  -4  -6  918.08   39.89
  -2  -4  -6  937.23   41.85
   2   4   6  922.03   38.39
   2  -4  -6  940.53   41.79
   2  -4  -6  958.28   22.22
  -2   4   6  944.02   35.39
  -2  -4   6  972.10   25.94
   2  -4   6  952.08   36.37
   2   4  -6  878.99   35.59
   2  -4   6 1003.57   38.61
   2  -4   6  901.55   35.56
  -2  -4  -6 1034.69   36.32
   2  -4   6  991.00   39.21
   2   4   6  961.66   30.98
  -4  -4  -6  448.44   35.28
  -4  -4   6  463.95   47.27
  -4   4   6  395.37   41.69
  -4  -4  -6  478.53   42.23
   4   4   6  443.85   43.84
   4   4  -6  455.80   35.88
   4  -4   6  498.44   37.16
   4  -4   6  455.18   39.18
  -4   4  -6  456.72   36.16
   4  -4  -6  495.40   50.82
   4   4  -6  497.61   48.31
   1  -5   6  154.45   18.46
  -1   5   6  120.77   16.00
   1  -5  -6  156.36   19.51
  -1  -5  -6  143.52   20.74
  -1  -5  -6  128.08   14.16
   1  -5   6  197.14   21.20
   1   5  -6  133.23   16.46
   1   5  -6  107.83    9.36
   1  -5   6  130.57   11.00
   1   5   6  132.74   15.24
   1   5   6  128.72   14.50
   1  -5  -6  143.78   17.21
  -1   5  -6  129.24   16.50
  -1  -5   6  136.16   19.29
  -1  -5   6  127.56   13.58
   3  -5  -6   73.15   19.48
   3  -5   6   80.27   18.02
   3   5  -6  105.61   20.16
  -3  -5  -6   38.06   14.04
   3  -5   6   52.71   14.85
  -3  -5   6   64.77   18.03
   3  -5   6   69.70   15.01
   3   5   6   61.23   16.59
  -3   5   6   82.55   18.57
  -3  -5  -6   82.40   17.02
   3  -5   6  101.21   18.15
  -3   5   6   80.66   14.99
   3   5  -6   88.67   18.87
   5   5   6   11.39   15.64
   5  -5  -6   44.50   23.35
   5  -5   6   42.17   20.11
  -5   5   6   40.54   20.90
  -5   5  -6   42.37   20.72
  -5  -5  -6   55.04   26.03
   5   5  -6   33.69   22.40
   5   5  -6   46.61   18.88
  -5  -5   6   32.20   21.43
   0  -6  -6  192.77   15.34
   0  -6   6  176.59   21.08
   0  -6  -6  215.23   24.70
   0   6  -6  234.62   17.89
   0   6   6  204.48   12.00
   0  -6   6  204.63   17.44
   0   6   6  206.13   17.15
   2   6   6  172.75   21.27
   2  -6  -6  183.24   23.15
   2   6   6  173.81   14.52
   2  -6   6  151.41   19.70
   2   6  -6  200.65   23.94
   2  -6   6  194.12   21.60
   2  -6   6  190.31   23.01
  -2  -6   6  150.57   12.70
  -2  -6  -6  185.34   24.76
  -2  -6  -6  171.71   20.37
   2   6  -6  170.50   18.86
  -2   6   6  153.39   19.46
   2  -6   6  170.32   21.31
  -2  -6   6  149.33   22.72
   2  -6  -6  163.04   22.56
   4   6  -6  110.41   24.36
   4  -6  -6   64.33   23.45
  -4   6  -6   82.91   22.55
  -4  -6  -6   72.17   21.97
  -4  -6  -6   88.36   22.37
   4  -6   6  123.96   26.31
  -4   6   6   72.16   20.21
   4   6   6   73.72   20.61
  -4  -6   6   80.23   25.74
   4   6  -6   74.82   19.99
   1   7   6   41.53   10.01
  -1   7   6   43.06   11.86
  -1   7  -6   33.49   10.41
   1  -7   6   31.55   10.64
   1   7  -6   14.93    8.86
  -1  -7   6   39.66    6.40
   1  -7   6   45.95   13.63
   1   7   6   38.06    9.77
   1  -7  -6   44.31   12.66
  -1  -7  -6   31.75   12.75
   1  -7  -6   19.17    9.22
   1  -7   6   33.99    6.92
  -1  -7   6   29.43    8.64
  -1  -7  -6   35.61   10.01
  -1  -7   6   32.49   12.27
  -3  -7  -6    4.10   11.79
  -3  -7  -6   35.32   13.90
   3   7  -6   10.50   11.33
   3  -7   6    7.35    9.29
  -3   7   6   12.66    8.16
   3  -7   6   17.18   12.23
  -3  -7   6   -6.58    9.62
   3  -7  -6    8.27   11.84
   3   7  -6    4.44    9.54
   3  -7  -6   13.06   12.34
   3   7   6    4.11    9.92
   3  -7   6   -4.72    8.82
   3  -7   6   14.20   13.24
   5   7  -6    6.76   16.73
   5   7   6   17.41   16.20
   5   7  -6   10.81   21.22
  -5   7  -6   26.32   19.95
  -5  -7  -6    4.51   19.35
  -5   7   6   14.67   16.07
   5  -7   6    8.17   16.39
  -5  -7   6   16.87   18.97
   5  -7  -6  -20.34   14.40
   0  -8   6   41.31   13.34
   0  -8  -6   43.52   14.43
   0  -8  -6   37.33   10.63
   0  -8   6   51.58   13.17
   0   8   6   39.97    8.15
   0   8  -6   31.49    9.56
   0   8   6   47.27   11.58
  -2   8  -6   51.76   13.30
  -2  -8   6   26.30   13.40
   2   8   6   21.58    9.78
   2  -8   6   20.52   11.09
   2   8  -6   27.12   10.53
  -2   8   6   38.42   12.73
  -2  -8   6   32.07    9.34
   2   8  -6   22.91   11.11
  -2  -8  -6   25.39   11.63
   2  -8   6   38.44   11.29
   2  -8  -6   37.09   13.75
   2  -8   6   12.06   11.24
   2   8   6   13.60    8.07
  -2  -8  -6   22.10   12.79
   2  -8  -6   24.56   12.32
   4  -8  -6   52.87   20.05
   4   8  -6   14.78   14.91
  -4   8   6   16.44   16.07
  -4  -8   6   49.16   22.94
   4  -8   6   29.56   17.42
   4   8   6    0.40   11.95
  -4  -8  -6   -6.64   13.53
   4  -8   6    5.89   15.26
   4   8  -6   28.83   19.48
  -1   9  -6   40.29   11.55
   1  -9   6   21.80   11.00
  -1   9   6   16.27   10.97
  -1  -9   6   28.43    9.85
  -1  -9  -6   33.03   15.94
   1  -9  -6   18.69   10.59
  -1  -9  -6   41.60   12.17
   1   9   6   31.74   10.38
   1  -9  -6   26.62   11.84
   1  -9   6   53.74   17.11
  -1  -9   6   18.93   11.59
   1   9   6   10.74    8.14
   1   9  -6   39.13   12.75
   3  -9   6   21.61   15.55
   3  -9  -6   -5.13   11.48
   3  -9   6   21.83   12.66
  -3  -9   6   26.56   17.19
  -3  -9  -6   11.23   13.97
  -3   9   6   27.72   11.80
   3   9   6   17.45   13.18
   3  -9  -6   36.61   17.08
  -3  -9  -6   47.78   17.70
   3   9  -6   17.07   12.30
  -5   9  -6   25.95   21.17
   5   9   6   -3.61   15.60
   5  -9  -6   14.12   22.39
  -5   9   6   18.54   18.83
   5   9  -6   26.17   20.13
   5  -9   6   17.56   20.43
  -5  -9   6   13.80   25.00
  -5  -9  -6    7.13   22.15
   0 -10  -6  363.59   27.63
   0  10   6  293.29   18.51
   0 -10  -6  333.37   29.01
   0  10   6  335.90   26.78
   0 -10   6  269.62   30.95
   0 -10   6  309.04   30.55
   0  10  -6  314.04   25.31
   2 -10  -6  240.63   30.82
  -2 -10  -6  299.50   38.48
  -2 -10  -6  253.15   30.72
   2  10   6  237.35   27.23
   2 -10  -6  263.18   31.93
   2  10   6  277.15   22.37
   2  10  -6  259.60   29.96
   2 -10   6  216.65   31.32
  -2  10   6  262.97   31.33
   2 -10   6  243.06   31.13
  -2 -10   6  216.10   32.59
  -2  10  -6  263.28   27.12
   4 -10   6  106.97   29.50
  -4 -10  -6  212.82   37.68
   4 -10  -6  122.73   30.94
   4  10  -6  180.48   32.13
  -4 -10   6  124.89   31.46
   4  10   6  124.59   29.09
   4 -10  -6  129.06   30.09
  -1 -11  -6  244.99   28.71
   1 -11  -6  356.27   29.54
  -1 -11  -6  363.93   43.45
  -1  11  -6  269.58   27.36
  -1 -11   6  324.88   27.18
   1 -11   6  349.73   41.01
   1  11  -6  279.25   31.01
   1 -11   6  313.65   35.33
   1  11   6  337.75   27.38
  -1 -11   6  308.06   35.98
   1  11   6  306.28   28.16
   1 -11  -6  285.33   34.69
  -1  11   6  228.96   28.68
   3  11  -6  202.88   32.64
  -3  11  -6  204.54   33.47
  -3 -11  -6  256.61   38.24
  -3 -11  -6  232.63   34.63
   3  11   6  290.10   35.85
   3 -11   6  152.93   31.41
   3 -11  -6  173.67   29.89
  -3  11   6  184.52   28.32
   3 -11  -6  203.67   31.83
  -3 -11   6  173.00   33.38
   0  12   6  266.94   30.26
   0 -12   6  291.47   32.17
   0  12  -6  339.80   32.52
   0 -12   6  304.74   35.93
   0 -12  -6  381.80   33.46
   0 -12  -6  344.83   37.28
   2  12  -6  240.56   31.60
  -2  12   6  240.50   33.40
   2 -12   6  296.88   40.02
  -2 -12  -6  240.90   32.53
  -2  12  -6  301.54   37.65
   2  12   6  364.93   35.96
   2 -12  -6  340.94   38.00
  -2 -12  -6  403.22   49.34
  -2 -12   6  407.92   49.90
   2 -12  -6  360.77   41.92
  -4 -12  -6  174.30   39.95
   4 -12  -6   62.84   26.45
  -4  12  -6  168.08   34.26
   4  12  -6  192.79   35.13
  -4 -12   6  151.74   36.91
   4 -12  -6  126.19   30.56
   4 -12   6  106.46   30.73
   4  12   6  166.50   32.68
   1  13  -6   54.88   17.40
   1 -13  -6   36.41   18.98
  -1 -13  -6   68.26   19.76
  -1  13   6   44.50   16.65
   1  13  -6  114.07   22.06
  -1  13  -6   31.93   16.12
  -1 -13  -6   56.07   19.80
  -1 -13   6   45.58   19.44
   1 -13  -6   73.26   18.93
   1  13   6   41.72   13.67
  -1  13  -6   50.33   15.40
   1  13   6   41.28   15.17
   1 -13   6   22.59   18.59
  -3  13  -6   69.20   21.84
  -3  13   6    5.29   13.22
   3 -13  -6   16.04   16.76
   3 -13   6   46.59   24.88
   3 -13  -6   39.49   18.37
   3  13   6   47.91   20.81
  -3 -13  -6   35.97   19.85
   3  13  -6   12.76   16.36
  -3 -13   6   19.24   19.81
   0  14   6    6.26   10.89
   0  14  -6   22.18   14.89
   0 -14  -6   -0.89   11.89
   0 -14   6  -13.72   11.79
   0  14  -6   19.94   14.28
  -2  14  -6   11.71   12.55
   2 -14   6    0.59   16.73
  -2  14   6   11.20   13.72
   2 -14  -6   -1.71   15.43
   2  14   6   15.22   14.12
  -2 -14  -6   24.71   17.54
  -2 -14   6    9.46   14.88
   2  14  -6   27.62   18.92
  -1 -15   6    6.43   14.04
   1  15   6    3.48   11.76
   1 -15  -6   -5.93   14.19
   1  15  -6   11.37   14.77
  -1 -15  -6   12.06   17.53
  -1  15   6   20.19   16.94
   1  15  -6   22.83   13.80
   1 -15   6   -3.41   16.94
  -1  15  -6    8.25   12.53
  -3 -15   6    0.54   18.94
   3 -15  -6    1.36   19.74
   3 -15   6   -9.42   20.20
  -3  15   6   -4.82   12.72
   3  15  -6  -11.24   16.31
  -3  15  -6    4.46   16.27
   3  15   6   27.24   20.49
   0  16  -6    3.97   15.92
   0  16  -6   -7.89   11.42
   0 -16   6    9.11   18.30
   0 -16  -6   29.22   19.05
   0  16   6    9.55   14.23
  -2  16  -6    5.91   17.06
  -2 -16   6    5.79   18.64
  -2  16   6    1.51   14.49
   2  16  -6  -13.35   13.47
   2 -16   6    0.45   18.30
  -2 -16  -6    0.51   18.34
   2 -16  -6   -1.11   18.03
  -1  17   6   51.96   19.93
   1 -17   6   62.76   28.18
   1 -17  -6   82.82   27.49
  -1  17  -6   52.07   22.67
   1  17   6   69.70   24.07
   1  17  -6   81.31   26.87
  -1 -17   6   70.33   27.38
   1  17  -6   60.82   22.69
  -1 -17  -6   44.24   24.16
   0 -18  -6   44.36   25.34
   0 -18   6   32.71   24.35
   0  18  -6   16.39   18.00
   0  18   6   42.82   21.42
   0   0  -7   -7.17    6.84
   0   0   7   -5.89    5.17
   0   0   7   -5.26    5.22
   0   0   7    2.03    3.47
  -2   0   7   -3.29    5.52
  -2   0  -7   -1.36    3.47
   2   0  -7   -4.19    4.38
   2   0  -7   -0.65    6.46
   2   0   7    0.02    4.75
  -2   0   7    5.07    4.82
   2   0   7   -0.88    6.53
   2   0   7    0.06    5.09
  -2   0  -7   -2.86    6.29
   4   0  -7   -4.54    7.49
   4   0   7    5.45    9.92
  -4   0  -7    7.93   10.48
   4   0   7   -1.49   10.57
   4   0  -7   -7.89    9.38
  -4   0   7    6.01   12.57
  -1   1  -7 1452.14   40.45
   1  -1   7 1450.93   40.50
   1   1  -7 1520.99   40.89
  -1  -1   7 1560.60   39.13
   1  -1   7 1533.24   29.34
  -1  -1  -7 1495.16   44.15
   1  -1   7 1518.42   42.05
   1  -1  -7 1460.77   43.56
   1   1   7 1478.39   40.41
  -1  -1   7 1523.75   40.76
   1  -1  -7 1497.36   32.59
   1   1   7 1497.90   40.33
   1   1  -7 1557.20   38.09
  -1   1   7 1424.85   38.50
  -1   1   7 1470.94   38.82
  -3   1   7  869.41   44.21
   3  -1   7  818.38   40.10
   3  -1   7  831.82   44.30
   3   1  -7  725.79   40.87
   3  -1  -7  788.50   33.52
  -3  -1  -7  775.27   35.90
  -3  -1   7  766.98   42.36
   3  -1  -7  811.00   43.59
   3  -1   7  847.14   32.22
  -3   1  -7  835.21   37.65
   3   1  -7  796.52   36.29
   3   1   7  909.73   42.91
   3   1   7  830.22   45.38
   5   1   7  454.72   57.07
   5   1   7  378.37   45.62
   5   1  -7  365.09   49.01
  -5   1   7  393.93   49.13
   5  -1   7  402.61   50.73
   5  -1  -7  470.05   57.12
  -5  -1   7  376.29   51.84
   5  -1   7  456.96   49.69
   0   2  -7   84.50   12.45
   0   2   7  105.13   10.72
   0  -2   7  115.98   11.97
   0   2   7   82.70   11.74
   0   2  -7  108.19   13.25
   0  -2  -7   98.78    7.62
   0  -2  -7  126.18   18.38
   0  -2   7   87.88   12.63
  -2  -2  -7   44.05    8.82
   2  -2  -7   75.46   15.49
  -2   2   7   31.42   10.33
   2  -2   7   39.24   11.15
   2   2  -7   25.59    9.06
   2  -2   7   56.18   11.93
   2   2   7   46.48    9.37
   2  -2  -7   47.90    8.25
  -2   2   7   23.38    7.26
  -2  -2   7   39.18    7.50
   2   2  -7   27.65    8.77
  -2  -2   7   55.56   13.50
   2   2   7   48.78   12.24
   2  -2   7   47.58   10.54
  -2  -2  -7   27.18    9.95
   2  -2   7   61.69   11.32
   4   2  -7   26.28   15.47
   4   2   7   43.43   18.61
  -4   2  -7   28.80   13.40
   4  -2  -7   27.98   16.29
  -4  -2  -7   13.72   15.81
  -4  -2  -7   25.81   13.27
   4   2  -7    8.33   10.31
   4  -2   7   51.67   16.69
  -4  -2   7   22.78   14.16
   4   2   7   13.21   13.45
  -4   2   7   44.75   17.72
   4  -2   7   43.78   17.09
  -1  -3  -7  459.38   16.06
   1  -3   7  460.10   19.96
  -1   3  -7  491.99   21.03
   1   3   7  461.73   22.14
   1  -3   7  481.44   24.69
   1   3  -7  442.75   19.54
   1  -3  -7  433.44   25.38
  -1  -3  -7  464.46   27.14
   1  -3  -7  456.06   13.20
  -1  -3   7  496.14   24.78
   1   3   7  457.77   22.34
  -1  -3   7  467.03   21.09
  -1   3   7  484.01   23.10
   1  -3  -7  496.46   23.13
   1  -3   7  471.18   23.38
   1   3  -7  474.08   23.74
  -3  -3   7  288.91   32.19
  -3   3   7  248.68   29.50
   3   3  -7  367.66   35.84
  -3  -3  -7  310.10   23.49
  -3   3   7  279.30   19.89
   3   3   7  289.31   29.91
   3  -3   7  246.63   20.50
   3  -3   7  310.95   33.22
   3  -3  -7  246.35   29.46
  -3  -3  -7  262.14   31.87
  -3   3  -7  253.77   26.59
   3  -3   7  225.88   26.21
   3   3  -7  280.03   27.95
   5  -3   7  159.96   30.65
   5   3  -7  247.49   43.32
  -5   3   7  185.18   36.30
  -5  -3   7  192.01   36.20
   5  -3  -7   91.56   28.91
  -5  -3  -7  125.41   31.93
   5   3  -7  175.78   31.23
   5  -3   7  157.00   34.83
   5   3   7  206.91   36.67
   0   4   7  250.97   17.25
   0  -4   7  223.24   16.39
   0   4  -7  219.34   17.56
   0   4   7  243.81   12.52
   0  -4  -7  239.59   25.68
   0  -4   7  290.72   18.47
   0  -4  -7  217.58   13.10
   0   4  -7  243.24   10.47
   2  -4   7  150.27   18.61
   2  -4   7  248.41   24.11
   2   4   7  188.43   18.12
   2  -4   7  169.33   20.30
   2  -4  -7  187.64   23.92
   2  -4  -7  159.70    8.78
  -2  -4   7  157.45   12.13
   2   4   7  178.82   20.54
   2  -4   7  166.41   19.40
  -2   4   7  194.87   20.11
   2  -4  -7  186.96   22.58
   2   4  -7  157.89   18.79
  -2  -4   7  169.56   22.04
  -2  -4  -7  203.47   19.42
   2   4  -7  169.66   20.43
  -2  -4  -7  165.68   22.62
   4  -4  -7   40.20   18.46
  -4   4   7   49.51   17.31
   4  -4   7   54.75   17.33
  -4   4  -7   86.16   21.03
   4   4  -7   43.39   17.10
  -4  -4   7   76.91   23.62
  -4  -4  -7   87.73   25.26
   4   4  -7   71.83   22.46
   4   4   7   99.80   23.44
   4  -4   7  115.32   25.78
  -1  -5   7   90.48   12.48
   1  -5   7   88.11   14.28
  -1  -5  -7   99.29   18.57
   1  -5  -7   96.34   16.10
   1  -5  -7  113.36   15.46
  -1  -5  -7  105.69   12.91
   1   5   7   94.60   13.25
   1  -5   7  125.34   17.43
   1  -5   7  132.82   11.30
   1   5   7   74.73   12.06
  -1   5   7  116.14   16.08
  -1  -5   7   91.32   15.51
  -1   5  -7  109.85   16.55
   1   5  -7   95.39   10.07
   1   5  -7  106.57   16.62
  -3  -5   7   39.96   14.74
   3  -5   7   65.75   15.06
   3   5  -7   60.50   14.93
  -3   5   7   58.54   13.52
   3  -5   7   40.53   13.60
  -3  -5  -7   64.74   16.50
   3  -5   7   42.98   15.04
   3  -5   7   63.75   17.35
  -3  -5  -7   45.81   15.25
   3   5   7   33.29   13.18
   3  -5  -7   41.49   15.21
  -3   5   7   81.61   19.31
   3   5  -7   48.45   14.57
   5  -5   7    6.99   16.54
  -5   5   7   21.06   18.09
   5   5   7   26.07   19.10
  -5  -5   7   -0.11   16.33
   5  -5  -7    4.98   17.17
   5   5  -7   13.02   15.12
  -5  -5  -7   22.72   19.90
   5   5  -7  -11.28   14.55
   0   6  -7   35.74   10.88
   0  -6   7   28.95    9.41
   0  -6  -7   20.80    7.50
   0   6   7   36.81   10.65
   0  -6  -7   21.17   10.35
   0   6   7   25.27    5.99
   0  -6   7   33.01   11.62
   2   6  -7   11.47    8.67
  -2  -6  -7   41.63   14.54
   2  -6   7   30.01   10.26
   2   6   7   25.79    8.71
   2  -6   7   29.26   11.51
   2  -6   7   12.96    8.13
   2  -6   7   36.91   11.87
   2  -6  -7   34.01   12.43
  -2   6   7   11.23    7.12
  -2  -6  -7   34.01   11.63
  -2  -6   7   25.73    8.40
   2   6   7    9.77    8.07
   2   6  -7   26.78    9.29
   2  -6  -7   54.90   14.38
  -2  -6   7   14.57    9.44
  -4  -6  -7   -6.06   11.14
   4  -6  -7    8.53   13.78
   4   6  -7   47.42   18.63
  -4   6   7    3.65   10.81
  -4   6  -7   11.47   13.03
   4   6   7   13.34   14.12
  -4  -6   7   22.76   17.00
   4  -6   7   11.05   12.35
   4  -6   7   17.48   13.09
   4   6  -7    1.17   13.13
  -1  -7  -7  450.40   24.15
  -1  -7   7  404.70   23.76
   1  -7   7  346.66   25.94
   1  -7   7  417.11   28.58
   1  -7  -7  429.25   29.15
   1  -7  -7  384.39   24.97
  -1  -7  -7  432.76   33.26
  -1   7   7  424.30   26.77
   1   7   7  394.43   23.48
   1  -7   7  376.01   16.88
  -1   7  -7  379.48   24.72
   1   7   7  382.71   22.59
  -1  -7   7  370.97   27.85
   1   7  -7  385.25   25.91
   3  -7   7  246.32   28.78
   3  -7   7  258.72   29.97
   3  -7  -7  259.53   35.25
   3   7  -7  309.31   31.97
  -3  -7  -7  255.10   29.98
  -3  -7  -7  223.31   32.23
  -3  -7   7  233.68   32.73
  -3   7   7  269.88   28.50
   3   7   7  226.40   28.97
   3  -7   7  202.22   27.50
   3  -7  -7  256.42   33.34
   3  -7   7  312.77   35.39
   3   7  -7  229.72   27.83
   5  -7  -7  113.12   31.56
   5   7   7   90.16   27.69
  -5  -7   7   72.51   29.26
   5   7  -7   74.27   28.35
  -5   7   7  140.77   34.52
   5   7  -7  112.55   29.27
  -5  -7  -7   75.53   27.21
   5  -7   7  164.85   35.12
   0  -8   7  311.63   23.95
   0  -8   7  379.70   28.80
   0   8  -7  333.19   23.89
   0   8   7  345.22   17.23
   0   8   7  342.22   24.47
   0  -8  -7  353.12   29.58
   0  -8  -7  331.74   23.21
  -2   8   7  282.46   29.01
   2  -8   7  256.32   20.22
  -2  -8   7  288.38   20.50
  -2   8  -7  243.74   26.57
   2  -8  -7  273.67   30.92
   2  -8   7  244.26   28.08
  -2  -8  -7  231.61   30.55
   2  -8  -7  268.65   30.69
   2   8   7  260.06   20.03
   2   8  -7  257.51   28.32
   2  -8   7  271.43   31.70
   2   8   7  253.53   27.05
  -2  -8  -7  242.03   26.56
  -2  -8   7  226.76   28.67
  -4  -8   7  102.72   28.76
  -4   8   7  134.09   29.06
   4  -8   7  148.75   31.38
  -4  -8  -7  136.82   30.23
   4  -8   7  165.53   30.80
   4  -8  -7  122.29   29.38
   4   8   7   88.21   23.65
   4   8  -7  132.70   27.15
  -1  -9  -7  876.98   52.50
  -1   9   7  855.93   42.12
  -1   9  -7  824.83   38.05
  -1  -9  -7  823.34   38.41
   1   9  -7  806.80   40.53
   1  -9   7  814.21   40.66
   1  -9   7  953.31   48.59
  -1  -9   7  759.35   35.79
   1   9   7  805.45   35.38
   1   9   7  836.63   38.20
   1  -9  -7  885.11   43.27
  -1  -9   7  887.36   46.74
   1  -9  -7  876.04   40.61
  -3  -9   7  539.15   44.59
   3  -9   7  568.63   41.77
   3  -9   7  626.89   38.63
  -3  -9  -7  597.71   46.19
   3  -9  -7  567.74   42.26
   3   9   7  570.79   40.00
  -3  -9  -7  606.57   40.47
   3  -9  -7  618.69   45.63
   3   9  -7  583.55   41.28
  -3   9   7  599.66   38.94
   3  -9   7  614.25   40.99
   0 -10  -7  245.06   28.28
   0  10   7  296.85   18.46
   0 -10   7  316.36   26.48
   0  10  -7  266.78   27.51
   0  10   7  273.36   28.55
   0 -10   7  301.88   35.16
   0 -10  -7  329.14   36.31
  -2 -10   7  177.69   28.41
  -2  10  -7  246.89   27.46
   2  10  -7  201.18   28.15
   2 -10   7  274.73   36.45
  -2  10   7  197.22   27.83
   2 -10   7  219.66   30.56
   2 -10  -7  247.20   32.76
   2 -10  -7  214.88   29.55
  -2 -10  -7  236.69   34.65
   2  10   7  249.53   28.50
  -2 -10  -7  215.79   27.52
   2  10   7  236.00   24.79
  -4 -10  -7   95.37   28.87
  -4  10   7   68.69   23.17
   4 -10  -7  105.39   28.69
   4 -10  -7   96.91   28.28
   4  10  -7  134.62   30.89
  -4 -10   7   99.63   30.92
   4 -10   7  110.24   30.41
   4  10   7  119.22   27.68
   1 -11  -7  467.37   34.94
  -1 -11   7  404.44   41.23
   1 -11   7  519.99   40.70
   1 -11   7  510.43   36.58
  -1  11  -7  458.87   30.68
  -1 -11  -7  514.93   44.75
  -1 -11  -7  433.26   32.66
  -1 -11   7  519.93   33.89
   1  11   7  447.18   31.82
   1 -11  -7  506.12   35.73
   1  11   7  498.22   29.45
  -1  11   7  532.87   36.78
   1  11  -7  490.72   34.97
  -3  11   7  295.52   35.46
   3  11  -7  305.18   38.06
  -3 -11   7  402.70   48.61
  -3 -11  -7  340.26   39.14
   3 -11  -7  354.01   42.83
  -3 -11  -7  346.74   46.56
   3  11   7  324.00   38.15
  -3  11  -7  317.37   38.93
   3 -11   7  309.33   43.91
   3 -11  -7  314.31   39.63
   0 -12  -7  996.59   53.33
   0 -12   7  824.22   51.29
   0  12  -7  988.47   47.07
   0 -12  -7 1065.74   52.90
   0 -12   7  922.15   48.92
   0  12   7  935.92   48.20
   2  12  -7  784.29   47.84
  -2 -12  -7  898.70   61.46
  -2 -12   7  748.90   52.75
   2  12   7  834.39   46.21
  -2  12   7  744.33   48.20
  -2 -12  -7  788.93   47.56
   2 -12  -7  810.46   47.97
   2 -12  -7  820.50   50.34
   2 -12   7  772.78   49.15
   2 -12   7  657.37   52.89
   4  12  -7  509.41   57.42
  -4 -12   7  495.61   61.93
   4 -12  -7  332.98   47.99
   4 -12   7  369.78   52.21
  -4  12  -7  456.10   54.37
  -4 -12  -7  403.11   55.78
   4  12   7  508.50   54.99
   4 -12  -7  410.52   52.51
  -1 -13  -7    4.46   11.70
   1  13   7   14.75   10.50
   1  13  -7   -0.39    9.17
   1  13   7   21.90   11.58
  -1  13   7    3.83   11.47
   1  13  -7   12.66   13.52
   1 -13  -7   -8.79   10.10
   1 -13   7   -4.39    9.93
   1 -13   7    2.24   15.16
  -1 -13  -7  -16.89   11.12
  -1 -13   7    4.60   14.41
  -1  13  -7   -2.54   11.15
   1 -13  -7    9.03   14.88
   3  13  -7   24.00   16.74
  -3 -13  -7    4.45   20.70
   3 -13  -7   -2.26   15.72
  -3  13   7   -1.98   11.49
   3 -13   7   -7.91   18.26
   3  13   7    0.23   14.65
  -3  13  -7   -1.75   10.86
   3 -13  -7   32.65   19.72
  -3 -13   7   -7.83   14.68
   0  14  -7   46.85   16.75
   0  14  -7    2.79   11.88
   0  14   7   34.03   16.82
   0 -14   7   11.56   14.54
   0 -14  -7   19.19   16.43
  -2  14  -7   19.40   15.44
   2  14  -7   16.95   14.63
  -2 -14   7   15.76   19.07
  -2 -14  -7   -1.95   14.15
   2 -14  -7   28.50   17.90
   2  14   7   14.71   15.46
   2 -14  -7   25.27   18.10
   2 -14   7   -0.38   17.52
  -2  14   7   16.65   15.80
   1  15  -7   19.23   14.83
   1 -15  -7   36.71   19.79
  -1  15  -7   37.02   18.31
   1 -15   7   30.52   22.55
  -1 -15   7   30.48   20.40
   1  15  -7   45.85   19.48
  -1 -15  -7   36.08   19.35
   1  15   7   44.96   17.22
  -1  15   7   18.28   13.91
  -3  15  -7   -4.75   14.27
  -3  15   7   -3.03   13.84
   3 -15   7    4.23   23.54
   3  15  -7   35.02   21.82
  -3 -15   7   27.74   23.19
   3 -15  -7    7.18   18.77
   3  15   7   16.41   18.11
   0  16  -7  417.64   43.04
   0  16   7  288.76   41.47
   0 -16   7  302.36   45.52
   0  16  -7  295.20   40.14
   0 -16  -7  261.83   41.25
   2 -16  -7  338.06   49.56
  -2 -16  -7  251.83   40.37
   2 -16   7  193.99   42.03
  -2  16  -7  306.67   44.16
  -2  16   7  303.35   42.73
   2  16  -7  281.68   41.91
  -2 -16   7  226.11   43.03
   1 -17   7   46.86   25.63
   1  17  -7    6.35   15.97
   1 -17  -7   16.09   19.85
  -1 -17   7   24.75   21.04
   1  17  -7   37.02   21.51
   1  17   7   25.28   17.23
  -1 -17  -7   -6.07   17.75
  -1  17  -7   16.89   16.42
  -1  17   7   13.79   14.92
   0 -18  -7   81.94   29.11
   0  18   7   36.08   19.91
   0  18  -7   22.37   17.93
   0 -18   7    2.35   20.95
   0   0   8 5794.39  100.20
   0   0  -8 5760.11  110.17
   0   0   8 5996.41   96.86
   0   0   8 5799.79   79.79
   2   0  -8 3926.25   91.07
   2   0  -8 3962.81   76.13
  -2   0  -8 3981.48   93.28
   2   0   8 4018.87   87.57
   2   0   8 3971.06   80.11
  -2   0   8 4031.67   89.72
  -2   0  -8 3997.10   72.43
  -2   0   8 4096.55   75.91
   4   0   8 2046.47   76.05
   4   0   8 1877.08   80.87
   4   0  -8 1989.68   79.45
   4   0  -8 2218.52   70.24
  -4   0   8 1858.26   78.22
  -1  -1  -8  366.94   22.66
   1  -1   8  365.90   21.06
  -1  -1   8  370.39   19.88
   1   1   8  349.98   20.39
   1   1   8  398.58   21.49
   1   1  -8  332.88   18.71
   1   1  -8  372.60   20.50
  -1   1   8  399.63   20.01
  -1  -1   8  367.13   20.53
   1  -1   8  367.84   12.79
   1  -1  -8  368.57   16.40
   1  -1   8  360.70   21.67
  -1   1   8  345.90   19.71
   1  -1  -8  361.81   22.59
  -1   1  -8  366.17   20.64
   3   1  -8  259.67   31.16
   3  -1  -8  265.79   31.86
  -3  -1  -8  227.94   32.02
  -3   1   8  207.46   27.42
   3   1  -8  235.42   24.41
   3  -1   8  215.27   26.16
   3  -1   8  248.19   30.71
   3  -1  -8  215.47   21.26
  -3  -1   8  273.85   33.78
  -3  -1  -8  242.13   23.98
   3   1   8  200.17   24.97
  -3   1  -8  255.34   25.37
   3  -1   8  242.83   18.96
  -5   1   8  148.07   31.62
   5  -1  -8  145.26   33.83
   5   1   8   92.45   24.67
   5  -1   8  104.77   28.18
   5  -1   8  138.50   33.00
  -5  -1  -8  147.28   33.30
  -5  -1   8  128.62   33.46
   5   1  -8  139.73   34.15
   0   2   8   -4.00    4.57
   0   2  -8    6.23    7.52
   0   2  -8    1.56    6.30
   0  -2   8   -5.72    3.98
   0  -2  -8   -2.82    7.51
   0   2   8   -3.03    5.35
   0  -2   8    0.49    5.12
   0  -2  -8    2.85    3.96
   2  -2   8    3.69    5.62
   2  -2   8   -2.52    6.03
  -2  -2  -8   -2.75    3.67
   2  -2   8    4.08    5.57
  -2  -2   8    0.96    6.27
  -2  -2  -8    6.07    7.57
   2   2   8   -0.80    5.48
   2  -2  -8    2.70    8.21
   2   2  -8   -3.84    6.03
  -2  -2   8    5.24    4.95
   2  -2   8   -0.25    6.12
   2   2  -8   -8.11    4.17
   2   2   8   -2.29    4.68
  -2   2   8   -1.45    4.81
   2  -2  -8   -3.64    3.40
  -2   2   8    1.55    6.26
   4   2  -8   19.10   11.82
  -4   2  -8   -9.78    9.66
  -4  -2  -8    5.17   13.76
   4   2   8    7.39   11.89
   4  -2   8    7.42   11.77
   4   2  -8   15.56   14.41
   4  -2  -8    8.08   12.49
  -4  -2   8  -14.02    9.14
  -4   2   8    6.39   11.26
   4  -2   8   -1.84   10.26
   1  -3   8   38.52    8.34
   1   3  -8   18.69    6.68
   1  -3  -8   29.28    8.52
  -1   3  -8   47.55    8.92
  -1  -3   8   41.58   10.61
   1  -3   8   31.14    9.15
  -1   3   8   29.15    7.81
   1   3   8   37.35    8.69
  -1  -3  -8   40.64   11.21
   1  -3  -8   47.24   12.80
   1  -3   8   20.78    8.38
   1   3   8   31.83    8.50
  -1  -3   8   34.68    8.23
  -1  -3  -8   40.26    5.98
   1   3  -8   27.18    8.57
   1  -3  -8   32.14    5.28
  -3   3   8   14.44   10.11
   3  -3   8   14.36   12.31
   3  -3  -8    4.63    9.75
   3   3   8   15.66   10.27
  -3  -3   8   18.64   12.39
   3   3  -8   21.20   10.10
  -3  -3  -8   29.11   13.21
  -3   3   8   18.40    8.01
   3  -3   8   18.10    8.62
   3   3  -8   27.45   12.73
  -3  -3  -8   10.63    8.49
   3  -3   8   16.96   10.19
  -3   3  -8   10.34    8.70
   5  -3  -8   -2.01   17.15
   5  -3   8   -2.69   14.82
  -5   3   8   -3.59   13.35
  -5  -3   8   15.81   17.44
   5  -3   8    8.41   15.12
   5   3   8    5.45   14.13
   5   3  -8    6.53   13.49
  -5  -3  -8    1.25   17.47
   5   3  -8   -0.38   15.76
   0  -4  -8 1913.01   63.66
   0   4   8 1942.97   50.52
   0   4  -8 1947.61   52.72
   0   4   8 2040.56   41.32
   0  -4   8 2089.51   51.24
   0  -4   8 1951.34   51.37
   0  -4  -8 1979.29   41.32
   0   4  -8 1958.62   38.69
   2   4   8 1527.58   52.02
   2  -4  -8 1476.42   55.10
   2  -4   8 1548.43   46.36
   2  -4  -8 1514.03   30.00
  -2  -4   8 1464.75   38.55
  -2  -4  -8 1522.42   57.61
   2  -4   8 1564.25   50.13
   2   4  -8 1562.75   48.76
   2  -4   8 1567.37   50.27
   2  -4  -8 1532.97   52.69
  -2  -4  -8 1472.69   42.29
   2  -4   8 1456.32   51.67
   2   4  -8 1477.11   49.13
  -2  -4   8 1507.26   54.71
   2   4   8 1494.70   44.17
  -2   4   8 1464.90   47.24
   4   4  -8  829.24   47.33
  -4   4   8  896.55   53.96
   4  -4  -8  902.83   55.65
   4   4  -8  792.35   50.40
   4   4   8  756.05   48.28
  -4   4  -8  901.04   49.14
  -4  -4   8  913.67   55.81
   4  -4   8  855.26   49.31
   4  -4   8  845.02   52.02
  -4  -4  -8  850.39   56.10
  -1  -5  -8  177.58   23.73
  -1  -5   8  173.21   21.23
  -1  -5   8  143.39   16.13
   1   5  -8  160.58   11.17
   1  -5   8  166.67   19.53
   1  -5   8  177.68   20.50
   1  -5  -8  132.95   19.26
   1  -5  -8  185.37   19.28
  -1   5   8  146.79   17.85
   1   5   8  124.51   15.51
  -1   5  -8  193.73   22.12
   1   5   8  174.71   18.14
   1   5  -8  155.93   19.19
  -1  -5  -8  157.55   14.69
  -1   5  -8  166.97   12.01
   3  -5   8  118.42   21.91
  -3  -5   8   68.40   18.34
  -3  -5  -8   67.70   15.04
   3   5  -8  113.60   20.89
   3  -5   8   77.43   18.95
  -3   5   8   99.70   21.79
   3   5  -8  117.09   20.84
  -3   5   8   60.86   14.29
   3  -5   8   80.34   16.26
   3  -5   8  121.77   20.86
  -3  -5  -8   63.49   18.30
   3  -5  -8   55.97   16.93
   3   5   8   95.79   19.61
   5   5  -8   14.57   20.99
  -5  -5  -8   41.76   24.06
   5  -5  -8   59.34   24.48
  -5  -5   8    8.68   18.57
  -5   5   8    9.79   16.53
   5   5   8   41.36   22.45
   5  -5   8   32.14   20.53
   5   5  -8   53.01   21.82
   0  -6   8   88.37   15.83
   0   6   8  103.51   10.52
   0  -6  -8   95.88   13.17
   0   6   8   71.98   13.84
   0   6  -8  111.32   16.48
   0  -6   8   80.10   13.57
   0  -6  -8   97.47   19.79
   2   6  -8   85.09   16.02
   2  -6  -8   94.25   18.20
   2   6   8   59.62   14.09
   2   6   8   96.18   14.36
   2  -6  -8   66.91   17.18
  -2   6   8   97.91   16.33
  -2  -6   8   82.95   18.61
   2  -6   8   67.91   15.24
  -2  -6  -8   70.22   17.73
   2   6  -8   64.40   13.11
   2  -6   8   65.84   14.65
   2  -6   8   86.15   14.79
  -2  -6   8   80.97   12.66
  -2  -6  -8   75.42   13.86
   2  -6   8   93.69   17.59
   4   6  -8   47.73   20.09
   4   6  -8   45.36   20.81
   4  -6  -8   69.47   21.92
  -4  -6   8   20.24   18.02
   4   6   8   68.03   20.85
   4  -6   8  111.44   25.57
  -4   6  -8   53.60   19.19
  -4   6   8   56.47   19.27
  -4  -6  -8  106.61   27.09
   4  -6   8   41.98   15.86
   1  -7   8  513.10   30.40
  -1  -7  -8  581.74   26.93
  -1   7  -8  502.49   18.80
  -1  -7   8  511.88   27.06
  -1  -7   8  571.11   34.21
   1   7   8  513.00   26.59
   1   7   8  519.28   27.47
   1  -7   8  474.74   31.15
  -1  -7  -8  499.16   37.22
   1   7  -8  491.97   30.30
  -1   7  -8  482.45   29.06
   1  -7  -8  511.99   33.08
   1  -7  -8  553.32   29.03
  -1   7   8  530.17   30.57
   3  -7   8  326.14   29.04
   3  -7   8  328.32   34.11
   3  -7   8  333.08   36.61
  -3  -7   8  331.21   38.96
  -3  -7  -8  381.33   42.84
   3  -7  -8  378.86   40.55
   3  -7  -8  404.38   42.18
   3  -7   8  338.23   33.94
  -3   7   8  375.39   29.25
   3   7  -8  348.87   29.26
   3   7   8  370.85   37.44
  -3  -7  -8  312.34   32.78
   3   7  -8  376.04   37.81
   5  -7   8  157.36   34.68
  -5  -7   8  132.82   34.86
  -5   7   8  110.70   29.35
  -5  -7  -8   94.68   30.02
   5   7  -8  174.21   32.39
   5   7   8  207.03   38.63
   5  -7  -8  168.96   36.66
   0   8   8 1879.42   43.77
   0   8  -8 2047.60   59.77
   0  -8  -8 1899.01   69.78
   0   8   8 1915.20   60.00
   0  -8   8 1967.49   61.10
   0  -8  -8 2053.41   56.76
   0  -8   8 1878.07   63.53
  -2  -8   8 1479.75   63.18
   2  -8  -8 1499.10   61.03
   2   8   8 1484.58   48.78
  -2  -8  -8 1442.66   64.34
  -2  -8   8 1526.82   46.63
   2   8  -8 1533.21   57.65
  -2   8  -8 1486.28   56.05
  -2  -8  -8 1503.37   52.74
   2  -8  -8 1374.91   56.21
  -2   8   8 1484.27   56.69
   2  -8   8 1467.74   47.73
   2   8   8 1520.78   54.65
   2  -8   8 1506.21   59.06
   2  -8   8 1532.45   57.95
  -4  -8  -8  913.91   61.66
  -4  -8   8  877.33   62.20
   4  -8   8  908.57   54.73
   4  -8   8  860.47   54.74
   4   8  -8  882.27   54.37
   4   8   8  881.80   55.72
   4  -8  -8  841.39   57.52
  -1   9   8    9.63    8.71
   1  -9   8   34.49   14.87
   1   9   8   21.63    9.37
  -1   9  -8   33.05   12.04
   1   9   8   26.34    9.86
   1   9  -8   31.19   12.08
  -1  -9   8   23.25   12.53
   1  -9  -8    5.63   10.42
   1  -9   8   22.74   11.09
   1  -9  -8   32.60   12.05
  -1  -9   8    8.39    7.91
  -1  -9  -8    8.48   14.88
  -1  -9  -8   16.99    9.65
   3  -9   8   -8.70    9.67
   3   9   8   39.33   15.60
  -3  -9  -8   -5.32   12.34
   3  -9   8    3.09   12.61
   3  -9  -8   -4.13   10.61
  -3   9   8   10.04    9.90
  -3  -9   8   18.11   14.78
   3  -9  -8    8.53   13.67
  -3   9  -8   10.64   14.21
   3   9  -8   11.87   13.07
   0 -10   8   36.84   13.10
   0 -10   8   50.98   16.81
   0  10  -8   31.16   11.31
   0 -10  -8   67.14   18.33
   0  10   8   34.07   13.08
   0 -10  -8   27.47   12.03
   2 -10  -8   34.81   15.50
  -2 -10  -8   36.51   19.04
  -2 -10  -8   18.20   11.86
  -2  10   8    5.37   11.01
   2  10   8   20.05   11.86
   2  10  -8   10.29   11.60
   2 -10  -8   19.08   13.20
   2 -10   8   18.48   12.19
  -2 -10   8   -7.93   10.49
   2 -10   8   43.73   19.25
  -2  10  -8   20.80   12.56
   2  10   8   27.99   11.30
   4  10   8   13.33   16.40
   4 -10   8   -2.42   18.42
   4 -10  -8   12.92   17.59
   4  10  -8   27.26   18.69
  -4 -10   8    7.17   18.42
  -4  10   8   28.53   15.43
  -4 -10  -8   42.22   23.80
  -1 -11  -8  162.52   23.10
  -1 -11   8   87.94   17.13
   1 -11   8   75.61   22.33
  -1  11  -8  159.82   22.76
   1 -11  -8  126.33   23.61
   1 -11   8  121.13   22.52
  -1  11   8  133.73   22.62
   1  11  -8  146.86   23.64
   1  11   8   92.71   17.55
  -1 -11  -8  144.14   31.11
   1 -11  -8  156.78   24.88
  -1 -11   8  101.04   22.57
   1  11   8  134.35   19.67
   3 -11   8  123.89   29.03
  -3 -11  -8  123.03   31.58
  -3 -11   8  107.80   28.73
  -3  11   8   55.90   17.66
   3 -11  -8  105.26   25.94
   3  11   8  136.65   26.55
   3  11  -8  110.00   24.50
   3 -11  -8   81.66   25.58
   0 -12   8  755.75   43.92
   0 -12  -8  706.96   48.09
   0  12  -8  705.37   41.68
   0 -12  -8  698.77   43.29
   0  12   8  690.80   42.18
   0 -12   8  663.99   46.57
  -2 -12  -8  585.59   41.60
  -2 -12   8  479.56   49.68
   2 -12   8  574.05   43.56
   2  12   8  551.38   38.65
  -2  12   8  504.63   40.57
   2  12   8  527.53   34.47
   2 -12  -8  629.02   44.54
  -2 -12  -8  667.78   56.08
   2  12  -8  548.50   41.78
   2 -12   8  564.01   56.86
   2 -12  -8  542.90   42.23
  -4 -12  -8  340.86   49.90
   4  12  -8  355.10   45.23
  -4 -12   8  353.88   54.31
   4 -12   8  302.01   48.86
  -4  12  -8  328.80   43.41
   4 -12  -8  343.80   47.15
   4 -12  -8  320.41   47.18
   4  12   8  381.28   47.88
  -1  13  -8   -8.67   10.59
  -1  13   8    9.64   11.35
   1 -13   8    1.40   13.81
  -1 -13  -8   23.31   18.15
   1 -13  -8    0.22   11.66
   1 -13   8   -5.15    9.68
   1  13  -8   19.96   13.81
  -1 -13  -8   12.58   12.93
   1 -13  -8   -5.32   11.58
  -1 -13   8    7.37   15.61
   1  13   8   17.93   12.12
  -3 -13   8   13.12   18.00
  -3 -13  -8    1.24   23.62
   3 -13   8    4.85   18.86
   3 -13  -8    0.28   15.83
   3  13  -8  -20.72   10.35
  -3  13  -8   27.75   15.65
   3  13   8  -18.87   10.55
   3 -13  -8    4.00   15.23
  -3  13   8   11.61   12.92
   0  14   8   10.58   12.27
   0 -14  -8   -4.82   11.75
   0  14  -8    6.06   13.37
   0 -14   8    2.85   13.53
   0 -14  -8    1.83   14.19
  -2 -14  -8    0.95   13.69
  -2  14   8   13.81   14.46
  -2  14  -8    5.33   13.99
   2  14   8   -7.45   13.23
   2  14  -8   -6.70   13.83
  -2 -14   8   -4.87   15.58
   2 -14   8  -12.58   17.60
   2 -14  -8   12.68   15.69
   2 -14  -8    2.17   14.01
   1  15  -8  759.99   49.57
  -1 -15   8  567.66   60.78
   1  15  -8  798.96   50.11
  -1  15   8  734.22   51.94
   1  15   8  748.35   48.80
   1 -15   8  712.16   58.40
  -1  15  -8  731.91   53.49
   1 -15  -8  768.79   55.06
  -1 -15  -8  829.37   56.06
   3 -15  -8  444.59   55.36
   3  15   8  535.14   52.91
   3 -15   8  365.71   55.93
  -3  15   8  437.80   50.55
  -3  15  -8  525.61   59.95
  -3 -15   8  545.43   65.60
   3  15  -8  556.50   56.62
   0  16  -8  374.74   47.88
   0 -16  -8  260.54   38.96
   0  16  -8  439.87   45.24
   0  16   8  322.85   42.75
   0 -16   8  307.68   45.33
   2 -16  -8  197.05   38.40
  -2 -16   8  247.30   44.30
  -2  16   8  361.57   50.11
   2  16  -8  308.70   40.82
  -2  16  -8  316.64   47.98
   2 -16   8  242.08   45.94
   1 -17  -8   22.44   20.99
   1  17   8   78.85   24.13
  -1  17   8   77.88   25.00
  -1 -17   8   69.39   27.48
   1  17  -8   50.43   22.94
   1 -17   8   44.76   24.50
  -1 -17  -8   68.87   26.52
   1  17  -8   43.55   20.58
  -1  17  -8   48.60   22.09
   0 -18  -8   30.22   25.68
   0  18   8  112.62   30.50
   0 -18   8   48.76   29.74
   0  18  -8  109.51   31.95
   0   0  -9   12.09    8.85
   0   0   9    8.34    6.54
   0   0   9    1.24    3.62
   0   0   9    4.28    5.85
  -2   0   9   -5.03    5.00
   2   0   9    3.95    6.14
  -2   0  -9    4.05    6.20
  -2   0   9   -7.09    4.78
   2   0  -9    9.25    7.90
   2   0  -9    2.68    5.09
   2   0   9   -8.41    4.81
  -2   0  -9   -0.77    4.16
   4   0  -9   -6.61   11.01
  -4   0   9   -7.29    6.96
  -4   0  -9    0.88   12.39
   4   0   9   -6.10    9.69
   1   1   9  252.53   18.45
   1  -1  -9  255.26   14.84
   1  -1   9  240.70   19.11
   1  -1   9  233.56   18.35
   1   1   9  231.63   17.87
   1   1  -9  240.18   16.81
  -1   1  -9  284.29   19.54
  -1  -1   9  237.46   17.22
   1  -1   9  241.12   10.10
  -1   1   9  241.16   17.56
  -1   1   9  224.51   16.27
   1   1  -9  233.98   17.93
  -1  -1   9  283.74   18.58
   1  -1  -9  233.46   20.11
  -1  -1  -9  240.63   20.26
  -3  -1   9  146.07   23.69
  -3   1   9  151.69   23.37
  -3   1  -9  208.40   30.15
   3   1  -9  200.51   28.08
   3  -1  -9  153.87   18.15
   3  -1   9  182.41   20.31
   3  -1   9  155.22   22.78
   3   1  -9  191.71   22.01
   3   1   9  135.54   22.07
  -3  -1  -9  129.52   17.22
  -3  -1  -9  115.22   21.57
   3  -1  -9  197.93   28.81
  -3   1  -9  167.24   20.74
   3  -1   9  126.70   23.26
  -5  -1   9   91.57   27.48
   5   1  -9   93.96   27.58
  -5   1   9   37.86   20.19
   5  -1   9   84.65   25.17
  -5  -1  -9   60.91   25.30
  -5   1  -9  122.19   32.58
   5   1   9   88.63   26.43
   5  -1  -9  115.47   30.79
   0  -2   9  474.91   19.62
   0  -2  -9  479.87   31.00
   0   2   9  426.91   23.32
   0   2   9  425.21   20.23
   0   2   9  435.16   15.13
   0   2  -9  460.77   23.51
   0   2  -9  473.93   24.86
   2   2   9  263.10   21.68
   2   2   9  289.04   19.77
  -2  -2  -9  287.13   29.79
  -2  -2   9  283.39   17.84
  -2   2   9  285.63   19.89
   2  -2   9  293.42   23.23
   2  -2   9  310.50   17.98
  -2   2  -9  293.20   23.36
  -2   2   9  300.42   22.94
   2  -2  -9  294.70   16.22
  -2  -2   9  288.51   23.92
  -2  -2  -9  309.93   16.01
   2  -2  -9  308.91   25.09
   2  -2   9  261.43   20.18
   2   2  -9  277.37   21.78
   2   2  -9  290.42   20.52
  -4   2   9   90.10   24.32
   4  -2   9  145.57   25.39
   4   2  -9  146.52   24.65
   4   2  -9  205.71   34.09
  -4  -2  -9  121.41   27.83
  -4  -2   9   90.11   22.79
   4  -2   9  164.72   30.33
   4  -2  -9  126.28   27.16
   4   2   9   96.51   22.70
   1  -3   9  543.44   28.59
   1  -3  -9  545.18   31.36
   1  -3   9  489.96   20.84
  -1   3   9  498.84   25.57
   1   3   9  525.49   25.82
   1  -3  -9  541.17   24.87
   1  -3  -9  520.18   17.60
   1   3  -9  514.21   26.66
   1   3   9  500.77   25.15
  -1  -3  -9  506.39   14.39
  -1   3  -9  494.53   22.81
  -1  -3   9  536.07   26.92
  -1  -3  -9  527.42   31.66
  -1  -3   9  516.45   24.43
   1   3  -9  520.38   22.53
   1  -3   9  506.18   27.16
  -3   3   9  335.31   36.94
  -3  -3  -9  320.23   35.80
   3   3  -9  319.00   33.77
   3   3  -9  326.75   31.41
   3  -3   9  297.78   23.28
   3  -3  -9  320.55   36.67
   3   3   9  334.74   34.34
  -3  -3  -9  314.16   23.19
  -3   3   9  278.69   22.20
   3  -3   9  328.86   35.69
  -3   3  -9  297.54   24.07
  -3  -3   9  411.40   42.97
   3  -3   9  315.65   31.56
   5  -3   9  157.44   36.07
   5   3   9  163.65   33.11
   5  -3   9  121.64   28.21
  -5  -3   9  163.56   35.92
  -5  -3  -9  116.72   31.99
   5   3  -9   82.74   27.95
  -5   3   9  115.12   31.71
   5  -3  -9  147.23   34.33
   0  -4  -9   88.02   10.42
   0   4  -9   72.91   12.85
   0   4  -9   85.34   10.17
   0  -4   9   74.47   12.97
   0   4   9   79.06   10.09
   0   4   9   57.82   11.54
   0  -4  -9   30.61   13.38
   0  -4   9  109.03   15.13
  -2  -4  -9   73.24   17.28
  -2  -4   9   41.02   13.11
   2   4   9   59.35   12.10
   2  -4   9   53.13   12.05
   2  -4  -9   87.91   18.52
   2   4  -9   57.58   13.58
   2   4   9   65.47   14.01
   2  -4   9   45.35   11.66
  -2  -4  -9   74.99   11.43
  -2   4   9   58.89   14.07
  -2   4   9   49.56   11.78
   2  -4   9   52.44   13.51
  -2  -4   9   65.84   11.21
   2  -4   9   58.88   13.60
   2   4  -9   63.73   13.23
  -4  -4  -9   11.88   13.71
  -4   4   9   12.09   12.90
   4   4  -9   23.66   15.66
   4  -4   9    7.81   13.14
   4   4  -9   31.18   14.64
   4  -4   9   45.86   17.70
  -4  -4   9   26.15   15.90
   4  -4  -9   58.84   20.69
   4   4   9   38.51   16.41
   1  -5  -9  570.40   34.06
   1  -5  -9  582.08   28.09
   1   5  -9  530.68   29.80
  -1  -5   9  553.53   30.85
  -1   5   9  584.02   29.98
   1  -5   9  514.86   28.93
   1   5   9  594.91   27.40
   1   5   9  556.53   27.78
  -1   5  -9  453.72   28.54
  -1  -5  -9  633.23   37.68
  -1   5  -9  594.35   22.90
  -1  -5   9  578.94   26.82
   1  -5   9  565.05   27.82
  -1  -5  -9  628.22   22.34
   1   5  -9  544.63   20.56
  -3  -5  -9  309.87   37.33
  -3   5   9  383.75   27.12
   3  -5  -9  400.84   35.17
   3  -5   9  348.58   27.44
   3  -5   9  365.85   36.18
   3   5  -9  342.99   28.72
  -3   5   9  322.39   34.79
   3   5   9  371.70   37.80
   3  -5   9  332.26   29.28
  -3  -5   9  377.33   41.73
   3  -5   9  368.96   35.05
   3   5  -9  357.27   29.73
   5  -5   9  254.64   44.43
  -5   5   9  102.28   28.79
  -5  -5  -9  131.14   34.25
  -5  -5   9  132.29   33.30
   5   5  -9  171.92   36.10
   5   5   9  161.80   33.42
   5   5  -9  177.68   33.63
   5  -5  -9  186.23   37.50
   0  -6   9  116.48   18.48
   0  -6  -9  123.72   21.16
   0   6  -9  111.05   16.34
   0  -6   9  139.34   17.69
   0  -6  -9  135.77   14.99
   0   6   9  140.42   12.82
   0   6   9  100.10   15.98
  -2  -6  -9   95.13   15.29
  -2  -6  -9   59.57   16.02
   2  -6   9   65.80   15.04
   2   6  -9  106.65   15.58
   2   6   9  103.00   18.28
   2   6   9   76.50   13.88
  -2  -6   9   73.82   18.27
  -2  -6   9   95.32   13.96
   2  -6   9   96.38   17.84
  -2   6   9   92.26   17.02
   2  -6   9   91.47   15.31
   2  -6  -9  110.38   19.37
   2  -6   9   89.70   17.18
   2   6  -9   77.60   15.36
   2  -6  -9   98.24   20.15
   4   6   9   43.73   17.91
   4   6  -9   41.02   19.30
   4  -6   9   34.66   16.16
   4  -6  -9   75.24   23.37
  -4   6   9   74.15   22.06
   4  -6   9   34.50   17.50
  -4  -6   9   40.52   20.93
   4   6  -9   71.52   21.17
  -4  -6  -9   45.41   21.25
  -4   6  -9   29.14   16.18
   1   7   9   59.88   11.92
  -1  -7  -9  105.95   15.09
   1   7  -9   96.60   17.02
  -1  -7  -9  132.82   25.11
  -1  -7   9   92.01   14.76
  -1   7  -9   67.52    8.99
  -1   7   9  100.56   16.98
   1  -7   9   73.33   15.31
   1  -7  -9   90.88   18.64
   1  -7  -9   83.87   14.70
  -1  -7   9   79.10   17.37
   1   7   9   74.63   13.53
  -1   7  -9  115.31   18.50
   1  -7   9   82.80   17.89
   3  -7  -9   50.91   18.12
   3   7  -9   86.16   18.74
   3  -7   9   94.96   21.96
   3   7   9   59.97   19.21
   3  -7   9   84.61   18.91
  -3   7   9   76.10   17.45
   3   7  -9   50.03   16.95
   3  -7   9   35.43   14.02
   3  -7  -9   73.68   20.39
  -3  -7   9  108.75   26.85
   3  -7   9   59.63   16.91
  -3  -7  -9   48.06   19.89
  -5  -7  -9   51.92   24.04
  -5   7   9   33.33   19.34
   5  -7  -9   23.90   19.66
  -5  -7   9   41.93   24.10
   5   7  -9   38.59   19.47
   5  -7   9   21.34   21.11
   5   7   9   30.37   19.05
   0   8   9   13.97    5.76
   0  -8   9   28.39   10.48
   0   8  -9   17.71   10.07
   0   8   9   23.83   10.66
   0  -8  -9   -8.45   10.45
   0  -8  -9   29.79    9.47
   0  -8   9    0.64    9.17
   2  -8   9   26.94   13.45
  -2  -8  -9   18.08    9.62
   2   8   9   12.46    8.51
  -2   8  -9   11.22   11.15
  -2  -8  -9   31.43   17.41
  -2  -8   9   23.97    9.51
   2   8   9   41.14   13.16
  -2  -8   9   23.71   14.07
   2  -8   9   13.25    9.01
   2  -8   9   13.61   11.80
  -2   8   9   13.19    9.54
   2  -8  -9   22.50   12.52
   2   8  -9   12.23   10.30
   2  -8  -9   19.06   12.91
  -4  -8   9   32.33   20.24
   4  -8   9    6.24   15.54
   4  -8   9    6.02   13.63
   4   8  -9   -5.36   14.89
  -4   8   9   11.06   13.44
   4  -8  -9   33.37   18.70
   4   8   9   37.68   17.53
  -4  -8  -9   15.76   17.87
  -1  -9   9  333.00   25.55
  -1   9  -9  251.26   27.33
   1  -9  -9  310.14   30.65
   1  -9  -9  344.87   36.13
  -1   9   9  339.84   28.02
  -1  -9  -9  252.43   37.34
   1  -9   9  342.14   37.89
   1   9   9  297.52   24.67
   1   9   9  321.05   23.45
  -1  -9   9  324.16   35.50
   1   9  -9  369.88   29.16
   1  -9   9  342.92   28.91
  -1  -9  -9  349.21   25.38
  -3  -9   9  175.92   33.30
   3  -9   9  281.18   34.49
   3   9   9  242.15   32.93
  -3  -9  -9  231.18   36.47
   3   9  -9  240.45   32.64
   3  -9   9  177.78   29.68
  -3   9   9  216.78   29.57
   3  -9  -9  288.84   38.34
   3  -9  -9  222.95   33.15
  -3   9  -9  287.29   34.61
   0 -10  -9  127.77   20.42
   0 -10   9  143.12   21.18
   0  10   9   91.09   17.37
   0  10  -9  128.19   20.56
   0 -10  -9   93.74   21.46
   0 -10   9   97.45   21.74
  -2 -10  -9   68.32   17.11
  -2  10   9   88.44   20.50
  -2 -10  -9   48.86   21.16
   2  10  -9   55.33   15.92
   2 -10   9   88.88   21.15
   2 -10   9  112.34   24.53
  -2 -10   9  119.26   27.11
   2 -10  -9   99.19   21.60
   2 -10  -9  109.62   24.18
   2  10   9   79.81   16.32
   2  10   9   82.91   17.74
  -2  10  -9  100.94   21.26
  -4  10   9   56.91   22.26
  -4 -10  -9   62.14   28.66
   4 -10   9  -10.84   18.30
   4  10  -9   38.66   21.78
   4  10   9   42.28   21.13
   4 -10  -9   31.19   20.59
  -4 -10   9   53.45   26.31
   1  11   9   39.99   14.41
  -1 -11   9   30.72   13.60
  -1  11   9   47.62   16.41
   1 -11   9   41.18   14.36
  -1  11  -9   59.40   15.98
  -1 -11  -9   93.15   27.33
   1  11   9   78.85   15.61
   1 -11  -9   51.27   15.79
  -1 -11   9   37.82   17.11
   1  11  -9   33.44   15.11
   1 -11   9   47.35   19.41
   1 -11  -9   31.28   15.56
  -1 -11  -9   27.52   13.43
  -3 -11   9   36.31   20.09
   3 -11  -9   22.87   18.59
   3 -11   9   39.46   20.43
  -3  11   9   27.16   14.20
   3 -11  -9   49.69   21.74
   3 -11   9   36.93   18.73
  -3 -11  -9   26.83   23.95
   3  11   9   63.29   20.80
   3  11  -9   29.76   17.45
   0 -12   9  487.06   36.69
   0  12   9  520.31   37.35
   0 -12   9  484.38   40.52
   0 -12  -9  487.22   43.33
   0  12  -9  539.44   38.11
   0 -12  -9  521.16   38.13
   2 -12   9  364.51   47.39
   2  12  -9  414.06   43.08
  -2 -12   9  403.50   50.89
  -2  12  -9  413.16   38.58
  -2 -12  -9  428.76   53.57
   2 -12   9  344.52   41.08
   2  12   9  395.10   31.11
   2 -12  -9  418.47   45.29
   2 -12  -9  373.49   41.90
   2  12   9  420.13   33.99
  -2  12   9  357.08   40.68
  -2 -12  -9  433.70   36.08
  -4 -12   9  225.75   44.43
   4 -12  -9  218.27   42.05
   4  12   9  286.46   43.48
  -4  12  -9  220.52   36.49
  -4 -12  -9  238.25   46.89
   4 -12   9  140.79   34.49
   4 -12  -9  181.09   35.65
   4  12  -9  286.97   44.53
   1  13   9  270.74   34.26
  -1  13  -9  300.32   33.72
  -1 -13  -9  164.31   32.22
   1  13  -9  255.45   34.04
  -1 -13   9  235.12   37.18
  -1  13   9  275.69   35.16
   1 -13  -9  342.20   42.08
  -1 -13  -9  281.85   35.71
   1 -13   9  282.62   37.72
   1 -13   9  247.21   39.32
   1 -13  -9  337.32   38.78
  -1 -13   9  292.77   33.63
  -3  13  -9  179.50   35.98
   3 -13  -9  175.25   34.57
  -3  13   9  230.55   34.91
  -3 -13   9  116.59   32.91
   3 -13  -9  186.89   37.04
  -3 -13  -9  243.22   48.73
   3  13   9  185.35   32.85
   3  13  -9  217.32   35.99
   3 -13   9  162.51   34.43
   0 -14   9    0.26   11.20
   0  14  -9   11.31   13.64
   0  14   9   -3.38    8.87
   0 -14   9   -4.34   12.81
   0 -14  -9    5.71   15.56
   0 -14  -9   -7.68   11.04
   2 -14   9  -16.17   17.09
  -2 -14  -9   -3.44   22.76
   2  14   9   13.50   14.29
  -2  14   9   -1.04   10.30
   2  14  -9   -5.89   11.78
   2 -14  -9   16.13   15.80
   2 -14  -9   18.71   15.84
  -2 -14   9   27.99   20.65
   1  15  -9    5.93   14.82
  -1  15  -9   -5.86   11.98
   1  15   9    1.97   14.10
   1  15  -9   10.54   13.10
   1 -15   9   13.93   19.27
   1 -15  -9  -16.12   11.53
  -1  15   9   -4.58   10.15
  -1 -15  -9   -4.41   13.77
  -1 -15   9  -18.82   14.22
  -3  15  -9   -6.72   13.11
   3  15   9   18.14   20.71
  -3 -15   9  -15.83   17.70
  -3  15   9   -0.34   13.54
   3 -15  -9    1.35   18.44
   3 -15   9   11.24   24.45
   3  15  -9    8.26   18.65
   0  16   9   40.05   19.77
   0  16  -9   23.89   18.08
   0 -16  -9    6.31   17.54
   0 -16   9   16.77   19.41
   0  16  -9    4.48   13.20
  -2  16  -9   21.06   19.88
   2 -16  -9   -9.70   16.98
  -2  16   9   38.69   18.80
  -2 -16   9   13.61   19.50
   2 -16   9   21.31   26.01
   2  16  -9    5.79   19.47
   1  17  -9   95.97   27.36
   1  17   9  130.73   30.73
  -1 -17   9   71.13   26.88
   1 -17   9  111.70   34.61
   1 -17  -9  100.60   29.52
   1  17  -9   96.85   29.10
  -1  17  -9   29.41   19.31
  -1 -17  -9   71.15   27.89
  -1  17   9   47.59   21.94
   0 -18  -9   16.94   22.47
   0  18  -9   14.49   15.91
   0 -18   9   28.72   24.63
   0  18   9   27.61   18.09
   0   0  10   92.60   13.51
   0   0 -10  116.79   18.18
   0   0  10   85.29   13.33
   0   0  10   97.15    8.87
  -2   0  10   66.85   12.30
   2   0 -10   84.22   16.98
  -2   0 -10   49.99    8.29
  -2   0 -10   62.57   14.12
   2   0  10   47.80   12.04
   2   0 -10   49.96   10.32
  -2   0  10   75.80   15.87
   2   0  10   78.59   13.93
   4   0  10   31.69   14.24
   4   0 -10   12.44   15.60
  -4   0 -10    3.01   13.17
  -4   0  10    1.06   10.46
   1   1  10  279.31   20.09
   1  -1  10  260.48   20.68
   1  -1 -10  275.77   22.27
   1  -1  10  288.88   20.90
  -1  -1 -10  284.95   22.35
  -1   1 -10  280.92   20.50
   1   1 -10  263.81   19.80
   1  -1 -10  262.20   16.85
  -1  -1  10  264.00   18.60
   1  -1  10  271.64   10.19
   1   1 -10  250.67   17.82
   1   1  10  305.78   21.19
  -1   1  10  271.87   17.81
  -1   1  10  277.16   19.49
  -1  -1  10  274.76   19.41
   3  -1 -10  177.54   19.78
   3   1 -10  168.63   20.82
  -3  -1 -10  162.10   26.60
  -3   1  10  218.78   29.95
   3  -1 -10  138.34   23.83
  -3  -1  10  128.94   22.91
  -3   1 -10  142.03   20.70
   3  -1  10  203.58   22.74
  -3   1 -10  154.36   25.83
   3   1 -10  164.79   26.21
   3   1  10  180.88   25.95
   3  -1  10  142.82   22.73
  -5   1  10   34.43   19.56
   5   1 -10   55.13   23.73
  -5  -1  10   87.16   28.18
   5   1  10   73.77   24.30
   5  -1  10   69.22   23.93
  -5  -1 -10   96.53   31.25
   5  -1 -10   86.47   29.46
  -5   1 -10  107.10   31.90
   0   2  10    0.48    3.96
   0  -2  10    7.98    5.65
   0   2 -10    1.85    6.94
   0   2  10   -2.62    4.98
   0  -2  10   -0.52    5.46
   0   2  10    2.83    5.42
   0  -2 -10    9.33   10.01
   0   2 -10   -3.67    5.84
   2   2 -10    7.91    8.10
   2  -2  10    1.59    4.98
  -2   2  10   -0.62    6.26
   2   2  10   -1.78    5.61
   2  -2 -10    4.54    4.74
  -2   2  10    2.86    6.00
   2  -2 -10   -1.27    8.17
  -2   2 -10    9.20    8.88
  -2  -2 -10    6.46    4.79
  -2  -2 -10    8.09    9.53
   2   2  10    7.34    7.50
   2  -2  10    6.64    7.26
  -2  -2  10   -3.39    6.75
  -2  -2  10   -0.01    5.47
   2  -2  10    2.18    7.19
   2   2 -10    2.86    6.84
   4  -2 -10   35.78   16.56
   4  -2  10    2.19   10.04
   4   2 -10    1.55   10.15
  -4  -2  10    4.39   12.20
  -4  -2 -10   10.07   12.71
  -4   2 -10   -1.90   12.55
   4   2  10    0.11   10.40
  -4   2  10    3.31   11.05
   4   2 -10   -1.43   11.05
  -1   3  10 1196.51   42.23
   1  -3 -10 1168.90   30.50
   1  -3  10 1247.58   44.28
  -1  -3  10 1226.63   41.71
  -1  -3 -10 1194.22   21.93
   1  -3 -10 1204.81   48.51
   1  -3  10 1161.60   44.19
  -1   3 -10 1167.73   37.89
  -1   3  10 1190.91   38.58
   1   3 -10 1235.89   42.90
  -1  -3  10 1171.69   39.75
   1   3  10 1275.43   42.85
   1   3 -10 1223.65   37.32
   1  -3  10 1203.31   33.23
   1   3  10 1296.38   41.22
  -1  -3 -10 1173.42   49.09
  -3   3  10  713.38   42.08
  -3   3  10  768.98   35.79
   3  -3  10  728.37   43.60
   3  -3 -10  638.52   43.10
  -3   3 -10  724.54   35.81
  -3  -3 -10  800.89   47.98
   3   3 -10  759.27   42.19
   3  -3  10  698.47   35.99
   3   3 -10  648.06   36.30
  -3  -3  10  752.99   43.82
   3  -3  10  747.81   42.23
   3   3  10  663.22   40.54
  -5  -3  10  412.74   54.85
  -5   3  10  301.02   45.80
   5  -3  10  334.40   46.29
   5  -3 -10  255.85   42.20
  -5   3 -10  451.57   57.88
   5   3  10  411.28   50.82
   5   3 -10  389.92   51.24
  -5  -3 -10  359.13   53.54
   0  -4  10  120.80   16.23
   0   4 -10  146.61   14.21
   0  -4 -10  124.71   11.96
   0   4  10  148.76   14.12
   0   4  10  128.13   16.54
   0   4 -10  141.76   18.28
   0  -4  10  156.73   18.02
   0  -4 -10  125.58   20.76
   2  -4  10   58.10   14.81
  -2  -4  10   86.00   17.92
  -2  -4 -10   66.50   16.08
   2   4 -10   86.51   15.38
   2   4  10  103.19   17.07
   2   4 -10   98.37   16.54
  -2   4 -10   96.55   16.15
   2  -4  10   98.13   16.46
  -2  -4  10  139.12   16.61
   2   4  10  122.02   17.57
  -2   4  10  104.91   16.56
  -2   4  10  116.90   19.05
  -2  -4 -10  150.16   14.98
   2  -4 -10  131.34   22.32
   2  -4  10  123.96   16.49
   4  -4  10   75.66   21.35
   4   4 -10   99.72   25.09
   4  -4 -10   30.68   17.04
   4  -4  10   54.37   17.95
   4   4  10   69.62   20.05
  -4  -4 -10   73.59   24.46
  -4  -4  10   45.62   18.67
   4   4 -10   66.34   18.83
  -4   4  10   57.57   19.11
   1   5  10  633.75   29.40
   1  -5  10  684.52   34.38
  -1  -5  10  675.84   34.09
   1   5  10  717.41   32.35
   1   5 -10  691.18   34.12
  -1  -5 -10  685.22   22.80
  -1  -5  10  706.83   31.34
   1   5 -10  649.54   24.12
   1  -5 -10  749.78   40.50
   1  -5 -10  670.97   30.10
  -1   5 -10  662.88   25.64
  -1   5 -10  689.65   35.84
   1  -5  10  697.39   31.13
   1  -5 -10  714.43   18.44
  -1  -5 -10  724.23   42.32
  -1   5  10  714.89   33.57
   3  -5  10  426.12   34.21
   3  -5  10  423.26   33.11
   3  -5  10  423.97   30.99
  -3   5  10  462.11   30.07
   3   5  10  441.01   33.77
   3   5 -10  432.70   33.43
   3  -5 -10  354.48   38.89
  -3   5  10  400.96   33.56
  -3  -5 -10  459.60   39.18
  -3  -5  10  438.42   36.25
   3  -5  10  363.41   29.88
   3   5 -10  406.29   31.71
   5   5  10  263.06   40.36
  -5  -5  10  170.96   39.51
   5   5 -10  244.56   37.29
   5   5 -10  264.53   44.32
   5  -5  10  246.20   43.25
  -5  -5 -10  243.52   44.05
  -5   5  10  212.60   39.28
   5  -5 -10  186.36   39.51
   0   6  10   50.55    8.93
   0   6 -10   72.09   14.47
   0  -6 -10   68.41   11.12
   0   6  10   46.33   11.13
   0  -6 -10   70.43   17.60
   0  -6  10   51.63   12.04
   0  -6  10   67.17   14.89
   2   6 -10   46.36   13.96
   2  -6  10   31.53   13.24
   2  -6  10   63.57   15.25
   2   6  10   55.86   11.93
   2  -6  10   75.24   17.31
  -2  -6  10   39.17   10.22
  -2  -6 -10   70.68   13.10
   2   6  10   64.04   14.85
  -2  -6 -10   68.90   20.26
  -2  -6  10   75.38   19.41
   2   6 -10   47.61   12.47
   2  -6 -10   61.37   15.02
  -2   6  10   57.38   14.49
  -2   6 -10   30.39    9.84
   2  -6 -10   70.45   18.00
   4  -6  10   81.42   23.52
   4   6 -10   32.15   16.87
  -4   6  10   53.29   20.46
  -4  -6  10   63.92   24.58
   4   6  10   18.25   16.48
   4  -6  10   70.76   20.94
   4   6 -10   39.19   19.42
  -4  -6 -10   65.54   24.31
   4  -6 -10   47.01   20.70
  -1  -7 -10  125.05   24.33
   1  -7  10  140.92   22.33
  -1   7 -10  173.68   22.73
  -1  -7  10  174.21   24.34
  -1   7  10  111.87   18.77
  -1  -7  10  149.54   19.38
   1  -7  10  165.83   22.19
   1  -7 -10  141.37   24.19
  -1  -7 -10  155.41   17.06
   1   7  10  156.31   18.51
   1   7  10  169.67   20.52
   1  -7 -10  143.05   19.49
   1   7 -10  156.34   21.34
   3   7 -10  122.66   23.43
  -3  -7 -10  101.41   25.30
  -3  -7  10   74.13   21.46
   3   7  10  146.07   25.22
   3  -7  10  130.37   24.17
   3  -7  10   87.51   19.29
   3  -7  10   70.38   18.73
   3  -7 -10   97.97   24.42
  -3   7  10   99.10   19.25
  -3   7  10  130.73   26.51
   3  -7  10  104.33   20.17
  -5  -7 -10   76.20   28.40
  -5  -7  10   46.61   23.96
   5  -7 -10   30.23   24.91
   5   7 -10   51.79   23.49
   5   7  10   19.30   19.81
  -5   7  10   33.67   19.77
   5  -7  10   32.18   23.09
   0   8  10   10.08    8.89
   0   8 -10    4.90    8.85
   0  -8  10    5.40    7.03
   0   8  10    2.99    5.26
   0  -8 -10    2.71   11.32
   0  -8  10    4.02    9.68
   0  -8 -10    2.47    6.43
  -2   8 -10    6.28   11.60
   2  -8 -10   -3.26   11.32
  -2   8  10   -0.80    8.29
   2   8  10   15.90   10.50
   2   8  10   15.01    9.46
  -2  -8 -10    3.51    7.76
   2  -8  10   -3.08    9.46
   2   8 -10   -6.20    8.87
   2  -8  10   -1.29    7.97
  -2  -8 -10    6.83   13.39
  -2  -8  10    7.85   12.00
   2  -8 -10   10.24   11.29
  -2  -8  10    8.15    9.19
  -4  -8  10    7.49   15.61
  -4  -8 -10   -7.04   14.54
   4   8 -10    4.53   15.67
  -4   8  10  -11.18    8.81
   4  -8 -10  -17.69   11.24
   4   8  10    9.40   14.09
   1  -9  10  366.75   30.85
  -1  -9  10  271.70   27.48
  -1   9  10  364.74   30.13
   1   9  10  319.12   25.52
   1   9  10  361.36   25.21
  -1  -9 -10  324.24   24.93
   1  -9 -10  357.38   27.25
   1   9 -10  317.21   32.73
   1  -9 -10  324.18   37.70
  -1  -9  10  306.23   35.10
   1  -9  10  340.35   38.83
  -1   9 -10  337.55   32.23
  -1  -9 -10  308.03   40.99
   3  -9 -10  183.85   30.86
   3   9  10  250.29   34.46
  -3  -9 -10  251.47   39.93
   3  -9 -10  210.45   32.80
   3  -9  10  354.46   39.91
   3  -9  10  213.14   32.13
  -3  -9  10  189.44   33.45
   3   9 -10  194.07   30.13
  -3   9 -10  237.16   32.30
  -3   9  10  187.53   29.12
   0  10  10   55.90   16.07
   0 -10 -10   83.69   23.95
   0  10 -10   92.70   17.80
   0 -10 -10   70.05   16.32
   0 -10  10   77.62   19.38
   0 -10  10   38.60   13.64
   2 -10  10   57.45   17.74
   2 -10 -10   41.14   17.42
   2 -10 -10   73.08   20.04
   2  10  10   49.82   15.88
  -2  10 -10   34.28   15.06
   2  10  10   59.94   16.59
   2 -10  10   40.41   18.40
  -2 -10  10   65.20   21.32
   2  10 -10   35.57   13.51
  -2 -10 -10   38.54   22.43
  -2  10  10   58.48   17.69
   4 -10 -10   30.87   20.15
  -4  10  10   12.80   15.30
   4  10  10   17.42   19.40
   4  10 -10   19.00   18.48
  -4 -10 -10   36.30   24.51
  -4 -10  10   29.70   22.51
  -1 -11  10  189.46   31.66
  -1  11  10  220.79   29.73
   1  11  10  224.82   25.09
  -1 -11 -10  208.10   28.13
  -1 -11  10  191.28   25.52
   1 -11  10  158.66   30.91
  -1  11 -10  197.69   27.27
  -1 -11 -10  213.23   38.39
   1 -11 -10  201.60   27.97
   1 -11  10  216.00   28.37
   1  11 -10  191.58   28.19
   1 -11 -10  194.49   31.93
   1  11  10  203.33   27.14
  -3 -11  10  101.93   28.61
   3  11  10   99.07   24.52
   3 -11 -10  150.98   29.33
  -3  11  10  112.38   24.65
   3 -11  10  105.80   28.01
   3  11 -10   98.69   25.06
   3 -11  10  203.38   33.99
   3 -11 -10  151.84   31.79
  -3 -11 -10  114.17   31.69
   0  12 -10  188.11   28.04
   0 -12 -10  176.55   27.12
   0  12  10  147.51   26.06
   0 -12  10  161.82   29.76
   0 -12  10  153.53   25.55
   0 -12 -10  145.95   28.76
   2  12  10   92.27   21.90
   2  12  10  132.28   22.91
   2  12 -10   93.44   22.50
   2 -12 -10  130.43   27.78
  -2  12  10  112.28   23.92
  -2  12 -10  107.65   23.48
  -2 -12 -10   92.12   30.65
   2 -12  10  171.01   30.84
   2 -12  10  109.20   28.73
  -2 -12  10  132.91   31.36
   2 -12 -10  120.68   25.16
  -4  12  10   42.06   19.58
   4 -12 -10   77.84   28.56
  -4  12 -10   67.54   22.72
  -4 -12 -10   73.16   35.27
  -4 -12  10   78.18   31.38
   4  12 -10  141.73   34.74
   4  12  10   96.89   27.74
   1 -13 -10   17.74   14.46
   1  13  10   36.18   14.97
  -1 -13 -10   37.10   20.94
  -1  13  10   35.92   15.23
  -1  13 -10   18.37   15.81
   1 -13 -10   32.10   19.81
   1 -13  10   18.27   15.22
  -1 -13 -10   24.57   15.77
   1  13 -10   29.26   15.84
  -1 -13  10   -0.50   10.40
   1 -13  10    6.68   17.80
  -1 -13  10   66.05   23.22
   3 -13 -10   19.93   19.13
   3  13 -10   33.76   20.19
  -3 -13 -10   19.48   27.11
   3  13  10   24.14   18.41
  -3  13 -10    7.59   13.98
  -3 -13  10   -1.76   15.09
   3 -13 -10  -11.91   14.20
   3 -13  10   33.94   21.97
  -3  13  10   17.89   14.38
   0 -14  10   10.28   13.38
   0 -14 -10   -3.33   14.15
   0  14  10    7.96   10.58
   0 -14  10   -8.16   12.94
   0  14 -10    3.13   12.68
   0 -14 -10    2.16   15.27
   2 -14 -10    4.96   16.64
   2  14 -10   16.06   16.88
  -2  14  10    4.91   11.43
  -2 -14 -10  -15.73   20.99
   2 -14  10    2.32   19.26
  -2 -14  10   -3.43   14.31
   2 -14 -10   35.12   18.69
   2 -14  10   -3.97   14.43
   2  14  10    8.92   15.91
   1  15  10   14.32   14.07
  -1 -15 -10   30.95   20.71
  -1  15  10    6.70   12.34
  -1  15 -10   -0.45   16.04
   1 -15 -10    9.12   15.30
   1  15 -10   29.81   19.65
   1 -15  10   30.71   18.34
   1  15 -10   11.78   15.21
  -1 -15  10   27.17   20.07
   1 -15  10   12.55   21.47
  -3 -15  10   39.04   25.34
   3  15 -10   16.72   20.59
  -3  15  10   -3.04   13.73
  -3  15 -10   39.47   22.06
   3  15  10    7.96   20.48
   3 -15  10   33.51   25.84
   3 -15 -10  -10.45   19.42
   0 -16  10   -3.51   18.68
   0  16  10    3.52   12.86
   0 -16 -10    4.59   17.41
   0  16 -10   -6.22   15.24
   0  16 -10   14.86   14.64
  -2  16 -10   -8.81   13.55
  -2 -16  10   19.84   21.59
  -2  16  10   -8.24   13.72
   2 -16  10  -20.73   17.75
   2  16 -10    6.84   18.61
   2 -16 -10    0.23   19.16
   1  17  10   15.65   16.66
   1 -17  10    2.54   19.65
   1  17 -10   48.35   23.39
  -1 -17  10   46.94   25.73
   1 -17 -10   38.56   24.78
   1  17 -10   27.18   19.19
  -1  17 -10   35.99   18.87
  -1  17  10   22.71   17.55
   0  18  10  231.29   41.05
   0  18 -10  195.45   38.98
   0 -18  10  135.30   37.77
   0 -18 -10  183.95   42.45
   0   0  11    2.74    4.14
   0   0 -11    1.23    8.18
   0   0  11   -6.04    5.01
   0   0  11    0.11    6.03
  -2   0  11   -6.33    4.92
   2   0 -11   -4.18    4.53
   2   0 -11  -13.55    5.89
  -2   0 -11   -7.46    7.34
   2   0  11    0.71    6.40
   2   0  11   -6.37    5.73
  -2   0 -11    1.12    4.34
  -2   0  11   -2.41    7.38
  -4   0  11    5.09   11.38
  -4   0 -11    2.93   13.62
   4   0  11   -5.81   10.78
   4   0 -11   -4.40   13.31
  -1   1  11    6.27    7.32
  -1  -1 -11    7.38    7.90
  -1  -1  11    4.46    6.70
   1   1 -11    6.45    7.37
  -1  -1  11   -2.72    5.70
  -1   1  11    8.31    6.46
   1   1  11   12.70    7.30
   1  -1 -11    6.05    6.35
  -1   1 -11    4.38    7.76
   1   1 -11    9.68    6.63
   1  -1  11   10.55    7.50
   1  -1  11    2.80    7.24
   1  -1 -11    6.39    8.98
   1   1  11   -2.49    5.98
  -3  -1 -11    7.06   11.65
   3  -1  11    3.15    7.77
  -3  -1  11    4.17    9.63
  -3   1  11   -4.54    7.77
   3   1  11   -2.35    8.05
   3  -1 -11    3.14    7.01
   3   1 -11    3.29    8.60
   3   1 -11   14.80    9.49
   3  -1  11   -3.84    7.63
   3  -1 -11   15.27   11.48
   3   1  11   -1.29    8.56
  -3   1 -11    2.06   10.58
   5  -1 -11  -18.18   17.06
  -5  -1  11   -4.86   16.66
   5  -1  11   10.72   16.45
   5   1 -11    0.99   16.64
  -5   1 -11   -0.03   17.22
  -5  -1 -11  -13.22   14.44
  -5   1  11  -16.79    9.73
   5   1  11   -1.72   14.83
   0   2  11   51.57   10.57
   0   2  11   66.09   13.65
   0  -2  11   36.20   10.22
   0  -2  11   58.11    9.65
   0   2  11   55.76    7.23
   0   2 -11   62.72   12.73
   0  -2 -11   27.64   11.98
   0   2 -11   67.48   13.71
   2   2 -11   38.61   12.39
  -2   2  11   53.91   12.14
  -2  -2 -11   54.38   15.56
   2  -2  11   12.99    9.00
   2   2  11   40.82   10.96
   2  -2  11   37.71    8.82
   2  -2  11   43.82   13.29
  -2  -2  11   41.99   13.24
   2   2 -11   34.60   10.63
   2  -2 -11   69.88   17.43
   2   2  11   61.73   14.46
   2  -2 -11   31.16    7.74
  -2  -2  11   52.97   11.28
  -2   2  11   45.89   12.21
  -2   2 -11   30.85   11.60
  -4   2 -11   36.63   19.09
  -4   2  11   -1.20    9.51
   4   2 -11   20.59   13.20
  -4  -2 -11    5.55   14.35
   4  -2 -11   37.89   18.62
   4   2 -11    0.98   12.34
  -4  -2  11   22.67   15.30
   4  -2  11    0.90   12.39
   4   2  11   29.24   15.65
  -1  -3  11 1766.21   51.90
   1  -3  11 1782.48   41.64
   1   3 -11 1794.74   53.83
  -1   3  11 1767.45   53.82
   1   3  11 1743.83   50.68
  -1  -3  11 1775.90   51.82
   1   3  11 1759.17   53.69
   1  -3 -11 1722.30   41.35
  -1   3  11 1762.31   48.13
   1  -3  11 1834.35   56.27
  -1  -3 -11 1691.02   62.05
   1  -3 -11 1726.03   61.20
   1   3 -11 1804.44   48.96
  -1   3 -11 1720.81   49.75
   1  -3  11 1816.18   57.39
   3  -3 -11 1063.59   55.79
   3  -3  11 1045.08   52.03
  -3  -3 -11 1061.14   57.48
  -3  -3  11 1088.88   53.59
  -3   3  11 1062.11   43.41
   3   3 -11 1036.29   46.69
   3   3 -11 1066.16   50.65
  -3   3 -11 1161.91   55.01
   3  -3  11 1034.39   45.29
  -3   3  11 1185.45   54.92
   3   3  11 1101.19   52.22
   5   3 -11  681.34   66.91
  -5   3  11  463.73   54.62
  -5   3 -11  540.17   61.73
  -5  -3 -11  557.69   67.59
   5  -3 -11  594.85   63.79
   5   3  11  576.39   57.01
  -5  -3  11  582.08   62.59
   5  -3  11  588.79   58.66
   0  -4 -11   -0.88    8.96
   0   4  11    6.13    5.71
   0  -4 -11   -3.35    4.16
   0   4 -11    4.13    5.58
   0  -4  11   -8.69    5.03
   0   4  11    6.45    6.60
   0   4 -11    9.10    8.77
   0  -4  11    2.57    6.36
   2   4  11   -3.84    6.14
  -2   4 -11    7.43    7.78
   2   4  11   13.13    9.23
  -2  -4  11   -7.42    6.46
   2  -4  11   -1.40    7.25
  -2  -4 -11   -7.67    7.42
  -2   4  11   24.62   10.46
   2  -4  11   -6.00    6.66
   2   4 -11   -2.08    6.91
   2  -4 -11   12.50    9.88
   2   4 -11  -10.69    5.86
  -2  -4  11   -4.51    6.36
  -2   4  11    7.14    7.10
   2  -4  11   -4.62    5.31
   4   4  11    2.09   12.49
  -4   4  11   -1.95   10.61
  -4   4 -11   21.32   14.60
   4   4 -11    7.35   14.09
   4  -4 -11    6.68   15.09
  -4  -4 -11   10.86   14.97
   4   4 -11   -6.14   11.98
  -4  -4  11   -2.22   13.30
   4  -4  11   -7.59   10.75
   1  -5  11  558.65   32.15
  -1   5 -11  562.24   33.28
   1  -5 -11  600.40   19.63
  -1  -5 -11  605.59   20.20
   1   5  11  572.74   28.87
   1  -5 -11  616.95   38.81
  -1   5  11  610.69   32.29
  -1  -5 -11  661.84   42.54
  -1  -5  11  582.45   29.99
   1   5 -11  583.61   23.94
   1  -5  11  586.60   29.10
   1   5 -11  634.47   33.80
  -1  -5  11  597.74   32.39
   1   5  11  569.84   30.75
  -1   5 -11  551.06   24.83
   1  -5 -11  580.81   28.64
   3   5  11  402.15   33.37
   3  -5  11  420.33   34.86
   3   5 -11  438.62   33.28
   3  -5  11  423.95   30.44
  -3   5 -11  362.19   31.46
   3  -5 -11  342.03   41.08
  -3  -5  11  449.46   37.50
  -3  -5 -11  386.69   43.39
   3   5 -11  434.67   40.07
  -3   5  11  407.15   30.07
   3  -5  11  369.83   29.72
  -3   5  11  364.82   38.62
  -5  -5 -11  212.53   43.05
   5   5  11  163.03   34.99
   5   5 -11  187.12   32.14
  -5  -5  11  200.82   38.82
  -5   5  11  156.87   36.37
  -5   5 -11  234.51   41.08
   5  -5 -11  208.68   42.40
   5   5 -11  213.70   40.32
   0  -6 -11    2.49    5.81
   0   6  11   -3.74    6.15
   0  -6  11   -6.93    5.99
   0  -6 -11   -4.31    9.15
   0  -6  11    4.67    7.48
   0   6  11   15.48    6.69
   0   6 -11   -1.48    6.77
  -2  -6  11    1.02    6.92
  -2   6 -11   10.08    7.26
   2  -6 -11   -8.67    9.03
  -2   6  11  -13.63    6.00
   2  -6  11   -5.85    6.62
   2   6 -11    3.46    8.09
   2   6 -11   -0.96    6.98
   2  -6  11    0.31    8.20
   2   6  11  -10.06    5.98
  -2  -6 -11   -2.59    8.77
   2  -6  11    9.88    8.68
  -2  -6  11   -4.85    9.91
   2  -6 -11    0.15    8.41
   2   6  11   -1.53    7.24
  -4  -6 -11    2.06   16.07
   4  -6  11    4.81   13.61
  -4  -6  11   12.28   16.25
   4   6  11    6.85   12.96
  -4   6  11   -5.74   10.77
   4  -6  11   14.70   13.46
   4   6 -11    6.00   14.48
   4   6 -11    0.85   13.43
   4  -6 -11   -3.80   12.61
   1   7 -11  664.30   38.37
   1  -7  11  644.62   36.62
  -1  -7  11  639.03   37.47
  -1  -7 -11  684.52   28.37
  -1   7  11  615.89   35.57
  -1  -7 -11  657.86   47.30
   1   7  11  619.65   33.94
   1   7  11  674.35   31.99
   1  -7 -11  654.02   42.96
   1  -7  11  649.45   36.69
   1  -7 -11  678.31   32.87
  -1  -7  11  610.59   32.35
  -1   7 -11  649.14   36.77
   3  -7  11  406.48   33.32
  -3   7  11  392.05   41.05
   3  -7  11  423.04   33.95
   3   7 -11  448.84   37.14
  -3  -7 -11  516.97   44.74
   3  -7  11  408.84   34.05
   3  -7 -11  453.07   39.93
   3  -7  11  379.77   38.12
  -3  -7  11  424.13   45.44
  -3   7  11  428.62   32.91
   3   7  11  419.09   34.99
  -5   7  11  139.61   34.91
  -5  -7 -11  219.13   44.20
   5  -7 -11  206.89   39.71
   5   7  11  258.83   43.53
  -5   7 -11  239.82   38.58
  -5  -7  11  197.72   41.61
   5   7 -11  172.51   34.40
   0  -8 -11  359.58   23.75
   0   8  11  345.21   26.72
   0  -8  11  359.17   35.80
   0  -8 -11  362.87   40.13
   0   8 -11  323.77   30.87
   0  -8  11  369.80   28.03
   0   8  11  310.90   18.17
   2  -8  11  308.98   34.74
   2  -8  11  365.28   38.75
  -2   8 -11  284.95   32.58
   2   8 -11  277.14   32.81
  -2  -8 -11  245.55   35.58
  -2  -8  11  274.23   22.57
   2  -8 -11  395.17   43.21
   2  -8 -11  244.50   29.38
  -2  -8  11  239.49   33.13
   2   8  11  301.55   31.36
  -2   8  11  272.66   30.64
   2   8  11  294.12   28.94
  -4   8  11  104.00   27.24
   4  -8 -11  154.97   30.83
   4   8  11  105.46   26.22
  -4  -8 -11  155.21   36.17
  -4  -8  11  137.90   31.24
   4   8 -11  126.71   27.76
   1  -9  11   86.35   21.16
   1   9  11   94.87   17.99
  -1  -9  11  145.23   21.56
  -1  -9 -11   70.60   24.91
   1   9 -11   57.78   16.84
   1   9  11   93.55   16.00
   1  -9 -11   82.72   21.41
  -1  -9 -11  126.55   19.57
   1  -9 -11   95.69   18.15
  -1  -9  11   88.36   21.03
   1  -9  11  109.53   20.67
  -1   9 -11  116.25   20.93
  -1   9  11   99.44   19.13
   3   9  11   54.96   17.78
   3   9 -11   75.78   22.73
  -3   9  11   75.67   19.26
   3  -9  11   64.47   21.19
   3  -9 -11   29.06   16.85
  -3  -9 -11   61.12   24.45
  -3  -9  11   54.59   20.57
   3  -9 -11   69.54   20.62
  -3   9 -11   81.79   22.54
   3  -9  11   64.65   19.39
   0 -10 -11   -4.32   11.98
   0  10  11    3.91    9.48
   0  10 -11    4.20    9.97
   0 -10  11    5.81   11.33
   0 -10 -11    3.74    9.89
   0 -10  11   14.14   12.48
  -2 -10 -11   31.67   22.30
   2  10 -11   14.12   13.15
   2 -10  11  -11.71   10.70
  -2  10 -11   17.53   13.66
   2 -10 -11   12.18   13.47
   2 -10 -11   46.41   20.50
   2  10  11   21.58   13.01
   2 -10  11   -4.61    9.72
  -2  10  11   16.92   12.68
  -2 -10  11   13.90   15.21
   2  10  11   13.65   10.55
   4 -10 -11    1.96   16.27
  -4  10  11   -5.82   12.84
  -4 -10 -11   11.77   20.96
  -4 -10  11   29.61   22.23
   4  10  11    3.68   14.58
   4  10 -11    8.26   19.03
  -1  11  11  349.45   38.82
  -1  11 -11  343.53   35.49
  -1 -11 -11  308.56   43.11
   1 -11  11  332.14   41.37
   1 -11 -11  345.15   35.64
  -1 -11  11  372.86   42.95
  -1 -11 -11  285.81   31.80
  -1 -11  11  302.20   31.63
   1  11 -11  238.95   30.69
   1  11  11  301.61   32.63
   1 -11  11  334.30   35.70
   1 -11 -11  321.78   39.49
   1  11  11  327.97   26.15
  -3  11  11  220.70   33.10
   3 -11  11  258.21   39.34
   3  11 -11  275.77   40.57
   3 -11  11  262.14   37.77
  -3 -11  11  268.23   42.91
   3 -11 -11  160.78   31.92
   3 -11 -11  292.68   41.82
  -3 -11 -11  200.52   40.69
   3  11  11  218.07   34.89
   0  12  11  151.24   27.34
   0 -12 -11   93.66   27.23
   0  12 -11  126.20   24.65
   0 -12  11  133.27   24.25
   0 -12 -11  115.56   22.61
   0 -12  11  111.83   27.46
  -2  12  11   88.22   22.70
   2  12  11  139.88   26.16
   2  12  11   73.54   19.53
  -2  12 -11  111.15   24.45
   2 -12 -11   73.78   23.09
   2 -12 -11  147.38   27.97
   2  12 -11  124.85   26.12
  -2 -12 -11   52.70   27.62
   2 -12  11  104.52   24.81
   2 -12  11  112.63   30.79
  -2 -12  11  106.23   28.22
  -4 -12  11   30.28   24.07
  -4  12 -11   30.04   17.33
   4 -12 -11   35.31   21.60
  -4 -12 -11   13.60   25.85
   4  12 -11   56.61   26.54
  -4  12  11   25.77   22.57
   4  12  11   63.89   24.72
  -1 -13 -11   88.57   27.68
  -1  13  11    8.32   11.74
  -1  13 -11   58.90   19.45
   1 -13 -11   86.42   25.80
   1  13  11   52.08   17.37
  -1 -13  11   12.49   16.25
   1 -13  11   74.01   22.12
  -1 -13  11   15.06   12.68
   1 -13  11   25.21   18.27
  -1 -13 -11   24.58   15.87
   1 -13 -11   26.36   17.37
   1  13 -11   42.53   18.02
   3  13  11   14.24   18.80
   3  13 -11   -7.40   15.90
  -3 -13 -11    1.80   23.56
   3 -13 -11   26.91   22.19
   3 -13  11   18.57   23.13
   3 -13  11    7.50   15.65
   3 -13 -11   -5.10   14.95
  -3 -13  11   28.95   23.10
  -3  13  11   33.42   20.23
   0  14 -11    1.32   14.42
   0 -14 -11   15.23   18.59
   0 -14  11    3.53   12.29
   0 -14 -11   11.93   15.07
   0  14  11   -1.57   12.89
   0 -14  11   -7.35   14.14
  -2 -14 -11   -5.12   22.74
   2 -14  11  -14.82   17.07
   2 -14 -11    2.14   15.42
  -2 -14  11    5.58   18.64
  -2  14  11   13.86   15.54
   2 -14  11   -5.50   15.14
   2 -14 -11   17.54   18.20
   2  14 -11   -4.31   14.24
   1 -15 -11 1019.18   65.47
  -1  15  11  846.86   56.82
   1  15  11  951.72   56.67
   1  15 -11  851.90   56.45
   1 -15  11  804.46   63.67
  -1 -15  11  795.53   60.56
   1 -15 -11  910.69   60.55
  -1  15 -11  887.59   57.07
   1 -15  11 1027.09   62.09
   3 -15 -11  744.27   60.97
   3  15 -11  588.88   61.52
  -3 -15  11  611.36   71.20
  -3  15 -11  561.80   62.04
  -3  15  11  796.85   65.32
   3 -15 -11  589.02   64.70
   0  16  11   12.24   17.36
   0 -16 -11   23.97   23.54
   0  16 -11   58.87   23.82
   0 -16  11   33.56   22.27
   2  16 -11   31.29   20.28
   2 -16 -11    3.65   18.64
  -2 -16  11   34.66   23.78
  -2  16 -11   39.21   24.30
   2 -16  11   18.39   24.03
  -2  16  11   66.81   27.06
   1 -17  11   76.64   30.68
  -1  17  11  130.12   34.02
  -1 -17  11   71.32   29.03
   1  17  11   47.66   21.29
   1 -17 -11  103.11   32.04
  -1  17 -11  122.50   33.71
   1  17 -11  112.59   29.76
   1  17 -11   74.17   27.52
   0  18 -11  209.02   39.60
   0 -18  11  195.89   42.72
   0 -18 -11  218.90   43.18
   0  18  11  260.48   42.54
   0   0 -12  720.06   37.27
   0   0  12  647.76   32.58
   0   0 -12  693.37   32.06
   0   0  12  669.91   20.50
   2   0  12  493.13   32.28
   2   0 -12  515.02   26.28
  -2   0  12  520.48   31.67
  -2   0  12  469.97   27.44
   2   0  12  474.37   29.22
  -2   0 -12  549.13   35.17
   2   0 -12  481.45   32.01
  -4   0 -12  315.52   42.39
   4   0 -12  344.67   43.82
  -4   0  12  256.28   37.19
   4   0  12  255.50   34.17
   1  -1  12  671.33   33.87
  -1  -1  12  620.51   31.18
  -1   1  12  680.58   32.95
   1   1 -12  659.07   31.35
   1  -1  12  695.40   34.07
  -1  -1  12  648.36   28.78
   1  -1 -12  664.72   36.62
   1  -1 -12  651.65   28.56
  -1   1  12  612.83   27.69
   1   1 -12  607.41   31.72
  -1  -1 -12  643.23   36.81
   1   1  12  685.89   32.71
  -1   1 -12  644.45   34.06
   1   1  12  694.34   33.80
   3   1 -12  424.23   28.67
  -3  -1  12  387.45   32.19
  -3   1  12  367.79   38.63
   3   1  12  403.55   27.96
   3   1  12  410.30   33.56
   3  -1 -12  448.53   44.94
   3  -1  12  461.41   29.72
  -3  -1 -12  436.39   37.23
   3   1 -12  361.76   31.79
   3  -1  12  471.64   36.17
  -3   1 -12  391.15   34.70
  -5   1  12  243.87   41.31
   5  -1 -12  201.60   41.15
   5  -1  12  152.39   33.29
  -5   1 -12  180.38   37.33
   5   1  12  148.51   32.00
  -5  -1 -12  165.54   40.22
   5   1 -12  208.12   41.55
  -5  -1  12  304.34   48.28
   0  -2  12 1166.91   44.08
   0   2  12 1135.61   43.41
   0   2 -12 1152.46   43.54
   0   2  12 1138.65   27.21
   0  -2 -12 1256.12   53.02
   0  -2  12 1152.11   32.75
   0   2  12 1196.21   39.33
   0   2 -12 1140.98   42.25
  -2  -2  12  885.63   41.97
   2  -2  12  934.68   41.92
   2   2 -12  859.07   40.08
  -2   2 -12  893.93   42.71
   2  -2  12  924.39   44.83
  -2   2  12  911.84   38.39
  -2   2  12  901.05   40.66
   2   2  12  881.89   38.72
   2   2  12  902.01   42.17
   2   2 -12  865.01   37.92
   2  -2 -12  887.03   31.05
  -2  -2 -12  866.92   46.82
  -2  -2  12  890.31   36.38
   2  -2 -12  836.00   45.07
   4  -2  12  541.20   44.33
  -4   2 -12  555.09   46.69
   4   2 -12  589.19   45.30
  -4   2  12  558.84   45.68
   4   2  12  552.13   44.14
   4  -2 -12  535.67   46.18
  -4  -2 -12  625.95   50.99
  -4  -2  12  534.75   44.03
   4   2 -12  522.59   38.58
  -1  -3 -12   -1.90    9.03
  -1   3  12    8.48    6.83
   1  -3 -12    6.78    9.54
  -1   3  12   10.68    8.39
   1  -3  12    0.09    6.27
   1  -3 -12    0.76    5.60
  -1  -3  12    5.12    6.77
   1   3 -12    8.11    6.78
   1   3 -12    2.26    6.81
  -1  -3  12    9.37    7.72
   1  -3  12   17.50    6.40
   1  -3  12    4.07    7.44
   1   3  12   -0.24    6.74
   1   3  12   10.82    7.16
  -1   3 -12   10.75    7.37
   3  -3  12   -5.35    8.33
  -3   3 -12   15.76   11.22
  -3  -3 -12    6.11   11.80
  -3   3  12    5.65    9.10
   3  -3 -12   -2.17   10.39
  -3  -3  12   12.24   12.31
  -3   3  12    1.67   10.47
   3   3  12    3.98   10.26
   3  -3  12    1.96    7.20
   3   3 -12   12.50   12.13
   3   3 -12    2.62    9.27
   5   3 -12   29.79   22.11
  -5  -3  12   11.79   18.20
   5  -3  12   28.19   22.04
   5  -3 -12   -5.73   18.06
   5   3  12    4.92   15.89
  -5   3  12   21.22   16.16
  -5   3 -12   -1.13   18.24
  -5  -3 -12   -5.77   17.32
   0   4  12  318.48   20.01
   0   4 -12  291.75   24.26
   0  -4 -12  360.53   37.53
   0  -4  12  326.06   24.26
   0  -4 -12  319.32   16.18
   0   4 -12  338.32   20.24
   0   4  12  336.13   24.38
   0  -4  12  278.97   19.99
  -2  -4 -12  332.37   39.00
   2   4 -12  220.20   25.20
  -2  -4  12  234.52   20.05
   2  -4  12  242.38   22.25
   2   4 -12  224.61   24.02
  -2  -4  12  246.40   29.60
  -2   4 -12  218.56   25.06
  -2   4  12  235.20   25.94
   2  -4  12  212.16   25.47
   2  -4  12  198.70   25.67
   2   4  12  189.31   24.01
  -2   4  12  261.70   28.14
   2  -4 -12  230.92   29.49
   2   4  12  245.77   26.32
   4  -4 -12  111.80   28.75
   4   4 -12  184.33   31.86
  -4   4 -12  150.85   29.85
  -4  -4 -12   85.63   26.07
  -4   4  12  151.78   30.40
  -4  -4  12  100.85   24.87
   4   4  12   81.42   23.66
   4   4 -12  109.91   24.82
   4  -4  12  114.93   26.62
   1  -5  12  558.20   32.98
  -1   5 -12  542.61   34.41
   1   5  12  548.66   31.19
   1   5  12  519.12   27.99
   1  -5 -12  602.20   29.14
  -1  -5  12  590.12   32.84
   1   5 -12  583.06   24.50
  -1  -5 -12  537.35   40.08
  -1  -5  12  567.14   31.07
   1   5 -12  626.33   35.26
  -1   5  12  560.20   32.37
   1  -5  12  507.45   27.41
  -1   5 -12  558.51   26.42
   1  -5 -12  594.20   40.18
  -3   5 -12  443.75   34.59
   3  -5  12  432.95   32.77
  -3  -5  12  437.46   46.83
  -3   5  12  431.80   32.30
   3  -5 -12  482.01   40.64
  -3  -5 -12  389.55   45.07
   3   5 -12  397.21   32.50
   3   5 -12  369.18   31.38
  -3   5  12  455.26   35.52
   3  -5  12  333.11   36.74
   3   5  12  380.65   39.03
  -5   5  12  156.53   35.85
   5   5 -12  328.78   50.70
   5  -5  12  330.64   48.06
  -5   5 -12  228.69   43.11
  -5  -5 -12  206.75   43.85
   5  -5 -12  128.26   34.63
  -5  -5  12  178.50   38.04
   5   5  12  181.57   36.16
   0  -6  12 1124.44   44.18
   0   6  12 1036.19   44.43
   0   6  12 1060.56   34.07
   0  -6 -12 1026.11   33.42
   0  -6  12 1002.07   43.37
   0   6 -12 1007.20   44.98
   0  -6 -12 1100.43   56.46
   2  -6 -12  841.69   50.08
   2   6  12  823.76   39.61
  -2   6  12  864.15   42.73
   2   6 -12  978.39   47.14
   2  -6  12  905.02   47.49
   2  -6  12  897.17   45.37
   2   6  12  846.74   42.50
   2  -6 -12  865.43   43.04
  -2   6 -12  903.19   38.44
   2   6 -12  919.37   38.57
  -2  -6  12  837.24   36.81
   2  -6  12  784.45   38.04
  -2  -6  12  860.55   48.16
  -2  -6 -12  845.64   53.08
   4   6  12  577.43   47.21
  -4   6  12  551.78   45.10
  -4  -6  12  576.70   59.81
   4   6 -12  559.27   50.63
  -4  -6 -12  474.38   53.49
   4  -6 -12  611.68   51.03
   4  -6  12  546.69   45.35
  -4   6 -12  509.18   43.28
  -1  -7 -12  380.02   43.06
   1  -7 -12  435.21   37.46
   1   7 -12  469.32   33.69
  -1  -7  12  429.35   32.41
  -1   7 -12  501.45   33.90
  -1   7  12  451.14   30.85
   1  -7  12  472.27   32.17
   1   7  12  467.98   30.62
  -1  -7 -12  466.58   23.12
   1   7  12  476.47   27.69
   1  -7 -12  483.66   28.87
   1  -7  12  402.79   29.88
  -1  -7  12  461.14   29.78
  -3   7  12  265.38   34.96
   3   7 -12  307.73   34.60
  -3  -7  12  318.48   41.90
  -3   7 -12  310.14   33.70
   3  -7  12  314.55   36.58
   3  -7  12  306.60   36.83
   3   7  12  272.70   34.20
   3  -7 -12  240.52   34.62
  -3  -7 -12  289.86   40.76
  -3   7  12  282.86   31.61
   0  -8  12   57.83   15.25
   0   8 -12   67.59   16.90
   0  -8 -12   34.53   16.78
   0  -8  12   67.33   17.70
   0   8  12   63.43   10.87
   0  -8 -12   39.25   10.87
   0   8  12   19.24    9.70
   2   8  12   22.15   11.09
  -2  -8  12   37.82   12.34
   2  -8  12   46.18   17.31
  -2  -8  12   61.17   18.12
   2  -8  12   12.81   11.12
   2  -8 -12   53.69   17.21
   2   8  12   47.36   15.39
   2   8 -12   92.74   21.34
  -2  -8 -12   59.18   20.72
  -2   8 -12   25.58   15.22
  -2   8  12   44.45   15.63
   2  -8 -12   24.46   15.59
   4  -8  12   48.21   19.30
  -4  -8 -12   21.99   20.22
   4   8  12   10.69   16.17
  -4   8  12   11.52   14.77
   4   8 -12   18.36   20.42
  -4  -8  12    3.02   18.04
   4  -8 -12   11.56   17.19
  -1   9  12  507.29   35.75
   1   9  12  470.65   32.90
   1  -9  12  436.71   33.74
   1  -9 -12  414.64   29.51
   1  -9 -12  519.63   42.59
  -1  -9  12  465.95   36.86
   1   9 -12  429.64   34.87
  -1  -9 -12  432.53   49.81
   1  -9  12  392.53   39.79
   1   9  12  431.59   28.01
  -1  -9  12  402.58   30.25
  -1   9 -12  480.18   35.69
   3  -9  12  337.54   39.80
  -3   9  12  340.00   37.35
   3   9 -12  303.67   36.99
  -3  -9 -12  275.21   43.03
   3  -9 -12  255.66   37.57
   3  -9 -12  351.07   41.48
   3   9  12  330.59   38.42
  -3  -9  12  283.88   41.03
  -3   9 -12  318.34   38.56
   3  -9  12  317.05   38.98
   0  10 -12  762.51   44.72
   0 -10 -12  829.69   40.28
   0 -10  12  730.01   43.41
   0 -10 -12  850.67   55.61
   0  10  12  672.84   41.27
   0 -10  12  729.22   45.15
  -2 -10  12  653.59   49.16
   2  10  12  664.46   38.77
  -2  10  12  720.74   45.62
   2 -10  12  643.47   44.30
   2 -10  12  650.05   46.93
  -2  10 -12  668.15   44.56
  -2 -10 -12  688.63   57.20
   2 -10 -12  604.04   41.13
   2  10 -12  690.34   47.06
   2  10  12  669.35   40.53
   2 -10 -12  600.88   48.25
   4  10 -12  395.12   47.75
  -4 -10 -12  361.67   52.43
   4  10  12  484.53   52.59
   4 -10 -12  385.96   49.64
  -4 -10  12  366.33   52.92
  -4  10  12  322.98   47.06
   1 -11 -12   69.95   17.74
  -1 -11 -12   63.28   24.58
   1  11  12   96.91   19.04
  -1 -11  12   68.53   17.93
   1 -11 -12   99.59   25.97
   1 -11  12  125.21   28.86
  -1  11 -12   84.24   21.02
   1 -11  12   57.16   18.07
   1  11  12   64.03   16.79
  -1 -11  12  126.68   26.84
   1  11 -12   87.00   21.02
  -1  11  12   91.11   21.91
  -3 -11  12   42.97   20.86
   3 -11 -12   48.25   20.44
   3 -11  12   10.39   17.09
   3 -11 -12   66.10   23.72
   3  11 -12   67.25   24.84
   3 -11  12  108.26   27.36
  -3 -11 -12   48.18   27.08
   3  11  12   41.06   16.87
  -3  11  12  121.92   26.47
   0  12 -12  315.26   36.70
   0 -12 -12  210.43   36.98
   0  12  12  275.46   34.22
   0 -12 -12  313.71   35.90
   0 -12  12  199.29   33.25
   0 -12  12  297.62   35.24
   2  12  12  162.44   25.44
  -2  12  12  223.86   34.49
   2 -12 -12  202.66   35.31
  -2 -12 -12  202.17   42.50
   2 -12 -12  215.95   34.13
   2 -12  12  172.78   34.37
  -2 -12  12  219.68   37.66
   2  12 -12  197.27   31.46
  -2  12 -12  195.29   30.28
   2  12  12  193.83   28.37
   2 -12  12  215.12   34.45
  -1  13  12  322.20   39.69
   1 -13  12  387.42   44.19
   1  13  12  450.04   37.43
  -1  13 -12  348.76   39.12
   1 -13 -12  328.78   38.79
   1 -13 -12  363.32   45.42
   1  13 -12  382.38   42.09
  -1 -13  12  259.50   41.02
  -1 -13 -12  315.68   47.00
   1 -13  12  350.86   45.91
  -1 -13  12  390.37   40.59
   3  13  12  276.27   39.59
  -3 -13  12  296.50   48.32
   3 -13 -12  223.82   38.61
  -3 -13 -12  194.58   44.12
   3 -13  12  281.55   44.89
  -3  13  12  298.01   41.70
   3  13 -12  216.02   38.06
   3 -13 -12  227.00   39.51
   3 -13  12  211.89   39.63
   0 -14 -12  346.10   42.96
   0 -14 -12  370.83   49.66
   0 -14  12  325.94   38.99
   0  14  12  284.94   36.62
   0  14 -12  412.04   44.56
   0 -14  12  249.30   40.13
  -2 -14 -12  247.42   48.63
  -2 -14  12  205.69   41.00
   2 -14 -12  232.40   40.87
   2  14 -12  201.32   35.15
   2 -14 -12  262.76   38.78
  -2  14  12  296.26   42.77
   2 -14  12  173.41   36.97
   2 -14  12  304.88   44.22
   1 -15 -12    2.27   20.11
  -1 -15 -12  -10.44   18.10
   1  15  12   11.69   15.49
  -1 -15  12   12.39   19.02
  -1 -15  12    5.37   15.60
   1  15 -12    9.83   16.83
  -1  15  12   28.99   20.10
   1 -15  12   -1.59   14.60
   1 -15 -12   25.63   18.84
   1 -15  12   -6.02   18.09
  -1  15 -12    8.83   17.77
   0 -16  12   -0.30   14.01
   0 -16  12   -7.98   17.25
   0  16  12   14.93   13.16
   0  16 -12   12.79   18.65
   0 -16 -12   12.59   19.73
  -2 -16  12   30.86   20.04
  -2  16 -12   17.64   18.41
   2 -16 -12   17.05   20.06
   2 -16  12  -17.40   19.93
  -2  16  12   16.67   21.33
   2  16 -12    4.42   18.53
   1 -17  12  118.40   34.54
  -1 -17  12  237.09   46.71
   1 -17 -12  191.66   40.33
   1  17  12  211.18   37.74
  -1  17  12  120.97   32.80
   1  17 -12  164.57   33.02
   1  17 -12  221.89   40.22
  -1  17 -12  195.41   38.54
   0   0  13   -0.38    3.80
   0   0 -13   -5.57    6.91
   0   0  13    4.61    6.95
   0   0 -13   -3.98    7.02
   2   0 -13   -1.89    6.13
  -2   0  13    7.81    9.28
  -2   0  13   -0.22    6.09
   2   0  13   -7.90    7.14
   2   0  13    7.09    8.03
   2   0 -13    4.09    9.69
  -2   0 -13   -4.96    8.87
   4   0  13   -3.60   11.22
   4   0 -13   10.46   14.53
  -4   0 -13  -10.37   13.09
  -4   0  13   -5.83    9.30
   1   1  13  470.00   29.43
  -1  -1  13  462.72   27.96
   1   1 -13  430.26   27.58
  -1   1  13  422.03   27.40
   1   1  13  459.10   28.45
  -1   1 -13  428.16   29.43
  -1  -1 -13  418.89   31.43
   1  -1  13  419.61   27.99
  -1   1  13  422.64   23.87
  -1  -1  13  422.36   23.69
   1   1 -13  487.11   29.96
   1  -1 -13  457.29   32.31
   1  -1 -13  459.07   25.84
   1  -1  13  403.92   27.98
  -3  -1  13  285.52   34.67
  -3  -1 -13  221.67   32.10
   3   1 -13  295.61   36.01
   3  -1  13  337.97   32.21
   3   1  13  254.11   30.78
   3   1 -13  248.47   26.88
  -3   1  13  265.66   33.98
   3  -1  13  294.65   33.57
   3   1  13  250.55   27.80
  -3   1 -13  211.51   31.53
   3  -1 -13  297.61   36.14
  -5  -1 -13  151.76   40.03
  -5   1 -13  140.27   36.01
   5  -1  13  131.70   32.24
  -5   1  13  111.21   29.58
   5   1  13  137.35   32.60
  -5  -1  13  167.25   36.70
   5  -1 -13  123.49   33.34
   5   1 -13  148.25   34.91
   0   2  13  215.57   21.50
   0   2 -13  207.26   23.11
   0  -2  13  197.57   22.20
   0  -2  13  220.57   14.85
   0   2 -13  250.33   25.28
   0  -2 -13  262.84   30.09
   0   2  13  216.83   12.04
   0   2  13  220.68   23.91
  -2  -2 -13  189.02   27.44
   2   2  13  138.65   20.38
  -2  -2  13  166.68   20.75
   2  -2  13  193.08   25.30
  -2   2 -13  151.17   23.41
   2  -2  13  175.28   25.75
  -2   2  13  173.84   23.26
   2   2  13  155.87   22.76
   2   2 -13  170.31   22.88
   2  -2 -13  168.99   25.77
   2   2 -13  144.71   19.95
  -2   2  13  169.33   21.06
  -2  -2  13  242.14   28.11
   2  -2 -13  178.18   17.59
   4  -2 -13   71.52   23.48
  -4  -2 -13   62.63   22.85
  -4  -2  13   36.02   17.85
   4  -2  13   32.31   17.17
  -4   2 -13   62.07   21.57
   4   2 -13   84.73   25.81
  -4   2  13   45.21   19.46
   4   2  13   99.26   23.88
  -1  -3 -13  172.06   25.85
  -1  -3  13  177.60   20.91
   1  -3  13  192.92   13.74
   1  -3 -13  199.68   19.22
   1   3  13  167.43   19.74
   1  -3 -13  210.10   28.52
  -1   3 -13  168.29   21.21
   1  -3  13  173.74   22.33
   1   3 -13  209.29   23.64
   1   3 -13  201.45   21.48
  -1   3  13  209.46   20.28
  -1   3  13  141.14   19.24
   1  -3  13  205.97   25.27
  -1  -3  13  183.57   21.76
   1   3  13  216.67   24.56
  -3  -3  13  123.21   23.77
  -3   3 -13  111.57   22.32
   3   3 -13  125.81   20.90
  -3   3  13  126.16   20.48
  -3   3  13  142.04   24.82
   3  -3  13  109.40   23.85
   3  -3  13  102.24   19.72
  -3  -3 -13  204.34   34.00
   3   3  13  139.34   24.58
   3   3 -13  174.88   27.83
   3  -3 -13  152.84   29.68
  -5  -3 -13   52.25   28.70
   5   3 -13  119.10   34.46
  -5  -3  13   72.47   27.13
   5  -3  13   54.95   24.50
  -5   3 -13  123.47   32.30
  -5   3  13   61.12   25.05
   5  -3 -13   25.91   24.60
   5   3  13   76.10   24.56
   0  -4  13   81.66   14.15
   0   4 -13   95.00   14.28
   0   4 -13   75.49   16.09
   0  -4 -13   75.92   10.19
   0  -4  13   70.02   14.32
   0   4  13   48.04   11.62
   0   4  13   75.70   12.49
   0  -4 -13  101.74   21.96
  -2   4  13   84.66   17.25
   2  -4  13   47.04   15.29
  -2  -4 -13   15.77   11.72
  -2  -4  13   61.47   13.70
   2  -4 -13   78.54   22.52
  -2  -4  13   65.00   17.08
  -2   4 -13   49.42   14.15
   2  -4  13   62.07   16.75
  -2   4  13   81.96   16.65
   2   4 -13   66.23   15.04
   2   4  13   64.12   16.15
   2   4 -13   55.06   15.03
   2   4  13   68.77   15.61
  -4  -4 -13   39.66   21.56
   4  -4  13   37.34   19.60
   4   4 -13   25.11   17.32
  -4   4 -13   24.16   17.60
  -4  -4  13    5.00   15.79
   4   4  13   35.12   17.43
   4  -4 -13   40.90   20.91
  -4   4  13   11.19   14.59
   4   4 -13   28.03   17.60
   1   5 -13  178.17   24.87
  -1   5  13  110.47   18.19
   1   5 -13  126.79   14.92
   1   5  13  126.14   19.32
  -1   5 -13  142.00   21.00
  -1  -5 -13  123.72   24.12
  -1  -5  13  124.42   18.62
   1  -5 -13  158.74   19.70
  -1   5 -13  145.24   18.24
   1  -5  13  120.52   20.22
   1   5  13  144.63   18.76
   1  -5  13  167.94   20.10
   1  -5 -13  143.51   27.17
  -1  -5  13  138.90   21.77
  -3  -5  13   64.22   21.88
   3  -5 -13  100.39   25.76
  -3   5  13  125.83   21.72
   3   5 -13   97.67   20.07
  -3   5  13  119.21   24.16
   3   5  13   51.45   17.36
  -3   5 -13   87.39   19.75
   3  -5  13  116.28   23.45
  -3  -5 -13   80.10   22.64
   3   5 -13  132.59   23.30
   3  -5  13  102.89   21.47
  -5  -5  13   70.50   27.55
  -5   5  13   65.87   23.90
  -5  -5 -13   61.08   28.42
  -5   5 -13   52.72   24.78
   5   5  13   61.21   24.37
   5  -5  13   70.56   28.62
   5  -5 -13   61.83   28.13
   0   6 -13  624.36   36.66
   0   6  13  636.09   28.13
   0   6  13  693.43   37.40
   0  -6  13  672.42   34.78
   0  -6 -13  673.52   45.95
   0  -6 -13  644.57   26.75
   0  -6  13  659.91   35.99
   2  -6  13  571.59   39.72
  -2   6 -13  459.50   29.06
  -2  -6  13  511.24   37.89
   2   6 -13  529.39   36.63
   2   6  13  550.13   34.04
  -2   6  13  540.37   35.67
  -2  -6 -13  585.43   45.97
  -2  -6  13  552.16   31.24
   2  -6 -13  532.52   41.53
  -2   6  13  495.98   34.12
   2  -6  13  518.79   30.70
   2  -6  13  475.89   34.94
   2   6  13  598.42   37.02
  -4   6 -13  248.36   36.70
  -4   6  13  268.53   40.67
   4   6  13  284.35   39.30
   4  -6 -13  265.65   40.55
  -4  -6  13  195.56   35.95
   4  -6  13  283.83   39.27
  -4  -6 -13  264.83   43.16
   4   6 -13  219.16   33.75
   1  -7  13  315.67   31.90
  -1   7  13  347.55   28.74
   1  -7  13  353.66   28.28
   1   7  13  373.52   28.33
   1   7  13  372.10   25.70
  -1  -7  13  310.36   26.23
  -1  -7 -13  309.24   42.49
   1  -7 -13  384.40   43.12
   1   7 -13  411.42   31.67
   1  -7 -13  385.46   26.18
  -1   7 -13  428.37   32.67
  -1  -7  13  378.23   31.18
  -3  -7 -13  177.62   32.74
  -3   7  13  267.68   33.23
   3  -7  13  326.01   38.96
  -3  -7  13  326.66   43.09
   3   7  13  249.09   33.40
   3  -7 -13  277.98   38.58
   3  -7  13  194.16   30.18
  -3   7  13  255.47   35.07
   3   7 -13  242.22   32.45
   0  -8 -13   89.55   15.55
   0   8 -13   67.32   17.35
   0  -8 -13   64.57   19.77
   0  -8  13  103.11   19.18
   0  -8  13   91.31   20.12
   0   8  13   86.47   17.94
   2   8  13   80.33   16.84
  -2   8  13   41.33   14.31
   2  -8  13   74.81   18.64
  -2   8 -13   79.61   20.88
  -2  -8  13  114.89   25.10
   2   8  13  103.57   20.87
   2  -8  13   83.72   20.31
   2  -8 -13   92.33   20.36
   2   8 -13   58.03   18.08
   2  -8 -13   75.79   21.99
  -2  -8  13   85.06   17.38
  -2  -8 -13   56.76   24.22
  -4  -8 -13   64.01   27.56
   4   8  13   40.74   20.71
   4  -8 -13   47.07   23.78
   4  -8  13   48.76   22.04
   4   8 -13    6.78   18.25
  -4   8  13    9.43   16.05
  -4  -8  13   25.47   20.61
  -1  -9  13  291.36   30.48
   1  -9 -13  330.75   26.70
   1   9  13  307.91   28.17
   1   9  13  272.39   31.63
  -1  -9 -13  303.40   43.23
   1  -9  13  240.55   30.83
  -1  -9  13  308.23   36.40
  -1   9 -13  322.75   35.84
  -1   9  13  236.28   29.02
   1  -9 -13  310.03   41.16
   1  -9  13  253.80   32.37
   1   9 -13  252.13   31.86
   3   9  13  189.78   31.19
  -3  -9 -13  150.70   36.16
   3   9 -13  156.13   27.77
  -3   9 -13  132.77   27.96
  -3   9  13  178.41   28.58
  -3   9  13  166.58   30.84
   3  -9  13  135.83   26.88
   3  -9 -13  194.80   34.63
  -3  -9  13  109.43   27.56
   0 -10  13   54.48   18.32
   0 -10  13   20.54   12.31
   0  10  13   53.26   17.29
   0  10 -13   34.13   15.94
   0 -10 -13   50.59   14.93
   0 -10 -13   31.63   19.91
   2  10 -13   34.97   17.89
   2  10  13    8.50   12.13
  -2  10 -13   49.75   19.07
   2 -10 -13   -4.40   12.12
  -2 -10 -13   24.01   22.28
   2  10  13   44.81   15.74
   2 -10 -13    5.22   18.51
  -2  10  13   59.82   19.64
  -2 -10  13   21.38   17.15
   2 -10  13   20.55   17.23
   2 -10  13   51.55   19.40
   4 -10 -13   22.37   20.25
  -4 -10 -13    3.82   22.64
  -4  10  13    4.78   16.72
   4  10  13   16.84   18.95
  -4 -10  13   15.35   20.34
   4  10 -13   13.85   21.39
   1 -11 -13   34.03   20.28
   1  11  13   88.00   20.12
   1 -11  13   81.20   20.45
  -1  11 -13   40.24   17.40
   1 -11 -13   53.01   17.06
  -1  11  13   59.13   19.11
   1 -11  13   26.67   18.86
   1  11 -13   45.24   17.31
  -1 -11 -13   20.16   20.56
  -1 -11  13   54.81   16.36
  -1 -11  13   31.35   15.56
  -3  11 -13   56.58   21.26
  -3 -11 -13   11.97   22.00
   3 -11  13   18.75   18.84
  -3  11  13   44.49   19.58
  -3 -11  13    4.89   16.71
   3  11 -13   40.77   20.07
   3 -11 -13   65.55   24.69
   3 -11 -13   13.80   18.95
   3  11  13   26.33   16.89
   0  12  13  133.10   24.86
   0 -12 -13  120.22   23.66
   0 -12  13  157.65   26.20
   0 -12 -13   97.37   29.52
   0  12 -13   92.83   21.98
   0 -12  13   98.54   25.41
   2  12  13   81.71   21.16
   2  12  13   82.57   21.34
  -2  12 -13  135.28   27.17
  -2  12  13  101.19   25.87
   2 -12 -13   78.39   22.66
  -2 -12 -13   73.52   31.96
   2 -12  13   70.50   25.20
   2 -12 -13   61.34   24.42
   2 -12  13   74.98   22.75
  -2 -12  13   69.84   25.91
   2  12 -13  109.12   26.15
   1 -13 -13   11.91   19.45
   1 -13  13   23.36   18.47
   1 -13 -13    6.11   13.71
  -1 -13  13   16.89   16.13
  -1 -13 -13    9.96   21.47
  -1 -13  13   12.83   12.37
   1  13  13   -1.72   12.15
  -1  13  13   14.62   13.22
   1 -13  13    0.28   14.29
   1  13 -13   25.54   17.07
  -1  13 -13   14.47   16.19
   3 -13  13   61.17   23.83
   3 -13 -13   -6.33   17.54
  -3 -13 -13   15.35   24.53
  -3  13  13    6.68   18.76
  -3 -13  13   23.26   21.47
   3  13 -13    0.20   18.76
   3 -13 -13   -9.62   15.86
   3  13  13    5.63   18.49
   0 -14  13  250.20   35.48
   0 -14 -13  376.28   48.21
   0  14  13  312.16   39.56
   0  14 -13  260.61   36.96
   0 -14 -13  376.88   50.58
   0 -14  13  311.31   44.97
   2  14 -13  274.88   41.07
   2 -14  13  262.53   41.59
   2 -14 -13  230.06   40.19
  -2 -14  13  230.54   43.40
   2 -14  13  217.84   42.00
  -2  14  13  333.70   46.54
   2 -14 -13  252.78   39.34
  -2 -14 -13  227.32   48.69
  -1 -15  13  116.41   30.85
   1  15  13  156.33   29.66
   1 -15  13   99.94   33.10
   1 -15 -13  132.51   29.87
   1 -15 -13  159.06   36.33
  -1 -15 -13  194.39   40.07
  -1  15 -13  173.85   33.96
  -1  15  13  231.51   37.99
  -1 -15  13  181.53   32.04
   1 -15  13  194.00   35.55
   1  15 -13  134.76   30.83
   0  16 -13   41.16   21.93
   0 -16  13   18.25   21.46
   0 -16  13   38.80   20.49
   0  16  13   -1.75   13.31
   2 -16  13   32.78   27.81
  -2 -16  13   -0.80   18.35
   2 -16 -13   29.70   24.55
   2  16 -13   14.04   21.99
  -2  16  13   51.77   24.53
  -1  17  13   62.93   26.04
   1  17 -13   63.66   24.89
   1  17 -13   51.42   22.83
   1 -17 -13  119.95   33.98
   1  17  13   38.98   20.25
   1 -17  13   34.40   25.79
  -1 -17  13   27.62   22.83
  -1  17 -13   33.91   21.54
   0   0  14 1134.96   29.12
   0   0 -14 1127.70   44.33
   0   0 -14 1113.88   49.27
   0   0  14 1160.23   46.88
  -2   0 -14  987.05   49.68
   2   0 -14  857.07   36.97
  -2   0  14  801.11   38.65
   2   0  14  912.77   45.53
  -2   0  14  851.26   41.30
   2   0 -14  824.92   44.68
   2   0  14  863.22   41.92
   4   0  14  442.65   48.80
   4   0 -14  564.41   57.58
  -4   0 -14  529.67   59.27
  -4   0  14  461.36   49.49
   1   1  14   24.20   11.58
  -1  -1  14    4.06    7.05
  -1   1  14   12.41    8.63
  -1  -1 -14   10.15   11.22
   1   1 -14   -0.04    8.15
   1  -1  14   16.38    8.88
  -1   1 -14   16.92   11.21
  -1  -1  14    8.97    8.33
   1   1  14    0.44    7.97
   1   1 -14   17.20   10.55
   1  -1  14    6.07    8.73
   1  -1 -14   14.56   11.94
   1  -1 -14    5.22    7.87
  -1   1  14   25.61    9.41
   3  -1  14   13.07   10.76
   3   1  14  -11.43    7.02
   3   1  14   12.60   10.46
   3  -1 -14   22.01   14.90
  -3   1 -14    6.73   12.88
  -3  -1  14    9.19   11.08
   3   1 -14  -10.71   10.78
   3   1 -14   11.08   10.79
  -3  -1 -14   -7.55   10.85
  -3   1  14    7.64   10.85
   3  -1  14    7.71   11.40
   5   1  14   17.33   19.41
   5   1 -14    7.05   20.36
  -5  -1  14   11.63   16.96
   5  -1  14   -0.51   17.17
   5  -1 -14   -1.70   19.44
  -5  -1 -14    0.80   19.51
  -5   1 -14   15.87   21.12
  -5   1  14    6.65   15.63
   0   2 -14  605.08   33.71
   0   2 -14  587.05   33.73
   0   2  14  588.25   29.94
   0  -2  14  565.09   23.76
   0  -2 -14  597.09   39.52
   0   2  14  572.09   19.07
   0   2  14  593.16   33.94
   0  -2  14  550.96   32.94
   2  -2  14  409.72   31.16
  -2  -2  14  419.26   27.78
  -2   2  14  496.34   31.48
   2   2 -14  405.70   30.08
  -2   2  14  376.57   27.83
  -2   2 -14  430.40   32.58
  -2  -2  14  437.45   30.37
   2  -2 -14  442.46   35.86
   2  -2 -14  443.94   23.84
   2  -2  14  428.15   33.92
   2   2  14  385.63   30.35
   2   2  14  417.49   29.38
   2   2 -14  386.31   28.33
  -2  -2 -14  493.58   38.25
   4  -2  14  264.74   38.43
   4   2  14  291.24   38.73
   4  -2 -14  289.61   41.51
  -4  -2 -14  218.19   37.77
   4   2 -14  196.26   35.63
  -4  -2  14  260.54   40.84
  -4   2  14  242.04   36.47
  -4   2 -14  271.06   42.46
  -1   3  14  123.65   16.19
   1   3 -14  152.08   19.65
   1   3  14   97.39   16.11
  -1   3 -14  129.85   19.57
   1  -3  14  122.39   21.18
   1  -3 -14  139.51   17.82
   1  -3 -14  111.23   21.98
   1   3 -14   86.51   16.70
  -1  -3  14  105.63   17.20
   1  -3  14  138.19   13.77
  -1  -3  14  149.63   20.46
   1   3  14  184.19   23.63
  -1  -3 -14  110.16   23.05
  -1   3  14  113.98   18.48
   1  -3  14   95.26   18.28
   3   3 -14  113.48   21.20
   3  -3 -14   64.75   19.94
  -3  -3  14  107.27   24.16
  -3   3  14   98.12   22.16
   3   3  14  101.21   20.97
   3   3 -14  101.21   23.42
   3  -3  14   98.61   19.66
  -3   3 -14  122.51   25.54
  -3   3  14  101.00   18.65
  -3  -3 -14   84.79   23.78
   3  -3  14  107.97   24.07
  -5   3  14   77.94   27.68
  -5  -3  14   40.14   24.48
  -5   3 -14   30.87   24.35
   5  -3 -14   42.55   27.00
  -5  -3 -14   66.46   32.48
   5   3 -14   49.10   26.29
   5   3  14   79.45   26.76
   5  -3  14   71.20   29.00
   0   4  14  517.96   20.58
   0   4 -14  541.10   33.81
   0   4  14  489.81   31.06
   0  -4  14  438.63   30.90
   0  -4  14  481.12   25.70
   0   4  14  482.27   25.79
   0   4 -14  479.85   26.33
   0  -4 -14  501.91   39.20
   2   4  14  415.14   30.91
  -2  -4  14  390.67   32.04
  -2   4 -14  387.52   29.31
   2  -4  14  329.15   34.44
  -2  -4 -14  341.71   39.09
   2  -4 -14  382.81   41.91
   2  -4  14  393.15   30.88
  -2   4  14  398.93   29.25
  -2   4  14  372.31   29.01
   2   4  14  331.45   27.46
   2   4 -14  399.95   37.05
  -2  -4  14  370.20   27.03
   2   4 -14  350.73   27.81
   4   4 -14  225.48   33.11
  -4  -4 -14  220.58   42.01
  -4  -4  14  152.72   30.91
  -4   4 -14  217.43   35.15
   4   4 -14  205.85   35.92
   4   4  14  153.70   31.13
   4  -4 -14  186.92   36.45
   4  -4  14  176.66   31.69
  -4   4  14  241.10   39.47
   1  -5 -14   20.03   14.15
  -1  -5 -14   -7.41   12.40
  -1   5  14   -5.18    5.87
  -1   5  14    1.48    6.69
   1  -5  14   -0.28    7.16
  -1   5 -14   -1.56    7.24
   1   5  14    8.45    9.26
  -1   5 -14    2.36    9.30
   1   5  14    4.99    7.96
   1   5 -14    0.93    6.09
   1   5 -14    1.48    9.47
   1  -5  14    0.43    7.35
  -1  -5  14   11.21    9.25
  -1  -5  14   -8.19    7.00
  -3  -5  14   -3.85   13.10
   3   5 -14   -3.59   11.48
   3  -5  14   -1.17   10.12
   3   5  14    0.71   12.24
  -3   5  14   -4.49    8.96
   3  -5  14   24.44   12.41
   3   5 -14   11.12   13.86
  -3  -5 -14    2.66   14.84
  -3   5  14   -0.82    9.21
  -3   5 -14   -6.88   10.30
   3  -5 -14    9.18   13.69
   0  -6  14  455.20   31.64
   0   6 -14  488.77   34.29
   0  -6 -14  512.61   42.28
   0   6  14  409.64   24.46
   0  -6  14  453.21   29.15
   0   6  14  410.66   30.56
   0  -6 -14  450.26   22.70
  -2   6 -14  341.06   25.76
   2   6  14  360.23   34.92
   2  -6 -14  364.20   41.95
   2  -6  14  334.42   37.38
  -2  -6  14  355.42   38.42
  -2  -6  14  337.72   25.87
   2  -6  14  311.48   34.08
  -2  -6 -14  291.65   39.65
  -2   6  14  365.68   30.29
  -2   6  14  335.44   34.59
   2   6  14  360.09   28.68
   2   6 -14  422.85   41.44
   4   6 -14  241.52   36.37
  -4  -6 -14  220.00   43.18
  -4   6  14  175.01   33.10
  -4   6 -14  190.99   32.07
   4  -6 -14  143.04   33.13
  -4  -6  14  245.50   41.37
   4   6  14  206.84   36.36
   4  -6  14  153.84   30.33
   1  -7  14   88.38   18.85
  -1  -7 -14   36.97   19.64
  -1   7 -14   69.95   17.62
   1   7  14   42.84   13.86
   1   7  14   72.82   15.08
   1  -7  14   54.45   15.63
  -1   7  14  118.84   21.94
   1  -7 -14   61.92   21.00
  -1  -7  14   63.05   15.84
   1  -7 -14   65.82   15.21
   1   7 -14   78.96   18.64
  -1  -7  14   68.22   17.75
  -3   7  14   16.53   14.80
  -3  -7 -14   28.01   18.29
   3   7  14   10.10   13.06
   3  -7 -14    0.37   13.42
  -3  -7  14   14.09   17.01
   3   7 -14   -4.48   13.47
   3  -7  14   46.76   20.25
  -3   7  14   40.98   17.15
   3  -7  14   46.37   18.55
   0   8 -14  130.78   22.97
   0  -8  14  139.32   22.93
   0  -8 -14  182.82   20.44
   0   8  14  170.47   24.55
   0  -8 -14  175.86   30.64
   0  -8  14  162.75   24.78
  -2  -8 -14   92.80   27.72
  -2   8  14  153.84   25.37
  -2  -8  14  178.65   29.79
  -2  -8  14  146.31   22.21
   2  -8 -14  139.61   27.73
   2  -8  14  106.96   23.93
   2   8  14   81.53   18.86
   2   8 -14  141.04   25.10
   2   8  14  144.23   22.29
   2  -8  14  144.96   24.12
   2  -8 -14  154.87   25.42
  -2   8 -14  140.26   25.84
  -4  -8 -14  121.27   34.61
  -4   8  14   56.64   23.27
   4  -8 -14   55.27   23.67
  -4  -8  14   55.04   23.44
   4   8  14   71.16   24.35
   4  -8  14   51.85   23.73
   4   8 -14   87.73   24.95
  -1  -9  14   29.14   11.29
  -1   9 -14   36.02   16.60
  -1   9  14   34.72   13.20
  -1  -9 -14   85.70   29.21
   1  -9  14   33.45   17.72
  -1  -9  14   53.74   18.52
   1  -9 -14   48.05   15.26
   1   9  14   59.01   14.13
   1   9 -14   83.20   20.96
   1  -9 -14   46.12   21.23
   1   9  14   34.84   13.21
   1  -9  14   53.44   16.34
  -3   9  14   22.67   16.05
  -3  -9  14   30.39   19.87
   3   9  14   38.93   19.32
   3   9 -14   12.00   16.61
   3  -9  14   14.24   14.85
  -3  -9 -14   31.03   22.85
   3  -9 -14   39.89   21.71
  -3   9  14   57.79   21.29
  -3   9 -14   20.18   18.77
   0 -10  14   66.85   18.54
   0 -10  14   38.77   17.51
   0 -10 -14   73.55   17.06
   0  10  14   76.91   18.40
   0  10 -14   79.49   20.67
   0 -10 -14   98.60   27.14
   2 -10 -14   66.16   19.52
   2  10  14   47.66   17.18
   2 -10 -14   56.60   21.52
  -2  10  14   72.93   20.64
   2  10  14   67.92   18.39
  -2 -10  14   55.80   22.82
   2  10 -14   68.75   20.98
   2 -10  14   76.26   22.63
  -2 -10 -14   55.59   28.03
   2 -10  14   49.63   18.39
  -2  10 -14   45.22   19.41
  -4  10  14   76.68   26.12
  -4 -10  14   42.47   25.30
   4  10 -14    3.43   19.86
   4  10  14   29.99   22.22
  -4 -10 -14   61.91   32.90
   4 -10 -14   11.89   19.59
   1  11  14  134.30   26.35
  -1 -11  14  158.44   26.96
  -1 -11  14  151.20   29.09
   1 -11 -14  135.82   24.52
   1 -11  14  145.64   26.65
   1 -11  14   69.64   24.36
  -1  11  14  169.55   29.57
  -1 -11 -14  125.84   30.48
   1  11 -14  116.66   24.30
  -1  11 -14  101.53   23.28
   1 -11 -14  149.06   34.83
   3 -11 -14   65.38   26.79
  -3 -11  14   87.14   30.24
   3  11  14   99.08   25.66
  -3 -11 -14   48.68   30.05
   3 -11 -14   89.18   26.19
   3  11 -14   86.88   25.06
  -3  11  14  140.82   29.20
  -3  11 -14  101.57   26.73
   3 -11  14  129.11   30.94
   0 -12  14  331.40   39.77
   0  12 -14  318.38   38.54
   0 -12  14  341.01   42.03
   0  12  14  347.35   39.84
   0 -12 -14  301.49   45.62
   2 -12 -14  296.07   38.51
   2  12 -14  181.32   31.87
   2  12  14  329.80   37.75
  -2  12  14  285.90   37.99
  -2 -12  14  314.20   44.27
   2 -12  14  282.66   38.70
   2  12  14  309.85   36.30
  -2 -12 -14  214.69   45.12
   2 -12  14  276.25   40.30
   2 -12 -14  232.10   39.67
  -2  12 -14  259.18   35.38
   1 -13 -14    1.13   18.10
  -1 -13  14    3.53   12.65
  -1 -13 -14    1.78   21.17
   1  13 -14   21.86   17.95
  -1  13  14   22.98   17.01
  -1  13 -14   -0.49   13.30
   1 -13  14   15.20   17.46
   1  13  14   31.48   15.96
   1 -13  14   24.72   17.69
  -1 -13  14   19.67   17.91
   1 -13 -14   34.95   18.16
  -3 -13  14   21.55   20.31
   3  13  14   29.56   21.39
   3 -13  14   12.10   19.91
   3 -13 -14   27.97   22.37
  -3 -13 -14   22.37   28.75
   3 -13 -14   42.04   23.14
   3  13 -14   -0.15   17.73
  -3  13  14   42.76   21.91
   0 -14  14   89.70   26.42
   0  14  14   60.16   20.23
   0  14 -14   77.89   24.10
   0 -14 -14  107.48   29.90
   0 -14  14   49.34   18.96
  -2 -14  14   47.92   23.77
  -2  14  14   80.96   27.22
   2 -14 -14   46.02   22.93
  -2 -14 -14   39.59   29.41
  -2  14 -14   52.71   23.36
   2 -14 -14   79.94   28.46
   2  14 -14  104.63   27.79
   2 -14  14   28.85   23.39
   2 -14  14   61.45   23.53
   1 -15  14   76.03   26.04
   1  15 -14   15.73   18.00
  -1  15  14   90.99   28.36
   1 -15  14   16.43   20.92
   1 -15 -14   47.28   21.68
   1 -15 -14   46.70   25.06
   1  15  14    4.24   13.55
  -1 -15 -14   69.53   30.11
  -1  15 -14   73.08   26.10
  -1 -15  14   28.29   20.29
  -1 -15  14   76.25   24.96
   0  16 -14   -9.07   17.64
   0 -16  14    7.84   20.72
   0 -16 -14   -2.72   24.31
   0 -16  14   -3.08   15.01
   0  16  14   -5.26   15.32
   2 -16 -14   14.36   21.77
   2 -16  14  -12.96   16.04
  -2  16  14  -10.18   19.27
   2  16 -14   37.07   24.88
  -2 -16  14   17.11   22.97
   2 -16  14    3.27   22.74
   2 -16 -14    6.43   25.51
   1  17  14   -2.66   15.90
   1 -17  14   49.24   25.50
  -1  17  14   37.64   23.05
  -1 -17  14   29.02   24.56
   1  17 -14   58.24   25.90
   1 -17  14   47.25   28.44
   1  17 -14   61.53   25.90
   0   0  15    7.12    5.08
   0   0  15    0.52    7.34
   0   0 -15    2.19    9.62
   0   0 -15    1.08    8.98
  -2   0 -15   13.08   12.74
   2   0  15    4.39    8.56
   2   0  15    0.43    9.10
  -2   0  15    8.94    8.64
   2   0 -15  -15.44    8.01
  -2   0  15   12.81    9.53
   2   0 -15   -2.12    7.13
   4   0 -15   -2.72   15.65
  -4   0 -15   -0.51   14.91
  -4   0  15    3.96   12.59
   4   0  15   -8.84   11.80
   1   1  15  547.15   32.85
   1  -1 -15  521.01   30.86
  -1   1  15  523.11   26.55
  -1   1  15  515.29   32.62
   1   1 -15  483.36   32.00
  -1  -1  15  487.20   31.26
   1   1 -15  510.07   33.87
   1  -1 -15  475.03   36.05
   1  -1  15  500.02   33.09
  -1  -1 -15  523.91   38.35
  -1  -1  15  468.71   26.17
  -1   1 -15  448.40   33.74
   1   1  15  549.20   33.70
   1  -1  15  495.56   32.34
   3   1  15  370.13   30.65
  -3   1 -15  334.94   39.46
  -3  -1 -15  316.32   41.48
   3   1 -15  381.08   42.70
   3  -1  15  366.97   31.38
   3   1 -15  413.41   30.94
  -3  -1  15  366.68   40.66
  -3   1  15  331.24   37.85
   3   1  15  304.14   36.67
   3  -1  15  355.96   38.95
   3  -1 -15  402.25   45.82
   5   1  15  188.57   36.80
  -5  -1 -15  159.43   39.17
  -5   1 -15  196.54   45.30
   5  -1 -15  144.46   36.14
  -5   1  15  149.55   36.86
   5  -1  15  125.21   33.41
  -5  -1  15  176.11   37.67
   5   1 -15  179.47   41.81
   0   2 -15  106.11   18.18
   0  -2 -15   97.74   20.33
   0   2  15  100.47   17.00
   0   2 -15  139.46   21.55
   0  -2  15  119.58   21.41
   0   2  15  126.33   17.96
   0  -2  15  101.37   13.01
  -2   2 -15   79.02   18.46
  -2   2  15   93.91   17.93
  -2  -2  15  116.87   20.54
  -2  -2 -15   75.62   21.15
   2   2  15   95.51   18.39
   2   2 -15  102.27   19.73
   2  -2  15  122.32   22.56
   2   2  15   78.84   17.94
   2   2 -15   76.18   18.06
  -2   2  15  131.25   21.70
  -2  -2  15  106.42   18.05
   2  -2  15   41.50   14.61
   2  -2 -15   86.66   22.89
  -4   2 -15   50.18   21.22
   4   2 -15   35.93   20.66
  -4   2  15   36.63   20.44
   4  -2  15   44.25   20.82
  -4  -2  15   17.11   16.60
   4   2  15   31.08   16.88
  -4  -2 -15   79.67   26.76
   4  -2 -15   33.62   20.23
  -1  -3  15  355.25   25.19
  -1  -3  15  321.61   25.94
   1  -3  15  304.57   31.20
   1  -3 -15  323.45   36.76
   1  -3 -15  325.19   23.93
  -1  -3 -15  253.03   33.23
  -1   3  15  351.34   27.20
   1  -3  15  292.77   32.37
   1   3 -15  336.89   25.41
   1   3 -15  335.04   32.37
   1   3  15  298.05   30.99
   1   3  15  332.64   25.85
  -1   3  15  351.01   22.58
  -1   3 -15  295.66   30.05
  -3  -3 -15  225.76   35.47
  -3   3 -15  200.50   30.49
  -3   3  15  288.52   35.39
   3   3 -15  210.05   31.82
   3  -3  15  247.24   34.79
  -3  -3  15  235.68   33.88
   3  -3  15  291.48   34.24
   3   3  15  221.21   30.93
   3   3 -15  220.49   30.41
   3  -3 -15  211.83   33.99
  -3   3  15  204.33   27.02
   0   4  15   -2.48    7.16
   0  -4  15    7.35    7.28
   0  -4 -15    2.14   11.11
   0   4  15   -2.99    7.49
   0   4 -15  -13.50    6.70
   0  -4  15   12.85   10.20
   0   4 -15    9.16    8.18
  -2  -4  15   -6.20    9.07
  -2   4  15   -2.71    8.26
   2  -4 -15   13.64   14.19
  -2   4 -15    2.40    8.80
  -2  -4  15    2.94    8.96
  -2  -4 -15   13.39   14.18
   2  -4  15   11.43   11.30
   2   4 -15   -3.83    8.53
   2   4 -15   -0.52   10.86
   2  -4  15    5.34    9.61
   2   4  15   10.26   11.24
  -2   4  15    1.43    8.47
   2   4  15    9.07    8.84
  -4  -4  15    7.32   14.73
  -4   4 -15   -8.35   13.13
   4  -4  15    9.97   16.80
   4   4  15   17.63   15.42
  -4   4  15    2.35   13.47
  -4  -4 -15  -11.91   15.18
   4   4 -15   -7.40   14.85
   4  -4 -15    4.79   15.36
   4   4 -15    7.64   17.07
   1  -5 -15   24.84   15.64
   1  -5  15   12.20    8.32
   1   5  15   11.55    9.36
   1   5  15   13.65    9.59
  -1   5  15   13.70    9.59
  -1  -5 -15   15.51   16.26
   1   5 -15   -1.47    9.55
  -1   5 -15   -6.24    7.66
  -1   5  15   -2.85    7.32
   1  -5  15    3.75    9.21
  -1   5 -15   -9.70    8.69
  -1  -5  15    6.67    8.77
  -1  -5  15   -1.28    9.08
   3   5  15   -3.08   12.66
  -3  -5 -15   19.43   18.70
   3   5 -15   10.33   13.03
  -3   5 -15   -4.15   10.97
  -3   5  15    6.73   11.34
   3  -5  15  -18.57    9.75
  -3  -5  15   10.61   15.38
   3  -5 -15   -2.54   12.84
  -3   5  15    3.67   11.51
   3  -5  15    5.21   13.19
   0  -6  15   74.90   16.25
   0   6  15   60.21   16.42
   0  -6 -15   40.41   18.24
   0   6 -15   33.96   14.76
   0   6  15   55.83   12.91
   0  -6  15   71.04   16.45
  -2  -6  15   48.85   17.29
  -2   6 -15   24.90   16.56
   2   6  15   39.06   15.39
   2   6 -15   33.67   15.44
   2   6  15   45.42   15.10
  -2  -6  15   53.49   14.93
   2  -6 -15   36.27   17.47
  -2  -6 -15   22.99   17.19
   2  -6  15   28.41   14.20
  -2   6  15   44.57   15.36
  -2   6  15   21.76   13.29
  -4   6 -15   20.14   18.47
   4   6  15   23.96   18.63
   4  -6  15   35.21   19.35
   4   6 -15   28.74   17.75
  -4  -6  15   -5.66   15.41
   4  -6 -15   22.96   20.15
  -4   6  15   41.58   21.38
  -4  -6 -15   -9.92   16.69
   1  -7  15  484.19   36.41
  -1  -7 -15  383.38   47.94
   1  -7  15  393.39   29.73
   1   7 -15  492.47   36.92
  -1  -7  15  457.58   32.74
  -1   7  15  515.14   36.77
   1   7  15  468.05   29.77
  -1  -7  15  406.96   32.92
   1  -7 -15  529.58   45.47
  -1   7 -15  378.97   37.37
   1  -7 -15  405.32   27.69
   1   7  15  389.51   31.28
   3  -7  15  269.85   36.81
  -3   7  15  288.70   36.47
  -3   7  15  309.33   39.20
   3   7  15  346.79   41.45
   3  -7 -15  231.19   37.32
  -3  -7 -15  286.34   46.35
   3   7 -15  238.44   34.10
  -3  -7  15  288.93   41.71
   3  -7  15  281.89   37.31
   0   8  15  661.85   41.79
   0   8 -15  657.98   44.45
   0  -8 -15  738.35   53.04
   0  -8  15  719.06   41.21
   0  -8  15  645.29   40.99
   2  -8 -15  649.10   51.25
  -2   8  15  584.42   41.83
  -2  -8  15  571.81   35.91
   2  -8 -15  514.18   36.79
  -2  -8 -15  546.27   60.79
   2   8  15  575.31   39.07
   2   8 -15  608.18   44.43
  -2  -8  15  544.17   42.70
  -2   8 -15  593.36   44.52
   2  -8  15  500.67   40.35
   2   8  15  458.95   35.25
  -4   8  15  362.05   47.08
   4  -8  15  366.84   47.71
  -4  -8  15  399.97   55.17
   4  -8 -15  305.16   48.07
  -4  -8 -15  234.08   43.79
   4   8  15  241.76   40.89
   4   8 -15  343.78   44.37
   1   9  15  528.58   32.24
  -1  -9 -15  433.98   52.31
   1   9  15  575.83   38.86
  -1  -9  15  492.37   39.60
  -1   9  15  502.56   38.64
   1  -9 -15  511.39   56.41
   1  -9  15  552.20   40.97
  -1  -9  15  456.17   35.32
  -1   9 -15  520.08   40.60
   1  -9 -15  531.28   33.78
   1  -9  15  447.71   36.46
   1   9 -15  562.47   42.96
  -3   9  15  381.13   43.63
   3   9  15  410.92   46.60
  -3  -9  15  359.90   46.26
   3   9 -15  367.35   46.18
   3  -9 -15  464.00   54.39
  -3   9 -15  380.59   44.79
   3  -9  15  416.57   49.13
  -3   9  15  369.59   41.62
  -3  -9 -15  335.81   49.77
   0  10 -15   99.39   21.68
   0 -10  15  234.85   32.40
   0 -10  15  208.43   30.54
   0 -10 -15  151.45   32.52
   0  10  15  217.46   29.92
   2  10  15  120.97   23.42
   2 -10 -15  169.55   35.25
   2  10  15  161.47   26.92
  -2 -10 -15  159.37   37.73
  -2  10  15  172.11   29.27
   2 -10  15  163.21   32.02
   2 -10 -15  149.63   26.14
  -2 -10  15   98.57   26.86
   2  10 -15  186.82   31.76
  -2  10 -15  166.34   29.65
   4 -10 -15   75.10   27.28
  -4 -10  15  112.18   34.57
  -4  10  15  100.04   29.88
  -4 -10 -15   89.77   36.36
   4  10  15   50.93   25.55
   4  10 -15   94.22   30.20
   1 -11  15   83.61   24.16
  -1  11 -15   53.17   21.22
   1 -11  15   47.43   17.16
   1 -11 -15  102.24   21.91
   1  11 -15   51.10   19.53
  -1 -11 -15   27.16   20.27
  -1 -11  15   41.26   19.89
  -1  11  15  114.74   26.02
   1 -11 -15   47.81   23.08
  -1 -11  15   62.97   19.93
   1  11  15  103.31   23.57
   3  11  15   38.31   19.81
  -3  11 -15   21.18   19.46
  -3  11  15   65.50   23.57
   3 -11 -15   19.37   19.43
   3  11 -15   14.24   18.96
  -3 -11 -15   23.31   25.79
  -3 -11  15   42.65   24.94
  -3  11  15   60.48   23.05
   3 -11 -15   17.33   20.37
   3 -11  15   45.20   22.08
   0 -12  15  250.82   34.69
   0  12 -15  188.06   30.69
   0 -12  15  283.26   40.65
   0 -12 -15  148.03   34.76
   0  12  15  200.69   30.86
   2 -12  15  240.87   38.28
  -2  12  15  213.60   34.87
  -2 -12 -15   95.40   36.22
   2 -12 -15  221.55   42.11
   2  12 -15  206.47   37.43
  -2 -12  15  161.96   33.32
   2 -12 -15  170.57   31.32
  -2  12 -15  187.83   32.40
   2  12  15  240.81   34.80
   2  12  15  202.35   30.97
   1 -13 -15   -1.60   14.44
  -1  13  15    5.56   13.60
  -1 -13  15    7.30   11.90
  -1 -13  15  -18.69   14.56
   1 -13 -15   34.22   22.88
   1 -13  15   15.21   17.48
  -1  13 -15    3.13   14.79
   1  13 -15    4.17   16.97
   1  13  15   -4.05   13.78
   1 -13  15    0.60   13.94
  -1 -13 -15   17.42   22.67
   3 -13 -15   16.99   21.17
   3  13 -15   54.44   24.34
  -3 -13  15   -0.75   17.09
  -3 -13 -15  -10.57   26.99
   3 -13  15  -28.81   14.82
   3  13  15   -7.56   17.82
  -3  13  15    2.70   16.93
   3 -13 -15   -8.07   16.46
   0 -14  15    2.60   14.13
   0 -14 -15   -2.28   20.03
   0  14 -15   16.74   18.78
   0 -14  15   -1.70   15.24
   0  14  15    4.86   13.77
  -2 -14  15   38.88   23.68
  -2  14 -15   25.95   20.74
  -2 -14 -15   -6.41   22.94
   2  14 -15   -3.81   15.68
   2 -14 -15    7.47   16.79
   2 -14 -15  -11.18   18.94
   2 -14  15    7.95   17.12
  -2  14  15   -2.88   19.22
   1  15  15  138.48   31.46
  -1 -15 -15   55.11   29.65
  -1 -15  15  128.33   29.18
   1  15 -15  139.41   31.84
  -1  15  15   86.47   27.00
  -1  15 -15  109.50   28.15
   1 -15 -15   59.85   28.81
   1 -15  15   77.75   30.69
  -1 -15  15  145.31   34.20
   1 -15  15  130.53   30.38
   0 -16  15  310.43   49.00
   0 -16 -15  263.82   47.04
   0  16 -15  325.64   45.37
   0  16  15  412.07   52.08
   0 -16  15  357.25   46.29
   0   0 -16 2318.02   76.64
   0   0  16 2062.80   69.05
   0   0 -16 2303.20   68.33
  -2   0 -16 1816.30   72.84
   2   0  16 1564.45   65.44
   2   0 -16 1687.69   68.43
   2   0  16 1728.63   64.03
   2   0 -16 1806.34   58.09
  -2   0  16 1720.72   60.81
  -2   0  16 1716.36   60.91
   4   0  16 1066.89   64.61
   4   0 -16  962.85   63.09
  -4   0 -16 1156.63   71.76
  -4   0  16  964.93   60.73
  -1  -1  16  130.41   20.20
   1  -1  16  146.73   22.68
  -1  -1  16  153.02   18.95
   1  -1 -16  138.44   25.53
   1  -1  16  136.09   21.68
  -1  -1 -16  147.46   26.70
   1   1  16  137.66   23.10
   1  -1 -16  208.08   24.58
  -1   1  16  126.97   22.12
   1   1 -16  195.31   25.89
  -1   1  16  180.88   20.13
   1   1  16  141.45   21.45
   1   1 -16  135.67   22.73
  -1   1 -16  120.31   22.93
   3   1 -16  101.68   20.99
  -3   1 -16   77.35   22.34
   3   1  16   85.29   20.64
  -3   1  16   68.80   20.48
   3   1  16  157.03   25.12
  -3  -1  16  124.55   25.78
   3   1 -16  125.73   27.48
   3  -1 -16  150.24   31.29
  -3  -1 -16  105.44   26.64
   3  -1  16  101.00   20.67
   3  -1  16  128.75   26.16
   0   2  16   74.31   15.72
   0  -2 -16  126.74   24.96
   0  -2  16   84.86   12.06
   0   2 -16   70.70   16.22
   0  -2  16   91.55   19.16
   0   2 -16   90.93   17.70
   0   2  16   85.41   17.48
   2   2 -16   51.53   16.65
  -2  -2  16   44.90   15.14
  -2   2 -16   61.98   17.94
   2  -2  16   95.70   20.98
   2   2  16   51.87   16.70
   2   2  16   66.90   17.12
  -2   2  16   91.77   18.65
   2  -2  16   53.55   16.35
   2  -2 -16   74.54   22.41
  -2   2  16   82.90   18.81
   2   2 -16   71.61   19.23
  -2  -2  16   40.79   12.73
  -2  -2 -16    8.68   13.44
   4  -2  16   28.44   17.32
  -4  -2 -16   52.81   26.59
   4   2 -16   75.93   27.00
   4  -2 -16   38.11   22.38
   4   2  16   34.95   20.41
  -4   2 -16   53.30   24.15
  -4  -2  16   90.52   25.41
  -4   2  16   58.74   23.68
   1   3 -16  242.68   26.41
   1   3 -16  259.59   29.74
   1  -3  16  228.01   28.80
   1  -3  16  241.53   28.98
  -1   3  16  214.48   27.32
  -1  -3  16  255.01   26.55
   1  -3 -16  162.12   27.99
  -1  -3 -16  227.00   35.09
  -1  -3  16  220.86   26.79
  -1   3 -16  184.57   26.46
   1   3  16  283.62   31.04
  -1   3  16  210.11   21.24
   1   3  16  211.82   25.31
   1  -3 -16  247.37   24.80
  -1   3 -16  196.22   25.47
   3   3 -16  183.24   30.12
   3  -3  16  144.56   25.38
  -3  -3  16  184.83   30.31
   3  -3 -16  178.02   33.04
  -3   3 -16  200.07   33.55
   3   3  16  201.19   31.35
   3  -3  16  196.83   31.53
  -3   3  16  171.33   28.98
   3   3 -16  201.59   28.52
  -3   3  16  154.63   24.24
  -3  -3 -16  100.64   27.10
   0   4  16  914.73   39.30
   0   4 -16  886.64   38.71
   0  -4 -16  858.93   53.09
   0   4  16  899.68   45.20
   0  -4  16  825.90   44.13
   0  -4  16  835.53   34.23
   0   4 -16  915.83   46.19
  -2  -4 -16  748.87   53.62
  -2   4 -16  695.64   40.98
   2  -4  16  778.13   47.75
  -2  -4  16  732.25   39.76
  -2   4  16  783.13   43.43
   2  -4 -16  735.64   51.13
  -2  -4  16  690.64   42.18
   2  -4  16  790.81   45.74
   2   4 -16  771.28   41.59
  -2   4  16  702.23   39.48
   2   4  16  696.48   42.23
   2   4  16  712.61   41.34
   2   4 -16  677.71   42.41
   4   4  16  477.96   53.45
  -4  -4 -16  365.18   50.73
  -4   4  16  490.58   56.20
   4   4 -16  477.58   46.98
   4   4 -16  507.25   54.00
   4  -4  16  434.11   50.22
  -4  -4  16  480.75   53.80
   4  -4 -16  353.10   48.62
  -4   4 -16  484.41   53.45
  -1   5 -16    1.04   12.18
   1  -5 -16  -15.25   10.55
  -1   5  16    3.81    8.83
  -1   5 -16   14.12   11.00
   1   5  16   -0.26    7.88
   1   5 -16   -6.43    9.42
  -1  -5  16    5.89   10.03
   1   5  16   -7.15    8.05
  -1  -5 -16   12.48   16.45
  -1  -5  16   -1.88    8.38
  -1   5  16    3.97    7.89
   1  -5  16    3.81    9.55
   3   5  16   16.84   13.74
   3   5 -16    7.78   12.78
  -3   5  16   -2.85   10.84
   3  -5  16   -5.08   12.19
  -3   5 -16   -5.66   10.61
  -3   5  16   -2.84   10.16
  -3  -5 -16   -1.47   13.53
  -3  -5  16    3.44   13.69
   3  -5  16    1.62   11.52
   3  -5 -16    0.93   16.03
   0  -6  16  104.81   19.33
   0   6  16  129.95   18.19
   0  -6  16  133.29   20.79
   0   6  16  170.04   26.70
   0  -6 -16  117.87   27.25
   0   6 -16  112.95   21.65
   2   6 -16  122.27   25.26
   2   6  16  141.71   23.37
   2   6  16   92.83   20.76
  -2  -6  16   95.82   18.79
  -2   6  16  145.10   24.85
   2  -6 -16   41.97   20.37
  -2   6 -16  119.60   25.05
  -2   6  16  132.58   23.85
  -2  -6  16  100.11   23.76
  -2  -6 -16  114.78   28.93
   2  -6  16  115.62   23.84
  -4   6  16   52.63   22.72
   4  -6 -16   40.94   23.27
  -4  -6  16   87.73   28.96
  -4  -6 -16   35.76   24.23
   4  -6  16   44.32   20.77
   4   6 -16   94.14   26.80
   4   6  16   68.71   24.10
   1   7  16  171.20   26.54
   1  -7 -16  160.37   21.96
   1   7 -16  178.59   27.75
  -1  -7 -16  137.00   31.82
   1   7  16  199.74   24.41
  -1   7  16  152.07   25.81
  -1  -7  16  149.46   25.81
   1  -7 -16  169.33   32.30
  -1  -7  16  197.75   26.62
   1  -7  16  157.48   27.02
  -1   7 -16  119.87   23.58
   3   7 -16  109.95   27.86
   3   7  16  102.34   24.95
  -3   7  16  160.05   28.89
  -3  -7 -16  107.94   32.79
   3  -7 -16   90.37   26.49
  -3  -7  16  138.65   28.97
  -3   7  16  147.91   27.40
   3  -7  16  163.04   29.55
   3  -7  16  122.76   27.81
   0  -8  16  890.40   45.85
   0   8  16  901.00   48.87
   0  -8 -16  924.59   60.65
   0   8 -16  921.64   52.70
   0  -8  16  907.53   49.70
   2   8  16  781.97   45.62
   2  -8 -16  826.46   59.35
  -2   8 -16  837.59   52.86
   2   8 -16  836.22   53.00
  -2  -8 -16  866.08   65.95
  -2   8  16  795.48   46.56
  -2   8  16  870.07   52.22
  -2  -8  16  842.34   44.30
  -2  -8  16  826.66   51.93
   2   8  16  751.18   45.06
   2  -8  16  767.83   50.42
  -4  -8  16  471.74   58.79
   4   8  16  446.64   51.60
   4   8 -16  552.70   59.92
   4  -8  16  446.18   53.24
  -4   8  16  501.34   55.75
  -4  -8 -16  401.89   58.30
   4  -8 -16  552.95   65.71
   1   9  16    6.14   12.44
   1  -9 -16   11.65   17.16
  -1  -9  16    0.31   10.72
  -1   9  16   -2.35    9.37
  -1   9 -16    1.54   12.53
  -1  -9  16   14.50   13.87
   1  -9 -16   -0.02   10.58
   1   9  16   -5.35    9.29
   1   9 -16  -16.41   10.97
  -1  -9 -16   -7.18   16.76
   1  -9  16    6.02   13.52
   1  -9  16   -4.42   10.29
  -3  -9 -16   -0.65   19.71
  -3  -9  16   14.53   17.75
   3   9 -16    2.03   17.94
  -3   9  16    4.82   14.08
   3  -9 -16   21.70   20.46
   3  -9  16  -13.88   12.78
  -3   9  16   -1.91   12.23
   3   9  16    1.40   14.16
  -3   9 -16   10.53   17.70
   0  10  16   95.46   22.62
   0 -10  16   87.13   21.44
   0 -10  16  104.28   23.50
   0  10 -16   69.83   20.03
   0 -10 -16   77.30   27.17
   2 -10  16   84.20   24.55
   2 -10 -16   50.00   19.87
   2  10  16   71.13   18.56
   2  10  16   85.81   21.15
  -2  10  16  102.40   24.69
   2 -10 -16  121.79   30.93
  -2 -10 -16   63.87   30.25
  -2 -10  16   52.47   22.87
  -2  10 -16   87.42   24.47
   2  10 -16   77.43   23.50
  -1  11  16  408.68   45.72
   1 -11  16  388.14   43.67
  -1 -11 -16  337.04   46.32
   1 -11 -16  461.71   46.89
  -1  11 -16  368.48   41.83
  -1 -11  16  390.47   45.41
   1  11  16  439.09   44.98
   1 -11 -16  343.15   49.05
   1 -11  16  451.02   46.37
  -1 -11  16  481.40   39.43
   1  11 -16  318.22   39.25
  -3 -11  16  217.72   39.66
   3  11  16  263.89   39.56
   3 -11  16  283.36   42.68
  -3  11 -16  248.82   40.22
  -3  11  16  296.60   43.50
   3  11 -16  226.81   38.58
  -3 -11 -16  226.28   45.72
   3 -11 -16  238.10   40.60
  -3  11  16  354.22   46.32
   0 -12  16  503.58   52.65
   0  12 -16  466.70   47.76
   0  12  16  519.62   42.95
   0 -12  16  500.40   51.14
   0 -12 -16  445.00   54.67
  -2  12  16  454.47   48.96
  -2 -12 -16  378.76   59.29
   2  12  16  404.43   43.98
  -2 -12  16  368.15   49.64
   2 -12 -16  394.80   52.07
   2 -12  16  499.37   53.75
  -2  12 -16  459.64   49.27
   2 -12 -16  378.86   44.18
   2  12 -16  361.46   45.68
  -1  13 -16   23.26   16.31
  -1 -13  16  -12.73   11.87
   1  13  16   -7.23   12.86
   1 -13  16    4.39   16.19
   1 -13  16   22.79   19.02
   1  13 -16   -3.92   15.17
  -1  13  16   -2.17   13.46
  -1 -13  16  -20.28   15.98
   1 -13 -16   -1.18   19.41
  -1 -13 -16    1.72   20.65
   3 -13 -16   -2.95   19.86
   3  13 -16    8.61   20.81
   3 -13  16   -8.26   16.47
  -3  13  16   -7.01   16.00
   3 -13 -16   15.74   25.09
   3  13  16  -10.44   19.48
  -3 -13  16   14.22   22.21
  -3 -13 -16    2.79   27.48
   0 -14  16   -4.24   18.02
   0  14 -16    2.68   19.44
   0  14  16   -2.91   12.38
   0 -14 -16   20.76   23.35
   0 -14  16   -4.74   12.75
   2  14 -16   -3.09   17.67
  -2 -14 -16  -20.84   24.86
  -2  14 -16   19.86   19.99
  -2  14  16    0.29   16.49
  -2 -14  16   28.57   22.04
   2 -14  16  -18.00   16.19
   2 -14 -16  -18.70   19.53
   2 -14 -16   -0.79   18.45
   1  15 -16  224.94   38.93
  -1 -15 -16  301.10   54.15
  -1 -15  16  324.39   43.49
  -1  15  16  296.84   45.31
   1 -15 -16  225.93   44.12
  -1 -15  16  256.33   43.97
  -1  15 -16  254.08   39.98
   1  15  16  299.29   41.84
   1 -15  16  239.93   43.59
   1 -15  16  329.86   48.36
   0 -16  16  261.91   43.20
   0 -16  16  122.78   33.64
   0  16 -16  225.62   38.92
   0  16  16  252.29   42.12
   0 -16 -16  178.16   45.72
   0   0  17    8.13    9.28
   0   0 -17    5.85   11.90
   0   0 -17   -1.14    8.01
  -2   0 -17    8.61   13.73
   2   0 -17    2.05   12.18
   2   0  17    5.50   11.36
  -2   0  17   -2.13    7.96
   2   0 -17  -22.81    8.33
   2   0  17   -0.48   10.07
  -2   0  17   -1.07    9.78
  -4   0  17   -8.64   13.65
  -4   0 -17   12.88   18.68
   4   0 -17    6.37   17.19
   4   0  17    4.06   14.19
   1   1  17  114.43   20.03
  -1  -1 -17  129.69   25.95
   1  -1  17   65.99   16.73
  -1  -1  17  137.25   18.35
  -1   1 -17  106.73   23.32
   1  -1  17  115.21   20.71
   1   1 -17  138.67   22.78
   1   1 -17  134.87   23.18
   1  -1 -17  121.31   20.15
  -1  -1  17  156.29   23.48
  -1   1  17  140.48   22.58
  -1   1  17  144.11   18.23
   1  -1 -17  118.90   24.28
   1   1  17  149.65   25.35
  -3  -1 -17   90.54   27.23
  -3   1  17   98.49   23.40
  -3  -1  17   64.41   20.74
   3   1  17  110.53   24.71
   3   1  17  107.71   22.59
   3  -1 -17  122.76   29.79
  -3   1 -17  143.96   28.58
   3  -1  17  101.25   24.23
   3   1 -17  115.10   26.45
   3  -1  17   90.18   21.65
   0   2 -17  282.43   30.15
   0  -2  17  331.86   33.68
   0   2  17  279.74   30.78
   0  -2 -17  308.02   36.86
   0   2 -17  290.38   30.55
   0  -2 -17  308.19   29.69
   2  -2  17  230.24   31.09
  -2   2  17  227.08   28.70
   2  -2 -17  305.66   40.30
   2  -2  17  252.10   31.76
  -2   2  17  275.25   30.90
  -2  -2  17  243.24   30.32
  -2   2 -17  238.70   32.52
   2   2  17  227.04   29.42
   2   2 -17  266.40   32.38
  -2  -2  17  285.97   30.72
   2   2 -17  298.56   33.74
  -2  -2 -17  282.32   39.98
   2   2  17  240.25   29.63
  -4  -2 -17   78.39   29.15
   4  -2  17  113.58   29.71
  -4  -2  17   92.04   26.47
   4   2  17  112.77   29.12
  -4   2  17  164.27   33.51
   4  -2 -17   79.89   27.07
   4   2 -17  170.69   34.21
  -4   2 -17  119.67   31.43
  -1  -3  17  266.13   27.39
  -1   3  17  289.78   32.09
   1   3 -17  263.60   30.35
  -1  -3  17  305.91   32.18
   1  -3 -17  233.70   34.30
   1   3 -17  320.67   32.33
   1  -3 -17  326.87   26.78
   1  -3  17  260.06   32.59
  -1   3 -17  301.63   34.23
  -1   3  17  277.35   21.53
   1   3  17  269.90   31.41
   1   3  17  283.52   29.76
  -1   3 -17  285.81   32.24
  -1  -3 -17  291.62   40.44
   3   3  17  149.40   28.04
  -3   3  17  208.00   32.31
   3   3 -17  218.30   32.76
  -3  -3  17  208.20   33.02
  -3   3 -17  187.93   31.05
   3   3 -17  133.99   24.86
   3  -3 -17  146.34   32.30
   3  -3  17  221.28   35.29
   3  -3  17  260.38   34.51
  -3  -3 -17  223.13   39.67
  -3   3  17  130.04   23.19
   0  -4 -17   44.77   20.70
   0   4  17   49.22   13.30
   0  -4  17   53.08   16.46
   0   4 -17   84.89   17.07
   0   4 -17   51.57   16.18
   0  -4  17   59.44   13.54
   0   4  17   93.02   20.03
  -2  -4  17   47.59   14.85
   2  -4  17   56.04   17.56
  -2  -4 -17   62.99   23.78
   2  -4  17   41.97   17.20
   2   4  17   76.93   19.09
   2   4  17   89.06   20.75
  -2   4 -17   34.76   15.24
  -2  -4  17   21.29   14.32
   2   4 -17   34.62   15.66
   2   4 -17   71.70   19.13
  -2   4  17   35.89   13.50
  -2   4  17   54.81   15.54
   2  -4 -17   61.42   21.02
   4   4  17   29.29   18.27
  -4  -4  17   34.85   21.04
  -4   4  17   44.06   22.64
   4  -4  17   42.54   22.60
   4  -4 -17   15.46   19.10
  -4   4 -17   15.16   17.70
  -4  -4 -17  -10.85   19.58
   1   5 -17  669.87   42.96
  -1   5  17  693.32   42.42
   1  -5 -17  651.44   50.92
  -1  -5 -17  706.44   56.14
   1  -5  17  651.40   42.58
  -1   5 -17  658.32   43.26
  -1  -5  17  678.08   38.29
   1   5  17  638.62   40.59
   1   5  17  652.42   36.86
  -1   5  17  676.55   32.69
  -1  -5  17  613.82   38.97
   3  -5  17  411.79   44.05
  -3   5 -17  469.35   40.06
  -3  -5  17  491.26   51.07
   3   5 -17  497.29   47.01
  -3  -5 -17  269.49   42.62
   3  -5  17  364.45   43.62
  -3   5  17  458.19   47.26
  -3   5  17  416.98   41.66
   3   5  17  332.90   40.12
   3  -5 -17  511.16   57.09
   0   6 -17    0.18   10.94
   0   6  17   36.44   11.61
   0   6  17   19.04   12.73
   0  -6  17    2.19   10.19
   0  -6  17   27.44   13.71
   0  -6 -17   16.63   15.87
  -2   6 -17    1.05   13.88
  -2   6  17   24.26   14.68
  -2  -6 -17   34.26   20.04
   2   6  17    3.60   12.00
  -2  -6  17   -5.19   10.94
   2  -6  17    4.51   10.71
  -2   6  17   13.19   12.71
   2   6  17    9.20   12.46
   2  -6 -17   13.17   15.67
   2   6 -17   -2.94   12.78
  -2  -6  17   28.43   13.44
   4  -6  17   15.54   18.84
   4  -6 -17   -2.02   18.43
  -4   6  17   23.71   20.81
   4   6 -17   42.48   20.94
  -4  -6  17   12.78   21.09
  -4  -6 -17   30.29   22.29
   4   6  17   11.62   17.90
   1  -7 -17   32.83   19.93
  -1  -7  17  -13.23    9.67
  -1  -7 -17   -5.38   15.75
  -1   7 -17   -2.79   11.98
   1  -7  17  -15.06    8.88
   1   7 -17   14.25   14.84
   1   7  17    4.78    9.85
   1   7  17   15.05   10.84
  -1  -7  17    2.36   10.12
  -1   7  17   13.21   12.44
  -3   7  17    3.48   12.12
   3  -7 -17   22.49   17.13
  -3   7  17    9.66   12.70
   3   7  17   20.15   15.25
  -3   7 -17   32.80   21.99
   3   7 -17   -5.45   14.57
  -3  -7 -17   18.31   22.88
  -3  -7  17   17.31   16.11
   3  -7  17  -17.96   10.32
   0   8  17   53.71   18.96
   0  -8  17   17.34   13.67
   0  -8 -17   18.33   18.26
   0  -8  17    4.63   12.26
   0   8 -17   55.21   19.64
  -2  -8 -17   24.22   20.78
  -2  -8  17   36.38   19.33
   2   8 -17   -8.32   12.06
  -2   8  17    3.72   12.54
  -2   8  17    3.82   12.94
   2  -8  17   15.96   15.26
   2  -8 -17   14.31   17.33
   2   8  17   18.12   13.64
   2   8  17   10.38   12.58
  -2  -8  17   11.83   13.47
  -2   8 -17    4.31   14.44
   4   8 -17    1.43   20.75
   4  -8 -17  -10.22   20.12
  -4   8  17    5.03   18.03
  -4  -8  17   15.13   22.75
   4   8  17   33.61   21.86
  -4  -8 -17  -14.06   21.23
  -4   8 -17    1.34   22.97
   1   9  17  169.68   29.02
  -1  -9 -17  138.50   33.78
   1  -9  17  153.47   27.82
   1  -9 -17  154.94   35.77
  -1   9  17  160.32   28.34
   1   9 -17  181.82   30.24
  -1  -9  17  171.40   29.64
  -1   9 -17   99.04   23.61
  -1  -9  17  186.59   28.43
   3   9 -17  126.24   32.10
  -3   9 -17   95.23   27.68
  -3  -9 -17  106.88   35.61
   3  -9  17  101.79   26.54
  -3  -9  17  176.57   35.91
  -3   9  17  166.69   32.75
   3  -9 -17   91.46   31.01
   3   9  17  124.75   28.18
  -3   9  17  151.09   30.90
   0 -10  17  136.88   26.34
   0  10  17  138.87   27.97
   0  10 -17   98.40   22.79
   0 -10 -17   89.87   27.49
   0 -10  17  172.99   29.54
   2 -10 -17  125.18   32.51
   2  10  17  112.34   23.48
  -2  10  17  102.48   27.54
  -2 -10  17   92.78   26.28
   2 -10 -17  115.22   25.56
   2  10 -17  137.71   30.61
  -2 -10 -17   84.19   35.22
   2 -10  17  105.36   26.68
  -2  10 -17   88.28   26.51
   2  10  17   99.65   23.65
   1 -11 -17   30.30   21.81
   1 -11  17   16.69   15.59
   1  11  17   43.82   16.61
  -1  11  17    5.44   12.91
  -1 -11 -17   19.49   19.33
   1  11 -17    4.88   15.64
  -1 -11  17    6.64   14.24
  -1 -11  17   20.83   18.21
  -1  11 -17   70.75   23.07
  -3  11 -17   -2.52   18.48
   3  11  17   55.78   23.20
   3  11 -17   12.23   25.82
  -3 -11 -17   26.76   27.23
   3 -11 -17   24.71   23.93
  -3  11  17   19.95   19.97
  -3  11  17   -3.35   15.81
  -3 -11  17   17.79   21.31
   3 -11  17   40.30   21.27
   0  12 -17  141.09   29.34
   0 -12  17   92.94   27.08
   0 -12  17  166.82   32.65
   0  12  17   96.70   26.74
   0 -12 -17  121.72   33.84
   2  12  17  162.12   28.99
   2  12 -17  143.08   31.37
  -2 -12 -17  128.64   42.19
  -2  12  17  174.65   33.97
  -2 -12  17   64.98   24.76
  -2  12 -17   95.38   27.30
   2 -12 -17   87.96   32.12
   2 -12 -17   83.89   26.07
   2 -12  17  123.65   29.59
  -1  13  17  721.88   54.18
  -1 -13  17  806.19   53.05
  -1 -13  17  516.89   57.58
  -1 -13 -17  536.68   61.72
   1 -13  17  619.17   51.28
  -1  13 -17  690.95   53.71
   1 -13 -17  549.57   63.04
   1  13 -17  691.46   54.96
   1  13  17  556.21   47.07
   1 -13  17  563.64   58.15
   0  14 -17   19.39   19.54
   0 -14  17   31.21   21.21
   0  14  17   39.66   21.80
   0 -14  17   81.30   25.54
   0 -14 -17    8.12   22.04
  -2  14  17   78.06   28.07
  -2  14 -17   27.63   21.44
   2  14 -17   -0.77   20.48
  -2 -14  17   29.99   21.55
  -2 -14 -17   18.62   27.48
   2 -14 -17   18.79   29.33
   2 -14  17   34.33   24.02
  -1 -15 -17   32.99   28.20
  -1  15 -17  -16.76   17.65
   1 -15  17   11.21   23.68
  -1 -15  17   33.76   23.44
   1 -15 -17   43.47   28.47
   1  15 -17   25.65   22.22
   1  15  17   30.85   21.27
  -1 -15  17   15.42   18.36
  -1  15  17   10.28   20.12
   1 -15  17    1.66   19.92
   0  16 -17    0.29   20.42
   0 -16 -17   20.54   29.55
   0 -16  17   23.47   20.45
   0  16  17   45.90   22.33
   0 -16  17    7.28   22.68
   0   0 -18    3.93   11.21
   0   0 -18   18.48   14.01
   0   0  18    4.45    9.79
  -2   0  18   12.68   10.41
  -2   0  18   13.65   11.45
   2   0  18   27.10   14.88
  -2   0 -18   -1.69   12.05
   2   0 -18   -1.51   12.17
   2   0 -18    7.16   13.95
   2   0  18   -1.75    9.87
  -4   0 -18   53.77   23.74
  -4   0  18  -11.13   14.18
   4   0 -18   21.78   21.50
   4   0  18   -2.13   15.60
   1  -1  18  193.43   26.93
  -1   1 -18  235.03   33.26
   1   1 -18  168.77   28.09
  -1   1  18  182.61   25.51
  -1   1  18  180.57   20.62
   1   1  18  171.91   25.80
   1  -1  18  184.67   26.18
  -1  -1 -18  177.68   30.70
   1  -1 -18  207.05   30.76
  -1  -1  18  190.07   26.43
   1   1 -18  219.50   28.32
  -1  -1  18  201.49   22.37
   1   1  18  219.20   27.82
   1  -1 -18  244.17   28.99
  -3  -1 -18  106.71   28.93
   3   1  18  157.19   28.48
   3  -1  18   91.61   21.82
   3   1  18  119.71   23.92
  -3   1  18  134.16   26.31
   3  -1 -18   71.68   23.77
   3   1 -18  173.03   33.02
  -3  -1  18  142.03   26.68
   3  -1  18  174.22   31.83
  -3   1 -18  121.61   29.84
   0   2 -18   -2.54    9.30
   0  -2 -18    9.09   11.11
   0   2  18    3.67    9.66
   0  -2  18   -7.41    6.39
   0  -2 -18   -6.09   11.90
   0   2 -18   30.61   13.18
  -2   2 -18   -7.35   11.12
   2   2 -18   26.80   15.03
   2  -2  18    2.11   12.25
   2  -2 -18   -2.76   14.13
  -2   2  18    2.96    9.55
   2   2 -18   -6.02   12.90
   2   2  18    2.76   11.24
  -2  -2 -18   -0.43   12.90
  -2  -2  18   -5.45   10.28
   2   2  18    2.18   10.37
   2  -2  18    5.02   12.39
  -2  -2  18    6.62   10.27
  -2   2  18   13.55   11.09
   4  -2  18    7.48   16.15
  -4   2 -18   -0.43   18.43
  -4  -2 -18    7.35   19.29
   4   2  18    3.06   14.60
   4   2 -18   -4.72   15.40
  -4   2  18    1.85   16.71
   4  -2 -18   10.29   17.22
  -4  -2  18    9.40   16.15
   1  -3 -18  713.80   51.33
   1   3 -18  638.49   38.66
  -1  -3 -18  691.14   54.03
  -1  -3  18  731.79   41.98
   1   3  18  658.29   41.52
  -1  -3  18  640.63   35.16
   1  -3 -18  686.23   37.65
   1  -3  18  742.24   44.98
  -1   3 -18  681.96   43.87
  -1   3  18  643.10   41.57
   1   3  18  740.43   41.30
   1   3 -18  667.99   42.16
  -1   3 -18  654.08   43.39
  -3   3  18  533.18   41.72
  -3   3  18  455.60   43.55
  -3   3 -18  357.12   41.72
   3  -3  18  436.88   47.34
   3   3 -18  489.33   48.75
   3  -3  18  484.33   47.37
  -3  -3 -18  453.67   55.44
   3  -3 -18  440.36   50.92
   3   3  18  584.27   55.78
   3   3 -18  511.25   46.88
  -3  -3  18  475.64   48.83
   0   4 -18   29.15   14.73
   0  -4  18    9.06   11.49
   0   4  18   28.20   12.32
   0  -4 -18   11.17   13.47
   0   4  18   20.08   12.42
   0   4 -18    1.52   10.98
   2  -4 -18   23.98   18.30
  -2  -4  18   12.43   10.93
  -2   4  18    6.78   11.45
  -2  -4  18    2.79   11.89
   2  -4  18   -4.24   10.05
  -2  -4 -18   25.88   20.20
   2  -4  18   11.86   13.31
   2   4 -18   -5.63   12.83
  -2   4 -18   22.33   15.04
   2   4  18    7.70   13.35
   2   4  18   10.64   12.33
  -2   4  18    4.12   11.18
  -4   4  18   -7.29   16.62
   4  -4  18    0.74   16.28
  -4  -4  18  -18.34   14.08
   4  -4 -18    2.22   19.55
  -4  -4 -18   33.29   26.66
   4   4  18    3.41   15.53
  -4   4 -18   -5.22   17.14
  -1  -5  18  531.51   37.85
   1   5 -18  518.00   40.47
  -1   5  18  539.44   38.70
   1   5  18  489.29   34.65
  -1   5 -18  537.58   40.78
   1  -5  18  482.13   38.67
  -1  -5 -18  472.53   53.13
  -1  -5  18  427.62   32.01
   1   5  18  535.72   38.42
   1  -5 -18  504.21   53.94
  -3   5  18  361.02   39.60
   3   5 -18  360.92   42.02
   3  -5  18  365.35   45.24
   3  -5 -18  347.34   46.84
  -3  -5  18  388.80   47.48
   3   5  18  358.79   42.29
  -3  -5 -18  315.87   49.01
   3  -5  18  419.72   45.35
  -3   5  18  446.71   46.09
   0  -6 -18  141.85   30.21
   0   6 -18  105.45   22.73
   0  -6  18  146.45   25.23
   0   6  18  101.14   19.29
   2   6  18  106.68   22.73
  -2   6 -18  137.51   28.57
   2  -6  18  117.36   24.48
   2  -6 -18   78.50   25.72
  -2  -6  18  181.94   27.34
  -2   6  18  147.65   27.48
   2   6 -18  115.76   24.87
  -2  -6 -18  104.11   31.23
  -2   6  18  146.94   25.21
   2   6  18  168.87   28.47
  -2  -6  18  135.07   26.12
   4   6  18   34.09   21.23
   4   6 -18   88.26   28.30
  -4   6  18   98.63   28.20
  -4  -6 -18   83.65   33.66
   4  -6 -18   58.26   28.82
   4  -6  18   82.79   27.59
  -4  -6  18  142.19   36.91
  -1  -7 -18  153.14   33.56
  -1   7  18  140.60   27.75
   1  -7  18  197.30   30.95
   1  -7 -18   93.05   27.92
  -1   7 -18  128.45   25.77
   1   7  18  149.03   25.52
  -1  -7  18  119.97   23.99
   1   7 -18  129.00   26.07
  -1  -7  18  155.57   25.12
   1   7  18  152.42   22.70
   3  -7  18  121.36   28.15
  -3   7 -18  107.25   27.90
   3  -7 -18   78.42   27.17
  -3  -7 -18   78.83   30.51
  -3   7  18  105.93   26.07
   3   7 -18   97.47   27.93
   3   7  18   85.91   24.97
  -3   7  18  122.33   26.66
  -3  -7  18  135.25   32.18
   0   8 -18   58.99   20.72
   0   8  18   43.15   15.10
   0  -8 -18   76.81   27.25
   0  -8  18   64.77   17.58
   0  -8  18   59.92   18.52
   2  -8  18   13.76   13.10
   2  -8 -18  108.99   30.70
   2   8  18   37.20   16.57
   2   8 -18   37.73   19.36
  -2   8  18   14.51   14.64
  -2   8  18   37.89   17.09
  -2  -8  18   52.14   20.95
  -2   8 -18   82.67   23.10
   2   8  18   65.30   17.79
  -2  -8  18   84.89   21.89
  -2  -8 -18   49.23   27.28
   4  -8 -18   39.61   26.74
  -4  -8  18   24.29   23.71
  -4   8 -18    3.37   21.66
  -4   8  18   30.27   22.41
  -4  -8 -18   59.64   32.89
   4   8  18   42.02   22.85
   4   8 -18   12.52   25.59
   1   9  18  282.70   36.31
   1   9 -18  194.12   32.03
  -1  -9 -18  238.26   42.53
   1  -9  18  258.27   37.28
  -1  -9  18  295.96   37.82
  -1   9  18  299.47   38.39
   1  -9 -18  252.55   43.79
  -1   9 -18  205.84   31.98
  -1  -9  18  289.33   36.23
  -3   9 -18  121.55   31.07
  -3   9  18  161.06   32.69
   3   9  18  196.93   33.54
  -3   9  18  218.32   35.12
   3  -9  18  139.12   32.53
   3  -9 -18  198.95   40.99
  -3  -9  18  137.59   32.20
   3   9 -18  159.26   36.26
  -3  -9 -18  174.62   44.04
   0 -10  18   -5.58   12.12
   0  10  18    1.97   12.62
   0  10 -18   17.14   14.66
   0 -10 -18    1.91   16.64
   0 -10  18   -4.46   11.83
   2  10  18    0.99   14.70
  -2 -10  18   -0.10   16.14
   2  10 -18    6.58   18.06
  -2  10  18   -2.91   12.98
  -2 -10 -18   -8.90   21.13
   2 -10  18   13.09   15.94
   2 -10 -18   23.76   21.39
  -2  10 -18    7.30   16.44
  -2  10  18   -2.54   12.71
   2  10  18   10.02   13.70
  -1  11 -18  110.79   26.96
  -1 -11  18  185.77   31.32
  -1 -11  18   82.44   25.45
   1 -11 -18   73.18   28.59
   1  11 -18  134.51   30.30
  -1 -11 -18   62.67   26.85
  -1  11  18  122.75   28.29
   1  11  18  125.33   27.37
   1 -11  18  132.29   27.16
  -3  11 -18   90.17   29.15
  -3  11  18   82.49   27.91
  -3 -11  18   81.84   30.13
   3 -11  18   75.93   28.22
  -3  11  18  110.72   31.47
   3  11  18   54.37   24.56
   3 -11 -18   65.30   30.53
   3  11 -18   43.21   26.55
  -3 -11 -18   58.33   32.68
   0  12 -18   -9.83   13.98
   0 -12  18   12.00   14.86
   0 -12 -18   12.85   23.25
   0 -12  18    5.20   16.73
   0  12  18   25.65   16.64
   2  12 -18    0.70   19.30
  -2 -12 -18  -13.95   22.35
  -2 -12  18   41.56   22.29
   2 -12  18    2.35   18.06
   2 -12 -18   21.75   21.60
   2  12  18    4.80   13.56
  -2  12  18   33.90   22.00
  -2  12 -18   17.02   18.85
  -1 -13 -18   16.75   23.11
  -1 -13  18   25.30   20.91
  -1  13  18    8.69   16.10
   1 -13 -18  -16.05   19.01
  -1 -13  18    5.86   14.78
   1 -13  18    3.37   17.48
   1  13 -18   -8.13   14.72
   1  13  18   17.49   15.47
  -1  13 -18   16.81   18.22
   0 -14 -18   81.04   30.79
   0 -14  18   27.18   22.30
   0  14  18   67.79   24.67
   0  14 -18   91.06   28.46
   0 -14  18   98.63   28.14
  -2 -14  18   87.94   30.37
   2 -14  18   98.80   31.04
  -2  14  18  148.92   35.18
  -2 -14 -18   42.55   28.69
   2 -14 -18   43.16   30.35
   2  14 -18   88.43   31.02
  -2  14 -18   78.11   28.16
  -1  15  18   -3.19   17.23
  -1 -15  18   42.67   23.58
  -1 -15  18   17.35   19.05
   1 -15  18   12.71   18.13
   1 -15 -18   -4.10   24.91
   1  15 -18   11.64   22.53
  -1  15 -18  -19.08   17.35
  -1 -15 -18    2.25   22.96
   1  15  18   -0.94   16.22
   0   0  19  -10.82    7.13
   0   0 -19    3.49   12.00
   0   0 -19    8.18   11.85
   2   0  19   -6.53   10.26
   2   0 -19  -10.27   13.09
  -2   0  19    4.59    9.86
   2   0  19  -11.83    8.67
  -2   0 -19  -21.12   10.31
   2   0 -19   -6.01   12.06
  -2   0  19  -10.15    8.79
   4   0  19   -3.12   15.41
  -4   0 -19   29.52   23.65
  -4   0  19   11.58   16.62
   4   0 -19   -7.88   15.62
   1  -1  19   66.53   18.01
   1   1  19   99.16   20.27
  -1   1 -19   82.03   24.19
  -1   1  19   92.96   20.63
   1   1  19   77.95   18.95
  -1  -1 -19  116.45   27.93
   1   1 -19  115.33   24.65
  -1  -1  19   93.57   20.13
   1  -1  19  106.68   21.48
   1   1 -19   90.83   21.47
   1  -1 -19   81.50   19.67
   1  -1 -19  118.14   26.43
   3  -1  19   59.69   20.00
  -3   1 -19   66.80   22.87
   3  -1  19   62.78   19.27
   3   1  19   59.08   19.63
  -3  -1  19  110.23   24.42
   3   1 -19   42.73   21.89
   3  -1 -19   94.42   27.21
  -3   1  19  116.48   24.87
  -3  -1 -19   86.50   27.94
   3   1  19   69.53   22.55
   0  -2 -19  499.99   41.99
   0   2  19  533.47   38.79
   0   2 -19  458.16   34.85
   0  -2 -19  617.55   37.65
   0  -2  19  467.97   36.58
   0   2 -19  560.02   38.21
  -2  -2  19  392.52   32.36
   2  -2  19  485.02   40.14
  -2   2  19  379.05   31.04
   2   2  19  446.37   43.48
   2   2 -19  421.88   37.23
  -2   2 -19  432.88   44.86
   2   2  19  335.00   38.11
   2  -2  19  444.16   44.71
  -2   2  19  364.70   37.45
  -2  -2  19  439.84   34.81
   2  -2 -19  342.40   42.71
   2   2 -19  436.35   43.00
  -2  -2 -19  334.46   44.56
  -4  -2 -19  214.20   45.41
  -4  -2  19  191.05   37.05
   4   2 -19  239.86   40.95
  -4   2 -19  216.61   40.02
   4   2  19  158.78   34.01
  -4   2  19  217.69   38.09
   4  -2  19  155.41   34.31
   4  -2 -19  273.71   45.27
   1  -3 -19  706.60   52.57
   1   3 -19  780.38   43.52
   1   3 -19  753.24   46.25
  -1   3  19  722.74   44.76
  -1  -3  19  744.44   37.68
   1   3  19  780.84   46.60
  -1  -3 -19  728.45   56.99
  -1   3 -19  738.38   46.84
  -1   3 -19  698.46   46.11
  -1  -3  19  723.15   43.62
   1   3  19  747.76   42.44
   1  -3  19  733.72   46.06
  -3  -3  19  505.46   50.07
  -3  -3 -19  524.67   63.33
   3  -3  19  514.14   43.22
  -3   3  19  522.90   42.08
   3   3 -19  486.08   47.31
   3   3 -19  522.37   43.56
  -3   3 -19  552.73   48.11
   3  -3  19  443.52   46.74
   3  -3 -19  446.28   53.19
   3   3  19  457.37   48.37
   0  -4 -19   44.46   20.83
   0   4  19   49.67   17.25
   0   4  19   43.28   14.37
   0  -4  19   34.30   16.77
   0   4 -19   36.04   16.43
  -2   4  19    5.67   12.40
  -2  -4  19   58.87   19.85
   2  -4 -19   23.41   20.21
  -2   4 -19   29.17   16.91
  -2  -4  19    4.62   11.03
   2   4 -19   32.03   18.03
   2   4  19   61.86   19.72
   2   4  19   31.34   15.19
  -2  -4 -19   -5.75   18.23
   2  -4  19   35.43   16.03
  -2   4  19   20.76   14.63
   2  -4  19   20.62   15.48
  -4   4  19   35.95   23.08
   4  -4  19   27.59   20.26
  -4  -4 -19   -1.56   22.69
  -4   4 -19    6.43   20.52
  -4  -4  19    1.11   19.22
   4   4  19   36.41   22.11
   4  -4 -19   39.51   25.87
   1   5 -19   74.20   20.97
   1   5  19   91.82   22.29
  -1  -5  19   81.47   18.70
  -1  -5 -19   93.37   28.47
  -1  -5  19   92.37   20.95
   1   5  19   40.17   15.73
   1  -5  19   88.49   21.45
  -1   5  19   52.19   17.93
  -1   5 -19   36.77   17.51
   1  -5 -19   57.14   23.46
   3  -5  19   46.18   20.64
   3   5  19   67.29   23.32
  -3  -5  19   48.91   21.61
  -3  -5 -19   34.39   24.58
   3  -5  19   45.93   20.93
   3   5 -19   47.69   21.11
  -3   5  19   46.17   18.03
   3  -5 -19   30.30   21.72
  -3   5  19   54.08   21.98
   0  -6 -19   66.83   24.41
   0   6 -19   46.19   17.83
   0   6  19   49.63   16.77
   0  -6  19   44.26   16.07
   2   6  19   63.11   20.40
  -2   6 -19   55.48   21.80
   2  -6  19   51.06   19.25
   2   6  19   27.38   14.59
  -2  -6 -19   43.15   24.59
   2   6 -19   44.68   21.45
  -2  -6  19   48.43   18.09
   2  -6 -19   13.35   17.43
  -2  -6  19   46.45   16.68
  -2   6  19   67.88   21.10
  -2   6  19   27.40   15.41
  -4  -6  19   14.79   22.50
   4  -6  19   18.85   18.57
  -4   6  19   29.45   22.39
  -4  -6 -19   52.97   33.67
   4   6  19   33.38   20.58
   4   6 -19    2.44   21.71
   4  -6 -19    9.65   25.11
   1  -7  19  229.90   32.61
   1   7  19  191.23   31.38
  -1  -7  19  237.88   31.21
  -1  -7 -19  206.71   38.22
   1   7  19  187.65   25.61
  -1   7  19  281.61   37.95
   1  -7 -19  202.11   38.38
   1   7 -19  145.58   27.58
  -1  -7  19  253.50   33.72
  -1   7 -19  141.64   27.02
   3   7 -19  105.61   28.77
  -3   7  19  112.52   27.77
   3   7  19  132.53   30.54
   3  -7 -19   54.02   24.31
  -3   7 -19  114.15   28.94
  -3  -7  19  179.67   36.04
  -3   7  19  183.78   33.57
  -3  -7 -19  146.97   39.30
   3  -7  19  128.53   31.92
   0  -8  19   -8.96   10.53
   0  -8 -19    7.93   17.90
   0   8 -19   -3.65   13.91
   0   8  19  -18.03    9.73
   2   8  19   14.79   13.48
  -2  -8  19   -3.24   14.20
   2  -8  19   -0.25   13.24
   2   8 -19  -10.79   14.77
   2   8  19   -7.82   12.69
  -2  -8 -19    0.55   20.05
  -2   8  19   -6.23   12.75
  -2   8 -19  -13.10   13.35
   2  -8 -19  -15.26   14.53
   1   9  19    5.48   13.33
   1  -9 -19    7.76   20.17
   1   9 -19   -3.17   13.26
  -1  -9  19   37.67   18.52
  -1  -9  19   37.34   16.85
  -1  -9 -19    9.71   17.84
  -1   9  19   19.20   14.18
  -1   9 -19    0.75   15.61
   1  -9  19   34.25   18.05
   3  -9 -19   41.32   25.52
  -3   9  19   11.15   17.20
  -3   9 -19   17.22   22.80
  -3   9  19   12.57   18.69
   3  -9  19    6.56   19.19
  -3  -9 -19   32.07   27.89
   3   9 -19   22.76   19.89
   3   9  19   -7.43   17.84
  -3  -9  19   19.86   21.30
   0 -10  19   80.15   24.24
   0  10  19   31.35   18.04
   0 -10 -19   65.92   27.29
   0  10 -19   72.37   22.68
   2  10 -19  124.79   32.68
   2  10  19   52.67   19.27
  -2  10  19   26.63   17.12
   2  10  19   74.39   23.03
  -2 -10 -19   23.33   27.49
  -2  10 -19   57.91   24.44
   2 -10 -19   58.15   28.66
   2 -10  19   86.24   25.58
  -2 -10  19   87.86   27.26
   1  11  19  441.08   49.04
  -1 -11  19  510.05   50.61
   1  11 -19  285.36   40.73
   1 -11  19  343.05   43.64
   1 -11 -19  234.91   42.99
  -1 -11  19  306.86   41.02
  -1  11 -19  411.66   47.12
  -1 -11 -19  267.30   45.09
  -1  11  19  440.85   50.37
   3 -11 -19  243.23   45.97
  -3 -11  19  299.70   49.10
   3  11  19  259.95   40.69
   3 -11  19  253.78   42.80
  -3  11 -19  225.68   40.06
  -3  11  19  387.82   51.49
   3  11 -19  233.66   44.75
  -3  11  19  264.76   39.73
  -3 -11 -19  311.59   62.47
   0  12  19  218.56   36.50
   0  12 -19  201.65   34.66
   0 -12  19  221.70   36.69
   0 -12  19  238.24   37.78
   0 -12 -19  160.71   37.30
  -2  12  19  225.20   39.74
   2 -12  19  176.44   35.96
  -2  12 -19  178.08   34.88
   2  12  19  195.29   33.50
  -2 -12  19  198.44   37.20
   2 -12 -19  125.75   35.81
   2  12 -19  248.00   43.22
  -1  13  19    4.11   18.49
   1 -13 -19   29.52   25.64
   1  13  19   32.67   19.58
  -1  13 -19   16.87   19.02
  -1 -13  19   12.05   16.84
   1  13 -19   53.62   24.09
  -1 -13  19   42.94   24.98
  -1 -13 -19   12.13   23.83
   1 -13  19   35.24   21.98
   0 -14  19   63.69   24.86
   0 -14  19   60.71   25.05
   0  14 -19   41.43   26.22
   0 -14 -19   91.68   33.73
   0  14  19   78.08   26.09
   1 -15 -19  123.76   39.84
  -1 -15  19  198.27   38.98
   0   0 -20   23.32   15.05
   0   0  20   34.13   15.38
   0   0 -20    3.16   12.62
   2   0  20   -8.71    9.78
   2   0 -20   15.68   16.61
  -2   0 -20    8.09   16.60
   2   0  20   -5.99   12.44
  -2   0  20    1.27   10.17
   2   0 -20    9.12   15.72
  -2   0  20   -7.50   10.36
  -4   0 -20  -10.97   20.53
  -4   0  20    6.75   15.77
   4   0 -20   17.02   21.26
   4   0  20   -2.11   15.85
   1   1  20    5.69   11.75
   1   1 -20   -6.77   12.70
  -1   1  20   -6.52    9.36
   1  -1 -20  -14.24   10.47
   1  -1 -20   -3.01   13.08
   1   1  20   -6.32    8.68
  -1  -1 -20    4.15   15.98
  -1   1 -20   -1.49   12.35
   1  -1  20   -0.73    9.95
   1  -1  20   12.41   12.55
   1   1 -20    1.81   13.91
  -1  -1  20   -3.12    9.22
   3   1 -20   -2.62   15.97
   3   1  20    5.75   14.42
  -3  -1  20  -19.02   12.37
   3   1  20   -4.80   13.27
   3  -1  20  -18.29   12.06
   3  -1 -20   19.76   18.87
  -3  -1 -20    1.64   20.28
  -3   1 -20    1.84   16.00
  -3   1  20    0.14   11.88
   3  -1  20   15.05   16.38
   0  -2  20  904.28   50.86
   0   2 -20  962.89   50.08
   0   2 -20  878.53   48.91
   0  -2 -20  897.73   46.83
   0  -2 -20  963.33   56.82
   0   2  20  880.88   50.79
  -2  -2  20  784.42   46.75
   2  -2  20  740.26   48.79
  -2  -2  20  809.10   46.08
   2   2 -20  772.09   51.10
   2   2  20  787.78   48.53
   2   2 -20  771.35   49.52
  -2  -2 -20  746.36   59.07
   2  -2  20  755.09   51.26
  -2   2  20  819.74   43.66
   2   2  20  758.60   50.02
  -2   2 -20  719.48   52.16
   2  -2 -20  806.92   57.39
  -2   2  20  834.66   49.34
   4  -2  20  421.77   52.61
  -4  -2  20  512.00   58.60
  -4   2 -20  416.56   54.79
   4   2 -20  529.87   59.99
  -4   2  20  451.04   53.46
   4  -2 -20  452.29   60.30
   4   2  20  475.96   56.60
  -4  -2 -20  570.31   73.58
  -1   3 -20  179.82   29.42
   1  -3  20  201.96   31.81
   1  -3 -20  285.60   42.09
   1   3  20  212.12   29.53
   1   3 -20  193.84   27.94
  -1   3 -20  218.16   30.80
  -1   3  20  224.11   32.03
  -1  -3 -20  174.59   34.23
   1   3  20  155.99   24.47
  -1  -3  20  130.56   24.62
   1   3 -20  199.40   30.31
  -3  -3  20  149.05   30.10
  -3  -3 -20  123.23   35.52
   3  -3  20  137.11   28.50
  -3   3 -20  125.37   29.66
  -3   3  20  195.81   32.40
   3  -3  20  129.96   29.34
   3   3  20  163.38   31.76
   3  -3 -20  103.41   29.46
   3   3 -20  197.23   34.43
   0  -4  20  118.04   25.01
   0  -4 -20  121.41   21.85
   0   4 -20  125.54   23.77
   0   4  20  150.26   25.48
   0  -4 -20  102.75   26.27
   2  -4  20  121.13   28.13
   2   4 -20  105.78   26.29
   2   4  20   68.23   21.17
  -2  -4  20  132.40   27.94
   2  -4  20  111.43   25.50
   2   4  20  125.32   25.17
  -2   4  20  142.10   27.13
   2  -4 -20   88.22   26.56
  -2  -4  20  132.72   24.45
  -2  -4 -20  142.19   34.01
  -4  -4 -20   64.15   33.15
   4  -4 -20   65.48   30.17
   4  -4  20   78.96   27.71
  -4  -4  20  130.88   34.70
  -4   4  20   69.12   25.23
   4   4  20  101.88   31.08
  -1  -5 -20  263.71   44.19
   1  -5  20  223.35   32.07
  -1   5 -20  211.18   31.68
   1   5 -20  218.00   31.84
   1  -5 -20  215.02   37.50
  -1   5  20  280.82   35.11
   1   5  20  238.11   30.40
  -1  -5  20  173.53   27.98
   1   5  20  265.48   35.23
   3  -5  20  159.79   31.30
   3   5  20  216.56   36.10
   3  -5 -20  139.81   35.98
   3   5 -20  184.23   33.67
  -3   5  20  207.81   35.16
  -3  -5 -20  187.59   43.53
   3  -5  20  219.88   35.87
  -3  -5  20  238.78   40.23
  -3   5  20  189.81   32.64
   0   6  20 1378.64   65.51
   0  -6 -20 1405.85   77.46
   0  -6  20 1459.42   67.64
   0   6 -20 1495.55   68.61
  -2  -6 -20 1112.34   80.57
   2   6  20 1206.20   61.67
   2  -6  20 1311.43   68.45
  -2  -6  20 1248.84   61.92
   2  -6 -20 1160.57   75.79
   2   6 -20 1242.42   68.09
  -2  -6  20 1188.74   58.73
   2   6  20 1226.59   61.51
  -2   6  20 1279.77   64.24
  -2   6 -20 1166.02   66.28
  -4  -6  20  732.57   74.52
  -4   6  20  881.53   63.45
   4  -6 -20  777.14   82.66
  -4  -6 -20  822.28   92.98
   4   6 -20  906.22   69.40
   4  -6  20  856.22   67.55
  -1   7 -20   53.54   19.74
  -1  -7  20   40.63   17.21
  -1  -7  20   31.41   15.86
   1   7  20   64.55   21.68
  -1  -7 -20   73.54   27.40
   1   7 -20   37.32   18.26
   1   7  20   13.21   13.52
   1  -7  20   35.81   16.94
  -1   7  20   14.26   14.34
   1  -7 -20   24.76   21.14
   3  -7 -20   46.09   25.97
   3   7  20   11.99   18.68
  -3   7  20   17.18   16.79
  -3  -7  20   29.88   20.67
  -3   7 -20   45.09   23.32
  -3  -7 -20   -6.07   21.59
  -3   7  20   33.81   20.44
   3  -7  20   27.46   19.30
   3   7 -20    4.68   20.33
   0  -8 -20   -7.34   14.12
   0  -8  20    6.42   13.64
   0   8 -20    4.04   14.91
   0   8  20   -8.97   10.16
  -2   8 -20   17.79   17.80
   2  -8 -20   27.16   22.91
   2   8 -20    9.08   18.65
  -2  -8 -20   32.50   28.07
  -2  -8  20   14.32   16.90
   2  -8  20   18.49   16.19
   2   8  20    3.62   14.96
  -2   8  20    6.39   14.16
   2   8  20   11.48   15.01
  -1  -9  20  388.73   43.12
   1  -9 -20  293.16   47.07
  -1  -9  20  339.99   38.84
   1   9 -20  294.12   40.86
  -1   9  20  435.70   49.42
   1   9  20  333.14   42.42
  -1   9 -20  320.93   41.16
   1  -9  20  402.88   47.38
  -1  -9 -20  303.50   46.34
  -3   9  20  244.21   40.21
   3   9  20  215.31   36.92
  -3   9  20  237.22   38.76
   3   9 -20  233.44   43.90
  -3   9 -20  208.16   38.78
  -3  -9  20  209.05   40.36
   3  -9 -20  215.59   45.79
   3  -9  20  298.23   48.64
  -3  -9 -20  246.27   52.97
   0  10 -20  315.22   41.21
   0 -10 -20  221.20   41.37
   0 -10  20  343.93   43.21
   0  10  20  297.89   40.66
  -2 -10 -20  182.35   44.89
  -2  10 -20  117.84   29.99
   2 -10  20  283.78   42.49
  -2  10  20  281.40   41.11
   2 -10 -20  204.64   43.60
  -2 -10  20  227.07   37.28
   2  10  20  287.99   38.09
   2  10 -20  345.03   48.74
  -1 -11  20   -3.17   16.39
   1 -11  20   17.89   17.67
   1  11 -20   24.44   19.62
  -1  11  20    4.35   15.82
   1  11  20    5.82   15.72
  -1 -11  20   16.01   16.63
   1 -11 -20   15.62   24.15
  -1  11 -20   27.27   20.29
  -1 -11 -20   20.45   22.15
   0 -12 -20   20.47   26.72
   0  12 -20   26.72   21.59
   0 -12  20   42.33   20.31
   0  12  20   23.76   16.40
  -2  12 -20   13.71   19.31
   2  12 -20   19.46   23.49
  -2 -12 -20   61.88   32.70
  -2 -12  20   57.54   26.79
   2 -12  20   24.98   21.14
  -2  12  20   47.64   25.42
   2  12  20   17.70   18.51
   2 -12 -20   37.84   26.57
  -1 -13 -20   56.94   30.93
  -1  13  20   57.85   25.42
   1  13  20   54.77   25.56
   1 -13  20   27.73   22.04
  -1 -13  20   76.42   27.40
  -1  13 -20   62.44   25.49
  -1 -13  20   60.38   24.55
   1  13 -20   23.93   21.81
   1 -13 -20   14.36   24.06
   0 -14 -20  240.23   49.07
   0  14  20  416.85   54.73
   0  14 -20  352.30   49.79
   0 -14  20  379.70   49.83
   0   0  21    1.04   11.02
   0   0 -21   -1.82   10.79
   0   0 -21   -0.70   11.81
   2   0 -21   -3.32   14.65
  -2   0  21   -5.51   10.40
   2   0  21   -9.84   10.02
   2   0  21   16.39   15.30
  -2   0 -21  -10.89   17.11
   4   0 -21   16.69   21.98
  -4   0  21    0.06   15.92
   4   0  21  -14.95   15.24
  -4   0 -21    3.51   21.69
  -1  -1 -21  351.20   43.50
  -1   1  21  382.46   41.43
   1  -1 -21  369.19   44.82
   1  -1  21  363.62   41.10
  -1  -1  21  373.49   39.17
  -1   1 -21  391.01   44.68
   1  -1 -21  403.77   39.38
   1   1  21  364.90   39.51
   1   1 -21  318.96   37.86
  -1   1 -21  339.27   38.02
   1   1 -21  463.12   47.86
   1   1  21  343.96   38.94
   3  -1  21  232.14   35.05
   3   1 -21  212.55   37.15
   3   1  21  222.35   38.29
  -3   1 -21  221.25   41.35
  -3  -1  21  252.83   37.28
  -3   1  21  286.94   39.39
   3   1  21  255.02   35.94
  -3  -1 -21  260.52   46.99
   3  -1 -21  278.03   44.57
   3  -1  21  199.48   36.10
   0  -2  21   62.28   18.19
   0  -2 -21   67.46   22.79
   0   2  21   34.15   16.04
   0   2 -21   51.73   17.37
   0   2 -21   67.87   19.49
   0  -2 -21   49.41   17.21
  -2   2 -21   15.95   17.97
   2   2 -21   24.55   19.15
  -2  -2  21   25.31   14.46
   2   2 -21   41.64   19.60
  -2  -2  21   50.72   18.47
   2  -2  21    6.37   13.18
   2   2  21   42.67   18.43
   2  -2  21   54.18   20.85
   2  -2 -21   43.98   21.33
  -2  -2 -21   66.94   27.18
  -2   2  21   15.38   13.87
   2   2  21   60.21   20.08
   4  -2  21   44.74   21.55
  -4  -2 -21    1.02   22.30
   4   2  21   31.94   23.01
  -4  -2  21   23.80   21.98
  -4   2  21   42.26   21.88
   4  -2 -21  -18.48   18.62
  -4   2 -21  -15.62   19.88
   1   3 -21   26.67   15.62
   1   3 -21   38.40   19.30
   1   3  21   -3.38   11.38
  -1   3 -21   35.95   18.38
  -1   3 -21   27.36   16.68
   1  -3  21   19.60   16.62
  -1  -3 -21   18.56   19.21
  -1   3  21   27.76   15.30
   1   3  21   35.16   16.79
   1  -3 -21    1.16   16.94
  -1  -3  21   15.22   12.69
  -3   3  21   35.29   18.83
   3  -3 -21   18.92   20.27
   3  -3  21   17.30   17.90
  -3  -3 -21   -7.01   19.56
  -3   3 -21   23.19   21.34
   3   3  21   27.78   19.04
   3  -3  21   34.64   19.77
  -3  -3  21   -7.19   14.88
   0   4  21   27.51   15.27
   0   4 -21   38.91   17.85
   0  -4 -21   -0.65   16.56
   0  -4  21   47.74   18.73
   0  -4 -21   26.11   15.27
  -2  -4 -21   25.16   23.37
  -2  -4  21   35.97   16.65
  -2  -4  21   38.93   16.94
   2   4 -21   19.35   17.90
   2  -4 -21   26.46   21.31
   2   4  21   53.83   20.25
  -2   4  21   59.71   19.59
   2   4  21   19.12   15.62
   2  -4  21   54.73   21.46
  -2   4 -21   27.16   17.32
   4  -4  21  -11.39   17.18
  -4  -4 -21   -6.06   25.24
   4  -4 -21    0.56   22.74
  -4  -4  21   -3.69   19.10
  -4   4  21   18.17   19.82
   4   4  21   33.69   21.96
  -1   5 -21   88.55   22.41
   1  -5  21   84.50   21.63
   1  -5 -21   53.76   25.05
  -1   5  21   55.05   20.60
   1   5 -21   51.84   20.95
   1   5  21   90.52   23.63
  -1  -5 -21   39.21   21.83
   1   5  21  101.83   22.51
  -1  -5  21   74.20   21.20
   3  -5  21   19.52   17.83
  -3   5  21   57.31   21.50
  -3   5  21   81.96   25.82
  -3  -5  21   21.19   22.27
   3  -5 -21   55.75   26.16
   3   5 -21   25.49   23.00
   3  -5  21   81.66   26.41
  -3  -5 -21   24.98   26.61
   3   5  21   34.36   21.04
   0  -6 -21  263.98   40.53
   0  -6  21  313.11   40.04
   0   6  21  361.94   44.01
   0   6 -21  355.04   40.83
   2   6  21  206.32   31.92
  -2  -6  21  301.48   37.16
  -2   6 -21  245.13   37.72
   2   6 -21  262.78   38.24
  -2   6  21  260.47   37.23
   2   6  21  277.99   37.43
   2  -6  21  283.48   40.69
   2  -6 -21  393.10   55.53
  -2  -6  21  309.14   39.79
  -2  -6 -21  202.26   45.23
  -1   7  21  211.80   32.90
   1   7  21  216.08   30.03
   1   7  21  172.89   30.43
  -1   7 -21  172.16   30.87
  -1  -7 -21  120.66   32.39
   1  -7  21  192.48   31.41
   1  -7 -21  136.25   33.35
  -1  -7  21  198.82   31.98
   1   7 -21  135.58   29.46
   3   7 -21  148.68   38.26
  -3  -7  21  115.53   30.10
   3  -7 -21  130.65   37.51
   3  -7  21  192.66   38.50
  -3   7 -21   96.46   30.97
   3   7  21   94.21   27.70
  -3  -7 -21  116.91   40.07
  -3   7  21  117.44   28.31
   0  -8  21   -6.63   13.06
   0   8  21    0.20   10.52
   0   8 -21  -15.33   14.62
   0  -8 -21  -10.19   17.04
   2   8  21    0.28   15.21
   2   8 -21  -20.25   18.14
   2  -8  21   22.15   19.00
  -2   8  21  -13.22   12.95
  -2  -8  21  -13.95   14.43
  -2   8 -21    2.39   17.09
   2  -8 -21   39.85   25.11
  -2  -8 -21   -5.91   26.40
   2   8  21   -4.78   12.01
   1  -9 -21  218.06   42.38
  -1  -9 -21  238.46   44.48
  -1   9 -21  252.36   38.03
  -1  -9  21  350.58   42.61
   1   9  21  269.12   37.40
   1  -9  21  413.91   47.15
   1   9 -21  244.14   36.24
  -1   9  21  369.08   47.49
   3   9  21  199.18   37.67
   3  -9 -21  206.34   44.50
  -3  -9  21  219.53   42.90
  -3   9 -21  221.53   41.07
  -3   9  21  223.81   38.83
   3   9 -21  264.12   48.41
   3  -9  21  288.57   48.07
  -3  -9 -21  163.80   47.04
   0 -10  21  152.08   30.99
   0  10 -21  134.33   29.37
   0 -10 -21   74.85   29.73
   0  10  21  132.42   30.22
  -2 -10 -21   80.16   32.08
   2 -10 -21   17.38   24.62
  -2  10 -21  117.65   30.50
  -2 -10  21  109.98   27.48
  -2  10  21  136.44   32.09
   2  10 -21  155.17   35.99
   2 -10  21  140.69   32.30
   2  10  21  146.17   30.65
  -1 -11 -21   19.68   26.37
   1  11  21   -3.42   12.55
  -1 -11  21   12.78   15.89
   1 -11  21   25.75   20.19
   1 -11 -21    1.85   21.06
   1  11 -21    9.11   17.59
  -1  11 -21    7.77   19.21
  -1  11  21    9.14   17.10
   0 -12  21   99.84   26.50
   0 -12 -21   79.03   34.49
   0  12 -21   62.57   26.76
   0  12  21   79.27   27.40
   2  12 -21   67.64   28.63
   2 -12  21   41.65   27.28
  -2  12 -21   56.90   26.70
   2 -12 -21   59.04   33.14
   2  12  21   66.16   26.26
  -2  12  21   71.06   28.04
  -2 -12  21   56.76   28.76
  -2 -12 -21   32.01   34.34
  -1  13  21   -9.03   16.37
  -1  13 -21   13.52   18.48
   1  13  21    3.40   16.65
  -1 -13  21   -9.96   16.99
  -1 -13 -21    0.78   24.56
   1 -13 -21   -0.81   23.21
   1  13 -21    6.61   21.02
   1 -13  21    5.54   21.79
   0 -14 -21  187.59   42.83
   0  14 -21  260.86   45.95
   0 -14  21  267.22   45.83
   0  14  21  281.85   43.05
   0   0 -22  875.38   53.69
   0   0  22  759.03   49.14
   0   0 -22  766.88   46.70
   2   0 -22  642.56   52.26
  -2   0  22  634.57   44.77
   2   0  22  666.88   47.41
   2   0  22  629.19   49.09
  -2   0 -22  449.58   53.17
   4   0  22  407.70   57.06
   4   0 -22  308.31   49.68
  -4   0  22  474.78   56.41
  -4   0 -22  410.49   61.22
   1   1  22   27.87   15.07
   1  -1 -22   48.48   22.88
  -1  -1  22   35.83   15.82
   1   1 -22   18.46   17.63
  -1   1  22   52.83   18.60
  -1  -1 -22   58.16   23.63
   1   1 -22   30.26   20.82
  -1   1 -22   75.51   24.21
   1  -1 -22   74.27   22.17
   1  -1  22   47.71   18.47
   1   1  22   24.32   14.38
  -1   1 -22   29.00   17.03
   3   1  22   23.18   16.52
   3   1 -22   47.86   24.55
  -3   1 -22   30.41   22.48
  -3   1  22   15.92   16.29
  -3  -1 -22   28.40   22.01
  -3  -1  22   25.37   18.35
   3  -1  22  -10.19   13.28
   3   1  22   22.05   19.77
   3  -1  22   33.16   19.69
   3  -1 -22   -0.97   17.14
   0  -2 -22  243.64   36.88
   0   2 -22  371.37   38.99
   0  -2 -22  345.43   36.24
   0   2 -22  296.89   36.41
   0  -2  22  226.34   31.95
   0   2  22  350.02   41.55
   2   2 -22  322.74   42.03
   2   2  22  271.14   37.58
  -2  -2 -22  322.48   50.34
  -2  -2  22  294.61   36.79
   2  -2 -22  219.62   40.29
   2  -2  22  280.81   38.23
   2   2  22  261.29   38.30
  -2   2  22  233.84   33.77
   2   2 -22  318.73   41.62
   2  -2  22  254.10   39.26
  -2   2 -22  220.28   37.22
  -4  -2 -22  164.61   43.59
  -4   2  22  108.55   31.73
   4  -2  22  113.86   30.36
  -4  -2  22  173.63   38.85
   4  -2 -22  115.71   34.23
  -4   2 -22  142.47   38.60
   4   2  22  200.62   42.52
   1  -3  22    1.03   12.86
   1   3  22   -7.13   12.20
  -1   3 -22    1.08   14.47
  -1  -3 -22    5.06   16.72
  -1   3  22  -14.26   10.38
   1   3 -22    1.97   14.42
  -1  -3  22   -1.37   11.09
  -1   3 -22   10.87   16.53
   1  -3 -22    4.12   15.00
   1   3  22   -4.85   10.49
   3  -3 -22  -12.00   16.91
   3  -3  22   10.52   15.46
  -3   3 -22   23.57   20.19
  -3  -3 -22   11.36   25.77
   3   3  22   -1.39   16.25
  -3  -3  22    4.63   16.27
   3  -3  22   34.26   19.77
   0  -4  22   98.37   25.23
   0   4  22   98.99   23.07
   0   4 -22   99.78   22.81
   0  -4 -22  106.63   22.01
   0  -4 -22   82.36   25.89
   2   4 -22   82.66   26.97
   2   4  22  109.04   24.24
   2  -4 -22   83.57   28.69
  -2  -4 -22   58.82   30.75
  -2  -4  22  159.62   28.98
   2   4  22   59.90   22.01
  -2   4  22  113.90   26.52
  -2   4 -22   66.61   23.83
   2  -4  22  108.85   26.49
   1  -5 -22   10.34   17.83
  -1   5 -22    5.86   14.70
   1   5  22  -12.35    9.14
   1   5 -22   13.74   16.71
   1  -5  22    8.65   14.62
  -1  -5  22   -7.46   11.55
   1   5  22    2.20   12.87
  -1  -5 -22  -15.39   16.32
  -1   5  22    4.32   14.31
  -3  -5  22    7.01   17.12
   3  -5 -22   30.71   25.01
   3   5  22    7.63   18.80
  -3  -5 -22  -16.75   20.92
  -3   5  22    5.96   15.43
   3   5 -22  -19.23   20.41
   3  -5  22   -0.72   16.00
   3  -5  22   -6.67   14.67
   0   6  22  101.00   23.80
   0   6 -22   94.94   24.08
   0  -6  22  129.28   26.99
   0  -6 -22  130.26   31.85
  -2   6  22  122.33   27.89
   2  -6  22  107.69   27.28
   2   6  22  111.88   26.24
  -2  -6  22  119.96   27.89
   2   6 -22   49.94   24.81
  -2  -6  22   98.06   23.61
  -2  -6 -22   75.40   33.30
   2  -6 -22   73.79   29.06
  -2   6 -22   65.12   25.08
   2   6  22  138.03   30.35
  -1   7  22    3.01   13.34
  -1  -7 -22   19.62   18.92
  -1   7 -22  -11.21   14.46
   1   7 -22    3.56   17.54
   1  -7  22   -0.97   14.61
   1  -7 -22   19.37   19.58
   1   7  22    9.90   14.10
  -1  -7  22    0.16   12.61
   3   7  22    7.25   18.63
  -3  -7 -22   -0.20   27.71
  -3   7  22    8.33   17.73
   3  -7  22   16.20   18.39
   3   7 -22  -10.56   22.11
  -3   7 -22   10.13   19.85
  -3  -7  22   15.47   19.43
   3  -7 -22   -5.54   20.79
   0  -8 -22  246.70   44.90
   0   8  22  207.74   35.30
   0  -8  22  265.30   39.89
   0   8 -22  179.89   33.80
   2  -8 -22  129.15   35.32
  -2   8  22  221.47   36.13
   2   8  22  200.81   34.26
  -2  -8 -22  139.30   40.58
   2  -8  22  195.34   35.82
  -2  -8  22  192.60   36.25
  -2   8 -22  208.09   37.16
   2   8  22  193.72   35.02
   2   8 -22  257.08   41.88
   1  -9 -22   12.23   24.74
   1  -9  22   23.69   18.88
  -1  -9 -22   29.20   22.60
   1   9  22    8.48   17.30
  -1   9  22   11.58   16.01
  -1   9 -22    1.77   14.78
  -1  -9  22    6.28   16.48
   1   9 -22   -0.81   14.68
   3   9  22   36.81   24.00
   3  -9 -22   10.75   25.92
  -3  -9 -22    1.99   29.57
   3   9 -22   25.84   28.56
  -3   9  22   10.96   19.25
   3  -9  22   34.17   22.28
  -3  -9  22   -7.16   19.91
  -3   9 -22   21.39   23.42
   0  10 -22   40.14   22.24
   0 -10  22   43.60   21.45
   0  10  22   20.63   16.32
   0 -10 -22   11.23   24.59
  -2  10 -22   47.00   25.10
   2 -10 -22   14.21   25.27
  -2 -10  22   30.85   22.25
  -2  10  22   20.61   21.79
   2 -10  22   34.54   23.60
   2  10  22   46.08   22.96
   2  10 -22   56.94   29.44
  -2 -10 -22   84.52   36.60
  -1  11 -22   73.22   28.03
   1  11 -22   17.67   20.95
   1 -11  22   29.71   22.61
  -1  11  22   60.13   25.08
  -1 -11  22   28.83   20.55
  -1 -11 -22   32.08   24.63
   1 -11 -22   22.08   26.11
   1  11  22   65.60   24.43
   0 -12 -22   25.63   25.13
   0  12 -22   21.33   22.12
   0  12  22   67.30   25.18
   0 -12  22   56.95   25.36
  -1 -13  22   95.68   29.92
   1  13 -22   68.06   29.32
  -1  13  22   67.15   26.86
   1  13  22   34.06   21.40
   1 -13  22   40.74   26.32
  -1  13 -22   15.10   20.07
  -1 -13 -22   57.22   32.17
   1 -13 -22   36.39   30.86
   0   0 -23   14.57   18.62
   0   0  23    9.84   13.88
   0   0 -23   13.08   14.83
  -2   0  23    1.48   12.75
   2   0  23   -5.39   12.63
   2   0  23    8.30   15.25
   2   0 -23    1.02   19.40
  -2   0 -23   -9.93   19.42
   1   1  23  186.45   30.02
   1   1  23  327.91   42.64
   1  -1 -23  273.07   41.10
  -1   1  23  300.09   38.64
   1  -1  23  316.29   40.86
  -1  -1  23  327.89   39.24
  -1   1 -23  308.30   37.75
   1  -1 -23  355.08   40.03
  -1   1 -23  268.91   37.92
  -1  -1 -23  252.20   39.77
   1   1 -23  296.82   39.40
   1   1 -23  303.70   38.05
   3  -1 -23  238.18   43.09
   3   1  23  215.74   38.69
  -3   1 -23  182.71   41.11
   3  -1  23  223.95   37.25
   3  -1  23  137.57   31.78
  -3  -1 -23  258.54   50.44
   3   1  23  232.13   38.60
   3   1 -23  213.44   41.11
   0   2 -23    2.80   15.40
   0  -2 -23    4.33   14.64
   0  -2 -23   21.26   16.42
   0   2 -23    8.07   13.82
   0  -2  23   19.55   15.73
   0   2  23   16.18   15.85
   2   2 -23   34.89   23.25
  -2   2 -23   33.79   24.13
   2   2  23   -2.46   14.21
  -2  -2 -23   -5.18   20.94
   2   2  23   35.10   18.85
  -2   2  23   17.43   15.01
   2   2 -23   -8.34   19.04
  -2  -2  23   16.19   14.79
   2  -2 -23   30.63   20.82
   2  -2  23    8.23   15.70
   2  -2  23    7.28   14.56
   1  -3 -23  170.04   33.97
  -1   3  23   92.82   24.24
   1  -3  23  148.75   29.66
   1   3  23  115.63   24.95
  -1  -3 -23  191.02   38.79
  -1   3 -23  146.54   30.01
  -1  -3  23  185.53   31.00
   1   3  23  186.26   33.73
   1   3 -23  114.65   26.47
   3   3  23  109.28   29.55
   3  -3 -23   86.68   30.43
   3  -3  23   96.59   27.03
  -3  -3  23   93.60   27.49
   3  -3  23   93.53   23.97
  -3  -3 -23  108.16   36.88
   0  -4 -23   -0.02   16.15
   0   4 -23   -3.14   12.99
   0  -4  23   -4.71   14.27
   0   4  23  -12.06    9.54
   2  -4 -23   20.06   21.03
  -2   4 -23    5.82   15.24
  -2  -4  23   -8.66   11.56
   2   4 -23  -45.74   14.76
  -2   4  23    9.86   15.87
   2   4  23    8.09   16.37
   2  -4  23   -9.18   13.85
   2   4  23   -2.25   12.83
  -2  -4 -23   35.59   29.14
   1   5  23   29.04   16.99
  -1  -5 -23   47.03   25.26
  -1  -5  23   14.60   15.50
   1   5 -23   52.76   21.75
   1  -5 -23   44.90   24.13
  -1   5 -23   11.14   15.40
  -1   5  23    4.61   12.82
   1   5  23   43.43   20.83
   1  -5  23   58.03   20.84
  -3   5 -23   22.71   23.58
  -3  -5 -23   -9.09   23.89
   3  -5  23   20.09   19.63
  -3   5  23   20.37   19.93
   3   5  23   36.87   22.86
   3  -5 -23   26.68   24.26
   3   5 -23   33.14   27.14
  -3  -5  23   50.24   24.01
   0  -6 -23   53.59   25.17
   0   6  23   68.68   21.19
   0   6 -23   44.78   20.72
   0  -6  23   60.19   22.27
   2   6 -23   37.50   23.54
  -2   6 -23   -6.26   14.60
   2   6  23  109.40   27.25
   2  -6 -23    6.99   20.83
  -2  -6 -23   15.49   24.88
   2   6  23   48.92   21.67
  -2  -6  23   50.04   20.87
   2  -6  23   10.40   16.82
  -2   6  23   49.67   22.02
   1   7  23  148.19   33.09
  -1  -7  23  198.59   34.83
  -1   7  23  155.84   32.48
  -1  -7 -23  154.78   36.83
   1   7 -23  159.11   31.55
  -1   7 -23  124.23   28.26
   1  -7  23  161.55   33.99
   1  -7 -23  106.09   34.89
  -3  -7 -23  103.88   43.82
   3   7  23  158.81   34.68
  -3  -7  23   98.36   30.72
   3  -7  23   70.65   27.97
  -3   7 -23  135.09   34.43
   3   7 -23   76.90   34.67
  -3   7  23   98.66   29.41
   3  -7 -23   49.27   29.87
   0   8  23  238.83   38.75
   0  -8 -23  217.79   44.90
   0   8 -23  252.38   39.06
   0  -8  23  234.00   37.29
   2   8  23  205.80   38.03
   2   8 -23  128.44   35.11
   2  -8 -23  105.33   34.63
  -2   8  23  155.00   32.05
  -2   8 -23  195.41   36.24
   2  -8  23  201.86   36.57
  -2  -8 -23  137.28   42.85
   2   8  23  158.47   32.28
  -1   9  23  480.83   54.01
   1  -9  23  463.16   53.89
  -1   9 -23  402.04   48.47
   1  -9 -23  365.41   55.75
   1   9  23  390.17   48.37
   1   9 -23  302.05   42.12
  -1  -9  23  419.10   49.08
  -1  -9 -23  353.19   53.36
   0 -10 -23   56.99   29.74
   0  10 -23   62.64   25.65
   0  10  23   42.08   20.73
   0 -10  23   29.23   19.89
  -2  10  23   70.03   28.58
   2 -10 -23   40.83   31.10
  -2 -10 -23    9.28   24.78
   2 -10  23   30.46   22.82
   2  10 -23   48.69   29.60
   2  10  23   78.58   26.27
  -2  10 -23   15.44   21.70
   1 -11  23   30.70   23.29
  -1  11  23   24.36   22.89
  -1 -11 -23   39.39   28.68
   1 -11 -23  -12.18   21.54
  -1  11 -23   11.26   22.31
  -1 -11  23   11.27   18.56
   1  11  23   17.74   18.25
   1  11 -23   31.92   22.57
   0 -12 -23   34.41   25.34
   0  12 -23   68.10   28.07
   0 -12  23  107.23   29.93
   0  12  23   40.68   22.40
   0   0  24  598.55   47.21
   0   0 -24  682.85   47.28
   0   0 -24  781.61   55.07
  -2   0  24  633.37   47.65
   2   0  24  568.82   47.50
   2   0  24  610.41   59.63
  -2   0 -24  506.16   64.35
   2   0 -24  624.47   54.61
  -1   1  24    5.87   14.50
  -1  -1 -24   41.91   19.29
  -1   1 -24   10.95   15.98
  -1   1 -24   53.00   23.12
   1  -1 -24   10.40   19.43
   1   1 -24   41.14   19.44
   1   1  24   52.02   20.85
  -1  -1 -24   41.83   22.71
   1   1 -24   86.65   25.16
  -1  -1  24   47.24   19.41
   1  -1  24   16.77   16.12
  -3   1 -24   56.45   29.24
   3   1  24   79.14   26.50
   3  -1  24   27.85   20.37
  -3  -1 -24   28.79   27.32
   3  -1 -24   53.99   26.01
   3   1  24   43.52   22.90
   3  -1  24    0.89   18.74
   3   1 -24   74.60   29.74
   0   2 -24  192.49   33.65
   0   2 -24  236.37   33.89
   0  -2 -24  230.61   32.40
   0   2  24  208.49   33.45
   0  -2 -24  220.74   38.04
   0  -2  24  196.08   34.25
  -2   2 -24  153.80   35.53
  -2  -2 -24  174.18   45.88
   2  -2  24  186.68   35.10
   2  -2  24  200.55   37.71
  -2   2  24  145.54   29.11
   2  -2 -24  143.91   34.38
   2   2  24  179.78   33.22
   2   2 -24  126.54   32.76
   2   2  24  214.16   36.67
  -2  -2  24  190.07   31.48
  -1  -3 -24  450.32   54.17
   1   3  24  624.33   48.84
   1  -3 -24  569.39   61.35
   1   3  24  611.82   47.01
   1  -3  24  644.11   51.58
   1   3 -24  698.61   52.30
  -1   3  24  593.01   48.55
  -1   3 -24  591.18   48.63
  -1  -3  24  739.90   50.52
   3  -3  24  350.71   48.73
  -3  -3 -24  398.19   61.41
   3   3  24  374.75   49.36
   3  -3  24  410.80   52.38
   3  -3 -24  485.52   64.50
   0   4 -24  410.94   44.12
   0   4  24  421.90   47.58
   0  -4 -24  338.39   47.16
   0  -4  24  419.51   47.01
  -2  -4  24  415.34   44.92
  -2   4 -24  298.11   42.70
   2  -4 -24  282.04   47.16
   2  -4  24  377.08   47.34
   2   4  24  311.51   40.67
   2   4  24  334.57   43.22
  -2  -4 -24  239.28   47.11
   2   4 -24  327.71   48.13
  -2   4  24  444.72   50.23
   1   5  24   37.38   18.23
  -1  -5 -24   55.66   26.30
   1   5  24   92.15   25.34
  -1   5 -24   63.83   23.42
  -1   5  24   41.63   20.64
   1   5 -24   59.09   22.07
   1  -5 -24   65.04   28.87
   1  -5  24   42.49   19.92
  -1  -5  24   83.17   23.87
   3  -5 -24    7.12   23.32
   3   5 -24    8.18   28.00
   3   5  24   10.11   19.90
   3  -5  24   51.59   25.79
  -3  -5 -24   39.60   30.75
  -3   5 -24   36.64   23.40
   0   6 -24   64.28   23.35
   0   6  24  134.89   30.04
   0  -6  24   81.77   25.00
   0  -6 -24   80.28   27.79
  -2   6  24   73.30   26.15
   2  -6  24    9.13   16.96
   2  -6 -24   62.50   30.43
  -2   6 -24   30.75   21.38
   2   6 -24  102.03   32.20
  -2  -6  24  101.47   25.17
  -2  -6 -24  107.54   39.68
   2   6  24  100.98   27.07
   2   6  24   82.12   26.33
   1  -7 -24   21.84   23.29
  -1  -7  24   50.73   20.88
  -1   7 -24   21.18   18.26
   1   7  24   -1.02   14.00
   1   7 -24   -0.61   17.22
   1  -7  24    0.94   15.09
  -1   7  24   32.88   21.35
  -1  -7 -24   48.31   26.52
   0   8 -24  220.46   38.02
   0   8  24  280.86   41.60
   0  -8 -24  169.06   38.37
   0  -8  24  173.28   32.57
   2   8  24  180.74   34.27
   2  -8 -24  179.39   44.78
   2  -8  24  216.64   40.44
  -2  -8 -24  229.37   53.07
   2   8 -24  249.97   49.04
  -2   8  24  311.83   46.59
  -2   8 -24  246.84   42.68
   1   9  24   24.18   18.29
   1   9 -24   -5.81   17.02
  -1   9 -24   16.42   20.74
   1  -9  24   -3.12   17.17
  -1   9  24   -7.25   17.45
  -1  -9  24   31.35   19.96
   1  -9 -24   22.16   26.59
  -1  -9 -24   63.47   29.36
   0  10 -24  121.05   30.61
   0 -10 -24   83.11   33.87
   0  10  24  130.91   32.32
   0 -10  24  135.85   32.46
   2 -10  24   90.88   30.68
   2 -10 -24   43.76   29.93
   2  10  24   78.64   30.45
  -2 -10 -24   58.52   32.25
  -2  10  24   93.92   29.67
   2  10 -24  108.01   34.32
  -2  10 -24   78.27   30.51
   1  11 -24  320.01   48.36
   1 -11  24  458.55   57.66
   1  11  24  447.63   54.96
  -1 -11 -24  433.20   61.62
  -1 -11  24  441.82   53.89
  -1  11  24  426.40   53.44
  -1  11 -24  330.58   50.23
   1 -11 -24  270.82   51.48
   0 -12  24  518.93   60.19
   0  12  24  466.81   57.24
   0  12 -24  468.36   58.16
   0 -12 -24  394.98   61.09
   0   0 -25  -15.47   15.92
   0   0 -25   -3.67   15.90
   0   0  25    1.29   13.61
  -2   0  25    2.00   12.96
   2   0 -25  -14.43   16.02
   2   0  25    7.76   17.07
   2   0  25   -6.92   17.14
  -2   0 -25  -12.15   23.30
   1   1  25   95.85   28.20
  -1  -1 -25   90.31   24.86
  -1  -1  25   60.62   21.97
   1  -1  25   86.16   24.28
   1   1 -25  107.80   27.40
   1  -1 -25   93.11   28.81
  -1  -1 -25   88.25   27.49
   1   1 -25   90.63   25.16
  -1   1 -25  153.57   30.10
  -1   1 -25   95.76   27.00
  -1   1  25   90.60   25.90
  -3   1 -25   67.72   35.14
   3  -1  25   50.78   24.96
   3   1  25   77.58   26.25
   3  -1  25  103.85   30.99
  -3  -1 -25   63.70   35.03
   3   1  25   66.29   24.20
   3  -1 -25   32.92   25.32
   0  -2  25  100.98   25.62
   0   2  25  110.34   27.03
   0  -2 -25   73.26   26.20
   0   2 -25   68.78   23.44
   0  -2 -25   54.91   20.51
   2  -2  25   48.45   23.49
   2   2  25   76.92   25.20
   2   2  25   50.48   21.02
  -2  -2 -25   15.82   25.54
  -2   2  25   73.91   23.71
  -2   2 -25  102.05   28.54
   2  -2 -25   45.37   25.71
  -2  -2  25   66.99   22.81
  -1   3 -25   46.66   20.48
  -1   3  25   37.87   18.79
  -1  -3 -25   68.48   26.79
   1   3 -25   26.25   19.80
   1  -3 -25   90.84   30.85
   1   3  25   31.30   20.06
  -1  -3  25   61.73   21.97
   1   3  25   48.82   21.34
   1  -3  25   32.61   19.43
   3  -3  25   47.72   23.04
   3   3  25   32.34   21.69
   3  -3  25   42.94   22.11
   3  -3 -25   96.11   31.40
  -3  -3 -25    8.18   25.12
   0  -4 -25    8.52   18.34
   0   4  25   45.06   21.92
   0   4 -25   15.49   18.30
   0  -4  25    7.41   14.29
  -2  -4 -25   -2.24   22.74
  -2   4  25   -0.93   15.40
  -2  -4  25   16.40   15.64
  -2   4 -25    9.25   16.80
   2  -4  25   23.07   18.04
   2  -4 -25    6.61   22.09
   2   4  25    7.79   15.40
   2   4 -25   25.13   26.51
   2   4  25   26.27   21.12
  -1  -5 -25  413.74   54.38
  -1   5 -25  323.97   42.48
   1   5 -25  328.82   45.25
   1  -5  25  402.56   49.19
   1  -5 -25  332.53   51.44
   1   5  25  437.75   51.48
  -1   5  25  421.38   50.93
  -1  -5  25  311.11   42.09
   1   5  25  405.36   43.77
   3   5  25  250.83   45.16
  -3  -5 -25  178.96   50.10
  -3   5 -25  212.83   40.51
   3  -5 -25  234.79   49.74
   3  -5  25  308.97   48.48
   0   6  25    4.24   14.47
   0   6 -25   25.31   20.11
   0  -6  25   -5.68   14.45
   0  -6 -25   -0.21   20.66
  -2   6  25  -15.55   13.61
   2   6  25   31.80   21.38
   2   6  25  -15.39   14.08
  -2   6 -25   24.37   21.83
   2  -6 -25   24.82   27.24
   2   6 -25   21.29   24.70
   2  -6  25    8.02   16.89
  -2  -6  25    4.58   15.51
  -2  -6 -25   -8.76   25.27
  -1  -7  25  -10.75   14.00
   1  -7  25    1.31   17.45
   1   7 -25    4.03   18.62
  -1  -7 -25  -19.81   18.16
   1  -7 -25   10.89   23.85
  -1   7  25   -9.34   16.29
  -1   7 -25  -16.29   16.25
   1   7  25   11.24   17.34
   0   8  25   25.97   20.69
   0  -8 -25   34.18   26.91
   0  -8  25   -3.83   16.30
   0   8 -25   29.47   19.24
   2  -8 -25    0.98   23.97
  -2   8  25   -0.37   18.14
   2   8  25    6.12   17.53
   2   8 -25  -34.03   21.67
  -2  -8 -25   -2.68   28.27
  -2   8 -25   -5.54   17.85
   2  -8  25    0.82   17.15
   1   9  25  117.25   32.12
  -1   9 -25   81.03   27.91
   1  -9  25  170.36   36.56
  -1  -9  25  184.34   36.60
   1  -9 -25  109.80   38.62
  -1  -9 -25  101.90   34.00
   1   9 -25  111.95   33.01
  -1   9  25  167.87   35.70
   0 -10 -25  142.53   40.34
   0  10  25  223.00   42.65
   0 -10  25  142.27   32.50
   0  10 -25  132.87   33.44
   0   0 -26   18.20   20.30
   0   0  26   -3.45   13.78
   0   0 -26   -4.10   17.04
  -2   0  26   -7.11   14.97
   2   0  26   -2.38   14.23
  -2   0 -26  -10.17   22.75
   2   0 -26    2.53   20.28
   2   0  26   21.46   20.37
  -1   1  26  208.83   36.26
  -1   1 -26  154.69   32.07
   1  -1  26  175.74   32.50
  -1  -1  26  161.63   33.01
   1  -1 -26  225.82   40.64
  -1   1 -26  259.04   38.95
   1   1 -26  184.94   33.52
  -1  -1 -26  193.99   38.03
  -1  -1 -26  274.13   38.39
   1   1  26  315.52   44.65
   3   1  26  230.88   45.34
   3  -1 -26  133.80   37.60
   3  -1  26  134.49   33.89
  -3  -1 -26  144.72   46.60
   3  -1  26  140.80   34.58
  -3   1 -26  178.10   46.32
   3   1  26  162.64   38.19
   0  -2 -26    2.31   15.65
   0   2  26   21.65   17.59
   0  -2  26  -12.77   12.88
   0   2 -26   -9.39   17.90
   0  -2 -26   18.16   20.01
  -2  -2  26    5.57   15.92
   2  -2  26   22.64   21.54
   2  -2 -26    6.65   24.06
  -2   2  26   17.07   16.77
  -2  -2 -26    7.49   24.55
  -2   2 -26  -23.74   14.91
   2   2  26    4.24   16.91
   2   2  26   22.01   20.89
   1  -3 -26   12.48   21.32
  -1  -3 -26   23.33   21.84
   1   3  26    7.11   14.73
  -1   3  26    6.19   16.49
   1  -3  26   32.39   20.07
  -1  -3 -26   26.18   19.40
   1   3 -26   27.99   21.35
  -1   3 -26   15.08   17.76
  -1  -3  26   36.66   19.31
   0   4 -26   -6.68   16.01
   0  -4  26   10.25   15.37
   0  -4 -26    5.32   21.02
   0   4  26   10.63   16.71
  -2  -4 -26  -13.32   23.96
   2   4 -26   -1.27   24.88
   2   4  26    9.30   17.90
  -2   4 -26    7.19   18.38
  -2  -4  26   -1.09   14.59
   2  -4 -26   -3.45   17.12
   2   4  26   20.09   20.48
  -2   4  26   17.65   18.72
   2  -4  26   18.48   17.34
   1   5  26  132.44   31.86
   1  -5  26  137.65   33.31
   1  -5 -26  123.96   36.61
  -1  -5  26  172.72   33.36
   1   5 -26  140.17   31.52
  -1   5 -26  143.58   30.41
  -1  -5 -26  142.05   38.70
  -1   5  26  199.71   37.51
   0  -6  26   23.25   20.49
   0   6  26   66.03   23.87
   0   6 -26   92.01   27.70
   0  -6 -26   63.29   30.11
   2  -6 -26   -3.75   23.58
   2   6  26   41.45   19.82
  -2  -6 -26  101.63   43.17
   2   6 -26   79.40   31.16
  -2   6 -26   87.27   27.44
   2  -6  26   60.04   26.27
  -2   6  26  102.27   30.10
   2   6  26   34.54   22.62
  -1  -7  26  387.74   49.16
  -1   7 -26  365.43   48.61
   1   7 -26  286.01   42.73
   1  -7  26  335.09   48.84
   1  -7 -26  215.97   44.51
  -1   7  26  366.83   49.61
  -1  -7 -26  259.60   49.14
   1   7  26  358.44   46.73
   0   8 -26   40.79   22.73
   0  -8  26   53.26   24.70
   0  -8 -26   84.55   34.49
   0   8  26   62.76   25.28
   2  -8  26   44.85   25.40
   2   8 -26  120.90   36.55
   2  -8 -26   34.09   32.28
   2   8  26   58.98   25.52
  -2  -8 -26   66.50   35.34
  -2   8  26   52.12   27.34
  -2   8 -26   20.87   22.74
  -1  -9 -26   72.08   33.49
   1   9 -26   51.05   26.00
   1  -9  26   82.36   30.22
  -1  -9  26   67.02   26.41
   1   9  26   26.44   21.04
  -1   9 -26   51.50   26.01
   1  -9 -26   56.94   33.57
  -1   9  26  115.56   34.56
   0  10  26   34.86   24.72
   0  10 -26   -0.23   19.52
   0 -10  26   14.15   19.30
   0 -10 -26   51.24   30.95
   0   0 -27   -4.63   16.75
   0   0  27  -17.69   12.48
   0   0 -27  -16.24   15.46
  -2   0  27  -15.71   13.74
   2   0  27   -5.28   14.70
   2   0  27   -4.19   19.43
  -2   0 -27   24.16   27.69
   2   0 -27   11.15   23.01
  -1  -1 -27   -6.99   16.77
  -1   1  27   -5.70   12.69
  -1   1 -27  -11.69   17.52
   1   1  27   14.15   17.29
  -1  -1  27    0.35   16.25
   1  -1 -27    2.06   20.41
  -1  -1 -27   10.53   17.53
   1  -1  27    1.01   15.50
   1   1 -27   -2.75   18.11
   0  -2 -27    4.18   18.88
   0  -2  27   20.02   18.47
   0   2  27   12.17   17.94
   0   2 -27    8.68   19.32
  -2   2 -27   -4.72   18.77
  -2  -2  27    3.90   16.41
   2  -2 -27   -3.03   23.66
  -2  -2 -27   26.82   27.44
   2  -2  27    7.94   17.79
  -2   2  27   45.66   23.25
   2   2  27   22.01   18.43
   2   2  27   24.52   20.33
  -1   3 -27  386.52   46.28
   1  -3  27  513.10   57.49
  -1  -3  27  474.66   51.91
  -1  -3 -27  461.79   51.00
   1  -3 -27  333.85   49.02
   1   3 -27  382.17   45.58
  -1   3  27  414.14   50.43
   1   3  27  461.23   52.62
  -1  -3 -27  279.00   45.70
   0   4 -27   52.12   22.29
   0  -4  27   25.67   19.05
   0   4  27   25.47   19.46
   0  -4 -27    5.48   20.11
   2   4 -27   -1.73   26.99
   2   4  27   19.23   21.64
  -2  -4 -27   26.96   30.54
  -2   4 -27  -24.41   18.73
   2   4  27   22.59   21.23
  -2   4  27   14.31   19.64
   2  -4  27   17.62   18.57
  -2  -4  27   -0.79   16.48
   2  -4 -27   49.67   28.32
   1  -5  27  444.45   54.51
   1   5  27  326.86   45.32
  -1  -5 -27  228.10   45.33
  -1   5 -27  257.47   39.85
   1  -5 -27  299.61   52.10
   1   5 -27  352.24   49.78
  -1  -5  27  346.14   46.41
  -1   5  27  422.62   52.40
   0  -6  27   15.87   20.74
   0   6  27   36.71   19.74
   0   6 -27   31.39   21.52
   0  -6 -27   15.32   24.22
   2  -6 -27   49.15   27.38
  -2   6  27   48.60   25.32
   2   6  27   56.49   27.14
  -2   6 -27   17.99   20.86
   2   6 -27   17.04   26.01
  -2  -6 -27   17.98   28.09
   2   6  27   32.26   20.16
   2  -6  27   30.61   24.69
   1   7  27  140.50   33.53
  -1   7  27  115.14   32.57
   1   7 -27  137.19   32.12
   1  -7  27  111.56   29.93
   1  -7 -27   54.85   31.30
  -1  -7  27  104.96   29.87
  -1  -7 -27  125.23   39.40
  -1   7 -27  123.16   31.79
   0   8  27   14.00   20.75
   0  -8 -27   -0.97   23.82
   0  -8  27   17.72   22.44
   0   8 -27   23.09   20.92
   0   0 -28   21.08   21.88
   0   0  28   39.97   23.16
   0   0 -28   33.82   21.75
   2   0  28   32.67   21.97
  -2   0  28   54.80   23.98
  -2   0 -28   18.67   23.50
  -2   0 -28   48.76   29.16
   1  -1 -28   14.37   19.11
   1   1  28  -15.74   14.40
  -1   1 -28   -5.51   18.26
  -1  -1 -28   20.31   21.69
   1  -1  28   -5.29   15.17
  -1   1  28    4.03   16.82
  -1  -1  28  -13.59   14.28
  -1  -1 -28   -4.44   19.57
   0   2  28  874.56   62.63
   0   2 -28  681.65   55.25
   0  -2 -28  774.44   64.14
   0  -2  28  866.07   62.39
  -2  -2  28  636.28   60.18
   2   2  28  555.91   60.98
  -2   2  28  790.21   60.05
   2  -2 -28  436.59   61.37
   2  -2  28  705.47   59.52
  -2   2 -28  563.17   60.28
   2   2  28  750.84   59.76
  -2  -2 -28  673.30   76.71
  -1  -3  28   28.36   17.47
   1  -3 -28   30.33   23.66
  -1   3 -28   14.35   18.15
  -1  -3 -28   24.17   22.01
  -1   3  28   26.24   22.17
   1   3  28   -1.86   15.09
  -1  -3 -28   44.75   24.64
   1  -3  28    7.14   17.18
   1   3 -28   23.25   22.06
   0  -4 -28   29.36   22.98
   0   4 -28    1.79   18.33
   0  -4  28   20.14   22.05
   0   4  28   26.48   20.10
  -2   4 -28  -15.12   17.56
   2   4  28    8.24   19.67
  -2  -4  28   -3.44   17.12
   2  -4 -28  -10.87   21.18
   2  -4  28   29.67   21.53
   2   4  28   -4.86   19.82
  -2  -4 -28   -6.25   23.81
  -2   4  28   12.98   20.40
   1  -5 -28   43.03   27.94
   1   5 -28   20.99   24.61
  -1   5 -28   49.49   22.41
   1  -5  28   45.39   22.14
   1   5  28  113.70   33.63
  -1   5  28   93.42   30.64
  -1  -5  28   67.86   25.39
  -1  -5 -28   54.30   27.63
   0   6 -28  504.03   56.65
   0   6  28  715.28   70.51
   0  -6  28  690.09   67.66
  -1   7  28   -7.77   20.73
   1   7  28   21.38   22.91
  -1   7 -28   -1.11   19.05
   1   7 -28   23.23   23.95
   1  -7 -28   15.18   24.85
  -1  -7 -28   30.62   25.88
  -1  -7  28   49.32   23.36
   1  -7  28   24.88   21.41
   0  -8 -28   57.96   33.47
   0  -8  28   72.30   29.18
   0   8  28   42.30   25.56
   0   8 -28   57.28   23.91
   0   0 -29    4.73   20.61
   0   0  29    6.71   18.99
   1  -1 -29  121.44   34.04
  -1  -1 -29  120.76   32.64
  -1   1  29  167.28   36.52
  -1   1 -29  121.32   30.08
   1   1  29  150.05   35.68
  -1  -1  29   86.46   28.16
   1  -1  29  173.54   37.15
  -1  -1 -29   57.27   25.43
   0   2 -29   31.59   21.67
   0  -2 -29   13.15   21.25
   0  -2  29   -8.13   15.44
   0   2  29    8.05   19.31
   1   3 -29   21.03   23.65
   1   3  29   61.36   25.40
  -1  -3  29   46.22   22.57
  -1  -3 -29   41.36   24.75
   1  -3  29    8.86   21.53
  -1   3  29   -0.75   20.33
  -1  -3 -29   -1.17   22.44
   1  -3 -29   16.86   21.36
  -1   3 -29   28.65   24.32
   0   4  29   18.42   21.46
   0  -4 -29  -14.63   18.55
   0   4 -29   20.23   22.96
   0  -4  29  -10.85   19.14
   1  -5  29  108.10   33.18
  -1  -5  29   68.28   25.99
   1   5 -29   97.56   33.04
   1   5  29  117.21   32.33
  -1  -5 -29  101.92   36.95
   1  -5 -29   95.37   36.07
  -1   5 -29  147.18   35.23
  -1   5  29   73.47   28.33
   0  -6 -29  103.96   34.36
   0  -6  29  158.50   37.72
   0   6  29  202.54   39.21
   0   6 -29  176.84   38.37
   0   0 -30  229.94   39.20
   0   0  30  315.12   48.43
  -1   1  30  173.05   36.92
   1   1  30  194.48   40.09
   1  -1 -30   83.67   35.07
  -1  -1 -30  115.88   31.47
   1  -1  30  168.87   38.14
  -1   1 -30   90.11   28.23
  -1  -1 -30   72.79   30.28
  -1  -1  30  178.98   36.70
   0  -2  30  111.52   32.54
   0   2  30  120.92   33.20
   0  -2 -30   54.21   27.35
   0   2 -30   72.42   27.85
   1   3  30    4.55   16.94
  -1  -3 -30   32.24   24.77
   1  -3 -30    9.71   22.87
  -1   3 -30   -6.35   21.14
  -1   3  30    1.61   19.29
   0   4  30   14.95   21.98
   0  -4 -30   16.67   22.31
   0  -4  30   36.58   25.20
   0   4 -30   53.76   25.67
   0   0   0    0.00    0.00
;
_shelx_hkl_checksum              9819
loop_
_space_group_symop_operation_xyz
'x, y, z'
'-x, -y, z+1/2'
'-x, y, -z+1/2'
'x, -y, -z'
'x+1/2, y+1/2, z'
'-x+1/2, -y+1/2, z+1/2'
'-x+1/2, y+1/2, -z+1/2'
'x+1/2, -y+1/2, -z'
'-x, -y, -z'
'x, y, -z-1/2'
'x, -y, z-1/2'
'-x, y, z'
'-x+1/2, -y+1/2, -z'
'x+1/2, y+1/2, -z-1/2'
'x+1/2, -y+1/2, z-1/2'
'-x+1/2, y+1/2, z'
loop_
_atom_site_label
_atom_site_type_symbol
_atom_site_fract_x
_atom_site_fract_y
_atom_site_fract_z
_atom_site_U_iso_or_equiv
_atom_site_adp_type
_atom_site_occupancy
_atom_site_site_symmetry_order
_atom_site_calc_flag
_atom_site_refinement_flags_posn
_atom_site_refinement_flags_adp
_atom_site_refinement_flags_occupancy
La1 La 0.0000 0.24176(4) 0.62448(2) 0.00553(12) Uani 1 2 d S T P
La2 La 0.0000 0.50715(5) 0.2500 0.00488(15) Uani 1 4 d S T P
Zn1 Zn 0.0000 0.01805(7) 0.11029(5) 0.0073(2) Uani 1 2 d S T P
Zn2 Zn 0.0000 0.36519(7) 0.01400(5) 0.0091(2) Uani 1 2 d S T P
P1 P 0.0000 0.14358(16) 0.19845(10) 0.0062(4) Uani 1 2 d S T P
P2 P 0.0000 0.15569(17) 0.04140(10) 0.0065(4) Uani 1 2 d S T P
P3 P 0.0000 0.42147(16) 0.11741(10) 0.0057(4) Uani 1 2 d S T P
Cl1 Cl 0.0000 0.8505(2) 0.2500 0.0069(5) Uani 1 4 d S T P
loop_
_atom_site_aniso_label
_atom_site_aniso_U_11
_atom_site_aniso_U_22
_atom_site_aniso_U_33
_atom_site_aniso_U_23
_atom_site_aniso_U_13
_atom_site_aniso_U_12
La1 0.0026(2) 0.0070(2) 0.0069(2) 0.00018(17) 0.000 0.000
La2 0.0017(3) 0.0064(3) 0.0066(3) 0.000 0.000 0.000
Zn1 0.0044(4) 0.0077(5) 0.0097(5) 0.0010(4) 0.000 0.000
Zn2 0.0049(5) 0.0151(5) 0.0074(5) -0.0025(4) 0.000 0.000
P1 0.0047(9) 0.0076(10) 0.0063(10) -0.0011(8) 0.000 0.000
P2 0.0035(9) 0.0086(10) 0.0075(10) -0.0004(8) 0.000 0.000
P3 0.0030(9) 0.0079(10) 0.0061(10) 0.0007(8) 0.000 0.000
Cl1 0.0063(12) 0.0060(12) 0.0084(13) 0.000 0.000 0.000
loop_
_atom_type_symbol
_atom_type_description
_atom_type_scat_dispersion_real
_atom_type_scat_dispersion_imag
_atom_type_scat_source
P P 0.1023 0.0942 'International Tables Vol C Tables 4.2.6.8 and 6.1.1.4'
Cl Cl 0.1484 0.1585 'International Tables Vol C Tables 4.2.6.8 and 6.1.1.4'
Zn Zn 0.2839 1.4301 'International Tables Vol C Tables 4.2.6.8 and 6.1.1.4'
La La -0.2871 2.4523 'International Tables Vol C Tables 4.2.6.8 and 6.1.1.4'
loop_
_geom_angle_atom_site_label_1
_geom_angle_atom_site_label_2
_geom_angle_atom_site_label_3
_geom_angle
_geom_angle_site_symmetry_1
_geom_angle_site_symmetry_3
Cl1 La1 P3 74.61(5) 9_566 6_455
Cl1 La1 P3 74.61(5) 9_566 6
P3 La1 P3 84.58(6) 6_455 6
Cl1 La1 P1 74.89(5) 9_566 6
P3 La1 P1 149.50(6) 6_455 6
P3 La1 P1 87.51(5) 6 6
Cl1 La1 P1 74.89(5) 9_566 6_455
P3 La1 P1 87.51(5) 6_455 6_455
P3 La1 P1 149.50(6) 6 6_455
P1 La1 P1 84.53(6) 6 6_455
Cl1 La1 P2 136.60(3) 9_566 6_455
P3 La1 P2 82.00(5) 6_455 6_455
P3 La1 P2 139.22(6) 6 6_455
P1 La1 P2 121.39(6) 6 6_455
P1 La1 P2 67.96(5) 6_455 6_455
Cl1 La1 P2 136.60(3) 9_566 6
P3 La1 P2 139.22(6) 6_455 6
P3 La1 P2 82.00(5) 6 6
P1 La1 P2 67.96(5) 6 6
P1 La1 P2 121.39(6) 6_455 6
P2 La1 P2 83.54(6) 6_455 6
Cl1 La1 Zn2 175.52(6) 9_566 10_556
P3 La1 Zn2 108.57(4) 6_455 10_556
P3 La1 Zn2 108.57(4) 6 10_556
P1 La1 Zn2 101.87(4) 6 10_556
P1 La1 Zn2 101.87(4) 6_455 10_556
P2 La1 Zn2 42.48(3) 6_455 10_556
P2 La1 Zn2 42.48(3) 6 10_556
Cl1 La1 Zn2 116.58(4) 9_566 6_455
P3 La1 Zn2 42.08(4) 6_455 6_455
P3 La1 Zn2 92.80(4) 6 6_455
P1 La1 Zn2 168.18(4) 6 6_455
P1 La1 Zn2 100.83(3) 6_455 6_455
P2 La1 Zn2 52.90(4) 6_455 6_455
P2 La1 Zn2 100.37(4) 6 6_455
Zn2 La1 Zn2 66.83(3) 10_556 6_455
Cl1 La1 Zn2 116.58(4) 9_566 6
P3 La1 Zn2 92.80(4) 6_455 6
P3 La1 Zn2 42.08(4) 6 6
P1 La1 Zn2 100.83(3) 6 6
P1 La1 Zn2 168.18(4) 6_455 6
P2 La1 Zn2 100.37(4) 6_455 6
P2 La1 Zn2 52.90(4) 6 6
Zn2 La1 Zn2 66.83(3) 10_556 6
Zn2 La1 Zn2 72.02(2) 6_455 6
Cl1 La1 Zn1 70.00(5) 9_566 2
P3 La1 Zn1 42.30(3) 6_455 2
P3 La1 Zn1 42.30(3) 6 2
P1 La1 Zn1 124.17(4) 6 2
P1 La1 Zn1 124.17(4) 6_455 2
P2 La1 Zn1 114.00(4) 6_455 2
P2 La1 Zn1 114.00(4) 6 2
Zn2 La1 Zn1 114.48(3) 10_556 2
Zn2 La1 Zn1 61.30(2) 6_455 2
Zn2 La1 Zn1 61.30(2) 6 2
Cl1 La1 La1 90.0 9_566 1_455
P3 La1 La1 47.71(3) 6_455 1_455
P3 La1 La1 132.29(3) 6 1_455
P1 La1 La1 132.27(3) 6 1_455
P1 La1 La1 47.73(3) 6_455 1_455
P2 La1 La1 48.23(3) 6_455 1_455
P2 La1 La1 131.77(3) 6 1_455
Zn2 La1 La1 90.0 10_556 1_455
Zn2 La1 La1 53.991(12) 6_455 1_455
Zn2 La1 La1 126.009(12) 6 1_455
Zn1 La1 La1 90.0 2 1_455
Cl1 La2 Cl1 87.06(8) 5_445 5_545
Cl1 La2 P1 157.69(4) 5_445 14_556
Cl1 La2 P1 89.06(5) 5_545 14_556
Cl1 La2 P1 157.69(4) 5_445 5
Cl1 La2 P1 89.06(5) 5_545 5
P1 La2 P1 43.95(8) 14_556 5
Cl1 La2 P1 89.06(5) 5_445 5_455
Cl1 La2 P1 157.69(4) 5_545 5_455
P1 La2 P1 102.39(7) 14_556 5_455
P1 La2 P1 86.24(6) 5 5_455
Cl1 La2 P1 89.06(5) 5_445 14_456
Cl1 La2 P1 157.69(4) 5_545 14_456
P1 La2 P1 86.24(6) 14_556 14_456
P1 La2 P1 102.39(7) 5 14_456
P1 La2 P1 43.95(8) 5_455 14_456
Cl1 La2 P3 74.08(3) 5_445 .
Cl1 La2 P3 74.08(3) 5_545 .
P1 La2 P3 125.70(4) 14_556 .
P1 La2 P3 83.73(5) 5 .
P1 La2 P3 83.73(5) 5_455 .
P1 La2 P3 125.70(4) 14_456 .
Cl1 La2 P3 74.08(3) 5_445 10_556
Cl1 La2 P3 74.08(3) 5_545 10_556
P1 La2 P3 83.73(5) 14_556 10_556
P1 La2 P3 125.70(4) 5 10_556
P1 La2 P3 125.70(4) 5_455 10_556
P1 La2 P3 83.73(5) 14_456 10_556
P3 La2 P3 135.53(8) . 10_556
Cl1 La2 Zn1 114.47(2) 5_445 14_556
Cl1 La2 Zn1 69.21(2) 5_545 14_556
P1 La2 Zn1 44.16(4) 14_556 14_556
P1 La2 Zn1 84.42(4) 5 14_556
P1 La2 Zn1 131.77(5) 5_455 14_556
P1 La2 Zn1 92.64(4) 14_456 14_556
P3 La2 Zn1 141.48(2) . 14_556
P3 La2 Zn1 41.28(3) 10_556 14_556
Cl1 La2 Zn1 69.21(2) 5_445 5_455
Cl1 La2 Zn1 114.47(2) 5_545 5_455
P1 La2 Zn1 131.77(5) 14_556 5_455
P1 La2 Zn1 92.64(4) 5 5_455
P1 La2 Zn1 44.16(4) 5_455 5_455
P1 La2 Zn1 84.42(4) 14_456 5_455
P3 La2 Zn1 41.28(3) . 5_455
P3 La2 Zn1 141.48(2) 10_556 5_455
Zn1 La2 Zn1 175.31(4) 14_556 5_455
Cl1 La2 Zn1 69.21(2) 5_445 14_456
Cl1 La2 Zn1 114.47(2) 5_545 14_456
P1 La2 Zn1 92.64(4) 14_556 14_456
P1 La2 Zn1 131.77(5) 5 14_456
P1 La2 Zn1 84.42(4) 5_455 14_456
P1 La2 Zn1 44.16(4) 14_456 14_456
P3 La2 Zn1 141.48(2) . 14_456
P3 La2 Zn1 41.28(3) 10_556 14_456
Zn1 La2 Zn1 67.89(2) 14_556 14_456
Zn1 La2 Zn1 111.90(2) 5_455 14_456
Cl1 La2 Zn1 114.47(2) 5_445 5
Cl1 La2 Zn1 69.21(2) 5_545 5
P1 La2 Zn1 84.42(4) 14_556 5
P1 La2 Zn1 44.16(4) 5 5
P1 La2 Zn1 92.64(4) 5_455 5
P1 La2 Zn1 131.77(5) 14_456 5
P3 La2 Zn1 41.28(3) . 5
P3 La2 Zn1 141.48(2) 10_556 5
Zn1 La2 Zn1 111.90(2) 14_556 5
Zn1 La2 Zn1 67.89(2) 5_455 5
Zn1 La2 Zn1 175.31(4) 14_456 5
P2 Zn1 P3 117.73(5) . 5_445
P2 Zn1 P3 117.73(5) . 5_545
P3 Zn1 P3 113.68(10) 5_445 5_545
P2 Zn1 P1 86.34(8) . .
P3 Zn1 P1 108.46(6) 5_445 .
P3 Zn1 P1 108.46(6) 5_545 .
P2 Zn1 La1 146.58(7) . 2_554
P3 Zn1 La1 56.86(5) 5_445 2_554
P3 Zn1 La1 56.86(5) 5_545 2_554
P1 Zn1 La1 127.08(6) . 2_554
P2 Zn1 La2 123.11(5) . 5_545
P3 Zn1 La2 113.13(6) 5_445 5_545
P3 Zn1 La2 57.17(5) 5_545 5_545
P1 Zn1 La2 53.97(4) . 5_545
La1 Zn1 La2 83.57(2) 2_554 5_545
P2 Zn1 La2 123.11(5) . 5_445
P3 Zn1 La2 57.17(5) 5_445 5_445
P3 Zn1 La2 113.13(6) 5_545 5_445
P1 Zn1 La2 53.97(4) . 5_445
La1 Zn1 La2 83.57(2) 2_554 5_445
La2 Zn1 La2 67.89(2) 5_545 5_445
P3 Zn2 P2 121.00(5) . 13_455
P3 Zn2 P2 121.00(5) . 13
P2 Zn2 P2 117.66(10) 13_455 13
P3 Zn2 P2 97.32(8) . .
P2 Zn2 P2 89.10(6) 13_455 .
P2 Zn2 P2 89.10(6) 13 .
P3 Zn2 La1 169.58(7) . 10_556
P2 Zn2 La1 60.17(5) 13_455 10_556
P2 Zn2 La1 60.17(5) 13 10_556
P2 Zn2 La1 72.26(5) . 10_556
P3 Zn2 La1 59.02(4) . 6_554
P2 Zn2 La1 143.09(7) 13_455 6_554
P2 Zn2 La1 78.08(5) 13 6_554
P2 Zn2 La1 56.40(4) . 6_554
La1 Zn2 La1 113.17(3) 10_556 6_554
P3 Zn2 La1 59.02(4) . 6_454
P2 Zn2 La1 78.08(5) 13_455 6_454
P2 Zn2 La1 143.09(7) 13 6_454
P2 Zn2 La1 56.40(4) . 6_454
La1 Zn2 La1 113.17(3) 10_556 6_454
La1 Zn2 La1 72.02(2) 6_554 6_454
P1 P1 Zn1 137.99(5) 10_556 .
P1 P1 La2 68.02(4) 10_556 5_445
Zn1 P1 La2 81.87(5) . 5_445
P1 P1 La2 68.02(4) 10_556 5_545
Zn1 P1 La2 81.87(5) . 5_545
La2 P1 La2 86.25(6) 5_445 5_545
P1 P1 La1 121.90(4) 10_556 6_454
Zn1 P1 La1 87.38(6) . 6_454
La2 P1 La1 93.593(15) 5_445 6_454
La2 P1 La1 169.16(8) 5_545 6_454
P1 P1 La1 121.90(4) 10_556 6_554
Zn1 P1 La1 87.38(6) . 6_554
La2 P1 La1 169.16(8) 5_445 6_554
La2 P1 La1 93.593(15) 5_545 6_554
La1 P1 La1 84.53(6) 6_454 6_554
Zn2 P2 Zn2 117.66(10) 13_455 13
Zn2 P2 Zn1 102.61(7) 13_455 .
Zn2 P2 Zn1 102.61(7) 13 .
Zn2 P2 Zn2 90.90(6) 13_455 .
Zn2 P2 Zn2 90.90(6) 13 .
Zn1 P2 Zn2 153.33(10) . .
Zn2 P2 La1 157.08(9) 13_455 6_554
Zn2 P2 La1 77.35(3) 13 6_554
Zn1 P2 La1 89.73(6) . 6_554
Zn2 P2 La1 70.70(5) . 6_554
Zn2 P2 La1 77.35(3) 13_455 6_454
Zn2 P2 La1 157.08(9) 13 6_454
Zn1 P2 La1 89.73(6) . 6_454
Zn2 P2 La1 70.70(5) . 6_454
La1 P2 La1 83.54(6) 6_554 6_454
Zn2 P3 Zn1 96.72(6) . 5
Zn2 P3 Zn1 96.72(6) . 5_455
Zn1 P3 Zn1 113.68(10) 5 5_455
Zn2 P3 La1 78.90(6) . 6_454
Zn1 P3 La1 165.35(8) 5 6_454
Zn1 P3 La1 80.84(3) 5_455 6_454
Zn2 P3 La1 78.90(6) . 6_554
Zn1 P3 La1 80.84(3) 5 6_554
Zn1 P3 La1 165.35(8) 5_455 6_554
La1 P3 La1 84.58(6) 6_454 6_554
Zn2 P3 La2 176.76(10) . .
Zn1 P3 La2 81.55(6) 5 .
Zn1 P3 La2 81.55(6) 5_455 .
La1 P3 La2 103.44(5) 6_454 .
La1 P3 La2 103.44(5) 6_554 .
La2 Cl1 La2 87.06(8) 5 5_455
La2 Cl1 La1 107.80(2) 5 2_564
La2 Cl1 La1 107.80(2) 5_455 2_564
La2 Cl1 La1 107.80(2) 5 9_566
La2 Cl1 La1 107.80(2) 5_455 9_566
La1 Cl1 La1 130.13(10) 2_564 9_566
loop_
_geom_bond_atom_site_label_1
_geom_bond_atom_site_label_2
_geom_bond_distance
_geom_bond_site_symmetry_2
La1 Cl1 2.9826(13) 9_566
La1 P3 3.0151(17) 6_455
La1 P3 3.0151(17) 6
La1 P1 3.0164(17) 6
La1 P1 3.0164(17) 6_455
La1 P2 3.0455(17) 6_455
La1 P2 3.0455(17) 6
La1 Zn2 3.4256(11) 10_556
La1 Zn2 3.4509(9) 6_455
La1 Zn2 3.4509(9) 6
La1 Zn1 3.5550(12) 2
La1 La1 4.0576(5) 1_455
La2 Cl1 2.946(2) 5_445
La2 Cl1 2.946(2) 5_545
La2 P1 2.9680(17) 14_556
La2 P1 2.9680(17) 5
La2 P1 2.9680(16) 5_455
La2 P1 2.9680(16) 14_456
La2 P3 3.086(2) .
La2 P3 3.086(2) 10_556
La2 Zn1 3.6332(9) 14_556
La2 Zn1 3.6332(9) 5_455
La2 Zn1 3.6332(9) 14_456
La2 Zn1 3.6332(9) 5
Zn1 P2 2.392(2) .
Zn1 P3 2.4234(14) 5_445
Zn1 P3 2.4234(14) 5_545
Zn1 P1 2.557(2) .
Zn1 La1 3.5550(12) 2_554
Zn1 La2 3.6332(9) 5_545
Zn1 La2 3.6332(9) 5_445
Zn2 P3 2.356(2) .
Zn2 P2 2.3711(12) 13_455
Zn2 P2 2.3711(12) 13
Zn2 P2 2.916(2) .
Zn2 La1 3.4257(11) 10_556
Zn2 La1 3.4509(9) 6_554
Zn2 La1 3.4509(9) 6_454
P1 P1 2.221(4) 10_556
P1 La2 2.9680(16) 5_445
P1 La2 2.9680(16) 5_545
P1 La1 3.0165(17) 6_454
P1 La1 3.0165(17) 6_554
P2 Zn2 2.3710(12) 13_455
P2 Zn2 2.3710(12) 13
P2 La1 3.0455(17) 6_554
P2 La1 3.0455(17) 6_454
P3 Zn1 2.4234(14) 5
P3 Zn1 2.4234(14) 5_455
P3 La1 3.0151(17) 6_454
P3 La1 3.0151(17) 6_554
Cl1 La2 2.946(2) 5
Cl1 La2 2.946(2) 5_455
Cl1 La1 2.9826(13) 2_564
Cl1 La1 2.9826(13) 9_566
