#------------------------------------------------------------------------------
#$Date: 2016-02-13 21:28:24 +0200 (Sat, 13 Feb 2016) $
#$Revision: 176429 $
#$URL: svn://www.crystallography.net/cod/cif/4/00/22/4002218.cif $
#------------------------------------------------------------------------------
#
# This file is available in the Crystallography Open Database (COD),
# http://www.crystallography.net/
#
# All data on this site have been placed in the public domain by the
# contributors.
#
data_4002218
loop_
_publ_author_name
'Dolyniuk, Juli-Anna'
'Wang, Jian'
'Lee, Kathleen'
'Kovnir, Kirill'
_publ_section_title
;
 Twisted Kelvin Cells and Truncated Octahedral Cages in the Crystal
 Structures of Unconventional Clathrates, AM2P4(A = Sr, Ba; M = Cu, Ni)
;
_journal_issue                   12
_journal_name_full               'Chemistry of Materials'
_journal_page_first              4476
_journal_paper_doi               10.1021/acs.chemmater.5b01592
_journal_volume                  27
_journal_year                    2015
_chemical_formula_sum            'Ni2 P4 Sr'
_chemical_formula_weight         328.935
_chemical_name_systematic
;
 ?
;
_space_group_crystal_system      orthorhombic
_space_group_IT_number           70
_space_group_name_Hall           '-F 2uv 2vw'
_space_group_name_H-M_alt        'F d d d'
_symmetry_space_group_name_Hall  '-F 2uv 2vw'
_symmetry_space_group_name_H-M   'F d d d :2'
_audit_creation_method           manual
_cell_angle_alpha                90
_cell_angle_beta                 90
_cell_angle_gamma                90
_cell_formula_units_Z            8
_cell_length_a                   5.1928(2)
_cell_length_b                   9.5598(4)
_cell_length_c                   18.9575(8)
_cell_measurement_temperature    90(2)
_cell_volume                     941.09(7)
_computing_structure_refinement  'SHELXL-2013 (Sheldrick, 2013)'
_diffrn_ambient_temperature      90(2)
_diffrn_measured_fraction_theta_full 1.000
_diffrn_measured_fraction_theta_max 1.000
_diffrn_radiation_type           MoK\a
_diffrn_radiation_wavelength     0.71073
_diffrn_reflns_av_R_equivalents  0.0183
_diffrn_reflns_av_unetI/netI     0.0099
_diffrn_reflns_Laue_measured_fraction_full 1.000
_diffrn_reflns_Laue_measured_fraction_max 1.000
_diffrn_reflns_limit_h_max       7
_diffrn_reflns_limit_h_min       -7
_diffrn_reflns_limit_k_max       13
_diffrn_reflns_limit_k_min       -13
_diffrn_reflns_limit_l_max       26
_diffrn_reflns_limit_l_min       -26
_diffrn_reflns_number            3432
_diffrn_reflns_point_group_measured_fraction_full 1.000
_diffrn_reflns_point_group_measured_fraction_max 1.000
_diffrn_reflns_theta_full        25.242
_diffrn_reflns_theta_max         30.492
_diffrn_reflns_theta_min         4.300
_exptl_absorpt_coefficient_mu    20.385
_exptl_absorpt_correction_T_max  0.31
_exptl_absorpt_correction_T_min  0.25
_exptl_absorpt_correction_type   analytical
_exptl_absorpt_process_details   'SADABS v2.03 (Bruker, 2003)'
_exptl_crystal_colour            black
_exptl_crystal_density_diffrn    4.643
_exptl_crystal_description       block
_exptl_crystal_F_000             1232
_exptl_crystal_size_max          0.095
_exptl_crystal_size_mid          0.088
_exptl_crystal_size_min          0.076
_refine_diff_density_max         0.395
_refine_diff_density_min         -0.281
_refine_diff_density_rms         0.089
_refine_ls_extinction_coef       0.00259(10)
_refine_ls_extinction_expression Fc^*^=kFc[1+0.001xFc^2^\l^3^/sin(2\q)]^-1/4^
_refine_ls_extinction_method     SHELXL
_refine_ls_goodness_of_fit_ref   1.224
_refine_ls_hydrogen_treatment    undef
_refine_ls_matrix_type           full
_refine_ls_number_parameters     19
_refine_ls_number_reflns         363
_refine_ls_number_restraints     0
_refine_ls_restrained_S_all      1.224
_refine_ls_R_factor_all          0.0099
_refine_ls_R_factor_gt           0.0099
_refine_ls_shift/su_max          0.000
_refine_ls_shift/su_mean         0.000
_refine_ls_structure_factor_coef Fsqd
_refine_ls_weighting_details
'w=1/[\s^2^(Fo^2^)+(0.0128P)^2^+1.6403P] where P=(Fo^2^+2Fc^2^)/3'
_refine_ls_weighting_scheme      calc
_refine_ls_wR_factor_gt          0.0264
_refine_ls_wR_factor_ref         0.0265
_reflns_Friedel_coverage         0.000
_reflns_number_gt                360
_reflns_number_total             363
_reflns_threshold_expression     'I > 2\s(I)'
_cod_data_source_file            cm5b01592_si_002.cif
_cod_data_source_block
;
;
_cod_original_formula_sum        'Ni2 P4 Sr1'
_cod_database_code               4002218
#BEGIN Tags that were not found in dictionaries:
_shelx_space_group_comment
;
The symmetry employed for this shelxl refinement is uniquely defined
by the following loop, which should always be used as a source of
symmetry information in preference to the above space-group names.
They are only intended as comments.
;
_shelx_estimated_absorpt_t_min   0.248
_shelx_estimated_absorpt_t_max   0.306
_shelxl_version_number           2013-4
_shelx_res_file
;
TITL 03092015 in Fddd
CELL 0.71073   5.19280   9.55980  18.95750  90.0000  90.0000  90.0000
ZERR    4.00   0.00020   0.00040   0.00080   0.0000   0.0000   0.0000
LATT  4
SYMM 0.75-X, 0.75-Y, Z
SYMM 0.75-X, Y, 0.75-Z
SYMM X, 0.75-Y, 0.75-Z
SFAC P NI SR
UNIT 32 16 8
TEMP -183.000

size 0.076 0.088 0.095

L.S. 18
BOND
FMAP 2
PLAN -20
acta
WGHT    0.012800    1.640300
EXTI    0.002592
FVAR       0.05891
SR1   3    0.125000    0.125000    0.625000    10.25000    0.00376    0.00309 =
         0.00697    0.00000    0.00000    0.00000
NI2   2    0.125000    0.125000    0.005413    10.50000    0.00328    0.00387 =
         0.00282    0.00000    0.00000    0.00024
P3    1    0.063508    0.318134    0.068666    11.00000    0.00320    0.00389 =
         0.00338   -0.00036   -0.00002    0.00014
HKLF 4

REM  03092015 in Fddd
REM R1 =  0.0099 for     360 Fo > 4sig(Fo)  and  0.0099 for all     363 data
REM     19 parameters refined using      0 restraints

END

WGHT      0.0128      1.6403

REM Highest difference peak  0.395,  deepest hole -0.281,  1-sigma level  0.089
Q1    1   0.1250  0.1973  0.6250  10.50000  0.05    0.40
Q2    1  -0.0121  0.1250  0.6250  10.50000  0.05    0.35
Q3    1   0.6185  0.2185  0.7382  11.00000  0.05    0.33
Q4    1   0.1250 -0.1985  0.6250  10.50000  0.05    0.31
Q5    1  -0.3750  0.1250  0.5497  10.50000  0.05    0.29
Q6    1  -0.1250  0.3750  0.5583  10.50000  0.05    0.29
Q7    1   0.0603 -0.1809  0.7153  11.00000  0.05    0.27
Q8    1   0.1238  0.0860  0.8187  11.00000  0.05    0.26
Q9    1  -0.1250  0.3750  0.6651  10.50000  0.05    0.26
Q10   1   0.1250  0.1250  0.5893  10.50000  0.05    0.25
Q11   1  -0.0829 -0.0870  0.6814  11.00000  0.05    0.24
Q12   1   0.0298 -0.1351  0.7632  11.00000  0.05    0.24
Q13   1   0.3653  0.0382  0.6327  11.00000  0.05    0.20
Q14   1   0.0221  0.3605  0.5155  11.00000  0.05    0.19
Q15   1   0.5587  0.2160  0.5668  11.00000  0.05    0.18
Q16   1   0.0830  0.2851  0.5427  11.00000  0.05    0.18
Q17   1  -0.0413  0.2382  0.6196  11.00000  0.05    0.18
Q18   1  -0.1250 -0.1250  0.6528  10.50000  0.05    0.17
Q19   1   0.0759 -0.0188  0.5793  11.00000  0.05    0.15
Q20   1   0.1250  0.1250  0.5069  10.50000  0.05    0.15
;
_shelx_res_checksum              1868
_shelx_hkl_file
;
  -2   0   0    0.31    0.15
  -2   0   0    0.33    0.17
  -4   0   0  553.72   10.41
  -4   0   0  560.38   10.58
  -4   0   0  562.84    9.82
  -4   0   0  573.11    9.77
  -6   0   0   -0.05    0.19
   6   0   0   -0.18    0.22
  -6   0   0    0.46    0.27
   0   2   0    0.16    0.15
   0   2   0    0.16    0.11
   0  -2   0    0.28    0.13
  -2  -2   0  438.23    7.55
  -2   2   0  439.41    8.61
   2  -2   0  450.07    8.26
  -2  -2   0  436.25    8.83
  -2   2   0  441.76    8.94
   2   2   0  437.57    8.24
  -2  -2   0  453.87    8.51
  -2   2   0  451.02    7.65
  -4  -2   0   -0.03    0.12
  -4   2   0    0.19    0.17
   4   2   0    1.30    0.23
  -4   2   0    0.28    0.19
   4  -2   0    0.21    0.16
   4  -2   0    0.09    0.15
  -4   2   0    0.16    0.14
  -4  -2   0    0.14    0.17
  -4  -2   0    0.37    0.21
   6   2   0  479.33    9.73
  -6  -2   0  471.68    8.89
   6  -2   0  484.08    8.99
  -6   2   0  464.32    9.43
   0   4   0  984.05   17.47
   0   4   0  885.19   16.65
   0  -4   0  877.44   16.53
   0  -4   0  892.05   16.90
  -2   4   0   -0.38    0.11
  -2  -4   0    0.41    0.22
  -2   4   0   -0.22    0.14
  -2  -4   0   -0.14    0.12
   2  -4   0   -0.28    0.13
   2   4   0    0.00    0.14
  -4   4   0  441.34    8.72
   4  -4   0  454.98    8.13
   4   4   0  459.21    7.99
  -4   4   0  443.00    8.13
   4   4   0  455.04    8.98
  -4  -4   0  443.74    8.08
   6  -4   0    0.98    0.34
  -6  -4   0    0.06    0.23
   6   4   0    1.30    0.45
   0   6   0    0.08    0.16
   0  -6   0   -0.10    0.10
   0   6   0   -0.01    0.12
   0  -6   0   -0.07    0.13
   2  -6   0  775.78   13.58
  -2  -6   0  769.25   13.58
   2   6   0  838.18   13.83
  -2   6   0  776.34   14.53
  -2   6   0  784.33   14.95
   2   6   0  850.38   16.09
  -4   6   0   -0.01    0.17
   4  -6   0    0.25    0.21
   4   6   0   -0.12    0.16
   4   6   0    0.37    0.24
  -4   6   0    0.26    0.23
  -4  -6   0    0.45    0.26
  -6  -6   0  136.96    3.42
  -6   6   0  138.91    3.76
   6   6   0  132.56    3.92
   6  -6   0  135.40    3.42
   0  -8   0  109.01    2.49
   0  -8   0  105.87    2.35
   0   8   0  106.05    2.59
   0   8   0  108.48    2.39
   2  -8   0    0.11    0.19
  -2  -8   0   -0.11    0.15
   2   8   0   -0.08    0.14
  -2   8   0    0.66    0.26
  -2   8   0    0.39    0.23
   2   8   0    0.03    0.19
  -4  -8   0  282.65    5.72
  -4   8   0  284.45    5.79
   4  -8   0  282.22    5.70
  -4   8   0  280.86    6.13
   4   8   0  280.79    6.35
   6   8   0   -0.14    0.36
  -6  -8   0    0.00    0.28
  -6   8   0   -0.14    0.31
   6  -8   0   -0.23    0.25
   0 -10   0    0.38    0.24
   0  10   0    0.01    0.21
   2  10   0  577.55   11.03
   2 -10   0  563.56   10.21
   2  10   0  544.29   10.38
   2 -10   0  568.03   10.78
  -2  10   0  553.66   10.46
  -2 -10   0  559.78   10.25
   4 -10   0    0.39    0.31
  -4 -10   0   -0.10    0.25
  -4  10   0    0.02    0.26
  -4  10   0   -0.14    0.26
   4  10   0    0.18    0.32
   0  12   0  143.65    3.66
   0 -12   0  140.37    3.50
   2  12   0    0.07    0.28
   2 -12   0    0.04    0.27
  -2 -12   0    0.14    0.29
  -2  12   0    0.54    0.35
   1   1  -1   24.22    0.65
  -1  -1  -1   24.73    0.58
  -1  -1  -1   25.37    0.66
  -1   1   1   25.42    0.57
  -1   1   1   26.80    0.65
  -1  -1  -1   26.13    0.54
   1   1  -1   25.11    0.52
   1  -1   1   25.50    0.58
  -1  -1   1   26.06    0.60
  -1   1  -1   25.67    0.64
   1  -1  -1   26.42    0.56
  -1  -1   1   26.24    0.59
  -1   1  -1   25.35    0.56
   1   1   1   23.64    0.57
  -1   1  -1   24.27    0.59
  -3  -1  -1   35.59    0.99
  -3   1   1   34.91    0.90
  -3  -1  -1   35.64    0.98
  -3   1   1   37.28    1.04
  -3  -1  -1   35.64    0.93
  -3  -1  -1   35.34    1.09
  -3   1   1   35.70    1.08
   3   1  -1   36.41    1.13
   3  -1  -1   34.76    1.00
  -3  -1   1   35.35    1.02
  -3   1  -1   36.10    0.97
  -3  -1   1   34.99    1.10
  -3   1  -1   35.08    1.00
  -3   1  -1   36.23    1.07
  -3  -1   1   35.63    1.02
  -3   1  -1   37.65    1.01
  -3  -1   1   36.25    0.87
   5   1  -1    9.99    0.72
  -5  -1  -1   11.23    0.68
  -5  -1  -1   10.71    0.64
  -5  -1  -1   11.00    0.72
  -5   1   1   11.39    0.69
   5  -1   1   10.91    0.66
  -5   1   1   11.16    0.71
  -5   1  -1   10.32    0.66
  -5  -1   1   12.16    0.69
  -5   1  -1   10.96    0.60
  -5  -1   1   10.35    0.67
   5   1   1   10.47    0.73
   5  -1  -1   10.98    0.67
  -5   1  -1   11.49    0.70
  -7   1   1    1.65    0.47
   7  -1   1    1.04    0.41
  -7  -1  -1    0.85    0.36
  -7  -1   1    1.36    0.42
   7  -1  -1    0.94    0.38
  -7   1  -1    2.49    0.52
  -1  -3  -1  100.46    1.95
   1   3  -1  100.36    1.95
  -1  -3  -1   99.02    2.11
  -1   3   1  101.67    2.08
   1  -3   1  100.00    1.94
   1   3  -1   99.53    2.12
  -1  -3   1   98.78    1.96
  -1   3  -1  102.37    2.10
  -1  -3   1  101.89    1.90
   1   3   1  102.02    1.98
   3   3  -1    1.66    0.20
  -3  -3  -1    1.28    0.18
  -3  -3  -1    1.77    0.32
  -3   3   1    1.38    0.23
  -3  -3  -1    2.58    0.29
   3  -3   1    1.69    0.28
  -3   3   1    1.56    0.30
  -3   3  -1    1.53    0.26
   3  -3  -1    1.59    0.18
  -3  -3   1    1.61    0.26
   3  -3  -1    1.31    0.25
  -3  -3   1    1.44    0.19
  -3   3  -1    1.67    0.19
   3   3   1    1.37    0.22
  -3   3  -1    1.19    0.25
  -5   3   1    2.26    0.43
   5  -3   1    2.27    0.40
  -5  -3  -1    2.44    0.41
  -5   3   1    2.34    0.34
   5   3  -1    2.38    0.48
   5  -3  -1    2.01    0.40
   5   3   1    3.01    0.49
  -5   3  -1    2.81    0.43
  -5   3  -1    2.67    0.38
  -5  -3   1    2.04    0.38
   7  -3   1   26.36    1.32
  -7  -3  -1   27.02    1.34
   7   3  -1   25.61    1.47
  -7   3   1   26.91    1.41
   7   3   1   25.77    1.49
  -7  -3   1   27.75    1.37
   7  -3  -1   27.39    1.38
  -7   3  -1   26.01    1.38
   1   5  -1  123.46    2.50
   1   5  -1  122.06    2.66
  -1   5   1  121.59    2.56
  -1  -5  -1  121.61    2.60
  -1  -5  -1  123.79    2.48
   1  -5   1  124.77    2.47
  -1   5   1  120.13    2.26
  -1  -5  -1  123.85    2.27
  -1   5   1  118.38    2.56
   1  -5  -1  120.98    2.48
  -1  -5   1  122.83    2.46
  -1   5  -1  122.38    2.30
  -1   5  -1  117.66    2.55
  -1  -5   1  124.74    2.36
  -1   5  -1  124.53    2.60
   1   5   1  119.41    2.52
  -3  -5  -1   13.51    0.67
  -3   5   1   13.32    0.67
   3   5  -1   13.46    0.61
   3   5  -1   14.33    0.78
  -3  -5  -1   12.96    0.73
  -3   5   1   15.20    0.76
   3  -5   1   15.03    0.70
   3  -5  -1   14.17    0.71
  -3   5  -1   13.41    0.68
   3   5   1   14.30    0.64
  -3  -5   1   14.57    0.69
  -3   5  -1   13.31    0.73
   5   5  -1    3.57    0.56
  -5  -5  -1    3.60    0.47
   5  -5   1    3.05    0.49
  -5   5   1    3.51    0.42
  -5   5   1    3.50    0.51
   5   5   1    4.18    0.60
  -5   5  -1    3.38    0.51
  -5  -5   1    3.80    0.50
  -5   5  -1    3.74    0.45
   5  -5  -1    3.31    0.50
  -1   7   1   13.87    0.70
   1   7  -1   12.62    0.64
  -1  -7  -1   13.06    0.65
  -1   7   1   11.77    0.59
   1  -7   1   11.43    0.61
   1   7  -1   12.86    0.66
   1  -7   1   11.41    0.60
   1   7   1   11.27    0.60
  -1   7  -1   12.40    0.67
  -1  -7   1   12.35    0.63
   1  -7  -1   12.07    0.64
  -1  -7   1   13.14    0.48
   1   7   1   12.15    0.67
   3  -7   1   15.28    0.78
  -3  -7  -1   15.38    0.79
   3   7  -1   15.99    0.91
  -3   7   1   15.43    0.84
  -3   7   1   14.69    0.78
   3   7  -1   14.30    0.72
   3   7   1   14.29    0.75
  -3  -7   1   15.32    0.80
  -3   7  -1   15.08    0.81
  -3   7  -1   15.73    0.86
   3  -7  -1   13.80    0.77
   3   7   1   15.08    0.87
   5  -7   1   10.63    0.77
  -5   7   1    9.58    0.82
  -5   7   1   12.02    0.78
   5   7  -1   10.59    0.93
  -5  -7  -1   10.90    0.78
   5   7   1   13.17    1.03
  -5   7  -1   11.27    0.90
   5  -7  -1   10.38    0.81
  -5   7  -1   10.65    0.77
  -5  -7   1   10.98    0.80
  -1  -9  -1    1.48    0.32
  -1   9   1    1.54    0.38
   1  -9   1    0.86    0.26
   1   9  -1    1.18    0.31
   1  -9   1    1.22    0.30
   1   9  -1    0.98    0.31
   1   9   1    0.96    0.31
  -1   9  -1    1.30    0.35
   1   9   1    1.17    0.30
  -1  -9   1    1.36    0.32
   1  -9  -1    0.86    0.25
   1  -9  -1    0.81    0.29
  -3   9   1    6.70    0.62
  -3  -9  -1    6.63    0.62
   3   9  -1    6.44    0.67
   3   9  -1    5.85    0.58
   3  -9   1    6.76    0.61
  -3   9   1    6.95    0.64
  -3   9  -1    6.81    0.63
   3   9   1    6.73    0.69
  -3  -9   1    7.00    0.63
  -3   9  -1    7.01    0.64
   3  -9  -1    6.50    0.61
   3   9   1    7.00    0.64
  -5   9   1    6.28    0.75
   5  -9   1    5.46    0.66
  -5  -9  -1    4.62    0.62
  -5   9   1    6.33    0.65
   5   9  -1    6.24    0.84
   5   9   1    5.11    0.79
   5  -9  -1    5.51    0.68
  -5  -9   1    5.28    0.65
  -5   9  -1    5.14    0.70
  -5   9  -1    4.83    0.62
   1 -11   1   24.73    1.16
  -1  11   1   28.60    1.33
  -1 -11  -1   26.11    1.21
   1  11  -1   25.55    1.24
  -1 -11   1   26.17    1.19
   1 -11  -1   28.36    1.24
   1  11   1   27.59    1.31
  -1  11  -1   26.90    1.26
   3  11  -1    2.07    0.52
   3 -11   1    0.12    0.26
   3 -11   1    0.70    0.35
   3  11  -1    0.34    0.31
  -3  11   1    0.61    0.34
  -3 -11  -1    0.70    0.33
  -3 -11   1    0.11    0.26
   3  11   1    0.29    0.33
  -3  11  -1    0.32    0.32
   3 -11  -1    0.37    0.31
   3  11   1    0.05    0.31
   3 -11  -1    1.11    0.40
   1 -13   1   30.16    1.42
  -1  13   1   27.00    1.42
   1  13  -1   28.06    1.43
  -1 -13  -1   27.57    1.39
   1  13   1   27.25    1.43
  -1 -13   1   28.12    1.39
  -1  13  -1   27.97    1.44
   1 -13  -1   28.29    1.39
   0   0  -2    0.02    0.04
   0   0   2    0.00    0.03
  -2   0  -2  515.48   10.20
  -2   0  -2  519.84   10.21
  -2   0   2  489.13    9.79
  -2   0   2  498.79    9.69
   2   0  -2  508.51   10.01
  -2   0  -2  515.80    9.81
  -2   0  -2  490.19    9.47
  -2   0   2  519.11    9.10
  -4   0   2    0.03    0.11
  -4   0   2    0.20    0.17
  -4   0  -2    0.04    0.14
  -4   0   2    0.04    0.16
  -4   0  -2    0.45    0.20
  -4   0  -2    0.04    0.13
  -4   0  -2    0.13    0.14
   4   0  -2    0.27    0.19
  -6   0   2    7.35    0.64
   6   0   2    7.55    0.65
  -6   0  -2    7.08    0.62
  -6   0  -2    7.74    0.65
   6   0  -2    6.66    0.64
  -6   0   2    7.69    0.68
   0   2  -2   11.07    0.36
   0   2  -2   11.59    0.37
   0  -2  -2   11.85    0.34
   0  -2   2   11.21    0.36
   0   2   2   11.21    0.38
   0  -2  -2   11.37    0.36
   0   2   2   12.19    0.32
   0  -2   2   11.72    0.33
   2   2  -2   30.32    0.69
   2   2  -2   29.21    0.93
  -2  -2  -2   29.75    0.80
   2  -2   2   29.41    0.79
  -2   2   2   28.58    0.89
  -2  -2  -2   29.52    0.90
  -2  -2  -2   31.09    0.70
  -2   2   2   30.00    0.76
  -2   2  -2   30.21    0.74
  -2  -2   2   29.35    0.81
   2   2   2   29.34    0.78
   2  -2  -2   30.06    0.87
  -2   2  -2   29.88    0.89
  -2  -2   2   30.42    0.78
  -2   2  -2   29.41    0.81
   2  -2  -2   31.08    0.74
  -4  -2  -2  102.67    2.26
  -4   2   2  100.53    2.52
  -4  -2  -2  100.11    2.53
  -4  -2  -2  100.89    2.29
   4  -2   2  104.05    2.32
   4   2  -2  102.16    2.63
  -4   2   2  100.40    2.16
  -4   2  -2  102.46    2.49
  -4   2  -2  100.91    2.29
  -4  -2   2  101.72    2.35
  -4  -2   2  100.47    2.35
   4   2   2  102.15    2.22
  -4   2  -2  101.29    2.29
   4  -2  -2  104.76    2.33
   4  -2  -2  100.32    2.40
  -6  -2  -2   11.71    0.78
   6   2  -2   10.06    0.83
   6  -2   2   11.49    0.81
  -6   2   2   10.70    0.81
  -6  -2   2    9.88    0.77
   6   2   2   10.52    0.84
  -6   2  -2   11.29    0.82
   6  -2  -2    9.69    0.80
   0   4  -2    0.11    0.10
   0  -4   2    0.05    0.09
   0  -4  -2    0.01    0.08
   0   4  -2    0.70    0.16
   0   4   2    0.00    0.09
   0   4   2    0.04    0.07
   0  -4  -2    0.00    0.09
   0  -4   2   -0.06    0.06
   2  -4   2  184.65    3.43
   2   4  -2  181.74    3.86
   2   4  -2  184.41    3.41
  -2  -4  -2  184.55    3.80
  -2   4   2  178.18    3.50
  -2  -4  -2  181.70    3.47
  -2   4   2  180.72    3.74
  -2  -4   2  184.65    3.44
   2  -4  -2  181.49    3.53
   2   4   2  183.62    3.50
  -2  -4   2  179.47    3.48
  -2   4  -2  184.43    3.76
  -2   4  -2  187.74    3.33
  -2   4  -2  177.37    3.56
  -4  -4  -2   69.83    2.03
   4  -4   2   70.50    1.82
  -4   4   2   69.41    1.73
  -4   4   2   66.86    1.99
  -4  -4  -2   68.11    1.79
   4   4  -2   69.01    2.11
   4  -4  -2   68.53    1.89
  -4   4  -2   68.07    1.99
   4   4   2   69.88    1.72
  -4  -4   2   70.78    1.85
  -4   4  -2   70.05    1.81
  -6   4   2   44.75    1.78
   6   4  -2   44.08    1.88
   6  -4   2   44.98    1.61
  -6  -4  -2   45.52    1.62
   6  -4  -2   48.97    1.75
  -6  -4   2   44.29    1.64
   6   4   2   41.48    1.80
  -6   4  -2   44.17    1.76
   0  -6   2  309.40    5.57
   0  -6  -2  312.28    5.64
   0  -6  -2  312.05    5.84
   0   6   2  311.75    5.72
   0   6   2  308.94    5.76
   0   6  -2  309.06    5.89
   0  -6   2  309.96    5.82
   0   6  -2  311.52    5.76
  -2   6   2   27.94    1.02
  -2  -6  -2   28.43    0.98
  -2   6   2   27.55    1.00
   2   6  -2   28.56    0.95
   2   6  -2   27.26    1.06
  -2  -6  -2   28.79    1.05
   2  -6   2   27.79    0.95
  -2   6  -2   28.06    1.04
   2  -6  -2   27.74    1.00
  -2  -6   2   29.55    1.00
   2   6   2   26.95    0.97
  -2   6  -2   28.74    1.03
  -2  -6   2   29.04    0.76
  -4   6   2   79.72    2.08
   4   6  -2   81.62    2.45
   4  -6   2   77.64    2.07
  -4   6   2   75.74    2.28
  -4  -6  -2   81.61    2.14
  -4  -6  -2   81.18    2.39
  -4   6  -2   82.74    2.17
   4  -6  -2   80.56    2.18
  -4  -6   2   80.50    2.13
   4   6   2   78.34    2.03
  -4   6  -2   77.19    2.31
  -6  -6  -2   12.78    0.89
   6  -6   2   11.10    0.85
   6   6  -2   12.33    1.07
  -6   6   2   15.09    1.05
  -6   6  -2   13.38    0.87
   6   6   2   13.59    1.09
   6  -6  -2   12.67    0.93
  -6   6  -2   12.68    0.99
  -6  -6   2   13.29    0.93
   0  -8  -2   -0.09    0.16
   0   8  -2    0.25    0.16
   0   8   2    0.04    0.19
   0  -8   2    0.15    0.15
   0   8   2    0.02    0.12
   0  -8  -2    0.04    0.13
   0   8  -2   -0.05    0.18
   0  -8   2   -0.25    0.12
   2   8  -2   11.51    0.67
  -2  -8  -2   10.09    0.65
  -2   8   2    9.41    0.66
  -2   8   2   10.33    0.66
   2  -8   2    9.87    0.65
   2   8  -2    9.39    0.68
   2  -8   2   10.52    0.64
  -2  -8  -2   10.26    0.69
  -2   8  -2   10.45    0.69
  -2  -8   2    9.75    0.64
   2   8   2   11.32    0.70
   2  -8  -2   10.19    0.68
   2   8   2    9.52    0.68
  -4  -8  -2    3.63    0.50
  -4   8   2    4.01    0.54
   4  -8   2    3.42    0.49
  -4   8   2    4.25    0.52
   4   8  -2    4.27    0.61
  -4   8  -2    3.96    0.55
  -4   8  -2    4.70    0.55
   4   8   2    3.40    0.55
   4  -8  -2    3.86    0.53
  -4  -8   2    3.46    0.51
   4   8   2    4.03    0.51
   0 -10   2  261.24    5.25
   0  10  -2  259.14    5.42
   0 -10  -2  267.02    5.31
   0  10   2  257.51    5.48
   2 -10   2    4.19    0.51
  -2 -10  -2    5.08    0.55
  -2  10   2    4.51    0.57
   2  10  -2    4.59    0.56
   2 -10   2    5.41    0.56
   2  10  -2    4.59    0.55
  -2  10   2    4.66    0.51
   2 -10  -2    4.86    0.55
  -2  10  -2    3.89    0.53
  -2 -10   2    3.85    0.50
   2  10   2    4.42    0.57
   2  10   2    4.20    0.52
   4  10  -2   53.19    2.11
   4 -10   2   49.77    1.97
   4 -10   2   51.54    1.80
  -4 -10  -2   49.18    1.84
  -4  10   2   53.17    1.86
  -4  10   2   52.64    1.96
   4  10   2   50.12    2.03
  -4  10  -2   52.65    1.90
   4 -10  -2   51.07    1.85
  -4 -10   2   52.49    1.87
   0  12   2   -0.04    0.25
   0 -12   2   -0.10    0.21
   0  12  -2   -0.27    0.22
   0 -12  -2    0.14    0.26
   2  12  -2   24.85    1.28
  -2  12   2   25.82    1.34
  -2 -12  -2   26.26    1.31
   2 -12   2   27.10    1.27
  -2 -12   2   25.62    1.28
   2 -12  -2   26.19    1.31
  -2  12  -2   27.51    1.36
   2  12   2   26.20    1.37
   1   1  -3  167.10    3.28
  -1  -1  -3  166.66    2.91
   1  -1   3  170.33    2.87
  -1  -1  -3  167.42    3.26
  -1   1   3  172.45    3.22
  -1   1   3  171.49    2.95
   1  -1   3  166.57    3.19
  -1  -1   3  171.39    2.98
   1  -1  -3  174.44    3.19
   1   1   3  169.65    3.04
   1   1   3  173.22    3.23
   1  -1  -3  168.91    3.02
  -1  -1   3  169.46    3.17
  -1   1  -3  168.51    3.05
  -1   1  -3  171.61    3.20
  -3   1   3  455.39    8.70
  -3  -1  -3  471.27    8.18
  -3  -1  -3  470.10    8.03
  -3  -1  -3  465.20    9.07
   3   1  -3  468.25    8.13
   3   1  -3  485.75    8.89
  -3   1   3  473.25    8.34
  -3  -1  -3  472.66    8.82
  -3   1   3  476.21    8.17
  -3  -1   3  446.19    8.13
   3  -1  -3  479.54    8.73
  -3   1  -3  464.10    8.21
  -3   1  -3  465.39    8.65
  -3   1  -3  455.10    8.00
  -3  -1   3  473.68    8.64
  -3   1  -3  472.24    9.38
  -5   1   3   27.49    1.11
  -5  -1  -3   28.05    1.04
  -5   1   3   26.94    1.15
  -5  -1  -3   27.56    1.14
   5   1  -3   25.86    1.16
  -5  -1  -3   25.97    1.05
   5   1   3   27.61    1.01
  -5  -1   3   26.70    1.08
   5  -1  -3   27.48    1.09
  -5  -1   3   26.90    1.12
  -5   1  -3   26.76    1.05
  -5   1  -3   27.87    1.04
  -5   1  -3   27.63    1.12
  -5   1  -3   28.03    1.03
  -7  -1  -3  122.55    3.16
  -7   1   3  125.57    3.39
   7  -1  -3  125.58    3.40
  -7  -1   3  125.62    3.30
   1  -3   3  397.82    8.02
  -1   3   3  396.76    7.38
   1   3  -3  408.80    8.26
   1  -3   3  413.26    7.26
  -1  -3  -3  404.18    8.03
  -1   3   3  403.40    7.57
   1   3  -3  428.66    7.49
  -1  -3  -3  405.23    7.46
  -1   3  -3  406.32    7.77
   1  -3  -3  396.56    7.68
   1   3   3  415.61    7.72
  -1   3  -3  394.05    7.71
  -1  -3   3  399.43    7.78
  -1  -3   3  417.90    7.93
   3   3  -3  381.74    6.56
   3   3  -3  387.04    7.48
  -3   3   3  376.60    7.29
  -3  -3  -3  381.16    6.70
   3  -3   3  388.18    6.69
  -3   3   3  377.97    6.72
  -3  -3  -3  385.43    6.85
  -3  -3  -3  378.13    7.40
  -3  -3   3  383.38    7.04
  -3   3  -3  367.84    6.84
  -3   3  -3  390.34    7.04
   3   3   3  377.48    6.80
  -3   3  -3  369.49    7.28
  -3  -3   3  368.74    6.76
   3  -3  -3  383.64    6.87
   3  -3  -3  384.57    7.01
  -5  -3  -3   39.46    1.33
   5   3  -3   37.83    1.55
   5  -3   3   37.72    1.32
  -5  -3  -3   39.99    1.52
  -5   3   3   39.06    1.49
  -5   3  -3   38.39    1.46
   5   3   3   39.41    1.26
  -5   3  -3   39.73    1.32
  -5  -3   3   37.98    1.37
   5  -3  -3   38.39    1.44
  -7   3   3   45.94    1.88
   7   3  -3   47.31    2.01
  -7  -3  -3   45.33    1.74
   7   3   3   41.92    1.94
   7  -3  -3   44.55    1.84
  -7   3  -3   44.52    1.82
  -7  -3   3   43.91    1.77
   1  -5   3  133.54    2.82
   1   5  -3  135.38    2.69
  -1  -5  -3  126.08    2.66
  -1   5   3  130.11    2.74
   1  -5   3  129.79    2.60
  -1  -5  -3  132.54    2.83
  -1   5   3  132.90    2.77
   1   5  -3  133.96    2.88
  -1  -5   3  134.75    2.67
   1   5   3  137.95    2.77
   1  -5  -3  135.89    2.51
   1  -5  -3  132.29    2.71
  -1  -5   3  134.32    2.65
  -1   5  -3  136.62    2.60
  -1   5  -3  132.81    2.76
   3  -5   3   89.60    2.05
   3   5  -3   85.55    2.36
   3   5  -3   89.23    1.94
  -3  -5  -3   88.04    2.34
  -3  -5  -3   89.13    2.10
  -3   5   3   90.70    2.09
  -3   5   3   87.56    2.29
  -3   5  -3   90.49    2.17
  -3  -5   3   90.29    1.94
  -3  -5   3   88.92    2.14
   3   5   3   91.65    2.12
  -3   5  -3   88.97    2.30
   3  -5  -3   87.05    2.19
  -5  -5  -3  152.20    3.89
  -5   5   3  152.47    3.80
   5   5  -3  155.19    4.00
  -5  -5  -3  154.69    3.45
   5  -5   3  149.55    3.39
  -5   5  -3  155.61    3.80
  -5   5  -3  151.70    3.48
   5  -5  -3  154.90    3.62
  -5  -5   3  153.17    3.52
  -1  -7  -3  314.44    5.96
  -1   7   3  319.14    6.16
   1   7  -3  324.10    6.04
   1  -7   3  321.74    5.86
  -1  -7  -3  325.35    6.29
   1  -7   3  325.78    6.26
  -1   7   3  324.25    6.13
   1   7  -3  322.47    6.35
  -1  -7   3  323.30    6.03
  -1  -7   3  319.87    5.91
   1   7   3  329.50    6.13
  -1   7  -3  314.45    6.10
   1  -7  -3  318.82    5.99
  -3   7   3   48.97    1.51
  -3  -7  -3   48.89    1.65
  -3   7   3   49.50    1.63
   3  -7   3   49.06    1.44
  -3  -7  -3   47.02    1.50
   3   7  -3   48.69    1.40
   3   7  -3   47.00    1.69
  -3   7  -3   48.57    1.57
   3   7   3   48.31    1.52
   3  -7  -3   49.25    1.59
  -3  -7   3   49.45    1.55
  -3   7  -3   48.25    1.62
  -5  -7  -3  160.22    3.68
  -5   7   3  160.52    3.61
  -5   7   3  156.62    4.04
   5   7  -3  162.40    4.28
   5  -7   3  156.44    3.65
  -5  -7   3  162.16    3.76
   5  -7  -3  160.34    3.80
  -5   7  -3  166.12    3.79
   5   7   3  155.23    4.16
  -5   7  -3  159.80    4.06
   1   9  -3  201.57    4.30
   1  -9   3  187.04    4.16
   1   9  -3  195.51    4.16
  -1   9   3  194.07    4.25
   1  -9   3  195.00    4.00
  -1  -9  -3  195.44    4.12
  -1   9   3  192.52    4.07
   1   9   3  199.54    4.21
   1  -9  -3  196.10    4.13
  -1  -9   3  200.56    4.09
  -1   9  -3  184.06    4.18
   1   9   3  201.72    4.27
  -3   9   3   16.25    0.92
   3   9  -3   16.51    1.02
   3  -9   3   16.84    0.89
  -3   9   3   17.34    0.97
   3  -9   3   15.40    0.94
  -3  -9  -3   17.15    0.94
   3   9   3   17.16    0.96
   3  -9  -3   15.75    0.93
  -3  -9   3   17.54    0.95
   3   9   3   17.79    1.01
  -3   9  -3   16.83    0.96
   5   9  -3  165.23    4.55
  -5   9   3  164.12    4.30
   5  -9   3  169.14    4.37
  -5   9   3  163.74    3.89
  -5  -9  -3  165.44    3.96
  -5   9  -3  165.51    4.06
  -5  -9   3  169.53    4.00
   5   9   3  161.82    4.53
   5  -9  -3  167.26    4.06
   1  11  -3   75.72    2.29
  -1 -11  -3   79.76    2.29
  -1  11   3   76.60    2.36
   1 -11   3   77.54    2.19
   1 -11  -3   77.43    2.29
  -1 -11   3   77.31    2.25
   1  11   3   78.94    2.41
  -1  11  -3   75.16    2.31
  -3  11   3   17.22    1.05
   3 -11   3   16.41    1.05
   3 -11   3   18.12    1.00
  -3  11   3   17.08    1.02
   3  11  -3   19.18    1.18
  -3 -11  -3   14.81    0.98
   3  11   3   20.29    1.18
  -3 -11   3   16.88    1.05
   3  11   3   15.65    1.05
  -3  11  -3   17.41    1.07
   3 -11  -3   18.51    1.10
   1  13  -3  117.78    3.22
   1 -13   3  113.13    3.07
  -1  13   3  114.33    3.29
  -1 -13  -3  115.60    3.18
  -1 -13   3  111.53    3.08
   1  13   3  115.29    3.31
  -1  13  -3  115.75    3.24
   1 -13  -3  114.12    3.16
   0   0  -4   28.66    0.62
   0   0   4   26.89    0.67
   0   0  -4   28.66    0.58
   0   0  -4   28.48    0.72
  -2   0   4   -0.38    0.10
  -2   0   4   -0.28    0.14
  -2   0  -4   -0.43    0.09
   2   0  -4    0.06    0.16
  -2   0   4   -0.29    0.06
  -2   0  -4   -0.27    0.12
  -2   0  -4   -0.20    0.10
  -2   0  -4   -0.25    0.12
   4   0  -4   23.38    0.96
  -4   0  -4   25.17    0.87
  -4   0  -4   23.07    0.93
  -4   0  -4   23.35    0.90
  -4   0   4   23.03    0.93
  -4   0  -4   23.86    0.89
  -4   0   4   23.61    0.94
  -6   0  -4   -0.12    0.20
  -6   0   4    0.17    0.25
  -6   0   4    0.00    0.20
  -6   0  -4    0.50    0.28
  -6   0  -4    0.32    0.24
   6   0  -4   -0.15    0.23
   0  -2  -4   -0.31    0.10
   0   2   4   -0.39    0.09
   0  -2  -4   -0.33    0.11
   0   2  -4   -0.53    0.09
   0  -2   4   -0.12    0.09
   0   2  -4   -0.18    0.14
  -2   2   4   70.72    1.42
   2  -2   4   67.86    1.39
   2   2  -4   69.41    1.27
  -2  -2  -4   69.34    1.45
   2   2  -4   63.50    1.68
  -2  -2  -4   68.15    1.68
   2  -2  -4   66.94    1.57
   2   2   4   66.72    1.52
  -2   2  -4   67.57    1.55
  -2  -2   4   67.47    1.54
  -2   2  -4   64.64    1.49
  -2   2  -4   69.91    1.64
   2  -2  -4   70.17    1.49
  -2  -2   4   68.39    1.52
   2   2   4   69.00    1.37
   4  -2   4   76.74    1.83
  -4   2   4   75.58    2.08
  -4  -2  -4   77.22    1.84
  -4  -2  -4   76.17    2.09
  -4  -2  -4   76.48    1.80
   4   2  -4   79.06    2.15
  -4   2   4   75.11    1.67
   4  -2  -4   76.35    1.89
   4  -2  -4   76.58    2.00
  -4   2  -4   75.75    1.87
  -4   2  -4   75.82    2.04
  -4  -2   4   76.36    1.95
  -4  -2   4   76.00    1.93
   4   2   4   74.50    1.87
  -4   2  -4   74.51    1.89
  -6  -2  -4    4.13    0.51
   6  -2   4    4.64    0.54
  -6  -2  -4    4.33    0.58
  -6   2   4    4.36    0.56
   6   2  -4    4.15    0.60
   6  -2  -4    4.95    0.63
  -6  -2   4    5.00    0.59
  -6   2  -4    4.54    0.57
  -6   2  -4    4.72    0.53
   0  -4  -4   42.52    1.06
   0   4  -4   42.55    1.10
   0  -4   4   42.47    1.11
   0  -4   4   43.64    1.04
   0   4   4   43.31    1.15
   0   4  -4   45.73    1.15
   0   4   4   42.10    1.00
   0  -4  -4   41.68    1.09
  -2   4   4  109.76    2.31
  -2  -4  -4  111.50    2.29
   2   4  -4  110.53    2.59
   2  -4   4  112.59    2.23
  -2  -4  -4  109.00    2.54
  -2   4   4  112.36    2.50
   2   4  -4  111.25    2.17
   2   4   4  106.69    2.35
   2  -4  -4  112.56    2.41
  -2   4  -4  114.89    2.21
   2  -4  -4  111.47    2.10
  -2  -4   4  108.26    2.32
  -2  -4   4  107.41    2.28
  -2   4  -4  108.61    2.51
  -2   4  -4  112.08    2.40
  -4   4   4   17.11    0.71
   4   4  -4   15.85    0.92
  -4  -4  -4   16.75    0.90
  -4   4   4   16.36    0.88
  -4  -4  -4   16.86    0.76
   4  -4   4   16.61    0.75
   4  -4  -4   15.92    0.84
   4   4   4   17.18    0.77
  -4  -4   4   17.02    0.72
  -4  -4   4   17.51    0.81
  -4   4  -4   16.57    0.80
  -4   4  -4   16.63    0.87
  -6  -4  -4   48.34    1.91
  -6   4   4   45.84    1.83
   6   4  -4   47.09    1.97
  -6  -4  -4   49.75    1.67
   6  -4  -4   44.43    1.74
  -6  -4   4   46.47    1.72
  -6   4  -4   48.03    1.66
  -6   4  -4   48.75    1.83
   0  -6   4   -0.49    0.11
   0   6  -4   -0.12    0.15
   0  -6  -4   -0.38    0.15
   0   6   4   -0.18    0.12
   0   6   4   -0.27    0.16
   0  -6   4   -0.14    0.14
   0  -6  -4   -0.30    0.12
   0   6  -4   -0.17    0.16
  -2   6   4   16.01    0.75
   2  -6   4   17.48    0.80
  -2  -6  -4   16.24    0.78
  -2  -6  -4   16.34    0.73
   2   6  -4   15.68    0.66
   2   6  -4   16.44    0.83
  -2   6   4   15.93    0.74
   2  -6   4   16.55    0.67
  -2  -6   4   16.19    0.59
   2   6   4   16.78    0.76
  -2  -6   4   15.62    0.72
   2  -6  -4   16.61    0.78
  -2   6  -4   16.09    0.78
  -4  -6  -4   91.07    2.60
  -4   6   4   91.86    2.57
   4   6  -4   88.89    2.66
  -4   6   4   92.68    2.26
  -4  -6  -4   92.46    2.33
   4  -6   4   94.34    2.29
   4  -6  -4   91.16    2.45
  -4   6  -4   91.28    2.57
  -4   6  -4   94.94    2.45
   4   6   4   91.72    2.33
  -4  -6   4   92.92    2.36
   6   6  -4    7.60    0.90
  -6   6   4    7.13    0.79
  -6  -6  -4    8.02    0.74
  -6   6  -4    9.03    0.77
   6  -6  -4    8.45    0.81
  -6  -6   4    8.10    0.75
  -6   6  -4    8.81    0.85
   6   6   4    9.88    0.94
   0  -8  -4   39.16    1.30
   0   8  -4   39.28    1.21
   0   8   4   39.66    1.36
   0  -8   4   39.09    1.20
   0  -8   4   39.64    1.24
   0   8  -4   38.54    1.31
  -2  -8  -4    4.54    0.46
   2   8  -4    5.28    0.53
  -2   8   4    6.15    0.51
  -2  -8  -4    5.62    0.53
   2  -8   4    6.20    0.49
   2   8  -4    5.29    0.48
  -2   8   4    5.18    0.52
   2  -8   4    5.85    0.53
   2   8   4    6.33    0.57
   2  -8  -4    4.59    0.50
  -2  -8   4    5.64    0.50
  -2   8  -4    6.90    0.58
   4  -8   4    7.52    0.62
  -4   8   4    9.03    0.76
   4  -8   4    8.20    0.74
  -4   8   4    8.62    0.66
  -4  -8  -4    7.92    0.67
  -4  -8  -4    8.21    0.76
   4   8  -4   10.25    0.89
   4  -8  -4    8.08    0.73
  -4  -8   4    8.31    0.69
  -4   8  -4    8.35    0.70
   4   8   4    8.18    0.68
   0  10   4   -0.08    0.22
   0 -10   4    0.10    0.19
   0 -10  -4    0.55    0.29
   0  10  -4   -0.09    0.19
  -2 -10  -4    2.09    0.41
   2  10  -4    3.18    0.51
   2 -10   4    3.19    0.46
   2  10  -4    3.55    0.53
  -2  10   4    2.95    0.51
  -2  10   4    3.64    0.48
   2 -10   4    3.92    0.51
   2 -10  -4    2.67    0.48
  -2 -10   4    3.42    0.47
  -2  10  -4    4.74    0.57
   2  10   4    3.04    0.47
   2  10   4    2.63    0.52
  -4  10   4   14.61    1.02
   4 -10   4   14.17    1.02
   4  10  -4   14.33    1.11
  -4 -10  -4   13.45    0.92
  -4  10   4   13.14    0.91
   4  10   4   11.85    0.96
   4  10   4   13.35    0.94
  -4  10  -4   14.03    0.97
  -4 -10   4   13.10    0.93
   4 -10  -4   15.42    1.01
   0 -12   4    7.54    0.69
   0 -12  -4    7.66    0.73
   0  12   4    7.77    0.81
   0  12  -4    8.35    0.79
  -2 -12  -4   30.57    1.43
   2  12  -4   32.61    1.44
   2 -12   4   31.98    1.35
  -2  12   4   30.92    1.46
  -2  12  -4   30.34    1.46
   2 -12  -4   31.29    1.45
  -2 -12   4   32.65    1.43
   2  12   4   28.14    1.42
  -1   1   5  607.27   11.94
  -1   1   5  630.45   10.86
  -1  -1  -5  615.68   12.48
  -1  -1  -5  618.65   11.66
   1  -1   5  621.15   11.92
   1   1  -5  600.12   12.04
  -1  -1  -5  621.19   10.77
  -1  -1   5  608.86   10.97
   1   1   5  643.08   11.52
  -1   1  -5  595.03   11.99
  -1  -1   5  590.57   11.97
   1  -1  -5  569.52   10.66
  -1   1  -5  616.69   11.49
   1  -1  -5  597.25   11.82
  -3  -1  -5   71.66    1.62
  -3   1   5   66.87    1.80
  -3  -1  -5   68.89    1.67
   3   1  -5   72.33    1.27
  -3  -1  -5   71.06    1.83
  -3   1   5   72.85    1.73
  -3  -1  -5   71.27    1.56
  -3   1   5   72.40    1.41
   3   1  -5   71.80    1.86
  -3   1  -5   72.04    1.54
  -3   1  -5   70.42    1.71
  -3  -1   5   71.75    1.76
   3  -1  -5   71.17    1.75
  -3  -1   5   69.64    1.70
  -3   1  -5   69.41    1.74
  -3   1  -5   70.61    1.73
  -5  -1  -5  358.04    6.70
   5   1  -5  363.57    7.45
  -5  -1  -5  370.58    7.04
  -5  -1  -5  370.41    7.40
  -5  -1  -5  360.53    6.83
  -5   1   5  357.97    6.88
  -5   1   5  353.77    7.29
  -5   1  -5  365.16    7.20
  -5  -1   5  359.35    7.21
   5  -1  -5  364.42    7.28
  -5   1  -5  360.67    6.63
  -5   1  -5  366.03    6.86
  -5   1  -5  361.51    7.23
  -5  -1   5  356.42    6.89
  -7   1   5   41.02    1.70
   7  -1  -5   38.69    1.71
  -7  -1   5   37.75    1.62
  -1  -3  -5  373.05    6.99
  -1   3   5  367.98    6.84
  -1   3   5  366.81    6.49
  -1  -3  -5  383.04    6.90
   1   3  -5  381.95    6.69
   1  -3   5  372.19    6.56
   1  -3   5  372.74    6.90
   1   3  -5  383.18    7.07
  -1   3  -5  343.19    6.53
  -1  -3   5  375.14    7.34
   1  -3  -5  373.29    6.48
  -1  -3   5  377.83    6.90
   1   3   5  373.24    6.55
   1  -3  -5  370.52    7.30
   1   3   5  382.53    6.77
  -1   3  -5  367.83    7.30
  -3   3   5  122.50    2.85
  -3  -3  -5  119.47    2.87
   3  -3   5  122.78    2.45
   3   3  -5  120.80    2.92
  -3   3   5  125.80    2.47
  -3  -3  -5  122.75    2.52
  -3  -3   5  120.62    2.59
   3  -3  -5  123.01    2.70
  -3  -3   5  122.60    2.63
   3  -3  -5  123.03    2.54
  -3   3  -5  122.39    2.82
  -3   3  -5  125.98    2.58
   3   3   5  122.91    2.61
  -3   3  -5  119.74    2.66
   3   3   5  124.29    2.38
  -5   3   5  242.21    5.37
   5   3  -5  244.89    5.53
  -5  -3  -5  249.04    4.85
  -5  -3  -5  244.35    5.42
   5  -3   5  246.06    4.79
  -5  -3   5  244.23    5.01
  -5   3  -5  236.63    5.25
  -5  -3   5  248.25    5.07
  -5   3  -5  242.45    5.00
   5  -3  -5  245.74    5.12
   5   3   5  246.60    4.91
  -7   3   5   73.22    2.49
   7   3  -5   72.83    2.65
   7   3   5   70.41    2.54
  -7  -3   5   71.95    2.37
   7  -3  -5   73.71    2.47
  -7   3  -5   73.47    2.45
  -1  -5  -5  319.47    5.68
   1  -5   5  312.17    5.53
  -1   5   5  318.60    5.99
   1   5  -5  321.42    6.22
   1   5  -5  321.59    5.72
  -1  -5  -5  323.31    6.15
   1  -5   5  306.26    6.07
  -1   5   5  318.59    5.82
   1   5   5  309.69    5.61
   1   5   5  332.96    5.90
  -1   5  -5  315.18    5.83
   1  -5  -5  320.20    5.84
  -1   5  -5  316.62    5.95
   1  -5  -5  311.49    5.76
  -1  -5   5  319.72    5.95
  -1  -5   5  319.36    5.65
  -3   5   5  283.18    5.24
  -3  -5  -5  275.16    5.76
  -3   5   5  282.16    5.69
   3  -5   5  282.65    5.13
   3   5  -5  270.83    5.84
  -3  -5  -5  279.84    5.23
  -3  -5   5  287.86    5.37
  -3  -5   5  276.07    5.26
  -3   5  -5  278.66    5.70
  -3   5  -5  272.57    5.38
   3  -5  -5  272.49    5.39
   3   5   5  274.27    5.33
  -5   5   5   81.36    2.48
  -5  -5  -5   81.37    2.17
  -5  -5  -5   79.60    2.48
   5   5  -5   82.06    2.62
  -5   5  -5   81.49    2.44
   5  -5  -5   80.55    2.38
  -5  -5   5   79.56    2.26
   5   5   5   78.89    2.16
  -5   5  -5   82.88    2.28
   1  -7   5  115.98    2.48
   1   7  -5  117.05    2.78
  -1   7   5  113.39    2.59
  -1  -7  -5  117.20    2.70
   1   7  -5  118.92    2.61
   1  -7   5  121.35    2.76
  -1  -7  -5  113.29    2.59
  -1   7   5  116.26    2.70
   1  -7  -5  118.07    2.69
  -1  -7   5  120.66    2.58
  -1   7  -5  119.91    2.71
  -1  -7   5  120.41    2.57
   1   7   5  116.90    2.75
   3  -7   5  320.60    6.57
  -3  -7  -5  312.97    6.06
   3   7  -5  320.35    6.72
  -3  -7  -5  320.81    6.65
  -3   7   5  328.74    6.16
  -3   7   5  317.53    6.50
   3  -7   5  325.14    5.90
   3   7   5  309.24    6.18
  -3   7  -5  317.39    6.26
  -3  -7   5  313.34    6.07
   3  -7  -5  310.15    6.22
  -5  -7  -5   30.07    1.48
  -5   7   5   28.50    1.40
   5   7  -5   29.63    1.53
  -5  -7  -5   28.47    1.24
   5  -7   5   36.18    1.57
   5   7   5   27.73    1.22
  -5   7  -5   29.16    1.34
  -5  -7   5   30.56    1.33
   5  -7  -5   28.29    1.35
   1   9  -5   88.08    2.35
  -1   9   5   87.32    2.39
   1  -9   5   87.43    2.15
  -1  -9  -5   84.00    2.22
   1  -9   5   88.05    2.31
  -1  -9  -5   87.84    2.31
   1   9  -5   87.02    2.28
   1   9   5   87.10    2.40
  -1  -9   5   88.48    2.24
  -1   9  -5   85.48    2.33
   1  -9  -5   85.35    2.31
   3  -9   5  294.13    6.36
  -3  -9  -5  293.12    5.96
  -3   9   5  302.58    6.31
   3   9  -5  303.26    6.58
  -3  -9  -5  298.83    6.45
  -3   9   5  298.99    6.04
   3  -9   5  297.79    5.77
  -3   9  -5  296.31    6.14
  -3  -9   5  301.83    6.01
   3  -9  -5  291.77    6.04
   3   9   5  302.58    6.14
  -5  -9  -5   12.89    0.93
  -5   9   5   13.05    1.01
   5  -9   5   12.97    1.03
   5   9  -5   13.91    1.14
  -5  -9   5   12.28    0.94
   5  -9  -5   13.82    1.00
   5   9   5   13.96    1.08
  -5   9  -5   13.30    0.95
   1  11  -5   89.99    2.51
  -1  11   5   91.02    2.65
  -1 -11  -5   90.60    2.54
   1 -11   5   90.72    2.42
  -1 -11   5   91.74    2.47
  -1  11  -5   88.05    2.56
   1 -11  -5   91.20    2.57
   1  11   5   90.52    2.63
   3 -11   5  187.19    4.55
  -3  11   5  188.96    4.38
   3  11  -5  188.50    4.71
  -3  11   5  187.13    4.42
  -3 -11  -5  184.44    4.33
   3  11   5  188.52    4.45
   3  11   5  185.69    4.61
  -3 -11   5  187.44    4.33
   3 -11  -5  183.55    4.39
  -3  11  -5  184.42    4.44
   1  13  -5   59.26    2.10
   1 -13   5   57.26    1.94
  -1 -13  -5   59.59    2.12
  -1  13   5   59.64    2.21
   1  13   5   58.93    2.23
   1 -13  -5   57.75    2.12
  -1 -13   5   59.83    2.04
  -1  13  -5   56.98    2.10
   0   0  -6   -0.01    0.08
   0   0  -6    0.27    0.08
   0   0  -6   -0.10    0.12
   0   0   6    0.56    0.14
  -2   0   6    4.07    0.32
   2   0  -6    4.78    0.35
  -2   0  -6    4.59    0.22
  -2   0  -6    4.05    0.32
  -2   0  -6    4.37    0.32
   2   0   6    4.61    0.29
  -2   0   6    4.92    0.32
  -4   0   6   -0.04    0.17
  -4   0  -6    0.09    0.18
   4   0  -6    0.00    0.19
  -4   0  -6    0.02    0.13
  -4   0   6    0.37    0.20
  -4   0  -6    0.07    0.15
  -6   0  -6   75.19    2.25
  -6   0   6   72.42    2.26
  -6   0   6   73.91    2.23
  -6   0  -6   73.43    2.12
   6   0  -6   72.85    2.45
   0   2  -6  264.33    4.61
   0   2   6  268.30    4.84
   0  -2  -6  265.10    4.56
   0  -2   6  257.31    4.93
   0   2  -6  257.65    5.04
   0  -2   6  270.57    4.59
   0   2   6  264.39    4.66
   0  -2  -6  265.00    5.02
  -2  -2  -6   42.13    1.00
   2  -2   6   43.13    1.20
  -2  -2  -6   42.34    1.24
  -2   2   6   44.66    0.99
   2  -2   6   43.01    0.93
  -2   2   6   41.85    1.22
   2   2  -6   42.26    1.27
   2  -2  -6   43.00    1.17
   2   2   6   43.96    0.97
  -2   2  -6   43.16    1.13
  -2  -2   6   41.20    1.14
   2  -2  -6   42.71    1.11
  -2  -2   6   43.91    1.10
   2   2   6   45.41    1.17
  -2   2  -6   43.87    1.16
   4   2  -6   39.14    1.45
  -4  -2  -6   40.51    1.41
   4  -2   6   43.28    1.19
  -4   2   6   40.34    1.41
  -4  -2  -6   41.05    1.20
  -4  -2   6   39.09    1.30
  -4   2  -6   41.78    1.36
  -4  -2   6   41.54    1.32
   4   2   6   41.59    1.32
  -4   2  -6   41.97    1.34
   4  -2  -6   40.68    1.27
  -4   2  -6   41.28    1.27
   4   2   6   40.61    1.15
   4  -2  -6   40.31    1.37
  -6   2   6   15.65    1.01
  -6  -2  -6   18.32    0.93
   6   2  -6   16.57    1.09
  -6  -2  -6   16.70    1.03
  -6  -2   6   18.02    1.02
   6  -2  -6   17.52    1.08
  -6   2  -6   17.24    1.00
   6   2   6   16.42    0.91
  -6  -2   6   17.67    0.97
  -6   2  -6   17.62    0.95
   0  -4   6    0.18    0.12
   0  -4   6   -0.01    0.08
   0   4  -6    0.65    0.16
   0  -4  -6    0.16    0.11
   0  -4  -6    0.01    0.11
   0   4   6    0.06    0.11
   0   4   6    0.63    0.13
   0   4  -6    0.17    0.14
   2  -4   6   40.18    1.26
  -2   4   6   40.85    1.24
   2   4  -6   43.29    0.99
  -2   4   6   42.43    1.13
   2  -4   6   42.75    1.01
   2   4  -6   41.06    1.35
  -2  -4  -6   43.87    1.32
  -2  -4  -6   41.91    1.12
  -2   4  -6   41.15    1.21
   2  -4  -6   43.54    1.26
  -2  -4   6   40.96    1.14
  -2  -4   6   41.43    1.14
   2  -4  -6   44.17    1.02
   2   4   6   41.05    1.19
  -2   4  -6   43.89    1.09
   4  -4   6  109.81    2.36
  -4  -4  -6  109.22    2.42
  -4   4   6  106.16    2.45
  -4  -4  -6  107.66    2.80
   4   4  -6  103.29    2.85
  -4   4   6  105.57    2.75
   4   4   6  103.88    2.50
  -4   4  -6  105.69    2.72
  -4  -4   6  105.06    2.49
   4  -4  -6  103.87    2.62
  -4  -4   6  106.13    2.54
  -4   4  -6  106.19    2.58
  -6  -4  -6   26.53    1.18
  -6   4   6   26.36    1.37
   6   4  -6   27.30    1.48
  -6  -4  -6   28.84    1.44
  -6   4  -6   26.54    1.33
  -6  -4   6   26.34    1.30
   6  -4  -6   27.09    1.34
  -6   4  -6   28.50    1.25
   0  -6   6   10.23    0.55
   0  -6   6   10.14    0.48
   0  -6  -6   10.41    0.50
   0  -6  -6   10.19    0.57
   0   6  -6   10.43    0.56
   0   6   6   10.08    0.43
   0   6   6    9.01    0.57
   0   6  -6    9.64    0.55
   2   6  -6   46.43    1.54
  -2  -6  -6   45.85    1.46
  -2   6   6   46.98    1.38
  -2   6   6   44.90    1.41
   2  -6   6   48.75    1.24
   2   6  -6   46.37    1.24
  -2  -6  -6   45.74    1.34
   2  -6   6   47.08    1.48
   2   6   6   46.44    1.42
  -2  -6   6   45.85    1.33
  -2   6  -6   47.15    1.44
   2  -6  -6   47.24    1.46
  -2  -6   6   47.30    1.27
  -4   6   6   31.15    1.12
  -4  -6  -6   30.66    1.16
  -4   6   6   30.87    1.33
   4  -6   6   29.62    1.31
   4   6  -6   30.36    1.40
  -4  -6  -6   29.76    1.33
   4   6   6   30.03    1.21
  -4  -6   6   29.49    1.19
   4  -6  -6   32.36    1.33
  -4   6  -6   29.47    1.22
   6  -6   6   23.10    1.32
  -6  -6  -6   21.82    1.33
  -6  -6  -6   21.89    1.13
   6   6  -6   20.46    1.38
  -6   6   6   20.66    1.29
  -6  -6   6   21.40    1.18
   6  -6  -6   25.36    1.34
  -6   6  -6   24.53    1.24
   0  -8   6    0.37    0.20
   0  -8  -6    0.19    0.21
   0   8   6    0.56    0.27
   0   8  -6    0.44    0.24
   0  -8   6    0.16    0.16
   0   8  -6   -0.01    0.18
  -2  -8  -6   97.91    2.60
  -2   8   6   96.41    2.50
  -2   8   6  101.83    2.52
  -2  -8  -6  102.64    2.48
   2  -8   6  103.13    2.64
   2  -8   6  100.78    2.30
   2   8  -6   99.48    2.69
   2   8  -6  100.36    2.37
  -2   8  -6   99.54    2.56
   2  -8  -6  102.52    2.56
   2   8   6   96.29    2.57
  -2  -8   6  101.16    2.45
  -4   8   6    5.57    0.55
   4   8  -6    5.37    0.69
  -4  -8  -6    5.79    0.60
  -4   8   6    5.15    0.62
   4  -8   6    5.21    0.63
  -4  -8  -6    6.01    0.66
   4  -8  -6    5.14    0.61
   4   8   6    5.79    0.61
  -4  -8   6    5.65    0.59
  -4   8  -6    5.68    0.63
   0  10  -6    1.55    0.37
   0 -10   6    1.52    0.34
   0 -10  -6    3.34    0.53
   0  10   6    1.63    0.41
   2  10  -6    7.57    0.63
  -2  10   6    7.15    0.67
   2 -10   6    7.31    0.60
   2  10  -6    6.89    0.69
  -2 -10  -6    7.04    0.64
  -2 -10  -6    4.88    0.55
   2 -10   6    7.44    0.67
   2 -10  -6    6.14    0.65
   2  10   6    6.99    0.70
  -2  10  -6    6.86    0.67
  -2 -10   6    6.50    0.60
  -4 -10  -6   19.60    1.10
  -4  10   6   21.56    1.21
  -4 -10  -6   19.83    1.24
  -4  10   6   20.50    1.09
   4 -10   6   20.05    1.22
   4  10  -6   20.12    1.31
  -4  10  -6   18.85    1.14
  -4 -10   6   19.21    1.11
   4  10   6   18.55    1.22
   4 -10  -6   19.69    1.18
   4  10   6   19.98    1.17
   0  12  -6    0.22    0.32
   0 -12  -6    0.02    0.29
   0 -12   6   -0.15    0.19
   0  12   6    0.03    0.29
  -2  12   6   36.03    1.60
   2 -12   6   35.16    1.52
  -2 -12  -6   33.14    1.52
  -2  12  -6   33.14    1.53
   2 -12  -6   34.90    1.56
   2  12   6   34.35    1.59
  -2 -12   6   36.16    1.50
   1   1  -7    4.75    0.19
  -1   1   7    4.46    0.22
   1   1  -7    4.99    0.35
  -1  -1  -7    4.73    0.20
   1  -1   7    4.88    0.31
  -1  -1  -7    4.18    0.29
  -1  -1  -7    4.98    0.33
  -1   1   7    4.72    0.32
  -1   1  -7    4.76    0.32
   1   1   7    4.75    0.26
  -1  -1   7    4.99    0.26
   1  -1  -7    5.12    0.33
   1  -1  -7    5.64    0.31
  -1  -1   7    4.18    0.30
  -3   1   7   66.03    1.79
  -3   1   7   65.11    1.27
  -3   1   7   67.81    1.68
  -3  -1  -7   65.95    1.45
   3   1  -7   65.11    1.83
  -3  -1  -7   65.19    1.78
   3  -1   7   66.01    1.69
  -3  -1  -7   66.34    1.66
  -3   1  -7   63.48    1.69
   3  -1  -7   65.04    1.71
  -3   1  -7   71.04    1.70
  -3   1  -7   65.14    1.40
  -3  -1   7   65.76    1.67
   3   1   7   64.42    1.56
  -3  -1   7   65.70    1.72
  -5  -1  -7   15.81    0.84
   5  -1   7   17.25    0.89
  -5  -1  -7   17.13    0.77
  -5   1   7   16.25    0.92
  -5  -1  -7   17.27    0.94
  -5   1   7   16.68    0.91
   5   1  -7   16.33    0.95
  -5  -1   7   16.12    0.88
  -5   1  -7   15.93    0.85
  -5  -1   7   16.24    0.89
   5  -1  -7   16.58    0.90
  -5   1  -7   14.83    0.83
  -7   1   7    2.51    0.57
   7  -1  -7    1.24    0.44
  -7  -1   7    1.82    0.49
   1   3  -7   55.95    1.17
  -1   3   7   57.78    1.31
  -1  -3  -7   55.43    1.23
  -1  -3  -7   54.84    1.44
   1  -3   7   56.27    1.08
   1  -3   7   53.82    1.41
   1   3  -7   57.47    1.51
  -1   3   7   54.97    1.39
  -1  -3   7   55.86    1.39
  -1   3  -7   53.25    1.33
   1   3   7   54.35    1.35
   1   3   7   57.70    1.18
  -1   3  -7   56.21    1.39
  -1  -3   7   54.78    1.23
   1  -3  -7   54.48    1.34
   1  -3  -7   55.17    1.33
  -3  -3  -7    2.72    0.29
   3  -3   7    2.32    0.34
   3  -3   7    2.31    0.24
  -3  -3  -7    2.13    0.34
  -3   3   7    2.17    0.34
  -3   3   7    2.33    0.24
   3   3  -7    1.49    0.34
  -3   3  -7    2.05    0.32
   3   3   7    2.02    0.32
  -3  -3   7    2.22    0.32
   3  -3  -7    3.58    0.40
  -3  -3   7    2.28    0.31
   3  -3  -7    3.28    0.32
  -5   3   7    1.06    0.36
   5   3  -7    1.44    0.43
  -5  -3  -7    2.25    0.37
   5  -3   7    1.59    0.39
  -5  -3  -7    1.42    0.40
   5   3   7    1.68    0.39
  -5  -3   7    1.74    0.37
  -5  -3   7    1.53    0.37
   5  -3  -7    1.35    0.38
  -5   3  -7    1.48    0.36
  -1   5   7   88.55    2.03
   1  -5   7   88.21    2.12
  -1  -5  -7   86.45    1.93
   1  -5   7   89.81    1.78
   1   5  -7   86.91    1.89
  -1   5   7   84.54    2.00
   1   5  -7   86.66    2.20
  -1  -5  -7   87.79    2.12
  -1   5  -7   88.48    2.04
   1   5   7   89.56    2.07
  -1  -5   7   85.09    1.88
   1   5   7   87.62    1.68
  -1  -5   7   85.81    2.01
   1  -5  -7   89.22    2.04
  -1   5  -7   85.85    1.98
  -3   5   7   10.72    0.56
   3  -5   7    9.72    0.49
  -3  -5  -7   10.78    0.59
  -3  -5  -7   10.99    0.71
  -3   5   7    9.58    0.66
   3   5  -7    8.77    0.69
   3  -5   7    9.16    0.64
  -3   5  -7    9.08    0.61
  -3  -5   7    9.97    0.59
   3   5   7   10.38    0.62
   3  -5  -7   10.08    0.67
  -3  -5   7   10.17    0.56
   5  -5   7    0.41    0.28
  -5  -5  -7    0.22    0.27
  -5   5   7    0.24    0.29
  -5  -5  -7    0.68    0.27
   5  -5  -7    0.42    0.29
   5   5   7    1.75    0.39
  -5  -5   7    0.17    0.23
  -5   5  -7    0.40    0.27
   1  -7   7    1.69    0.28
  -1   7   7    1.15    0.26
  -1  -7  -7    1.84    0.34
   1   7  -7    1.55    0.29
   1  -7   7    1.56    0.33
  -1   7   7    1.72    0.35
   1   7  -7    1.58    0.34
  -1  -7  -7    1.93    0.34
   1  -7  -7    1.49    0.32
  -1   7  -7    1.94    0.30
  -1  -7   7    1.33    0.27
   1   7   7    1.46    0.33
  -1  -7   7    1.78    0.31
  -1   7  -7    1.39    0.32
   3   7  -7   17.01    1.00
  -3   7   7   15.86    0.89
  -3  -7  -7   16.29    0.93
  -3   7   7   16.92    0.82
   3  -7   7   17.41    0.96
  -3  -7  -7   15.93    0.82
   3   7   7   17.87    0.91
  -3   7  -7   15.97    0.89
   3  -7  -7   16.53    0.92
  -3  -7   7   17.85    0.86
   5  -7   7   31.12    1.50
  -5  -7  -7   31.24    1.28
  -5   7   7   28.82    1.45
  -5  -7  -7   31.21    1.52
   5   7  -7   30.29    1.60
   5  -7  -7   29.65    1.43
  -5  -7   7   32.04    1.37
   5   7   7   30.83    1.35
  -5   7  -7   30.63    1.40
  -1  -9  -7    9.13    0.63
  -1  -9  -7    8.51    0.66
   1  -9   7    8.80    0.58
   1   9  -7    9.92    0.71
  -1   9   7   10.13    0.74
   1  -9   7    9.31    0.66
   1   9  -7    9.20    0.65
   1  -9  -7    7.78    0.65
  -1  -9   7    9.14    0.62
  -1   9  -7    8.80    0.68
   1   9   7   10.00    0.73
  -3  -9  -7    8.92    0.76
   3  -9   7    8.76    0.75
  -3   9   7    9.40    0.73
  -3  -9  -7    7.91    0.67
   3   9  -7    9.02    0.82
  -3   9   7    8.72    0.69
  -3  -9   7    8.92    0.69
   3   9   7    8.66    0.75
   3  -9  -7    8.14    0.75
  -3   9  -7    8.46    0.74
   5   9  -7   23.17    1.47
  -5  -9  -7   23.96    1.21
  -5   9   7   23.82    1.34
   5  -9   7   21.47    1.32
  -5  -9  -7   22.62    1.39
   5   9   7   20.63    1.19
  -5   9  -7   22.01    1.26
  -5  -9   7   20.67    1.21
   5  -9  -7   22.96    1.32
   1 -11   7   38.14    1.47
  -1 -11  -7   36.31    1.50
   1  11  -7   36.44    1.44
   1 -11   7   36.78    1.36
  -1  11   7   39.14    1.61
   1 -11  -7   37.87    1.55
   1  11   7   38.27    1.61
  -1  11  -7   36.39    1.53
  -1 -11   7   40.35    1.46
  -3  11   7    0.01    0.28
  -3 -11  -7    0.85    0.37
   3  11  -7    0.57    0.40
  -3 -11  -7    0.77    0.38
   3 -11   7    0.08    0.29
  -3 -11   7    0.19    0.28
   3  11   7    0.25    0.33
   3 -11  -7    0.27    0.32
  -3  11  -7    0.36    0.31
  -1 -13  -7    9.89    0.89
  -1  13   7    8.02    0.88
   1  13  -7    9.16    0.83
   1  13   7    8.49    0.89
  -1 -13   7    8.53    0.78
  -1  13  -7   10.16    0.91
   1 -13  -7    9.20    0.87
   0   0  -8  198.46    3.57
   0   0  -8  196.21    3.98
   0   0   8  198.25    3.83
   0   0  -8  197.56    3.39
   2   0  -8   -0.30    0.14
  -2   0  -8    0.28    0.18
  -2   0  -8    0.08    0.16
   2   0   8    0.27    0.17
  -2   0   8    0.22    0.18
  -4   0   8  407.92    7.62
   4   0  -8  419.29    8.27
   4   0   8  428.10    7.94
  -4   0  -8  427.31    7.27
  -4   0  -8  415.08    7.72
  -4   0   8  404.89    8.10
  -4   0  -8  413.06    8.18
  -6   0   8    0.22    0.27
  -6   0  -8   -0.17    0.24
  -6   0  -8    0.02    0.25
  -6   0   8    0.04    0.23
   0   2   8    0.00    0.14
   0   2   8   -0.17    0.12
   0   2  -8   -0.23    0.16
   0   2  -8    0.05    0.13
   0  -2   8   -0.19    0.14
   0  -2  -8   -0.38    0.10
   2  -2   8 1000.00   16.03
  -2   2   8  928.98   16.84
  -2  -2  -8  907.05   18.62
  -2   2   8  979.14   18.85
   2   2  -8  944.06   17.33
   2  -2   8  948.03   18.41
  -2  -2  -8  949.37   16.38
  -2   2  -8  934.03   18.51
   2  -2  -8  945.56   18.26
   2  -2  -8  934.03   16.60
  -2   2  -8  952.32   17.65
   2   2   8  919.68   17.45
  -2  -2   8  930.60   17.85
   2   2   8  991.80   17.78
  -2  -2   8  891.81   18.38
   4   2  -8    6.87    0.62
  -4   2   8    6.54    0.57
  -4  -2  -8    6.72    0.58
   4  -2   8    6.83    0.55
  -4  -2  -8    6.89    0.45
  -4  -2   8    7.63    0.55
  -4   2  -8    7.18    0.55
   4   2   8    6.50    0.54
   4  -2  -8    7.27    0.59
   4  -2  -8    6.86    0.52
  -4   2  -8    6.67    0.50
  -4  -2   8    6.49    0.53
   6  -2   8  115.89    3.15
   6   2  -8  117.18    3.39
  -6   2   8  116.65    3.26
  -6  -2  -8  118.23    3.28
  -6  -2   8  117.67    3.08
   6  -2  -8  117.73    3.20
   6   2   8  119.27    3.03
  -6  -2   8  123.17    3.15
  -6   2  -8  117.05    3.04
   0   4   8  570.39   10.93
   0  -4  -8  548.12    9.54
   0   4  -8  565.14   10.43
   0   4   8  551.79   10.63
   0  -4   8  552.26   10.24
   0   4  -8  568.55    9.67
   0  -4   8  554.63   10.07
  -2   4   8    9.93    0.58
  -2  -4  -8   10.31    0.50
   2   4  -8    9.04    0.64
   2   4  -8    9.97    0.38
   2  -4   8   10.00    0.39
  -2  -4  -8    9.07    0.59
   2  -4   8   12.50    0.65
  -2   4   8   10.75    0.52
  -2   4  -8   12.62    0.62
   2  -4  -8   10.42    0.48
  -2   4  -8   10.00    0.52
  -2  -4   8    9.75    0.52
   2   4   8   10.10    0.57
  -2  -4   8   10.14    0.55
   2  -4  -8    9.70    0.59
   4  -4   8  365.45    7.24
  -4  -4  -8  360.47    6.51
  -4   4   8  368.88    7.30
  -4  -4  -8  361.45    7.39
   4   4  -8  354.40    7.47
  -4   4  -8  351.92    6.87
  -4  -4   8  354.10    6.95
  -4  -4   8  356.01    6.70
   4  -4  -8  347.89    6.85
   4   4   8  345.74    6.79
   6   4  -8    4.21    0.71
  -6   4   8    4.75    0.65
  -6  -4  -8    4.44    0.64
   6  -4   8    5.31    0.68
   6   4   8    3.46    0.54
  -6  -4   8    4.24    0.59
  -6   4  -8    4.37    0.56
   6  -4  -8    4.20    0.63
   0   6  -8    0.01    0.16
   0   6   8    0.55    0.16
   0   6   8    0.12    0.16
   0  -6   8    1.29    0.28
   0  -6  -8    0.07    0.16
   0  -6  -8    0.45    0.18
   0  -6   8    0.06    0.12
   0   6  -8    0.40    0.18
   2   6  -8  287.77    5.99
  -2   6   8  283.37    5.68
  -2  -6  -8  281.30    5.28
  -2  -6  -8  282.01    5.84
   2  -6   8  288.67    5.04
   2   6  -8  292.63    5.18
   2  -6   8  267.71    5.75
  -2   6   8  276.15    5.41
   2  -6  -8  285.52    5.52
  -2  -6   8  284.99    5.55
  -2   6  -8  274.01    5.50
  -2  -6   8  281.84    5.28
   2   6   8  283.05    5.54
  -4  -6  -8    7.27    0.56
   4  -6   8    8.72    0.73
   4   6  -8    7.71    0.75
  -4  -6  -8   12.01    0.85
  -4   6   8    7.66    0.68
  -4  -6   8    9.01    0.67
   4   6   8    7.38    0.63
  -4   6  -8    8.79    0.69
   4  -6  -8    8.41    0.71
  -6   6   8  270.63    6.27
   6  -6   8  269.77    6.26
  -6  -6  -8  271.38    6.38
   6   6  -8  282.38    6.65
  -6   6  -8  258.76    5.87
   6  -6  -8  268.61    5.95
  -6  -6   8  274.96    5.86
   0  -8  -8  848.54   14.86
   0  -8   8  847.25   15.75
   0  -8   8  849.65   14.63
   0   8  -8  881.60   15.06
   0   8   8  857.94   15.21
   0   8  -8  879.22   15.95
  -2  -8  -8    0.30    0.22
  -2   8   8    0.98    0.30
   2  -8   8    1.02    0.32
  -2  -8  -8    0.27    0.26
   2   8  -8    0.80    0.33
  -2   8   8    0.81    0.30
   2   8   8    0.56    0.27
   2  -8  -8    0.69    0.29
  -2   8  -8    0.53    0.27
  -2  -8   8    0.81    0.25
  -4  -8  -8  240.04    5.08
  -4   8   8  237.77    5.09
   4   8  -8  243.74    5.83
  -4   8   8  252.28    5.58
  -4  -8  -8  253.53    5.73
   4  -8   8  245.15    5.64
  -4  -8   8  247.73    5.15
   4  -8  -8  248.42    5.44
   4   8   8  248.15    5.32
  -4   8  -8  252.82    5.38
   0  10   8   -0.02    0.22
   0 -10   8   -0.06    0.19
   0 -10  -8    0.10    0.24
   0  10  -8    0.11    0.25
   0 -10   8   -0.09    0.19
  -2 -10  -8  102.77    2.78
   2  10  -8   99.14    2.91
  -2  10   8  102.62    2.78
   2 -10   8   99.77    2.80
  -2 -10  -8  101.87    2.70
   2  10   8   97.65    2.81
  -2 -10   8  101.95    2.64
  -2  10  -8  102.53    2.82
   2 -10  -8  101.04    2.79
  -4  10   8    1.66    0.42
  -4 -10  -8    1.68    0.49
   4  10  -8    1.45    0.53
  -4 -10  -8    4.76    0.70
   4 -10   8    1.26    0.43
  -4  10   8    2.02    0.52
  -4 -10   8    1.40    0.43
  -4  10  -8    1.98    0.49
   4 -10  -8    1.27    0.46
   4  10   8    1.88    0.50
   0  12  -8  325.46    6.58
   0 -12   8  316.57    6.30
   0  12   8  308.78    6.79
   0 -12  -8  310.79    6.54
  -2 -12  -8    2.06    0.47
  -2  12   8    3.61    0.67
   2 -12   8    3.14    0.60
   2  12   8    3.57    0.67
  -2 -12   8    3.72    0.56
   2 -12  -8    3.01    0.60
  -1  -1  -9    0.54    0.09
   1   1  -9    0.72    0.12
  -1   1   9    0.47    0.11
  -1   1   9    0.45    0.16
   1   1  -9    0.68    0.21
  -1  -1  -9    0.78    0.21
   1  -1   9    0.43    0.15
   1  -1  -9    0.19    0.14
  -1   1  -9    1.20    0.20
  -1  -1   9    0.25    0.11
  -1  -1   9    0.47    0.17
   1   1   9    0.38    0.15
   1   1   9    0.40    0.14
  -1   1  -9    0.54    0.18
   1  -1  -9    0.33    0.14
  -3   1   9    1.21    0.28
  -3  -1  -9    1.37    0.20
  -3  -1  -9    1.25    0.29
   3   1  -9    1.39    0.34
  -3   1   9    0.91    0.26
  -3  -1  -9    1.34    0.29
   3  -1   9    1.26    0.26
  -3   1  -9    0.92    0.24
   3  -1  -9    0.73    0.25
  -3   1  -9    1.20    0.18
  -3  -1   9    1.46    0.28
   3   1   9    1.47    0.26
  -3   1  -9    1.33    0.29
  -5   1   9    8.48    0.68
  -5  -1  -9    9.13    0.67
   5   1  -9    8.05    0.73
   5  -1   9    7.53    0.62
  -5   1   9    8.37    0.71
  -5  -1  -9    8.60    0.71
   5  -1  -9    7.94    0.67
  -5   1  -9    7.87    0.64
   5   1   9    7.80    0.64
  -5  -1   9    8.22    0.66
  -5   1  -9    8.29    0.67
  -5  -1   9    8.23    0.67
   1  -3   9  146.12    2.44
  -1   3   9  137.99    2.98
  -1   3   9  148.00    2.81
   1   3  -9  141.24    2.64
   1   3  -9  143.92    3.19
   1  -3   9  144.85    3.05
  -1  -3  -9  144.07    2.69
  -1  -3  -9  142.28    3.13
  -1   3  -9  145.45    2.90
  -1   3  -9  140.31    3.07
   1   3   9  140.25    2.90
  -1  -3   9  142.63    2.69
   1  -3  -9  142.08    3.01
   1  -3  -9  137.53    2.83
  -1  -3   9  143.08    3.03
   1   3   9  145.64    2.80
   3   3  -9   31.12    1.27
  -3  -3  -9   31.10    1.20
  -3  -3  -9   32.73    0.94
   3  -3   9   29.84    1.14
  -3   3   9   31.35    0.86
  -3   3   9   29.22    1.16
   3   3   9   32.67    1.13
  -3  -3   9   32.72    1.08
   3  -3  -9   31.07    1.14
  -3   3  -9   30.38    1.11
  -3  -3   9   30.75    1.09
   3  -3  -9   32.41    1.04
   5   3  -9    0.82    0.39
   5  -3   9    0.51    0.30
  -5  -3  -9    1.11    0.41
  -5   3   9    0.69    0.35
   5  -3  -9    1.06    0.38
   5   3   9    0.83    0.32
  -5  -3   9    0.86    0.29
  -5   3  -9    0.64    0.31
  -5  -3   9    1.19    0.35
   1  -5   9   41.91    0.99
   1   5  -9   40.07    1.38
  -1  -5  -9   41.36    1.31
  -1   5   9   42.26    1.24
  -1  -5  -9   42.24    1.18
   1   5  -9   43.60    1.12
   1  -5   9   43.09    1.33
  -1   5   9   41.23    1.23
  -1   5  -9   42.88    1.26
  -1  -5   9   43.30    1.14
   1  -5  -9   41.16    1.16
   1   5   9   41.23    1.29
  -1   5  -9   42.55    1.25
   1  -5  -9   44.11    1.29
  -1  -5   9   42.65    1.27
  -3  -5  -9    2.76    0.43
  -3   5   9    2.38    0.42
   3  -5   9    4.16    0.47
  -3   5   9    2.12    0.30
   3   5  -9    2.15    0.45
  -3  -5  -9    2.65    0.33
   3   5   9    2.63    0.40
  -3  -5   9    2.89    0.36
  -3  -5   9    2.42    0.35
   3  -5  -9    3.14    0.48
  -3   5  -9    2.49    0.38
   5   5  -9   12.48    1.01
  -5   5   9   14.57    0.99
  -5  -5  -9   14.44    0.81
  -5  -5  -9   14.48    1.02
   5  -5   9   14.12    0.95
  -5  -5   9   15.74    0.92
   5  -5  -9   14.47    0.97
   5   5   9   13.34    0.88
  -5   5  -9   14.66    0.93
  -1  -7  -9   46.53    1.42
   1   7  -9   47.31    1.35
  -1   7   9   45.49    1.37
  -1   7   9   48.41    1.51
   1   7  -9   47.68    1.58
   1  -7   9   48.57    1.25
   1  -7   9   48.42    1.54
  -1  -7  -9   47.41    1.50
  -1   7  -9   49.19    1.41
  -1   7  -9   47.46    1.49
   1   7   9   45.70    1.52
   1  -7  -9   48.71    1.53
  -1  -7   9   47.81    1.35
  -1  -7   9   49.33    1.46
   3   7  -9   13.89    0.95
  -3  -7  -9   15.28    0.79
   3  -7   9   14.56    0.89
  -3  -7  -9   14.99    0.91
  -3   7   9   14.74    0.87
  -3   7   9   13.51    0.75
  -3   7  -9   14.64    0.88
  -3  -7   9   14.23    0.78
   3  -7  -9   13.97    0.87
   3   7   9   13.67    0.85
  -5   7   9    1.50    0.48
   5  -7   9    0.14    0.29
   5   7  -9    0.60    0.42
  -5  -7  -9    1.18    0.37
  -5  -7  -9    0.48    0.36
   5  -7  -9    0.38    0.34
  -5   7  -9    0.19    0.27
  -5  -7   9    1.41    0.41
   5   7   9    0.65    0.36
   1  -9   9    3.12    0.46
  -1   9   9    4.20    0.54
   1   9  -9    3.67    0.54
   1   9  -9    3.13    0.45
  -1  -9  -9    4.19    0.49
  -1  -9  -9    3.78    0.47
  -1  -9   9    3.75    0.43
  -1   9  -9    3.76    0.49
  -1  -9   9    3.47    0.45
   1   9   9    4.42    0.58
   1  -9  -9    3.65    0.50
  -3  -9  -9    2.92    0.56
  -3   9   9    2.86    0.52
  -3   9   9    2.52    0.46
   3   9  -9    2.43    0.56
  -3  -9  -9    4.23    0.53
   3  -9   9    2.09    0.48
  -3  -9   9    2.90    0.48
  -3   9  -9    3.47    0.58
   3   9   9    3.07    0.55
   3  -9  -9    2.32    0.48
  -5  -9  -9    0.28    0.30
   5   9  -9    0.96    0.51
  -5  -9  -9    0.91    0.45
   5  -9   9    0.48    0.35
  -5   9   9    0.21    0.31
   5   9   9    0.47    0.39
  -5  -9   9    0.49    0.34
  -5   9  -9    0.55    0.37
   5  -9  -9    0.66    0.40
   1 -11   9   13.51    0.89
  -1  11   9   12.08    0.93
  -1 -11  -9   12.98    0.92
   1  11  -9   12.96    0.86
  -1  11  -9   11.98    0.88
   1  11   9   11.81    0.95
   1 -11  -9   12.65    0.93
  -1 -11   9   12.60    0.81
   3 -11   9    0.59    0.37
   3  11  -9    0.98    0.52
  -3 -11  -9    0.62    0.33
  -3 -11  -9    0.42    0.33
  -3  11   9    0.67    0.35
  -3 -11   9    0.71    0.35
   3  11   9    0.67    0.41
  -3  11  -9    0.37    0.36
   3 -11  -9    0.31    0.34
   0   0 -10    0.23    0.15
   0   0 -10    0.01    0.10
   0   0  10   -0.06    0.10
   0   0 -10    0.07    0.07
  -2   0 -10   40.40    0.78
  -2   0 -10   38.15    1.17
  -2   0  10   40.70    1.25
  -2   0  10   40.92    1.12
  -2   0 -10   39.61    1.27
   2   0 -10   42.48    1.31
  -2   0  10   40.88    0.78
   2   0  10   39.54    1.14
   4   0 -10    0.31    0.26
  -4   0 -10    0.09    0.20
  -4   0  10   -0.06    0.18
  -4   0 -10   -0.05    0.18
  -4   0  10    0.12    0.19
   4   0  10   -0.29    0.12
  -6   0  10  224.86    5.34
  -6   0  10  234.81    5.16
  -6   0 -10  241.58    5.15
  -6   0 -10  237.23    5.36
   0  -2 -10  637.12   13.15
   0  -2 -10  641.51   11.67
   0  -2  10  681.18   11.15
   0   2  10  658.67   12.51
   0   2  10  691.45   11.92
   0   2 -10  611.28   12.20
   0  -2  10  665.45   12.85
   0   2 -10  681.28   12.62
  -2   2  10    6.82    0.34
  -2   2  10    7.76    0.51
   2   2 -10    6.83    0.55
  -2  -2 -10    7.32    0.34
   2  -2  10    7.22    0.48
  -2   2 -10    9.54    0.54
   2   2  10    7.79    0.50
   2  -2 -10    7.09    0.47
  -2  -2  10    6.97    0.48
   2  -2 -10    7.78    0.50
  -2   2 -10    6.80    0.48
   2   2  10    7.77    0.39
  -2  -2  10    7.71    0.43
   4   2 -10  151.85    3.79
   4  -2  10  155.17    3.54
  -4  -2 -10  154.74    3.70
  -4   2  10  157.62    3.68
   4   2  10  151.41    3.46
  -4   2 -10  150.98    3.45
   4  -2 -10  151.27    3.48
  -4   2 -10  154.67    3.50
  -4  -2  10  151.27    3.38
  -4  -2  10  151.02    3.51
   4  -2 -10  152.61    3.48
  -6  -2 -10    4.41    0.63
   6  -2  10    3.03    0.55
   6   2 -10    2.74    0.60
  -6   2  10    3.14    0.59
   6   2  10    3.27    0.59
  -6  -2  10    3.62    0.54
  -6   2 -10    3.82    0.57
   6  -2 -10    2.55    0.54
  -6  -2  10    2.84    0.54
   0   4  10   -0.05    0.10
   0  -4  10    0.48    0.21
   0  -4 -10    1.54    0.26
   0   4 -10    0.47    0.23
   0  -4  10    0.79    0.15
   0   4  10    0.32    0.17
  -2   4  10  168.16    3.30
   2  -4  10  170.30    3.70
   2   4 -10  166.02    3.85
  -2  -4 -10  170.50    3.79
  -2  -4 -10  168.46    3.26
  -2   4  10  166.97    3.65
  -2   4 -10  172.34    3.62
   2   4  10  168.52    3.54
  -2   4 -10  170.61    3.54
   2  -4 -10  168.06    3.50
  -2  -4  10  165.17    3.31
   2  -4 -10  168.98    3.51
  -2  -4  10  168.02    3.62
  -4  -4 -10   18.31    1.03
  -4  -4 -10   18.77    0.79
   4   4 -10   19.91    1.13
  -4   4  10   19.53    1.03
   4  -4  10   19.33    1.01
  -4   4 -10   18.06    0.96
   4  -4 -10   19.93    1.02
   4   4  10   19.29    0.96
  -4  -4  10   19.77    0.91
  -4  -4  10   18.36    0.90
   6   4 -10   96.69    3.17
  -6   4  10   95.45    2.97
   6  -4  10   97.74    2.93
  -6  -4 -10   97.38    3.03
  -6   4 -10   95.99    2.76
   6  -4 -10   95.71    2.88
  -6  -4  10   93.92    2.76
   6   4  10   95.42    2.74
   0   6  10   53.22    1.55
   0   6 -10   52.12    1.46
   0   6 -10   51.88    1.59
   0  -6  10   52.34    1.28
   0   6  10   52.58    1.35
   0  -6 -10   51.94    1.49
   0  -6  10   52.38    1.57
  -2   6  10    9.18    0.58
   2  -6  10    9.86    0.67
   2   6 -10    8.53    0.70
  -2  -6 -10    8.82    0.66
  -2   6  10    9.49    0.62
  -2  -6 -10    8.48    0.54
  -2   6 -10    9.35    0.64
  -2  -6  10    8.51    0.54
  -2  -6  10    8.24    0.56
   2  -6 -10    9.13    0.65
   2   6  10    8.35    0.62
  -2   6 -10    9.39    0.53
  -4  -6 -10  109.77    3.06
  -4  -6 -10  111.47    2.61
   4   6 -10  106.33    3.19
   4  -6  10  109.05    3.01
  -4   6  10  113.50    3.02
  -4  -6  10  106.73    2.71
   4   6  10  109.84    2.85
  -4   6 -10  108.97    2.87
   4  -6 -10  108.04    2.89
   6   6 -10    4.96    0.92
  -6   6  10    4.57    0.71
  -6  -6 -10    4.40    0.70
   6  -6  10    4.43    0.71
   6  -6 -10    3.51    0.66
  -6  -6  10    3.76    0.57
   6   6  10    4.25    0.64
  -6   6 -10    3.06    0.60
   0   8  10   -0.21    0.19
   0   8 -10    0.09    0.19
   0   8 -10    0.08    0.23
   0  -8  10    0.20    0.20
   0  -8  10    0.01    0.14
   0  -8 -10    0.08    0.18
   2   8 -10  325.95    6.83
  -2   8  10  325.55    6.48
  -2   8  10  313.56    6.28
   2  -8  10  321.35    6.63
  -2  -8 -10  316.01    6.67
  -2  -8 -10  313.38    6.10
   2   8  10  319.41    6.43
  -2  -8  10  310.81    6.03
  -2   8 -10  320.52    6.36
   2  -8 -10  321.72    6.33
  -2  -8  10  313.92    6.33
  -4   8  10    1.35    0.43
   4   8 -10    1.39    0.49
  -4  -8 -10    1.29    0.36
   4  -8  10    1.19    0.40
  -4  -8 -10    1.14    0.43
  -4   8 -10    1.37    0.42
  -4  -8  10    1.25    0.37
   4   8  10    0.45    0.31
   4  -8 -10    1.30    0.42
   0 -10  10    5.57    0.59
   0 -10 -10    5.89    0.62
   0  10  10    6.00    0.69
   0  10 -10    6.01    0.60
   2 -10  10    1.80    0.45
  -2  10  10    0.68    0.34
  -2 -10 -10    1.90    0.46
  -2 -10 -10    1.03    0.34
   2  10 -10    1.30    0.43
  -2  10 -10    1.24    0.42
  -2 -10  10    1.34    0.37
   2  10  10    1.17    0.41
   2 -10 -10    3.68    0.60
  -4  10  10   70.25    2.37
  -4 -10 -10   68.09    2.20
   4  10 -10   69.96    2.65
   4 -10  10   64.61    2.41
  -4 -10 -10   69.05    2.45
   4  10  10   67.49    2.36
  -4 -10  10   70.73    2.23
   4 -10 -10   71.69    2.43
  -4  10 -10   68.00    2.34
   0  12 -10   -0.11    0.25
   0 -12 -10    0.08    0.30
   0  12  10   -0.24    0.27
  -2  12  10  114.92    3.24
   2 -12  10  115.43    3.27
  -2 -12 -10  115.60    3.21
   2 -12 -10  113.99    3.22
  -2 -12  10  111.80    3.03
   2  12  10  111.60    3.30
  -2  12 -10  114.09    3.24
  -1  -1 -11  277.84    5.74
   1   1 -11  283.56    5.79
   1   1 -11  287.27    5.00
  -1  -1 -11  291.29    4.81
   1  -1  11  283.39    5.56
  -1   1  11  290.07    5.06
   1   1  11  294.37    5.31
   1  -1 -11  279.62    5.70
   1  -1 -11  283.19    5.09
  -1  -1  11  292.80    5.61
  -1   1 -11  285.14    5.73
  -1  -1  11  280.58    5.00
  -1   1 -11  291.47    5.29
   1   1  11  294.94    5.47
   3  -1  11   32.72    1.13
  -3  -1 -11   32.99    1.17
  -3   1  11   33.37    1.22
  -3  -1 -11   33.48    1.25
   3   1 -11   31.62    1.28
   3  -1 -11   32.54    1.21
  -3  -1  11   32.00    1.09
   3   1  11   33.25    1.04
  -3  -1  11   33.42    1.22
   3  -1 -11   32.50    1.15
  -3   1 -11   35.03    1.20
  -3   1 -11   33.41    1.21
   5  -1  11  135.18    3.33
   5   1 -11  138.10    3.59
  -5  -1 -11  136.29    3.53
  -5   1  11  138.67    3.53
   5  -1 -11  138.06    3.39
   5  -1 -11  137.66    3.44
  -5   1 -11  132.53    3.38
   5   1  11  135.17    3.33
  -5   1 -11  140.32    3.34
  -5  -1  11  135.46    3.43
  -5  -1  11  135.23    3.27
  -1   3  11   46.29    1.21
  -1  -3 -11   46.19    1.11
   1   3 -11   47.90    1.51
   1  -3  11   45.13    1.39
   1   3 -11   47.07    1.09
  -1   3  11   47.06    1.35
  -1  -3 -11   43.47    1.41
  -1  -3  11   46.96    1.12
   1  -3 -11   48.27    1.37
  -1  -3  11   46.23    1.38
   1   3  11   48.53    1.21
   1   3  11   44.81    1.31
  -1   3 -11   47.36    1.42
  -1   3 -11   47.39    1.29
   1  -3 -11   48.01    1.27
   3  -3  11   26.19    1.07
  -3   3  11   24.01    1.06
  -3  -3 -11   23.54    1.08
   3   3 -11   25.34    1.17
  -3  -3 -11   24.50    0.79
   3  -3 -11   25.73    0.98
  -3  -3  11   23.97    0.93
   3   3  11   24.04    1.00
  -3   3 -11   24.55    1.03
  -3  -3  11   23.84    0.99
   3  -3 -11   23.78    1.02
  -5   3  11  132.55    3.52
  -5  -3 -11  133.11    3.57
   5   3 -11  134.10    3.70
   5  -3  11  137.41    3.44
   5  -3 -11  132.51    3.35
  -5  -3  11  133.00    3.27
  -5  -3  11  132.42    3.35
  -5   3 -11  135.75    3.33
   5   3  11  131.47    3.30
  -1  -5 -11  244.48    5.21
  -1   5  11  253.69    5.04
  -1   5  11  248.84    4.87
   1  -5  11  255.40    5.20
  -1  -5 -11  251.10    4.70
   1   5 -11  253.38    4.66
   1   5 -11  261.67    5.39
  -1  -5  11  256.71    5.14
  -1   5 -11  253.33    4.90
   1  -5 -11  250.65    5.06
  -1  -5  11  256.77    4.60
   1  -5 -11  253.61    4.86
  -1   5 -11  250.80    5.17
   1   5  11  245.42    4.97
  -3   5  11  156.44    3.68
   3   5 -11  153.28    3.89
   3  -5  11  161.85    3.73
  -3  -5 -11  153.70    3.79
  -3  -5 -11  159.05    3.23
  -3  -5  11  154.17    3.31
  -3   5 -11  157.54    3.55
   3  -5 -11  157.22    3.53
   3   5  11  151.92    3.51
  -3  -5  11  157.30    3.53
  -5   5  11   22.44    1.24
   5  -5  11   21.31    1.19
  -5  -5 -11   21.50    1.26
   5   5 -11   22.60    1.37
  -5  -5  11   22.46    1.13
   5  -5 -11   20.27    1.19
  -5   5 -11   22.00    1.18
   5   5  11   21.81    1.14
  -1   7  11   16.99    0.86
  -1   7  11   16.85    0.78
   1  -7  11   17.30    0.90
  -1  -7 -11   17.90    0.83
   1   7 -11   16.30    0.74
   1   7 -11   17.47    0.94
  -1  -7 -11   17.66    0.87
  -1   7 -11   16.68    0.84
  -1  -7  11   16.71    0.84
   1   7  11   17.29    0.90
  -1  -7  11   17.09    0.74
  -1   7 -11   18.11    0.83
   1  -7 -11   17.62    0.89
  -3   7  11  116.26    2.97
  -3  -7 -11  111.88    3.10
  -3   7  11  111.84    2.67
  -3  -7 -11  111.83    2.67
   3   7 -11  107.85    3.16
   3  -7  11  110.89    3.04
  -3  -7  11  115.41    2.78
  -3  -7  11  114.76    2.72
  -3   7 -11  111.96    2.92
   3  -7 -11  111.04    2.94
   3   7  11  113.61    2.93
  -5  -7 -11   20.41    1.30
   5  -7  11   20.34    1.24
   5   7 -11   18.64    1.32
  -5   7  11   21.74    1.28
   5  -7 -11   21.94    1.27
  -5  -7  11   20.64    1.13
   5   7  11   20.52    1.17
  -5   7 -11   20.23    1.19
  -1  -9 -11   32.69    1.30
  -1   9  11   33.38    1.38
   1   9 -11   34.24    1.24
   1  -9  11   32.51    1.37
  -1  -9 -11   33.69    1.31
   1   9 -11   34.05    1.42
  -1  -9  11   32.65    1.29
  -1  -9  11   34.37    1.22
   1   9  11   31.78    1.40
  -1   9 -11   35.37    1.38
   1  -9 -11   33.33    1.38
  -3  -9 -11  122.33    3.40
  -3   9  11  127.52    3.13
   3  -9  11  126.38    3.41
  -3   9  11  126.51    3.28
   3   9 -11  123.12    3.54
  -3  -9 -11  126.89    3.08
  -3   9 -11  121.88    3.29
   3   9  11  121.83    3.30
  -3  -9  11  126.34    3.05
   3  -9 -11  123.66    3.29
  -1 -11 -11   78.87    2.41
   1 -11  11   75.98    2.43
  -1  11  11   76.17    2.49
   1 -11 -11   79.46    2.47
  -1  11 -11   80.02    2.43
   1  11  11   75.95    2.50
  -3 -11 -11  100.64    3.04
  -3 -11 -11  104.12    2.88
  -3  11  11  102.51    2.89
   3 -11  11  103.25    3.09
   3  11 -11   98.98    3.18
   3  11  11  100.69    3.06
  -3 -11  11  102.03    2.80
  -3  11 -11   99.99    3.01
   3 -11 -11  104.66    3.09
   0   0 -12  134.50    2.68
   0   0  12  135.91    2.68
   0   0 -12  134.52    3.09
   0   0  12  134.93    2.94
   0   0 -12  135.78    2.44
  -2   0  12   -0.15    0.14
  -2   0 -12    0.02    0.17
   2   0 -12    0.05    0.20
  -2   0  12    0.07    0.13
  -2   0 -12    0.11    0.17
   4   0 -12    9.99    0.75
  -4   0  12   10.22    0.68
  -4   0  12    9.57    0.71
   4   0  12    9.67    0.62
  -4   0 -12    9.89    0.72
  -4   0 -12    9.52    0.69
  -6   0 -12    0.00    0.31
  -6   0  12   -0.05    0.26
   6   0  12   -0.03    0.25
  -6   0 -12   -0.08    0.25
   6   0 -12    0.42    0.31
  -6   0  12    0.05    0.25
   0  -2 -12   -0.17    0.14
   0  -2  12   -0.11    0.15
   0  -2 -12    0.44    0.15
   0   2  12   -0.08    0.13
   0   2  12    0.22    0.16
   0  -2  12    0.16    0.09
   0   2 -12   -0.16    0.16
   0   2 -12   -0.02    0.12
   2   2 -12    1.49    0.37
  -2   2  12    1.07    0.29
  -2   2  12    1.29    0.20
   2  -2  12    1.54    0.31
  -2  -2 -12    1.36    0.17
  -2  -2 -12    1.98    0.40
   2  -2 -12    1.04    0.25
  -2   2 -12    0.85    0.28
   2  -2 -12    1.08    0.29
  -2   2 -12    1.34    0.28
  -2  -2  12    1.15    0.28
  -2  -2  12    1.32    0.24
   2   2  12    1.46    0.29
   2   2  12    1.24    0.24
  -4  -2 -12   45.06    1.67
  -4   2  12   47.54    1.68
   4   2 -12   48.60    1.77
   4  -2  12   44.12    1.55
  -4   2 -12   45.50    1.57
  -4  -2  12   44.96    1.49
   4  -2 -12   45.85    1.56
  -4  -2  12   46.53    1.59
  -4   2 -12   47.32    1.57
   4   2  12   47.56    1.62
   4  -2 -12   46.03    1.60
  -6  -2 -12   16.59    1.11
   6   2 -12   16.15    1.17
   6  -2  12   15.81    1.02
  -6   2  12   16.22    1.11
   6  -2 -12   15.55    1.10
  -6  -2  12   15.43    1.01
  -6   2 -12   15.70    1.03
   6   2  12   16.55    1.06
  -6  -2  12   16.14    1.03
   0   4 -12   27.04    1.09
   0  -4  12   26.28    0.69
   0  -4 -12   26.32    1.02
   0  -4  12   25.89    1.03
   0  -4 -12   26.73    0.89
   0   4  12   27.41    0.91
   0   4 -12   27.51    0.89
   0   4  12   26.92    0.96
  -2  -4 -12   65.52    1.96
   2   4 -12   64.46    2.04
   2  -4  12   62.38    1.87
  -2   4  12   65.54    1.89
  -2  -4 -12   66.18    1.57
  -2   4  12   66.80    1.62
  -2   4 -12   66.67    1.81
  -2   4 -12   69.14    1.88
   2  -4 -12   67.19    1.77
  -2  -4  12   66.26    1.64
  -2  -4  12   68.52    1.89
   2  -4 -12   65.32    1.78
   2   4  12   67.33    1.85
   4   4 -12    7.40    0.76
   4  -4  12    6.70    0.64
  -4  -4 -12    7.10    0.69
  -4   4  12    7.61    0.68
   4   4  12    7.45    0.67
   4  -4 -12    6.52    0.64
  -4  -4  12    7.58    0.62
  -4  -4  12    7.48    0.63
  -4   4 -12    7.39    0.66
  -6  -4 -12   29.65    1.57
   6   4 -12   30.89    1.70
  -6   4  12   31.61    1.59
   6  -4  12   30.76    1.52
   6   4  12   31.59    1.49
   6  -4 -12   32.61    1.57
  -6  -4  12   31.56    1.46
  -6   4 -12   30.89    1.47
   0   6  12    0.18    0.22
   0   6 -12    0.04    0.20
   0  -6 -12    0.09    0.17
   0   6 -12    0.09    0.16
   0  -6 -12   -0.07    0.15
   0  -6  12    0.30    0.21
  -2  -6 -12   26.38    0.96
   2  -6  12   24.32    1.12
   2   6 -12   25.80    1.26
  -2   6  12   25.61    1.08
  -2   6  12   27.29    1.01
  -2  -6 -12   25.93    1.18
   2  -6 -12   25.40    1.10
  -2  -6  12   26.91    1.08
  -2   6 -12   27.37    1.02
   2   6  12   24.35    1.10
  -2  -6  12   26.60    0.96
  -2   6 -12   25.98    1.11
  -4   6  12   58.57    2.04
   4  -6  12   58.61    2.05
   4   6 -12   60.78    2.23
  -4  -6 -12   57.71    2.12
  -4   6 -12   56.98    1.96
  -4  -6  12   59.16    1.82
   4  -6 -12   59.52    2.00
   4   6  12   62.44    2.02
  -4  -6  12   55.54    1.87
   0   8  12    5.62    0.60
   0   8 -12    5.77    0.58
   0  -8 -12    5.77    0.55
   0  -8  12    4.59    0.52
   0   8 -12    6.46    0.56
  -2   8  12    4.27    0.49
  -2  -8 -12    3.63    0.46
   2  -8  12    3.83    0.55
   2   8 -12    3.37    0.62
  -2  -8 -12    3.34    0.49
  -2   8  12    3.71    0.48
   2  -8 -12    3.69    0.52
  -2  -8  12    2.95    0.42
  -2   8 -12    3.50    0.51
   2   8  12    4.04    0.56
  -2  -8  12    3.63    0.46
  -4  -8 -12    3.50    0.66
   4  -8  12    3.50    0.65
  -4  -8 -12    3.59    0.49
   4   8 -12    3.17    0.67
  -4   8  12    3.04    0.57
  -4   8 -12    3.60    0.62
   4  -8 -12    3.19    0.60
  -4  -8  12    3.66    0.56
   4   8  12    3.35    0.62
   0 -10  12    0.28    0.29
   0  10  12    0.09    0.29
   0  10 -12    0.26    0.27
   0 -10 -12    0.03    0.25
  -2  10  12   21.37    1.16
  -2 -10 -12   21.73    1.10
   2 -10  12   20.51    1.19
   2  10 -12   20.96    1.26
  -2 -10 -12   21.51    1.16
  -2  10 -12   23.78    1.20
  -2 -10  12   20.45    1.03
   2  10  12   22.21    1.25
   2 -10 -12   20.34    1.18
   0  12  12   -0.10    0.38
   0 -12 -12    0.60    0.37
   0  12 -12    0.29    0.32
  -1   1  13  194.45    4.01
   1  -1  13  187.05    3.96
  -1  -1 -13  187.29    4.16
   1   1 -13  188.48    4.17
  -1   1  13  190.06    3.52
   1  -1 -13  185.74    4.10
  -1  -1  13  192.15    3.46
   1   1  13  187.77    3.87
  -1  -1  13  184.38    3.98
   1   1  13  190.25    3.78
  -1   1 -13  189.68    3.76
  -1  -1  13  187.84    3.47
   1  -1 -13  185.94    3.56
  -1   1 -13  191.37    4.12
  -3  -1 -13  468.76    8.57
  -3   1  13  451.72    8.94
   3  -1  13  463.01    8.79
  -3  -1 -13  469.71    9.15
   3   1 -13  469.63    9.22
   3  -1 -13  444.09    8.37
  -3  -1  13  452.32    8.96
  -3   1 -13  470.88    9.09
   3   1  13  462.75    8.65
  -3  -1  13  457.36    8.25
  -3   1 -13  459.08    8.56
   3  -1 -13  464.12    9.06
   5  -1  13   26.11    1.17
   5   1 -13   25.29    1.34
  -5   1  13   27.09    1.32
  -5  -1 -13   25.31    1.28
  -5   1 -13   26.40    1.25
   5  -1 -13   25.16    1.26
  -5  -1  13   26.36    1.21
   5   1  13   24.43    1.21
   5  -1 -13   26.65    1.34
  -5  -1  13   26.03    1.26
  -5   1 -13   27.17    1.26
  -1  -3 -13  181.23    4.03
  -1   3  13  183.47    3.86
   1   3 -13  179.46    4.08
   1  -3  13  180.35    3.91
   1   3 -13  172.80    3.33
  -1  -3 -13  178.75    3.31
  -1   3  13  182.80    3.53
  -1   3 -13  180.29    3.65
  -1  -3  13  180.67    3.91
   1   3  13  182.78    3.71
   1  -3 -13  170.97    3.51
   1  -3 -13  178.93    3.91
   1   3  13  183.01    3.65
  -1  -3  13  181.07    3.34
  -1   3 -13  181.02    3.99
   3  -3  13  283.18    5.91
  -3   3  13  291.79    6.05
   3   3 -13  289.03    6.28
  -3  -3 -13  288.19    6.16
  -3   3 -13  278.98    5.72
   3  -3 -13  288.71    5.89
  -3   3 -13  290.53    5.97
  -3  -3  13  288.66    5.95
   3   3  13  286.46    5.72
  -3  -3  13  294.98    5.52
   3  -3 -13  283.32    5.64
   5  -3  13   65.57    2.16
  -5  -3 -13   66.86    2.31
   5   3 -13   64.84    2.35
  -5   3  13   63.32    2.20
  -5   3 -13   63.65    2.11
   5   3  13   66.39    2.13
  -5  -3  13   65.02    2.04
   5  -3 -13   64.52    2.14
  -5  -3  13   65.08    2.10
   1   5 -13  258.39    4.79
  -1   5  13  264.61    5.05
   1  -5  13  260.12    5.40
  -1  -5 -13  263.19    5.47
  -1  -5 -13  254.59    4.80
   1   5 -13  256.87    5.57
  -1   5  13  260.04    5.23
   1  -5 -13  262.36    4.99
  -1  -5  13  254.78    4.68
  -1   5 -13  257.95    5.40
   1  -5 -13  260.98    5.33
   1   5  13  246.37    5.13
  -1   5 -13  252.01    5.05
  -1  -5  13  256.86    5.35
   3   5 -13  131.63    3.57
  -3  -5 -13  133.89    3.45
   3  -5  13  133.57    3.33
  -3   5  13  130.27    3.31
  -3   5 -13  134.04    3.21
  -3  -5  13  133.45    3.21
   3  -5 -13  136.37    3.20
  -3  -5  13  130.40    2.95
   3   5  13  132.42    3.22
  -5  -5 -13  132.24    3.68
  -5   5  13  127.15    3.57
   5  -5  13  131.03    3.55
   5   5 -13  127.86    3.77
  -5  -5  13  126.02    3.28
   5  -5 -13  128.47    3.43
   5   5  13  129.00    3.38
  -5   5 -13  131.82    3.43
  -1  -7 -13  221.11    4.85
  -1   7  13  218.32    4.58
   1   7 -13  215.00    4.98
  -1  -7 -13  218.03    4.40
  -1   7  13  219.68    4.58
   1  -7  13  222.62    4.91
   1  -7 -13  216.60    4.55
  -1   7 -13  219.27    4.76
  -1   7 -13  223.04    4.62
  -1  -7  13  224.43    4.79
   1   7  13  219.67    4.69
   3  -7  13   37.69    1.55
  -3  -7 -13   37.67    1.29
   3   7 -13   36.58    1.67
  -3  -7 -13   34.86    1.55
  -3   7  13   38.45    1.51
   3   7  13   39.01    1.54
  -3  -7  13   37.69    1.41
   3  -7 -13   34.71    1.48
  -3  -7  13   36.58    1.31
  -3   7 -13   36.22    1.48
   5  -7  13  192.37    4.88
  -5   7  13  196.45    4.89
   5   7 -13  185.83    5.09
  -5  -7 -13  198.49    5.04
   5  -7 -13  188.38    4.64
  -5  -7  13  192.89    4.44
  -5   7 -13  196.84    4.67
   5   7  13  195.07    4.68
   1   9 -13  191.15    4.54
  -1  -9 -13  191.85    4.15
   1  -9  13  181.84    4.41
  -1   9  13  191.13    4.30
   1  -9 -13  193.20    4.27
  -1   9 -13  190.44    4.23
   1   9  13  181.17    4.37
  -1  -9  13  189.31    4.33
   3  -9  13   21.48    1.24
   3   9 -13   20.95    1.35
  -3   9  13   20.51    1.12
  -3  -9 -13   20.17    1.03
  -3  -9 -13   20.73    1.21
   3   9  13   18.94    1.15
  -3  -9  13   21.48    1.07
   3  -9 -13   17.32    1.10
  -3   9 -13   20.21    1.18
  -1  11  13  139.30    3.68
   1 -11  13  138.21    3.70
  -1 -11 -13  138.46    3.54
   1 -11 -13  140.82    3.61
   1  11  13  141.19    3.75
  -1  11 -13  140.78    3.57
   0   0  14    0.16    0.17
   0   0 -14    0.43    0.12
   0   0  14    0.01    0.12
   0   0 -14   -0.09    0.16
  -2   0  14   23.48    1.03
  -2   0 -14   25.04    1.09
   2   0 -14   24.54    1.09
   2   0  14   24.73    0.96
  -2   0 -14   24.75    0.98
   2   0 -14   24.24    0.90
   4   0  14   -0.13    0.17
  -4   0 -14    0.61    0.30
  -4   0  14   -0.15    0.19
  -4   0  14    0.06    0.19
  -4   0 -14    0.29    0.24
   4   0 -14    0.01    0.28
   6   0  14    0.89    0.37
  -6   0  14    1.04    0.40
  -6   0 -14    1.15    0.43
   6   0 -14    1.07    0.43
   0  -2  14    1.14    0.30
   0  -2 -14    0.76    0.18
   0   2 -14    1.17    0.34
   0   2 -14    1.09    0.23
   0   2  14    0.97    0.23
   0   2  14    1.20    0.27
   0  -2 -14    1.02    0.29
  -2  -2 -14   34.22    1.35
  -2   2  14   33.79    1.26
   2   2 -14   34.18    1.37
   2  -2  14   33.28    1.23
  -2   2 -14   35.14    1.31
   2   2  14   33.36    1.20
  -2  -2  14   33.72    1.26
   2   2  14   33.78    1.07
   2  -2 -14   35.72    1.27
  -2  -2  14   35.46    1.06
  -2   2 -14   34.30    1.20
   2  -2 -14   32.30    1.12
  -4  -2 -14    6.17    0.65
   4  -2  14    6.07    0.59
   4   2 -14    6.56    0.70
  -4   2  14    5.34    0.61
   4  -2 -14    7.55    0.65
  -4  -2  14    5.86    0.58
  -4   2 -14    5.68    0.58
  -4   2 -14    5.35    0.57
   4  -2 -14    5.70    0.61
  -4  -2  14    6.18    0.58
   4   2  14    5.92    0.61
  -6  -2 -14   16.54    1.15
   6   2 -14   16.28    1.22
  -6   2  14   16.58    1.14
  -6  -2  14   15.70    1.04
  -6   2 -14   17.46    1.10
   6  -2 -14   16.90    1.14
  -6  -2  14   14.78    1.02
   6   2  14   16.61    1.09
   0  -4 -14   -0.15    0.14
   0  -4  14   -0.05    0.19
   0   4 -14    0.07    0.23
   0  -4 -14    0.64    0.26
   0   4  14    0.11    0.18
   0   4 -14    0.16    0.16
   0   4  14    1.35    0.29
  -2   4  14    9.21    0.64
   2  -4  14    8.39    0.64
   2   4 -14    8.61    0.75
  -2   4  14    8.51    0.51
  -2  -4 -14    8.30    0.67
   2  -4 -14    8.39    0.58
  -2   4 -14    8.05    0.60
  -2   4 -14    8.86    0.63
  -2  -4  14    9.25    0.52
  -2  -4  14    7.78    0.62
   2  -4 -14    9.01    0.62
   2   4  14    8.85    0.64
  -4   4  14   99.79    2.89
   4   4 -14  105.18    3.14
  -4  -4 -14   98.91    2.97
   4  -4  14   99.41    2.81
   4  -4 -14  102.04    2.78
  -4  -4  14   99.34    2.60
  -4   4 -14  104.42    2.76
   4   4  14  103.06    2.77
  -4  -4  14  101.84    2.76
   0  -6 -14   17.77    0.82
   0  -6 -14   16.86    0.87
   0   6 -14   16.83    0.79
   0   6  14   18.58    0.90
   0   6 -14   16.62    0.94
   0  -6  14   17.15    0.93
  -2  -6 -14   43.38    1.29
  -2   6  14   43.88    1.51
   2  -6  14   42.04    1.57
   2   6 -14   40.94    1.67
  -2  -6 -14   42.60    1.61
  -2   6  14   41.57    1.35
  -2  -6  14   41.42    1.49
  -2   6 -14   43.33    1.45
   2   6  14   42.73    1.56
   2  -6 -14   43.54    1.50
  -2  -6  14   41.53    1.27
  -2   6 -14   42.38    1.50
   4  -6  14    6.10    0.71
   4   6 -14    5.34    0.76
  -4  -6 -14    5.67    0.71
  -4   6  14    5.21    0.65
   4   6  14    5.05    0.64
  -4  -6  14    5.87    0.60
  -4   6 -14    4.67    0.64
   4  -6 -14    5.73    0.66
  -4  -6  14    6.13    0.60
   0   8 -14    0.11    0.25
   0  -8 -14    0.18    0.23
   0   8 -14    0.56    0.26
   0   8  14    0.00    0.23
   0  -8  14    0.08    0.26
  -2   8  14    1.13    0.34
   2  -8  14    0.99    0.39
  -2  -8 -14    1.32    0.41
  -2  -8 -14    1.05    0.29
   2   8 -14    0.78    0.39
  -2   8  14    1.35    0.36
   2  -8 -14    0.93    0.36
   2   8  14    1.18    0.37
  -2   8 -14    1.43    0.39
  -2  -8  14    1.11    0.34
  -4   8  14    5.76    0.72
   4  -8  14    5.59    0.72
  -4  -8 -14    5.54    0.78
   4   8 -14    7.64    0.92
  -4   8 -14    6.32    0.72
  -4  -8  14    5.28    0.63
   4   8  14    6.54    0.75
   4  -8 -14    5.57    0.74
   0 -10 -14   20.40    1.11
   0 -10  14   19.62    1.13
   0  10  14   19.14    1.16
   0  10 -14   20.93    1.08
  -2 -10 -14    6.41    0.64
   2 -10  14    6.94    0.74
  -2  10  14    6.34    0.71
  -2 -10 -14    6.65    0.76
   2  10 -14    6.62    0.79
   2  10  14    6.56    0.77
  -2  10 -14    7.48    0.74
   2 -10 -14    7.53    0.77
   1   1 -15   22.79    1.07
   1  -1  15   22.46    0.94
  -1   1  15   22.80    0.98
  -1  -1 -15   22.11    1.05
  -1   1  15   23.05    0.76
   1   1  15   22.78    0.90
   1  -1 -15   22.66    0.79
  -1  -1  15   22.28    0.98
  -1   1 -15   22.79    0.89
  -1  -1  15   22.58    0.71
   1  -1 -15   21.99    1.02
   1   1  15   21.73    0.89
  -1   1 -15   21.92    1.01
   3   1 -15   13.60    0.91
  -3  -1 -15   15.54    0.92
  -3   1  15   14.11    0.84
   3  -1  15   12.50    0.75
   3  -1 -15   13.09    0.84
   3  -1 -15   12.54    0.75
   3   1  15   13.22    0.70
  -3   1 -15   12.28    0.78
  -3   1 -15   13.56    0.85
  -3  -1  15   12.58    0.69
   3   1  15   13.12    0.78
  -3  -1  15   12.98    0.82
  -5   1  15   69.77    2.32
  -5  -1 -15   67.06    2.32
   5   1 -15   63.35    2.31
   5   1  15   64.37    2.19
  -5  -1  15   70.48    2.30
  -5  -1  15   64.03    2.08
  -5   1 -15   66.21    2.17
  -5   1 -15   68.81    2.24
   5  -1 -15   67.62    2.20
   1   3 -15   82.07    2.38
   1  -3  15   80.73    2.23
  -1   3  15   80.43    2.17
  -1  -3 -15   80.46    2.31
  -1   3  15   82.91    1.93
   1  -3 -15   83.09    2.23
   1  -3 -15   82.25    1.97
   1   3  15   84.47    2.11
  -1   3 -15   82.58    2.03
   1   3  15   81.96    2.02
  -1   3 -15   82.97    2.30
  -1  -3  15   81.99    2.23
  -3  -3 -15    3.44    0.53
   3   3 -15    3.45    0.57
  -3   3  15    3.83    0.49
   3  -3  15    4.56    0.52
  -3   3 -15    6.24    0.57
  -3  -3  15    4.09    0.52
  -3  -3  15    3.59    0.42
   3  -3 -15    3.83    0.49
   3   3  15    4.55    0.53
  -3   3 -15    4.30    0.50
   3  -3 -15    4.09    0.50
  -5  -3 -15   16.14    1.12
   5  -3  15   15.95    1.02
  -5   3  15   16.62    1.10
   5   3 -15   16.17    1.20
   5   3  15   15.79    1.05
   5  -3 -15   17.10    1.09
  -5  -3  15   16.58    0.98
  -5   3 -15   15.73    1.02
  -5  -3  15   15.32    1.00
  -1  -5 -15    3.37    0.49
  -1   5  15    3.47    0.41
  -1   5  15    3.63    0.42
   1   5 -15    4.57    0.57
  -1  -5 -15    3.35    0.35
   1  -5  15    3.28    0.46
   1  -5 -15    4.15    0.47
  -1   5 -15    4.32    0.49
   1   5  15    3.99    0.46
  -1  -5  15    3.61    0.47
  -1   5 -15    3.74    0.44
   1  -5 -15    4.45    0.45
   3   5 -15    8.04    0.81
   3  -5  15    6.95    0.68
  -3  -5 -15    7.33    0.74
  -3   5  15    7.97    0.70
  -3  -5  15    7.30    0.66
   3   5  15    7.03    0.68
  -3  -5  15    7.30    0.56
   3  -5 -15    7.70    0.67
  -3   5 -15    7.34    0.63
  -3   5 -15    7.25    0.66
   5   5 -15    7.36    0.93
   5  -5  15    7.69    0.80
  -5  -5 -15    6.72    0.81
  -5   5  15    8.17    0.84
  -5   5 -15    7.57    0.78
   5   5  15    7.38    0.80
   5  -5 -15    7.23    0.78
  -5  -5  15    6.27    0.67
  -5  -5  15    6.97    0.70
  -1   7  15   12.22    0.79
   1  -7  15   12.60    0.86
  -1  -7 -15   13.89    0.87
   1   7 -15   12.34    0.90
  -1  -7 -15   12.71    0.72
   1   7  15   13.39    0.86
  -1   7 -15   14.04    0.84
   1  -7 -15   13.26    0.81
  -1  -7  15   14.31    0.87
  -1   7 -15   13.48    0.80
   3   7 -15   60.77    2.29
   3  -7  15   61.61    2.15
  -3  -7 -15   60.95    2.21
  -3   7  15   64.12    2.10
  -3   7 -15   61.30    2.05
  -3  -7  15   62.32    1.84
  -3  -7  15   60.02    1.99
   3   7  15   63.29    2.12
   3  -7 -15   63.84    2.08
  -1  -9 -15    1.65    0.38
  -1   9  15    1.48    0.43
   1  -9  15    1.04    0.40
   1   9 -15    2.26    0.53
  -1  -9  15    1.26    0.39
  -1   9 -15    1.63    0.43
   1   9  15    1.40    0.44
   1  -9 -15    1.91    0.44
   3   9 -15   52.62    2.19
  -3   9  15   54.50    2.04
   3  -9  15   52.50    2.08
  -3  -9 -15   52.52    2.07
  -3   9 -15   54.76    2.01
   3   9  15   55.15    2.06
   3  -9 -15   51.48    1.95
  -1  11  15    1.37    0.44
   1 -11  15    2.05    0.51
  -1 -11 -15    1.45    0.43
  -1  11 -15    1.75    0.47
   1  11  15    0.89    0.44
   1 -11 -15    1.02    0.40
   0   0  16  858.72   15.09
   0   0  16  832.59   15.10
   0   0 -16  781.66   15.47
   2   0 -16    0.04    0.23
   2   0 -16    0.16    0.17
   2   0  16   -0.03    0.17
  -2   0  16    0.17    0.22
  -2   0 -16    0.19    0.21
  -2   0 -16    0.15    0.20
  -4   0  16  247.22    5.50
  -4   0 -16  246.23    5.58
   4   0 -16  250.80    5.19
   4   0  16  245.41    5.24
  -4   0 -16  245.58    5.31
   4   0 -16  249.06    5.63
   0   2 -16    0.32    0.18
   0  -2  16   -0.04    0.17
   0   2 -16    0.09    0.20
   0   2  16    0.23    0.19
   0  -2 -16    1.33    0.35
   0   2  16    0.16    0.18
   2  -2  16  172.04    3.87
  -2  -2 -16  168.27    4.10
  -2   2  16  170.88    3.94
   2   2 -16  169.50    4.14
  -2  -2  16  167.63    3.92
   2  -2 -16  167.76    3.96
   2   2  16  169.93    3.65
  -2  -2  16  167.13    3.38
   2  -2 -16  171.77    3.57
  -2   2 -16  170.87    3.71
  -2   2 -16  176.92    4.05
   2   2  16  170.36    3.71
   4   2 -16   15.83    1.09
  -4   2  16   14.45    0.98
   4  -2  16   15.31    0.92
  -4  -2 -16   16.93    1.07
   4  -2 -16   16.05    0.95
  -4  -2  16   16.55    0.98
  -4   2 -16   15.55    0.96
   4  -2 -16   16.00    0.97
  -4  -2  16   15.30    0.86
   4   2  16   15.06    0.94
   0   4 -16  369.19    7.83
   0   4  16  395.31    7.23
   0   4  16  383.58    7.44
   0  -4 -16  390.35    6.87
   0   4 -16  381.95    7.04
   0  -4  16  376.45    7.65
   0  -4 -16  386.68    7.82
   2  -4  16   20.40    1.05
   2   4 -16   25.90    1.29
  -2   4  16   22.01    1.05
  -2  -4 -16   23.58    1.17
   2  -4 -16   23.51    1.05
  -2  -4  16   21.37    1.06
   2  -4 -16   23.25    1.01
   2   4  16   22.08    1.05
  -2   4 -16   22.39    1.04
  -2   4 -16   23.49    1.09
  -2  -4  16   24.58    0.99
   4   4 -16  201.99    5.19
   4  -4  16  215.10    4.91
  -4  -4 -16  210.01    5.11
  -4   4  16  210.36    4.98
   4   4  16  214.55    4.79
  -4  -4  16  204.23    4.46
  -4   4 -16  211.35    4.76
   4  -4 -16  209.87    4.70
  -4  -4  16  214.10    4.88
   0   6 -16    0.08    0.27
   0  -6  16    0.29    0.25
   0  -6 -16    0.02    0.25
   0   6 -16    0.08    0.18
   0   6  16    0.16    0.23
   0  -6 -16   -0.13    0.16
  -2   6  16  362.45    7.27
   2   6 -16  352.31    7.66
   2  -6  16  352.90    7.43
  -2  -6 -16  346.69    7.51
   2   6  16  359.55    7.15
  -2  -6  16  355.22    7.30
  -2   6 -16  349.96    7.28
  -2   6 -16  356.69    7.00
   2  -6 -16  354.81    6.86
   4   6 -16   20.79    1.35
  -4  -6 -16   21.66    1.29
   4  -6  16   20.28    1.20
  -4   6  16   19.89    1.18
  -4  -6  16   18.44    1.08
   4  -6 -16   19.79    1.17
  -4   6 -16   19.27    1.17
   4   6  16   18.37    1.15
  -4  -6  16   20.05    1.03
   0  -8  16   54.49    1.93
   0  -8 -16   54.21    1.75
   0   8 -16   53.47    1.79
   0   8 -16   57.45    1.98
   0   8  16   54.13    1.89
   2  -8  16    0.79    0.39
  -2  -8 -16    3.22    0.60
   2   8 -16    1.32    0.47
   2   8  16    1.09    0.39
   2  -8 -16    2.03    0.47
  -2   8 -16    1.74    0.44
  -2  -8  16    1.43    0.41
  -4   8  16  152.84    3.98
   4   8 -16  146.87    4.26
  -4  -8 -16  148.31    4.15
   4  -8  16  144.92    4.01
  -4  -8  16  146.38    3.54
  -4   8 -16  143.21    3.87
   4  -8 -16  146.95    3.86
   4   8  16  146.01    3.90
   0 -10 -16    0.41    0.32
   0  10  16    0.23    0.34
   0 -10  16    0.09    0.29
  -2  10  16  285.16    5.99
   2  10 -16  277.72    6.47
   2 -10  16  274.57    6.30
  -2  10 -16  273.38    6.02
   2  10  16  268.65    6.17
   2 -10 -16  270.68    5.95
   1   1 -17   45.93    1.67
   1  -1  17   45.95    1.50
  -1  -1 -17   45.21    1.66
  -1   1  17   42.61    1.50
  -1   1 -17   45.25    1.63
   1   1  17   47.05    1.43
   1   1  17   45.44    1.46
  -1  -1  17   45.46    1.55
  -1   1 -17   45.75    1.39
   1  -1 -17   45.05    1.63
   3   1 -17    3.39    0.44
   3   1 -17    3.41    0.56
  -3   1  17    2.03    0.43
  -3  -1 -17    3.25    0.53
   3  -1  17    2.66    0.43
  -3   1 -17    3.88    0.54
  -3  -1  17    3.34    0.49
   3  -1 -17    4.09    0.59
   3  -1 -17    4.44    0.51
   3   1  17    3.40    0.45
   3   1  17    3.24    0.47
  -3   1 -17    3.58    0.52
   5   1 -17    6.12    0.82
  -5  -1 -17    8.14    0.83
   5   1 -17    6.70    0.70
  -5   1  17    7.12    0.77
  -5  -1  17    7.07    0.75
  -5   1 -17    6.52    0.73
  -5   1 -17    6.57    0.74
   5  -1 -17    8.00    0.79
   5   1  17    7.29    0.75
   1  -3  17   11.52    0.78
  -1  -3 -17   12.80    0.84
  -1   3  17   12.05    0.64
   1   3 -17   12.32    0.89
  -1   3  17   11.22    0.74
   1  -3 -17   12.93    0.67
  -1   3 -17   12.77    0.84
   1   3  17   11.57    0.71
   1  -3 -17   14.46    0.84
   1   3  17   11.89    0.67
  -1   3 -17   12.14    0.69
  -1  -3  17   11.89    0.77
  -3  -3 -17    1.66    0.43
   3   3 -17    1.15    0.41
  -3   3  17    1.23    0.36
   3  -3  17    1.64    0.39
  -3   3 -17    1.04    0.35
  -3  -3  17    2.03    0.36
   3  -3 -17    2.99    0.46
   3  -3 -17    0.87    0.32
  -3   3 -17    2.14    0.46
  -3  -3  17    1.19    0.36
   3   3  17    1.37    0.38
  -5   3  17   20.09    1.25
   5  -3  17   19.65    1.16
  -5  -3 -17   19.61    1.28
   5   3 -17   18.90    1.33
   5   3  17   18.96    1.17
  -5  -3  17   18.16    1.13
   5  -3 -17   21.65    1.24
  -5  -3  17   20.11    1.10
  -5   3 -17   21.32    1.23
   1  -5  17   84.84    2.49
  -1  -5 -17   87.77    2.55
  -1   5  17   87.82    2.33
   1   5 -17   86.56    2.64
  -1   5  17   91.32    2.26
  -1   5 -17   81.88    2.25
   1  -5 -17   91.59    2.24
   1   5  17   86.39    2.37
  -1  -5  17   83.77    2.48
   1  -5 -17   87.85    2.47
  -1   5 -17   84.32    2.51
  -3  -5 -17   27.79    1.41
   3  -5  17   26.43    1.30
  -3   5  17   29.34    1.35
   3   5 -17   27.77    1.48
  -3  -5  17   28.13    1.31
   3  -5 -17   28.74    1.28
  -3   5 -17   27.77    1.29
  -3   5 -17   28.03    1.26
   3   5  17   27.75    1.32
  -5   5  17    0.54    0.40
   5  -5  17    0.95    0.43
  -5  -5 -17    0.93    0.45
   5   5 -17    0.66    0.49
  -5   5 -17    0.88    0.40
  -5  -5  17    0.16    0.29
  -5  -5  17    0.68    0.36
   5  -5 -17    1.47    0.47
   5   5  17    0.43    0.40
  -1  -7 -17    6.56    0.69
   1  -7  17    5.72    0.65
   1   7 -17    5.35    0.70
  -1   7  17    5.99    0.59
  -1   7 -17    6.06    0.58
  -1   7 -17    5.85    0.63
  -1  -7  17    7.48    0.70
   1   7  17    5.56    0.63
   1  -7 -17    5.42    0.57
  -3   7  17    3.51    0.60
  -3  -7 -17    2.96    0.61
   3   7 -17    2.97    0.66
   3  -7  17    2.71    0.60
  -3   7 -17    2.85    0.59
  -3  -7  17    3.89    0.57
   3   7  17    2.60    0.55
   3  -7 -17    2.35    0.51
   1   9 -17    1.06    0.44
   1  -9  17    1.13    0.43
  -1  -9 -17    0.60    0.30
  -1   9  17    0.95    0.42
  -1   9 -17    0.56    0.33
   1   9  17    0.57    0.35
   1  -9 -17    0.62    0.34
  -1  -9  17    0.09    0.27
  -3  -9 -17    8.30    0.87
   3  -9  17    8.20    0.85
   3   9 -17    8.55    1.00
  -3   9 -17    8.21    0.82
   3  -9 -17    9.23    0.87
   3   9  17    7.58    0.84
   0   0  18    0.18    0.17
   0   0 -18    0.17    0.24
   0   0  18    0.18    0.19
  -2   0 -18  453.69    9.36
   2   0  18  456.20    8.59
  -2   0 -18  460.12    8.61
   2   0 -18  459.78    9.36
   2   0  18  466.16    8.90
  -2   0  18  461.03    9.13
   4   0 -18   -0.46    0.18
   4   0  18    0.06    0.23
  -4   0 -18    0.27    0.27
  -4   0  18    0.45    0.32
  -4   0 -18   -0.07    0.29
   4   0 -18    0.28    0.36
   0   2 -18   33.05    1.45
   0  -2  18   33.56    1.35
   0   2 -18   38.14    1.15
   0  -2 -18   34.33    1.43
   0   2  18   35.70    1.30
   0   2  18   33.30    1.15
   2   2 -18    2.17    0.52
  -2   2  18    0.29    0.25
  -2   2 -18    0.01    0.24
   2   2  18    0.38    0.26
   2  -2 -18    0.89    0.33
   2   2  18    0.31    0.23
  -2  -2  18    0.90    0.36
   2  -2 -18    0.98    0.28
  -2   2 -18    0.00    0.20
   4  -2  18  132.61    3.39
   4   2 -18  129.18    3.68
  -4  -2 -18  128.97    3.63
  -4   2  18  125.03    3.51
   4  -2 -18  130.02    3.46
  -4  -2  18  128.26    3.47
   4   2  18  127.41    3.34
  -4  -2  18  131.81    3.13
  -4   2 -18  128.78    3.36
   4  -2 -18  133.16    3.29
  -4   2 -18  129.50    3.47
   0   4 -18   -0.01    0.15
   0   4  18   -0.10    0.17
   0   4  18    0.17    0.21
   0  -4  18   -0.10    0.20
   0   4 -18   -0.12    0.21
   0  -4 -18    1.02    0.34
  -2  -4 -18  198.32    4.71
   2  -4  18  188.85    4.51
  -2   4  18  196.20    4.46
   2   4 -18  188.15    4.76
  -2   4 -18  193.15    4.27
  -2   4 -18  201.12    4.60
  -2  -4  18  189.92    4.50
   2   4  18  203.07    4.35
   2  -4 -18  194.38    4.46
   2  -4 -18  190.65    4.13
  -4   4  18    0.64    0.34
  -4  -4 -18    1.15    0.44
   4   4 -18    0.44    0.42
  -4  -4  18    0.61    0.34
  -4   4 -18    0.30    0.33
   4  -4 -18    2.75    0.58
   4   4  18    0.83    0.39
  -4  -4  18    0.64    0.28
   0   6  18  327.49    6.45
   0   6 -18  319.65    6.96
   0  -6  18  318.77    6.81
  -2  -6 -18    0.27    0.34
   2   6 -18    0.54    0.39
   2  -6  18   -0.03    0.25
  -2   6  18    0.42    0.29
  -2   6 -18    0.14    0.24
   2   6  18   -0.18    0.20
   2  -6 -18    0.51    0.29
   4  -6  18  111.80    3.29
  -4  -6 -18  111.74    3.45
  -4   6  18  111.97    3.24
   4   6 -18  105.67    3.48
  -4  -6  18  115.87    3.21
  -4   6 -18  109.08    3.11
   4   6  18  108.72    3.19
   0   8  18    0.33    0.31
   0  -8 -18    0.03    0.21
   0  -8  18   -0.35    0.22
   0   8 -18    0.64    0.36
  -2  -8 -18   25.69    1.37
   2  -8  18   25.92    1.40
   2   8 -18   27.48    1.52
   2   8  18   24.83    1.35
  -2  -8  18   26.69    1.35
  -2   8 -18   26.03    1.30
   2  -8 -18   24.94    1.27
   0 -10 -18  301.24    6.31
   0 -10  18  309.99    6.81
   0  10  18  307.81    6.63
  -1   1  19    7.74    0.65
   1  -1  19    7.12    0.61
  -1  -1 -19    7.15    0.71
   1   1 -19    9.15    0.78
   1   1  19    8.29    0.63
   1   1  19    8.56    0.62
  -1   1 -19    7.93    0.60
  -1   1 -19    8.31    0.73
  -1  -1  19    7.27    0.64
   1  -1 -19    7.91    0.72
  -3   1  19   57.05    2.00
   3   1 -19   56.17    2.10
  -3  -1 -19   56.67    2.08
   3  -1  19   56.73    1.86
   3   1  19   54.56    1.87
   3  -1 -19   58.01    1.78
  -3  -1  19   55.06    1.98
  -3   1 -19   55.29    1.88
  -3   1 -19   52.80    2.02
   3  -1 -19   55.83    2.01
   5   1 -19    9.72    0.97
  -5  -1 -19   10.15    0.96
   5   1 -19   10.47    0.88
  -5   1  19   12.35    0.99
   5  -1 -19   10.54    0.91
  -5  -1  19   10.10    0.89
  -5   1 -19    8.93    0.88
  -5   1 -19   10.74    0.93
   5   1  19   10.31    0.91
   1  -3  19  128.05    3.24
  -1   3  19  128.89    3.23
   1   3 -19  126.62    3.47
  -1  -3 -19  126.74    3.40
  -1   3 -19  128.44    2.98
  -1  -3  19  122.44    3.26
  -1   3 -19  122.64    3.34
   1  -3 -19  126.10    3.33
   1   3  19  130.34    3.04
   1   3  19  127.61    3.03
   3  -3  19   88.01    2.58
  -3  -3 -19  102.12    2.89
   3   3 -19   82.02    2.77
  -3   3  19   83.07    2.60
   3   3  19   82.48    2.49
  -3   3 -19   83.85    2.49
   3  -3 -19   83.79    2.36
  -3   3 -19   84.71    2.62
  -3  -3  19   82.89    2.60
   3  -3 -19   86.59    2.58
   5  -3  19    4.21    0.64
   5   3 -19    4.14    0.82
  -5  -3 -19    3.16    0.65
  -5   3  19    4.18    0.68
   5  -3 -19    3.33    0.63
  -5  -3  19    4.92    0.69
  -5  -3  19    4.08    0.59
  -5   3 -19    3.76    0.67
   5   3  19    3.83    0.71
  -1  -5 -19    0.98    0.39
  -1   5  19    3.15    0.47
  -1   5  19    0.83    0.30
   1  -5  19    0.92    0.37
   1   5 -19    0.82    0.41
  -1  -5  19    1.10    0.38
  -1   5 -19    0.84    0.29
   1   5  19    0.73    0.31
   1  -5 -19    1.44    0.40
  -1   5 -19    0.82    0.35
   3  -5  19    6.30    0.70
   3   5 -19    5.91    0.83
  -3  -5 -19    6.34    0.76
  -3   5  19    5.83    0.69
  -3   5 -19    6.00    0.65
   3   5  19    6.57    0.70
  -3   5 -19    4.95    0.64
  -3  -5  19    6.34    0.70
   3  -5 -19    5.23    0.61
  -1   7  19   94.72    2.58
   1   7 -19   95.38    2.98
   1  -7  19   92.80    2.84
  -1   7 -19   93.10    2.55
   1  -7 -19   97.60    2.54
  -1  -7  19   94.62    2.82
   1   7  19   88.65    2.66
  -1   7 -19   89.17    2.76
   3  -7  19   22.18    1.30
   3   7 -19   19.45    1.37
  -3  -7 -19   16.05    1.18
  -3   7  19   18.09    1.12
   3  -7 -19   19.25    1.14
  -3   7 -19   19.78    1.18
  -3  -7  19   19.00    1.15
   3   7  19   18.61    1.20
  -1   9  19   40.34    1.67
   1  -9  19   40.01    1.78
   1   9 -19   38.60    1.81
   1   9  19   37.12    1.71
  -1  -9  19   39.07    1.73
   1  -9 -19   39.31    1.58
   0   0  20   41.96    1.31
   0   0  20   40.85    1.54
   0   0 -20   41.63    1.67
   2   0  20    0.12    0.24
   2   0 -20   -0.05    0.25
  -2   0 -20    0.07    0.25
   2   0  20   -0.04    0.18
  -2   0  20    0.25    0.27
  -4   0  20    0.81    0.41
  -4   0 -20    1.07    0.46
   4   0 -20    1.10    0.38
   4   0  20    1.10    0.39
   4   0 -20    1.36    0.49
   0   2  20    0.10    0.20
   0   2  20   -0.05    0.19
   0   2 -20   -0.06    0.24
   0  -2 -20   -0.02    0.20
   0  -2  20    0.21    0.24
   2   2 -20   28.47    1.46
   2  -2  20   28.51    1.28
  -2   2  20   28.02    1.33
  -2  -2 -20   29.37    1.46
  -2  -2  20   31.66    1.40
  -2   2 -20   29.77    1.40
  -2   2 -20   29.28    1.24
   2   2  20   28.78    1.26
   2  -2 -20   30.45    1.42
  -4   2  20   18.58    1.18
  -4  -2 -20   19.15    1.26
   4  -2  20   18.66    1.10
   4   2 -20   18.33    1.26
   4  -2 -20   18.34    1.08
  -4  -2  20   18.25    1.16
  -4   2 -20   15.52    1.09
  -4   2 -20   16.99    1.09
   4   2  20   18.40    1.12
   0  -4 -20    0.47    0.30
   0   4 -20    1.55    0.42
   0  -4  20    0.33    0.25
   0   4  20    0.55    0.27
   0   4  20    0.80    0.29
   2  -4  20   26.43    1.31
  -2   4  20   24.91    1.24
   2   4 -20   25.72    1.42
  -2  -4 -20   25.98    1.38
  -2   4 -20   25.23    1.30
   2   4  20   26.40    1.25
  -2   4 -20   24.63    1.18
  -2  -4  20   25.54    1.30
   2  -4 -20   27.06    1.30
  -4  -4 -20    0.90    0.45
  -4   4  20    2.18    0.57
   4   4 -20    0.72    0.47
   4  -4  20    0.81    0.40
  -4   4 -20    1.13    0.43
  -4  -4  20    1.01    0.42
   4  -4 -20    1.24    0.43
   4   4  20    1.01    0.42
   0   6  20    0.29    0.29
   0   6 -20    1.43    0.48
   0  -6  20    0.26    0.30
   0  -6 -20    0.14    0.29
  -2  -6 -20    3.35    0.65
  -2   6  20    2.95    0.54
   2  -6  20    2.62    0.59
   2   6 -20    2.32    0.61
  -2  -6  20    2.82    0.57
  -2   6 -20    2.98    0.56
   2  -6 -20    2.19    0.45
  -2   6 -20    3.37    0.57
   2   6  20    2.38    0.52
   0   8  20   50.71    1.92
   0   8 -20   51.17    2.03
   0  -8  20   48.73    1.98
   2  -8  20    1.47    0.48
   2   8 -20    1.31    0.52
  -2  -8 -20    2.82    0.63
  -2  -8  20    1.91    0.52
   2   8  20    1.76    0.49
   2  -8 -20    1.52    0.46
  -2   8 -20    2.22    0.54
   1  -1  21  180.01    3.94
  -1   1  21  176.88    4.27
   1   1 -21  184.39    4.61
   1  -1  21  183.59    4.29
  -1  -1 -21  183.62    4.52
  -1  -1  21  181.25    4.34
   1   1  21  185.46    4.21
  -1   1 -21  178.88    4.53
   1   1  21  184.06    3.98
   1  -1 -21  179.15    4.48
   3  -1  21   29.41    1.31
   3   1 -21   27.52    1.49
  -3  -1 -21   27.35    1.47
  -3   1  21   27.31    1.39
   3   1  21   27.71    1.31
  -3   1 -21   26.04    1.28
  -3   1 -21   28.59    1.47
  -3  -1  21   25.46    1.36
   3  -1 -21   27.44    1.42
  -1  -3 -21  233.49    5.41
   1   3 -21  229.79    5.49
  -1   3  21  225.37    5.12
   1  -3  21  228.16    5.19
  -1  -3  21  229.48    5.24
   1   3  21  228.41    4.81
  -1   3 -21  222.93    5.33
  -1   3 -21  222.70    4.72
   1  -3 -21  219.62    5.28
   3  -3  21   78.75    2.50
   3   3 -21   78.17    2.75
  -3  -3 -21   73.55    2.63
  -3   3  21   75.24    2.52
   3   3  21   79.96    2.46
  -3  -3  21   79.36    2.57
  -3   3 -21   81.87    2.61
  -3   3 -21   79.32    2.43
   3  -3 -21   82.25    2.56
   1  -5  21   64.50    2.20
  -1   5  21   65.92    2.06
  -1  -5 -21   61.75    2.26
   1   5 -21   64.84    2.36
  -1   5 -21   62.97    1.94
  -1   5 -21   64.07    2.24
   1  -5 -21   63.16    2.19
   1   5  21   61.68    2.05
  -1  -5  21   59.14    2.17
  -3   5  21  103.83    3.05
   3  -5  21  102.24    3.11
   3   5 -21   99.95    3.30
  -3  -5 -21  101.61    3.24
   3  -5 -21  103.71    2.86
  -3  -5  21  105.75    3.09
   3   5  21   97.05    2.91
  -3   5 -21  101.38    2.91
   1   7 -21   93.72    3.04
   1  -7  21   94.40    2.90
  -1   7 -21   91.47    2.86
   1   7  21   91.57    2.75
  -1  -7  21   96.69    2.92
   0   0 -22    0.64    0.36
   0   0  22    0.14    0.28
  -2   0 -22    0.63    0.34
   2   0  22    0.45    0.30
   2   0 -22    0.00    0.29
  -2   0  22    0.09    0.30
   2   0  22    0.44    0.28
   4   0 -22    0.27    0.39
  -4   0 -22   -0.19    0.33
  -4   0  22    0.11    0.32
   4   0  22   -0.01    0.28
   0  -2  22    0.68    0.32
   0  -2 -22    1.22    0.43
   0   2  22    1.91    0.42
   0   2 -22    1.82    0.48
  -2   2  22   19.94    1.16
  -2  -2 -22   20.70    1.27
   2  -2  22   19.93    1.11
   2   2 -22   18.69    1.24
   2  -2 -22   18.78    1.16
   2   2  22   19.86    1.09
  -2   2 -22   18.92    1.19
  -2  -2  22   20.62    1.19
  -2   2 -22   19.45    1.07
   4   2 -22    0.28    0.42
  -4  -2 -22    0.72    0.44
   4  -2  22    0.48    0.36
  -4   2  22    0.28    0.30
  -4   2 -22    0.93    0.46
  -4  -2  22    0.71    0.39
   4   2  22    0.07    0.31
  -4   2 -22    0.37    0.35
   0   4 -22   -0.09    0.28
   0  -4  22   -0.22    0.23
   0  -4 -22   -0.14    0.24
   0   4  22    0.01    0.25
  -2  -4 -22    0.87    0.45
   2   4 -22    0.66    0.41
  -2   4  22    0.45    0.33
   2  -4  22    0.46    0.34
   2   4  22    0.47    0.34
  -2   4 -22    0.80    0.38
  -2  -4  22    1.94    0.52
   2  -4 -22    1.00    0.41
  -2   4 -22    0.50    0.33
   0   6  22    0.11    0.27
   0   6 -22    1.13    0.45
   0  -6 -22    0.16    0.31
   0  -6  22    0.20    0.31
  -2   6  22   26.45    1.34
   2   6 -22   25.97    1.57
  -2  -6 -22   26.82    1.49
   2  -6  22   25.03    1.43
   2   6  22   26.61    1.37
  -2   6 -22   25.00    1.38
  -2  -6  22   26.81    1.44
  -2   6 -22   25.87    1.30
   1  -1  23    9.04    0.69
   1   1 -23    7.22    0.84
  -1   1  23    7.62    0.73
   1  -1  23    7.07    0.69
  -1  -1 -23    8.04    0.83
   1  -1 -23    8.04    0.82
  -1  -1  23    6.99    0.72
  -1   1 -23    6.59    0.77
   1   1  23    6.56    0.69
   1   1  23    7.84    0.67
  -3  -1 -23   85.47    2.87
   3   1 -23   85.40    2.87
   3  -1  23   85.13    2.55
  -3   1  23   80.97    2.68
   3  -1  23   83.15    2.54
   3   1  23   84.70    2.55
  -3  -1  23   84.15    2.76
   3  -1 -23   83.69    2.82
  -3   1 -23   80.53    2.81
   1   3 -23    2.77    0.63
   1  -3  23    3.42    0.62
  -1  -3 -23    3.37    0.66
  -1   3  23    2.92    0.56
   1   3  23    3.74    0.58
  -1   3 -23    2.09    0.55
  -1  -3  23    3.26    0.61
   1  -3 -23    3.37    0.64
   3  -3  23   33.18    1.56
   3   3 -23   32.31    1.76
  -3   3  23   33.57    1.61
  -3  -3 -23   34.50    1.74
   3   3  23   33.56    1.56
  -3   3 -23   31.57    1.48
  -3   3 -23   33.34    1.62
  -3  -3  23   34.85    1.64
   1  -5  23   34.50    1.65
   1   5 -23   37.32    1.83
  -1  -5 -23   35.96    1.75
   1  -5 -23   39.57    1.71
  -1   5 -23   36.47    1.71
   1   5  23   37.49    1.56
  -1  -5  23   40.62    1.76
   0   0  24   43.32    1.74
   0   0 -24   45.91    1.97
   2   0 -24   -0.07    0.33
  -2   0  24   -0.21    0.27
  -2   0 -24   -0.07    0.26
   2   0  24    1.28    0.42
   2   0  24    0.28    0.31
   0   2  24    0.19    0.28
   0   2 -24    1.53    0.48
   0  -2 -24    0.33    0.35
   0  -2  24    0.01    0.26
   2   2 -24  203.15    5.24
  -2   2  24  200.52    4.91
  -2  -2 -24  200.42    5.20
   2  -2  24  203.95    4.54
   2  -2  24  202.14    4.83
  -2   2 -24  188.64    5.06
   2  -2 -24  200.64    5.03
  -2  -2  24  201.12    4.96
   2   2  24  202.60    4.61
   0  -4  24  112.55    3.26
   0  -4 -24  110.22    3.33
   0   4 -24  111.52    3.42
   2  -4  24   23.41    1.33
  -2   4  24   23.47    1.30
   2   4 -24   22.89    1.44
  -2   4 -24   21.78    1.18
   2  -4 -24   22.61    1.34
  -2  -4  24   22.42    1.35
  -2   4 -24   21.71    1.33
   2   4  24   23.87    1.27
   0  -6 -24    0.17    0.38
   0   6 -24    0.14    0.37
   0  -6  24   -0.03    0.32
   1   1 -25    0.92    0.44
   1  -1  25    0.80    0.38
  -1   1  25    0.47    0.38
  -1  -1 -25    0.32    0.33
   1   1  25    1.76    0.46
   1  -1 -25    1.26    0.46
  -1  -1  25    0.92    0.42
  -1   1 -25    0.30    0.38
   1  -3  25   34.20    1.61
  -1   3  25   31.64    1.52
   1   3 -25   34.28    1.79
  -1  -3 -25   33.47    1.70
  -1   3 -25   30.72    1.67
  -1  -3  25   34.39    1.65
   1  -3 -25   34.43    1.71
   1   3  25   35.29    1.46
   0   0 -26   -0.11    0.29
   0   0  26    0.08    0.28
  -2   0  26   33.85    1.66
  -2   0 -26   32.46    1.75
   2   0  26   32.54    1.47
   2   0  26   34.81    1.57
   2   0 -26   33.70    1.76
   0   2  26  306.67    6.76
   0   2 -26  297.94    7.16
   0  -2  26  313.77    6.94
   0  -2 -26  313.43    7.16
   0   0   0    0.00    0.00
;
_shelx_hkl_checksum              94954
#END Tags that were not found in dictionaries
loop_
_space_group_symop_operation_xyz
'x, y, z'
'-x+3/4, -y+3/4, z'
'-x+3/4, y, -z+3/4'
'x, -y+3/4, -z+3/4'
'x, y+1/2, z+1/2'
'-x+3/4, -y+5/4, z+1/2'
'-x+3/4, y+1/2, -z+5/4'
'x, -y+5/4, -z+5/4'
'x+1/2, y, z+1/2'
'-x+5/4, -y+3/4, z+1/2'
'-x+5/4, y, -z+5/4'
'x+1/2, -y+3/4, -z+5/4'
'x+1/2, y+1/2, z'
'-x+5/4, -y+5/4, z'
'-x+5/4, y+1/2, -z+3/4'
'x+1/2, -y+5/4, -z+3/4'
'-x, -y, -z'
'x-3/4, y-3/4, -z'
'x-3/4, -y, z-3/4'
'-x, y-3/4, z-3/4'
'-x, -y+1/2, -z+1/2'
'x-3/4, y-1/4, -z+1/2'
'x-3/4, -y+1/2, z-1/4'
'-x, y-1/4, z-1/4'
'-x+1/2, -y, -z+1/2'
'x-1/4, y-3/4, -z+1/2'
'x-1/4, -y, z-1/4'
'-x+1/2, y-3/4, z-1/4'
'-x+1/2, -y+1/2, -z'
'x-1/4, y-1/4, -z'
'x-1/4, -y+1/2, z-3/4'
'-x+1/2, y-1/4, z-3/4'
loop_
_atom_site_label
_atom_site_type_symbol
_atom_site_fract_x
_atom_site_fract_y
_atom_site_fract_z
_atom_site_U_iso_or_equiv
_atom_site_adp_type
_atom_site_occupancy
_atom_site_site_symmetry_order
_atom_site_calc_flag
_atom_site_refinement_flags_posn
_atom_site_refinement_flags_adp
_atom_site_refinement_flags_occupancy
Sr1 Sr 0.1250 0.1250 0.6250 0.00460(8) Uani 1 4 d S T P
Ni2 Ni 0.1250 0.1250 0.00541(2) 0.00332(8) Uani 1 2 d S T P
P3 P 0.06351(6) 0.31813(3) 0.06867(2) 0.00349(9) Uani 1 1 d . . .
loop_
_atom_site_aniso_label
_atom_site_aniso_U_11
_atom_site_aniso_U_22
_atom_site_aniso_U_33
_atom_site_aniso_U_23
_atom_site_aniso_U_13
_atom_site_aniso_U_12
Sr1 0.00376(13) 0.00309(12) 0.00697(13) 0.000 0.000 0.000
Ni2 0.00328(13) 0.00387(12) 0.00282(13) 0.000 0.000 0.00024(7)
P3 0.00320(16) 0.00389(15) 0.00338(15) -0.00036(11) -0.00002(10) 0.00014(10)
loop_
_atom_type_symbol
_atom_type_description
_atom_type_scat_dispersion_real
_atom_type_scat_dispersion_imag
_atom_type_scat_source
P P 0.1023 0.0942 'International Tables Vol C Tables 4.2.6.8 and 6.1.1.4'
Ni Ni 0.3393 1.1124 'International Tables Vol C Tables 4.2.6.8 and 6.1.1.4'
Sr Sr -1.5307 3.2498 'International Tables Vol C Tables 4.2.6.8 and 6.1.1.4'
loop_
_geom_angle_atom_site_label_1
_geom_angle_atom_site_label_2
_geom_angle_atom_site_label_3
_geom_angle
_geom_angle_site_symmetry_1
_geom_angle_site_symmetry_3
P3 Sr1 P3 139.966(12) 6_445 9
P3 Sr1 P3 107.436(12) 6_445 16_545
P3 Sr1 P3 86.255(13) 9 16_545
P3 Sr1 P3 86.255(13) 6_445 3_455
P3 Sr1 P3 107.436(12) 9 3_455
P3 Sr1 P3 139.966(12) 16_545 3_455
P3 Sr1 P3 41.934(12) 6_445 5_545
P3 Sr1 P3 120.727(10) 9 5_545
P3 Sr1 P3 68.751(7) 16_545 5_545
P3 Sr1 P3 126.541(5) 3_455 5_545
P3 Sr1 P3 126.541(5) 6_445 4
P3 Sr1 P3 68.751(7) 9 4
P3 Sr1 P3 120.727(11) 16_545 4
P3 Sr1 P3 41.934(12) 3_455 4
P3 Sr1 P3 168.320(12) 5_545 4
P3 Sr1 P3 120.727(11) 6_445 10_455
P3 Sr1 P3 41.934(12) 9 10_455
P3 Sr1 P3 126.541(5) 16_545 10_455
P3 Sr1 P3 68.751(7) 3_455 10_455
P3 Sr1 P3 140.209(12) 5_545 10_455
P3 Sr1 P3 41.611(12) 4 10_455
P3 Sr1 P3 68.751(7) 6_445 15_445
P3 Sr1 P3 126.541(5) 9 15_445
P3 Sr1 P3 41.934(12) 16_545 15_445
P3 Sr1 P3 120.727(11) 3_455 15_445
P3 Sr1 P3 41.611(12) 5_545 15_445
P3 Sr1 P3 140.209(12) 4 15_445
P3 Sr1 P3 168.320(12) 10_455 15_445
P3 Sr1 Ni2 140.796(6) 6_445 3
P3 Sr1 Ni2 71.057(7) 9 3
P3 Sr1 Ni2 39.204(6) 16_545 3
P3 Sr1 Ni2 108.943(7) 3_455 3
P3 Sr1 Ni2 107.486(6) 5_545 3
P3 Sr1 Ni2 81.537(6) 4 3
P3 Sr1 Ni2 98.463(6) 10_455 3
P3 Sr1 Ni2 72.514(6) 15_445 3
P3 Sr1 Ni2 39.204(6) 6_445 9_455
P3 Sr1 Ni2 108.943(7) 9 9_455
P3 Sr1 Ni2 140.796(6) 16_545 9_455
P3 Sr1 Ni2 71.057(7) 3_455 9_455
P3 Sr1 Ni2 72.514(6) 5_545 9_455
P3 Sr1 Ni2 98.463(6) 4 9_455
P3 Sr1 Ni2 81.537(6) 10_455 9_455
P3 Sr1 Ni2 107.486(6) 15_445 9_455
Ni2 Sr1 Ni2 180.0 3 9_455
P3 Sr1 Ni2 71.057(7) 6_445 3_455
P3 Sr1 Ni2 140.796(6) 9 3_455
P3 Sr1 Ni2 108.943(7) 16_545 3_455
P3 Sr1 Ni2 39.204(6) 3_455 3_455
P3 Sr1 Ni2 98.463(6) 5_545 3_455
P3 Sr1 Ni2 72.514(6) 4 3_455
P3 Sr1 Ni2 107.486(6) 10_455 3_455
P3 Sr1 Ni2 81.537(6) 15_445 3_455
Ni2 Sr1 Ni2 97.750(7) 3 3_455
Ni2 Sr1 Ni2 82.250(7) 9_455 3_455
P3 Sr1 Ni2 108.943(7) 6_445 9
P3 Sr1 Ni2 39.204(6) 9 9
P3 Sr1 Ni2 71.057(7) 16_545 9
P3 Sr1 Ni2 140.796(6) 3_455 9
P3 Sr1 Ni2 81.537(6) 5_545 9
P3 Sr1 Ni2 107.486(6) 4 9
P3 Sr1 Ni2 72.514(6) 10_455 9
P3 Sr1 Ni2 98.463(6) 15_445 9
Ni2 Sr1 Ni2 82.250(7) 3 9
Ni2 Sr1 Ni2 97.750(7) 9_455 9
Ni2 Sr1 Ni2 180.0 3_455 9
P3 Ni2 P3 101.09(2) 30 29
P3 Ni2 P3 104.088(10) 30 14_445
P3 Ni2 P3 116.208(16) 29 14_445
P3 Ni2 P3 116.208(16) 30 .
P3 Ni2 P3 104.088(10) 29 .
P3 Ni2 P3 114.76(2) 14_445 .
P3 Ni2 Ni2 52.284(10) 30 17
P3 Ni2 Ni2 121.070(14) 29 17
P3 Ni2 Ni2 51.805(10) 14_445 17
P3 Ni2 Ni2 134.387(13) . 17
P3 Ni2 Ni2 121.070(14) 30 29
P3 Ni2 Ni2 52.284(10) 29 29
P3 Ni2 Ni2 134.387(13) 14_445 29
P3 Ni2 Ni2 51.804(10) . 29
Ni2 Ni2 Ni2 171.37(2) 17 29
P3 Ni2 Sr1 165.758(8) 30 9_554
P3 Ni2 Sr1 82.335(9) 29 9_554
P3 Ni2 Sr1 62.441(9) 14_445 9_554
P3 Ni2 Sr1 75.735(10) . 9_554
Ni2 Ni2 Sr1 114.082(8) 17 9_554
Ni2 Ni2 Sr1 72.000(6) 29 9_554
P3 Ni2 Sr1 82.335(9) 30 9_454
P3 Ni2 Sr1 165.758(8) 29 9_454
P3 Ni2 Sr1 75.735(10) 14_445 9_454
P3 Ni2 Sr1 62.441(9) . 9_454
Ni2 Ni2 Sr1 72.000(6) 17 9_454
Ni2 Ni2 Sr1 114.082(8) 29 9_454
Sr1 Ni2 Sr1 97.748(7) 9_554 9_454
P3 Ni2 Sr1 70.799(10) 30 25
P3 Ni2 Sr1 58.266(9) 29 25
P3 Ni2 Sr1 76.833(9) 14_445 25
P3 Ni2 Sr1 162.353(10) . 25
Ni2 Ni2 Sr1 63.110(7) 17 25
Ni2 Ni2 Sr1 110.549(9) 29 25
Sr1 Ni2 Sr1 100.157(2) 9_554 25
Sr1 Ni2 Sr1 135.110(1) 9_454 25
P3 Ni2 Sr1 58.266(9) 30 21
P3 Ni2 Sr1 70.799(10) 29 21
P3 Ni2 Sr1 162.353(10) 14_445 21
P3 Ni2 Sr1 76.833(9) . 21
Ni2 Ni2 Sr1 110.549(9) 17 21
Ni2 Ni2 Sr1 63.110(7) 29 21
Sr1 Ni2 Sr1 135.110(1) 9_554 21
Sr1 Ni2 Sr1 100.157(3) 9_454 21
Sr1 Ni2 Sr1 95.458(7) 25 21
Ni2 P3 Ni2 75.910(10) 29 .
Ni2 P3 P3 113.53(2) 29 11_454
Ni2 P3 P3 118.380(12) . 11_454
Ni2 P3 P3 121.359(16) 29 2_455
Ni2 P3 P3 121.900(18) . 2_455
P3 P3 P3 104.505(14) 11_454 2_455
Ni2 P3 Sr1 153.797(14) 29 9_454
Ni2 P3 Sr1 78.353(10) . 9_454
P3 P3 Sr1 83.173(14) 11_454 9_454
P3 P3 Sr1 69.469(15) 2_455 9_454
Ni2 P3 Sr1 84.943(10) 29 5_554
Ni2 P3 Sr1 160.852(14) . 5_554
P3 P3 Sr1 69.196(6) 11_454 5_554
P3 P3 Sr1 68.598(15) 2_455 5_554
Sr1 P3 Sr1 120.728(10) 9_454 5_554
Ni2 P3 Sr1 73.911(10) 29 9_554
Ni2 P3 Sr1 67.624(9) . 9_554
P3 P3 Sr1 59.040(13) 11_454 9_554
P3 P3 Sr1 162.502(6) 2_455 9_554
Sr1 P3 Sr1 100.686(9) 9_454 9_554
Sr1 P3 Sr1 107.159(9) 5_554 9_554
loop_
_geom_bond_atom_site_label_1
_geom_bond_atom_site_label_2
_geom_bond_distance
_geom_bond_site_symmetry_2
Sr1 P3 3.1200(3) 6_445
Sr1 P3 3.1200(3) 9
Sr1 P3 3.1200(3) 16_545
Sr1 P3 3.1200(3) 3_455
Sr1 P3 3.1382(3) 5_545
Sr1 P3 3.1382(3) 4
Sr1 P3 3.1382(3) 10_455
Sr1 P3 3.1382(3) 15_445
Sr1 Ni2 3.44682(19) 3
Sr1 Ni2 3.44682(19) 9_455
Sr1 Ni2 3.44682(18) 3_455
Sr1 Ni2 3.44682(19) 9
Ni2 P3 2.2100(4) 30
Ni2 P3 2.2100(4) 29
Ni2 P3 2.2245(3) 14_445
Ni2 P3 2.2246(3) .
Ni2 Ni2 2.72752(10) 17
Ni2 Ni2 2.72752(9) 29
Ni2 Sr1 3.44686(18) 9_554
Ni2 Sr1 3.44686(19) 9_454
Ni2 Sr1 3.67553(19) 25
Ni2 Sr1 3.67553(18) 21
P3 Ni2 2.2101(4) 29
P3 P3 2.2293(7) 11_454
P3 P3 2.2394(7) 2_455
P3 Sr1 3.1200(3) 9_454
P3 Sr1 3.1382(3) 5_554
P3 Sr1 3.6126(3) 9_554
