#------------------------------------------------------------------------------
#$Date: 2016-03-21 01:21:50 +0200 (Mon, 21 Mar 2016) $
#$Revision: 178377 $
#$URL: svn://www.crystallography.net/cod/cif/4/00/21/4002105.cif $
#------------------------------------------------------------------------------
#
# This file is available in the Crystallography Open Database (COD),
# http://www.crystallography.net/
#
# All data on this site have been placed in the public domain by the
# contributors.
#
data_4002105
loop_
_publ_author_name
'Nanthamathee, Chompoonoot'
'Ling, Sanliang'
'Slater, Ben'
'Attfield, Martin P.'
_publ_section_title
;
 Contradistinct Thermoresponsive Behavior of Isostructural MIL-53 Type
 Metal--Organic Frameworks by Modifying the Framework Inorganic Anion
;
_journal_name_full               'Chemistry of Materials'
_journal_page_first              141223143002002
_journal_paper_doi               10.1021/cm503311x
_journal_year                    2014
_chemical_formula_sum            'C8 Al O5'
_chemical_formula_weight         203.07
_chemical_name_systematic        ' ?'
_space_group_IT_number           74
_symmetry_cell_setting           orthorhombic
_symmetry_space_group_name_Hall  '-I 2b 2'
_symmetry_space_group_name_H-M   'I m m a'
_audit_creation_date             2014-08-28T12:15
_audit_creation_method           'from EXP file using GSAS2CIF'
_audit_update_record
' 2014-08-28T12:15  Initial CIF as created by GSAS2CIF'
_cell_angle_alpha                90.0
_cell_angle_beta                 90.0
_cell_angle_gamma                90.0
_cell_formula_units_Z            4
_cell_length_a                   6.62982(6)
_cell_length_b                   16.76377(17)
_cell_length_c                   12.78585(23)
_cell_volume                     1421.03(3)
_computing_structure_refinement  GSAS
_diffrn_radiation_polarisn_ratio 0.95
_diffrn_radiation_probe          x-ray
_diffrn_radiation_wavelength     0.825993
_exptl_absorpt_correction_T_max  1.00000
_exptl_absorpt_correction_T_min  1.00000
_exptl_absorpt_process_details
;   GSAS Absorption/surface roughness correction: function number 0
 No correction is applied.
;
_pd_block_id                     2014-08-28T12:15|275K|300k|i11
_pd_calc_method                  'Rietveld Refinement'
_pd_instr_location               ' ?'
_pd_meas_2theta_range_inc        0.003
_pd_meas_2theta_range_max        149.9955
_pd_meas_2theta_range_min        0.0015
_pd_meas_number_of_points        49999
_pd_phase_name                   300K
_pd_proc_2theta_range_inc        0.003
_pd_proc_2theta_range_max        150.0045
_pd_proc_2theta_range_min        0.010506
_pd_proc_info_datetime           2014-08-28T12:15:42
_pd_proc_info_excluded_regions   ' ?'
_pd_proc_ls_background_function
;   GSAS Background function number 1 with  2 terms.
 Shifted Chebyshev function of 1st kind
      1:    0.00000     2:    0.00000    
;
_pd_proc_ls_peak_cutoff          0.00100
_pd_proc_ls_profile_function
;
 CW Profile function number 4 with  18 terms
 Pseudovoigt profile coefficients as parameterized in
 P. Thompson, D.E. Cox & J.B. Hastings (1987). J. Appl. Cryst.,20,79-83.
 Asymmetry correction of L.W. Finger, D.E. Cox & A. P. Jephcoat (1994).
 J. Appl. Cryst.,27,892-900.
 Microstrain broadening by P.W. Stephens,  (1999). J. Appl. Cryst.,32,281-289.
 Peak tails are ignored  where the intensity is below 0.0010 times the peak
   Aniso. broadening axis   1.0   0.0   1.0
;
_pd_proc_ls_prof_R_factor        0.0343
_pd_proc_ls_prof_wR_expected     0.0225
_pd_proc_ls_prof_wR_factor       0.0456
_pd_proc_number_of_points        49999
_pd_spec_mounting                ' ?'
_refine_ls_goodness_of_fit_all   2.03
_refine_ls_matrix_type           full
_refine_ls_number_parameters     28
_refine_ls_number_restraints     0
_refine_ls_R_Fsqd_factor         0.15748
_refine_ls_shift/su_max          0.08
_refine_ls_shift/su_mean         0.01
_reflns_d_resolution_high        1.208
_reflns_d_resolution_low         8.382
_reflns_limit_h_max              5
_reflns_limit_h_min              0
_reflns_limit_k_max              13
_reflns_limit_k_min              0
_reflns_limit_l_max              10
_reflns_limit_l_min              0
_reflns_number_total             252
_cod_data_source_file            aloh275K.cif
_cod_data_source_block           275K_publ
_cod_depositor_comments
;
The following automatic conversions were performed:

'_geom_bond_publ_flag' value 'N' changed to 'n' according to
/home/saulius/struct/COD-crude-data--automatic-downloads/rss-feeds/ACS/lib/dictionaries/cif_core.dic
dictionary named 'cif_core.dic' version 2.4.2 from 2011-04-26 (18
times).

'_geom_angle_publ_flag' value 'N' changed to 'n' according
to
/home/saulius/struct/COD-crude-data--automatic-downloads/rss-feeds/ACS/lib/dictionaries/cif_core.dic
dictionary named 'cif_core.dic' version 2.4.2 from 2011-04-26 (24
times).

Automatic conversion script
Id: cif_fix_values 2935 2014-11-11 08:27:57Z andrius 
;
_cod_original_cell_volume        1421.030(32)
_cod_database_code               4002105
#BEGIN Tags that were not found in dictionaries:
_gsas_exptl_extinct_corr_t_min   1.00000
_gsas_exptl_extinct_corr_t_max   1.00000
#END Tags that were not found in dictionaries
loop_
_symmetry_equiv_pos_site_id
_symmetry_equiv_pos_as_xyz
1 +x,+y,+z
2 -x,+y,+z
3 +x,-y+1/2,+z
4 -x,-y+1/2,+z
-1 -x,-y,-z
-2 +x,-y,-z
-3 -x,+y+1/2,-z
-4 +x,+y+1/2,-z
101 +x+1/2,+y+1/2,+z+1/2
102 -x+1/2,+y+1/2,+z+1/2
103 +x+1/2,-y,+z+1/2
104 -x+1/2,-y,+z+1/2
-101 -x+1/2,-y+1/2,-z+1/2
-102 +x+1/2,-y+1/2,-z+1/2
-103 -x+1/2,+y,-z+1/2
-104 +x+1/2,+y,-z+1/2
loop_
_atom_site_type_symbol
_atom_site_label
_atom_site_fract_x
_atom_site_fract_y
_atom_site_fract_z
_atom_site_occupancy
_atom_site_thermal_displace_type
_atom_site_U_iso_or_equiv
_atom_site_symmetry_multiplicity
Al Al1 0.25 0.25 0.75 1.0 Uiso 0.0175(10) 4
O O2 0.0 0.25 0.6852(4) 1.0 Uiso 0.0185(8) 4
O O1 0.16631(31) 0.16819(13) 0.84278(21) 1.0 Uiso 0.0185(8) 16
C C3 -0.1904(4) 0.03563(28) 0.9692(4) 1.0 Uiso 0.0335(14) 16
C C2 0.0 0.0632(4) 0.9458(5) 1.0 Uiso 0.0335(14) 8
C C1 0.0 0.13686(35) 0.8709(6) 1.0 Uiso 0.0335(14) 8
loop_
_atom_type_symbol
_atom_type_number_in_cell
_atom_type_scat_dispersion_real
_atom_type_scat_dispersion_imag
_atom_type_scat_Cromer_Mann_a1
_atom_type_scat_Cromer_Mann_a2
_atom_type_scat_Cromer_Mann_a3
_atom_type_scat_Cromer_Mann_a4
_atom_type_scat_Cromer_Mann_b1
_atom_type_scat_Cromer_Mann_b2
_atom_type_scat_Cromer_Mann_b3
_atom_type_scat_Cromer_Mann_b4
_atom_type_scat_Cromer_Mann_c
_atom_type_scat_source
Al 4.0 0.000 0.000 6.42020 3.03870 1.90020 0.74260 1.59360 31.5472 1.96460
85.0886 1.11510 International_Tables_Vol_C
O 20.0 0.000 0.000 3.04850 13.2771 2.28680 5.70110 1.54630 0.32390 0.86700
32.9089 0.25080 International_Tables_Vol_C
C 32.0 0.000 0.000 2.31000 20.8439 1.02000 10.2075 1.58860 0.56870 0.86500
51.6512 0.21560 International_Tables_Vol_C
loop_
_geom_angle_atom_site_label_1
_geom_angle_atom_site_label_2
_geom_angle_atom_site_label_3
_geom_angle
_geom_angle_site_symmetry_1
_geom_angle_site_symmetry_3
_geom_angle_publ_flag
O2 Al1 O2 180.0 1_555 -101_546 n
O2 Al1 O1 91.04(12) 1_555 1_555 n
O2 Al1 O1 91.04(12) 1_555 3_555 n
O2 Al1 O1 88.96(12) 1_555 -101_566 n
O2 Al1 O1 88.96(12) 1_555 -103_566 n
O2 Al1 O1 88.96(12) -101_566 1_555 n
O2 Al1 O1 88.96(12) -101_566 3_555 n
O2 Al1 O1 91.04(12) -101_566 -101_566 n
O2 Al1 O1 91.04(12) -101_566 -103_566 n
O1 Al1 O1 92.64(17) 1_555 3_555 n
O1 Al1 O1 180.0 1_555 -101_566 n
O1 Al1 O1 87.36(17) 1_555 -103_566 n
O1 Al1 O1 87.36(17) 3_555 -101_566 n
O1 Al1 O1 180.0 3_555 -103_566 n
O1 Al1 O1 92.64(17) -101_566 -103_566 n
Al1 O2 Al1 126.87(30) 1_555 2_555 n
Al1 O1 C1 136.75(33) 1_555 1_555 n
C3 C3 C2 113.55(33) -2_557 1_555 n
C3 C2 C3 132.9(7) 1_555 2_555 n
C3 C2 C1 113.46(33) 1_555 1_555 n
C3 C2 C1 113.46(33) 2_555 1_555 n
O1 C1 O1 120.0(6) 1_555 2_555 n
O1 C1 C2 119.93(29) 1_555 1_555 n
O1 C1 C2 119.93(29) 2_555 1_555 n
loop_
_geom_bond_atom_site_label_1
_geom_bond_atom_site_label_2
_geom_bond_distance
_geom_bond_site_symmetry_2
_geom_bond_publ_flag
Al1 O2 1.8531(24) 1_555 n
Al1 O2 1.8531(24) -101_445 n
Al1 O1 1.8963(19) 1_555 n
Al1 O1 1.8963(19) 3_555 n
Al1 O1 1.8963(19) -101_445 n
Al1 O1 1.8963(19) -103_445 n
O2 Al1 1.8531(24) 1_555 n
O2 Al1 1.8531(24) 2_555 n
O1 Al1 1.8963(19) 1_555 n
O1 C1 1.2731(31) 1_555 n
C3 C3 1.431(7) -2_557 n
C3 C2 1.3770(30) 1_555 n
C2 C3 1.3770(30) 1_555 n
C2 C3 1.3770(30) 2_555 n
C2 C1 1.563(6) 1_555 n
C1 O1 1.2731(31) 1_555 n
C1 O1 1.2731(31) 2_555 n
C1 C2 1.563(6) 1_555 n
loop_
_pd_meas_intensity_total
_pd_proc_ls_weight
_pd_proc_intensity_bkg_calc
_pd_calc_intensity_total
14.9(21) 0.0 0.00 .
20.1(25) 0.0 0.00 .
19.1(23) 0.0 0.00 .
22.4(25) 0.0 0.00 .
39.1(32) 0.0 0.00 .
112(6) 0.0 0.0 .
115(6) 0.0 0.0 .
717(15) 0.0 0.0 .
1295(19) 0.0 0.0 .
2527(27) 0.0 0.0 .
2898(29) 0.0 0.0 .
2849(29) 0.0 0.0 .
2987(28) 0.0 0.0 .
1142(21) 0.0 0.0 .
103(5) 0.0 0.0 .
58(4) 0.0 0.0 .
41.3(34) 0.0 0.00 .
35.8(31) 0.0 0.00 .
36.5(32) 0.0 0.00 .
58(4) 0.0 0.0 .
214(8) 0.0 0.0 .
334(10) 0.0 0.0 .
687(14) 0.0 0.0 .
941(17) 0.0 0.0 .
1025(18) 0.0 0.0 .
1221(19) 0.0 0.0 .
1287(19) 0.0 0.0 .
1465(20) 0.0 0.0 .
1748(23) 0.0 0.0 .
1822(24) 0.0 0.0 .
1999(24) 0.0 0.0 .
2045(24) 0.0 0.0 .
1795(22) 0.0 0.0 .
1614(22) 0.0 0.0 .
1195(20) 0.0 0.0 .
658(14) 0.0 0.0 .
353(10) 0.0 0.0 .
224(8) 0.0 0.0 .
129(6) 0.0 0.0 .
79(5) 0.0 0.0 .
50(4) 0.0 0.0 .
38.1(32) 0.0 0.00 .
32.7(29) 0.0 0.00 .
31.3(30) 0.0 0.00 .
30.7(32) 0.0 0.00 .
38.4(35) 0.0 0.00 .
35.0(32) 0.0 0.00 .
32.5(30) 0.0 0.00 .
26.1(27) 0.0 0.00 .
32.7(31) 0.0 0.00 .
31.4(29) 0.0 0.00 .
21.5(24) 0.0 0.00 .
29.5(28) 0.0 0.00 .
27.1(27) 0.0 0.00 .
29.6(31) 0.0 0.00 .
27.2(28) 0.0 0.00 .
31.6(30) 0.0 0.00 .
37.8(34) 0.0 0.00 .
34.6(34) 0.0 0.00 .
27.2(27) 0.0 0.00 .
26.6(29) 0.0 0.00 .
28.3(28) 0.0 0.00 .
30.2(29) 0.0 0.00 .
30.2(31) 0.0 0.00 .
28.8(28) 0.0 0.00 .
36.2(32) 0.0 0.00 .
39.6(33) 0.0 0.00 .
36.8(32) 0.0 0.00 .
34.4(32) 0.0 0.00 .
25.7(28) 0.0 0.00 .
27.2(27) 0.0 0.00 .
41.1(33) 0.0 0.00 .
37(4) 0.0 0.0 .
28.5(30) 0.0 0.00 .
37(4) 0.0 0.0 .
38.6(33) 0.0 0.00 .
43.8(35) 0.0 0.00 .
35.5(32) 0.0 0.00 .
31.0(31) 0.0 0.00 .
38.0(34) 0.0 0.00 .
28.4(28) 0.0 0.00 .
38.0(33) 0.0 0.00 .
33.7(31) 0.0 0.00 .
40(4) 0.0 0.0 .
30.4(29) 0.0 0.00 .
37.8(33) 0.0 0.00 .
45.1(34) 0.0 0.00 .
39.8(35) 0.0 0.00 .
40(4) 0.0 0.0 .
37.3(32) 0.0 0.00 .
39.0(32) 0.0 0.00 .
36.4(32) 0.0 0.00 .
32.2(30) 0.0 0.00 .
43(4) 0.0 0.0 .
55(4) 0.0 0.0 .
63(4) 0.0 0.0 .
65(4) 0.0 0.0 .
73(5) 0.0 0.0 .
79(5) 0.0 0.0 .
82(5) 0.0 0.0 .
86(5) 0.0 0.0 .
105(5) 0.0 0.0 .
111(6) 0.0 0.0 .
133(6) 0.0 0.0 .
145(7) 0.0 0.0 .
141(6) 0.0 0.0 .
161(7) 0.0 0.0 .
168(7) 0.0 0.0 .
162(7) 0.0 0.0 .
185(7) 0.0 0.0 .
195(7) 0.0 0.0 .
198(7) 0.0 0.0 .
206(8) 0.0 0.0 .
205(8) 0.0 0.0 .
220(8) 0.0 0.0 .
223(8) 0.0 0.0 .
236(8) 0.0 0.0 .
253(9) 0.0 0.0 .
254(9) 0.0 0.0 .
274(9) 0.0 0.0 .
251(8) 0.0 0.0 .
294(9) 0.0 0.0 .
307(10) 0.0 0.0 .
304(9) 0.0 0.0 .
309(9) 0.0 0.0 .
350(10) 0.0 0.0 .
325(10) 0.0 0.0 .
318(10) 0.0 0.0 .
342(10) 0.0 0.0 .
343(10) 0.0 0.0 .
353(10) 0.0 0.0 .
360(10) 0.0 0.0 .
394(11) 0.0 0.0 .
381(10) 0.0 0.0 .
384(10) 0.0 0.0 .
405(11) 0.0 0.0 .
430(11) 0.0 0.0 .
420(11) 0.0 0.0 .
425(11) 0.0 0.0 .
438(11) 0.0 0.0 .
467(11) 0.0 0.0 .
427(11) 0.0 0.0 .
469(12) 0.0 0.0 .
492(12) 0.0 0.0 .
488(11) 0.0 0.0 .
522(12) 0.0 0.0 .
475(11) 0.0 0.0 .
501(12) 0.0 0.0 .
523(13) 0.0 0.0 .
506(12) 0.0 0.0 .
514(12) 0.0 0.0 .
509(12) 0.0 0.0 .
531(13) 0.0 0.0 .
506(12) 0.0 0.0 .
531(12) 0.0 0.0 .
545(12) 0.0 0.0 .
533(12) 0.0 0.0 .
510(12) 0.0 0.0 .
512(12) 0.0 0.0 .
547(12) 0.0 0.0 .
553(13) 0.0 0.0 .
559(13) 0.0 0.0 .
509(12) 0.0 0.0 .
564(13) 0.0 0.0 .
565(12) 0.0 0.0 .
557(13) 0.0 0.0 .
582(13) 0.0 0.0 .
577(13) 0.0 0.0 .
585(13) 0.0 0.0 .
577(13) 0.0 0.0 .
582(13) 0.0 0.0 .
597(14) 0.0 0.0 .
590(13) 0.0 0.0 .
575(13) 0.0 0.0 .
592(13) 0.0 0.0 .
603(13) 0.0 0.0 .
611(14) 0.0 0.0 .
610(13) 0.0 0.0 .
612(13) 0.0 0.0 .
625(13) 0.0 0.0 .
618(14) 0.0 0.0 .
634(14) 0.0 0.0 .
632(14) 0.0 0.0 .
652(14) 0.0 0.0 .
636(13) 0.0 0.0 .
646(14) 0.0 0.0 .
629(14) 0.0 0.0 .
621(13) 0.0 0.0 .
675(13) 0.0 0.0 .
655(13) 0.0 0.0 .
666(14) 0.0 0.0 .
619(14) 0.0 0.0 .
666(14) 0.0 0.0 .
650(13) 0.0 0.0 .
678(14) 0.0 0.0 .
665(14) 0.0 0.0 .
666(15) 0.0 0.0 .
668(14) 0.0 0.0 .
658(13) 0.0 0.0 .
670(14) 0.0 0.0 .
662(14) 0.0 0.0 .
678(14) 0.0 0.0 .
700(14) 0.0 0.0 .
712(14) 0.0 0.0 .
756(14) 0.0 0.0 .
732(14) 0.0 0.0 .
710(15) 0.0 0.0 .
690(14) 0.0 0.0 .
685(13) 0.0 0.0 .
730(14) 0.0 0.0 .
732(15) 0.0 0.0 .
688(14) 0.0 0.0 .
695(14) 0.0 0.0 .
738(14) 0.0 0.0 .
749(14) 0.0 0.0 .
754(15) 0.0 0.0 .
739(15) 0.0 0.0 .
714(14) 0.0 0.0 .
713(14) 0.0 0.0 .
702(14) 0.0 0.0 .
780(15) 0.0 0.0 .
758(15) 0.0 0.0 .
760(15) 0.0 0.0 .
739(14) 0.0 0.0 .
738(15) 0.0 0.0 .
779(15) 0.0 0.0 .
769(15) 0.0 0.0 .
756(14) 0.0 0.0 .
800(15) 0.0 0.0 .
761(15) 0.0 0.0 .
771(15) 0.0 0.0 .
807(15) 0.0 0.0 .
787(15) 0.0 0.0 .
815(15) 0.0 0.0 .
812(15) 0.0 0.0 .
796(16) 0.0 0.0 .
816(15) 0.0 0.0 .
772(14) 0.0 0.0 .
749(14) 0.0 0.0 .
799(15) 0.0 0.0 .
853(17) 0.0 0.0 .
837(15) 0.0 0.0 .
799(15) 0.0 0.0 .
793(15) 0.0 0.0 .
776(15) 0.0 0.0 .
801(16) 0.0 0.0 .
830(15) 0.0 0.0 .
863(15) 0.0 0.0 .
846(15) 0.0 0.0 .
806(15) 0.0 0.0 .
830(16) 0.0 0.0 .
848(16) 0.0 0.0 .
866(15) 0.0 0.0 .
805(15) 0.0 0.0 .
869(16) 0.0 0.0 .
814(16) 0.0 0.0 .
819(15) 0.0 0.0 .
892(16) 0.0 0.0 .
863(16) 0.0 0.0 .
826(15) 0.0 0.0 .
844(16) 0.0 0.0 .
874(16) 0.0 0.0 .
848(15) 0.0 0.0 .
884(16) 0.0 0.0 .
910(16) 0.0 0.0 .
882(16) 0.0 0.0 .
853(16) 0.0 0.0 .
900(16) 0.0 0.0 .
890(16) 0.0 0.0 .
923(17) 0.0 0.0 .
909(16) 0.0 0.0 .
925(16) 0.0 0.0 .
893(15) 0.0 0.0 .
859(16) 0.0 0.0 .
853(16) 0.0 0.0 .
915(16) 0.0 0.0 .
891(16) 0.0 0.0 .
907(16) 0.0 0.0 .
900(16) 0.0 0.0 .
878(16) 0.0 0.0 .
905(16) 0.0 0.0 .
885(16) 0.0 0.0 .
886(15) 0.0 0.0 .
881(16) 0.0 0.0 .
905(16) 0.0 0.0 .
951(17) 0.0 0.0 .
920(16) 0.0 0.0 .
919(16) 0.0 0.0 .
943(16) 0.0 0.0 .
916(17) 0.0 0.0 .
885(16) 0.0 0.0 .
966(16) 0.0 0.0 .
915(16) 0.0 0.0 .
984(17) 0.0 0.0 .
916(17) 0.0 0.0 .
884(16) 0.0 0.0 .
945(16) 0.0 0.0 .
946(16) 0.0 0.0 .
918(16) 0.0 0.0 .
957(17) 0.0 0.0 .
890(16) 0.0 0.0 .
874(15) 0.0 0.0 .
929(16) 0.0 0.0 .
931(16) 0.0 0.0 .
928(17) 0.0 0.0 .
964(17) 0.0 0.0 .
931(16) 0.0 0.0 .
962(16) 0.0 0.0 .
965(17) 0.0 0.0 .
957(17) 0.0 0.0 .
898(16) 0.0 0.0 .
940(16) 0.0 0.0 .
988(17) 0.0 0.0 .
929(16) 0.0 0.0 .
958(17) 0.0 0.0 .
951(16) 0.0 0.0 .
975(16) 0.0 0.0 .
1000(17) 0.0 0.0 .
1014(17) 0.0 0.0 .
974(17) 0.0 0.0 .
971(17) 0.0 0.0 .
995(16) 0.0 0.0 .
939(16) 0.0 0.0 .
950(17) 0.0 0.0 .
963(17) 0.0 0.0 .
967(16) 0.0 0.0 .
982(16) 0.0 0.0 .
990(17) 0.0 0.0 .
1008(18) 0.0 0.0 .
991(17) 0.0 0.0 .
961(16) 0.0 0.0 .
964(16) 0.0 0.0 .
1006(17) 0.0 0.0 .
974(17) 0.0 0.0 .
969(17) 0.0 0.0 .
997(16) 0.0 0.0 .
1054(17) 0.0 0.0 .
987(17) 0.0 0.0 .
988(17) 0.0 0.0 .
1018(17) 0.0 0.0 .
982(16) 0.0 0.0 .
1011(17) 0.0 0.0 .
1049(18) 0.0 0.0 .
1002(18) 0.0 0.0 .
989(17) 0.0 0.0 .
1024(17) 0.0 0.0 .
1017(17) 0.0 0.0 .
998(17) 0.0 0.0 .
1026(18) 0.0 0.0 .
1030(17) 0.0 0.0 .
1083(17) 0.0 0.0 .
1032(17) 0.0 0.0 .
1043(17) 0.0 0.0 .
1046(18) 0.0 0.0 .
1051(17) 0.0 0.0 .
1075(17) 0.0 0.0 .
1074(17) 0.0 0.0 .
1101(18) 0.0 0.0 .
1100(18) 0.0 0.0 .
1079(18) 0.0 0.0 .
1072(17) 0.0 0.0 .
1059(17) 0.0 0.0 .
1118(18) 0.0 0.0 .
1064(17) 0.0 0.0 .
1097(18) 0.0 0.0 .
1101(17) 0.0 0.0 .
1091(18) 0.0 0.0 .
1123(18) 0.0 0.0 .
1035(17) 0.0 0.0 .
1122(18) 0.0 0.0 .
1131(17) 0.0 0.0 .
1049(17) 0.0 0.0 .
1163(19) 0.0 0.0 .
1097(18) 0.0 0.0 .
1134(18) 0.0 0.0 .
1092(17) 0.0 0.0 .
1139(18) 0.0 0.0 .
1117(18) 0.0 0.0 .
1135(18) 0.0 0.0 .
1161(18) 0.0 0.0 .
1190(18) 0.0 0.0 .
1212(19) 0.0 0.0 .
1145(19) 0.0 0.0 .
1164(18) 0.0 0.0 .
1222(18) 0.0 0.0 .
1162(18) 0.0 0.0 .
1127(18) 0.0 0.0 .
1181(19) 0.0 0.0 .
1181(19) 0.0 0.0 .
1160(18) 0.0 0.0 .
1212(18) 0.0 0.0 .
1205(19) 0.0 0.0 .
1240(19) 0.0 0.0 .
1246(19) 0.0 0.0 .
1133(18) 0.0 0.0 .
1207(18) 0.0 0.0 .
1200(19) 0.0 0.0 .
1238(19) 0.0 0.0 .
1216(19) 0.0 0.0 .
1167(18) 0.0 0.0 .
1261(19) 0.0 0.0 .
1207(18) 0.0 0.0 .
1193(19) 0.0 0.0 .
1209(19) 0.0 0.0 .
1237(18) 0.0 0.0 .
1264(19) 0.0 0.0 .
1263(19) 0.0 0.0 .
1268(19) 0.0 0.0 .
1253(19) 0.0 0.0 .
1246(18) 0.0 0.0 .
1303(19) 0.0 0.0 .
1248(19) 0.0 0.0 .
1274(20) 0.0 0.0 .
1290(19) 0.0 0.0 .
1288(19) 0.0 0.0 .
1247(19) 0.0 0.0 .
1224(19) 0.0 0.0 .
1280(19) 0.0 0.0 .
1261(19) 0.0 0.0 .
1267(18) 0.0 0.0 .
1265(19) 0.0 0.0 .
1285(20) 0.0 0.0 .
1280(19) 0.0 0.0 .
1271(19) 0.0 0.0 .
1261(18) 0.0 0.0 .
1265(19) 0.0 0.0 .
1310(20) 0.0 0.0 .
1311(19) 0.0 0.0 .
1297(19) 0.0 0.0 .
1256(18) 0.0 0.0 .
1247(19) 0.0 0.0 .
1229(19) 0.0 0.0 .
1309(19) 0.0 0.0 .
1285(19) 0.0 0.0 .
1242(18) 0.0 0.0 .
1275(19) 0.0 0.0 .
1290(20) 0.0 0.0 .
1254(19) 0.0 0.0 .
1331(19) 0.0 0.0 .
1232(18) 0.0 0.0 .
1259(19) 0.0 0.0 .
1239(20) 0.0 0.0 .
1278(19) 0.0 0.0 .
1309(19) 0.0 0.0 .
1326(19) 0.0 0.0 .
1282(19) 0.0 0.0 .
1275(20) 0.0 0.0 .
1336(20) 0.0 0.0 .
1285(19) 0.0 0.0 .
1371(19) 0.0 0.0 .
1305(19) 0.0 0.0 .
1305(20) 0.0 0.0 .
1267(19) 0.0 0.0 .
1284(19) 0.0 0.0 .
1278(19) 0.0 0.0 .
1262(19) 0.0 0.0 .
1289(20) 0.0 0.0 .
1265(19) 0.0 0.0 .
1311(19) 0.0 0.0 .
1315(19) 0.0 0.0 .
1217(19) 0.0 0.0 .
1272(19) 0.0 0.0 .
1291(19) 0.0 0.0 .
1295(19) 0.0 0.0 .
1286(19) 0.0 0.0 .
1257(19) 0.0 0.0 .
1294(20) 0.0 0.0 .
1279(19) 0.0 0.0 .
1338(19) 0.0 0.0 .
1335(20) 0.0 0.0 .
1274(19) 0.0 0.0 .
1237(19) 0.0 0.0 .
1203(19) 0.0 0.0 .
1275(19) 0.0 0.0 .
1251(19) 0.0 0.0 .
1297(20) 0.0 0.0 .
1303(19) 0.0 0.0 .
1250(19) 0.0 0.0 .
1272(18) 0.0 0.0 .
1298(19) 0.0 0.0 .
1276(20) 0.0 0.0 .
1290(19) 0.0 0.0 .
1320(19) 0.0 0.0 .
1308(19) 0.0 0.0 .
1253(19) 0.0 0.0 .
1294(20) 0.0 0.0 .
1256(19) 0.0 0.0 .
1292(19) 0.0 0.0 .
1321(19) 0.0 0.0 .
1270(19) 0.0 0.0 .
1256(20) 0.0 0.0 .
1324(19) 0.0 0.0 .
1250(18) 0.0 0.0 .
1299(19) 0.0 0.0 .
1273(19) 0.0 0.0 .
1261(20) 0.0 0.0 .
1294(19) 0.0 0.0 .
1292(19) 0.0 0.0 .
1343(19) 0.0 0.0 .
1276(19) 0.0 0.0 .
1286(20) 0.0 0.0 .
1277(19) 0.0 0.0 .
1343(19) 0.0 0.0 .
1277(19) 0.0 0.0 .
1280(19) 0.0 0.0 .
1322(20) 0.0 0.0 .
1265(19) 0.0 0.0 .
1283(19) 0.0 0.0 .
1247(19) 0.0 0.0 .
1293(19) 0.0 0.0 .
1313(20) 0.0 0.0 .
1271(19) 0.0 0.0 .
1305(19) 0.0 0.0 .
1247(19) 0.0 0.0 .
1296(20) 0.0 0.0 .
1280(20) 0.0 0.0 .
1310(20) 0.0 0.0 .
1274(18) 0.0 0.0 .
1265(19) 0.0 0.0 .
1274(19) 0.0 0.0 .
1271(19) 0.0 0.0 .
1269(19) 0.0 0.0 .
1303(19) 0.0 0.0 .
1283(19) 0.0 0.0 .
1266(19) 0.0 0.0 .
1247(19) 0.0 0.0 .
1255(19) 0.0 0.0 .
1241(18) 0.0 0.0 .
1255(19) 0.0 0.0 .
1343(20) 0.0 0.0 .
1260(19) 0.0 0.0 .
1282(19) 0.0 0.0 .
1269(18) 0.0 0.0 .
1255(19) 0.0 0.0 .
1239(19) 0.0 0.0 .
1324(20) 0.0 0.0 .
1220(18) 0.0 0.0 .
1247(18) 0.0 0.0 .
1259(19) 0.0 0.0 .
1246(20) 0.0 0.0 .
1266(19) 0.0 0.0 .
1298(19) 0.0 0.0 .
1284(19) 0.0 0.0 .
1277(19) 0.0 0.0 .
1254(20) 0.0 0.0 .
1249(19) 0.0 0.0 .
1276(18) 0.0 0.0 .
1256(18) 0.0 0.0 .
1283(19) 0.0 0.0 .
1266(20) 0.0 0.0 .
1267(19) 0.0 0.0 .
1176(18) 0.0 0.0 .
1240(18) 0.0 0.0 .
1233(19) 0.0 0.0 .
1235(19) 0.0 0.0 .
1261(19) 0.0 0.0 .
1201(18) 0.0 0.0 .
1287(19) 0.0 0.0 .
1224(19) 0.0 0.0 .
1257(19) 0.0 0.0 .
1233(19) 0.0 0.0 .
1258(18) 0.0 0.0 .
1232(19) 0.0 0.0 .
1237(19) 0.0 0.0 .
1229(19) 0.0 0.0 .
1220(19) 0.0 0.0 .
1246(18) 0.0 0.0 .
1183(18) 0.0 0.0 .
1252(19) 0.0 0.0 .
1248(19) 0.0 0.0 .
1209(19) 0.0 0.0 .
1204(18) 0.0 0.0 .
1266(19) 0.0 0.0 .
1233(19) 0.0 0.0 .
1263(19) 0.0 0.0 .
1243(19) 0.0 0.0 .
1213(18) 0.0 0.0 .
1242(19) 0.0 0.0 .
1264(19) 0.0 0.0 .
1248(19) 0.0 0.0 .
1213(18) 0.0 0.0 .
1178(18) 0.0 0.0 .
1214(19) 0.0 0.0 .
1209(19) 0.0 0.0 .
1281(19) 0.0 0.0 .
1205(18) 0.0 0.0 .
1259(18) 0.0 0.0 .
1224(19) 0.0 0.0 .
1270(20) 0.0 0.0 .
1287(19) 0.0 0.0 .
1223(18) 0.0 0.0 .
1251(18) 0.0 0.0 .
1243(19) 0.0 0.0 .
1226(19) 0.0 0.0 .
1213(18) 0.0 0.0 .
1216(18) 0.0 0.0 .
1223(18) 0.0 0.0 .
1213(19) 0.0 0.0 .
1216(19) 0.0 0.0 .
1224(19) 0.0 0.0 .
1233(18) 0.0 0.0 .
1241(18) 0.0 0.0 .
1243(19) 0.0 0.0 .
1223(19) 0.0 0.0 .
1192(18) 0.0 0.0 .
1202(18) 0.0 0.0 .
1200(18) 0.0 0.0 .
1246(19) 0.0 0.0 .
1241(19) 0.0 0.0 .
1145(18) 0.0 0.0 .
1167(18) 0.0 0.0 .
1228(19) 0.0 0.0 .
1178(18) 0.0 0.0 .
1174(19) 0.0 0.0 .
1164(18) 0.0 0.0 .
1184(18) 0.0 0.0 .
1177(18) 0.0 0.0 .
1167(18) 0.0 0.0 .
1176(18) 0.0 0.0 .
1218(19) 0.0 0.0 .
1165(18) 0.0 0.0 .
1170(18) 0.0 0.0 .
1176(19) 0.0 0.0 .
1154(18) 0.0 0.0 .
1135(18) 0.0 0.0 .
1201(18) 0.0 0.0 .
1206(19) 0.0 0.0 .
1164(19) 0.0 0.0 .
1212(19) 0.0 0.0 .
1230(18) 0.0 0.0 .
1191(18) 0.0 0.0 .
1179(18) 0.0 0.0 .
1156(19) 0.0 0.0 .
1206(19) 0.0 0.0 .
1162(18) 0.0 0.0 .
1128(17) 0.0 0.0 .
1164(18) 0.0 0.0 .
1186(19) 0.0 0.0 .
1172(18) 0.0 0.0 .
1196(18) 0.0 0.0 .
1152(18) 0.0 0.0 .
1154(18) 0.0 0.0 .
1148(19) 0.0 0.0 .
1114(18) 0.0 0.0 .
1187(18) 0.0 0.0 .
1178(18) 0.0 0.0 .
1210(19) 0.0 0.0 .
1188(19) 0.0 0.0 .
1162(18) 0.0 0.0 .
1167(18) 0.0 0.0 .
1158(18) 0.0 0.0 .
1164(18) 0.0 0.0 .
1131(18) 0.0 0.0 .
1112(18) 0.0 0.0 .
1169(18) 0.0 0.0 .
1154(18) 0.0 0.0 .
1164(18) 0.0 0.0 .
1124(18) 0.0 0.0 .
1143(18) 0.0 0.0 .
1192(18) 0.0 0.0 .
1122(18) 0.0 0.0 .
1150(18) 0.0 0.0 .
1135(18) 0.0 0.0 .
1142(18) 0.0 0.0 .
1157(18) 0.0 0.0 .
1159(18) 0.0 0.0 .
1159(18) 0.0 0.0 .
1177(19) 0.0 0.0 .
1149(18) 0.0 0.0 .
1150(18) 0.0 0.0 .
1213(19) 0.0 0.0 .
1157(18) 0.0 0.0 .
1113(18) 0.0 0.0 .
1126(18) 0.0 0.0 .
1148(18) 0.0 0.0 .
1109(18) 0.0 0.0 .
1120(18) 0.0 0.0 .
1133(18) 0.0 0.0 .
1152(18) 0.0 0.0 .
1123(17) 0.0 0.0 .
1125(18) 0.0 0.0 .
1131(18) 0.0 0.0 .
1144(18) 0.0 0.0 .
1175(18) 0.0 0.0 .
1138(17) 0.0 0.0 .
1127(18) 0.0 0.0 .
1132(19) 0.0 0.0 .
1120(18) 0.0 0.0 .
1093(17) 0.0 0.0 .
1104(17) 0.0 0.0 .
1123(18) 0.0 0.0 .
1169(19) 0.0 0.0 .
1148(18) 0.0 0.0 .
1181(18) 0.0 0.0 .
1141(18) 0.0 0.0 .
1114(18) 0.0 0.0 .
1091(18) 0.0 0.0 .
1095(18) 0.0 0.0 .
1098(17) 0.0 0.0 .
1113(17) 0.0 0.0 .
1106(18) 0.0 0.0 .
1125(19) 0.0 0.0 .
1093(18) 0.0 0.0 .
1108(17) 0.0 0.0 .
1097(17) 0.0 0.0 .
1117(18) 0.0 0.0 .
1134(19) 0.0 0.0 .
1165(18) 0.0 0.0 .
1128(17) 0.0 0.0 .
1165(18) 0.0 0.0 .
1094(18) 0.0 0.0 .
1089(18) 0.0 0.0 .
1132(18) 0.0 0.0 .
1091(17) 0.0 0.0 .
1065(17) 0.0 0.0 .
1115(18) 0.0 0.0 .
1113(18) 0.0 0.0 .
1130(18) 0.0 0.0 .
1083(17) 0.0 0.0 .
1094(18) 0.0 0.0 .
1090(18) 0.0 0.0 .
1097(18) 0.0 0.0 .
1078(17) 0.0 0.0 .
1074(17) 0.0 0.0 .
1107(18) 0.0 0.0 .
1134(18) 0.0 0.0 .
1113(18) 0.0 0.0 .
1146(18) 0.0 0.0 .
1163(18) 0.0 0.0 .
1096(18) 0.0 0.0 .
1093(18) 0.0 0.0 .
1065(17) 0.0 0.0 .
1065(17) 0.0 0.0 .
1071(17) 0.0 0.0 .
1072(18) 0.0 0.0 .
1086(18) 0.0 0.0 .
1126(18) 0.0 0.0 .
1059(17) 0.0 0.0 .
1059(17) 0.0 0.0 .
1114(18) 0.0 0.0 .
1066(18) 0.0 0.0 .
1028(17) 0.0 0.0 .
1051(17) 0.0 0.0 .
1061(17) 0.0 0.0 .
1056(17) 0.0 0.0 .
1080(18) 0.0 0.0 .
1121(18) 0.0 0.0 .
1078(17) 0.0 0.0 .
1058(17) 0.0 0.0 .
1094(18) 0.0 0.0 .
1036(18) 0.0 0.0 .
1089(18) 0.0 0.0 .
1073(17) 0.0 0.0 .
1089(17) 0.0 0.0 .
1063(18) 0.0 0.0 .
1048(18) 0.0 0.0 .
1082(18) 0.0 0.0 .
1047(17) 0.0 0.0 .
1039(17) 0.0 0.0 .
1074(18) 0.0 0.0 .
1085(18) 0.0 0.0 .
1083(18) 0.0 0.0 .
1020(17) 0.0 0.0 .
1057(17) 0.0 0.0 .
1031(17) 0.0 0.0 .
1048(18) 0.0 0.0 .
1038(17) 0.0 0.0 .
1057(17) 0.0 0.0 .
1035(17) 0.0 0.0 .
1047(17) 0.0 0.0 .
1068(18) 0.0 0.0 .
1028(17) 0.0 0.0 .
1024(17) 0.0 0.0 .
1071(17) 0.0 0.0 .
1059(18) 0.0 0.0 .
1090(18) 0.0 0.0 .
1063(17) 0.0 0.0 .
1035(17) 0.0 0.0 .
1030(17) 0.0 0.0 .
1084(18) 0.0 0.0 .
1077(18) 0.0 0.0 .
1028(17) 0.0 0.0 .
1001(16) 0.0 0.0 .
1031(17) 0.0 0.0 .
1038(18) 0.0 0.0 .
1083(18) 0.0 0.0 .
1056(17) 0.0 0.0 .
1041(17) 0.0 0.0 .
1044(17) 0.0 0.0 .
994(17) 0.0 0.0 .
966(16) 0.0 0.0 .
1010(17) 0.0 0.0 .
1029(17) 0.0 0.0 .
1085(18) 0.0 0.0 .
1031(18) 0.0 0.0 .
1036(17) 0.0 0.0 .
1044(17) 0.0 0.0 .
969(16) 0.0 0.0 .
1042(17) 0.0 0.0 .
1031(18) 0.0 0.0 .
1046(18) 0.0 0.0 .
1040(17) 0.0 0.0 .
1034(17) 0.0 0.0 .
1019(17) 0.0 0.0 .
1017(17) 0.0 0.0 .
1007(17) 0.0 0.0 .
977(16) 0.0 0.0 .
1041(17) 0.0 0.0 .
966(17) 0.0 0.0 .
1063(18) 0.0 0.0 .
1021(17) 0.0 0.0 .
989(16) 0.0 0.0 .
1025(17) 0.0 0.0 .
1020(17) 0.0 0.0 .
1042(18) 0.0 0.0 .
1021(17) 0.0 0.0 .
1033(17) 0.0 0.0 .
1004(17) 0.0 0.0 .
972(17) 0.0 0.0 .
1022(17) 0.0 0.0 .
1031(17) 0.0 0.0 .
1023(17) 0.0 0.0 .
961(16) 0.0 0.0 .
989(17) 0.0 0.0 .
1000(17) 0.0 0.0 .
969(16) 0.0 0.0 .
930(16) 0.0 0.0 .
983(17) 0.0 0.0 .
959(17) 0.0 0.0 .
958(17) 0.0 0.0 .
1017(17) 0.0 0.0 .
982(16) 0.0 0.0 .
1032(17) 0.0 0.0 .
938(17) 0.0 0.0 .
978(17) 0.0 0.0 .
1032(17) 0.0 0.0 .
997(16) 0.0 0.0 .
981(17) 0.0 0.0 .
1017(18) 0.0 0.0 .
1015(17) 0.0 0.0 .
1011(17) 0.0 0.0 .
968(16) 0.0 0.0 .
986(17) 0.0 0.0 .
974(17) 0.0 0.0 .
1031(17) 0.0 0.0 .
950(16) 0.0 0.0 .
974(16) 0.0 0.0 .
975(17) 0.0 0.0 .
1014(18) 0.0 0.0 .
991(17) 0.0 0.0 .
1015(17) 0.0 0.0 .
985(16) 0.0 0.0 .
1016(17) 0.0 0.0 .
975(17) 0.0 0.0 .
971(17) 0.0 0.0 .
988(16) 0.0 0.0 .
1011(17) 0.0 0.0 .
996(17) 0.0 0.0 .
946(17) 0.0 0.0 .
985(17) 0.0 0.0 .
975(16) 0.0 0.0 .
966(16) 0.0 0.0 .
1005(17) 0.0 0.0 .
1013(17) 0.0 0.0 .
985(17) 0.0 0.0 .
960(16) 0.0 0.0 .
975(17) 0.0 0.0 .
1031(17) 0.0 0.0 .
989(17) 0.0 0.0 .
932(16) 0.0 0.0 .
999(16) 0.0 0.0 .
984(17) 0.0 0.0 .
951(17) 0.0 0.0 .
969(17) 0.0 0.0 .
987(17) 0.0 0.0 .
973(16) 0.0 0.0 .
987(17) 0.0 0.0 .
992(17) 0.0 0.0 .
982(17) 0.0 0.0 .
959(16) 0.0 0.0 .
1005(16) 0.0 0.0 .
942(16) 0.0 0.0 .
1007(17) 0.0 0.0 .
949(16) 0.0 0.0 .
976(16) 0.0 0.0 .
962(16) 0.0 0.0 .
974(17) 0.0 0.0 .
956(17) 0.0 0.0 .
964(17) 0.0 0.0 .
974(16) 0.0 0.0 .
911(16) 0.0 0.0 .
956(17) 0.0 0.0 .
986(17) 0.0 0.0 .
963(16) 0.0 0.0 .
980(16) 0.0 0.0 .
926(16) 0.0 0.0 .
978(17) 0.0 0.0 .
925(17) 0.0 0.0 .
968(17) 0.0 0.0 .
954(16) 0.0 0.0 .
937(16) 0.0 0.0 .
952(17) 0.0 0.0 .
928(17) 0.0 0.0 .
956(17) 0.0 0.0 .
963(16) 0.0 0.0 .
946(16) 0.0 0.0 .
966(17) 0.0 0.0 .
935(17) 0.0 0.0 .
947(17) 0.0 0.0 .
943(16) 0.0 0.0 .
934(16) 0.0 0.0 .
933(16) 0.0 0.0 .
969(17) 0.0 0.0 .
933(16) 0.0 0.0 .
902(16) 0.0 0.0 .
924(16) 0.0 0.0 .
972(17) 0.0 0.0 .
916(16) 0.0 0.0 .
977(17) 0.0 0.0 .
958(16) 0.0 0.0 .
934(16) 0.0 0.0 .
939(17) 0.0 0.0 .
949(17) 0.0 0.0 .
959(16) 0.0 0.0 .
947(16) 0.0 0.0 .
933(16) 0.0 0.0 .
913(17) 0.0 0.0 .
908(16) 0.0 0.0 .
931(16) 0.0 0.0 .
922(16) 0.0 0.0 .
891(16) 0.0 0.0 .
912(16) 0.0 0.0 .
898(16) 0.0 0.0 .
892(16) 0.0 0.0 .
914(16) 0.0 0.0 .
954(17) 0.0 0.0 .
921(17) 0.0 0.0 .
960(17) 0.0 0.0 .
924(16) 0.0 0.0 .
890(16) 0.0 0.0 .
960(17) 0.0 0.0 .
943(17) 0.0 0.0 .
902(16) 0.0 0.0 .
881(15) 0.0 0.0 .
937(16) 0.0 0.0 .
955(17) 0.0 0.0 .
932(17) 0.0 0.0 .
867(16) 0.0 0.0 .
888(15) 0.0 0.0 .
883(15) 0.0 0.0 .
894(16) 0.0 0.0 .
901(17) 0.0 0.0 .
888(16) 0.0 0.0 .
925(16) 0.0 0.0 .
907(16) 0.0 0.0 .
915(16) 0.0 0.0 .
893(16) 0.0 0.0 .
934(17) 0.0 0.0 .
910(16) 0.0 0.0 .
899(16) 0.0 0.0 .
898(16) 0.0 0.0 .
894(16) 0.0 0.0 .
957(17) 0.0 0.0 .
916(16) 0.0 0.0 .
897(16) 0.0 0.0 .
896(16) 0.0 0.0 .
872(16) 0.0 0.0 .
912(16) 0.0 0.0 .
914(16) 0.0 0.0 .
907(16) 0.0 0.0 .
944(17) 0.0 0.0 .
932(16) 0.0 0.0 .
895(16) 0.0 0.0 .
933(16) 0.0 0.0 .
938(16) 0.0 0.0 .
929(17) 0.0 0.0 .
847(15) 0.0 0.0 .
865(15) 0.0 0.0 .
861(15) 0.0 0.0 .
874(16) 0.0 0.0 .
883(16) 0.0 0.0 .
870(16) 0.0 0.0 .
895(16) 0.0 0.0 .
936(16) 0.0 0.0 .
866(16) 0.0 0.0 .
885(17) 0.0 0.0 .
863(16) 0.0 0.0 .
895(16) 0.0 0.0 .
886(16) 0.0 0.0 .
886(16) 0.0 0.0 .
861(16) 0.0 0.0 .
877(16) 0.0 0.0 .
934(16) 0.0 0.0 .
876(15) 0.0 0.0 .
876(16) 0.0 0.0 .
857(16) 0.0 0.0 .
870(16) 0.0 0.0 .
873(15) 0.0 0.0 .
873(15) 0.0 0.0 .
891(16) 0.0 0.0 .
877(16) 0.0 0.0 .
845(16) 0.0 0.0 .
889(16) 0.0 0.0 .
909(16) 0.0 0.0 .
873(16) 0.0 0.0 .
869(16) 0.0 0.0 .
856(16) 0.0 0.0 .
849(15) 0.0 0.0 .
829(15) 0.0 0.0 .
863(16) 0.0 0.0 .
850(16) 0.0 0.0 .
874(16) 0.0 0.0 .
880(15) 0.0 0.0 .
847(15) 0.0 0.0 .
867(16) 0.0 0.0 .
814(15) 0.0 0.0 .
821(15) 0.0 0.0 .
845(15) 0.0 0.0 .
860(16) 0.0 0.0 .
828(16) 0.0 0.0 .
888(16) 0.0 0.0 .
893(16) 0.0 0.0 .
893(15) 0.0 0.0 .
865(16) 0.0 0.0 .
869(16) 0.0 0.0 .
859(16) 0.0 0.0 .
824(15) 0.0 0.0 .
849(15) 0.0 0.0 .
873(16) 0.0 0.0 .
864(16) 0.0 0.0 .
821(16) 0.0 0.0 .
817(15) 0.0 0.0 .
842(15) 0.0 0.0 .
846(16) 0.0 0.0 .
851(16) 0.0 0.0 .
867(16) 0.0 0.0 .
844(15) 0.0 0.0 .
825(15) 0.0 0.0 .
855(16) 0.0 0.0 .
838(16) 0.0 0.0 .
806(15) 0.0 0.0 .
822(15) 0.0 0.0 .
816(15) 0.0 0.0 .
851(16) 0.0 0.0 .
860(16) 0.0 0.0 .
816(15) 0.0 0.0 .
802(15) 0.0 0.0 .
855(15) 0.0 0.0 .
819(15) 0.0 0.0 .
817(16) 0.0 0.0 .
822(15) 0.0 0.0 .
819(15) 0.0 0.0 .
826(15) 0.0 0.0 .
809(15) 0.0 0.0 .
817(16) 0.0 0.0 .
819(15) 0.0 0.0 .
816(15) 0.0 0.0 .
771(15) 0.0 0.0 .
788(15) 0.0 0.0 .
794(16) 0.0 0.0 .
821(16) 0.0 0.0 .
812(15) 0.0 0.0 .
817(15) 0.0 0.0 .
780(15) 0.0 0.0 .
787(15) 0.0 0.0 .
825(15) 0.0 0.0 .
816(15) 0.0 0.0 .
828(15) 0.0 0.0 .
824(16) 0.0 0.0 .
809(15) 0.0 0.0 .
830(15) 0.0 0.0 .
815(15) 0.0 0.0 .
819(15) 0.0 0.0 .
834(16) 0.0 0.0 .
835(15) 0.0 0.0 .
796(15) 0.0 0.0 .
797(15) 0.0 0.0 .
796(15) 0.0 0.0 .
784(15) 0.0 0.0 .
793(15) 0.0 0.0 .
813(15) 0.0 0.0 .
793(15) 0.0 0.0 .
820(15) 0.0 0.0 .
795(15) 0.0 0.0 .
784(15) 0.0 0.0 .
764(14) 0.0 0.0 .
766(14) 0.0 0.0 .
798(15) 0.0 0.0 .
767(15) 0.0 0.0 .
793(15) 0.0 0.0 .
797(15) 0.0 0.0 .
784(15) 0.0 0.0 .
800(15) 0.0 0.0 .
811(16) 0.0 0.0 .
791(15) 0.0 0.0 .
804(15) 0.0 0.0 .
775(14) 0.0 0.0 .
797(15) 0.0 0.0 .
764(15) 0.0 0.0 .
785(15) 0.0 0.0 .
800(15) 0.0 0.0 .
823(15) 0.0 0.0 .
832(16) 0.0 0.0 .
778(16) 0.0 0.0 .
750(15) 0.0 0.0 .
801(15) 0.0 0.0 .
850(15) 0.0 0.0 .
842(16) 0.0 0.0 .
799(16) 0.0 0.0 .
781(15) 0.0 0.0 .
771(14) 0.0 0.0 .
785(15) 0.0 0.0 .
823(15) 0.0 0.0 .
770(15) 0.0 0.0 .
789(15) 0.0 0.0 .
817(15) 0.0 0.0 .
791(15) 0.0 0.0 .
779(15) 0.0 0.0 .
764(15) 0.0 0.0 .
778(15) 0.0 0.0 .
773(14) 0.0 0.0 .
839(15) 0.0 0.0 .
822(16) 0.0 0.0 .
750(15) 0.0 0.0 .
747(14) 0.0 0.0 .
775(14) 0.0 0.0 .
834(16) 0.0 0.0 .
776(15) 0.0 0.0 .
771(15) 0.0 0.0 .
766(15) 0.0 0.0 .
774(14) 0.0 0.0 .
797(15) 0.0 0.0 .
768(15) 0.0 0.0 .
743(15) 0.0 0.0 .
767(14) 0.0 0.0 .
803(15) 0.0 0.0 .
790(15) 0.0 0.0 .
766(15) 0.0 0.0 .
790(15) 0.0 0.0 .
751(14) 0.0 0.0 .
764(14) 0.0 0.0 .
777(15) 0.0 0.0 .
756(15) 0.0 0.0 .
810(15) 0.0 0.0 .
813(15) 0.0 0.0 .
771(14) 0.0 0.0 .
759(15) 0.0 0.0 .
781(16) 0.0 0.0 .
773(15) 0.0 0.0 .
740(14) 0.0 0.0 .
744(14) 0.0 0.0 .
769(15) 0.0 0.0 .
759(15) 0.0 0.0 .
721(14) 0.0 0.0 .
793(15) 0.0 0.0 .
755(14) 0.0 0.0 .
776(15) 0.0 0.0 .
773(15) 0.0 0.0 .
767(15) 0.0 0.0 .
785(14) 0.0 0.0 .
772(15) 0.0 0.0 .
779(15) 0.0 0.0 .
753(15) 0.0 0.0 .
738(15) 0.0 0.0 .
745(14) 0.0 0.0 .
761(15) 0.0 0.0 .
773(15) 0.0 0.0 .
798(15) 0.0 0.0 .
755(15) 0.0 0.0 .
741(14) 0.0 0.0 .
770(15) 0.0 0.0 .
757(15) 0.0 0.0 .
718(15) 0.0 0.0 .
780(15) 0.0 0.0 .
785(14) 0.0 0.0 .
732(14) 0.0 0.0 .
739(15) 0.0 0.0 .
726(15) 0.0 0.0 .
728(14) 0.0 0.0 .
770(14) 0.0 0.0 .
755(15) 0.0 0.0 .
741(15) 0.0 0.0 .
716(14) 0.0 0.0 .
749(14) 0.0 0.0 .
768(14) 0.0 0.0 .
715(14) 0.0 0.0 .
740(15) 0.0 0.0 .
760(15) 0.0 0.0 .
757(14) 0.0 0.0 .
757(14) 0.0 0.0 .
764(15) 0.0 0.0 .
737(15) 0.0 0.0 .
767(15) 0.0 0.0 .
753(14) 0.0 0.0 .
737(14) 0.0 0.0 .
719(14) 0.0 0.0 .
775(15) 0.0 0.0 .
727(14) 0.0 0.0 .
732(14) 0.0 0.0 .
736(14) 0.0 0.0 .
763(15) 0.0 0.0 .
708(15) 0.0 0.0 .
747(15) 0.0 0.0 .
758(14) 0.0 0.0 .
756(14) 0.0 0.0 .
741(15) 0.0 0.0 .
750(15) 0.0 0.0 .
732(14) 0.0 0.0 .
729(14) 0.0 0.0 .
725(14) 0.0 0.0 .
737(15) 0.0 0.0 .
744(15) 0.0 0.0 .
669(14) 0.0 0.0 .
691(14) 0.0 0.0 .
720(14) 0.0 0.0 .
759(15) 0.0 0.0 .
780(15) 0.0 0.0 .
749(15) 0.0 0.0 .
741(14) 0.0 0.0 .
764(15) 0.0 0.0 .
733(14) 0.0 0.0 .
709(14) 0.0 0.0 .
707(14) 0.0 0.0 .
733(14) 0.0 0.0 .
759(15) 0.0 0.0 .
770(15) 0.0 0.0 .
714(14) 0.0 0.0 .
752(15) 0.0 0.0 .
738(14) 0.0 0.0 .
754(15) 0.0 0.0 .
749(15) 0.0 0.0 .
756(15) 0.0 0.0 .
724(14) 0.0 0.0 .
764(14) 0.0 0.0 .
754(15) 0.0 0.0 .
723(15) 0.0 0.0 .
729(14) 0.0 0.0 .
758(15) 0.0 0.0 .
758(14) 0.0 0.0 .
712(14) 0.0 0.0 .
743(15) 0.0 0.0 .
775(15) 0.0 0.0 .
744(14) 0.0 0.0 .
745(14) 0.0 0.0 .
726(14) 0.0 0.0 .
740(15) 0.0 0.0 .
731(15) 0.0 0.0 .
707(14) 0.0 0.0 .
743(14) 0.0 0.0 .
727(15) 0.0 0.0 .
716(15) 0.0 0.0 .
708(14) 0.0 0.0 .
723(14) 0.0 0.0 .
730(14) 0.0 0.0 .
761(15) 0.0 0.0 .
736(15) 0.0 0.0 .
728(14) 0.0 0.0 .
719(14) 0.0 0.0 .
722(14) 0.0 0.0 .
719(15) 0.0 0.0 .
719(15) 0.0 0.0 .
719(14) 0.0 0.0 .
722(14) 0.0 0.0 .
744(14) 0.0 0.0 .
753(15) 0.0 0.0 .
726(15) 0.0 0.0 .
713(14) 0.0 0.0 .
704(14) 0.0 0.0 .
711(14) 0.0 0.0 .
687(14) 0.0 0.0 .
696(14) 0.0 0.0 .
708(14) 0.0 0.0 .
697(14) 0.0 0.0 .
727(14) 0.0 0.0 .
701(14) 0.0 0.0 .
724(14) 0.0 0.0 .
707(14) 0.0 0.0 .
701(14) 0.0 0.0 .
707(14) 0.0 0.0 .
692(14) 0.0 0.0 .
677(14) 0.0 0.0 .
698(14) 0.0 0.0 .
697(14) 0.0 0.0 .
716(15) 0.0 0.0 .
721(15) 0.0 0.0 .
691(14) 0.0 0.0 .
686(14) 0.0 0.0 .
721(14) 0.0 0.0 .
705(14) 0.0 0.0 .
744(15) 0.0 0.0 .
681(14) 0.0 0.0 .
688(14) 0.0 0.0 .
730(14) 0.0 0.0 .
700(14) 0.0 0.0 .
690(15) 0.0 0.0 .
700(14) 0.0 0.0 .
736(14) 0.0 0.0 .
723(14) 0.0 0.0 .
692(14) 0.0 0.0 .
695(15) 0.0 0.0 .
722(15) 0.0 0.0 .
667(13) 0.0 0.0 .
704(14) 0.0 0.0 .
697(14) 0.0 0.0 .
706(15) 0.0 0.0 .
698(14) 0.0 0.0 .
705(14) 0.0 0.0 .
705(14) 0.0 0.0 .
692(14) 0.0 0.0 .
721(15) 0.0 0.0 .
699(14) 0.0 0.0 .
701(14) 0.0 0.0 .
705(14) 0.0 0.0 .
684(14) 0.0 0.0 .
700(15) 0.0 0.0 .
692(14) 0.0 0.0 .
668(13) 0.0 0.0 .
657(14) 0.0 0.0 .
702(14) 0.0 0.0 .
709(14) 0.0 0.0 .
718(14) 0.0 0.0 .
713(14) 0.0 0.0 .
701(14) 0.0 0.0 .
692(14) 0.0 0.0 .
686(14) 0.0 0.0 .
716(14) 0.0 0.0 .
714(14) 0.0 0.0 .
686(14) 0.0 0.0 .
730(15) 0.0 0.0 .
698(14) 0.0 0.0 .
694(14) 0.0 0.0 .
724(14) 0.0 0.0 .
669(14) 0.0 0.0 .
667(14) 0.0 0.0 .
694(14) 0.0 0.0 .
703(14) 0.0 0.0 .
723(14) 0.0 0.0 .
702(14) 0.0 0.0 .
682(14) 0.0 0.0 .
678(14) 0.0 0.0 .
745(14) 0.0 0.0 .
729(14) 0.0 0.0 .
705(14) 0.0 0.0 .
710(15) 0.0 0.0 .
690(14) 0.0 0.0 .
707(14) 0.0 0.0 .
680(13) 0.0 0.0 .
659(14) 0.0 0.0 .
704(15) 0.0 0.0 .
670(14) 0.0 0.0 .
707(14) 0.0 0.0 .
725(14) 0.0 0.0 .
700(14) 0.0 0.0 .
714(15) 0.0 0.0 .
742(15) 0.0 0.0 .
724(14) 0.0 0.0 .
707(14) 0.0 0.0 .
725(14) 0.0 0.0 .
724(15) 0.0 0.0 .
681(14) 0.0 0.0 .
684(14) 0.0 0.0 .
686(14) 0.0 0.0 .
680(14) 0.0 0.0 .
695(15) 0.0 0.0 .
685(14) 0.0 0.0 .
690(14) 0.0 0.0 .
686(14) 0.0 0.0 .
710(14) 0.0 0.0 .
685(14) 0.0 0.0 .
685(14) 0.0 0.0 .
705(14) 0.0 0.0 .
705(14) 0.0 0.0 .
710(14) 0.0 0.0 .
652(14) 0.0 0.0 .
730(14) 0.0 0.0 .
675(13) 0.0 0.0 .
693(14) 0.0 0.0 .
704(14) 0.0 0.0 .
687(14) 0.0 0.0 .
668(14) 0.0 0.0 .
721(14) 0.0 0.0 .
707(14) 0.0 0.0 .
655(14) 0.0 0.0 .
680(14) 0.0 0.0 .
661(13) 0.0 0.0 .
689(14) 0.0 0.0 .
697(14) 0.0 0.0 .
689(14) 0.0 0.0 .
675(14) 0.0 0.0 .
698(14) 0.0 0.0 .
680(14) 0.0 0.0 .
698(14) 0.0 0.0 .
677(15) 0.0 0.0 .
667(14) 0.0 0.0 .
669(13) 0.0 0.0 .
692(14) 0.0 0.0 .
670(14) 0.0 0.0 .
672(14) 0.0 0.0 .
665(14) 0.0 0.0 .
701(14) 0.0 0.0 .
711(14) 0.0 0.0 .
692(14) 0.0 0.0 .
696(15) 0.0 0.0 .
710(14) 0.0 0.0 .
701(14) 0.0 0.0 .
692(14) 0.0 0.0 .
676(14) 0.0 0.0 .
676(14) 0.0 0.0 .
679(14) 0.0 0.0 .
687(14) 0.0 0.0 .
707(14) 0.0 0.0 .
708(14) 0.0 0.0 .
682(14) 0.0 0.0 .
701(14) 0.0 0.0 .
738(14) 0.0 0.0 .
697(14) 0.0 0.0 .
698(14) 0.0 0.0 .
686(14) 0.0 0.0 .
665(14) 0.0 0.0 .
687(14) 0.0 0.0 .
718(14) 0.0 0.0 .
691(14) 0.0 0.0 .
692(14) 0.0 0.0 .
691(14) 0.0 0.0 .
694(14) 0.0 0.0 .
682(14) 0.0 0.0 .
708(15) 0.0 0.0 .
705(14) 0.0 0.0 .
740(14) 0.0 0.0 .
754(14) 0.0 0.0 .
722(14) 0.0 0.0 .
696(14) 0.0 0.0 .
707(14) 0.0 0.0 .
704(14) 0.0 0.0 .
737(14) 0.0 0.0 .
711(14) 0.0 0.0 .
678(14) 0.0 0.0 .
685(14) 0.0 0.0 .
719(14) 0.0 0.0 .
733(14) 0.0 0.0 .
707(14) 0.0 0.0 .
698(15) 0.0 0.0 .
752(15) 0.0 0.0 .
758(14) 0.0 0.0 .
694(14) 0.0 0.0 .
718(15) 0.0 0.0 .
711(15) 0.0 0.0 .
719(14) 0.0 0.0 .
703(14) 0.0 0.0 .
726(14) 0.0 0.0 .
724(14) 0.0 0.0 .
724(15) 0.0 0.0 .
717(14) 0.0 0.0 .
727(14) 0.0 0.0 .
722(14) 0.0 0.0 .
723(14) 0.0 0.0 .
723(15) 0.0 0.0 .
740(15) 0.0 0.0 .
705(14) 0.0 0.0 .
677(14) 0.0 0.0 .
713(14) 0.0 0.0 .
719(15) 0.0 0.0 .
717(14) 0.0 0.0 .
722(14) 0.0 0.0 .
770(15) 0.0 0.0 .
693(14) 0.0 0.0 .
725(15) 0.0 0.0 .
725(14) 0.0 0.0 .
767(14) 0.0 0.0 .
709(14) 0.0 0.0 .
748(15) 0.0 0.0 .
740(15) 0.0 0.0 .
748(15) 0.0 0.0 .
746(14) 0.0 0.0 .
751(15) 0.0 0.0 .
752(15) 0.0 0.0 .
733(15) 0.0 0.0 .
762(15) 0.0 0.0 .
733(14) 0.0 0.0 .
700(14) 0.0 0.0 .
741(15) 0.0 0.0 .
758(15) 0.0 0.0 .
773(15) 0.0 0.0 .
784(15) 0.0 0.0 .
762(15) 0.0 0.0 .
793(15) 0.0 0.0 .
772(15) 0.0 0.0 .
798(15) 0.0 0.0 .
777(14) 0.0 0.0 .
781(15) 0.0 0.0 .
785(16) 0.0 0.0 .
845(16) 0.0 0.0 .
820(15) 0.0 0.0 .
801(15) 0.0 0.0 .
844(16) 0.0 0.0 .
831(16) 0.0 0.0 .
845(16) 0.0 0.0 .
875(15) 0.0 0.0 .
853(15) 0.0 0.0 .
849(15) 0.0 0.0 .
878(16) 0.0 0.0 .
912(16) 0.0 0.0 .
893(16) 0.0 0.0 .
928(16) 0.0 0.0 .
940(17) 0.0 0.0 .
954(17) 0.0 0.0 .
941(16) 0.0 0.0 .
970(16) 0.0 0.0 .
951(16) 0.0 0.0 .
1011(17) 0.0 0.0 .
1030(18) 0.0 0.0 .
1006(17) 0.0 0.0 .
1028(17) 0.0 0.0 .
1104(17) 0.0 0.0 .
1108(18) 0.0 0.0 .
1175(19) 0.0 0.0 .
1172(18) 0.0 0.0 .
1265(18) 0.0 0.0 .
1320(19) 0.0 0.0 .
1364(20) 0.0 0.0 .
1441(20) 0.0 0.0 .
1532(21) 0.0 0.0 .
1650(21) 0.0 0.0 .
1849(23) 0.0 0.0 .
2016(24) 0.0 0.0 .
2277(26) 0.0 0.0 .
2564(27) 0.0 0.0 .
3142(29) 0.0 0.0 .
3839(33) 0.0 0.0 .
4726(38) 0.0 0. .
5910(42) 0.0 0. .
7341(46) 0.0 0. .
8893(49) 0.0 0. .
11005(57) 0.0 0. .
13125(63) 0.0 0. .
15818(69) 0.0 0. .
18392(72) 0.0 0. .
20831(76) 0.0 0. .
23322(83) 0.0 0. .
25685(90) 0.0 0. .
28414(93) 0.0 0. .
31316(95) 0.0 0. .
35130(100) 0.0 0. .
39560(110) 0.0 0. .
44880(120) 0.0 0. .
52050(130) 0.0 0. .
60510(140) 0.0 0. .
71220(150) 0.0 0. .
81280(160) 0.0 0. .
88330(180) 0.0 0. .
85420(170) 0.0 0. .
74250(150) 0.0 0. .
58190(130) 0.0 0. .
43240(120) 0.0 0. .
31940(100) 0.0 0. .
23788(84) 0.0 0. .
17639(70) 0.0 0. .
13916(63) 0.0 0. .
11021(57) 0.0 0. .
8917(52) 0.0 0. .
7366(46) 0.0 0. .
6088(41) 0.0 0. .
5320(38) 0.0 0. .
4615(37) 0.0 0. .
4085(35) 0.0 0.0 .
3694(33) 0.0 0.0 .
3188(29) 0.0 0.0 .
2984(29) 0.0 0.0 .
2716(28) 0.0 0.0 .
2481(27) 0.0 0.0 .
2344(26) 0.0 0.0 .
2134(24) 0.0 0.0 .
2053(24) 0.0 0.0 .
1934(24) 0.0 0.0 .
1742(23) 0.0 0.0 .
1624(21) 0.0 0.0 .
1635(21) 0.0 0.0 .
1537(21) 0.0 0.0 .
1434(20) 0.0 0.0 .
1397(20) 0.0 0.0 .
1330(19) 0.0 0.0 .
1320(19) 0.0 0.0 .
1222(19) 0.0 0.0 .
1221(19) 0.0 0.0 .
1130(18) 0.0 0.0 .
1095(17) 0.0 0.0 .
1120(17) 0.0 0.0 .
1016(17) 0.0 0.0 .
1022(17) 0.0 0.0 .
1043(17) 0.0 0.0 .
944(16) 0.0 0.0 .
989(16) 0.0 0.0 .
987(17) 0.0 0.0 .
980(18) 0.0 0.0 .
927(16) 0.0 0.0 .
873(15) 0.0 0.0 .
928(16) 0.0 0.0 .
909(16) 0.0 0.0 .
892(17) 0.0 0.0 .
823(15) 0.0 0.0 .
835(15) 0.0 0.0 .
818(15) 0.0 0.0 .
824(15) 0.0 0.0 .
812(16) 0.0 0.0 .
824(15) 0.0 0.0 .
832(15) 0.0 0.0 .
812(15) 0.0 0.0 .
812(15) 0.0 0.0 .
801(16) 0.0 0.0 .
790(15) 0.0 0.0 .
761(14) 0.0 0.0 .
753(14) 0.0 0.0 .
793(15) 0.0 0.0 .
760(15) 0.0 0.0 .
792(15) 0.0 0.0 .
740(14) 0.0 0.0 .
720(14) 0.0 0.0 .
757(15) 0.0 0.0 .
738(15) 0.0 0.0 .
736(14) 0.0 0.0 .
719(14) 0.0 0.0 .
752(15) 0.0 0.0 .
755(15) 0.0 0.0 .
738(15) 0.0 0.0 .
694(14) 0.0 0.0 .
727(14) 0.0 0.0 .
736(14) 0.0 0.0 .
683(14) 0.0 0.0 .
704(14) 0.0 0.0 .
709(14) 0.0 0.0 .
722(14) 0.0 0.0 .
692(14) 0.0 0.0 .
718(14) 0.0 0.0 .
715(14) 0.0 0.0 .
712(14) 0.0 0.0 .
699(14) 0.0 0.0 .
699(14) 0.0 0.0 .
672(14) 0.0 0.0 .
712(14) 0.0 0.0 .
729(14) 0.0 0.0 .
673(13) 0.0 0.0 .
699(14) 0.0 0.0 .
677(14) 0.0 0.0 .
681(14) 0.0 0.0 .
669(14) 0.0 0.0 .
665(13) 0.0 0.0 .
690(14) 0.0 0.0 .
674(14) 0.0 0.0 .
686(14) 0.0 0.0 .
658(13) 0.0 0.0 .
642(13) 0.0 0.0 .
667(14) 0.0 0.0 .
661(14) 0.0 0.0 .
700(14) 0.0 0.0 .
692(14) 0.0 0.0 .
686(14) 0.0 0.0 .
686(14) 0.0 0.0 .
645(14) 0.0 0.0 .
700(14) 0.0 0.0 .
673(13) 0.0 0.0 .
707(14) 0.0 0.0 .
709(14) 0.0 0.0 .
640(14) 0.0 0.0 .
674(14) 0.0 0.0 .
660(13) 0.0 0.0 .
639(13) 0.0 0.0 .
663(14) 0.0 0.0 .
723(15) 0.00457 641.8 64.5
703(14) 0.00487 641.8 63.4
658(13) 0.00566 641.8 62.4
675(14) 0.00526 641.8 61.3
670(14) 0.00510 641.8 60.3
663(14) 0.00515 641.8 59.4
657(14) 0.00538 641.8 58.4
641(13) 0.00579 641.8 57.5
659(14) 0.00544 641.5 0.0
636(14) 0.00542 641.0 0.0
636(14) 0.00530 640.5 0.0
632(13) 0.00568 640.0 0.0
635(13) 0.00586 639.5 0.0
660(14) 0.00531 638.9 0.0
643(14) 0.00530 638.4 0.0
640(14) 0.00544 637.9 0.0
657(13) 0.00552 637.4 0.0
645(13) 0.00575 636.9 0.0
652(14) 0.00546 636.4 0.0
640(14) 0.00524 635.9 0.0
661(14) 0.00518 635.3 0.0
666(14) 0.00547 634.8 0.0
675(13) 0.00556 634.3 0.0
641(14) 0.00539 633.8 0.0
622(14) 0.00517 633.3 0.0
606(13) 0.00566 632.8 0.0
646(13) 0.00561 632.3 0.0
649(13) 0.00580 631.7 0.0
647(14) 0.00539 631.2 0.0
629(14) 0.00518 630.7 0.0
634(14) 0.00548 630.2 0.0
643(13) 0.00578 629.7 0.0
598(13) 0.00616 629.2 0.0
634(13) 0.00549 628.7 0.0
588(14) 0.00541 628.1 0.0
597(13) 0.00585 627.6 0.0
622(13) 0.00595 627.1 0.0
626(13) 0.00594 626.6 0.0
610(13) 0.00564 626.1 0.0
604(14) 0.00541 625.6 0.0
642(14) 0.00526 625.1 0.0
626(13) 0.00597 624.5 0.0
612(13) 0.00603 624.0 0.0
633(14) 0.00544 623.5 0.0
640(14) 0.00523 623.0 0.0
628(13) 0.00565 622.5 0.0
609(13) 0.00610 622.0 0.0
609(13) 0.00593 621.5 0.0
640(14) 0.00527 620.9 0.0
633(14) 0.00526 620.4 0.0
630(13) 0.00556 619.9 0.0
632(13) 0.00585 619.4 0.0
634(13) 0.00569 618.9 0.0
654(14) 0.00518 618.4 0.0
604(14) 0.00544 617.9 0.0
606(13) 0.00580 617.3 0.0
633(13) 0.00591 616.8 0.0
606(13) 0.00581 616.3 0.0
638(14) 0.00540 615.8 0.0
604(13) 0.00581 615.3 0.0
619(13) 0.00579 614.8 0.0
592(13) 0.00626 614.3 0.0
614(13) 0.00575 613.7 0.0
605(14) 0.00546 613.2 0.0
602(13) 0.00571 612.7 0.0
615(13) 0.00584 612.2 0.0
645(13) 0.00578 611.7 0.0
618(14) 0.00546 611.2 0.0
589(13) 0.00571 610.7 0.0
634(14) 0.00522 610.1 0.0
625(13) 0.00575 609.6 0.0
604(13) 0.00615 609.1 0.0
621(13) 0.00561 608.6 0.0
637(14) 0.00531 608.1 0.0
615(13) 0.00567 607.6 0.0
583(13) 0.00632 607.1 0.0
605(13) 0.00616 606.5 0.0
644(14) 0.00534 606.0 0.0
647(14) 0.00492 605.5 0.0
600(13) 0.00586 605.0 0.0
603(13) 0.00612 604.5 0.0
594(13) 0.00628 604.0 0.0
647(14) 0.00541 603.5 0.0
611(14) 0.00518 602.9 0.0
622(13) 0.00553 602.4 0.0
619(13) 0.00599 601.9 0.0
569(12) 0.00657 601.4 0.8
594(13) 0.00593 600.9 0.8
597(14) 0.00547 600.4 0.8
574(13) 0.00611 599.9 0.8
623(13) 0.00595 599.4 0.8
626(13) 0.00580 598.8 0.9
592(13) 0.00587 598.3 0.9
601(14) 0.00535 597.8 0.9
616(13) 0.00550 597.3 0.9
580(12) 0.00644 596.8 0.9
570(13) 0.00637 596.3 0.9
587(13) 0.00589 595.8 0.9
601(13) 0.00552 595.2 1.0
629(14) 0.00541 594.7 1.0
617(13) 0.00600 594.2 1.0
608(13) 0.00603 593.7 1.0
620(13) 0.00556 593.2 1.0
615(13) 0.00551 592.7 1.1
578(13) 0.00615 592.4 1.1
598(13) 0.00623 592.2 1.1
621(13) 0.00580 592.1 1.1
615(13) 0.00572 591.9 1.1
586(13) 0.00596 591.7 1.2
634(14) 0.00546 591.5 1.2
587(13) 0.00629 591.3 1.2
587(13) 0.00595 591.1 1.2
587(13) 0.00575 590.9 1.3
594(13) 0.00589 590.8 1.3
618(13) 0.00575 590.6 1.3
584(13) 0.00636 590.4 1.3
597(13) 0.00578 590.2 1.4
598(13) 0.00569 590.0 1.4
603(13) 0.00584 589.8 1.4
596(13) 0.00612 589.6 1.4
632(13) 0.00590 589.5 1.5
610(13) 0.00556 589.3 1.5
616(14) 0.00528 589.1 1.5
620(13) 0.00556 588.9 1.6
596(13) 0.00623 588.7 1.6
628(13) 0.00592 588.5 1.6
610(13) 0.00566 588.3 1.7
605(14) 0.00545 588.2 1.7
604(13) 0.00571 588.0 1.8
614(13) 0.00604 587.8 1.8
583(12) 0.00641 587.6 1.9
566(13) 0.00631 587.4 1.9
588(14) 0.00537 587.2 1.9
573(13) 0.00588 587.0 2.0
613(13) 0.00607 586.8 2.0
589(13) 0.00636 586.7 2.1
581(13) 0.00603 586.5 2.2
566(13) 0.00581 586.3 2.2
597(13) 0.00582 586.1 2.3
610(13) 0.00610 585.9 2.3
577(12) 0.00641 585.7 2.4
578(13) 0.00599 585.5 2.5
603(14) 0.00544 585.4 2.5
620(13) 0.00553 585.2 2.6
601(13) 0.00621 585.0 2.7
596(13) 0.00613 584.8 2.8
564(13) 0.00611 584.6 2.9
586(13) 0.00574 584.4 2.9
625(13) 0.00549 584.2 3.0
583(13) 0.00639 584.1 3.1
585(13) 0.00620 583.9 3.2
605(13) 0.00589 583.7 3.3
612(14) 0.00547 583.5 3.4
601(13) 0.00574 583.3 3.6
583(13) 0.00638 583.1 3.7
604(13) 0.00587 582.9 3.8
620(14) 0.00527 582.8 3.9
606(14) 0.00548 582.6 4.1
591(13) 0.00598 582.4 4.2
581(12) 0.00644 582.2 4.4
557(13) 0.00627 582.0 4.6
579(13) 0.00584 581.8 4.7
612(13) 0.00559 581.6 4.9
607(13) 0.00586 581.5 5.1
578(12) 0.00643 581.3 5.3
604(13) 0.00572 581.1 5.6
601(13) 0.00557 580.9 5.8
565(13) 0.00631 580.7 6.1
617(13) 0.00581 580.5 6.3
593(13) 0.00631 580.3 6.6
596(13) 0.00591 580.2 7.0
568(13) 0.00580 580.0 7.3
607(13) 0.00570 579.8 7.6
609(13) 0.00599 579.6 8.0
622(13) 0.00590 579.4 8.5
611(13) 0.00568 579.2 8.9
619(14) 0.00534 579.0 9.4
617(13) 0.00562 578.9 9.9
596(13) 0.00617 578.7 10.5
581(13) 0.00632 578.5 11.1
612(13) 0.00575 578.3 11.8
600(13) 0.00550 578.1 12.6
560(13) 0.00632 577.9 13.4
587(13) 0.00637 577.7 14.3
576(12) 0.00642 577.6 15.3
595(13) 0.00589 577.4 16.4
625(14) 0.00508 577.2 17.6
611(13) 0.00575 577.0 19.0
595(13) 0.00626 576.8 20.5
611(13) 0.00602 576.6 22.2
654(14) 0.00529 576.4 24.1
606(13) 0.00556 576.3 26.3
625(13) 0.00551 576.1 28.9
644(13) 0.00570 575.9 31.7
648(13) 0.00570 575.7 35.1
648(14) 0.00536 575.5 39.0
666(14) 0.00492 575.3 43.7
690(14) 0.00479 575.1 49.4
729(14) 0.00507 575.0 56.7
768(15) 0.00473 574.8 66.1
780(15) 0.00450 574.6 79.0
801(15) 0.00423 574.4 96.7
796(15) 0.00435 574.2 121.7
848(15) 0.00438 574.0 156.5
891(16) 0.00410 573.8 204.3
952(17) 0.00364 573.7 267.9
1005(17) 0.003325 573.5 349.4
1051(17) 0.003301 573.3 448.9
1080(17) 0.003427 573.1 563.7
1141(18) 0.003063 572.9 686.8
1219(19) 0.002711 572.7 805.3
1237(19) 0.002742 572.5 899.7
1329(20) 0.002612 572.4 947.5
1340(19) 0.002784 572.2 934.4
1350(20) 0.002578 572.0 864.5
1239(19) 0.002743 571.8 757.3
1132(18) 0.003059 571.6 634.7
992(17) 0.00365 571.4 514.0
836(15) 0.00444 571.2 405.0
774(15) 0.00447 571.1 313.0
726(15) 0.00457 570.9 239.1
710(14) 0.00489 570.7 182.5
710(14) 0.00511 570.5 140.5
662(13) 0.00563 570.3 110.2
628(13) 0.00569 570.1 88.5
642(14) 0.00515 569.9 73.1
602(13) 0.00584 569.8 61.8
604(13) 0.00606 569.6 53.4
573(12) 0.00651 569.4 46.9
583(13) 0.00590 569.2 41.6
593(13) 0.00552 569.0 37.3
583(13) 0.00589 568.8 33.6
601(13) 0.00625 568.6 30.5
636(13) 0.00578 568.5 27.8
595(13) 0.00602 568.3 25.4
629(14) 0.00521 568.1 23.3
605(13) 0.00574 567.9 21.5
573(12) 0.00648 567.7 19.8
586(13) 0.00631 567.5 18.4
567(13) 0.00607 567.3 17.1
572(13) 0.00572 567.1 15.9
583(13) 0.00581 567.0 14.8
595(13) 0.00619 566.8 13.9
602(13) 0.00610 566.6 13.0
571(13) 0.00607 566.4 12.2
562(13) 0.00590 566.2 11.5
578(13) 0.00604 566.0 10.9
546(12) 0.00682 565.8 10.3
576(12) 0.00640 565.7 9.7
578(13) 0.00597 565.5 9.2
585(13) 0.00587 565.3 8.7
603(13) 0.00568 565.1 8.3
570(12) 0.00651 564.9 7.9
605(13) 0.00587 564.7 7.5
609(13) 0.00560 564.5 7.1
574(13) 0.00591 564.4 6.8
594(13) 0.00596 564.2 6.5
558(12) 0.00670 564.0 6.2
532(12) 0.00673 563.8 6.0
572(13) 0.00590 563.6 5.7
589(13) 0.00590 563.4 5.5
601(13) 0.00601 563.2 5.3
571(12) 0.00652 563.1 5.1
567(13) 0.00623 562.9 4.9
579(13) 0.00581 562.7 4.7
544(12) 0.00649 562.5 4.5
575(13) 0.00626 562.3 4.3
602(13) 0.00620 562.1 4.2
566(13) 0.00607 561.9 4.0
550(13) 0.00604 561.8 3.9
562(13) 0.00612 561.6 3.8
565(13) 0.00632 561.4 3.6
527(12) 0.00707 561.2 3.5
564(13) 0.00619 561.0 3.4
581(13) 0.00573 560.8 3.3
582(13) 0.00599 560.6 3.2
595(13) 0.00615 560.5 3.1
567(12) 0.00656 560.3 3.0
582(13) 0.00586 560.1 2.9
559(13) 0.00570 560.0 2.8
579(13) 0.00588 559.9 2.7
581(13) 0.00633 559.9 2.7
579(12) 0.00644 559.8 2.6
539(12) 0.00644 559.7 2.5
563(13) 0.00574 559.6 2.4
576(13) 0.00609 559.5 2.4
557(12) 0.00666 559.4 2.3
531(12) 0.00697 559.3 2.2
559(13) 0.00626 559.2 2.2
573(13) 0.00555 559.1 2.1
534(12) 0.00641 559.0 2.1
572(12) 0.00645 558.9 2.0
562(12) 0.00657 558.8 2.0
557(13) 0.00629 558.7 1.9
571(13) 0.00567 558.6 1.9
587(13) 0.00574 558.5 1.8
538(12) 0.00690 558.4 1.8
548(12) 0.00661 558.3 1.8
570(13) 0.00597 558.3 1.7
529(12) 0.00640 558.2 1.7
546(13) 0.00630 558.1 1.6
556(12) 0.00664 558.0 1.6
560(12) 0.00654 557.9 1.6
553(13) 0.00626 557.8 1.5
551(13) 0.00625 557.7 1.5
578(13) 0.00608 557.6 1.5
566(12) 0.00660 557.5 1.4
558(13) 0.00638 557.4 1.4
534(13) 0.00636 557.3 1.4
544(13) 0.00620 557.2 1.3
566(13) 0.00628 557.1 1.3
569(12) 0.00653 557.0 1.3
569(13) 0.00620 556.9 1.3
563(13) 0.00605 556.8 1.2
582(13) 0.00596 556.7 1.2
566(12) 0.00640 556.7 1.2
596(13) 0.00622 556.6 1.2
580(13) 0.00592 556.5 1.1
571(13) 0.00580 556.4 1.1
587(13) 0.00584 556.3 1.1
571(13) 0.00633 556.2 1.1
547(12) 0.00683 556.1 1.1
570(13) 0.00612 556.0 1.0
562(13) 0.00596 555.9 1.0
546(12) 0.00648 555.8 1.0
538(12) 0.00677 555.7 1.0
574(12) 0.00649 555.6 1.0
572(13) 0.00613 555.5 1.0
572(13) 0.00573 555.4 0.9
560(13) 0.00621 555.3 0.9
565(12) 0.00658 555.2 0.9
546(12) 0.00678 555.1 0.9
565(13) 0.00609 555.1 0.9
569(13) 0.00567 555.0 0.9
573(13) 0.00606 554.9 0.8
551(12) 0.00674 554.8 0.8
559(12) 0.00666 554.7 0.8
557(13) 0.00621 554.6 0.8
552(13) 0.00593 554.5 0.0
562(13) 0.00624 554.4 0.0
582(12) 0.00646 554.3 0.0
587(13) 0.00620 554.2 0.0
556(13) 0.00627 554.1 0.0
563(13) 0.00592 554.0 0.0
571(13) 0.00605 553.9 0.0
601(13) 0.00618 553.8 0.0
537(12) 0.00684 553.7 0.0
578(13) 0.00596 553.6 0.0
581(13) 0.00578 553.5 0.0
576(13) 0.00604 553.5 0.0
581(13) 0.00639 553.4 0.0
573(13) 0.00630 553.3 0.0
512(12) 0.00673 553.2 0.0
556(13) 0.00607 553.1 0.0
589(13) 0.00603 553.0 0.0
587(13) 0.00631 552.9 0.0
584(13) 0.00601 552.8 0.0
587(13) 0.00578 552.7 0.0
573(13) 0.00595 552.6 0.0
556(12) 0.00642 552.5 0.0
584(12) 0.00641 552.4 0.0
546(13) 0.00639 552.3 0.0
545(13) 0.00618 552.2 0.0
547(13) 0.00617 552.1 0.0
589(13) 0.00595 552.0 0.0
560(12) 0.00662 552.0 0.0
562(13) 0.00614 551.9 0.0
579(13) 0.00604 551.8 0.0
587(13) 0.00588 551.7 0.0
535(12) 0.00672 551.6 0.0
548(12) 0.00679 551.5 0.0
568(13) 0.00625 551.4 0.0
548(13) 0.00619 551.3 0.0
535(12) 0.00650 551.2 0.0
551(12) 0.00657 551.1 0.0
549(12) 0.00673 551.0 0.0
588(13) 0.00595 550.9 0.0
572(13) 0.00586 550.8 0.0
547(13) 0.00617 550.7 0.0
511(12) 0.00723 550.6 0.0
530(12) 0.00701 550.5 0.0
559(13) 0.00637 550.4 0.0
593(14) 0.00543 550.4 0.0
561(13) 0.00630 550.3 0.0
571(12) 0.00646 550.2 0.0
569(12) 0.00654 550.1 0.0
540(12) 0.00640 550.0 0.0
546(13) 0.00586 549.9 0.0
549(13) 0.00639 549.8 0.0
565(12) 0.00658 549.7 0.0
566(12) 0.00657 549.6 0.0
557(13) 0.00630 549.5 0.0
549(13) 0.00577 549.4 0.0
537(12) 0.00646 549.3 0.0
562(12) 0.00658 549.2 0.0
584(13) 0.00625 549.1 0.0
559(13) 0.00610 549.0 0.0
534(13) 0.00621 548.9 0.0
565(13) 0.00605 548.8 0.0
600(13) 0.00612 548.8 0.0
546(12) 0.00664 548.7 0.0
534(12) 0.00657 548.6 0.0
549(13) 0.00607 548.5 0.0
565(13) 0.00610 548.4 0.0
549(12) 0.00672 548.3 0.0
506(12) 0.00707 548.2 0.0
546(13) 0.00632 548.1 0.0
582(13) 0.00582 548.0 0.0
566(13) 0.00615 547.9 0.0
552(12) 0.00677 547.8 0.0
539(12) 0.00648 547.7 0.0
555(13) 0.00607 547.6 0.0
525(12) 0.00649 547.5 0.0
564(13) 0.00619 547.4 0.0
543(12) 0.00687 547.3 0.0
563(13) 0.00621 547.2 0.0
565(13) 0.00619 547.2 0.0
561(13) 0.00622 547.1 0.0
526(12) 0.00678 547.0 0.0
578(13) 0.00639 546.9 0.0
563(13) 0.00626 546.8 0.0
544(13) 0.00612 546.7 0.0
520(12) 0.00679 546.6 0.0
557(12) 0.00644 546.5 0.0
524(12) 0.00705 546.4 0.0
581(13) 0.00595 546.3 0.0
552(13) 0.00621 546.2 0.0
589(13) 0.00590 546.1 0.0
521(12) 0.00706 546.0 0.0
539(12) 0.00685 546.1 0.0
549(12) 0.00645 546.1 0.0
533(13) 0.00625 546.2 0.0
539(12) 0.00651 546.2 0.0
566(12) 0.00648 546.3 0.0
554(12) 0.00676 546.3 0.0
568(13) 0.00612 546.4 0.0
576(13) 0.00569 546.4 0.0
594(13) 0.00585 546.5 0.0
528(12) 0.00706 546.5 0.0
569(13) 0.00639 546.6 0.0
585(13) 0.00586 546.6 0.0
566(13) 0.00577 546.7 0.0
557(13) 0.00638 546.7 0.0
523(12) 0.00702 546.8 0.0
533(12) 0.00684 546.8 0.0
532(12) 0.00645 546.9 0.0
586(14) 0.00548 546.9 0.0
569(13) 0.00590 547.0 0.0
571(12) 0.00649 547.0 0.0
556(12) 0.00655 547.1 0.0
561(13) 0.00625 547.1 0.0
594(13) 0.00551 547.2 0.0
571(13) 0.00604 547.3 0.0
587(13) 0.00631 547.3 0.0
547(12) 0.00665 547.4 0.0
535(12) 0.00656 547.4 0.0
562(13) 0.00593 547.5 0.0
558(13) 0.00623 547.5 0.0
563(12) 0.00661 547.6 0.0
607(13) 0.00570 547.6 0.0
552(13) 0.00619 547.7 0.0
549(13) 0.00630 547.7 0.0
552(13) 0.00633 547.8 0.0
604(13) 0.00619 547.8 0.0
569(13) 0.00620 547.9 0.0
531(12) 0.00648 547.9 0.0
560(13) 0.00609 548.0 0.0
583(13) 0.00616 548.0 0.0
556(12) 0.00664 548.1 0.0
580(13) 0.00582 548.1 0.0
577(13) 0.00575 548.2 0.0
544(12) 0.00642 548.2 0.0
575(13) 0.00612 548.3 0.0
560(12) 0.00665 548.3 0.0
582(13) 0.00577 548.4 0.0
556(13) 0.00583 548.5 0.0
569(13) 0.00604 548.5 0.0
559(12) 0.00645 548.6 0.0
519(12) 0.00716 548.6 0.0
536(13) 0.00640 548.7 0.0
550(13) 0.00589 548.7 0.0
549(13) 0.00613 548.8 0.0
560(12) 0.00659 548.8 0.0
557(12) 0.00659 548.9 0.0
533(12) 0.00648 548.9 0.0
522(13) 0.00607 549.0 0.0
528(12) 0.00650 549.0 0.0
539(12) 0.00688 549.1 0.0
559(12) 0.00657 549.1 0.0
532(12) 0.00654 549.2 0.0
561(13) 0.00574 549.2 0.0
556(13) 0.00604 549.3 0.0
558(12) 0.00670 549.3 0.0
548(12) 0.00666 549.4 0.0
533(12) 0.00643 549.4 0.0
533(13) 0.00634 549.5 0.0
565(13) 0.00611 549.5 0.0
560(12) 0.00664 549.6 0.0
585(13) 0.00612 549.7 0.0
567(13) 0.00609 549.7 0.0
550(13) 0.00618 549.8 0.0
549(13) 0.00630 549.8 0.0
547(12) 0.00675 549.9 0.0
563(12) 0.00640 549.9 0.0
585(13) 0.00571 550.0 0.0
578(13) 0.00587 550.0 0.0
571(13) 0.00617 550.1 0.0
561(12) 0.00656 550.1 0.0
546(12) 0.00651 550.2 0.0
553(13) 0.00627 550.2 0.0
580(13) 0.00584 550.3 0.0
539(12) 0.00654 550.3 0.0
553(12) 0.00677 550.4 0.0
572(13) 0.00614 550.4 0.0
540(13) 0.00633 550.5 0.0
563(13) 0.00603 550.5 0.0
546(12) 0.00670 550.6 0.0
552(12) 0.00673 550.6 0.0
545(13) 0.00637 550.7 0.0
552(13) 0.00602 550.7 0.0
551(13) 0.00618 550.8 0.0
576(13) 0.00623 550.8 0.0
539(12) 0.00697 550.9 0.0
541(13) 0.00636 551.0 0.0
550(13) 0.00607 551.0 0.0
536(12) 0.00653 551.1 0.0
552(12) 0.00655 551.1 0.0
575(12) 0.00643 551.2 0.0
563(13) 0.00617 551.2 0.0
562(13) 0.00585 551.3 0.0
560(13) 0.00615 551.3 0.0
578(12) 0.00644 551.4 0.0
556(12) 0.00666 551.4 0.0
564(13) 0.00604 551.5 0.0
580(13) 0.00555 551.5 0.0
569(13) 0.00610 551.6 0.0
559(12) 0.00669 551.6 0.0
557(12) 0.00667 551.7 0.0
558(13) 0.00622 551.7 0.0
551(13) 0.00595 551.8 0.0
568(13) 0.00609 551.8 0.0
543(12) 0.00687 551.9 0.0
556(12) 0.00668 551.9 0.0
564(13) 0.00620 552.0 0.0
581(13) 0.00577 552.0 0.0
547(12) 0.00657 552.1 0.0
552(12) 0.00677 552.2 0.0
570(13) 0.00631 552.2 0.0
539(12) 0.00653 552.3 0.0
562(13) 0.00582 552.3 0.0
573(13) 0.00582 552.4 0.0
537(12) 0.00689 552.4 0.0
551(12) 0.00662 552.5 0.0
574(13) 0.00605 552.5 0.0
534(13) 0.00633 552.6 0.0
554(13) 0.00607 552.6 0.0
550(12) 0.00681 552.7 0.0
593(13) 0.00583 552.7 0.0
550(13) 0.00613 552.8 0.0
563(13) 0.00599 552.8 0.0
552(13) 0.00638 552.9 0.0
567(12) 0.00658 552.9 0.0
569(13) 0.00605 553.0 0.0
517(12) 0.00673 553.0 0.0
562(13) 0.00593 553.1 0.0
545(12) 0.00669 553.1 0.0
570(12) 0.00651 553.2 0.0
581(13) 0.00607 553.2 0.0
583(13) 0.00573 553.3 0.0
537(12) 0.00651 553.4 0.0
570(13) 0.00635 553.4 0.0
546(12) 0.00678 553.5 0.0
552(13) 0.00619 553.5 0.0
528(13) 0.00638 553.6 0.0
550(13) 0.00637 553.6 0.0
539(12) 0.00668 553.7 0.0
541(12) 0.00687 553.7 0.0
551(12) 0.00647 553.8 0.0
571(13) 0.00562 553.8 0.0
557(13) 0.00618 553.9 0.0
569(12) 0.00651 553.9 0.0
592(13) 0.00621 554.0 0.0
547(12) 0.00643 554.0 0.0
575(13) 0.00557 554.1 0.0
553(12) 0.00641 554.1 0.0
554(12) 0.00661 554.2 0.0
573(12) 0.00651 554.2 0.0
583(13) 0.00599 554.3 0.0
529(13) 0.00620 554.3 0.0
563(13) 0.00597 554.4 0.0
499(12) 0.00741 554.4 0.0
550(12) 0.00669 554.5 0.0
551(13) 0.00628 554.6 0.0
552(13) 0.00585 554.6 0.0
527(12) 0.00671 554.7 0.0
553(12) 0.00669 554.7 0.0
581(13) 0.00631 554.8 0.0
571(13) 0.00625 554.8 0.0
600(13) 0.00556 554.9 0.0
573(13) 0.00601 554.9 0.0
543(12) 0.00687 555.0 0.0
567(13) 0.00629 555.0 0.0
553(13) 0.00628 555.1 0.0
537(13) 0.00635 555.1 0.0
545(13) 0.00623 555.2 0.0
536(12) 0.00697 555.2 0.0
552(12) 0.00660 555.3 0.0
577(13) 0.00578 555.3 0.0
531(13) 0.00640 555.4 0.0
566(13) 0.00608 555.4 0.0
573(12) 0.00646 555.5 0.0
572(13) 0.00617 555.5 0.0
559(13) 0.00612 555.6 0.0
575(13) 0.00603 555.6 0.0
556(12) 0.00658 555.7 0.0
541(12) 0.00685 555.7 0.0
520(12) 0.00655 555.8 0.0
580(13) 0.00579 555.9 0.0
529(12) 0.00675 555.9 0.0
582(13) 0.00618 556.0 0.0
556(12) 0.00669 556.0 0.0
554(13) 0.00627 556.1 0.0
594(13) 0.00565 556.1 0.0
618(13) 0.00558 556.2 0.0
574(13) 0.00632 556.3 0.0
552(12) 0.00678 556.3 0.0
545(12) 0.00642 556.4 0.0
593(14) 0.00539 556.5 0.0
551(12) 0.00650 556.5 0.0
570(13) 0.00633 556.6 0.0
559(12) 0.00669 556.7 0.0
559(13) 0.00625 556.8 0.0
543(13) 0.00598 556.8 0.0
548(13) 0.00631 556.9 0.0
563(12) 0.00654 557.0 0.0
570(12) 0.00648 557.1 0.0
551(13) 0.00635 557.1 0.0
567(13) 0.00572 557.2 0.0
569(13) 0.00609 557.3 0.0
545(12) 0.00675 557.4 0.0
578(13) 0.00636 557.4 0.0
595(13) 0.00561 557.5 0.0
567(13) 0.00575 557.6 0.0
566(13) 0.00635 557.7 0.0
568(12) 0.00660 557.7 0.0
597(13) 0.00618 557.8 0.0
578(13) 0.00586 557.9 0.0
581(13) 0.00561 558.0 0.0
591(13) 0.00583 558.0 0.0
533(12) 0.00703 558.1 0.0
540(12) 0.00677 558.2 0.0
565(13) 0.00614 558.3 0.0
536(13) 0.00633 558.3 0.0
576(13) 0.00593 558.4 0.0
598(13) 0.00616 558.5 0.0
579(13) 0.00628 558.6 0.0
566(13) 0.00604 558.6 0.0
557(13) 0.00614 558.7 0.0
579(13) 0.00612 558.8 0.0
539(12) 0.00690 558.8 0.0
575(13) 0.00607 558.9 0.0
546(12) 0.00651 559.0 0.0
598(13) 0.00567 559.1 0.0
569(13) 0.00620 559.1 0.0
558(12) 0.00663 559.2 0.0
571(13) 0.00621 559.3 0.0
574(13) 0.00593 559.4 0.0
571(13) 0.00599 559.4 0.0
566(13) 0.00631 559.5 0.0
542(12) 0.00686 559.6 0.0
575(13) 0.00600 559.7 0.0
566(13) 0.00610 559.7 0.0
576(13) 0.00599 559.8 0.0
581(13) 0.00610 559.9 0.0
546(12) 0.00687 560.0 0.0
524(12) 0.00673 560.0 0.0
556(13) 0.00597 560.1 0.0
551(13) 0.00636 560.2 0.0
580(13) 0.00635 560.3 0.0
568(12) 0.00647 560.3 0.0
572(13) 0.00602 560.4 0.0
571(13) 0.00577 560.5 0.0
581(13) 0.00594 560.6 0.0
573(13) 0.00639 560.6 0.0
548(12) 0.00683 560.7 0.0
576(13) 0.00604 560.8 0.0
566(13) 0.00592 560.8 0.0
625(13) 0.00568 560.9 0.0
602(13) 0.00622 561.0 0.0
590(13) 0.00617 561.1 0.0
586(13) 0.00583 561.1 0.0
586(14) 0.00546 561.2 0.0
570(13) 0.00624 561.3 0.0
556(12) 0.00673 561.4 0.0
586(13) 0.00631 561.4 0.0
582(13) 0.00593 561.5 0.0
610(14) 0.00529 561.6 0.0
578(13) 0.00586 561.7 0.0
593(13) 0.00615 561.7 0.0
583(13) 0.00634 561.8 0.0
606(13) 0.00571 561.9 0.0
581(13) 0.00571 562.0 0.0
550(13) 0.00632 562.0 0.0
531(12) 0.00698 562.1 0.0
580(13) 0.00609 562.2 0.0
579(13) 0.00578 562.3 0.0
548(13) 0.00619 562.3 0.0
587(13) 0.00572 562.4 0.0
547(12) 0.00682 562.5 0.0
568(13) 0.00631 562.6 0.0
561(13) 0.00630 562.6 0.0
605(13) 0.00553 562.7 0.0
577(13) 0.00613 562.8 0.0
554(12) 0.00667 562.9 0.0
559(13) 0.00635 562.9 0.0
590(13) 0.00575 563.0 0.0
565(13) 0.00608 563.1 0.0
557(12) 0.00640 563.1 0.0
592(13) 0.00628 563.2 0.0
564(13) 0.00627 563.3 0.0
583(13) 0.00576 563.4 0.0
559(13) 0.00621 563.4 0.0
570(13) 0.00631 563.5 0.0
567(12) 0.00660 563.6 0.0
594(13) 0.00564 563.7 0.0
583(13) 0.00569 563.7 0.0
563(13) 0.00629 563.8 0.0
538(12) 0.00688 563.9 0.0
540(12) 0.00689 564.0 0.0
561(13) 0.00577 564.0 0.0
563(13) 0.00568 564.1 0.0
552(13) 0.00628 564.2 0.0
558(12) 0.00660 564.3 0.0
582(12) 0.00648 564.3 0.1
546(13) 0.00638 564.4 0.1
518(13) 0.00626 564.5 0.1
540(12) 0.00654 564.6 0.1
566(12) 0.00655 564.6 0.1
578(13) 0.00639 564.7 0.1
578(13) 0.00613 564.8 0.1
586(13) 0.00559 564.9 0.1
595(13) 0.00584 564.9 0.1
572(12) 0.00647 565.0 0.1
572(12) 0.00648 565.1 0.1
568(13) 0.00595 565.2 0.1
556(13) 0.00585 565.2 0.1
559(13) 0.00608 565.3 0.1
560(12) 0.00666 565.4 0.1
555(12) 0.00662 565.4 0.1
585(13) 0.00598 565.5 0.1
571(13) 0.00602 565.6 0.1
616(13) 0.00563 565.7 0.1
579(12) 0.00644 565.7 0.1
574(13) 0.00626 565.8 0.1
580(13) 0.00597 565.9 0.1
598(13) 0.00553 566.0 0.1
569(13) 0.00616 566.0 0.1
567(12) 0.00657 566.1 0.1
573(13) 0.00627 566.2 0.1
544(12) 0.00644 566.3 0.1
576(13) 0.00601 566.3 0.1
571(13) 0.00617 566.4 0.1
579(12) 0.00643 566.5 0.2
562(13) 0.00609 566.6 0.2
538(13) 0.00637 566.6 0.2
554(13) 0.00622 566.7 0.2
561(13) 0.00634 566.8 0.2
571(12) 0.00653 566.9 0.2
583(13) 0.00583 566.9 0.2
585(13) 0.00568 567.0 0.2
579(13) 0.00603 567.1 0.2
577(13) 0.00619 567.2 0.3
575(12) 0.00648 567.2 0.3
579(13) 0.00606 567.3 0.3
577(13) 0.00582 567.4 0.3
561(13) 0.00635 567.5 0.4
570(12) 0.00643 567.5 0.4
587(13) 0.00634 567.6 0.4
568(13) 0.00607 567.7 0.5
574(13) 0.00554 567.7 0.5
552(13) 0.00630 567.8 0.6
560(12) 0.00655 567.9 0.7
545(12) 0.00681 568.0 0.8
564(13) 0.00596 568.0 0.9
565(13) 0.00570 568.1 1.0
581(13) 0.00599 568.2 1.1
587(13) 0.00632 568.3 1.2
587(13) 0.00631 568.3 1.4
579(13) 0.00602 568.4 1.6
582(13) 0.00552 568.5 1.7
598(13) 0.00573 568.6 1.9
548(12) 0.00681 568.6 2.1
564(13) 0.00639 568.7 2.3
586(13) 0.00581 568.8 2.6
555(13) 0.00587 568.9 2.8
540(13) 0.00637 568.9 2.9
561(12) 0.00661 569.0 3.1
551(12) 0.00666 569.1 3.2
558(13) 0.00611 569.2 3.3
566(13) 0.00579 569.2 3.3
573(13) 0.00619 569.3 3.3
578(13) 0.00639 569.4 3.2
542(12) 0.00668 569.5 3.0
538(12) 0.00642 569.5 2.9
561(13) 0.00599 569.6 2.7
561(13) 0.00600 569.7 2.5
554(12) 0.00665 569.7 2.3
588(13) 0.00608 569.8 2.1
585(13) 0.00596 569.9 1.9
560(13) 0.00621 570.0 1.7
568(13) 0.00627 570.0 1.5
567(12) 0.00660 570.1 1.3
557(12) 0.00645 570.2 1.2
542(12) 0.00651 570.3 1.0
560(13) 0.00617 570.3 0.9
580(13) 0.00612 570.4 0.8
562(12) 0.00659 570.5 0.7
580(13) 0.00619 570.6 0.7
567(13) 0.00605 570.6 0.6
569(13) 0.00590 570.7 0.5
548(12) 0.00654 570.8 0.5
534(12) 0.00693 570.9 0.4
557(13) 0.00604 570.9 0.4
579(13) 0.00579 571.0 0.4
573(13) 0.00626 571.1 0.3
611(13) 0.00582 571.2 0.3
583(13) 0.00636 571.2 0.3
586(13) 0.00591 571.3 0.3
593(13) 0.00555 571.4 0.2
551(13) 0.00639 571.5 0.2
568(12) 0.00652 571.5 0.2
562(12) 0.00664 571.6 0.2
587(13) 0.00588 571.7 0.2
583(13) 0.00553 571.8 0.2
586(13) 0.00581 571.8 0.2
550(12) 0.00676 571.9 0.2
610(13) 0.00605 572.0 0.2
573(13) 0.00623 572.0 0.1
575(13) 0.00557 572.1 0.1
588(13) 0.00581 572.2 0.1
577(12) 0.00641 572.3 0.1
567(12) 0.00654 572.3 0.1
572(13) 0.00602 572.4 0.1
580(13) 0.00558 572.5 0.1
578(13) 0.00607 572.6 0.1
597(13) 0.00617 572.6 0.1
567(12) 0.00658 572.7 0.1
563(13) 0.00633 572.8 0.1
600(13) 0.00551 572.9 0.1
574(13) 0.00612 572.9 0.1
566(12) 0.00659 573.0 0.1
578(13) 0.00634 573.1 0.1
593(13) 0.00586 573.2 0.1
571(13) 0.00576 573.2 0.1
577(13) 0.00597 573.3 0.1
551(12) 0.00670 573.4 0.1
581(13) 0.00617 573.5 0.1
578(13) 0.00603 573.5 0.1
599(13) 0.00568 573.6 0.1
604(13) 0.00589 573.7 0.1
572(12) 0.00649 573.8 0.1
585(13) 0.00601 573.8 0.1
573(13) 0.00596 573.9 0.1
621(14) 0.00545 574.0 0.1
574(13) 0.00621 574.1 0.1
584(13) 0.00632 574.1 0.1
569(13) 0.00615 574.2 0.0
618(14) 0.00547 574.3 0.0
555(13) 0.00621 574.3 0.0
571(13) 0.00624 574.5 0.0
597(13) 0.00626 574.7 0.0
556(13) 0.00628 575.0 0.0
586(13) 0.00562 575.2 0.0
603(13) 0.00565 575.4 0.0
589(13) 0.00619 575.6 0.0
591(13) 0.00624 575.8 0.0
580(13) 0.00607 576.0 0.0
579(13) 0.00593 576.2 0.0
580(13) 0.00608 576.4 0.0
594(13) 0.00625 576.6 0.0
571(12) 0.00654 576.9 0.0
575(13) 0.00607 577.1 0.0
554(13) 0.00599 577.3 0.0
593(13) 0.00568 577.5 0.0
582(13) 0.00631 577.7 0.0
594(13) 0.00629 577.9 0.0
571(13) 0.00620 578.1 7.0
592(13) 0.00552 578.3 7.1
550(12) 0.00642 578.6 7.2
599(13) 0.00614 578.8 7.3
580(13) 0.00634 579.0 7.4
602(13) 0.00575 579.2 7.6
594(13) 0.00554 579.4 7.7
602(13) 0.00571 579.6 7.8
564(12) 0.00662 579.8 8.0
562(12) 0.00657 580.0 8.1
606(13) 0.00572 580.2 8.2
587(13) 0.00556 580.5 8.4
592(13) 0.00560 580.7 8.5
587(13) 0.00633 580.9 8.7
602(13) 0.00595 581.1 8.8
581(13) 0.00597 581.3 9.0
600(13) 0.00556 581.5 9.1
567(13) 0.00619 581.7 9.3
623(13) 0.00596 581.9 9.5
583(13) 0.00619 582.1 9.7
603(13) 0.00572 582.4 9.8
618(14) 0.00538 582.6 10.0
591(13) 0.00589 582.8 10.2
589(13) 0.00635 583.0 10.4
595(13) 0.00595 583.2 10.6
569(13) 0.00619 583.4 10.8
615(14) 0.00537 583.6 11.1
564(13) 0.00632 583.8 11.3
609(13) 0.00611 584.0 11.5
583(13) 0.00596 584.3 11.8
563(13) 0.00602 584.5 12.0
552(13) 0.00612 584.7 12.2
576(13) 0.00609 584.9 12.5
578(12) 0.00641 585.1 12.8
624(13) 0.00572 585.3 13.1
594(13) 0.00587 585.5 13.3
583(13) 0.00584 585.7 13.6
605(13) 0.00587 585.9 13.9
572(12) 0.00656 586.2 14.3
569(13) 0.00620 586.4 14.6
546(12) 0.00642 586.6 14.9
598(13) 0.00587 586.8 15.3
579(13) 0.00640 587.0 15.7
591(13) 0.00626 587.2 16.0
596(13) 0.00589 587.4 16.4
608(14) 0.00540 587.6 16.8
615(13) 0.00563 587.8 17.2
607(13) 0.00605 588.1 17.7
578(12) 0.00644 588.3 18.1
575(13) 0.00593 588.5 18.6
548(13) 0.00598 588.7 19.1
575(13) 0.00607 588.9 19.6
576(12) 0.00642 589.1 20.1
578(13) 0.00636 589.3 20.7
586(13) 0.00599 589.5 21.3
572(13) 0.00578 589.8 21.9
577(13) 0.00584 590.0 22.5
594(13) 0.00625 590.2 23.2
572(13) 0.00638 590.4 23.8
554(13) 0.00638 590.6 24.6
579(13) 0.00575 590.8 25.3
585(13) 0.00589 591.0 26.1
568(12) 0.00659 591.2 26.9
594(13) 0.00613 591.4 27.8
581(13) 0.00606 591.7 28.6
592(13) 0.00559 591.9 29.6
597(13) 0.00558 592.1 30.6
604(13) 0.00616 592.3 31.6
580(13) 0.00636 592.5 32.7
622(13) 0.00554 592.7 33.9
607(14) 0.00548 592.9 35.1
562(13) 0.00620 593.1 36.4
619(13) 0.00598 593.3 37.7
580(13) 0.00613 593.6 39.1
588(13) 0.00569 593.8 40.6
590(13) 0.00577 594.0 42.2
619(13) 0.00570 594.2 43.9
628(13) 0.00596 594.4 45.7
615(13) 0.00582 594.6 47.6
639(14) 0.00541 594.8 49.7
627(13) 0.00560 595.0 51.8
610(13) 0.00584 595.2 54.1
632(13) 0.00588 595.5 56.6
609(13) 0.00578 595.7 59.2
643(14) 0.00530 595.9 62.1
609(13) 0.00564 596.1 65.1
596(13) 0.00606 596.3 68.3
601(13) 0.00620 596.5 71.8
605(13) 0.00565 596.7 75.6
627(14) 0.00518 596.9 79.7
593(13) 0.00594 597.1 84.1
653(14) 0.00546 597.4 88.9
607(13) 0.00615 597.6 94.2
641(14) 0.00516 597.8 99.9
650(14) 0.00497 598.0 106.1
644(14) 0.00528 598.2 112.9
657(14) 0.00547 598.4 120.4
679(14) 0.00548 598.6 128.6
684(14) 0.00509 598.8 137.8
678(14) 0.00480 599.0 147.9
665(14) 0.00535 599.3 159.2
699(14) 0.00523 599.5 171.8
677(14) 0.00549 599.7 185.9
734(15) 0.00472 599.9 201.8
723(15) 0.00451 600.1 219.9
721(14) 0.00480 600.3 240.4
717(14) 0.00526 600.5 263.9
774(15) 0.00472 600.7 291.0
812(15) 0.00430 601.0 322.4
860(16) 0.00373 601.2 359.1
896(16) 0.00388 601.4 402.5
969(16) 0.00384 601.6 454.8
1089(17) 0.003362 601.8 519.2
1191(18) 0.002976 602.0 601.4
1382(20) 0.002386 602.2 711.0
1677(22) 0.002030 602.4 863.9
2002(23) 0.001843 602.6 1084.8
2521(26) 0.001445 602.9 1409.8
3150(30) 0.001107 603.1 1884.9
3864(34) 0.000861 603.3 2560.9
4652(37) 0.000729 603. 3483.
5428(38) 0.000678 604. 4673.
6346(42) 0.000564 604. 6109.
7405(46) 0.000463 604. 7696.
8860(52) 0.000376 604. 9235.
10443(55) 0.0003270 605. 10404.
11872(57) 0.0003075 605. 10840.
11899(59) 0.0002913 605. 10375.
10531(56) 0.0003172 605. 9187.
8503(50) 0.000398 605. 7642.
6412(42) 0.000556 606. 6057.
4929(37) 0.000747 606. 4630.
3762(33) 0.000909 606.0 3448.3
2970(30) 0.001128 606.2 2534.6
2350(26) 0.001477 606.4 1866.0
2003(24) 0.001807 606.7 1396.8
1674(21) 0.002203 606.9 1076.1
1465(21) 0.002346 607.1 857.8
1342(20) 0.002476 607.3 706.8
1181(18) 0.002953 607.5 598.3
1118(18) 0.003253 607.7 516.8
1055(17) 0.00353 607.9 452.9
981(17) 0.00351 608.1 400.9
945(17) 0.003488 608.3 357.7
914(16) 0.00376 608.6 321.2
867(15) 0.00424 608.8 290.0
861(15) 0.00430 609.0 263.1
789(15) 0.00436 609.2 239.7
833(16) 0.00377 609.4 219.2
781(15) 0.00442 609.6 201.3
755(14) 0.00485 609.8 185.4
745(14) 0.00500 610.0 171.3
756(15) 0.00458 610.2 158.8
690(15) 0.00458 610.5 147.5
700(14) 0.00506 610.7 137.4
715(14) 0.00522 610.9 128.3
710(14) 0.00515 611.1 120.1
706(14) 0.00495 611.3 112.7
707(15) 0.00464 611.5 105.9
698(14) 0.00501 611.7 99.7
673(13) 0.00551 611.9 94.0
651(13) 0.00566 612.2 88.8
657(14) 0.00532 612.4 84.0
669(14) 0.00488 612.6 79.6
680(14) 0.00489 612.8 75.5
660(13) 0.00565 613.0 71.7
673(14) 0.00541 613.2 68.2
669(14) 0.00527 613.4 65.0
671(14) 0.00501 613.6 62.0
673(14) 0.00516 613.8 59.1
623(13) 0.00596 614.1 56.5
688(14) 0.00522 614.3 54.1
664(14) 0.00528 614.5 51.7
674(14) 0.00501 614.7 49.6
671(14) 0.00522 614.9 47.6
633(13) 0.00585 615.1 45.7
626(13) 0.00565 615.3 43.9
635(14) 0.00539 615.5 42.2
646(14) 0.00534 615.7 40.6
662(14) 0.00537 616.0 39.1
670(13) 0.00555 616.2 37.7
651(14) 0.00533 616.4 36.3
647(14) 0.00520 616.6 35.0
635(14) 0.00537 616.8 33.8
657(14) 0.00543 617.0 32.7
647(13) 0.00571 617.2 31.6
662(14) 0.00507 617.4 30.5
664(14) 0.00508 617.6 29.6
654(14) 0.00518 617.9 28.6
609(13) 0.00596 618.1 27.7
634(13) 0.00583 618.3 26.9
629(13) 0.00557 618.5 26.0
623(14) 0.00540 618.7 25.3
642(14) 0.00540 618.9 24.5
646(13) 0.00568 619.1 23.8
624(13) 0.00595 619.3 23.1
636(14) 0.00542 619.5 22.5
634(14) 0.00519 619.8 21.8
612(13) 0.00573 620.0 21.2
640(13) 0.00570 620.2 20.7
615(13) 0.00593 620.4 20.1
606(13) 0.00578 620.6 19.6
632(14) 0.00512 620.8 19.1
621(13) 0.00574 621.0 18.6
626(13) 0.00590 621.2 18.1
657(13) 0.00556 621.4 17.7
632(14) 0.00539 621.7 17.2
627(14) 0.00515 621.9 16.8
622(13) 0.00567 622.1 16.4
614(13) 0.00608 622.3 16.0
638(13) 0.00570 622.5 15.6
642(14) 0.00531 622.7 15.3
619(14) 0.00529 622.9 14.9
640(13) 0.00552 623.1 14.6
632(13) 0.00586 623.3 14.2
624(13) 0.00587 623.6 13.9
635(14) 0.00534 623.8 13.6
635(14) 0.00510 624.0 13.3
655(14) 0.00518 624.2 13.0
620(13) 0.00596 624.4 12.8
619(13) 0.00584 624.6 12.5
619(13) 0.00563 624.8 12.2
630(14) 0.00540 625.0 12.0
633(13) 0.00564 625.3 11.7
646(13) 0.00576 625.5 11.5
606(13) 0.00582 625.7 11.3
637(14) 0.00532 625.9 11.0
623(13) 0.00557 626.1 10.8
634(13) 0.00562 626.3 10.6
660(13) 0.00565 626.5 10.4
656(14) 0.00523 626.7 10.2
639(14) 0.00535 626.9 10.0
645(14) 0.00534 627.2 9.8
610(13) 0.00590 627.4 9.6
647(13) 0.00572 627.6 9.5
654(14) 0.00528 627.8 9.3
661(14) 0.00520 628.0 9.1
673(14) 0.00503 628.2 9.0
623(13) 0.00582 628.4 8.8
631(13) 0.00589 628.6 8.6
623(13) 0.00573 628.8 8.5
655(14) 0.00519 629.1 8.3
607(13) 0.00572 629.5 8.2
604(13) 0.00602 629.9 8.1
635(13) 0.00582 630.3 7.9
639(14) 0.00537 630.7 7.8
615(14) 0.00534 631.1 7.7
660(14) 0.00524 631.5 7.5
617(13) 0.00599 631.9 7.4
661(13) 0.00562 632.3 7.3
635(14) 0.00546 632.7 7.2
620(14) 0.00532 633.1 7.1
639(14) 0.00549 633.5 0.0
644(13) 0.00571 633.9 0.0
635(13) 0.00584 634.3 0.0
637(13) 0.00553 634.7 0.0
658(14) 0.00484 635.1 0.0
656(14) 0.00527 635.6 0.0
644(13) 0.00577 636.0 0.0
635(13) 0.00555 636.4 0.0
631(14) 0.00536 636.8 0.0
661(14) 0.00486 637.2 0.0
640(13) 0.00556 637.6 0.0
669(13) 0.00553 638.0 0.0
641(13) 0.00562 638.4 0.0
672(14) 0.00519 638.8 0.0
659(14) 0.00498 639.2 0.0
666(14) 0.00518 639.6 0.0
634(13) 0.00578 640.0 0.0
632(13) 0.00570 640.4 0.0
698(14) 0.00483 640.8 0.0
652(14) 0.00515 641.2 0.0
630(14) 0.00549 641.6 0.0
647(13) 0.00572 642.0 0.0
652(13) 0.00554 642.4 0.0
652(14) 0.00518 642.8 0.0
633(14) 0.00533 643.2 0.0
679(14) 0.00514 643.6 0.0
638(13) 0.00589 644.0 0.0
620(13) 0.00581 644.4 0.0
622(13) 0.00561 644.8 0.0
682(14) 0.00511 645.3 0.0
682(14) 0.00511 645.7 0.0
627(13) 0.00593 646.1 0.0
671(14) 0.00512 646.5 0.0
640(14) 0.00535 646.9 0.0
685(14) 0.00498 647.3 0.0
717(14) 0.00505 647.7 0.0
640(13) 0.00581 648.1 0.0
673(14) 0.00513 648.5 0.0
633(14) 0.00525 648.9 0.0
630(14) 0.00548 649.3 0.0
703(14) 0.00516 649.7 0.0
660(13) 0.00563 650.1 0.0
656(14) 0.00532 650.5 0.0
655(14) 0.00513 650.9 0.0
661(14) 0.00522 651.3 0.0
629(13) 0.00596 651.7 0.0
665(13) 0.00552 652.1 0.0
634(13) 0.00556 652.5 0.0
650(14) 0.00500 652.9 0.0
658(14) 0.00537 653.3 0.0
661(13) 0.00564 653.7 0.0
694(14) 0.00534 654.1 0.0
670(14) 0.00511 654.5 0.0
676(15) 0.00455 654.9 0.0
635(13) 0.00549 655.4 0.0
657(13) 0.00564 655.8 0.0
683(14) 0.00539 656.2 0.0
699(14) 0.00505 656.6 0.0
658(14) 0.00506 657.0 0.0
690(14) 0.00502 657.4 0.0
641(13) 0.00577 657.8 0.0
696(14) 0.00527 658.2 0.0
644(14) 0.00541 658.6 0.0
650(14) 0.00493 659.0 0.0
682(14) 0.00506 659.4 0.0
673(13) 0.00552 659.8 0.0
655(13) 0.00564 660.2 0.0
647(13) 0.00552 660.6 0.0
671(14) 0.00509 661.0 0.0
704(14) 0.00491 661.4 0.0
639(13) 0.00580 661.8 0.0
683(14) 0.00524 662.2 0.0
633(14) 0.00541 662.6 0.0
665(14) 0.00499 663.0 0.0
641(14) 0.00536 663.4 0.0
668(13) 0.00558 663.8 0.0
647(14) 0.00541 664.2 0.0
685(14) 0.00491 664.6 0.0
649(14) 0.00541 665.1 0.0
680(14) 0.00527 665.5 0.0
638(13) 0.00587 665.9 0.0
692(14) 0.00500 666.3 0.0
663(14) 0.00508 666.7 0.0
667(14) 0.00506 667.1 0.0
683(14) 0.00516 667.5 0.0
681(14) 0.00548 667.9 0.0
652(14) 0.00526 668.3 0.0
714(15) 0.00469 668.7 0.0
691(14) 0.00515 669.1 0.0
706(14) 0.00509 669.5 0.0
666(13) 0.00562 669.9 0.0
689(14) 0.00498 670.3 0.0
664(14) 0.00507 670.7 0.0
663(14) 0.00514 671.1 0.0
658(14) 0.00547 671.5 0.0
678(13) 0.00551 671.9 0.0
675(14) 0.00499 672.3 0.0
657(14) 0.00492 672.7 0.0
685(14) 0.00500 673.1 0.0
711(14) 0.00517 673.5 0.0
680(14) 0.00547 673.9 0.0
668(14) 0.00527 674.3 0.0
684(14) 0.00478 674.8 0.0
652(14) 0.00532 675.2 0.0
682(14) 0.00541 675.6 0.0
664(13) 0.00559 676.0 0.0
712(14) 0.00487 676.4 0.0
704(15) 0.00462 676.8 0.0
700(14) 0.00506 677.2 0.0
679(13) 0.00551 677.6 0.0
665(13) 0.00555 678.0 0.0
690(14) 0.00516 678.4 0.0
687(14) 0.00484 678.8 0.0
701(14) 0.00493 679.2 0.0
674(13) 0.00553 679.6 0.0
698(14) 0.00519 680.0 0.0
656(14) 0.00528 680.4 0.0
655(14) 0.00516 680.8 0.0
699(14) 0.00495 681.2 0.0
745(14) 0.00497 681.6 0.0
727(14) 0.00487 682.0 0.0
724(15) 0.00468 682.4 0.0
661(14) 0.00527 682.8 9.5
684(14) 0.00506 683.2 9.6
671(13) 0.00554 683.6 9.7
667(14) 0.00538 684.0 9.9
726(15) 0.00466 684.4 10.0
719(14) 0.00481 684.9 10.1
700(14) 0.00506 685.3 10.2
688(14) 0.00539 685.7 10.3
688(14) 0.00497 686.1 10.4
665(14) 0.00492 686.5 10.6
703(14) 0.00477 686.9 10.7
696(14) 0.00514 687.3 10.8
682(14) 0.00548 687.7 11.0
668(14) 0.00531 688.1 11.1
697(14) 0.00476 688.5 11.2
695(14) 0.00498 688.9 11.4
672(14) 0.00547 689.3 11.5
732(14) 0.00505 689.7 11.7
716(14) 0.00477 690.1 11.8
702(14) 0.00480 690.5 12.0
700(14) 0.00500 690.9 12.1
696(14) 0.00523 691.3 12.3
705(14) 0.00529 691.7 12.4
698(14) 0.00502 692.1 12.6
722(15) 0.00452 692.5 12.8
665(14) 0.00530 692.9 12.9
704(14) 0.00520 693.3 13.1
688(14) 0.00541 693.7 13.8
712(14) 0.00493 694.3 14.0
676(15) 0.00473 694.9 14.2
681(14) 0.00511 695.4 14.3
691(14) 0.00534 696.0 14.5
703(14) 0.00530 696.6 14.7
687(14) 0.00516 697.2 15.0
721(15) 0.00458 697.8 15.2
735(14) 0.00476 698.3 15.4
722(14) 0.00510 698.9 15.6
729(14) 0.00497 699.5 15.8
722(14) 0.00482 700.1 16.1
711(15) 0.00473 700.6 16.3
723(14) 0.00477 701.2 16.5
690(14) 0.00535 701.8 16.8
726(14) 0.00498 702.4 17.0
718(14) 0.00486 703.0 17.3
706(14) 0.00482 703.5 17.6
685(14) 0.00500 704.1 17.8
692(14) 0.00538 704.7 18.1
654(14) 0.00549 705.3 18.4
684(14) 0.00500 705.8 18.7
741(15) 0.00449 706.4 19.0
727(14) 0.00477 707.0 19.3
734(14) 0.00509 707.6 19.6
705(14) 0.00512 708.2 19.9
742(14) 0.00479 708.7 20.2
740(15) 0.00466 709.3 20.6
674(14) 0.00534 709.9 20.9
701(14) 0.00531 710.5 21.3
697(14) 0.00501 711.0 21.6
711(14) 0.00484 711.6 22.0
754(15) 0.00465 712.2 22.4
710(14) 0.00503 712.8 22.8
696(14) 0.00534 713.4 23.2
716(14) 0.00491 713.9 23.6
761(15) 0.00439 714.5 24.0
751(15) 0.00464 715.1 24.4
729(14) 0.00489 715.7 24.9
720(14) 0.00519 716.3 25.3
739(15) 0.00464 716.8 25.8
725(15) 0.00462 717.4 26.3
722(14) 0.00478 718.0 26.8
752(14) 0.00487 718.6 27.3
750(14) 0.00497 719.1 27.8
763(15) 0.00462 719.7 28.3
727(15) 0.00469 720.3 28.9
738(15) 0.00471 720.9 29.5
732(14) 0.00509 721.5 30.1
756(14) 0.00488 722.0 30.7
736(15) 0.00469 722.6 31.3
736(15) 0.00433 723.2 31.9
718(14) 0.00494 723.8 32.6
732(14) 0.00499 724.3 33.3
762(14) 0.00483 724.9 34.0
753(15) 0.00467 725.5 34.7
755(15) 0.00421 726.1 35.5
750(15) 0.00463 726.7 36.3
744(14) 0.00500 727.2 37.1
777(15) 0.00473 727.8 37.9
768(15) 0.00449 728.4 38.8
749(15) 0.00433 729.0 39.7
722(14) 0.00487 729.5 40.6
755(14) 0.00486 730.1 41.5
740(14) 0.00500 730.7 42.5
743(15) 0.00465 731.3 43.5
762(15) 0.00434 731.9 44.6
756(15) 0.00454 732.4 45.7
739(14) 0.00502 733.0 46.9
767(15) 0.00475 733.6 48.1
752(15) 0.00451 734.2 49.3
747(15) 0.00436 734.7 50.6
760(15) 0.00439 735.3 51.9
789(15) 0.00471 735.9 53.3
754(15) 0.00476 736.5 54.7
790(15) 0.00439 737.1 56.2
785(15) 0.00436 737.6 57.8
779(15) 0.00446 738.2 59.5
803(15) 0.00466 738.8 61.2
743(14) 0.00485 739.4 62.9
762(15) 0.00440 739.9 64.8
801(16) 0.00415 740.5 66.7
822(15) 0.00434 741.1 68.8
780(14) 0.00477 741.7 70.9
780(15) 0.00451 742.3 73.2
811(16) 0.00414 742.8 75.5
801(15) 0.00429 743.4 78.0
780(15) 0.00459 744.0 80.5
808(15) 0.00458 744.6 83.2
793(15) 0.00441 745.1 86.1
785(15) 0.00433 745.7 89.1
802(15) 0.00427 746.3 92.3
822(15) 0.00440 746.9 95.6
793(15) 0.00468 747.5 99.2
812(15) 0.00429 748.0 102.9
814(16) 0.00412 748.6 106.9
828(15) 0.00425 749.2 111.1
791(15) 0.00461 749.8 115.5
771(14) 0.00484 750.3 120.3
790(15) 0.00432 750.9 125.3
843(16) 0.00382 751.5 130.7
808(15) 0.00428 752.1 136.5
825(15) 0.00444 752.7 142.6
843(15) 0.00445 753.2 149.2
871(16) 0.00395 753.8 156.3
893(17) 0.00354 754.4 164.0
886(16) 0.00388 755.0 172.3
879(15) 0.00423 755.5 181.3
865(15) 0.00422 756.1 191.0
900(16) 0.00380 756.7 201.6
877(16) 0.00380 757.3 213.3
947(16) 0.00375 757.9 226.2
935(16) 0.00397 758.4 240.6
920(16) 0.00397 759.0 256.9
972(17) 0.00355 759.6 275.8
1052(18) 0.003100 760.2 298.2
1049(17) 0.003353 760.7 325.6
1049(17) 0.00354 761.3 360.1
1101(17) 0.003330 761.9 404.1
1188(18) 0.002974 762.5 460.8
1249(19) 0.002720 763.1 532.7
1374(20) 0.002465 763.6 622.0
1387(19) 0.002687 764.2 728.6
1469(20) 0.002472 764.8 849.6
1702(22) 0.001983 765.4 978.0
1707(22) 0.001983 765.9 1100.6
1844(23) 0.001877 766.5 1199.2
1939(23) 0.001910 767.1 1256.6
2020(24) 0.001739 767.7 1269.1
2050(25) 0.001653 768.3 1250.3
1979(24) 0.001715 768.8 1222.2
1893(23) 0.001895 769.4 1204.5
1829(22) 0.002028 770.0 1212.0
1803(23) 0.001960 770.6 1255.9
1911(24) 0.001784 771.1 1345.6
2110(25) 0.001624 771.7 1490.2
2361(26) 0.001490 772.3 1700.4
2606(27) 0.001418 772.9 1988.4
3143(30) 0.001101 773.5 2367.8
3712(33) 0.000901 774.0 2854.0
4417(36) 0.000782 775. 3461.
5223(38) 0.000685 775. 4199.
6137(41) 0.000600 776. 5074.
7247(46) 0.000476 776. 6078.
8380(50) 0.000392 777. 7192.
9556(53) 0.000356 778. 8371.
10706(55) 0.0003341 778. 9542.
11890(57) 0.0003075 779. 10595.
12737(61) 0.0002686 779. 11389.
13095(64) 0.0002455 780. 11786.
12808(61) 0.0002677 780. 11706.
11982(58) 0.0003023 781. 11165.
10822(55) 0.0003340 782. 10268.
9619(53) 0.000353 782. 9160.
8416(51) 0.000379 783. 7973.
7394(46) 0.000471 783. 6805.
6358(42) 0.000580 784. 5719.
5533(39) 0.000659 784. 4751.
4820(37) 0.000714 785. 3915.
4241(36) 0.000769 786. 3213.
3706(33) 0.000943 786.2 2637.4
3319(30) 0.001116 786.7 2174.4
2948(29) 0.001230 787.3 1807.7
2622(28) 0.001316 787.9 1520.3
2382(27) 0.001394 788.5 1295.7
2158(25) 0.001615 789.1 1120.0
2026(23) 0.001826 789.6 981.2
1926(23) 0.001874 790.2 870.0
1743(22) 0.001989 790.8 779.4
1666(22) 0.002018 791.4 704.2
1577(21) 0.002228 792.0 640.6
1454(20) 0.002548 792.5 586.0
1441(20) 0.002513 793.1 538.5
1429(20) 0.002412 793.7 496.8
1357(20) 0.002516 794.3 459.7
1326(20) 0.002627 794.8 426.7
1206(18) 0.003086 795.4 397.1
1203(18) 0.002949 796.0 370.5
1110(18) 0.003058 796.6 346.4
1128(18) 0.002988 797.2 324.5
1144(18) 0.003069 797.7 304.7
1088(17) 0.003417 798.3 286.6
1061(17) 0.003318 798.9 270.0
1087(18) 0.003105 799.5 254.8
1066(18) 0.003200 800.0 240.9
1043(17) 0.003424 800.6 228.0
985(16) 0.00376 801.2 216.2
1017(17) 0.003379 801.8 205.2
1047(18) 0.003143 802.4 195.1
997(17) 0.003439 802.9 185.6
976(16) 0.00372 803.5 176.9
969(16) 0.00383 804.1 168.7
980(17) 0.00359 804.7 161.1
989(17) 0.003340 805.2 154.0
931(16) 0.00373 805.8 147.3
961(16) 0.00377 806.4 141.1
933(16) 0.00396 807.0 135.3
920(16) 0.00385 807.6 129.8
896(16) 0.00375 808.1 124.6
954(16) 0.00373 808.7 119.7
966(16) 0.00383 809.3 115.1
907(16) 0.00408 809.9 110.8
857(16) 0.00413 810.4 106.7
881(16) 0.00372 811.0 102.9
907(16) 0.00384 811.6 99.2
921(16) 0.00401 812.2 95.7
911(16) 0.00405 812.8 92.4
896(16) 0.00382 813.3 89.3
866(16) 0.00380 813.9 86.3
886(16) 0.00395 814.5 83.5
873(15) 0.00426 815.1 80.8
871(15) 0.00424 815.6 78.3
842(15) 0.00417 816.2 75.8
874(16) 0.00369 816.8 73.5
890(16) 0.00392 817.4 71.3
841(15) 0.00444 818.0 69.1
846(15) 0.00429 818.5 67.1
872(16) 0.00398 819.1 65.2
868(16) 0.00391 819.7 63.3
859(16) 0.00399 820.3 61.5
884(15) 0.00423 820.8 59.8
821(15) 0.00446 821.4 58.2
850(16) 0.00407 822.0 56.6
843(16) 0.00398 822.6 55.1
821(15) 0.00417 823.2 53.6
846(15) 0.00439 823.7 52.2
857(16) 0.00412 824.3 50.9
857(16) 0.00395 824.9 49.6
809(15) 0.00423 825.5 48.4
881(16) 0.00399 826.0 47.2
839(15) 0.00443 826.6 46.0
807(15) 0.00448 827.2 44.9
825(16) 0.00412 827.8 43.9
873(16) 0.00397 828.4 42.8
920(16) 0.00385 828.9 41.8
864(15) 0.00429 829.5 40.9
879(16) 0.00393 830.1 39.9
852(16) 0.00396 830.7 40.6
842(16) 0.00414 831.2 39.7
839(15) 0.00434 831.8 38.9
826(15) 0.00450 832.4 38.1
837(15) 0.00417 833.0 37.4
876(16) 0.00373 833.6 36.7
873(16) 0.00387 834.1 36.0
848(15) 0.00425 834.7 35.3
851(15) 0.00441 835.3 34.7
846(16) 0.00413 835.9 34.1
851(16) 0.00391 836.4 33.5
855(16) 0.00409 837.0 32.9
876(15) 0.00421 837.6 32.3
883(15) 0.00423 838.2 31.8
884(16) 0.00391 838.8 31.3
852(16) 0.00380 839.3 30.8
847(16) 0.00409 839.9 30.3
810(15) 0.00458 840.5 29.8
838(15) 0.00442 841.1 29.4
891(16) 0.00379 841.6 29.0
834(16) 0.00388 842.2 28.6
849(16) 0.00407 842.8 28.2
861(15) 0.00432 843.4 27.8
815(15) 0.00454 844.0 27.4
845(16) 0.00409 844.5 27.1
871(16) 0.00380 845.1 26.8
891(16) 0.00387 845.7 26.5
855(15) 0.00441 846.3 26.2
869(15) 0.00422 846.9 25.9
827(15) 0.00430 847.5 25.6
846(16) 0.00381 848.1 25.4
825(16) 0.00410 848.7 25.2
879(15) 0.00424 849.3 25.0
836(15) 0.00438 849.9 24.8
856(16) 0.00409 850.5 24.6
888(16) 0.00371 851.1 24.4
832(16) 0.00415 851.7 24.3
887(15) 0.00421 852.3 24.2
873(16) 0.00408 852.9 24.1
829(16) 0.00416 853.5 24.0
815(15) 0.00416 854.1 23.9
843(15) 0.00417 854.7 23.9
854(15) 0.00435 855.3 23.9
814(15) 0.00437 855.9 23.9
858(16) 0.00395 856.5 24.0
867(16) 0.00396 857.1 24.0
847(15) 0.00417 857.7 24.1
881(15) 0.00423 858.3 24.3
835(15) 0.00422 858.9 24.5
856(16) 0.00400 859.5 24.7
916(16) 0.00373 860.1 24.9
829(15) 0.00437 860.7 25.2
879(15) 0.00421 861.3 25.6
886(16) 0.00385 861.9 26.0
914(17) 0.00364 862.5 26.5
901(16) 0.00390 863.1 27.1
894(16) 0.00411 863.7 27.8
883(15) 0.00421 864.3 28.5
887(16) 0.00397 864.9 29.4
885(16) 0.00375 865.5 30.4
884(16) 0.00384 866.1 31.5
868(15) 0.00419 866.6 32.8
927(16) 0.00400 867.2 34.3
918(16) 0.00380 867.8 36.1
897(17) 0.00366 868.4 38.1
892(16) 0.00396 869.0 40.5
941(16) 0.00389 869.6 43.2
898(16) 0.00412 870.2 46.5
923(16) 0.00382 870.8 50.3
926(17) 0.003507 871.4 55.0
919(16) 0.00382 872.0 60.5
925(16) 0.00402 872.6 67.3
979(16) 0.00378 873.2 75.8
980(17) 0.00353 873.8 86.8
992(18) 0.003262 874.4 101.9
1066(17) 0.003274 875.0 124.8
1155(18) 0.003255 875.6 162.7
1296(19) 0.002822 876.2 229.0
1443(20) 0.002459 876.8 344.4
1583(22) 0.002118 877.4 535.0
1859(23) 0.001856 878.0 823.4
2006(23) 0.001843 878.6 1213.8
2193(25) 0.001656 879.2 1675.4
2503(27) 0.001388 879.8 2126.9
2993(30) 0.001120 880.4 2435.0
3572(32) 0.000954 881.0 2464.8
3782(32) 0.000974 881.6 2201.2
2957(29) 0.001176 882.2 1765.0
2109(25) 0.001617 882.8 1287.5
1582(21) 0.002194 883.4 879.5
1331(19) 0.002643 884.0 571.1
1232(18) 0.003018 884.6 363.2
1151(18) 0.003066 885.2 235.3
1051(17) 0.003332 885.8 161.4
1084(18) 0.003082 886.4 119.2
996(17) 0.00356 887.0 94.0
989(16) 0.00374 887.6 77.6
971(17) 0.00367 888.2 65.9
983(17) 0.003444 888.8 56.8
928(16) 0.00375 889.4 49.6
963(16) 0.00374 890.0 43.7
916(16) 0.00404 890.6 38.7
960(17) 0.003494 891.1 34.6
923(17) 0.00365 891.7 31.0
922(16) 0.00380 892.3 28.0
930(16) 0.00388 892.9 25.4
878(15) 0.00424 893.5 23.2
925(16) 0.00381 894.1 21.2
909(17) 0.00358 894.7 19.5
932(17) 0.00355 895.3 17.9
908(16) 0.00402 895.9 16.6
890(15) 0.00417 896.5 15.4
914(16) 0.00377 897.1 14.3
901(17) 0.00367 897.7 13.3
910(16) 0.00384 898.3 12.4
929(16) 0.00399 898.9 11.6
916(16) 0.00405 899.5 10.9
900(16) 0.00381 900.1 10.3
933(17) 0.003422 900.7 9.7
913(16) 0.00382 901.3 9.1
935(16) 0.00396 901.9 8.6
852(15) 0.00432 902.5 8.1
917(16) 0.00380 903.1 7.7
902(17) 0.00365 903.7 7.3
929(17) 0.00367 904.3 7.0
923(16) 0.00401 904.9 6.6
890(16) 0.00414 905.5 6.3
903(16) 0.00381 906.1 6.0
868(16) 0.00379 906.7 5.7
940(17) 0.00363 907.3 5.5
899(16) 0.00415 907.9 5.3
898(16) 0.00402 908.5 6.4
915(16) 0.00380 909.1 6.2
891(16) 0.00378 909.7 6.0
881(16) 0.00392 910.3 5.8
941(16) 0.00396 910.9 5.7
891(16) 0.00407 911.5 5.5
920(16) 0.00372 912.1 5.4
917(17) 0.00367 912.7 5.2
920(16) 0.00376 913.3 5.1
941(16) 0.00395 913.9 5.0
933(16) 0.00377 914.5 4.9
941(16) 0.00379 915.1 4.8
943(17) 0.00363 915.6 4.7
897(16) 0.00393 916.2 4.6
943(16) 0.00394 916.8 4.5
916(16) 0.00378 917.4 4.4
924(17) 0.00367 918.0 4.4
941(16) 0.00368 918.6 4.3
920(16) 0.00389 919.2 4.2
941(16) 0.00394 919.8 4.1
911(16) 0.00382 920.4 4.1
912(17) 0.00364 921.0 4.0
920(16) 0.00374 921.6 4.0
914(16) 0.00400 922.2 3.9
891(15) 0.00417 922.8 3.9
935(16) 0.00369 923.4 3.8
897(16) 0.00377 924.0 3.8
929(16) 0.00377 924.6 3.7
965(16) 0.00374 925.2 3.7
938(16) 0.00397 925.8 3.7
974(17) 0.00351 926.4 3.6
936(17) 0.00356 927.0 3.6
945(16) 0.00372 927.6 3.6
968(16) 0.00378 928.2 3.6
949(16) 0.00391 928.8 3.5
924(16) 0.00380 929.4 3.5
944(17) 0.003437 930.0 3.5
928(16) 0.00384 930.6 3.5
963(16) 0.00381 931.3 1.9
941(16) 0.00390 932.0 1.9
955(17) 0.00359 932.6 2.0
930(17) 0.003469 933.3 2.0
946(16) 0.00373 934.0 2.0
902(16) 0.00416 934.7 2.0
946(16) 0.00386 935.3 2.1
948(17) 0.00365 936.0 2.1
942(17) 0.003484 936.7 2.1
935(16) 0.00375 937.3 2.1
970(16) 0.00383 938.0 2.1
948(16) 0.00382 938.7 2.2
958(17) 0.00353 939.4 2.2
940(17) 0.00356 940.0 2.2
954(17) 0.00365 940.7 2.2
917(16) 0.00404 941.4 2.3
984(17) 0.00365 942.1 2.3
953(17) 0.00363 942.7 2.3
940(17) 0.00352 943.4 2.3
960(17) 0.00356 944.1 2.4
949(16) 0.00389 944.7 2.4
939(16) 0.00391 945.4 2.4
977(17) 0.00354 946.1 2.4
986(17) 0.003450 946.8 2.5
985(17) 0.00351 947.4 2.5
927(16) 0.00404 948.1 2.5
941(16) 0.00374 948.8 2.6
935(16) 0.00372 949.4 2.6
959(17) 0.00358 950.1 2.6
930(16) 0.00385 950.8 2.7
963(16) 0.00388 951.5 2.7
969(17) 0.00354 952.1 2.7
965(17) 0.00355 952.8 2.8
982(17) 0.00352 953.5 2.8
948(16) 0.00384 954.2 2.8
959(16) 0.00389 954.8 2.9
971(17) 0.00356 955.5 2.9
935(17) 0.00365 956.2 2.9
969(17) 0.00363 956.8 3.0
947(16) 0.00387 957.5 3.0
1002(16) 0.00369 958.2 3.0
1004(17) 0.003480 958.9 3.1
1008(17) 0.003308 959.5 3.1
964(17) 0.00364 960.2 3.2
928(16) 0.00393 960.9 3.2
978(16) 0.00383 961.5 3.2
909(16) 0.00388 962.2 3.3
980(17) 0.003341 962.9 3.3
957(16) 0.00371 963.6 3.4
957(16) 0.00388 964.2 3.4
960(16) 0.00387 964.9 3.5
951(16) 0.00374 965.6 3.5
979(17) 0.003270 966.3 3.6
993(17) 0.003504 966.9 3.6
984(16) 0.00379 967.6 3.7
963(16) 0.00378 968.3 3.7
944(16) 0.00378 968.9 3.8
989(17) 0.003304 969.6 3.8
1013(17) 0.003386 970.3 3.9
951(16) 0.00387 971.0 3.9
991(16) 0.00371 971.6 4.0
985(17) 0.003505 972.3 4.1
959(17) 0.003472 973.0 4.1
987(17) 0.003469 973.7 4.2
970(16) 0.00384 974.3 4.2
980(17) 0.00367 975.0 4.3
982(17) 0.00353 975.7 4.4
1006(18) 0.003242 976.3 4.4
993(17) 0.003445 977.0 4.5
1010(17) 0.00366 977.7 4.6
1007(17) 0.00360 978.4 4.6
955(17) 0.00367 979.0 4.7
1033(18) 0.003248 979.7 4.8
1023(17) 0.003437 980.4 4.9
1001(16) 0.00371 981.0 5.0
974(17) 0.00361 981.7 5.0
984(17) 0.003420 982.4 5.1
974(17) 0.00354 983.1 5.2
1006(17) 0.003493 983.7 5.3
1007(16) 0.00372 984.4 5.4
977(17) 0.00364 985.1 5.5
1009(17) 0.003289 985.8 5.6
1008(17) 0.003382 986.4 5.7
1014(17) 0.00352 987.1 5.8
1004(16) 0.00371 987.8 5.9
1004(17) 0.003431 988.4 6.0
980(17) 0.003456 989.1 6.1
982(17) 0.003465 989.7 6.2
1024(17) 0.003500 990.4 6.3
1060(17) 0.00353 991.0 6.4
1019(17) 0.003366 991.7 6.6
957(17) 0.003461 992.3 6.7
984(17) 0.00354 993.0 6.8
996(17) 0.00366 993.6 6.9
1028(17) 0.00359 994.2 7.1
1008(17) 0.00352 994.9 7.2
973(17) 0.003371 995.5 7.4
976(17) 0.00355 996.2 7.5
985(16) 0.00374 996.8 7.7
1000(16) 0.00372 997.4 7.8
992(17) 0.003501 998.1 8.0
1002(18) 0.003196 998.7 8.1
1007(17) 0.003350 999.4 8.3
1006(16) 0.00370 1000.0 8.5
1022(17) 0.00360 1000.7 8.7
1079(18) 0.003161 1001.3 8.9
1009(18) 0.003195 1001.9 9.1
988(17) 0.00357 1002.6 9.3
1072(17) 0.003404 1003.2 9.5
1031(17) 0.00355 1003.9 9.7
980(17) 0.00360 1004.5 9.9
994(17) 0.003389 1005.1 10.1
1044(17) 0.003366 1005.8 10.4
992(16) 0.00374 1006.4 10.6
1017(17) 0.00357 1007.1 10.9
1041(18) 0.003221 1007.7 11.2
1009(17) 0.003276 1008.4 11.4
1050(18) 0.003193 1009.0 11.7
993(16) 0.00370 1009.6 12.0
1025(17) 0.003493 1010.3 12.3
1044(17) 0.003277 1010.9 12.6
1018(17) 0.003328 1011.6 13.0
1013(17) 0.003428 1012.2 13.3
1061(17) 0.00352 1012.8 13.7
1023(17) 0.003437 1013.5 14.1
1003(17) 0.003366 1014.1 14.5
1038(17) 0.003269 1014.8 14.9
1031(17) 0.003362 1015.4 15.3
1011(17) 0.00367 1016.1 15.7
1031(17) 0.003381 1016.7 16.2
1049(18) 0.003158 1017.3 16.7
1038(18) 0.003250 1018.0 17.2
1025(17) 0.00353 1018.6 17.7
1046(17) 0.00354 1019.3 18.3
1089(18) 0.003065 1019.9 18.9
1018(17) 0.003340 1020.5 19.5
1068(18) 0.003171 1021.2 20.1
1031(17) 0.003488 1021.8 20.8
1029(17) 0.00363 1022.5 21.5
981(17) 0.00354 1023.1 22.2
1022(18) 0.003227 1023.8 23.0
1062(18) 0.003211 1024.4 23.8
1036(17) 0.00352 1025.0 24.7
1061(17) 0.003500 1025.7 25.6
1055(17) 0.003328 1026.3 26.6
1077(18) 0.003085 1027.0 27.6
1062(17) 0.003274 1027.6 28.7
1077(17) 0.003395 1028.2 29.8
1060(17) 0.003495 1028.9 31.1
1046(17) 0.003292 1029.5 32.3
1064(18) 0.003046 1030.2 33.7
1026(17) 0.003384 1030.8 35.2
1077(17) 0.003411 1031.5 36.7
1079(17) 0.003416 1032.1 38.4
1048(17) 0.003314 1032.7 40.2
1056(18) 0.003117 1033.4 42.1
1079(17) 0.003266 1034.0 44.1
1073(17) 0.003433 1034.7 46.3
1083(17) 0.003396 1035.3 48.7
1081(18) 0.003178 1035.9 51.2
1146(19) 0.002770 1036.6 53.9
1061(17) 0.003270 1037.2 56.9
1080(17) 0.003436 1037.9 60.1
1141(18) 0.003218 1038.5 63.6
1142(18) 0.003081 1039.2 67.3
1086(18) 0.003044 1039.8 71.5
1098(18) 0.003097 1040.4 76.0
1109(17) 0.003350 1041.1 80.9
1106(18) 0.003261 1041.7 86.3
1185(19) 0.002911 1042.4 92.3
1132(18) 0.002998 1043.0 99.0
1117(18) 0.003105 1043.6 106.4
1137(17) 0.003293 1044.3 114.8
1190(18) 0.002998 1044.9 124.2
1195(19) 0.002843 1045.6 135.0
1188(19) 0.002853 1046.2 147.5
1174(18) 0.002995 1046.9 162.1
1180(18) 0.003145 1047.5 179.4
1207(19) 0.002900 1048.1 200.2
1236(19) 0.002754 1048.8 225.4
1247(19) 0.002727 1049.4 256.2
1282(19) 0.002763 1050.1 294.0
1342(19) 0.002770 1050.7 340.4
1382(20) 0.002530 1051.3 397.2
1454(21) 0.002315 1052.0 466.2
1545(21) 0.002208 1052.6 549.2
1624(21) 0.002228 1053.3 647.9
1750(22) 0.002108 1053.9 763.4
1923(24) 0.001807 1054.6 896.0
2152(25) 0.001543 1055.2 1045.2
2296(26) 0.001528 1055.8 1209.0
2524(27) 0.001424 1056.5 1383.3
2672(27) 0.001397 1057.1 1561.0
2849(29) 0.001201 1057.8 1731.4
3025(31) 0.001072 1058.4 1880.1
3085(30) 0.001123 1059.0 1990.5
3109(29) 0.001181 1059.7 2047.3
3047(29) 0.001213 1060.3 2041.5
2895(29) 0.001183 1061.0 1973.9
2764(29) 0.001172 1061.6 1855.3
2678(28) 0.001302 1062.3 1701.4
2528(26) 0.001467 1062.9 1528.7
2343(25) 0.001575 1063.5 1351.0
2113(25) 0.001664 1064.2 1178.2
2020(25) 0.001597 1064.8 1016.8
1849(23) 0.001861 1065.5 870.5
1758(22) 0.002106 1066.1 741.0
1726(22) 0.002120 1066.7 628.7
1677(22) 0.002045 1067.4 533.0
1557(22) 0.002096 1068.0 452.6
1483(21) 0.002371 1068.7 386.0
1453(20) 0.002553 1069.3 331.2
1433(20) 0.002548 1070.0 286.5
1360(20) 0.002521 1070.6 250.1
1341(20) 0.002450 1071.2 220.4
1341(20) 0.002563 1071.9 196.1
1259(18) 0.002953 1072.5 176.1
1267(19) 0.002826 1073.2 159.3
1214(19) 0.002840 1073.8 145.1
1203(19) 0.002794 1074.4 133.0
1234(19) 0.002806 1075.1 122.5
1215(18) 0.003042 1075.7 113.2
1254(19) 0.002799 1076.4 105.1
1170(18) 0.002936 1077.0 97.8
1168(19) 0.002902 1077.7 91.3
1226(19) 0.002845 1078.3 85.4
1162(18) 0.003194 1078.9 80.1
1201(19) 0.002917 1079.6 75.2
1163(18) 0.002967 1080.2 70.8
1193(19) 0.002817 1080.9 66.7
1142(18) 0.003080 1081.5 63.0
1135(17) 0.003284 1082.1 59.6
1155(18) 0.002973 1082.8 56.4
1135(18) 0.002959 1083.4 53.5
1182(19) 0.002856 1084.1 50.8
1160(18) 0.003063 1084.7 48.3
1115(17) 0.003310 1085.4 46.0
1143(18) 0.002978 1086.0 43.9
1127(19) 0.002917 1086.6 41.8
1138(18) 0.003031 1087.3 40.0
1123(18) 0.003211 1087.9 38.2
1130(17) 0.003294 1088.6 36.6
1112(18) 0.003095 1089.2 35.0
1148(19) 0.002880 1089.8 33.6
1145(18) 0.003044 1090.5 32.2
1164(18) 0.003114 1091.1 31.0
1120(17) 0.003326 1091.8 29.8
1148(18) 0.002976 1092.4 28.6
1116(19) 0.002880 1093.1 27.6
1098(18) 0.003174 1093.7 26.6
1091(17) 0.003354 1094.3 25.6
1088(17) 0.003405 1095.0 24.7
1106(18) 0.003138 1095.6 23.8
1096(19) 0.002858 1096.3 23.0
1093(18) 0.003215 1096.9 22.3
1117(17) 0.003317 1097.5 21.5
1096(17) 0.003418 1098.2 20.8
1155(18) 0.002948 1098.8 20.2
1130(19) 0.002861 1099.5 19.5
1134(18) 0.003038 1100.1 18.9
1139(17) 0.003267 1100.8 18.3
1103(17) 0.003324 1101.4 17.8
1115(18) 0.003119 1102.0 17.3
1169(19) 0.002775 1102.7 16.8
1121(18) 0.003073 1103.3 16.3
1079(17) 0.003465 1104.0 15.8
1089(17) 0.003347 1104.6 15.4
1132(18) 0.003071 1105.2 15.0
1157(19) 0.002914 1105.9 14.6
1109(18) 0.003158 1106.5 14.2
1130(17) 0.003295 1107.2 13.8
1101(17) 0.003271 1107.8 13.5
1097(18) 0.003224 1108.5 13.1
1203(19) 0.002819 1109.1 12.8
1167(18) 0.002943 1109.7 12.5
1120(17) 0.003334 1110.4 12.2
1125(18) 0.003112 1111.0 11.9
1058(18) 0.003265 1111.7 11.6
1142(18) 0.002971 1112.3 11.3
1123(18) 0.003139 1112.9 11.1
1079(17) 0.003465 1113.6 10.8
1143(18) 0.003057 1114.2 10.6
1149(18) 0.002940 1114.9 10.3
1107(18) 0.003121 1115.5 10.1
1114(18) 0.003248 1116.2 9.9
1127(17) 0.003303 1116.8 9.7
1114(18) 0.003104 1117.4 9.5
1147(19) 0.002851 1118.1 9.3
1112(18) 0.003096 1118.7 9.1
1126(18) 0.003254 1119.4 8.9
1162(18) 0.003192 1120.0 8.7
1104(18) 0.003154 1120.6 8.5
1105(18) 0.002975 1121.3 8.4
1072(17) 0.003290 1121.9 8.2
1142(18) 0.003204 1122.6 8.1
1126(17) 0.003333 1123.2 7.9
1102(18) 0.003157 1123.9 7.8
1140(19) 0.002876 1124.5 7.6
1140(18) 0.003087 1125.1 7.5
1132(18) 0.003250 1125.8 7.4
1156(18) 0.003209 1126.4 7.2
1115(18) 0.003166 1127.1 7.1
1150(19) 0.002787 1127.7 7.0
1132(18) 0.003038 1128.3 6.9
1122(18) 0.003245 1129.0 6.8
1090(17) 0.003371 1129.6 6.6
1127(18) 0.003104 1130.3 6.5
1127(19) 0.002880 1130.9 6.4
1141(18) 0.003000 1131.6 6.3
1130(17) 0.003306 1132.2 6.2
1206(18) 0.003026 1132.8 6.1
1151(18) 0.003010 1133.5 6.0
1144(19) 0.002862 1134.1 6.0
1098(18) 0.003176 1134.8 5.9
1122(17) 0.003308 1135.4 5.8
1125(18) 0.003257 1136.0 5.7
1191(19) 0.002843 1136.7 5.6
1169(19) 0.002831 1137.1 5.6
1129(18) 0.003084 1137.3 5.5
1134(17) 0.003288 1137.5 5.4
1139(18) 0.003158 1137.7 5.3
1143(18) 0.003041 1137.9 5.3
1137(18) 0.002988 1138.1 5.2
1159(18) 0.002965 1138.3 5.1
1157(18) 0.003221 1138.5 5.1
1158(18) 0.003045 1138.7 5.0
1136(18) 0.002991 1138.9 5.0
1145(18) 0.002956 1139.0 4.9
1162(18) 0.003021 1139.2 4.9
1098(17) 0.003396 1139.4 4.8
1090(18) 0.003183 1139.6 4.8
1142(18) 0.002930 1139.8 4.7
1107(18) 0.003122 1140.0 4.7
1137(18) 0.003196 1140.2 4.6
1135(17) 0.003270 1140.4 4.6
1133(18) 0.003106 1140.6 4.6
1159(18) 0.002927 1140.8 4.5
1169(18) 0.002971 1141.0 4.5
1196(18) 0.003041 1141.2 4.5
1174(18) 0.003174 1141.4 4.4
1148(18) 0.002989 1141.6 4.4
1149(19) 0.002875 1141.8 4.4
1152(18) 0.003032 1142.0 4.4
1188(18) 0.003085 1142.1 4.3
1146(18) 0.003250 1142.3 4.3
1152(18) 0.003045 1142.5 4.3
1237(20) 0.002612 1142.7 4.3
1170(18) 0.002957 1142.9 4.3
1162(18) 0.003193 1143.1 4.3
1129(17) 0.003274 1143.3 4.2
1137(18) 0.003071 1143.5 4.2
1161(19) 0.002768 1143.7 4.2
1179(18) 0.002935 1143.9 4.2
1206(18) 0.003073 1144.1 4.2
1167(18) 0.003168 1144.3 4.3
1138(18) 0.003125 1144.5 4.3
1214(19) 0.002682 1144.7 4.3
1216(19) 0.002841 1144.9 4.3
1169(18) 0.003170 1145.1 4.3
1160(18) 0.003160 1145.3 4.3
1167(18) 0.002985 1145.4 4.4
1152(19) 0.002873 1145.6 4.4
1140(18) 0.003017 1145.8 4.4
1116(17) 0.003347 1146.0 4.5
1133(17) 0.003265 1146.2 4.5
1177(19) 0.002916 1146.4 4.6
1193(19) 0.002759 1146.6 4.7
1151(18) 0.003025 1146.8 4.7
1084(17) 0.003423 1147.0 4.8
1179(18) 0.003102 1147.2 4.9
1213(19) 0.002893 1147.4 5.0
1193(19) 0.002868 1147.6 5.1
1165(18) 0.002979 1147.8 5.2
1165(18) 0.003181 1148.0 5.3
1208(18) 0.002932 1148.2 5.5
1163(18) 0.002949 1148.4 5.6
1143(18) 0.002966 1148.5 5.8
1178(19) 0.002922 1148.7 6.0
1187(18) 0.003121 1148.9 6.2
1137(18) 0.003125 1149.1 6.5
1149(18) 0.002952 1149.3 6.8
1150(18) 0.002980 1149.5 7.1
1176(18) 0.003033 1149.7 7.4
1158(18) 0.003212 1149.9 7.8
1192(19) 0.002889 1150.1 8.3
1179(19) 0.002846 1150.3 8.9
1160(18) 0.003025 1150.5 9.6
1153(18) 0.003174 1150.7 10.4
1155(18) 0.003209 1150.9 11.3
1187(19) 0.002909 1151.1 12.5
1156(18) 0.002934 1151.3 13.9
1170(18) 0.002960 1151.5 15.7
1224(18) 0.002987 1151.7 17.8
1250(18) 0.002956 1151.8 20.3
1200(19) 0.002838 1152.0 23.3
1192(19) 0.002759 1152.2 26.8
1180(18) 0.002998 1152.4 30.9
1245(18) 0.002963 1152.6 35.5
1234(18) 0.003003 1152.8 40.8
1247(19) 0.002807 1153.0 46.6
1238(19) 0.002659 1153.2 52.8
1245(19) 0.002789 1153.4 59.3
1252(18) 0.002939 1153.6 65.9
1238(18) 0.002986 1153.8 72.2
1234(19) 0.002814 1154.0 77.8
1248(20) 0.002519 1154.2 82.1
1232(19) 0.002842 1154.4 84.6
1280(19) 0.002886 1154.6 85.1
1259(18) 0.002952 1154.8 83.5
1231(19) 0.002827 1154.9 80.0
1266(20) 0.002606 1155.1 74.9
1290(19) 0.002726 1155.3 68.9
1252(18) 0.002966 1155.5 62.4
1296(19) 0.002840 1155.7 55.8
1284(19) 0.002655 1155.9 49.3
1198(19) 0.002786 1156.1 43.3
1219(19) 0.002866 1156.3 37.8
1201(18) 0.003104 1156.5 32.8
1184(18) 0.003081 1156.7 28.4
1189(19) 0.002913 1156.9 24.6
1138(18) 0.002986 1157.1 21.3
1162(18) 0.003024 1157.3 18.6
1218(18) 0.003045 1157.5 16.3
1199(18) 0.003002 1157.7 14.3
1188(19) 0.002899 1157.9 12.7
1173(19) 0.002909 1158.0 11.4
1183(18) 0.002927 1158.2 10.4
1212(18) 0.003058 1158.4 9.5
1178(18) 0.003030 1158.6 8.7
1144(18) 0.003010 1158.8 8.1
1157(18) 0.002942 1159.0 7.5
1191(18) 0.002985 1159.2 5.7
1185(18) 0.003127 1159.4 5.3
1162(18) 0.003007 1159.6 5.0
1182(19) 0.002855 1159.8 4.7
1160(18) 0.002933 1160.0 4.5
1213(18) 0.002959 1160.2 4.2
1217(18) 0.003049 1160.4 4.1
1167(18) 0.002937 1160.6 3.9
1171(19) 0.002870 1160.8 3.7
1192(18) 0.002931 1161.0 3.6
1155(18) 0.003151 1161.2 3.5
1170(18) 0.003168 1161.3 3.4
1184(18) 0.002930 1161.5 3.4
1159(19) 0.002872 1161.7 3.3
1159(18) 0.003051 1161.9 3.3
1168(18) 0.003180 1162.1 3.2
1182(18) 0.003168 1162.3 3.2
1172(19) 0.002921 1162.5 3.2
1180(19) 0.002763 1162.7 3.2
1126(18) 0.003120 1162.9 3.3
1147(18) 0.003187 1163.1 3.3
1159(18) 0.003194 1163.3 3.3
1157(18) 0.003048 1163.5 3.4
1163(19) 0.002741 1163.7 3.4
1180(18) 0.002932 1163.9 3.5
1194(18) 0.003097 1164.1 3.6
1230(18) 0.002987 1164.3 3.6
1169(18) 0.002953 1164.4 3.6
1180(19) 0.002765 1164.6 3.7
1200(19) 0.002890 1164.8 3.7
1237(18) 0.003001 1165.0 3.7
1194(18) 0.003065 1165.2 3.6
1177(18) 0.002948 1165.4 3.6
1208(19) 0.002716 1165.6 3.5
1240(19) 0.002810 1165.8 3.4
1218(18) 0.003046 1166.0 3.3
1195(18) 0.003077 1166.2 3.2
1202(19) 0.002900 1166.4 3.1
1221(19) 0.002741 1166.6 2.9
1181(18) 0.002927 1166.8 2.8
1174(18) 0.003167 1167.0 2.7
1170(18) 0.003064 1167.2 2.5
1207(19) 0.002792 1167.4 2.4
1220(19) 0.002755 1167.6 2.2
1258(19) 0.002755 1167.7 2.1
1201(18) 0.003090 1167.9 2.0
1224(19) 0.002920 1168.1 1.9
1200(19) 0.002859 1168.3 1.7
1188(19) 0.002834 1168.5 1.6
1160(18) 0.003067 1168.7 1.5
1226(18) 0.003042 1168.9 1.5
1161(18) 0.002983 1169.1 1.4
1232(19) 0.002671 1169.3 1.3
1160(18) 0.002966 1169.5 1.2
1157(18) 0.003100 1169.7 1.1
1136(18) 0.003235 1169.9 1.1
1186(19) 0.002887 1170.1 1.0
1205(19) 0.002753 1170.3 1.0
1172(18) 0.002924 1170.5 0.9
1168(18) 0.003076 1170.7 0.9
1132(18) 0.003249 1170.8 0.8
1176(18) 0.002961 1171.0 0.8
1202(19) 0.002790 1171.2 0.8
1213(19) 0.002849 1171.4 0.7
1217(18) 0.003003 1171.6 0.7
1203(18) 0.003074 1171.8 0.7
1205(19) 0.002815 1172.0 0.7
1155(19) 0.002837 1172.2 0.6
1168(18) 0.002993 1172.4 0.6
1219(18) 0.002988 1172.6 0.6
1168(18) 0.003146 1172.8 0.6
1165(18) 0.002991 1173.0 0.6
1222(20) 0.002605 1173.2 0.6
1178(18) 0.002981 1173.4 0.5
1216(18) 0.003045 1173.6 0.5
1179(18) 0.003139 1173.8 0.5
1138(18) 0.003072 1174.0 0.5
1202(19) 0.002684 1174.1 0.5
1167(18) 0.003014 1174.3 0.5
1130(17) 0.003298 1174.5 0.5
1207(18) 0.003022 1174.7 0.4
1159(18) 0.003016 1174.9 0.4
1205(19) 0.002737 1175.1 0.4
1213(19) 0.002897 1175.3 0.4
1175(18) 0.003192 1175.4 0.4
1193(18) 0.003045 1175.3 0.4
1188(19) 0.002909 1175.2 0.4
1196(19) 0.002794 1175.0 0.4
1201(18) 0.002926 1174.9 0.4
1179(18) 0.003160 1174.8 0.4
1141(18) 0.003174 1174.6 0.4
1120(18) 0.003023 1174.5 0.3
1179(19) 0.002842 1174.3 0.3
1167(18) 0.002973 1174.2 0.3
1157(18) 0.003230 1174.1 0.3
1211(19) 0.002903 1173.9 0.3
1154(18) 0.003013 1173.8 0.3
1149(18) 0.002951 1173.6 0.3
1194(18) 0.002954 1173.5 0.3
1151(18) 0.003220 1173.4 0.3
1172(18) 0.003014 1173.2 0.3
1187(19) 0.002802 1173.1 0.3
1180(18) 0.002931 1172.9 0.3
1224(19) 0.002912 1172.8 0.3
1159(18) 0.003193 1172.7 0.3
1149(18) 0.003000 1172.5 0.3
1184(19) 0.002815 1172.4 0.3
1200(19) 0.002794 1172.3 0.3
1192(18) 0.003018 1172.1 0.3
1216(18) 0.003065 1172.0 0.2
1144(18) 0.002968 1171.8 0.2
1151(19) 0.002889 1171.7 0.2
1184(18) 0.002959 1171.6 0.2
1180(18) 0.003099 1171.4 0.2
1202(18) 0.003077 1171.3 0.2
1187(19) 0.002869 1171.1 0.2
1198(19) 0.002745 1171.0 0.2
1194(19) 0.002912 1170.9 0.2
1183(18) 0.003117 1170.7 0.2
1249(18) 0.002963 1170.6 0.2
1158(18) 0.002996 1170.4 0.2
1180(19) 0.002716 1170.3 0.2
1168(18) 0.002998 1170.2 0.2
1208(18) 0.003057 1170.0 0.2
1218(18) 0.003040 1169.9 0.2
1208(19) 0.002861 1169.8 0.2
1182(19) 0.002725 1169.6 0.2
1230(19) 0.002822 1169.5 0.2
1182(18) 0.003099 1169.3 0.2
1152(18) 0.003194 1169.2 0.2
1184(18) 0.002958 1169.1 0.2
1216(19) 0.002659 1168.9 0.2
1142(18) 0.003051 1168.8 0.2
1217(18) 0.003036 1168.6 0.2
1198(18) 0.003096 1168.5 0.2
1204(19) 0.002878 1168.4 0.2
1157(19) 0.002899 1168.2 0.2
1195(19) 0.002912 1168.1 0.2
1210(18) 0.003080 1167.9 0.2
1203(18) 0.003007 1167.8 0.2
1206(19) 0.002827 1167.7 0.2
1183(19) 0.002802 1167.5 0.2
1184(19) 0.002888 1167.4 0.2
1179(18) 0.003142 1167.2 0.2
1153(18) 0.003110 1167.1 0.1
1162(19) 0.002909 1167.0 0.1
1160(19) 0.002885 1166.8 0.1
1183(18) 0.002966 1166.7 0.1
1175(18) 0.003187 1166.6 0.1
1172(18) 0.003006 1166.4 0.1
1224(19) 0.002750 1166.3 0.1
1198(19) 0.002860 1166.1 0.1
1142(18) 0.003163 1166.0 0.1
1129(17) 0.003289 1165.9 0.1
1210(19) 0.002862 1165.7 0.1
1180(19) 0.002867 1165.6 0.1
1152(18) 0.003008 1165.4 0.1
1213(18) 0.002956 1165.3 0.1
1192(18) 0.003125 1165.2 0.1
1230(19) 0.002780 1165.0 0.1
1148(19) 0.002896 1164.9 0.1
1135(18) 0.003050 1164.7 0.1
1149(18) 0.003178 1164.6 0.1
1183(18) 0.003157 1164.5 0.1
1223(19) 0.002805 1164.3 0.1
1161(19) 0.002826 1164.2 0.1
1165(18) 0.002946 1164.1 0.1
1218(18) 0.002993 1163.9 0.1
1203(18) 0.003096 1163.8 0.1
1226(19) 0.002810 1163.6 0.1
1149(19) 0.002868 1163.5 0.1
1206(19) 0.002850 1163.4 0.1
1151(18) 0.003185 1163.2 0.1
1172(18) 0.003166 1163.1 0.1
1157(18) 0.002940 1162.9 0.1
1165(19) 0.002722 1162.8 0.1
1147(18) 0.003081 1162.7 0.1
1204(18) 0.003075 1162.5 0.1
1180(18) 0.003089 1162.4 0.1
1206(19) 0.002878 1162.2 0.1
1159(19) 0.002833 1162.1 0.1
1144(18) 0.002966 1162.0 0.1
1171(18) 0.003170 1161.8 0.1
1204(18) 0.003041 1161.7 0.1
1159(18) 0.002984 1161.6 0.1
1221(20) 0.002626 1161.4 0.1
1157(18) 0.002984 1161.3 0.1
1188(18) 0.003131 1161.1 0.1
1188(18) 0.003048 1161.0 0.1
1192(19) 0.002849 1160.9 0.1
1180(19) 0.002829 1160.7 0.1
1213(19) 0.002826 1160.6 0.1
1161(18) 0.003198 1160.4 0.1
1207(18) 0.002951 1160.3 0.1
1168(18) 0.002940 1160.2 0.1
1126(18) 0.003017 1160.0 0.1
1179(19) 0.002921 1159.9 0.1
1150(18) 0.003233 1159.7 0.1
1157(18) 0.003029 1159.6 0.1
1208(19) 0.002776 1159.5 0.1
1171(18) 0.002922 1159.3 0.1
1149(18) 0.003078 1159.2 0.1
1148(18) 0.003259 1159.1 0.1
1155(18) 0.003023 1158.9 0.1
1164(19) 0.002836 1158.8 0.1
1124(18) 0.003038 1158.6 0.1
1170(18) 0.003074 1158.5 0.1
1157(18) 0.003207 1158.4 0.1
1155(18) 0.002998 1158.2 0.1
1196(19) 0.002823 1158.1 0.1
1162(18) 0.003018 1157.9 0.1
1216(18) 0.002991 1157.8 0.1
1219(18) 0.003059 1157.7 0.1
1164(19) 0.002881 1157.5 0.1
1157(19) 0.002795 1157.4 0.1
1143(18) 0.003020 1157.2 0.1
1162(18) 0.003119 1157.1 0.1
1177(18) 0.003156 1157.0 0.1
1205(19) 0.002881 1156.8 0.1
1168(19) 0.002814 1156.7 0.1
1163(18) 0.002948 1156.6 0.1
1145(18) 0.003247 1156.4 0.1
1143(18) 0.003248 1156.3 0.1
1175(18) 0.002947 1156.1 0.1
1127(19) 0.002867 1156.0 0.1
1124(18) 0.003083 1155.9 0.1
1096(17) 0.003386 1155.7 0.1
1161(18) 0.003195 1155.6 0.1
1208(19) 0.002901 1155.4 0.1
1211(19) 0.002642 1155.3 0.1
1140(18) 0.002957 1154.9 0.1
1115(17) 0.003308 1154.4 0.1
1138(18) 0.003216 1153.8 0.1
1174(18) 0.002991 1153.3 0.1
1189(19) 0.002796 1152.7 0.1
1137(18) 0.003003 1152.1 0.1
1166(18) 0.003192 1151.6 0.1
1129(18) 0.003247 1151.0 0.1
1148(18) 0.002969 1150.5 0.1
1175(19) 0.002867 1149.9 0.1
1208(19) 0.002812 1149.3 0.1
1172(18) 0.003170 1148.8 0.1
1114(17) 0.003278 1148.2 0.1
1144(18) 0.003040 1147.6 0.1
1193(19) 0.002809 1147.1 0.1
1171(18) 0.003000 1146.5 0.1
1162(18) 0.003208 1146.0 0.1
1184(18) 0.003048 1145.4 0.1
1145(18) 0.003025 1144.8 0.1
1151(18) 0.002963 1144.3 0.1
1136(18) 0.003156 1143.7 0.1
1189(18) 0.003122 1143.1 0.1
1150(18) 0.003103 1142.6 0.1
1164(18) 0.002961 1142.0 0.1
1151(18) 0.002980 1141.5 0.1
1197(18) 0.002980 1140.9 0.1
1178(18) 0.003148 1140.3 0.1
1174(18) 0.002950 1139.8 0.1
1146(18) 0.002929 1139.2 0.1
1142(18) 0.002994 1138.6 0.1
1171(18) 0.003078 1138.1 0.1
1164(18) 0.003179 1137.5 0.1
1154(18) 0.003019 1137.0 0.1
1164(19) 0.002863 1136.4 0.1
1148(18) 0.003034 1135.8 0.1
1150(18) 0.003222 1135.3 0.1
1198(18) 0.003119 1134.7 0.1
1162(18) 0.002957 1134.1 0.1
1163(19) 0.002805 1133.6 0.1
1136(18) 0.003113 1133.0 0.1
1130(17) 0.003270 1132.5 0.1
1162(18) 0.003161 1131.9 0.1
1105(18) 0.003147 1131.3 0.1
1187(19) 0.002664 1130.8 0.1
1183(18) 0.002933 1130.2 0.1
1177(18) 0.003162 1129.6 0.1
1165(18) 0.003165 1129.1 0.1
1131(18) 0.003064 1128.5 0.1
1127(19) 0.002899 1128.0 0.1
1098(18) 0.003250 1127.4 0.1
1146(18) 0.003248 1126.8 0.1
1138(18) 0.003199 1126.3 0.1
1151(18) 0.002997 1125.7 0.1
1140(19) 0.002869 1125.2 0.1
1122(18) 0.003097 1124.6 0.1
1138(17) 0.003279 1124.0 0.1
1146(18) 0.003120 1123.5 0.1
1135(18) 0.003051 1122.9 0.1
1066(18) 0.003256 1122.3 0.1
1125(18) 0.003084 1121.8 0.1
1142(17) 0.003272 1121.2 0.1
1120(18) 0.003222 1120.7 0.1
1171(18) 0.002923 1120.1 0.1
1132(18) 0.002990 1119.5 0.1
1064(17) 0.003297 1119.0 0.1
1135(17) 0.003276 1118.4 0.1
1156(18) 0.003061 1117.8 0.1
1116(18) 0.003124 1117.3 0.1
1146(18) 0.002988 1116.7 0.1
1118(18) 0.003180 1116.2 0.1
1118(17) 0.003326 1115.6 0.1
1164(18) 0.003009 1115.0 0.1
1097(18) 0.003147 1114.5 0.1
1155(19) 0.002881 1113.9 0.1
1105(18) 0.003224 1113.3 0.1
1111(17) 0.003359 1112.8 0.1
1156(18) 0.002995 1112.2 0.1
1160(19) 0.002864 1111.7 0.1
1099(18) 0.003160 1111.1 0.1
1122(18) 0.003230 1110.5 0.1
1139(18) 0.003258 1110.0 0.1
1116(18) 0.003176 1109.4 0.1
1122(18) 0.002968 1108.8 0.1
1120(18) 0.003087 1108.3 0.1
1103(17) 0.003323 1107.7 0.1
1078(17) 0.003456 1107.2 0.1
1093(18) 0.003119 1106.6 0.1
1123(19) 0.002855 1106.0 0.1
1071(18) 0.003241 1105.5 0.1
1102(17) 0.003293 1104.9 0.1
1122(17) 0.003327 1104.3 0.1
1126(18) 0.003141 1103.8 0.1
1166(19) 0.002758 1103.2 0.1
1115(18) 0.003179 1102.7 0.1
1085(17) 0.003367 1102.1 0.1
1124(17) 0.003287 1101.5 0.1
1116(18) 0.003121 1101.0 0.1
1099(18) 0.002983 1100.4 0.1
1107(18) 0.003126 1099.9 0.1
1058(17) 0.00353 1099.3 0.1
1088(17) 0.003358 1098.7 0.1
1096(18) 0.003172 1098.2 0.1
1105(18) 0.002962 1097.6 0.1
1133(18) 0.003080 1097.0 0.1
1180(18) 0.003145 1096.5 0.1
1101(17) 0.003350 1095.9 0.1
1111(18) 0.003077 1095.4 0.1
1098(18) 0.002979 1094.8 0.1
1099(18) 0.003133 1094.2 0.1
1137(17) 0.003290 1093.7 0.1
1130(18) 0.003207 1093.1 0.1
1092(18) 0.003146 1092.5 0.1
1045(18) 0.003242 1092.0 0.1
1098(18) 0.003170 1091.4 0.1
1065(17) 0.003471 1090.9 0.1
1130(18) 0.003181 1090.3 0.1
1083(18) 0.003173 1089.7 0.1
1110(18) 0.003046 1089.2 0.1
1095(18) 0.003252 1088.6 0.1
1066(17) 0.003455 1088.0 0.1
1099(18) 0.003238 1087.5 0.1
1153(18) 0.002962 1086.9 0.1
1117(18) 0.003111 1086.4 0.1
1077(17) 0.003304 1085.8 0.1
1086(17) 0.003388 1085.2 0.1
1090(18) 0.003256 1084.7 0.1
1074(18) 0.003148 1084.1 0.1
1087(18) 0.003185 1083.5 0.1
1102(17) 0.003283 1083.0 0.1
1035(17) 0.00355 1082.4 0.1
1107(18) 0.003130 1081.9 0.1
1142(19) 0.002914 1081.3 0.1
1060(17) 0.003333 1080.7 0.1
1077(17) 0.003382 1080.2 0.1
1084(17) 0.003405 1079.6 0.1
1088(18) 0.003212 1079.0 0.1
1115(18) 0.002957 1078.5 0.1
1064(17) 0.003276 1077.9 0.1
1080(17) 0.003386 1077.4 0.1
1111(17) 0.003326 1076.8 0.1
1068(18) 0.003211 1076.2 0.1
1033(18) 0.003151 1075.7 0.1
1106(18) 0.003166 1075.1 0.1
1121(17) 0.003311 1074.6 0.1
1086(17) 0.003373 1074.0 0.1
1114(18) 0.003083 1073.4 0.1
1092(18) 0.002926 1072.9 0.1
1057(18) 0.003238 1072.3 0.1
1083(17) 0.003395 1071.7 0.1
1071(17) 0.003438 1071.2 0.1
1080(18) 0.003179 1070.6 0.1
1067(18) 0.003126 1070.1 0.1
1087(18) 0.003207 1069.5 0.1
1051(17) 0.00353 1068.9 0.1
1081(17) 0.003375 1068.4 0.1
1121(18) 0.003107 1067.8 0.1
1093(18) 0.003050 1067.2 0.1
1083(18) 0.003197 1066.7 0.1
1100(17) 0.003385 1066.1 0.1
1089(17) 0.003331 1065.6 0.1
1069(17) 0.003277 1065.0 0.1
1046(18) 0.003220 1064.4 0.1
1075(18) 0.003231 1063.9 0.1
1081(17) 0.003425 1063.3 0.1
1042(17) 0.003468 1062.7 0.1
1107(18) 0.003058 1062.2 0.1
1053(18) 0.003224 1061.6 0.1
1069(17) 0.003278 1061.1 0.1
1044(17) 0.00356 1060.5 0.1
1028(17) 0.003496 1059.9 0.1
1082(18) 0.003113 1059.4 0.1
1055(18) 0.003251 1058.8 0.1
1060(17) 0.003401 1058.2 0.1
1095(17) 0.003398 1057.7 0.1
1063(17) 0.003283 1057.1 0.1
1034(17) 0.003284 1056.6 0.1
1047(17) 0.003276 1056.0 0.1
1060(17) 0.003373 1055.4 0.0
1104(17) 0.003350 1054.9 0.0
1093(18) 0.003183 1054.3 0.0
1075(18) 0.003144 1053.8 0.0
1063(17) 0.003328 1053.2 0.0
1043(17) 0.003494 1052.6 0.0
1079(17) 0.003427 1052.1 0.0
1094(18) 0.003137 1051.5 0.1
1066(18) 0.003143 1050.9 0.1
1092(18) 0.003180 1050.4 0.1
1021(17) 0.00356 1049.8 0.1
1048(17) 0.00354 1049.3 0.1
1027(17) 0.003418 1048.7 0.1
1100(19) 0.002896 1048.1 0.1
1036(17) 0.003402 1047.6 0.1
1054(17) 0.003494 1047.0 0.1
1030(17) 0.00361 1046.4 0.1
1004(17) 0.00354 1045.9 0.1
1008(18) 0.003187 1045.3 0.1
1061(17) 0.003325 1044.8 0.1
1060(17) 0.00352 1044.2 0.1
1072(17) 0.003428 1043.6 0.1
1040(17) 0.003392 1043.1 0.1
1041(18) 0.003108 1042.5 0.1
1054(17) 0.003329 1041.9 0.1
1071(17) 0.003449 1041.3 0.1
1062(17) 0.003443 1040.6 0.1
1019(17) 0.003396 1040.0 0.1
1053(18) 0.003158 1039.3 0.1
1026(17) 0.003433 1038.7 0.1
1029(17) 0.00362 1038.0 0.1
1069(17) 0.003384 1037.3 0.1
1057(17) 0.003277 1036.7 0.1
1056(18) 0.003105 1036.0 0.1
1018(17) 0.003354 1035.3 0.1
1055(17) 0.00355 1034.7 0.1
1065(17) 0.003386 1034.0 0.1
1050(17) 0.003272 1033.4 0.1
1035(18) 0.003241 1032.7 0.1
1038(17) 0.003372 1032.0 0.1
1037(17) 0.00360 1031.4 0.1
1071(17) 0.003339 1030.7 0.1
1042(17) 0.003360 1030.1 0.1
1049(18) 0.003255 1029.4 0.1
1037(17) 0.003422 1028.7 0.1
1017(17) 0.00365 1028.1 0.1
1058(18) 0.003259 1027.4 0.1
1001(17) 0.003352 1026.8 0.1
1009(17) 0.003370 1026.1 0.1
1045(17) 0.003364 1025.4 0.1
1044(17) 0.00358 1024.8 0.1
995(17) 0.00353 1024.1 0.1
1016(17) 0.003313 1023.5 0.1
1015(17) 0.003407 1022.8 0.1
1010(17) 0.00357 1022.1 0.1
1023(17) 0.00365 1021.5 0.1
1005(17) 0.003484 1020.8 0.1
1018(18) 0.003200 1020.1 0.1
989(17) 0.003490 1019.5 0.1
1010(17) 0.00362 1018.8 0.1
1025(17) 0.00365 1018.2 0.1
1011(17) 0.003398 1017.5 0.1
1014(18) 0.003209 1016.8 0.1
1040(17) 0.003327 1016.2 0.1
1021(17) 0.00358 1015.5 0.1
1030(17) 0.00361 1014.9 0.1
995(17) 0.003488 1014.2 0.1
1001(18) 0.003249 1013.5 0.1
1027(17) 0.003329 1012.9 0.1
992(16) 0.00376 1012.2 0.1
1003(16) 0.00368 1011.6 0.1
971(17) 0.00360 1010.9 0.1
1041(18) 0.003132 1010.2 0.1
1034(17) 0.003349 1009.6 0.1
996(16) 0.00371 1008.9 0.1
1023(17) 0.00356 1008.2 0.1
1026(17) 0.003343 1007.6 0.1
1052(18) 0.003045 1006.9 0.1
1038(17) 0.003274 1006.3 0.1
1005(16) 0.00370 1005.6 0.1
1015(17) 0.00358 1004.9 0.1
1064(18) 0.003204 1004.3 0.1
1038(18) 0.003219 1003.6 0.1
996(17) 0.00352 1003.0 0.1
1019(17) 0.00362 1002.3 0.1
1054(17) 0.003443 1001.6 0.1
1007(17) 0.003412 1001.0 0.1
988(17) 0.003387 1000.3 0.1
1038(17) 0.003342 999.7 0.1
984(16) 0.00379 999.0 0.1
983(16) 0.00368 998.3 0.1
1028(17) 0.003405 997.7 0.1
1030(17) 0.003309 997.0 0.1
1025(17) 0.003466 996.3 0.2
993(16) 0.00374 995.7 0.2
1008(17) 0.003457 995.0 0.2
991(17) 0.003424 994.4 0.2
1016(17) 0.003317 993.7 0.2
996(17) 0.00362 993.0 0.2
1000(16) 0.00371 992.4 0.2
1017(17) 0.003392 991.7 0.2
979(17) 0.003422 991.1 0.2
996(17) 0.003454 990.4 0.2
999(17) 0.00361 989.7 0.2
994(16) 0.00375 989.1 0.2
1022(17) 0.003352 988.4 0.2
1024(18) 0.003263 987.8 0.2
991(17) 0.00356 987.1 0.2
1035(17) 0.003502 986.4 0.2
988(16) 0.00378 985.8 0.2
977(17) 0.00356 985.1 0.2
1003(18) 0.003219 984.4 0.2
991(17) 0.00353 983.8 0.2
1001(16) 0.00370 983.1 0.2
1010(17) 0.00367 982.5 0.2
1009(17) 0.003467 981.8 0.2
984(17) 0.003369 981.1 0.2
1010(17) 0.003489 980.5 0.2
980(16) 0.00376 979.8 0.2
956(16) 0.00389 979.2 0.2
983(17) 0.00358 978.5 0.3
984(17) 0.003319 977.8 0.3
1006(17) 0.00353 977.2 0.3
1007(17) 0.00366 976.5 1.4
974(16) 0.00378 975.9 1.4
964(17) 0.00354 975.2 1.5
968(17) 0.003387 974.5 1.5
986(17) 0.003487 973.9 1.5
1010(17) 0.00364 973.2 1.5
986(16) 0.00373 972.5 1.6
1007(17) 0.003475 971.9 1.6
998(17) 0.003286 971.2 1.6
949(17) 0.00367 970.6 1.7
1017(17) 0.00366 969.9 1.7
981(16) 0.00370 969.2 1.7
964(17) 0.00359 968.6 1.8
953(17) 0.003496 967.9 1.8
952(17) 0.00366 967.3 1.8
980(16) 0.00381 966.6 1.9
950(16) 0.00384 965.9 1.9
948(16) 0.00368 965.3 1.9
967(17) 0.003500 964.6 2.0
969(17) 0.00359 964.0 2.0
986(16) 0.00378 963.3 2.1
973(17) 0.00358 962.6 2.1
950(17) 0.00356 962.0 2.2
954(17) 0.00363 961.5 2.2
972(17) 0.00366 961.0 2.3
932(16) 0.00400 960.4 2.3
974(17) 0.00360 959.9 2.4
991(17) 0.003352 959.4 2.4
959(17) 0.00359 958.9 2.5
972(16) 0.00379 958.4 2.5
960(16) 0.00386 957.9 2.6
956(17) 0.00360 957.4 2.7
960(17) 0.003395 956.8 2.7
920(16) 0.00379 956.3 2.8
1014(17) 0.00358 955.8 2.9
954(16) 0.00392 955.3 2.9
965(17) 0.00364 954.8 3.0
969(17) 0.003364 954.3 3.1
931(16) 0.00368 953.7 3.2
949(16) 0.00386 953.2 3.3
956(16) 0.00389 952.7 3.4
983(17) 0.003487 952.2 3.4
955(17) 0.003417 951.7 3.5
967(17) 0.00357 951.2 3.7
972(16) 0.00379 950.6 3.8
919(16) 0.00404 950.1 3.9
946(17) 0.00364 949.6 4.0
970(17) 0.003311 949.1 4.1
941(16) 0.00369 948.6 4.3
974(16) 0.00381 948.1 4.4
990(16) 0.00368 947.6 4.6
906(16) 0.00389 947.0 4.7
928(17) 0.003460 946.5 4.9
976(17) 0.003433 946.0 5.1
929(16) 0.00402 945.5 5.3
890(15) 0.00417 945.0 5.5
932(16) 0.00371 944.5 5.8
950(17) 0.003458 943.9 6.1
969(17) 0.00353 943.4 6.4
975(16) 0.00384 942.9 6.7
918(16) 0.00400 942.4 7.0
953(17) 0.00360 941.9 7.4
940(17) 0.00360 941.4 7.8
964(17) 0.003500 940.9 8.3
997(16) 0.00374 940.3 8.8
955(16) 0.00375 939.8 9.3
907(16) 0.00381 939.3 9.9
926(17) 0.00361 938.8 10.6
941(17) 0.00367 938.3 11.3
917(16) 0.00406 937.8 12.1
926(16) 0.00386 937.2 12.9
945(16) 0.00370 936.7 13.8
944(16) 0.00369 936.2 14.8
1003(17) 0.00351 935.7 15.8
932(16) 0.00399 935.2 16.9
973(17) 0.00351 934.7 18.0
899(16) 0.00380 934.1 19.2
969(17) 0.003503 933.6 20.4
946(16) 0.00377 933.1 21.6
945(16) 0.00391 932.6 22.8
942(16) 0.00369 932.1 24.0
966(17) 0.003422 931.6 25.1
941(17) 0.00367 931.1 26.2
966(16) 0.00377 930.5 27.2
943(16) 0.00395 930.0 28.0
987(17) 0.003468 929.5 28.7
991(17) 0.003300 929.0 29.2
976(17) 0.00354 928.5 29.6
963(16) 0.00377 928.0 29.9
942(16) 0.00392 927.4 30.0
967(17) 0.00355 926.9 30.0
1008(18) 0.003232 926.4 30.0
957(17) 0.00356 925.9 30.0
955(16) 0.00387 925.4 30.0
966(16) 0.00383 924.9 30.1
922(16) 0.00380 924.4 30.3
941(17) 0.003437 923.8 30.6
916(16) 0.00380 923.3 31.1
923(16) 0.00403 922.8 31.7
964(16) 0.00386 922.3 32.5
961(17) 0.00364 921.8 33.6
904(17) 0.00366 921.3 34.9
982(17) 0.00352 920.7 36.5
999(16) 0.00370 920.2 38.4
975(16) 0.00380 919.7 40.7
950(17) 0.00367 919.2 43.5
976(17) 0.003313 918.7 46.8
959(17) 0.00357 918.2 50.7
975(16) 0.00381 917.6 56.5
955(16) 0.00383 917.1 62.0
958(17) 0.00361 916.6 68.5
1005(18) 0.003248 916.1 76.4
1005(17) 0.003405 915.6 85.9
1049(17) 0.00355 915.1 97.9
1044(17) 0.003492 914.6 113.4
1043(17) 0.003331 914.0 134.7
1030(17) 0.003306 913.5 165.5
1105(18) 0.003142 913.0 212.0
1153(18) 0.003219 912.5 283.7
1261(19) 0.002818 912.0 392.9
1442(21) 0.002367 911.5 553.5
1545(21) 0.002192 910.9 776.4
1847(23) 0.001870 910.4 1064.7
2134(24) 0.001747 909.9 1406.3
2504(27) 0.001410 909.4 1766.7
2841(29) 0.001211 908.9 2080.8
3223(31) 0.001070 908.4 2257.6
3380(31) 0.001053 907.9 2227.6
3031(29) 0.001219 907.3 2003.8
2623(28) 0.001300 906.8 1668.6
2215(26) 0.001481 906.3 1308.0
1804(23) 0.001899 905.8 978.9
1577(21) 0.002304 905.3 708.1
1446(20) 0.002557 904.8 503.1
1339(20) 0.002561 904.2 357.9
1220(19) 0.002702 903.7 260.2
1105(18) 0.003191 903.2 196.5
1132(18) 0.003197 902.7 155.0
1029(17) 0.00362 902.2 127.2
1061(18) 0.003180 901.7 107.7
1028(18) 0.003178 901.1 93.1
983(17) 0.00358 900.6 81.7
995(16) 0.00368 900.1 72.4
1002(16) 0.00371 899.6 64.7
1005(17) 0.003391 899.1 58.2
931(17) 0.003432 898.6 52.7
952(16) 0.00370 898.1 47.9
972(16) 0.00375 897.5 43.8
951(16) 0.00391 897.0 40.2
941(16) 0.00374 896.5 37.1
954(17) 0.003419 896.0 34.4
910(16) 0.00380 895.5 31.9
913(16) 0.00407 895.0 29.7
904(16) 0.00404 894.4 27.8
902(16) 0.00384 893.9 26.1
920(17) 0.00364 893.4 24.5
900(16) 0.00393 892.9 23.1
897(16) 0.00413 892.4 21.9
928(16) 0.00389 891.9 20.7
891(16) 0.00390 891.3 19.7
949(17) 0.00352 890.8 18.7
908(16) 0.00389 890.3 17.8
885(15) 0.00420 889.8 17.0
881(16) 0.00413 889.3 16.3
866(16) 0.00391 888.8 15.6
956(17) 0.003422 888.3 15.0
921(16) 0.00381 887.7 14.4
928(16) 0.00400 887.2 13.9
915(16) 0.00391 886.7 13.4
901(16) 0.00381 886.2 13.0
877(16) 0.00392 885.7 12.5
899(16) 0.00395 885.2 12.2
941(16) 0.00395 884.6 11.8
897(16) 0.00390 884.1 11.7
906(16) 0.00377 883.6 11.3
911(16) 0.00378 883.1 11.1
912(16) 0.00389 882.6 10.8
878(15) 0.00423 882.1 10.5
867(16) 0.00402 881.6 10.3
869(16) 0.00393 881.0 10.1
918(16) 0.00371 880.5 10.0
905(16) 0.00400 880.0 9.8
836(15) 0.00443 879.5 9.8
883(16) 0.00395 879.0 9.8
885(17) 0.00367 878.5 9.8
852(16) 0.00403 877.9 9.9
835(15) 0.00442 877.4 9.9
893(16) 0.00416 876.9 9.8
842(16) 0.00408 876.4 9.6
848(16) 0.00388 875.9 9.3
917(16) 0.00383 875.4 9.0
919(16) 0.00400 874.8 8.7
883(15) 0.00420 874.3 8.5
892(16) 0.00389 873.8 8.4
920(17) 0.003480 873.3 8.2
882(16) 0.00398 872.8 8.1
897(16) 0.00411 872.3 8.1
870(15) 0.00426 871.8 8.0
868(16) 0.00401 871.2 8.0
861(16) 0.00373 870.7 7.9
877(16) 0.00395 870.2 7.9
890(15) 0.00418 869.7 7.8
890(16) 0.00411 869.2 7.8
892(16) 0.00393 868.7 7.8
912(17) 0.00356 868.1 7.8
920(16) 0.00381 867.6 7.8
880(15) 0.00421 867.1 7.8
850(15) 0.00429 866.6 7.8
840(15) 0.00420 866.1 7.8
882(16) 0.00368 865.6 7.8
876(16) 0.00400 865.1 7.8
861(15) 0.00430 864.5 7.8
880(16) 0.00411 864.0 7.8
869(16) 0.00398 863.5 7.8
846(16) 0.00391 863.0 7.9
855(16) 0.00412 862.5 7.9
879(15) 0.00421 862.0 7.9
874(16) 0.00407 861.4 8.0
858(16) 0.00397 860.9 8.0
863(16) 0.00387 860.4 8.1
868(16) 0.00394 859.8 8.1
859(15) 0.00432 859.3 8.2
851(15) 0.00421 858.7 8.2
842(16) 0.00401 858.1 8.3
857(16) 0.00400 857.6 8.4
855(15) 0.00422 857.0 8.5
867(15) 0.00428 856.5 8.5
861(16) 0.00413 855.9 8.6
874(16) 0.00398 855.4 8.7
863(16) 0.00403 854.8 8.8
862(15) 0.00420 854.3 8.9
878(15) 0.00423 853.7 9.0
853(16) 0.00404 853.1 9.1
860(16) 0.00381 852.6 9.2
831(15) 0.00421 852.0 9.3
863(15) 0.00427 851.5 9.4
834(15) 0.00446 850.9 9.6
828(15) 0.00417 850.4 9.7
841(16) 0.00397 849.8 9.8
812(15) 0.00432 849.2 10.0
876(15) 0.00418 848.7 10.1
851(15) 0.00434 848.1 10.3
804(15) 0.00442 847.6 10.5
830(16) 0.00393 847.0 10.6
850(16) 0.00407 846.5 10.8
857(15) 0.00432 845.9 11.0
858(15) 0.00430 845.3 11.2
883(16) 0.00386 844.8 11.4
858(16) 0.00380 844.2 11.6
848(16) 0.00413 843.7 11.8
842(15) 0.00441 843.1 12.1
807(15) 0.00456 842.6 12.3
883(16) 0.00382 842.0 12.6
828(16) 0.00391 841.4 12.8
794(15) 0.00437 840.9 13.1
873(15) 0.00425 840.3 13.4
887(16) 0.00407 839.8 13.7
889(16) 0.00383 839.2 14.0
844(16) 0.00394 838.7 14.3
842(16) 0.00415 838.1 14.7
851(15) 0.00436 837.5 15.1
824(15) 0.00437 837.0 15.4
810(15) 0.00437 836.4 15.8
859(16) 0.00397 835.9 16.3
823(15) 0.00420 835.3 16.7
809(15) 0.00460 834.8 17.2
819(15) 0.00432 834.2 17.7
809(15) 0.00425 833.6 18.2
847(16) 0.00390 833.1 18.7
847(16) 0.00411 832.5 19.3
868(15) 0.00430 832.0 19.9
871(16) 0.00409 831.4 20.5
873(16) 0.00392 830.9 21.2
857(16) 0.00393 830.3 21.9
866(16) 0.00414 829.8 22.7
844(15) 0.00442 829.2 23.5
863(16) 0.00401 828.6 24.4
850(16) 0.00401 828.1 25.4
828(15) 0.00426 827.5 26.4
835(15) 0.00428 827.0 27.5
867(15) 0.00427 826.4 28.6
840(15) 0.00419 825.9 29.9
909(16) 0.00375 825.3 31.3
881(16) 0.00386 824.7 32.7
864(15) 0.00422 824.2 34.4
864(15) 0.00433 823.6 36.1
828(15) 0.00422 823.1 38.1
877(16) 0.00373 822.5 40.3
833(15) 0.00421 822.0 42.7
850(15) 0.00434 821.4 45.5
895(16) 0.00411 820.8 48.7
850(16) 0.00414 820.3 52.4
893(17) 0.00361 819.7 56.9
887(16) 0.00391 819.2 62.4
846(15) 0.00434 818.6 69.2
911(16) 0.00409 818.1 77.7
883(16) 0.00389 817.5 88.4
911(17) 0.003468 816.9 101.8
909(16) 0.00381 816.4 118.4
915(16) 0.00404 815.8 138.7
976(16) 0.00377 815.3 163.1
989(17) 0.00353 814.7 191.5
991(17) 0.003284 814.2 223.8
1030(17) 0.003361 813.6 259.0
1059(17) 0.003487 813.0 295.5
1118(18) 0.003254 812.5 330.4
1161(18) 0.003013 811.9 360.0
1174(19) 0.002809 811.4 379.7
1268(19) 0.002750 810.8 386.1
1223(18) 0.003052 810.3 378.5
1182(18) 0.003085 809.7 359.2
1143(18) 0.003021 809.1 332.6
1108(18) 0.002956 808.6 302.8
1052(17) 0.003306 808.0 273.4
1032(17) 0.00361 807.5 246.6
1007(17) 0.00352 806.9 223.8
940(16) 0.00375 806.4 205.5
962(17) 0.003484 805.8 192.1
974(17) 0.00352 805.3 183.5
961(16) 0.00388 804.7 179.5
939(16) 0.00382 804.1 180.0
954(17) 0.00367 803.6 184.7
965(17) 0.00355 803.0 193.7
952(16) 0.00372 802.5 207.0
946(16) 0.00393 801.9 224.8
956(17) 0.00367 801.4 247.6
984(17) 0.003452 800.8 275.8
1079(18) 0.003116 800.2 310.2
1119(18) 0.003191 799.7 351.4
1185(18) 0.003132 799.1 400.0
1195(18) 0.002959 798.6 456.6
1294(20) 0.002574 798.0 521.8
1349(20) 0.002524 797.5 595.6
1417(20) 0.002530 796.9 677.8
1543(20) 0.002389 796.3 768.0
1623(22) 0.002138 795.8 864.9
1829(23) 0.001836 795.2 966.3
1923(23) 0.001823 794.7 1069.0
2077(24) 0.001730 794.1 1168.6
2162(24) 0.001726 793.6 1259.1
2248(26) 0.001537 793.0 1333.7
2295(27) 0.001419 792.4 1385.2
2298(26) 0.001492 791.9 1408.1
2191(24) 0.001683 791.3 1399.6
2137(24) 0.001731 790.8 1360.8
2053(24) 0.001667 790.2 1295.8
1910(24) 0.001712 789.7 1211.4
1837(23) 0.001893 789.1 1114.7
1749(22) 0.002119 788.5 1012.1
1626(21) 0.002263 788.0 908.7
1564(21) 0.002252 787.4 808.5
1492(22) 0.002154 786.9 713.9
1430(20) 0.002448 786.3 626.6
1360(19) 0.002712 785.8 547.6
1302(19) 0.002820 785.2 477.0
1248(19) 0.002737 784.6 415.0
1199(19) 0.002738 784.1 361.0
1170(18) 0.002925 783.5 314.5
1132(17) 0.003291 783.0 274.9
1089(17) 0.003352 782.4 241.4
1033(17) 0.003361 781.9 213.1
1042(18) 0.003129 781.3 189.4
962(17) 0.00355 780.8 169.5
933(16) 0.00400 780.2 152.7
934(16) 0.00384 779.6 138.6
949(16) 0.00369 779.1 126.6
888(16) 0.00388 778.5 116.3
892(16) 0.00390 778.0 107.4
832(15) 0.00447 777.4 99.7
839(15) 0.00435 776.9 92.9
894(16) 0.00381 776.3 86.9
892(16) 0.00369 775.7 81.5
897(16) 0.00388 775.2 76.6
886(15) 0.00420 774.6 72.2
855(15) 0.00419 774.1 68.2
865(16) 0.00400 773.5 64.6
856(16) 0.00400 773.0 61.2
819(15) 0.00435 772.4 58.2
831(15) 0.00446 771.8 55.3
825(15) 0.00437 771.3 52.7
856(16) 0.00391 770.7 50.3
821(15) 0.00420 770.2 48.0
837(15) 0.00425 769.6 45.9
849(15) 0.00437 769.1 44.0
819(16) 0.00415 768.5 42.2
821(16) 0.00410 767.9 40.5
815(15) 0.00429 767.4 38.9
769(15) 0.00472 766.8 37.4
802(15) 0.00466 766.3 36.1
828(16) 0.00416 765.7 34.8
775(15) 0.00433 765.2 33.6
800(15) 0.00441 764.6 32.4
831(15) 0.00443 764.0 31.4
792(15) 0.00467 763.5 30.4
782(15) 0.00444 762.9 29.4
804(16) 0.00401 762.4 28.9
808(15) 0.00422 761.8 28.1
776(15) 0.00476 761.3 27.3
832(15) 0.00451 760.7 26.6
766(15) 0.00461 760.1 25.9
780(16) 0.00403 759.6 25.3
775(15) 0.00434 759.0 24.7
772(14) 0.00479 758.5 24.1
776(15) 0.00472 757.9 23.6
787(15) 0.00445 757.4 23.1
791(16) 0.00411 756.8 22.7
748(15) 0.00467 756.3 22.3
749(14) 0.00498 755.7 21.9
756(14) 0.00482 755.1 21.5
802(15) 0.00437 754.6 21.2
767(15) 0.00440 754.0 20.9
745(15) 0.00462 753.5 20.6
759(14) 0.00492 752.9 20.4
746(14) 0.00485 752.4 20.2
782(15) 0.00444 751.8 20.0
744(15) 0.00460 751.2 19.8
754(15) 0.00448 750.7 19.7
772(14) 0.00480 750.1 19.6
745(15) 0.00471 749.6 19.5
745(15) 0.00468 749.1 19.5
757(15) 0.00443 748.6 19.4
745(15) 0.00466 748.1 19.5
690(14) 0.00540 747.7 19.5
729(14) 0.00486 747.2 19.6
779(15) 0.00442 746.7 19.7
712(14) 0.00501 746.3 19.9
718(14) 0.00499 745.8 20.1
772(14) 0.00480 745.3 20.4
743(15) 0.00469 744.9 20.7
768(15) 0.00437 744.4 21.2
766(15) 0.00450 743.9 21.6
753(14) 0.00484 743.5 22.2
728(14) 0.00507 743.0 22.9
750(15) 0.00453 742.5 23.8
746(15) 0.00447 742.1 24.8
736(14) 0.00481 741.6 26.0
744(14) 0.00489 741.1 27.6
770(14) 0.00482 740.7 29.7
779(15) 0.00445 740.2 33.1
756(15) 0.00440 739.7 39.3
816(15) 0.00423 739.3 51.5
818(15) 0.00454 738.8 74.9
862(15) 0.00429 738.3 116.1
865(16) 0.00404 737.9 179.8
918(17) 0.00356 737.4 263.2
1053(17) 0.003272 736.9 352.4
1159(18) 0.003175 736.5 420.8
1297(19) 0.002850 736.0 438.9
1296(19) 0.002682 735.5 397.7
1102(19) 0.002881 735.1 318.9
898(16) 0.00385 734.6 233.0
841(15) 0.00438 734.1 161.1
827(15) 0.00446 733.7 111.8
819(15) 0.00420 733.2 83.7
777(15) 0.00424 732.7 70.8
773(15) 0.00453 732.3 67.1
769(14) 0.00483 731.8 68.3
760(14) 0.00478 731.3 72.1
818(15) 0.00421 730.9 77.5
790(15) 0.00419 730.4 84.3
779(15) 0.00451 729.9 92.2
777(14) 0.00477 729.5 101.2
811(15) 0.00448 729.0 111.4
824(15) 0.00429 728.5 122.6
855(16) 0.00393 728.1 134.9
834(16) 0.00414 727.6 148.0
860(15) 0.00432 727.1 161.8
879(16) 0.00411 726.7 175.9
874(16) 0.00396 726.2 190.1
886(16) 0.00388 725.7 203.7
906(16) 0.00376 725.3 216.3
896(16) 0.00414 724.8 227.1
927(16) 0.00385 724.3 235.3
915(16) 0.00372 723.9 240.5
884(16) 0.00391 723.4 242.0
894(16) 0.00393 722.9 239.9
897(16) 0.00414 722.5 234.2
866(16) 0.00401 722.0 225.4
865(16) 0.00388 721.5 214.2
870(16) 0.00395 721.1 201.2
864(16) 0.00407 720.6 187.1
833(15) 0.00447 720.1 172.5
808(15) 0.00432 719.7 158.0
859(16) 0.00377 719.2 143.8
779(15) 0.00437 718.7 130.3
776(15) 0.00472 718.3 117.5
810(15) 0.00460 717.8 105.7
797(15) 0.00435 717.3 94.9
787(15) 0.00425 716.9 85.1
739(15) 0.00474 716.4 76.2
742(14) 0.00493 715.9 68.3
769(14) 0.00481 715.5 61.3
757(15) 0.00453 715.0 55.1
766(15) 0.00429 714.5 49.7
768(15) 0.00448 714.1 45.0
726(14) 0.00514 713.6 40.9
761(14) 0.00486 713.1 37.3
751(15) 0.00460 712.7 34.2
755(15) 0.00429 712.2 31.5
746(15) 0.00471 711.7 29.2
754(14) 0.00492 711.3 27.1
697(14) 0.00526 710.8 25.3
726(14) 0.00489 710.3 23.7
756(15) 0.00418 709.9 22.3
729(14) 0.00482 709.4 21.1
727(14) 0.00510 709.0 20.0
661(13) 0.00554 708.5 19.0
725(14) 0.00482 708.0 18.0
669(14) 0.00487 707.6 17.2
717(15) 0.00473 707.1 16.4
727(14) 0.00507 706.6 15.7
683(14) 0.00523 706.2 15.1
716(14) 0.00486 705.7 14.5
680(14) 0.00499 705.2 13.9
668(14) 0.00514 704.8 13.4
683(13) 0.00550 704.3 13.0
677(14) 0.00534 703.8 12.5
690(14) 0.00501 703.4 12.1
719(15) 0.00472 702.9 11.7
681(14) 0.00522 702.4 11.3
683(14) 0.00546 702.0 11.0
687(14) 0.00518 701.5 10.6
745(15) 0.00467 701.0 10.3
713(14) 0.00493 700.6 10.1
666(14) 0.00540 700.1 9.8
694(14) 0.00536 699.6 9.5
736(15) 0.00470 699.2 9.3
692(14) 0.00489 698.7 9.1
690(14) 0.00500 698.2 8.9
701(14) 0.00506 697.8 8.7
686(14) 0.00537 697.3 8.6
722(14) 0.00487 696.8 8.4
712(14) 0.00478 696.4 8.3
673(14) 0.00524 695.9 8.2
685(14) 0.00530 695.4 8.1
697(14) 0.00532 695.0 8.1
712(15) 0.00472 694.5 8.1
690(14) 0.00478 694.0 8.1
711(15) 0.00466 693.6 8.2
684(14) 0.00535 693.1 8.3
736(14) 0.00505 692.6 8.5
677(14) 0.00520 692.2 8.7
677(14) 0.00496 691.7 9.0
699(14) 0.00507 691.2 9.3
701(14) 0.00528 690.8 9.7
696(14) 0.00534 690.3 10.2
698(14) 0.00489 689.8 10.7
667(14) 0.00485 689.4 11.2
704(14) 0.00493 688.9 11.7
717(14) 0.00511 688.4 12.2
666(13) 0.00556 688.0 12.7
656(14) 0.00541 687.5 13.0
712(15) 0.00437 687.0 13.2
667(14) 0.00518 686.6 13.2
677(13) 0.00555 686.1 13.0
698(14) 0.00521 685.6 12.7
703(14) 0.00495 685.2 12.2
713(15) 0.00462 684.7 11.5
709(14) 0.00492 684.2 10.9
683(14) 0.00540 683.8 10.2
684(14) 0.00541 683.3 9.5
691(14) 0.00498 682.8 8.8
712(15) 0.00472 682.4 8.2
678(14) 0.00500 681.9 7.6
677(13) 0.00552 681.4 7.1
690(14) 0.00525 681.0 6.6
726(15) 0.00475 680.5 6.2
706(15) 0.00471 680.0 5.8
678(14) 0.00503 679.6 5.5
677(13) 0.00552 679.1 5.3
704(14) 0.00510 678.6 5.0
677(14) 0.00508 678.2 4.8
683(14) 0.00490 677.7 4.7
699(14) 0.00514 677.2 4.5
685(14) 0.00541 676.8 4.4
672(14) 0.00519 676.3 4.3
675(14) 0.00507 675.8 4.2
669(14) 0.00509 675.4 4.1
665(14) 0.00530 674.9 4.0
685(14) 0.00545 674.4 3.9
625(13) 0.00558 674.0 3.9
662(14) 0.00512 673.5 3.8
662(14) 0.00534 673.0 3.8
697(14) 0.00514 672.6 3.7
673(13) 0.00553 672.1 3.7
660(14) 0.00518 671.6 3.6
674(14) 0.00484 671.2 3.6
662(14) 0.00535 670.7 3.6
648(13) 0.00573 670.2 3.6
692(14) 0.00534 669.8 3.5
640(13) 0.00567 669.3 3.5
627(13) 0.00550 668.8 3.5
679(14) 0.00499 668.4 3.5
663(13) 0.00556 667.9 3.5
700(14) 0.00532 667.4 3.5
693(14) 0.00512 667.0 3.5
683(14) 0.00496 666.5 3.5
655(14) 0.00546 666.1 3.5
650(13) 0.00568 665.7 3.5
672(14) 0.00547 665.3 3.6
655(14) 0.00534 664.9 3.6
645(14) 0.00519 664.5 3.6
682(14) 0.00512 664.0 3.7
646(13) 0.00568 663.6 3.7
649(13) 0.00564 663.2 3.7
693(14) 0.00508 662.8 3.8
668(14) 0.00488 662.4 3.8
672(14) 0.00509 662.0 3.9
664(13) 0.00560 661.6 4.0
662(13) 0.00556 661.2 4.0
655(14) 0.00530 660.8 4.1
670(14) 0.00490 660.4 4.6
649(14) 0.00538 660.0 4.7
655(13) 0.00570 659.6 4.7
645(13) 0.00566 659.2 4.8
673(14) 0.00516 658.8 4.9
674(14) 0.00495 658.4 5.0
666(14) 0.00523 658.0 5.0
670(13) 0.00553 657.6 5.1
664(14) 0.00538 657.2 5.2
715(14) 0.00479 656.7 5.2
673(14) 0.00508 656.3 5.3
667(14) 0.00510 655.9 5.3
701(14) 0.00530 655.5 5.3
667(14) 0.00522 655.1 5.3
659(14) 0.00514 654.7 5.3
671(14) 0.00504 654.3 5.3
700(14) 0.00512 653.9 5.3
651(13) 0.00570 653.5 5.3
633(14) 0.00541 653.1 5.2
656(14) 0.00498 652.7 5.2
654(14) 0.00522 652.3 5.1
663(14) 0.00523 651.9 5.0
664(13) 0.00557 651.5 5.0
682(14) 0.00502 651.1 4.9
640(14) 0.00522 650.7 4.8
660(14) 0.00520 650.3 4.7
697(14) 0.00524 649.8 4.7
625(13) 0.00593 649.4 4.6
618(13) 0.00563 649.0 4.5
683(14) 0.00479 648.6 4.5
675(14) 0.00504 648.2 4.4
680(14) 0.00532 647.8 4.3
646(13) 0.00575 647.4 4.3
656(14) 0.00536 647.0 4.2
635(14) 0.00519 646.6 4.2
656(14) 0.00531 646.2 4.2
690(14) 0.00531 645.8 4.1
656(13) 0.00567 645.4 4.1
661(14) 0.00516 645.0 4.1
644(14) 0.00484 644.6 4.1
641(14) 0.00541 644.2 4.1
647(13) 0.00572 643.8 4.1
655(13) 0.00563 643.4 4.1
627(13) 0.00560 642.9 4.1
637(14) 0.00514 642.5 4.2
638(14) 0.00544 642.1 4.2
594(13) 0.00628 641.7 4.3
627(13) 0.00589 641.3 4.3
695(14) 0.00495 640.9 4.4
675(14) 0.00493 640.5 4.5
650(14) 0.00536 640.1 4.6
619(13) 0.00599 639.7 4.7
643(13) 0.00566 639.3 4.9
612(13) 0.00570 638.9 5.0
597(13) 0.00555 638.5 5.2
650(14) 0.00531 638.1 5.4
624(13) 0.00586 637.7 5.6
670(14) 0.00541 637.3 5.9
654(14) 0.00527 636.9 6.2
651(14) 0.00517 636.5 6.5
664(14) 0.00535 636.0 6.9
644(13) 0.00582 635.6 7.3
682(14) 0.00515 635.2 7.8
650(14) 0.00526 634.8 8.3
618(13) 0.00550 634.4 9.0
632(13) 0.00564 634.0 9.7
661(13) 0.00565 633.6 10.5
659(14) 0.00542 633.2 11.5
619(13) 0.00561 632.8 12.7
664(14) 0.00506 632.4 14.1
669(14) 0.00539 632.0 15.8
691(14) 0.00536 631.6 17.8
655(14) 0.00523 631.2 20.5
674(14) 0.00489 630.8 23.9
633(13) 0.00553 630.4 28.8
648(13) 0.00558 630.0 36.2
679(14) 0.00546 629.6 48.4
703(14) 0.00493 629.2 68.4
722(15) 0.00452 628.7 100.7
725(14) 0.00478 628.3 149.9
796(15) 0.00462 627.9 218.7
872(15) 0.00428 627.5 305.9
945(16) 0.00374 627.1 402.8
1058(18) 0.003113 626.7 491.5
1185(19) 0.002871 626.3 544.4
1215(18) 0.002983 625.9 538.5
1166(18) 0.003174 625.5 476.5
1020(17) 0.003337 625.1 384.4
876(16) 0.00372 624.7 288.2
781(15) 0.00442 624.3 204.1
750(14) 0.00491 623.9 139.0
712(14) 0.00520 623.5 93.3
706(14) 0.00498 623.1 63.7
660(14) 0.00492 622.7 45.4
634(13) 0.00563 622.3 34.4
704(14) 0.00528 621.8 27.5
670(13) 0.00549 621.4 22.9
673(14) 0.00504 621.0 19.7
651(14) 0.00507 620.6 17.2
657(14) 0.00548 620.2 15.2
671(13) 0.00552 619.8 13.5
634(13) 0.00581 619.4 12.2
627(13) 0.00558 619.0 11.0
645(14) 0.00513 618.6 10.0
609(13) 0.00582 618.2 9.2
661(13) 0.00565 617.8 8.4
590(13) 0.00621 617.4 7.8
638(14) 0.00548 617.0 7.2
642(14) 0.00527 616.6 6.8
615(13) 0.00556 616.2 6.3
622(13) 0.00596 615.8 5.9
665(14) 0.00526 615.4 5.6
631(14) 0.00546 614.9 5.3
654(14) 0.00517 614.5 5.0
627(13) 0.00555 614.1 4.8
632(13) 0.00584 613.7 4.6
655(14) 0.00540 613.3 4.4
603(13) 0.00563 612.9 4.2
616(13) 0.00579 612.5 4.0
632(13) 0.00575 612.1 3.8
620(13) 0.00604 611.7 3.7
632(14) 0.00545 611.3 3.6
628(14) 0.00529 610.9 3.4
584(13) 0.00597 610.5 3.3
594(13) 0.00607 610.1 3.2
610(13) 0.00611 609.7 3.1
620(14) 0.00541 609.3 3.0
545(13) 0.00609 608.9 3.0
569(13) 0.00615 608.5 2.9
579(13) 0.00637 608.1 2.8
608(13) 0.00612 607.6 2.7
614(13) 0.00570 607.2 2.7
603(14) 0.00542 606.8 2.6
606(13) 0.00572 606.4 2.6
618(13) 0.00590 606.0 2.5
595(13) 0.00628 605.6 2.5
626(14) 0.00542 605.2 2.4
610(14) 0.00531 604.8 2.4
638(14) 0.00549 604.4 2.3
628(13) 0.00588 604.0 2.3
593(13) 0.00625 603.6 2.3
622(14) 0.00547 603.2 2.2
646(14) 0.00490 602.8 2.2
620(13) 0.00554 602.4 2.2
581(13) 0.00634 602.0 2.1
598(13) 0.00617 601.6 2.1
624(13) 0.00553 601.2 2.1
636(14) 0.00513 600.7 2.1
624(13) 0.00560 600.3 2.1
602(13) 0.00616 599.9 2.0
588(13) 0.00613 599.5 2.0
634(14) 0.00538 599.1 2.0
587(13) 0.00574 598.7 2.0
554(13) 0.00625 598.4 2.0
566(12) 0.00653 598.2 2.0
589(13) 0.00612 597.9 2.0
586(13) 0.00595 597.6 1.9
607(13) 0.00549 597.4 1.9
636(14) 0.00533 597.1 1.9
624(13) 0.00599 596.8 1.9
592(13) 0.00586 596.6 1.9
589(13) 0.00575 596.3 1.9
568(13) 0.00593 596.0 1.9
580(13) 0.00602 595.8 1.9
601(13) 0.00619 595.5 1.9
582(13) 0.00605 595.2 2.0
618(13) 0.00552 595.0 2.0
577(13) 0.00603 594.7 2.0
605(13) 0.00599 594.4 2.0
613(13) 0.00605 594.2 2.0
594(13) 0.00584 593.9 2.0
600(13) 0.00565 593.6 2.1
579(13) 0.00602 593.4 2.1
596(13) 0.00589 593.1 2.1
577(12) 0.00645 592.9 2.2
591(13) 0.00570 592.6 2.2
596(13) 0.00572 592.3 2.3
623(13) 0.00573 592.1 2.4
607(13) 0.00604 591.8 2.4
591(13) 0.00631 591.5 2.5
619(14) 0.00548 591.3 2.6
557(13) 0.00605 591.0 2.8
606(13) 0.00566 590.7 2.9
591(13) 0.00622 590.5 3.1
557(12) 0.00668 590.2 3.4
598(13) 0.00574 589.9 3.7
580(13) 0.00558 589.7 4.0
612(13) 0.00567 589.4 4.6
596(13) 0.00626 589.1 5.5
589(13) 0.00631 588.9 6.9
578(13) 0.00615 588.6 9.0
590(14) 0.00544 588.3 12.4
596(13) 0.00598 588.1 17.4
589(13) 0.00616 587.8 24.2
583(12) 0.00640 587.5 32.6
637(13) 0.00550 587.3 41.8
635(14) 0.00509 587.0 50.2
651(14) 0.00529 586.7 55.4
640(13) 0.00577 586.5 55.1
602(13) 0.00608 586.2 49.6
572(13) 0.00618 586.0 41.1
626(14) 0.00515 585.7 31.9
636(14) 0.00538 585.4 23.6
612(13) 0.00609 585.2 17.0
612(13) 0.00598 584.9 12.1
596(13) 0.00581 584.6 8.8
590(13) 0.00562 584.4 6.7
612(13) 0.00563 584.1 5.4
573(12) 0.00644 583.8 4.6
576(13) 0.00635 583.6 4.0
616(13) 0.00556 583.3 3.7
586(13) 0.00577 583.0 3.4
575(13) 0.00598 582.8 3.1
585(13) 0.00638 582.5 3.0
570(13) 0.00615 582.2 2.8
564(13) 0.00606 582.0 2.7
592(13) 0.00575 581.7 2.6
586(13) 0.00609 581.4 2.5
601(13) 0.00620 581.2 2.4
577(13) 0.00607 580.9 2.3
584(13) 0.00588 580.6 2.3
591(13) 0.00575 580.4 2.2
547(12) 0.00656 580.1 2.2
549(12) 0.00675 579.8 2.2
601(13) 0.00573 579.6 2.1
551(13) 0.00614 579.3 2.1
561(13) 0.00609 579.0 2.1
622(13) 0.00582 578.8 2.1
606(13) 0.00613 578.5 2.0
559(13) 0.00633 578.3 2.0
602(13) 0.00553 578.0 2.0
572(13) 0.00595 577.7 2.0
579(13) 0.00631 577.5 2.0
598(13) 0.00622 577.2 2.0
577(13) 0.00606 576.9 2.0
584(13) 0.00567 576.7 2.0
569(13) 0.00608 576.4 2.0
605(13) 0.00602 576.1 2.0
564(12) 0.00661 575.9 2.0
577(13) 0.00590 575.6 2.0
576(14) 0.00537 575.3 2.0
586(13) 0.00575 575.1 2.0
581(12) 0.00643 574.8 2.0
543(12) 0.00687 574.5 2.0
589(13) 0.00590 574.3 2.1
574(13) 0.00561 574.0 2.1
580(13) 0.00599 573.7 2.1
567(12) 0.00661 573.5 2.1
589(13) 0.00613 573.2 2.1
576(13) 0.00598 572.9 2.1
590(13) 0.00554 572.7 2.1
566(13) 0.00607 572.4 2.2
607(13) 0.00617 572.1 2.2
590(13) 0.00616 571.9 2.2
571(13) 0.00606 571.6 2.2
554(13) 0.00596 571.3 2.2
573(13) 0.00584 571.1 2.3
575(12) 0.00647 570.8 2.3
597(13) 0.00602 570.6 2.3
598(13) 0.00581 570.3 2.3
557(13) 0.00610 570.0 2.4
545(12) 0.00642 569.8 2.4
617(13) 0.00602 569.5 2.4
596(13) 0.00606 569.2 2.4
581(13) 0.00593 569.0 2.5
566(13) 0.00599 568.7 2.5
556(12) 0.00643 568.4 2.5
567(12) 0.00650 568.2 2.6
587(13) 0.00602 567.9 2.7
589(13) 0.00567 567.6 2.7
592(13) 0.00575 567.4 2.7
548(12) 0.00657 567.1 2.8
583(13) 0.00639 566.8 2.8
614(13) 0.00556 566.6 2.9
602(13) 0.00550 566.3 2.9
567(13) 0.00613 566.1 3.0
581(13) 0.00617 565.8 3.0
555(12) 0.00672 565.6 3.1
544(12) 0.00645 565.3 3.1
579(13) 0.00564 565.1 3.2
559(13) 0.00618 564.8 3.2
577(13) 0.00627 564.6 3.3
579(12) 0.00642 564.3 3.3
558(13) 0.00633 564.1 3.4
559(13) 0.00585 563.8 3.5
530(12) 0.00668 563.6 3.5
569(12) 0.00645 563.3 3.6
549(12) 0.00682 563.1 3.7
578(13) 0.00614 562.8 3.8
554(13) 0.00595 562.6 3.8
579(13) 0.00586 562.4 3.9
570(12) 0.00649 562.1 4.0
570(12) 0.00656 561.9 4.1
559(13) 0.00602 561.6 4.2
572(14) 0.00546 561.4 4.3
570(13) 0.00602 561.1 4.4
561(12) 0.00654 560.9 4.5
566(12) 0.00653 560.6 4.6
550(12) 0.00645 560.4 4.7
558(13) 0.00584 560.1 4.9
555(13) 0.00614 559.9 5.0
589(13) 0.00637 559.6 5.1
548(12) 0.00663 559.4 5.3
561(13) 0.00619 559.1 5.4
554(13) 0.00605 558.9 5.6
586(13) 0.00564 558.6 5.7
553(12) 0.00675 558.4 5.9
556(12) 0.00654 558.2 6.1
559(13) 0.00616 557.9 6.3
586(13) 0.00572 557.7 6.5
574(13) 0.00607 557.4 6.7
548(12) 0.00675 557.2 6.9
567(13) 0.00631 556.9 7.1
537(12) 0.00647 556.7 7.4
552(13) 0.00604 556.4 7.6
559(12) 0.00644 556.2 7.9
553(12) 0.00673 555.9 8.2
573(13) 0.00628 555.7 8.6
562(13) 0.00610 555.4 8.9
589(13) 0.00565 555.2 9.3
571(13) 0.00625 554.9 9.7
566(12) 0.00655 554.7 10.2
574(13) 0.00608 554.4 10.6
567(13) 0.00605 554.2 11.2
571(13) 0.00616 554.0 11.7
570(12) 0.00641 553.7 12.4
569(12) 0.00654 553.5 13.0
566(13) 0.00612 553.2 13.8
569(13) 0.00577 553.0 14.6
561(13) 0.00604 552.7 15.5
541(12) 0.00670 552.5 16.5
578(12) 0.00640 552.2 17.5
561(13) 0.00613 552.0 18.7
583(14) 0.00549 551.7 20.0
560(13) 0.00626 551.5 21.4
565(12) 0.00641 551.2 22.9
576(13) 0.00636 551.0 24.5
603(13) 0.00560 550.7 26.3
572(13) 0.00555 550.5 28.2
571(13) 0.00608 550.3 30.2
551(12) 0.00672 550.0 32.5
590(13) 0.00632 549.8 34.8
589(13) 0.00602 549.5 37.4
570(13) 0.00582 549.3 40.1
591(13) 0.00589 549.0 43.0
583(12) 0.00644 548.8 46.0
572(12) 0.00651 548.5 49.2
621(14) 0.00544 548.3 52.5
560(13) 0.00604 548.0 56.0
598(13) 0.00588 547.8 59.6
587(13) 0.00636 547.5 63.3
638(13) 0.00572 547.3 67.1
609(13) 0.00565 547.0 71.0
643(14) 0.00501 546.8 74.8
592(13) 0.00595 546.5 78.7
622(13) 0.00599 546.3 82.4
661(13) 0.00550 546.1 86.0
619(13) 0.00553 545.8 89.3
623(14) 0.00540 545.6 92.4
620(13) 0.00550 545.3 95.0
586(13) 0.00630 545.1 97.3
644(13) 0.00553 544.8 99.0
612(13) 0.00565 544.6 100.2
656(14) 0.00512 544.3 100.7
656(14) 0.00535 544.1 100.7
669(13) 0.00552 543.8 100.0
646(14) 0.00545 543.6 98.7
644(14) 0.00545 543.3 96.9
672(14) 0.00514 543.1 94.5
612(13) 0.00582 542.8 91.8
628(13) 0.00591 542.6 88.7
623(13) 0.00563 542.4 85.3
620(14) 0.00543 542.1 81.7
620(13) 0.00567 541.9 77.9
570(13) 0.00635 541.6 74.1
607(13) 0.00611 541.4 70.3
609(13) 0.00565 541.1 66.4
563(13) 0.00597 540.9 62.7
551(12) 0.00651 540.6 59.0
600(13) 0.00613 540.4 55.4
602(13) 0.00612 540.1 52.0
572(13) 0.00606 539.9 48.7
573(13) 0.00560 539.6 45.5
591(13) 0.00571 539.4 42.5
585(13) 0.00636 539.1 39.7
592(13) 0.00625 538.9 37.0
569(13) 0.00623 538.6 34.5
585(13) 0.00552 538.4 32.2
588(13) 0.00589 538.2 30.0
585(13) 0.00638 537.9 28.0
595(13) 0.00630 537.7 26.2
562(13) 0.00617 537.4 24.4
557(13) 0.00558 537.2 22.8
571(13) 0.00622 536.9 21.4
586(13) 0.00629 536.7 20.1
550(12) 0.00667 536.4 18.8
558(13) 0.00605 536.2 17.7
523(12) 0.00643 535.9 16.7
525(12) 0.00669 535.7 15.8
557(12) 0.00666 535.4 14.9
541(12) 0.00676 535.2 14.1
561(13) 0.00620 534.9 13.5
556(13) 0.00582 534.7 12.8
510(12) 0.00673 534.4 12.2
546(12) 0.00678 534.2 11.7
537(12) 0.00680 534.0 11.2
545(13) 0.00634 533.7 10.8
513(12) 0.00669 533.5 10.4
541(12) 0.00641 533.2 10.1
549(12) 0.00672 533.0 9.8
524(12) 0.00688 532.7 9.5
564(13) 0.00611 532.5 9.2
549(13) 0.00613 532.2 9.0
531(12) 0.00664 532.0 8.8
564(12) 0.00662 531.7 8.7
557(13) 0.00635 531.5 8.5
576(13) 0.00585 531.2 8.4
576(13) 0.00584 531.0 8.3
570(13) 0.00619 530.7 8.2
539(12) 0.00694 530.5 8.2
522(12) 0.00682 530.3 8.2
531(12) 0.00645 530.0 8.2
559(13) 0.00618 529.8 8.3
578(13) 0.00617 529.5 8.4
549(12) 0.00675 529.3 8.6
542(12) 0.00647 529.0 8.8
528(12) 0.00648 528.8 9.2
543(13) 0.00633 528.5 9.6
579(13) 0.00616 528.3 10.2
575(12) 0.00644 528.0 11.0
524(12) 0.00666 527.8 12.1
521(13) 0.00623 527.5 13.6
520(12) 0.00663 527.3 15.4
533(12) 0.00676 527.0 17.8
543(12) 0.00686 526.8 20.8
563(13) 0.00631 526.5 24.5
569(13) 0.00584 526.3 28.9
563(13) 0.00625 526.1 33.9
574(12) 0.00650 525.8 39.5
565(12) 0.00656 525.6 45.3
585(13) 0.00602 525.3 50.9
589(13) 0.00571 525.1 55.7
620(13) 0.00561 524.8 58.8
579(13) 0.00633 524.6 59.6
589(13) 0.00628 524.3 58.0
565(13) 0.00616 524.1 54.1
565(13) 0.00571 523.8 48.9
550(12) 0.00657 523.6 43.0
569(12) 0.00659 523.3 37.1
562(12) 0.00656 523.1 31.5
554(12) 0.00645 522.8 26.5
526(13) 0.00627 522.6 22.2
519(12) 0.00680 522.4 18.5
531(12) 0.00702 522.1 15.6
542(12) 0.00671 521.9 13.2
525(12) 0.00668 521.6 11.3
511(12) 0.00645 521.4 9.8
509(12) 0.00686 521.1 8.7
502(12) 0.00742 520.9 7.8
524(12) 0.00691 520.6 7.1
568(13) 0.00607 520.4 6.5
562(13) 0.00590 520.1 6.0
522(12) 0.00669 519.9 5.6
551(12) 0.00679 519.6 5.2
516(12) 0.00700 519.4 4.9
530(12) 0.00657 519.1 4.7
528(12) 0.00659 518.9 4.4
532(12) 0.00672 518.6 4.2
511(12) 0.00729 518.4 4.0
535(12) 0.00649 518.2 3.8
508(12) 0.00684 517.9 3.7
544(13) 0.00621 517.7 3.5
514(12) 0.00705 517.4 3.4
511(12) 0.00728 517.2 3.3
530(12) 0.00653 516.9 3.2
513(12) 0.00647 516.7 3.1
502(12) 0.00693 516.4 3.0
530(12) 0.00670 516.2 2.9
549(12) 0.00675 515.9 2.8
520(12) 0.00681 515.7 2.7
537(13) 0.00623 515.4 2.6
518(12) 0.00660 515.2 2.6
513(12) 0.00695 514.9 2.5
522(12) 0.00712 514.7 2.4
519(12) 0.00662 514.4 2.4
519(13) 0.00628 514.2 2.3
505(12) 0.00698 514.0 2.3
484(11) 0.00760 513.7 2.2
527(12) 0.00702 513.5 2.2
544(12) 0.00663 513.2 2.1
488(12) 0.00707 513.0 2.1
478(12) 0.00753 512.7 2.0
509(12) 0.00725 512.5 2.0
494(12) 0.00754 512.2 2.0
542(12) 0.00648 512.0 1.9
531(13) 0.00612 511.7 1.9
480(12) 0.00736 511.5 1.8
542(12) 0.00674 511.2 1.8
524(12) 0.00701 511.0 1.8
505(12) 0.00688 510.7 1.8
501(12) 0.00657 510.5 1.7
502(12) 0.00676 510.3 1.7
517(12) 0.00726 510.0 1.7
521(12) 0.00699 509.8 1.6
515(12) 0.00665 509.5 1.6
494(12) 0.00678 509.3 1.6
496(12) 0.00705 509.0 1.6
514(12) 0.00728 508.8 1.5
522(12) 0.00697 508.5 1.5
522(12) 0.00654 508.3 1.5
524(12) 0.00654 508.0 1.5
520(13) 0.00634 507.8 1.5
502(12) 0.00745 507.5 1.4
519(12) 0.00658 507.3 1.4
496(12) 0.00675 507.0 1.4
519(12) 0.00640 506.8 1.4
508(12) 0.00700 506.5 1.4
525(12) 0.00703 506.3 1.4
489(12) 0.00719 506.1 1.3
516(12) 0.00660 505.8 1.3
502(12) 0.00679 505.6 1.3
523(12) 0.00681 505.4 1.3
518(12) 0.00701 505.3 1.3
514(12) 0.00678 505.2 1.3
483(12) 0.00698 505.1 1.3
489(12) 0.00697 505.0 1.2
498(12) 0.00728 504.9 1.2
504(12) 0.00718 504.8 1.2
527(12) 0.00666 504.7 1.2
518(12) 0.00644 504.6 1.2
522(12) 0.00659 504.5 1.2
523(12) 0.00681 504.3 1.2
500(12) 0.00739 504.2 1.2
515(12) 0.00683 504.1 1.2
516(12) 0.00644 504.0 1.1
525(12) 0.00676 503.9 1.1
487(12) 0.00744 503.8 1.1
521(12) 0.00715 503.7 1.1
485(12) 0.00728 503.6 1.1
527(13) 0.00590 503.5 1.1
515(12) 0.00661 503.4 1.1
520(12) 0.00698 503.3 1.1
513(12) 0.00708 503.2 1.1
505(12) 0.00679 503.0 1.1
504(12) 0.00666 502.9 1.1
523(12) 0.00667 502.8 1.0
488(12) 0.00755 502.7 1.0
513(12) 0.00714 502.6 1.0
511(12) 0.00680 502.5 1.0
521(12) 0.00644 502.4 1.0
523(12) 0.00653 502.3 1.0
524(12) 0.00704 502.2 1.0
508(12) 0.00720 502.1 1.0
507(12) 0.00704 502.0 1.0
491(12) 0.00673 501.9 1.0
501(12) 0.00702 501.7 1.0
521(12) 0.00712 501.6 1.0
501(12) 0.00705 501.5 1.0
485(12) 0.00685 501.4 1.0
490(12) 0.00675 501.3 1.0
540(13) 0.00623 501.2 1.0
523(12) 0.00714 501.1 1.0
518(12) 0.00687 501.0 1.0
503(12) 0.00680 500.9 1.0
525(13) 0.00636 500.8 0.8
485(12) 0.00752 500.7 0.8
486(11) 0.00771 500.6 0.8
489(12) 0.00728 500.5 0.8
529(12) 0.00641 500.3 0.8
511(12) 0.00692 500.2 0.8
507(12) 0.00704 500.1 0.8
478(11) 0.00781 500.0 0.8
484(12) 0.00730 499.9 0.8
497(12) 0.00683 499.8 0.8
489(12) 0.00720 499.7 0.8
506(12) 0.00699 499.6 0.8
495(12) 0.00751 499.5 0.8
502(12) 0.00705 499.4 0.8
521(13) 0.00637 499.3 0.8
491(12) 0.00699 499.2 0.8
514(12) 0.00712 499.0 0.8
518(12) 0.00709 498.9 0.8
489(12) 0.00715 498.8 0.8
485(12) 0.00684 498.7 0.8
515(12) 0.00668 498.6 0.8
513(12) 0.00706 498.5 0.8
483(11) 0.00771 498.4 0.8
522(12) 0.00656 498.3 0.8
529(13) 0.00613 498.2 0.8
481(12) 0.00740 498.1 0.8
493(11) 0.00756 498.0 0.8
490(12) 0.00755 497.9 0.8
474(12) 0.00728 497.7 0.8
469(12) 0.00694 497.6 0.8
493(12) 0.00693 497.5 0.8
475(11) 0.00777 497.4 0.8
494(12) 0.00744 497.3 0.9
498(12) 0.00696 497.2 0.9
470(12) 0.00690 497.1 0.9
501(12) 0.00683 497.0 0.9
502(12) 0.00741 496.9 0.9
519(12) 0.00705 496.8 0.9
489(12) 0.00705 496.7 0.9
502(12) 0.00650 496.6 0.9
512(12) 0.00694 496.4 1.0
507(12) 0.00730 496.3 1.0
498(12) 0.00741 496.2 1.0
486(12) 0.00716 496.1 1.0
517(13) 0.00636 496.0 1.0
478(12) 0.00729 495.9 1.1
524(12) 0.00716 495.8 1.1
501(12) 0.00714 495.7 1.1
517(12) 0.00650 495.6 1.2
487(12) 0.00711 495.5 1.2
506(12) 0.00678 495.4 1.2
490(12) 0.00755 495.3 1.3
486(12) 0.00749 495.1 1.3
505(12) 0.00675 495.0 1.4
487(12) 0.00718 494.9 1.5
495(12) 0.00716 494.8 1.5
456(11) 0.00822 494.7 1.6
475(12) 0.00747 494.6 1.6
515(13) 0.00634 494.5 1.7
494(12) 0.00681 494.4 1.8
506(12) 0.00706 494.3 1.9
525(12) 0.00709 494.2 2.0
495(12) 0.00697 494.1 2.1
468(12) 0.00727 494.0 2.2
486(12) 0.00720 493.8 2.5
492(12) 0.00748 493.7 2.6
505(12) 0.00736 493.6 2.7
513(12) 0.00670 493.5 2.8
516(12) 0.00652 493.4 2.9
502(12) 0.00710 493.3 3.0
514(12) 0.00698 493.2 3.1
515(12) 0.00726 493.1 3.3
521(12) 0.00679 493.0 3.4
510(12) 0.00655 492.9 3.5
522(12) 0.00662 492.8 3.6
490(12) 0.00754 492.7 3.6
493(12) 0.00755 492.5 3.7
496(12) 0.00667 492.4 4.4
499(12) 0.00645 492.3 4.5
524(12) 0.00680 492.2 4.5
518(12) 0.00716 492.1 4.5
491(11) 0.00760 492.0 4.5
501(12) 0.00684 491.9 4.5
488(12) 0.00669 491.8 4.5
519(12) 0.00670 491.7 4.5
496(12) 0.00750 491.6 4.4
476(11) 0.00785 491.5 4.4
499(12) 0.00722 491.4 4.3
545(13) 0.00609 491.3 4.2
472(12) 0.00726 491.1 4.2
494(11) 0.00757 491.0 4.1
551(12) 0.00654 490.9 4.0
512(12) 0.00681 490.8 4.0
518(12) 0.00641 490.7 3.9
524(12) 0.00649 490.6 3.8
447(11) 0.00829 490.5 3.8
502(12) 0.00722 490.4 3.7
476(12) 0.00750 490.3 3.7
502(12) 0.00685 490.2 3.6
518(12) 0.00676 490.1 3.6
526(12) 0.00708 490.0 3.5
503(12) 0.00717 489.8 3.5
506(12) 0.00692 489.7 3.5
519(12) 0.00656 489.6 3.5
488(12) 0.00742 489.5 3.5
507(12) 0.00732 489.4 3.5
475(11) 0.00758 489.3 3.5
490(12) 0.00685 489.2 3.5
456(11) 0.00769 489.1 3.5
458(11) 0.00775 489.0 3.5
455(11) 0.00816 488.9 3.6
471(12) 0.00740 488.8 3.6
489(12) 0.00664 488.7 3.6
462(12) 0.00747 488.5 3.7
475(11) 0.00779 488.4 3.7
513(12) 0.00727 488.3 3.8
489(12) 0.00698 488.2 3.9
497(12) 0.00660 488.1 3.9
499(12) 0.00700 488.0 4.1
486(11) 0.00758 487.9 4.2
489(11) 0.00759 487.8 4.2
480(12) 0.00726 487.7 4.4
478(12) 0.00685 487.6 4.5
468(12) 0.00753 487.5 4.6
491(12) 0.00756 487.4 4.7
495(12) 0.00751 487.2 4.8
487(12) 0.00702 487.1 5.0
478(12) 0.00673 487.0 5.1
498(12) 0.00714 486.8 5.3
523(12) 0.00720 486.7 5.5
507(12) 0.00714 486.5 5.6
508(12) 0.00676 486.4 5.8
492(12) 0.00657 486.3 6.1
507(12) 0.00687 486.1 6.3
472(11) 0.00784 486.0 6.6
486(12) 0.00745 485.8 6.8
453(11) 0.00765 485.7 7.1
489(12) 0.00650 485.6 8.3
510(12) 0.00695 485.4 8.7
514(12) 0.00718 485.3 9.1
495(12) 0.00743 485.1 9.5
494(12) 0.00698 485.0 10.0
462(12) 0.00743 484.9 10.6
470(12) 0.00735 484.7 11.2
505(12) 0.00737 484.6 12.0
488(12) 0.00752 484.5 12.7
502(12) 0.00681 484.3 13.6
497(12) 0.00682 484.2 14.6
497(12) 0.00689 484.0 15.7
480(11) 0.00772 483.9 17.0
465(11) 0.00765 483.8 18.4
496(12) 0.00676 483.6 19.9
467(12) 0.00737 483.5 21.6
510(12) 0.00689 483.3 23.4
477(11) 0.00776 483.2 25.4
499(12) 0.00713 483.1 27.6
530(12) 0.00651 482.9 29.9
526(12) 0.00656 482.8 32.3
490(12) 0.00753 482.7 34.9
514(12) 0.00725 482.5 37.6
507(12) 0.00684 482.4 40.3
506(12) 0.00669 482.2 43.1
531(12) 0.00653 482.1 45.8
512(12) 0.00713 482.0 48.4
507(12) 0.00734 481.8 50.8
523(12) 0.00655 481.7 53.0
509(12) 0.00661 481.5 54.7
503(12) 0.00697 481.4 56.1
525(12) 0.00679 481.3 57.0
504(12) 0.00742 481.1 57.5
521(12) 0.00670 481.0 57.6
535(13) 0.00603 480.8 57.4
541(13) 0.00634 480.7 57.1
527(12) 0.00686 480.6 56.7
513(12) 0.00732 480.4 56.4
506(12) 0.00661 480.3 56.3
532(13) 0.00603 480.2 56.5
506(12) 0.00703 480.0 57.3
532(12) 0.00675 479.9 58.8
542(12) 0.00684 479.7 61.4
567(13) 0.00613 479.6 65.8
558(13) 0.00568 479.5 72.7
558(13) 0.00610 479.3 83.7
569(12) 0.00655 479.2 100.3
608(13) 0.00606 479.0 124.7
645(14) 0.00540 478.9 158.5
636(14) 0.00517 478.8 202.3
718(14) 0.00480 478.6 255.2
732(14) 0.00506 478.5 313.2
803(15) 0.00462 478.4 368.6
901(16) 0.00387 478.2 409.4
946(17) 0.003472 478.1 424.6
882(16) 0.00403 477.9 413.4
866(15) 0.00428 477.8 387.2
780(15) 0.00474 477.7 360.9
774(15) 0.00449 477.5 346.3
779(15) 0.00432 477.4 350.5
752(15) 0.00461 477.2 376.6
821(15) 0.00450 477.1 424.3
946(16) 0.00381 477.0 489.8
1039(17) 0.003370 476.8 565.6
1107(18) 0.003112 476.7 639.6
1226(19) 0.002855 476.5 695.2
1211(18) 0.003081 476.4 715.7
1185(18) 0.002998 476.3 692.9
1075(18) 0.003201 476.1 632.7
949(16) 0.00375 476.0 550.1
910(16) 0.00396 475.9 460.5
832(15) 0.00448 475.7 374.6
803(15) 0.00433 475.6 298.5
736(15) 0.00472 475.4 234.7
685(14) 0.00518 475.3 183.7
631(13) 0.00577 475.2 144.4
632(13) 0.00588 475.0 115.0
567(13) 0.00594 474.9 93.4
551(13) 0.00599 474.7 77.6
548(13) 0.00631 474.6 66.0
498(12) 0.00736 474.5 57.4
509(12) 0.00729 474.3 51.5
513(12) 0.00677 474.2 46.2
518(13) 0.00637 474.1 41.9
491(12) 0.00709 473.9 38.3
533(12) 0.00685 473.8 35.3
484(11) 0.00768 473.6 32.7
513(12) 0.00668 473.5 30.4
481(12) 0.00679 473.4 28.4
486(12) 0.00732 473.2 26.7
477(11) 0.00789 473.1 25.1
501(12) 0.00746 472.9 23.8
519(12) 0.00671 472.8 22.6
502(13) 0.00636 472.7 21.5
492(12) 0.00702 472.5 20.5
492(12) 0.00752 472.4 19.7
476(11) 0.00768 472.2 18.9
489(12) 0.00703 472.1 18.3
492(12) 0.00663 472.0 17.6
483(12) 0.00720 471.8 17.1
495(12) 0.00744 471.7 16.6
492(12) 0.00742 471.6 16.2
480(12) 0.00726 471.4 15.8
458(12) 0.00703 471.3 15.5
444(11) 0.00781 471.1 15.2
440(11) 0.00844 471.0 14.9
460(11) 0.00803 470.9 14.7
517(12) 0.00663 470.7 14.5
472(12) 0.00705 470.6 14.4
477(12) 0.00727 470.4 14.2
491(11) 0.00757 470.3 14.1
472(11) 0.00771 470.2 14.1
457(11) 0.00768 470.0 14.0
475(12) 0.00693 469.9 14.0
477(12) 0.00723 469.8 14.0
464(11) 0.00797 469.6 14.0
464(11) 0.00781 469.5 14.1
495(12) 0.00678 469.3 14.1
510(12) 0.00652 469.2 14.2
497(12) 0.00702 469.0 14.4
465(11) 0.00802 468.8 14.5
443(11) 0.00798 468.6 14.7
445(12) 0.00754 468.4 14.8
459(12) 0.00736 468.2 15.0
475(12) 0.00756 468.0 15.2
467(11) 0.00803 467.8 15.5
444(11) 0.00785 467.6 15.8
471(12) 0.00695 467.4 16.2
467(12) 0.00734 467.2 16.5
485(12) 0.00754 467.0 16.9
474(11) 0.00786 466.8 17.4
480(12) 0.00714 466.6 17.8
481(12) 0.00685 466.4 18.3
481(12) 0.00733 466.2 18.9
465(11) 0.00795 466.0 19.5
460(11) 0.00812 465.8 20.2
481(12) 0.00719 465.6 20.9
458(12) 0.00735 465.4 21.6
501(12) 0.00682 465.2 22.5
477(11) 0.00782 465.0 23.4
456(11) 0.00812 464.8 24.4
454(11) 0.00766 464.6 25.4
455(12) 0.00731 464.4 26.6
459(11) 0.00773 464.2 27.9
487(11) 0.00761 464.0 29.3
492(11) 0.00756 463.8 30.8
459(11) 0.00796 463.6 32.5
480(12) 0.00668 463.4 34.3
493(12) 0.00709 463.2 36.3
516(12) 0.00716 463.0 38.6
524(12) 0.00703 462.8 41.1
467(11) 0.00769 462.6 43.8
484(12) 0.00677 462.4 46.9
490(12) 0.00716 462.2 50.4
498(12) 0.00750 462.0 54.3
512(12) 0.00707 461.8 58.7
511(12) 0.00657 461.6 63.7
510(12) 0.00651 461.4 69.5
558(13) 0.00614 461.2 76.3
562(12) 0.00660 461.0 84.3
522(12) 0.00686 460.8 94.1
567(13) 0.00601 460.6 106.2
552(13) 0.00595 460.4 121.5
581(13) 0.00598 460.2 141.3
606(13) 0.00610 460.0 167.2
610(13) 0.00591 459.7 201.1
651(14) 0.00517 459.5 245.3
667(14) 0.00518 459.3 302.3
765(15) 0.00451 459.1 374.3
842(15) 0.00440 458.9 463.1
965(17) 0.00364 458.7 569.3
1083(18) 0.003102 458.5 691.6
1252(19) 0.002699 458.3 826.4
1440(20) 0.002448 458.1 966.2
1578(21) 0.002353 457.9 1098.4
1712(22) 0.002024 457.7 1204.8
1791(23) 0.001872 457.5 1265.4
1731(22) 0.001996 457.3 1266.3
1577(21) 0.002304 457.1 1207.4
1579(21) 0.002364 456.9 1102.7
1375(20) 0.002475 456.7 972.1
1234(19) 0.002665 456.5 833.9
1141(18) 0.003035 456.3 700.7
1012(17) 0.00363 456.1 580.1
908(16) 0.00409 455.9 475.8
851(16) 0.00408 455.7 389.0
808(16) 0.00410 455.5 319.2
765(15) 0.00461 455.3 264.6
729(14) 0.00500 455.1 223.1
699(14) 0.00534 454.9 192.4
696(14) 0.00505 454.7 170.3
711(15) 0.00450 454.5 154.8
630(13) 0.00556 454.3 144.7
647(13) 0.00562 454.1 139.0
632(13) 0.00591 453.9 137.4
638(14) 0.00537 453.7 140.1
650(14) 0.00496 453.5 147.8
652(14) 0.00525 453.3 161.8
648(13) 0.00575 453.1 183.7
711(14) 0.00518 452.9 215.6
767(15) 0.00456 452.7 259.3
773(15) 0.00425 452.5 316.4
829(16) 0.00407 452.3 387.4
941(16) 0.00394 452.1 471.0
980(16) 0.00373 451.9 563.2
1080(18) 0.003254 451.7 656.3
1216(19) 0.002747 451.5 737.5
1344(20) 0.002575 451.3 790.1
1385(19) 0.002697 451.1 799.9
1372(20) 0.002619 450.9 763.2
1228(19) 0.002785 450.7 690.3
1146(19) 0.002886 450.5 597.7
961(16) 0.00372 450.2 500.3
831(15) 0.00451 450.0 408.3
780(15) 0.00455 449.8 327.1
680(14) 0.00510 449.6 259.2
605(13) 0.00575 449.4 204.8
634(14) 0.00546 449.2 162.6
571(12) 0.00650 449.0 130.9
541(12) 0.00670 448.8 107.3
525(12) 0.00655 448.6 90.0
526(12) 0.00653 448.4 77.2
485(12) 0.00743 448.2 67.5
490(11) 0.00761 448.0 60.0
493(12) 0.00700 447.8 53.9
501(12) 0.00680 447.6 49.0
495(12) 0.00682 447.4 44.8
496(12) 0.00740 447.2 41.2
477(11) 0.00779 447.0 38.1
469(12) 0.00717 446.8 35.3
472(12) 0.00707 446.6 32.9
503(12) 0.00684 446.4 30.7
482(11) 0.00758 446.2 28.8
473(11) 0.00790 446.0 27.0
454(11) 0.00782 445.8 25.4
457(12) 0.00731 445.6 24.0
463(12) 0.00753 445.4 22.7
474(11) 0.00778 445.2 21.5
469(11) 0.00805 445.0 20.4
478(12) 0.00729 444.8 19.4
447(12) 0.00754 444.6 18.5
463(12) 0.00749 444.4 17.7
442(11) 0.00814 444.2 16.9
447(11) 0.00834 444.0 16.1
447(11) 0.00792 443.8 15.5
457(12) 0.00708 443.6 14.8
448(11) 0.00771 443.4 14.2
459(11) 0.00807 443.2 13.7
454(11) 0.00804 443.0 13.2
465(12) 0.00734 442.8 12.7
452(12) 0.00732 442.6 12.2
433(11) 0.00802 442.4 11.8
436(11) 0.00850 442.2 11.4
434(11) 0.00843 442.0 11.0
442(11) 0.00782 441.8 10.7
487(12) 0.00662 441.6 10.3
451(11) 0.00776 441.4 10.0
491(12) 0.00752 441.2 9.7
463(11) 0.00791 441.0 9.4
450(11) 0.00761 440.7 9.1
452(12) 0.00725 440.5 8.9
435(11) 0.00778 440.3 8.6
440(11) 0.00843 440.1 8.4
451(11) 0.00785 439.9 8.2
440(11) 0.00784 439.7 7.9
417(11) 0.00855 439.5 7.7
408(11) 0.00855 439.3 7.5
438(11) 0.00851 439.1 7.3
444(11) 0.00796 438.9 7.2
457(12) 0.00749 438.7 7.0
462(12) 0.00751 438.5 6.8
466(12) 0.00753 438.3 6.7
418(11) 0.00894 438.1 6.5
425(11) 0.00823 437.9 6.4
430(11) 0.00777 437.7 6.2
407(11) 0.00859 437.5 6.1
424(11) 0.00859 437.3 6.0
438(11) 0.00848 437.1 5.8
447(11) 0.00776 436.9 5.7
463(12) 0.00723 436.7 5.6
425(11) 0.00853 436.5 5.5
451(11) 0.00789 436.3 5.5
431(11) 0.00869 436.1 5.4
437(11) 0.00801 435.9 5.3
468(12) 0.00693 435.7 5.2
455(11) 0.00770 435.5 5.1
438(11) 0.00826 435.3 5.1
429(11) 0.00879 435.1 5.0
435(11) 0.00802 434.9 4.9
425(11) 0.00789 434.7 4.8
449(11) 0.00781 434.5 4.8
442(11) 0.00851 434.3 4.7
429(11) 0.00870 434.1 4.7
415(11) 0.00834 433.9 4.6
400(11) 0.00816 433.7 4.5
426(11) 0.00787 433.5 4.5
407(11) 0.00902 433.3 4.4
421(11) 0.00885 433.1 5.0
443(11) 0.00790 432.9 4.9
446(12) 0.00734 432.7 4.9
450(11) 0.00776 432.5 4.8
439(11) 0.00855 432.4 4.8
430(11) 0.00855 432.3 4.7
418(11) 0.00839 432.2 4.7
440(12) 0.00733 432.1 4.6
407(11) 0.00865 432.0 4.6
448(11) 0.00822 431.9 4.6
462(11) 0.00776 431.8 4.5
420(11) 0.00849 431.7 4.5
415(11) 0.00814 431.6 4.5
437(11) 0.00784 431.5 4.4
467(11) 0.00794 431.4 4.4
432(11) 0.00850 431.3 4.4
426(11) 0.00822 431.2 4.3
433(11) 0.00786 431.1 4.3
479(12) 0.00728 431.0 4.3
463(11) 0.00807 430.9 4.3
454(11) 0.00792 430.7 4.3
434(11) 0.00794 430.6 4.2
426(11) 0.00803 430.5 4.2
428(11) 0.00850 430.4 4.2
410(11) 0.00900 430.3 4.2
455(12) 0.00748 430.2 4.2
441(11) 0.00773 430.1 4.2
410(11) 0.00835 430.0 4.2
432(11) 0.00815 429.9 4.1
434(11) 0.00866 429.8 4.1
417(11) 0.00835 429.7 4.1
461(12) 0.00740 429.6 4.1
463(12) 0.00727 429.5 4.1
449(11) 0.00794 429.4 4.1
439(11) 0.00848 429.3 4.1
440(11) 0.00772 429.2 4.1
448(12) 0.00738 429.1 4.1
450(11) 0.00771 429.0 4.1
413(11) 0.00879 428.8 4.2
441(11) 0.00846 428.7 4.2
466(12) 0.00743 428.6 4.2
455(12) 0.00707 428.5 4.2
412(11) 0.00841 428.4 4.2
441(11) 0.00822 428.3 4.2
433(11) 0.00865 428.2 4.3
449(12) 0.00739 428.1 4.3
446(12) 0.00715 428.0 4.4
447(11) 0.00802 427.9 4.4
443(11) 0.00838 427.8 4.4
439(11) 0.00840 427.7 4.5
440(11) 0.00801 427.6 4.5
441(12) 0.00727 427.5 4.6
425(11) 0.00831 427.4 4.7
428(11) 0.00864 427.3 4.7
456(11) 0.00787 427.2 4.8
430(11) 0.00837 427.1 4.9
435(11) 0.00768 426.9 5.0
423(11) 0.00827 426.8 5.1
419(11) 0.00889 426.7 5.3
439(11) 0.00818 426.6 5.4
418(11) 0.00831 426.5 5.6
452(12) 0.00723 426.4 5.8
414(11) 0.00843 426.3 6.1
429(11) 0.00863 426.2 6.3
417(11) 0.00866 426.1 6.7
405(11) 0.00856 426.0 7.1
450(12) 0.00750 425.9 7.7
447(11) 0.00775 425.8 8.4
443(11) 0.00837 425.7 9.5
466(12) 0.00749 425.6 11.3
417(11) 0.00845 425.5 14.4
433(11) 0.00784 425.4 19.7
443(11) 0.00809 425.3 28.3
459(11) 0.00816 425.2 41.6
473(12) 0.00742 425.1 59.7
499(12) 0.00685 424.9 81.6
517(12) 0.00658 424.8 104.2
540(12) 0.00658 424.7 121.5
587(13) 0.00631 424.6 126.9
583(13) 0.00571 424.5 117.7
530(13) 0.00638 424.4 98.3
525(12) 0.00662 424.3 75.6
487(12) 0.00731 424.2 54.5
456(11) 0.00816 424.1 37.7
460(12) 0.00735 424.0 25.9
444(12) 0.00741 423.9 18.4
462(12) 0.00734 423.8 13.9
447(11) 0.00822 423.7 11.3
436(11) 0.00855 423.6 9.8
408(11) 0.00858 423.5 8.9
456(12) 0.00725 423.4 8.3
460(11) 0.00764 423.3 7.8
458(11) 0.00790 423.2 7.5
435(11) 0.00849 423.0 7.2
416(11) 0.00837 422.9 7.0
432(12) 0.00756 422.8 6.9
448(12) 0.00751 422.7 6.8
416(11) 0.00875 422.6 6.7
424(11) 0.00871 422.5 6.6
423(11) 0.00825 422.4 6.5
407(11) 0.00790 422.3 6.5
430(11) 0.00793 422.2 6.5
440(11) 0.00844 422.1 6.5
448(11) 0.00812 422.0 6.5
449(11) 0.00765 421.9 6.5
441(12) 0.00748 421.8 6.4
442(11) 0.00822 421.7 6.5
428(11) 0.00876 421.6 6.5
382(10) 0.00946 421.5 6.6
424(11) 0.00818 421.4 6.7
469(12) 0.00700 421.3 6.8
428(11) 0.00810 421.1 6.9
421(11) 0.00888 421.0 7.0
438(11) 0.00818 420.9 7.1
410(11) 0.00874 420.8 7.2
424(11) 0.00785 420.7 7.3
397(11) 0.00895 420.6 7.5
424(11) 0.00879 420.5 7.6
410(11) 0.00852 420.4 7.8
437(11) 0.00785 420.3 8.0
429(11) 0.00808 420.2 8.2
441(11) 0.00781 420.1 8.4
428(11) 0.00869 420.0 8.6
462(11) 0.00778 419.9 8.8
454(12) 0.00738 419.8 9.1
424(11) 0.00792 419.7 9.3
431(11) 0.00814 419.6 9.6
443(11) 0.00848 419.5 10.0
434(11) 0.00801 419.4 10.3
415(11) 0.00824 419.2 10.7
420(11) 0.00817 419.1 11.1
406(10) 0.00918 419.0 11.5
431(11) 0.00865 418.9 12.0
426(11) 0.00808 418.8 12.5
414(11) 0.00802 418.7 13.1
418(11) 0.00813 418.6 13.7
451(11) 0.00790 418.5 14.4
442(11) 0.00834 418.4 15.1
436(11) 0.00784 418.3 16.0
439(12) 0.00749 418.2 17.0
448(12) 0.00749 418.1 18.1
466(11) 0.00789 418.0 19.3
433(11) 0.00862 417.9 20.8
453(11) 0.00768 417.8 22.6
453(12) 0.00726 417.7 24.8
436(11) 0.00819 417.6 27.5
467(11) 0.00786 417.5 30.9
444(11) 0.00837 417.3 35.3
454(11) 0.00773 417.2 40.9
473(12) 0.00684 417.1 47.9
469(12) 0.00724 417.0 56.8
503(12) 0.00736 416.9 67.8
515(12) 0.00716 416.8 81.2
512(12) 0.00677 416.7 96.9
531(13) 0.00607 416.6 114.9
550(13) 0.00630 416.5 134.7
559(12) 0.00665 416.4 155.4
550(12) 0.00671 416.3 175.4
576(13) 0.00610 416.2 192.6
620(14) 0.00541 416.1 204.3
627(14) 0.00525 416.0 208.3
635(13) 0.00578 415.9 203.7
596(13) 0.00613 415.8 191.8
596(13) 0.00573 415.7 174.9
572(13) 0.00580 415.6 155.7
513(12) 0.00666 415.4 136.3
518(12) 0.00712 415.3 118.0
514(12) 0.00708 415.2 101.8
522(12) 0.00653 415.1 87.9
490(12) 0.00703 415.0 76.6
464(12) 0.00744 414.9 67.7
474(11) 0.00789 414.8 61.1
463(11) 0.00761 414.7 56.5
452(11) 0.00800 414.6 53.5
464(12) 0.00728 414.5 52.1
451(11) 0.00779 414.4 52.0
475(11) 0.00772 414.3 53.0
479(12) 0.00719 414.2 55.0
446(11) 0.00766 414.1 58.1
496(12) 0.00673 414.0 62.1
477(12) 0.00744 413.9 67.1
496(12) 0.00734 413.8 73.1
495(12) 0.00683 413.7 80.1
510(12) 0.00651 413.5 88.1
528(12) 0.00651 413.4 97.1
547(12) 0.00666 413.3 107.1
542(12) 0.00679 413.2 118.0
560(13) 0.00619 413.1 129.5
569(13) 0.00593 413.0 141.6
608(13) 0.00576 412.9 153.7
641(13) 0.00567 412.8 165.5
636(13) 0.00589 412.7 176.3
618(13) 0.00560 412.6 185.4
622(14) 0.00520 412.5 192.2
618(13) 0.00571 412.4 195.9
637(13) 0.00583 412.3 196.3
598(13) 0.00626 412.2 193.3
583(13) 0.00605 412.1 187.1
598(14) 0.00539 412.0 178.3
626(13) 0.00562 411.9 167.7
575(12) 0.00654 411.8 155.9
577(13) 0.00637 411.6 143.6
541(12) 0.00644 411.5 131.2
515(13) 0.00631 411.4 119.2
511(12) 0.00669 411.3 107.7
506(12) 0.00739 411.2 97.1
499(12) 0.00743 411.1 87.3
497(12) 0.00700 411.0 78.5
496(12) 0.00665 410.9 70.6
476(12) 0.00712 410.8 63.6
468(11) 0.00794 410.7 57.5
458(11) 0.00803 410.6 52.2
492(12) 0.00708 410.5 47.6
463(12) 0.00718 410.4 43.7
474(12) 0.00732 410.3 40.4
456(11) 0.00820 410.2 37.5
421(11) 0.00870 410.1 35.2
435(11) 0.00786 410.0 33.2
449(12) 0.00750 409.9 31.5
437(11) 0.00791 409.7 30.1
455(11) 0.00826 409.6 28.9
417(11) 0.00838 409.5 27.9
408(11) 0.00863 409.4 27.1
429(11) 0.00804 409.3 26.4
442(11) 0.00820 409.2 25.8
444(11) 0.00837 409.1 25.4
439(11) 0.00805 409.0 25.0
430(11) 0.00796 408.9 24.7
446(12) 0.00753 408.8 24.5
445(11) 0.00813 408.7 24.4
440(11) 0.00840 408.6 24.4
422(11) 0.00815 408.5 24.4
433(12) 0.00749 408.4 24.5
417(11) 0.00823 408.3 24.6
426(11) 0.00830 408.2 24.8
429(11) 0.00871 408.1 25.1
422(11) 0.00837 408.0 25.5
472(12) 0.00696 407.9 25.9
442(11) 0.00800 407.7 26.4
438(11) 0.00841 407.6 27.0
437(11) 0.00854 407.5 27.7
408(11) 0.00860 407.4 28.6
437(12) 0.00754 407.3 29.5
444(11) 0.00781 407.2 30.5
447(11) 0.00828 407.1 31.7
438(11) 0.00851 407.0 33.1
432(11) 0.00814 406.9 34.6
439(12) 0.00748 406.8 36.2
426(11) 0.00829 406.7 38.0
454(11) 0.00819 406.6 39.9
445(11) 0.00837 406.5 41.9
467(12) 0.00740 406.4 44.0
443(12) 0.00719 406.3 46.0
410(11) 0.00838 406.2 48.0
411(10) 0.00908 406.1 49.7
461(11) 0.00793 406.0 51.1
463(12) 0.00736 405.8 52.2
445(12) 0.00714 405.7 53.0
447(11) 0.00765 405.6 53.4
426(11) 0.00873 405.5 53.6
433(11) 0.00853 405.4 53.8
482(12) 0.00714 405.3 54.0
448(11) 0.00764 405.2 54.2
485(12) 0.00711 405.1 54.6
458(11) 0.00814 405.0 55.1
463(11) 0.00773 404.9 55.9
422(11) 0.00817 404.8 57.0
444(12) 0.00751 404.7 58.3
436(11) 0.00810 404.6 60.0
452(11) 0.00821 404.5 62.0
466(11) 0.00772 404.4 64.5
457(12) 0.00742 404.3 67.3
438(11) 0.00797 404.2 70.7
466(12) 0.00756 404.1 74.6
441(11) 0.00845 403.9 79.2
464(11) 0.00763 403.8 84.4
450(11) 0.00757 403.7 90.6
462(12) 0.00741 403.6 97.6
484(12) 0.00723 403.5 105.8
503(12) 0.00741 403.4 115.2
506(12) 0.00693 403.3 126.0
521(12) 0.00658 403.2 138.3
542(12) 0.00644 403.1 152.4
526(12) 0.00691 403.0 168.4
538(12) 0.00698 402.9 186.4
548(13) 0.00620 402.8 206.5
557(13) 0.00583 402.7 229.0
614(13) 0.00554 402.6 253.8
616(13) 0.00602 402.5 280.9
625(13) 0.00592 402.4 310.4
663(14) 0.00513 402.3 342.2
724(15) 0.00451 402.2 375.9
761(15) 0.00451 402.0 411.4
794(15) 0.00466 401.9 447.9
850(15) 0.00437 401.8 484.9
886(16) 0.00394 401.7 521.5
912(17) 0.00362 401.6 556.3
915(16) 0.00390 401.5 588.2
973(16) 0.00381 401.4 615.4
964(16) 0.00385 401.3 636.5
981(17) 0.00358 401.2 650.1
984(18) 0.003200 401.1 655.4
925(16) 0.00380 401.0 651.9
909(16) 0.00410 400.9 640.0
889(16) 0.00412 400.8 620.7
856(16) 0.00405 400.7 595.2
897(17) 0.00361 400.6 565.1
845(16) 0.00404 400.5 531.9
779(14) 0.00481 400.4 497.0
782(15) 0.00467 400.3 461.6
768(15) 0.00454 400.1 426.7
744(15) 0.00458 400.0 393.0
717(14) 0.00482 399.9 360.9
723(14) 0.00516 399.8 330.8
694(14) 0.00522 399.7 303.0
671(14) 0.00515 399.6 277.6
606(13) 0.00554 399.5 254.5
667(14) 0.00522 399.4 233.9
650(13) 0.00569 399.3 215.6
596(13) 0.00593 399.2 199.5
590(13) 0.00575 399.1 185.5
597(13) 0.00565 399.0 173.4
614(13) 0.00569 398.9 163.1
567(12) 0.00653 398.8 154.4
574(13) 0.00613 398.7 147.3
564(13) 0.00611 398.6 141.4
557(13) 0.00610 398.5 136.8
553(13) 0.00639 398.4 133.3
545(12) 0.00689 398.2 130.7
551(12) 0.00642 398.1 129.0
556(13) 0.00609 398.0 128.1
548(13) 0.00628 397.9 127.9
542(12) 0.00672 397.8 128.4
558(12) 0.00663 397.7 129.4
549(13) 0.00628 397.6 131.0
539(13) 0.00612 397.5 133.1
571(13) 0.00581 397.4 135.5
543(12) 0.00677 397.3 138.3
530(12) 0.00705 397.2 141.2
551(13) 0.00608 397.1 144.1
559(13) 0.00587 397.0 146.9
572(13) 0.00604 396.9 149.2
563(12) 0.00656 396.8 150.9
578(13) 0.00637 396.7 151.6
570(13) 0.00638 396.6 151.1
549(13) 0.00589 396.5 149.2
540(13) 0.00635 396.3 146.0
567(12) 0.00652 396.2 141.5
528(12) 0.00708 396.1 135.9
552(13) 0.00635 396.0 129.4
516(13) 0.00631 395.9 122.5
508(12) 0.00703 395.8 115.2
495(12) 0.00751 395.7 107.9
484(11) 0.00767 395.6 100.7
493(12) 0.00707 395.5 93.8
474(12) 0.00708 395.4 87.2
479(12) 0.00723 395.3 80.9
463(11) 0.00799 395.2 75.1
455(11) 0.00821 395.1 69.8
481(12) 0.00721 395.0 64.8
488(12) 0.00669 394.9 60.3
465(12) 0.00736 394.8 56.3
443(11) 0.00841 394.7 52.5
428(11) 0.00837 394.6 49.2
419(11) 0.00830 394.4 46.1
438(12) 0.00753 394.3 43.4
437(11) 0.00787 394.2 40.9
433(11) 0.00858 394.1 38.6
409(11) 0.00887 394.0 36.6
406(11) 0.00877 393.9 34.7
430(11) 0.00770 393.8 33.0
417(11) 0.00835 393.7 31.4
451(11) 0.00827 393.6 29.9
432(11) 0.00805 393.5 28.6
404(11) 0.00841 393.4 27.3
407(11) 0.00838 393.3 26.2
390(10) 0.00917 393.2 25.1
442(11) 0.00843 393.1 24.1
399(11) 0.00891 393.0 23.1
431(11) 0.00784 392.9 22.2
384(10) 0.00927 392.8 21.4
410(11) 0.00877 392.7 20.6
426(11) 0.00886 392.5 19.9
394(11) 0.00903 392.4 19.2
399(11) 0.00852 392.3 18.5
388(10) 0.00909 392.2 17.9
420(11) 0.00849 392.1 17.3
402(10) 0.00920 392.0 16.7
417(11) 0.00794 391.9 16.2
396(11) 0.00811 391.8 15.7
396(11) 0.00878 391.7 15.2
419(11) 0.00870 391.6 14.8
397(10) 0.00935 391.5 14.3
411(11) 0.00851 391.4 13.9
409(11) 0.00818 391.3 13.5
421(11) 0.00845 391.2 13.2
430(11) 0.00842 391.1 12.8
423(11) 0.00880 391.0 12.5
410(11) 0.00830 390.9 12.2
423(12) 0.00739 390.8 11.9
410(11) 0.00865 390.7 11.6
403(10) 0.00921 390.5 11.3
411(10) 0.00907 390.4 11.0
391(10) 0.00917 390.3 10.7
395(11) 0.00855 390.2 10.5
407(11) 0.00841 390.1 10.3
399(10) 0.00931 390.0 10.0
418(11) 0.00886 389.9 9.8
396(11) 0.00895 389.8 9.6
380(11) 0.00846 389.7 9.4
369(10) 0.00944 389.6 9.2
383(10) 0.00958 389.5 9.0
387(10) 0.00952 389.4 8.8
383(11) 0.00901 389.3 8.6
397(11) 0.00834 389.2 8.5
400(11) 0.00868 389.1 8.3
404(10) 0.00928 389.0 8.1
377(10) 0.00941 388.9 8.0
412(11) 0.00827 388.8 7.8
407(11) 0.00798 388.6 7.7
396(11) 0.00880 388.5 7.5
413(11) 0.00899 388.4 7.4
394(10) 0.00919 388.3 7.3
397(11) 0.00855 388.2 7.1
391(11) 0.00863 388.1 7.0
377(10) 0.00986 388.0 6.9
398(10) 0.00932 387.9 6.7
399(11) 0.00888 387.8 6.7
424(11) 0.00795 387.7 6.5
404(11) 0.00892 387.6 6.4
385(10) 0.00943 387.5 6.3
390(10) 0.00958 387.4 6.2
389(11) 0.00906 387.3 6.1
379(11) 0.00887 387.2 6.0
379(10) 0.00921 387.1 5.9
404(11) 0.00886 387.0 5.8
350(10) 0.01067 386.9 5.7
404(11) 0.00846 386.7 5.6
408(11) 0.00822 386.6 5.6
403(11) 0.00862 386.5 5.5
406(11) 0.00887 386.4 5.4
381(10) 0.00983 386.3 5.3
366(10) 0.00950 386.2 5.2
375(11) 0.00898 386.1 5.2
380(11) 0.00894 386.0 5.1
384(10) 0.00951 385.9 5.0
387(10) 0.00959 385.8 4.9
377(10) 0.00924 385.7 4.9
419(11) 0.00770 385.6 4.8
387(10) 0.00920 385.5 4.7
391(10) 0.00953 385.4 4.7
394(10) 0.00931 385.3 4.6
390(11) 0.00883 385.2 4.5
376(11) 0.00853 385.1 4.5
377(10) 0.00920 385.0 4.4
408(10) 0.00917 384.9 4.4
387(10) 0.00976 384.8 4.3
404(11) 0.00875 384.7 4.2
434(12) 0.00735 384.7 4.2
429(11) 0.00801 384.6 4.1
420(11) 0.00883 384.5 4.1
385(10) 0.00950 384.4 4.0
399(11) 0.00858 384.3 4.0
363(11) 0.00891 384.2 3.9
403(11) 0.00857 384.1 3.9
379(10) 0.00977 384.0 3.8
362(10) 0.00961 383.9 3.8
372(10) 0.00916 383.8 3.7
377(11) 0.00885 383.7 3.7
365(10) 0.00973 383.6 3.6
369(10) 0.01000 383.5 3.6
381(10) 0.00913 383.4 3.6
366(10) 0.00924 383.3 3.5
404(11) 0.00812 383.2 3.5
372(10) 0.00953 383.1 3.4
389(10) 0.00961 383.0 3.4
366(10) 0.00985 382.9 3.4
396(11) 0.00852 382.8 3.3
377(11) 0.00905 382.7 3.3
378(10) 0.00928 382.6 3.2
412(11) 0.00897 382.5 3.2
406(11) 0.00881 382.4 3.2
406(11) 0.00826 382.3 3.1
366(10) 0.00973 382.2 3.1
403(11) 0.00872 382.1 3.1
367(10) 0.01021 382.0 3.0
378(10) 0.00925 381.9 3.0
365(10) 0.00944 381.8 3.0
373(10) 0.00917 381.7 2.9
362(10) 0.01016 381.6 2.9
370(10) 0.00998 381.5 2.9
396(11) 0.00866 381.4 2.9
368(10) 0.00925 381.4 2.8
408(11) 0.00857 381.3 2.8
377(10) 0.00986 381.2 2.8
394(10) 0.00949 381.1 2.7
349(10) 0.01037 381.0 2.7
410(11) 0.00772 380.9 2.7
404(11) 0.00859 380.8 2.7
353(10) 0.01069 380.7 2.6
374(10) 0.00978 380.6 2.7
390(11) 0.00886 380.5 2.7
375(11) 0.00875 380.4 2.6
361(10) 0.01000 380.3 2.6
387(10) 0.00959 380.2 2.6
406(10) 0.00915 380.1 2.6
381(10) 0.00939 380.0 2.5
391(11) 0.00840 379.9 2.5
374(10) 0.00940 379.8 2.5
351(10) 0.01071 379.7 2.5
383(10) 0.00950 379.6 2.4
383(10) 0.00912 379.5 2.4
373(11) 0.00875 379.4 2.4
356(10) 0.00969 379.3 2.4
379(10) 0.00975 379.2 2.4
363(10) 0.00988 379.1 2.3
384(11) 0.00887 379.0 2.3
389(11) 0.00865 378.9 2.3
371(10) 0.00911 378.8 2.3
393(10) 0.00941 378.7 2.3
363(10) 0.00997 378.6 2.3
360(10) 0.00984 378.5 2.2
350(10) 0.01005 378.4 2.2
376(10) 0.00959 378.3 2.2
367(10) 0.01011 378.2 2.2
365(10) 0.00975 378.1 2.2
358(10) 0.00963 378.1 2.2
389(11) 0.00899 378.0 2.2
418(11) 0.00850 377.9 2.1
372(10) 0.00993 377.8 2.1
362(10) 0.00975 377.7 2.1
363(10) 0.00951 377.6 2.1
381(10) 0.00919 377.5 2.1
388(11) 0.00893 377.4 2.1
356(10) 0.01042 377.3 2.0
368(10) 0.00956 377.2 2.0
367(10) 0.00916 377.1 2.0
381(11) 0.00893 377.0 2.0
365(10) 0.01005 376.9 2.0
377(10) 0.00973 376.8 2.0
389(11) 0.00879 376.7 2.0
345(10) 0.00991 376.6 2.0
374(10) 0.00933 376.5 1.9
356(10) 0.01037 376.4 1.9
379(10) 0.00981 376.3 1.9
379(11) 0.00901 376.2 1.9
409(11) 0.00758 376.1 1.9
387(11) 0.00896 376.0 1.9
393(10) 0.00917 375.9 1.9
379(10) 0.00990 375.8 1.9
393(11) 0.00889 375.7 1.8
370(11) 0.00870 375.6 1.8
392(11) 0.00888 375.5 1.8
395(10) 0.00933 375.4 1.8
366(10) 0.01007 375.3 1.8
369(10) 0.00946 375.2 1.8
387(11) 0.00838 375.1 1.8
339(10) 0.01066 375.0 1.8
346(10) 0.01076 374.9 1.8
361(10) 0.01003 374.8 1.8
355(10) 0.00977 374.7 1.7
374(11) 0.00862 374.7 1.7
378(10) 0.00947 374.6 1.7
372(10) 0.01001 374.5 1.7
378(10) 0.00972 374.4 1.7
397(11) 0.00852 374.3 1.7
390(11) 0.00830 374.2 1.7
370(10) 0.00923 374.1 1.7
375(10) 0.00982 374.0 1.7
382(10) 0.00938 373.9 1.7
342(10) 0.01045 373.8 1.7
369(10) 0.00928 373.7 1.7
364(10) 0.00958 373.6 1.7
382(10) 0.00974 373.5 1.7
418(11) 0.00844 373.4 1.7
397(11) 0.00857 373.3 1.7
382(10) 0.00921 373.2 1.6
367(10) 0.00964 373.1 1.6
363(10) 0.01032 373.0 1.6
398(11) 0.00887 372.9 1.6
356(10) 0.01008 372.8 1.6
344(10) 0.01005 372.7 1.6
358(10) 0.00989 372.6 1.6
390(10) 0.00947 372.5 1.6
421(11) 0.00786 372.4 1.6
379(11) 0.00889 372.3 1.6
358(10) 0.01020 372.2 1.6
387(10) 0.00921 372.1 1.6
376(10) 0.00976 372.0 1.6
373(10) 0.00934 371.9 1.6
385(11) 0.00850 371.8 1.6
379(11) 0.00898 371.7 1.6
390(10) 0.00927 371.6 1.6
376(10) 0.00988 371.5 1.6
373(11) 0.00891 371.4 1.6
356(10) 0.00918 371.4 1.6
378(11) 0.00897 371.3 1.6
361(10) 0.01037 371.2 1.6
381(10) 0.00967 371.1 1.6
389(11) 0.00868 371.0 1.6
358(11) 0.00891 370.9 1.6
359(10) 0.00967 370.8 1.6
365(10) 0.01025 370.7 1.6
363(10) 0.01024 370.6 1.6
348(10) 0.01012 370.5 1.6
368(11) 0.00842 370.4 1.6
342(10) 0.01029 370.3 1.6
360(10) 0.01034 370.2 1.6
376(10) 0.00987 370.1 1.6
370(10) 0.00940 370.0 1.6
360(10) 0.00927 369.9 1.6
363(10) 0.00982 369.8 1.6
397(10) 0.00938 369.7 1.6
367(10) 0.00996 369.6 1.6
357(10) 0.00964 369.5 1.6
363(11) 0.00901 369.4 1.6
364(10) 0.00945 369.3 1.6
385(10) 0.00962 369.2 1.6
352(10) 0.01024 369.1 1.6
366(10) 0.00947 369.0 1.6
366(10) 0.00926 368.9 1.6
364(10) 0.00959 368.8 1.7
358(10) 0.01041 368.7 1.7
353(10) 0.01030 368.6 1.7
354(10) 0.00996 368.5 1.7
383(11) 0.00885 368.4 1.7
370(10) 0.00927 368.3 1.7
376(10) 0.00991 368.2 1.8
372(10) 0.00962 368.1 1.8
379(11) 0.00897 368.1 1.8
386(11) 0.00890 368.0 1.8
345(10) 0.01020 367.9 1.9
362(10) 0.01026 367.7 1.9
410(11) 0.00815 367.6 2.0
362(10) 0.00922 367.5 2.0
352(10) 0.00993 367.4 2.1
378(10) 0.00939 367.2 2.2
370(10) 0.01007 367.1 2.3
356(10) 0.00985 367.0 2.5
362(10) 0.00932 366.8 2.7
385(11) 0.00897 366.7 3.1
368(10) 0.00973 366.6 3.6
349(10) 0.01060 366.5 4.4
360(10) 0.00939 366.3 5.7
351(10) 0.00945 366.2 7.4
379(11) 0.00903 366.1 9.6
369(10) 0.01005 366.0 12.2
378(10) 0.00989 365.8 15.0
375(10) 0.00922 365.7 17.3
390(11) 0.00829 365.6 18.5
397(11) 0.00896 365.5 18.0
384(10) 0.00981 365.3 16.1
371(10) 0.00962 365.2 13.5
364(10) 0.00952 365.1 10.8
349(10) 0.00930 365.0 8.4
355(10) 0.00988 364.8 6.5
390(10) 0.00957 364.7 5.1
374(10) 0.00984 364.6 4.2
364(10) 0.00943 364.4 3.5
361(11) 0.00895 364.3 3.2
371(10) 0.00930 364.2 2.9
387(10) 0.00956 364.1 2.8
367(10) 0.01015 363.9 2.7
381(11) 0.00900 363.8 2.6
353(10) 0.00983 363.7 2.6
396(11) 0.00859 363.6 2.6
379(10) 0.00984 363.4 2.6
365(10) 0.00984 363.3 2.6
345(10) 0.01019 363.2 2.6
343(10) 0.01005 363.1 2.6
378(11) 0.00901 362.9 2.7
351(10) 0.01065 362.8 2.7
369(10) 0.00964 362.7 2.8
368(10) 0.00916 362.5 2.8
363(10) 0.00945 362.4 2.9
375(10) 0.00918 362.3 2.9
383(10) 0.00969 362.2 3.0
373(10) 0.00960 362.0 3.1
361(10) 0.00959 361.9 3.2
382(11) 0.00898 361.8 3.3
383(10) 0.00912 361.7 3.4
382(10) 0.00967 361.5 3.5
369(10) 0.00961 361.4 3.6
359(10) 0.00960 361.3 3.7
366(10) 0.00965 361.2 3.9
358(10) 0.01011 361.0 4.0
359(10) 0.01027 360.9 4.1
366(10) 0.00960 360.8 4.3
373(10) 0.00914 360.6 4.4
382(10) 0.00926 360.5 4.6
384(10) 0.00925 360.4 4.8
361(10) 0.01037 360.3 4.9
362(10) 0.00985 360.1 5.1
347(10) 0.00987 360.0 5.3
388(11) 0.00870 359.9 5.5
381(10) 0.00973 359.8 5.7
385(10) 0.00934 359.6 5.9
377(11) 0.00895 359.5 6.1
373(11) 0.00872 359.4 6.3
384(10) 0.00912 359.3 6.5
394(10) 0.00928 359.1 6.7
402(10) 0.00922 359.0 6.8
404(11) 0.00853 358.9 7.0
391(11) 0.00836 358.8 7.2
391(11) 0.00882 358.6 7.4
387(10) 0.00957 358.5 7.5
364(10) 0.01025 358.4 7.7
390(11) 0.00876 358.2 7.8
360(11) 0.00900 358.1 7.9
358(10) 0.00943 358.0 8.0
372(10) 0.01001 357.9 8.1
371(10) 0.00986 357.7 8.1
360(10) 0.00975 357.6 8.1
377(11) 0.00850 357.5 8.1
369(10) 0.00959 357.4 8.1
391(10) 0.00939 357.2 8.1
383(10) 0.00959 357.1 8.0
366(10) 0.00935 357.0 7.9
393(11) 0.00827 356.9 7.8
380(11) 0.00902 356.7 7.7
383(10) 0.00967 356.6 7.6
356(10) 0.01021 356.5 7.5
365(10) 0.00941 356.3 7.3
403(11) 0.00834 356.2 7.2
372(10) 0.00982 356.1 7.0
374(10) 0.01002 356.0 6.9
367(10) 0.00965 355.8 6.7
385(11) 0.00879 355.7 6.6
368(10) 0.00934 355.6 6.4
378(10) 0.00955 355.5 6.3
355(10) 0.01047 355.3 6.1
339(10) 0.01039 355.2 6.0
368(10) 0.00955 355.1 5.9
374(10) 0.00947 355.0 5.8
372(10) 0.00983 354.8 5.7
342(10) 0.01089 354.7 5.6
341(10) 0.00988 354.6 5.6
343(10) 0.01002 354.4 5.5
356(10) 0.00972 354.3 5.5
355(10) 0.01013 354.2 5.5
329(9) 0.01133 354.1 5.6
366(10) 0.00932 353.9 5.7
361(10) 0.00963 353.8 5.9
357(10) 0.00958 353.7 6.1
346(10) 0.01070 353.6 6.5
392(10) 0.00953 353.4 6.9
369(10) 0.00914 353.3 7.5
379(11) 0.00857 353.2 8.2
382(11) 0.00900 353.1 9.0
344(10) 0.01071 352.9 10.1
366(10) 0.01014 352.8 11.3
351(10) 0.01026 352.7 12.6
360(11) 0.00893 352.5 14.1
379(11) 0.00886 352.4 15.7
377(10) 0.00952 352.3 17.3
354(10) 0.01034 352.2 18.7
374(10) 0.00937 352.0 19.9
373(11) 0.00864 351.9 20.6
338(10) 0.01040 351.8 20.8
371(10) 0.01008 351.7 20.3
345(10) 0.01085 351.5 19.4
388(11) 0.00877 351.4 18.0
348(10) 0.00948 351.3 16.5
378(11) 0.00905 351.2 14.8
338(10) 0.01100 351.0 13.2
358(10) 0.01014 350.9 11.7
355(10) 0.00967 350.8 10.4
381(11) 0.00846 350.7 9.2
351(10) 0.00950 350.5 8.2
364(10) 0.01010 350.4 7.3
342(10) 0.01083 350.3 6.6
366(10) 0.00921 350.1 6.1
353(10) 0.00966 350.0 5.6
363(10) 0.00956 349.9 5.3
340(10) 0.01097 349.8 5.0
348(10) 0.01039 349.6 4.8
342(10) 0.01010 349.5 4.7
358(10) 0.00918 349.4 4.6
345(10) 0.01028 349.3 4.6
361(10) 0.01035 349.1 4.6
327(10) 0.01067 349.0 4.7
361(11) 0.00889 348.9 4.8
358(10) 0.00921 348.8 4.9
343(10) 0.01023 348.6 5.0
359(10) 0.01036 348.5 5.2
372(10) 0.00929 348.4 5.5
355(10) 0.00909 348.2 5.7
327(10) 0.01051 348.1 6.0
378(10) 0.00943 348.0 6.4
349(10) 0.01058 347.9 6.7
368(10) 0.00948 347.7 7.2
346(10) 0.00974 347.6 7.6
330(10) 0.01074 347.5 8.1
344(10) 0.01072 347.4 8.6
357(10) 0.01041 347.2 9.1
373(10) 0.00922 347.1 9.6
362(10) 0.00925 347.0 10.1
366(10) 0.00944 346.9 10.6
397(10) 0.00918 346.7 11.1
381(10) 0.00946 346.6 11.6
351(10) 0.01020 346.5 11.9
381(11) 0.00800 346.3 12.2
353(10) 0.00960 346.2 12.4
331(9) 0.01112 346.1 12.5
349(10) 0.01060 346.0 12.4
369(10) 0.00946 345.8 12.2
363(11) 0.00904 345.7 12.0
359(10) 0.00985 345.6 11.6
371(10) 0.01004 345.5 11.2
361(10) 0.01014 345.3 10.7
371(10) 0.00947 345.2 10.2
353(10) 0.00928 345.1 9.7
374(10) 0.00915 345.0 9.1
364(10) 0.01015 344.8 8.6
356(10) 0.01007 344.7 8.0
338(10) 0.01028 344.6 7.5
336(10) 0.00974 344.5 7.1
354(10) 0.00950 344.3 6.6
316(9) 0.01180 344.2 6.2
334(10) 0.01084 344.1 5.8
353(10) 0.00987 343.9 5.5
362(10) 0.00915 343.8 5.2
351(10) 0.00966 343.7 4.9
350(10) 0.01061 343.6 4.6
352(10) 0.01020 343.4 4.4
381(11) 0.00877 343.3 4.2
360(10) 0.00956 343.2 4.0
346(10) 0.00978 343.1 3.8
348(10) 0.01066 342.9 3.7
366(10) 0.00962 342.8 3.6
336(10) 0.01005 342.7 3.5
346(10) 0.00983 342.6 3.4
343(10) 0.01015 342.4 3.3
338(10) 0.01101 342.3 3.3
317(10) 0.01074 342.2 3.2
334(10) 0.01025 342.0 3.2
366(10) 0.00912 341.9 3.2
346(10) 0.01031 341.8 3.1
348(10) 0.01070 341.7 3.1
315(10) 0.01069 341.5 3.1
351(10) 0.00940 341.5 3.1
343(10) 0.01015 341.4 3.1
338(10) 0.01105 341.4 3.1
353(10) 0.01036 341.3 3.1
330(10) 0.01057 341.3 3.1
330(10) 0.01022 341.2 3.2
373(10) 0.00916 341.2 3.2
349(10) 0.01057 341.1 3.2
371(10) 0.00971 341.1 3.3
361(10) 0.00966 341.0 3.3
350(10) 0.00909 341.0 3.4
350(10) 0.00965 341.0 3.4
374(10) 0.00980 340.9 3.5
351(10) 0.01031 340.9 3.5
327(10) 0.01059 340.8 3.6
352(10) 0.00939 340.8 3.7
376(10) 0.00928 340.7 3.8
335(10) 0.01102 340.7 3.9
334(10) 0.01107 340.6 4.0
359(10) 0.00968 340.6 4.1
344(10) 0.00933 340.5 4.2
347(10) 0.01005 340.5 4.3
365(10) 0.01015 340.4 4.4
362(10) 0.00996 340.4 4.6
332(10) 0.01077 340.3 4.7
364(11) 0.00899 340.3 4.9
340(10) 0.01023 340.2 5.0
353(10) 0.01056 340.2 5.2
339(10) 0.01055 340.1 5.3
352(10) 0.00968 340.1 5.5
344(10) 0.01012 340.0 5.7
351(10) 0.00982 340.0 5.9
353(10) 0.01057 339.9 6.1
367(10) 0.00982 339.9 6.3
364(10) 0.00925 339.8 6.5
330(10) 0.01034 339.8 6.7
363(10) 0.00960 339.8 6.9
341(10) 0.01094 339.7 7.1
360(10) 0.00990 339.7 7.3
377(11) 0.00895 339.6 7.5
340(10) 0.01029 339.6 7.7
344(10) 0.00986 339.5 7.9
325(9) 0.01141 339.5 8.0
351(10) 0.01001 339.4 8.2
340(10) 0.01001 339.4 8.3
336(10) 0.01037 339.3 8.4
363(10) 0.00995 339.3 8.5
353(10) 0.01050 339.2 8.6
351(10) 0.01000 339.2 8.7
377(11) 0.00859 339.1 8.7
323(9) 0.01126 339.1 8.8
357(10) 0.01005 339.0 8.8
362(10) 0.01028 339.0 8.8
350(10) 0.00994 338.9 8.7
331(10) 0.01001 338.9 8.7
341(10) 0.01047 338.8 8.7
365(10) 0.01007 338.8 8.7
317(9) 0.01180 338.7 8.6
353(10) 0.00941 338.7 8.6
352(10) 0.00953 338.6 8.6
363(10) 0.00955 338.6 8.6
350(10) 0.01067 338.5 8.6
342(10) 0.01070 338.5 8.6
372(10) 0.00929 338.5 8.6
328(10) 0.01010 338.4 8.6
367(10) 0.00928 338.4 8.7
359(10) 0.01035 338.3 8.7
345(10) 0.01080 338.3 8.8
336(10) 0.01005 338.2 8.8
333(10) 0.00985 338.2 8.9
338(10) 0.01060 338.1 8.9
353(10) 0.01059 338.1 9.0
353(10) 0.01043 338.0 9.1
372(10) 0.00919 338.0 9.2
353(10) 0.00924 337.9 9.3
359(10) 0.00963 337.9 9.4
348(10) 0.01069 337.8 9.6
342(10) 0.01067 337.8 9.8
351(10) 0.00999 337.7 10.0
326(10) 0.01005 337.7 10.3
338(10) 0.00995 337.6 10.6
339(10) 0.01099 337.6 10.9
355(10) 0.01026 337.5 11.3
337(10) 0.01034 337.5 11.8
363(10) 0.00938 337.4 12.3
358(10) 0.00970 337.4 12.8
357(10) 0.01043 337.3 13.4
369(10) 0.00962 337.3 14.1
339(10) 0.01035 337.3 14.9
365(10) 0.00930 337.2 15.8
381(10) 0.00931 337.2 16.7
353(10) 0.01067 337.1 17.8
363(10) 0.00934 337.1 18.9
393(11) 0.00843 337.0 20.2
364(10) 0.00934 337.0 21.6
350(10) 0.01026 336.9 23.2
377(10) 0.00974 336.9 24.9
393(11) 0.00871 336.8 26.8
367(10) 0.00912 336.8 28.9
361(10) 0.00945 336.7 31.2
349(10) 0.01033 336.7 33.6
375(10) 0.00993 336.6 36.2
370(10) 0.00960 336.6 39.1
399(11) 0.00820 336.5 42.1
386(10) 0.00922 336.5 45.3
396(10) 0.00922 336.4 48.7
407(10) 0.00918 336.4 52.4
366(10) 0.00956 336.3 56.1
373(11) 0.00906 336.3 60.0
412(11) 0.00833 336.2 64.1
433(11) 0.00830 336.2 68.2
403(10) 0.00923 336.1 72.3
445(11) 0.00776 336.1 76.4
446(12) 0.00741 336.1 80.4
418(11) 0.00848 336.0 84.2
443(11) 0.00832 336.0 87.7
454(11) 0.00819 335.9 90.8
442(11) 0.00778 335.9 93.5
432(12) 0.00755 335.8 95.6
412(11) 0.00830 335.8 97.0
432(11) 0.00854 335.7 97.8
440(11) 0.00841 335.7 98.0
450(11) 0.00763 335.6 97.4
428(11) 0.00779 335.6 96.3
423(11) 0.00836 335.5 94.7
427(11) 0.00889 335.5 92.6
418(11) 0.00880 335.4 90.1
423(11) 0.00798 335.4 87.4
420(11) 0.00790 335.3 84.4
415(11) 0.00803 335.3 81.4
429(11) 0.00862 335.2 78.3
391(10) 0.00922 335.2 75.2
414(11) 0.00846 335.1 72.1
419(11) 0.00801 335.1 69.1
391(11) 0.00886 335.0 66.1
395(10) 0.00943 335.0 63.2
393(11) 0.00885 334.9 60.5
377(11) 0.00890 334.9 57.8
391(11) 0.00877 334.9 55.2
392(10) 0.00917 334.8 52.7
389(10) 0.00964 334.8 50.3
371(10) 0.00948 334.7 48.0
393(11) 0.00866 334.7 45.7
368(10) 0.00930 334.6 43.6
362(10) 0.00996 334.6 41.5
359(10) 0.01044 334.5 39.5
392(11) 0.00886 334.5 37.4
361(10) 0.00953 334.4 35.6
378(11) 0.00899 334.4 33.8
387(10) 0.00942 334.3 32.2
386(10) 0.00964 334.3 30.6
356(10) 0.01017 334.2 29.1
362(10) 0.00945 334.2 27.6
368(10) 0.00934 334.1 26.2
379(10) 0.00965 334.1 24.9
405(10) 0.00924 334.0 23.7
371(10) 0.00932 334.0 22.5
351(10) 0.00921 333.9 21.4
347(10) 0.01028 333.9 20.3
345(10) 0.01064 333.8 19.3
345(10) 0.01076 333.8 18.3
331(10) 0.01065 333.7 17.4
359(11) 0.00876 333.7 16.5
337(10) 0.01003 333.6 15.7
349(10) 0.01064 333.6 14.9
367(10) 0.01014 333.6 14.2
365(10) 0.00942 333.5 13.5
331(10) 0.00955 333.5 12.9
337(10) 0.01024 333.4 12.2
362(10) 0.01019 333.4 11.7
374(10) 0.00976 333.3 11.1
332(10) 0.01070 333.3 10.6
353(10) 0.00910 333.2 10.1
358(10) 0.00956 333.2 9.6
334(9) 0.01112 333.1 9.2
337(10) 0.01091 333.1 8.8
341(10) 0.00996 333.0 8.4
338(10) 0.00980 333.0 8.0
346(10) 0.00973 332.9 7.7
334(10) 0.01104 332.9 7.4
324(10) 0.01106 332.8 7.1
362(10) 0.00980 332.8 6.8
359(10) 0.00943 332.7 6.5
326(10) 0.01088 332.7 6.3
331(9) 0.01123 332.6 6.1
331(10) 0.01036 332.6 5.8
347(10) 0.00963 332.5 5.6
335(10) 0.01050 332.5 5.4
343(10) 0.01053 332.4 5.3
345(10) 0.01089 332.4 5.1
334(10) 0.01070 332.4 4.9
347(10) 0.00990 332.3 4.8
334(10) 0.01070 332.3 4.6
341(10) 0.01052 332.2 4.5
368(10) 0.01014 332.2 4.4
364(10) 0.00943 332.1 4.2
333(10) 0.01024 332.1 4.1
328(10) 0.01040 332.0 4.0
341(10) 0.01014 332.0 3.9
342(10) 0.01091 331.9 3.8
350(10) 0.00991 331.9 3.7
341(10) 0.00967 331.8 3.6
338(10) 0.01027 331.8 3.5
360(10) 0.01008 331.7 3.4
343(10) 0.01082 331.7 3.3
337(10) 0.01033 331.6 3.2
323(10) 0.01002 331.6 3.2
318(10) 0.01059 331.5 3.1
331(9) 0.01123 331.5 3.0
361(10) 0.01025 331.4 3.0
308(9) 0.01132 331.4 2.9
348(10) 0.00936 331.4 2.8
351(10) 0.00994 331.4 2.8
325(9) 0.01136 331.5 2.7
328(9) 0.01125 331.5 2.7
353(10) 0.00959 331.5 2.6
350(10) 0.00923 331.5 2.5
325(9) 0.01131 331.5 2.5
354(10) 0.01044 331.5 2.4
313(9) 0.01165 331.6 2.4
319(10) 0.01102 331.6 2.3
351(10) 0.00932 331.6 2.3
325(10) 0.01070 331.6 2.3
332(9) 0.01121 331.6 2.2
338(10) 0.01093 331.6 2.2
318(10) 0.01094 331.7 2.1
344(10) 0.00968 331.7 2.1
357(10) 0.00959 331.7 2.1
342(10) 0.01091 331.7 2.0
343(10) 0.01053 331.7 2.0
339(10) 0.01012 331.8 1.9
342(10) 0.00965 331.8 1.9
340(10) 0.00993 331.8 1.9
318(9) 0.01162 331.8 1.9
309(9) 0.01192 331.8 1.8
347(10) 0.00996 331.8 1.8
352(10) 0.00964 331.9 1.8
355(10) 0.00975 331.9 1.7
318(9) 0.01179 331.9 1.7
344(10) 0.01013 331.9 1.7
362(10) 0.00916 331.9 1.7
328(10) 0.01018 331.9 1.6
333(10) 0.01044 332.0 1.6
329(9) 0.01142 332.0 1.6
335(10) 0.01025 332.0 1.6
314(10) 0.01092 332.0 1.5
310(9) 0.01124 332.0 1.5
312(9) 0.01158 332.0 1.5
321(9) 0.01158 332.1 1.5
338(10) 0.01024 332.1 1.4
324(10) 0.01024 332.1 1.4
351(10) 0.00947 332.1 1.4
328(10) 0.01107 332.1 1.4
326(9) 0.01140 332.2 1.4
343(10) 0.01038 332.2 1.3
336(10) 0.01003 332.2 1.3
341(10) 0.01011 332.2 1.3
330(10) 0.01099 332.2 1.3
358(10) 0.01040 332.2 1.8
348(10) 0.01001 332.3 1.7
345(10) 0.00949 332.3 1.7
345(10) 0.01050 332.3 1.7
324(9) 0.01161 332.3 1.7
353(10) 0.01051 332.3 1.7
353(10) 0.00992 332.3 1.7
338(10) 0.00933 332.4 1.7
348(10) 0.01023 332.4 1.7
338(10) 0.01088 332.4 1.7
335(10) 0.01097 332.4 1.7
337(10) 0.01031 332.4 1.6
341(10) 0.00937 332.5 1.6
350(10) 0.00974 332.5 1.6
342(10) 0.01060 332.5 1.6
352(10) 0.01030 332.5 1.6
339(10) 0.01062 332.5 1.6
345(10) 0.00936 332.5 1.6
360(10) 0.00940 332.6 1.6
330(9) 0.01128 332.6 1.6
334(10) 0.01084 332.6 1.6
347(10) 0.00994 332.6 1.6
330(10) 0.00986 332.6 1.6
350(10) 0.00999 332.6 1.6
332(9) 0.01112 332.7 1.6
335(10) 0.01070 332.7 1.6
353(10) 0.00976 332.7 1.6
372(11) 0.00902 332.7 1.6
356(10) 0.00968 332.7 1.6
338(10) 0.01106 332.7 1.6
349(10) 0.00999 332.8 1.6
326(10) 0.01065 332.8 1.6
355(10) 0.00948 332.8 1.5
344(10) 0.01042 332.8 1.5
326(9) 0.01142 332.8 1.5
321(10) 0.01103 332.9 1.5
337(10) 0.00983 332.9 1.5
331(10) 0.01062 332.9 1.5
343(10) 0.01026 332.9 1.5
358(10) 0.01034 332.9 1.5
340(10) 0.01013 332.9 1.5
347(10) 0.00996 333.0 1.5
319(10) 0.01076 333.0 1.5
306(9) 0.01175 333.0 1.5
311(9) 0.01194 333.0 1.6
320(10) 0.01072 333.0 1.6
345(10) 0.00955 333.0 1.6
341(10) 0.00985 333.1 1.6
326(10) 0.01106 333.1 1.6
328(9) 0.01139 333.1 1.6
349(10) 0.00984 333.1 1.6
363(11) 0.00866 333.1 1.6
326(10) 0.01043 333.1 1.6
314(9) 0.01139 333.2 1.6
323(9) 0.01128 333.2 1.6
342(10) 0.01038 333.2 1.6
358(11) 0.00898 333.2 1.6
348(10) 0.00989 333.2 1.6
341(10) 0.01065 333.3 1.6
339(10) 0.01097 333.3 1.6
365(10) 0.00956 333.3 1.6
329(10) 0.01028 333.3 1.6
336(10) 0.01037 333.3 1.6
337(9) 0.01112 333.3 1.6
322(9) 0.01133 333.4 1.7
340(10) 0.01026 333.4 1.7
330(10) 0.01015 333.4 1.7
312(9) 0.01136 333.4 1.7
338(10) 0.01092 333.4 1.7
325(9) 0.01124 333.5 1.7
377(10) 0.00914 333.5 1.7
340(10) 0.00994 333.6 1.7
321(10) 0.01072 333.6 1.7
335(10) 0.01097 333.7 1.7
338(10) 0.01068 333.7 1.8
340(10) 0.01035 333.8 1.8
355(10) 0.00968 333.8 1.8
359(10) 0.00988 333.9 1.8
334(9) 0.01114 333.9 1.8
336(10) 0.01070 334.0 1.8
330(10) 0.01038 334.0 1.9
326(10) 0.01066 334.0 1.9
332(10) 0.01064 334.1 1.9
337(9) 0.01113 334.1 1.9
355(10) 0.00993 334.2 1.9
364(10) 0.00914 334.2 3.1
342(10) 0.01037 334.3 3.1
341(10) 0.01067 334.3 3.2
342(10) 0.01089 334.4 3.2
340(10) 0.01005 334.4 3.3
322(10) 0.01057 334.5 3.3
324(10) 0.01070 334.5 3.4
331(10) 0.01094 334.6 3.5
302(9) 0.01232 334.6 3.6
334(10) 0.01034 334.6 3.6
333(10) 0.00992 334.7 3.7
335(10) 0.00986 334.7 3.8
321(9) 0.01145 334.8 3.9
354(10) 0.01049 334.8 4.1
334(10) 0.01008 334.9 4.2
325(10) 0.00999 334.9 4.3
343(10) 0.00993 335.0 4.4
346(10) 0.01026 335.0 4.6
351(10) 0.01050 335.1 4.7
330(10) 0.01060 335.1 4.8
356(11) 0.00867 335.2 5.0
323(10) 0.01066 335.2 5.2
362(10) 0.01017 335.2 5.4
362(10) 0.01026 335.3 5.5
340(10) 0.01035 335.3 5.7
366(11) 0.00876 335.4 5.9
353(10) 0.00962 335.4 6.1
331(9) 0.01128 335.5 6.3
361(10) 0.01024 335.5 6.6
339(10) 0.01034 335.6 6.8
341(10) 0.00954 335.6 7.0
355(10) 0.00982 335.7 7.2
337(9) 0.01113 335.7 7.4
338(10) 0.01079 335.8 7.6
347(10) 0.00976 335.8 7.7
354(10) 0.00931 335.8 7.9
345(10) 0.01015 335.9 8.1
350(10) 0.01061 335.9 8.2
339(10) 0.01055 336.0 8.3
319(10) 0.01077 336.0 8.5
336(10) 0.00974 336.1 8.6
354(10) 0.01008 336.1 8.7
343(10) 0.01080 336.2 8.9
352(10) 0.01023 336.2 9.0
350(10) 0.00958 336.3 9.2
330(10) 0.01079 336.3 9.4
365(10) 0.00960 336.4 9.6
349(10) 0.01062 336.4 9.8
331(10) 0.01062 336.4 10.1
337(10) 0.01026 336.5 10.4
339(10) 0.01017 336.5 10.7
338(10) 0.01032 336.6 11.1
346(10) 0.01074 336.6 11.5
339(10) 0.01041 336.7 12.0
336(10) 0.01033 336.7 12.5
351(10) 0.01004 336.8 13.1
317(9) 0.01126 336.8 13.8
335(9) 0.01122 336.9 14.6
356(10) 0.00949 336.9 15.4
359(10) 0.00927 337.0 16.3
363(10) 0.00950 337.0 17.3
376(10) 0.00967 337.1 18.4
349(10) 0.01071 337.1 19.7
376(11) 0.00889 337.1 21.2
360(10) 0.00956 337.2 22.9
396(11) 0.00894 337.2 24.8
381(10) 0.00966 337.3 27.0
376(10) 0.01002 337.3 29.6
368(10) 0.00969 337.4 32.6
385(11) 0.00863 337.4 36.2
391(10) 0.00916 337.5 40.5
421(11) 0.00865 337.5 45.8
416(11) 0.00893 337.6 52.5
440(11) 0.00764 337.6 61.5
455(12) 0.00689 337.7 74.4
453(11) 0.00769 337.7 94.0
535(12) 0.00676 337.7 125.3
545(12) 0.00679 337.8 175.0
632(13) 0.00556 337.8 251.8
755(15) 0.00436 337.9 363.7
854(16) 0.00402 337.9 514.3
968(16) 0.00381 338.0 699.4
1191(18) 0.003106 338.0 900.3
1451(20) 0.002401 338.1 1081.1
1618(22) 0.002029 338.1 1189.0
1693(22) 0.002053 338.2 1179.8
1541(20) 0.002409 338.2 1057.6
1187(18) 0.002978 338.3 871.3
879(16) 0.00388 338.3 671.4
731(15) 0.00455 338.3 491.1
641(14) 0.00546 338.4 346.7
598(13) 0.00623 338.4 240.9
543(12) 0.00647 338.5 169.2
457(11) 0.00781 338.5 123.2
490(12) 0.00680 338.6 94.5
433(11) 0.00838 338.6 76.6
449(11) 0.00829 338.7 64.9
410(11) 0.00846 338.7 56.8
410(11) 0.00834 338.8 50.8
401(11) 0.00868 338.8 46.2
372(10) 0.00968 338.9 42.5
408(10) 0.00920 338.9 39.5
360(10) 0.00981 338.9 37.1
366(11) 0.00902 339.0 35.2
385(11) 0.00863 339.0 33.6
400(11) 0.00877 339.1 32.3
358(10) 0.01037 339.1 31.4
366(10) 0.00935 339.2 30.6
372(10) 0.00922 339.2 30.1
383(11) 0.00883 339.3 29.7
346(10) 0.01043 339.3 29.6
334(9) 0.01128 339.4 29.6
386(11) 0.00898 339.4 29.7
376(11) 0.00890 339.5 30.0
376(10) 0.00919 339.5 30.4
339(10) 0.01094 339.5 31.0
364(10) 0.01016 339.6 31.8
346(10) 0.01019 339.6 32.7
380(11) 0.00844 339.7 33.7
380(10) 0.00918 339.7 34.9
376(10) 0.00978 339.8 36.4
391(10) 0.00951 339.8 38.0
402(11) 0.00865 339.9 39.8
378(11) 0.00836 339.9 42.0
390(11) 0.00868 340.0 44.4
391(10) 0.00945 340.0 47.2
402(10) 0.00910 340.1 50.5
383(11) 0.00901 340.1 54.4
401(11) 0.00816 340.2 58.9
396(11) 0.00905 340.2 64.3
387(10) 0.00961 340.2 70.8
387(10) 0.00925 340.3 78.7
423(11) 0.00817 340.3 88.1
438(12) 0.00752 340.4 99.6
426(11) 0.00823 340.4 113.5
459(11) 0.00808 340.5 130.3
444(11) 0.00818 340.5 150.3
463(12) 0.00750 340.6 173.9
509(12) 0.00645 340.6 201.6
546(13) 0.00629 340.7 233.6
553(12) 0.00672 340.7 269.9
645(13) 0.00562 340.8 310.5
690(14) 0.00512 340.8 354.9
740(15) 0.00452 340.8 402.2
790(15) 0.00441 340.9 451.1
850(15) 0.00439 340.9 499.3
914(16) 0.00386 341.0 543.9
949(17) 0.00359 341.0 581.2
970(17) 0.003485 341.1 607.2
938(16) 0.00379 341.1 618.8
902(16) 0.00412 341.2 614.4
852(16) 0.00411 341.2 594.7
860(16) 0.00399 341.3 562.3
822(15) 0.00422 341.3 521.0
728(14) 0.00502 341.4 474.6
709(14) 0.00525 341.4 426.5
668(14) 0.00517 341.4 379.2
652(14) 0.00515 341.5 334.5
596(13) 0.00568 341.5 293.5
541(12) 0.00670 341.6 256.9
557(12) 0.00665 341.6 225.1
562(13) 0.00611 341.7 198.3
532(13) 0.00630 341.7 177.0
535(12) 0.00657 341.8 161.9
508(12) 0.00714 341.8 154.4
507(12) 0.00738 341.9 156.7
537(12) 0.00641 341.9 171.6
536(13) 0.00616 342.0 201.2
621(13) 0.00552 342.0 245.6
708(14) 0.00510 342.0 301.2
724(14) 0.00518 342.1 358.2
857(16) 0.00405 342.1 400.4
853(16) 0.00371 342.2 409.1
799(15) 0.00428 342.2 377.9
725(14) 0.00509 342.3 319.3
587(13) 0.00632 342.3 252.1
550(13) 0.00637 342.4 189.8
512(13) 0.00621 342.4 139.3
460(11) 0.00756 342.5 102.2
432(11) 0.00864 342.5 77.1
412(11) 0.00906 342.6 60.9
412(11) 0.00859 342.6 50.6
397(11) 0.00835 342.6 43.8
401(11) 0.00876 342.7 39.1
383(10) 0.00965 342.7 35.5
360(10) 0.01013 342.8 32.7
375(10) 0.00925 342.8 30.3
372(11) 0.00895 342.9 28.2
380(10) 0.00910 342.9 26.4
361(10) 0.01036 343.0 24.8
374(10) 0.00984 343.0 23.4
374(10) 0.00936 343.1 22.1
366(10) 0.00923 343.1 21.0
372(10) 0.00945 343.2 20.0
345(10) 0.01068 343.2 19.0
357(10) 0.01004 343.2 18.2
371(10) 0.00934 343.3 17.4
379(10) 0.00912 343.3 16.7
367(10) 0.00954 343.4 16.0
356(10) 0.01055 343.4 15.4
333(10) 0.01071 343.5 14.9
349(10) 0.00932 343.5 14.3
332(10) 0.01050 343.6 13.8
352(10) 0.01014 343.6 13.4
338(10) 0.01097 343.7 13.0
368(10) 0.00951 343.7 12.6
329(10) 0.01063 343.8 12.2
352(10) 0.00942 343.8 11.9
333(10) 0.01090 343.9 11.5
340(10) 0.01091 343.9 11.2
352(10) 0.00951 343.9 11.0
368(11) 0.00888 344.0 10.7
360(10) 0.00943 344.0 10.4
375(10) 0.00981 344.1 10.2
350(10) 0.01060 344.1 10.0
363(10) 0.00965 344.2 9.8
356(10) 0.00928 344.2 9.6
346(10) 0.00988 344.3 9.4
346(10) 0.01052 344.3 9.2
331(9) 0.01143 344.4 9.1
341(10) 0.01018 344.4 8.9
341(10) 0.00946 344.5 8.8
335(10) 0.01036 344.5 8.6
333(10) 0.01105 344.5 8.5
357(10) 0.01037 344.6 8.4
338(10) 0.01044 344.6 8.3
356(11) 0.00902 344.7 8.2
354(10) 0.01004 344.7 8.1
339(9) 0.01111 344.8 8.0
343(10) 0.01073 344.8 7.9
372(10) 0.00944 344.9 7.8
360(11) 0.00877 344.9 7.7
328(10) 0.01002 345.0 7.7
363(10) 0.01034 345.0 7.6
354(10) 0.01013 345.1 7.6
316(10) 0.01085 345.1 7.5
331(10) 0.01015 345.1 7.5
369(10) 0.00920 345.2 7.5
357(10) 0.01036 345.2 7.4
371(10) 0.00994 345.3 7.4
353(10) 0.00989 345.3 7.4
333(10) 0.01014 345.4 7.4
358(10) 0.00962 345.4 7.3
350(10) 0.01066 345.5 7.3
371(10) 0.00963 345.5 7.3
365(10) 0.00930 345.6 7.3
364(11) 0.00896 345.6 7.4
329(10) 0.01044 345.7 7.4
363(10) 0.01016 345.8 7.4
356(10) 0.00974 345.9 7.4
335(10) 0.00987 346.0 7.4
338(10) 0.01029 346.1 7.5
344(10) 0.01032 346.2 7.5
334(9) 0.01113 346.3 7.6
348(10) 0.01042 346.4 7.6
381(10) 0.00914 346.5 7.7
364(10) 0.00942 346.6 7.7
347(10) 0.01013 346.7 7.8
330(9) 0.01125 346.8 7.9
365(10) 0.00931 346.9 8.0
351(10) 0.00941 347.0 8.1
352(10) 0.00987 347.1 8.2
355(10) 0.01014 347.2 8.3
340(10) 0.01105 347.3 8.4
360(10) 0.00953 347.4 8.5
332(10) 0.00972 347.5 8.7
353(10) 0.00944 347.6 8.8
359(10) 0.01010 347.7 9.0
350(10) 0.01052 347.8 9.2
358(10) 0.00980 347.9 9.3
371(11) 0.00867 348.0 9.5
362(10) 0.00940 348.0 9.7
370(10) 0.00995 348.1 10.0
329(9) 0.01126 348.2 10.2
348(10) 0.01008 348.3 10.5
356(10) 0.00910 348.4 10.7
343(10) 0.01056 348.5 11.0
349(10) 0.01068 348.6 11.3
345(10) 0.01079 348.7 11.7
359(10) 0.00984 348.8 12.0
329(10) 0.01001 348.9 12.4
331(10) 0.01016 349.0 12.8
368(10) 0.01001 349.1 13.2
358(10) 0.01016 349.2 13.7
374(10) 0.00956 349.3 14.2
361(10) 0.00941 349.4 14.7
377(10) 0.00911 349.5 15.3
342(10) 0.01089 349.6 15.9
369(10) 0.00960 349.7 16.6
357(10) 0.00977 349.8 17.4
371(11) 0.00887 349.9 18.2
369(10) 0.00948 350.0 19.1
365(10) 0.01024 350.1 20.1
366(10) 0.00995 350.2 21.2
367(10) 0.00967 350.3 22.5
406(11) 0.00836 350.4 23.9
416(11) 0.00814 350.4 25.5
376(10) 0.00991 350.5 27.3
357(10) 0.00965 350.6 29.4
388(11) 0.00865 350.7 31.7
392(11) 0.00860 350.8 34.2
367(10) 0.00982 350.9 37.1
374(10) 0.00996 351.0 40.3
367(10) 0.00950 351.1 43.8
386(11) 0.00857 351.2 47.7
386(11) 0.00892 351.3 52.4
400(11) 0.00904 351.4 56.9
413(11) 0.00882 351.5 61.5
386(11) 0.00884 351.6 66.3
429(12) 0.00733 351.7 71.1
414(11) 0.00842 351.8 75.8
437(11) 0.00832 351.9 80.2
435(11) 0.00846 352.0 84.0
417(11) 0.00863 352.1 87.3
448(12) 0.00749 352.2 89.3
430(11) 0.00823 352.3 90.2
449(11) 0.00815 352.4 90.1
489(12) 0.00756 352.5 89.0
429(11) 0.00842 352.6 87.1
448(12) 0.00715 352.7 84.6
402(11) 0.00862 352.8 82.3
432(11) 0.00849 352.8 79.4
434(11) 0.00844 352.9 76.4
448(11) 0.00767 353.0 73.6
431(12) 0.00722 353.1 71.1
383(10) 0.00913 353.2 68.8
396(10) 0.00929 353.3 66.8
395(10) 0.00931 353.4 65.1
407(11) 0.00825 353.5 63.8
402(11) 0.00808 353.6 62.8
425(11) 0.00788 353.7 62.2
402(10) 0.00924 353.8 61.9
427(11) 0.00859 353.9 61.9
376(10) 0.00938 354.0 62.3
399(11) 0.00822 354.1 63.1
442(11) 0.00767 354.2 64.4
432(11) 0.00871 354.3 66.0
420(11) 0.00862 354.4 68.2
426(11) 0.00822 354.5 71.0
411(11) 0.00818 354.6 74.4
445(12) 0.00738 354.7 78.5
430(11) 0.00860 354.8 83.5
410(11) 0.00898 354.9 89.4
476(12) 0.00723 355.0 96.3
467(12) 0.00723 355.1 104.3
446(11) 0.00767 355.1 113.4
469(11) 0.00797 355.2 123.7
486(12) 0.00723 355.3 135.1
488(12) 0.00676 355.4 147.5
505(12) 0.00676 355.5 160.9
523(12) 0.00675 355.6 174.9
535(12) 0.00694 355.7 189.3
564(13) 0.00611 355.8 203.3
574(13) 0.00590 355.9 216.5
605(13) 0.00565 356.0 227.8
615(13) 0.00581 356.1 236.5
633(13) 0.00588 356.2 241.6
615(13) 0.00561 356.3 242.6
584(13) 0.00587 356.4 239.4
608(13) 0.00578 356.5 232.1
597(13) 0.00600 356.6 221.6
577(12) 0.00646 356.7 208.4
539(13) 0.00625 356.8 193.8
532(13) 0.00622 356.9 178.3
524(12) 0.00666 357.0 162.7
505(12) 0.00736 357.1 147.5
462(11) 0.00800 357.2 133.1
459(12) 0.00751 357.3 119.6
460(12) 0.00719 357.4 107.3
444(11) 0.00797 357.5 96.0
411(11) 0.00887 357.5 86.0
423(11) 0.00877 357.6 77.1
409(11) 0.00864 357.7 69.3
417(11) 0.00776 357.8 62.6
395(11) 0.00856 357.9 56.7
390(10) 0.00952 358.0 51.7
383(10) 0.00978 358.1 47.3
387(11) 0.00895 358.2 43.7
383(11) 0.00829 358.3 40.5
377(10) 0.00931 358.4 37.8
357(10) 0.01024 358.5 35.5
358(10) 0.01032 358.6 33.5
390(11) 0.00864 358.7 31.8
348(10) 0.00959 358.8 30.4
374(10) 0.00942 358.9 29.1
385(10) 0.00959 359.0 28.0
388(10) 0.00970 359.1 27.0
397(11) 0.00862 359.2 26.1
353(10) 0.00953 359.3 25.4
374(10) 0.00934 359.4 24.7
388(10) 0.00956 359.5 24.2
388(10) 0.00933 359.6 23.7
372(11) 0.00904 359.7 23.3
382(11) 0.00891 359.7 23.0
403(11) 0.00875 359.8 22.8
337(10) 0.01085 359.8 22.6
367(10) 0.00977 359.8 22.5
387(11) 0.00880 359.8 22.4
374(11) 0.00867 359.8 22.5
367(10) 0.00953 359.8 22.6
351(10) 0.01054 359.8 22.8
392(11) 0.00892 359.8 23.1
353(10) 0.00958 359.8 23.4
348(10) 0.00971 359.8 23.9
356(10) 0.00968 359.8 24.5
369(10) 0.01015 359.8 25.2
369(10) 0.00927 359.9 26.0
379(11) 0.00890 359.9 27.0
360(10) 0.00987 359.9 28.2
368(10) 0.01004 359.9 29.7
364(10) 0.01015 359.9 31.6
389(11) 0.00898 359.9 33.9
393(11) 0.00863 359.9 36.9
406(11) 0.00858 359.9 40.7
417(11) 0.00875 359.9 45.1
393(10) 0.00939 359.9 50.2
398(11) 0.00864 359.9 55.8
410(11) 0.00797 360.0 61.6
415(11) 0.00846 360.0 67.9
432(11) 0.00865 360.0 75.8
456(11) 0.00820 360.0 87.2
442(11) 0.00804 360.0 102.8
455(12) 0.00713 360.0 124.6
496(12) 0.00693 360.0 154.2
545(12) 0.00664 360.0 192.8
615(13) 0.00608 360.0 241.3
672(14) 0.00530 360.0 299.5
790(16) 0.00398 360.0 365.8
935(17) 0.00367 360.1 436.8
1027(17) 0.00361 360.1 506.4
1145(18) 0.003248 360.1 564.8
1175(18) 0.002950 360.1 600.4
1188(19) 0.002740 360.1 604.1
1118(18) 0.003169 360.1 574.9
1057(17) 0.00355 360.1 520.4
895(16) 0.00414 360.1 452.3
822(15) 0.00423 360.1 380.7
756(15) 0.00433 360.1 312.9
656(14) 0.00533 360.1 252.6
613(13) 0.00604 360.1 201.6
573(13) 0.00635 360.2 160.3
558(13) 0.00608 360.2 127.9
504(12) 0.00667 360.2 103.3
531(12) 0.00651 360.2 85.0
479(11) 0.00774 360.2 71.4
464(11) 0.00772 360.2 61.5
445(11) 0.00764 360.2 54.0
441(11) 0.00761 360.2 48.4
447(12) 0.00753 360.2 44.0
431(11) 0.00867 360.2 40.5
450(11) 0.00806 360.2 37.7
393(11) 0.00892 360.3 35.4
427(11) 0.00793 360.3 33.4
417(11) 0.00853 360.3 31.7
409(10) 0.00917 360.3 30.4
386(10) 0.00912 360.3 29.2
414(11) 0.00800 360.3 28.2
396(11) 0.00873 360.3 27.5
395(11) 0.00900 360.3 26.9
389(10) 0.00967 360.3 26.5
391(11) 0.00898 360.3 26.2
430(12) 0.00748 360.3 26.0
410(11) 0.00834 360.4 25.9
372(10) 0.00978 360.4 26.0
410(10) 0.00919 360.4 26.2
389(11) 0.00899 360.4 26.6
399(11) 0.00837 360.4 27.1
395(11) 0.00882 360.4 27.8
398(10) 0.00923 360.4 28.7
398(10) 0.00933 360.4 29.8
398(11) 0.00831 360.4 31.1
394(11) 0.00824 360.4 32.8
402(11) 0.00877 360.4 34.8
419(11) 0.00891 360.4 37.4
443(11) 0.00834 360.5 40.6
436(11) 0.00823 360.5 44.9
465(12) 0.00677 360.5 50.4
432(11) 0.00817 360.5 57.9
465(11) 0.00794 360.5 67.9
490(12) 0.00749 360.5 81.3
495(12) 0.00721 360.5 99.0
534(13) 0.00609 360.5 121.8
546(13) 0.00632 360.5 150.4
613(13) 0.00606 360.5 185.2
620(13) 0.00602 360.5 226.1
694(14) 0.00512 360.6 271.7
726(15) 0.00463 360.6 319.8
798(15) 0.00437 360.6 366.1
854(15) 0.00436 360.6 404.3
918(16) 0.00396 360.6 427.4
901(16) 0.00391 360.6 429.8
925(17) 0.00358 360.6 410.9
840(16) 0.00415 360.6 375.4
745(14) 0.00500 360.6 330.3
664(14) 0.00544 360.6 282.1
572(13) 0.00606 360.6 235.6
533(12) 0.00649 360.7 193.5
497(12) 0.00709 360.7 157.3
472(11) 0.00784 360.7 127.2
436(11) 0.00802 360.7 103.1
428(11) 0.00797 360.7 84.3
428(11) 0.00800 360.7 70.0
421(11) 0.00840 360.7 59.3
394(10) 0.00951 360.7 51.2
415(11) 0.00846 360.7 45.2
427(11) 0.00774 360.7 40.7
388(11) 0.00902 360.7 37.1
372(10) 0.00980 360.8 34.4
385(10) 0.00967 360.8 32.2
379(10) 0.00911 360.8 30.4
384(11) 0.00853 360.8 28.9
387(11) 0.00884 360.8 27.6
373(10) 0.00975 360.8 26.6
382(10) 0.00979 360.8 25.8
383(11) 0.00897 360.8 25.2
358(10) 0.00919 360.8 24.7
386(11) 0.00881 360.8 24.3
374(10) 0.00993 360.8 24.1
397(10) 0.00938 360.8 24.0
384(10) 0.00913 360.9 24.0
378(11) 0.00896 360.9 24.2
367(10) 0.00965 360.9 24.5
391(10) 0.00935 360.9 24.9
375(10) 0.00992 360.9 25.5
370(10) 0.00925 360.9 26.3
372(11) 0.00865 360.9 27.2
386(11) 0.00902 360.9 28.4
391(10) 0.00946 360.9 29.8
395(10) 0.00933 360.9 31.5
358(10) 0.01004 360.9 33.6
389(11) 0.00815 361.0 36.2
408(11) 0.00855 361.0 39.4
410(10) 0.00916 361.0 43.6
387(10) 0.00941 361.0 49.1
403(11) 0.00886 361.0 56.5
416(11) 0.00793 361.0 66.8
419(11) 0.00857 361.0 80.9
437(11) 0.00841 361.0 100.2
439(11) 0.00829 361.0 125.9
509(12) 0.00697 361.0 159.4
568(13) 0.00598 361.0 201.1
566(13) 0.00609 361.1 251.0
631(13) 0.00587 361.1 307.2
717(14) 0.00506 361.1 365.8
786(15) 0.00443 361.1 419.9
847(16) 0.00389 361.1 459.2
815(15) 0.00417 361.1 473.6
845(15) 0.00443 361.1 458.6
753(15) 0.00474 361.1 419.0
691(14) 0.00499 361.1 364.7
675(14) 0.00505 361.1 306.0
589(13) 0.00612 361.1 249.8
549(12) 0.00678 361.1 200.1
527(12) 0.00666 361.2 158.5
522(12) 0.00640 361.2 125.2
492(12) 0.00700 361.2 99.6
488(12) 0.00741 361.2 80.4
454(11) 0.00820 361.2 66.3
425(11) 0.00812 361.2 56.2
420(11) 0.00800 361.2 48.8
414(11) 0.00832 361.2 43.3
414(11) 0.00857 361.2 39.1
392(10) 0.00949 361.2 35.8
371(11) 0.00903 361.2 33.3
386(11) 0.00857 361.3 31.1
403(11) 0.00864 361.3 29.4
390(10) 0.00943 361.3 28.0
378(10) 0.00996 361.3 26.9
387(10) 0.00920 361.3 25.9
367(11) 0.00902 361.3 25.2
398(11) 0.00873 361.3 24.8
384(10) 0.00959 361.3 24.6
406(10) 0.00922 361.3 24.8
376(11) 0.00906 361.3 25.4
384(11) 0.00806 361.3 26.7
416(11) 0.00822 361.4 29.1
405(10) 0.00911 361.4 32.9
402(11) 0.00903 361.4 38.5
402(11) 0.00829 361.4 46.1
414(11) 0.00765 361.4 55.6
414(11) 0.00818 361.4 66.6
444(11) 0.00830 361.4 77.7
445(11) 0.00834 361.4 86.6
446(11) 0.00818 361.4 90.7
466(12) 0.00703 361.4 88.3
436(11) 0.00782 361.4 80.2
420(11) 0.00885 361.4 69.0
393(10) 0.00922 361.5 57.4
401(11) 0.00885 361.5 46.9
397(11) 0.00836 361.5 38.1
394(11) 0.00870 361.5 31.4
384(10) 0.00964 361.5 26.5
395(10) 0.00915 361.5 23.2
386(10) 0.00912 361.5 20.9
392(11) 0.00867 361.5 19.4
389(11) 0.00853 361.5 18.3
387(10) 0.00949 361.5 17.6
384(10) 0.00962 361.5 17.1
388(11) 0.00883 361.6 16.7
364(10) 0.00919 361.6 16.3
357(10) 0.00992 361.6 16.1
337(9) 0.01112 361.6 15.9
373(10) 0.00965 361.6 15.7
377(11) 0.00897 361.6 15.6
340(10) 0.01005 361.6 15.6
342(10) 0.01050 361.6 15.5
373(10) 0.01004 361.6 15.5
368(10) 0.00969 361.6 15.5
378(11) 0.00883 361.6 15.5
358(10) 0.00980 361.7 15.6
394(11) 0.00900 361.7 15.7
361(10) 0.01030 361.7 15.7
384(10) 0.00909 361.7 15.9
364(10) 0.00927 361.7 16.0
356(10) 0.01001 361.7 16.1
374(10) 0.00999 361.7 16.3
357(10) 0.01046 361.7 16.4
361(10) 0.00987 361.7 16.6
342(10) 0.00964 361.7 16.8
383(11) 0.00887 361.7 17.1
358(10) 0.01027 361.8 17.3
358(10) 0.01030 361.8 17.6
364(10) 0.00940 361.8 17.8
360(10) 0.00923 361.7 18.1
355(10) 0.00984 361.7 18.4
352(10) 0.01030 361.7 18.8
379(10) 0.00987 361.6 19.1
371(10) 0.00954 361.6 19.5
366(11) 0.00858 361.6 19.9
377(10) 0.00918 361.5 20.3
389(10) 0.00945 361.5 20.7
387(10) 0.00960 361.5 21.1
408(11) 0.00806 361.4 21.6
341(10) 0.00956 361.4 22.1
354(10) 0.00994 361.3 22.6
379(10) 0.00990 361.3 23.2
348(10) 0.01060 361.3 23.8
376(11) 0.00901 361.2 24.4
366(10) 0.00916 361.2 25.0
362(10) 0.00961 361.2 25.7
379(10) 0.00982 361.1 26.4
391(11) 0.00903 361.1 27.2
336(10) 0.01044 361.1 28.0
357(10) 0.00933 361.0 28.8
375(10) 0.00914 361.0 29.7
364(10) 0.01026 361.0 30.7
390(10) 0.00908 360.9 31.7
359(10) 0.00964 360.9 32.7
391(11) 0.00870 360.8 33.9
373(10) 0.00930 360.8 35.1
377(10) 0.00981 360.8 36.3
348(10) 0.01027 360.7 37.7
364(10) 0.00946 360.7 39.1
393(11) 0.00882 360.7 40.7
396(11) 0.00895 360.6 42.4
383(10) 0.00963 360.6 44.1
404(11) 0.00889 360.6 46.1
394(11) 0.00877 360.5 48.2
387(11) 0.00867 360.5 50.5
397(11) 0.00865 360.5 53.0
427(11) 0.00869 360.4 55.7
387(11) 0.00891 360.4 58.7
419(11) 0.00816 360.3 62.1
407(11) 0.00882 360.3 65.7
429(11) 0.00845 360.3 69.8
440(11) 0.00841 360.2 74.3
422(11) 0.00799 360.2 79.3
416(11) 0.00793 360.2 84.9
453(11) 0.00764 360.1 91.2
449(11) 0.00828 360.1 98.2
467(11) 0.00804 360.1 105.9
436(11) 0.00821 360.0 114.5
460(12) 0.00721 360.0 124.1
487(12) 0.00717 360.0 134.7
467(11) 0.00785 359.9 146.5
465(11) 0.00794 359.9 159.4
485(12) 0.00719 359.8 173.6
522(13) 0.00612 359.8 189.1
520(12) 0.00700 359.8 206.0
587(13) 0.00630 359.7 224.3
578(13) 0.00637 359.7 244.0
583(13) 0.00598 359.7 265.2
595(14) 0.00544 359.6 287.7
629(13) 0.00554 359.6 311.6
670(13) 0.00552 359.6 336.7
695(14) 0.00527 359.5 362.8
721(14) 0.00490 359.5 389.7
837(16) 0.00396 359.4 417.1
854(16) 0.00409 359.4 444.6
861(15) 0.00429 359.4 471.7
831(15) 0.00438 359.3 497.9
932(16) 0.00379 359.3 522.4
956(17) 0.003487 359.3 544.5
928(16) 0.00374 359.2 563.4
905(16) 0.00414 359.2 578.3
974(17) 0.00365 359.2 588.7
901(16) 0.00387 359.1 594.1
924(17) 0.00361 359.1 594.1
907(16) 0.00383 359.1 588.8
851(15) 0.00437 359.0 578.5
878(16) 0.00405 359.0 563.7
870(16) 0.00397 358.9 545.0
864(16) 0.00401 358.9 523.2
829(15) 0.00434 358.9 499.2
745(14) 0.00499 358.8 473.5
786(15) 0.00443 358.8 447.1
745(15) 0.00455 358.8 420.4
729(15) 0.00470 358.7 393.9
710(14) 0.00497 358.7 368.2
662(13) 0.00563 358.7 343.4
660(14) 0.00511 358.6 319.9
629(14) 0.00530 358.6 298.0
641(14) 0.00526 358.6 277.8
615(13) 0.00596 358.5 259.5
593(13) 0.00627 358.5 243.2
620(14) 0.00548 358.4 228.9
600(13) 0.00563 358.4 216.6
586(13) 0.00611 358.4 206.4
579(13) 0.00634 358.3 198.1
593(13) 0.00628 358.3 191.5
554(13) 0.00603 358.3 186.3
541(13) 0.00598 358.2 181.9
566(13) 0.00621 358.2 177.8
553(12) 0.00669 358.2 173.1
577(13) 0.00637 358.1 167.2
526(12) 0.00674 358.1 159.8
542(13) 0.00578 358.1 150.9
529(12) 0.00653 358.0 141.2
514(12) 0.00709 358.0 131.2
508(12) 0.00733 357.9 121.3
494(12) 0.00681 357.9 112.2
453(12) 0.00724 357.9 103.8
445(11) 0.00795 357.8 96.5
464(11) 0.00806 357.8 90.1
441(11) 0.00836 357.8 84.8
453(11) 0.00765 357.7 80.3
459(12) 0.00718 357.7 76.8
434(11) 0.00800 357.7 74.1
427(11) 0.00881 357.6 72.1
427(11) 0.00863 357.6 70.8
415(11) 0.00831 357.6 70.1
420(11) 0.00780 357.5 69.9
446(11) 0.00780 357.5 70.4
440(11) 0.00845 357.4 71.4
417(11) 0.00856 357.4 72.9
423(11) 0.00811 357.4 75.1
423(11) 0.00804 357.3 77.8
442(11) 0.00757 357.3 81.2
440(11) 0.00849 357.3 85.2
427(11) 0.00824 357.2 89.9
429(11) 0.00794 357.2 95.2
426(11) 0.00833 357.2 101.1
448(11) 0.00800 357.1 107.4
474(11) 0.00786 357.1 114.2
482(12) 0.00727 357.1 121.3
463(12) 0.00750 357.0 128.4
509(12) 0.00649 357.0 135.3
498(12) 0.00720 356.9 141.5
509(12) 0.00727 356.9 146.8
510(12) 0.00685 356.9 150.6
504(12) 0.00670 356.8 152.6
473(12) 0.00727 356.8 152.7
478(12) 0.00755 356.8 150.8
501(12) 0.00742 356.7 147.2
488(12) 0.00702 356.7 142.1
477(12) 0.00698 356.7 136.0
471(11) 0.00756 356.6 129.2
485(12) 0.00731 356.6 122.1
436(11) 0.00860 356.5 115.1
466(12) 0.00744 356.5 108.2
443(12) 0.00749 356.5 101.7
435(11) 0.00782 356.4 95.6
444(11) 0.00817 356.4 90.1
430(11) 0.00874 356.4 85.0
429(11) 0.00818 356.3 80.4
418(11) 0.00814 356.3 76.3
422(11) 0.00842 356.3 72.7
422(11) 0.00886 356.2 69.5
455(11) 0.00808 356.2 66.7
435(11) 0.00795 356.2 64.2
404(11) 0.00801 356.1 62.0
405(11) 0.00855 356.1 60.1
407(11) 0.00903 356.0 58.3
420(11) 0.00888 356.0 56.7
422(11) 0.00850 356.0 55.2
425(12) 0.00751 355.9 53.9
400(11) 0.00868 355.9 52.5
417(11) 0.00897 355.9 51.2
399(10) 0.00919 355.8 50.0
404(11) 0.00881 355.8 48.7
394(11) 0.00867 355.8 47.4
375(10) 0.00925 355.7 46.2
399(10) 0.00930 355.7 44.9
375(10) 0.00985 355.7 43.6
390(11) 0.00903 355.6 42.3
385(11) 0.00906 355.6 41.1
402(11) 0.00879 355.5 39.8
359(10) 0.01032 355.5 38.5
378(10) 0.00959 355.5 37.3
397(11) 0.00860 355.4 36.1
386(11) 0.00879 355.4 34.9
418(11) 0.00838 355.4 33.8
374(10) 0.00997 355.3 32.6
408(11) 0.00860 355.3 31.5
363(10) 0.00927 355.3 30.5
400(11) 0.00831 355.2 29.5
389(10) 0.00923 355.2 28.5
385(10) 0.00967 355.2 27.6
367(10) 0.00959 355.1 26.7
388(11) 0.00850 355.1 25.9
364(10) 0.00959 355.0 25.1
383(10) 0.00947 355.0 24.4
370(10) 0.01015 355.0 23.7
363(10) 0.00960 354.9 23.0
375(10) 0.00909 354.9 22.4
382(11) 0.00898 354.9 21.8
387(10) 0.00930 354.8 21.3
349(10) 0.01080 354.8 20.8
354(10) 0.00944 354.8 20.3
364(11) 0.00895 354.7 19.9
371(10) 0.00945 354.7 19.5
373(10) 0.00972 354.7 19.2
360(10) 0.01035 354.6 18.9
373(11) 0.00905 354.6 18.7
361(11) 0.00890 354.5 18.4
366(10) 0.00921 354.5 18.3
343(10) 0.01075 354.5 18.1
370(10) 0.01009 354.4 18.0
357(10) 0.00985 354.4 18.0
389(11) 0.00813 354.4 18.0
384(10) 0.00927 354.3 18.0
378(10) 0.00972 354.3 18.1
377(10) 0.00982 354.3 18.3
385(11) 0.00886 354.2 18.5
358(10) 0.00926 354.2 18.7
343(10) 0.01053 354.2 19.1
394(10) 0.00948 354.1 19.6
416(11) 0.00879 354.1 20.1
365(10) 0.00988 354.0 20.8
385(11) 0.00862 354.0 21.5
363(10) 0.00997 354.0 22.5
382(10) 0.00971 353.9 23.5
395(10) 0.00916 353.9 24.8
387(11) 0.00904 353.9 26.3
397(11) 0.00828 353.8 27.9
367(10) 0.00951 353.8 29.8
374(10) 0.00996 353.8 32.0
391(10) 0.00934 353.7 34.4
411(11) 0.00840 353.7 37.0
401(11) 0.00862 353.6 40.0
404(11) 0.00879 353.6 43.2
420(11) 0.00892 353.6 46.8
404(11) 0.00868 353.5 50.6
435(11) 0.00757 353.5 54.6
419(11) 0.00830 353.5 58.8
422(11) 0.00850 353.4 63.2
428(11) 0.00864 353.4 67.7
442(11) 0.00788 353.4 72.1
421(11) 0.00806 353.3 76.5
443(12) 0.00753 353.3 80.5
446(11) 0.00814 353.3 84.1
422(11) 0.00875 353.2 87.1
451(11) 0.00770 353.2 89.3
473(12) 0.00693 353.1 90.6
453(11) 0.00787 353.1 90.9
482(12) 0.00745 353.1 90.1
489(11) 0.00764 353.0 88.3
477(12) 0.00738 353.0 85.7
476(12) 0.00672 353.0 82.4
450(11) 0.00780 352.9 78.5
417(11) 0.00894 352.9 74.2
442(11) 0.00846 352.9 69.7
432(11) 0.00821 352.8 65.1
455(12) 0.00714 352.8 60.6
407(11) 0.00884 352.8 56.1
397(10) 0.00956 352.7 51.9
408(11) 0.00901 352.7 47.8
418(11) 0.00833 352.6 44.0
387(11) 0.00854 352.6 40.5
352(10) 0.01023 352.6 37.3
387(10) 0.00970 352.5 34.3
355(10) 0.01035 352.5 31.7
355(10) 0.00981 352.5 29.3
394(11) 0.00799 352.4 27.2
380(11) 0.00903 352.4 25.2
384(10) 0.00972 352.4 23.5
366(10) 0.00989 352.3 22.1
363(10) 0.00952 352.3 20.7
370(11) 0.00905 352.3 19.6
372(10) 0.00939 352.2 18.6
361(10) 0.01036 352.2 17.8
354(10) 0.01054 352.1 17.0
360(10) 0.00940 352.1 16.4
378(11) 0.00852 352.1 15.9
360(10) 0.00939 352.0 15.4
364(10) 0.01020 352.0 15.1
352(10) 0.01030 352.0 14.8
382(10) 0.00913 351.9 14.5
376(11) 0.00894 351.9 14.3
360(10) 0.00959 351.9 14.2
349(10) 0.01082 351.8 14.1
363(10) 0.00970 351.8 14.1
340(10) 0.01050 351.8 14.1
361(10) 0.00960 351.7 14.2
363(10) 0.00951 351.7 14.3
346(10) 0.01084 351.6 14.5
363(10) 0.00968 351.6 14.8
367(10) 0.00946 351.5 15.1
343(10) 0.01043 351.4 15.5
348(10) 0.01036 351.3 16.0
338(10) 0.01105 351.2 16.5
359(10) 0.00946 351.2 17.1
343(10) 0.00996 351.1 17.9
357(10) 0.00965 351.0 18.7
342(10) 0.01058 350.9 19.6
384(10) 0.00972 350.9 20.6
363(10) 0.00970 350.8 21.7
355(10) 0.00940 350.7 22.9
353(10) 0.01018 350.6 24.2
372(10) 0.00985 350.5 25.6
390(10) 0.00950 350.5 27.2
366(10) 0.00942 350.4 28.8
369(11) 0.00879 350.3 30.5
388(11) 0.00882 350.2 32.2
391(10) 0.00949 350.2 34.0
361(10) 0.01020 350.1 35.9
397(11) 0.00844 350.0 37.7
374(11) 0.00840 349.9 39.5
383(11) 0.00890 349.8 41.2
415(10) 0.00918 349.8 42.8
392(10) 0.00926 349.7 44.3
414(11) 0.00837 349.6 45.4
386(11) 0.00853 349.5 46.4
409(11) 0.00867 349.4 46.9
404(10) 0.00923 349.4 47.2
424(11) 0.00870 349.3 47.1
370(10) 0.00920 349.2 46.6
363(11) 0.00894 349.1 45.8
397(11) 0.00893 349.1 44.8
402(10) 0.00923 349.0 43.4
380(10) 0.00982 348.9 41.9
375(10) 0.00919 348.8 40.3
397(11) 0.00838 348.7 38.5
366(10) 0.00982 348.7 36.7
387(10) 0.00959 348.6 34.9
356(10) 0.01033 348.5 33.2
387(11) 0.00884 348.4 31.5
360(10) 0.00947 348.4 29.8
364(10) 0.00914 348.3 28.2
352(10) 0.01053 348.2 26.8
352(10) 0.01012 348.1 25.4
342(10) 0.01029 348.0 24.2
353(10) 0.00959 348.0 23.1
352(10) 0.00988 347.9 22.1
354(10) 0.01054 347.8 21.2
373(10) 0.00963 347.7 20.4
373(10) 0.00917 347.6 19.8
379(10) 0.00912 347.6 19.2
387(10) 0.00918 347.5 18.8
366(10) 0.01014 347.4 18.6
353(10) 0.00983 347.3 18.4
349(10) 0.00961 347.3 18.4
354(10) 0.00986 347.2 18.5
360(10) 0.01000 347.1 18.8
347(10) 0.01067 347.0 19.3
351(10) 0.00979 346.9 20.0
357(10) 0.00933 346.9 20.9
341(10) 0.01037 346.8 22.2
357(10) 0.01041 346.7 23.7
368(10) 0.01003 346.6 25.7
375(10) 0.00938 346.6 28.1
362(11) 0.00895 346.5 31.1
390(11) 0.00898 346.4 34.6
382(10) 0.00968 346.3 39.1
388(10) 0.00955 346.2 44.1
390(11) 0.00889 346.2 49.8
371(11) 0.00885 346.1 56.3
398(11) 0.00894 346.0 63.5
416(11) 0.00901 345.9 71.3
421(11) 0.00876 345.8 79.6
424(11) 0.00833 345.8 88.1
441(12) 0.00717 345.7 96.4
457(11) 0.00761 345.6 103.9
471(11) 0.00781 345.5 110.0
490(12) 0.00749 345.5 114.2
480(12) 0.00715 345.4 115.7
462(12) 0.00707 345.3 114.5
408(11) 0.00853 345.2 110.7
420(11) 0.00884 345.1 104.9
428(11) 0.00865 345.1 97.7
450(11) 0.00762 345.0 89.7
445(12) 0.00721 344.9 81.5
425(11) 0.00817 344.8 73.7
393(10) 0.00945 344.8 66.3
402(11) 0.00891 344.7 59.7
390(10) 0.00913 344.6 54.0
399(11) 0.00848 344.5 49.4
396(11) 0.00888 344.4 46.1
403(10) 0.00912 344.4 44.3
404(11) 0.00871 344.3 44.4
378(10) 0.00952 344.2 47.2
415(11) 0.00813 344.1 53.2
458(11) 0.00763 344.0 63.2
486(11) 0.00766 344.0 77.3
511(12) 0.00696 343.9 95.3
525(12) 0.00662 343.8 115.5
591(13) 0.00575 343.7 135.0
660(14) 0.00529 343.7 148.7
592(13) 0.00625 343.6 151.6
615(13) 0.00558 343.5 142.1
554(13) 0.00609 343.4 123.7
515(12) 0.00688 343.3 101.7
468(11) 0.00765 343.3 80.2
443(11) 0.00847 343.2 61.7
443(11) 0.00761 343.1 46.8
405(11) 0.00813 343.0 35.8
390(11) 0.00881 343.0 28.0
395(10) 0.00930 342.9 22.7
376(10) 0.00991 342.8 19.1
368(10) 0.00918 342.7 16.6
368(10) 0.00924 342.6 14.8
398(11) 0.00851 342.6 13.5
360(10) 0.01024 342.5 12.5
370(10) 0.01005 342.4 11.6
377(10) 0.00927 342.3 10.9
376(11) 0.00892 342.3 10.2
355(10) 0.00995 342.2 9.7
347(10) 0.01057 342.1 9.2
345(10) 0.01082 342.0 8.8
334(10) 0.01061 341.9 8.4
357(10) 0.00909 341.9 8.1
370(10) 0.00958 341.8 7.8
349(10) 0.01060 341.7 7.5
353(10) 0.01052 341.6 7.3
365(10) 0.00970 341.5 7.0
327(10) 0.01047 341.5 6.8
331(10) 0.01077 341.4 6.7
360(10) 0.01025 341.3 6.5
320(9) 0.01162 341.2 6.3
329(10) 0.01091 341.2 6.2
369(11) 0.00865 341.1 6.1
343(10) 0.00979 341.0 5.9
318(9) 0.01183 340.9 5.8
343(10) 0.01051 340.8 5.7
345(10) 0.00995 340.8 5.6
332(10) 0.01017 340.7 5.5
358(10) 0.00924 340.6 5.5
333(9) 0.01113 340.5 5.4
358(10) 0.00974 340.5 5.3
350(10) 0.00934 340.4 5.2
341(10) 0.00990 340.3 5.2
356(10) 0.00975 340.2 5.1
344(10) 0.01086 340.1 5.1
358(10) 0.00979 340.1 5.0
331(10) 0.01039 340.0 5.0
341(10) 0.00959 339.9 5.0
353(10) 0.00988 339.8 5.0
318(9) 0.01169 339.7 5.0
344(10) 0.00999 339.7 4.9
343(10) 0.00989 339.6 4.9
328(10) 0.01051 339.5 4.9
323(9) 0.01110 339.5 4.9
346(10) 0.01077 339.4 4.9
363(10) 0.00928 339.3 4.9
335(10) 0.01020 339.3 4.9
347(10) 0.00999 339.2 4.9
343(10) 0.01057 339.2 4.9
335(10) 0.01102 339.1 4.9
339(10) 0.01019 339.0 4.9
358(11) 0.00890 339.0 4.9
336(10) 0.01045 338.9 4.9
342(10) 0.01038 338.9 4.9
327(9) 0.01138 338.8 5.0
335(10) 0.01039 338.7 5.0
321(10) 0.01044 338.7 5.0
322(10) 0.01097 338.6 5.1
359(10) 0.01023 338.6 5.1
343(10) 0.01094 338.5 5.2
343(10) 0.01013 338.4 5.2
358(11) 0.00895 338.4 5.3
361(10) 0.00943 338.3 5.3
338(10) 0.01075 338.3 5.4
335(9) 0.01114 338.2 5.5
352(10) 0.00961 338.2 5.6
337(10) 0.00981 338.1 5.7
350(10) 0.01023 338.0 5.9
344(10) 0.01090 338.0 6.0
335(10) 0.01087 337.9 6.2
362(10) 0.00916 337.9 6.3
346(10) 0.00960 337.8 6.5
365(10) 0.00945 337.7 6.8
354(10) 0.01055 337.7 7.0
332(10) 0.01103 337.6 7.3
344(10) 0.01024 337.6 7.6
328(10) 0.01046 337.5 8.0
372(11) 0.00892 337.4 8.5
362(10) 0.01031 337.4 9.1
381(10) 0.00934 337.3 9.9
349(10) 0.01021 337.3 10.9
348(10) 0.01003 337.2 12.2
368(10) 0.00941 337.2 14.0
380(10) 0.00972 337.1 16.6
396(11) 0.00899 337.0 20.1
385(11) 0.00902 337.0 24.7
401(11) 0.00832 336.9 30.8
408(11) 0.00872 336.9 38.4
429(11) 0.00856 336.8 47.5
458(11) 0.00781 336.7 57.6
473(12) 0.00703 336.7 68.0
467(12) 0.00742 336.6 77.1
510(12) 0.00700 336.6 83.2
512(12) 0.00732 336.5 84.3
510(12) 0.00689 336.4 80.3
476(12) 0.00718 336.4 72.3
423(11) 0.00815 336.3 62.4
428(11) 0.00841 336.3 52.2
386(10) 0.00958 336.2 42.7
388(11) 0.00891 336.2 34.5
370(11) 0.00899 336.1 27.9
368(10) 0.00938 336.0 22.8
356(10) 0.01035 336.0 18.9
366(10) 0.01007 335.9 16.2
356(10) 0.01011 335.9 14.2
343(10) 0.00954 335.8 12.8
342(10) 0.01024 335.7 11.8
342(10) 0.01081 335.7 11.1
344(10) 0.01064 335.6 10.5
330(10) 0.01074 335.6 10.1
336(10) 0.00984 335.5 9.9
352(10) 0.01001 335.4 9.6
353(10) 0.01062 335.4 9.5
340(10) 0.01076 335.3 9.3
342(10) 0.01009 335.3 9.3
351(10) 0.00910 335.2 9.2
335(10) 0.01063 335.2 9.2
353(10) 0.01071 335.1 9.2
335(10) 0.01071 335.0 9.3
357(10) 0.00959 335.0 9.3
358(11) 0.00880 334.9 9.4
339(10) 0.01026 334.9 9.6
374(10) 0.00999 334.8 9.7
349(10) 0.01065 334.7 9.9
363(10) 0.00997 334.7 10.1
372(11) 0.00894 334.6 10.4
345(10) 0.01037 334.6 10.6
352(10) 0.01060 334.5 11.0
357(10) 0.01015 334.4 11.3
362(10) 0.00926 334.4 11.8
337(10) 0.01015 334.3 12.2
351(10) 0.00991 334.3 12.8
341(10) 0.01077 334.2 13.4
356(10) 0.01022 334.1 14.0
357(10) 0.00971 334.1 14.8
350(10) 0.01013 334.0 15.6
357(10) 0.00985 334.0 16.5
345(10) 0.01082 333.9 17.5
382(11) 0.00895 333.9 18.6
326(10) 0.01047 333.8 19.8
341(10) 0.01009 333.7 21.0
346(10) 0.01013 333.7 22.4
373(10) 0.00996 333.6 23.7
336(10) 0.01057 333.6 25.1
357(10) 0.00942 333.5 26.6
379(11) 0.00891 333.4 28.0
356(10) 0.01023 333.4 29.3
362(10) 0.01019 333.3 30.5
371(11) 0.00885 333.3 31.6
363(10) 0.00912 333.2 32.5
350(10) 0.01003 333.1 33.1
347(10) 0.01062 333.1 33.5
366(10) 0.01009 333.0 33.7
374(10) 0.00926 333.0 33.8
364(11) 0.00875 332.9 33.7
349(10) 0.00983 332.9 33.6
363(10) 0.01023 332.8 33.4
367(10) 0.01009 332.7 33.3
357(10) 0.01009 332.7 33.2
389(11) 0.00833 332.6 33.3
366(10) 0.00976 332.6 33.5
374(10) 0.00975 332.5 33.8
421(11) 0.00888 332.4 34.4
375(10) 0.00935 332.4 35.1
378(11) 0.00841 332.3 36.2
360(10) 0.00971 332.3 37.4
376(10) 0.00993 332.2 39.0
371(10) 0.00996 332.1 40.9
408(11) 0.00826 332.1 43.2
390(11) 0.00825 332.0 46.0
370(10) 0.00960 332.0 49.4
414(11) 0.00901 331.9 53.5
395(10) 0.00921 331.9 58.5
368(10) 0.00954 331.8 64.7
382(11) 0.00856 331.7 72.3
410(11) 0.00817 331.7 81.6
428(11) 0.00870 331.6 93.0
441(11) 0.00826 331.6 106.8
474(12) 0.00718 331.5 123.6
472(12) 0.00722 331.4 143.4
536(13) 0.00634 331.4 166.7
554(12) 0.00676 331.3 193.6
610(13) 0.00589 331.3 223.9
636(14) 0.00545 331.2 257.3
695(14) 0.00488 331.1 293.0
746(15) 0.00459 331.1 329.7
775(14) 0.00481 331.0 365.2
825(15) 0.00437 331.0 396.6
861(16) 0.00398 330.9 420.6
879(16) 0.00388 330.9 433.9
851(15) 0.00420 330.8 434.6
803(15) 0.00464 330.7 422.7
751(15) 0.00463 330.7 400.3
700(14) 0.00486 330.6 370.7
658(14) 0.00524 330.6 337.3
673(14) 0.00536 330.5 303.0
608(13) 0.00610 330.4 269.7
620(14) 0.00545 330.4 238.8
574(13) 0.00598 330.3 211.0
564(13) 0.00613 330.3 186.7
543(12) 0.00671 330.2 165.9
550(12) 0.00673 330.1 148.5
509(12) 0.00672 330.1 134.3
482(12) 0.00683 330.0 122.9
478(12) 0.00715 330.0 113.9
472(11) 0.00781 329.9 106.9
459(11) 0.00812 329.8 101.6
471(12) 0.00720 329.8 97.6
444(12) 0.00740 329.7 94.6
422(11) 0.00860 329.7 92.5
428(11) 0.00857 329.6 91.0
456(11) 0.00817 329.6 89.9
459(11) 0.00774 329.5 89.1
439(12) 0.00744 329.4 88.5
462(12) 0.00745 329.4 88.1
458(11) 0.00807 329.3 87.7
470(11) 0.00788 329.3 87.2
474(12) 0.00723 329.2 86.7
465(12) 0.00691 329.1 86.1
419(11) 0.00832 329.1 85.3
432(11) 0.00855 329.0 84.4
429(11) 0.00842 329.0 83.4
410(11) 0.00839 328.9 82.1
407(11) 0.00823 328.8 80.8
429(11) 0.00805 328.8 79.3
409(10) 0.00914 328.7 77.7
421(11) 0.00871 328.7 76.0
436(11) 0.00807 328.6 74.2
411(11) 0.00822 328.6 72.4
407(11) 0.00845 328.5 70.5
437(11) 0.00852 328.4 68.7
419(11) 0.00857 328.4 66.8
382(11) 0.00883 328.3 64.9
396(11) 0.00864 328.3 63.1
409(11) 0.00816 328.2 61.2
428(11) 0.00867 328.1 59.4
404(11) 0.00886 328.1 57.5
401(11) 0.00810 328.0 55.7
411(11) 0.00824 328.0 53.9
432(11) 0.00816 327.9 52.1
379(10) 0.00978 327.8 50.3
404(11) 0.00874 327.8 48.5
400(11) 0.00833 327.7 46.8
375(10) 0.00938 327.7 45.1
415(11) 0.00864 327.6 43.4
383(10) 0.00971 327.6 41.7
394(11) 0.00892 327.5 40.1
383(11) 0.00883 327.4 38.5
355(10) 0.01006 327.4 36.9
373(10) 0.00961 327.3 35.4
351(10) 0.01059 327.3 33.9
372(10) 0.00933 327.2 32.5
375(10) 0.00913 327.1 31.1
373(10) 0.00929 327.1 29.8
355(10) 0.01043 327.0 28.5
370(10) 0.01001 327.0 27.3
374(10) 0.00913 326.9 26.1
352(10) 0.00924 326.8 25.0
373(10) 0.00914 326.8 23.9
352(10) 0.01057 326.7 22.9
381(10) 0.00957 326.7 21.9
335(10) 0.01064 326.6 21.0
360(11) 0.00893 326.5 20.1
362(10) 0.00981 326.5 19.3
369(10) 0.01002 326.4 18.4
366(10) 0.01014 326.4 17.7
365(10) 0.00970 326.3 16.9
357(10) 0.00937 326.3 16.3
342(10) 0.01011 326.2 15.6
342(10) 0.01062 326.1 15.0
359(10) 0.01025 326.1 14.4
349(10) 0.01032 326.0 13.8
357(10) 0.00908 326.0 13.3
338(10) 0.01040 325.9 12.8
382(10) 0.00974 325.8 12.3
348(10) 0.01057 325.8 11.9
350(10) 0.00961 325.7 11.4
342(10) 0.00989 325.7 11.0
340(10) 0.01028 325.6 10.6
353(10) 0.01052 325.5 10.3
332(10) 0.01099 325.5 9.9
333(10) 0.01023 325.4 9.6
348(10) 0.00999 325.4 9.3
327(10) 0.01055 325.3 9.0
345(10) 0.01068 325.3 8.7
352(10) 0.01022 325.2 8.5
347(10) 0.00964 325.1 8.2
299(9) 0.01139 325.1 8.0
330(10) 0.01075 325.0 7.8
350(10) 0.01067 325.0 7.6
336(10) 0.01052 324.9 7.4
330(10) 0.01041 324.8 7.2
343(10) 0.01009 324.8 7.0
367(10) 0.00957 324.7 6.9
338(9) 0.01108 324.7 6.7
367(10) 0.00966 324.6 6.5
354(10) 0.00994 324.5 6.5
340(10) 0.01030 324.5 6.4
335(10) 0.01095 324.4 6.2
345(10) 0.01079 324.4 6.1
311(9) 0.01126 324.3 6.0
342(10) 0.00993 324.3 5.9
338(10) 0.01029 324.2 5.8
307(9) 0.01187 324.1 5.7
340(10) 0.01095 324.1 5.6
323(10) 0.01099 324.0 5.5
335(10) 0.00971 324.0 5.4
333(10) 0.01035 323.9 5.3
331(10) 0.01100 323.8 5.2
363(10) 0.01016 323.8 5.1
334(10) 0.01060 323.7 5.0
338(10) 0.00964 323.7 4.9
330(10) 0.01058 323.6 4.9
323(9) 0.01161 323.5 4.8
326(9) 0.01145 323.5 4.7
338(10) 0.01025 323.4 4.6
319(10) 0.01001 323.4 4.6
331(10) 0.01061 323.3 4.5
312(9) 0.01196 323.3 4.4
326(9) 0.01151 323.3 4.4
339(10) 0.01029 323.4 4.3
320(10) 0.01027 323.4 4.3
316(9) 0.01114 323.4 4.2
316(9) 0.01198 323.4 4.1
325(9) 0.01127 323.4 4.1
321(10) 0.01096 323.4 4.0
334(10) 0.00984 323.5 4.0
328(10) 0.01043 323.5 3.9
316(9) 0.01172 323.5 3.9
336(10) 0.01084 323.5 3.9
315(9) 0.01111 323.5 3.8
317(10) 0.01078 323.6 3.8
356(10) 0.00937 323.6 3.7
310(9) 0.01199 323.6 3.7
330(10) 0.01072 323.6 3.7
320(10) 0.01084 323.6 3.6
313(10) 0.01099 323.7 3.6
338(10) 0.01047 323.7 3.6
324(9) 0.01154 323.7 3.5
329(10) 0.01085 323.7 3.5
332(10) 0.01057 323.7 3.5
326(10) 0.01063 323.7 3.4
337(10) 0.01050 323.8 3.4
365(10) 0.01016 323.8 3.4
326(10) 0.01107 323.8 3.4
337(10) 0.01024 323.8 3.3
314(9) 0.01158 323.8 3.3
331(10) 0.01073 323.9 3.3
341(10) 0.01098 323.9 3.3
329(10) 0.01056 323.9 3.2
304(10) 0.01084 323.9 3.2
352(10) 0.00974 323.9 3.2
352(10) 0.01057 324.0 3.2
345(10) 0.01075 324.0 3.2
309(9) 0.01133 324.0 3.1
325(10) 0.01033 324.0 3.1
327(10) 0.01064 324.0 3.1
364(10) 0.01014 324.0 3.1
374(10) 0.00994 324.1 3.1
321(10) 0.01104 324.1 3.0
340(10) 0.00935 324.1 3.0
338(10) 0.00990 324.1 3.0
328(9) 0.01118 324.1 3.0
346(10) 0.01080 324.2 3.0
307(10) 0.01108 324.2 3.0
320(10) 0.00976 324.2 3.0
328(10) 0.01035 324.2 3.0
334(10) 0.01106 324.2 2.9
331(9) 0.01120 324.3 2.9
342(10) 0.01009 324.3 2.9
327(10) 0.01008 324.3 2.9
329(10) 0.01038 324.3 2.9
311(9) 0.01204 324.3 2.9
342(10) 0.01064 324.3 2.9
345(10) 0.01000 324.4 2.9
331(10) 0.00977 324.4 2.9
327(10) 0.01039 324.4 2.9
355(10) 0.01025 324.4 2.9
314(9) 0.01166 324.4 2.9
343(10) 0.00990 324.5 2.9
333(10) 0.00999 324.5 2.9
327(10) 0.01066 324.5 2.9
334(9) 0.01116 324.5 2.9
317(9) 0.01138 324.5 2.9
315(10) 0.01093 324.6 2.9
338(10) 0.01010 324.6 2.9
328(10) 0.01079 324.6 2.9
304(9) 0.01229 324.6 2.9
340(10) 0.01057 324.6 2.9
354(10) 0.00965 324.7 2.9
332(10) 0.01027 324.7 2.9
325(10) 0.01072 324.7 2.9
331(9) 0.01135 324.7 2.9
334(10) 0.01055 324.7 2.9
355(10) 0.00925 324.7 2.9
329(10) 0.01037 324.8 2.9
347(10) 0.01044 324.8 2.9
332(9) 0.01141 324.8 2.9
343(10) 0.01002 324.8 3.0
326(10) 0.01045 324.8 3.0
320(10) 0.01082 324.9 3.0
319(9) 0.01147 324.9 3.0
329(9) 0.01126 324.9 3.0
346(10) 0.00987 324.9 3.0
320(10) 0.01063 324.9 3.0
320(10) 0.01063 325.0 3.1
333(10) 0.01086 325.0 3.1
309(9) 0.01213 325.0 3.1
327(10) 0.01090 325.0 3.1
306(10) 0.01104 325.0 3.1
330(10) 0.01060 325.0 3.2
328(9) 0.01144 325.1 3.2
322(9) 0.01142 325.1 3.2
308(9) 0.01160 325.1 3.2
332(10) 0.00955 325.1 3.3
333(10) 0.01031 325.1 3.3
334(9) 0.01119 325.2 3.3
330(9) 0.01123 325.2 3.4
314(10) 0.01080 325.2 3.4
319(10) 0.00993 325.2 3.4
349(10) 0.00995 325.2 3.5
331(9) 0.01135 325.3 3.5
318(9) 0.01151 325.3 3.6
338(10) 0.00980 325.3 3.7
330(10) 0.00957 325.3 3.7
340(10) 0.01037 325.3 3.7
307(9) 0.01204 325.3 3.8
315(9) 0.01172 325.3 3.9
336(10) 0.01058 325.3 3.9
332(10) 0.01036 325.3 4.0
334(10) 0.01033 325.3 4.0
339(10) 0.01081 325.3 4.1
314(9) 0.01151 325.3 4.2
321(10) 0.01051 325.3 4.2
334(10) 0.00969 325.3 4.3
319(10) 0.01075 325.3 4.4
332(9) 0.01121 325.3 4.5
318(10) 0.01107 325.3 4.6
322(10) 0.01049 325.3 4.6
345(10) 0.00968 325.3 4.7
326(10) 0.01090 325.3 4.8
335(9) 0.01115 325.3 4.9
333(10) 0.01043 325.3 5.1
336(10) 0.01007 325.3 5.2
333(10) 0.01036 325.3 5.3
325(9) 0.01114 325.3 5.4
306(9) 0.01224 325.3 5.6
313(10) 0.01067 325.3 5.7
344(10) 0.00974 325.3 5.9
342(10) 0.01023 325.3 6.0
348(10) 0.01044 325.3 6.2
327(9) 0.01125 325.3 6.4
330(10) 0.01019 325.3 6.6
330(10) 0.01008 325.3 6.8
347(10) 0.00979 325.3 7.1
324(9) 0.01127 325.3 7.4
342(10) 0.01097 325.3 7.6
329(10) 0.01035 325.3 7.9
320(10) 0.01028 325.3 8.3
314(9) 0.01109 325.3 8.7
325(9) 0.01132 325.3 9.1
334(10) 0.01102 325.3 9.5
328(10) 0.01024 325.3 10.0
301(10) 0.01089 325.3 10.5
314(9) 0.01128 325.3 11.1
351(10) 0.01068 325.3 11.7
347(10) 0.01037 325.3 12.4
322(10) 0.01072 325.3 13.2
349(11) 0.00903 325.3 14.0
352(10) 0.00958 325.3 14.9
332(9) 0.01119 325.3 15.9
372(10) 0.00988 325.3 17.0
363(10) 0.00928 325.3 18.2
340(10) 0.00938 325.3 19.4
339(10) 0.00991 325.3 20.8
363(10) 0.01027 325.3 22.2
344(10) 0.01066 325.3 23.8
348(10) 0.01033 325.3 25.5
344(10) 0.00965 325.3 27.3
329(10) 0.01080 325.3 29.2
366(10) 0.01016 325.3 31.2
372(10) 0.00955 325.3 33.3
343(10) 0.00994 325.3 35.5
358(10) 0.00941 325.3 37.9
365(10) 0.00937 325.3 40.2
387(10) 0.00967 325.3 42.7
383(10) 0.00940 325.3 45.2
384(11) 0.00898 325.3 47.7
364(10) 0.00953 325.3 50.3
337(10) 0.01069 325.3 52.8
370(10) 0.01010 325.3 55.2
357(10) 0.01025 325.3 57.6
355(10) 0.00947 325.3 59.8
387(11) 0.00866 325.3 61.8
377(10) 0.00959 325.3 63.5
407(10) 0.00920 325.3 65.1
393(11) 0.00884 325.3 66.4
380(10) 0.00915 325.3 67.6
374(10) 0.00945 325.3 68.9
398(11) 0.00907 325.3 70.7
416(11) 0.00902 325.3 73.6
415(11) 0.00853 325.3 78.4
424(11) 0.00778 325.3 85.9
418(11) 0.00814 325.3 96.6
433(11) 0.00864 325.3 109.7
436(11) 0.00825 325.3 123.4
483(12) 0.00718 325.3 133.9
502(12) 0.00651 325.3 136.5
466(12) 0.00751 325.3 129.0
465(11) 0.00803 325.3 113.7
415(11) 0.00891 325.3 95.5
409(11) 0.00828 325.3 78.1
400(11) 0.00792 325.3 63.4
373(10) 0.00932 325.3 52.0
364(10) 0.01005 325.3 43.9
386(10) 0.00974 325.3 38.3
342(10) 0.01059 325.3 34.2
364(11) 0.00898 325.3 31.0
367(10) 0.00945 325.3 28.5
340(10) 0.01098 325.3 26.3
330(9) 0.01133 325.3 24.4
327(10) 0.01098 325.3 22.6
351(10) 0.00977 325.3 21.1
370(10) 0.00934 325.3 19.6
330(9) 0.01122 325.3 18.3
307(9) 0.01192 325.3 17.1
332(10) 0.01019 325.3 16.0
316(10) 0.01056 325.3 15.1
334(10) 0.00991 325.3 14.2
319(9) 0.01177 325.3 13.3
333(10) 0.01064 325.3 12.6
326(10) 0.01069 325.3 11.9
332(10) 0.00978 325.3 11.3
332(10) 0.01055 325.3 10.8
342(10) 0.01090 325.3 10.3
338(10) 0.01052 325.3 9.8
344(10) 0.00954 325.3 9.4
325(10) 0.01055 325.3 9.1
331(10) 0.01057 325.3 8.7
311(9) 0.01204 325.3 8.4
325(10) 0.01075 325.3 8.1
332(10) 0.01023 325.3 7.9
320(10) 0.01089 325.3 7.6
322(9) 0.01117 325.3 7.4
333(9) 0.01127 325.3 7.2
316(10) 0.01096 325.3 7.1
342(10) 0.00980 325.3 6.9
294(9) 0.01170 325.3 6.8
321(9) 0.01116 325.3 6.6
311(9) 0.01200 325.3 6.5
315(10) 0.01068 325.3 6.4
339(10) 0.00981 325.3 6.3
322(10) 0.01085 325.3 6.2
328(10) 0.01104 325.3 6.1
322(9) 0.01160 325.3 6.0
340(10) 0.01029 325.3 5.9
351(10) 0.00917 325.3 5.9
342(10) 0.00996 325.3 5.8
318(9) 0.01153 325.3 5.8
348(10) 0.01073 325.3 5.7
335(10) 0.01049 325.3 5.7
325(10) 0.01002 325.3 5.6
333(10) 0.01036 325.3 5.6
324(9) 0.01148 325.3 5.6
325(9) 0.01132 325.3 5.6
323(10) 0.01002 325.3 5.6
344(11) 0.00899 325.3 5.6
323(10) 0.01060 325.3 5.6
337(9) 0.01120 325.3 5.6
349(10) 0.01030 325.3 5.6
325(10) 0.01063 325.3 5.6
329(10) 0.00969 325.3 5.6
340(10) 0.01001 325.3 5.6
331(9) 0.01124 325.3 5.7
342(10) 0.01079 325.3 5.7
333(10) 0.01097 325.3 5.7
353(10) 0.00942 325.3 5.8
320(10) 0.01036 325.3 5.8
329(9) 0.01135 325.3 5.9
341(10) 0.01074 325.3 5.9
302(9) 0.01114 325.3 6.0
299(10) 0.01071 325.3 6.1
316(10) 0.01059 325.3 6.1
307(9) 0.01210 325.3 6.2
340(10) 0.01038 325.2 6.3
317(9) 0.01116 325.2 6.4
317(10) 0.01078 325.2 6.5
307(10) 0.01103 325.2 6.6
308(9) 0.01206 325.1 6.7
329(9) 0.01131 325.1 6.8
352(10) 0.00979 325.1 7.0
292(9) 0.01209 325.1 7.1
334(10) 0.01055 325.0 7.2
327(9) 0.01147 325.0 7.4
322(9) 0.01116 325.0 7.5
323(10) 0.01046 325.0 7.7
296(9) 0.01174 325.0 7.9
327(10) 0.01082 324.9 8.0
301(9) 0.01235 324.9 8.2
321(10) 0.01056 324.9 8.4
325(10) 0.01034 324.9 8.6
305(9) 0.01159 324.8 8.8
323(10) 0.01102 324.8 9.0
342(10) 0.01077 324.8 9.3
325(10) 0.01106 324.8 9.5
327(10) 0.01030 324.8 9.8
313(10) 0.01099 324.7 10.1
303(9) 0.01212 324.7 10.3
322(9) 0.01148 324.7 10.7
335(10) 0.01040 324.7 11.0
300(9) 0.01124 324.6 11.3
332(10) 0.01052 324.6 11.7
338(10) 0.01077 324.6 12.1
335(10) 0.01101 324.6 12.6
320(10) 0.01063 324.6 13.0
313(10) 0.01024 324.5 13.6
319(10) 0.01106 324.5 14.1
303(9) 0.01225 324.5 14.8
322(9) 0.01142 324.5 15.5
336(10) 0.00995 324.4 16.3
300(10) 0.01106 324.4 17.1
332(10) 0.01049 324.4 18.1
320(9) 0.01170 324.4 19.1
326(9) 0.01121 324.3 20.2
340(10) 0.01025 324.3 21.5
345(10) 0.00969 324.3 22.8
330(10) 0.01035 324.3 24.2
338(10) 0.01082 324.3 25.8
349(10) 0.01044 324.2 27.4
338(10) 0.01019 324.2 29.1
330(10) 0.01050 324.2 30.9
349(10) 0.00999 324.2 32.7
352(10) 0.01032 324.1 34.4
343(10) 0.01076 324.1 36.1
359(10) 0.00961 324.1 37.6
374(11) 0.00879 324.1 38.9
393(11) 0.00863 324.1 40.0
340(10) 0.01091 324.0 40.8
354(10) 0.01001 324.0 41.3
377(11) 0.00893 324.0 41.5
354(10) 0.00971 324.0 41.4
353(10) 0.01018 323.9 41.2
358(10) 0.01040 323.9 40.9
347(10) 0.01022 323.9 40.6
332(10) 0.00998 323.9 40.4
348(10) 0.00972 323.9 40.3
350(10) 0.01001 323.8 40.5
347(10) 0.01074 323.8 41.0
355(10) 0.00978 323.8 41.7
342(10) 0.00988 323.8 42.9
371(10) 0.00915 323.7 44.5
384(10) 0.00952 323.7 46.5
385(10) 0.00956 323.7 49.1
363(11) 0.00894 323.7 52.3
371(10) 0.00924 323.7 56.0
378(10) 0.00932 323.6 60.2
356(10) 0.01016 323.6 65.1
368(10) 0.01013 323.6 70.5
410(11) 0.00840 323.6 76.6
434(12) 0.00755 323.5 83.2
424(11) 0.00815 323.5 90.3
422(11) 0.00876 323.5 97.8
487(11) 0.00759 323.5 105.7
456(11) 0.00772 323.4 113.7
471(12) 0.00683 323.4 121.8
478(12) 0.00738 323.4 129.8
492(12) 0.00750 323.4 137.6
503(12) 0.00737 323.4 145.0
505(12) 0.00701 323.3 151.7
544(13) 0.00589 323.3 157.4
516(12) 0.00661 323.3 161.9
479(11) 0.00782 323.3 164.8
499(12) 0.00731 323.2 166.0
518(12) 0.00665 323.2 165.3
477(12) 0.00698 323.2 162.8
476(12) 0.00728 323.2 158.6
473(11) 0.00783 323.2 152.8
483(11) 0.00773 323.1 145.8
460(12) 0.00750 323.1 138.0
429(11) 0.00761 323.1 129.7
411(11) 0.00850 323.1 121.0
426(11) 0.00883 323.0 112.2
408(11) 0.00874 323.0 103.6
436(11) 0.00774 323.0 95.3
409(11) 0.00812 323.0 87.3
423(11) 0.00825 323.0 79.8
384(10) 0.00958 322.9 72.7
389(10) 0.00925 322.9 66.2
383(11) 0.00892 322.9 60.2
382(11) 0.00890 322.9 54.7
391(11) 0.00868 322.8 49.7
371(10) 0.01008 322.8 45.2
370(10) 0.00960 322.8 41.1
394(11) 0.00855 322.8 37.5
361(10) 0.00975 322.7 34.3
343(10) 0.01036 322.7 31.4
340(10) 0.01091 322.7 28.9
340(10) 0.01020 322.7 26.7
358(10) 0.00979 322.7 24.7
364(10) 0.00966 322.6 22.9
318(9) 0.01143 322.6 21.4
337(10) 0.01102 322.6 20.0
376(10) 0.00915 322.6 18.9
333(10) 0.01035 322.5 17.8
351(10) 0.00977 322.5 16.8
344(10) 0.01073 322.5 15.9
333(9) 0.01120 322.5 15.2
351(10) 0.00980 322.5 14.4
338(10) 0.01017 322.4 13.8
346(10) 0.00997 322.4 13.2
333(10) 0.01103 322.4 12.7
330(10) 0.01101 322.4 12.1
336(10) 0.01038 322.3 11.7
360(11) 0.00875 322.3 11.3
335(10) 0.01054 322.3 10.9
347(10) 0.01065 322.3 10.5
327(9) 0.01153 322.3 10.1
333(10) 0.01058 322.2 9.8
333(10) 0.00969 322.2 9.5
318(10) 0.01107 322.2 9.2
343(10) 0.01082 322.2 9.0
337(10) 0.01091 322.1 8.7
326(10) 0.01085 322.1 8.5
343(10) 0.00952 322.1 8.3
348(10) 0.01003 322.1 8.1
310(9) 0.01210 322.1 7.9
327(9) 0.01121 322.0 7.7
317(9) 0.01120 322.0 7.5
300(10) 0.01108 322.0 7.3
303(9) 0.01126 322.0 7.2
322(9) 0.01152 321.9 7.0
337(10) 0.01074 321.9 6.9
352(10) 0.00965 321.9 6.8
325(10) 0.01055 321.9 6.6
323(10) 0.01081 321.8 6.5
360(10) 0.01032 321.8 6.4
337(10) 0.01037 321.8 6.3
323(10) 0.01066 321.8 6.2
301(9) 0.01159 321.8 6.1
302(9) 0.01112 321.7 6.0
321(9) 0.01157 321.7 5.9
339(10) 0.01013 321.7 5.8
321(10) 0.01067 321.7 5.8
312(10) 0.01084 321.6 5.7
319(10) 0.01102 321.6 5.7
338(9) 0.01113 321.6 5.6
329(10) 0.01079 321.6 5.5
320(10) 0.01082 321.6 5.5
321(10) 0.01016 321.5 5.4
316(9) 0.01124 321.5 5.4
305(9) 0.01217 321.5 5.3
316(10) 0.01095 321.5 5.3
320(10) 0.01027 321.4 5.3
338(10) 0.01022 321.4 5.2
334(10) 0.01081 321.4 5.2
339(10) 0.01088 321.4 5.2
321(10) 0.01060 321.4 5.1
327(10) 0.00998 321.3 5.1
324(10) 0.01059 321.3 5.1
326(9) 0.01145 321.3 5.1
347(10) 0.01080 321.3 5.0
317(9) 0.01132 321.3 5.0
329(10) 0.00958 321.3 5.0
301(9) 0.01199 321.3 5.0
325(9) 0.01115 321.3 5.0
294(9) 0.01270 321.4 5.0
333(10) 0.01063 321.4 5.0
312(10) 0.01034 321.4 5.0
332(10) 0.01043 321.4 5.0
316(9) 0.01188 321.4 5.0
335(10) 0.01093 321.4 5.0
301(9) 0.01175 321.4 5.0
341(10) 0.00954 321.5 5.1
322(10) 0.01106 321.5 5.1
318(9) 0.01175 321.5 5.1
308(9) 0.01212 321.5 5.1
335(10) 0.01031 321.5 5.2
322(10) 0.01007 321.5 5.2
295(9) 0.01172 321.5 5.2
318(9) 0.01143 321.6 5.3
333(10) 0.01083 321.6 5.4
315(10) 0.01101 321.6 5.4
319(10) 0.01047 321.6 5.5
332(10) 0.01048 321.6 5.5
336(10) 0.01107 321.6 5.6
322(10) 0.01107 321.6 5.7
331(10) 0.01038 321.6 5.8
309(9) 0.01123 321.7 5.9
326(10) 0.01035 321.7 6.0
336(9) 0.01111 321.7 6.1
317(9) 0.01146 321.7 6.2
327(10) 0.01001 321.7 6.4
317(10) 0.01022 321.7 6.5
298(9) 0.01188 321.7 6.7
312(9) 0.01191 321.8 6.8
339(10) 0.01034 321.8 7.0
338(10) 0.00989 321.8 7.2
304(9) 0.01158 321.8 7.4
314(9) 0.01124 321.8 7.7
321(9) 0.01160 321.8 8.0
342(10) 0.01010 321.8 8.2
348(10) 0.00976 321.9 8.6
351(10) 0.01005 321.9 8.9
330(9) 0.01113 321.9 9.3
332(9) 0.01110 321.9 9.8
346(10) 0.01019 321.9 10.3
333(10) 0.01008 321.9 10.8
349(10) 0.00966 321.9 11.4
346(10) 0.01021 321.9 12.1
322(9) 0.01169 322.0 13.0
340(10) 0.00990 322.0 13.9
338(10) 0.00972 322.0 15.1
338(10) 0.01009 322.0 16.5
336(10) 0.01104 322.0 18.2
364(10) 0.01020 322.0 20.3
345(10) 0.01004 322.0 23.1
351(10) 0.00920 322.1 26.7
359(10) 0.00984 322.1 31.5
367(10) 0.01005 322.1 37.8
372(10) 0.01000 322.1 45.9
374(10) 0.00931 322.1 56.2
387(11) 0.00832 322.1 68.9
419(11) 0.00848 322.1 84.2
441(11) 0.00837 322.2 101.6
489(11) 0.00760 322.2 120.6
524(12) 0.00660 322.2 139.8
528(13) 0.00635 322.2 157.6
535(12) 0.00657 322.2 171.9
542(12) 0.00686 322.2 180.7
527(12) 0.00695 322.2 182.2
516(12) 0.00681 322.2 175.7
491(12) 0.00664 322.3 162.3
489(12) 0.00679 322.3 144.6
426(11) 0.00878 322.3 125.4
417(11) 0.00874 322.3 106.8
414(11) 0.00855 322.3 90.2
401(11) 0.00869 322.3 76.2
404(11) 0.00836 322.3 65.3
407(10) 0.00916 322.4 57.5
379(10) 0.00951 322.4 52.7
374(10) 0.00962 322.4 50.8
408(11) 0.00843 322.4 51.3
383(10) 0.00931 322.4 53.8
397(10) 0.00941 322.4 57.9
426(11) 0.00812 322.4 62.7
393(11) 0.00875 322.5 66.9
386(10) 0.00913 322.5 69.3
411(11) 0.00861 322.5 68.7
413(11) 0.00903 322.5 64.9
409(11) 0.00850 322.5 59.0
383(11) 0.00896 322.5 52.2
373(10) 0.00927 322.5 45.4
354(10) 0.00999 322.6 39.4
333(9) 0.01129 322.6 34.4
355(10) 0.01000 322.6 30.4
351(10) 0.00947 322.6 27.4
337(10) 0.01034 322.6 25.4
352(10) 0.01035 322.6 24.0
325(9) 0.01149 322.6 23.3
365(10) 0.00948 322.6 23.0
368(11) 0.00878 322.7 23.1
371(10) 0.00918 322.7 23.5
348(10) 0.01048 322.7 24.2
347(10) 0.01079 322.7 25.3
366(10) 0.00965 322.7 26.9
373(11) 0.00864 322.7 29.1
374(10) 0.00923 322.7 32.1
382(10) 0.00961 322.8 36.1
371(10) 0.01004 322.8 41.5
400(11) 0.00873 322.8 48.6
384(11) 0.00854 322.8 57.6
396(11) 0.00894 322.8 69.0
398(10) 0.00920 322.8 82.7
392(10) 0.00956 322.8 98.7
443(11) 0.00780 322.9 116.5
477(12) 0.00674 322.9 135.3
480(12) 0.00687 322.9 153.4
495(12) 0.00751 322.9 168.3
522(12) 0.00716 322.9 177.2
549(13) 0.00626 322.9 178.2
509(12) 0.00647 322.9 170.9
513(12) 0.00672 322.9 157.2
442(11) 0.00844 323.0 139.9
429(11) 0.00848 323.0 121.4
426(11) 0.00785 323.0 103.6
422(11) 0.00768 323.0 87.5
386(11) 0.00907 323.0 73.6
372(10) 0.00995 323.0 62.1
376(10) 0.00955 323.0 52.8
346(10) 0.00988 323.1 45.7
356(10) 0.00919 323.1 40.2
347(10) 0.00996 323.1 36.1
377(10) 0.00987 323.1 33.1
375(10) 0.00972 323.1 30.9
353(10) 0.00979 323.1 29.3
341(10) 0.01011 323.1 28.1
378(10) 0.00947 323.2 27.2
341(10) 0.01095 323.2 26.5
334(10) 0.01032 323.2 26.0
337(10) 0.01030 323.2 25.7
340(10) 0.01024 323.2 25.4
329(10) 0.01103 323.2 25.2
357(10) 0.01039 323.2 25.1
313(9) 0.01109 323.2 25.0
336(10) 0.00945 323.3 25.0
334(10) 0.01050 323.3 25.0
353(10) 0.01040 323.3 25.2
329(9) 0.01126 323.3 25.3
336(10) 0.01026 323.3 25.4
298(9) 0.01134 323.3 25.6
354(10) 0.00965 323.3 25.8
334(9) 0.01112 323.4 26.1
336(9) 0.01112 323.4 26.3
334(10) 0.01031 323.4 26.6
344(10) 0.00922 323.4 27.0
347(10) 0.01016 323.4 27.3
367(10) 0.01005 323.4 27.7
326(9) 0.01124 323.4 28.1
351(10) 0.00955 323.5 28.6
318(10) 0.01000 323.5 29.1
346(10) 0.00957 323.5 29.6
327(9) 0.01125 323.5 30.2
348(10) 0.01064 323.5 30.8
326(10) 0.01058 323.5 31.4
345(10) 0.00952 323.5 32.1
337(10) 0.01026 323.5 32.8
344(10) 0.01085 323.6 33.5
326(9) 0.01142 323.6 34.3
340(10) 0.01023 323.6 35.1
345(10) 0.00965 323.6 36.0
359(10) 0.00946 323.6 36.9
354(10) 0.01053 323.6 37.8
362(10) 0.01031 323.6 38.8
378(10) 0.00923 323.7 39.8
366(10) 0.00909 323.7 40.9
349(10) 0.00990 323.7 42.0
357(10) 0.01046 323.7 43.1
348(10) 0.01041 323.7 44.2
358(10) 0.00929 323.7 45.4
338(10) 0.00982 323.7 46.6
362(10) 0.00970 323.8 47.9
373(10) 0.00996 323.8 49.2
380(10) 0.00928 323.8 50.7
399(11) 0.00842 323.8 52.5
385(11) 0.00885 323.8 54.7
361(10) 0.00946 323.8 57.9
388(10) 0.00954 323.8 62.3
402(11) 0.00892 323.8 68.5
420(11) 0.00806 323.9 76.9
416(11) 0.00837 323.9 87.1
425(11) 0.00855 323.9 98.6
459(11) 0.00801 323.9 109.6
434(11) 0.00799 323.9 117.2
449(12) 0.00733 323.9 118.7
455(11) 0.00762 323.9 113.4
446(11) 0.00817 324.0 103.5
399(10) 0.00932 324.0 91.9
412(11) 0.00827 324.0 81.0
399(11) 0.00811 324.0 71.8
360(10) 0.01002 324.0 65.0
386(10) 0.00953 324.0 60.2
373(10) 0.01000 324.0 57.3
354(10) 0.00976 324.1 55.6
381(11) 0.00840 324.1 55.0
376(10) 0.00950 324.1 55.0
388(10) 0.00962 324.1 55.7
398(10) 0.00921 324.1 56.9
384(10) 0.00924 324.1 58.6
378(11) 0.00869 324.1 60.8
374(11) 0.00904 324.2 63.4
388(10) 0.00955 324.2 66.5
421(11) 0.00871 324.2 69.9
415(11) 0.00825 324.2 73.3
425(11) 0.00780 324.2 76.7
412(11) 0.00855 324.2 79.5
423(11) 0.00864 324.2 81.5
391(10) 0.00935 324.2 82.3
419(11) 0.00820 324.3 81.5
414(11) 0.00806 324.3 79.4
427(11) 0.00800 324.3 75.9
406(10) 0.00909 324.3 71.5
377(10) 0.00971 324.3 66.7
378(10) 0.00948 324.3 61.6
367(11) 0.00891 324.3 56.6
407(11) 0.00788 324.4 51.9
379(10) 0.00982 324.4 47.6
380(10) 0.00941 324.4 43.8
346(10) 0.00986 324.4 40.4
365(11) 0.00903 324.4 37.5
366(10) 0.00946 324.4 35.0
354(10) 0.01050 324.4 33.0
357(10) 0.01003 324.5 31.3
335(10) 0.01022 324.5 29.9
357(10) 0.00970 324.5 28.8
342(10) 0.01056 324.5 27.9
351(10) 0.01051 324.5 27.3
345(10) 0.01006 324.5 26.8
337(10) 0.01009 324.5 26.5
340(10) 0.01011 324.5 26.3
355(10) 0.00973 324.6 26.2
336(10) 0.01099 324.6 26.3
328(10) 0.01048 324.6 26.4
357(10) 0.00932 324.6 26.6
368(10) 0.00922 324.6 26.8
337(10) 0.01072 324.6 27.2
375(10) 0.00998 324.6 27.6
344(10) 0.01028 324.7 28.1
333(10) 0.01042 324.7 28.7
356(10) 0.00997 324.7 29.3
327(9) 0.01125 324.7 30.1
344(10) 0.01067 324.7 30.9
321(10) 0.01092 324.7 31.7
346(10) 0.00913 324.7 32.7
369(11) 0.00884 324.8 33.8
331(10) 0.01098 324.8 34.9
339(10) 0.01088 324.8 36.1
355(10) 0.00955 324.8 37.4
349(10) 0.00960 324.8 38.8
375(10) 0.00939 324.8 40.3
343(10) 0.01078 324.8 41.9
349(10) 0.01043 324.8 43.6
355(10) 0.00974 324.9 45.4
328(10) 0.01015 324.9 47.3
370(10) 0.00927 324.9 49.3
376(10) 0.00988 324.9 51.4
366(10) 0.01006 324.9 53.7
367(10) 0.00922 324.9 56.1
342(10) 0.00973 324.9 58.6
376(11) 0.00893 325.0 61.2
371(10) 0.00976 325.0 64.0
364(10) 0.01023 325.0 67.0
353(10) 0.00971 325.0 70.1
355(10) 0.00949 325.0 73.3
421(11) 0.00804 325.0 76.7
364(10) 0.01027 325.0 80.3
381(10) 0.00949 325.1 84.0
381(10) 0.00911 325.1 87.9
381(11) 0.00884 325.1 91.9
383(11) 0.00903 325.1 96.1
435(11) 0.00857 325.1 100.4
414(11) 0.00877 325.1 104.9
401(11) 0.00850 325.1 109.5
428(11) 0.00807 325.1 114.3
447(11) 0.00790 325.2 119.1
434(11) 0.00858 325.2 124.0
423(11) 0.00819 325.2 129.0
422(11) 0.00824 325.2 134.0
431(11) 0.00793 325.2 139.0
417(11) 0.00860 325.2 143.9
435(11) 0.00857 325.2 148.5
461(11) 0.00769 325.3 152.8
449(11) 0.00757 325.3 156.6
454(12) 0.00746 325.3 159.7
449(11) 0.00807 325.3 162.0
455(11) 0.00812 325.3 163.2
411(11) 0.00867 325.3 163.2
444(12) 0.00755 325.3 161.9
443(11) 0.00783 325.4 159.4
419(11) 0.00890 325.4 155.7
435(11) 0.00850 325.4 151.0
451(11) 0.00772 325.4 145.4
420(11) 0.00791 325.4 139.2
429(11) 0.00821 325.4 132.6
419(11) 0.00878 325.4 125.7
452(11) 0.00820 325.5 118.8
411(11) 0.00854 325.5 112.0
414(11) 0.00795 325.5 105.5
434(11) 0.00797 325.5 99.2
384(10) 0.00955 325.5 93.3
382(10) 0.00954 325.5 87.9
362(10) 0.00974 325.5 82.8
396(11) 0.00794 325.5 78.2
374(10) 0.00915 325.6 74.1
371(10) 0.01014 325.6 70.4
393(10) 0.00911 325.6 67.1
366(10) 0.00990 325.6 64.2
371(10) 0.00910 325.6 61.6
371(10) 0.00931 325.6 59.3
354(10) 0.01069 325.6 57.2
373(10) 0.00972 325.7 55.2
349(10) 0.01027 325.7 53.3
363(11) 0.00906 325.7 51.4
359(10) 0.00946 325.7 49.5
380(10) 0.00971 325.7 47.7
341(10) 0.01054 325.7 45.8
338(10) 0.01032 325.7 44.0
351(10) 0.00955 325.8 42.3
362(10) 0.00972 325.8 40.6
352(10) 0.01050 325.8 39.0
363(10) 0.00994 325.8 37.6
373(11) 0.00890 325.8 36.2
343(10) 0.01003 325.8 35.0
363(10) 0.00976 325.8 33.9
377(10) 0.00985 325.8 32.9
338(10) 0.01035 325.9 32.0
352(10) 0.00987 325.9 31.2
342(10) 0.00993 325.9 30.5
360(10) 0.00965 325.9 29.9
342(10) 0.01080 325.9 29.3
345(10) 0.01001 325.9 28.8
365(10) 0.00919 325.9 28.4
367(10) 0.00943 326.0 28.1
347(10) 0.01022 326.0 27.8
340(10) 0.01097 326.0 27.5
344(10) 0.00975 326.0 27.3
321(10) 0.01099 326.0 27.1
375(11) 0.00881 326.0 26.9
357(10) 0.00990 326.0 26.7
371(10) 0.00998 326.1 26.6
344(10) 0.00992 326.1 26.5
356(10) 0.00912 326.1 26.5
340(10) 0.01048 326.1 26.4
343(10) 0.01072 326.1 26.4
334(9) 0.01115 326.1 26.4
390(11) 0.00862 326.1 26.4
357(10) 0.00908 326.1 26.5
367(10) 0.00959 326.2 26.6
338(10) 0.01092 326.2 26.8
329(9) 0.01112 326.2 27.1
351(10) 0.00988 326.2 27.4
359(10) 0.00910 326.2 27.9
352(10) 0.00991 326.2 28.5
375(10) 0.00983 326.2 29.3
382(10) 0.00952 326.3 30.3
349(10) 0.01003 326.3 31.6
351(10) 0.00936 326.3 33.3
364(10) 0.00958 326.3 35.4
360(10) 0.01031 326.3 38.0
359(10) 0.01032 326.3 41.3
356(10) 0.01007 326.3 45.2
375(11) 0.00879 326.4 49.9
380(11) 0.00875 326.4 55.5
405(10) 0.00917 326.4 61.9
427(11) 0.00854 326.4 69.1
426(11) 0.00833 326.4 77.1
410(11) 0.00837 326.4 85.6
431(11) 0.00792 326.4 94.5
469(11) 0.00801 326.4 103.3
446(11) 0.00785 326.5 111.3
457(12) 0.00749 326.5 117.8
478(12) 0.00713 326.5 122.1
449(11) 0.00776 326.5 123.5
496(12) 0.00751 326.5 121.8
503(12) 0.00702 326.5 117.2
449(12) 0.00755 326.5 110.3
423(11) 0.00826 326.6 101.8
436(11) 0.00817 326.6 92.6
415(11) 0.00897 326.6 83.2
402(11) 0.00887 326.6 74.1
396(11) 0.00869 326.6 65.5
394(11) 0.00885 326.6 57.8
387(10) 0.00924 326.6 50.8
344(10) 0.01079 326.7 44.7
359(10) 0.00974 326.7 39.4
338(10) 0.01006 326.7 34.9
349(10) 0.00975 326.7 31.2
358(10) 0.01026 326.7 28.0
330(9) 0.01118 326.7 25.3
342(10) 0.01022 326.7 23.2
343(10) 0.00920 326.8 21.4
339(10) 0.00986 326.8 19.8
333(10) 0.01077 326.8 18.6
348(10) 0.01082 326.8 17.5
347(10) 0.01008 326.8 16.6
357(10) 0.00966 326.8 15.8
365(10) 0.00958 326.8 15.1
341(10) 0.01085 326.8 14.5
328(9) 0.01134 326.9 14.0
329(10) 0.01046 326.9 13.5
331(10) 0.00957 326.9 13.1
337(10) 0.01036 326.9 12.7
340(10) 0.01094 326.9 12.4
313(9) 0.01185 326.9 12.1
314(9) 0.01135 326.9 11.8
307(10) 0.01041 327.0 11.5
317(10) 0.01092 327.0 11.3
329(9) 0.01152 327.0 11.1
338(10) 0.01087 327.0 11.0
333(10) 0.01070 327.0 10.8
308(10) 0.01070 327.0 10.7
342(10) 0.00996 327.0 10.6
317(9) 0.01166 327.1 10.6
322(9) 0.01122 327.1 10.6
332(10) 0.01062 327.1 10.6
317(10) 0.01056 327.1 10.6
327(10) 0.01042 327.1 10.6
347(10) 0.01072 327.1 10.7
310(9) 0.01184 327.1 10.9
327(10) 0.01083 327.1 11.0
309(9) 0.01116 327.2 11.2
323(10) 0.01047 327.2 11.4
337(10) 0.01096 327.2 11.6
306(9) 0.01155 327.2 11.9
313(9) 0.01123 327.2 12.2
339(10) 0.01012 327.2 12.5
343(10) 0.00990 327.2 12.8
324(9) 0.01156 327.3 13.1
313(9) 0.01122 327.3 13.4
307(10) 0.01089 327.3 13.6
315(10) 0.01075 327.3 13.8
335(10) 0.01075 327.3 13.9
333(10) 0.01106 327.3 14.0
325(10) 0.01088 327.3 14.0
318(10) 0.01028 327.3 13.9
322(10) 0.01044 327.3 13.8
343(10) 0.01019 327.2 13.6
344(10) 0.01078 327.2 13.4
358(10) 0.00975 327.2 13.2
341(10) 0.00981 327.1 12.9
341(10) 0.01020 327.1 12.7
359(10) 0.01005 327.0 12.5
312(9) 0.01162 327.0 12.3
340(10) 0.00978 326.9 12.2
318(10) 0.00993 326.9 12.1
321(10) 0.01080 326.8 12.0
332(10) 0.01092 326.8 11.9
311(9) 0.01208 326.7 11.9
321(9) 0.01113 326.7 11.9
311(10) 0.01054 326.6 11.9
314(10) 0.01103 326.6 12.0
333(10) 0.01103 326.5 12.1
325(9) 0.01125 326.5 12.3
324(9) 0.01114 326.4 12.5
321(10) 0.01000 326.4 12.7
303(9) 0.01169 326.3 12.9
344(10) 0.01068 326.3 13.2
327(9) 0.01132 326.2 13.5
328(10) 0.01081 326.2 13.9
355(10) 0.00929 326.1 14.2
327(10) 0.01069 326.1 14.7
329(9) 0.01147 326.1 15.2
332(10) 0.01040 326.0 15.7
317(9) 0.01122 326.0 16.3
355(10) 0.00916 325.9 17.0
328(10) 0.01077 325.9 17.7
314(9) 0.01198 325.8 18.5
331(10) 0.01085 325.8 19.3
340(10) 0.01024 325.7 20.3
326(10) 0.01053 325.7 21.4
336(10) 0.01045 325.6 22.5
330(9) 0.01123 325.6 23.8
349(10) 0.01041 325.5 25.2
324(10) 0.01053 325.5 26.7
344(10) 0.00955 325.4 28.4
333(10) 0.01053 325.4 30.2
333(9) 0.01111 325.3 32.2
324(10) 0.01092 325.3 34.3
352(10) 0.00968 325.2 36.6
359(10) 0.00955 325.2 39.1
364(10) 0.00964 325.1 41.7
352(10) 0.01054 325.1 44.5
357(10) 0.00972 325.0 47.5
344(10) 0.00993 325.0 50.7
375(11) 0.00878 325.0 54.1
353(10) 0.01001 324.9 57.6
349(10) 0.01064 324.9 61.3
380(11) 0.00870 324.8 65.2
374(11) 0.00871 324.8 69.1
387(11) 0.00872 324.7 73.2
380(10) 0.00951 324.7 77.3
367(10) 0.01018 324.6 81.5
413(11) 0.00829 324.6 85.6
398(11) 0.00806 324.5 89.7
387(11) 0.00892 324.5 93.6
401(10) 0.00922 324.4 97.3
408(10) 0.00908 324.4 100.6
422(11) 0.00836 324.3 103.7
418(11) 0.00789 324.3 106.2
387(11) 0.00906 324.2 108.2
401(10) 0.00934 324.2 109.6
380(10) 0.00970 324.1 110.3
412(11) 0.00857 324.1 110.4
390(11) 0.00864 324.0 109.8
391(10) 0.00917 324.0 108.5
422(11) 0.00882 323.9 106.6
417(11) 0.00881 323.9 104.2
384(11) 0.00890 323.9 101.3
359(11) 0.00905 323.8 98.0
398(11) 0.00835 323.8 94.4
404(10) 0.00918 323.7 90.6
372(10) 0.00966 323.7 86.6
387(10) 0.00923 323.6 82.5
412(11) 0.00796 323.6 78.4
370(10) 0.00975 323.5 74.3
360(10) 0.01032 323.5 70.3
333(10) 0.01080 323.4 66.4
333(10) 0.01045 323.4 62.6
364(10) 0.00920 323.3 58.9
352(10) 0.00965 323.3 55.4
340(10) 0.01100 323.2 52.1
368(10) 0.00936 323.2 49.0
379(11) 0.00894 323.1 46.0
369(10) 0.00928 323.1 43.2
353(10) 0.00992 323.0 40.6
348(10) 0.01074 323.0 38.2
340(10) 0.01059 322.9 35.9
350(10) 0.00992 322.9 33.9
356(10) 0.00960 322.8 32.0
377(10) 0.00931 322.8 30.2
345(10) 0.01084 322.7 28.6
350(10) 0.00956 322.7 27.1
327(10) 0.01019 322.7 25.8
332(10) 0.00988 322.6 24.6
316(9) 0.01153 322.6 23.5
340(10) 0.01084 322.5 22.5
335(10) 0.00993 322.5 21.7
330(10) 0.01011 322.4 20.9
338(10) 0.01000 322.4 20.2
317(10) 0.01101 322.3 19.5
330(9) 0.01125 322.3 19.0
341(10) 0.00989 322.2 18.5
333(10) 0.00957 322.2 18.1
331(10) 0.01066 322.1 17.7
345(10) 0.01083 322.1 17.3
365(10) 0.00998 322.0 17.1
339(10) 0.01048 322.0 16.8
343(10) 0.00931 321.9 16.6
337(10) 0.01012 321.9 16.5
317(9) 0.01161 321.8 16.4
307(9) 0.01198 321.8 16.3
350(10) 0.00969 321.7 16.2
343(10) 0.00963 321.7 16.2
343(10) 0.01015 321.6 16.2
325(9) 0.01139 321.6 16.3
335(10) 0.01078 321.6 16.4
326(10) 0.01038 321.5 16.5
358(11) 0.00873 321.5 16.6
328(10) 0.01068 321.4 16.8
335(9) 0.01121 321.4 17.1
362(10) 0.00983 321.3 17.3
337(10) 0.01025 321.3 17.6
325(10) 0.01048 321.2 18.0
330(10) 0.01040 321.2 18.4
318(9) 0.01159 321.1 18.9
366(10) 0.00984 321.1 19.4
332(10) 0.01082 321.0 19.9
337(10) 0.00993 321.0 20.6
327(10) 0.01051 320.9 21.3
354(10) 0.01041 320.9 22.0
377(10) 0.00958 320.8 22.9
368(10) 0.00912 320.8 23.8
349(10) 0.00973 320.7 24.8
343(10) 0.01006 320.7 25.8
340(10) 0.01097 320.6 27.0
362(10) 0.00972 320.6 28.3
335(10) 0.01049 320.5 29.6
332(10) 0.01080 320.5 31.1
345(10) 0.01034 320.5 32.7
317(9) 0.01179 320.4 34.3
351(10) 0.01024 320.4 36.1
358(10) 0.00946 320.3 38.0
349(10) 0.01020 320.3 40.0
380(10) 0.00953 320.2 42.1
362(10) 0.01024 320.2 44.3
354(10) 0.00985 320.1 46.7
362(10) 0.00910 320.1 49.1
372(10) 0.00931 320.0 51.7
379(10) 0.00950 320.0 54.3
369(10) 0.01015 319.9 57.0
381(11) 0.00899 319.9 59.8
368(11) 0.00899 319.8 62.7
394(11) 0.00888 319.8 65.6
407(10) 0.00907 319.7 68.5
376(10) 0.00982 319.7 71.5
402(11) 0.00874 319.6 74.4
376(11) 0.00899 319.6 77.3
390(11) 0.00878 319.5 80.1
399(10) 0.00918 319.5 82.7
389(10) 0.00968 319.4 85.3
398(11) 0.00846 319.4 87.6
397(11) 0.00811 319.4 89.7
403(11) 0.00858 319.3 91.5
376(10) 0.00998 319.3 93.1
381(10) 0.00972 319.2 94.3
428(11) 0.00845 319.2 95.3
409(11) 0.00812 319.1 95.9
403(11) 0.00879 319.1 96.2
421(11) 0.00877 319.0 96.3
408(10) 0.00912 319.0 96.1
419(11) 0.00806 318.9 95.7
397(11) 0.00821 318.9 95.0
429(11) 0.00781 318.8 94.3
411(10) 0.00917 318.8 93.4
425(11) 0.00850 318.7 92.5
407(11) 0.00823 318.7 91.5
417(11) 0.00789 318.6 90.5
423(11) 0.00795 318.6 89.4
403(10) 0.00927 318.5 88.5
382(10) 0.00939 318.5 87.5
419(11) 0.00810 318.4 86.5
398(11) 0.00865 318.4 85.6
403(11) 0.00861 318.3 84.7
389(10) 0.00956 318.3 83.8
406(11) 0.00864 318.3 82.8
382(11) 0.00905 318.2 81.8
390(11) 0.00878 318.2 80.6
400(11) 0.00880 318.1 79.4
404(10) 0.00926 318.1 78.0
373(10) 0.00948 318.0 76.5
401(11) 0.00842 318.0 74.8
398(11) 0.00870 317.9 72.9
392(10) 0.00918 317.9 70.9
385(10) 0.00966 317.8 68.6
374(10) 0.00926 317.8 66.3
364(10) 0.00913 317.7 63.8
375(11) 0.00881 317.7 61.3
337(10) 0.01094 317.6 58.7
370(10) 0.01016 317.6 56.0
381(11) 0.00892 317.5 53.4
372(10) 0.00915 317.5 50.8
367(10) 0.00956 317.4 48.2
357(10) 0.01027 317.4 45.7
359(10) 0.01034 317.3 43.3
367(10) 0.00933 317.3 41.0
343(10) 0.00974 317.2 38.7
333(10) 0.01028 317.2 36.6
347(10) 0.01064 317.2 34.6
368(10) 0.00995 317.1 32.6
344(10) 0.01003 317.1 30.8
362(11) 0.00869 317.0 29.1
345(10) 0.01017 317.0 27.5
346(10) 0.01059 316.9 26.0
341(10) 0.01075 316.9 24.6
307(10) 0.01107 316.8 23.3
330(10) 0.00960 316.8 22.1
340(10) 0.00994 316.7 20.9
334(9) 0.01113 316.7 19.9
328(10) 0.01093 316.6 18.9
308(9) 0.01124 316.6 18.0
329(10) 0.01018 316.5 17.2
323(10) 0.01085 316.5 16.4
332(9) 0.01126 316.4 15.7
318(9) 0.01156 316.4 15.1
324(10) 0.01048 316.3 14.6
322(10) 0.01045 316.3 14.0
336(10) 0.00964 316.2 13.5
319(9) 0.01150 316.2 13.0
331(10) 0.01070 316.1 12.6
292(9) 0.01187 316.1 12.2
316(10) 0.01087 316.1 11.8
343(10) 0.01033 316.0 11.5
349(10) 0.01066 316.0 11.2
323(10) 0.01101 315.9 10.9
308(9) 0.01163 315.9 10.6
345(10) 0.00982 315.8 10.3
310(9) 0.01119 315.8 10.1
315(9) 0.01184 315.7 9.9
336(10) 0.01030 315.7 9.7
305(9) 0.01120 315.6 9.5
310(9) 0.01130 315.6 9.3
332(10) 0.01087 315.5 9.2
317(9) 0.01170 315.5 9.0
324(10) 0.01040 315.4 8.9
314(10) 0.01097 315.4 8.8
311(9) 0.01141 315.3 8.6
300(9) 0.01208 315.3 8.5
346(10) 0.01066 315.2 8.4
309(10) 0.01108 315.2 8.4
330(10) 0.01009 315.2 8.3
324(10) 0.01060 315.3 8.2
316(9) 0.01165 315.3 8.2
346(10) 0.01066 315.4 8.1
332(10) 0.01065 315.4 8.1
350(10) 0.00921 315.5 8.0
311(10) 0.01105 315.5 8.0
313(9) 0.01159 315.5 8.0
316(9) 0.01185 315.6 8.0
326(10) 0.01051 315.6 8.1
314(10) 0.01008 315.7 8.1
313(10) 0.01105 315.7 8.2
326(9) 0.01130 315.8 8.3
319(9) 0.01174 315.8 8.5
295(9) 0.01210 315.8 8.6
333(10) 0.00964 315.9 8.9
338(10) 0.01054 315.9 9.2
325(9) 0.01159 316.0 9.7
329(9) 0.01123 316.0 10.5
319(9) 0.01113 316.0 12.2
347(10) 0.00942 316.1 15.6
308(9) 0.01186 316.1 22.1
342(10) 0.01086 316.2 33.3
343(10) 0.01087 316.2 50.3
378(10) 0.00922 316.3 71.9
404(11) 0.00833 316.3 94.1
410(11) 0.00844 316.3 109.8
408(10) 0.00923 316.4 111.8
401(11) 0.00906 316.4 99.0
387(10) 0.00909 316.5 77.8
371(11) 0.00897 316.5 55.7
348(10) 0.00989 316.6 37.5
342(10) 0.01086 316.6 25.1
350(10) 0.01013 316.6 17.8
330(10) 0.01041 316.7 14.0
343(10) 0.00977 316.7 12.3
301(9) 0.01186 316.8 11.5
294(9) 0.01270 316.8 11.1
338(10) 0.01070 316.8 11.0
334(10) 0.01039 316.9 11.0
328(10) 0.01055 316.9 11.1
322(9) 0.01128 317.0 11.2
345(10) 0.01071 317.0 11.4
328(10) 0.01056 317.1 11.6
329(10) 0.01029 317.1 11.9
318(10) 0.01105 317.1 12.3
324(10) 0.01063 317.2 12.7
333(9) 0.01122 317.2 13.1
333(10) 0.01027 317.3 13.6
356(10) 0.00942 317.3 14.1
307(9) 0.01169 317.3 14.7
355(10) 0.01004 317.4 15.3
354(10) 0.01058 317.4 16.0
335(10) 0.01017 317.5 16.7
341(10) 0.00957 317.5 17.5
338(10) 0.00992 317.6 18.4
342(10) 0.01041 317.6 19.3
329(9) 0.01128 317.6 20.2
355(10) 0.01009 317.7 21.2
355(10) 0.00961 317.7 22.3
337(10) 0.01078 317.8 23.4
347(10) 0.01071 317.8 24.6
341(10) 0.01085 317.9 25.8
331(10) 0.01087 317.9 27.1
367(11) 0.00874 317.9 28.4
358(10) 0.00958 318.0 29.7
367(10) 0.01003 318.0 31.1
349(10) 0.01058 318.1 32.5
363(10) 0.00930 318.1 34.0
333(10) 0.00982 318.1 35.4
364(10) 0.00967 318.2 36.9
375(10) 0.00985 318.2 38.3
383(10) 0.00954 318.3 39.9
362(10) 0.00935 318.3 41.2
347(10) 0.00963 318.4 42.5
371(10) 0.00945 318.4 43.8
364(10) 0.01025 318.4 44.9
368(10) 0.00977 318.5 45.9
348(10) 0.00975 318.5 46.8
378(11) 0.00872 318.6 47.5
380(10) 0.00919 318.6 48.1
391(10) 0.00952 318.6 48.4
382(10) 0.00962 318.7 48.6
349(10) 0.01044 318.7 48.5
380(10) 0.00913 318.8 48.3
354(10) 0.00988 318.8 47.8
343(10) 0.01088 318.9 47.2
364(10) 0.00973 318.9 46.4
368(10) 0.00940 318.9 45.5
356(10) 0.00984 319.0 44.4
351(10) 0.01035 319.0 43.2
351(10) 0.01054 319.1 41.9
350(10) 0.00969 319.1 40.6
356(10) 0.00944 319.2 39.2
365(10) 0.00920 319.2 37.7
374(10) 0.00948 319.2 36.2
358(10) 0.01033 319.3 34.8
330(10) 0.01019 319.3 33.3
355(11) 0.00902 319.4 31.8
344(10) 0.00979 319.4 30.4
335(10) 0.01086 319.4 29.0
346(10) 0.01073 319.5 27.6
359(10) 0.00936 319.5 26.3
362(10) 0.00921 319.6 25.0
335(10) 0.01037 319.6 23.8
307(9) 0.01197 319.7 22.6
359(10) 0.01029 319.7 21.5
346(10) 0.01002 319.7 20.4
327(10) 0.01016 319.8 19.4
354(10) 0.00974 319.8 18.4
349(10) 0.01049 319.9 17.5
339(10) 0.01084 319.9 16.7
323(10) 0.01094 319.9 15.9
334(10) 0.00951 320.0 15.1
334(10) 0.01053 320.0 14.4
334(9) 0.01110 320.1 13.8
321(9) 0.01135 320.1 13.2
337(10) 0.01050 320.2 12.6
346(10) 0.00964 320.2 12.1
331(10) 0.01068 320.2 11.7
329(9) 0.01132 320.3 11.2
323(9) 0.01156 320.3 10.8
343(10) 0.01039 320.4 10.5
319(10) 0.01056 320.4 10.1
327(10) 0.01028 320.5 9.9
324(9) 0.01151 320.5 9.6
329(10) 0.01097 320.5 9.3
324(10) 0.01078 320.6 9.1
316(10) 0.01032 320.6 8.9
305(9) 0.01130 320.7 8.8
316(9) 0.01177 320.7 8.6
356(10) 0.01023 320.7 8.5
319(10) 0.01098 320.8 8.4
314(10) 0.01075 320.8 8.3
339(10) 0.01046 320.9 8.3
324(9) 0.01142 320.9 8.2
332(10) 0.01070 321.0 8.2
311(10) 0.01083 321.0 8.2
313(10) 0.01047 321.0 8.3
313(9) 0.01137 321.1 8.3
313(9) 0.01182 321.1 8.5
312(9) 0.01117 321.2 8.7
329(10) 0.01032 321.2 8.9
335(10) 0.01017 321.3 9.3
328(10) 0.01082 321.3 9.7
307(9) 0.01210 321.3 10.4
310(9) 0.01156 321.4 11.4
335(10) 0.01011 321.4 13.0
357(10) 0.00931 321.5 15.6
334(10) 0.01074 321.5 20.2
355(10) 0.01054 321.5 27.8
382(11) 0.00884 321.6 39.8
385(11) 0.00858 321.6 57.1
429(11) 0.00785 321.7 79.5
436(11) 0.00828 321.7 104.8
496(12) 0.00751 321.8 128.3
515(12) 0.00661 321.8 142.7
500(12) 0.00650 321.8 141.5
446(11) 0.00809 321.9 125.3
451(11) 0.00805 321.9 101.0
426(11) 0.00876 322.0 75.7
379(10) 0.00912 322.0 53.9
379(11) 0.00868 322.0 37.2
352(10) 0.01041 322.1 25.8
346(10) 0.01082 322.1 18.5
356(10) 0.01021 322.2 14.1
356(10) 0.00995 322.2 11.5
343(10) 0.00933 322.3 9.9
308(9) 0.01159 322.3 8.9
311(9) 0.01207 322.3 8.1
321(9) 0.01150 322.4 7.5
324(10) 0.01092 322.4 7.0
329(10) 0.01040 322.5 6.6
307(9) 0.01152 322.5 6.3
296(9) 0.01255 322.6 6.0
347(10) 0.01053 322.6 5.8
308(9) 0.01140 322.6 5.6
348(10) 0.00918 322.7 5.4
345(10) 0.00965 322.7 5.3
331(9) 0.01134 322.8 5.2
339(10) 0.01047 322.8 5.1
303(9) 0.01147 322.8 5.0
290(9) 0.01221 322.9 5.0
324(10) 0.01076 322.9 4.9
326(9) 0.01131 323.0 4.9
322(9) 0.01114 323.0 4.8
320(10) 0.01083 323.1 4.8
322(10) 0.01065 323.1 4.8
334(10) 0.01054 323.1 4.8
330(9) 0.01128 323.2 4.8
331(10) 0.01081 323.2 4.9
345(10) 0.00976 323.3 4.9
318(10) 0.01090 323.3 4.9
326(9) 0.01113 323.3 5.0
301(9) 0.01245 323.2 5.0
319(9) 0.01145 323.2 5.1
334(10) 0.01015 323.2 5.2
303(9) 0.01139 323.2 5.2
328(10) 0.01096 323.1 5.3
327(9) 0.01141 323.1 5.4
318(10) 0.01062 323.1 5.6
319(10) 0.01046 323.0 5.7
318(10) 0.01077 323.0 5.8
305(9) 0.01191 323.0 6.0
328(9) 0.01143 323.0 6.2
345(10) 0.01015 322.9 6.4
332(10) 0.00984 322.9 6.6
337(10) 0.01007 322.9 6.9
301(9) 0.01196 322.9 7.4
353(10) 0.01060 322.8 8.0
345(10) 0.01014 322.8 9.0
316(10) 0.01013 322.8 10.5
321(10) 0.01103 322.7 12.7
357(10) 0.01037 322.7 15.7
385(10) 0.00961 322.7 19.3
389(11) 0.00871 322.7 23.1
395(11) 0.00812 322.6 26.3
377(10) 0.00928 322.6 27.8
356(10) 0.01059 322.6 27.0
394(10) 0.00921 322.6 24.3
338(10) 0.01016 322.5 21.0
344(10) 0.00932 322.5 17.7
351(10) 0.01000 322.5 15.2
344(10) 0.01084 322.4 13.3
330(10) 0.01103 322.4 12.2
322(10) 0.01062 322.4 11.6
318(10) 0.01033 322.4 11.4
333(10) 0.01048 322.3 11.4
345(10) 0.01087 322.3 11.4
344(10) 0.01018 322.3 11.6
307(9) 0.01112 322.3 11.8
315(10) 0.01074 322.2 12.0
344(10) 0.00990 322.2 12.2
320(9) 0.01159 322.2 12.4
343(10) 0.01065 322.1 12.7
317(9) 0.01133 322.1 12.9
337(10) 0.00980 322.1 13.1
308(9) 0.01122 322.1 13.3
322(9) 0.01165 322.0 13.4
326(10) 0.01101 322.0 13.6
334(10) 0.01047 322.0 13.7
348(10) 0.01021 322.0 13.8
353(10) 0.01016 321.9 13.8
319(9) 0.01164 321.9 13.8
336(10) 0.01045 321.9 13.8
320(9) 0.01112 321.8 13.7
350(10) 0.00994 321.8 13.5
334(10) 0.01050 321.8 13.4
330(9) 0.01134 321.8 13.1
314(9) 0.01119 321.7 12.9
318(10) 0.01069 321.7 12.6
334(10) 0.01036 321.7 12.3
355(10) 0.01018 321.7 12.0
344(10) 0.01094 321.6 11.7
332(10) 0.01069 321.6 11.3
315(10) 0.01045 321.6 11.0
345(10) 0.00981 321.5 10.7
307(9) 0.01173 321.5 10.4
341(10) 0.01099 321.5 10.1
339(10) 0.01045 321.5 9.8
366(11) 0.00895 321.4 9.5
303(9) 0.01189 321.4 9.3
317(9) 0.01164 321.4 9.0
323(9) 0.01157 321.4 8.8
318(10) 0.01080 321.3 8.7
322(10) 0.00992 321.3 8.5
323(10) 0.01082 321.3 8.4
333(10) 0.01086 321.2 8.3
327(9) 0.01121 321.2 8.2
328(10) 0.01027 321.2 8.2
305(10) 0.01079 321.2 8.2
319(9) 0.01124 321.1 8.2
352(10) 0.01050 321.1 8.2
335(9) 0.01120 321.1 8.3
324(9) 0.01120 321.1 8.4
347(10) 0.00980 321.0 8.6
345(10) 0.01024 321.0 8.7
318(9) 0.01172 321.0 8.9
339(10) 0.01086 320.9 9.2
333(10) 0.01046 320.9 9.5
340(10) 0.00990 320.9 9.8
320(10) 0.01092 320.9 10.1
319(9) 0.01167 320.8 10.5
338(10) 0.01080 320.8 10.9
322(10) 0.01083 320.8 11.3
339(10) 0.01001 320.8 11.8
334(10) 0.01046 320.7 12.2
339(10) 0.01100 320.7 12.7
320(9) 0.01141 320.7 13.3
304(9) 0.01124 320.6 13.8
345(10) 0.00966 320.6 14.4
351(10) 0.00995 320.6 15.0
309(9) 0.01189 320.6 15.5
265(9) 0.01324 320.5 16.1
304(9) 0.01120 320.5 16.7
335(10) 0.01023 320.5 17.2
334(10) 0.01086 320.5 17.8
352(10) 0.01049 320.4 18.2
339(10) 0.01043 320.4 18.7
319(10) 0.01099 320.4 19.0
317(9) 0.01110 320.3 19.4
333(10) 0.01096 320.3 19.6
345(10) 0.01074 320.3 19.8
336(10) 0.01024 320.3 19.8
320(10) 0.01061 320.2 19.8
344(10) 0.00973 320.2 19.7
334(10) 0.01092 320.2 19.6
322(9) 0.01151 320.2 19.3
303(9) 0.01145 320.1 19.0
317(10) 0.01001 320.1 18.6
322(10) 0.01082 320.1 18.2
332(10) 0.01103 320.0 17.7
342(10) 0.01084 320.0 17.2
333(10) 0.01054 320.0 16.8
327(10) 0.00994 320.0 16.3
343(10) 0.01002 319.9 15.7
321(9) 0.01155 319.9 15.1
341(10) 0.01072 319.9 14.6
333(10) 0.01073 319.9 14.1
356(11) 0.00905 319.8 13.5
357(10) 0.00948 319.8 13.1
318(9) 0.01173 319.8 12.6
300(9) 0.01229 319.7 12.2
335(10) 0.01057 319.7 11.8
345(10) 0.00981 319.7 11.5
369(10) 0.00941 319.7 11.2
345(10) 0.01082 319.6 11.0
283(9) 0.01317 319.6 10.8
342(10) 0.00987 319.6 10.7
326(10) 0.00993 319.6 10.7
335(10) 0.00989 319.5 10.8
330(9) 0.01132 319.5 11.1
308(9) 0.01198 319.5 11.5
319(10) 0.01073 319.4 12.2
323(10) 0.01036 319.4 13.4
329(10) 0.01042 319.4 15.2
321(9) 0.01166 319.4 17.9
330(10) 0.01077 319.3 21.8
342(10) 0.01011 319.3 27.1
356(10) 0.00936 319.3 34.0
347(10) 0.01016 319.3 42.4
348(10) 0.01074 319.2 52.0
352(10) 0.00987 319.2 62.0
334(10) 0.01059 319.2 70.7
383(11) 0.00890 319.1 76.0
374(10) 0.00940 319.1 76.4
368(10) 0.01011 319.1 71.9
358(10) 0.01004 319.1 64.2
350(10) 0.00983 319.0 55.4
360(10) 0.00966 319.0 47.0
359(10) 0.00985 319.0 39.5
361(10) 0.01023 319.0 33.4
369(10) 0.00940 318.9 28.3
337(10) 0.01027 318.9 24.0
359(10) 0.01000 318.9 20.3
335(9) 0.01109 318.8 17.3
327(9) 0.01127 318.8 14.9
352(10) 0.00948 318.8 12.9
361(11) 0.00882 318.8 11.3
341(10) 0.01000 318.7 10.1
317(9) 0.01158 318.7 9.1
337(10) 0.01095 318.7 8.4
319(10) 0.01095 318.7 7.9
346(10) 0.00923 318.6 7.5
334(10) 0.01021 318.6 7.2
347(10) 0.01064 318.6 7.0
332(9) 0.01116 318.5 6.8
347(10) 0.01010 318.5 6.7
351(10) 0.00933 318.5 6.7
307(9) 0.01112 318.5 6.7
319(9) 0.01161 318.4 6.7
309(9) 0.01198 318.4 6.8
327(10) 0.01076 318.4 6.9
349(10) 0.00932 318.4 7.1
338(10) 0.01002 318.3 7.3
319(9) 0.01140 318.3 7.6
338(10) 0.01091 318.3 8.0
327(10) 0.01065 318.2 8.5
325(10) 0.01065 318.2 9.1
346(10) 0.00975 318.2 9.9
327(9) 0.01133 318.2 10.9
313(9) 0.01159 318.1 12.1
319(9) 0.01113 318.1 13.5
340(10) 0.00984 318.1 15.2
334(10) 0.01067 318.1 17.2
349(10) 0.01066 318.0 19.5
310(9) 0.01155 318.0 22.1
335(10) 0.01008 318.0 24.9
328(10) 0.01042 317.9 27.8
347(10) 0.00995 317.9 30.6
346(10) 0.01086 317.9 33.1
334(10) 0.01056 317.9 35.1
347(10) 0.00947 317.8 36.3
325(10) 0.01074 317.8 36.4
330(10) 0.01105 317.8 35.5
337(10) 0.01097 317.8 33.7
344(10) 0.01012 317.7 31.4
328(10) 0.01017 317.7 28.7
322(10) 0.01098 317.7 25.9
341(10) 0.01084 317.6 23.2
356(10) 0.01056 317.6 20.8
324(10) 0.01016 317.6 18.5
312(10) 0.01043 317.6 16.6
310(9) 0.01137 317.5 15.0
336(10) 0.01074 317.5 13.6
329(9) 0.01140 317.5 12.5
339(10) 0.00991 317.5 11.6
334(10) 0.00957 317.4 10.9
313(9) 0.01131 317.4 10.3
346(10) 0.01060 317.4 9.9
350(10) 0.01079 317.3 9.7
338(10) 0.01005 317.3 9.5
337(10) 0.01045 317.3 9.3
345(10) 0.01064 317.3 9.1
322(9) 0.01152 317.2 9.0
324(10) 0.01080 317.2 9.0
328(10) 0.01024 317.2 8.9
352(10) 0.00970 317.2 8.9
346(10) 0.01069 317.1 8.9
331(9) 0.01109 317.1 8.9
336(10) 0.01046 317.1 8.9
341(10) 0.00972 317.0 8.9
321(10) 0.01095 317.0 8.8
321(9) 0.01158 317.0 8.8
334(10) 0.01099 317.0 8.8
317(9) 0.01141 316.9 8.8
363(11) 0.00881 316.9 8.7
322(10) 0.01083 316.9 8.7
304(9) 0.01221 316.9 8.6
326(9) 0.01123 316.8 8.6
319(9) 0.01121 316.8 8.5
323(10) 0.01063 316.8 8.5
338(10) 0.01039 316.7 8.4
320(9) 0.01174 316.7 8.3
320(9) 0.01123 316.7 8.2
342(10) 0.00986 316.7 8.1
327(10) 0.01031 316.6 8.0
327(10) 0.01064 316.6 7.9
341(10) 0.01078 316.6 7.8
344(10) 0.01054 316.6 7.7
338(10) 0.01055 316.5 7.6
315(9) 0.01117 316.5 7.4
330(10) 0.01069 316.5 7.3
329(9) 0.01121 316.4 7.2
305(9) 0.01142 316.4 7.1
311(10) 0.01092 316.4 7.0
303(9) 0.01169 316.4 6.9
324(10) 0.01096 316.3 6.8
350(10) 0.01059 316.3 6.7
327(10) 0.01027 316.3 6.5
308(10) 0.01075 316.3 6.4
327(10) 0.01037 316.2 6.3
329(9) 0.01119 316.2 6.2
354(10) 0.01037 316.2 6.1
325(10) 0.01029 316.1 6.0
345(10) 0.00956 316.1 5.9
338(10) 0.01055 316.1 5.8
322(9) 0.01140 316.1 5.7
340(10) 0.01092 316.0 5.6
355(10) 0.00961 316.0 5.5
350(10) 0.00927 316.0 5.4
362(10) 0.00912 316.0 5.3
312(9) 0.01197 315.9 5.3
333(10) 0.01100 315.9 5.2
343(10) 0.01013 315.9 5.1
337(10) 0.00950 315.8 5.1
322(10) 0.01078 315.8 5.0
304(9) 0.01218 315.8 5.0
329(9) 0.01142 315.8 4.9
323(10) 0.01060 315.7 4.9
307(10) 0.01103 315.7 4.8
315(10) 0.01093 315.7 4.8
312(9) 0.01178 315.7 4.8
312(9) 0.01175 315.6 4.8
334(10) 0.01013 315.6 4.7
325(10) 0.01042 315.6 4.7
312(10) 0.01053 315.5 4.7
329(10) 0.01098 315.5 4.7
327(9) 0.01142 315.5 4.7
350(10) 0.00984 315.5 4.8
323(10) 0.01031 315.4 4.8
305(10) 0.01108 315.4 4.8
313(9) 0.01193 315.4 4.8
347(10) 0.01042 315.4 4.9
292(9) 0.01188 315.3 4.9
307(9) 0.01144 315.3 5.0
312(9) 0.01113 315.3 5.0
338(10) 0.01091 315.2 5.1
336(10) 0.01081 315.2 5.2
334(10) 0.01017 315.2 5.3
306(10) 0.01097 315.3 5.4
327(10) 0.01077 315.3 5.5
347(10) 0.01078 315.4 5.6
322(10) 0.01099 315.4 5.7
332(10) 0.00989 315.5 5.8
293(9) 0.01193 315.5 6.0
308(9) 0.01177 315.6 6.1
315(9) 0.01175 315.6 6.3
316(10) 0.01106 315.7 6.5
336(10) 0.00997 315.7 6.6
329(10) 0.01074 315.8 6.9
340(10) 0.01063 315.8 7.2
338(10) 0.01098 315.8 7.4
345(10) 0.00959 315.9 7.7
306(9) 0.01125 315.9 8.0
326(10) 0.01062 316.0 8.3
330(10) 0.01083 316.0 8.7
315(9) 0.01180 316.1 9.1
342(10) 0.01002 316.1 9.6
334(10) 0.01010 316.2 10.0
326(10) 0.01035 316.2 10.6
321(9) 0.01135 316.3 11.2
355(10) 0.01027 316.3 11.9
360(10) 0.00949 316.4 12.6
372(11) 0.00871 316.4 13.5
340(10) 0.01051 316.5 14.5
376(10) 0.00954 316.5 15.7
327(9) 0.01150 316.6 17.0
348(10) 0.00978 316.6 18.7
348(11) 0.00906 316.7 20.8
363(10) 0.00949 316.7 23.7
346(10) 0.01081 316.8 27.6
361(10) 0.00995 316.8 33.3
394(11) 0.00863 316.9 41.3
375(11) 0.00884 316.9 52.5
378(10) 0.00915 316.9 67.2
388(10) 0.00957 317.0 85.6
406(11) 0.00903 317.0 106.7
457(11) 0.00777 317.1 128.8
474(12) 0.00715 317.1 148.4
473(12) 0.00754 317.2 163.0
485(11) 0.00758 317.2 172.7
500(12) 0.00725 317.3 181.3
466(12) 0.00749 317.3 192.4
530(13) 0.00623 317.4 207.1
528(12) 0.00662 317.4 223.5
535(12) 0.00697 317.5 236.7
499(12) 0.00727 317.5 241.4
481(12) 0.00736 317.6 235.9
490(12) 0.00680 317.6 223.4
461(11) 0.00770 317.7 208.8
472(11) 0.00786 317.7 196.5
453(11) 0.00781 317.8 188.4
469(12) 0.00727 317.8 184.7
487(12) 0.00693 317.9 184.6
494(12) 0.00704 317.9 185.7
494(12) 0.00748 318.0 185.9
518(12) 0.00682 318.0 183.2
473(12) 0.00733 318.0 177.0
507(12) 0.00679 318.1 167.4
497(12) 0.00714 318.1 155.2
450(11) 0.00829 318.2 141.4
436(11) 0.00799 318.2 127.1
409(11) 0.00887 318.3 112.8
433(11) 0.00785 318.3 99.4
405(11) 0.00892 318.4 87.0
380(10) 0.00978 318.4 76.0
379(10) 0.00930 318.5 66.3
389(11) 0.00819 318.5 57.8
374(11) 0.00906 318.6 50.5
368(10) 0.00998 318.6 44.2
351(10) 0.01058 318.7 39.0
372(10) 0.00940 318.7 34.5
363(11) 0.00898 318.8 30.8
365(10) 0.00974 318.8 27.7
379(10) 0.00996 318.9 25.1
349(10) 0.01062 318.9 23.0
353(10) 0.00994 319.0 21.2
360(10) 0.00911 319.0 19.7
326(10) 0.01091 319.1 18.5
345(10) 0.01083 319.1 17.4
325(9) 0.01131 319.1 16.5
339(10) 0.00996 319.2 15.6
334(10) 0.00986 319.2 14.9
367(10) 0.00947 319.3 14.3
349(10) 0.01075 319.3 13.7
335(10) 0.01084 319.4 13.2
337(10) 0.01017 319.4 12.7
355(10) 0.00941 319.5 12.3
331(10) 0.01069 319.5 11.9
346(10) 0.01071 319.6 11.5
330(10) 0.01102 319.6 11.2
358(10) 0.00945 319.7 10.9
333(10) 0.01012 319.7 10.6
347(10) 0.00998 319.8 10.3
355(10) 0.01040 319.8 10.1
332(10) 0.01064 319.9 9.9
348(10) 0.00955 319.9 9.6
347(10) 0.00998 320.0 9.6
358(10) 0.00953 320.0 9.4
365(10) 0.01027 320.1 9.3
345(10) 0.00999 320.1 9.1
338(10) 0.00994 320.2 9.0
357(10) 0.00936 320.2 8.8
313(9) 0.01139 320.2 8.7
373(10) 0.00990 320.3 8.6
321(10) 0.01101 320.3 8.5
332(10) 0.01016 320.4 8.5
363(10) 0.00924 320.4 8.4
334(10) 0.01081 320.5 8.4
348(10) 0.01058 320.5 8.5
310(9) 0.01151 320.6 8.6
328(10) 0.01002 320.6 8.7
328(10) 0.01030 320.7 9.0
328(9) 0.01117 320.7 9.3
346(10) 0.01069 320.8 9.8
353(10) 0.00951 320.8 10.4
311(10) 0.01095 320.9 11.2
349(10) 0.01004 320.9 12.2
339(10) 0.01102 321.0 13.3
320(9) 0.01161 321.0 14.6
357(10) 0.00936 321.1 16.1
315(10) 0.01063 321.1 17.5
342(10) 0.01020 321.2 18.9
349(10) 0.01064 321.2 20.0
302(9) 0.01215 321.3 20.6
347(10) 0.00988 321.3 20.6
356(11) 0.00901 321.3 20.0
358(10) 0.00948 321.4 18.9
333(9) 0.01117 321.4 17.4
350(10) 0.01075 321.5 15.8
348(10) 0.01005 321.5 14.2
343(10) 0.00935 321.6 12.8
328(10) 0.01032 321.6 11.5
327(9) 0.01149 321.7 10.3
313(9) 0.01174 321.7 9.4
334(10) 0.01024 321.8 8.6
333(10) 0.00994 321.8 8.0
320(10) 0.01088 321.9 7.5
324(9) 0.01146 321.9 7.1
316(9) 0.01168 322.0 6.8
326(10) 0.01068 322.0 6.6
344(10) 0.01000 322.1 6.4
350(10) 0.00966 322.1 6.3
311(9) 0.01185 322.2 6.2
315(9) 0.01135 322.2 6.1
322(10) 0.01058 322.3 6.0
339(10) 0.00998 322.3 5.9
337(10) 0.01057 322.4 5.9
317(9) 0.01181 322.4 5.9
349(10) 0.01020 322.4 5.8
344(10) 0.00978 322.5 5.8
324(10) 0.01064 322.5 5.8
324(10) 0.01087 322.6 5.9
334(9) 0.01115 322.6 5.9
340(10) 0.01011 322.7 5.9
357(10) 0.00909 322.7 5.9
334(10) 0.01032 322.8 6.0
346(10) 0.01006 322.8 6.0
337(9) 0.01108 322.9 6.0
327(10) 0.01016 322.9 6.1
336(10) 0.00972 323.0 6.1
322(10) 0.01076 323.0 6.2
326(10) 0.01104 323.1 6.3
332(10) 0.01105 323.1 6.3
340(10) 0.00983 323.2 6.4
321(10) 0.01032 323.2 6.5
315(10) 0.01024 323.3 6.6
328(10) 0.01094 323.3 6.7
323(9) 0.01159 323.4 6.8
322(9) 0.01118 323.4 6.9
319(10) 0.01013 323.4 7.1
327(10) 0.01038 323.5 7.2
329(10) 0.01108 323.5 7.3
321(9) 0.01168 323.6 7.5
319(10) 0.01103 323.6 7.6
341(10) 0.00950 323.7 7.8
336(10) 0.01036 323.7 8.0
314(9) 0.01182 323.7 8.2
332(9) 0.01117 323.8 8.4
328(10) 0.01086 323.8 8.6
344(10) 0.00940 323.9 8.9
326(10) 0.01096 323.9 9.1
315(9) 0.01171 324.0 9.4
303(9) 0.01198 324.0 9.7
329(10) 0.01075 324.1 10.0
324(10) 0.01015 324.1 10.3
312(9) 0.01121 324.1 10.7
355(10) 0.01048 324.2 11.0
349(10) 0.01052 324.2 11.4
360(10) 0.00957 324.3 11.8
344(10) 0.00944 324.3 12.2
345(10) 0.00995 324.4 12.7
345(10) 0.01085 324.4 13.1
322(10) 0.01106 324.5 13.6
353(10) 0.00945 324.5 14.1
327(10) 0.01033 324.5 14.6
358(10) 0.00983 324.6 15.2
353(10) 0.01046 324.6 15.8
353(10) 0.01000 324.7 16.4
331(10) 0.01024 324.7 17.0
322(10) 0.01045 324.8 17.7
353(10) 0.01004 324.8 18.4
362(10) 0.01019 324.9 19.2
350(10) 0.01010 324.9 20.1
352(10) 0.00956 324.9 21.0
345(10) 0.00988 325.0 22.1
357(10) 0.00949 325.0 23.3
349(10) 0.01061 325.1 24.7
373(11) 0.00891 325.1 26.4
331(10) 0.01004 325.2 28.3
354(10) 0.00981 325.2 30.8
340(10) 0.01082 325.2 33.8
367(10) 0.01002 325.3 37.9
353(10) 0.00973 325.3 43.4
367(10) 0.00912 325.4 51.2
397(11) 0.00858 325.4 62.2
411(11) 0.00875 325.5 77.2
406(10) 0.00911 325.5 97.4
434(11) 0.00798 325.6 123.1
449(12) 0.00734 325.6 154.1
468(12) 0.00750 325.6 188.8
493(12) 0.00739 325.7 224.1
582(12) 0.00640 325.7 254.1
574(13) 0.00623 325.8 271.5
561(13) 0.00579 325.8 270.9
560(13) 0.00619 325.9 253.3
502(12) 0.00739 325.9 224.8
443(11) 0.00840 326.0 192.7
471(11) 0.00759 326.0 162.2
446(12) 0.00727 326.0 136.2
441(11) 0.00777 326.1 116.1
444(11) 0.00834 326.1 101.9
427(11) 0.00869 326.2 93.1
404(11) 0.00867 326.2 88.8
434(12) 0.00739 326.3 88.3
410(11) 0.00858 326.3 90.5
421(11) 0.00892 326.4 95.0
441(11) 0.00815 326.4 101.3
445(11) 0.00767 326.4 108.8
499(12) 0.00659 326.5 117.3
464(11) 0.00772 326.5 126.3
471(11) 0.00793 326.6 135.1
473(11) 0.00780 326.6 142.9
494(12) 0.00696 326.7 148.8
466(12) 0.00738 326.7 151.9
449(11) 0.00788 326.7 151.6
478(11) 0.00778 326.8 147.7
474(12) 0.00746 326.8 140.8
418(11) 0.00835 326.9 131.7
429(11) 0.00805 326.9 121.3
419(11) 0.00839 327.0 110.5
388(10) 0.00968 327.0 99.8
426(11) 0.00806 327.1 89.7
398(11) 0.00857 327.1 80.5
378(11) 0.00901 327.1 72.3
385(10) 0.00925 327.2 65.2
407(10) 0.00908 327.2 59.1
385(10) 0.00945 327.3 54.0
399(11) 0.00838 327.3 49.8
393(11) 0.00875 327.4 46.5
391(11) 0.00902 327.4 43.8
398(10) 0.00929 327.5 41.8
346(10) 0.00994 327.5 40.3
381(11) 0.00876 327.5 39.4
374(10) 0.00930 327.6 38.8
368(10) 0.00994 327.6 38.7
393(10) 0.00930 327.7 39.1
367(10) 0.00928 327.7 40.0
384(11) 0.00853 327.8 41.6
400(11) 0.00884 327.8 44.0
371(10) 0.00987 327.9 47.6
362(10) 0.01011 327.9 52.4
381(11) 0.00904 327.9 58.6
389(11) 0.00796 328.0 66.2
379(10) 0.00945 328.0 75.1
404(10) 0.00916 328.1 84.6
422(11) 0.00886 328.1 93.7
388(10) 0.00915 328.2 101.1
417(11) 0.00791 328.2 104.7
453(11) 0.00775 328.2 103.8
433(11) 0.00866 328.3 98.8
395(10) 0.00939 328.3 91.3
408(11) 0.00855 328.4 82.9
395(11) 0.00842 328.4 74.9
430(11) 0.00803 328.5 68.0
425(11) 0.00885 328.5 62.6
401(10) 0.00910 328.6 58.6
389(11) 0.00876 328.6 56.1
394(11) 0.00828 328.6 54.9
393(11) 0.00878 328.7 54.8
391(10) 0.00956 328.7 55.6
409(11) 0.00876 328.8 57.0
395(11) 0.00877 328.8 59.1
407(11) 0.00815 328.9 61.6
388(11) 0.00893 328.9 64.4
401(10) 0.00921 329.0 67.4
407(11) 0.00881 329.0 70.3
407(11) 0.00829 329.0 72.8
397(11) 0.00830 329.1 74.6
418(11) 0.00804 329.1 75.4
405(10) 0.00917 329.2 75.0
414(11) 0.00876 329.2 73.5
392(11) 0.00897 329.3 71.0
405(11) 0.00845 329.3 67.8
378(10) 0.00934 329.4 64.4
404(10) 0.00915 329.4 60.8
365(10) 0.00970 329.4 57.4
399(11) 0.00840 329.5 54.1
390(11) 0.00886 329.5 51.1
360(10) 0.00992 329.6 48.4
365(10) 0.01019 329.6 45.9
376(10) 0.00930 329.7 43.7
363(10) 0.00934 329.7 41.7
361(10) 0.00979 329.8 39.9
386(10) 0.00938 329.8 38.3
342(10) 0.01086 329.8 36.8
379(10) 0.00926 329.9 35.4
365(10) 0.00943 329.9 34.1
384(11) 0.00890 330.0 32.9
360(10) 0.01000 330.0 31.8
362(10) 0.01017 330.1 30.7
355(10) 0.01001 330.1 29.6
350(10) 0.00968 330.1 28.6
360(10) 0.00962 330.2 27.6
344(10) 0.01058 330.2 26.6
357(10) 0.01043 330.3 25.7
330(10) 0.01047 330.3 24.8
365(11) 0.00851 330.4 23.9
371(10) 0.00936 330.4 23.0
386(10) 0.00959 330.5 22.2
367(10) 0.01000 330.5 21.4
360(10) 0.00975 330.5 20.7
361(10) 0.00919 330.6 19.9
353(10) 0.01022 330.6 19.2
372(10) 0.00992 330.7 18.6
354(10) 0.01063 330.7 17.9
375(10) 0.00918 330.8 17.3
380(11) 0.00834 330.8 16.7
340(10) 0.01042 330.9 16.1
347(10) 0.01081 330.9 15.6
385(10) 0.00947 330.9 15.0
360(10) 0.00956 331.0 14.6
373(11) 0.00892 331.0 14.1
373(10) 0.00924 331.1 13.6
354(10) 0.01037 331.1 13.2
362(10) 0.01015 331.2 12.8
350(10) 0.01021 331.2 12.4
339(10) 0.01028 331.3 12.1
331(10) 0.01060 331.3 11.7
358(10) 0.01044 331.3 11.4
329(10) 0.01049 331.4 11.1
332(10) 0.01033 331.4 10.8
347(10) 0.00946 331.5 10.5
354(10) 0.00985 331.5 10.3
348(10) 0.01065 331.6 10.0
383(11) 0.00907 331.6 9.8
383(11) 0.00872 331.6 9.6
346(10) 0.01038 331.7 9.4
350(10) 0.01034 331.7 9.2
344(10) 0.01078 331.8 9.0
347(10) 0.01005 331.8 8.8
335(10) 0.01031 331.9 8.7
331(10) 0.01031 331.9 8.5
346(10) 0.01026 332.0 8.4
332(9) 0.01123 332.0 8.3
350(10) 0.00929 332.0 8.1
350(10) 0.00919 332.1 8.0
343(10) 0.01020 332.1 7.9
333(10) 0.01108 332.2 7.8
300(9) 0.01236 332.2 7.7
335(10) 0.01027 332.3 7.7
366(11) 0.00874 332.3 7.6
343(10) 0.00985 332.4 7.5
321(9) 0.01114 332.4 7.4
334(9) 0.01116 332.4 7.4
347(10) 0.00984 332.5 7.3
345(10) 0.00937 332.5 7.3
344(10) 0.01000 332.6 7.2
371(10) 0.00998 332.6 7.2
335(10) 0.01078 332.7 7.2
358(10) 0.00920 332.7 7.2
343(10) 0.00965 332.8 7.1
332(10) 0.01069 332.8 7.1
333(9) 0.01115 332.8 7.1
349(10) 0.01054 332.9 7.1
343(10) 0.01007 332.9 7.0
345(10) 0.00971 333.0 7.0
376(11) 0.00891 333.0 7.0
335(10) 0.01097 333.1 7.0
344(10) 0.01062 333.1 7.0
355(10) 0.00964 333.1 7.0
340(10) 0.00975 333.2 7.0
343(10) 0.01004 333.2 7.1
340(10) 0.01098 333.3 7.1
334(10) 0.01062 333.3 7.1
359(10) 0.00953 333.4 7.1
325(10) 0.01026 333.4 7.2
348(10) 0.00969 333.5 7.2
316(9) 0.01179 333.5 7.3
340(10) 0.01078 333.6 7.3
377(10) 0.00920 333.6 7.4
380(11) 0.00900 333.6 7.4
348(10) 0.01018 333.7 7.5
340(10) 0.01097 333.7 7.6
350(10) 0.01012 333.8 7.6
335(10) 0.00983 333.8 7.7
317(10) 0.01063 333.9 7.8
347(10) 0.01024 333.9 7.9
351(10) 0.01047 334.0 8.0
370(10) 0.00941 334.0 8.1
354(10) 0.00947 334.1 8.3
326(10) 0.01083 334.1 8.4
350(10) 0.01035 334.1 8.5
331(9) 0.01117 334.2 8.7
347(10) 0.00978 334.2 8.9
329(10) 0.01064 334.3 9.1
366(10) 0.00946 334.3 9.3
351(10) 0.01042 334.4 9.5
370(10) 0.00996 334.4 9.7
326(10) 0.01097 334.5 10.0
351(10) 0.00939 334.5 10.2
342(10) 0.01017 334.6 10.5
344(10) 0.01080 334.6 10.9
329(9) 0.01134 334.7 11.2
331(10) 0.01061 334.7 11.7
361(10) 0.00935 334.7 12.1
379(10) 0.00910 334.8 12.6
345(10) 0.01067 334.8 13.1
324(9) 0.01145 334.9 13.7
346(10) 0.01023 334.9 14.4
358(10) 0.00931 335.0 15.1
342(10) 0.01024 335.0 16.0
375(10) 0.00997 335.1 16.8
351(10) 0.01046 335.1 17.8
355(10) 0.01009 335.2 18.9
358(10) 0.00924 335.2 20.0
366(10) 0.00971 335.2 21.2
374(10) 0.01000 335.3 22.5
367(10) 0.00994 335.3 23.9
358(10) 0.00963 335.4 25.3
321(10) 0.01076 335.4 26.7
363(10) 0.00950 335.5 28.2
372(10) 0.00989 335.5 29.6
378(10) 0.00958 335.6 31.0
394(11) 0.00851 335.6 32.2
371(10) 0.00921 335.7 33.4
385(10) 0.00916 335.7 34.4
386(10) 0.00954 335.8 35.3
338(10) 0.01074 335.8 36.1
354(10) 0.00930 335.8 36.8
386(11) 0.00856 335.9 37.5
395(11) 0.00883 335.9 38.1
369(10) 0.01007 336.0 38.9
349(10) 0.01016 336.0 39.7
374(10) 0.00933 336.1 40.6
370(10) 0.00910 336.1 41.6
379(10) 0.00943 336.2 42.7
365(10) 0.01023 336.2 44.0
368(10) 0.00966 336.3 45.3
388(11) 0.00861 336.3 46.7
386(11) 0.00878 336.4 48.3
396(11) 0.00890 336.4 49.9
380(10) 0.00980 336.4 51.6
418(11) 0.00825 336.5 53.3
385(11) 0.00876 336.5 55.1
403(11) 0.00873 336.6 56.8
399(10) 0.00928 336.6 58.6
404(10) 0.00911 336.7 60.4
404(11) 0.00850 336.7 62.1
416(11) 0.00795 336.8 63.7
393(10) 0.00908 336.8 65.3
400(10) 0.00918 336.9 66.7
383(10) 0.00965 336.9 68.0
410(11) 0.00843 336.9 69.2
375(11) 0.00894 337.0 70.2
408(11) 0.00866 337.0 71.1
402(10) 0.00911 337.1 71.9
406(10) 0.00916 337.1 72.5
424(11) 0.00822 337.2 72.9
399(11) 0.00843 337.2 73.3
408(11) 0.00858 337.3 73.6
409(10) 0.00909 337.3 73.8
380(10) 0.00956 337.4 74.0
378(10) 0.00955 337.4 74.3
417(11) 0.00762 337.5 74.6
390(11) 0.00887 337.5 74.9
417(11) 0.00886 337.5 75.4
421(11) 0.00885 337.6 76.0
399(11) 0.00853 337.6 76.8
403(11) 0.00804 337.7 77.7
422(11) 0.00808 337.7 78.8
390(10) 0.00960 337.8 80.1
420(11) 0.00868 337.8 81.6
407(11) 0.00879 337.9 83.3
436(11) 0.00763 337.9 85.1
417(11) 0.00832 338.0 87.1
405(10) 0.00918 338.0 89.2
426(11) 0.00840 338.1 91.4
446(12) 0.00747 338.1 93.6
415(11) 0.00832 338.1 95.9
411(11) 0.00837 338.2 98.0
438(11) 0.00850 338.2 100.0
439(11) 0.00816 338.3 101.7
421(11) 0.00827 338.3 103.2
425(11) 0.00818 338.4 104.5
434(11) 0.00814 338.4 105.2
415(11) 0.00898 338.5 105.4
419(11) 0.00822 338.5 105.0
398(11) 0.00856 338.6 104.1
387(10) 0.00909 338.6 102.7
435(11) 0.00805 338.6 100.7
413(11) 0.00900 338.7 98.1
413(11) 0.00818 338.7 95.2
384(11) 0.00896 338.8 91.8
415(11) 0.00816 338.8 88.2
387(10) 0.00932 338.9 84.4
374(10) 0.00995 338.9 80.4
378(10) 0.00924 339.0 76.4
391(11) 0.00839 339.0 72.4
371(10) 0.00921 339.1 68.4
371(10) 0.00964 339.1 64.6
406(10) 0.00920 339.2 60.9
366(10) 0.00959 339.2 57.5
375(11) 0.00868 339.2 54.3
376(10) 0.00932 339.3 51.6
386(10) 0.00965 339.3 50.2
371(10) 0.00990 339.4 52.2
374(10) 0.00920 339.4 61.1
404(11) 0.00775 339.5 79.5
404(11) 0.00867 339.5 103.9
409(10) 0.00915 339.6 121.8
418(11) 0.00884 339.6 119.0
380(10) 0.00919 339.7 95.9
402(11) 0.00800 339.7 67.5
377(10) 0.00925 339.8 45.6
366(10) 0.01012 339.8 33.1
384(10) 0.00962 339.8 27.1
372(10) 0.00919 339.9 24.2
369(11) 0.00845 339.9 22.5
345(10) 0.01016 340.0 21.3
355(10) 0.01049 340.0 20.2
359(10) 0.01022 340.1 19.3
357(10) 0.01002 340.1 18.4
343(10) 0.00980 340.2 17.7
351(10) 0.00932 340.2 17.1
335(9) 0.01116 340.3 16.5
374(10) 0.00957 340.3 16.0
356(10) 0.00996 340.3 15.6
339(10) 0.01014 340.4 15.2
341(10) 0.01054 340.4 14.9
362(10) 0.01032 340.5 14.6
356(10) 0.01021 340.5 14.3
379(10) 0.00907 340.6 14.1
357(10) 0.00946 340.6 13.9
338(10) 0.01021 340.7 13.8
356(10) 0.01050 340.7 13.7
358(10) 0.00983 340.8 13.6
374(11) 0.00889 340.8 13.5
355(10) 0.00969 340.9 13.5
348(10) 0.00996 340.9 13.6
371(10) 0.01000 340.9 13.6
331(10) 0.01074 341.0 13.7
366(11) 0.00879 341.0 13.9
330(10) 0.01062 341.1 14.1
353(10) 0.01043 341.1 14.4
360(10) 0.01027 341.2 14.7
353(10) 0.00980 341.2 15.1
353(10) 0.00978 341.3 15.7
392(11) 0.00882 341.3 16.3
342(10) 0.01106 341.4 17.1
379(10) 0.00970 341.4 18.1
377(10) 0.00914 341.5 19.5
379(11) 0.00863 341.5 21.5
375(11) 0.00895 341.5 24.3
374(10) 0.00975 341.6 28.6
414(11) 0.00896 341.6 34.8
406(11) 0.00890 341.7 43.8
417(11) 0.00798 341.7 56.4
453(11) 0.00776 341.8 72.7
470(11) 0.00790 341.8 92.7
489(12) 0.00756 341.9 114.9
548(13) 0.00634 341.9 136.5
567(13) 0.00569 342.0 152.7
549(12) 0.00647 342.0 158.4
549(12) 0.00683 342.0 151.3
492(12) 0.00749 342.1 134.4
462(12) 0.00752 342.1 112.9
463(12) 0.00722 342.2 91.4
450(11) 0.00779 342.2 72.4
400(10) 0.00939 342.3 57.1
412(11) 0.00874 342.3 45.7
412(11) 0.00842 342.4 37.7
379(11) 0.00890 342.4 32.4
371(10) 0.00934 342.5 29.0
401(10) 0.00928 342.5 27.1
398(10) 0.00909 342.6 25.9
371(11) 0.00902 342.6 25.4
338(10) 0.00983 342.6 25.3
346(10) 0.00980 342.7 25.4
396(10) 0.00939 342.7 25.8
386(10) 0.00933 342.8 26.4
384(11) 0.00891 342.8 27.2
397(11) 0.00820 342.9 28.1
392(11) 0.00877 342.9 29.3
359(10) 0.01036 343.0 30.6
362(10) 0.00971 343.0 32.0
379(11) 0.00869 343.1 33.5
365(10) 0.00935 343.1 35.1
367(10) 0.00940 343.2 36.8
390(10) 0.00957 343.2 38.4
404(11) 0.00860 343.2 39.9
391(11) 0.00847 343.3 41.2
383(10) 0.00909 343.3 42.3
381(10) 0.00939 343.4 43.1
379(10) 0.00985 343.4 43.4
354(10) 0.00952 343.5 43.3
374(11) 0.00876 343.5 42.7
352(10) 0.00999 343.6 41.9
357(10) 0.01025 343.6 40.7
372(10) 0.00993 343.7 39.4
375(10) 0.00915 343.7 38.0
392(11) 0.00819 343.7 36.5
358(10) 0.01033 343.8 35.1
393(10) 0.00927 343.8 33.8
385(10) 0.00970 343.9 32.6
392(11) 0.00858 343.9 31.6
349(10) 0.00972 344.0 30.7
401(11) 0.00856 344.0 30.0
384(10) 0.00969 344.1 29.5
370(10) 0.00999 344.1 29.2
398(11) 0.00863 344.2 29.1
379(11) 0.00827 344.2 29.1
382(11) 0.00888 344.3 29.4
364(10) 0.01029 344.3 29.8
373(10) 0.00988 344.3 30.5
375(10) 0.00950 344.4 31.3
390(11) 0.00871 344.4 32.5
401(11) 0.00863 344.5 34.0
378(10) 0.00976 344.5 35.9
395(10) 0.00925 344.6 38.4
389(11) 0.00822 344.6 41.6
374(11) 0.00872 344.7 45.8
415(11) 0.00845 344.7 51.2
418(11) 0.00888 344.8 58.0
436(11) 0.00830 344.8 66.6
452(11) 0.00756 344.9 77.0
448(12) 0.00753 344.9 89.4
484(12) 0.00713 344.9 103.5
485(11) 0.00769 345.0 119.0
520(12) 0.00695 345.0 135.0
530(12) 0.00661 345.1 149.9
515(12) 0.00676 345.1 161.8
533(13) 0.00640 345.2 168.4
549(12) 0.00679 345.2 168.1
497(12) 0.00692 345.3 160.9
510(12) 0.00663 345.3 148.3
487(12) 0.00708 345.4 132.7
464(11) 0.00761 345.4 116.0
438(11) 0.00849 345.4 99.8
438(11) 0.00811 345.5 85.0
418(11) 0.00823 345.5 72.0
383(10) 0.00911 345.6 61.0
403(11) 0.00876 345.6 51.9
400(10) 0.00930 345.7 44.5
399(11) 0.00897 345.7 38.7
389(11) 0.00895 345.8 34.1
375(10) 0.00968 345.8 30.5
380(10) 0.00957 345.9 27.7
357(10) 0.01047 345.9 25.4
376(10) 0.00932 346.0 23.6
378(11) 0.00870 346.0 22.1
372(10) 0.00932 346.0 20.9
399(10) 0.00923 346.1 19.9
384(10) 0.00960 346.1 19.1
355(10) 0.00948 346.2 18.4
353(10) 0.00926 346.2 17.9
364(10) 0.00944 346.3 17.5
372(10) 0.00986 346.3 17.1
365(10) 0.00996 346.4 16.9
342(10) 0.01024 346.4 16.7
378(11) 0.00853 346.5 16.6
379(10) 0.00911 346.5 16.4
354(10) 0.01043 346.6 16.3
373(10) 0.00995 346.6 16.1
358(10) 0.01000 346.6 15.9
396(11) 0.00784 346.7 15.5
350(10) 0.00976 346.7 15.0
366(10) 0.01016 346.8 14.5
357(10) 0.01020 346.8 13.9
343(10) 0.00992 346.9 13.3
355(10) 0.00922 346.9 12.6
376(11) 0.00888 347.0 12.0
353(10) 0.01057 347.0 11.4
372(10) 0.00953 347.1 10.8
339(10) 0.00977 347.1 10.3
335(10) 0.00967 347.1 9.8
339(10) 0.01013 347.2 9.3
342(10) 0.01086 347.2 9.0
360(10) 0.00961 347.3 8.6
362(10) 0.00950 347.3 8.3
362(10) 0.00925 347.4 8.1
355(10) 0.01016 347.4 7.9
356(10) 0.01055 347.5 7.7
350(10) 0.01018 347.5 7.6
352(10) 0.00948 347.6 7.5
356(10) 0.00958 347.6 7.4
336(10) 0.01083 347.6 7.3
351(10) 0.01057 347.6 7.2
347(10) 0.01033 347.6 7.2
356(10) 0.00935 347.6 7.2
345(10) 0.00994 347.6 7.2
368(10) 0.00951 347.6 7.2
356(10) 0.01053 347.6 7.3
369(10) 0.00923 347.6 7.3
344(10) 0.00969 347.6 7.4
346(10) 0.00989 347.6 7.5
342(10) 0.01053 347.6 7.6
337(10) 0.01103 347.6 7.7
356(10) 0.00999 347.6 7.8
346(10) 0.00953 347.6 8.0
335(10) 0.01065 347.6 8.2
345(10) 0.01057 347.6 8.4
369(10) 0.01009 347.6 8.6
372(10) 0.00953 347.6 8.9
356(10) 0.00926 347.6 9.2
360(10) 0.00949 347.6 9.6
352(10) 0.01036 347.6 10.0
358(10) 0.01040 347.6 10.5
360(10) 0.00959 347.6 11.0
369(11) 0.00898 347.6 11.7
376(10) 0.00933 347.6 12.4
368(10) 0.01011 347.6 13.2
376(10) 0.00995 347.6 14.2
370(10) 0.00952 347.6 15.4
381(11) 0.00837 347.6 16.9
365(10) 0.00954 347.6 18.8
370(10) 0.01004 347.6 21.2
360(10) 0.01006 347.6 24.4
361(10) 0.00979 347.6 28.5
406(11) 0.00773 347.6 34.0
381(10) 0.00921 347.6 41.1
380(10) 0.00976 347.6 50.3
409(10) 0.00914 347.6 61.8
393(11) 0.00889 347.6 75.9
428(11) 0.00763 347.6 92.5
424(11) 0.00809 347.6 111.2
460(11) 0.00809 347.6 131.3
482(12) 0.00743 347.6 151.3
491(12) 0.00732 347.6 168.6
498(12) 0.00690 347.6 180.5
517(12) 0.00651 347.6 184.1
520(12) 0.00715 347.6 178.5
490(12) 0.00716 347.6 165.3
470(12) 0.00726 347.6 147.2
467(12) 0.00718 347.6 127.1
425(11) 0.00826 347.6 107.3
423(11) 0.00879 347.6 89.1
377(10) 0.00950 347.6 73.2
416(11) 0.00796 347.6 59.9
392(11) 0.00850 347.6 49.1
362(10) 0.00986 347.6 40.7
377(10) 0.00976 347.6 34.2
353(10) 0.00973 347.6 29.3
377(11) 0.00875 347.6 25.7
366(10) 0.00960 347.6 23.1
384(10) 0.00927 347.6 21.3
356(10) 0.01052 347.6 19.9
354(10) 0.00998 347.6 19.1
376(11) 0.00878 347.6 18.5
376(10) 0.00915 347.6 18.2
361(10) 0.01030 347.6 18.2
355(10) 0.01039 347.6 18.3
390(11) 0.00889 347.6 18.7
364(11) 0.00906 347.6 19.2
355(10) 0.01007 347.6 19.8
374(10) 0.01002 347.6 20.5
377(10) 0.00985 347.6 21.4
387(11) 0.00898 347.6 22.3
363(11) 0.00880 347.6 23.2
361(10) 0.00939 347.6 24.1
374(10) 0.00996 347.6 25.0
378(10) 0.00977 347.6 25.6
384(10) 0.00929 347.6 26.1
366(11) 0.00892 347.6 26.3
368(10) 0.00922 347.6 26.2
404(10) 0.00924 347.6 25.8
387(10) 0.00945 347.6 25.1
374(10) 0.00948 347.6 24.1
385(11) 0.00863 347.6 23.0
361(10) 0.00963 347.6 21.7
361(10) 0.01036 347.6 20.4
373(10) 0.00964 347.6 19.0
343(10) 0.01026 347.6 17.7
359(11) 0.00893 347.6 16.4
361(11) 0.00907 347.6 15.1
366(10) 0.01012 347.6 14.0
368(10) 0.00967 347.6 12.9
344(10) 0.00998 347.6 11.9
368(11) 0.00896 347.6 11.1
320(10) 0.01059 347.6 10.3
332(9) 0.01113 347.6 9.5
353(10) 0.00996 347.6 8.9
365(10) 0.00956 347.6 8.4
330(10) 0.01082 347.6 7.9
375(11) 0.00886 347.6 7.4
367(10) 0.01015 347.6 7.1
356(10) 0.00993 347.6 6.7
363(10) 0.00937 347.6 6.5
359(10) 0.00952 347.6 6.2
362(10) 0.00995 347.6 6.0
344(10) 0.01068 347.6 5.8
373(10) 0.00927 347.6 5.6
332(10) 0.01027 347.6 5.5
341(10) 0.00975 347.6 5.4
337(10) 0.01083 347.6 5.3
336(10) 0.01096 347.6 5.2
355(10) 0.01000 347.6 5.1
371(11) 0.00876 347.6 5.0
359(10) 0.00957 347.6 4.9
355(10) 0.01041 347.6 4.9
351(10) 0.01048 347.6 4.8
335(10) 0.01030 347.6 4.8
331(10) 0.00984 347.6 4.7
331(10) 0.01034 347.6 4.7
350(10) 0.01045 347.6 4.6
378(10) 0.00966 347.6 4.6
351(10) 0.01009 347.6 4.6
362(11) 0.00907 347.6 4.6
347(10) 0.01040 347.6 4.5
343(10) 0.01069 347.6 4.5
332(9) 0.01126 347.6 4.5
367(10) 0.00966 347.6 4.5
357(10) 0.00923 347.6 4.5
343(10) 0.00998 347.6 4.5
362(10) 0.01018 347.6 4.5
345(10) 0.01060 347.6 4.5
357(10) 0.00953 347.6 4.5
335(10) 0.00995 347.6 4.5
352(10) 0.00983 347.6 4.6
340(10) 0.01106 347.6 4.6
348(10) 0.01065 347.6 4.6
344(10) 0.01029 347.6 4.6
359(11) 0.00906 347.6 4.7
360(10) 0.00971 347.6 4.7
340(10) 0.01106 347.6 4.7
339(10) 0.01063 347.6 4.8
340(10) 0.01012 347.6 4.8
370(11) 0.00886 347.6 4.8
356(10) 0.00942 347.6 4.9
343(10) 0.01082 347.7 4.9
332(10) 0.01092 347.7 5.0
360(10) 0.00948 347.7 5.0
350(10) 0.01001 347.7 5.1
374(10) 0.00924 347.8 5.2
349(10) 0.01071 347.8 5.2
353(10) 0.01003 347.8 5.3
339(10) 0.00993 347.8 5.4
362(10) 0.00931 347.8 5.5
350(10) 0.01003 347.9 5.6
345(10) 0.01066 347.9 5.7
363(10) 0.00990 347.9 5.8
365(10) 0.00987 347.9 5.9
364(10) 0.00940 348.0 6.0
367(10) 0.00956 348.0 6.1
357(10) 0.01034 348.0 6.2
360(10) 0.00946 348.0 6.4
339(10) 0.01058 348.1 6.5
374(10) 0.00936 348.1 6.7
363(10) 0.01000 348.1 6.9
341(10) 0.01075 348.1 7.1
349(10) 0.01014 348.2 7.3
362(10) 0.00943 348.2 7.5
360(10) 0.00980 348.2 7.7
369(10) 0.00969 348.2 8.0
354(10) 0.01046 348.2 8.3
334(10) 0.01041 348.3 8.6
354(11) 0.00863 348.3 8.9
331(10) 0.01066 348.3 9.2
359(10) 0.01005 348.3 9.6
339(10) 0.01094 348.4 10.0
343(10) 0.00987 348.4 10.4
366(11) 0.00874 348.4 10.8
358(10) 0.00988 348.4 11.3
345(10) 0.01080 348.5 11.8
364(10) 0.01014 348.5 12.3
359(10) 0.00990 348.5 12.9
345(10) 0.00995 348.5 13.5
399(11) 0.00891 348.5 14.1
340(10) 0.01090 348.6 14.7
371(10) 0.01002 348.6 15.4
352(10) 0.00975 348.6 16.0
360(11) 0.00889 348.6 16.7
366(10) 0.00936 348.7 17.4
375(10) 0.00991 348.7 18.1
378(10) 0.00959 348.7 18.8
358(10) 0.00959 348.7 19.5
379(11) 0.00857 348.8 20.2
342(10) 0.01048 348.8 20.9
370(10) 0.01003 348.8 21.6
347(10) 0.01039 348.8 22.3
373(10) 0.00921 348.9 23.0
391(11) 0.00859 348.9 23.7
408(11) 0.00860 348.9 24.4
378(10) 0.01002 348.9 25.1
352(10) 0.01014 348.9 25.9
383(11) 0.00877 349.0 26.7
361(11) 0.00900 349.0 27.6
364(10) 0.00971 349.0 28.5
388(10) 0.00957 349.0 29.5
388(11) 0.00874 349.1 30.6
385(10) 0.00910 349.1 31.8
352(10) 0.01017 349.1 33.0
366(10) 0.00985 349.1 34.2
372(10) 0.01003 349.2 35.6
374(10) 0.00928 349.2 37.0
368(11) 0.00901 349.2 38.4
393(11) 0.00887 349.2 39.9
406(11) 0.00889 349.3 41.5
366(10) 0.01014 349.3 43.1
371(10) 0.00939 349.3 44.7
399(11) 0.00790 349.3 46.2
387(11) 0.00877 349.3 47.8
363(10) 0.01026 349.4 49.4
409(10) 0.00908 349.4 50.9
396(10) 0.00908 349.4 52.3
382(11) 0.00862 349.4 53.6
399(11) 0.00878 349.5 54.8
381(10) 0.00966 349.5 55.8
361(10) 0.01027 349.5 56.7
382(10) 0.00951 349.5 57.4
388(11) 0.00839 349.6 57.9
399(11) 0.00854 349.6 58.2
385(10) 0.00976 349.6 58.4
398(11) 0.00904 349.6 58.4
364(10) 0.00968 349.6 58.3
379(11) 0.00841 349.7 58.0
415(11) 0.00829 349.7 57.7
384(10) 0.00959 349.7 57.3
382(10) 0.00963 349.7 56.9
384(11) 0.00886 349.8 56.5
386(11) 0.00830 349.8 56.2
381(10) 0.00941 349.8 56.0
397(10) 0.00941 349.8 55.9
417(11) 0.00882 349.9 56.0
393(11) 0.00899 349.9 56.2
394(11) 0.00847 349.9 56.6
389(11) 0.00881 349.9 57.2
439(11) 0.00848 350.0 57.9
440(11) 0.00834 350.0 58.7
421(11) 0.00815 350.0 59.7
418(11) 0.00793 350.0 60.6
396(11) 0.00882 350.0 61.4
415(11) 0.00890 350.1 62.1
394(10) 0.00920 350.1 62.4
423(11) 0.00818 350.1 62.4
436(11) 0.00768 350.1 61.9
407(11) 0.00863 350.2 61.1
397(10) 0.00932 350.2 59.8
443(11) 0.00810 350.2 58.4
415(11) 0.00805 350.2 56.8
397(11) 0.00861 350.3 55.1
409(11) 0.00878 350.3 53.6
398(10) 0.00934 350.3 52.2
395(11) 0.00848 350.3 50.9
399(11) 0.00833 350.4 49.6
408(11) 0.00831 350.4 48.2
405(11) 0.00888 350.4 46.6
385(10) 0.00973 350.4 44.9
371(10) 0.00955 350.4 43.3
385(11) 0.00874 350.5 41.8
394(11) 0.00867 350.5 40.5
396(10) 0.00909 350.5 39.5
410(10) 0.00918 350.5 38.8
383(11) 0.00893 350.6 38.3
405(11) 0.00796 350.6 38.1
394(11) 0.00889 350.6 38.0
406(10) 0.00907 350.6 38.1
410(10) 0.00908 350.7 38.3
400(11) 0.00869 350.7 38.6
412(11) 0.00799 350.7 39.0
424(11) 0.00822 350.7 39.5
418(11) 0.00884 350.7 39.9
413(11) 0.00899 350.8 40.5
430(11) 0.00804 350.8 41.0
420(11) 0.00763 350.8 41.6
407(11) 0.00870 350.8 42.2
394(10) 0.00946 350.9 42.8
418(11) 0.00887 350.9 43.4
418(11) 0.00835 350.9 43.9
433(12) 0.00755 350.9 44.4
428(11) 0.00832 351.0 44.9
375(10) 0.00977 351.0 45.4
397(10) 0.00911 351.0 45.7
433(11) 0.00808 351.0 46.0
408(11) 0.00807 351.1 46.3
410(11) 0.00844 351.1 46.4
408(10) 0.00912 351.1 46.5
411(11) 0.00891 351.1 46.4
399(11) 0.00904 351.1 46.3
390(11) 0.00882 351.2 46.0
382(11) 0.00875 351.2 45.7
373(10) 0.00992 351.2 45.3
406(11) 0.00900 351.2 44.7
409(11) 0.00854 351.3 44.1
375(10) 0.00938 351.3 43.5
424(11) 0.00800 351.3 42.7
378(10) 0.00973 351.3 41.9
390(10) 0.00926 351.4 41.1
403(11) 0.00834 351.4 40.2
419(11) 0.00822 351.4 39.3
388(10) 0.00927 351.4 38.4
407(10) 0.00917 351.5 37.5
410(11) 0.00830 351.5 36.5
388(11) 0.00875 351.5 35.6
391(11) 0.00872 351.5 34.6
386(10) 0.00926 351.5 33.7
409(10) 0.00916 351.6 32.8
398(11) 0.00878 351.6 31.9
390(11) 0.00851 351.6 31.0
406(11) 0.00819 351.6 30.2
361(10) 0.01048 351.7 29.3
362(10) 0.01021 351.7 28.5
369(10) 0.00954 351.7 27.7
364(10) 0.00935 351.7 27.0
407(11) 0.00846 351.8 26.2
397(10) 0.00937 351.8 25.5
391(10) 0.00949 351.8 24.8
361(10) 0.00963 351.8 24.2
365(11) 0.00905 351.8 23.5
362(10) 0.00988 351.9 22.9
364(10) 0.01010 351.9 22.3
379(10) 0.01001 351.9 21.8
377(10) 0.00923 351.9 21.3
384(11) 0.00848 352.0 20.7
386(10) 0.00927 352.0 20.2
377(10) 0.00987 352.0 19.8
344(10) 0.01063 352.0 19.3
372(10) 0.00934 352.1 18.9
375(11) 0.00855 352.1 18.5
369(10) 0.00939 352.1 18.2
377(10) 0.00995 352.1 17.8
384(10) 0.00963 352.2 17.5
347(10) 0.01038 352.2 17.2
355(10) 0.00945 352.2 16.9
385(11) 0.00885 352.2 16.7
369(10) 0.01013 352.2 16.5
399(10) 0.00925 352.3 16.3
382(10) 0.00908 352.3 16.1
377(11) 0.00856 352.3 16.0
364(10) 0.00924 352.3 15.9
345(10) 0.01080 352.4 15.8
378(10) 0.00938 352.4 15.7
344(10) 0.01023 352.4 15.7
361(10) 0.00951 352.4 15.6
373(10) 0.00933 352.5 15.7
402(10) 0.00932 352.5 15.7
375(10) 0.00978 352.5 15.8
380(11) 0.00891 352.5 15.8
368(10) 0.00928 352.6 15.9
393(11) 0.00875 352.6 16.1
361(10) 0.01035 352.6 16.2
360(10) 0.00987 352.6 16.3
362(10) 0.00926 352.6 16.5
368(10) 0.00929 352.7 16.6
351(10) 0.01040 352.7 16.8
352(10) 0.01048 352.7 16.9
377(11) 0.00902 352.7 17.0
369(10) 0.00910 352.8 17.1
404(11) 0.00871 352.8 17.1
389(10) 0.00935 352.8 17.2
378(10) 0.00989 352.8 17.2
361(10) 0.00930 352.9 17.2
392(11) 0.00826 352.9 17.2
361(10) 0.00973 352.9 17.3
379(10) 0.00976 352.9 17.5
427(11) 0.00872 352.9 17.7
383(10) 0.00912 353.0 18.1
388(11) 0.00826 353.0 18.7
354(10) 0.00967 353.0 19.5
376(10) 0.00959 353.0 20.5
354(10) 0.01024 353.1 21.8
373(10) 0.00910 353.1 23.4
379(11) 0.00870 353.1 25.4
403(11) 0.00864 353.1 27.6
400(10) 0.00920 353.2 30.1
371(10) 0.01010 353.2 32.7
372(10) 0.00932 353.2 35.4
390(11) 0.00826 353.2 38.0
399(11) 0.00872 353.3 40.2
396(10) 0.00948 353.3 41.7
391(10) 0.00918 353.3 42.3
384(11) 0.00885 353.3 41.9
402(11) 0.00810 353.3 40.4
412(11) 0.00833 353.4 38.2
384(10) 0.00968 353.4 35.4
368(10) 0.00994 353.4 32.4
379(10) 0.00923 353.4 29.4
384(11) 0.00881 353.5 26.5
351(10) 0.00995 353.5 23.9
369(10) 0.01006 353.5 21.4
373(10) 0.00974 353.5 19.3
376(10) 0.00947 353.6 17.5
384(11) 0.00882 353.6 16.0
371(10) 0.00943 353.6 14.7
352(10) 0.01057 353.6 13.7
374(10) 0.00911 353.7 12.9
347(10) 0.01018 353.7 12.3
369(10) 0.00936 353.7 11.8
350(10) 0.01014 353.7 11.5
369(10) 0.01014 353.7 11.2
365(10) 0.00934 353.8 11.0
348(10) 0.01005 353.8 10.9
380(11) 0.00886 353.8 10.8
355(10) 0.00972 353.8 10.8
372(10) 0.01003 353.9 10.9
371(10) 0.00939 353.9 11.0
368(10) 0.00927 353.9 11.1
343(10) 0.01046 353.9 11.3
375(10) 0.00960 354.0 11.6
390(10) 0.00955 354.0 11.9
357(10) 0.00955 354.0 12.2
388(11) 0.00853 354.0 12.6
358(10) 0.00987 354.0 13.2
371(10) 0.00970 354.1 13.8
390(10) 0.00956 354.1 14.5
404(11) 0.00858 354.1 15.4
363(10) 0.00911 354.1 16.6
364(10) 0.00907 354.2 17.9
373(10) 0.00983 354.2 19.6
346(10) 0.01065 354.2 21.7
396(11) 0.00864 354.2 24.3
399(11) 0.00806 354.3 27.4
388(10) 0.00928 354.3 31.2
377(10) 0.00974 354.3 35.7
396(10) 0.00940 354.3 41.0
416(11) 0.00858 354.4 47.2
422(11) 0.00782 354.4 54.2
402(11) 0.00869 354.4 62.1
402(10) 0.00933 354.4 70.5
418(11) 0.00879 354.4 79.4
440(11) 0.00792 354.5 88.2
473(12) 0.00686 354.5 96.4
485(12) 0.00733 354.5 103.1
483(11) 0.00777 354.5 107.6
469(11) 0.00776 354.6 109.2
464(12) 0.00755 354.6 107.7
453(12) 0.00732 354.6 103.3
464(12) 0.00747 354.6 96.7
458(11) 0.00818 354.7 88.7
422(11) 0.00861 354.7 80.0
438(11) 0.00790 354.7 71.3
404(11) 0.00842 354.7 63.0
386(10) 0.00907 354.8 55.3
407(11) 0.00903 354.8 48.5
394(10) 0.00931 354.8 42.5
399(11) 0.00878 354.8 37.3
377(11) 0.00905 354.8 33.0
378(10) 0.00930 354.9 29.4
378(10) 0.00988 354.9 26.4
385(10) 0.00938 354.9 24.0
390(11) 0.00881 354.9 22.1
397(11) 0.00862 355.0 20.6
364(10) 0.00986 355.0 19.4
378(10) 0.00988 355.0 18.4
361(10) 0.00953 355.0 17.7
380(11) 0.00876 355.1 17.1
390(11) 0.00895 355.1 16.6
374(10) 0.00968 355.1 16.2
374(10) 0.00995 355.1 15.9
391(11) 0.00892 355.1 15.7
378(10) 0.00922 355.2 15.5
365(10) 0.00978 355.2 15.4
384(10) 0.00970 355.2 15.3
386(10) 0.00955 355.2 15.3
368(10) 0.00913 355.3 15.3
359(10) 0.00931 355.3 15.3
383(11) 0.00882 355.3 15.3
341(10) 0.01098 355.3 15.3
365(10) 0.01017 355.4 15.4
365(10) 0.00960 355.4 15.5
367(11) 0.00878 355.4 15.6
358(10) 0.00981 355.4 15.7
401(11) 0.00906 355.5 15.8
371(10) 0.00995 355.5 16.0
370(10) 0.00915 355.5 16.1
377(11) 0.00856 355.5 16.2
413(11) 0.00855 355.5 16.4
370(10) 0.00999 355.6 16.5
384(10) 0.00951 355.6 16.7
353(10) 0.00989 355.6 16.8
380(11) 0.00847 355.6 17.0
360(10) 0.00970 355.7 17.2
374(10) 0.01001 355.7 17.3
387(10) 0.00953 355.7 17.4
357(10) 0.00977 355.7 17.6
371(11) 0.00903 355.8 17.7
401(11) 0.00829 355.8 17.9
390(10) 0.00952 355.8 18.0
384(10) 0.00940 355.8 18.1
367(10) 0.00949 355.9 18.2
399(11) 0.00830 355.9 18.3
382(11) 0.00897 355.9 18.4
374(10) 0.00990 355.9 18.5
380(10) 0.00932 355.9 18.6
350(10) 0.01032 356.0 18.7
364(10) 0.00932 356.0 18.7
351(10) 0.01037 356.0 18.8
370(10) 0.01003 356.0 18.8
366(10) 0.00926 356.1 18.8
371(10) 0.00919 356.1 18.9
384(11) 0.00891 356.1 18.9
355(10) 0.01014 356.1 18.9
369(10) 0.01008 356.2 18.9
385(10) 0.00915 356.2 18.9
388(11) 0.00860 356.2 18.8
384(11) 0.00899 356.2 18.8
365(10) 0.00982 356.2 18.8
385(10) 0.00969 356.3 18.7
357(10) 0.00980 356.3 18.7
377(11) 0.00829 356.3 18.7
382(11) 0.00889 356.3 18.6
354(10) 0.01039 356.4 18.5
367(10) 0.01013 356.4 18.4
385(11) 0.00896 356.4 18.4
367(11) 0.00887 356.4 18.3
347(10) 0.01024 356.5 18.2
362(10) 0.01010 356.5 18.1
390(10) 0.00964 356.5 18.0
382(10) 0.00917 356.5 17.9
371(11) 0.00907 356.6 17.8
373(10) 0.00939 356.6 17.6
358(10) 0.01035 356.6 17.5
372(10) 0.01008 356.6 17.4
375(10) 0.00960 356.6 17.3
416(11) 0.00769 356.7 17.2
382(11) 0.00905 356.7 17.0
378(10) 0.00958 356.7 16.9
379(10) 0.00963 356.7 16.8
369(10) 0.00928 356.8 16.7
390(11) 0.00813 356.8 16.5
391(11) 0.00900 356.8 16.4
386(10) 0.00970 356.8 16.3
365(10) 0.00989 356.9 16.1
357(10) 0.00978 356.9 16.0
393(11) 0.00844 356.9 15.9
378(10) 0.00960 356.9 15.8
380(10) 0.00975 357.0 15.7
399(11) 0.00903 357.0 15.6
375(10) 0.00924 357.0 15.6
352(10) 0.01002 357.0 15.5
358(10) 0.00990 357.0 15.4
379(10) 0.00982 357.1 15.4
375(10) 0.00936 357.1 15.4
348(10) 0.01009 357.1 15.3
361(10) 0.00946 357.1 15.3
365(10) 0.00977 357.2 15.3
392(10) 0.00952 357.2 15.2
376(10) 0.00946 357.2 15.2
382(11) 0.00892 357.2 15.2
367(10) 0.00950 357.3 15.2
382(10) 0.00922 357.3 15.3
381(10) 0.00990 357.3 15.3
387(10) 0.00919 357.3 15.3
374(11) 0.00893 357.3 15.4
346(10) 0.01016 357.4 15.4
364(10) 0.00968 357.4 15.5
346(10) 0.01066 357.4 15.5
337(10) 0.01053 357.4 15.6
373(11) 0.00902 357.5 15.7
380(11) 0.00902 357.5 15.7
367(10) 0.00997 357.5 15.8
351(10) 0.01051 357.5 15.9
371(10) 0.00931 357.6 16.0
351(10) 0.00981 357.6 16.1
375(10) 0.00909 357.6 16.2
410(11) 0.00895 357.6 16.2
361(10) 0.01022 357.7 16.3
345(10) 0.00987 357.7 16.4
352(10) 0.00934 357.7 16.5
355(10) 0.00981 357.7 16.5
358(10) 0.01027 357.7 16.6
365(10) 0.01012 357.6 16.6
374(10) 0.00927 357.6 16.6
381(11) 0.00854 357.6 16.6
353(10) 0.01003 357.5 16.6
358(10) 0.01040 357.5 16.6
362(10) 0.01037 357.5 16.6
405(11) 0.00826 357.4 16.5
334(10) 0.00953 357.4 16.4
363(10) 0.00919 357.4 16.3
357(10) 0.01032 357.3 16.2
349(10) 0.01069 357.3 16.1
393(11) 0.00860 357.3 15.9
354(10) 0.00923 357.2 15.8
335(10) 0.01038 357.2 15.6
376(10) 0.00997 357.2 15.4
355(10) 0.01034 357.1 15.2
339(10) 0.01046 357.1 14.9
374(11) 0.00849 357.1 14.7
379(11) 0.00883 357.0 14.5
354(10) 0.01055 357.0 14.2
375(10) 0.00966 357.0 14.0
397(11) 0.00877 356.9 13.7
404(11) 0.00844 356.9 13.5
387(11) 0.00887 356.9 13.3
350(10) 0.01059 356.8 13.0
366(10) 0.00988 356.8 12.8
336(10) 0.01000 356.8 12.6
345(10) 0.00977 356.7 12.4
364(10) 0.00924 356.7 12.2
349(10) 0.01062 356.7 12.1
367(10) 0.00961 356.6 11.9
360(10) 0.00927 356.6 11.8
368(11) 0.00902 356.6 11.8
364(10) 0.00973 356.5 11.7
347(10) 0.01081 356.5 11.7
376(10) 0.00936 356.5 11.8
374(11) 0.00897 356.4 12.0
385(11) 0.00893 356.4 12.4
368(10) 0.00979 356.4 13.0
355(10) 0.01054 356.3 14.0
376(11) 0.00902 356.3 15.4
361(10) 0.00958 356.3 17.4
363(10) 0.00971 356.2 20.2
383(10) 0.00962 356.2 23.8
413(11) 0.00901 356.2 28.1
391(11) 0.00886 356.1 33.1
399(11) 0.00805 356.1 38.2
383(10) 0.00908 356.1 42.6
417(11) 0.00888 356.0 45.2
436(11) 0.00860 356.0 45.3
424(11) 0.00838 356.0 42.7
405(11) 0.00795 355.9 38.3
379(10) 0.00927 355.9 33.1
363(10) 0.01013 355.9 27.9
381(10) 0.00975 355.8 23.4
388(11) 0.00900 355.8 19.5
405(11) 0.00779 355.8 16.5
379(10) 0.00918 355.7 14.3
395(10) 0.00945 355.7 12.6
371(10) 0.01001 355.7 11.5
382(10) 0.00921 355.6 10.7
374(11) 0.00905 355.6 10.2
373(10) 0.00951 355.6 9.9
363(10) 0.01026 355.5 9.6
363(10) 0.01007 355.5 9.5
357(10) 0.00994 355.5 9.4
346(10) 0.00951 355.4 9.3
354(10) 0.00979 355.4 9.3
361(10) 0.01036 355.4 9.3
389(10) 0.00938 355.3 9.4
377(10) 0.00920 355.3 9.5
356(10) 0.00966 355.3 9.6
372(10) 0.00926 355.2 9.8
358(10) 0.01027 355.2 9.9
385(11) 0.00898 355.2 10.1
367(10) 0.00933 355.1 10.3
361(10) 0.00981 355.1 10.5
375(10) 0.00919 355.1 10.8
356(10) 0.01044 355.0 11.0
375(10) 0.00926 355.0 11.3
372(11) 0.00897 355.0 11.6
364(10) 0.00932 354.9 11.9
345(10) 0.01031 354.9 12.2
376(10) 0.00987 354.9 12.5
356(10) 0.00970 354.8 12.9
388(11) 0.00894 354.8 13.2
374(10) 0.00925 354.8 13.6
358(10) 0.01011 354.7 13.9
358(10) 0.01027 354.7 14.3
364(10) 0.00950 354.7 14.7
373(11) 0.00877 354.6 15.1
380(11) 0.00884 354.6 15.4
380(10) 0.00932 354.6 15.8
392(10) 0.00957 354.5 16.2
374(10) 0.00923 354.5 16.5
357(10) 0.00954 354.5 16.9
354(10) 0.01002 354.4 17.2
368(10) 0.00991 354.4 17.5
346(10) 0.01083 354.4 17.8
356(10) 0.00962 354.3 18.1
362(11) 0.00856 354.3 18.3
362(10) 0.00943 354.3 18.6
384(10) 0.00963 354.2 18.9
371(10) 0.01013 354.2 19.1
385(10) 0.00922 354.2 19.2
397(11) 0.00798 354.1 19.4
393(11) 0.00879 354.1 19.6
378(10) 0.00986 354.1 19.7
369(10) 0.00992 354.0 19.8
379(10) 0.00930 354.0 19.9
386(11) 0.00821 354.0 20.0
353(10) 0.00982 353.9 20.0
385(10) 0.00953 353.9 20.0
391(10) 0.00948 353.9 20.0
355(10) 0.00999 353.8 20.0
376(11) 0.00864 353.8 19.9
356(10) 0.00978 353.8 19.8
356(10) 0.01043 353.7 19.7
366(10) 0.00969 353.7 19.5
389(11) 0.00869 353.7 19.3
352(10) 0.00963 353.6 19.1
360(10) 0.00965 353.6 18.9
366(10) 0.01010 353.6 18.7
363(10) 0.00965 353.5 18.4
362(10) 0.00970 353.5 18.2
380(11) 0.00887 353.5 18.0
380(10) 0.00927 353.4 17.9
359(10) 0.01033 353.4 17.8
380(10) 0.00969 353.4 17.7
366(10) 0.00966 353.3 17.8
360(10) 0.00962 353.3 17.9
390(11) 0.00893 353.3 18.2
406(10) 0.00921 353.2 18.6
379(10) 0.00929 353.2 19.3
382(11) 0.00859 353.2 20.3
359(10) 0.00977 353.1 21.7
374(10) 0.00956 353.1 23.6
373(10) 0.00991 353.1 26.2
384(11) 0.00901 353.0 29.5
338(10) 0.01004 353.0 33.8
395(11) 0.00842 353.0 39.1
371(10) 0.00993 352.9 45.3
400(10) 0.00911 352.9 52.5
384(11) 0.00873 352.9 60.3
395(11) 0.00843 352.8 68.2
383(11) 0.00907 352.8 75.4
412(11) 0.00887 352.8 81.0
457(11) 0.00813 352.7 83.7
429(11) 0.00812 352.7 83.1
422(11) 0.00760 352.7 79.2
389(11) 0.00857 352.6 73.0
368(10) 0.00995 352.6 65.6
388(10) 0.00959 352.6 58.0
383(11) 0.00889 352.5 50.8
368(11) 0.00902 352.5 44.5
406(11) 0.00856 352.5 39.2
426(11) 0.00850 352.4 35.0
380(10) 0.00984 352.4 31.9
398(11) 0.00862 352.4 29.7
367(11) 0.00872 352.3 28.4
380(11) 0.00905 352.3 28.0
398(10) 0.00917 352.3 28.2
401(11) 0.00891 352.2 29.0
397(11) 0.00849 352.2 30.4
387(11) 0.00847 352.2 32.3
407(11) 0.00863 352.1 34.6
405(10) 0.00920 352.1 37.2
412(11) 0.00855 352.1 40.2
408(11) 0.00823 352.0 43.3
420(12) 0.00749 352.0 46.5
384(11) 0.00850 351.9 49.5
385(10) 0.00968 351.9 52.1
436(11) 0.00825 351.9 54.0
425(11) 0.00802 351.8 55.2
404(11) 0.00812 351.8 55.4
407(11) 0.00846 351.8 54.7
417(11) 0.00898 351.7 53.5
409(11) 0.00856 351.7 51.8
388(11) 0.00891 351.7 50.0
385(11) 0.00855 351.6 48.2
429(11) 0.00808 351.6 46.6
400(10) 0.00935 351.6 45.2
379(10) 0.00907 351.5 44.1
391(11) 0.00866 351.5 43.2
408(11) 0.00825 351.5 42.6
428(11) 0.00831 351.4 42.2
379(10) 0.00975 351.4 42.1
411(11) 0.00827 351.4 42.0
390(11) 0.00879 351.3 42.0
372(10) 0.00954 351.3 42.0
389(10) 0.00939 351.3 41.9
402(10) 0.00915 351.2 41.7
436(11) 0.00761 351.2 41.3
359(10) 0.00914 351.2 40.8
367(10) 0.00936 351.1 40.0
349(10) 0.01067 351.1 39.1
369(10) 0.01016 351.1 37.9
400(11) 0.00873 351.0 36.6
386(10) 0.00910 351.0 35.2
423(11) 0.00822 351.0 33.9
392(10) 0.00941 350.9 32.3
417(11) 0.00878 350.9 30.7
382(11) 0.00883 350.9 29.1
372(11) 0.00885 350.8 27.5
372(10) 0.00935 350.8 25.9
347(10) 0.01064 350.8 24.4
383(10) 0.00977 350.7 23.0
383(11) 0.00905 350.7 21.6
397(11) 0.00826 350.7 20.3
360(10) 0.00981 350.6 19.1
347(10) 0.01074 350.6 18.0
367(10) 0.01007 350.6 16.9
377(11) 0.00904 350.5 15.9
363(11) 0.00902 350.5 15.0
361(10) 0.00943 350.5 14.2
378(10) 0.00971 350.4 13.4
398(10) 0.00932 350.4 12.7
375(10) 0.00949 350.4 12.1
364(10) 0.00947 350.3 11.5
400(11) 0.00840 350.3 11.0
365(10) 0.01017 350.3 10.6
344(10) 0.01059 350.2 10.2
337(10) 0.01021 350.2 9.8
356(10) 0.00942 350.2 9.4
371(10) 0.00943 350.1 9.1
336(9) 0.01110 350.1 8.9
362(10) 0.00980 350.1 8.7
358(10) 0.00933 350.0 8.4
362(10) 0.00928 350.0 8.3
359(10) 0.00989 350.0 8.1
374(10) 0.00995 349.9 8.1
355(10) 0.01001 349.9 8.0
324(9) 0.01110 349.9 7.9
360(10) 0.00929 349.8 7.8
371(10) 0.00946 349.8 7.8
355(10) 0.01064 349.8 7.7
346(10) 0.00991 349.7 7.7
340(10) 0.00981 349.7 7.7
325(10) 0.01068 349.7 7.7
351(10) 0.01050 349.6 7.7
359(10) 0.01034 349.6 7.7
360(10) 0.00963 349.6 7.8
356(11) 0.00895 349.6 7.8
330(10) 0.01077 349.6 7.9
359(10) 0.01018 349.6 8.0
356(10) 0.01049 349.6 8.1
352(10) 0.00982 349.5 8.2
343(10) 0.00955 349.5 8.4
361(10) 0.00965 349.5 8.5
351(10) 0.01053 349.5 8.7
382(10) 0.00971 349.5 8.9
389(11) 0.00864 349.5 9.1
334(10) 0.00984 349.5 9.3
357(10) 0.00961 349.5 9.5
322(9) 0.01174 349.5 9.8
370(10) 0.00997 349.4 10.0
395(11) 0.00884 349.4 10.3
363(10) 0.00917 349.4 10.6
355(10) 0.00981 349.4 10.9
325(9) 0.01136 349.4 11.2
362(10) 0.01035 349.4 11.5
365(10) 0.00968 349.4 11.9
336(10) 0.01025 349.4 12.2
369(10) 0.00951 349.4 12.5
368(10) 0.01005 349.3 12.9
382(10) 0.00948 349.3 13.2
354(10) 0.00989 349.3 13.5
344(10) 0.00974 349.3 13.8
383(11) 0.00895 349.3 14.1
357(10) 0.01028 349.3 14.4
358(10) 0.01028 349.3 14.6
392(11) 0.00860 349.3 14.8
363(10) 0.00937 349.2 15.0
372(10) 0.00928 349.2 15.2
367(10) 0.01015 349.2 15.2
381(10) 0.00915 349.2 15.3
383(11) 0.00897 349.2 15.3
370(10) 0.00926 349.2 15.3
369(10) 0.00939 349.2 15.2
379(10) 0.00990 349.2 15.2
396(11) 0.00902 349.2 15.0
379(11) 0.00883 349.1 14.9
363(10) 0.00918 349.1 14.8
370(10) 0.00941 349.1 14.6
390(10) 0.00960 349.1 14.4
343(10) 0.01008 349.1 14.3
356(10) 0.00950 349.1 14.1
370(11) 0.00893 349.1 13.9
361(10) 0.00980 349.1 13.8
359(10) 0.01025 349.1 13.7
359(10) 0.00962 349.0 13.6
333(10) 0.01011 349.0 13.5
380(11) 0.00883 349.0 13.4
350(10) 0.01043 349.0 13.4
378(10) 0.00989 349.0 13.4
366(10) 0.00931 349.0 13.5
374(11) 0.00881 349.0 13.6
373(10) 0.00910 349.0 13.8
369(10) 0.00987 348.9 14.1
365(10) 0.01030 348.9 14.4
378(11) 0.00905 348.9 14.9
377(11) 0.00856 348.9 15.4
370(10) 0.00940 348.9 16.1
363(10) 0.01015 348.9 17.0
405(10) 0.00917 348.9 18.0
381(10) 0.00907 348.9 19.2
422(12) 0.00721 348.9 20.6
385(11) 0.00892 348.8 22.3
357(10) 0.01055 348.8 24.3
407(11) 0.00902 348.8 26.6
400(11) 0.00877 348.8 29.2
391(11) 0.00830 348.8 32.3
371(10) 0.00916 348.8 35.8
420(11) 0.00888 348.8 39.9
410(11) 0.00897 348.8 44.8
440(11) 0.00781 348.8 50.9
429(11) 0.00769 348.7 59.2
473(12) 0.00749 348.7 70.7
474(11) 0.00784 348.7 87.0
465(11) 0.00773 348.7 109.6
526(12) 0.00672 348.7 140.0
555(13) 0.00615 348.7 178.5
610(13) 0.00569 348.7 222.7
672(13) 0.00553 348.7 267.5
674(14) 0.00541 348.6 303.1
690(14) 0.00506 348.6 318.0
644(14) 0.00521 348.6 305.7
605(13) 0.00569 348.6 270.8
593(13) 0.00631 348.6 224.5
527(12) 0.00648 348.6 177.4
454(12) 0.00748 348.6 135.5
431(11) 0.00784 348.6 101.5
460(11) 0.00774 348.6 76.1
463(11) 0.00802 348.5 58.2
409(11) 0.00876 348.5 46.3
428(11) 0.00774 348.5 38.5
414(11) 0.00810 348.5 33.5
416(11) 0.00868 348.5 30.3
396(10) 0.00948 348.5 28.1
384(11) 0.00904 348.5 26.6
395(11) 0.00862 348.5 25.5
371(10) 0.00938 348.5 24.8
385(10) 0.00933 348.4 24.3
361(10) 0.01024 348.4 24.0
400(11) 0.00847 348.4 23.8
393(11) 0.00837 348.4 23.9
359(10) 0.00994 348.4 24.0
410(11) 0.00890 348.4 24.3
366(10) 0.01027 348.4 24.7
414(11) 0.00820 348.4 25.2
370(10) 0.00927 348.4 25.7
399(11) 0.00879 348.3 26.4
398(10) 0.00922 348.3 27.2
366(10) 0.01028 348.3 28.0
364(10) 0.00935 348.3 28.9
358(10) 0.00925 348.3 29.9
379(10) 0.00917 348.3 31.0
374(10) 0.00992 348.3 32.2
390(10) 0.00948 348.3 33.4
372(10) 0.00955 348.2 34.7
382(11) 0.00847 348.2 36.0
384(11) 0.00892 348.2 37.4
413(10) 0.00915 348.2 38.9
402(10) 0.00917 348.2 40.4
393(11) 0.00897 348.2 42.0
395(11) 0.00854 348.2 43.6
429(11) 0.00808 348.2 45.2
393(10) 0.00944 348.2 46.9
382(10) 0.00969 348.1 48.6
407(11) 0.00856 348.1 50.3
420(11) 0.00798 348.1 51.9
385(10) 0.00920 348.1 53.6
388(10) 0.00958 348.1 55.2
410(11) 0.00904 348.1 56.8
404(11) 0.00866 348.1 58.4
379(10) 0.00914 348.1 59.9
425(11) 0.00813 348.1 61.4
411(11) 0.00896 348.0 62.8
414(11) 0.00871 348.0 64.2
401(11) 0.00886 348.0 65.5
428(11) 0.00823 348.0 66.9
423(11) 0.00855 348.0 68.3
398(10) 0.00937 348.0 69.8
442(11) 0.00771 348.0 71.4
437(11) 0.00807 348.0 73.2
465(12) 0.00725 347.9 75.2
444(11) 0.00810 347.9 77.4
483(11) 0.00773 347.9 79.9
444(11) 0.00767 347.9 82.8
441(11) 0.00775 347.9 86.0
462(12) 0.00751 347.9 89.6
476(12) 0.00750 347.9 93.6
463(11) 0.00800 347.9 98.1
476(12) 0.00726 347.9 102.9
524(13) 0.00616 347.8 107.9
522(12) 0.00650 347.8 113.2
483(12) 0.00749 347.8 118.5
527(12) 0.00707 347.8 123.6
516(12) 0.00689 347.8 128.4
519(13) 0.00635 347.8 132.3
509(12) 0.00682 347.8 135.2
492(11) 0.00760 347.8 136.8
514(12) 0.00717 347.8 136.8
488(12) 0.00704 347.7 135.1
491(12) 0.00673 347.7 132.0
510(12) 0.00688 347.7 127.5
472(11) 0.00788 347.7 122.0
491(12) 0.00735 347.7 115.9
448(11) 0.00791 347.7 109.3
451(12) 0.00714 347.7 102.6
459(12) 0.00752 347.7 96.0
444(11) 0.00840 347.7 89.6
437(11) 0.00828 347.6 83.5
417(11) 0.00831 347.6 77.8
446(12) 0.00711 347.6 72.6
435(11) 0.00804 347.6 67.7
422(11) 0.00889 347.6 63.3
427(11) 0.00862 347.6 59.3
409(11) 0.00837 347.6 55.8
362(10) 0.00921 347.6 52.6
407(11) 0.00844 347.5 49.7
418(11) 0.00891 347.5 47.2
390(10) 0.00928 347.5 44.9
377(10) 0.00932 347.5 42.9
387(11) 0.00903 347.5 41.2
406(11) 0.00875 347.5 39.6
401(10) 0.00930 347.5 38.2
379(10) 0.00925 347.5 36.9
357(10) 0.01016 347.5 35.8
371(10) 0.00951 347.4 34.8
381(10) 0.00915 347.4 33.9
374(10) 0.00989 347.4 33.1
363(10) 0.00962 347.4 32.4
370(10) 0.00933 347.4 31.8
426(11) 0.00781 347.4 31.3
415(11) 0.00862 347.4 30.8
383(10) 0.00973 347.4 30.4
399(11) 0.00874 347.4 30.2
375(11) 0.00872 347.3 30.0
379(10) 0.00923 347.3 29.9
403(11) 0.00874 347.3 30.0
381(10) 0.00981 347.3 30.2
417(11) 0.00850 347.3 30.5
385(11) 0.00880 347.3 31.1
409(11) 0.00852 347.3 31.9
390(10) 0.00956 347.3 32.9
394(10) 0.00949 347.2 34.3
369(10) 0.00956 347.2 36.1
430(11) 0.00766 347.2 38.4
417(11) 0.00845 347.2 41.2
413(11) 0.00884 347.2 44.6
395(10) 0.00956 347.2 48.7
437(11) 0.00792 347.2 53.6
433(11) 0.00767 347.2 59.4
446(11) 0.00770 347.2 66.0
446(11) 0.00808 347.1 73.5
462(11) 0.00794 347.1 81.8
443(11) 0.00791 347.1 90.9
472(12) 0.00667 347.1 100.7
465(12) 0.00731 347.1 110.8
486(11) 0.00766 347.1 120.9
506(12) 0.00718 347.1 130.4
532(12) 0.00663 347.1 138.7
566(13) 0.00586 347.1 145.1
542(12) 0.00651 347.0 149.1
535(12) 0.00703 347.0 150.0
525(12) 0.00699 347.0 148.0
512(12) 0.00664 347.0 143.1
522(13) 0.00627 347.0 135.8
497(12) 0.00690 347.0 126.8
504(12) 0.00741 347.0 116.7
512(12) 0.00705 347.0 106.2
460(11) 0.00756 346.9 95.7
467(12) 0.00709 346.9 85.6
463(11) 0.00766 346.9 76.1
450(11) 0.00823 346.9 67.4
414(11) 0.00868 346.9 59.5
400(11) 0.00863 346.9 52.5
390(11) 0.00895 346.9 46.4
388(10) 0.00925 346.9 41.1
390(10) 0.00959 346.9 36.5
377(10) 0.00937 346.8 32.6
389(11) 0.00861 346.8 29.3
346(10) 0.01030 346.8 26.5
398(11) 0.00874 346.8 24.2
395(10) 0.00939 346.8 22.2
403(11) 0.00868 346.8 20.6
380(11) 0.00889 346.8 19.2
358(10) 0.00928 346.8 18.0
354(10) 0.00977 346.8 17.0
375(10) 0.00994 346.7 16.1
396(11) 0.00858 346.7 15.3
381(11) 0.00887 346.7 14.7
384(10) 0.00908 346.7 14.1
347(10) 0.01037 346.7 13.6
396(10) 0.00953 346.7 13.2
376(10) 0.00926 346.7 12.9
359(10) 0.00964 346.7 12.5
366(10) 0.00959 346.7 12.3
402(10) 0.00907 346.6 12.1
390(10) 0.00968 346.6 11.9
387(11) 0.00896 346.6 11.8
351(10) 0.00945 346.6 11.7
372(11) 0.00891 346.6 11.6
372(10) 0.00993 346.6 11.6
345(10) 0.01075 346.6 11.6
346(10) 0.00990 346.6 11.6
366(11) 0.00893 346.5 11.6
383(10) 0.00942 346.5 11.6
395(10) 0.00909 346.5 11.7
388(10) 0.00956 346.5 11.7
363(10) 0.00981 346.5 11.7
368(11) 0.00897 346.5 11.7
360(10) 0.00944 346.5 11.7
368(10) 0.01015 346.5 11.7
372(10) 0.00968 346.5 11.6
379(11) 0.00883 346.4 11.5
379(11) 0.00841 346.4 11.3
379(11) 0.00890 346.4 11.2
376(10) 0.00996 346.4 11.0
367(10) 0.00970 346.4 10.8
374(10) 0.00919 346.4 10.6
376(11) 0.00891 346.4 10.3
378(11) 0.00903 346.4 10.1
355(10) 0.01073 346.4 9.9
372(10) 0.00941 346.3 9.7
353(10) 0.00967 346.3 9.4
342(10) 0.00968 346.3 9.2
375(11) 0.00898 346.3 9.0
383(10) 0.00972 346.3 8.8
364(10) 0.00964 346.3 8.6
348(10) 0.00954 346.3 8.4
360(10) 0.00946 346.3 8.2
366(10) 0.00973 346.2 8.0
372(10) 0.01001 346.2 7.8
351(10) 0.01023 346.2 7.6
362(10) 0.00940 346.2 7.5
342(10) 0.00956 346.2 7.3
347(10) 0.01042 346.2 7.1
342(10) 0.01095 346.2 6.9
374(10) 0.00934 346.2 6.7
358(10) 0.00946 346.2 6.5
356(10) 0.00979 346.1 6.4
344(10) 0.01045 346.1 6.2
345(10) 0.01081 346.1 6.0
366(10) 0.00943 346.1 5.8
342(10) 0.00983 346.1 5.7
321(10) 0.01103 346.1 5.5
353(10) 0.01027 346.1 5.3
358(10) 0.01047 346.1 5.2
357(10) 0.00969 346.1 5.1
343(10) 0.00942 346.0 4.9
350(10) 0.00983 346.0 4.8
334(9) 0.01116 346.0 4.7
324(9) 0.01159 346.0 4.6
362(10) 0.00924 346.0 4.5
350(10) 0.00944 346.0 4.4
342(10) 0.01020 346.0 4.3
337(10) 0.01106 346.0 4.2
356(10) 0.01027 346.0 4.2
341(10) 0.01030 345.9 4.1
355(10) 0.00911 345.9 4.1
366(10) 0.00958 345.9 4.0
349(10) 0.01072 345.9 4.0
353(10) 0.01053 345.9 3.9
328(10) 0.01077 345.9 3.9
353(10) 0.00945 345.9 3.8
347(10) 0.01018 345.9 3.8
367(10) 0.01018 345.8 3.8
343(10) 0.01058 345.8 3.7
345(10) 0.00997 345.8 3.7
346(10) 0.00950 345.8 3.7
349(10) 0.00995 345.8 3.7
373(10) 0.01002 345.8 3.6
378(10) 0.00939 345.8 3.6
352(10) 0.00964 345.8 3.6
359(10) 0.00941 345.8 3.6
360(10) 0.00964 345.7 3.6
352(10) 0.01053 345.7 3.6
328(10) 0.01076 345.7 3.5
355(10) 0.00945 345.7 3.5
373(11) 0.00898 345.7 3.5
334(10) 0.01038 345.7 3.5
365(10) 0.01025 345.7 3.5
360(10) 0.00985 345.7 3.5
354(10) 0.00979 345.7 3.5
359(10) 0.00958 345.6 3.5
347(10) 0.01013 345.6 3.5
338(10) 0.01103 345.6 3.5
324(10) 0.01086 345.6 3.5
346(10) 0.00999 345.6 3.5
331(10) 0.01037 345.6 3.5
335(10) 0.01083 345.6 3.5
345(10) 0.01065 345.6 3.5
344(10) 0.00987 345.6 3.5
339(10) 0.01009 345.6 3.5
359(10) 0.00974 345.6 3.6
336(10) 0.01103 345.6 3.6
345(10) 0.01071 345.6 3.6
364(10) 0.00951 345.7 3.6
342(10) 0.00974 345.7 3.6
361(10) 0.00935 345.7 3.6
357(10) 0.01021 345.7 3.7
347(10) 0.01075 345.7 3.7
342(10) 0.00987 345.7 3.7
337(10) 0.00912 345.7 3.7
352(10) 0.00988 345.7 3.8
374(10) 0.00998 345.8 3.8
380(10) 0.00979 345.8 3.8
358(10) 0.00969 345.8 3.9
356(10) 0.00909 345.8 3.9
337(10) 0.01072 345.8 3.9
365(10) 0.01008 345.8 4.0
345(10) 0.01084 345.8 4.0
356(10) 0.00995 345.8 4.1
339(10) 0.01000 345.9 4.1
352(10) 0.00963 345.9 4.1
358(10) 0.01031 345.9 4.2
340(10) 0.01042 345.9 4.3
352(10) 0.00974 345.9 4.3
353(10) 0.00943 345.9 4.4
348(10) 0.01004 345.9 4.4
331(9) 0.01128 345.9 4.5
347(10) 0.01054 346.0 4.6
344(10) 0.01014 346.0 4.7
336(10) 0.00995 346.0 4.7
327(10) 0.01034 346.0 4.8
358(10) 0.01034 346.0 4.9
354(10) 0.01019 346.0 5.0
342(10) 0.00994 346.0 5.1
366(10) 0.00912 346.0 5.2
353(10) 0.00990 346.0 5.3
309(9) 0.01188 346.1 5.4
343(10) 0.01052 346.1 5.5
342(10) 0.01027 346.1 5.6
323(10) 0.01078 346.1 5.8
340(10) 0.01058 346.1 5.9
363(10) 0.01025 346.1 6.0
366(10) 0.00923 346.1 6.2
386(11) 0.00833 346.1 6.3
360(10) 0.00968 346.2 6.5
366(10) 0.00973 346.2 6.7
335(9) 0.01115 346.2 6.9
336(10) 0.01006 346.2 7.0
334(10) 0.01040 346.2 7.3
378(11) 0.00902 346.2 7.5
369(10) 0.00994 346.2 7.7
356(10) 0.01042 346.2 7.9
353(10) 0.00991 346.3 8.2
336(10) 0.00956 346.3 8.5
343(10) 0.01005 346.3 8.8
351(10) 0.01065 346.3 9.1
346(10) 0.01069 346.3 9.4
366(10) 0.00924 346.3 9.8
341(10) 0.00964 346.3 10.2
371(10) 0.00956 346.3 10.6
382(10) 0.00972 346.4 11.1
359(10) 0.01039 346.4 11.6
364(10) 0.00940 346.4 12.1
354(11) 0.00897 346.4 12.7
347(10) 0.01035 346.4 13.3
362(10) 0.01032 346.4 14.0
363(10) 0.01008 346.4 14.8
360(10) 0.00964 346.4 15.6
357(11) 0.00895 346.5 16.4
363(10) 0.00926 346.5 17.3
350(10) 0.01065 346.5 18.3
372(10) 0.00991 346.5 19.4
361(10) 0.00953 346.5 20.6
361(11) 0.00905 346.5 21.8
388(11) 0.00877 346.5 23.1
379(10) 0.00976 346.5 24.5
362(10) 0.01008 346.6 25.9
374(10) 0.00956 346.6 27.5
383(10) 0.00924 346.6 29.1
383(10) 0.00921 346.6 30.8
390(10) 0.00964 346.6 32.6
399(11) 0.00881 346.6 34.4
404(11) 0.00839 346.6 36.3
391(11) 0.00865 346.6 38.3
374(10) 0.00938 346.7 40.3
371(10) 0.01005 346.7 42.3
394(10) 0.00917 346.7 44.4
419(11) 0.00810 346.7 46.4
388(11) 0.00876 346.7 48.5
394(11) 0.00896 346.7 50.4
417(11) 0.00887 346.7 52.3
382(10) 0.00941 346.7 54.0
385(11) 0.00865 346.8 55.7
400(11) 0.00839 346.8 57.1
409(11) 0.00873 346.8 58.3
385(10) 0.00968 346.8 59.3
395(11) 0.00839 346.8 60.0
390(11) 0.00878 346.8 60.4
411(11) 0.00855 346.8 60.6
407(11) 0.00898 346.8 60.4
378(10) 0.00973 346.9 60.0
380(10) 0.00927 346.9 59.3
374(11) 0.00897 346.9 58.3
403(11) 0.00857 346.9 57.2
384(10) 0.00971 346.9 55.8
405(10) 0.00914 346.9 54.3
414(11) 0.00829 346.9 52.6
397(11) 0.00826 346.9 50.9
399(11) 0.00900 347.0 49.1
404(10) 0.00921 347.0 47.3
412(11) 0.00899 347.0 45.4
400(11) 0.00839 347.0 43.5
385(11) 0.00829 347.0 41.6
364(10) 0.00946 347.0 39.7
368(10) 0.01015 347.0 37.9
368(10) 0.01003 347.0 36.1
393(11) 0.00901 347.1 34.3
385(11) 0.00854 347.1 32.6
388(11) 0.00898 347.1 30.9
369(10) 0.01012 347.1 29.2
363(10) 0.00991 347.1 27.7
357(10) 0.01007 347.1 26.2
369(11) 0.00901 347.1 24.8
375(10) 0.00909 347.1 23.4
351(10) 0.01076 347.1 22.1
369(10) 0.00974 347.2 20.8
362(10) 0.00952 347.2 19.7
380(11) 0.00865 347.2 18.6
349(10) 0.00964 347.2 17.5
387(10) 0.00966 347.2 16.6
357(10) 0.01022 347.2 15.7
372(10) 0.00932 347.2 14.9
340(10) 0.00994 347.2 14.1
350(10) 0.01006 347.3 13.4
326(9) 0.01136 347.3 12.7
358(10) 0.01014 347.3 12.1
365(10) 0.00962 347.3 11.5
368(10) 0.00942 347.3 11.0
342(10) 0.01032 347.3 10.5
343(10) 0.01086 347.3 10.1
379(10) 0.00920 347.3 9.7
368(11) 0.00905 347.4 9.3
362(10) 0.00966 347.4 9.0
355(10) 0.01022 347.4 8.7
354(10) 0.01051 347.4 8.4
358(10) 0.00950 347.4 8.1
345(10) 0.01001 347.4 7.9
345(10) 0.01015 347.4 7.7
368(10) 0.00991 347.4 7.5
328(9) 0.01121 347.5 7.3
333(10) 0.01044 347.5 7.1
354(10) 0.00951 347.5 7.0
362(10) 0.00980 347.5 6.8
355(10) 0.01026 347.5 6.7
364(10) 0.01013 347.5 6.6
348(10) 0.00996 347.5 6.5
325(10) 0.01047 347.5 6.4
351(10) 0.00979 347.6 6.3
341(10) 0.01091 347.6 6.2
339(10) 0.01107 347.6 6.1
355(10) 0.00950 347.6 6.1
371(11) 0.00847 347.6 6.0
374(11) 0.00900 347.6 5.9
355(10) 0.01042 347.6 5.9
334(10) 0.01075 347.6 5.9
383(10) 0.00919 347.6 5.8
360(10) 0.00943 347.6 5.8
358(10) 0.00967 347.6 5.8
341(10) 0.01092 347.6 5.8
340(10) 0.01087 347.6 5.8
341(10) 0.01038 347.6 5.8
362(11) 0.00898 347.6 5.8
329(10) 0.01054 347.6 5.8
356(10) 0.01038 347.6 5.8
368(10) 0.01007 347.6 5.8
363(10) 0.00983 347.6 5.9
333(10) 0.01039 347.6 5.9
364(10) 0.00941 347.6 6.0
346(10) 0.01091 347.6 6.1
371(10) 0.00972 347.6 6.1
348(10) 0.01010 347.6 6.2
342(10) 0.01002 347.6 6.3
352(10) 0.00994 347.6 6.5
379(10) 0.00984 347.6 6.6
368(10) 0.00953 347.6 6.8
355(10) 0.00958 347.6 7.0
362(10) 0.00925 347.6 7.2
361(10) 0.00924 347.6 7.4
346(10) 0.01071 347.6 7.7
337(10) 0.01052 347.6 8.0
359(10) 0.00957 347.6 8.4
382(11) 0.00884 347.6 8.9
369(10) 0.00958 347.6 9.4
388(10) 0.00960 347.6 10.1
350(10) 0.00978 347.6 11.0
349(10) 0.00988 347.6 12.1
390(11) 0.00865 347.6 13.8
366(10) 0.00980 347.6 16.5
409(11) 0.00905 347.6 21.0
390(11) 0.00895 347.6 28.0
425(11) 0.00775 347.6 38.7
424(11) 0.00840 347.6 53.6
473(11) 0.00769 347.6 72.2
489(11) 0.00757 347.6 92.4
460(11) 0.00764 347.6 109.8
451(12) 0.00739 347.6 118.7
455(11) 0.00764 347.6 115.1
432(11) 0.00857 347.6 101.1
431(11) 0.00865 347.6 82.5
421(11) 0.00817 347.6 64.4
379(11) 0.00901 347.6 49.5
399(11) 0.00872 347.6 38.7
381(10) 0.00966 347.6 31.9
393(10) 0.00936 347.6 28.0
377(10) 0.00951 347.6 26.2
392(11) 0.00852 347.6 25.6
372(10) 0.00968 347.6 25.5
402(10) 0.00909 347.6 25.8
381(10) 0.00951 347.6 26.2
375(10) 0.00932 347.6 26.6
369(10) 0.00920 347.6 26.9
383(10) 0.00925 347.6 27.1
384(10) 0.00969 347.6 27.2
382(10) 0.00958 347.6 27.3
376(10) 0.00930 347.6 27.1
393(11) 0.00880 347.6 26.9
410(11) 0.00837 347.6 26.5
402(10) 0.00922 347.6 26.0
383(10) 0.00915 347.6 25.3
422(11) 0.00786 347.6 24.5
387(11) 0.00863 347.6 23.7
383(11) 0.00904 347.6 22.8
409(10) 0.00917 347.6 21.8
393(10) 0.00916 347.6 20.8
395(11) 0.00874 347.6 19.8
366(10) 0.00946 347.6 18.8
368(10) 0.00952 347.6 17.8
371(10) 0.00990 347.6 16.9
386(11) 0.00906 347.6 16.0
358(10) 0.00936 347.6 15.1
359(10) 0.00963 347.6 14.3
347(10) 0.01043 347.6 13.5
384(10) 0.00949 347.6 12.8
377(11) 0.00897 347.6 12.1
373(11) 0.00841 347.6 11.5
358(10) 0.00953 347.6 10.9
338(10) 0.01098 347.6 10.4
333(10) 0.01104 347.6 10.0
363(10) 0.00909 347.6 9.5
360(10) 0.00907 347.6 9.2
364(10) 0.00954 347.6 8.8
376(10) 0.00945 347.6 8.5
352(10) 0.01050 347.6 8.2
350(10) 0.00995 347.6 8.0
371(11) 0.00881 347.6 7.8
368(10) 0.00949 347.6 7.6
340(10) 0.01090 347.6 7.5
335(9) 0.01113 347.6 7.4
347(10) 0.00977 347.6 7.2
349(10) 0.00938 347.6 7.2
343(10) 0.01026 347.6 7.1
357(10) 0.01026 347.6 7.1
369(10) 0.00991 347.6 7.0
338(10) 0.01001 347.6 7.0
375(11) 0.00819 347.6 7.0
357(10) 0.00967 347.6 7.0
387(10) 0.00964 347.6 7.1
355(10) 0.01037 347.6 7.1
337(10) 0.01036 347.6 7.2
342(10) 0.00939 347.6 7.3
333(10) 0.01044 347.6 7.4
386(10) 0.00962 347.6 7.5
371(10) 0.01000 347.6 7.6
345(10) 0.01025 347.6 7.8
369(10) 0.00913 347.6 7.9
388(11) 0.00896 347.6 8.1
330(9) 0.01134 347.6 8.3
350(10) 0.01042 347.6 8.5
349(10) 0.00967 347.6 8.8
347(10) 0.00936 347.6 9.0
365(10) 0.00924 347.6 9.3
346(10) 0.01072 347.6 9.6
368(10) 0.00979 347.6 10.0
363(10) 0.00930 347.6 10.3
367(11) 0.00886 347.6 10.7
361(10) 0.00945 347.6 11.2
347(10) 0.01077 347.6 11.7
328(10) 0.01102 347.6 12.2
354(10) 0.00945 347.6 12.8
366(10) 0.00920 347.6 13.5
348(10) 0.01036 347.6 14.3
370(10) 0.01008 347.6 15.1
364(10) 0.00966 347.6 16.0
334(10) 0.01032 347.6 17.0
351(10) 0.00977 347.6 18.0
374(10) 0.00969 347.6 19.1
376(10) 0.00983 347.6 20.1
393(11) 0.00869 347.6 21.1
351(10) 0.00921 347.6 21.9
345(10) 0.00983 347.6 22.5
366(10) 0.01014 347.6 22.9
386(10) 0.00957 347.6 23.1
379(11) 0.00892 347.6 23.0
368(11) 0.00882 347.6 22.9
345(10) 0.00983 347.6 22.6
368(10) 0.00970 347.6 22.4
350(10) 0.01065 347.6 22.1
348(10) 0.00992 347.6 21.9
360(10) 0.00931 347.6 21.7
382(10) 0.00909 347.6 21.5
313(9) 0.01213 347.6 21.3
368(10) 0.01001 347.6 21.2
373(10) 0.00943 347.6 21.1
353(11) 0.00871 347.6 21.0
348(10) 0.00965 347.6 21.0
331(10) 0.01096 347.6 21.0
353(10) 0.01049 347.6 21.1
350(10) 0.01001 347.6 21.1
367(11) 0.00884 347.6 21.2
369(10) 0.00918 347.6 21.2
356(10) 0.01044 347.6 21.1
352(10) 0.01060 347.6 21.0
379(10) 0.00915 347.6 20.8
347(10) 0.00929 347.6 20.6
349(10) 0.00977 347.6 20.3
347(10) 0.01077 347.6 20.1
332(10) 0.01089 347.6 20.0
324(10) 0.01072 347.6 19.9
352(10) 0.00939 347.6 19.8
382(11) 0.00889 347.6 19.8
359(10) 0.01036 347.6 19.9
368(10) 0.00983 347.6 20.0
363(10) 0.00970 347.6 20.1
343(10) 0.00997 347.6 20.3
358(10) 0.00981 347.6 20.5
385(10) 0.00966 347.6 20.8
332(10) 0.01074 347.6 21.1
359(10) 0.00928 347.6 21.4
349(10) 0.00966 347.6 21.8
358(10) 0.00968 347.6 22.2
356(10) 0.01052 347.6 22.6
391(11) 0.00864 347.6 23.0
371(10) 0.00922 347.6 23.5
363(10) 0.00954 347.6 24.0
364(10) 0.00990 347.6 24.5
383(10) 0.00970 347.6 25.1
363(10) 0.00960 347.6 25.6
397(11) 0.00845 347.6 26.3
359(10) 0.00999 347.6 26.9
362(10) 0.01011 347.6 27.7
358(10) 0.01039 347.6 28.5
398(11) 0.00793 347.6 29.7
379(11) 0.00861 347.6 31.3
397(11) 0.00870 347.6 33.6
390(10) 0.00923 347.6 37.2
375(10) 0.00998 347.6 42.4
392(11) 0.00875 347.6 49.4
385(11) 0.00885 347.6 58.1
417(11) 0.00834 347.6 67.5
412(11) 0.00895 347.6 75.9
435(11) 0.00871 347.6 80.6
437(11) 0.00801 347.6 79.9
387(11) 0.00843 347.6 74.4
399(11) 0.00858 347.6 66.9
414(11) 0.00891 347.6 59.5
407(11) 0.00905 347.6 53.5
400(11) 0.00895 347.6 49.4
419(11) 0.00777 347.6 47.1
386(11) 0.00904 347.6 46.1
405(10) 0.00924 347.6 45.7
379(10) 0.00959 347.6 45.6
412(11) 0.00818 347.6 45.3
389(11) 0.00866 347.6 44.9
379(10) 0.00938 347.6 44.5
422(11) 0.00878 347.6 44.2
393(10) 0.00940 347.6 44.1
378(10) 0.00908 347.6 44.3
399(11) 0.00834 347.6 44.6
390(11) 0.00894 347.6 45.0
394(10) 0.00932 347.6 45.5
392(10) 0.00911 347.6 46.0
384(11) 0.00857 347.6 46.5
398(11) 0.00859 347.6 46.9
406(11) 0.00864 347.6 47.4
418(11) 0.00886 347.6 47.8
421(11) 0.00854 347.6 48.1
384(11) 0.00902 347.6 48.3
393(11) 0.00857 347.6 48.4
382(10) 0.00937 347.6 48.2
391(10) 0.00943 347.6 47.7
386(10) 0.00932 347.6 47.0
384(11) 0.00886 347.6 46.0
413(11) 0.00789 347.6 44.9
364(10) 0.00979 347.6 43.7
388(10) 0.00958 347.6 42.4
410(11) 0.00861 347.6 41.4
391(11) 0.00841 347.6 40.5
353(10) 0.00989 347.6 40.1
377(10) 0.00946 347.6 40.1
398(10) 0.00932 347.6 40.6
409(11) 0.00837 347.6 41.8
393(11) 0.00860 347.6 43.6
390(11) 0.00856 347.6 46.0
377(10) 0.00962 347.6 48.7
368(10) 0.00995 347.6 51.5
376(10) 0.00930 347.6 53.9
399(11) 0.00832 347.6 55.3
394(11) 0.00882 347.6 55.1
366(10) 0.01018 347.6 53.1
400(10) 0.00915 347.6 49.7
400(11) 0.00891 347.6 45.4
368(10) 0.00937 347.6 40.8
376(10) 0.00908 347.6 36.4
392(10) 0.00946 347.6 32.3
365(10) 0.00997 347.6 28.8
372(10) 0.00954 347.6 25.9
373(11) 0.00839 347.6 23.6
354(10) 0.00966 347.6 21.7
364(10) 0.01030 347.6 20.2
332(9) 0.01126 347.6 19.1
403(11) 0.00858 347.6 18.2
386(11) 0.00867 347.6 17.6
386(10) 0.00916 347.6 17.2
379(10) 0.00981 347.6 16.8
341(10) 0.01059 347.6 16.6
338(10) 0.00974 347.6 16.5
358(11) 0.00884 347.6 16.4
363(10) 0.00925 347.6 16.4
362(10) 0.01025 347.6 16.5
354(10) 0.01011 347.6 16.7
372(10) 0.00949 347.6 17.0
340(10) 0.01046 347.6 17.3
360(10) 0.00936 347.6 17.9
345(10) 0.01085 347.6 18.7
380(10) 0.00924 347.6 19.8
372(10) 0.00921 347.6 21.4
372(11) 0.00904 347.6 23.6
420(11) 0.00818 347.6 26.5
383(10) 0.00965 347.6 30.1
392(11) 0.00904 347.6 34.5
374(11) 0.00906 347.6 39.3
397(11) 0.00845 347.6 44.1
396(11) 0.00902 347.6 48.0
410(10) 0.00907 347.6 50.0
374(10) 0.00927 347.6 49.6
388(11) 0.00900 347.6 46.9
377(10) 0.00930 347.6 43.1
340(10) 0.01070 347.6 39.0
366(10) 0.01009 347.6 35.2
394(11) 0.00823 347.6 32.0
363(10) 0.00964 347.6 29.6
374(10) 0.00939 347.6 27.9
372(10) 0.00968 347.6 26.9
360(10) 0.01029 347.6 26.3
377(11) 0.00892 347.6 26.0
395(11) 0.00836 347.6 25.9
343(10) 0.01021 347.6 26.0
349(10) 0.01067 347.6 26.2
359(10) 0.01035 347.6 26.4
378(10) 0.00921 347.6 26.7
374(11) 0.00896 347.6 26.9
347(10) 0.01017 347.6 27.1
361(10) 0.01027 347.6 27.3
371(10) 0.00987 347.6 27.5
363(10) 0.00991 347.6 27.6
374(11) 0.00863 347.6 27.7
356(10) 0.00958 347.6 27.7
362(10) 0.01039 347.6 27.7
352(10) 0.01060 347.6 27.7
356(10) 0.00955 347.6 27.6
338(10) 0.00954 347.6 27.5
360(10) 0.00956 347.6 27.4
382(10) 0.00979 347.6 27.2
389(10) 0.00927 347.6 26.9
342(10) 0.01025 347.6 26.7
363(11) 0.00905 347.6 26.4
363(10) 0.00938 347.5 26.1
372(10) 0.01000 347.5 25.8
347(10) 0.01045 347.5 25.5
328(10) 0.01065 347.5 25.2
374(11) 0.00867 347.5 24.8
371(10) 0.00907 347.5 24.5
394(10) 0.00946 347.4 24.2
355(10) 0.01022 347.4 23.9
353(10) 0.00998 347.4 23.5
398(11) 0.00860 347.4 23.2
357(10) 0.00990 347.4 22.9
371(10) 0.01010 347.4 22.6
373(10) 0.00947 347.3 22.3
343(10) 0.00999 347.3 22.1
358(10) 0.00923 347.3 21.8
378(10) 0.00914 347.3 21.6
349(10) 0.01058 347.3 21.4
319(9) 0.01129 347.3 21.1
383(11) 0.00867 347.3 21.0
354(10) 0.01005 347.2 20.8
363(10) 0.01013 347.2 20.6
370(10) 0.00998 347.2 20.5
341(10) 0.00960 347.2 20.3
356(10) 0.00940 347.2 20.2
363(10) 0.00940 347.2 20.1
335(10) 0.01102 347.1 20.1
353(10) 0.01049 347.1 20.0
364(10) 0.00953 347.1 20.0
383(11) 0.00877 347.1 19.9
367(10) 0.00909 347.1 19.9
328(9) 0.01126 347.1 19.9
390(10) 0.00954 347.0 19.9
360(10) 0.00934 347.0 19.9
379(11) 0.00826 347.0 20.0
358(10) 0.00982 347.0 20.0
369(10) 0.00998 347.0 20.1
337(10) 0.01086 347.0 20.1
358(10) 0.00988 347.0 20.2
351(10) 0.00939 346.9 20.3
372(11) 0.00897 346.9 20.4
343(10) 0.01080 346.9 20.5
374(10) 0.00997 346.9 20.7
354(10) 0.00978 346.9 20.8
370(11) 0.00852 346.9 21.0
339(10) 0.01010 346.8 21.3
349(10) 0.01070 346.8 21.6
339(10) 0.01088 346.8 21.9
368(10) 0.00982 346.8 22.2
359(10) 0.00914 346.8 22.7
359(10) 0.00966 346.8 23.1
353(10) 0.01061 346.7 23.7
357(10) 0.01032 346.7 24.3
385(11) 0.00900 346.7 25.0
370(10) 0.00947 346.7 25.8
365(10) 0.00952 346.7 26.6
397(10) 0.00929 346.7 27.5
394(10) 0.00908 346.7 28.5
377(10) 0.00925 346.6 29.6
386(11) 0.00887 346.6 30.6
375(11) 0.00906 346.6 31.8
367(10) 0.01008 346.6 32.9
409(11) 0.00868 346.6 33.9
382(11) 0.00894 346.6 35.0
378(10) 0.00911 346.5 35.9
410(11) 0.00861 346.5 36.6
371(10) 0.00999 346.5 37.2
370(10) 0.00948 346.5 37.7
384(10) 0.00914 346.5 37.9
387(10) 0.00930 346.5 38.1
383(10) 0.00931 346.4 38.1
378(10) 0.00984 346.4 38.1
374(10) 0.00924 346.4 38.0
379(11) 0.00878 346.4 37.8
401(11) 0.00841 346.4 37.7
398(10) 0.00913 346.4 37.6
383(10) 0.00967 346.4 37.6
361(10) 0.00957 346.3 37.5
374(11) 0.00905 346.3 37.5
392(11) 0.00888 346.3 37.5
367(10) 0.01006 346.3 37.6
418(11) 0.00879 346.3 37.7
394(11) 0.00895 346.3 37.8
384(11) 0.00856 346.2 37.9
371(10) 0.00957 346.2 38.0
400(10) 0.00918 346.2 38.2
394(10) 0.00933 346.2 38.3
389(11) 0.00883 346.2 38.5
394(11) 0.00807 346.2 38.6
376(10) 0.00950 346.1 38.8
375(10) 0.00991 346.1 39.0
398(10) 0.00927 346.1 39.1
399(11) 0.00899 346.1 39.3
413(11) 0.00773 346.1 39.5
414(11) 0.00827 346.1 39.7
397(10) 0.00931 346.1 39.9
405(11) 0.00907 346.0 40.1
378(10) 0.00942 346.0 40.3
408(11) 0.00821 346.0 40.5
392(11) 0.00903 346.0 40.7
391(10) 0.00953 346.0 41.0
372(10) 0.00976 346.0 41.2
397(11) 0.00874 345.9 41.5
395(11) 0.00843 345.9 41.7
411(11) 0.00835 345.9 41.9
406(10) 0.00913 345.9 42.2
387(10) 0.00920 345.9 42.4
397(11) 0.00869 345.9 42.6
394(11) 0.00840 345.8 42.8
408(11) 0.00858 345.8 42.9
403(10) 0.00922 345.8 43.0
402(11) 0.00872 345.8 43.1
403(11) 0.00836 345.8 43.1
368(10) 0.00961 345.8 43.0
396(11) 0.00875 345.8 42.9
401(10) 0.00931 345.7 42.8
394(10) 0.00929 345.7 42.6
373(10) 0.00938 345.7 42.3
391(11) 0.00906 345.7 42.0
392(10) 0.00940 345.7 41.7
396(10) 0.00941 345.7 41.2
390(11) 0.00878 345.6 40.8
386(11) 0.00885 345.6 40.3
394(11) 0.00882 345.6 39.8
401(10) 0.00912 345.6 39.2
389(10) 0.00957 345.6 38.6
392(11) 0.00854 345.6 38.0
348(10) 0.01000 345.5 37.4
367(10) 0.00952 345.5 36.8
393(10) 0.00938 345.5 36.2
385(10) 0.00969 345.5 35.5
401(11) 0.00846 345.5 34.9
392(11) 0.00843 345.5 34.3
393(11) 0.00864 345.5 33.6
389(10) 0.00940 345.4 33.0
362(10) 0.01038 345.4 32.4
386(11) 0.00897 345.4 31.9
385(11) 0.00831 345.4 31.3
388(11) 0.00907 345.4 30.8
379(10) 0.00971 345.4 30.3
385(10) 0.00961 345.3 29.8
380(10) 0.00931 345.3 29.3
351(10) 0.00910 345.3 28.9
360(10) 0.00979 345.3 28.5
377(10) 0.00991 345.3 28.2
360(10) 0.01025 345.3 27.9
372(10) 0.00930 345.3 27.6
377(11) 0.00842 345.2 27.4
366(11) 0.00905 345.2 27.2
367(10) 0.01020 345.2 27.1
367(10) 0.00991 345.2 27.1
367(10) 0.00989 345.2 27.1
392(11) 0.00847 345.2 27.2
388(11) 0.00867 345.1 27.5
369(10) 0.01010 345.1 27.8
386(10) 0.00948 345.1 28.3
370(10) 0.00941 345.1 28.9
360(10) 0.00931 345.1 29.7
360(10) 0.00974 345.1 30.7
394(10) 0.00943 345.0 31.9
392(10) 0.00908 345.0 33.4
369(10) 0.00925 345.0 35.2
396(11) 0.00862 345.0 37.3
374(10) 0.00956 345.0 39.7
368(10) 0.01002 345.0 42.4
377(10) 0.00943 345.0 45.5
390(11) 0.00884 344.9 48.9
410(11) 0.00835 344.9 52.7
390(11) 0.00903 344.9 56.6
405(10) 0.00915 344.9 60.8
389(11) 0.00894 344.9 65.0
409(11) 0.00839 344.9 69.2
411(11) 0.00868 344.8 73.1
428(11) 0.00838 344.8 76.4
440(11) 0.00835 344.8 79.0
420(11) 0.00811 344.8 80.5
417(11) 0.00810 344.8 80.7
447(11) 0.00785 344.8 79.7
431(11) 0.00844 344.7 77.5
434(11) 0.00855 344.7 74.4
412(11) 0.00852 344.7 70.5
398(11) 0.00844 344.7 66.2
384(10) 0.00925 344.7 61.7
404(10) 0.00911 344.7 57.3
399(10) 0.00945 344.7 53.0
404(11) 0.00867 344.6 49.0
402(11) 0.00807 344.6 45.3
376(10) 0.00949 344.6 41.9
399(10) 0.00927 344.6 38.9
395(10) 0.00927 344.6 36.3
349(10) 0.01035 344.6 34.0
357(10) 0.00912 344.5 32.1
380(10) 0.00941 344.5 30.4
370(10) 0.01001 344.5 29.0
364(10) 0.01021 344.5 27.8
378(11) 0.00897 344.5 26.8
364(11) 0.00900 344.5 26.0
371(10) 0.00921 344.4 25.3
379(10) 0.00977 344.4 24.8
361(10) 0.01015 344.4 24.3
346(10) 0.01040 344.4 23.8
394(11) 0.00843 344.4 23.5
353(10) 0.01028 344.4 23.1
369(10) 0.01005 344.4 22.8
387(10) 0.00945 344.3 22.5
403(11) 0.00879 344.3 22.3
367(10) 0.00945 344.3 22.0
351(10) 0.01005 344.3 21.7
378(10) 0.00974 344.3 21.4
360(10) 0.01001 344.3 21.1
385(11) 0.00885 344.2 20.8
386(11) 0.00844 344.2 20.4
356(10) 0.00951 344.2 20.1
331(9) 0.01114 344.2 19.8
371(10) 0.00958 344.2 19.4
355(10) 0.00956 344.2 19.0
360(10) 0.00950 344.1 18.7
356(10) 0.01006 344.1 18.3
340(10) 0.01087 344.1 17.9
332(10) 0.01066 344.1 17.5
356(10) 0.00918 344.1 17.1
359(10) 0.00931 344.1 16.7
364(10) 0.00977 344.1 16.4
349(10) 0.01071 344.0 16.0
346(10) 0.01020 344.0 15.6
340(10) 0.00978 344.0 15.3
322(10) 0.01079 344.0 14.9
368(10) 0.00974 344.0 14.6
343(10) 0.01076 344.0 14.3
341(10) 0.01026 343.9 13.9
353(10) 0.00973 343.9 13.6
352(10) 0.00986 343.9 13.4
358(10) 0.01014 343.9 13.1
337(10) 0.01100 343.9 12.8
365(10) 0.00939 343.9 12.6
341(10) 0.00964 343.8 12.3
357(10) 0.00974 343.8 12.1
352(10) 0.01047 343.8 11.9
368(10) 0.00995 343.8 11.7
378(10) 0.00938 343.8 11.5
379(11) 0.00841 343.8 11.3
337(10) 0.01043 343.8 11.2
348(10) 0.01077 343.7 11.1
357(10) 0.01033 343.7 10.9
365(10) 0.00968 343.7 10.8
369(11) 0.00905 343.7 10.8
354(10) 0.01003 343.7 10.7
359(10) 0.01042 343.7 10.7
342(10) 0.01053 343.6 10.6
346(10) 0.00974 343.6 10.7
325(10) 0.01047 343.6 10.7
349(10) 0.00992 343.6 10.7
363(10) 0.01018 343.6 10.8
333(10) 0.01101 343.6 10.9
338(10) 0.00998 343.5 11.1
370(11) 0.00895 343.5 11.2
353(10) 0.00963 343.5 11.4
366(10) 0.01020 343.5 11.6
376(10) 0.00943 343.5 11.9
349(10) 0.01002 343.5 12.2
354(10) 0.00972 343.5 12.6
381(11) 0.00896 343.4 13.2
404(10) 0.00925 343.4 14.1
369(10) 0.00958 343.4 15.4
382(11) 0.00898 343.4 17.3
376(10) 0.00949 343.4 20.1
400(11) 0.00878 343.4 23.8
365(10) 0.01021 343.3 28.7
380(10) 0.00944 343.3 34.4
399(11) 0.00863 343.3 40.7
381(10) 0.00936 343.3 46.5
408(11) 0.00884 343.3 50.6
393(10) 0.00935 343.3 51.6
370(10) 0.00938 343.3 49.2
356(10) 0.00948 343.2 44.5
369(10) 0.00935 343.2 38.9
372(10) 0.00954 343.2 33.5
357(10) 0.01040 343.2 29.0
371(10) 0.00925 343.2 25.5
383(11) 0.00853 343.2 23.1
373(10) 0.00921 343.1 21.5
371(10) 0.00969 343.1 20.6
359(10) 0.01031 343.1 20.3
371(10) 0.00946 343.1 20.2
370(11) 0.00875 343.1 20.4
360(10) 0.00985 343.1 20.7
344(10) 0.01055 343.0 21.1
354(10) 0.01066 343.0 21.5
368(10) 0.00963 343.0 22.0
348(10) 0.00997 343.0 22.5
369(10) 0.00981 343.0 22.9
377(10) 0.00990 343.0 23.4
379(10) 0.00979 343.0 23.9
331(10) 0.01021 342.9 24.3
375(11) 0.00848 342.9 24.7
359(10) 0.01004 342.9 25.0
352(10) 0.01054 342.9 25.3
389(10) 0.00933 342.9 25.5
368(10) 0.00948 342.9 25.6
383(11) 0.00850 342.8 25.6
386(11) 0.00895 342.8 25.6
362(10) 0.01025 342.8 25.4
362(10) 0.01010 342.8 25.2
374(10) 0.00923 342.8 24.9
355(10) 0.00944 342.8 24.5
348(10) 0.00982 342.7 24.1
379(10) 0.00988 342.7 23.6
354(10) 0.01026 342.7 23.1
376(10) 0.00936 342.7 22.5
379(11) 0.00868 342.7 21.9
335(10) 0.01034 342.7 21.3
361(10) 0.01033 342.7 20.7
353(10) 0.01036 342.6 20.1
366(10) 0.00952 342.6 19.5
357(10) 0.00957 342.6 18.9
369(10) 0.00921 342.6 18.3
356(10) 0.01050 342.6 17.8
356(10) 0.00985 342.6 17.2
359(10) 0.00956 342.5 16.7
365(10) 0.00942 342.5 16.3
340(10) 0.01068 342.5 15.8
335(10) 0.01100 342.5 15.4
353(10) 0.00995 342.5 15.1
339(10) 0.00968 342.5 14.7
352(10) 0.00938 342.4 14.4
341(10) 0.01037 342.4 14.2
347(10) 0.01080 342.4 14.0
336(10) 0.00995 342.4 13.8
348(10) 0.00920 342.4 13.7
363(10) 0.00930 342.4 13.6
347(10) 0.01039 342.4 13.5
348(10) 0.01068 342.3 13.5
342(10) 0.01004 342.3 13.5
348(10) 0.00909 342.3 13.6
333(10) 0.01071 342.3 13.7
363(10) 0.00999 342.3 13.8
357(10) 0.01032 342.3 14.0
388(10) 0.00924 342.2 14.2
348(10) 0.00939 342.2 14.5
352(10) 0.00972 342.2 14.7
348(10) 0.01064 342.2 14.9
348(10) 0.01055 342.2 15.0
354(10) 0.01024 342.2 15.1
331(10) 0.00983 342.1 15.1
358(10) 0.00975 342.1 15.1
345(10) 0.01071 342.1 15.0
353(10) 0.01051 342.1 14.9
372(10) 0.00939 342.1 14.8
341(10) 0.00966 342.1 14.7
338(10) 0.01059 342.1 14.6
370(10) 0.01008 342.0 14.4
356(10) 0.01025 342.0 14.2
340(10) 0.01012 342.0 14.0
370(11) 0.00862 342.0 13.8
334(10) 0.01028 342.0 13.5
352(10) 0.01065 342.0 13.2
342(10) 0.01055 341.9 12.9
342(10) 0.00969 341.9 12.5
340(10) 0.00971 341.9 12.2
386(11) 0.00876 341.9 11.8
371(10) 0.00990 341.9 11.5
344(10) 0.01036 341.9 11.1
338(10) 0.01038 341.8 10.7
331(10) 0.01034 341.8 10.3
347(10) 0.01038 341.8 10.0
342(10) 0.01073 341.8 9.6
338(10) 0.01046 341.8 9.3
367(10) 0.00950 341.8 9.0
356(10) 0.00969 341.8 8.6
344(10) 0.01059 341.7 8.3
367(10) 0.01019 341.7 8.0
348(10) 0.00995 341.7 7.8
374(11) 0.00851 341.7 7.5
348(10) 0.01000 341.7 7.3
342(10) 0.01042 341.7 7.0
328(9) 0.01135 341.6 6.8
323(10) 0.01074 341.6 6.6
345(10) 0.00939 341.6 6.4
347(10) 0.00990 341.6 6.3
345(10) 0.01070 341.6 6.1
354(10) 0.01039 341.6 6.0
328(10) 0.01041 341.5 5.9
357(10) 0.00912 341.5 5.8
342(10) 0.00994 341.5 5.7
348(10) 0.01049 341.5 5.6
341(10) 0.01093 341.5 5.6
340(10) 0.01034 341.5 5.5
359(11) 0.00898 341.5 5.5
354(10) 0.00994 341.5 5.6
359(10) 0.01040 341.4 5.6
327(9) 0.01148 341.4 5.7
334(10) 0.01050 341.4 5.9
340(10) 0.00926 341.4 6.1
338(10) 0.01009 341.4 6.4
350(10) 0.01069 341.4 6.9
350(10) 0.01040 341.4 7.5
339(10) 0.01067 341.3 8.2
365(11) 0.00885 341.3 9.2
341(10) 0.01060 341.3 10.4
370(10) 0.01002 341.3 11.9
367(10) 0.00993 341.3 13.7
350(10) 0.01044 341.3 15.6
377(11) 0.00872 341.3 17.7
361(10) 0.00942 341.2 19.7
372(10) 0.00976 341.2 21.5
391(10) 0.00930 341.2 22.8
332(10) 0.01028 341.2 23.3
338(10) 0.00954 341.2 22.9
319(10) 0.01094 341.2 21.7
344(10) 0.01060 341.2 19.9
341(10) 0.01054 341.2 17.8
374(10) 0.00924 341.1 15.7
356(10) 0.00950 341.1 13.7
348(10) 0.01010 341.1 11.9
349(10) 0.01065 341.1 10.3
364(10) 0.00950 341.1 8.9
327(10) 0.01058 341.1 7.9
341(10) 0.00995 341.1 7.0
356(10) 0.00977 341.0 6.3
314(9) 0.01167 341.0 5.8
342(10) 0.01043 341.0 5.3
345(10) 0.00978 341.0 5.0
347(10) 0.00956 341.0 4.8
327(10) 0.01082 341.0 4.6
334(9) 0.01118 341.0 4.4
349(10) 0.00972 341.0 4.3
329(10) 0.01015 340.9 4.2
336(10) 0.01046 340.9 4.1
329(10) 0.01080 340.9 4.1
342(10) 0.01085 340.9 4.0
358(10) 0.00952 340.9 4.0
322(10) 0.01047 340.9 3.9
314(9) 0.01121 340.9 3.9
357(10) 0.01035 340.8 3.9
341(10) 0.01082 340.8 3.8
351(10) 0.00962 340.8 3.8
325(10) 0.01007 340.8 3.8
363(10) 0.00950 340.8 3.8
362(10) 0.00997 340.8 3.7
332(10) 0.01104 340.8 3.7
366(10) 0.00950 340.8 3.7
350(10) 0.00907 340.7 3.6
314(9) 0.01122 340.7 3.6
357(10) 0.01009 340.7 3.5
324(9) 0.01161 340.7 3.5
343(10) 0.00997 340.7 3.4
336(10) 0.00935 340.7 3.4
344(10) 0.00992 340.7 3.4
351(10) 0.01057 340.6 3.3
356(10) 0.01021 340.6 3.3
367(10) 0.00920 340.6 3.2
338(10) 0.00989 340.6 3.2
362(10) 0.00964 340.6 3.1
341(10) 0.01100 340.6 3.1
350(10) 0.01028 340.6 3.1
359(10) 0.00977 340.6 3.0
318(10) 0.01075 340.5 3.0
365(10) 0.00918 340.5 3.0
359(10) 0.01041 340.5 3.0
332(9) 0.01115 340.5 2.9
342(10) 0.01037 340.5 2.9
358(10) 0.00957 340.5 2.9
343(10) 0.01028 340.5 2.9
345(10) 0.01079 340.4 2.9
331(10) 0.01077 340.4 2.9
354(10) 0.00970 340.4 2.9
348(10) 0.00956 340.4 2.9
344(10) 0.00999 340.4 2.9
350(10) 0.01059 340.4 2.9
336(10) 0.01037 340.4 2.9
349(10) 0.00962 340.3 2.9
379(11) 0.00879 340.3 2.9
339(10) 0.01051 340.3 2.9
341(10) 0.01088 340.3 2.9
360(10) 0.00946 340.3 2.9
343(10) 0.01013 340.3 2.9
358(10) 0.00969 340.3 2.9
335(10) 0.01060 340.3 2.9
345(10) 0.01077 340.2 2.9
330(10) 0.01028 340.2 3.0
329(10) 0.00990 340.2 3.0
337(10) 0.01010 340.2 3.0
331(9) 0.01117 340.2 3.0
313(9) 0.01164 340.2 3.0
345(10) 0.00976 340.2 3.0
363(11) 0.00903 340.1 3.0
348(10) 0.01002 340.1 3.1
342(10) 0.01088 340.1 3.1
342(10) 0.01084 340.1 3.1
325(9) 0.01112 340.1 3.1
363(11) 0.00883 340.1 3.1
358(10) 0.00983 340.1 3.1
336(10) 0.01097 340.1 3.1
336(10) 0.01094 340.0 3.1
314(9) 0.01156 340.0 3.1
338(10) 0.00967 340.0 3.1
348(10) 0.01008 340.0 3.2
371(10) 0.01011 340.0 3.2
354(10) 0.01009 340.0 3.2
334(10) 0.01063 340.0 3.2
373(11) 0.00890 339.9 3.2
364(10) 0.00937 339.9 3.2
360(10) 0.01035 339.9 3.2
329(10) 0.01094 339.9 3.2
335(10) 0.01017 339.9 3.2
340(10) 0.01001 339.9 3.2
350(10) 0.01017 339.9 3.2
362(10) 0.01026 339.9 3.2
368(10) 0.00979 339.8 3.1
351(10) 0.00962 339.8 3.1
322(10) 0.01041 339.8 3.1
351(10) 0.00971 339.8 3.1
368(10) 0.01015 339.8 3.1
370(10) 0.00948 339.8 3.1
332(10) 0.01028 339.8 3.1
343(10) 0.00979 339.7 3.1
326(10) 0.01056 339.7 3.1
316(9) 0.01190 339.7 3.1
349(10) 0.00960 339.7 3.0
345(10) 0.01014 339.7 3.0
342(10) 0.01034 339.7 3.0
376(10) 0.00955 339.7 3.0
340(10) 0.01104 339.7 3.0
371(10) 0.00913 339.6 3.0
362(10) 0.00948 339.6 3.0
341(10) 0.01014 339.6 2.9
344(10) 0.01053 339.6 2.9
350(10) 0.01063 339.6 2.9
348(10) 0.00970 339.6 2.9
338(10) 0.00999 339.6 2.9
373(10) 0.00921 339.5 2.9
339(10) 0.01077 339.5 2.9
338(10) 0.01102 339.5 2.9
342(10) 0.00991 339.5 2.9
344(10) 0.00968 339.5 2.9
356(10) 0.00967 339.5 2.8
327(9) 0.01111 339.5 2.8
318(9) 0.01157 339.5 2.8
360(10) 0.00923 339.5 2.9
348(10) 0.00932 339.5 2.9
351(10) 0.00979 339.5 2.9
353(10) 0.01029 339.5 2.9
338(10) 0.01094 339.5 2.9
361(10) 0.00915 339.5 2.9
342(10) 0.00920 339.5 2.9
329(10) 0.01058 339.5 3.0
333(10) 0.01108 339.5 3.0
356(10) 0.01028 339.5 3.0
356(10) 0.00959 339.5 3.0
344(10) 0.00929 339.5 3.1
357(10) 0.00964 339.5 3.1
340(10) 0.01083 339.5 3.2
351(10) 0.01059 339.5 3.2
359(10) 0.00960 339.5 3.3
372(11) 0.00867 339.5 3.3
360(10) 0.00934 339.5 3.4
349(10) 0.01067 339.5 3.5
353(10) 0.01043 339.5 3.5
350(10) 0.01021 339.5 3.6
382(11) 0.00860 339.5 3.7
367(10) 0.00946 339.5 3.8
384(10) 0.00971 339.5 3.9
362(10) 0.01002 339.5 4.0
348(10) 0.01001 339.5 4.2
371(11) 0.00882 339.5 4.3
359(10) 0.00971 339.5 4.4
340(10) 0.01106 339.5 4.6
346(10) 0.01014 339.5 4.7
346(10) 0.00987 339.5 4.9
354(10) 0.00919 339.5 5.1
329(10) 0.01055 339.5 5.3
370(10) 0.01007 339.5 5.5
363(10) 0.00933 339.5 5.7
340(10) 0.01004 339.5 5.9
344(10) 0.01022 339.5 6.2
368(10) 0.00955 339.5 6.4
341(10) 0.01082 339.5 6.7
327(10) 0.01045 339.5 7.0
320(10) 0.01045 339.5 7.3
372(10) 0.00908 339.5 7.6
330(10) 0.01107 339.5 7.9
348(10) 0.01081 339.5 8.3
382(11) 0.00904 339.5 8.6
357(10) 0.00948 339.5 9.0
333(10) 0.01078 339.5 9.4
367(10) 0.00989 339.5 9.8
355(10) 0.01049 339.5 10.3
355(10) 0.00960 339.5 10.7
346(10) 0.00968 339.5 11.2
331(10) 0.01031 339.5 11.7
349(10) 0.01045 339.5 12.2
370(10) 0.01001 339.5 12.8
355(10) 0.00958 339.5 13.4
350(11) 0.00905 339.5 14.0
327(10) 0.01070 339.5 14.7
373(10) 0.00991 339.5 15.4
370(10) 0.01000 339.5 16.1
353(10) 0.00998 339.5 17.0
372(11) 0.00855 339.5 17.8
347(10) 0.01006 339.5 18.8
362(10) 0.01023 339.5 19.8
366(10) 0.00987 339.5 20.9
350(10) 0.00983 339.5 22.1
371(11) 0.00877 339.5 23.4
362(10) 0.00953 339.5 24.8
385(10) 0.00956 339.5 26.3
390(10) 0.00933 339.5 27.8
392(11) 0.00883 339.5 29.5
368(10) 0.00911 339.5 31.2
360(10) 0.00972 339.5 32.9
389(10) 0.00948 339.5 34.7
372(10) 0.00981 339.5 36.4
379(11) 0.00900 339.5 38.0
371(10) 0.00927 339.5 39.5
398(11) 0.00856 339.5 40.8
376(10) 0.00981 339.5 41.8
382(10) 0.00918 339.5 42.6
377(10) 0.00914 339.5 43.0
403(11) 0.00843 339.5 43.0
385(10) 0.00940 339.5 42.7
390(10) 0.00952 339.5 42.0
418(11) 0.00841 339.5 41.1
409(11) 0.00844 339.5 40.0
387(11) 0.00869 339.5 38.7
350(10) 0.01031 339.5 37.3
350(10) 0.01059 339.5 35.9
382(10) 0.00913 339.5 34.4
376(11) 0.00885 339.5 32.9
350(10) 0.00984 339.5 31.5
341(10) 0.01086 339.5 30.0
370(10) 0.01003 339.5 28.6
363(10) 0.00924 339.5 27.2
378(11) 0.00883 339.5 25.9
356(10) 0.00978 339.5 24.6
371(10) 0.00958 339.5 23.3
356(10) 0.01031 339.5 22.1
332(10) 0.01063 339.5 21.0
352(10) 0.00972 339.5 19.8
357(10) 0.01004 339.5 18.7
346(10) 0.01056 339.5 17.7
346(10) 0.01075 339.5 16.7
352(10) 0.01003 339.5 15.8
375(11) 0.00876 339.5 14.9
355(10) 0.01014 339.5 14.1
361(10) 0.01017 339.5 13.4
346(10) 0.01077 339.5 12.7
373(10) 0.00931 339.5 12.0
346(10) 0.00999 339.5 11.4
358(10) 0.00968 339.5 10.8
359(10) 0.01036 339.5 10.3
349(10) 0.01060 339.5 9.8
330(10) 0.01048 339.5 9.3
347(10) 0.00942 339.5 8.9
346(10) 0.01035 339.5 8.5
342(10) 0.01089 339.5 8.1
359(10) 0.01014 339.5 7.8
336(10) 0.01050 339.5 7.5
356(10) 0.00918 339.5 7.3
348(10) 0.01005 339.5 7.0
342(10) 0.01081 339.5 6.8
358(10) 0.01026 339.5 6.6
342(10) 0.01038 339.5 6.5
362(10) 0.00929 339.5 6.3
335(10) 0.01052 339.5 6.2
323(9) 0.01151 339.5 6.1
354(10) 0.00997 339.5 6.0
368(10) 0.00942 339.5 5.9
349(10) 0.00981 339.5 5.8
368(10) 0.00956 339.5 5.8
341(10) 0.01091 339.5 5.8
339(10) 0.01069 339.5 5.8
347(10) 0.00978 339.5 5.8
335(10) 0.01043 339.5 5.8
350(10) 0.01025 339.5 5.8
316(9) 0.01169 339.5 5.8
362(10) 0.00944 339.5 5.9
345(10) 0.00959 339.5 6.0
311(9) 0.01134 339.5 6.0
346(10) 0.01011 339.5 6.1
366(10) 0.01019 339.5 6.2
360(10) 0.00943 339.5 6.3
329(10) 0.01040 339.5 6.4
352(10) 0.00935 339.5 6.6
328(9) 0.01108 339.5 6.7
346(10) 0.01091 339.5 6.9
348(10) 0.00967 339.5 7.1
363(10) 0.00911 339.5 7.2
373(10) 0.00937 339.5 7.4
354(10) 0.01030 339.5 7.6
399(10) 0.00923 339.5 7.9
352(10) 0.00993 339.5 8.1
336(10) 0.00963 339.5 8.4
348(10) 0.00998 339.5 8.7
365(10) 0.01007 339.5 9.0
357(10) 0.01037 339.5 9.4
354(10) 0.01003 339.5 9.9
358(11) 0.00897 339.5 10.4
340(10) 0.01032 339.5 11.1
359(10) 0.01034 339.5 12.0
337(10) 0.01104 339.5 13.1
357(10) 0.00984 339.5 14.4
382(11) 0.00859 339.5 16.0
356(10) 0.00950 339.5 17.7
357(10) 0.01033 339.5 19.6
333(10) 0.01100 339.5 21.4
368(10) 0.00920 339.5 22.9
358(10) 0.00930 339.5 23.8
363(10) 0.00985 339.5 23.9
386(10) 0.00972 339.5 23.2
357(10) 0.01026 339.5 21.9
363(10) 0.00965 339.5 20.3
350(10) 0.00956 339.5 18.6
378(10) 0.00916 339.5 17.0
355(10) 0.01047 339.5 15.7
343(10) 0.01053 339.5 14.5
366(10) 0.00925 339.5 13.6
345(10) 0.00981 339.5 12.9
395(11) 0.00864 339.5 12.3
359(10) 0.01041 339.5 11.9
357(10) 0.00977 339.5 11.6
337(10) 0.01022 339.5 11.4
341(10) 0.01034 339.5 11.1
377(10) 0.00938 339.5 11.0
367(10) 0.01023 339.5 10.8
379(11) 0.00888 339.5 10.7
367(10) 0.00912 339.5 10.5
336(10) 0.01030 339.5 10.4
352(10) 0.01024 339.5 10.3
343(10) 0.01074 339.5 10.2
349(10) 0.01008 339.5 10.1
346(10) 0.00984 339.5 10.1
344(10) 0.00982 339.5 10.0
370(10) 0.00966 339.5 9.9
322(9) 0.01151 339.5 9.9
345(10) 0.00974 339.5 9.9
357(11) 0.00903 339.5 9.8
372(10) 0.00958 339.5 9.8
339(10) 0.01099 339.5 9.8
356(10) 0.01048 339.5 9.8
346(10) 0.00991 339.5 9.7
334(10) 0.00978 339.5 9.7
326(9) 0.01116 339.5 9.7
366(10) 0.01015 339.5 9.7
346(10) 0.01062 339.5 9.6
325(10) 0.01102 339.5 9.6
364(11) 0.00876 339.5 9.6
384(10) 0.00912 339.5 9.6
352(10) 0.01059 339.5 9.6
325(9) 0.01152 339.5 9.6
369(10) 0.00920 339.5 9.7
358(10) 0.00914 339.5 9.7
375(10) 0.00951 339.5 9.8
383(10) 0.00986 339.5 9.8
339(10) 0.01085 339.5 9.9
341(10) 0.01037 339.5 10.0
356(10) 0.00938 339.5 10.1
368(10) 0.00939 339.5 10.2
337(10) 0.01089 339.5 10.3
353(10) 0.01032 339.5 10.5
355(10) 0.00968 339.5 10.6
371(10) 0.00914 339.5 10.8
362(10) 0.00985 339.5 10.9
336(9) 0.01108 339.5 11.1
340(10) 0.01055 339.5 11.3
329(10) 0.01104 339.5 11.5
368(11) 0.00904 339.5 11.8
355(10) 0.00974 339.5 12.2
364(10) 0.01023 339.5 12.7
339(10) 0.01054 339.5 13.5
368(11) 0.00899 339.5 14.5
365(10) 0.00918 339.5 15.8
359(10) 0.00998 339.5 17.2
375(10) 0.00986 339.5 18.3
389(10) 0.00919 339.5 18.8
373(11) 0.00898 339.5 18.6
368(10) 0.00951 339.5 17.8
379(10) 0.00944 339.5 17.0
340(10) 0.01080 339.5 16.3
389(11) 0.00866 339.5 15.8
360(10) 0.00971 339.5 15.7
380(11) 0.00907 339.5 15.7
371(10) 0.00966 339.5 15.8
342(10) 0.01101 339.5 16.0
383(11) 0.00874 339.5 16.1
378(11) 0.00856 339.5 16.2
363(10) 0.00967 339.5 16.2
373(10) 0.00960 339.5 16.2
359(10) 0.01037 339.5 16.2
370(10) 0.00945 339.5 16.1
371(10) 0.00917 339.5 16.1
350(10) 0.01020 339.5 16.1
347(10) 0.01042 339.5 16.0
344(10) 0.01072 339.5 15.9
352(10) 0.00967 339.5 15.9
350(11) 0.00882 339.5 15.8
374(10) 0.00931 339.5 15.7
350(10) 0.01060 339.5 15.7
351(10) 0.01044 339.5 15.6
328(10) 0.01101 339.5 15.5
355(10) 0.00908 339.5 15.4
367(10) 0.00957 339.5 15.3
362(10) 0.01018 339.5 15.3
343(10) 0.01090 339.5 15.2
341(10) 0.01037 339.5 15.1
364(11) 0.00902 339.5 15.0
344(10) 0.01023 339.5 14.9
370(10) 0.01001 339.5 14.9
374(10) 0.00992 339.5 14.8
377(10) 0.00956 339.5 14.8
357(10) 0.00966 339.5 14.7
343(10) 0.01035 339.5 14.7
336(9) 0.01108 339.5 14.7
326(9) 0.01129 339.5 14.8
340(10) 0.01006 339.5 14.8
343(10) 0.01030 339.5 14.9
387(10) 0.00911 339.5 15.0
361(10) 0.01031 339.5 15.1
375(10) 0.00962 339.5 15.2
376(10) 0.00911 339.5 15.3
366(10) 0.00929 339.5 15.4
355(10) 0.00987 339.5 15.5
381(10) 0.00984 339.5 15.5
350(10) 0.00980 339.5 15.5
359(10) 0.00942 339.5 15.5
371(11) 0.00906 339.5 15.4
336(10) 0.01067 339.5 15.3
363(10) 0.01028 339.5 15.1
364(10) 0.00954 339.5 15.0
342(10) 0.00989 339.5 14.9
339(10) 0.01036 339.5 14.8
361(10) 0.01018 339.5 14.7
359(10) 0.01032 339.5 14.7
355(10) 0.00967 339.5 14.9
363(11) 0.00900 339.5 15.2
376(10) 0.00930 339.5 15.7
384(10) 0.00956 339.5 16.6
353(10) 0.01053 339.5 17.9
383(11) 0.00878 339.5 19.9
358(10) 0.00922 339.5 22.7
356(10) 0.00971 339.5 26.5
377(10) 0.00971 339.5 31.3
420(11) 0.00882 339.5 37.3
399(11) 0.00882 339.5 44.1
424(11) 0.00759 339.5 51.6
400(11) 0.00869 339.5 58.9
393(10) 0.00935 339.5 64.8
422(11) 0.00869 339.5 68.1
374(10) 0.00914 339.5 67.7
397(11) 0.00797 339.5 63.9
375(10) 0.00944 339.5 57.6
376(10) 0.00977 339.5 50.2
394(10) 0.00944 339.5 43.0
401(11) 0.00868 339.5 36.5
393(11) 0.00839 339.5 31.3
372(10) 0.00946 339.5 27.5
372(10) 0.00979 339.5 25.1
369(10) 0.01011 339.5 23.9
385(11) 0.00886 339.5 23.9
366(11) 0.00899 339.5 24.6
408(11) 0.00831 339.5 25.6
382(10) 0.00971 339.5 26.3
370(10) 0.01002 339.5 26.3
369(10) 0.00927 339.5 25.2
356(10) 0.00942 339.5 23.1
345(10) 0.00976 339.5 20.5
343(10) 0.01082 339.5 17.8
351(10) 0.01022 339.5 15.2
354(10) 0.00949 339.5 13.0
373(11) 0.00891 339.5 11.2
354(10) 0.00990 339.5 9.8
343(10) 0.01069 339.5 8.7
354(10) 0.00986 339.5 7.9
344(10) 0.00990 339.5 7.3
362(10) 0.00936 339.5 6.8
351(10) 0.00987 339.5 6.5
363(10) 0.01029 339.5 6.2
334(10) 0.01029 339.5 6.0
345(10) 0.00965 339.5 5.9
349(10) 0.00998 339.5 5.7
343(10) 0.01054 339.5 5.6
362(10) 0.01016 339.5 5.5
353(10) 0.00951 339.5 5.4
334(10) 0.00988 339.5 5.3
361(10) 0.00935 339.5 5.2
349(10) 0.01050 339.5 5.2
349(10) 0.01062 339.5 5.1
322(10) 0.01082 339.5 5.0
329(10) 0.00999 339.5 5.0
336(10) 0.01000 339.5 4.9
329(10) 0.01098 339.5 4.9
332(9) 0.01127 339.5 4.8
343(10) 0.00994 339.5 4.7
340(10) 0.00985 339.5 4.7
349(10) 0.01016 339.5 4.6
342(10) 0.01090 339.5 4.6
343(10) 0.01066 339.5 4.5
361(10) 0.00960 339.5 4.4
359(11) 0.00891 339.5 4.4
339(10) 0.01033 339.5 4.3
329(9) 0.01136 339.5 4.2
325(9) 0.01137 339.5 4.1
326(10) . . .
327(10) . . .
324(10) . . .
333(10) . . .
361(10) . . .
321(9) . . .
353(10) . . .
322(10) . . .
339(10) . . .
326(9) . . .
339(10) . . .
332(10) . . .
321(10) . . .
352(10) . . .
344(10) . . .
334(10) . . .
352(10) . . .
339(10) . . .
338(10) . . .
351(10) . . .
337(10) . . .
338(10) . . .
361(10) . . .
339(10) . . .
351(10) . . .
346(10) . . .
357(10) . . .
325(9) . . .
323(9) . . .
343(10) . . .
323(10) . . .
352(10) . . .
338(10) . . .
330(9) . . .
351(10) . . .
340(10) . . .
309(9) . . .
338(10) . . .
331(9) . . .
326(10) . . .
338(10) . . .
345(10) . . .
337(10) . . .
339(10) . . .
336(10) . . .
339(10) . . .
362(10) . . .
348(10) . . .
335(10) . . .
361(10) . . .
345(10) . . .
332(10) . . .
313(9) . . .
336(10) . . .
333(10) . . .
367(11) . . .
306(9) . . .
337(9) . . .
353(10) . . .
329(10) . . .
333(10) . . .
341(10) . . .
322(9) . . .
315(9) . . .
331(10) . . .
357(10) . . .
374(10) . . .
356(10) . . .
336(10) . . .
345(10) . . .
329(10) . . .
323(10) . . .
334(9) . . .
320(10) . . .
343(10) . . .
333(10) . . .
353(10) . . .
334(10) . . .
352(10) . . .
364(10) . . .
335(10) . . .
315(9) . . .
351(10) . . .
341(10) . . .
337(10) . . .
346(10) . . .
318(9) . . .
332(9) . . .
337(10) . . .
330(10) . . .
326(10) . . .
343(10) . . .
345(10) . . .
347(10) . . .
372(11) . . .
331(9) . . .
391(10) . . .
349(10) . . .
351(10) . . .
344(10) . . .
329(10) . . .
328(9) . . .
352(10) . . .
353(10) . . .
361(10) . . .
350(10) . . .
340(10) . . .
352(10) . . .
362(10) . . .
361(10) . . .
328(10) . . .
350(10) . . .
333(10) . . .
333(10) . . .
351(10) . . .
358(10) . . .
368(10) . . .
352(10) . . .
356(10) . . .
359(10) . . .
371(10) . . .
351(10) . . .
381(11) . . .
344(10) . . .
350(10) . . .
395(10) . . .
364(10) . . .
380(10) . . .
401(11) . . .
373(10) . . .
358(10) . . .
340(10) . . .
371(10) . . .
368(11) . . .
330(10) . . .
378(10) . . .
373(10) . . .
352(10) . . .
342(10) . . .
372(10) . . .
348(10) . . .
355(10) . . .
337(10) . . .
359(11) . . .
351(10) . . .
359(10) . . .
343(10) . . .
347(10) . . .
369(11) . . .
351(10) . . .
352(10) . . .
357(10) . . .
341(10) . . .
354(10) . . .
345(10) . . .
332(9) . . .
346(10) . . .
322(10) . . .
373(11) . . .
336(10) . . .
361(10) . . .
350(10) . . .
349(10) . . .
336(10) . . .
359(10) . . .
375(10) . . .
331(10) . . .
316(10) . . .
361(11) . . .
352(10) . . .
351(10) . . .
351(10) . . .
407(11) . . .
347(10) . . .
308(9) . . .
346(10) . . .
334(10) . . .
342(10) . . .
357(10) . . .
316(9) . . .
336(9) . . .
328(10) . . .
333(10) . . .
350(10) . . .
333(10) . . .
325(9) . . .
327(10) . . .
324(10) . . .
331(9) . . .
344(10) . . .
353(10) . . .
331(10) . . .
347(10) . . .
344(10) . . .
321(9) . . .
350(10) . . .
323(10) . . .
329(10) . . .
324(10) . . .
367(10) . . .
341(10) . . .
338(10) . . .
355(11) . . .
334(10) . . .
331(9) . . .
321(9) . . .
309(9) . . .
341(10) . . .
386(11) . . .
352(10) . . .
366(10) . . .
358(10) . . .
375(11) . . .
335(10) . . .
364(10) . . .
349(10) . . .
360(10) . . .
360(10) . . .
317(9) . . .
361(10) . . .
359(10) . . .
336(10) . . .
348(10) . . .
370(10) . . .
338(10) . . .
347(10) . . .
330(10) . . .
333(10) . . .
349(10) . . .
329(9) . . .
298(9) . . .
322(10) . . .
336(10) . . .
320(9) . . .
316(9) . . .
326(10) . . .
307(10) . . .
343(10) . . .
330(9) . . .
336(10) . . .
320(10) . . .
337(10) . . .
317(9) . . .
319(9) . . .
324(9) . . .
334(10) . . .
325(10) . . .
363(10) . . .
345(10) . . .
322(9) . . .
327(10) . . .
348(10) . . .
374(10) . . .
375(10) . . .
354(10) . . .
335(10) . . .
310(10) . . .
349(10) . . .
343(10) . . .
377(10) . . .
381(11) . . .
355(10) . . .
356(10) . . .
397(10) . . .
376(10) . . .
361(10) . . .
390(11) . . .
418(11) . . .
431(11) . . .
451(11) . . .
434(11) . . .
424(11) . . .
415(11) . . .
434(11) . . .
422(11) . . .
431(11) . . .
442(11) . . .
391(10) . . .
401(10) . . .
402(11) . . .
369(10) . . .
366(10) . . .
379(10) . . .
375(10) . . .
348(10) . . .
361(11) . . .
355(10) . . .
338(10) . . .
339(10) . . .
336(10) . . .
338(10) . . .
342(10) . . .
341(10) . . .
349(10) . . .
326(10) . . .
341(10) . . .
357(10) . . .
331(9) . . .
366(10) . . .
332(10) . . .
294(9) . . .
337(10) . . .
306(9) . . .
329(10) . . .
339(10) . . .
330(10) . . .
326(10) . . .
349(10) . . .
343(10) . . .
335(10) . . .
333(10) . . .
340(10) . . .
323(9) . . .
338(10) . . .
338(10) . . .
328(10) . . .
333(10) . . .
303(9) . . .
318(9) . . .
320(10) . . .
359(11) . . .
341(10) . . .
350(10) . . .
341(10) . . .
338(10) . . .
322(10) . . .
315(9) . . .
349(10) . . .
329(10) . . .
335(10) . . .
331(10) . . .
315(9) . . .
356(10) . . .
348(10) . . .
367(11) . . .
379(11) . . .
327(10) . . .
367(10) . . .
323(10) . . .
356(11) . . .
331(10) . . .
352(10) . . .
339(10) . . .
341(10) . . .
373(11) . . .
336(10) . . .
353(10) . . .
325(9) . . .
324(10) . . .
355(11) . . .
345(10) . . .
334(10) . . .
358(10) . . .
309(9) . . .
316(10) . . .
309(9) . . .
319(9) . . .
334(10) . . .
348(10) . . .
337(10) . . .
332(10) . . .
308(9) . . .
311(9) . . .
327(10) . . .
341(10) . . .
312(10) . . .
316(9) . . .
344(10) . . .
336(10) . . .
316(10) . . .
315(9) . . .
312(9) . . .
315(9) . . .
303(9) . . .
315(10) . . .
325(10) . . .
316(9) . . .
306(9) . . .
301(9) . . .
322(10) . . .
301(9) . . .
346(10) . . .
320(10) . . .
305(10) . . .
303(9) . . .
320(9) . . .
328(9) . . .
349(10) . . .
330(10) . . .
307(9) . . .
314(9) . . .
316(9) . . .
318(10) . . .
345(10) . . .
321(10) . . .
328(9) . . .
341(10) . . .
324(10) . . .
315(10) . . .
319(10) . . .
317(9) . . .
299(9) . . .
336(10) . . .
286(9) . . .
333(10) . . .
336(10) . . .
340(10) . . .
315(9) . . .
308(10) . . .
343(10) . . .
314(9) . . .
314(9) . . .
315(9) . . .
319(10) . . .
307(9) . . .
319(9) . . .
313(9) . . .
323(10) . . .
288(9) . . .
330(10) . . .
324(9) . . .
312(9) . . .
312(10) . . .
314(10) . . .
317(9) . . .
302(9) . . .
314(9) . . .
327(10) . . .
314(10) . . .
363(10) . . .
332(9) . . .
322(10) . . .
290(9) . . .
316(10) . . .
318(9) . . .
322(9) . . .
323(10) . . .
289(9) . . .
320(10) . . .
330(9) . . .
320(9) . . .
335(10) . . .
330(10) . . .
316(10) . . .
351(10) . . .
350(10) . . .
358(10) . . .
338(10) . . .
341(10) . . .
343(10) . . .
381(10) . . .
366(10) . . .
357(10) . . .
366(10) . . .
373(10) . . .
362(10) . . .
348(10) . . .
405(11) . . .
379(10) . . .
361(10) . . .
359(10) . . .
354(10) . . .
392(11) . . .
388(11) . . .
384(10) . . .
382(10) . . .
423(11) . . .
361(10) . . .
406(11) . . .
395(10) . . .
389(11) . . .
401(11) . . .
388(11) . . .
368(10) . . .
371(10) . . .
380(10) . . .
356(10) . . .
345(10) . . .
359(10) . . .
341(10) . . .
341(10) . . .
346(10) . . .
356(10) . . .
353(10) . . .
318(9) . . .
322(9) . . .
336(10) . . .
303(9) . . .
321(9) . . .
340(10) . . .
329(10) . . .
320(10) . . .
318(10) . . .
316(9) . . .
324(9) . . .
322(10) . . .
325(10) . . .
318(10) . . .
286(9) . . .
324(9) . . .
314(9) . . .
343(10) . . .
322(9) . . .
322(9) . . .
318(9) . . .
334(10) . . .
325(10) . . .
322(10) . . .
296(9) . . .
303(9) . . .
308(9) . . .
287(9) . . .
299(9) . . .
313(9) . . .
290(9) . . .
298(9) . . .
314(10) . . .
310(9) . . .
320(9) . . .
288(9) . . .
302(10) . . .
312(10) . . .
316(10) . . .
318(9) . . .
321(10) . . .
308(10) . . .
331(10) . . .
291(9) . . .
282(9) . . .
286(9) . . .
310(10) . . .
304(10) . . .
301(9) . . .
310(9) . . .
306(9) . . .
306(9) . . .
305(9) . . .
312(9) . . .
315(9) . . .
336(10) . . .
312(10) . . .
327(10) . . .
326(9) . . .
312(9) . . .
276(9) . . .
314(10) . . .
307(9) . . .
294(9) . . .
326(9) . . .
289(9) . . .
284(9) . . .
295(9) . . .
309(9) . . .
298(9) . . .
293(9) . . .
309(10) . . .
284(9) . . .
328(9) . . .
294(9) . . .
308(9) . . .
313(10) . . .
311(9) . . .
286(9) . . .
315(9) . . .
306(9) . . .
312(10) . . .
296(9) . . .
339(10) . . .
302(9) . . .
298(9) . . .
316(10) . . .
288(9) . . .
324(9) . . .
308(9) . . .
330(10) . . .
293(9) . . .
313(9) . . .
302(9) . . .
301(9) . . .
307(10) . . .
306(9) . . .
315(9) . . .
300(9) . . .
326(10) . . .
294(9) . . .
313(10) . . .
292(9) . . .
319(9) . . .
323(10) . . .
298(9) . . .
327(10) . . .
314(9) . . .
295(9) . . .
314(9) . . .
305(10) . . .
284(9) . . .
326(9) . . .
296(9) . . .
290(9) . . .
300(10) . . .
304(9) . . .
316(9) . . .
287(9) . . .
323(10) . . .
275(9) . . .
301(9) . . .
307(9) . . .
317(9) . . .
299(9) . . .
291(9) . . .
275(9) . . .
301(9) . . .
302(9) . . .
272(9) . . .
286(9) . . .
285(9) . . .
301(9) . . .
304(9) . . .
294(9) . . .
306(9) . . .
312(9) . . .
308(9) . . .
312(9) . . .
287(9) . . .
307(9) . . .
291(9) . . .
295(9) . . .
268(9) . . .
300(9) . . .
302(9) . . .
276(9) . . .
294(9) . . .
289(9) . . .
309(10) . . .
275(9) . . .
293(9) . . .
304(9) . . .
302(9) . . .
312(10) . . .
312(9) . . .
287(9) . . .
305(9) . . .
317(10) . . .
323(10) . . .
310(9) . . .
306(9) . . .
324(9) . . .
319(9) . . .
325(10) . . .
311(9) . . .
322(9) . . .
334(10) . . .
341(10) . . .
336(10) . . .
328(10) . . .
320(9) . . .
331(10) . . .
310(9) . . .
298(9) . . .
306(9) . . .
310(9) . . .
312(9) . . .
280(9) . . .
289(9) . . .
300(9) . . .
302(9) . . .
299(9) . . .
296(9) . . .
290(9) . . .
293(9) . . .
295(9) . . .
299(9) . . .
308(10) . . .
266(9) . . .
284(9) . . .
290(9) . . .
312(9) . . .
324(10) . . .
321(10) . . .
314(9) . . .
285(9) . . .
310(9) . . .
336(10) . . .
350(10) . . .
322(10) . . .
335(9) . . .
356(10) . . .
349(10) . . .
347(10) . . .
350(10) . . .
347(10) . . .
353(10) . . .
317(10) . . .
313(9) . . .
323(9) . . .
332(9) . . .
338(10) . . .
297(9) . . .
314(10) . . .
313(9) . . .
307(9) . . .
332(10) . . .
307(10) . . .
299(9) . . .
316(9) . . .
303(9) . . .
281(9) . . .
295(10) . . .
277(9) . . .
300(9) . . .
307(9) . . .
294(9) . . .
273(9) . . .
289(9) . . .
276(9) . . .
288(9) . . .
276(9) . . .
295(9) . . .
285(9) . . .
309(9) . . .
276(9) . . .
275(9) . . .
296(9) . . .
277(9) . . .
305(9) . . .
283(9) . . .
289(9) . . .
295(9) . . .
265(9) . . .
293(9) . . .
294(9) . . .
261(9) . . .
291(9) . . .
276(9) . . .
275(9) . . .
315(10) . . .
297(9) . . .
269(9) . . .
287(9) . . .
283(9) . . .
270(9) . . .
273(9) . . .
314(10) . . .
282(9) . . .
295(9) . . .
303(9) . . .
276(9) . . .
298(9) . . .
269(9) . . .
288(9) . . .
279(9) . . .
283(10) . . .
286(9) . . .
283(9) . . .
278(9) . . .
271(9) . . .
305(10) . . .
303(9) . . .
305(9) . . .
286(9) . . .
291(9) . . .
282(9) . . .
267(9) . . .
277(9) . . .
277(9) . . .
277(9) . . .
287(9) . . .
263(9) . . .
284(9) . . .
299(9) . . .
307(10) . . .
289(9) . . .
310(10) . . .
294(9) . . .
280(9) . . .
265(9) . . .
286(9) . . .
258(9) . . .
273(9) . . .
281(9) . . .
294(9) . . .
292(9) . . .
265(9) . . .
286(9) . . .
291(9) . . .
303(10) . . .
285(9) . . .
320(9) . . .
275(9) . . .
269(9) . . .
291(9) . . .
302(9) . . .
300(9) . . .
283(9) . . .
289(9) . . .
311(10) . . .
286(9) . . .
269(9) . . .
289(9) . . .
316(10) . . .
285(9) . . .
296(9) . . .
300(9) . . .
301(9) . . .
312(10) . . .
326(10) . . .
305(10) . . .
306(9) . . .
317(9) . . .
320(10) . . .
291(9) . . .
296(9) . . .
324(9) . . .
310(9) . . .
280(9) . . .
318(10) . . .
299(9) . . .
321(9) . . .
317(9) . . .
305(10) . . .
305(10) . . .
300(9) . . .
308(9) . . .
307(9) . . .
315(10) . . .
304(9) . . .
311(9) . . .
306(9) . . .
317(10) . . .
284(9) . . .
288(9) . . .
324(10) . . .
333(9) . . .
316(10) . . .
330(10) . . .
338(10) . . .
334(10) . . .
312(9) . . .
298(9) . . .
331(10) . . .
315(10) . . .
295(9) . . .
319(9) . . .
291(9) . . .
314(10) . . .
331(10) . . .
332(9) . . .
322(9) . . .
322(10) . . .
307(10) . . .
331(10) . . .
312(9) . . .
319(9) . . .
331(10) . . .
309(10) . . .
325(10) . . .
347(10) . . .
316(9) . . .
315(9) . . .
299(9) . . .
311(9) . . .
311(9) . . .
339(10) . . .
268(9) . . .
292(9) . . .
284(9) . . .
295(9) . . .
273(9) . . .
286(9) . . .
318(10) . . .
277(9) . . .
286(9) . . .
294(9) . . .
283(9) . . .
276(9) . . .
267(9) . . .
274(9) . . .
276(9) . . .
275(9) . . .
283(9) . . .
291(9) . . .
265(8) . . .
305(9) . . .
264(9) . . .
295(9) . . .
284(9) . . .
265(8) . . .
259(9) . . .
262(9) . . .
269(9) . . .
261(8) . . .
275(9) . . .
265(9) . . .
282(9) . . .
289(9) . . .
278(9) . . .
266(8) . . .
264(9) . . .
263(9) . . .
255(9) . . .
272(9) . . .
273(9) . . .
272(9) . . .
262(9) . . .
273(9) . . .
276(9) . . .
250(8) . . .
267(9) . . .
253(9) . . .
285(9) . . .
268(9) . . .
223(8) . . .
256(8) . . .
282(9) . . .
248(8) . . .
256(8) . . .
263(9) . . .
262(9) . . .
272(9) . . .
263(9) . . .
269(9) . . .
275(9) . . .
255(8) . . .
276(9) . . .
268(9) . . .
256(8) . . .
294(10) . . .
257(8) . . .
262(9) . . .
257(9) . . .
275(9) . . .
268(9) . . .
267(9) . . .
254(9) . . .
272(9) . . .
253(8) . . .
250(8) . . .
289(9) . . .
265(9) . . .
274(9) . . .
264(8) . . .
265(9) . . .
265(9) . . .
260(9) . . .
245(8) . . .
252(8) . . .
241(8) . . .
281(10) . . .
265(9) . . .
245(8) . . .
259(8) . . .
294(9) . . .
253(9) . . .
254(9) . . .
265(8) . . .
242(8) . . .
252(9) . . .
251(9) . . .
241(8) . . .
255(8) . . .
268(8) . . .
293(9) . . .
280(9) . . .
246(8) . . .
283(9) . . .
277(9) . . .
279(9) . . .
262(9) . . .
275(9) . . .
272(9) . . .
250(8) . . .
228(8) . . .
253(9) . . .
258(9) . . .
268(8) . . .
258(9) . . .
249(8) . . .
270(9) . . .
255(8) . . .
249(8) . . .
257(9) . . .
276(9) . . .
247(8) . . .
247(8) . . .
257(8) . . .
256(8) . . .
259(9) . . .
263(9) . . .
259(8) . . .
275(9) . . .
256(8) . . .
254(9) . . .
257(9) . . .
264(8) . . .
250(8) . . .
249(8) . . .
268(9) . . .
297(9) . . .
249(8) . . .
270(9) . . .
274(9) . . .
252(9) . . .
255(9) . . .
253(8) . . .
270(9) . . .
274(9) . . .
250(9) . . .
267(9) . . .
279(9) . . .
286(9) . . .
273(9) . . .
265(9) . . .
266(9) . . .
260(8) . . .
255(8) . . .
253(9) . . .
266(9) . . .
262(9) . . .
249(8) . . .
255(8) . . .
264(9) . . .
262(9) . . .
256(8) . . .
262(8) . . .
242(8) . . .
251(9) . . .
272(9) . . .
252(9) . . .
275(9) . . .
266(9) . . .
275(9) . . .
251(8) . . .
259(8) . . .
266(9) . . .
250(9) . . .
269(9) . . .
284(9) . . .
273(9) . . .
262(8) . . .
280(9) . . .
261(9) . . .
251(8) . . .
239(8) . . .
257(8) . . .
239(8) . . .
243(9) . . .
262(9) . . .
259(8) . . .
239(8) . . .
258(9) . . .
241(9) . . .
255(9) . . .
250(8) . . .
262(8) . . .
235(8) . . .
251(9) . . .
239(8) . . .
256(8) . . .
232(8) . . .
264(9) . . .
242(9) . . .
252(9) . . .
252(8) . . .
268(9) . . .
259(9) . . .
257(9) . . .
255(9) . . .
263(8) . . .
252(8) . . .
269(9) . . .
275(9) . . .
278(9) . . .
270(9) . . .
248(8) . . .
250(8) . . .
249(9) . . .
224(8) . . .
262(8) . . .
248(9) . . .
249(9) . . .
251(8) . . .
237(8) . . .
237(8) . . .
267(9) . . .
252(9) . . .
249(9) . . .
249(8) . . .
253(8) . . .
278(9) . . .
244(8) . . .
266(9) . . .
238(8) . . .
237(8) . . .
243(8) . . .
248(9) . . .
271(9) . . .
263(8) . . .
232(8) . . .
228(8) . . .
245(9) . . .
259(9) . . .
247(8) . . .
264(9) . . .
243(8) . . .
245(9) . . .
248(8) . . .
266(9) . . .
258(8) . . .
251(9) . . .
233(8) . . .
255(9) . . .
265(8) . . .
247(8) . . .
262(9) . . .
260(9) . . .
240(8) . . .
255(8) . . .
250(8) . . .
267(9) . . .
238(8) . . .
236(8) . . .
249(8) . . .
260(9) . . .
264(9) . . .
249(8) . . .
244(8) . . .
240(8) . . .
259(8) . . .
241(8) . . .
252(8) . . .
258(9) . . .
248(8) . . .
255(9) . . .
256(9) . . .
260(9) . . .
232(8) . . .
251(8) . . .
276(9) . . .
229(8) . . .
231(8) . . .
227(8) . . .
252(8) . . .
232(8) . . .
241(9) . . .
239(8) . . .
261(9) . . .
236(8) . . .
260(9) . . .
240(9) . . .
249(8) . . .
232(8) . . .
264(8) . . .
246(8) . . .
274(9) . . .
268(9) . . .
238(8) . . .
250(8) . . .
245(8) . . .
229(8) . . .
226(8) . . .
233(8) . . .
224(8) . . .
240(8) . . .
237(8) . . .
241(8) . . .
245(8) . . .
237(8) . . .
231(8) . . .
255(9) . . .
266(9) . . .
266(8) . . .
226(8) . . .
245(9) . . .
251(9) . . .
247(8) . . .
246(8) . . .
244(8) . . .
227(8) . . .
226(8) . . .
253(9) . . .
253(8) . . .
264(9) . . .
245(8) . . .
254(9) . . .
248(8) . . .
232(8) . . .
230(8) . . .
237(8) . . .
239(8) . . .
228(8) . . .
235(8) . . .
228(8) . . .
226(8) . . .
253(9) . . .
239(8) . . .
240(8) . . .
233(8) . . .
219(8) . . .
251(8) . . .
252(8) . . .
247(8) . . .
239(8) . . .
232(9) . . .
247(9) . . .
243(8) . . .
236(8) . . .
244(9) . . .
229(8) . . .
238(8) . . .
246(8) . . .
238(8) . . .
238(8) . . .
246(9) . . .
238(8) . . .
248(8) . . .
251(8) . . .
245(8) . . .
242(8) . . .
214(8) . . .
262(8) . . .
225(8) . . .
224(8) . . .
223(8) . . .
241(8) . . .
219(8) . . .
204(8) . . .
241(8) . . .
252(8) . . .
246(8) . . .
217(8) . . .
253(9) . . .
251(9) . . .
231(8) . . .
220(8) . . .
254(8) . . .
259(9) . . .
216(8) . . .
232(8) . . .
229(8) . . .
222(8) . . .
245(8) . . .
250(9) . . .
231(8) . . .
244(8) . . .
246(8) . . .
226(8) . . .
248(9) . . .
228(8) . . .
242(8) . . .
241(8) . . .
247(8) . . .
229(8) . . .
241(8) . . .
231(8) . . .
220(8) . . .
246(9) . . .
216(8) . . .
225(8) . . .
235(8) . . .
254(8) . . .
209(8) . . .
221(8) . . .
223(8) . . .
225(8) . . .
214(8) . . .
256(9) . . .
228(8) . . .
241(8) . . .
238(8) . . .
259(8) . . .
232(8) . . .
234(8) . . .
253(9) . . .
229(8) . . .
237(8) . . .
238(8) . . .
239(8) . . .
220(8) . . .
228(8) . . .
230(8) . . .
257(9) . . .
252(9) . . .
248(8) . . .
276(9) . . .
261(9) . . .
248(9) . . .
228(8) . . .
265(9) . . .
252(8) . . .
261(9) . . .
272(9) . . .
261(8) . . .
302(9) . . .
279(9) . . .
302(9) . . .
313(10) . . .
282(9) . . .
273(9) . . .
279(9) . . .
263(9) . . .
280(9) . . .
268(9) . . .
262(8) . . .
260(8) . . .
240(8) . . .
235(9) . . .
244(9) . . .
258(8) . . .
273(9) . . .
252(8) . . .
242(8) . . .
284(9) . . .
244(8) . . .
251(8) . . .
273(9) . . .
270(9) . . .
251(9) . . .
250(8) . . .
256(8) . . .
276(9) . . .
275(9) . . .
221(8) . . .
235(8) . . .
260(9) . . .
281(9) . . .
282(9) . . .
242(8) . . .
231(8) . . .
240(8) . . .
227(8) . . .
241(8) . . .
280(9) . . .
255(8) . . .
252(9) . . .
233(8) . . .
259(9) . . .
253(8) . . .
257(8) . . .
244(9) . . .
236(8) . . .
235(8) . . .
255(8) . . .
254(8) . . .
233(8) . . .
242(8) . . .
242(8) . . .
233(8) . . .
235(8) . . .
251(9) . . .
244(9) . . .
225(8) . . .
232(8) . . .
225(8) . . .
248(8) . . .
238(8) . . .
258(9) . . .
250(8) . . .
229(8) . . .
229(8) . . .
240(8) . . .
240(8) . . .
226(8) . . .
240(8) . . .
269(9) . . .
256(9) . . .
260(9) . . .
242(8) . . .
240(8) . . .
232(8) . . .
242(9) . . .
239(8) . . .
241(8) . . .
256(8) . . .
267(9) . . .
240(8) . . .
246(8) . . .
250(8) . . .
242(8) . . .
237(8) . . .
257(9) . . .
254(8) . . .
248(8) . . .
285(9) . . .
263(9) . . .
245(8) . . .
277(9) . . .
269(8) . . .
290(9) . . .
281(9) . . .
242(8) . . .
263(9) . . .
278(9) . . .
256(8) . . .
258(9) . . .
265(9) . . .
263(9) . . .
276(9) . . .
235(8) . . .
251(9) . . .
256(9) . . .
240(8) . . .
250(8) . . .
268(9) . . .
245(9) . . .
264(9) . . .
273(9) . . .
239(8) . . .
254(8) . . .
250(9) . . .
251(9) . . .
280(9) . . .
265(8) . . .
262(9) . . .
260(9) . . .
258(8) . . .
256(8) . . .
263(9) . . .
252(8) . . .
238(8) . . .
249(9) . . .
252(8) . . .
247(8) . . .
257(9) . . .
265(9) . . .
256(8) . . .
249(8) . . .
257(8) . . .
250(8) . . .
255(9) . . .
264(9) . . .
241(8) . . .
237(8) . . .
242(8) . . .
242(8) . . .
267(9) . . .
223(8) . . .
244(8) . . .
239(8) . . .
238(8) . . .
241(8) . . .
242(8) . . .
223(8) . . .
212(8) . . .
246(8) . . .
246(8) . . .
236(8) . . .
239(9) . . .
219(8) . . .
230(8) . . .
256(8) . . .
225(8) . . .
239(8) . . .
232(8) . . .
227(8) . . .
245(8) . . .
235(8) . . .
232(8) . . .
233(9) . . .
230(8) . . .
221(8) . . .
219(8) . . .
222(8) . . .
239(8) . . .
245(8) . . .
259(8) . . .
232(8) . . .
238(8) . . .
240(8) . . .
222(8) . . .
229(8) . . .
218(8) . . .
215(8) . . .
226(8) . . .
232(8) . . .
248(8) . . .
253(8) . . .
247(8) . . .
238(8) . . .
238(8) . . .
216(8) . . .
215(8) . . .
233(8) . . .
225(8) . . .
227(8) . . .
237(8) . . .
230(8) . . .
244(9) . . .
232(8) . . .
222(8) . . .
229(8) . . .
230(8) . . .
239(8) . . .
236(8) . . .
234(8) . . .
230(8) . . .
228(8) . . .
246(9) . . .
225(8) . . .
235(8) . . .
249(8) . . .
241(8) . . .
233(9) . . .
233(8) . . .
248(8) . . .
232(8) . . .
242(8) . . .
212(8) . . .
246(8) . . .
222(8) . . .
237(8) . . .
220(8) . . .
223(8) . . .
254(9) . . .
228(8) . . .
219(8) . . .
216(8) . . .
240(9) . . .
222(8) . . .
238(8) . . .
244(8) . . .
240(8) . . .
230(8) . . .
226(8) . . .
251(8) . . .
251(8) . . .
230(8) . . .
230(8) . . .
267(9) . . .
210(8) . . .
214(8) . . .
246(9) . . .
227(8) . . .
238(8) . . .
231(8) . . .
237(8) . . .
223(8) . . .
222(8) . . .
233(8) . . .
240(8) . . .
214(8) . . .
212(8) . . .
212(8) . . .
219(8) . . .
205(7) . . .
216(8) . . .
204(8) . . .
221(8) . . .
219(8) . . .
235(8) . . .
234(8) . . .
210(8) . . .
231(8) . . .
219(8) . . .
219(8) . . .
200(8) . . .
212(8) . . .
226(8) . . .
236(8) . . .
228(8) . . .
232(8) . . .
240(9) . . .
243(8) . . .
227(8) . . .
201(7) . . .
235(8) . . .
219(8) . . .
209(8) . . .
236(8) . . .
245(8) . . .
237(8) . . .
231(8) . . .
216(8) . . .
225(8) . . .
219(8) . . .
235(8) . . .
228(8) . . .
231(8) . . .
222(8) . . .
207(8) . . .
221(8) . . .
220(8) . . .
201(7) . . .
219(8) . . .
218(8) . . .
214(8) . . .
213(8) . . .
219(8) . . .
227(8) . . .
211(8) . . .
214(8) . . .
221(8) . . .
230(8) . . .
247(8) . . .
235(8) . . .
233(8) . . .
245(8) . . .
227(8) . . .
232(8) . . .
204(8) . . .
215(8) . . .
222(8) . . .
219(8) . . .
235(8) . . .
228(8) . . .
239(9) . . .
217(8) . . .
218(8) . . .
224(8) . . .
212(8) . . .
203(8) . . .
224(8) . . .
219(8) . . .
217(8) . . .
200(7) . . .
232(8) . . .
215(8) . . .
195(7) . . .
219(8) . . .
234(8) . . .
214(8) . . .
236(8) . . .
222(8) . . .
219(8) . . .
227(8) . . .
204(7) . . .
217(8) . . .
247(8) . . .
236(8) . . .
223(8) . . .
231(8) . . .
222(8) . . .
221(8) . . .
227(8) . . .
228(8) . . .
215(8) . . .
223(8) . . .
238(8) . . .
258(9) . . .
228(8) . . .
240(8) . . .
244(8) . . .
248(8) . . .
227(8) . . .
219(8) . . .
235(8) . . .
218(8) . . .
231(8) . . .
251(9) . . .
253(9) . . .
257(9) . . .
250(8) . . .
238(8) . . .
251(8) . . .
225(8) . . .
220(8) . . .
231(8) . . .
239(8) . . .
257(9) . . .
213(8) . . .
230(8) . . .
227(8) . . .
219(8) . . .
238(8) . . .
224(8) . . .
221(8) . . .
216(8) . . .
228(8) . . .
217(8) . . .
246(9) . . .
219(8) . . .
228(8) . . .
235(8) . . .
245(9) . . .
244(9) . . .
232(8) . . .
227(8) . . .
228(8) . . .
219(8) . . .
225(8) . . .
210(8) . . .
230(8) . . .
230(8) . . .
213(8) . . .
226(8) . . .
236(8) . . .
235(8) . . .
220(8) . . .
251(9) . . .
230(8) . . .
228(8) . . .
226(8) . . .
211(8) . . .
220(8) . . .
226(8) . . .
221(8) . . .
216(8) . . .
223(8) . . .
230(8) . . .
231(8) . . .
223(8) . . .
198(7) . . .
219(8) . . .
205(8) . . .
212(8) . . .
201(7) . . .
211(8) . . .
210(8) . . .
213(8) . . .
214(8) . . .
224(8) . . .
222(8) . . .
195(7) . . .
225(8) . . .
212(8) . . .
222(8) . . .
230(8) . . .
196(7) . . .
219(8) . . .
217(8) . . .
201(7) . . .
206(8) . . .
215(8) . . .
214(8) . . .
223(8) . . .
218(8) . . .
221(8) . . .
200(8) . . .
225(8) . . .
221(8) . . .
217(8) . . .
203(8) . . .
211(8) . . .
226(8) . . .
223(8) . . .
212(8) . . .
216(8) . . .
223(8) . . .
239(8) . . .
227(8) . . .
234(8) . . .
224(8) . . .
212(8) . . .
225(8) . . .
218(8) . . .
219(8) . . .
235(8) . . .
233(8) . . .
215(8) . . .
213(8) . . .
225(8) . . .
216(8) . . .
212(8) . . .
214(8) . . .
228(8) . . .
210(8) . . .
217(8) . . .
224(8) . . .
245(8) . . .
221(8) . . .
220(8) . . .
203(8) . . .
193(8) . . .
209(8) . . .
210(8) . . .
183(7) . . .
213(8) . . .
226(8) . . .
200(8) . . .
230(8) . . .
201(7) . . .
204(8) . . .
200(8) . . .
206(8) . . .
223(8) . . .
209(7) . . .
217(8) . . .
205(8) . . .
223(8) . . .
236(8) . . .
208(8) . . .
231(8) . . .
220(8) . . .
210(8) . . .
200(7) . . .
223(8) . . .
214(8) . . .
207(8) . . .
230(8) . . .
208(7) . . .
216(8) . . .
210(8) . . .
227(8) . . .
231(8) . . .
229(8) . . .
229(8) . . .
217(8) . . .
230(8) . . .
219(8) . . .
220(8) . . .
236(8) . . .
238(8) . . .
245(8) . . .
212(8) . . .
231(8) . . .
216(8) . . .
206(8) . . .
204(8) . . .
222(8) . . .
230(8) . . .
214(8) . . .
226(8) . . .
246(9) . . .
226(8) . . .
238(8) . . .
231(8) . . .
220(8) . . .
242(8) . . .
230(8) . . .
221(8) . . .
227(8) . . .
251(9) . . .
226(8) . . .
224(8) . . .
233(8) . . .
243(9) . . .
239(9) . . .
238(8) . . .
234(8) . . .
245(8) . . .
237(8) . . .
255(9) . . .
264(9) . . .
239(8) . . .
274(9) . . .
268(9) . . .
278(9) . . .
239(8) . . .
256(8) . . .
241(8) . . .
244(9) . . .
260(9) . . .
245(8) . . .
260(8) . . .
247(9) . . .
226(8) . . .
239(8) . . .
254(8) . . .
234(8) . . .
241(8) . . .
226(8) . . .
230(8) . . .
201(7) . . .
208(7) . . .
214(8) . . .
211(8) . . .
218(8) . . .
220(8) . . .
215(8) . . .
224(8) . . .
236(9) . . .
222(8) . . .
225(8) . . .
215(8) . . .
203(8) . . .
224(8) . . .
203(8) . . .
213(8) . . .
216(8) . . .
205(8) . . .
227(8) . . .
229(8) . . .
211(8) . . .
213(8) . . .
232(8) . . .
227(8) . . .
215(8) . . .
217(8) . . .
218(8) . . .
204(8) . . .
223(8) . . .
205(8) . . .
214(8) . . .
234(8) . . .
219(8) . . .
214(8) . . .
198(8) . . .
206(7) . . .
196(7) . . .
202(8) . . .
204(8) . . .
219(8) . . .
227(8) . . .
216(8) . . .
194(7) . . .
199(8) . . .
216(8) . . .
220(8) . . .
209(8) . . .
224(8) . . .
226(8) . . .
212(8) . . .
216(8) . . .
221(8) . . .
212(8) . . .
203(8) . . .
234(8) . . .
213(8) . . .
209(8) . . .
210(8) . . .
207(8) . . .
224(8) . . .
223(8) . . .
227(8) . . .
193(8) . . .
166(7) . . .
199(7) . . .
208(8) . . .
190(7) . . .
197(8) . . .
214(8) . . .
196(7) . . .
199(7) . . .
214(8) . . .
199(8) . . .
211(8) . . .
214(8) . . .
202(8) . . .
220(8) . . .
211(8) . . .
213(8) . . .
215(8) . . .
217(8) . . .
218(8) . . .
196(8) . . .
217(8) . . .
188(7) . . .
221(8) . . .
228(8) . . .
196(7) . . .
210(8) . . .
195(7) . . .
201(8) . . .
220(8) . . .
194(7) . . .
202(7) . . .
189(7) . . .
211(8) . . .
202(8) . . .
218(8) . . .
185(7) . . .
225(8) . . .
205(8) . . .
214(8) . . .
210(8) . . .
214(8) . . .
217(8) . . .
218(8) . . .
222(8) . . .
191(7) . . .
216(8) . . .
209(8) . . .
221(8) . . .
222(8) . . .
205(8) . . .
217(8) . . .
218(8) . . .
216(8) . . .
221(8) . . .
224(8) . . .
213(8) . . .
201(7) . . .
221(8) . . .
203(8) . . .
190(7) . . .
197(7) . . .
228(8) . . .
226(8) . . .
214(8) . . .
220(8) . . .
218(8) . . .
217(8) . . .
228(8) . . .
226(8) . . .
203(8) . . .
196(7) . . .
203(8) . . .
223(8) . . .
228(8) . . .
217(8) . . .
213(8) . . .
227(8) . . .
231(8) . . .
213(8) . . .
195(7) . . .
197(7) . . .
242(8) . . .
223(8) . . .
218(8) . . .
203(7) . . .
213(8) . . .
221(8) . . .
219(8) . . .
225(8) . . .
190(7) . . .
219(8) . . .
209(8) . . .
200(8) . . .
221(8) . . .
216(8) . . .
205(7) . . .
195(8) . . .
203(8) . . .
231(8) . . .
200(7) . . .
202(7) . . .
210(8) . . .
207(8) . . .
225(8) . . .
206(7) . . .
211(7) . . .
239(8) . . .
214(8) . . .
209(8) . . .
211(8) . . .
200(8) . . .
208(8) . . .
219(8) . . .
221(8) . . .
228(8) . . .
209(8) . . .
210(8) . . .
204(8) . . .
206(8) . . .
196(7) . . .
211(8) . . .
221(8) . . .
215(8) . . .
199(8) . . .
239(8) . . .
219(8) . . .
229(8) . . .
239(8) . . .
250(8) . . .
264(8) . . .
245(8) . . .
262(9) . . .
237(8) . . .
252(8) . . .
243(8) . . .
217(8) . . .
237(9) . . .
216(8) . . .
221(8) . . .
214(8) . . .
253(9) . . .
226(8) . . .
215(8) . . .
222(8) . . .
219(8) . . .
226(8) . . .
214(8) . . .
227(8) . . .
224(8) . . .
225(8) . . .
219(8) . . .
217(8) . . .
219(8) . . .
212(8) . . .
215(8) . . .
200(8) . . .
219(8) . . .
215(8) . . .
235(8) . . .
211(8) . . .
229(8) . . .
227(8) . . .
202(8) . . .
217(8) . . .
226(8) . . .
223(8) . . .
208(8) . . .
231(8) . . .
213(8) . . .
216(8) . . .
196(8) . . .
217(8) . . .
210(8) . . .
239(8) . . .
203(8) . . .
232(8) . . .
218(8) . . .
227(8) . . .
207(7) . . .
215(8) . . .
206(8) . . .
212(8) . . .
208(8) . . .
217(8) . . .
234(8) . . .
228(8) . . .
214(8) . . .
223(8) . . .
230(8) . . .
222(8) . . .
208(8) . . .
207(8) . . .
227(8) . . .
233(8) . . .
214(8) . . .
229(8) . . .
231(8) . . .
224(8) . . .
232(8) . . .
219(8) . . .
229(8) . . .
231(8) . . .
227(8) . . .
240(8) . . .
238(8) . . .
229(8) . . .
233(8) . . .
232(8) . . .
257(9) . . .
224(8) . . .
211(8) . . .
241(8) . . .
242(8) . . .
246(8) . . .
198(7) . . .
228(8) . . .
197(7) . . .
227(8) . . .
227(8) . . .
208(8) . . .
218(8) . . .
203(8) . . .
209(8) . . .
220(8) . . .
219(8) . . .
215(8) . . .
222(8) . . .
241(8) . . .
219(8) . . .
224(8) . . .
208(8) . . .
213(8) . . .
228(8) . . .
212(8) . . .
187(7) . . .
230(8) . . .
228(8) . . .
223(8) . . .
213(8) . . .
215(8) . . .
222(8) . . .
214(8) . . .
204(7) . . .
214(8) . . .
210(8) . . .
232(8) . . .
225(8) . . .
237(8) . . .
237(8) . . .
225(8) . . .
253(9) . . .
247(8) . . .
244(8) . . .
244(8) . . .
260(9) . . .
251(8) . . .
256(8) . . .
251(8) . . .
235(8) . . .
213(8) . . .
221(8) . . .
215(8) . . .
241(8) . . .
238(8) . . .
235(8) . . .
237(8) . . .
233(8) . . .
229(8) . . .
220(8) . . .
222(8) . . .
225(8) . . .
229(8) . . .
196(7) . . .
218(8) . . .
229(8) . . .
232(8) . . .
207(7) . . .
210(8) . . .
229(8) . . .
231(8) . . .
237(8) . . .
211(8) . . .
226(8) . . .
226(9) . . .
197(7) . . .
217(8) . . .
205(7) . . .
215(8) . . .
204(8) . . .
214(8) . . .
207(8) . . .
210(8) . . .
199(8) . . .
219(8) . . .
219(8) . . .
203(8) . . .
192(7) . . .
206(8) . . .
200(8) . . .
201(8) . . .
216(8) . . .
204(8) . . .
203(8) . . .
202(8) . . .
228(8) . . .
202(7) . . .
204(7) . . .
193(8) . . .
207(8) . . .
203(8) . . .
202(7) . . .
199(7) . . .
208(8) . . .
245(9) . . .
222(8) . . .
187(7) . . .
197(8) . . .
207(8) . . .
215(8) . . .
223(8) . . .
215(8) . . .
219(8) . . .
216(8) . . .
205(8) . . .
187(7) . . .
210(7) . . .
207(8) . . .
213(8) . . .
206(8) . . .
212(8) . . .
206(7) . . .
212(8) . . .
214(8) . . .
224(8) . . .
210(8) . . .
215(8) . . .
196(7) . . .
211(8) . . .
209(8) . . .
206(8) . . .
233(8) . . .
224(8) . . .
210(8) . . .
210(8) . . .
189(7) . . .
188(7) . . .
224(8) . . .
208(8) . . .
207(8) . . .
214(8) . . .
207(8) . . .
222(8) . . .
227(8) . . .
206(8) . . .
207(8) . . .
228(8) . . .
212(8) . . .
229(8) . . .
235(8) . . .
199(7) . . .
222(8) . . .
218(8) . . .
206(8) . . .
209(8) . . .
232(8) . . .
230(8) . . .
225(8) . . .
215(8) . . .
202(8) . . .
221(8) . . .
233(8) . . .
218(8) . . .
215(8) . . .
206(8) . . .
216(8) . . .
215(8) . . .
209(8) . . .
207(8) . . .
206(8) . . .
194(7) . . .
221(8) . . .
203(8) . . .
224(8) . . .
239(8) . . .
229(8) . . .
229(8) . . .
217(8) . . .
209(8) . . .
218(8) . . .
228(8) . . .
206(8) . . .
208(8) . . .
235(8) . . .
225(8) . . .
218(8) . . .
243(8) . . .
228(8) . . .
228(8) . . .
237(8) . . .
251(8) . . .
244(8) . . .
244(9) . . .
258(9) . . .
238(8) . . .
261(8) . . .
242(8) . . .
253(9) . . .
267(9) . . .
258(8) . . .
253(8) . . .
238(8) . . .
258(9) . . .
275(9) . . .
254(8) . . .
238(8) . . .
234(8) . . .
235(9) . . .
201(8) . . .
222(8) . . .
229(8) . . .
223(8) . . .
215(8) . . .
206(8) . . .
220(8) . . .
220(8) . . .
214(8) . . .
221(8) . . .
219(8) . . .
196(7) . . .
204(8) . . .
198(8) . . .
213(8) . . .
224(8) . . .
202(7) . . .
193(7) . . .
238(8) . . .
214(8) . . .
223(8) . . .
220(8) . . .
202(8) . . .
198(8) . . .
226(8) . . .
234(8) . . .
194(7) . . .
207(8) . . .
220(8) . . .
208(8) . . .
199(7) . . .
201(7) . . .
195(7) . . .
202(8) . . .
222(8) . . .
236(8) . . .
194(7) . . .
212(8) . . .
199(8) . . .
203(8) . . .
205(7) . . .
195(7) . . .
207(8) . . .
210(8) . . .
219(8) . . .
212(8) . . .
230(8) . . .
222(8) . . .
212(8) . . .
210(8) . . .
201(7) . . .
200(7) . . .
204(8) . . .
211(8) . . .
217(8) . . .
205(7) . . .
200(8) . . .
212(8) . . .
207(8) . . .
212(8) . . .
223(8) . . .
197(8) . . .
212(8) . . .
205(8) . . .
226(8) . . .
210(8) . . .
217(8) . . .
209(8) . . .
205(8) . . .
230(8) . . .
234(8) . . .
233(8) . . .
206(8) . . .
204(8) . . .
234(8) . . .
231(8) . . .
195(8) . . .
192(8) . . .
228(8) . . .
220(8) . . .
191(7) . . .
182(7) . . .
194(8) . . .
206(8) . . .
219(8) . . .
191(7) . . .
200(8) . . .
210(8) . . .
210(8) . . .
202(7) . . .
219(8) . . .
214(8) . . .
197(8) . . .
195(7) . . .
204(7) . . .
209(8) . . .
200(8) . . .
199(8) . . .
212(8) . . .
208(7) . . .
192(7) . . .
213(8) . . .
192(7) . . .
201(8) . . .
214(8) . . .
214(8) . . .
201(8) . . .
216(8) . . .
224(8) . . .
209(8) . . .
210(8) . . .
209(8) . . .
219(8) . . .
203(7) . . .
214(8) . . .
202(7) . . .
212(8) . . .
206(8) . . .
220(8) . . .
232(8) . . .
232(8) . . .
220(8) . . .
248(9) . . .
221(8) . . .
232(8) . . .
226(8) . . .
242(9) . . .
226(8) . . .
232(8) . . .
222(8) . . .
234(8) . . .
234(8) . . .
257(9) . . .
253(8) . . .
275(9) . . .
264(9) . . .
260(9) . . .
245(8) . . .
248(8) . . .
236(8) . . .
230(8) . . .
224(8) . . .
231(8) . . .
220(8) . . .
236(8) . . .
241(8) . . .
204(8) . . .
183(7) . . .
215(8) . . .
217(8) . . .
206(8) . . .
209(8) . . .
207(8) . . .
207(7) . . .
214(8) . . .
204(8) . . .
210(8) . . .
198(7) . . .
201(7) . . .
209(8) . . .
217(8) . . .
219(8) . . .
210(8) . . .
218(8) . . .
223(8) . . .
208(8) . . .
225(8) . . .
208(8) . . .
216(8) . . .
211(8) . . .
206(8) . . .
217(8) . . .
230(8) . . .
213(8) . . .
202(8) . . .
223(8) . . .
228(8) . . .
214(8) . . .
191(7) . . .
203(8) . . .
208(8) . . .
239(8) . . .
198(7) . . .
212(8) . . .
199(8) . . .
201(8) . . .
224(8) . . .
211(8) . . .
215(8) . . .
231(8) . . .
200(8) . . .
196(7) . . .
197(7) . . .
222(8) . . .
206(8) . . .
207(8) . . .
208(8) . . .
205(8) . . .
195(7) . . .
194(8) . . .
207(8) . . .
189(7) . . .
186(7) . . .
215(8) . . .
195(8) . . .
213(8) . . .
210(8) . . .
219(8) . . .
221(8) . . .
186(7) . . .
215(8) . . .
239(8) . . .
211(8) . . .
198(7) . . .
214(8) . . .
207(8) . . .
210(8) . . .
215(8) . . .
206(8) . . .
207(8) . . .
202(8) . . .
202(7) . . .
200(7) . . .
202(8) . . .
215(8) . . .
208(8) . . .
190(7) . . .
204(7) . . .
221(8) . . .
211(8) . . .
219(8) . . .
199(7) . . .
207(7) . . .
210(8) . . .
206(8) . . .
180(7) . . .
197(7) . . .
190(7) . . .
197(7) . . .
196(8) . . .
217(8) . . .
216(8) . . .
214(8) . . .
202(8) . . .
199(8) . . .
206(8) . . .
198(7) . . .
219(8) . . .
196(7) . . .
199(7) . . .
213(8) . . .
224(8) . . .
197(7) . . .
214(8) . . .
194(7) . . .
207(8) . . .
203(7) . . .
210(8) . . .
206(8) . . .
210(8) . . .
206(8) . . .
224(8) . . .
213(8) . . .
199(8) . . .
212(8) . . .
220(8) . . .
222(8) . . .
222(8) . . .
221(8) . . .
207(8) . . .
233(8) . . .
219(8) . . .
234(8) . . .
237(8) . . .
235(8) . . .
205(8) . . .
207(7) . . .
240(8) . . .
241(9) . . .
217(8) . . .
213(8) . . .
227(8) . . .
205(8) . . .
210(8) . . .
209(8) . . .
210(8) . . .
213(8) . . .
210(8) . . .
226(8) . . .
213(8) . . .
222(8) . . .
210(7) . . .
199(8) . . .
202(8) . . .
190(7) . . .
199(7) . . .
207(8) . . .
207(8) . . .
204(8) . . .
210(8) . . .
206(7) . . .
217(8) . . .
206(8) . . .
226(8) . . .
227(8) . . .
217(8) . . .
206(8) . . .
208(8) . . .
196(8) . . .
207(8) . . .
207(7) . . .
206(8) . . .
212(8) . . .
191(7) . . .
205(8) . . .
209(7) . . .
214(8) . . .
201(8) . . .
199(8) . . .
212(8) . . .
215(8) . . .
219(8) . . .
202(8) . . .
208(8) . . .
216(8) . . .
193(7) . . .
202(8) . . .
204(8) . . .
221(8) . . .
233(8) . . .
224(8) . . .
213(8) . . .
208(8) . . .
207(8) . . .
215(8) . . .
214(8) . . .
207(8) . . .
215(8) . . .
227(8) . . .
223(8) . . .
216(8) . . .
245(8) . . .
230(8) . . .
237(8) . . .
241(8) . . .
239(8) . . .
231(8) . . .
240(8) . . .
230(8) . . .
221(8) . . .
267(9) . . .
221(8) . . .
223(8) . . .
219(8) . . .
222(8) . . .
219(8) . . .
220(8) . . .
213(8) . . .
187(7) . . .
218(8) . . .
229(8) . . .
224(8) . . .
223(8) . . .
261(9) . . .
223(8) . . .
237(8) . . .
231(8) . . .
228(8) . . .
232(8) . . .
260(8) . . .
276(9) . . .
262(9) . . .
264(9) . . .
235(8) . . .
252(8) . . .
242(8) . . .
240(8) . . .
238(8) . . .
271(9) . . .
249(8) . . .
265(9) . . .
257(9) . . .
251(9) . . .
236(8) . . .
244(8) . . .
236(8) . . .
230(9) . . .
220(8) . . .
211(8) . . .
234(8) . . .
214(8) . . .
224(8) . . .
202(8) . . .
203(7) . . .
207(8) . . .
197(7) . . .
219(8) . . .
210(8) . . .
210(8) . . .
227(8) . . .
214(8) . . .
222(8) . . .
219(8) . . .
209(7) . . .
197(7) . . .
210(8) . . .
222(8) . . .
200(8) . . .
212(8) . . .
218(8) . . .
238(9) . . .
222(8) . . .
207(8) . . .
197(7) . . .
204(8) . . .
204(8) . . .
220(8) . . .
201(7) . . .
200(7) . . .
206(8) . . .
220(8) . . .
213(8) . . .
217(8) . . .
214(8) . . .
195(7) . . .
206(8) . . .
211(8) . . .
204(7) . . .
209(7) . . .
207(8) . . .
236(9) . . .
223(8) . . .
210(7) . . .
221(8) . . .
228(8) . . .
214(8) . . .
205(8) . . .
209(8) . . .
204(7) . . .
214(8) . . .
212(8) . . .
210(8) . . .
204(7) . . .
200(7) . . .
212(8) . . .
210(8) . . .
207(8) . . .
204(7) . . .
209(8) . . .
224(8) . . .
217(8) . . .
221(8) . . .
203(7) . . .
217(8) . . .
214(8) . . .
202(7) . . .
213(8) . . .
204(7) . . .
216(8) . . .
204(8) . . .
194(8) . . .
219(8) . . .
198(7) . . .
206(8) . . .
193(8) . . .
197(8) . . .
221(8) . . .
208(7) . . .
225(8) . . .
217(8) . . .
229(8) . . .
195(7) . . .
204(8) . . .
204(8) . . .
218(8) . . .
180(7) . . .
201(7) . . .
214(8) . . .
204(8) . . .
203(8) . . .
193(7) . . .
185(7) . . .
215(8) . . .
200(7) . . .
209(8) . . .
216(8) . . .
215(8) . . .
212(8) . . .
203(8) . . .
208(8) . . .
189(7) . . .
215(8) . . .
198(7) . . .
186(7) . . .
218(8) . . .
212(8) . . .
206(7) . . .
210(8) . . .
208(8) . . .
218(8) . . .
183(7) . . .
210(8) . . .
223(8) . . .
189(7) . . .
211(8) . . .
213(8) . . .
207(8) . . .
191(7) . . .
201(8) . . .
211(8) . . .
203(8) . . .
222(8) . . .
202(8) . . .
180(7) . . .
217(8) . . .
216(8) . . .
214(8) . . .
196(7) . . .
211(8) . . .
208(8) . . .
216(8) . . .
205(8) . . .
214(8) . . .
226(8) . . .
220(8) . . .
209(8) . . .
232(8) . . .
234(8) . . .
233(9) . . .
198(7) . . .
215(8) . . .
198(7) . . .
199(7) . . .
220(8) . . .
216(8) . . .
226(8) . . .
209(7) . . .
213(8) . . .
210(8) . . .
193(7) . . .
213(8) . . .
221(8) . . .
232(8) . . .
219(8) . . .
217(8) . . .
196(7) . . .
224(8) . . .
230(8) . . .
215(8) . . .
234(8) . . .
230(8) . . .
228(8) . . .
187(7) . . .
250(9) . . .
230(8) . . .
216(8) . . .
219(8) . . .
204(8) . . .
203(8) . . .
200(7) . . .
217(8) . . .
207(8) . . .
211(8) . . .
214(8) . . .
207(8) . . .
214(8) . . .
220(8) . . .
202(8) . . .
192(8) . . .
188(7) . . .
203(7) . . .
192(7) . . .
196(8) . . .
215(8) . . .
204(7) . . .
236(8) . . .
212(8) . . .
198(8) . . .
207(8) . . .
213(8) . . .
207(7) . . .
207(8) . . .
215(8) . . .
228(8) . . .
241(8) . . .
235(8) . . .
249(9) . . .
218(8) . . .
222(8) . . .
254(8) . . .
225(8) . . .
229(8) . . .
233(8) . . .
223(8) . . .
221(8) . . .
187(7) . . .
217(8) . . .
200(8) . . .
225(8) . . .
203(7) . . .
197(7) . . .
201(8) . . .
222(8) . . .
213(8) . . .
212(8) . . .
210(8) . . .
222(8) . . .
219(8) . . .
211(8) . . .
203(7) . . .
203(8) . . .
195(8) . . .
213(8) . . .
229(8) . . .
212(8) . . .
229(8) . . .
230(8) . . .
223(8) . . .
226(8) . . .
211(8) . . .
227(8) . . .
224(8) . . .
220(8) . . .
222(8) . . .
232(8) . . .
232(8) . . .
216(8) . . .
211(8) . . .
194(7) . . .
221(8) . . .
239(8) . . .
227(8) . . .
226(8) . . .
217(8) . . .
210(8) . . .
197(7) . . .
211(8) . . .
208(8) . . .
215(8) . . .
227(8) . . .
214(8) . . .
220(8) . . .
208(8) . . .
192(7) . . .
217(8) . . .
220(8) . . .
216(8) . . .
215(8) . . .
205(7) . . .
194(7) . . .
195(8) . . .
190(7) . . .
181(7) . . .
219(8) . . .
206(8) . . .
211(8) . . .
220(8) . . .
210(8) . . .
230(8) . . .
218(8) . . .
193(8) . . .
204(8) . . .
206(8) . . .
226(8) . . .
199(7) . . .
216(8) . . .
217(8) . . .
189(7) . . .
207(7) . . .
217(8) . . .
210(8) . . .
218(8) . . .
207(8) . . .
202(7) . . .
209(8) . . .
210(8) . . .
188(7) . . .
216(8) . . .
201(7) . . .
210(8) . . .
193(8) . . .
209(8) . . .
205(7) . . .
213(8) . . .
209(8) . . .
200(8) . . .
201(8) . . .
208(7) . . .
196(7) . . .
190(7) . . .
207(8) . . .
203(8) . . .
194(7) . . .
219(8) . . .
233(8) . . .
211(8) . . .
186(7) . . .
201(7) . . .
205(7) . . .
196(8) . . .
196(8) . . .
191(7) . . .
210(7) . . .
214(8) . . .
218(8) . . .
207(8) . . .
218(8) . . .
201(7) . . .
177(7) . . .
180(7) . . .
203(8) . . .
197(7) . . .
201(7) . . .
211(8) . . .
205(8) . . .
219(8) . . .
220(8) . . .
219(8) . . .
208(8) . . .
193(8) . . .
190(8) . . .
199(7) . . .
202(7) . . .
194(8) . . .
196(8) . . .
192(7) . . .
217(8) . . .
198(7) . . .
215(8) . . .
202(8) . . .
191(7) . . .
209(8) . . .
193(7) . . .
219(8) . . .
213(8) . . .
221(8) . . .
232(8) . . .
223(8) . . .
193(7) . . .
217(9) . . .
206(8) . . .
220(8) . . .
229(8) . . .
227(8) . . .
221(8) . . .
204(8) . . .
202(7) . . .
216(8) . . .
234(8) . . .
218(8) . . .
236(8) . . .
208(8) . . .
197(8) . . .
216(8) . . .
216(8) . . .
214(8) . . .
198(7) . . .
199(8) . . .
206(8) . . .
225(8) . . .
201(8) . . .
207(8) . . .
224(8) . . .
228(8) . . .
216(8) . . .
219(8) . . .
212(8) . . .
234(8) . . .
215(8) . . .
211(8) . . .
198(7) . . .
200(7) . . .
224(8) . . .
214(8) . . .
216(8) . . .
205(8) . . .
202(7) . . .
218(8) . . .
218(8) . . .
242(8) . . .
212(8) . . .
202(7) . . .
197(7) . . .
219(8) . . .
202(8) . . .
212(8) . . .
193(7) . . .
196(8) . . .
193(8) . . .
190(7) . . .
197(7) . . .
219(8) . . .
228(8) . . .
192(8) . . .
206(8) . . .
214(8) . . .
229(8) . . .
219(8) . . .
218(8) . . .
191(7) . . .
218(8) . . .
211(8) . . .
222(8) . . .
202(8) . . .
199(8) . . .
208(7) . . .
229(8) . . .
186(7) . . .
208(8) . . .
204(8) . . .
211(8) . . .
213(8) . . .
212(8) . . .
213(8) . . .
207(8) . . .
211(8) . . .
192(8) . . .
209(8) . . .
208(8) . . .
199(7) . . .
202(7) . . .
185(7) . . .
197(8) . . .
216(8) . . .
207(7) . . .
188(7) . . .
191(7) . . .
208(8) . . .
219(8) . . .
210(8) . . .
205(7) . . .
197(8) . . .
215(8) . . .
212(8) . . .
189(7) . . .
201(7) . . .
196(8) . . .
207(8) . . .
196(7) . . .
206(7) . . .
199(7) . . .
176(7) . . .
200(8) . . .
192(7) . . .
203(7) . . .
199(7) . . .
201(8) . . .
209(8) . . .
210(8) . . .
183(7) . . .
212(8) . . .
206(8) . . .
195(8) . . .
203(8) . . .
198(7) . . .
197(7) . . .
211(8) . . .
212(8) . . .
205(8) . . .
226(8) . . .
215(8) . . .
185(7) . . .
171(7) . . .
207(8) . . .
201(7) . . .
192(7) . . .
225(8) . . .
190(7) . . .
218(8) . . .
217(8) . . .
207(8) . . .
184(7) . . .
201(8) . . .
205(8) . . .
194(7) . . .
204(8) . . .
211(8) . . .
184(7) . . .
198(7) . . .
195(7) . . .
222(8) . . .
195(8) . . .
200(8) . . .
198(7) . . .
197(7) . . .
205(8) . . .
203(8) . . .
197(7) . . .
192(7) . . .
192(7) . . .
216(8) . . .
189(8) . . .
182(8) . . .
203(7) . . .
202(7) . . .
198(7) . . .
199(8) . . .
199(8) . . .
210(8) . . .
195(7) . . .
194(7) . . .
199(8) . . .
188(7) . . .
189(7) . . .
194(7) . . .
187(7) . . .
188(7) . . .
210(8) . . .
201(7) . . .
211(8) . . .
204(8) . . .
192(8) . . .
222(8) . . .
203(7) . . .
210(8) . . .
197(8) . . .
209(8) . . .
201(7) . . .
203(7) . . .
216(8) . . .
195(7) . . .
196(7) . . .
197(7) . . .
206(7) . . .
214(8) . . .
194(8) . . .
208(8) . . .
220(8) . . .
189(7) . . .
207(8) . . .
216(8) . . .
212(8) . . .
210(8) . . .
225(8) . . .
206(8) . . .
203(8) . . .
206(8) . . .
216(8) . . .
197(7) . . .
201(8) . . .
205(8) . . .
211(8) . . .
215(8) . . .
200(7) . . .
196(8) . . .
185(7) . . .
199(8) . . .
214(8) . . .
215(8) . . .
213(8) . . .
207(8) . . .
219(8) . . .
206(7) . . .
208(8) . . .
205(8) . . .
193(7) . . .
194(7) . . .
182(7) . . .
205(8) . . .
211(8) . . .
212(8) . . .
208(8) . . .
204(7) . . .
204(8) . . .
186(7) . . .
201(8) . . .
211(8) . . .
191(7) . . .
198(8) . . .
194(8) . . .
171(7) . . .
186(7) . . .
194(7) . . .
193(8) . . .
188(8) . . .
216(8) . . .
222(8) . . .
207(7) . . .
204(8) . . .
194(8) . . .
175(7) . . .
190(7) . . .
216(8) . . .
191(7) . . .
212(8) . . .
200(8) . . .
195(7) . . .
192(7) . . .
201(8) . . .
201(8) . . .
208(8) . . .
215(8) . . .
196(7) . . .
206(8) . . .
215(8) . . .
184(7) . . .
220(8) . . .
216(8) . . .
198(7) . . .
208(8) . . .
187(7) . . .
193(7) . . .
190(7) . . .
198(7) . . .
209(8) . . .
192(7) . . .
191(7) . . .
200(7) . . .
200(8) . . .
219(8) . . .
190(7) . . .
184(7) . . .
200(8) . . .
194(8) . . .
191(8) . . .
201(7) . . .
197(7) . . .
212(8) . . .
206(8) . . .
183(7) . . .
198(7) . . .
204(7) . . .
187(7) . . .
178(7) . . .
195(7) . . .
205(7) . . .
198(7) . . .
200(8) . . .
213(8) . . .
189(7) . . .
203(8) . . .
189(7) . . .
203(8) . . .
202(8) . . .
199(7) . . .
223(8) . . .
199(7) . . .
194(7) . . .
174(7) . . .
205(8) . . .
221(8) . . .
193(7) . . .
211(8) . . .
206(8) . . .
205(8) . . .
199(7) . . .
206(8) . . .
189(7) . . .
219(8) . . .
201(7) . . .
215(8) . . .
223(8) . . .
210(8) . . .
212(8) . . .
194(7) . . .
201(7) . . .
213(8) . . .
205(8) . . .
191(7) . . .
202(8) . . .
203(7) . . .
211(8) . . .
222(8) . . .
222(8) . . .
211(8) . . .
206(7) . . .
206(8) . . .
226(8) . . .
213(8) . . .
202(8) . . .
199(7) . . .
196(8) . . .
199(8) . . .
216(8) . . .
195(7) . . .
209(7) . . .
190(7) . . .
201(8) . . .
205(8) . . .
185(7) . . .
171(7) . . .
215(8) . . .
207(8) . . .
212(8) . . .
202(8) . . .
194(7) . . .
205(8) . . .
205(8) . . .
227(8) . . .
201(7) . . .
207(7) . . .
198(8) . . .
201(8) . . .
192(7) . . .
192(7) . . .
196(7) . . .
174(7) . . .
196(8) . . .
202(8) . . .
204(7) . . .
195(7) . . .
194(7) . . .
187(7) . . .
196(8) . . .
202(7) . . .
198(7) . . .
196(8) . . .
222(8) . . .
199(8) . . .
222(8) . . .
200(7) . . .
201(8) . . .
217(8) . . .
209(8) . . .
225(8) . . .
195(8) . . .
207(8) . . .
206(8) . . .
187(7) . . .
186(7) . . .
210(8) . . .
192(8) . . .
206(8) . . .
189(7) . . .
187(7) . . .
206(8) . . .
199(8) . . .
180(7) . . .
223(8) . . .
192(7) . . .
204(8) . . .
216(8) . . .
192(7) . . .
185(7) . . .
183(7) . . .
187(7) . . .
184(8) . . .
191(7) . . .
217(8) . . .
199(7) . . .
188(7) . . .
207(8) . . .
195(7) . . .
208(7) . . .
195(7) . . .
188(7) . . .
194(8) . . .
185(7) . . .
199(7) . . .
195(7) . . .
206(8) . . .
211(8) . . .
193(8) . . .
196(7) . . .
185(7) . . .
208(8) . . .
190(7) . . .
202(8) . . .
208(7) . . .
193(7) . . .
184(7) . . .
197(8) . . .
189(7) . . .
185(7) . . .
178(7) . . .
194(8) . . .
187(7) . . .
200(7) . . .
196(7) . . .
207(8) . . .
178(7) . . .
193(8) . . .
203(8) . . .
202(7) . . .
219(8) . . .
201(8) . . .
195(8) . . .
197(7) . . .
202(7) . . .
214(8) . . .
191(8) . . .
181(7) . . .
191(7) . . .
207(7) . . .
182(7) . . .
207(8) . . .
202(8) . . .
198(7) . . .
200(7) . . .
186(7) . . .
195(8) . . .
189(7) . . .
177(7) . . .
199(7) . . .
193(7) . . .
198(8) . . .
194(8) . . .
188(7) . . .
192(7) . . .
210(8) . . .
189(8) . . .
195(8) . . .
193(7) . . .
195(7) . . .
206(8) . . .
184(7) . . .
212(8) . . .
191(7) . . .
189(7) . . .
186(7) . . .
191(7) . . .
202(8) . . .
176(7) . . .
179(7) . . .
186(7) . . .
186(7) . . .
199(7) . . .
174(7) . . .
194(7) . . .
196(8) . . .
182(7) . . .
193(7) . . .
196(7) . . .
198(7) . . .
186(7) . . .
199(8) . . .
206(8) . . .
200(7) . . .
190(7) . . .
168(7) . . .
187(7) . . .
203(7) . . .
198(7) . . .
219(8) . . .
203(8) . . .
200(7) . . .
196(7) . . .
184(7) . . .
186(7) . . .
191(8) . . .
205(8) . . .
188(7) . . .
183(7) . . .
191(7) . . .
197(8) . . .
190(7) . . .
204(7) . . .
197(7) . . .
206(8) . . .
199(8) . . .
196(7) . . .
200(7) . . .
203(8) . . .
181(7) . . .
185(7) . . .
196(7) . . .
197(7) . . .
193(7) . . .
197(8) . . .
197(8) . . .
179(7) . . .
200(7) . . .
193(8) . . .
194(8) . . .
205(8) . . .
183(7) . . .
198(7) . . .
193(7) . . .
198(8) . . .
202(8) . . .
201(7) . . .
194(7) . . .
189(7) . . .
196(8) . . .
182(7) . . .
188(7) . . .
189(7) . . .
212(8) . . .
204(8) . . .
192(7) . . .
204(8) . . .
199(7) . . .
188(7) . . .
188(7) . . .
213(8) . . .
202(7) . . .
193(7) . . .
188(7) . . .
205(8) . . .
179(7) . . .
190(7) . . .
170(7) . . .
178(7) . . .
195(8) . . .
199(8) . . .
209(7) . . .
198(7) . . .
192(7) . . .
184(7) . . .
209(8) . . .
205(7) . . .
200(7) . . .
179(7) . . .
204(8) . . .
178(7) . . .
188(7) . . .
201(7) . . .
199(8) . . .
207(8) . . .
193(7) . . .
188(7) . . .
175(7) . . .
189(8) . . .
185(7) . . .
204(8) . . .
185(7) . . .
204(8) . . .
194(7) . . .
179(7) . . .
173(7) . . .
210(7) . . .
185(7) . . .
178(7) . . .
206(8) . . .
214(8) . . .
196(7) . . .
195(8) . . .
182(7) . . .
195(8) . . .
188(7) . . .
182(7) . . .
194(7) . . .
199(8) . . .
194(7) . . .
204(7) . . .
185(7) . . .
190(7) . . .
208(8) . . .
182(7) . . .
188(7) . . .
214(8) . . .
198(8) . . .
182(7) . . .
200(8) . . .
205(7) . . .
232(8) . . .
191(7) . . .
200(8) . . .
187(7) . . .
200(7) . . .
196(7) . . .
194(7) . . .
199(8) . . .
213(8) . . .
180(7) . . .
209(8) . . .
187(7) . . .
192(8) . . .
189(7) . . .
190(7) . . .
194(7) . . .
187(7) . . .
205(8) . . .
209(8) . . .
196(7) . . .
198(8) . . .
205(8) . . .
173(7) . . .
185(7) . . .
206(7) . . .
181(7) . . .
177(7) . . .
198(8) . . .
184(7) . . .
184(7) . . .
215(8) . . .
178(7) . . .
192(7) . . .
204(7) . . .
190(7) . . .
184(7) . . .
195(8) . . .
186(7) . . .
191(7) . . .
194(7) . . .
186(7) . . .
184(8) . . .
200(8) . . .
204(7) . . .
186(7) . . .
194(7) . . .
196(8) . . .
206(8) . . .
214(8) . . .
193(7) . . .
199(8) . . .
204(8) . . .
197(8) . . .
205(7) . . .
204(8) . . .
212(8) . . .
214(8) . . .
190(7) . . .
189(7) . . .
190(7) . . .
181(7) . . .
182(7) . . .
208(8) . . .
208(8) . . .
206(7) . . .
210(8) . . .
213(8) . . .
209(8) . . .
205(7) . . .
199(8) . . .
204(8) . . .
228(8) . . .
228(8) . . .
214(8) . . .
203(8) . . .
217(8) . . .
190(7) . . .
195(7) . . .
193(7) . . .
204(8) . . .
195(8) . . .
194(8) . . .
187(7) . . .
201(7) . . .
186(7) . . .
194(8) . . .
193(7) . . .
200(8) . . .
203(7) . . .
188(7) . . .
200(8) . . .
182(7) . . .
172(7) . . .
184(7) . . .
187(7) . . .
201(8) . . .
173(7) . . .
191(7) . . .
182(7) . . .
190(7) . . .
209(8) . . .
192(7) . . .
198(7) . . .
202(7) . . .
204(8) . . .
235(9) . . .
207(8) . . .
178(7) . . .
185(7) . . .
189(7) . . .
192(8) . . .
193(7) . . .
188(7) . . .
213(8) . . .
193(7) . . .
185(7) . . .
200(8) . . .
190(7) . . .
188(7) . . .
197(8) . . .
191(8) . . .
200(8) . . .
202(7) . . .
218(8) . . .
173(7) . . .
181(7) . . .
179(7) . . .
195(7) . . .
182(7) . . .
203(8) . . .
174(7) . . .
203(7) . . .
175(7) . . .
202(8) . . .
187(8) . . .
191(8) . . .
193(7) . . .
184(7) . . .
186(7) . . .
198(8) . . .
182(7) . . .
184(7) . . .
198(7) . . .
204(8) . . .
182(8) . . .
184(7) . . .
195(7) . . .
200(7) . . .
193(7) . . .
189(8) . . .
192(7) . . .
178(7) . . .
218(8) . . .
199(8) . . .
204(8) . . .
187(7) . . .
209(8) . . .
193(7) . . .
178(7) . . .
200(8) . . .
187(7) . . .
198(7) . . .
202(7) . . .
194(7) . . .
195(8) . . .
188(7) . . .
183(7) . . .
184(7) . . .
191(7) . . .
197(8) . . .
171(7) . . .
172(7) . . .
180(7) . . .
179(7) . . .
194(8) . . .
170(7) . . .
192(7) . . .
203(8) . . .
190(8) . . .
200(8) . . .
193(7) . . .
193(7) . . .
191(7) . . .
204(8) . . .
190(7) . . .
182(7) . . .
189(7) . . .
204(8) . . .
181(8) . . .
188(7) . . .
228(8) . . .
188(7) . . .
190(8) . . .
186(8) . . .
175(7) . . .
208(7) . . .
195(7) . . .
198(8) . . .
177(7) . . .
185(7) . . .
161(7) . . .
195(7) . . .
178(7) . . .
184(7) . . .
194(7) . . .
193(7) . . .
207(7) . . .
198(8) . . .
192(8) . . .
192(7) . . .
203(7) . . .
183(7) . . .
191(8) . . .
199(8) . . .
200(8) . . .
195(7) . . .
189(7) . . .
182(7) . . .
176(7) . . .
190(7) . . .
197(7) . . .
189(7) . . .
198(8) . . .
196(7) . . .
195(7) . . .
218(8) . . .
189(7) . . .
188(8) . . .
198(8) . . .
203(8) . . .
207(7) . . .
199(8) . . .
205(8) . . .
214(8) . . .
190(7) . . .
203(7) . . .
178(7) . . .
218(8) . . .
201(7) . . .
193(7) . . .
195(7) . . .
202(8) . . .
210(8) . . .
199(8) . . .
197(7) . . .
204(7) . . .
197(8) . . .
181(8) . . .
190(8) . . .
168(7) . . .
205(8) . . .
205(8) . . .
202(8) . . .
205(8) . . .
211(8) . . .
190(7) . . .
207(8) . . .
195(8) . . .
202(8) . . .
203(7) . . .
199(7) . . .
182(7) . . .
166(7) . . .
195(7) . . .
204(7) . . .
201(7) . . .
205(8) . . .
187(8) . . .
188(7) . . .
168(7) . . .
188(7) . . .
223(8) . . .
219(8) . . .
199(7) . . .
193(7) . . .
218(8) . . .
212(8) . . .
211(8) . . .
217(8) . . .
214(8) . . .
205(8) . . .
200(8) . . .
204(8) . . .
206(8) . . .
211(8) . . .
206(8) . . .
214(8) . . .
208(8) . . .
206(7) . . .
210(8) . . .
207(8) . . .
199(8) . . .
192(7) . . .
207(8) . . .
208(7) . . .
185(7) . . .
186(8) . . .
185(7) . . .
208(7) . . .
217(8) . . .
214(8) . . .
194(8) . . .
198(7) . . .
201(7) . . .
181(7) . . .
201(8) . . .
183(7) . . .
195(7) . . .
197(7) . . .
193(7) . . .
197(8) . . .
213(8) . . .
198(8) . . .
177(7) . . .
201(7) . . .
192(7) . . .
178(7) . . .
197(8) . . .
187(7) . . .
190(7) . . .
194(7) . . .
196(7) . . .
186(7) . . .
187(7) . . .
190(7) . . .
175(7) . . .
201(8) . . .
195(7) . . .
192(7) . . .
195(7) . . .
188(7) . . .
199(8) . . .
205(8) . . .
192(7) . . .
181(7) . . .
190(8) . . .
194(8) . . .
191(7) . . .
181(7) . . .
180(7) . . .
190(8) . . .
202(8) . . .
194(7) . . .
193(7) . . .
199(8) . . .
204(8) . . .
200(8) . . .
177(7) . . .
181(7) . . .
187(7) . . .
197(8) . . .
189(7) . . .
175(7) . . .
189(7) . . .
199(8) . . .
180(7) . . .
190(8) . . .
198(7) . . .
206(8) . . .
184(7) . . .
183(8) . . .
205(8) . . .
204(7) . . .
190(7) . . .
200(8) . . .
188(7) . . .
173(7) . . .
180(7) . . .
195(7) . . .
196(7) . . .
204(8) . . .
195(8) . . .
192(7) . . .
182(7) . . .
197(8) . . .
201(8) . . .
181(7) . . .
208(8) . . .
195(8) . . .
179(7) . . .
182(7) . . .
196(7) . . .
186(7) . . .
196(8) . . .
183(8) . . .
180(7) . . .
166(7) . . .
189(7) . . .
185(7) . . .
184(7) . . .
183(7) . . .
177(7) . . .
185(7) . . .
189(8) . . .
177(8) . . .
180(7) . . .
198(7) . . .
189(7) . . .
186(7) . . .
203(8) . . .
173(7) . . .
191(7) . . .
190(7) . . .
191(7) . . .
189(8) . . .
185(7) . . .
187(7) . . .
193(7) . . .
175(7) . . .
190(8) . . .
176(7) . . .
179(7) . . .
181(7) . . .
178(7) . . .
185(7) . . .
202(8) . . .
181(7) . . .
168(7) . . .
194(8) . . .
186(8) . . .
185(7) . . .
161(7) . . .
185(7) . . .
181(7) . . .
178(7) . . .
175(7) . . .
171(7) . . .
180(7) . . .
179(7) . . .
197(8) . . .
172(7) . . .
200(7) . . .
187(7) . . .
197(8) . . .
176(7) . . .
175(7) . . .
183(7) . . .
198(8) . . .
182(7) . . .
197(8) . . .
186(7) . . .
169(7) . . .
193(7) . . .
212(8) . . .
199(7) . . .
200(7) . . .
183(7) . . .
199(8) . . .
184(7) . . .
185(7) . . .
178(7) . . .
217(8) . . .
204(8) . . .
191(8) . . .
204(8) . . .
181(7) . . .
185(7) . . .
187(7) . . .
186(7) . . .
211(8) . . .
183(7) . . .
176(7) . . .
187(7) . . .
197(8) . . .
182(7) . . .
199(7) . . .
187(7) . . .
196(8) . . .
189(7) . . .
211(8) . . .
194(7) . . .
193(7) . . .
222(8) . . .
219(8) . . .
180(7) . . .
185(7) . . .
193(7) . . .
191(8) . . .
186(8) . . .
171(7) . . .
189(7) . . .
208(8) . . .
196(8) . . .
205(8) . . .
200(8) . . .
178(7) . . .
177(7) . . .
186(8) . . .
188(7) . . .
197(7) . . .
186(7) . . .
168(7) . . .
174(8) . . .
176(7) . . .
185(7) . . .
197(7) . . .
198(8) . . .
176(7) . . .
185(7) . . .
173(7) . . .
228(8) . . .
199(8) . . .
193(8) . . .
203(8) . . .
181(7) . . .
199(7) . . .
200(8) . . .
174(7) . . .
190(7) . . .
202(7) . . .
193(7) . . .
192(7) . . .
188(7) . . .
185(7) . . .
183(7) . . .
184(7) . . .
185(7) . . .
176(7) . . .
193(7) . . .
173(7) . . .
179(7) . . .
198(8) . . .
192(7) . . .
195(7) . . .
176(7) . . .
184(7) . . .
186(7) . . .
191(8) . . .
181(7) . . .
180(7) . . .
180(7) . . .
179(7) . . .
182(7) . . .
175(7) . . .
193(7) . . .
185(7) . . .
195(8) . . .
172(7) . . .
160(7) . . .
184(7) . . .
205(8) . . .
166(7) . . .
179(7) . . .
181(7) . . .
147(6) . . .
190(8) . . .
174(7) . . .
189(7) . . .
167(7) . . .
197(7) . . .
194(7) . . .
175(7) . . .
178(7) . . .
184(7) . . .
169(7) . . .
177(7) . . .
180(7) . . .
177(7) . . .
185(7) . . .
190(7) . . .
193(7) . . .
193(8) . . .
185(7) . . .
187(7) . . .
204(8) . . .
183(7) . . .
186(7) . . .
188(7) . . .
163(7) . . .
192(7) . . .
186(7) . . .
189(7) . . .
180(7) . . .
171(7) . . .
176(7) . . .
182(8) . . .
168(7) . . .
183(7) . . .
186(7) . . .
173(7) . . .
188(7) . . .
199(8) . . .
188(7) . . .
191(7) . . .
184(7) . . .
189(8) . . .
190(8) . . .
173(7) . . .
204(7) . . .
195(7) . . .
205(8) . . .
215(8) . . .
196(7) . . .
222(8) . . .
185(7) . . .
203(8) . . .
172(7) . . .
181(7) . . .
185(7) . . .
183(7) . . .
175(7) . . .
184(7) . . .
176(7) . . .
188(7) . . .
187(7) . . .
179(7) . . .
195(7) . . .
201(7) . . .
189(7) . . .
169(7) . . .
194(8) . . .
188(7) . . .
171(7) . . .
189(7) . . .
192(7) . . .
192(7) . . .
203(8) . . .
195(7) . . .
189(7) . . .
201(8) . . .
178(7) . . .
180(7) . . .
168(7) . . .
176(7) . . .
185(7) . . .
190(7) . . .
167(7) . . .
172(7) . . .
199(7) . . .
189(7) . . .
175(7) . . .
183(7) . . .
177(7) . . .
190(7) . . .
181(7) . . .
161(7) . . .
192(7) . . .
202(7) . . .
191(7) . . .
177(7) . . .
193(7) . . .
165(7) . . .
184(7) . . .
186(7) . . .
181(7) . . .
177(7) . . .
175(7) . . .
172(7) . . .
187(7) . . .
194(8) . . .
184(7) . . .
186(7) . . .
204(7) . . .
187(7) . . .
197(8) . . .
183(7) . . .
170(7) . . .
178(7) . . .
190(7) . . .
183(7) . . .
185(7) . . .
175(7) . . .
187(7) . . .
202(8) . . .
185(7) . . .
175(7) . . .
181(7) . . .
164(7) . . .
184(7) . . .
181(7) . . .
198(8) . . .
207(7) . . .
195(7) . . .
168(7) . . .
164(7) . . .
188(7) . . .
186(7) . . .
178(7) . . .
180(7) . . .
187(7) . . .
205(8) . . .
206(7) . . .
218(8) . . .
232(8) . . .
192(7) . . .
181(7) . . .
184(7) . . .
203(8) . . .
180(7) . . .
197(8) . . .
201(7) . . .
189(7) . . .
185(7) . . .
185(7) . . .
174(7) . . .
169(7) . . .
171(7) . . .
205(8) . . .
199(8) . . .
190(7) . . .
188(7) . . .
198(7) . . .
188(7) . . .
180(7) . . .
185(7) . . .
197(7) . . .
194(7) . . .
199(8) . . .
183(7) . . .
178(7) . . .
173(7) . . .
185(7) . . .
183(7) . . .
192(8) . . .
172(7) . . .
192(7) . . .
194(7) . . .
195(8) . . .
193(8) . . .
189(7) . . .
180(7) . . .
179(7) . . .
183(7) . . .
170(7) . . .
178(7) . . .
191(7) . . .
185(7) . . .
174(7) . . .
193(8) . . .
179(7) . . .
187(7) . . .
173(7) . . .
161(7) . . .
194(8) . . .
197(7) . . .
190(7) . . .
191(7) . . .
176(7) . . .
201(8) . . .
171(7) . . .
195(7) . . .
179(7) . . .
188(7) . . .
197(8) . . .
184(7) . . .
185(7) . . .
184(7) . . .
180(7) . . .
189(7) . . .
220(8) . . .
189(7) . . .
181(7) . . .
186(8) . . .
186(7) . . .
213(8) . . .
194(7) . . .
201(8) . . .
206(8) . . .
213(8) . . .
193(7) . . .
182(7) . . .
175(7) . . .
190(8) . . .
216(8) . . .
183(7) . . .
195(7) . . .
180(7) . . .
170(7) . . .
190(7) . . .
185(7) . . .
183(7) . . .
191(8) . . .
175(7) . . .
169(7) . . .
191(7) . . .
171(7) . . .
196(8) . . .
184(7) . . .
181(7) . . .
172(7) . . .
183(7) . . .
189(7) . . .
180(7) . . .
187(7) . . .
176(7) . . .
182(7) . . .
183(7) . . .
195(8) . . .
198(7) . . .
188(7) . . .
180(7) . . .
175(8) . . .
185(7) . . .
183(7) . . .
188(7) . . .
177(7) . . .
177(7) . . .
196(7) . . .
179(7) . . .
185(7) . . .
168(7) . . .
177(8) . . .
194(8) . . .
174(7) . . .
171(7) . . .
190(8) . . .
194(8) . . .
195(8) . . .
198(7) . . .
199(7) . . .
178(7) . . .
201(8) . . .
194(7) . . .
206(7) . . .
188(7) . . .
193(8) . . .
190(7) . . .
198(8) . . .
198(7) . . .
188(7) . . .
203(8) . . .
187(7) . . .
190(7) . . .
208(7) . . .
200(8) . . .
184(7) . . .
187(7) . . .
203(7) . . .
197(7) . . .
190(7) . . .
201(8) . . .
206(8) . . .
183(7) . . .
204(7) . . .
183(7) . . .
168(7) . . .
175(7) . . .
191(7) . . .
200(7) . . .
197(8) . . .
188(7) . . .
193(8) . . .
192(7) . . .
172(7) . . .
203(8) . . .
199(8) . . .
211(8) . . .
196(7) . . .
175(7) . . .
196(7) . . .
209(8) . . .
198(8) . . .
200(7) . . .
199(7) . . .
192(7) . . .
194(8) . . .
183(7) . . .
185(7) . . .
186(7) . . .
202(8) . . .
186(8) . . .
179(7) . . .
187(7) . . .
198(7) . . .
188(7) . . .
182(7) . . .
165(7) . . .
191(7) . . .
176(7) . . .
179(7) . . .
171(7) . . .
157(7) . . .
163(7) . . .
182(7) . . .
190(7) . . .
188(7) . . .
181(7) . . .
193(7) . . .
170(7) . . .
180(7) . . .
185(7) . . .
177(7) . . .
190(7) . . .
185(7) . . .
182(8) . . .
184(7) . . .
179(7) . . .
158(7) . . .
168(7) . . .
183(7) . . .
197(8) . . .
179(7) . . .
183(7) . . .
191(7) . . .
169(7) . . .
193(8) . . .
204(8) . . .
185(7) . . .
183(7) . . .
185(8) . . .
187(7) . . .
189(7) . . .
198(7) . . .
189(7) . . .
190(8) . . .
183(7) . . .
184(7) . . .
193(7) . . .
180(7) . . .
171(7) . . .
181(7) . . .
169(7) . . .
182(7) . . .
174(7) . . .
181(7) . . .
171(7) . . .
186(7) . . .
172(7) . . .
167(7) . . .
186(7) . . .
188(7) . . .
191(7) . . .
198(7) . . .
188(7) . . .
188(8) . . .
173(7) . . .
178(7) . . .
178(7) . . .
201(8) . . .
203(8) . . .
193(7) . . .
180(7) . . .
197(7) . . .
193(8) . . .
177(7) . . .
190(7) . . .
201(7) . . .
189(7) . . .
193(8) . . .
182(7) . . .
163(7) . . .
199(7) . . .
191(8) . . .
180(7) . . .
194(7) . . .
186(7) . . .
172(7) . . .
172(7) . . .
191(8) . . .
189(7) . . .
173(7) . . .
186(7) . . .
189(7) . . .
187(8) . . .
179(7) . . .
191(7) . . .
198(7) . . .
168(7) . . .
197(8) . . .
153(7) . . .
187(7) . . .
167(7) . . .
175(7) . . .
183(7) . . .
191(7) . . .
193(7) . . .
186(7) . . .
178(7) . . .
177(7) . . .
171(7) . . .
184(7) . . .
177(7) . . .
192(7) . . .
188(7) . . .
179(7) . . .
175(7) . . .
168(7) . . .
198(8) . . .
171(7) . . .
194(7) . . .
174(7) . . .
174(7) . . .
187(8) . . .
161(7) . . .
172(7) . . .
175(7) . . .
184(7) . . .
191(7) . . .
181(7) . . .
167(7) . . .
169(7) . . .
166(7) . . .
174(7) . . .
191(7) . . .
192(7) . . .
190(7) . . .
174(7) . . .
179(7) . . .
187(7) . . .
193(7) . . .
184(7) . . .
180(7) . . .
194(8) . . .
177(7) . . .
174(7) . . .
186(7) . . .
181(7) . . .
170(7) . . .
177(7) . . .
191(7) . . .
173(7) . . .
170(7) . . .
180(7) . . .
167(7) . . .
179(7) . . .
192(7) . . .
197(8) . . .
174(7) . . .
191(8) . . .
196(7) . . .
178(7) . . .
182(7) . . .
183(7) . . .
194(7) . . .
205(7) . . .
165(7) . . .
182(7) . . .
179(7) . . .
192(7) . . .
184(7) . . .
173(7) . . .
177(7) . . .
172(7) . . .
183(7) . . .
181(7) . . .
187(7) . . .
180(7) . . .
185(7) . . .
195(7) . . .
184(7) . . .
182(7) . . .
174(7) . . .
174(7) . . .
188(7) . . .
176(7) . . .
180(7) . . .
171(7) . . .
198(8) . . .
166(7) . . .
159(7) . . .
195(8) . . .
185(7) . . .
210(8) . . .
185(7) . . .
182(7) . . .
172(7) . . .
177(7) . . .
171(7) . . .
171(7) . . .
201(7) . . .
170(7) . . .
189(8) . . .
173(7) . . .
175(7) . . .
170(7) . . .
189(7) . . .
175(7) . . .
206(8) . . .
186(7) . . .
189(7) . . .
191(8) . . .
197(8) . . .
183(7) . . .
191(7) . . .
196(8) . . .
187(7) . . .
174(7) . . .
174(7) . . .
182(7) . . .
197(8) . . .
186(8) . . .
169(7) . . .
176(7) . . .
201(7) . . .
180(7) . . .
184(7) . . .
208(8) . . .
182(7) . . .
176(7) . . .
188(7) . . .
184(7) . . .
175(7) . . .
182(7) . . .
184(7) . . .
181(7) . . .
186(8) . . .
199(8) . . .
186(7) . . .
172(7) . . .
188(7) . . .
177(7) . . .
176(7) . . .
205(7) . . .
203(7) . . .
197(7) . . .
189(7) . . .
197(8) . . .
179(7) . . .
190(7) . . .
181(7) . . .
184(8) . . .
182(7) . . .
185(7) . . .
182(7) . . .
203(8) . . .
192(8) . . .
180(7) . . .
173(7) . . .
178(7) . . .
161(7) . . .
168(7) . . .
182(7) . . .
163(7) . . .
167(7) . . .
159(7) . . .
181(7) . . .
174(7) . . .
160(7) . . .
183(7) . . .
173(7) . . .
170(7) . . .
177(7) . . .
165(7) . . .
194(8) . . .
159(7) . . .
170(7) . . .
163(7) . . .
171(7) . . .
167(7) . . .
175(7) . . .
170(7) . . .
184(7) . . .
187(7) . . .
192(7) . . .
160(7) . . .
179(7) . . .
179(7) . . .
179(7) . . .
164(7) . . .
177(7) . . .
167(7) . . .
162(7) . . .
176(7) . . .
160(7) . . .
174(7) . . .
173(7) . . .
170(7) . . .
162(7) . . .
185(7) . . .
164(7) . . .
169(7) . . .
171(7) . . .
189(7) . . .
181(7) . . .
186(8) . . .
177(7) . . .
160(7) . . .
161(7) . . .
164(7) . . .
164(7) . . .
184(7) . . .
181(7) . . .
176(7) . . .
148(6) . . .
161(7) . . .
179(7) . . .
165(7) . . .
178(7) . . .
205(8) . . .
185(7) . . .
164(7) . . .
178(7) . . .
178(7) . . .
170(7) . . .
173(7) . . .
163(7) . . .
180(7) . . .
179(7) . . .
167(7) . . .
168(7) . . .
164(7) . . .
164(7) . . .
159(7) . . .
184(7) . . .
163(7) . . .
185(7) . . .
167(7) . . .
175(7) . . .
164(7) . . .
183(7) . . .
180(7) . . .
173(7) . . .
171(7) . . .
166(7) . . .
170(7) . . .
164(7) . . .
181(7) . . .
189(7) . . .
180(7) . . .
167(7) . . .
186(7) . . .
164(7) . . .
174(7) . . .
138(6) . . .
166(7) . . .
161(7) . . .
174(7) . . .
171(7) . . .
173(7) . . .
174(7) . . .
198(7) . . .
166(7) . . .
177(7) . . .
185(7) . . .
167(7) . . .
163(7) . . .
164(7) . . .
176(7) . . .
176(7) . . .
152(6) . . .
155(6) . . .
181(7) . . .
172(7) . . .
159(7) . . .
167(7) . . .
175(7) . . .
173(7) . . .
162(7) . . .
166(7) . . .
158(7) . . .
155(6) . . .
156(7) . . .
163(7) . . .
155(7) . . .
156(7) . . .
180(7) . . .
162(7) . . .
167(7) . . .
178(7) . . .
152(6) . . .
151(6) . . .
158(7) . . .
180(7) . . .
180(7) . . .
165(7) . . .
169(7) . . .
186(7) . . .
150(7) . . .
170(7) . . .
168(7) . . .
169(7) . . .
171(7) . . .
159(7) . . .
175(7) . . .
177(7) . . .
162(7) . . .
172(7) . . .
168(7) . . .
178(7) . . .
157(7) . . .
179(7) . . .
166(7) . . .
170(7) . . .
162(7) . . .
156(7) . . .
161(7) . . .
180(7) . . .
175(7) . . .
165(7) . . .
177(7) . . .
165(7) . . .
158(7) . . .
176(7) . . .
173(7) . . .
171(7) . . .
186(7) . . .
180(7) . . .
157(7) . . .
154(6) . . .
143(6) . . .
159(7) . . .
178(7) . . .
182(7) . . .
177(7) . . .
155(6) . . .
176(7) . . .
164(7) . . .
178(7) . . .
173(7) . . .
183(7) . . .
162(7) . . .
156(7) . . .
167(7) . . .
159(7) . . .
181(7) . . .
170(7) . . .
182(7) . . .
164(7) . . .
162(7) . . .
173(7) . . .
185(7) . . .
186(7) . . .
153(7) . . .
172(7) . . .
174(7) . . .
157(7) . . .
188(8) . . .
158(7) . . .
167(7) . . .
182(7) . . .
176(7) . . .
182(7) . . .
174(7) . . .
161(7) . . .
172(7) . . .
168(7) . . .
162(7) . . .
155(6) . . .
179(7) . . .
188(7) . . .
184(7) . . .
166(7) . . .
154(7) . . .
166(7) . . .
176(7) . . .
168(7) . . .
176(7) . . .
173(7) . . .
182(7) . . .
159(7) . . .
161(7) . . .
189(7) . . .
163(7) . . .
168(7) . . .
175(7) . . .
175(7) . . .
166(7) . . .
169(7) . . .
180(7) . . .
171(7) . . .
153(7) . . .
175(7) . . .
169(7) . . .
185(7) . . .
177(7) . . .
186(8) . . .
169(7) . . .
187(7) . . .
167(7) . . .
148(7) . . .
167(7) . . .
169(7) . . .
173(7) . . .
173(7) . . .
170(7) . . .
167(7) . . .
154(7) . . .
175(7) . . .
184(7) . . .
158(6) . . .
189(8) . . .
162(7) . . .
172(7) . . .
156(7) . . .
172(7) . . .
167(7) . . .
167(7) . . .
166(7) . . .
167(7) . . .
174(7) . . .
160(7) . . .
167(7) . . .
182(7) . . .
173(7) . . .
185(7) . . .
179(7) . . .
152(6) . . .
166(7) . . .
145(6) . . .
194(8) . . .
175(7) . . .
179(7) . . .
173(7) . . .
168(7) . . .
163(7) . . .
166(7) . . .
167(7) . . .
182(7) . . .
180(7) . . .
171(7) . . .
174(7) . . .
170(7) . . .
176(7) . . .
173(7) . . .
180(7) . . .
182(7) . . .
166(7) . . .
172(7) . . .
174(7) . . .
185(8) . . .
172(7) . . .
180(7) . . .
180(7) . . .
184(7) . . .
186(8) . . .
164(7) . . .
155(6) . . .
164(7) . . .
166(7) . . .
157(7) . . .
181(7) . . .
165(7) . . .
167(7) . . .
179(7) . . .
195(8) . . .
172(7) . . .
168(7) . . .
174(7) . . .
199(8) . . .
179(7) . . .
173(7) . . .
171(7) . . .
160(7) . . .
177(7) . . .
154(7) . . .
168(7) . . .
179(7) . . .
175(7) . . .
188(8) . . .
165(7) . . .
178(7) . . .
179(7) . . .
173(7) . . .
165(7) . . .
191(8) . . .
158(7) . . .
172(7) . . .
185(7) . . .
176(7) . . .
181(7) . . .
181(7) . . .
196(7) . . .
198(7) . . .
169(7) . . .
167(7) . . .
179(7) . . .
162(7) . . .
166(7) . . .
176(7) . . .
182(7) . . .
162(7) . . .
189(7) . . .
172(7) . . .
178(7) . . .
180(7) . . .
172(7) . . .
185(7) . . .
160(7) . . .
174(7) . . .
168(7) . . .
162(7) . . .
181(7) . . .
182(7) . . .
171(7) . . .
173(7) . . .
197(7) . . .
179(7) . . .
174(7) . . .
171(7) . . .
187(7) . . .
187(7) . . .
190(7) . . .
176(7) . . .
189(8) . . .
170(7) . . .
171(7) . . .
172(7) . . .
181(7) . . .
183(7) . . .
183(7) . . .
178(7) . . .
168(7) . . .
169(7) . . .
186(8) . . .
198(7) . . .
174(7) . . .
189(7) . . .
177(7) . . .
167(7) . . .
166(7) . . .
184(7) . . .
180(7) . . .
171(7) . . .
155(7) . . .
184(7) . . .
166(7) . . .
168(7) . . .
184(8) . . .
161(7) . . .
163(7) . . .
179(7) . . .
160(7) . . .
165(7) . . .
178(7) . . .
183(7) . . .
175(7) . . .
163(7) . . .
158(7) . . .
170(7) . . .
161(7) . . .
173(7) . . .
169(7) . . .
183(8) . . .
163(7) . . .
153(6) . . .
163(7) . . .
168(7) . . .
166(7) . . .
192(8) . . .
157(7) . . .
164(7) . . .
173(7) . . .
174(7) . . .
180(7) . . .
164(7) . . .
178(7) . . .
154(6) . . .
174(7) . . .
174(7) . . .
154(6) . . .
165(7) . . .
157(7) . . .
162(7) . . .
174(7) . . .
175(7) . . .
179(7) . . .
169(7) . . .
183(7) . . .
186(7) . . .
174(7) . . .
146(6) . . .
161(7) . . .
160(7) . . .
167(7) . . .
165(7) . . .
157(7) . . .
168(7) . . .
174(7) . . .
155(6) . . .
164(7) . . .
165(7) . . .
169(7) . . .
161(7) . . .
166(7) . . .
175(7) . . .
160(7) . . .
163(7) . . .
163(7) . . .
163(7) . . .
151(6) . . .
165(7) . . .
182(7) . . .
168(7) . . .
159(7) . . .
165(7) . . .
160(7) . . .
163(7) . . .
150(7) . . .
167(7) . . .
170(7) . . .
171(7) . . .
174(7) . . .
159(7) . . .
179(7) . . .
180(7) . . .
159(7) . . .
156(7) . . .
162(7) . . .
141(6) . . .
157(7) . . .
195(8) . . .
176(7) . . .
148(6) . . .
168(7) . . .
174(7) . . .
160(7) . . .
177(7) . . .
166(7) . . .
160(7) . . .
174(7) . . .
162(7) . . .
159(7) . . .
162(7) . . .
154(6) . . .
154(7) . . .
167(7) . . .
151(6) . . .
162(7) . . .
160(7) . . .
172(7) . . .
177(7) . . .
152(7) . . .
152(6) . . .
174(7) . . .
177(7) . . .
157(7) . . .
156(7) . . .
165(7) . . .
169(7) . . .
154(7) . . .
151(7) . . .
153(7) . . .
163(7) . . .
165(7) . . .
158(7) . . .
163(7) . . .
169(7) . . .
184(7) . . .
168(7) . . .
171(7) . . .
161(7) . . .
161(7) . . .
166(7) . . .
159(7) . . .
149(6) . . .
150(7) . . .
171(7) . . .
175(7) . . .
173(7) . . .
172(7) . . .
177(7) . . .
174(7) . . .
164(7) . . .
140(6) . . .
158(7) . . .
162(7) . . .
155(7) . . .
173(7) . . .
152(7) . . .
177(8) . . .
170(7) . . .
169(7) . . .
168(7) . . .
146(6) . . .
164(7) . . .
151(6) . . .
178(7) . . .
138(6) . . .
168(7) . . .
157(7) . . .
165(7) . . .
182(7) . . .
173(7) . . .
169(7) . . .
163(7) . . .
179(7) . . .
164(7) . . .
158(7) . . .
172(7) . . .
152(6) . . .
179(7) . . .
161(7) . . .
162(7) . . .
161(7) . . .
169(7) . . .
170(7) . . .
148(6) . . .
162(7) . . .
174(7) . . .
168(7) . . .
161(7) . . .
155(6) . . .
153(6) . . .
173(7) . . .
188(7) . . .
174(7) . . .
170(7) . . .
171(7) . . .
169(7) . . .
165(7) . . .
156(6) . . .
179(7) . . .
172(7) . . .
160(7) . . .
173(7) . . .
177(7) . . .
176(7) . . .
175(7) . . .
174(7) . . .
173(7) . . .
168(7) . . .
178(7) . . .
170(7) . . .
164(7) . . .
160(7) . . .
169(7) . . .
163(7) . . .
160(7) . . .
168(7) . . .
190(7) . . .
174(7) . . .
177(7) . . .
163(7) . . .
179(7) . . .
164(7) . . .
163(7) . . .
174(7) . . .
150(6) . . .
171(7) . . .
168(7) . . .
189(7) . . .
186(7) . . .
182(7) . . .
164(7) . . .
181(7) . . .
190(7) . . .
185(7) . . .
164(7) . . .
155(7) . . .
176(7) . . .
182(7) . . .
171(7) . . .
158(7) . . .
170(7) . . .
163(7) . . .
194(7) . . .
183(7) . . .
167(7) . . .
170(7) . . .
147(6) . . .
187(7) . . .
180(7) . . .
180(8) . . .
164(7) . . .
160(7) . . .
160(7) . . .
154(6) . . .
144(7) . . .
156(7) . . .
175(7) . . .
173(7) . . .
169(7) . . .
144(6) . . .
165(7) . . .
154(6) . . .
160(7) . . .
162(7) . . .
187(8) . . .
176(7) . . .
169(7) . . .
172(7) . . .
156(7) . . .
171(7) . . .
167(7) . . .
157(7) . . .
177(7) . . .
142(6) . . .
158(7) . . .
153(7) . . .
173(7) . . .
169(7) . . .
149(6) . . .
164(7) . . .
163(7) . . .
155(6) . . .
146(6) . . .
165(7) . . .
170(7) . . .
174(7) . . .
166(7) . . .
170(7) . . .
160(7) . . .
156(7) . . .
165(7) . . .
175(7) . . .
170(7) . . .
185(7) . . .
152(7) . . .
149(7) . . .
158(6) . . .
150(7) . . .
143(6) . . .
161(7) . . .
154(6) . . .
159(7) . . .
171(7) . . .
154(7) . . .
165(7) . . .
154(7) . . .
155(7) . . .
173(7) . . .
145(7) . . .
158(7) . . .
149(6) . . .
147(6) . . .
176(7) . . .
173(7) . . .
170(7) . . .
154(6) . . .
159(6) . . .
152(7) . . .
158(7) . . .
170(7) . . .
139(6) . . .
171(7) . . .
173(7) . . .
162(7) . . .
149(7) . . .
138(6) . . .
157(7) . . .
158(7) . . .
172(7) . . .
176(7) . . .
171(7) . . .
170(7) . . .
173(7) . . .
164(7) . . .
137(6) . . .
145(6) . . .
170(7) . . .
185(8) . . .
174(7) . . .
160(7) . . .
156(7) . . .
168(7) . . .
169(7) . . .
165(7) . . .
162(7) . . .
171(7) . . .
166(7) . . .
165(7) . . .
150(6) . . .
160(7) . . .
167(7) . . .
182(7) . . .
164(7) . . .
161(7) . . .
165(7) . . .
168(7) . . .
156(7) . . .
143(6) . . .
166(7) . . .
171(7) . . .
149(6) . . .
138(6) . . .
163(7) . . .
156(7) . . .
156(6) . . .
145(6) . . .
162(7) . . .
143(7) . . .
176(7) . . .
172(7) . . .
163(7) . . .
151(7) . . .
157(7) . . .
150(7) . . .
172(7) . . .
158(7) . . .
150(6) . . .
160(7) . . .
179(7) . . .
164(7) . . .
159(7) . . .
146(6) . . .
175(7) . . .
168(7) . . .
167(7) . . .
138(6) . . .
160(7) . . .
181(7) . . .
159(7) . . .
167(7) . . .
168(7) . . .
155(7) . . .
155(7) . . .
154(7) . . .
159(7) . . .
166(7) . . .
160(7) . . .
158(7) . . .
172(7) . . .
161(7) . . .
158(7) . . .
163(7) . . .
147(6) . . .
162(7) . . .
170(7) . . .
157(7) . . .
163(7) . . .
160(7) . . .
157(7) . . .
181(7) . . .
153(7) . . .
165(7) . . .
156(7) . . .
164(7) . . .
156(7) . . .
178(7) . . .
162(7) . . .
158(7) . . .
179(7) . . .
170(7) . . .
172(7) . . .
159(7) . . .
179(7) . . .
167(7) . . .
170(7) . . .
159(7) . . .
156(7) . . .
160(7) . . .
151(6) . . .
180(7) . . .
156(7) . . .
169(7) . . .
164(7) . . .
142(6) . . .
167(7) . . .
162(7) . . .
139(6) . . .
154(7) . . .
162(7) . . .
157(7) . . .
142(6) . . .
172(7) . . .
168(7) . . .
163(7) . . .
155(7) . . .
165(7) . . .
159(7) . . .
148(6) . . .
161(7) . . .
152(7) . . .
138(6) . . .
157(7) . . .
154(7) . . .
153(6) . . .
173(7) . . .
173(7) . . .
199(8) . . .
156(7) . . .
154(6) . . .
153(7) . . .
157(7) . . .
159(7) . . .
176(7) . . .
163(7) . . .
164(7) . . .
155(7) . . .
166(7) . . .
161(7) . . .
180(7) . . .
160(7) . . .
160(7) . . .
148(7) . . .
158(7) . . .
155(6) . . .
175(7) . . .
159(7) . . .
164(7) . . .
179(7) . . .
156(6) . . .
168(7) . . .
150(7) . . .
168(7) . . .
160(7) . . .
155(7) . . .
153(7) . . .
160(7) . . .
169(7) . . .
158(7) . . .
148(6) . . .
179(7) . . .
158(7) . . .
154(7) . . .
156(6) . . .
165(7) . . .
170(7) . . .
162(7) . . .
162(7) . . .
152(6) . . .
145(7) . . .
161(7) . . .
164(7) . . .
175(7) . . .
162(7) . . .
177(7) . . .
168(7) . . .
169(7) . . .
152(6) . . .
176(7) . . .
183(7) . . .
172(7) . . .
179(7) . . .
182(7) . . .
165(7) . . .
171(7) . . .
163(7) . . .
170(7) . . .
162(7) . . .
165(7) . . .
161(7) . . .
178(8) . . .
164(7) . . .
169(7) . . .
146(6) . . .
150(7) . . .
157(7) . . .
167(7) . . .
173(7) . . .
173(7) . . .
164(7) . . .
183(8) . . .
162(7) . . .
170(7) . . .
162(7) . . .
167(7) . . .
176(7) . . .
169(7) . . .
148(6) . . .
175(7) . . .
156(7) . . .
176(7) . . .
200(8) . . .
165(7) . . .
160(7) . . .
162(7) . . .
173(7) . . .
181(7) . . .
178(7) . . .
181(7) . . .
152(7) . . .
165(7) . . .
158(7) . . .
158(7) . . .
169(7) . . .
159(7) . . .
170(7) . . .
161(6) . . .
172(7) . . .
158(7) . . .
174(7) . . .
152(7) . . .
166(7) . . .
171(7) . . .
159(7) . . .
163(7) . . .
153(7) . . .
163(7) . . .
155(6) . . .
165(7) . . .
155(7) . . .
167(7) . . .
139(6) . . .
165(7) . . .
157(7) . . .
187(8) . . .
164(7) . . .
153(6) . . .
157(7) . . .
166(7) . . .
148(6) . . .
168(7) . . .
164(7) . . .
154(7) . . .
154(7) . . .
154(7) . . .
160(7) . . .
157(7) . . .
151(6) . . .
151(7) . . .
164(7) . . .
152(7) . . .
169(7) . . .
169(7) . . .
160(7) . . .
158(7) . . .
159(7) . . .
170(7) . . .
158(7) . . .
178(7) . . .
174(7) . . .
158(7) . . .
151(6) . . .
158(7) . . .
163(7) . . .
148(6) . . .
140(6) . . .
159(7) . . .
179(8) . . .
158(7) . . .
172(7) . . .
151(6) . . .
168(7) . . .
162(7) . . .
148(7) . . .
144(6) . . .
183(7) . . .
146(6) . . .
158(7) . . .
147(7) . . .
171(7) . . .
145(6) . . .
153(6) . . .
142(6) . . .
164(7) . . .
151(7) . . .
157(7) . . .
160(7) . . .
151(7) . . .
148(6) . . .
177(7) . . .
174(7) . . .
160(7) . . .
150(6) . . .
157(7) . . .
136(6) . . .
167(7) . . .
146(6) . . .
158(7) . . .
165(7) . . .
160(7) . . .
169(7) . . .
157(7) . . .
163(7) . . .
154(7) . . .
136(6) . . .
159(7) . . .
153(7) . . .
166(7) . . .
173(7) . . .
153(7) . . .
151(6) . . .
148(7) . . .
148(7) . . .
148(7) . . .
150(7) . . .
177(7) . . .
175(7) . . .
154(7) . . .
153(7) . . .
147(6) . . .
165(7) . . .
175(7) . . .
144(7) . . .
153(7) . . .
164(7) . . .
164(7) . . .
157(7) . . .
147(7) . . .
165(7) . . .
176(7) . . .
159(7) . . .
153(7) . . .
161(7) . . .
160(7) . . .
150(6) . . .
148(6) . . .
143(6) . . .
140(6) . . .
152(6) . . .
154(6) . . .
156(7) . . .
161(7) . . .
157(7) . . .
151(7) . . .
159(7) . . .
151(6) . . .
146(7) . . .
157(7) . . .
143(6) . . .
154(6) . . .
132(6) . . .
175(7) . . .
169(7) . . .
163(7) . . .
154(6) . . .
147(7) . . .
152(7) . . .
153(7) . . .
160(7) . . .
156(7) . . .
153(7) . . .
150(6) . . .
162(7) . . .
148(6) . . .
142(6) . . .
151(7) . . .
156(7) . . .
156(7) . . .
146(6) . . .
137(6) . . .
158(7) . . .
153(7) . . .
142(6) . . .
145(6) . . .
156(7) . . .
157(7) . . .
154(7) . . .
156(7) . . .
169(7) . . .
176(7) . . .
152(7) . . .
158(7) . . .
149(7) . . .
150(6) . . .
168(7) . . .
152(7) . . .
162(7) . . .
145(6) . . .
144(6) . . .
159(7) . . .
160(7) . . .
163(7) . . .
158(7) . . .
151(6) . . .
160(7) . . .
154(7) . . .
166(7) . . .
167(7) . . .
152(6) . . .
159(7) . . .
147(6) . . .
146(7) . . .
159(7) . . .
169(7) . . .
167(7) . . .
151(7) . . .
156(7) . . .
157(7) . . .
158(6) . . .
153(7) . . .
158(7) . . .
149(7) . . .
162(7) . . .
152(6) . . .
158(7) . . .
160(7) . . .
163(7) . . .
159(7) . . .
175(7) . . .
161(7) . . .
156(7) . . .
168(7) . . .
161(7) . . .
159(7) . . .
163(7) . . .
168(7) . . .
167(7) . . .
151(6) . . .
162(7) . . .
180(8) . . .
154(7) . . .
151(7) . . .
189(7) . . .
145(6) . . .
160(7) . . .
156(7) . . .
156(7) . . .
153(6) . . .
153(7) . . .
164(7) . . .
148(7) . . .
153(7) . . .
146(6) . . .
158(7) . . .
148(6) . . .
164(7) . . .
152(7) . . .
151(6) . . .
178(7) . . .
173(7) . . .
166(7) . . .
171(7) . . .
171(7) . . .
172(7) . . .
161(7) . . .
171(7) . . .
163(7) . . .
172(7) . . .
177(7) . . .
166(7) . . .
166(7) . . .
155(7) . . .
158(7) . . .
153(7) . . .
148(7) . . .
153(7) . . .
147(6) . . .
155(7) . . .
157(7) . . .
151(7) . . .
138(6) . . .
161(7) . . .
152(6) . . .
164(7) . . .
159(7) . . .
170(7) . . .
158(6) . . .
152(6) . . .
161(7) . . .
155(7) . . .
160(7) . . .
154(7) . . .
145(6) . . .
153(7) . . .
165(7) . . .
156(7) . . .
166(7) . . .
155(6) . . .
162(7) . . .
149(6) . . .
153(7) . . .
142(6) . . .
151(7) . . .
159(7) . . .
161(7) . . .
153(7) . . .
148(6) . . .
156(6) . . .
165(7) . . .
155(7) . . .
134(6) . . .
168(7) . . .
160(7) . . .
143(6) . . .
159(7) . . .
143(6) . . .
149(6) . . .
157(7) . . .
159(7) . . .
149(6) . . .
153(6) . . .
160(7) . . .
159(7) . . .
163(7) . . .
171(7) . . .
150(6) . . .
161(7) . . .
171(7) . . .
182(7) . . .
143(6) . . .
166(7) . . .
143(6) . . .
170(7) . . .
138(6) . . .
149(6) . . .
159(7) . . .
161(7) . . .
156(7) . . .
154(7) . . .
161(7) . . .
148(6) . . .
154(6) . . .
148(7) . . .
158(7) . . .
151(7) . . .
150(6) . . .
168(7) . . .
142(6) . . .
146(7) . . .
154(7) . . .
169(7) . . .
143(6) . . .
149(7) . . .
165(7) . . .
156(7) . . .
155(7) . . .
157(7) . . .
170(7) . . .
153(7) . . .
156(7) . . .
168(7) . . .
152(6) . . .
166(7) . . .
185(7) . . .
173(7) . . .
187(7) . . .
160(7) . . .
161(7) . . .
161(7) . . .
171(7) . . .
163(7) . . .
174(7) . . .
186(7) . . .
166(7) . . .
154(6) . . .
164(7) . . .
157(7) . . .
172(7) . . .
159(7) . . .
173(7) . . .
177(7) . . .
158(7) . . .
150(7) . . .
173(7) . . .
168(7) . . .
169(7) . . .
169(7) . . .
156(7) . . .
178(7) . . .
180(7) . . .
161(7) . . .
143(6) . . .
167(7) . . .
145(7) . . .
168(7) . . .
160(7) . . .
172(7) . . .
155(7) . . .
161(7) . . .
149(6) . . .
151(7) . . .
165(7) . . .
183(8) . . .
169(7) . . .
176(7) . . .
161(7) . . .
168(7) . . .
153(7) . . .
170(7) . . .
160(7) . . .
174(7) . . .
180(7) . . .
169(7) . . .
179(7) . . .
169(7) . . .
182(7) . . .
183(7) . . .
170(7) . . .
177(7) . . .
184(7) . . .
194(8) . . .
174(7) . . .
173(7) . . .
165(7) . . .
184(7) . . .
174(7) . . .
187(8) . . .
162(7) . . .
159(7) . . .
176(7) . . .
179(7) . . .
168(7) . . .
169(7) . . .
173(7) . . .
168(7) . . .
180(7) . . .
173(7) . . .
174(7) . . .
163(7) . . .
171(7) . . .
162(7) . . .
182(8) . . .
173(7) . . .
172(7) . . .
153(6) . . .
172(7) . . .
186(7) . . .
177(7) . . .
171(7) . . .
168(7) . . .
181(7) . . .
162(7) . . .
161(7) . . .
157(7) . . .
167(7) . . .
171(7) . . .
176(7) . . .
160(7) . . .
162(7) . . .
167(7) . . .
185(7) . . .
184(7) . . .
164(7) . . .
161(7) . . .
158(7) . . .
168(7) . . .
190(7) . . .
193(7) . . .
171(7) . . .
166(7) . . .
160(7) . . .
168(7) . . .
159(7) . . .
179(7) . . .
185(8) . . .
166(7) . . .
170(7) . . .
171(7) . . .
190(7) . . .
181(7) . . .
172(7) . . .
168(7) . . .
172(7) . . .
180(7) . . .
188(7) . . .
199(8) . . .
195(8) . . .
184(7) . . .
188(7) . . .
182(7) . . .
181(7) . . .
161(7) . . .
168(7) . . .
166(7) . . .
161(7) . . .
171(7) . . .
172(7) . . .
171(7) . . .
174(7) . . .
177(7) . . .
169(7) . . .
166(7) . . .
174(7) . . .
183(7) . . .
178(7) . . .
166(7) . . .
178(7) . . .
175(7) . . .
183(7) . . .
169(7) . . .
183(7) . . .
161(7) . . .
143(6) . . .
169(7) . . .
150(7) . . .
161(7) . . .
163(7) . . .
159(6) . . .
186(7) . . .
169(7) . . .
175(7) . . .
167(7) . . .
156(6) . . .
180(7) . . .
164(7) . . .
146(6) . . .
166(7) . . .
170(7) . . .
164(7) . . .
160(7) . . .
158(7) . . .
157(7) . . .
153(6) . . .
170(7) . . .
163(7) . . .
171(7) . . .
141(6) . . .
155(6) . . .
160(7) . . .
140(6) . . .
165(7) . . .
174(7) . . .
154(7) . . .
149(6) . . .
152(7) . . .
151(7) . . .
161(7) . . .
160(7) . . .
162(7) . . .
151(7) . . .
149(7) . . .
157(7) . . .
156(7) . . .
171(7) . . .
168(7) . . .
185(7) . . .
152(6) . . .
168(7) . . .
152(7) . . .
151(7) . . .
171(7) . . .
160(7) . . .
145(7) . . .
144(7) . . .
179(8) . . .
141(6) . . .
153(6) . . .
157(7) . . .
179(7) . . .
167(7) . . .
144(6) . . .
155(7) . . .
155(7) . . .
179(7) . . .
156(7) . . .
152(6) . . .
160(7) . . .
160(7) . . .
158(7) . . .
156(7) . . .
155(7) . . .
166(7) . . .
170(7) . . .
165(7) . . .
152(7) . . .
181(7) . . .
167(7) . . .
180(7) . . .
166(7) . . .
167(7) . . .
154(6) . . .
166(7) . . .
160(7) . . .
156(7) . . .
170(7) . . .
161(7) . . .
153(6) . . .
155(7) . . .
170(7) . . .
165(7) . . .
174(7) . . .
167(7) . . .
158(7) . . .
157(7) . . .
160(7) . . .
155(6) . . .
166(7) . . .
172(7) . . .
151(7) . . .
162(7) . . .
156(6) . . .
167(7) . . .
156(7) . . .
175(7) . . .
159(7) . . .
151(6) . . .
153(7) . . .
172(7) . . .
168(7) . . .
156(7) . . .
168(7) . . .
144(6) . . .
155(7) . . .
154(7) . . .
177(7) . . .
173(7) . . .
162(7) . . .
174(7) . . .
160(7) . . .
166(7) . . .
152(6) . . .
159(7) . . .
149(7) . . .
154(7) . . .
155(6) . . .
155(6) . . .
156(7) . . .
165(7) . . .
162(7) . . .
152(7) . . .
148(6) . . .
150(7) . . .
153(7) . . .
152(7) . . .
157(7) . . .
167(7) . . .
154(7) . . .
158(7) . . .
166(7) . . .
146(6) . . .
147(6) . . .
157(7) . . .
141(6) . . .
155(7) . . .
164(7) . . .
168(7) . . .
166(7) . . .
161(7) . . .
172(7) . . .
160(7) . . .
157(7) . . .
154(7) . . .
154(7) . . .
160(7) . . .
169(7) . . .
157(7) . . .
152(7) . . .
138(6) . . .
150(6) . . .
192(7) . . .
147(7) . . .
147(7) . . .
159(7) . . .
163(7) . . .
156(6) . . .
166(7) . . .
169(7) . . .
142(6) . . .
168(7) . . .
172(7) . . .
159(7) . . .
171(7) . . .
160(7) . . .
171(7) . . .
198(7) . . .
164(7) . . .
172(7) . . .
174(7) . . .
167(7) . . .
184(7) . . .
154(7) . . .
175(7) . . .
181(7) . . .
170(7) . . .
168(7) . . .
158(7) . . .
160(7) . . .
149(6) . . .
165(7) . . .
171(7) . . .
153(6) . . .
169(7) . . .
176(7) . . .
189(7) . . .
166(7) . . .
160(7) . . .
161(7) . . .
168(7) . . .
178(7) . . .
153(7) . . .
144(7) . . .
159(7) . . .
165(7) . . .
183(7) . . .
161(7) . . .
160(7) . . .
160(7) . . .
177(7) . . .
158(6) . . .
173(7) . . .
170(7) . . .
151(6) . . .
164(7) . . .
157(6) . . .
146(7) . . .
151(7) . . .
152(6) . . .
138(6) . . .
169(7) . . .
165(7) . . .
144(6) . . .
143(6) . . .
140(6) . . .
153(6) . . .
153(7) . . .
158(7) . . .
150(7) . . .
159(6) . . .
160(7) . . .
161(7) . . .
158(7) . . .
154(7) . . .
159(7) . . .
158(7) . . .
156(7) . . .
159(7) . . .
166(7) . . .
160(7) . . .
170(7) . . .
163(7) . . .
173(7) . . .
151(7) . . .
146(6) . . .
152(6) . . .
155(7) . . .
161(7) . . .
165(7) . . .
157(6) . . .
154(7) . . .
150(7) . . .
149(7) . . .
158(7) . . .
173(7) . . .
148(7) . . .
173(7) . . .
164(7) . . .
156(7) . . .
160(7) . . .
155(7) . . .
159(7) . . .
149(7) . . .
137(6) . . .
146(6) . . .
163(7) . . .
157(7) . . .
141(6) . . .
153(6) . . .
152(6) . . .
160(7) . . .
167(7) . . .
146(6) . . .
132(6) . . .
143(6) . . .
141(6) . . .
176(7) . . .
168(7) . . .
158(7) . . .
152(6) . . .
151(7) . . .
160(7) . . .
185(7) . . .
167(7) . . .
166(7) . . .
153(7) . . .
154(7) . . .
143(6) . . .
146(6) . . .
162(7) . . .
154(7) . . .
160(7) . . .
162(7) . . .
138(6) . . .
148(7) . . .
142(6) . . .
160(7) . . .
145(7) . . .
144(6) . . .
140(6) . . .
142(7) . . .
166(7) . . .
144(7) . . .
159(7) . . .
171(7) . . .
159(7) . . .
146(7) . . .
148(7) . . .
130(6) . . .
161(7) . . .
170(7) . . .
181(7) . . .
157(7) . . .
154(6) . . .
161(7) . . .
152(7) . . .
159(7) . . .
159(7) . . .
146(6) . . .
136(6) . . .
147(7) . . .
158(7) . . .
148(6) . . .
171(7) . . .
171(7) . . .
178(7) . . .
151(7) . . .
161(7) . . .
156(6) . . .
158(7) . . .
148(7) . . .
163(7) . . .
158(7) . . .
165(7) . . .
160(7) . . .
137(7) . . .
150(7) . . .
166(7) . . .
155(6) . . .
146(7) . . .
157(7) . . .
145(6) . . .
152(6) . . .
139(6) . . .
149(7) . . .
161(7) . . .
148(7) . . .
141(6) . . .
143(6) . . .
146(7) . . .
158(7) . . .
144(6) . . .
145(6) . . .
158(7) . . .
153(7) . . .
162(7) . . .
177(7) . . .
154(6) . . .
154(7) . . .
157(7) . . .
161(7) . . .
164(7) . . .
186(7) . . .
168(7) . . .
144(6) . . .
151(6) . . .
174(7) . . .
145(6) . . .
151(6) . . .
167(7) . . .
152(6) . . .
164(7) . . .
161(7) . . .
143(6) . . .
163(7) . . .
152(7) . . .
163(7) . . .
130(6) . . .
153(7) . . .
166(7) . . .
167(7) . . .
145(6) . . .
155(6) . . .
148(7) . . .
158(7) . . .
156(7) . . .
160(7) . . .
147(6) . . .
141(6) . . .
172(8) . . .
153(7) . . .
153(6) . . .
152(6) . . .
151(7) . . .
159(7) . . .
144(6) . . .
156(6) . . .
144(6) . . .
163(7) . . .
153(7) . . .
149(7) . . .
145(6) . . .
178(7) . . .
167(7) . . .
135(6) . . .
149(7) . . .
159(7) . . .
156(7) . . .
152(7) . . .
151(7) . . .
144(6) . . .
154(6) . . .
163(7) . . .
149(6) . . .
134(6) . . .
144(6) . . .
142(6) . . .
173(7) . . .
162(7) . . .
145(6) . . .
141(6) . . .
164(7) . . .
174(7) . . .
156(7) . . .
152(7) . . .
172(7) . . .
159(7) . . .
152(7) . . .
155(7) . . .
150(6) . . .
165(7) . . .
158(7) . . .
160(7) . . .
167(7) . . .
155(7) . . .
150(6) . . .
159(7) . . .
171(7) . . .
179(7) . . .
168(7) . . .
167(7) . . .
162(7) . . .
164(7) . . .
149(7) . . .
164(7) . . .
163(7) . . .
170(7) . . .
150(6) . . .
199(8) . . .
153(7) . . .
170(7) . . .
150(6) . . .
173(7) . . .
157(7) . . .
151(7) . . .
164(7) . . .
167(7) . . .
167(7) . . .
155(7) . . .
185(7) . . .
174(7) . . .
158(7) . . .
150(6) . . .
133(6) . . .
148(7) . . .
151(7) . . .
153(6) . . .
136(6) . . .
146(7) . . .
147(7) . . .
161(7) . . .
154(7) . . .
161(7) . . .
152(7) . . .
147(7) . . .
148(7) . . .
142(6) . . .
146(6) . . .
138(6) . . .
145(7) . . .
149(7) . . .
138(6) . . .
162(7) . . .
165(7) . . .
150(7) . . .
160(7) . . .
154(7) . . .
148(6) . . .
168(7) . . .
146(7) . . .
146(6) . . .
149(6) . . .
147(6) . . .
153(7) . . .
147(7) . . .
151(6) . . .
152(6) . . .
135(6) . . .
135(6) . . .
140(6) . . .
148(7) . . .
137(6) . . .
145(6) . . .
142(6) . . .
159(7) . . .
154(7) . . .
149(6) . . .
155(7) . . .
144(6) . . .
133(6) . . .
163(7) . . .
152(6) . . .
151(7) . . .
144(6) . . .
152(7) . . .
132(6) . . .
144(6) . . .
148(6) . . .
149(6) . . .
149(6) . . .
135(6) . . .
162(7) . . .
159(7) . . .
153(7) . . .
155(7) . . .
127(6) . . .
134(6) . . .
152(7) . . .
124(6) . . .
144(7) . . .
154(6) . . .
156(6) . . .
139(6) . . .
150(7) . . .
150(6) . . .
142(6) . . .
148(6) . . .
135(6) . . .
149(7) . . .
141(6) . . .
140(6) . . .
158(7) . . .
163(7) . . .
144(6) . . .
146(7) . . .
132(6) . . .
143(6) . . .
149(6) . . .
155(7) . . .
147(7) . . .
153(6) . . .
145(6) . . .
146(7) . . .
161(7) . . .
144(7) . . .
137(6) . . .
134(6) . . .
143(6) . . .
147(7) . . .
145(6) . . .
147(6) . . .
148(7) . . .
143(7) . . .
143(6) . . .
135(6) . . .
144(6) . . .
174(7) . . .
146(7) . . .
145(6) . . .
142(6) . . .
141(6) . . .
134(6) . . .
143(7) . . .
149(7) . . .
160(7) . . .
154(6) . . .
149(7) . . .
145(7) . . .
155(7) . . .
154(6) . . .
147(6) . . .
155(7) . . .
152(7) . . .
163(7) . . .
134(6) . . .
154(6) . . .
143(6) . . .
146(7) . . .
162(7) . . .
147(6) . . .
156(7) . . .
128(6) . . .
142(7) . . .
159(7) . . .
157(6) . . .
136(6) . . .
154(7) . . .
137(6) . . .
118(6) . . .
137(6) . . .
141(6) . . .
141(7) . . .
147(7) . . .
159(7) . . .
155(6) . . .
141(6) . . .
146(7) . . .
156(7) . . .
135(6) . . .
137(6) . . .
154(7) . . .
148(7) . . .
169(7) . . .
157(7) . . .
156(6) . . .
165(7) . . .
136(6) . . .
154(7) . . .
156(7) . . .
146(6) . . .
152(7) . . .
145(7) . . .
140(6) . . .
153(6) . . .
140(6) . . .
138(6) . . .
167(7) . . .
159(7) . . .
163(7) . . .
157(7) . . .
152(7) . . .
149(7) . . .
146(6) . . .
143(6) . . .
151(6) . . .
156(7) . . .
149(7) . . .
152(7) . . .
174(7) . . .
141(6) . . .
134(6) . . .
133(6) . . .
151(7) . . .
154(6) . . .
147(6) . . .
152(7) . . .
144(7) . . .
137(6) . . .
144(6) . . .
141(6) . . .
154(7) . . .
148(7) . . .
142(6) . . .
161(7) . . .
150(6) . . .
153(7) . . .
146(7) . . .
139(6) . . .
159(7) . . .
144(6) . . .
152(7) . . .
156(7) . . .
139(6) . . .
162(7) . . .
148(7) . . .
144(7) . . .
155(7) . . .
160(7) . . .
162(7) . . .
145(7) . . .
155(7) . . .
134(6) . . .
149(6) . . .
152(6) . . .
157(7) . . .
148(7) . . .
147(6) . . .
163(7) . . .
154(6) . . .
145(7) . . .
145(7) . . .
144(6) . . .
135(6) . . .
142(6) . . .
142(6) . . .
150(7) . . .
147(7) . . .
154(6) . . .
144(6) . . .
146(6) . . .
147(7) . . .
143(6) . . .
149(6) . . .
145(6) . . .
148(7) . . .
139(6) . . .
143(6) . . .
162(7) . . .
153(7) . . .
148(7) . . .
126(6) . . .
145(6) . . .
140(6) . . .
148(6) . . .
138(6) . . .
137(6) . . .
133(6) . . .
160(7) . . .
139(6) . . .
151(7) . . .
132(6) . . .
144(6) . . .
148(6) . . .
148(6) . . .
150(7) . . .
135(6) . . .
138(6) . . .
135(6) . . .
140(6) . . .
135(6) . . .
146(7) . . .
145(6) . . .
155(6) . . .
163(7) . . .
153(7) . . .
144(6) . . .
127(6) . . .
133(6) . . .
147(7) . . .
145(7) . . .
139(6) . . .
154(6) . . .
152(6) . . .
144(6) . . .
156(7) . . .
157(7) . . .
133(6) . . .
128(6) . . .
145(6) . . .
151(7) . . .
148(7) . . .
147(6) . . .
123(6) . . .
157(7) . . .
122(6) . . .
154(7) . . .
147(6) . . .
137(6) . . .
147(7) . . .
121(6) . . .
152(7) . . .
146(6) . . .
151(7) . . .
156(7) . . .
132(6) . . .
151(7) . . .
159(7) . . .
143(6) . . .
142(6) . . .
142(6) . . .
143(6) . . .
135(6) . . .
130(6) . . .
140(6) . . .
139(6) . . .
135(6) . . .
129(6) . . .
139(6) . . .
141(6) . . .
151(6) . . .
151(7) . . .
158(6) . . .
144(6) . . .
153(7) . . .
122(6) . . .
126(6) . . .
133(6) . . .
153(7) . . .
159(7) . . .
162(7) . . .
161(7) . . .
134(6) . . .
147(7) . . .
153(7) . . .
144(6) . . .
146(6) . . .
139(6) . . .
142(6) . . .
158(7) . . .
138(6) . . .
156(6) . . .
165(7) . . .
145(7) . . .
140(7) . . .
139(6) . . .
147(6) . . .
133(6) . . .
137(6) . . .
145(7) . . .
149(6) . . .
141(6) . . .
141(6) . . .
146(6) . . .
142(6) . . .
141(6) . . .
155(7) . . .
148(6) . . .
136(6) . . .
141(7) . . .
139(6) . . .
150(6) . . .
145(6) . . .
137(6) . . .
130(6) . . .
157(7) . . .
144(6) . . .
133(6) . . .
139(6) . . .
162(7) . . .
156(6) . . .
143(6) . . .
153(7) . . .
164(7) . . .
135(6) . . .
148(6) . . .
137(6) . . .
149(6) . . .
162(7) . . .
142(6) . . .
165(7) . . .
150(6) . . .
151(6) . . .
167(7) . . .
149(6) . . .
151(6) . . .
157(7) . . .
150(7) . . .
154(7) . . .
154(7) . . .
138(6) . . .
139(6) . . .
154(7) . . .
155(7) . . .
140(6) . . .
140(6) . . .
156(7) . . .
152(7) . . .
136(6) . . .
145(7) . . .
139(6) . . .
158(7) . . .
144(6) . . .
141(6) . . .
130(6) . . .
152(6) . . .
144(6) . . .
160(7) . . .
159(7) . . .
136(6) . . .
145(6) . . .
160(7) . . .
155(7) . . .
154(7) . . .
147(6) . . .
152(6) . . .
171(7) . . .
144(7) . . .
158(7) . . .
142(6) . . .
140(6) . . .
150(7) . . .
149(7) . . .
137(6) . . .
147(6) . . .
141(6) . . .
144(6) . . .
136(6) . . .
159(7) . . .
152(6) . . .
152(6) . . .
134(6) . . .
152(7) . . .
152(7) . . .
144(6) . . .
157(6) . . .
147(7) . . .
129(6) . . .
157(7) . . .
152(6) . . .
145(6) . . .
129(6) . . .
148(7) . . .
162(7) . . .
144(6) . . .
139(6) . . .
150(6) . . .
146(7) . . .
135(6) . . .
157(6) . . .
156(7) . . .
144(7) . . .
146(7) . . .
147(7) . . .
147(6) . . .
130(6) . . .
134(6) . . .
136(6) . . .
132(6) . . .
154(6) . . .
138(6) . . .
142(6) . . .
146(7) . . .
131(6) . . .
163(7) . . .
142(6) . . .
159(7) . . .
158(7) . . .
158(7) . . .
160(7) . . .
163(7) . . .
132(6) . . .
156(7) . . .
159(7) . . .
148(6) . . .
150(7) . . .
154(7) . . .
144(6) . . .
161(7) . . .
164(7) . . .
160(7) . . .
141(7) . . .
147(7) . . .
131(6) . . .
159(7) . . .
145(6) . . .
144(7) . . .
159(7) . . .
150(6) . . .
144(6) . . .
151(7) . . .
158(7) . . .
139(6) . . .
150(6) . . .
140(6) . . .
160(7) . . .
142(7) . . .
141(6) . . .
149(6) . . .
169(7) . . .
149(7) . . .
150(7) . . .
141(6) . . .
131(6) . . .
145(6) . . .
146(6) . . .
145(6) . . .
144(7) . . .
141(6) . . .
155(7) . . .
132(6) . . .
162(7) . . .
162(7) . . .
149(6) . . .
155(7) . . .
154(7) . . .
163(7) . . .
152(7) . . .
155(6) . . .
138(6) . . .
171(7) . . .
147(7) . . .
135(6) . . .
144(6) . . .
161(7) . . .
151(7) . . .
153(7) . . .
142(6) . . .
152(6) . . .
170(7) . . .
165(7) . . .
156(7) . . .
158(7) . . .
157(7) . . .
153(7) . . .
152(7) . . .
165(7) . . .
166(7) . . .
165(7) . . .
176(7) . . .
165(7) . . .
143(6) . . .
157(6) . . .
166(7) . . .
165(7) . . .
151(7) . . .
151(7) . . .
165(7) . . .
151(6) . . .
150(7) . . .
143(6) . . .
137(6) . . .
134(6) . . .
146(6) . . .
152(7) . . .
149(7) . . .
153(7) . . .
149(6) . . .
143(6) . . .
131(6) . . .
156(7) . . .
154(7) . . .
147(6) . . .
157(7) . . .
166(7) . . .
161(7) . . .
154(7) . . .
154(6) . . .
142(6) . . .
167(7) . . .
142(7) . . .
164(7) . . .
159(7) . . .
159(7) . . .
155(7) . . .
155(7) . . .
161(7) . . .
159(7) . . .
155(7) . . .
156(7) . . .
166(7) . . .
164(7) . . .
170(7) . . .
138(6) . . .
147(7) . . .
162(7) . . .
160(7) . . .
152(6) . . .
142(6) . . .
156(7) . . .
166(7) . . .
154(7) . . .
147(6) . . .
162(7) . . .
156(7) . . .
156(7) . . .
137(6) . . .
148(6) . . .
158(7) . . .
151(7) . . .
169(7) . . .
152(6) . . .
155(7) . . .
153(7) . . .
141(6) . . .
153(7) . . .
154(6) . . .
147(6) . . .
155(7) . . .
139(6) . . .
156(7) . . .
153(6) . . .
135(6) . . .
125(6) . . .
141(6) . . .
152(7) . . .
155(6) . . .
160(7) . . .
164(7) . . .
160(7) . . .
134(6) . . .
147(6) . . .
150(7) . . .
141(6) . . .
173(7) . . .
151(6) . . .
158(7) . . .
153(7) . . .
151(7) . . .
166(7) . . .
170(7) . . .
162(7) . . .
164(7) . . .
142(7) . . .
154(7) . . .
158(6) . . .
157(7) . . .
150(7) . . .
161(7) . . .
156(7) . . .
188(7) . . .
163(7) . . .
159(7) . . .
168(7) . . .
174(7) . . .
174(7) . . .
167(7) . . .
153(7) . . .
161(7) . . .
150(6) . . .
156(6) . . .
166(7) . . .
138(6) . . .
150(7) . . .
143(7) . . .
161(7) . . .
140(6) . . .
150(7) . . .
156(7) . . .
148(7) . . .
163(7) . . .
150(7) . . .
144(6) . . .
153(7) . . .
169(7) . . .
149(6) . . .
150(7) . . .
146(7) . . .
161(7) . . .
169(7) . . .
130(6) . . .
154(7) . . .
148(6) . . .
156(7) . . .
175(7) . . .
140(6) . . .
151(7) . . .
153(7) . . .
166(7) . . .
151(6) . . .
144(6) . . .
147(7) . . .
137(6) . . .
141(6) . . .
153(6) . . .
145(6) . . .
151(6) . . .
157(7) . . .
148(7) . . .
142(6) . . .
157(7) . . .
159(7) . . .
163(7) . . .
150(6) . . .
159(7) . . .
165(7) . . .
166(7) . . .
177(7) . . .
145(6) . . .
145(6) . . .
138(6) . . .
160(7) . . .
139(6) . . .
145(7) . . .
150(6) . . .
157(6) . . .
154(7) . . .
153(7) . . .
168(7) . . .
144(6) . . .
149(7) . . .
147(6) . . .
160(7) . . .
155(7) . . .
141(6) . . .
140(6) . . .
137(6) . . .
139(6) . . .
155(7) . . .
154(6) . . .
149(7) . . .
130(6) . . .
134(6) . . .
156(7) . . .
143(6) . . .
159(7) . . .
161(7) . . .
153(7) . . .
162(7) . . .
145(6) . . .
158(7) . . .
156(7) . . .
159(7) . . .
157(6) . . .
135(6) . . .
175(7) . . .
158(7) . . .
138(6) . . .
143(6) . . .
150(6) . . .
145(6) . . .
155(7) . . .
137(6) . . .
149(6) . . .
141(6) . . .
145(6) . . .
161(7) . . .
163(7) . . .
159(7) . . .
159(7) . . .
176(7) . . .
166(7) . . .
147(7) . . .
151(6) . . .
160(7) . . .
153(7) . . .
163(7) . . .
160(7) . . .
152(6) . . .
165(7) . . .
158(7) . . .
144(6) . . .
142(6) . . .
161(7) . . .
171(7) . . .
149(6) . . .
164(7) . . .
170(7) . . .
165(7) . . .
162(7) . . .
166(7) . . .
167(7) . . .
139(6) . . .
149(6) . . .
163(7) . . .
168(7) . . .
163(7) . . .
153(6) . . .
141(6) . . .
148(7) . . .
164(7) . . .
142(7) . . .
139(6) . . .
156(6) . . .
151(7) . . .
148(7) . . .
162(7) . . .
160(7) . . .
155(7) . . .
165(7) . . .
161(7) . . .
161(7) . . .
164(7) . . .
142(6) . . .
146(6) . . .
154(7) . . .
128(6) . . .
150(6) . . .
149(6) . . .
146(7) . . .
149(7) . . .
162(7) . . .
156(6) . . .
171(7) . . .
158(7) . . .
138(6) . . .
159(7) . . .
160(7) . . .
152(7) . . .
159(7) . . .
159(7) . . .
171(7) . . .
164(7) . . .
157(7) . . .
152(7) . . .
172(7) . . .
165(7) . . .
142(6) . . .
149(6) . . .
153(7) . . .
150(7) . . .
155(7) . . .
150(6) . . .
151(7) . . .
175(7) . . .
144(6) . . .
148(6) . . .
140(6) . . .
152(7) . . .
168(7) . . .
150(6) . . .
139(6) . . .
146(6) . . .
149(7) . . .
139(6) . . .
152(6) . . .
147(6) . . .
148(6) . . .
158(7) . . .
146(7) . . .
150(7) . . .
131(6) . . .
151(6) . . .
146(6) . . .
145(7) . . .
140(6) . . .
165(7) . . .
153(6) . . .
154(7) . . .
163(7) . . .
134(6) . . .
130(6) . . .
141(6) . . .
165(7) . . .
144(7) . . .
139(6) . . .
158(7) . . .
154(7) . . .
135(6) . . .
141(7) . . .
148(7) . . .
138(6) . . .
149(6) . . .
146(6) . . .
157(7) . . .
156(7) . . .
137(6) . . .
147(6) . . .
145(7) . . .
138(6) . . .
144(6) . . .
156(6) . . .
152(7) . . .
142(6) . . .
161(7) . . .
138(6) . . .
154(6) . . .
169(7) . . .
156(7) . . .
157(7) . . .
153(6) . . .
165(7) . . .
162(7) . . .
143(7) . . .
160(7) . . .
181(7) . . .
168(7) . . .
168(7) . . .
164(7) . . .
157(7) . . .
154(6) . . .
154(6) . . .
150(7) . . .
157(7) . . .
137(6) . . .
145(6) . . .
150(6) . . .
140(6) . . .
147(7) . . .
163(7) . . .
148(6) . . .
148(6) . . .
163(7) . . .
150(7) . . .
157(7) . . .
140(6) . . .
140(6) . . .
136(6) . . .
148(7) . . .
152(7) . . .
157(7) . . .
131(6) . . .
148(7) . . .
164(7) . . .
152(7) . . .
136(6) . . .
148(7) . . .
143(6) . . .
152(7) . . .
150(7) . . .
142(6) . . .
138(6) . . .
136(6) . . .
131(6) . . .
141(6) . . .
141(6) . . .
149(7) . . .
138(6) . . .
144(7) . . .
155(7) . . .
140(6) . . .
134(6) . . .
138(7) . . .
138(6) . . .
162(7) . . .
149(6) . . .
146(6) . . .
157(7) . . .
144(6) . . .
132(6) . . .
138(6) . . .
145(7) . . .
163(7) . . .
139(7) . . .
141(6) . . .
148(6) . . .
151(7) . . .
127(6) . . .
155(7) . . .
143(6) . . .
139(6) . . .
151(7) . . .
138(7) . . .
136(6) . . .
144(6) . . .
141(6) . . .
152(7) . . .
142(7) . . .
165(7) . . .
144(6) . . .
149(7) . . .
145(6) . . .
135(6) . . .
155(7) . . .
147(6) . . .
158(7) . . .
158(7) . . .
141(6) . . .
142(6) . . .
132(6) . . .
133(6) . . .
166(7) . . .
162(7) . . .
146(6) . . .
137(6) . . .
144(6) . . .
143(7) . . .
141(6) . . .
145(6) . . .
164(7) . . .
149(7) . . .
151(7) . . .
146(7) . . .
134(6) . . .
156(6) . . .
147(6) . . .
155(7) . . .
145(7) . . .
147(6) . . .
156(6) . . .
149(6) . . .
144(7) . . .
149(7) . . .
153(6) . . .
164(7) . . .
145(6) . . .
140(6) . . .
147(6) . . .
156(7) . . .
154(7) . . .
162(7) . . .
158(7) . . .
156(7) . . .
124(6) . . .
151(6) . . .
151(7) . . .
154(7) . . .
165(7) . . .
155(6) . . .
168(7) . . .
139(6) . . .
165(7) . . .
147(6) . . .
162(7) . . .
142(6) . . .
152(7) . . .
154(7) . . .
163(7) . . .
153(6) . . .
159(7) . . .
129(6) . . .
143(6) . . .
151(7) . . .
153(6) . . .
132(6) . . .
135(6) . . .
142(7) . . .
157(7) . . .
149(6) . . .
155(7) . . .
150(7) . . .
155(7) . . .
148(6) . . .
134(6) . . .
145(6) . . .
165(7) . . .
146(6) . . .
140(6) . . .
146(6) . . .
138(6) . . .
143(7) . . .
148(7) . . .
155(7) . . .
140(6) . . .
146(6) . . .
153(7) . . .
170(7) . . .
136(6) . . .
141(6) . . .
153(7) . . .
156(7) . . .
154(7) . . .
139(6) . . .
156(7) . . .
155(7) . . .
146(7) . . .
144(6) . . .
146(6) . . .
154(7) . . .
139(6) . . .
139(6) . . .
132(6) . . .
156(6) . . .
150(7) . . .
140(6) . . .
135(6) . . .
136(6) . . .
146(6) . . .
146(7) . . .
142(6) . . .
152(7) . . .
154(6) . . .
156(6) . . .
147(7) . . .
159(7) . . .
154(7) . . .
153(6) . . .
157(7) . . .
159(7) . . .
144(7) . . .
156(7) . . .
158(7) . . .
154(6) . . .
154(7) . . .
155(7) . . .
158(7) . . .
156(6) . . .
171(7) . . .
143(6) . . .
148(7) . . .
170(7) . . .
157(6) . . .
148(6) . . .
170(7) . . .
148(7) . . .
174(7) . . .
155(6) . . .
160(7) . . .
155(7) . . .
151(7) . . .
151(7) . . .
143(6) . . .
173(7) . . .
159(7) . . .
140(6) . . .
162(7) . . .
159(7) . . .
148(6) . . .
151(7) . . .
160(7) . . .
162(7) . . .
156(7) . . .
138(6) . . .
140(6) . . .
152(7) . . .
148(6) . . .
126(6) . . .
148(7) . . .
154(7) . . .
141(6) . . .
141(6) . . .
157(7) . . .
161(7) . . .
149(7) . . .
140(6) . . .
153(7) . . .
169(7) . . .
155(7) . . .
150(7) . . .
163(7) . . .
137(6) . . .
144(6) . . .
151(7) . . .
147(7) . . .
147(7) . . .
148(6) . . .
159(7) . . .
156(7) . . .
157(7) . . .
137(6) . . .
154(7) . . .
157(7) . . .
145(6) . . .
148(7) . . .
148(6) . . .
147(6) . . .
152(6) . . .
163(7) . . .
140(6) . . .
149(7) . . .
135(6) . . .
151(6) . . .
139(6) . . .
143(6) . . .
139(6) . . .
133(6) . . .
151(6) . . .
150(7) . . .
145(7) . . .
143(6) . . .
164(7) . . .
163(7) . . .
164(7) . . .
153(6) . . .
166(7) . . .
144(6) . . .
132(6) . . .
159(7) . . .
145(6) . . .
146(6) . . .
151(6) . . .
152(7) . . .
145(7) . . .
140(6) . . .
143(6) . . .
136(6) . . .
151(7) . . .
175(7) . . .
168(7) . . .
164(7) . . .
167(7) . . .
160(7) . . .
157(7) . . .
156(7) . . .
173(7) . . .
144(6) . . .
149(6) . . .
159(7) . . .
150(7) . . .
150(6) . . .
151(6) . . .
149(7) . . .
148(7) . . .
145(6) . . .
152(6) . . .
158(6) . . .
150(7) . . .
139(7) . . .
142(6) . . .
147(6) . . .
166(7) . . .
157(7) . . .
131(6) . . .
136(6) . . .
142(6) . . .
151(7) . . .
139(6) . . .
148(6) . . .
138(6) . . .
149(6) . . .
142(6) . . .
139(6) . . .
143(6) . . .
144(6) . . .
144(6) . . .
148(7) . . .
149(7) . . .
154(7) . . .
140(6) . . .
145(6) . . .
145(6) . . .
151(7) . . .
151(7) . . .
150(7) . . .
140(6) . . .
151(7) . . .
152(7) . . .
154(7) . . .
145(6) . . .
146(6) . . .
145(6) . . .
152(7) . . .
147(6) . . .
147(6) . . .
150(6) . . .
134(6) . . .
155(7) . . .
145(6) . . .
144(6) . . .
146(6) . . .
143(6) . . .
138(7) . . .
145(6) . . .
136(6) . . .
152(6) . . .
168(7) . . .
150(7) . . .
148(6) . . .
141(6) . . .
144(6) . . .
153(7) . . .
146(7) . . .
148(7) . . .
154(7) . . .
161(7) . . .
148(7) . . .
166(7) . . .
155(7) . . .
157(7) . . .
164(7) . . .
163(7) . . .
149(7) . . .
140(6) . . .
159(7) . . .
156(7) . . .
145(6) . . .
157(7) . . .
170(7) . . .
160(7) . . .
160(7) . . .
156(7) . . .
182(7) . . .
153(6) . . .
152(6) . . .
153(7) . . .
158(7) . . .
145(7) . . .
154(7) . . .
143(6) . . .
168(7) . . .
176(7) . . .
168(7) . . .
159(7) . . .
148(6) . . .
144(7) . . .
168(7) . . .
149(7) . . .
154(6) . . .
135(6) . . .
144(7) . . .
149(7) . . .
159(7) . . .
166(7) . . .
157(7) . . .
166(7) . . .
165(7) . . .
149(7) . . .
163(7) . . .
160(7) . . .
157(7) . . .
149(7) . . .
143(6) . . .
157(7) . . .
146(6) . . .
161(7) . . .
156(7) . . .
151(7) . . .
158(6) . . .
167(7) . . .
152(7) . . .
151(7) . . .
148(7) . . .
167(7) . . .
154(7) . . .
176(7) . . .
152(7) . . .
131(6) . . .
153(6) . . .
151(7) . . .
168(7) . . .
154(7) . . .
151(6) . . .
140(6) . . .
147(6) . . .
166(7) . . .
150(7) . . .
154(6) . . .
156(7) . . .
151(7) . . .
160(7) . . .
159(7) . . .
159(7) . . .
148(6) . . .
156(7) . . .
159(7) . . .
139(6) . . .
143(6) . . .
136(6) . . .
145(6) . . .
147(7) . . .
155(7) . . .
164(7) . . .
134(6) . . .
136(6) . . .
154(7) . . .
166(7) . . .
151(6) . . .
148(6) . . .
167(7) . . .
158(7) . . .
156(7) . . .
141(6) . . .
147(6) . . .
159(7) . . .
154(7) . . .
166(7) . . .
138(6) . . .
145(6) . . .
155(7) . . .
145(6) . . .
147(6) . . .
138(6) . . .
133(6) . . .
153(7) . . .
143(7) . . .
151(7) . . .
148(6) . . .
141(6) . . .
145(6) . . .
154(7) . . .
144(6) . . .
152(6) . . .
146(6) . . .
156(7) . . .
150(6) . . .
151(6) . . .
141(6) . . .
140(6) . . .
153(7) . . .
137(6) . . .
129(6) . . .
162(7) . . .
135(6) . . .
142(6) . . .
153(7) . . .
157(7) . . .
147(6) . . .
139(6) . . .
150(7) . . .
156(7) . . .
173(7) . . .
143(6) . . .
145(6) . . .
147(7) . . .
142(6) . . .
157(7) . . .
138(6) . . .
163(7) . . .
155(7) . . .
154(7) . . .
140(6) . . .
145(6) . . .
138(6) . . .
127(6) . . .
137(7) . . .
150(6) . . .
151(6) . . .
144(6) . . .
145(6) . . .
161(7) . . .
152(6) . . .
162(7) . . .
165(7) . . .
148(7) . . .
139(6) . . .
161(7) . . .
155(7) . . .
149(6) . . .
144(6) . . .
135(6) . . .
158(7) . . .
152(6) . . .
144(6) . . .
157(7) . . .
143(6) . . .
144(6) . . .
140(6) . . .
151(7) . . .
147(7) . . .
131(6) . . .
152(6) . . .
147(7) . . .
137(7) . . .
139(6) . . .
155(7) . . .
129(6) . . .
144(6) . . .
148(7) . . .
151(7) . . .
157(6) . . .
155(6) . . .
159(7) . . .
166(7) . . .
152(6) . . .
152(6) . . .
147(6) . . .
136(6) . . .
141(6) . . .
155(7) . . .
135(6) . . .
147(6) . . .
148(6) . . .
161(7) . . .
149(7) . . .
148(6) . . .
161(7) . . .
148(6) . . .
145(7) . . .
143(6) . . .
154(6) . . .
148(7) . . .
142(6) . . .
153(6) . . .
151(6) . . .
128(6) . . .
147(6) . . .
126(6) . . .
135(6) . . .
131(6) . . .
139(6) . . .
145(6) . . .
138(6) . . .
133(6) . . .
152(7) . . .
136(6) . . .
149(6) . . .
161(7) . . .
146(6) . . .
125(6) . . .
138(6) . . .
136(6) . . .
152(7) . . .
151(6) . . .
154(7) . . .
147(6) . . .
125(6) . . .
124(6) . . .
128(6) . . .
144(6) . . .
150(6) . . .
165(7) . . .
154(7) . . .
145(7) . . .
143(6) . . .
150(6) . . .
154(7) . . .
140(6) . . .
138(6) . . .
145(6) . . .
145(6) . . .
135(6) . . .
139(7) . . .
134(6) . . .
138(6) . . .
148(6) . . .
127(6) . . .
132(6) . . .
160(7) . . .
162(7) . . .
162(7) . . .
148(6) . . .
159(7) . . .
136(6) . . .
133(6) . . .
137(6) . . .
152(7) . . .
140(6) . . .
159(7) . . .
141(6) . . .
119(6) . . .
144(6) . . .
160(7) . . .
153(6) . . .
168(7) . . .
137(6) . . .
141(6) . . .
134(6) . . .
135(6) . . .
145(6) . . .
148(7) . . .
145(7) . . .
152(7) . . .
140(6) . . .
150(6) . . .
138(6) . . .
141(7) . . .
141(6) . . .
137(6) . . .
148(6) . . .
153(7) . . .
156(7) . . .
152(7) . . .
142(6) . . .
147(6) . . .
146(7) . . .
136(7) . . .
148(7) . . .
146(6) . . .
144(6) . . .
139(6) . . .
161(7) . . .
160(7) . . .
144(6) . . .
144(6) . . .
158(7) . . .
164(7) . . .
162(7) . . .
151(6) . . .
137(6) . . .
141(6) . . .
155(7) . . .
171(7) . . .
165(7) . . .
129(6) . . .
156(7) . . .
155(7) . . .
151(7) . . .
152(6) . . .
139(6) . . .
144(6) . . .
144(6) . . .
141(6) . . .
154(6) . . .
150(7) . . .
144(7) . . .
168(7) . . .
138(6) . . .
151(6) . . .
150(7) . . .
165(7) . . .
156(7) . . .
145(6) . . .
158(7) . . .
138(6) . . .
141(7) . . .
137(6) . . .
136(6) . . .
153(6) . . .
141(6) . . .
154(7) . . .
138(6) . . .
144(6) . . .
150(6) . . .
171(7) . . .
157(7) . . .
138(6) . . .
132(6) . . .
149(6) . . .
161(7) . . .
142(7) . . .
161(7) . . .
159(7) . . .
153(6) . . .
132(6) . . .
137(6) . . .
151(7) . . .
151(6) . . .
145(6) . . .
138(6) . . .
135(6) . . .
146(7) . . .
143(6) . . .
149(6) . . .
151(7) . . .
140(6) . . .
141(6) . . .
146(6) . . .
140(6) . . .
144(7) . . .
138(6) . . .
152(7) . . .
158(7) . . .
149(7) . . .
151(7) . . .
154(7) . . .
152(6) . . .
149(6) . . .
154(7) . . .
141(6) . . .
163(7) . . .
154(7) . . .
144(6) . . .
138(6) . . .
137(7) . . .
145(7) . . .
138(6) . . .
154(6) . . .
146(6) . . .
142(7) . . .
151(7) . . .
144(6) . . .
135(6) . . .
144(7) . . .
145(7) . . .
143(6) . . .
142(6) . . .
145(6) . . .
126(6) . . .
133(6) . . .
142(6) . . .
153(6) . . .
140(6) . . .
140(6) . . .
142(6) . . .
157(7) . . .
153(6) . . .
150(6) . . .
142(6) . . .
129(6) . . .
130(6) . . .
147(6) . . .
156(7) . . .
142(6) . . .
127(6) . . .
146(6) . . .
155(6) . . .
140(6) . . .
133(6) . . .
139(7) . . .
135(6) . . .
133(6) . . .
143(6) . . .
140(6) . . .
153(7) . . .
145(6) . . .
145(6) . . .
142(6) . . .
136(6) . . .
138(6) . . .
133(6) . . .
127(6) . . .
137(6) . . .
139(7) . . .
139(6) . . .
139(6) . . .
146(6) . . .
136(6) . . .
159(7) . . .
151(6) . . .
146(6) . . .
161(7) . . .
146(6) . . .
147(7) . . .
145(6) . . .
140(6) . . .
140(6) . . .
156(7) . . .
146(7) . . .
146(6) . . .
157(7) . . .
163(7) . . .
146(7) . . .
149(7) . . .
141(6) . . .
133(6) . . .
146(6) . . .
157(7) . . .
155(7) . . .
163(7) . . .
137(6) . . .
127(6) . . .
129(6) . . .
142(7) . . .
143(6) . . .
129(6) . . .
160(7) . . .
168(7) . . .
155(7) . . .
158(7) . . .
147(6) . . .
128(6) . . .
150(7) . . .
120(6) . . .
133(6) . . .
134(6) . . .
150(7) . . .
146(7) . . .
140(6) . . .
159(7) . . .
151(6) . . .
144(7) . . .
127(6) . . .
138(6) . . .
136(6) . . .
142(6) . . .
135(6) . . .
140(7) . . .
144(6) . . .
138(6) . . .
155(6) . . .
162(7) . . .
140(6) . . .
149(7) . . .
168(7) . . .
153(6) . . .
135(6) . . .
136(6) . . .
141(6) . . .
142(6) . . .
148(6) . . .
139(6) . . .
141(7) . . .
122(6) . . .
127(6) . . .
147(6) . . .
163(7) . . .
140(7) . . .
157(7) . . .
158(7) . . .
156(7) . . .
150(7) . . .
134(6) . . .
149(7) . . .
143(6) . . .
153(6) . . .
142(6) . . .
140(6) . . .
152(7) . . .
143(6) . . .
125(6) . . .
159(7) . . .
150(7) . . .
140(6) . . .
137(6) . . .
159(7) . . .
145(7) . . .
140(6) . . .
146(6) . . .
175(7) . . .
178(7) . . .
148(7) . . .
129(6) . . .
161(7) . . .
157(7) . . .
155(7) . . .
156(7) . . .
141(6) . . .
155(7) . . .
130(6) . . .
163(7) . . .
156(7) . . .
158(7) . . .
161(7) . . .
149(6) . . .
136(6) . . .
143(7) . . .
154(7) . . .
153(6) . . .
157(7) . . .
162(7) . . .
150(7) . . .
153(7) . . .
142(6) . . .
141(6) . . .
134(6) . . .
143(7) . . .
147(7) . . .
160(7) . . .
160(7) . . .
151(7) . . .
150(7) . . .
132(6) . . .
146(6) . . .
140(6) . . .
131(6) . . .
145(7) . . .
133(6) . . .
158(6) . . .
129(6) . . .
124(6) . . .
142(7) . . .
145(6) . . .
163(7) . . .
158(7) . . .
143(6) . . .
136(6) . . .
143(6) . . .
137(6) . . .
138(6) . . .
153(7) . . .
154(7) . . .
143(6) . . .
139(6) . . .
133(6) . . .
131(6) . . .
148(7) . . .
141(6) . . .
159(7) . . .
141(6) . . .
139(6) . . .
138(6) . . .
143(6) . . .
160(7) . . .
143(6) . . .
123(6) . . .
146(7) . . .
140(6) . . .
127(6) . . .
143(6) . . .
141(6) . . .
136(6) . . .
134(6) . . .
154(6) . . .
142(6) . . .
140(6) . . .
155(7) . . .
157(6) . . .
158(7) . . .
158(7) . . .
152(7) . . .
149(6) . . .
139(6) . . .
161(7) . . .
150(7) . . .
152(7) . . .
150(7) . . .
151(6) . . .
149(7) . . .
144(6) . . .
156(7) . . .
154(7) . . .
146(6) . . .
160(7) . . .
165(7) . . .
157(7) . . .
149(6) . . .
162(7) . . .
156(7) . . .
150(7) . . .
141(6) . . .
149(6) . . .
144(6) . . .
160(7) . . .
153(7) . . .
160(7) . . .
158(7) . . .
151(6) . . .
154(7) . . .
155(7) . . .
154(7) . . .
160(7) . . .
157(6) . . .
161(7) . . .
159(7) . . .
147(6) . . .
139(6) . . .
143(6) . . .
160(7) . . .
168(7) . . .
147(6) . . .
147(6) . . .
151(6) . . .
165(7) . . .
132(6) . . .
131(6) . . .
163(7) . . .
145(6) . . .
137(6) . . .
138(7) . . .
148(7) . . .
151(6) . . .
134(6) . . .
155(7) . . .
161(7) . . .
145(7) . . .
153(6) . . .
146(6) . . .
132(6) . . .
152(7) . . .
153(7) . . .
156(6) . . .
149(7) . . .
140(7) . . .
150(7) . . .
149(7) . . .
162(7) . . .
134(6) . . .
134(6) . . .
139(6) . . .
161(7) . . .
140(6) . . .
153(7) . . .
137(6) . . .
146(6) . . .
142(6) . . .
153(6) . . .
149(6) . . .
147(7) . . .
132(6) . . .
145(6) . . .
134(6) . . .
147(7) . . .
132(6) . . .
143(7) . . .
142(6) . . .
150(6) . . .
148(7) . . .
146(7) . . .
133(6) . . .
154(6) . . .
133(6) . . .
151(7) . . .
155(7) . . .
146(6) . . .
145(6) . . .
151(6) . . .
142(6) . . .
149(7) . . .
145(7) . . .
150(6) . . .
140(6) . . .
151(7) . . .
138(7) . . .
149(7) . . .
152(6) . . .
131(6) . . .
144(6) . . .
151(7) . . .
144(6) . . .
150(6) . . .
135(6) . . .
145(7) . . .
159(7) . . .
148(6) . . .
151(6) . . .
146(6) . . .
134(6) . . .
158(7) . . .
148(6) . . .
142(6) . . .
148(7) . . .
144(6) . . .
148(7) . . .
143(6) . . .
136(6) . . .
146(7) . . .
147(7) . . .
144(6) . . .
145(6) . . .
147(6) . . .
155(7) . . .
148(7) . . .
145(6) . . .
157(7) . . .
148(6) . . .
137(6) . . .
133(6) . . .
141(6) . . .
146(6) . . .
144(6) . . .
131(6) . . .
142(7) . . .
162(7) . . .
158(7) . . .
149(6) . . .
143(7) . . .
136(6) . . .
137(6) . . .
141(6) . . .
154(7) . . .
137(6) . . .
141(7) . . .
134(6) . . .
137(6) . . .
133(6) . . .
137(6) . . .
139(6) . . .
146(7) . . .
137(6) . . .
150(6) . . .
129(6) . . .
145(7) . . .
143(6) . . .
154(6) . . .
154(6) . . .
143(6) . . .
151(7) . . .
151(7) . . .
144(6) . . .
149(7) . . .
142(7) . . .
129(6) . . .
141(6) . . .
150(6) . . .
148(6) . . .
146(6) . . .
127(6) . . .
140(6) . . .
143(6) . . .
140(6) . . .
143(7) . . .
157(7) . . .
152(6) . . .
137(6) . . .
144(6) . . .
132(6) . . .
157(7) . . .
155(6) . . .
153(6) . . .
145(7) . . .
139(6) . . .
151(7) . . .
146(6) . . .
147(6) . . .
151(6) . . .
154(7) . . .
142(7) . . .
135(6) . . .
132(6) . . .
130(6) . . .
137(6) . . .
149(7) . . .
145(6) . . .
146(7) . . .
132(6) . . .
139(7) . . .
142(6) . . .
149(6) . . .
162(7) . . .
121(6) . . .
146(7) . . .
136(6) . . .
138(6) . . .
145(6) . . .
137(6) . . .
119(6) . . .
147(7) . . .
144(6) . . .
138(6) . . .
143(7) . . .
151(7) . . .
132(6) . . .
142(6) . . .
135(6) . . .
150(7) . . .
138(6) . . .
158(7) . . .
146(6) . . .
158(7) . . .
142(6) . . .
125(6) . . .
131(6) . . .
119(6) . . .
131(6) . . .
125(6) . . .
150(7) . . .
142(6) . . .
147(6) . . .
153(7) . . .
157(7) . . .
152(7) . . .
135(6) . . .
154(6) . . .
136(6) . . .
139(6) . . .
132(6) . . .
161(7) . . .
130(6) . . .
141(6) . . .
131(6) . . .
140(6) . . .
157(6) . . .
148(6) . . .
142(6) . . .
155(7) . . .
135(6) . . .
136(6) . . .
136(6) . . .
145(6) . . .
137(6) . . .
147(7) . . .
144(6) . . .
130(6) . . .
128(6) . . .
159(7) . . .
170(7) . . .
144(6) . . .
138(6) . . .
131(6) . . .
149(7) . . .
137(6) . . .
148(6) . . .
144(6) . . .
151(7) . . .
151(7) . . .
133(6) . . .
146(6) . . .
145(6) . . .
148(7) . . .
159(7) . . .
147(6) . . .
146(6) . . .
159(7) . . .
146(6) . . .
138(6) . . .
117(6) . . .
151(6) . . .
138(6) . . .
132(6) . . .
142(7) . . .
140(6) . . .
123(6) . . .
137(6) . . .
142(7) . . .
127(6) . . .
144(6) . . .
135(6) . . .
139(6) . . .
139(6) . . .
142(6) . . .
153(7) . . .
137(6) . . .
131(6) . . .
134(6) . . .
142(6) . . .
137(6) . . .
128(6) . . .
142(6) . . .
131(6) . . .
135(6) . . .
136(6) . . .
142(6) . . .
136(6) . . .
148(7) . . .
152(7) . . .
141(6) . . .
140(6) . . .
152(7) . . .
140(6) . . .
135(6) . . .
135(6) . . .
156(7) . . .
141(6) . . .
131(6) . . .
131(6) . . .
151(6) . . .
142(6) . . .
151(7) . . .
142(6) . . .
132(6) . . .
130(6) . . .
131(6) . . .
132(6) . . .
137(6) . . .
130(6) . . .
147(6) . . .
147(6) . . .
142(7) . . .
155(7) . . .
149(6) . . .
142(6) . . .
150(7) . . .
130(6) . . .
142(7) . . .
132(6) . . .
123(6) . . .
143(6) . . .
133(6) . . .
141(6) . . .
139(6) . . .
137(6) . . .
150(7) . . .
139(6) . . .
129(6) . . .
151(6) . . .
152(7) . . .
145(7) . . .
135(6) . . .
141(7) . . .
145(6) . . .
143(6) . . .
131(6) . . .
145(6) . . .
138(6) . . .
153(6) . . .
146(6) . . .
124(6) . . .
134(6) . . .
148(6) . . .
160(7) . . .
140(6) . . .
135(6) . . .
144(6) . . .
147(6) . . .
161(7) . . .
125(6) . . .
136(6) . . .
127(6) . . .
133(6) . . .
151(6) . . .
140(6) . . .
142(6) . . .
146(6) . . .
136(6) . . .
135(6) . . .
130(6) . . .
146(7) . . .
132(6) . . .
136(6) . . .
136(6) . . .
132(6) . . .
139(7) . . .
136(6) . . .
151(6) . . .
139(6) . . .
147(7) . . .
150(7) . . .
138(6) . . .
141(6) . . .
152(6) . . .
143(6) . . .
130(6) . . .
136(6) . . .
137(6) . . .
146(7) . . .
144(7) . . .
138(6) . . .
137(6) . . .
135(6) . . .
136(6) . . .
146(7) . . .
144(7) . . .
138(6) . . .
143(6) . . .
159(7) . . .
138(6) . . .
142(6) . . .
147(6) . . .
150(6) . . .
135(6) . . .
133(6) . . .
128(6) . . .
149(6) . . .
143(6) . . .
134(6) . . .
143(6) . . .
136(6) . . .
143(6) . . .
160(7) . . .
127(6) . . .
153(7) . . .
147(6) . . .
145(6) . . .
142(6) . . .
142(6) . . .
132(6) . . .
134(6) . . .
138(6) . . .
138(6) . . .
130(6) . . .
141(7) . . .
137(6) . . .
146(6) . . .
134(6) . . .
134(6) . . .
157(7) . . .
162(7) . . .
147(6) . . .
144(6) . . .
144(6) . . .
146(7) . . .
139(6) . . .
141(6) . . .
138(6) . . .
136(6) . . .
156(7) . . .
154(7) . . .
139(6) . . .
146(6) . . .
140(6) . . .
151(7) . . .
138(6) . . .
133(6) . . .
145(6) . . .
145(6) . . .
139(6) . . .
140(6) . . .
148(6) . . .
129(6) . . .
131(6) . . .
132(6) . . .
137(6) . . .
147(6) . . .
136(6) . . .
133(6) . . .
150(7) . . .
136(6) . . .
139(6) . . .
122(6) . . .
139(7) . . .
138(6) . . .
119(6) . . .
140(6) . . .
136(6) . . .
143(7) . . .
133(6) . . .
131(6) . . .
127(6) . . .
145(6) . . .
149(7) . . .
125(6) . . .
143(6) . . .
144(6) . . .
153(7) . . .
133(6) . . .
129(6) . . .
148(6) . . .
122(6) . . .
139(6) . . .
137(6) . . .
143(6) . . .
146(6) . . .
134(6) . . .
135(6) . . .
145(6) . . .
142(7) . . .
140(6) . . .
138(6) . . .
124(6) . . .
127(6) . . .
146(7) . . .
128(6) . . .
139(6) . . .
140(6) . . .
136(6) . . .
140(6) . . .
143(6) . . .
137(6) . . .
140(7) . . .
132(6) . . .
141(6) . . .
121(6) . . .
130(6) . . .
133(6) . . .
139(6) . . .
150(6) . . .
146(6) . . .
144(7) . . .
141(6) . . .
148(7) . . .
132(6) . . .
136(6) . . .
136(6) . . .
126(6) . . .
152(7) . . .
141(6) . . .
148(6) . . .
126(6) . . .
130(6) . . .
131(6) . . .
140(6) . . .
144(6) . . .
127(6) . . .
138(7) . . .
141(6) . . .
143(6) . . .
128(6) . . .
132(6) . . .
125(6) . . .
145(6) . . .
138(6) . . .
147(6) . . .
135(6) . . .
139(7) . . .
124(6) . . .
129(6) . . .
139(6) . . .
124(6) . . .
140(6) . . .
134(6) . . .
131(6) . . .
139(6) . . .
145(6) . . .
144(7) . . .
130(6) . . .
151(6) . . .
125(6) . . .
132(6) . . .
132(6) . . .
141(6) . . .
133(6) . . .
131(6) . . .
149(7) . . .
142(6) . . .
128(6) . . .
135(6) . . .
135(6) . . .
152(7) . . .
135(6) . . .
142(6) . . .
133(6) . . .
147(7) . . .
144(7) . . .
127(6) . . .
117(6) . . .
129(6) . . .
139(6) . . .
132(6) . . .
122(6) . . .
129(6) . . .
129(6) . . .
142(7) . . .
151(7) . . .
148(7) . . .
148(6) . . .
145(6) . . .
147(7) . . .
139(7) . . .
140(6) . . .
134(6) . . .
129(6) . . .
131(6) . . .
128(6) . . .
144(6) . . .
151(6) . . .
132(6) . . .
136(6) . . .
127(6) . . .
139(6) . . .
123(6) . . .
148(6) . . .
133(6) . . .
148(7) . . .
139(6) . . .
127(6) . . .
128(6) . . .
135(6) . . .
129(6) . . .
143(6) . . .
128(6) . . .
125(6) . . .
134(6) . . .
145(7) . . .
132(6) . . .
129(6) . . .
134(6) . . .
140(6) . . .
125(6) . . .
151(7) . . .
129(6) . . .
160(7) . . .
157(7) . . .
151(6) . . .
126(6) . . .
123(6) . . .
128(6) . . .
130(6) . . .
124(6) . . .
139(6) . . .
138(6) . . .
133(6) . . .
120(6) . . .
132(6) . . .
124(6) . . .
124(6) . . .
134(6) . . .
134(7) . . .
140(6) . . .
134(6) . . .
138(6) . . .
132(6) . . .
138(7) . . .
144(7) . . .
138(6) . . .
137(6) . . .
144(6) . . .
139(7) . . .
137(6) . . .
148(6) . . .
127(6) . . .
133(6) . . .
134(6) . . .
125(6) . . .
150(6) . . .
149(6) . . .
137(6) . . .
137(6) . . .
123(6) . . .
137(6) . . .
124(6) . . .
138(6) . . .
149(7) . . .
157(7) . . .
143(6) . . .
139(7) . . .
133(6) . . .
129(6) . . .
138(6) . . .
132(6) . . .
132(6) . . .
124(6) . . .
132(6) . . .
140(6) . . .
127(6) . . .
151(7) . . .
129(6) . . .
129(6) . . .
127(6) . . .
137(6) . . .
148(6) . . .
133(6) . . .
137(6) . . .
152(6) . . .
135(6) . . .
149(7) . . .
132(6) . . .
130(6) . . .
140(6) . . .
138(6) . . .
149(7) . . .
159(7) . . .
149(7) . . .
131(6) . . .
139(6) . . .
143(7) . . .
136(6) . . .
127(6) . . .
134(6) . . .
137(6) . . .
150(7) . . .
141(6) . . .
127(6) . . .
125(6) . . .
146(6) . . .
145(7) . . .
140(7) . . .
148(7) . . .
139(6) . . .
126(6) . . .
136(6) . . .
140(6) . . .
139(6) . . .
138(6) . . .
149(7) . . .
124(6) . . .
136(6) . . .
130(6) . . .
137(6) . . .
144(6) . . .
136(6) . . .
139(6) . . .
137(6) . . .
148(6) . . .
122(6) . . .
125(6) . . .
131(6) . . .
130(6) . . .
133(6) . . .
125(6) . . .
143(7) . . .
137(6) . . .
131(6) . . .
123(6) . . .
133(6) . . .
139(7) . . .
129(6) . . .
115(6) . . .
116(6) . . .
154(7) . . .
138(6) . . .
147(7) . . .
150(6) . . .
138(6) . . .
141(6) . . .
141(6) . . .
139(6) . . .
125(6) . . .
126(6) . . .
125(6) . . .
135(6) . . .
139(6) . . .
137(6) . . .
123(6) . . .
129(6) . . .
108(6) . . .
128(6) . . .
128(6) . . .
149(6) . . .
142(7) . . .
141(6) . . .
136(6) . . .
129(6) . . .
134(6) . . .
140(6) . . .
138(6) . . .
137(6) . . .
126(6) . . .
152(7) . . .
139(6) . . .
141(6) . . .
132(6) . . .
136(6) . . .
142(7) . . .
135(6) . . .
143(6) . . .
140(6) . . .
123(6) . . .
112(6) . . .
140(6) . . .
145(7) . . .
123(6) . . .
149(6) . . .
141(6) . . .
139(7) . . .
138(6) . . .
132(6) . . .
115(6) . . .
118(6) . . .
112(6) . . .
132(6) . . .
136(6) . . .
130(6) . . .
133(6) . . .
133(6) . . .
124(6) . . .
126(6) . . .
124(6) . . .
136(6) . . .
137(6) . . .
137(7) . . .
123(6) . . .
119(6) . . .
135(6) . . .
137(7) . . .
144(6) . . .
132(6) . . .
132(6) . . .
137(6) . . .
146(7) . . .
131(6) . . .
135(6) . . .
148(7) . . .
136(6) . . .
142(6) . . .
133(6) . . .
138(6) . . .
153(7) . . .
140(7) . . .
137(6) . . .
145(6) . . .
136(6) . . .
128(6) . . .
127(6) . . .
127(6) . . .
139(6) . . .
132(6) . . .
123(6) . . .
142(7) . . .
135(6) . . .
136(6) . . .
139(6) . . .
135(6) . . .
132(6) . . .
118(6) . . .
132(6) . . .
129(6) . . .
146(7) . . .
150(7) . . .
142(6) . . .
143(6) . . .
126(6) . . .
137(6) . . .
140(7) . . .
127(6) . . .
136(6) . . .
145(6) . . .
135(6) . . .
129(6) . . .
141(6) . . .
140(6) . . .
130(6) . . .
139(7) . . .
130(6) . . .
123(6) . . .
137(6) . . .
114(6) . . .
138(6) . . .
148(7) . . .
137(6) . . .
120(6) . . .
138(6) . . .
139(6) . . .
124(6) . . .
135(6) . . .
130(6) . . .
144(7) . . .
138(6) . . .
126(6) . . .
147(6) . . .
155(7) . . .
135(6) . . .
129(6) . . .
139(6) . . .
147(6) . . .
131(6) . . .
125(6) . . .
129(6) . . .
140(6) . . .
135(6) . . .
135(6) . . .
134(6) . . .
151(7) . . .
140(6) . . .
126(6) . . .
140(6) . . .
131(6) . . .
138(7) . . .
150(7) . . .
140(6) . . .
142(6) . . .
127(6) . . .
128(6) . . .
130(6) . . .
144(6) . . .
140(6) . . .
127(6) . . .
136(6) . . .
125(6) . . .
133(6) . . .
130(6) . . .
140(7) . . .
122(6) . . .
121(6) . . .
134(6) . . .
128(6) . . .
111(6) . . .
121(6) . . .
126(6) . . .
146(6) . . .
118(6) . . .
124(6) . . .
117(6) . . .
122(6) . . .
141(6) . . .
145(6) . . .
139(6) . . .
134(6) . . .
129(6) . . .
134(6) . . .
129(6) . . .
130(6) . . .
127(6) . . .
134(6) . . .
138(6) . . .
124(6) . . .
118(6) . . .
116(6) . . .
132(6) . . .
124(6) . . .
137(6) . . .
136(6) . . .
145(6) . . .
135(6) . . .
135(6) . . .
128(6) . . .
131(6) . . .
120(6) . . .
123(6) . . .
154(7) . . .
139(6) . . .
130(6) . . .
156(7) . . .
142(6) . . .
140(6) . . .
125(6) . . .
132(6) . . .
125(6) . . .
138(6) . . .
155(7) . . .
127(6) . . .
133(6) . . .
134(6) . . .
144(6) . . .
140(6) . . .
132(6) . . .
137(6) . . .
125(6) . . .
130(6) . . .
132(6) . . .
129(6) . . .
130(6) . . .
141(6) . . .
132(6) . . .
142(6) . . .
131(6) . . .
148(7) . . .
124(6) . . .
133(6) . . .
140(6) . . .
142(7) . . .
137(6) . . .
117(6) . . .
134(6) . . .
117(6) . . .
147(7) . . .
134(6) . . .
135(6) . . .
147(6) . . .
134(6) . . .
130(6) . . .
148(7) . . .
130(6) . . .
127(6) . . .
142(6) . . .
136(6) . . .
132(6) . . .
136(6) . . .
129(6) . . .
131(6) . . .
135(7) . . .
121(6) . . .
121(6) . . .
131(6) . . .
130(6) . . .
117(6) . . .
135(6) . . .
136(6) . . .
144(6) . . .
142(6) . . .
145(7) . . .
132(6) . . .
121(6) . . .
125(6) . . .
132(6) . . .
128(6) . . .
132(6) . . .
134(6) . . .
140(6) . . .
142(6) . . .
131(6) . . .
131(6) . . .
142(6) . . .
123(6) . . .
128(6) . . .
131(6) . . .
135(6) . . .
138(6) . . .
123(6) . . .
131(6) . . .
144(7) . . .
130(6) . . .
141(6) . . .
125(6) . . .
129(6) . . .
125(6) . . .
122(6) . . .
122(6) . . .
125(6) . . .
118(6) . . .
143(6) . . .
140(6) . . .
125(6) . . .
133(6) . . .
122(6) . . .
128(6) . . .
127(6) . . .
133(6) . . .
140(6) . . .
124(6) . . .
138(6) . . .
153(6) . . .
151(7) . . .
128(6) . . .
127(6) . . .
121(6) . . .
129(6) . . .
136(6) . . .
119(6) . . .
125(6) . . .
138(6) . . .
129(6) . . .
131(6) . . .
136(6) . . .
122(6) . . .
136(6) . . .
119(6) . . .
138(6) . . .
139(7) . . .
148(7) . . .
136(6) . . .
120(6) . . .
117(6) . . .
124(6) . . .
136(6) . . .
129(6) . . .
129(6) . . .
124(6) . . .
131(6) . . .
136(6) . . .
136(6) . . .
141(6) . . .
118(6) . . .
136(6) . . .
135(6) . . .
128(6) . . .
128(6) . . .
141(6) . . .
138(6) . . .
141(6) . . .
135(6) . . .
129(6) . . .
137(6) . . .
122(6) . . .
131(6) . . .
130(6) . . .
133(6) . . .
129(6) . . .
131(6) . . .
117(6) . . .
129(6) . . .
140(6) . . .
154(7) . . .
125(6) . . .
123(6) . . .
127(6) . . .
138(6) . . .
153(7) . . .
132(6) . . .
137(6) . . .
123(6) . . .
126(6) . . .
125(6) . . .
126(6) . . .
128(6) . . .
116(6) . . .
133(6) . . .
137(6) . . .
126(6) . . .
111(6) . . .
125(6) . . .
126(6) . . .
110(6) . . .
129(6) . . .
116(6) . . .
122(6) . . .
122(6) . . .
125(6) . . .
121(6) . . .
141(6) . . .
132(6) . . .
137(6) . . .
132(6) . . .
128(6) . . .
135(6) . . .
124(6) . . .
121(6) . . .
120(6) . . .
130(6) . . .
117(6) . . .
123(6) . . .
120(6) . . .
119(6) . . .
130(6) . . .
141(6) . . .
143(6) . . .
114(6) . . .
131(6) . . .
122(6) . . .
116(6) . . .
121(6) . . .
121(6) . . .
128(6) . . .
136(6) . . .
146(6) . . .
127(6) . . .
127(6) . . .
124(6) . . .
117(6) . . .
124(6) . . .
116(6) . . .
130(6) . . .
138(6) . . .
123(6) . . .
130(6) . . .
138(6) . . .
129(6) . . .
139(6) . . .
141(6) . . .
130(6) . . .
124(6) . . .
119(6) . . .
125(6) . . .
135(6) . . .
127(6) . . .
125(6) . . .
116(6) . . .
145(7) . . .
135(6) . . .
132(6) . . .
117(6) . . .
130(6) . . .
134(6) . . .
141(6) . . .
129(6) . . .
132(6) . . .
132(6) . . .
138(6) . . .
121(6) . . .
127(6) . . .
113(6) . . .
132(6) . . .
131(6) . . .
116(6) . . .
131(6) . . .
147(7) . . .
132(6) . . .
116(6) . . .
128(6) . . .
126(6) . . .
134(6) . . .
149(7) . . .
135(6) . . .
142(6) . . .
134(6) . . .
134(6) . . .
137(6) . . .
125(6) . . .
125(6) . . .
122(6) . . .
131(6) . . .
126(6) . . .
131(6) . . .
132(6) . . .
120(6) . . .
123(6) . . .
141(7) . . .
127(6) . . .
123(6) . . .
138(6) . . .
131(6) . . .
132(6) . . .
141(6) . . .
121(6) . . .
125(6) . . .
130(6) . . .
136(6) . . .
138(6) . . .
138(6) . . .
117(6) . . .
131(6) . . .
130(6) . . .
129(6) . . .
139(6) . . .
112(6) . . .
133(7) . . .
132(6) . . .
131(6) . . .
135(6) . . .
137(6) . . .
143(7) . . .
131(6) . . .
131(6) . . .
130(6) . . .
151(7) . . .
139(6) . . .
142(6) . . .
130(6) . . .
133(6) . . .
134(6) . . .
131(7) . . .
134(7) . . .
111(5) . . .
135(6) . . .
120(6) . . .
120(6) . . .
130(6) . . .
131(6) . . .
141(6) . . .
140(6) . . .
116(6) . . .
129(6) . . .
125(6) . . .
122(6) . . .
120(6) . . .
139(6) . . .
133(6) . . .
137(6) . . .
119(6) . . .
131(6) . . .
127(6) . . .
139(6) . . .
138(6) . . .
130(6) . . .
128(6) . . .
140(6) . . .
136(6) . . .
131(6) . . .
130(6) . . .
123(6) . . .
125(6) . . .
138(6) . . .
130(6) . . .
148(7) . . .
137(6) . . .
136(6) . . .
128(6) . . .
125(6) . . .
132(6) . . .
127(6) . . .
130(6) . . .
121(6) . . .
114(6) . . .
129(6) . . .
128(6) . . .
144(7) . . .
144(6) . . .
124(6) . . .
129(6) . . .
131(6) . . .
134(6) . . .
129(6) . . .
131(6) . . .
133(6) . . .
135(6) . . .
131(6) . . .
119(6) . . .
126(6) . . .
132(6) . . .
134(6) . . .
139(6) . . .
126(6) . . .
130(6) . . .
135(6) . . .
147(6) . . .
144(6) . . .
143(6) . . .
136(6) . . .
126(6) . . .
128(6) . . .
128(6) . . .
118(6) . . .
128(6) . . .
124(6) . . .
138(7) . . .
112(6) . . .
132(6) . . .
127(6) . . .
136(6) . . .
138(6) . . .
143(6) . . .
139(6) . . .
130(6) . . .
145(7) . . .
136(6) . . .
112(6) . . .
138(6) . . .
129(6) . . .
127(6) . . .
134(6) . . .
133(6) . . .
121(6) . . .
126(6) . . .
126(6) . . .
132(6) . . .
137(6) . . .
132(6) . . .
135(6) . . .
120(6) . . .
127(6) . . .
126(6) . . .
140(6) . . .
124(6) . . .
125(6) . . .
122(6) . . .
121(6) . . .
139(6) . . .
138(6) . . .
124(6) . . .
130(6) . . .
137(6) . . .
128(6) . . .
116(6) . . .
133(6) . . .
117(6) . . .
118(6) . . .
126(6) . . .
133(6) . . .
125(6) . . .
132(6) . . .
132(6) . . .
133(6) . . .
136(6) . . .
122(6) . . .
120(6) . . .
128(6) . . .
130(6) . . .
130(6) . . .
133(6) . . .
128(6) . . .
140(6) . . .
143(7) . . .
120(6) . . .
133(6) . . .
125(6) . . .
121(6) . . .
132(6) . . .
121(6) . . .
123(6) . . .
124(6) . . .
117(6) . . .
129(6) . . .
135(6) . . .
135(6) . . .
129(6) . . .
114(6) . . .
125(6) . . .
124(6) . . .
142(7) . . .
130(6) . . .
118(6) . . .
118(6) . . .
123(6) . . .
134(6) . . .
129(6) . . .
132(6) . . .
120(6) . . .
127(6) . . .
125(6) . . .
130(6) . . .
135(6) . . .
125(6) . . .
133(6) . . .
132(6) . . .
103(5) . . .
128(6) . . .
132(6) . . .
134(6) . . .
125(6) . . .
143(6) . . .
133(6) . . .
128(6) . . .
128(6) . . .
127(6) . . .
128(6) . . .
125(6) . . .
107(6) . . .
135(6) . . .
137(6) . . .
133(6) . . .
117(6) . . .
127(6) . . .
122(6) . . .
118(6) . . .
125(6) . . .
125(6) . . .
115(6) . . .
132(6) . . .
132(6) . . .
122(6) . . .
130(6) . . .
113(6) . . .
133(6) . . .
124(6) . . .
118(6) . . .
142(6) . . .
140(7) . . .
136(6) . . .
127(6) . . .
130(6) . . .
131(6) . . .
135(7) . . .
131(6) . . .
133(6) . . .
137(6) . . .
115(6) . . .
124(6) . . .
128(6) . . .
123(6) . . .
131(6) . . .
108(6) . . .
120(6) . . .
125(6) . . .
131(6) . . .
130(6) . . .
119(6) . . .
122(6) . . .
119(6) . . .
135(6) . . .
112(6) . . .
123(6) . . .
131(6) . . .
124(6) . . .
120(6) . . .
144(7) . . .
126(6) . . .
126(6) . . .
116(6) . . .
127(6) . . .
123(6) . . .
126(6) . . .
132(6) . . .
125(6) . . .
130(6) . . .
131(6) . . .
132(6) . . .
119(6) . . .
124(6) . . .
120(6) . . .
117(6) . . .
120(6) . . .
127(6) . . .
121(6) . . .
130(6) . . .
126(6) . . .
113(6) . . .
128(6) . . .
130(6) . . .
126(6) . . .
122(6) . . .
134(6) . . .
138(6) . . .
129(6) . . .
138(6) . . .
147(7) . . .
120(6) . . .
117(6) . . .
128(6) . . .
129(6) . . .
122(6) . . .
128(6) . . .
124(6) . . .
132(6) . . .
122(6) . . .
124(6) . . .
129(6) . . .
145(7) . . .
134(6) . . .
129(6) . . .
128(6) . . .
122(6) . . .
129(6) . . .
127(6) . . .
130(6) . . .
124(6) . . .
139(6) . . .
146(6) . . .
133(6) . . .
127(6) . . .
134(6) . . .
115(6) . . .
118(6) . . .
126(6) . . .
134(6) . . .
122(6) . . .
126(6) . . .
119(6) . . .
108(5) . . .
131(6) . . .
129(6) . . .
119(6) . . .
146(6) . . .
139(6) . . .
139(6) . . .
119(6) . . .
108(6) . . .
125(6) . . .
125(6) . . .
119(6) . . .
128(6) . . .
121(6) . . .
137(6) . . .
143(6) . . .
126(6) . . .
123(6) . . .
121(6) . . .
121(6) . . .
130(6) . . .
111(6) . . .
127(6) . . .
125(6) . . .
129(6) . . .
129(6) . . .
120(6) . . .
145(7) . . .
131(6) . . .
138(6) . . .
123(6) . . .
132(6) . . .
120(6) . . .
133(6) . . .
131(6) . . .
131(6) . . .
135(6) . . .
140(6) . . .
122(6) . . .
125(6) . . .
133(6) . . .
123(6) . . .
126(6) . . .
127(6) . . .
148(6) . . .
128(6) . . .
129(6) . . .
129(6) . . .
132(6) . . .
121(6) . . .
129(6) . . .
124(6) . . .
128(6) . . .
121(6) . . .
123(6) . . .
122(6) . . .
131(6) . . .
127(6) . . .
118(6) . . .
130(6) . . .
133(6) . . .
118(6) . . .
112(6) . . .
129(6) . . .
121(6) . . .
129(6) . . .
132(6) . . .
127(6) . . .
135(6) . . .
127(6) . . .
127(6) . . .
131(6) . . .
120(6) . . .
106(5) . . .
122(6) . . .
131(6) . . .
123(6) . . .
126(6) . . .
109(5) . . .
128(6) . . .
121(6) . . .
128(6) . . .
128(6) . . .
124(6) . . .
121(6) . . .
113(6) . . .
115(6) . . .
115(6) . . .
126(6) . . .
115(6) . . .
124(6) . . .
129(6) . . .
116(6) . . .
138(6) . . .
126(6) . . .
130(6) . . .
119(6) . . .
128(6) . . .
129(6) . . .
114(6) . . .
135(7) . . .
115(6) . . .
129(6) . . .
121(6) . . .
115(6) . . .
129(6) . . .
127(6) . . .
122(6) . . .
127(6) . . .
109(6) . . .
125(6) . . .
118(6) . . .
136(6) . . .
126(6) . . .
118(6) . . .
136(7) . . .
131(6) . . .
118(6) . . .
116(6) . . .
117(6) . . .
109(6) . . .
107(6) . . .
111(5) . . .
116(6) . . .
127(6) . . .
119(6) . . .
133(6) . . .
136(6) . . .
119(6) . . .
119(6) . . .
109(6) . . .
122(6) . . .
136(6) . . .
126(6) . . .
111(6) . . .
133(6) . . .
120(6) . . .
112(6) . . .
128(6) . . .
117(6) . . .
130(6) . . .
123(6) . . .
127(6) . . .
112(6) . . .
116(6) . . .
129(6) . . .
104(5) . . .
116(6) . . .
135(7) . . .
125(6) . . .
123(6) . . .
125(6) . . .
107(5) . . .
137(6) . . .
123(6) . . .
126(6) . . .
122(6) . . .
123(6) . . .
115(6) . . .
127(6) . . .
123(6) . . .
123(6) . . .
112(5) . . .
117(6) . . .
116(6) . . .
136(6) . . .
133(6) . . .
117(6) . . .
128(6) . . .
135(6) . . .
130(6) . . .
121(6) . . .
111(5) . . .
124(6) . . .
116(6) . . .
126(6) . . .
115(6) . . .
119(6) . . .
137(6) . . .
149(7) . . .
120(6) . . .
119(6) . . .
113(5) . . .
133(6) . . .
123(6) . . .
133(6) . . .
137(6) . . .
122(6) . . .
129(6) . . .
98(5) . . .
112(6) . . .
128(6) . . .
122(6) . . .
125(6) . . .
134(6) . . .
123(6) . . .
121(6) . . .
128(6) . . .
130(6) . . .
124(6) . . .
130(6) . . .
114(6) . . .
124(6) . . .
112(6) . . .
127(6) . . .
110(5) . . .
121(6) . . .
136(6) . . .
126(6) . . .
107(5) . . .
127(6) . . .
114(6) . . .
120(6) . . .
115(6) . . .
118(6) . . .
120(6) . . .
135(6) . . .
127(6) . . .
113(6) . . .
104(5) . . .
118(6) . . .
116(6) . . .
121(6) . . .
119(6) . . .
131(6) . . .
124(6) . . .
117(6) . . .
110(6) . . .
119(6) . . .
122(6) . . .
137(6) . . .
132(6) . . .
120(6) . . .
118(6) . . .
126(6) . . .
111(6) . . .
136(6) . . .
118(6) . . .
125(6) . . .
118(6) . . .
123(6) . . .
132(6) . . .
114(6) . . .
117(6) . . .
141(6) . . .
127(6) . . .
110(6) . . .
115(6) . . .
129(6) . . .
134(6) . . .
129(6) . . .
115(6) . . .
119(6) . . .
131(6) . . .
131(6) . . .
112(6) . . .
112(6) . . .
124(6) . . .
111(6) . . .
123(6) . . .
119(6) . . .
123(6) . . .
124(7) . . .
124(6) . . .
122(6) . . .
121(6) . . .
127(6) . . .
119(6) . . .
125(6) . . .
114(6) . . .
126(6) . . .
120(6) . . .
120(6) . . .
121(6) . . .
126(6) . . .
129(6) . . .
129(6) . . .
129(6) . . .
114(6) . . .
129(6) . . .
122(6) . . .
117(6) . . .
111(6) . . .
125(6) . . .
136(6) . . .
121(6) . . .
137(7) . . .
135(6) . . .
118(6) . . .
121(6) . . .
127(6) . . .
124(6) . . .
117(6) . . .
121(6) . . .
128(6) . . .
119(6) . . .
119(6) . . .
120(6) . . .
122(6) . . .
133(6) . . .
125(6) . . .
125(6) . . .
133(6) . . .
133(6) . . .
120(6) . . .
130(6) . . .
135(7) . . .
121(6) . . .
121(6) . . .
115(6) . . .
116(6) . . .
109(6) . . .
123(6) . . .
116(6) . . .
117(6) . . .
128(6) . . .
125(6) . . .
114(6) . . .
111(5) . . .
124(6) . . .
113(6) . . .
124(6) . . .
109(6) . . .
131(6) . . .
112(5) . . .
126(6) . . .
112(6) . . .
128(6) . . .
129(6) . . .
118(6) . . .
102(5) . . .
107(6) . . .
120(6) . . .
119(6) . . .
122(6) . . .
124(6) . . .
124(6) . . .
115(6) . . .
117(6) . . .
123(6) . . .
112(6) . . .
122(6) . . .
118(6) . . .
131(6) . . .
115(6) . . .
116(6) . . .
123(6) . . .
116(6) . . .
126(6) . . .
128(6) . . .
126(6) . . .
130(6) . . .
111(5) . . .
102(5) . . .
112(6) . . .
125(6) . . .
128(6) . . .
123(6) . . .
125(6) . . .
114(6) . . .
127(6) . . .
119(6) . . .
117(6) . . .
122(6) . . .
120(6) . . .
133(6) . . .
122(6) . . .
127(6) . . .
102(5) . . .
120(6) . . .
121(6) . . .
119(6) . . .
116(6) . . .
115(6) . . .
114(6) . . .
102(6) . . .
118(6) . . .
124(6) . . .
123(6) . . .
124(6) . . .
114(6) . . .
129(6) . . .
120(6) . . .
119(6) . . .
122(6) . . .
117(6) . . .
105(6) . . .
110(5) . . .
118(6) . . .
137(6) . . .
126(6) . . .
107(5) . . .
118(6) . . .
119(6) . . .
121(6) . . .
129(6) . . .
116(6) . . .
120(6) . . .
123(6) . . .
123(6) . . .
124(6) . . .
112(6) . . .
124(6) . . .
115(6) . . .
119(6) . . .
117(6) . . .
122(6) . . .
126(6) . . .
121(6) . . .
128(6) . . .
120(6) . . .
111(6) . . .
124(6) . . .
118(6) . . .
111(6) . . .
120(6) . . .
116(6) . . .
116(6) . . .
129(6) . . .
136(7) . . .
108(6) . . .
112(5) . . .
117(6) . . .
113(6) . . .
113(6) . . .
117(6) . . .
121(6) . . .
130(6) . . .
119(6) . . .
123(6) . . .
117(6) . . .
138(6) . . .
123(6) . . .
112(6) . . .
121(6) . . .
128(6) . . .
119(6) . . .
131(6) . . .
116(6) . . .
122(6) . . .
122(6) . . .
120(6) . . .
109(5) . . .
123(6) . . .
118(6) . . .
127(6) . . .
119(6) . . .
133(6) . . .
113(6) . . .
125(6) . . .
131(6) . . .
112(6) . . .
123(6) . . .
111(6) . . .
119(6) . . .
123(6) . . .
133(6) . . .
121(6) . . .
142(7) . . .
108(5) . . .
132(6) . . .
119(6) . . .
127(6) . . .
129(6) . . .
132(6) . . .
115(6) . . .
130(6) . . .
118(6) . . .
110(6) . . .
104(5) . . .
116(6) . . .
125(6) . . .
111(6) . . .
146(7) . . .
132(6) . . .
117(6) . . .
110(6) . . .
121(6) . . .
107(6) . . .
115(6) . . .
100(5) . . .
114(6) . . .
118(6) . . .
112(6) . . .
125(6) . . .
125(6) . . .
137(6) . . .
128(6) . . .
131(6) . . .
116(6) . . .
129(6) . . .
124(6) . . .
132(6) . . .
133(6) . . .
126(6) . . .
116(6) . . .
111(6) . . .
122(6) . . .
110(6) . . .
119(6) . . .
129(6) . . .
117(6) . . .
110(6) . . .
123(6) . . .
135(6) . . .
126(6) . . .
120(6) . . .
126(6) . . .
112(6) . . .
100(5) . . .
108(5) . . .
114(6) . . .
120(6) . . .
130(6) . . .
127(6) . . .
108(5) . . .
118(6) . . .
126(6) . . .
119(6) . . .
116(6) . . .
118(6) . . .
117(6) . . .
104(6) . . .
111(6) . . .
107(5) . . .
117(6) . . .
125(6) . . .
116(6) . . .
99(5) . . .
113(6) . . .
114(6) . . .
109(6) . . .
112(6) . . .
132(6) . . .
124(6) . . .
132(6) . . .
120(6) . . .
117(6) . . .
119(6) . . .
107(5) . . .
118(6) . . .
113(6) . . .
121(6) . . .
117(6) . . .
113(5) . . .
130(6) . . .
124(6) . . .
129(6) . . .
121(6) . . .
123(6) . . .
113(6) . . .
119(6) . . .
115(6) . . .
118(6) . . .
128(6) . . .
115(6) . . .
128(6) . . .
133(6) . . .
122(6) . . .
105(5) . . .
120(6) . . .
119(6) . . .
131(6) . . .
133(6) . . .
112(6) . . .
109(6) . . .
91(5) . . .
123(6) . . .
123(6) . . .
117(6) . . .
113(6) . . .
110(6) . . .
121(6) . . .
110(5) . . .
123(6) . . .
120(6) . . .
121(6) . . .
104(6) . . .
105(5) . . .
114(6) . . .
122(6) . . .
138(7) . . .
115(6) . . .
118(6) . . .
130(6) . . .
132(6) . . .
113(6) . . .
105(5) . . .
129(6) . . .
126(6) . . .
111(6) . . .
107(6) . . .
112(6) . . .
113(6) . . .
118(6) . . .
124(6) . . .
106(5) . . .
115(6) . . .
120(6) . . .
124(6) . . .
128(6) . . .
114(6) . . .
115(6) . . .
131(6) . . .
110(6) . . .
120(6) . . .
115(6) . . .
117(6) . . .
127(6) . . .
126(6) . . .
115(6) . . .
101(6) . . .
129(6) . . .
123(6) . . .
104(5) . . .
131(7) . . .
111(5) . . .
122(6) . . .
107(5) . . .
107(6) . . .
120(6) . . .
133(6) . . .
121(6) . . .
109(5) . . .
125(6) . . .
129(6) . . .
113(6) . . .
119(6) . . .
126(6) . . .
125(6) . . .
124(6) . . .
121(6) . . .
120(6) . . .
120(6) . . .
121(6) . . .
109(6) . . .
106(5) . . .
119(6) . . .
118(6) . . .
127(6) . . .
116(6) . . .
109(6) . . .
124(6) . . .
123(6) . . .
118(6) . . .
124(6) . . .
123(6) . . .
120(6) . . .
122(6) . . .
126(6) . . .
117(6) . . .
119(6) . . .
111(5) . . .
128(6) . . .
128(6) . . .
130(6) . . .
128(6) . . .
119(6) . . .
115(6) . . .
119(6) . . .
120(6) . . .
128(6) . . .
123(6) . . .
113(6) . . .
117(6) . . .
132(6) . . .
117(6) . . .
116(6) . . .
123(6) . . .
113(6) . . .
128(6) . . .
115(6) . . .
119(6) . . .
113(6) . . .
118(6) . . .
108(6) . . .
119(6) . . .
126(6) . . .
109(6) . . .
114(6) . . .
114(6) . . .
117(6) . . .
103(5) . . .
123(6) . . .
123(6) . . .
108(5) . . .
133(6) . . .
126(6) . . .
125(6) . . .
120(6) . . .
131(6) . . .
125(6) . . .
128(6) . . .
121(6) . . .
124(6) . . .
122(6) . . .
105(5) . . .
110(6) . . .
117(6) . . .
136(7) . . .
116(6) . . .
118(6) . . .
124(6) . . .
111(6) . . .
122(6) . . .
127(6) . . .
119(6) . . .
114(6) . . .
130(6) . . .
128(6) . . .
129(6) . . .
125(6) . . .
127(6) . . .
129(6) . . .
121(6) . . .
120(6) . . .
117(6) . . .
130(6) . . .
121(6) . . .
124(6) . . .
119(6) . . .
128(6) . . .
130(6) . . .
115(6) . . .
111(6) . . .
124(6) . . .
130(6) . . .
117(6) . . .
131(6) . . .
116(6) . . .
119(6) . . .
122(6) . . .
111(6) . . .
126(6) . . .
126(6) . . .
120(6) . . .
123(6) . . .
130(6) . . .
106(6) . . .
122(6) . . .
134(6) . . .
110(6) . . .
115(6) . . .
121(6) . . .
116(6) . . .
104(5) . . .
117(6) . . .
120(6) . . .
126(6) . . .
127(6) . . .
119(6) . . .
118(6) . . .
109(6) . . .
120(6) . . .
98(5) . . .
111(5) . . .
125(6) . . .
134(6) . . .
115(6) . . .
103(5) . . .
111(5) . . .
128(6) . . .
132(6) . . .
131(6) . . .
126(6) . . .
110(5) . . .
115(6) . . .
110(6) . . .
111(6) . . .
118(6) . . .
120(6) . . .
119(6) . . .
114(6) . . .
114(6) . . .
124(6) . . .
114(6) . . .
120(6) . . .
110(6) . . .
118(6) . . .
127(6) . . .
100(5) . . .
115(6) . . .
107(5) . . .
113(6) . . .
118(6) . . .
128(6) . . .
111(6) . . .
120(6) . . .
110(6) . . .
117(6) . . .
135(6) . . .
127(6) . . .
123(6) . . .
114(6) . . .
106(5) . . .
112(6) . . .
104(5) . . .
126(6) . . .
125(6) . . .
125(6) . . .
123(6) . . .
116(6) . . .
116(6) . . .
124(6) . . .
117(6) . . .
115(6) . . .
134(6) . . .
126(6) . . .
120(6) . . .
103(5) . . .
112(6) . . .
134(6) . . .
128(6) . . .
122(6) . . .
122(6) . . .
109(6) . . .
119(6) . . .
108(6) . . .
120(6) . . .
121(6) . . .
130(6) . . .
121(6) . . .
114(6) . . .
103(5) . . .
103(5) . . .
117(6) . . .
117(6) . . .
108(6) . . .
113(6) . . .
108(5) . . .
110(6) . . .
127(6) . . .
122(6) . . .
112(5) . . .
120(6) . . .
124(6) . . .
114(6) . . .
113(6) . . .
105(5) . . .
100(5) . . .
111(6) . . .
106(6) . . .
108(6) . . .
114(6) . . .
103(5) . . .
121(6) . . .
113(6) . . .
124(6) . . .
117(6) . . .
106(5) . . .
120(6) . . .
122(6) . . .
114(6) . . .
112(5) . . .
125(6) . . .
115(6) . . .
117(6) . . .
114(6) . . .
122(6) . . .
113(6) . . .
107(6) . . .
118(6) . . .
117(6) . . .
113(6) . . .
123(6) . . .
112(6) . . .
106(6) . . .
120(6) . . .
119(6) . . .
120(6) . . .
117(6) . . .
106(6) . . .
110(5) . . .
127(6) . . .
116(6) . . .
120(6) . . .
125(6) . . .
118(6) . . .
115(6) . . .
125(6) . . .
118(6) . . .
125(6) . . .
96(5) . . .
108(5) . . .
128(6) . . .
120(6) . . .
124(6) . . .
124(6) . . .
117(6) . . .
128(6) . . .
117(6) . . .
119(6) . . .
133(6) . . .
108(6) . . .
125(6) . . .
135(6) . . .
118(6) . . .
129(6) . . .
124(6) . . .
127(6) . . .
115(6) . . .
105(5) . . .
99(5) . . .
117(6) . . .
121(6) . . .
110(5) . . .
121(6) . . .
133(6) . . .
123(6) . . .
101(6) . . .
123(6) . . .
113(6) . . .
124(6) . . .
130(6) . . .
115(6) . . .
107(6) . . .
124(6) . . .
128(6) . . .
107(5) . . .
117(6) . . .
113(6) . . .
111(6) . . .
126(6) . . .
122(6) . . .
121(6) . . .
118(6) . . .
100(5) . . .
117(6) . . .
122(6) . . .
127(6) . . .
104(5) . . .
118(6) . . .
114(6) . . .
110(6) . . .
112(6) . . .
114(6) . . .
117(6) . . .
106(5) . . .
117(6) . . .
110(6) . . .
111(6) . . .
114(6) . . .
125(6) . . .
119(6) . . .
115(6) . . .
123(6) . . .
115(6) . . .
101(5) . . .
124(6) . . .
113(6) . . .
110(6) . . .
119(6) . . .
119(6) . . .
124(6) . . .
115(6) . . .
118(6) . . .
115(6) . . .
110(6) . . .
114(6) . . .
130(6) . . .
109(5) . . .
108(5) . . .
110(6) . . .
128(6) . . .
129(6) . . .
109(5) . . .
123(6) . . .
119(6) . . .
104(6) . . .
99(5) . . .
109(5) . . .
111(5) . . .
123(6) . . .
119(6) . . .
126(6) . . .
115(6) . . .
103(5) . . .
108(6) . . .
115(6) . . .
122(6) . . .
103(5) . . .
123(6) . . .
117(6) . . .
133(6) . . .
127(6) . . .
109(5) . . .
122(6) . . .
111(6) . . .
105(5) . . .
109(6) . . .
105(5) . . .
116(6) . . .
108(6) . . .
113(6) . . .
116(6) . . .
112(6) . . .
121(6) . . .
112(6) . . .
124(6) . . .
100(5) . . .
109(5) . . .
113(6) . . .
122(6) . . .
122(6) . . .
122(6) . . .
104(5) . . .
106(5) . . .
112(6) . . .
108(6) . . .
108(5) . . .
131(6) . . .
116(6) . . .
109(6) . . .
108(6) . . .
118(6) . . .
119(6) . . .
110(6) . . .
110(6) . . .
105(6) . . .
120(6) . . .
100(5) . . .
104(6) . . .
106(6) . . .
109(6) . . .
108(5) . . .
109(6) . . .
110(6) . . .
111(6) . . .
116(6) . . .
123(6) . . .
114(6) . . .
110(6) . . .
114(6) . . .
115(6) . . .
114(6) . . .
107(6) . . .
114(6) . . .
122(6) . . .
121(6) . . .
100(5) . . .
109(5) . . .
119(6) . . .
119(6) . . .
111(6) . . .
106(5) . . .
122(6) . . .
110(6) . . .
111(6) . . .
119(6) . . .
115(6) . . .
116(6) . . .
105(6) . . .
110(6) . . .
113(6) . . .
98(5) . . .
99(5) . . .
108(6) . . .
110(6) . . .
107(6) . . .
118(6) . . .
109(6) . . .
121(6) . . .
124(6) . . .
108(5) . . .
103(5) . . .
127(6) . . .
105(6) . . .
110(6) . . .
98(5) . . .
109(5) . . .
120(6) . . .
113(6) . . .
102(5) . . .
104(5) . . .
110(5) . . .
112(6) . . .
120(6) . . .
116(6) . . .
109(5) . . .
108(5) . . .
105(5) . . .
117(6) . . .
121(6) . . .
109(5) . . .
99(5) . . .
99(5) . . .
107(6) . . .
111(6) . . .
103(5) . . .
109(6) . . .
101(5) . . .
106(5) . . .
105(5) . . .
117(6) . . .
114(6) . . .
120(6) . . .
127(6) . . .
117(6) . . .
117(6) . . .
111(6) . . .
99(5) . . .
100(5) . . .
108(6) . . .
108(5) . . .
98(5) . . .
117(6) . . .
120(6) . . .
107(5) . . .
116(6) . . .
113(6) . . .
112(6) . . .
113(6) . . .
114(6) . . .
117(6) . . .
138(6) . . .
125(6) . . .
115(6) . . .
103(5) . . .
101(5) . . .
114(6) . . .
125(6) . . .
102(5) . . .
113(6) . . .
107(5) . . .
103(5) . . .
112(6) . . .
109(6) . . .
101(5) . . .
107(5) . . .
95(5) . . .
108(6) . . .
103(6) . . .
102(5) . . .
102(5) . . .
119(6) . . .
105(5) . . .
99(5) . . .
113(6) . . .
114(6) . . .
111(6) . . .
116(6) . . .
107(6) . . .
109(5) . . .
121(6) . . .
106(6) . . .
112(6) . . .
99(5) . . .
93(5) . . .
116(6) . . .
113(6) . . .
112(6) . . .
119(6) . . .
104(5) . . .
101(5) . . .
108(6) . . .
110(6) . . .
117(6) . . .
108(5) . . .
112(6) . . .
113(6) . . .
120(6) . . .
113(6) . . .
102(5) . . .
128(6) . . .
111(6) . . .
117(6) . . .
124(6) . . .
122(6) . . .
110(6) . . .
94(5) . . .
110(6) . . .
108(5) . . .
110(5) . . .
117(6) . . .
113(6) . . .
120(6) . . .
99(5) . . .
104(5) . . .
105(5) . . .
111(6) . . .
126(6) . . .
133(6) . . .
126(6) . . .
102(5) . . .
116(6) . . .
112(6) . . .
104(5) . . .
112(6) . . .
120(6) . . .
109(6) . . .
116(6) . . .
114(6) . . .
114(6) . . .
99(5) . . .
109(6) . . .
99(5) . . .
103(5) . . .
104(5) . . .
108(6) . . .
125(6) . . .
105(5) . . .
108(5) . . .
115(6) . . .
99(5) . . .
124(6) . . .
116(6) . . .
113(6) . . .
115(6) . . .
106(6) . . .
111(6) . . .
108(5) . . .
112(6) . . .
123(6) . . .
110(6) . . .
109(6) . . .
110(6) . . .
122(6) . . .
110(6) . . .
120(6) . . .
103(5) . . .
113(5) . . .
106(5) . . .
105(6) . . .
112(6) . . .
113(6) . . .
120(6) . . .
112(5) . . .
104(5) . . .
109(6) . . .
125(6) . . .
122(6) . . .
105(5) . . .
111(6) . . .
108(6) . . .
109(6) . . .
118(6) . . .
110(6) . . .
116(6) . . .
118(6) . . .
113(6) . . .
100(5) . . .
107(6) . . .
102(6) . . .
113(6) . . .
106(5) . . .
117(6) . . .
111(6) . . .
129(6) . . .
111(5) . . .
113(6) . . .
103(5) . . .
109(6) . . .
114(6) . . .
117(6) . . .
116(6) . . .
117(6) . . .
105(6) . . .
123(6) . . .
123(6) . . .
98(5) . . .
121(6) . . .
103(5) . . .
107(6) . . .
112(6) . . .
98(5) . . .
118(6) . . .
116(6) . . .
118(6) . . .
107(5) . . .
115(6) . . .
112(5) . . .
130(6) . . .
125(6) . . .
124(6) . . .
114(6) . . .
105(5) . . .
121(6) . . .
119(6) . . .
112(6) . . .
125(6) . . .
130(6) . . .
123(6) . . .
114(6) . . .
107(6) . . .
122(6) . . .
126(6) . . .
117(6) . . .
116(6) . . .
104(5) . . .
105(5) . . .
99(5) . . .
114(6) . . .
108(6) . . .
117(6) . . .
109(5) . . .
124(6) . . .
116(6) . . .
121(6) . . .
120(6) . . .
112(6) . . .
123(6) . . .
108(6) . . .
112(6) . . .
113(6) . . .
119(6) . . .
125(6) . . .
111(6) . . .
108(6) . . .
118(6) . . .
115(6) . . .
104(5) . . .
110(6) . . .
103(6) . . .
109(6) . . .
99(5) . . .
99(5) . . .
124(6) . . .
111(6) . . .
125(6) . . .
121(6) . . .
105(5) . . .
90(5) . . .
112(6) . . .
104(5) . . .
100(5) . . .
111(6) . . .
109(6) . . .
119(6) . . .
127(6) . . .
106(5) . . .
95(5) . . .
115(6) . . .
121(6) . . .
102(5) . . .
100(5) . . .
120(6) . . .
118(6) . . .
129(6) . . .
96(5) . . .
98(5) . . .
96(5) . . .
111(6) . . .
108(6) . . .
108(5) . . .
116(6) . . .
103(6) . . .
103(5) . . .
102(5) . . .
104(5) . . .
94(5) . . .
116(6) . . .
109(6) . . .
107(5) . . .
106(5) . . .
111(6) . . .
103(5) . . .
113(6) . . .
121(6) . . .
121(6) . . .
115(6) . . .
117(6) . . .
115(6) . . .
101(5) . . .
121(6) . . .
106(5) . . .
105(6) . . .
119(6) . . .
121(6) . . .
115(6) . . .
112(6) . . .
115(6) . . .
98(5) . . .
106(5) . . .
116(6) . . .
107(5) . . .
116(6) . . .
112(6) . . .
99(5) . . .
100(5) . . .
126(6) . . .
108(6) . . .
108(6) . . .
121(6) . . .
123(6) . . .
120(6) . . .
108(6) . . .
111(6) . . .
122(6) . . .
112(6) . . .
114(6) . . .
118(6) . . .
108(6) . . .
119(6) . . .
106(5) . . .
94(5) . . .
104(6) . . .
101(5) . . .
107(5) . . .
100(5) . . .
108(6) . . .
113(6) . . .
111(6) . . .
100(5) . . .
115(6) . . .
118(6) . . .
99(5) . . .
114(6) . . .
113(6) . . .
109(6) . . .
101(5) . . .
98(5) . . .
98(5) . . .
102(5) . . .
118(6) . . .
120(6) . . .
102(5) . . .
108(5) . . .
108(5) . . .
121(6) . . .
114(6) . . .
104(6) . . .
101(5) . . .
107(5) . . .
114(6) . . .
110(6) . . .
105(5) . . .
116(6) . . .
112(5) . . .
111(6) . . .
92(5) . . .
109(6) . . .
111(5) . . .
104(5) . . .
116(6) . . .
102(5) . . .
103(5) . . .
116(6) . . .
116(6) . . .
123(6) . . .
107(6) . . .
110(6) . . .
106(5) . . .
111(6) . . .
116(6) . . .
122(6) . . .
112(5) . . .
110(5) . . .
108(6) . . .
123(6) . . .
112(6) . . .
119(6) . . .
103(5) . . .
114(6) . . .
105(5) . . .
105(6) . . .
99(5) . . .
110(5) . . .
113(6) . . .
101(5) . . .
98(5) . . .
111(6) . . .
100(5) . . .
115(6) . . .
109(6) . . .
113(6) . . .
98(5) . . .
95(5) . . .
100(5) . . .
111(6) . . .
103(5) . . .
100(5) . . .
101(5) . . .
112(6) . . .
102(6) . . .
109(5) . . .
108(5) . . .
109(6) . . .
110(6) . . .
112(6) . . .
107(6) . . .
97(5) . . .
111(5) . . .
112(6) . . .
104(6) . . .
106(6) . . .
105(5) . . .
112(6) . . .
110(6) . . .
109(6) . . .
119(6) . . .
103(5) . . .
107(6) . . .
104(6) . . .
116(6) . . .
110(6) . . .
104(5) . . .
120(6) . . .
121(6) . . .
109(6) . . .
115(6) . . .
119(6) . . .
96(5) . . .
102(6) . . .
100(5) . . .
109(6) . . .
116(6) . . .
107(6) . . .
104(6) . . .
115(6) . . .
103(5) . . .
121(6) . . .
99(5) . . .
106(6) . . .
106(5) . . .
96(5) . . .
99(5) . . .
108(6) . . .
115(6) . . .
119(6) . . .
111(5) . . .
120(6) . . .
101(5) . . .
99(6) . . .
110(6) . . .
98(5) . . .
100(5) . . .
96(5) . . .
102(6) . . .
100(6) . . .
97(5) . . .
110(6) . . .
100(5) . . .
99(5) . . .
100(5) . . .
108(5) . . .
111(5) . . .
110(6) . . .
97(5) . . .
113(6) . . .
92(5) . . .
118(6) . . .
109(6) . . .
105(5) . . .
112(6) . . .
111(5) . . .
107(5) . . .
103(5) . . .
114(6) . . .
109(6) . . .
118(6) . . .
128(6) . . .
95(5) . . .
98(5) . . .
112(5) . . .
100(5) . . .
103(5) . . .
93(5) . . .
112(6) . . .
108(5) . . .
106(5) . . .
102(6) . . .
107(6) . . .
105(6) . . .
101(5) . . .
105(5) . . .
109(6) . . .
112(6) . . .
126(6) . . .
99(5) . . .
102(5) . . .
101(5) . . .
115(6) . . .
127(6) . . .
117(6) . . .
103(5) . . .
112(6) . . .
106(6) . . .
105(5) . . .
107(5) . . .
101(5) . . .
117(6) . . .
93(5) . . .
103(5) . . .
103(5) . . .
93(5) . . .
125(6) . . .
112(6) . . .
95(5) . . .
90(5) . . .
103(5) . . .
107(6) . . .
111(6) . . .
109(6) . . .
101(5) . . .
107(6) . . .
118(6) . . .
103(5) . . .
112(6) . . .
109(5) . . .
101(5) . . .
103(6) . . .
95(5) . . .
110(6) . . .
105(5) . . .
104(5) . . .
106(6) . . .
107(6) . . .
105(5) . . .
107(5) . . .
100(5) . . .
91(5) . . .
96(5) . . .
120(6) . . .
111(6) . . .
97(5) . . .
88(5) . . .
104(5) . . .
94(5) . . .
105(5) . . .
105(6) . . .
111(6) . . .
96(5) . . .
107(5) . . .
102(5) . . .
84(5) . . .
111(6) . . .
112(6) . . .
103(5) . . .
104(5) . . .
115(6) . . .
95(5) . . .
115(6) . . .
97(5) . . .
112(6) . . .
127(6) . . .
101(6) . . .
104(6) . . .
100(5) . . .
104(5) . . .
103(5) . . .
103(6) . . .
96(5) . . .
117(6) . . .
112(6) . . .
96(5) . . .
103(6) . . .
117(6) . . .
128(6) . . .
117(6) . . .
118(6) . . .
109(6) . . .
124(6) . . .
112(5) . . .
112(6) . . .
122(6) . . .
107(6) . . .
95(5) . . .
110(6) . . .
101(5) . . .
117(6) . . .
99(5) . . .
98(5) . . .
96(5) . . .
92(5) . . .
101(6) . . .
103(5) . . .
91(5) . . .
121(6) . . .
110(6) . . .
93(5) . . .
101(5) . . .
111(5) . . .
114(6) . . .
121(6) . . .
105(6) . . .
98(5) . . .
114(6) . . .
105(5) . . .
99(5) . . .
117(6) . . .
104(5) . . .
113(6) . . .
91(5) . . .
99(5) . . .
86(5) . . .
90(5) . . .
94(5) . . .
90(5) . . .
106(5) . . .
107(6) . . .
95(5) . . .
93(5) . . .
106(5) . . .
103(6) . . .
98(5) . . .
98(5) . . .
103(5) . . .
116(6) . . .
102(5) . . .
98(5) . . .
112(6) . . .
118(6) . . .
101(5) . . .
99(6) . . .
102(6) . . .
114(6) . . .
104(5) . . .
109(6) . . .
95(5) . . .
115(6) . . .
101(5) . . .
103(5) . . .
115(6) . . .
89(5) . . .
99(5) . . .
103(5) . . .
105(5) . . .
109(6) . . .
101(6) . . .
94(5) . . .
108(5) . . .
106(5) . . .
114(6) . . .
112(6) . . .
111(6) . . .
106(5) . . .
102(5) . . .
108(6) . . .
106(6) . . .
109(6) . . .
98(5) . . .
115(6) . . .
115(6) . . .
100(5) . . .
105(6) . . .
116(6) . . .
102(5) . . .
102(5) . . .
107(6) . . .
101(6) . . .
98(5) . . .
110(6) . . .
117(6) . . .
103(6) . . .
108(6) . . .
111(6) . . .
104(5) . . .
109(6) . . .
108(6) . . .
111(6) . . .
103(5) . . .
108(6) . . .
104(6) . . .
99(5) . . .
96(5) . . .
97(5) . . .
99(5) . . .
106(6) . . .
102(5) . . .
104(5) . . .
100(5) . . .
112(6) . . .
102(6) . . .
103(6) . . .
105(5) . . .
105(5) . . .
91(5) . . .
104(6) . . .
111(6) . . .
97(5) . . .
90(5) . . .
109(6) . . .
99(6) . . .
96(5) . . .
107(5) . . .
108(5) . . .
104(5) . . .
94(5) . . .
95(5) . . .
116(6) . . .
104(5) . . .
100(5) . . .
102(5) . . .
104(5) . . .
97(5) . . .
114(6) . . .
128(6) . . .
116(6) . . .
100(5) . . .
102(5) . . .
120(6) . . .
106(5) . . .
92(5) . . .
95(5) . . .
93(5) . . .
96(5) . . .
120(6) . . .
109(6) . . .
100(5) . . .
103(5) . . .
100(5) . . .
99(5) . . .
97(5) . . .
96(5) . . .
107(5) . . .
94(5) . . .
92(5) . . .
116(6) . . .
105(5) . . .
102(5) . . .
111(6) . . .
103(6) . . .
111(6) . . .
94(5) . . .
100(5) . . .
98(5) . . .
99(5) . . .
110(6) . . .
117(6) . . .
111(5) . . .
94(5) . . .
108(6) . . .
108(6) . . .
95(5) . . .
99(5) . . .
114(6) . . .
123(6) . . .
110(6) . . .
102(5) . . .
112(6) . . .
95(5) . . .
104(6) . . .
102(5) . . .
97(5) . . .
105(5) . . .
111(6) . . .
108(6) . . .
102(5) . . .
113(6) . . .
104(5) . . .
100(6) . . .
89(5) . . .
96(5) . . .
108(5) . . .
115(6) . . .
102(5) . . .
112(6) . . .
121(6) . . .
100(5) . . .
113(6) . . .
100(5) . . .
107(6) . . .
97(5) . . .
95(5) . . .
85(5) . . .
98(5) . . .
84(5) . . .
92(5) . . .
107(5) . . .
117(6) . . .
109(6) . . .
109(6) . . .
96(5) . . .
112(6) . . .
105(6) . . .
96(5) . . .
95(5) . . .
104(5) . . .
115(6) . . .
98(5) . . .
103(6) . . .
110(6) . . .
104(5) . . .
109(5) . . .
122(6) . . .
108(6) . . .
101(5) . . .
89(5) . . .
92(5) . . .
113(6) . . .
117(6) . . .
101(5) . . .
103(5) . . .
92(5) . . .
107(6) . . .
95(5) . . .
111(6) . . .
93(5) . . .
110(6) . . .
98(5) . . .
103(6) . . .
98(5) . . .
104(5) . . .
95(5) . . .
102(5) . . .
109(6) . . .
99(5) . . .
101(5) . . .
107(5) . . .
106(6) . . .
102(5) . . .
106(6) . . .
90(5) . . .
114(6) . . .
103(6) . . .
109(6) . . .
114(6) . . .
104(5) . . .
102(5) . . .
99(6) . . .
91(5) . . .
118(6) . . .
117(6) . . .
100(5) . . .
97(6) . . .
109(6) . . .
110(5) . . .
110(5) . . .
96(5) . . .
89(5) . . .
99(5) . . .
111(6) . . .
105(5) . . .
101(5) . . .
108(6) . . .
99(5) . . .
98(5) . . .
99(5) . . .
97(6) . . .
104(6) . . .
106(6) . . .
96(5) . . .
87(5) . . .
89(5) . . .
92(5) . . .
98(5) . . .
99(5) . . .
93(5) . . .
105(6) . . .
88(5) . . .
102(5) . . .
98(5) . . .
93(5) . . .
93(5) . . .
94(5) . . .
98(5) . . .
92(5) . . .
93(5) . . .
109(6) . . .
107(5) . . .
107(5) . . .
102(5) . . .
88(5) . . .
111(6) . . .
95(5) . . .
103(5) . . .
99(5) . . .
104(5) . . .
105(6) . . .
101(5) . . .
116(6) . . .
104(5) . . .
100(5) . . .
112(6) . . .
100(5) . . .
107(5) . . .
101(5) . . .
108(6) . . .
113(6) . . .
103(5) . . .
88(5) . . .
101(5) . . .
93(5) . . .
112(6) . . .
97(5) . . .
105(6) . . .
101(5) . . .
106(5) . . .
97(5) . . .
96(5) . . .
99(5) . . .
101(5) . . .
100(5) . . .
92(5) . . .
99(5) . . .
100(5) . . .
109(5) . . .
90(5) . . .
98(5) . . .
106(6) . . .
103(5) . . .
107(5) . . .
100(5) . . .
99(5) . . .
92(5) . . .
108(5) . . .
104(5) . . .
104(5) . . .
103(6) . . .
112(6) . . .
102(5) . . .
107(6) . . .
102(6) . . .
96(5) . . .
100(5) . . .
116(6) . . .
97(5) . . .
87(5) . . .
98(5) . . .
97(5) . . .
103(5) . . .
116(6) . . .
113(6) . . .
110(6) . . .
102(5) . . .
113(6) . . .
90(5) . . .
98(5) . . .
92(5) . . .
91(5) . . .
98(5) . . .
101(5) . . .
99(5) . . .
110(6) . . .
120(6) . . .
113(6) . . .
89(5) . . .
104(6) . . .
107(6) . . .
88(5) . . .
93(5) . . .
97(5) . . .
104(6) . . .
111(6) . . .
86(5) . . .
107(6) . . .
110(6) . . .
108(6) . . .
96(5) . . .
106(5) . . .
92(5) . . .
93(5) . . .
87(5) . . .
80(5) . . .
92(5) . . .
97(5) . . .
105(6) . . .
93(5) . . .
96(5) . . .
98(5) . . .
87(5) . . .
100(5) . . .
91(5) . . .
80(5) . . .
99(5) . . .
118(6) . . .
115(6) . . .
100(5) . . .
89(5) . . .
97(5) . . .
109(6) . . .
98(5) . . .
99(5) . . .
110(5) . . .
106(5) . . .
97(5) . . .
101(5) . . .
109(6) . . .
99(5) . . .
104(5) . . .
103(6) . . .
104(6) . . .
90(5) . . .
103(5) . . .
90(5) . . .
97(5) . . .
102(6) . . .
114(6) . . .
105(5) . . .
89(5) . . .
102(5) . . .
104(6) . . .
98(5) . . .
100(5) . . .
89(5) . . .
98(5) . . .
94(5) . . .
84(5) . . .
87(5) . . .
98(5) . . .
94(5) . . .
99(5) . . .
96(5) . . .
105(5) . . .
113(6) . . .
100(5) . . .
98(6) . . .
104(6) . . .
98(5) . . .
96(5) . . .
99(5) . . .
84(5) . . .
98(5) . . .
92(5) . . .
94(5) . . .
105(6) . . .
105(5) . . .
89(5) . . .
92(5) . . .
119(6) . . .
115(6) . . .
99(5) . . .
106(5) . . .
91(5) . . .
97(5) . . .
88(5) . . .
99(5) . . .
103(5) . . .
94(5) . . .
101(5) . . .
117(6) . . .
95(5) . . .
105(5) . . .
103(5) . . .
96(5) . . .
93(5) . . .
100(5) . . .
112(5) . . .
110(5) . . .
103(5) . . .
92(5) . . .
96(5) . . .
111(5) . . .
81(5) . . .
96(5) . . .
100(6) . . .
93(5) . . .
99(5) . . .
100(5) . . .
109(6) . . .
115(6) . . .
107(6) . . .
96(5) . . .
94(5) . . .
95(5) . . .
95(5) . . .
100(5) . . .
105(5) . . .
96(5) . . .
111(6) . . .
106(6) . . .
92(5) . . .
98(5) . . .
104(5) . . .
93(5) . . .
98(5) . . .
109(6) . . .
101(5) . . .
110(6) . . .
96(5) . . .
101(5) . . .
101(5) . . .
99(5) . . .
99(5) . . .
89(5) . . .
100(5) . . .
103(5) . . .
100(5) . . .
99(5) . . .
101(6) . . .
85(5) . . .
108(6) . . .
96(5) . . .
99(5) . . .
100(6) . . .
91(5) . . .
107(5) . . .
86(5) . . .
98(6) . . .
88(5) . . .
104(6) . . .
87(5) . . .
95(5) . . .
97(5) . . .
93(5) . . .
91(5) . . .
99(5) . . .
105(5) . . .
97(5) . . .
106(6) . . .
100(5) . . .
97(5) . . .
106(5) . . .
87(5) . . .
94(5) . . .
89(5) . . .
92(5) . . .
83(5) . . .
90(5) . . .
98(6) . . .
100(5) . . .
97(5) . . .
102(6) . . .
116(6) . . .
109(6) . . .
110(5) . . .
98(5) . . .
92(5) . . .
92(5) . . .
97(5) . . .
94(5) . . .
97(5) . . .
96(5) . . .
105(6) . . .
102(5) . . .
90(5) . . .
109(5) . . .
94(5) . . .
99(6) . . .
106(6) . . .
104(5) . . .
103(5) . . .
91(5) . . .
100(5) . . .
100(5) . . .
99(5) . . .
98(5) . . .
94(5) . . .
98(6) . . .
90(5) . . .
87(5) . . .
91(5) . . .
98(5) . . .
104(5) . . .
93(5) . . .
103(5) . . .
96(5) . . .
94(5) . . .
87(5) . . .
104(6) . . .
104(5) . . .
94(5) . . .
103(5) . . .
93(5) . . .
91(5) . . .
96(5) . . .
90(5) . . .
98(5) . . .
92(5) . . .
96(5) . . .
101(5) . . .
100(5) . . .
97(5) . . .
95(5) . . .
100(5) . . .
102(5) . . .
98(5) . . .
105(6) . . .
95(5) . . .
107(6) . . .
110(5) . . .
94(5) . . .
90(5) . . .
87(5) . . .
79(5) . . .
86(5) . . .
101(5) . . .
101(6) . . .
93(5) . . .
104(5) . . .
108(5) . . .
93(5) . . .
100(6) . . .
95(5) . . .
109(5) . . .
96(5) . . .
97(5) . . .
93(5) . . .
99(6) . . .
92(5) . . .
102(5) . . .
97(5) . . .
93(5) . . .
85(5) . . .
106(5) . . .
100(5) . . .
93(5) . . .
94(5) . . .
92(5) . . .
104(5) . . .
96(5) . . .
99(5) . . .
100(5) . . .
97(5) . . .
96(5) . . .
93(5) . . .
85(5) . . .
92(5) . . .
97(5) . . .
101(5) . . .
115(6) . . .
105(6) . . .
105(6) . . .
100(5) . . .
94(5) . . .
96(5) . . .
108(6) . . .
119(6) . . .
104(5) . . .
99(5) . . .
102(5) . . .
95(5) . . .
93(5) . . .
101(5) . . .
97(5) . . .
93(5) . . .
101(6) . . .
102(5) . . .
83(5) . . .
93(5) . . .
95(5) . . .
97(5) . . .
101(6) . . .
94(5) . . .
94(5) . . .
100(5) . . .
110(6) . . .
106(6) . . .
102(5) . . .
111(5) . . .
104(5) . . .
101(6) . . .
98(5) . . .
96(5) . . .
95(5) . . .
102(5) . . .
90(5) . . .
94(5) . . .
104(5) . . .
89(5) . . .
90(5) . . .
97(6) . . .
82(5) . . .
104(5) . . .
109(5) . . .
97(5) . . .
99(5) . . .
91(5) . . .
109(5) . . .
113(6) . . .
102(6) . . .
99(5) . . .
102(5) . . .
88(5) . . .
100(5) . . .
112(6) . . .
112(6) . . .
89(5) . . .
92(5) . . .
103(6) . . .
110(6) . . .
103(6) . . .
93(5) . . .
97(5) . . .
93(5) . . .
98(5) . . .
100(5) . . .
107(5) . . .
92(5) . . .
80(5) . . .
91(5) . . .
100(5) . . .
96(5) . . .
99(5) . . .
96(5) . . .
90(5) . . .
87(5) . . .
101(5) . . .
98(5) . . .
114(6) . . .
102(6) . . .
100(5) . . .
93(5) . . .
85(5) . . .
101(6) . . .
99(6) . . .
93(5) . . .
104(5) . . .
95(5) . . .
98(5) . . .
111(6) . . .
85(5) . . .
94(5) . . .
105(5) . . .
98(5) . . .
95(5) . . .
83(5) . . .
91(5) . . .
101(5) . . .
84(5) . . .
101(5) . . .
90(5) . . .
102(5) . . .
89(5) . . .
96(5) . . .
100(5) . . .
111(6) . . .
96(5) . . .
94(5) . . .
107(6) . . .
98(5) . . .
79(5) . . .
87(5) . . .
102(6) . . .
96(5) . . .
100(5) . . .
108(6) . . .
101(5) . . .
103(6) . . .
97(5) . . .
108(6) . . .
96(5) . . .
109(5) . . .
90(5) . . .
85(5) . . .
100(5) . . .
97(5) . . .
90(5) . . .
106(6) . . .
109(6) . . .
112(6) . . .
104(5) . . .
97(5) . . .
95(5) . . .
93(5) . . .
94(5) . . .
89(5) . . .
92(5) . . .
98(5) . . .
98(5) . . .
81(5) . . .
90(5) . . .
99(5) . . .
94(5) . . .
92(5) . . .
99(6) . . .
83(5) . . .
102(5) . . .
89(5) . . .
92(5) . . .
97(5) . . .
105(5) . . .
92(5) . . .
89(5) . . .
97(6) . . .
92(5) . . .
89(5) . . .
90(5) . . .
89(5) . . .
92(5) . . .
88(5) . . .
100(5) . . .
96(5) . . .
94(5) . . .
95(5) . . .
96(5) . . .
85(5) . . .
95(5) . . .
89(5) . . .
94(5) . . .
108(6) . . .
95(5) . . .
87(5) . . .
98(6) . . .
95(5) . . .
97(5) . . .
90(5) . . .
91(5) . . .
99(6) . . .
100(6) . . .
89(5) . . .
87(5) . . .
97(5) . . .
92(5) . . .
99(5) . . .
106(5) . . .
91(5) . . .
92(5) . . .
85(5) . . .
84(5) . . .
94(5) . . .
100(5) . . .
108(6) . . .
101(5) . . .
79(5) . . .
93(5) . . .
98(6) . . .
98(5) . . .
97(5) . . .
98(5) . . .
89(5) . . .
93(5) . . .
105(6) . . .
103(5) . . .
84(5) . . .
96(5) . . .
91(5) . . .
89(5) . . .
96(5) . . .
86(5) . . .
91(5) . . .
93(5) . . .
93(5) . . .
79(5) . . .
103(5) . . .
93(5) . . .
102(5) . . .
106(6) . . .
90(5) . . .
103(5) . . .
89(5) . . .
96(5) . . .
95(5) . . .
86(5) . . .
92(5) . . .
99(5) . . .
101(5) . . .
92(5) . . .
104(6) . . .
102(5) . . .
104(5) . . .
94(5) . . .
103(6) . . .
94(5) . . .
113(5) . . .
96(5) . . .
109(6) . . .
99(6) . . .
91(5) . . .
93(5) . . .
94(5) . . .
87(5) . . .
101(5) . . .
89(5) . . .
86(5) . . .
112(6) . . .
106(5) . . .
114(6) . . .
109(6) . . .
103(5) . . .
105(5) . . .
102(5) . . .
106(6) . . .
96(5) . . .
84(5) . . .
102(5) . . .
105(6) . . .
97(5) . . .
91(5) . . .
95(5) . . .
97(5) . . .
83(5) . . .
88(5) . . .
86(5) . . .
87(5) . . .
101(6) . . .
94(5) . . .
91(5) . . .
96(5) . . .
98(5) . . .
85(5) . . .
84(5) . . .
102(5) . . .
85(5) . . .
93(5) . . .
103(5) . . .
93(5) . . .
92(5) . . .
101(5) . . .
104(5) . . .
91(5) . . .
100(6) . . .
91(5) . . .
81(5) . . .
90(5) . . .
91(5) . . .
86(5) . . .
89(5) . . .
102(5) . . .
84(5) . . .
93(5) . . .
107(6) . . .
86(5) . . .
86(5) . . .
100(5) . . .
82(5) . . .
94(5) . . .
91(5) . . .
91(5) . . .
81(5) . . .
107(6) . . .
113(6) . . .
91(5) . . .
98(5) . . .
107(6) . . .
102(6) . . .
103(6) . . .
97(5) . . .
116(6) . . .
87(5) . . .
93(5) . . .
72(5) . . .
88(5) . . .
85(5) . . .
97(5) . . .
100(6) . . .
96(5) . . .
88(5) . . .
94(5) . . .
100(5) . . .
100(6) . . .
87(5) . . .
89(5) . . .
103(5) . . .
97(5) . . .
90(5) . . .
80(5) . . .
84(5) . . .
98(5) . . .
89(5) . . .
98(6) . . .
107(5) . . .
102(5) . . .
98(5) . . .
102(5) . . .
89(5) . . .
100(5) . . .
93(5) . . .
95(5) . . .
88(5) . . .
90(5) . . .
85(5) . . .
94(5) . . .
105(5) . . .
106(5) . . .
104(5) . . .
104(5) . . .
94(5) . . .
87(5) . . .
95(5) . . .
103(6) . . .
89(5) . . .
105(5) . . .
105(5) . . .
91(5) . . .
90(5) . . .
87(5) . . .
82(5) . . .
88(5) . . .
99(5) . . .
99(5) . . .
86(5) . . .
91(5) . . .
96(5) . . .
100(5) . . .
93(5) . . .
95(5) . . .
89(5) . . .
109(6) . . .
93(5) . . .
90(5) . . .
89(5) . . .
89(5) . . .
83(5) . . .
101(6) . . .
85(5) . . .
91(5) . . .
93(5) . . .
79(5) . . .
82(5) . . .
89(5) . . .
98(5) . . .
102(5) . . .
87(5) . . .
98(6) . . .
95(5) . . .
90(5) . . .
102(5) . . .
97(5) . . .
90(5) . . .
104(5) . . .
91(5) . . .
87(5) . . .
88(5) . . .
94(5) . . .
92(5) . . .
94(5) . . .
101(5) . . .
93(5) . . .
104(6) . . .
100(5) . . .
94(5) . . .
92(5) . . .
98(5) . . .
94(5) . . .
98(5) . . .
98(5) . . .
108(6) . . .
100(5) . . .
98(6) . . .
97(5) . . .
107(5) . . .
85(5) . . .
96(5) . . .
98(5) . . .
86(5) . . .
107(5) . . .
100(5) . . .
86(5) . . .
101(6) . . .
87(5) . . .
108(5) . . .
101(6) . . .
97(5) . . .
82(5) . . .
99(5) . . .
92(5) . . .
85(5) . . .
80(5) . . .
97(5) . . .
101(5) . . .
100(5) . . .
78(5) . . .
90(5) . . .
88(5) . . .
84(5) . . .
86(5) . . .
93(5) . . .
91(5) . . .
96(5) . . .
86(5) . . .
102(5) . . .
93(5) . . .
94(5) . . .
103(5) . . .
90(5) . . .
88(5) . . .
91(5) . . .
101(6) . . .
95(5) . . .
89(5) . . .
100(5) . . .
102(6) . . .
84(5) . . .
101(5) . . .
99(5) . . .
103(5) . . .
98(5) . . .
100(5) . . .
96(5) . . .
99(5) . . .
92(5) . . .
99(6) . . .
96(5) . . .
91(5) . . .
97(5) . . .
88(5) . . .
82(5) . . .
100(5) . . .
92(5) . . .
86(5) . . .
88(5) . . .
91(5) . . .
87(5) . . .
102(5) . . .
110(5) . . .
91(5) . . .
87(5) . . .
94(5) . . .
79(5) . . .
81(5) . . .
92(5) . . .
97(5) . . .
99(5) . . .
95(5) . . .
90(5) . . .
96(5) . . .
72(4) . . .
92(5) . . .
104(5) . . .
88(5) . . .
87(5) . . .
100(6) . . .
95(5) . . .
106(5) . . .
100(5) . . .
91(5) . . .
104(6) . . .
99(5) . . .
96(5) . . .
118(6) . . .
97(5) . . .
102(5) . . .
101(5) . . .
106(5) . . .
111(6) . . .
93(5) . . .
97(5) . . .
101(5) . . .
102(5) . . .
94(5) . . .
113(6) . . .
101(6) . . .
86(5) . . .
97(5) . . .
103(6) . . .
73(4) . . .
95(5) . . .
105(5) . . .
112(6) . . .
94(5) . . .
104(6) . . .
93(5) . . .
106(5) . . .
95(5) . . .
90(5) . . .
96(6) . . .
90(5) . . .
89(5) . . .
97(5) . . .
102(5) . . .
100(6) . . .
87(5) . . .
89(5) . . .
97(5) . . .
103(5) . . .
108(6) . . .
93(5) . . .
92(5) . . .
81(5) . . .
84(5) . . .
97(5) . . .
89(5) . . .
88(5) . . .
94(5) . . .
86(5) . . .
92(5) . . .
86(5) . . .
88(5) . . .
87(5) . . .
97(5) . . .
101(5) . . .
94(5) . . .
114(6) . . .
94(5) . . .
92(5) . . .
94(5) . . .
87(5) . . .
87(5) . . .
100(5) . . .
85(5) . . .
95(5) . . .
90(5) . . .
93(5) . . .
97(5) . . .
92(5) . . .
90(5) . . .
99(5) . . .
99(5) . . .
85(5) . . .
97(6) . . .
106(5) . . .
110(5) . . .
89(5) . . .
89(5) . . .
96(6) . . .
85(5) . . .
91(5) . . .
100(5) . . .
89(5) . . .
95(5) . . .
85(5) . . .
88(5) . . .
90(5) . . .
100(5) . . .
83(5) . . .
84(5) . . .
84(5) . . .
93(5) . . .
100(5) . . .
87(5) . . .
98(5) . . .
98(5) . . .
81(5) . . .
99(5) . . .
103(6) . . .
105(6) . . .
90(5) . . .
108(6) . . .
95(5) . . .
89(5) . . .
86(5) . . .
87(5) . . .
113(6) . . .
89(5) . . .
101(6) . . .
90(5) . . .
99(5) . . .
95(5) . . .
98(5) . . .
95(5) . . .
95(5) . . .
86(5) . . .
97(5) . . .
88(5) . . .
111(6) . . .
100(5) . . .
108(5) . . .
87(5) . . .
96(6) . . .
91(5) . . .
95(5) . . .
97(5) . . .
90(5) . . .
99(6) . . .
108(6) . . .
111(5) . . .
101(5) . . .
96(5) . . .
110(6) . . .
96(5) . . .
106(5) . . .
102(5) . . .
103(5) . . .
98(6) . . .
91(5) . . .
101(5) . . .
103(5) . . .
109(6) . . .
90(5) . . .
95(5) . . .
93(5) . . .
103(5) . . .
105(6) . . .
98(6) . . .
84(5) . . .
100(5) . . .
89(5) . . .
94(5) . . .
94(5) . . .
91(5) . . .
105(5) . . .
101(5) . . .
100(5) . . .
89(5) . . .
82(5) . . .
81(5) . . .
87(5) . . .
82(5) . . .
96(5) . . .
108(6) . . .
107(5) . . .
79(5) . . .
83(5) . . .
100(5) . . .
94(5) . . .
92(5) . . .
88(5) . . .
92(5) . . .
107(6) . . .
107(5) . . .
89(5) . . .
96(5) . . .
94(5) . . .
90(5) . . .
106(5) . . .
85(5) . . .
95(5) . . .
95(5) . . .
87(5) . . .
94(5) . . .
79(5) . . .
89(5) . . .
90(5) . . .
93(5) . . .
101(5) . . .
96(5) . . .
96(5) . . .
89(5) . . .
99(5) . . .
106(5) . . .
96(5) . . .
91(5) . . .
93(5) . . .
91(5) . . .
91(5) . . .
93(5) . . .
91(5) . . .
95(5) . . .
83(5) . . .
103(5) . . .
100(5) . . .
84(5) . . .
94(6) . . .
86(5) . . .
75(5) . . .
98(5) . . .
81(5) . . .
90(5) . . .
79(5) . . .
92(5) . . .
95(5) . . .
92(5) . . .
82(5) . . .
96(5) . . .
76(5) . . .
75(5) . . .
95(6) . . .
81(5) . . .
88(5) . . .
87(5) . . .
106(6) . . .
100(6) . . .
87(5) . . .
93(5) . . .
84(5) . . .
100(5) . . .
109(6) . . .
89(5) . . .
97(5) . . .
107(5) . . .
90(5) . . .
89(5) . . .
96(5) . . .
93(5) . . .
97(5) . . .
87(5) . . .
92(5) . . .
95(5) . . .
85(5) . . .
102(5) . . .
88(5) . . .
97(5) . . .
99(5) . . .
103(5) . . .
97(5) . . .
89(5) . . .
95(5) . . .
92(5) . . .
111(5) . . .
84(5) . . .
78(5) . . .
88(5) . . .
95(5) . . .
103(5) . . .
77(5) . . .
94(5) . . .
85(5) . . .
100(5) . . .
84(5) . . .
87(5) . . .
83(5) . . .
93(5) . . .
83(5) . . .
79(5) . . .
85(5) . . .
90(5) . . .
92(5) . . .
90(5) . . .
87(5) . . .
82(5) . . .
81(5) . . .
77(5) . . .
82(5) . . .
91(5) . . .
91(5) . . .
76(5) . . .
92(5) . . .
91(5) . . .
90(5) . . .
81(5) . . .
92(5) . . .
103(5) . . .
85(5) . . .
93(5) . . .
89(5) . . .
79(5) . . .
100(5) . . .
102(5) . . .
94(5) . . .
97(5) . . .
91(5) . . .
79(5) . . .
98(5) . . .
93(5) . . .
91(5) . . .
92(5) . . .
93(5) . . .
87(5) . . .
93(5) . . .
92(5) . . .
99(6) . . .
100(6) . . .
87(5) . . .
90(5) . . .
85(5) . . .
76(5) . . .
85(5) . . .
86(5) . . .
92(5) . . .
91(5) . . .
98(5) . . .
96(5) . . .
95(5) . . .
85(5) . . .
108(6) . . .
98(5) . . .
93(5) . . .
102(5) . . .
92(5) . . .
100(6) . . .
96(5) . . .
106(5) . . .
104(5) . . .
86(5) . . .
103(6) . . .
87(5) . . .
100(5) . . .
94(5) . . .
86(5) . . .
96(6) . . .
81(5) . . .
79(5) . . .
91(5) . . .
86(5) . . .
96(5) . . .
97(5) . . .
100(5) . . .
90(5) . . .
85(5) . . .
85(5) . . .
97(5) . . .
87(5) . . .
86(5) . . .
90(5) . . .
91(5) . . .
90(5) . . .
90(5) . . .
78(5) . . .
94(5) . . .
84(5) . . .
83(5) . . .
81(5) . . .
85(5) . . .
84(5) . . .
99(5) . . .
96(5) . . .
95(5) . . .
93(5) . . .
85(5) . . .
91(5) . . .
88(5) . . .
87(5) . . .
90(5) . . .
98(5) . . .
100(5) . . .
100(5) . . .
93(5) . . .
98(5) . . .
93(5) . . .
94(5) . . .
95(5) . . .
82(5) . . .
72(4) . . .
100(6) . . .
90(5) . . .
89(5) . . .
93(5) . . .
98(5) . . .
103(6) . . .
92(5) . . .
112(6) . . .
84(5) . . .
91(5) . . .
85(5) . . .
82(5) . . .
99(5) . . .
87(5) . . .
99(5) . . .
102(5) . . .
98(5) . . .
102(5) . . .
100(5) . . .
98(5) . . .
91(5) . . .
103(6) . . .
93(5) . . .
96(5) . . .
99(5) . . .
92(5) . . .
94(5) . . .
96(5) . . .
101(5) . . .
97(5) . . .
83(5) . . .
95(5) . . .
95(5) . . .
84(5) . . .
100(6) . . .
86(5) . . .
90(5) . . .
97(5) . . .
91(5) . . .
82(5) . . .
84(5) . . .
100(5) . . .
109(5) . . .
82(5) . . .
78(5) . . .
80(5) . . .
90(5) . . .
100(5) . . .
94(5) . . .
80(5) . . .
95(5) . . .
98(5) . . .
97(5) . . .
80(5) . . .
91(5) . . .
88(5) . . .
89(5) . . .
87(5) . . .
90(5) . . .
96(6) . . .
84(5) . . .
74(4) . . .
91(5) . . .
91(5) . . .
93(6) . . .
78(5) . . .
90(5) . . .
83(5) . . .
89(5) . . .
87(5) . . .
87(5) . . .
90(5) . . .
84(5) . . .
93(5) . . .
89(5) . . .
96(5) . . .
94(5) . . .
78(5) . . .
76(5) . . .
85(5) . . .
88(5) . . .
85(5) . . .
81(5) . . .
81(5) . . .
95(5) . . .
97(5) . . .
83(5) . . .
87(5) . . .
80(5) . . .
82(5) . . .
87(5) . . .
86(5) . . .
94(5) . . .
90(5) . . .
78(5) . . .
93(5) . . .
97(5) . . .
88(5) . . .
83(5) . . .
89(5) . . .
90(5) . . .
94(5) . . .
81(5) . . .
86(5) . . .
98(5) . . .
93(5) . . .
79(5) . . .
81(5) . . .
85(5) . . .
84(5) . . .
70(4) . . .
95(5) . . .
105(5) . . .
90(5) . . .
89(5) . . .
93(5) . . .
89(5) . . .
91(5) . . .
94(5) . . .
90(5) . . .
80(5) . . .
82(5) . . .
92(5) . . .
88(5) . . .
84(5) . . .
83(5) . . .
90(5) . . .
86(5) . . .
78(5) . . .
96(5) . . .
90(5) . . .
71(4) . . .
94(5) . . .
98(5) . . .
94(5) . . .
95(5) . . .
96(5) . . .
90(5) . . .
104(6) . . .
94(5) . . .
97(5) . . .
78(5) . . .
87(5) . . .
77(5) . . .
89(5) . . .
97(5) . . .
89(5) . . .
97(6) . . .
93(5) . . .
93(5) . . .
100(5) . . .
96(5) . . .
82(5) . . .
99(5) . . .
90(5) . . .
73(5) . . .
88(5) . . .
84(5) . . .
79(5) . . .
94(5) . . .
92(5) . . .
81(5) . . .
108(6) . . .
78(5) . . .
92(5) . . .
89(5) . . .
111(6) . . .
97(5) . . .
84(5) . . .
85(5) . . .
97(5) . . .
87(5) . . .
83(5) . . .
93(5) . . .
86(5) . . .
89(5) . . .
102(6) . . .
101(6) . . .
85(5) . . .
92(5) . . .
92(5) . . .
86(5) . . .
96(5) . . .
88(5) . . .
114(6) . . .
93(5) . . .
86(5) . . .
87(5) . . .
89(5) . . .
97(5) . . .
96(5) . . .
96(5) . . .
87(5) . . .
88(5) . . .
84(5) . . .
81(5) . . .
73(5) . . .
77(5) . . .
89(5) . . .
79(5) . . .
94(5) . . .
92(5) . . .
112(6) . . .
86(5) . . .
92(5) . . .
90(5) . . .
97(5) . . .
106(6) . . .
89(5) . . .
86(5) . . .
78(5) . . .
91(5) . . .
94(5) . . .
86(5) . . .
85(5) . . .
84(5) . . .
104(6) . . .
83(5) . . .
92(5) . . .
86(5) . . .
90(5) . . .
71(4) . . .
87(5) . . .
82(5) . . .
95(5) . . .
87(5) . . .
93(5) . . .
90(5) . . .
93(5) . . .
81(5) . . .
83(5) . . .
86(5) . . .
95(5) . . .
90(5) . . .
81(5) . . .
87(5) . . .
97(5) . . .
82(5) . . .
98(5) . . .
82(5) . . .
84(5) . . .
88(5) . . .
88(5) . . .
88(5) . . .
83(5) . . .
83(5) . . .
80(5) . . .
85(5) . . .
105(5) . . .
99(5) . . .
88(5) . . .
96(5) . . .
83(5) . . .
89(5) . . .
85(5) . . .
94(6) . . .
79(5) . . .
75(5) . . .
86(5) . . .
83(5) . . .
92(5) . . .
89(5) . . .
81(5) . . .
85(5) . . .
98(5) . . .
90(5) . . .
80(5) . . .
86(5) . . .
78(5) . . .
83(5) . . .
84(5) . . .
84(5) . . .
88(5) . . .
75(5) . . .
86(5) . . .
95(5) . . .
92(5) . . .
77(5) . . .
89(5) . . .
88(5) . . .
87(5) . . .
88(5) . . .
79(5) . . .
82(5) . . .
81(5) . . .
82(5) . . .
94(5) . . .
88(5) . . .
88(5) . . .
86(5) . . .
92(5) . . .
85(5) . . .
93(5) . . .
86(5) . . .
78(5) . . .
79(5) . . .
81(5) . . .
79(5) . . .
81(5) . . .
90(5) . . .
100(5) . . .
95(5) . . .
88(5) . . .
102(6) . . .
84(5) . . .
79(5) . . .
83(5) . . .
76(5) . . .
82(5) . . .
90(5) . . .
85(5) . . .
86(5) . . .
94(5) . . .
94(5) . . .
90(5) . . .
92(5) . . .
89(5) . . .
99(5) . . .
89(5) . . .
84(5) . . .
94(5) . . .
94(5) . . .
97(5) . . .
86(5) . . .
84(5) . . .
85(5) . . .
85(5) . . .
79(5) . . .
87(5) . . .
92(5) . . .
94(5) . . .
82(5) . . .
76(5) . . .
81(5) . . .
90(5) . . .
89(5) . . .
88(5) . . .
91(5) . . .
79(5) . . .
77(5) . . .
85(5) . . .
74(4) . . .
92(5) . . .
99(5) . . .
94(5) . . .
89(5) . . .
107(5) . . .
101(5) . . .
87(5) . . .
94(5) . . .
95(5) . . .
89(5) . . .
82(5) . . .
96(5) . . .
92(5) . . .
97(5) . . .
81(5) . . .
100(5) . . .
96(6) . . .
91(5) . . .
95(5) . . .
80(5) . . .
98(6) . . .
98(6) . . .
98(5) . . .
94(5) . . .
92(5) . . .
92(5) . . .
85(5) . . .
80(5) . . .
105(5) . . .
87(5) . . .
83(5) . . .
88(5) . . .
93(5) . . .
92(5) . . .
95(5) . . .
78(5) . . .
88(5) . . .
97(5) . . .
90(5) . . .
84(5) . . .
91(5) . . .
91(5) . . .
81(5) . . .
93(5) . . .
85(5) . . .
90(5) . . .
103(6) . . .
97(5) . . .
82(5) . . .
85(5) . . .
95(5) . . .
94(5) . . .
103(5) . . .
96(5) . . .
93(5) . . .
88(5) . . .
102(6) . . .
88(5) . . .
92(5) . . .
95(5) . . .
94(5) . . .
92(5) . . .
96(5) . . .
111(5) . . .
93(5) . . .
84(5) . . .
92(5) . . .
81(5) . . .
106(5) . . .
83(5) . . .
88(5) . . .
96(5) . . .
90(5) . . .
85(5) . . .
89(5) . . .
90(5) . . .
94(5) . . .
78(5) . . .
87(5) . . .
94(5) . . .
85(5) . . .
76(5) . . .
89(5) . . .
97(5) . . .
91(5) . . .
89(5) . . .
80(5) . . .
82(5) . . .
91(5) . . .
84(5) . . .
88(5) . . .
83(5) . . .
80(5) . . .
91(5) . . .
102(5) . . .
85(5) . . .
96(5) . . .
100(5) . . .
95(5) . . .
88(5) . . .
88(5) . . .
89(5) . . .
95(5) . . .
92(5) . . .
88(5) . . .
95(5) . . .
84(5) . . .
93(5) . . .
83(5) . . .
88(5) . . .
92(5) . . .
93(5) . . .
88(5) . . .
88(5) . . .
84(5) . . .
79(5) . . .
91(5) . . .
82(5) . . .
87(5) . . .
81(5) . . .
85(5) . . .
88(5) . . .
81(5) . . .
87(5) . . .
90(5) . . .
71(4) . . .
92(5) . . .
91(5) . . .
98(5) . . .
75(5) . . .
74(5) . . .
87(5) . . .
83(5) . . .
93(5) . . .
85(5) . . .
91(5) . . .
99(5) . . .
81(5) . . .
86(5) . . .
85(5) . . .
87(5) . . .
81(5) . . .
86(5) . . .
86(5) . . .
77(5) . . .
89(5) . . .
97(5) . . .
83(5) . . .
86(5) . . .
84(5) . . .
75(4) . . .
75(5) . . .
93(5) . . .
85(5) . . .
90(5) . . .
89(5) . . .
73(4) . . .
84(5) . . .
89(5) . . .
92(5) . . .
94(5) . . .
96(5) . . .
71(5) . . .
80(5) . . .
85(5) . . .
94(5) . . .
91(5) . . .
86(5) . . .
77(5) . . .
82(5) . . .
86(5) . . .
81(5) . . .
81(5) . . .
97(5) . . .
89(5) . . .
77(5) . . .
90(5) . . .
91(5) . . .
84(5) . . .
89(5) . . .
86(5) . . .
96(5) . . .
88(5) . . .
77(5) . . .
74(5) . . .
93(5) . . .
83(5) . . .
77(5) . . .
92(5) . . .
91(5) . . .
79(5) . . .
78(5) . . .
87(5) . . .
88(5) . . .
97(5) . . .
81(5) . . .
87(5) . . .
81(5) . . .
94(5) . . .
90(5) . . .
92(5) . . .
82(5) . . .
102(6) . . .
89(5) . . .
80(5) . . .
76(5) . . .
71(4) . . .
87(5) . . .
83(5) . . .
85(5) . . .
78(5) . . .
84(5) . . .
81(5) . . .
80(5) . . .
81(5) . . .
88(5) . . .
85(5) . . .
81(5) . . .
90(5) . . .
89(5) . . .
85(5) . . .
91(5) . . .
82(5) . . .
78(5) . . .
87(5) . . .
81(5) . . .
92(5) . . .
98(6) . . .
88(5) . . .
98(5) . . .
78(5) . . .
81(5) . . .
77(5) . . .
79(5) . . .
83(5) . . .
80(5) . . .
86(5) . . .
86(5) . . .
81(5) . . .
76(5) . . .
85(5) . . .
83(5) . . .
81(5) . . .
97(5) . . .
104(5) . . .
98(5) . . .
94(5) . . .
76(5) . . .
89(5) . . .
82(5) . . .
88(5) . . .
74(5) . . .
91(5) . . .
84(5) . . .
84(5) . . .
84(5) . . .
89(5) . . .
83(5) . . .
88(5) . . .
86(5) . . .
80(5) . . .
82(5) . . .
83(5) . . .
92(5) . . .
86(5) . . .
82(5) . . .
90(5) . . .
73(4) . . .
75(4) . . .
84(5) . . .
88(5) . . .
86(5) . . .
86(5) . . .
85(5) . . .
84(5) . . .
81(5) . . .
83(5) . . .
82(5) . . .
73(5) . . .
84(5) . . .
82(5) . . .
86(5) . . .
88(5) . . .
75(5) . . .
82(5) . . .
98(5) . . .
74(4) . . .
84(5) . . .
87(5) . . .
86(5) . . .
87(5) . . .
74(5) . . .
83(5) . . .
78(5) . . .
87(5) . . .
86(5) . . .
73(5) . . .
96(5) . . .
75(5) . . .
80(5) . . .
76(5) . . .
68(4) . . .
76(5) . . .
84(5) . . .
97(5) . . .
90(5) . . .
101(5) . . .
101(5) . . .
92(5) . . .
85(5) . . .
88(5) . . .
83(5) . . .
84(5) . . .
81(5) . . .
81(5) . . .
72(5) . . .
82(5) . . .
90(5) . . .
90(5) . . .
92(5) . . .
92(6) . . .
84(5) . . .
88(5) . . .
89(5) . . .
79(5) . . .
86(5) . . .
81(5) . . .
86(5) . . .
80(5) . . .
88(5) . . .
89(5) . . .
98(5) . . .
92(5) . . .
86(5) . . .
104(5) . . .
84(5) . . .
80(5) . . .
77(5) . . .
82(5) . . .
83(5) . . .
90(5) . . .
99(5) . . .
98(5) . . .
78(5) . . .
85(5) . . .
94(5) . . .
99(5) . . .
93(5) . . .
84(5) . . .
95(5) . . .
78(5) . . .
80(5) . . .
77(5) . . .
83(5) . . .
77(5) . . .
80(5) . . .
74(4) . . .
86(5) . . .
92(5) . . .
79(5) . . .
92(5) . . .
87(5) . . .
82(5) . . .
92(5) . . .
78(5) . . .
84(5) . . .
82(5) . . .
79(5) . . .
84(5) . . .
80(5) . . .
92(5) . . .
83(5) . . .
84(5) . . .
85(5) . . .
70(5) . . .
78(5) . . .
78(5) . . .
82(5) . . .
93(5) . . .
76(5) . . .
85(5) . . .
79(5) . . .
87(5) . . .
91(5) . . .
88(5) . . .
77(5) . . .
74(4) . . .
78(5) . . .
95(5) . . .
78(5) . . .
65(4) . . .
75(5) . . .
88(5) . . .
73(4) . . .
71(4) . . .
87(5) . . .
77(5) . . .
82(5) . . .
86(5) . . .
91(5) . . .
91(5) . . .
96(5) . . .
90(5) . . .
86(5) . . .
92(5) . . .
87(5) . . .
78(5) . . .
91(5) . . .
80(5) . . .
76(5) . . .
86(5) . . .
85(5) . . .
76(5) . . .
75(5) . . .
84(5) . . .
84(5) . . .
87(5) . . .
88(5) . . .
83(5) . . .
84(5) . . .
80(5) . . .
80(5) . . .
78(5) . . .
79(5) . . .
79(5) . . .
83(5) . . .
96(5) . . .
77(5) . . .
83(5) . . .
72(5) . . .
97(5) . . .
71(4) . . .
77(5) . . .
78(5) . . .
82(5) . . .
84(5) . . .
82(5) . . .
72(4) . . .
75(5) . . .
78(5) . . .
91(5) . . .
91(5) . . .
79(5) . . .
82(5) . . .
82(5) . . .
76(5) . . .
88(5) . . .
88(5) . . .
72(5) . . .
78(5) . . .
83(5) . . .
78(5) . . .
94(6) . . .
79(5) . . .
81(5) . . .
80(5) . . .
81(5) . . .
77(5) . . .
93(5) . . .
88(5) . . .
92(5) . . .
82(5) . . .
68(5) . . .
74(5) . . .
79(5) . . .
88(5) . . .
89(5) . . .
77(5) . . .
78(5) . . .
81(5) . . .
82(5) . . .
80(5) . . .
76(5) . . .
81(5) . . .
77(5) . . .
80(5) . . .
76(5) . . .
85(5) . . .
93(5) . . .
75(4) . . .
85(5) . . .
78(5) . . .
79(5) . . .
70(5) . . .
83(5) . . .
92(5) . . .
79(5) . . .
70(4) . . .
84(5) . . .
84(5) . . .
79(5) . . .
74(5) . . .
78(5) . . .
76(5) . . .
83(5) . . .
78(5) . . .
74(5) . . .
90(5) . . .
81(5) . . .
80(5) . . .
73(5) . . .
85(5) . . .
72(4) . . .
80(5) . . .
84(5) . . .
75(5) . . .
70(5) . . .
76(5) . . .
91(5) . . .
81(5) . . .
65(4) . . .
85(5) . . .
86(5) . . .
81(5) . . .
83(5) . . .
90(5) . . .
67(4) . . .
87(5) . . .
85(5) . . .
75(4) . . .
81(5) . . .
85(5) . . .
79(5) . . .
81(5) . . .
88(5) . . .
74(5) . . .
77(5) . . .
84(5) . . .
86(5) . . .
81(5) . . .
80(5) . . .
76(5) . . .
86(5) . . .
88(5) . . .
81(5) . . .
86(5) . . .
88(5) . . .
94(5) . . .
82(5) . . .
77(5) . . .
89(5) . . .
87(5) . . .
82(5) . . .
78(5) . . .
87(5) . . .
83(5) . . .
70(4) . . .
72(4) . . .
95(5) . . .
86(5) . . .
93(5) . . .
78(5) . . .
79(5) . . .
71(4) . . .
78(5) . . .
80(5) . . .
84(5) . . .
73(5) . . .
78(5) . . .
90(5) . . .
82(5) . . .
84(5) . . .
77(5) . . .
88(5) . . .
80(5) . . .
89(5) . . .
76(5) . . .
68(4) . . .
77(5) . . .
71(4) . . .
92(5) . . .
85(5) . . .
74(5) . . .
81(5) . . .
83(5) . . .
90(5) . . .
74(5) . . .
75(4) . . .
78(5) . . .
72(5) . . .
72(5) . . .
80(5) . . .
79(5) . . .
77(5) . . .
87(5) . . .
83(5) . . .
77(5) . . .
88(5) . . .
82(5) . . .
73(5) . . .
88(5) . . .
83(5) . . .
77(5) . . .
84(5) . . .
79(5) . . .
78(5) . . .
71(5) . . .
80(5) . . .
84(5) . . .
75(5) . . .
89(5) . . .
72(5) . . .
71(4) . . .
75(5) . . .
89(5) . . .
94(5) . . .
90(5) . . .
82(5) . . .
88(5) . . .
82(5) . . .
70(4) . . .
81(5) . . .
80(5) . . .
79(5) . . .
77(5) . . .
81(5) . . .
69(4) . . .
74(4) . . .
87(5) . . .
85(5) . . .
90(5) . . .
89(5) . . .
92(5) . . .
82(5) . . .
74(5) . . .
80(5) . . .
74(4) . . .
96(5) . . .
76(5) . . .
81(5) . . .
86(5) . . .
90(5) . . .
88(5) . . .
79(5) . . .
79(5) . . .
86(5) . . .
78(5) . . .
77(5) . . .
67(4) . . .
79(5) . . .
96(5) . . .
89(5) . . .
86(5) . . .
77(5) . . .
78(5) . . .
84(5) . . .
79(5) . . .
86(5) . . .
78(5) . . .
87(5) . . .
86(5) . . .
91(5) . . .
98(5) . . .
80(5) . . .
87(5) . . .
70(4) . . .
82(5) . . .
80(5) . . .
80(5) . . .
86(5) . . .
74(5) . . .
95(5) . . .
82(5) . . .
79(5) . . .
84(5) . . .
84(5) . . .
80(5) . . .
80(5) . . .
74(5) . . .
102(6) . . .
82(5) . . .
82(5) . . .
99(6) . . .
74(5) . . .
79(5) . . .
78(5) . . .
82(5) . . .
90(5) . . .
91(5) . . .
84(5) . . .
85(5) . . .
96(5) . . .
80(5) . . .
88(5) . . .
89(5) . . .
79(5) . . .
90(5) . . .
86(5) . . .
82(5) . . .
76(5) . . .
88(5) . . .
93(5) . . .
77(5) . . .
85(5) . . .
79(5) . . .
70(4) . . .
70(4) . . .
92(5) . . .
92(5) . . .
84(5) . . .
73(4) . . .
76(5) . . .
78(5) . . .
75(5) . . .
73(5) . . .
87(5) . . .
82(5) . . .
81(5) . . .
79(5) . . .
84(5) . . .
77(5) . . .
89(5) . . .
80(5) . . .
73(5) . . .
71(4) . . .
82(5) . . .
80(5) . . .
83(5) . . .
85(5) . . .
73(5) . . .
83(5) . . .
78(5) . . .
93(5) . . .
74(5) . . .
79(5) . . .
83(5) . . .
81(5) . . .
95(5) . . .
89(5) . . .
87(5) . . .
83(5) . . .
82(5) . . .
78(5) . . .
83(5) . . .
82(5) . . .
75(5) . . .
79(5) . . .
82(5) . . .
80(5) . . .
88(5) . . .
87(5) . . .
67(4) . . .
78(5) . . .
71(5) . . .
78(5) . . .
80(5) . . .
77(5) . . .
82(5) . . .
74(5) . . .
84(5) . . .
85(5) . . .
71(4) . . .
86(5) . . .
89(5) . . .
73(4) . . .
87(5) . . .
76(5) . . .
85(5) . . .
84(5) . . .
81(5) . . .
76(5) . . .
75(5) . . .
75(5) . . .
73(4) . . .
89(5) . . .
80(5) . . .
80(5) . . .
79(5) . . .
72(4) . . .
80(5) . . .
85(5) . . .
75(5) . . .
77(5) . . .
63(4) . . .
77(5) . . .
92(5) . . .
93(5) . . .
75(5) . . .
80(5) . . .
85(5) . . .
69(4) . . .
91(6) . . .
77(5) . . .
79(5) . . .
85(5) . . .
80(5) . . .
72(4) . . .
81(5) . . .
75(4) . . .
84(5) . . .
75(5) . . .
79(5) . . .
84(5) . . .
81(5) . . .
86(5) . . .
80(5) . . .
80(5) . . .
82(5) . . .
87(5) . . .
66(4) . . .
72(5) . . .
71(5) . . .
70(5) . . .
75(4) . . .
80(5) . . .
77(5) . . .
88(5) . . .
92(5) . . .
93(5) . . .
86(5) . . .
75(5) . . .
87(5) . . .
75(5) . . .
84(5) . . .
75(4) . . .
81(5) . . .
96(5) . . .
75(5) . . .
91(5) . . .
79(5) . . .
88(5) . . .
92(5) . . .
84(5) . . .
69(4) . . .
75(5) . . .
78(5) . . .
69(4) . . .
75(5) . . .
69(4) . . .
68(4) . . .
84(5) . . .
79(5) . . .
73(4) . . .
81(5) . . .
78(5) . . .
79(5) . . .
86(5) . . .
80(5) . . .
85(5) . . .
77(5) . . .
77(5) . . .
80(5) . . .
77(5) . . .
70(4) . . .
80(5) . . .
73(5) . . .
82(5) . . .
77(5) . . .
76(5) . . .
78(5) . . .
85(5) . . .
81(5) . . .
72(4) . . .
91(5) . . .
89(5) . . .
88(5) . . .
84(5) . . .
80(5) . . .
86(5) . . .
87(5) . . .
71(4) . . .
83(5) . . .
72(4) . . .
73(4) . . .
82(5) . . .
78(5) . . .
90(5) . . .
86(5) . . .
73(5) . . .
79(5) . . .
93(5) . . .
86(5) . . .
79(5) . . .
83(5) . . .
78(5) . . .
74(5) . . .
78(5) . . .
85(5) . . .
75(5) . . .
71(5) . . .
73(5) . . .
79(5) . . .
70(4) . . .
79(5) . . .
84(5) . . .
79(5) . . .
78(5) . . .
72(4) . . .
87(5) . . .
71(4) . . .
80(5) . . .
68(4) . . .
87(5) . . .
85(5) . . .
84(5) . . .
93(5) . . .
91(5) . . .
75(5) . . .
84(5) . . .
82(5) . . .
79(5) . . .
79(5) . . .
81(5) . . .
73(5) . . .
82(5) . . .
89(5) . . .
72(4) . . .
74(5) . . .
83(5) . . .
87(5) . . .
80(5) . . .
73(5) . . .
71(4) . . .
87(5) . . .
85(5) . . .
81(5) . . .
83(5) . . .
86(5) . . .
78(5) . . .
78(5) . . .
78(5) . . .
71(4) . . .
77(5) . . .
80(5) . . .
85(5) . . .
95(5) . . .
81(5) . . .
76(5) . . .
73(5) . . .
66(4) . . .
77(5) . . .
77(5) . . .
85(5) . . .
87(5) . . .
84(5) . . .
81(5) . . .
77(5) . . .
89(5) . . .
85(5) . . .
81(5) . . .
84(5) . . .
76(5) . . .
82(5) . . .
90(5) . . .
83(5) . . .
88(5) . . .
89(5) . . .
81(5) . . .
79(5) . . .
87(5) . . .
76(5) . . .
76(5) . . .
84(5) . . .
81(5) . . .
81(5) . . .
86(5) . . .
82(5) . . .
89(5) . . .
88(5) . . .
77(5) . . .
70(4) . . .
90(5) . . .
90(5) . . .
85(5) . . .
76(5) . . .
75(5) . . .
71(4) . . .
73(5) . . .
77(5) . . .
75(4) . . .
77(5) . . .
69(4) . . .
72(5) . . .
86(5) . . .
72(4) . . .
63(4) . . .
78(5) . . .
83(5) . . .
74(5) . . .
86(5) . . .
81(5) . . .
74(5) . . .
88(5) . . .
83(5) . . .
71(4) . . .
82(5) . . .
72(4) . . .
79(5) . . .
83(5) . . .
74(4) . . .
81(5) . . .
83(5) . . .
78(5) . . .
72(5) . . .
83(5) . . .
84(5) . . .
71(4) . . .
82(5) . . .
77(5) . . .
90(5) . . .
72(4) . . .
87(5) . . .
85(5) . . .
75(5) . . .
75(5) . . .
84(5) . . .
78(5) . . .
78(5) . . .
79(5) . . .
82(5) . . .
80(5) . . .
85(5) . . .
96(5) . . .
90(5) . . .
79(5) . . .
75(5) . . .
67(4) . . .
72(5) . . .
85(5) . . .
86(5) . . .
86(5) . . .
78(5) . . .
79(5) . . .
76(5) . . .
63(4) . . .
76(5) . . .
87(5) . . .
85(5) . . .
81(5) . . .
71(4) . . .
76(5) . . .
73(5) . . .
76(5) . . .
82(5) . . .
84(5) . . .
85(5) . . .
84(5) . . .
81(5) . . .
83(5) . . .
73(4) . . .
92(5) . . .
67(4) . . .
79(5) . . .
84(5) . . .
73(5) . . .
69(4) . . .
90(5) . . .
83(5) . . .
80(5) . . .
76(4) . . .
90(5) . . .
92(5) . . .
83(5) . . .
77(5) . . .
82(5) . . .
88(5) . . .
88(5) . . .
73(4) . . .
91(5) . . .
85(5) . . .
89(5) . . .
82(5) . . .
77(5) . . .
75(5) . . .
74(5) . . .
83(5) . . .
79(5) . . .
70(4) . . .
77(5) . . .
74(4) . . .
68(4) . . .
82(5) . . .
79(5) . . .
67(4) . . .
86(5) . . .
80(5) . . .
77(5) . . .
78(5) . . .
87(5) . . .
90(5) . . .
80(5) . . .
69(5) . . .
81(5) . . .
83(5) . . .
80(5) . . .
82(5) . . .
69(4) . . .
79(5) . . .
82(5) . . .
81(5) . . .
70(4) . . .
80(5) . . .
71(4) . . .
76(5) . . .
73(5) . . .
85(5) . . .
72(4) . . .
57(4) . . .
71(4) . . .
69(5) . . .
73(5) . . .
72(5) . . .
73(4) . . .
79(5) . . .
84(5) . . .
80(5) . . .
70(4) . . .
80(5) . . .
74(5) . . .
80(5) . . .
76(5) . . .
76(5) . . .
70(4) . . .
71(5) . . .
80(5) . . .
75(5) . . .
81(5) . . .
80(5) . . .
84(5) . . .
81(5) . . .
81(5) . . .
84(5) . . .
69(4) . . .
75(5) . . .
77(5) . . .
76(5) . . .
69(4) . . .
90(5) . . .
87(5) . . .
72(5) . . .
79(5) . . .
72(4) . . .
76(5) . . .
79(5) . . .
84(5) . . .
69(5) . . .
67(4) . . .
63(4) . . .
75(5) . . .
71(4) . . .
72(5) . . .
69(4) . . .
73(4) . . .
70(4) . . .
63(4) . . .
77(5) . . .
70(4) . . .
72(4) . . .
84(5) . . .
88(5) . . .
63(4) . . .
78(5) . . .
69(4) . . .
82(5) . . .
81(5) . . .
69(5) . . .
79(5) . . .
84(5) . . .
92(5) . . .
86(5) . . .
83(5) . . .
90(5) . . .
90(5) . . .
83(5) . . .
77(5) . . .
80(5) . . .
78(5) . . .
68(5) . . .
88(5) . . .
80(5) . . .
88(5) . . .
97(5) . . .
71(4) . . .
70(5) . . .
84(5) . . .
83(5) . . .
80(5) . . .
80(5) . . .
70(5) . . .
80(5) . . .
70(4) . . .
76(5) . . .
80(5) . . .
80(5) . . .
76(5) . . .
80(5) . . .
69(4) . . .
80(5) . . .
89(5) . . .
85(5) . . .
72(4) . . .
85(5) . . .
78(5) . . .
87(5) . . .
78(5) . . .
86(5) . . .
87(5) . . .
75(5) . . .
83(5) . . .
82(5) . . .
74(4) . . .
64(4) . . .
79(5) . . .
77(5) . . .
75(5) . . .
74(4) . . .
66(5) . . .
71(5) . . .
83(5) . . .
80(5) . . .
66(4) . . .
66(4) . . .
71(5) . . .
68(4) . . .
72(5) . . .
84(5) . . .
66(4) . . .
76(5) . . .
71(5) . . .
71(4) . . .
77(5) . . .
63(4) . . .
67(4) . . .
77(5) . . .
83(5) . . .
72(4) . . .
82(5) . . .
84(5) . . .
75(5) . . .
75(5) . . .
82(5) . . .
79(5) . . .
71(5) . . .
79(5) . . .
88(5) . . .
74(5) . . .
71(5) . . .
73(5) . . .
79(5) . . .
58(4) . . .
69(4) . . .
93(5) . . .
77(5) . . .
73(5) . . .
78(5) . . .
74(5) . . .
73(5) . . .
70(5) . . .
84(5) . . .
85(5) . . .
64(4) . . .
78(5) . . .
80(5) . . .
74(5) . . .
75(4) . . .
74(5) . . .
77(5) . . .
78(5) . . .
65(4) . . .
67(4) . . .
84(5) . . .
81(5) . . .
85(5) . . .
92(5) . . .
66(4) . . .
73(5) . . .
81(5) . . .
79(5) . . .
77(5) . . .
75(5) . . .
66(4) . . .
76(5) . . .
83(5) . . .
86(5) . . .
83(5) . . .
80(5) . . .
73(5) . . .
71(4) . . .
76(4) . . .
63(4) . . .
71(4) . . .
78(5) . . .
75(5) . . .
81(5) . . .
70(4) . . .
84(5) . . .
72(5) . . .
77(5) . . .
90(5) . . .
84(5) . . .
87(5) . . .
66(5) . . .
83(5) . . .
74(5) . . .
81(5) . . .
75(5) . . .
79(5) . . .
86(5) . . .
69(4) . . .
76(5) . . .
77(5) . . .
75(5) . . .
60(4) . . .
86(5) . . .
66(4) . . .
79(5) . . .
77(5) . . .
96(5) . . .
73(4) . . .
75(5) . . .
80(5) . . .
88(5) . . .
69(4) . . .
79(5) . . .
69(4) . . .
73(5) . . .
73(5) . . .
89(5) . . .
74(5) . . .
77(5) . . .
68(4) . . .
69(4) . . .
78(5) . . .
85(5) . . .
71(4) . . .
76(5) . . .
84(5) . . .
78(5) . . .
82(5) . . .
88(5) . . .
76(5) . . .
75(5) . . .
80(5) . . .
79(5) . . .
66(4) . . .
89(5) . . .
90(5) . . .
88(5) . . .
75(4) . . .
67(4) . . .
73(5) . . .
77(5) . . .
76(5) . . .
76(5) . . .
72(5) . . .
77(5) . . .
77(5) . . .
86(5) . . .
82(5) . . .
67(4) . . .
78(5) . . .
81(5) . . .
83(5) . . .
78(5) . . .
76(5) . . .
84(5) . . .
79(5) . . .
82(5) . . .
75(5) . . .
68(5) . . .
75(5) . . .
83(5) . . .
73(4) . . .
69(4) . . .
78(5) . . .
75(5) . . .
83(5) . . .
82(5) . . .
80(5) . . .
66(4) . . .
71(5) . . .
87(5) . . .
97(5) . . .
87(5) . . .
89(5) . . .
69(4) . . .
74(5) . . .
64(4) . . .
76(5) . . .
76(5) . . .
87(5) . . .
79(5) . . .
90(5) . . .
66(4) . . .
77(5) . . .
73(5) . . .
73(4) . . .
78(5) . . .
81(5) . . .
81(5) . . .
75(5) . . .
75(5) . . .
82(5) . . .
72(4) . . .
81(5) . . .
83(5) . . .
84(5) . . .
78(5) . . .
79(5) . . .
78(5) . . .
80(5) . . .
71(4) . . .
70(4) . . .
70(5) . . .
60(4) . . .
90(5) . . .
75(5) . . .
79(5) . . .
73(5) . . .
76(5) . . .
83(5) . . .
86(5) . . .
70(5) . . .
71(4) . . .
74(5) . . .
73(5) . . .
67(4) . . .
72(5) . . .
71(5) . . .
79(5) . . .
85(5) . . .
80(5) . . .
75(5) . . .
77(5) . . .
85(5) . . .
69(4) . . .
86(5) . . .
74(5) . . .
64(5) . . .
71(4) . . .
83(5) . . .
71(4) . . .
85(5) . . .
74(5) . . .
82(5) . . .
83(5) . . .
87(5) . . .
70(4) . . .
78(5) . . .
75(5) . . .
73(4) . . .
80(5) . . .
85(5) . . .
78(5) . . .
69(4) . . .
77(5) . . .
82(5) . . .
69(4) . . .
72(5) . . .
75(5) . . .
79(5) . . .
72(5) . . .
75(5) . . .
67(4) . . .
79(5) . . .
78(5) . . .
88(5) . . .
84(5) . . .
82(5) . . .
81(5) . . .
82(5) . . .
77(5) . . .
83(5) . . .
74(5) . . .
79(5) . . .
70(4) . . .
84(5) . . .
67(4) . . .
75(5) . . .
79(5) . . .
76(5) . . .
78(5) . . .
70(5) . . .
74(5) . . .
74(5) . . .
77(5) . . .
76(5) . . .
84(5) . . .
82(5) . . .
84(5) . . .
89(5) . . .
73(5) . . .
73(5) . . .
84(5) . . .
96(5) . . .
71(4) . . .
80(5) . . .
78(5) . . .
69(4) . . .
69(4) . . .
81(5) . . .
72(4) . . .
82(5) . . .
70(4) . . .
66(4) . . .
64(4) . . .
76(5) . . .
75(5) . . .
71(4) . . .
79(5) . . .
69(4) . . .
70(5) . . .
85(5) . . .
73(5) . . .
62(4) . . .
79(5) . . .
67(4) . . .
83(5) . . .
80(5) . . .
77(5) . . .
88(5) . . .
74(5) . . .
78(5) . . .
84(5) . . .
65(4) . . .
70(4) . . .
74(5) . . .
82(5) . . .
82(5) . . .
62(4) . . .
73(5) . . .
73(5) . . .
71(5) . . .
75(4) . . .
76(5) . . .
69(4) . . .
82(5) . . .
81(5) . . .
71(4) . . .
69(4) . . .
68(4) . . .
74(5) . . .
67(4) . . .
72(4) . . .
72(4) . . .
83(5) . . .
77(5) . . .
78(5) . . .
66(4) . . .
78(5) . . .
80(5) . . .
79(5) . . .
70(4) . . .
72(4) . . .
74(5) . . .
69(5) . . .
66(4) . . .
71(4) . . .
68(4) . . .
82(5) . . .
74(5) . . .
72(5) . . .
67(4) . . .
71(4) . . .
70(4) . . .
74(5) . . .
69(4) . . .
76(5) . . .
79(5) . . .
78(5) . . .
72(5) . . .
77(5) . . .
78(5) . . .
89(5) . . .
67(4) . . .
69(5) . . .
67(4) . . .
71(4) . . .
67(4) . . .
73(5) . . .
65(5) . . .
61(4) . . .
70(4) . . .
71(4) . . .
72(4) . . .
73(5) . . .
75(5) . . .
77(5) . . .
73(5) . . .
63(4) . . .
73(5) . . .
80(5) . . .
74(4) . . .
60(4) . . .
71(5) . . .
78(5) . . .
74(4) . . .
75(5) . . .
72(4) . . .
73(5) . . .
70(5) . . .
70(5) . . .
70(4) . . .
72(4) . . .
74(5) . . .
76(5) . . .
82(5) . . .
77(5) . . .
72(5) . . .
72(5) . . .
61(4) . . .
83(5) . . .
78(5) . . .
87(5) . . .
76(5) . . .
80(5) . . .
78(5) . . .
69(4) . . .
86(5) . . .
79(5) . . .
77(5) . . .
84(5) . . .
70(4) . . .
72(5) . . .
73(5) . . .
77(5) . . .
85(5) . . .
85(5) . . .
77(5) . . .
78(5) . . .
72(5) . . .
80(5) . . .
79(5) . . .
74(5) . . .
73(5) . . .
78(5) . . .
60(4) . . .
67(4) . . .
71(5) . . .
72(5) . . .
75(4) . . .
81(5) . . .
72(4) . . .
73(4) . . .
67(5) . . .
69(4) . . .
72(4) . . .
84(5) . . .
73(5) . . .
81(5) . . .
72(4) . . .
73(4) . . .
76(5) . . .
63(4) . . .
72(5) . . .
77(5) . . .
84(5) . . .
79(5) . . .
65(4) . . .
76(5) . . .
67(4) . . .
76(5) . . .
88(5) . . .
63(4) . . .
76(5) . . .
81(5) . . .
72(4) . . .
71(5) . . .
78(5) . . .
72(5) . . .
66(4) . . .
69(4) . . .
76(5) . . .
67(5) . . .
74(5) . . .
77(5) . . .
66(4) . . .
70(5) . . .
78(5) . . .
74(5) . . .
67(4) . . .
74(4) . . .
72(5) . . .
75(5) . . .
79(5) . . .
86(5) . . .
69(4) . . .
62(4) . . .
72(5) . . .
80(5) . . .
62(4) . . .
69(4) . . .
66(4) . . .
67(5) . . .
79(5) . . .
78(5) . . .
65(4) . . .
71(4) . . .
69(5) . . .
80(5) . . .
68(4) . . .
70(4) . . .
71(5) . . .
57(4) . . .
81(5) . . .
76(5) . . .
75(5) . . .
85(5) . . .
78(5) . . .
79(5) . . .
79(5) . . .
80(5) . . .
75(5) . . .
76(5) . . .
66(4) . . .
77(5) . . .
82(5) . . .
81(5) . . .
81(5) . . .
87(5) . . .
71(4) . . .
72(5) . . .
72(5) . . .
81(5) . . .
75(5) . . .
79(5) . . .
74(5) . . .
68(4) . . .
69(5) . . .
69(4) . . .
79(5) . . .
82(5) . . .
86(5) . . .
88(5) . . .
80(5) . . .
81(5) . . .
78(5) . . .
82(5) . . .
73(5) . . .
83(5) . . .
81(5) . . .
90(5) . . .
74(5) . . .
77(5) . . .
66(4) . . .
70(4) . . .
75(5) . . .
80(5) . . .
92(5) . . .
79(5) . . .
77(5) . . .
79(5) . . .
78(5) . . .
83(5) . . .
86(5) . . .
71(4) . . .
71(4) . . .
74(5) . . .
77(5) . . .
74(4) . . .
81(5) . . .
89(5) . . .
78(5) . . .
80(5) . . .
82(5) . . .
60(4) . . .
72(5) . . .
76(5) . . .
81(5) . . .
82(5) . . .
75(5) . . .
62(4) . . .
79(5) . . .
72(4) . . .
70(4) . . .
72(5) . . .
73(5) . . .
86(5) . . .
83(5) . . .
77(5) . . .
76(5) . . .
88(5) . . .
69(4) . . .
77(5) . . .
64(4) . . .
77(5) . . .
75(5) . . .
86(5) . . .
81(5) . . .
83(5) . . .
70(5) . . .
71(5) . . .
78(5) . . .
73(4) . . .
81(5) . . .
75(5) . . .
76(5) . . .
76(5) . . .
82(5) . . .
68(4) . . .
66(4) . . .
70(5) . . .
84(5) . . .
89(5) . . .
69(4) . . .
80(5) . . .
76(5) . . .
87(5) . . .
89(5) . . .
83(5) . . .
71(4) . . .
75(5) . . .
70(4) . . .
73(4) . . .
83(5) . . .
68(4) . . .
84(5) . . .
70(4) . . .
79(5) . . .
63(4) . . .
81(5) . . .
60(4) . . .
70(5) . . .
72(4) . . .
75(5) . . .
78(5) . . .
87(5) . . .
76(4) . . .
74(4) . . .
64(4) . . .
66(4) . . .
83(5) . . .
71(4) . . .
69(4) . . .
70(4) . . .
74(5) . . .
70(4) . . .
86(5) . . .
70(4) . . .
70(4) . . .
74(5) . . .
58(4) . . .
79(5) . . .
82(5) . . .
81(5) . . .
85(5) . . .
67(4) . . .
72(4) . . .
67(4) . . .
75(5) . . .
82(5) . . .
64(4) . . .
67(4) . . .
75(5) . . .
61(4) . . .
69(5) . . .
79(5) . . .
84(5) . . .
80(5) . . .
69(4) . . .
70(4) . . .
75(5) . . .
72(4) . . .
78(5) . . .
63(4) . . .
66(4) . . .
69(4) . . .
75(5) . . .
63(4) . . .
78(5) . . .
70(5) . . .
75(5) . . .
78(5) . . .
85(5) . . .
75(5) . . .
70(4) . . .
77(5) . . .
85(5) . . .
65(4) . . .
68(5) . . .
74(5) . . .
74(5) . . .
72(4) . . .
86(5) . . .
76(5) . . .
76(5) . . .
58(4) . . .
79(5) . . .
74(4) . . .
68(4) . . .
72(4) . . .
71(4) . . .
65(4) . . .
76(5) . . .
81(5) . . .
69(5) . . .
80(5) . . .
74(5) . . .
83(5) . . .
80(5) . . .
65(5) . . .
83(5) . . .
84(5) . . .
81(5) . . .
76(5) . . .
82(5) . . .
84(5) . . .
79(5) . . .
75(5) . . .
71(5) . . .
78(5) . . .
71(4) . . .
72(4) . . .
78(5) . . .
78(5) . . .
74(4) . . .
69(4) . . .
74(5) . . .
87(5) . . .
65(4) . . .
78(5) . . .
85(5) . . .
80(5) . . .
68(4) . . .
75(5) . . .
80(5) . . .
82(5) . . .
79(5) . . .
75(5) . . .
73(5) . . .
80(5) . . .
87(5) . . .
70(4) . . .
81(5) . . .
85(5) . . .
76(5) . . .
83(5) . . .
82(5) . . .
75(5) . . .
77(5) . . .
74(4) . . .
78(5) . . .
67(4) . . .
73(5) . . .
80(5) . . .
81(5) . . .
88(5) . . .
81(5) . . .
69(5) . . .
72(4) . . .
80(5) . . .
65(4) . . .
79(5) . . .
68(4) . . .
77(5) . . .
73(4) . . .
65(4) . . .
77(5) . . .
76(5) . . .
72(4) . . .
70(4) . . .
68(4) . . .
71(4) . . .
75(5) . . .
62(4) . . .
67(4) . . .
70(5) . . .
66(5) . . .
69(4) . . .
62(4) . . .
82(5) . . .
89(5) . . .
68(4) . . .
71(5) . . .
73(5) . . .
69(4) . . .
87(5) . . .
78(5) . . .
75(5) . . .
73(4) . . .
75(5) . . .
67(5) . . .
80(5) . . .
77(5) . . .
82(5) . . .
76(4) . . .
76(5) . . .
90(5) . . .
80(5) . . .
90(5) . . .
80(5) . . .
76(5) . . .
75(5) . . .
73(5) . . .
71(4) . . .
71(4) . . .
68(4) . . .
73(5) . . .
75(5) . . .
74(4) . . .
64(4) . . .
71(5) . . .
62(4) . . .
81(5) . . .
69(4) . . .
77(5) . . .
66(4) . . .
56(4) . . .
64(4) . . .
79(5) . . .
74(4) . . .
75(5) . . .
73(5) . . .
74(5) . . .
74(4) . . .
68(4) . . .
78(5) . . .
73(5) . . .
70(4) . . .
66(4) . . .
71(4) . . .
70(4) . . .
72(5) . . .
71(4) . . .
74(4) . . .
63(4) . . .
72(5) . . .
86(5) . . .
70(4) . . .
75(4) . . .
77(5) . . .
77(5) . . .
74(4) . . .
68(4) . . .
77(5) . . .
69(4) . . .
74(5) . . .
86(5) . . .
80(5) . . .
72(4) . . .
74(5) . . .
78(5) . . .
76(5) . . .
76(5) . . .
69(4) . . .
84(5) . . .
75(5) . . .
59(4) . . .
78(5) . . .
80(5) . . .
66(4) . . .
77(5) . . .
72(4) . . .
59(4) . . .
63(4) . . .
74(5) . . .
69(5) . . .
73(5) . . .
75(5) . . .
72(5) . . .
65(4) . . .
70(4) . . .
73(5) . . .
79(5) . . .
73(4) . . .
63(4) . . .
80(5) . . .
70(4) . . .
73(4) . . .
73(5) . . .
65(4) . . .
66(5) . . .
65(4) . . .
66(4) . . .
63(4) . . .
71(5) . . .
68(4) . . .
61(4) . . .
66(4) . . .
73(5) . . .
65(4) . . .
68(4) . . .
65(4) . . .
69(4) . . .
74(5) . . .
69(4) . . .
71(4) . . .
74(5) . . .
68(4) . . .
62(4) . . .
78(5) . . .
76(5) . . .
78(5) . . .
64(4) . . .
72(4) . . .
68(5) . . .
63(4) . . .
73(4) . . .
67(4) . . .
80(5) . . .
73(5) . . .
86(5) . . .
83(5) . . .
73(4) . . .
75(5) . . .
76(5) . . .
64(4) . . .
63(4) . . .
67(4) . . .
77(5) . . .
64(4) . . .
70(4) . . .
80(5) . . .
66(4) . . .
78(5) . . .
69(5) . . .
68(4) . . .
76(5) . . .
72(5) . . .
74(5) . . .
86(5) . . .
68(4) . . .
67(4) . . .
77(5) . . .
58(4) . . .
61(4) . . .
67(4) . . .
72(4) . . .
64(4) . . .
73(5) . . .
75(5) . . .
75(4) . . .
78(5) . . .
69(4) . . .
69(5) . . .
75(5) . . .
72(4) . . .
85(5) . . .
75(5) . . .
87(5) . . .
68(4) . . .
82(5) . . .
68(4) . . .
76(5) . . .
74(5) . . .
60(4) . . .
83(5) . . .
76(5) . . .
70(5) . . .
73(5) . . .
81(5) . . .
57(4) . . .
67(4) . . .
76(5) . . .
78(5) . . .
74(5) . . .
80(5) . . .
81(5) . . .
71(5) . . .
67(5) . . .
67(4) . . .
72(4) . . .
78(5) . . .
73(5) . . .
76(5) . . .
78(5) . . .
73(4) . . .
83(5) . . .
79(5) . . .
74(5) . . .
81(5) . . .
81(5) . . .
64(4) . . .
75(5) . . .
65(4) . . .
75(5) . . .
74(4) . . .
67(4) . . .
84(5) . . .
65(4) . . .
72(4) . . .
61(4) . . .
85(5) . . .
72(5) . . .
74(5) . . .
79(5) . . .
64(4) . . .
64(4) . . .
75(5) . . .
72(4) . . .
88(5) . . .
67(4) . . .
67(4) . . .
73(5) . . .
75(5) . . .
80(5) . . .
94(5) . . .
68(4) . . .
78(5) . . .
75(5) . . .
74(4) . . .
73(5) . . .
71(4) . . .
67(5) . . .
77(5) . . .
61(4) . . .
72(4) . . .
72(5) . . .
78(5) . . .
70(4) . . .
78(5) . . .
75(5) . . .
70(5) . . .
84(5) . . .
88(5) . . .
64(4) . . .
80(5) . . .
73(5) . . .
64(4) . . .
76(5) . . .
75(4) . . .
71(4) . . .
71(5) . . .
74(5) . . .
79(5) . . .
71(4) . . .
70(5) . . .
63(4) . . .
76(5) . . .
75(5) . . .
71(4) . . .
73(5) . . .
62(4) . . .
64(4) . . .
60(4) . . .
57(4) . . .
72(5) . . .
73(5) . . .
80(5) . . .
70(4) . . .
85(5) . . .
74(5) . . .
76(5) . . .
81(5) . . .
72(4) . . .
68(4) . . .
73(5) . . .
76(5) . . .
67(4) . . .
78(5) . . .
64(4) . . .
74(5) . . .
70(5) . . .
76(5) . . .
79(5) . . .
73(5) . . .
69(4) . . .
72(5) . . .
67(4) . . .
66(4) . . .
70(4) . . .
82(5) . . .
66(4) . . .
71(4) . . .
79(5) . . .
77(5) . . .
76(5) . . .
72(5) . . .
79(5) . . .
66(4) . . .
68(4) . . .
62(4) . . .
69(5) . . .
69(4) . . .
64(4) . . .
80(5) . . .
76(5) . . .
74(5) . . .
67(4) . . .
80(5) . . .
61(4) . . .
70(5) . . .
68(4) . . .
73(5) . . .
76(5) . . .
77(5) . . .
72(5) . . .
72(5) . . .
81(5) . . .
67(4) . . .
69(4) . . .
68(4) . . .
75(5) . . .
70(4) . . .
78(5) . . .
59(4) . . .
69(5) . . .
78(5) . . .
73(4) . . .
72(4) . . .
66(4) . . .
76(5) . . .
76(5) . . .
75(4) . . .
72(4) . . .
68(4) . . .
78(5) . . .
77(5) . . .
67(4) . . .
70(4) . . .
72(5) . . .
81(5) . . .
76(5) . . .
75(5) . . .
78(5) . . .
65(4) . . .
66(4) . . .
74(5) . . .
77(5) . . .
82(5) . . .
66(4) . . .
67(4) . . .
71(4) . . .
80(5) . . .
66(4) . . .
73(5) . . .
74(5) . . .
68(4) . . .
65(4) . . .
65(4) . . .
67(4) . . .
66(5) . . .
71(4) . . .
76(5) . . .
67(4) . . .
79(5) . . .
72(4) . . .
79(5) . . .
85(5) . . .
68(4) . . .
65(4) . . .
73(5) . . .
63(4) . . .
74(4) . . .
66(4) . . .
67(5) . . .
78(5) . . .
84(5) . . .
70(4) . . .
69(4) . . .
75(5) . . .
81(5) . . .
68(4) . . .
62(4) . . .
65(4) . . .
79(5) . . .
61(4) . . .
69(4) . . .
74(5) . . .
71(5) . . .
66(4) . . .
79(5) . . .
81(5) . . .
70(4) . . .
88(5) . . .
67(4) . . .
76(5) . . .
72(4) . . .
75(5) . . .
83(5) . . .
72(5) . . .
67(4) . . .
74(4) . . .
70(5) . . .
73(5) . . .
62(4) . . .
69(4) . . .
69(4) . . .
76(5) . . .
73(5) . . .
73(5) . . .
73(4) . . .
77(5) . . .
78(5) . . .
69(5) . . .
73(5) . . .
65(4) . . .
71(4) . . .
67(4) . . .
76(5) . . .
87(5) . . .
79(5) . . .
72(4) . . .
70(4) . . .
67(5) . . .
71(5) . . .
67(4) . . .
64(4) . . .
67(4) . . .
78(5) . . .
70(4) . . .
73(4) . . .
74(4) . . .
70(4) . . .
68(4) . . .
80(5) . . .
71(4) . . .
73(4) . . .
84(5) . . .
81(5) . . .
72(5) . . .
60(4) . . .
69(4) . . .
60(4) . . .
71(5) . . .
69(4) . . .
69(4) . . .
75(5) . . .
66(5) . . .
70(5) . . .
84(5) . . .
68(4) . . .
74(5) . . .
82(5) . . .
77(5) . . .
65(4) . . .
70(4) . . .
79(5) . . .
78(5) . . .
72(5) . . .
82(5) . . .
68(4) . . .
69(5) . . .
72(5) . . .
84(5) . . .
63(4) . . .
60(4) . . .
72(4) . . .
67(5) . . .
75(5) . . .
72(4) . . .
68(4) . . .
65(4) . . .
65(5) . . .
74(5) . . .
69(4) . . .
72(4) . . .
55(4) . . .
75(5) . . .
69(4) . . .
69(4) . . .
71(4) . . .
63(4) . . .
61(4) . . .
71(4) . . .
81(5) . . .
82(5) . . .
74(5) . . .
71(5) . . .
63(4) . . .
79(5) . . .
65(4) . . .
65(4) . . .
73(5) . . .
61(4) . . .
75(5) . . .
64(4) . . .
71(4) . . .
71(5) . . .
77(5) . . .
61(4) . . .
78(5) . . .
65(4) . . .
66(4) . . .
76(5) . . .
74(5) . . .
61(4) . . .
76(5) . . .
78(5) . . .
77(5) . . .
61(4) . . .
66(4) . . .
76(5) . . .
67(4) . . .
67(4) . . .
67(4) . . .
71(4) . . .
65(4) . . .
69(4) . . .
63(4) . . .
67(4) . . .
61(4) . . .
65(4) . . .
59(4) . . .
72(4) . . .
70(4) . . .
69(4) . . .
73(5) . . .
64(4) . . .
79(5) . . .
79(5) . . .
84(5) . . .
73(5) . . .
74(5) . . .
76(5) . . .
66(4) . . .
66(4) . . .
88(5) . . .
65(4) . . .
78(5) . . .
68(4) . . .
79(5) . . .
77(5) . . .
72(5) . . .
78(5) . . .
71(5) . . .
51(4) . . .
73(5) . . .
85(5) . . .
58(4) . . .
78(5) . . .
73(5) . . .
74(5) . . .
70(5) . . .
72(4) . . .
73(5) . . .
70(5) . . .
79(5) . . .
80(5) . . .
83(5) . . .
73(4) . . .
76(5) . . .
81(5) . . .
87(5) . . .
63(4) . . .
83(5) . . .
77(5) . . .
74(5) . . .
70(4) . . .
83(5) . . .
74(5) . . .
64(4) . . .
70(4) . . .
75(5) . . .
83(5) . . .
66(5) . . .
65(5) . . .
65(4) . . .
62(4) . . .
65(4) . . .
73(5) . . .
80(5) . . .
70(4) . . .
72(5) . . .
67(4) . . .
82(5) . . .
74(5) . . .
65(4) . . .
74(5) . . .
64(4) . . .
76(5) . . .
75(5) . . .
66(4) . . .
78(5) . . .
75(5) . . .
74(5) . . .
78(5) . . .
83(5) . . .
77(5) . . .
75(5) . . .
72(5) . . .
72(5) . . .
67(4) . . .
73(4) . . .
79(5) . . .
72(5) . . .
73(5) . . .
69(4) . . .
71(4) . . .
79(5) . . .
64(4) . . .
61(4) . . .
64(4) . . .
77(4) . . .
66(4) . . .
87(5) . . .
67(4) . . .
69(4) . . .
87(5) . . .
76(5) . . .
70(5) . . .
71(5) . . .
75(4) . . .
73(4) . . .
69(4) . . .
74(5) . . .
79(5) . . .
68(4) . . .
70(4) . . .
74(5) . . .
77(5) . . .
79(5) . . .
75(5) . . .
80(5) . . .
76(5) . . .
75(5) . . .
63(4) . . .
79(5) . . .
67(4) . . .
73(5) . . .
78(5) . . .
64(4) . . .
74(4) . . .
71(4) . . .
72(5) . . .
67(5) . . .
60(4) . . .
62(4) . . .
61(4) . . .
71(5) . . .
68(4) . . .
81(5) . . .
74(4) . . .
72(4) . . .
73(5) . . .
74(5) . . .
82(5) . . .
71(4) . . .
59(4) . . .
74(5) . . .
79(5) . . .
78(5) . . .
75(4) . . .
71(5) . . .
73(5) . . .
80(5) . . .
63(4) . . .
67(4) . . .
77(5) . . .
78(5) . . .
63(4) . . .
72(5) . . .
68(4) . . .
67(4) . . .
66(5) . . .
78(5) . . .
78(5) . . .
79(5) . . .
71(4) . . .
80(5) . . .
68(4) . . .
69(4) . . .
68(4) . . .
65(4) . . .
75(5) . . .
66(4) . . .
66(4) . . .
75(5) . . .
63(4) . . .
70(5) . . .
61(4) . . .
81(5) . . .
71(5) . . .
63(4) . . .
69(5) . . .
70(5) . . .
75(4) . . .
67(4) . . .
79(5) . . .
76(5) . . .
83(5) . . .
79(5) . . .
68(4) . . .
67(4) . . .
75(5) . . .
77(5) . . .
75(5) . . .
72(5) . . .
68(4) . . .
68(4) . . .
80(5) . . .
73(4) . . .
60(4) . . .
83(5) . . .
77(5) . . .
68(4) . . .
63(4) . . .
62(4) . . .
76(5) . . .
74(5) . . .
90(5) . . .
72(4) . . .
59(4) . . .
75(5) . . .
80(5) . . .
77(5) . . .
75(4) . . .
78(5) . . .
72(5) . . .
69(5) . . .
70(4) . . .
76(5) . . .
67(4) . . .
71(5) . . .
73(5) . . .
75(5) . . .
68(4) . . .
72(5) . . .
65(4) . . .
80(5) . . .
70(4) . . .
74(5) . . .
70(4) . . .
70(5) . . .
63(4) . . .
66(4) . . .
75(5) . . .
74(5) . . .
75(5) . . .
73(4) . . .
71(4) . . .
68(4) . . .
74(5) . . .
74(5) . . .
68(4) . . .
73(4) . . .
76(5) . . .
74(5) . . .
74(5) . . .
70(4) . . .
75(5) . . .
73(5) . . .
71(5) . . .
64(4) . . .
61(4) . . .
66(4) . . .
59(4) . . .
67(5) . . .
69(4) . . .
62(4) . . .
62(4) . . .
78(5) . . .
72(5) . . .
74(5) . . .
66(4) . . .
61(4) . . .
71(5) . . .
72(5) . . .
66(4) . . .
72(4) . . .
62(4) . . .
76(5) . . .
72(5) . . .
68(5) . . .
64(4) . . .
71(4) . . .
69(4) . . .
75(5) . . .
66(5) . . .
62(4) . . .
71(4) . . .
78(5) . . .
79(5) . . .
82(5) . . .
67(4) . . .
68(4) . . .
71(5) . . .
66(5) . . .
64(4) . . .
69(4) . . .
76(5) . . .
68(4) . . .
74(5) . . .
72(5) . . .
67(4) . . .
69(4) . . .
57(4) . . .
64(4) . . .
68(4) . . .
59(4) . . .
75(5) . . .
63(4) . . .
58(4) . . .
72(4) . . .
75(5) . . .
74(5) . . .
70(5) . . .
68(4) . . .
72(4) . . .
55(4) . . .
67(4) . . .
73(5) . . .
77(5) . . .
70(4) . . .
78(5) . . .
81(5) . . .
69(5) . . .
76(5) . . .
77(5) . . .
62(4) . . .
80(5) . . .
65(4) . . .
73(5) . . .
71(4) . . .
71(4) . . .
68(4) . . .
74(5) . . .
74(5) . . .
84(5) . . .
69(4) . . .
69(4) . . .
69(4) . . .
75(5) . . .
73(4) . . .
77(5) . . .
74(5) . . .
73(5) . . .
73(5) . . .
63(4) . . .
68(4) . . .
80(5) . . .
72(5) . . .
62(4) . . .
77(5) . . .
78(5) . . .
76(5) . . .
70(5) . . .
69(4) . . .
77(5) . . .
85(5) . . .
77(5) . . .
63(4) . . .
65(4) . . .
64(4) . . .
67(4) . . .
68(5) . . .
68(5) . . .
73(4) . . .
73(5) . . .
85(5) . . .
69(4) . . .
72(5) . . .
77(5) . . .
79(5) . . .
68(5) . . .
72(5) . . .
81(5) . . .
78(5) . . .
73(5) . . .
77(5) . . .
76(5) . . .
77(5) . . .
83(5) . . .
71(4) . . .
72(5) . . .
72(5) . . .
72(5) . . .
71(4) . . .
62(4) . . .
62(4) . . .
72(5) . . .
73(5) . . .
77(5) . . .
67(4) . . .
72(5) . . .
72(5) . . .
63(4) . . .
75(4) . . .
78(5) . . .
64(4) . . .
66(5) . . .
74(5) . . .
75(5) . . .
69(4) . . .
75(5) . . .
71(5) . . .
58(4) . . .
85(5) . . .
75(5) . . .
65(4) . . .
70(4) . . .
76(5) . . .
69(4) . . .
66(4) . . .
71(5) . . .
69(4) . . .
70(4) . . .
66(4) . . .
75(5) . . .
60(4) . . .
67(5) . . .
64(4) . . .
67(4) . . .
63(4) . . .
69(5) . . .
71(4) . . .
74(4) . . .
72(4) . . .
61(4) . . .
78(5) . . .
78(5) . . .
73(4) . . .
68(4) . . .
67(4) . . .
70(5) . . .
68(5) . . .
69(4) . . .
66(4) . . .
64(4) . . .
66(4) . . .
77(5) . . .
66(4) . . .
60(4) . . .
69(5) . . .
69(5) . . .
80(5) . . .
80(5) . . .
85(5) . . .
74(5) . . .
67(5) . . .
72(5) . . .
75(4) . . .
61(4) . . .
59(4) . . .
65(4) . . .
81(5) . . .
71(4) . . .
61(4) . . .
61(4) . . .
74(5) . . .
63(4) . . .
60(4) . . .
61(4) . . .
60(4) . . .
71(5) . . .
73(5) . . .
65(4) . . .
73(5) . . .
66(5) . . .
63(4) . . .
76(5) . . .
65(4) . . .
71(4) . . .
68(5) . . .
69(4) . . .
65(4) . . .
63(4) . . .
66(4) . . .
62(4) . . .
71(4) . . .
78(5) . . .
76(5) . . .
74(4) . . .
73(5) . . .
65(4) . . .
74(4) . . .
72(5) . . .
60(4) . . .
63(4) . . .
62(4) . . .
69(4) . . .
63(4) . . .
64(4) . . .
74(5) . . .
66(4) . . .
74(5) . . .
69(4) . . .
66(4) . . .
66(5) . . .
71(5) . . .
69(4) . . .
68(4) . . .
68(4) . . .
68(5) . . .
66(4) . . .
88(5) . . .
72(5) . . .
66(4) . . .
82(5) . . .
75(5) . . .
78(5) . . .
71(4) . . .
79(5) . . .
86(5) . . .
73(5) . . .
52(4) . . .
61(4) . . .
85(5) . . .
77(5) . . .
69(4) . . .
71(4) . . .
77(5) . . .
73(5) . . .
71(5) . . .
54(4) . . .
68(4) . . .
78(5) . . .
70(5) . . .
75(5) . . .
68(4) . . .
63(4) . . .
63(4) . . .
66(5) . . .
72(5) . . .
63(4) . . .
64(4) . . .
69(4) . . .
70(5) . . .
57(4) . . .
78(5) . . .
68(4) . . .
70(5) . . .
73(5) . . .
74(5) . . .
78(5) . . .
68(4) . . .
65(4) . . .
74(5) . . .
79(5) . . .
65(4) . . .
72(5) . . .
76(5) . . .
65(4) . . .
61(4) . . .
71(4) . . .
75(5) . . .
67(4) . . .
81(5) . . .
74(5) . . .
72(4) . . .
59(4) . . .
67(5) . . .
73(5) . . .
78(5) . . .
70(4) . . .
74(5) . . .
72(5) . . .
68(5) . . .
68(4) . . .
65(4) . . .
68(4) . . .
65(4) . . .
66(4) . . .
62(4) . . .
55(4) . . .
63(4) . . .
65(4) . . .
59(4) . . .
58(4) . . .
60(4) . . .
61(4) . . .
58(4) . . .
74(5) . . .
72(4) . . .
74(5) . . .
74(5) . . .
77(5) . . .
64(4) . . .
67(4) . . .
69(4) . . .
67(4) . . .
73(5) . . .
74(5) . . .
77(4) . . .
65(4) . . .
79(5) . . .
78(5) . . .
71(5) . . .
63(4) . . .
71(4) . . .
66(4) . . .
75(5) . . .
71(4) . . .
70(4) . . .
66(4) . . .
67(4) . . .
60(4) . . .
69(4) . . .
60(4) . . .
71(4) . . .
67(4) . . .
74(5) . . .
70(4) . . .
67(4) . . .
71(4) . . .
76(5) . . .
67(4) . . .
63(4) . . .
70(4) . . .
73(5) . . .
67(5) . . .
67(5) . . .
85(5) . . .
73(4) . . .
67(4) . . .
68(5) . . .
74(5) . . .
75(5) . . .
76(5) . . .
70(5) . . .
72(5) . . .
55(4) . . .
75(5) . . .
79(5) . . .
73(5) . . .
84(5) . . .
84(5) . . .
64(4) . . .
77(5) . . .
81(5) . . .
74(4) . . .
75(4) . . .
77(5) . . .
62(4) . . .
71(5) . . .
69(4) . . .
75(5) . . .
72(5) . . .
80(5) . . .
79(5) . . .
67(4) . . .
67(4) . . .
67(5) . . .
70(4) . . .
84(5) . . .
69(4) . . .
59(4) . . .
70(5) . . .
77(5) . . .
77(5) . . .
65(4) . . .
60(4) . . .
71(5) . . .
70(5) . . .
71(4) . . .
79(5) . . .
70(4) . . .
63(4) . . .
67(4) . . .
78(5) . . .
75(4) . . .
82(5) . . .
63(5) . . .
80(5) . . .
68(4) . . .
79(5) . . .
70(4) . . .
67(5) . . .
70(4) . . .
78(5) . . .
67(4) . . .
67(4) . . .
62(4) . . .
69(4) . . .
72(4) . . .
67(4) . . .
79(5) . . .
79(5) . . .
78(5) . . .
68(4) . . .
78(5) . . .
67(4) . . .
73(5) . . .
72(5) . . .
65(4) . . .
67(4) . . .
61(4) . . .
74(5) . . .
74(5) . . .
68(4) . . .
66(4) . . .
64(4) . . .
64(4) . . .
76(5) . . .
82(5) . . .
66(4) . . .
71(4) . . .
69(4) . . .
68(4) . . .
81(5) . . .
71(5) . . .
71(5) . . .
52(4) . . .
68(4) . . .
70(4) . . .
69(5) . . .
69(4) . . .
78(5) . . .
66(4) . . .
66(4) . . .
64(4) . . .
68(5) . . .
62(4) . . .
69(4) . . .
71(4) . . .
68(4) . . .
73(5) . . .
82(5) . . .
77(5) . . .
67(4) . . .
76(5) . . .
68(5) . . .
64(4) . . .
73(4) . . .
67(4) . . .
72(5) . . .
58(4) . . .
62(4) . . .
60(4) . . .
63(4) . . .
62(4) . . .
56(4) . . .
60(4) . . .
70(4) . . .
84(5) . . .
64(4) . . .
64(4) . . .
63(5) . . .
79(5) . . .
70(5) . . .
76(5) . . .
73(5) . . .
62(4) . . .
76(5) . . .
71(4) . . .
64(4) . . .
65(4) . . .
67(4) . . .
77(5) . . .
74(5) . . .
71(5) . . .
68(4) . . .
65(4) . . .
64(4) . . .
59(4) . . .
71(5) . . .
72(4) . . .
73(4) . . .
77(5) . . .
60(4) . . .
62(4) . . .
75(5) . . .
59(4) . . .
60(4) . . .
64(4) . . .
67(5) . . .
66(4) . . .
69(4) . . .
68(4) . . .
72(4) . . .
65(4) . . .
80(5) . . .
83(5) . . .
67(4) . . .
70(4) . . .
67(5) . . .
77(5) . . .
73(4) . . .
72(4) . . .
78(5) . . .
73(5) . . .
68(5) . . .
71(4) . . .
68(4) . . .
78(5) . . .
82(5) . . .
70(5) . . .
78(5) . . .
63(4) . . .
74(5) . . .
65(5) . . .
58(4) . . .
66(4) . . .
63(4) . . .
70(5) . . .
62(4) . . .
72(5) . . .
68(4) . . .
63(4) . . .
67(4) . . .
68(5) . . .
69(4) . . .
64(4) . . .
74(5) . . .
55(4) . . .
71(5) . . .
69(4) . . .
70(4) . . .
71(5) . . .
71(5) . . .
73(5) . . .
56(4) . . .
67(4) . . .
73(5) . . .
78(5) . . .
77(5) . . .
69(4) . . .
57(4) . . .
67(5) . . .
72(5) . . .
78(5) . . .
62(4) . . .
63(4) . . .
62(4) . . .
68(5) . . .
68(5) . . .
64(4) . . .
66(4) . . .
67(4) . . .
77(5) . . .
74(5) . . .
69(4) . . .
71(4) . . .
65(4) . . .
63(4) . . .
62(4) . . .
67(4) . . .
70(5) . . .
68(4) . . .
74(5) . . .
77(5) . . .
73(4) . . .
72(4) . . .
68(5) . . .
69(5) . . .
62(4) . . .
62(4) . . .
66(4) . . .
69(4) . . .
60(4) . . .
70(4) . . .
66(4) . . .
76(5) . . .
69(5) . . .
80(5) . . .
77(5) . . .
71(4) . . .
82(5) . . .
65(4) . . .
67(4) . . .
70(4) . . .
71(4) . . .
64(5) . . .
64(4) . . .
72(5) . . .
78(5) . . .
70(4) . . .
68(5) . . .
73(5) . . .
70(5) . . .
75(5) . . .
59(4) . . .
72(5) . . .
71(5) . . .
68(4) . . .
65(4) . . .
68(4) . . .
62(4) . . .
61(4) . . .
66(5) . . .
80(5) . . .
73(4) . . .
72(5) . . .
69(5) . . .
63(4) . . .
85(5) . . .
75(4) . . .
66(4) . . .
58(4) . . .
63(4) . . .
62(4) . . .
62(4) . . .
53(4) . . .
71(4) . . .
75(5) . . .
75(5) . . .
69(4) . . .
69(5) . . .
66(4) . . .
59(4) . . .
65(4) . . .
66(4) . . .
74(5) . . .
71(5) . . .
61(4) . . .
72(4) . . .
66(4) . . .
74(5) . . .
65(4) . . .
62(4) . . .
74(4) . . .
77(5) . . .
62(4) . . .
65(4) . . .
67(4) . . .
62(4) . . .
68(5) . . .
59(4) . . .
61(4) . . .
62(4) . . .
66(4) . . .
65(4) . . .
64(5) . . .
59(4) . . .
68(4) . . .
71(4) . . .
71(5) . . .
71(5) . . .
70(4) . . .
76(5) . . .
73(4) . . .
58(4) . . .
67(4) . . .
64(4) . . .
73(4) . . .
72(5) . . .
70(4) . . .
74(5) . . .
73(5) . . .
63(4) . . .
68(4) . . .
72(5) . . .
66(5) . . .
62(4) . . .
67(4) . . .
78(5) . . .
67(4) . . .
71(4) . . .
74(4) . . .
70(4) . . .
70(5) . . .
63(4) . . .
63(4) . . .
77(5) . . .
67(4) . . .
78(5) . . .
54(4) . . .
69(5) . . .
72(4) . . .
69(4) . . .
66(4) . . .
66(4) . . .
84(5) . . .
72(4) . . .
81(5) . . .
72(5) . . .
76(5) . . .
76(5) . . .
67(4) . . .
72(4) . . .
66(4) . . .
73(5) . . .
75(5) . . .
69(4) . . .
72(4) . . .
52(4) . . .
73(5) . . .
70(4) . . .
73(4) . . .
69(4) . . .
65(4) . . .
82(5) . . .
64(4) . . .
59(4) . . .
78(5) . . .
64(4) . . .
70(5) . . .
71(5) . . .
73(4) . . .
68(4) . . .
63(4) . . .
54(4) . . .
72(5) . . .
68(4) . . .
61(4) . . .
61(4) . . .
57(4) . . .
65(4) . . .
58(4) . . .
73(5) . . .
72(5) . . .
79(5) . . .
69(4) . . .
78(5) . . .
69(4) . . .
80(5) . . .
71(5) . . .
67(4) . . .
72(4) . . .
66(4) . . .
66(4) . . .
73(5) . . .
62(4) . . .
67(4) . . .
70(5) . . .
67(5) . . .
59(4) . . .
66(4) . . .
61(4) . . .
67(4) . . .
65(5) . . .
64(4) . . .
64(4) . . .
68(4) . . .
70(5) . . .
63(5) . . .
66(4) . . .
72(4) . . .
61(4) . . .
68(4) . . .
81(5) . . .
77(5) . . .
63(4) . . .
59(4) . . .
63(4) . . .
70(5) . . .
64(4) . . .
65(4) . . .
59(4) . . .
70(5) . . .
74(5) . . .
67(4) . . .
61(4) . . .
69(4) . . .
75(5) . . .
61(4) . . .
65(4) . . .
83(5) . . .
69(4) . . .
64(4) . . .
59(4) . . .
67(4) . . .
78(5) . . .
78(5) . . .
74(5) . . .
61(4) . . .
64(4) . . .
80(5) . . .
78(5) . . .
61(4) . . .
64(4) . . .
73(4) . . .
66(4) . . .
75(5) . . .
70(5) . . .
68(4) . . .
59(4) . . .
74(5) . . .
73(5) . . .
71(5) . . .
73(5) . . .
73(4) . . .
73(4) . . .
68(5) . . .
75(5) . . .
65(4) . . .
75(4) . . .
77(5) . . .
77(5) . . .
70(5) . . .
73(5) . . .
64(4) . . .
63(4) . . .
68(4) . . .
77(5) . . .
69(4) . . .
78(5) . . .
68(4) . . .
61(4) . . .
64(5) . . .
79(5) . . .
69(4) . . .
62(4) . . .
72(5) . . .
80(5) . . .
75(5) . . .
62(4) . . .
68(4) . . .
74(5) . . .
72(5) . . .
68(4) . . .
89(5) . . .
72(4) . . .
66(4) . . .
70(5) . . .
67(4) . . .
63(4) . . .
66(4) . . .
60(4) . . .
68(5) . . .
76(5) . . .
65(4) . . .
72(5) . . .
70(4) . . .
78(5) . . .
81(5) . . .
73(4) . . .
68(5) . . .
58(4) . . .
54(4) . . .
65(4) . . .
72(4) . . .
75(5) . . .
75(5) . . .
67(4) . . .
73(4) . . .
67(4) . . .
77(5) . . .
68(5) . . .
70(4) . . .
69(4) . . .
71(4) . . .
68(4) . . .
67(5) . . .
79(5) . . .
64(4) . . .
81(5) . . .
62(4) . . .
61(4) . . .
76(5) . . .
70(4) . . .
70(5) . . .
66(4) . . .
77(5) . . .
70(4) . . .
64(4) . . .
75(5) . . .
70(5) . . .
72(5) . . .
66(4) . . .
70(4) . . .
72(4) . . .
68(4) . . .
72(5) . . .
68(4) . . .
64(4) . . .
71(5) . . .
66(4) . . .
68(4) . . .
71(4) . . .
74(4) . . .
69(4) . . .
64(4) . . .
63(4) . . .
60(4) . . .
67(4) . . .
65(4) . . .
74(5) . . .
67(4) . . .
69(4) . . .
62(4) . . .
64(4) . . .
62(4) . . .
61(4) . . .
72(4) . . .
82(5) . . .
66(4) . . .
65(5) . . .
67(4) . . .
68(4) . . .
65(4) . . .
71(5) . . .
67(5) . . .
59(4) . . .
74(4) . . .
57(4) . . .
63(4) . . .
65(4) . . .
63(4) . . .
59(4) . . .
74(5) . . .
64(4) . . .
67(5) . . .
77(5) . . .
61(4) . . .
75(5) . . .
68(4) . . .
80(5) . . .
65(4) . . .
77(5) . . .
62(4) . . .
68(5) . . .
68(5) . . .
67(4) . . .
68(4) . . .
66(4) . . .
71(5) . . .
70(4) . . .
72(5) . . .
67(4) . . .
71(5) . . .
60(4) . . .
69(5) . . .
77(5) . . .
76(5) . . .
71(5) . . .
66(4) . . .
67(4) . . .
58(4) . . .
71(4) . . .
60(4) . . .
54(4) . . .
65(4) . . .
75(5) . . .
66(4) . . .
65(4) . . .
64(4) . . .
70(4) . . .
65(4) . . .
67(4) . . .
78(5) . . .
73(5) . . .
72(5) . . .
69(4) . . .
65(4) . . .
58(4) . . .
58(4) . . .
66(4) . . .
64(4) . . .
74(5) . . .
66(4) . . .
64(4) . . .
57(4) . . .
63(4) . . .
65(4) . . .
65(4) . . .
61(4) . . .
64(4) . . .
74(4) . . .
70(4) . . .
63(4) . . .
68(5) . . .
64(4) . . .
67(4) . . .
66(4) . . .
73(5) . . .
70(5) . . .
76(5) . . .
66(4) . . .
64(4) . . .
72(5) . . .
79(5) . . .
68(4) . . .
63(4) . . .
72(5) . . .
65(4) . . .
57(4) . . .
65(4) . . .
63(4) . . .
65(4) . . .
63(4) . . .
57(4) . . .
66(4) . . .
74(4) . . .
73(5) . . .
80(5) . . .
69(4) . . .
71(4) . . .
72(4) . . .
72(5) . . .
69(5) . . .
64(4) . . .
69(4) . . .
73(5) . . .
68(5) . . .
75(5) . . .
75(5) . . .
70(4) . . .
65(4) . . .
73(5) . . .
64(4) . . .
70(5) . . .
74(4) . . .
66(4) . . .
63(4) . . .
74(5) . . .
63(4) . . .
61(4) . . .
63(4) . . .
67(4) . . .
64(4) . . .
71(5) . . .
74(4) . . .
70(5) . . .
75(5) . . .
65(4) . . .
65(4) . . .
64(4) . . .
55(4) . . .
59(4) . . .
66(4) . . .
77(5) . . .
79(5) . . .
59(4) . . .
62(4) . . .
73(5) . . .
68(4) . . .
68(4) . . .
61(4) . . .
68(5) . . .
58(4) . . .
64(4) . . .
61(4) . . .
74(5) . . .
71(5) . . .
59(4) . . .
62(4) . . .
61(4) . . .
59(4) . . .
64(4) . . .
72(5) . . .
69(4) . . .
59(4) . . .
61(4) . . .
76(5) . . .
59(4) . . .
76(5) . . .
64(4) . . .
64(4) . . .
61(4) . . .
63(5) . . .
78(5) . . .
66(4) . . .
65(4) . . .
63(4) . . .
60(4) . . .
76(5) . . .
63(4) . . .
71(4) . . .
61(4) . . .
63(4) . . .
72(4) . . .
63(4) . . .
67(4) . . .
76(5) . . .
59(4) . . .
66(4) . . .
66(4) . . .
58(4) . . .
63(4) . . .
72(4) . . .
59(4) . . .
73(5) . . .
70(5) . . .
69(4) . . .
67(4) . . .
60(4) . . .
58(4) . . .
63(4) . . .
56(4) . . .
66(4) . . .
69(4) . . .
63(4) . . .
65(4) . . .
65(4) . . .
67(4) . . .
62(4) . . .
74(5) . . .
54(4) . . .
64(4) . . .
75(5) . . .
67(4) . . .
60(4) . . .
62(4) . . .
57(4) . . .
62(4) . . .
65(4) . . .
70(5) . . .
56(4) . . .
62(4) . . .
53(4) . . .
67(4) . . .
63(4) . . .
79(5) . . .
67(4) . . .
80(5) . . .
78(5) . . .
64(4) . . .
72(5) . . .
70(4) . . .
61(4) . . .
61(4) . . .
71(5) . . .
74(5) . . .
65(4) . . .
70(4) . . .
72(5) . . .
65(4) . . .
69(5) . . .
63(4) . . .
53(4) . . .
65(5) . . .
56(4) . . .
67(5) . . .
71(4) . . .
69(4) . . .
60(4) . . .
60(4) . . .
65(5) . . .
60(4) . . .
65(4) . . .
68(4) . . .
58(4) . . .
63(4) . . .
58(4) . . .
59(4) . . .
47(4) . . .
52(4) . . .
61(4) . . .
63(4) . . .
74(5) . . .
66(5) . . .
69(5) . . .
69(4) . . .
59(4) . . .
62(4) . . .
66(4) . . .
70(5) . . .
72(4) . . .
79(5) . . .
64(4) . . .
71(4) . . .
76(5) . . .
70(4) . . .
62(4) . . .
49(4) . . .
72(5) . . .
67(5) . . .
65(4) . . .
67(4) . . .
66(4) . . .
73(5) . . .
75(5) . . .
71(4) . . .
53(4) . . .
64(4) . . .
64(4) . . .
52(4) . . .
76(5) . . .
69(4) . . .
73(5) . . .
73(5) . . .
61(4) . . .
61(4) . . .
67(4) . . .
64(4) . . .
64(4) . . .
61(4) . . .
70(4) . . .
71(4) . . .
65(4) . . .
65(4) . . .
65(4) . . .
80(5) . . .
61(4) . . .
60(4) . . .
60(4) . . .
64(4) . . .
57(4) . . .
64(4) . . .
56(4) . . .
71(5) . . .
66(4) . . .
57(4) . . .
76(5) . . .
67(5) . . .
61(4) . . .
59(4) . . .
55(4) . . .
65(4) . . .
70(4) . . .
74(5) . . .
61(4) . . .
61(4) . . .
52(4) . . .
62(4) . . .
75(5) . . .
63(4) . . .
68(4) . . .
61(4) . . .
69(4) . . .
62(4) . . .
66(4) . . .
64(4) . . .
61(4) . . .
73(5) . . .
68(4) . . .
70(4) . . .
68(4) . . .
66(4) . . .
69(5) . . .
63(4) . . .
64(4) . . .
63(4) . . .
62(4) . . .
62(4) . . .
63(4) . . .
65(4) . . .
60(4) . . .
70(5) . . .
68(5) . . .
53(4) . . .
77(5) . . .
63(4) . . .
55(4) . . .
62(5) . . .
62(4) . . .
67(4) . . .
73(4) . . .
73(5) . . .
63(4) . . .
65(4) . . .
69(4) . . .
68(4) . . .
66(4) . . .
66(5) . . .
70(5) . . .
64(4) . . .
65(4) . . .
60(4) . . .
54(4) . . .
54(4) . . .
57(4) . . .
70(4) . . .
65(4) . . .
70(5) . . .
66(4) . . .
57(4) . . .
65(4) . . .
68(4) . . .
72(5) . . .
67(4) . . .
76(5) . . .
66(4) . . .
62(4) . . .
70(4) . . .
63(4) . . .
64(4) . . .
69(4) . . .
62(4) . . .
65(4) . . .
67(4) . . .
72(4) . . .
70(4) . . .
66(4) . . .
69(5) . . .
72(4) . . .
57(4) . . .
66(4) . . .
69(5) . . .
66(4) . . .
65(4) . . .
58(4) . . .
64(4) . . .
66(5) . . .
64(4) . . .
77(5) . . .
70(4) . . .
67(5) . . .
62(4) . . .
67(4) . . .
79(5) . . .
73(5) . . .
61(4) . . .
61(5) . . .
58(4) . . .
68(4) . . .
69(4) . . .
70(5) . . .
62(4) . . .
66(4) . . .
72(4) . . .
74(4) . . .
61(4) . . .
58(4) . . .
59(4) . . .
66(4) . . .
77(5) . . .
81(5) . . .
72(5) . . .
67(4) . . .
63(4) . . .
66(4) . . .
72(5) . . .
51(4) . . .
66(4) . . .
72(4) . . .
69(5) . . .
64(4) . . .
61(4) . . .
67(4) . . .
54(4) . . .
64(4) . . .
71(5) . . .
66(4) . . .
67(4) . . .
68(4) . . .
67(4) . . .
63(4) . . .
58(4) . . .
69(4) . . .
70(4) . . .
67(4) . . .
72(5) . . .
67(4) . . .
61(4) . . .
49(4) . . .
56(4) . . .
77(5) . . .
65(4) . . .
66(4) . . .
65(4) . . .
67(4) . . .
70(5) . . .
74(5) . . .
68(4) . . .
62(4) . . .
61(4) . . .
63(4) . . .
70(4) . . .
62(4) . . .
74(4) . . .
70(4) . . .
65(4) . . .
74(5) . . .
70(4) . . .
70(4) . . .
64(4) . . .
66(4) . . .
74(5) . . .
69(4) . . .
65(4) . . .
59(4) . . .
69(5) . . .
60(4) . . .
66(4) . . .
61(4) . . .
70(5) . . .
59(4) . . .
66(4) . . .
59(4) . . .
74(5) . . .
65(4) . . .
58(4) . . .
54(4) . . .
66(4) . . .
67(4) . . .
66(5) . . .
66(5) . . .
57(4) . . .
70(4) . . .
69(4) . . .
63(4) . . .
59(4) . . .
56(4) . . .
54(4) . . .
61(4) . . .
72(5) . . .
71(5) . . .
69(4) . . .
73(4) . . .
67(4) . . .
70(5) . . .
62(4) . . .
63(4) . . .
68(4) . . .
65(4) . . .
62(4) . . .
68(4) . . .
69(4) . . .
67(4) . . .
67(4) . . .
58(4) . . .
71(5) . . .
61(4) . . .
64(4) . . .
61(4) . . .
67(5) . . .
62(4) . . .
59(4) . . .
58(4) . . .
59(4) . . .
61(4) . . .
50(4) . . .
53(4) . . .
66(4) . . .
63(4) . . .
66(4) . . .
73(4) . . .
73(4) . . .
66(4) . . .
66(4) . . .
64(4) . . .
75(5) . . .
63(4) . . .
62(4) . . .
71(4) . . .
60(4) . . .
63(4) . . .
67(4) . . .
71(4) . . .
55(4) . . .
66(4) . . .
63(4) . . .
63(4) . . .
54(4) . . .
64(5) . . .
73(5) . . .
70(4) . . .
71(4) . . .
70(5) . . .
53(4) . . .
63(4) . . .
61(4) . . .
66(4) . . .
72(5) . . .
68(5) . . .
63(4) . . .
59(4) . . .
63(4) . . .
53(4) . . .
66(5) . . .
65(4) . . .
62(4) . . .
60(4) . . .
66(5) . . .
73(5) . . .
72(5) . . .
59(4) . . .
59(4) . . .
72(5) . . .
61(4) . . .
62(4) . . .
57(4) . . .
63(4) . . .
62(4) . . .
63(4) . . .
68(4) . . .
61(4) . . .
67(4) . . .
69(5) . . .
66(4) . . .
63(4) . . .
57(4) . . .
66(4) . . .
56(4) . . .
62(4) . . .
57(4) . . .
71(4) . . .
58(4) . . .
69(5) . . .
61(4) . . .
56(4) . . .
67(4) . . .
73(5) . . .
58(4) . . .
64(5) . . .
54(4) . . .
66(4) . . .
70(5) . . .
72(5) . . .
56(4) . . .
70(4) . . .
68(4) . . .
71(4) . . .
61(4) . . .
62(4) . . .
65(4) . . .
58(4) . . .
62(4) . . .
63(4) . . .
57(4) . . .
61(4) . . .
62(4) . . .
56(4) . . .
61(4) . . .
65(4) . . .
62(4) . . .
66(4) . . .
66(4) . . .
60(4) . . .
72(5) . . .
65(4) . . .
62(4) . . .
73(5) . . .
58(4) . . .
70(4) . . .
75(5) . . .
60(4) . . .
72(5) . . .
74(5) . . .
67(4) . . .
69(4) . . .
65(4) . . .
61(4) . . .
67(4) . . .
65(4) . . .
63(4) . . .
51(4) . . .
61(4) . . .
71(5) . . .
63(4) . . .
64(4) . . .
58(4) . . .
60(4) . . .
65(4) . . .
66(4) . . .
61(4) . . .
56(4) . . .
58(4) . . .
69(5) . . .
57(4) . . .
56(4) . . .
66(5) . . .
67(5) . . .
66(4) . . .
72(4) . . .
69(4) . . .
63(4) . . .
53(4) . . .
68(5) . . .
64(4) . . .
64(4) . . .
63(4) . . .
64(4) . . .
66(4) . . .
61(4) . . .
61(4) . . .
55(4) . . .
71(5) . . .
57(4) . . .
62(4) . . .
72(5) . . .
61(4) . . .
62(4) . . .
56(4) . . .
54(4) . . .
72(5) . . .
68(5) . . .
57(4) . . .
53(4) . . .
60(4) . . .
67(4) . . .
68(4) . . .
71(4) . . .
71(4) . . .
62(4) . . .
60(4) . . .
51(4) . . .
68(4) . . .
60(4) . . .
54(4) . . .
54(4) . . .
49(4) . . .
63(4) . . .
65(4) . . .
61(4) . . .
58(4) . . .
71(5) . . .
69(5) . . .
67(4) . . .
61(4) . . .
58(4) . . .
67(5) . . .
74(5) . . .
65(4) . . .
68(4) . . .
74(5) . . .
65(4) . . .
54(4) . . .
57(4) . . .
64(4) . . .
60(4) . . .
68(5) . . .
67(5) . . .
55(4) . . .
59(4) . . .
63(4) . . .
59(4) . . .
66(4) . . .
63(4) . . .
62(4) . . .
65(4) . . .
58(4) . . .
57(4) . . .
66(4) . . .
63(4) . . .
68(5) . . .
64(4) . . .
56(4) . . .
65(4) . . .
74(5) . . .
62(4) . . .
59(4) . . .
63(4) . . .
64(4) . . .
58(4) . . .
50(4) . . .
58(4) . . .
64(4) . . .
60(4) . . .
57(4) . . .
56(4) . . .
62(4) . . .
54(4) . . .
54(4) . . .
71(5) . . .
50(4) . . .
70(5) . . .
72(4) . . .
60(4) . . .
58(4) . . .
60(4) . . .
56(4) . . .
59(4) . . .
71(4) . . .
65(4) . . .
73(5) . . .
63(4) . . .
71(4) . . .
70(4) . . .
68(4) . . .
67(4) . . .
60(4) . . .
59(4) . . .
60(4) . . .
65(4) . . .
55(4) . . .
62(4) . . .
55(4) . . .
54(4) . . .
59(4) . . .
53(4) . . .
76(5) . . .
63(4) . . .
66(4) . . .
61(4) . . .
62(4) . . .
66(4) . . .
72(4) . . .
66(4) . . .
75(5) . . .
57(4) . . .
55(4) . . .
64(4) . . .
65(4) . . .
54(4) . . .
54(4) . . .
60(4) . . .
61(4) . . .
56(4) . . .
83(5) . . .
70(4) . . .
61(4) . . .
64(4) . . .
56(4) . . .
62(4) . . .
57(4) . . .
60(4) . . .
69(4) . . .
63(4) . . .
68(4) . . .
65(4) . . .
59(4) . . .
62(4) . . .
55(4) . . .
56(4) . . .
57(4) . . .
68(4) . . .
74(4) . . .
62(4) . . .
65(4) . . .
70(4) . . .
68(4) . . .
58(4) . . .
61(4) . . .
60(4) . . .
61(4) . . .
65(4) . . .
60(4) . . .
63(4) . . .
60(4) . . .
74(5) . . .
66(4) . . .
69(4) . . .
74(5) . . .
69(5) . . .
62(4) . . .
62(4) . . .
63(4) . . .
58(4) . . .
63(4) . . .
69(4) . . .
64(4) . . .
62(4) . . .
55(4) . . .
64(4) . . .
56(4) . . .
59(4) . . .
67(4) . . .
72(5) . . .
59(4) . . .
68(4) . . .
53(4) . . .
60(4) . . .
70(5) . . .
64(4) . . .
51(4) . . .
58(4) . . .
59(4) . . .
55(4) . . .
63(4) . . .
60(4) . . .
58(4) . . .
69(5) . . .
67(5) . . .
63(4) . . .
53(4) . . .
63(4) . . .
63(4) . . .
87(5) . . .
71(5) . . .
64(4) . . .
60(4) . . .
65(4) . . .
72(5) . . .
67(4) . . .
57(4) . . .
68(4) . . .
70(5) . . .
68(5) . . .
58(4) . . .
67(4) . . .
60(4) . . .
53(4) . . .
58(4) . . .
68(4) . . .
66(4) . . .
67(4) . . .
65(4) . . .
62(4) . . .
66(4) . . .
72(4) . . .
65(4) . . .
62(4) . . .
58(4) . . .
69(4) . . .
64(4) . . .
60(4) . . .
68(5) . . .
62(4) . . .
58(4) . . .
67(4) . . .
71(5) . . .
73(5) . . .
58(4) . . .
67(4) . . .
64(4) . . .
59(4) . . .
61(4) . . .
60(4) . . .
51(4) . . .
58(4) . . .
67(4) . . .
61(4) . . .
66(4) . . .
60(4) . . .
71(4) . . .
57(4) . . .
64(4) . . .
60(4) . . .
55(4) . . .
66(4) . . .
70(5) . . .
60(4) . . .
62(4) . . .
54(4) . . .
56(4) . . .
51(4) . . .
53(4) . . .
63(4) . . .
71(4) . . .
60(4) . . .
54(4) . . .
67(5) . . .
53(4) . . .
61(4) . . .
75(5) . . .
67(4) . . .
62(4) . . .
68(4) . . .
64(4) . . .
66(5) . . .
61(4) . . .
72(5) . . .
69(4) . . .
64(4) . . .
66(5) . . .
64(4) . . .
65(4) . . .
68(4) . . .
64(4) . . .
57(4) . . .
60(4) . . .
66(4) . . .
66(4) . . .
59(4) . . .
72(5) . . .
67(5) . . .
59(4) . . .
56(4) . . .
60(4) . . .
54(4) . . .
61(4) . . .
56(4) . . .
59(4) . . .
59(4) . . .
67(4) . . .
67(5) . . .
70(5) . . .
60(4) . . .
61(4) . . .
57(4) . . .
65(5) . . .
66(4) . . .
64(4) . . .
80(5) . . .
61(4) . . .
65(4) . . .
60(4) . . .
68(4) . . .
66(4) . . .
60(4) . . .
66(4) . . .
54(4) . . .
59(4) . . .
60(4) . . .
61(4) . . .
54(4) . . .
64(4) . . .
64(4) . . .
68(4) . . .
66(4) . . .
63(4) . . .
60(4) . . .
54(4) . . .
61(4) . . .
63(5) . . .
67(4) . . .
58(4) . . .
65(4) . . .
64(4) . . .
58(4) . . .
72(5) . . .
58(4) . . .
53(4) . . .
59(4) . . .
62(4) . . .
61(4) . . .
54(4) . . .
63(4) . . .
64(4) . . .
68(5) . . .
61(4) . . .
69(4) . . .
63(4) . . .
61(4) . . .
59(4) . . .
59(4) . . .
57(4) . . .
63(4) . . .
57(4) . . .
53(4) . . .
69(5) . . .
83(5) . . .
71(5) . . .
77(5) . . .
61(4) . . .
55(4) . . .
62(4) . . .
69(4) . . .
58(4) . . .
58(4) . . .
71(4) . . .
63(4) . . .
60(4) . . .
59(4) . . .
65(4) . . .
66(4) . . .
52(4) . . .
61(4) . . .
67(5) . . .
61(4) . . .
71(4) . . .
65(4) . . .
65(5) . . .
62(5) . . .
61(4) . . .
63(4) . . .
62(4) . . .
57(4) . . .
61(4) . . .
61(4) . . .
67(4) . . .
61(4) . . .
55(4) . . .
61(4) . . .
67(4) . . .
59(4) . . .
68(4) . . .
56(4) . . .
59(4) . . .
54(4) . . .
69(4) . . .
60(4) . . .
67(4) . . .
56(4) . . .
67(4) . . .
68(4) . . .
60(4) . . .
57(4) . . .
66(4) . . .
63(5) . . .
62(4) . . .
64(4) . . .
67(4) . . .
65(5) . . .
51(4) . . .
54(4) . . .
58(4) . . .
66(4) . . .
58(4) . . .
67(4) . . .
60(4) . . .
56(4) . . .
54(4) . . .
53(4) . . .
55(4) . . .
48(4) . . .
62(4) . . .
70(5) . . .
59(4) . . .
62(4) . . .
60(4) . . .
67(5) . . .
63(4) . . .
67(4) . . .
60(4) . . .
56(4) . . .
62(4) . . .
65(4) . . .
74(5) . . .
67(4) . . .
66(4) . . .
61(4) . . .
58(4) . . .
56(4) . . .
66(4) . . .
56(4) . . .
65(5) . . .
52(4) . . .
65(5) . . .
59(4) . . .
61(4) . . .
57(4) . . .
53(4) . . .
61(4) . . .
59(4) . . .
61(4) . . .
59(4) . . .
54(4) . . .
68(5) . . .
61(4) . . .
54(4) . . .
65(4) . . .
52(4) . . .
65(4) . . .
65(4) . . .
61(4) . . .
60(4) . . .
54(4) . . .
59(4) . . .
63(4) . . .
56(4) . . .
46(4) . . .
62(4) . . .
64(4) . . .
60(4) . . .
61(4) . . .
67(5) . . .
63(4) . . .
64(4) . . .
55(4) . . .
52(4) . . .
72(5) . . .
67(5) . . .
60(4) . . .
54(4) . . .
60(4) . . .
58(4) . . .
58(4) . . .
60(4) . . .
51(4) . . .
79(5) . . .
69(5) . . .
71(4) . . .
69(4) . . .
65(4) . . .
57(4) . . .
61(4) . . .
59(4) . . .
45(4) . . .
60(4) . . .
57(4) . . .
55(4) . . .
50(4) . . .
57(4) . . .
66(4) . . .
66(5) . . .
59(4) . . .
59(4) . . .
63(4) . . .
64(4) . . .
67(4) . . .
63(4) . . .
67(4) . . .
55(4) . . .
56(4) . . .
61(4) . . .
63(4) . . .
63(4) . . .
71(4) . . .
61(4) . . .
50(4) . . .
69(4) . . .
70(4) . . .
57(4) . . .
48(4) . . .
66(5) . . .
53(4) . . .
62(4) . . .
61(4) . . .
62(4) . . .
65(4) . . .
53(4) . . .
63(4) . . .
66(4) . . .
62(4) . . .
64(5) . . .
55(4) . . .
57(4) . . .
68(4) . . .
68(5) . . .
59(4) . . .
60(4) . . .
62(4) . . .
61(4) . . .
69(4) . . .
60(4) . . .
60(4) . . .
63(4) . . .
50(4) . . .
60(4) . . .
58(4) . . .
68(5) . . .
56(4) . . .
51(4) . . .
62(4) . . .
67(5) . . .
54(4) . . .
58(4) . . .
59(4) . . .
57(4) . . .
57(4) . . .
63(4) . . .
62(4) . . .
63(4) . . .
61(4) . . .
58(4) . . .
69(4) . . .
64(4) . . .
53(4) . . .
63(4) . . .
69(4) . . .
63(4) . . .
65(4) . . .
56(4) . . .
67(4) . . .
71(5) . . .
52(4) . . .
52(4) . . .
59(4) . . .
48(4) . . .
58(4) . . .
68(4) . . .
65(4) . . .
66(4) . . .
54(4) . . .
52(4) . . .
66(4) . . .
63(4) . . .
66(4) . . .
61(4) . . .
57(4) . . .
60(4) . . .
52(4) . . .
57(4) . . .
53(4) . . .
55(4) . . .
60(4) . . .
57(4) . . .
56(4) . . .
52(4) . . .
60(4) . . .
56(4) . . .
58(4) . . .
62(4) . . .
58(4) . . .
56(4) . . .
65(4) . . .
58(4) . . .
61(4) . . .
61(4) . . .
52(4) . . .
57(4) . . .
58(4) . . .
61(4) . . .
67(5) . . .
61(4) . . .
61(4) . . .
56(4) . . .
66(4) . . .
67(5) . . .
59(4) . . .
65(4) . . .
65(4) . . .
55(4) . . .
59(4) . . .
69(4) . . .
63(4) . . .
58(4) . . .
60(4) . . .
61(4) . . .
65(4) . . .
57(4) . . .
53(4) . . .
66(5) . . .
59(4) . . .
60(4) . . .
57(4) . . .
62(4) . . .
71(5) . . .
62(4) . . .
63(4) . . .
66(4) . . .
54(4) . . .
60(4) . . .
64(5) . . .
68(4) . . .
59(4) . . .
68(4) . . .
60(4) . . .
60(4) . . .
56(4) . . .
73(5) . . .
66(4) . . .
64(4) . . .
64(4) . . .
58(4) . . .
69(4) . . .
61(4) . . .
58(4) . . .
59(4) . . .
62(4) . . .
66(4) . . .
59(4) . . .
59(4) . . .
53(4) . . .
64(4) . . .
58(4) . . .
62(4) . . .
55(4) . . .
71(5) . . .
64(4) . . .
60(4) . . .
65(4) . . .
65(4) . . .
58(4) . . .
60(4) . . .
69(5) . . .
49(4) . . .
53(4) . . .
60(4) . . .
56(4) . . .
59(4) . . .
52(4) . . .
62(4) . . .
69(4) . . .
54(4) . . .
59(4) . . .
60(4) . . .
63(4) . . .
61(4) . . .
65(4) . . .
73(5) . . .
63(4) . . .
70(4) . . .
57(4) . . .
60(4) . . .
59(4) . . .
54(4) . . .
64(4) . . .
53(4) . . .
64(4) . . .
65(4) . . .
59(4) . . .
59(4) . . .
54(4) . . .
58(4) . . .
60(4) . . .
69(5) . . .
68(4) . . .
59(4) . . .
59(4) . . .
48(4) . . .
63(4) . . .
64(4) . . .
58(4) . . .
57(4) . . .
63(4) . . .
62(4) . . .
49(4) . . .
60(4) . . .
66(4) . . .
68(5) . . .
54(4) . . .
57(4) . . .
67(4) . . .
52(4) . . .
48(4) . . .
63(5) . . .
70(4) . . .
58(4) . . .
69(4) . . .
67(4) . . .
53(4) . . .
50(4) . . .
65(4) . . .
67(4) . . .
61(4) . . .
61(4) . . .
58(4) . . .
58(4) . . .
63(4) . . .
70(5) . . .
67(4) . . .
70(4) . . .
55(4) . . .
56(4) . . .
57(4) . . .
51(4) . . .
63(4) . . .
65(4) . . .
58(4) . . .
57(4) . . .
60(4) . . .
61(4) . . .
46.5(35) . . .
61(4) . . .
67(5) . . .
66(4) . . .
54(4) . . .
54(4) . . .
65(4) . . .
58(4) . . .
71(4) . . .
68(4) . . .
70(4) . . .
66(4) . . .
53(4) . . .
48(4) . . .
64(4) . . .
51(4) . . .
56(4) . . .
55(4) . . .
61(4) . . .
63(4) . . .
60(4) . . .
59(4) . . .
56(4) . . .
69(5) . . .
65(4) . . .
64(4) . . .
65(4) . . .
57(4) . . .
62(4) . . .
66(4) . . .
64(4) . . .
61(4) . . .
44(4) . . .
54(4) . . .
59(4) . . .
65(4) . . .
65(4) . . .
65(4) . . .
58(4) . . .
67(4) . . .
65(4) . . .
62(4) . . .
60(4) . . .
55(4) . . .
54(4) . . .
60(4) . . .
63(4) . . .
55(4) . . .
59(4) . . .
63(4) . . .
60(4) . . .
64(4) . . .
61(4) . . .
56(4) . . .
64(4) . . .
55(4) . . .
48(4) . . .
59(4) . . .
63(4) . . .
60(4) . . .
53(4) . . .
58(4) . . .
57(4) . . .
65(4) . . .
55(4) . . .
47(4) . . .
52(4) . . .
71(4) . . .
51(4) . . .
55(4) . . .
45(4) . . .
64(4) . . .
60(4) . . .
53(4) . . .
56(4) . . .
60(4) . . .
62(4) . . .
55(4) . . .
54(4) . . .
55(4) . . .
57(4) . . .
61(4) . . .
65(4) . . .
61(4) . . .
49(4) . . .
58(4) . . .
56(4) . . .
51(4) . . .
60(4) . . .
66(4) . . .
63(5) . . .
58(4) . . .
61(4) . . .
61(4) . . .
60(4) . . .
51(4) . . .
64(4) . . .
72(4) . . .
55(4) . . .
56(4) . . .
50(4) . . .
67(4) . . .
57(4) . . .
68(4) . . .
56(4) . . .
62(4) . . .
60(4) . . .
52(4) . . .
58(4) . . .
68(5) . . .
58(4) . . .
52(4) . . .
63(4) . . .
64(4) . . .
64(4) . . .
56(4) . . .
60(4) . . .
62(4) . . .
62(4) . . .
63(4) . . .
62(4) . . .
62(4) . . .
56(4) . . .
54(4) . . .
65(4) . . .
60(4) . . .
61(4) . . .
60(4) . . .
55(4) . . .
61(4) . . .
58(4) . . .
52(4) . . .
58(4) . . .
56(4) . . .
65(4) . . .
70(5) . . .
86(5) . . .
61(4) . . .
55(4) . . .
56(4) . . .
61(5) . . .
52(4) . . .
55(4) . . .
57(4) . . .
53(4) . . .
58(4) . . .
49(4) . . .
66(4) . . .
61(4) . . .
48(4) . . .
61(4) . . .
68(4) . . .
64(4) . . .
67(4) . . .
61(4) . . .
57(4) . . .
69(4) . . .
63(4) . . .
68(5) . . .
52(4) . . .
68(4) . . .
61(4) . . .
67(4) . . .
63(4) . . .
52(4) . . .
57(4) . . .
55(4) . . .
62(4) . . .
62(4) . . .
67(4) . . .
56(4) . . .
50(4) . . .
54(4) . . .
57(4) . . .
52(4) . . .
54(4) . . .
56(4) . . .
69(4) . . .
60(4) . . .
64(4) . . .
55(4) . . .
57(4) . . .
53(4) . . .
54(4) . . .
54(4) . . .
59(4) . . .
72(4) . . .
61(4) . . .
61(5) . . .
58(4) . . .
58(4) . . .
62(4) . . .
64(4) . . .
51(4) . . .
62(4) . . .
68(4) . . .
59(4) . . .
54(4) . . .
66(5) . . .
56(4) . . .
61(4) . . .
66(4) . . .
56(4) . . .
71(5) . . .
59(4) . . .
56(4) . . .
57(4) . . .
62(4) . . .
64(4) . . .
64(4) . . .
58(4) . . .
50(4) . . .
56(4) . . .
67(5) . . .
65(4) . . .
55(4) . . .
48(4) . . .
60(4) . . .
61(4) . . .
52(4) . . .
61(4) . . .
63(4) . . .
68(4) . . .
63(4) . . .
61(4) . . .
59(4) . . .
62(4) . . .
55(4) . . .
66(4) . . .
62(4) . . .
53(4) . . .
65(5) . . .
61(4) . . .
63(4) . . .
52(4) . . .
54(4) . . .
56(4) . . .
59(4) . . .
55(4) . . .
60(4) . . .
61(4) . . .
57(4) . . .
60(4) . . .
64(4) . . .
50(4) . . .
56(4) . . .
65(4) . . .
60(4) . . .
52(4) . . .
65(4) . . .
64(4) . . .
64(4) . . .
53(4) . . .
59(4) . . .
61(4) . . .
61(4) . . .
68(5) . . .
58(4) . . .
53(4) . . .
63(4) . . .
56(4) . . .
61(4) . . .
66(4) . . .
66(4) . . .
59(4) . . .
58(4) . . .
61(4) . . .
62(4) . . .
69(5) . . .
61(4) . . .
62(4) . . .
65(4) . . .
60(4) . . .
59(4) . . .
62(4) . . .
62(4) . . .
61(4) . . .
53(4) . . .
62(4) . . .
68(4) . . .
57(4) . . .
82(5) . . .
66(4) . . .
58(4) . . .
65(4) . . .
71(5) . . .
62(4) . . .
64(4) . . .
54(4) . . .
57(4) . . .
67(4) . . .
53(4) . . .
58(4) . . .
59(4) . . .
54(4) . . .
67(5) . . .
62(4) . . .
63(4) . . .
69(4) . . .
63(4) . . .
64(4) . . .
62(4) . . .
71(5) . . .
70(4) . . .
70(5) . . .
63(4) . . .
59(4) . . .
67(4) . . .
59(4) . . .
60(4) . . .
56(4) . . .
62(4) . . .
66(4) . . .
64(4) . . .
51(4) . . .
50(4) . . .
57(4) . . .
61(4) . . .
53(4) . . .
53(4) . . .
64(4) . . .
57(4) . . .
62(4) . . .
61(4) . . .
68(4) . . .
64(4) . . .
60(4) . . .
58(4) . . .
57(4) . . .
66(4) . . .
58(4) . . .
45(4) . . .
60(4) . . .
69(4) . . .
68(4) . . .
72(5) . . .
66(4) . . .
56(4) . . .
54(4) . . .
59(4) . . .
54(4) . . .
56(4) . . .
59(4) . . .
67(4) . . .
61(4) . . .
54(4) . . .
64(4) . . .
51(4) . . .
57(4) . . .
61(4) . . .
59(4) . . .
49(4) . . .
60(4) . . .
60(4) . . .
62(4) . . .
50(4) . . .
62(4) . . .
59(4) . . .
64(4) . . .
58(4) . . .
60(4) . . .
58(4) . . .
51(4) . . .
58(4) . . .
51(4) . . .
59(4) . . .
58(4) . . .
61(4) . . .
55(4) . . .
61(4) . . .
54(4) . . .
64(4) . . .
61(4) . . .
56(4) . . .
64(4) . . .
68(4) . . .
55(4) . . .
50(4) . . .
52(4) . . .
64(5) . . .
73(5) . . .
63(4) . . .
53(4) . . .
68(4) . . .
73(5) . . .
57(4) . . .
63(4) . . .
49(4) . . .
66(4) . . .
61(4) . . .
56(4) . . .
55(4) . . .
56(4) . . .
68(4) . . .
50(4) . . .
64(4) . . .
59(4) . . .
56(4) . . .
66(4) . . .
52(4) . . .
56(4) . . .
58(4) . . .
50(4) . . .
49(4) . . .
57(4) . . .
62(4) . . .
50(4) . . .
56(4) . . .
61(4) . . .
63(4) . . .
59(4) . . .
69(4) . . .
63(4) . . .
55(4) . . .
66(5) . . .
64(4) . . .
63(4) . . .
58(4) . . .
72(5) . . .
63(4) . . .
58(4) . . .
59(4) . . .
59(4) . . .
59(4) . . .
57(4) . . .
54(4) . . .
54(4) . . .
57(4) . . .
65(4) . . .
60(4) . . .
50(4) . . .
66(4) . . .
68(4) . . .
64(5) . . .
61(4) . . .
58(4) . . .
58(4) . . .
66(4) . . .
63(4) . . .
62(4) . . .
56(4) . . .
54(4) . . .
65(4) . . .
63(4) . . .
56(4) . . .
59(4) . . .
61(4) . . .
62(4) . . .
61(4) . . .
63(4) . . .
54(4) . . .
73(4) . . .
61(4) . . .
63(4) . . .
69(4) . . .
60(4) . . .
61(4) . . .
59(4) . . .
67(5) . . .
51(4) . . .
56(4) . . .
65(4) . . .
65(5) . . .
64(4) . . .
53(4) . . .
57(4) . . .
60(4) . . .
62(5) . . .
66(4) . . .
51(4) . . .
62(4) . . .
60(4) . . .
46(4) . . .
52(4) . . .
65(4) . . .
62(4) . . .
55(4) . . .
54(4) . . .
67(5) . . .
57(4) . . .
60(4) . . .
53(4) . . .
48(4) . . .
50(4) . . .
59(4) . . .
63(4) . . .
68(5) . . .
54(4) . . .
65(4) . . .
70(4) . . .
59(4) . . .
65(5) . . .
69(5) . . .
62(4) . . .
57(4) . . .
59(4) . . .
60(4) . . .
56(4) . . .
51(4) . . .
59(4) . . .
53(4) . . .
62(4) . . .
60(4) . . .
67(4) . . .
53(4) . . .
62(4) . . .
55(4) . . .
56(4) . . .
56(4) . . .
60(4) . . .
59(4) . . .
65(4) . . .
59(4) . . .
69(5) . . .
57(4) . . .
58(4) . . .
62(4) . . .
61(4) . . .
57(4) . . .
71(4) . . .
58(4) . . .
54(4) . . .
62(4) . . .
57(4) . . .
62(4) . . .
65(4) . . .
54(4) . . .
60(4) . . .
68(4) . . .
58(4) . . .
54(4) . . .
56(4) . . .
65(4) . . .
59(4) . . .
67(4) . . .
61(4) . . .
54(4) . . .
55(4) . . .
56(4) . . .
63(4) . . .
59(4) . . .
69(4) . . .
61(4) . . .
64(4) . . .
64(4) . . .
57(4) . . .
61(5) . . .
52(4) . . .
52(4) . . .
50(4) . . .
52(4) . . .
57(4) . . .
56(4) . . .
58(4) . . .
64(4) . . .
64(4) . . .
80(5) . . .
65(5) . . .
66(4) . . .
60(4) . . .
61(4) . . .
54(4) . . .
52(4) . . .
54(4) . . .
60(4) . . .
60(4) . . .
57(4) . . .
64(5) . . .
62(4) . . .
57(4) . . .
65(5) . . .
56(4) . . .
59(4) . . .
56(4) . . .
49(4) . . .
47(4) . . .
64(4) . . .
56(4) . . .
62(4) . . .
61(4) . . .
68(5) . . .
65(4) . . .
54(4) . . .
54(4) . . .
61(4) . . .
66(5) . . .
63(4) . . .
56(4) . . .
62(4) . . .
52(4) . . .
57(4) . . .
72(5) . . .
70(4) . . .
70(4) . . .
60(4) . . .
60(4) . . .
50(4) . . .
50(4) . . .
64(4) . . .
62(4) . . .
55(4) . . .
56(4) . . .
51(4) . . .
59(4) . . .
64(4) . . .
52(4) . . .
58(4) . . .
61(4) . . .
62(4) . . .
60(4) . . .
52(4) . . .
54(4) . . .
58(4) . . .
56(4) . . .
56(4) . . .
59(4) . . .
68(4) . . .
61(4) . . .
70(4) . . .
64(4) . . .
61(4) . . .
55(4) . . .
56(4) . . .
58(4) . . .
57(4) . . .
56(4) . . .
55(4) . . .
56(4) . . .
70(5) . . .
63(4) . . .
71(5) . . .
63(4) . . .
54(4) . . .
56(4) . . .
50(4) . . .
62(4) . . .
60(4) . . .
52(4) . . .
64(4) . . .
70(5) . . .
63(4) . . .
61(4) . . .
61(4) . . .
66(4) . . .
60(4) . . .
51(4) . . .
58(4) . . .
68(4) . . .
59(4) . . .
46(4) . . .
53(4) . . .
57(4) . . .
61(4) . . .
71(5) . . .
63(4) . . .
69(4) . . .
68(4) . . .
53(4) . . .
58(4) . . .
55(4) . . .
64(4) . . .
64(4) . . .
49(4) . . .
59(4) . . .
57(4) . . .
48(4) . . .
52(4) . . .
55(4) . . .
52(4) . . .
62(4) . . .
62(4) . . .
55(4) . . .
61(4) . . .
58(4) . . .
68(4) . . .
60(4) . . .
59(4) . . .
72(5) . . .
59(4) . . .
50(4) . . .
72(5) . . .
57(4) . . .
45(4) . . .
61(4) . . .
57(4) . . .
60(4) . . .
61(4) . . .
59(4) . . .
66(5) . . .
64(4) . . .
60(4) . . .
59(4) . . .
60(4) . . .
72(5) . . .
62(4) . . .
56(4) . . .
72(4) . . .
68(5) . . .
50(4) . . .
58(4) . . .
75(5) . . .
72(4) . . .
63(4) . . .
57(4) . . .
66(5) . . .
51(4) . . .
57(4) . . .
67(4) . . .
59(4) . . .
72(5) . . .
58(4) . . .
54(4) . . .
47(4) . . .
56(4) . . .
56(4) . . .
55(4) . . .
56(4) . . .
53(4) . . .
47(4) . . .
52(4) . . .
64(4) . . .
58(4) . . .
54(4) . . .
55(4) . . .
63(4) . . .
60(4) . . .
61(4) . . .
61(4) . . .
54(4) . . .
45.0(35) . . .
53(4) . . .
55(4) . . .
49(4) . . .
43(4) . . .
62(4) . . .
59(4) . . .
65(4) . . .
65(4) . . .
62(4) . . .
47(4) . . .
60(4) . . .
56(4) . . .
53(4) . . .
50(4) . . .
52(4) . . .
48(4) . . .
60(4) . . .
63(4) . . .
52(4) . . .
62(4) . . .
62(4) . . .
62(4) . . .
68(5) . . .
66(4) . . .
59(4) . . .
57(4) . . .
54(4) . . .
50(4) . . .
56(4) . . .
52(4) . . .
67(4) . . .
58(4) . . .
51(4) . . .
58(4) . . .
54(4) . . .
61(4) . . .
60(4) . . .
58(4) . . .
52(4) . . .
53(4) . . .
49(4) . . .
54(4) . . .
65(4) . . .
73(5) . . .
60(4) . . .
57(4) . . .
58(4) . . .
58(4) . . .
54(4) . . .
58(4) . . .
70(5) . . .
46(4) . . .
49(4) . . .
59(4) . . .
62(4) . . .
66(4) . . .
63(5) . . .
59(4) . . .
61(4) . . .
60(4) . . .
48(4) . . .
59(4) . . .
60(4) . . .
56(4) . . .
59(4) . . .
65(4) . . .
54(4) . . .
46(4) . . .
53(4) . . .
58(4) . . .
55(4) . . .
51(4) . . .
52(4) . . .
59(4) . . .
56(4) . . .
59(4) . . .
62(4) . . .
47(4) . . .
64(4) . . .
56(4) . . .
49(4) . . .
55(4) . . .
62(4) . . .
57(4) . . .
51(4) . . .
54(4) . . .
55(4) . . .
52(4) . . .
46(4) . . .
55(4) . . .
49(4) . . .
58(4) . . .
69(5) . . .
50(4) . . .
55(4) . . .
57(4) . . .
53(4) . . .
64(5) . . .
54(4) . . .
58(4) . . .
61(4) . . .
56(4) . . .
56(4) . . .
59(4) . . .
62(4) . . .
56(4) . . .
77(5) . . .
68(4) . . .
67(4) . . .
63(4) . . .
51(4) . . .
64(4) . . .
53(4) . . .
60(4) . . .
60(4) . . .
43.5(34) . . .
58(4) . . .
54(4) . . .
52(4) . . .
57(4) . . .
61(4) . . .
64(4) . . .
60(4) . . .
53(4) . . .
60(4) . . .
63(4) . . .
67(4) . . .
44.0(34) . . .
61(4) . . .
48(4) . . .
55(4) . . .
54(4) . . .
55(4) . . .
60(4) . . .
60(4) . . .
59(4) . . .
55(4) . . .
53(4) . . .
51(4) . . .
53(4) . . .
51(4) . . .
57(4) . . .
53(4) . . .
59(4) . . .
59(4) . . .
60(4) . . .
51(4) . . .
54(4) . . .
55(4) . . .
62(4) . . .
55(4) . . .
52(4) . . .
66(4) . . .
59(4) . . .
55(4) . . .
61(4) . . .
73(5) . . .
59(4) . . .
59(4) . . .
55(4) . . .
52(4) . . .
53(4) . . .
55(4) . . .
64(4) . . .
63(4) . . .
67(4) . . .
63(4) . . .
58(4) . . .
62(4) . . .
56(4) . . .
55(4) . . .
67(4) . . .
58(4) . . .
52(4) . . .
53(4) . . .
64(4) . . .
56(4) . . .
65(4) . . .
55(4) . . .
50(4) . . .
50(4) . . .
59(4) . . .
64(4) . . .
59(4) . . .
65(4) . . .
67(5) . . .
54(4) . . .
54(4) . . .
55(4) . . .
54(4) . . .
62(4) . . .
62(4) . . .
50(4) . . .
54(4) . . .
50(4) . . .
52(4) . . .
55(4) . . .
53(4) . . .
53(4) . . .
55(4) . . .
66(5) . . .
62(4) . . .
60(4) . . .
58(4) . . .
53(4) . . .
58(4) . . .
59(4) . . .
55(4) . . .
69(5) . . .
58(4) . . .
62(4) . . .
66(4) . . .
50(4) . . .
56(4) . . .
67(4) . . .
63(4) . . .
70(4) . . .
56(4) . . .
60(4) . . .
56(4) . . .
63(4) . . .
61(4) . . .
50(4) . . .
45(4) . . .
53(4) . . .
55(4) . . .
66(4) . . .
66(5) . . .
55(4) . . .
59(4) . . .
58(4) . . .
55(4) . . .
64(4) . . .
55(4) . . .
61(4) . . .
56(4) . . .
64(4) . . .
68(4) . . .
52(4) . . .
61(4) . . .
62(4) . . .
64(4) . . .
57(4) . . .
49(4) . . .
60(4) . . .
55(4) . . .
58(4) . . .
61(4) . . .
57(4) . . .
62(4) . . .
57(4) . . .
61(4) . . .
61(4) . . .
60(4) . . .
55(4) . . .
57(4) . . .
55(4) . . .
65(4) . . .
60(4) . . .
60(4) . . .
54(4) . . .
67(5) . . .
60(4) . . .
55(4) . . .
64(4) . . .
60(4) . . .
62(4) . . .
56(4) . . .
53(4) . . .
62(4) . . .
45(4) . . .
65(4) . . .
59(4) . . .
59(4) . . .
69(4) . . .
72(4) . . .
64(4) . . .
59(4) . . .
42.4(35) . . .
56(4) . . .
58(4) . . .
63(4) . . .
50(4) . . .
61(4) . . .
57(4) . . .
60(4) . . .
58(4) . . .
63(4) . . .
55(4) . . .
54(4) . . .
51(4) . . .
54(4) . . .
52(4) . . .
69(5) . . .
60(4) . . .
53(4) . . .
52(4) . . .
68(5) . . .
57(4) . . .
60(4) . . .
63(4) . . .
51(4) . . .
56(4) . . .
56(4) . . .
54(4) . . .
65(4) . . .
62(4) . . .
61(4) . . .
55(4) . . .
59(4) . . .
60(4) . . .
58(4) . . .
62(4) . . .
65(4) . . .
62(4) . . .
57(4) . . .
54(4) . . .
52(4) . . .
58(4) . . .
58(4) . . .
47(4) . . .
56(4) . . .
58(4) . . .
48(4) . . .
40.8(34) . . .
65(5) . . .
57(4) . . .
50(4) . . .
59(4) . . .
59(4) . . .
67(4) . . .
55(4) . . .
56(4) . . .
56(4) . . .
55(4) . . .
59(4) . . .
68(5) . . .
57(4) . . .
66(4) . . .
56(4) . . .
55(4) . . .
63(5) . . .
53(4) . . .
57(4) . . .
66(4) . . .
66(5) . . .
50(4) . . .
53(4) . . .
63(4) . . .
52(4) . . .
46(4) . . .
59(4) . . .
55(4) . . .
55(4) . . .
49(4) . . .
58(4) . . .
57(4) . . .
57(4) . . .
48(4) . . .
60(4) . . .
59(4) . . .
67(4) . . .
60(4) . . .
59(4) . . .
53(4) . . .
61(4) . . .
57(4) . . .
52(4) . . .
68(4) . . .
56(4) . . .
55(4) . . .
50(4) . . .
58(4) . . .
63(4) . . .
50(4) . . .
52(4) . . .
52(4) . . .
54(4) . . .
59(4) . . .
59(4) . . .
57(4) . . .
64(4) . . .
45.1(35) . . .
49(4) . . .
61(4) . . .
52(4) . . .
56(4) . . .
62(4) . . .
53(4) . . .
57(4) . . .
57(4) . . .
61(4) . . .
61(4) . . .
57(4) . . .
57(4) . . .
63(4) . . .
61(4) . . .
53(4) . . .
60(4) . . .
61(4) . . .
51(4) . . .
51(4) . . .
61(4) . . .
63(4) . . .
60(4) . . .
58(4) . . .
63(4) . . .
51(4) . . .
56(4) . . .
55(4) . . .
67(4) . . .
62(4) . . .
71(4) . . .
65(5) . . .
54(4) . . .
46(4) . . .
49(4) . . .
61(4) . . .
56(4) . . .
51(4) . . .
48(4) . . .
61(4) . . .
56(4) . . .
53(4) . . .
52(4) . . .
53(4) . . .
57(4) . . .
72(5) . . .
58(4) . . .
58(4) . . .
55(4) . . .
51(4) . . .
58(4) . . .
60(4) . . .
60(4) . . .
53(4) . . .
63(4) . . .
46.4(35) . . .
57(4) . . .
61(4) . . .
67(5) . . .
64(4) . . .
54(4) . . .
63(4) . . .
54(4) . . .
56(4) . . .
62(4) . . .
61(4) . . .
63(4) . . .
65(4) . . .
47(4) . . .
59(4) . . .
56(4) . . .
55(4) . . .
63(4) . . .
52(4) . . .
55(4) . . .
52(4) . . .
60(4) . . .
59(4) . . .
54(4) . . .
64(4) . . .
70(5) . . .
59(4) . . .
52(4) . . .
58(4) . . .
57(4) . . .
65(4) . . .
52(4) . . .
57(4) . . .
51(4) . . .
61(4) . . .
59(4) . . .
61(4) . . .
51(4) . . .
53(4) . . .
55(4) . . .
48(4) . . .
50(4) . . .
52(4) . . .
67(4) . . .
62(4) . . .
55(4) . . .
57(4) . . .
60(4) . . .
41.9(34) . . .
53(4) . . .
56(4) . . .
57(4) . . .
65(4) . . .
64(4) . . .
53(4) . . .
62(4) . . .
64(5) . . .
59(4) . . .
70(4) . . .
59(4) . . .
54(4) . . .
44(4) . . .
63(4) . . .
44(4) . . .
51(4) . . .
55(4) . . .
56(4) . . .
63(4) . . .
59(4) . . .
54(4) . . .
58(4) . . .
66(4) . . .
67(4) . . .
64(4) . . .
61(4) . . .
61(4) . . .
58(4) . . .
58(4) . . .
56(4) . . .
52(4) . . .
49(4) . . .
50(4) . . .
47(4) . . .
59(4) . . .
59(4) . . .
57(4) . . .
70(5) . . .
65(4) . . .
61(4) . . .
59(4) . . .
71(5) . . .
61(4) . . .
62(4) . . .
60(4) . . .
53(4) . . .
57(4) . . .
57(4) . . .
60(4) . . .
57(4) . . .
68(4) . . .
59(4) . . .
50(4) . . .
62(4) . . .
62(4) . . .
56(4) . . .
67(4) . . .
76(5) . . .
60(4) . . .
58(4) . . .
57(4) . . .
60(4) . . .
46(4) . . .
50(4) . . .
64(4) . . .
57(4) . . .
54(4) . . .
51(4) . . .
47(4) . . .
61(4) . . .
52(4) . . .
56(4) . . .
57(4) . . .
57(4) . . .
59(4) . . .
57(4) . . .
49(4) . . .
55(4) . . .
59(4) . . .
56(4) . . .
49(4) . . .
60(4) . . .
58(4) . . .
55(4) . . .
66(5) . . .
53(4) . . .
39.3(33) . . .
65(4) . . .
57(4) . . .
54(4) . . .
55(4) . . .
53(4) . . .
57(4) . . .
55(4) . . .
63(4) . . .
52(4) . . .
57(4) . . .
56(4) . . .
64(4) . . .
47(4) . . .
51(4) . . .
64(4) . . .
56(4) . . .
54(4) . . .
56(4) . . .
54(4) . . .
61(4) . . .
62(4) . . .
49(4) . . .
63(4) . . .
65(4) . . .
58(4) . . .
56(4) . . .
60(4) . . .
63(4) . . .
49(4) . . .
49(4) . . .
57(4) . . .
51(4) . . .
54(4) . . .
65(4) . . .
66(4) . . .
61(4) . . .
55(4) . . .
46(4) . . .
56(4) . . .
58(4) . . .
47(4) . . .
58(4) . . .
57(4) . . .
63(4) . . .
51(4) . . .
54(4) . . .
63(4) . . .
61(4) . . .
62(4) . . .
66(4) . . .
53(4) . . .
62(4) . . .
54(4) . . .
52(4) . . .
46(4) . . .
53(4) . . .
62(5) . . .
47(4) . . .
58(4) . . .
58(4) . . .
55(4) . . .
58(4) . . .
73(5) . . .
62(4) . . .
56(4) . . .
55(4) . . .
58(4) . . .
49(4) . . .
46(4) . . .
55(4) . . .
52(4) . . .
59(4) . . .
61(4) . . .
50(4) . . .
61(4) . . .
57(4) . . .
61(4) . . .
52(4) . . .
64(4) . . .
67(4) . . .
62(5) . . .
54(4) . . .
58(4) . . .
45.0(35) . . .
56(4) . . .
59(4) . . .
61(4) . . .
61(4) . . .
74(5) . . .
60(4) . . .
51(4) . . .
59(4) . . .
60(4) . . .
61(4) . . .
60(4) . . .
53(4) . . .
51(4) . . .
60(4) . . .
60(4) . . .
60(4) . . .
63(4) . . .
53(4) . . .
65(5) . . .
60(4) . . .
57(4) . . .
50(4) . . .
59(4) . . .
53(4) . . .
51(4) . . .
53(4) . . .
53(4) . . .
57(4) . . .
49(4) . . .
62(4) . . .
68(4) . . .
49(4) . . .
52(4) . . .
60(4) . . .
57(4) . . .
57(4) . . .
60(4) . . .
62(4) . . .
62(4) . . .
72(4) . . .
50(4) . . .
56(4) . . .
51(4) . . .
53(4) . . .
58(4) . . .
59(4) . . .
51(4) . . .
56(4) . . .
51(4) . . .
53(4) . . .
48(4) . . .
54(4) . . .
62(4) . . .
52(4) . . .
58(4) . . .
56(4) . . .
59(4) . . .
62(5) . . .
54(4) . . .
55(4) . . .
60(4) . . .
59(4) . . .
55(4) . . .
53(4) . . .
59(4) . . .
66(4) . . .
52(4) . . .
53(4) . . .
54(4) . . .
62(4) . . .
53(4) . . .
57(4) . . .
65(5) . . .
60(4) . . .
56(4) . . .
51(4) . . .
66(5) . . .
65(4) . . .
49(4) . . .
53(4) . . .
50(4) . . .
52(4) . . .
59(4) . . .
52(4) . . .
59(4) . . .
53(4) . . .
61(4) . . .
65(4) . . .
49(4) . . .
51(4) . . .
59(4) . . .
63(4) . . .
56(4) . . .
53(4) . . .
60(4) . . .
44.4(34) . . .
59(4) . . .
54(4) . . .
57(4) . . .
47(4) . . .
54(4) . . .
46(4) . . .
49(4) . . .
55(4) . . .
64(4) . . .
53(4) . . .
61(4) . . .
51(4) . . .
62(4) . . .
53(4) . . .
61(4) . . .
65(5) . . .
53(4) . . .
54(4) . . .
60(4) . . .
55(4) . . .
58(4) . . .
54(4) . . .
57(4) . . .
61(4) . . .
58(4) . . .
59(4) . . .
61(4) . . .
60(4) . . .
69(5) . . .
57(4) . . .
51(4) . . .
53(4) . . .
57(4) . . .
51(4) . . .
54(4) . . .
65(4) . . .
60(4) . . .
62(4) . . .
52(4) . . .
46(4) . . .
59(4) . . .
59(4) . . .
56(4) . . .
58(4) . . .
55(4) . . .
51(4) . . .
48(4) . . .
59(4) . . .
53(4) . . .
65(4) . . .
56(4) . . .
67(4) . . .
56(4) . . .
56(4) . . .
51(4) . . .
49(4) . . .
49(4) . . .
65(4) . . .
62(4) . . .
56(4) . . .
61(4) . . .
61(4) . . .
61(4) . . .
54(4) . . .
62(4) . . .
63(4) . . .
55(4) . . .
52(4) . . .
57(4) . . .
58(4) . . .
57(4) . . .
62(4) . . .
60(4) . . .
56(4) . . .
53(4) . . .
52(4) . . .
62(4) . . .
58(4) . . .
55(4) . . .
51(4) . . .
43.7(34) . . .
51(4) . . .
54(4) . . .
69(5) . . .
53(4) . . .
54(4) . . .
64(4) . . .
49(4) . . .
60(4) . . .
56(4) . . .
58(4) . . .
70(5) . . .
60(4) . . .
45(4) . . .
63(4) . . .
56(4) . . .
67(4) . . .
49(4) . . .
59(4) . . .
59(4) . . .
56(4) . . .
55(4) . . .
63(4) . . .
54(4) . . .
50(4) . . .
60(4) . . .
50(4) . . .
51(4) . . .
52(4) . . .
55(4) . . .
57(4) . . .
57(4) . . .
67(5) . . .
46(4) . . .
50(4) . . .
52(4) . . .
54(4) . . .
55(4) . . .
58(4) . . .
53(4) . . .
61(4) . . .
57(4) . . .
58(4) . . .
64(4) . . .
64(4) . . .
57(4) . . .
51(4) . . .
54(4) . . .
59(4) . . .
54(4) . . .
56(4) . . .
67(4) . . .
60(4) . . .
65(4) . . .
62(4) . . .
56(4) . . .
62(4) . . .
58(4) . . .
59(4) . . .
58(4) . . .
62(4) . . .
64(4) . . .
64(4) . . .
61(4) . . .
61(4) . . .
48(4) . . .
50(4) . . .
65(5) . . .
58(4) . . .
53(4) . . .
47(4) . . .
50(4) . . .
56(4) . . .
57(4) . . .
66(4) . . .
57(4) . . .
49(4) . . .
51(4) . . .
68(4) . . .
64(4) . . .
66(5) . . .
59(4) . . .
57(4) . . .
57(4) . . .
55(4) . . .
47(4) . . .
45(4) . . .
61(4) . . .
59(4) . . .
54(4) . . .
58(4) . . .
56(4) . . .
55(4) . . .
61(4) . . .
59(4) . . .
54(4) . . .
55(4) . . .
57(4) . . .
48(4) . . .
59(4) . . .
58(4) . . .
48(4) . . .
63(4) . . .
47(4) . . .
61(4) . . .
56(4) . . .
55(4) . . .
53(4) . . .
63(4) . . .
52(4) . . .
64(4) . . .
59(4) . . .
66(4) . . .
53(4) . . .
53(4) . . .
50(4) . . .
56(4) . . .
52(4) . . .
54(4) . . .
62(4) . . .
57(4) . . .
68(5) . . .
52(4) . . .
51(4) . . .
48(4) . . .
58(4) . . .
58(4) . . .
59(4) . . .
66(4) . . .
59(4) . . .
62(4) . . .
51(4) . . .
59(4) . . .
46(4) . . .
55(4) . . .
57(4) . . .
58(4) . . .
61(4) . . .
65(4) . . .
62(4) . . .
58(4) . . .
58(4) . . .
62(4) . . .
64(4) . . .
58(4) . . .
57(4) . . .
56(4) . . .
59(4) . . .
53(4) . . .
59(4) . . .
58(4) . . .
57(4) . . .
59(4) . . .
53(4) . . .
49(4) . . .
61(4) . . .
52(4) . . .
65(4) . . .
52(4) . . .
59(4) . . .
55(4) . . .
58(4) . . .
48(4) . . .
54(4) . . .
49(4) . . .
59(4) . . .
62(4) . . .
56(4) . . .
60(4) . . .
53(4) . . .
58(4) . . .
60(4) . . .
62(4) . . .
55(4) . . .
59(4) . . .
67(4) . . .
57(4) . . .
55(4) . . .
51(4) . . .
51(4) . . .
65(4) . . .
67(4) . . .
53(4) . . .
53(4) . . .
56(4) . . .
61(4) . . .
60(4) . . .
63(4) . . .
58(4) . . .
59(4) . . .
64(4) . . .
63(4) . . .
59(4) . . .
57(4) . . .
59(4) . . .
49(4) . . .
51(4) . . .
61(4) . . .
64(4) . . .
59(4) . . .
57(4) . . .
53(4) . . .
60(4) . . .
61(4) . . .
54(4) . . .
55(4) . . .
55(4) . . .
60(4) . . .
57(4) . . .
46(4) . . .
56(4) . . .
54(4) . . .
63(4) . . .
58(4) . . .
61(4) . . .
53(4) . . .
71(4) . . .
69(4) . . .
50(4) . . .
58(4) . . .
54(4) . . .
56(4) . . .
64(4) . . .
63(5) . . .
57(4) . . .
69(5) . . .
58(4) . . .
63(4) . . .
59(4) . . .
59(4) . . .
61(4) . . .
55(4) . . .
61(4) . . .
61(4) . . .
61(4) . . .
59(4) . . .
57(4) . . .
57(4) . . .
52(4) . . .
50(4) . . .
56(4) . . .
60(4) . . .
62(4) . . .
51(4) . . .
58(4) . . .
68(5) . . .
66(4) . . .
65(4) . . .
62(4) . . .
61(4) . . .
56(4) . . .
58(4) . . .
54(4) . . .
51(4) . . .
55(4) . . .
53(4) . . .
60(4) . . .
58(4) . . .
57(4) . . .
54(4) . . .
48(4) . . .
52(4) . . .
52(4) . . .
56(4) . . .
68(4) . . .
63(4) . . .
59(4) . . .
54(4) . . .
54(4) . . .
63(4) . . .
63(4) . . .
61(4) . . .
48(4) . . .
58(4) . . .
49(4) . . .
57(4) . . .
58(4) . . .
59(4) . . .
55(4) . . .
54(4) . . .
48(4) . . .
49(4) . . .
67(5) . . .
59(4) . . .
58(4) . . .
51(4) . . .
57(4) . . .
53(4) . . .
62(4) . . .
61(4) . . .
55(4) . . .
55(4) . . .
54(4) . . .
61(4) . . .
48(4) . . .
54(4) . . .
55(4) . . .
58(4) . . .
61(4) . . .
65(4) . . .
58(4) . . .
68(5) . . .
57(4) . . .
49(4) . . .
62(4) . . .
55(4) . . .
54(4) . . .
59(4) . . .
61(4) . . .
65(4) . . .
50(4) . . .
52(4) . . .
59(4) . . .
58(4) . . .
55(4) . . .
53(4) . . .
43(4) . . .
51(4) . . .
57(4) . . .
53(4) . . .
60(4) . . .
67(5) . . .
61(4) . . .
64(4) . . .
43.8(34) . . .
60(4) . . .
57(4) . . .
53(4) . . .
49(4) . . .
58(4) . . .
50(4) . . .
56(4) . . .
62(4) . . .
51(4) . . .
53(4) . . .
64(4) . . .
58(4) . . .
56(4) . . .
52(4) . . .
61(4) . . .
58(4) . . .
69(5) . . .
58(4) . . .
60(4) . . .
61(4) . . .
61(4) . . .
57(4) . . .
54(4) . . .
68(4) . . .
59(4) . . .
55(4) . . .
65(5) . . .
64(4) . . .
62(4) . . .
50(4) . . .
56(4) . . .
51(4) . . .
56(4) . . .
60(4) . . .
58(4) . . .
65(4) . . .
56(4) . . .
56(4) . . .
55(4) . . .
58(4) . . .
57(4) . . .
55(4) . . .
66(4) . . .
63(4) . . .
48(4) . . .
64(4) . . .
57(4) . . .
55(4) . . .
64(4) . . .
49(4) . . .
59(4) . . .
59(4) . . .
57(4) . . .
51(4) . . .
57(4) . . .
57(4) . . .
58(4) . . .
67(4) . . .
67(4) . . .
58(4) . . .
56(4) . . .
60(4) . . .
47(4) . . .
59(4) . . .
51(4) . . .
54(4) . . .
59(4) . . .
51(4) . . .
59(4) . . .
63(4) . . .
64(4) . . .
57(4) . . .
51(4) . . .
57(4) . . .
65(4) . . .
57(4) . . .
46(4) . . .
55(4) . . .
56(4) . . .
66(4) . . .
55(4) . . .
50(4) . . .
55(4) . . .
63(4) . . .
51(4) . . .
52(4) . . .
56(4) . . .
55(4) . . .
50(4) . . .
58(4) . . .
56(4) . . .
48(4) . . .
54(4) . . .
61(4) . . .
54(4) . . .
48(4) . . .
50(4) . . .
57(4) . . .
51(4) . . .
57(4) . . .
63(4) . . .
56(4) . . .
55(4) . . .
65(5) . . .
53(4) . . .
57(4) . . .
55(4) . . .
58(4) . . .
55(4) . . .
53(4) . . .
55(4) . . .
50(4) . . .
60(4) . . .
61(4) . . .
57(4) . . .
57(4) . . .
64(4) . . .
52(4) . . .
57(4) . . .
49(4) . . .
57(4) . . .
58(4) . . .
57(4) . . .
64(4) . . .
52(4) . . .
56(4) . . .
58(4) . . .
48(4) . . .
54(4) . . .
58(4) . . .
54(4) . . .
60(4) . . .
54(4) . . .
57(4) . . .
53(4) . . .
51(4) . . .
60(4) . . .
59(4) . . .
69(5) . . .
61(4) . . .
61(4) . . .
55(4) . . .
58(4) . . .
63(4) . . .
58(4) . . .
55(4) . . .
52(4) . . .
65(4) . . .
62(4) . . .
64(4) . . .
59(4) . . .
57(4) . . .
51(4) . . .
61(4) . . .
51(4) . . .
52(4) . . .
61(4) . . .
60(4) . . .
57(4) . . .
56(4) . . .
52(4) . . .
52(4) . . .
64(4) . . .
59(4) . . .
54(4) . . .
55(4) . . .
52(4) . . .
54(4) . . .
55(4) . . .
57(4) . . .
58(4) . . .
52(4) . . .
48(4) . . .
49(4) . . .
64(5) . . .
53(4) . . .
55(4) . . .
51(4) . . .
61(4) . . .
62(4) . . .
61(4) . . .
67(4) . . .
51(4) . . .
52(4) . . .
58(4) . . .
55(4) . . .
47(4) . . .
41(4) . . .
49(4) . . .
63(5) . . .
52(4) . . .
56(4) . . .
40.0(33) . . .
53(4) . . .
50(4) . . .
64(4) . . .
52(4) . . .
57(4) . . .
58(4) . . .
50(4) . . .
48(4) . . .
55(4) . . .
56(4) . . .
64(4) . . .
59(4) . . .
53(4) . . .
60(4) . . .
52(4) . . .
53(4) . . .
54(4) . . .
64(4) . . .
55(4) . . .
58(4) . . .
61(4) . . .
57(4) . . .
51(4) . . .
49(4) . . .
48(4) . . .
52(4) . . .
48(4) . . .
66(4) . . .
53(4) . . .
64(5) . . .
56(4) . . .
62(4) . . .
62(4) . . .
63(4) . . .
49(4) . . .
52(4) . . .
66(4) . . .
58(4) . . .
63(4) . . .
57(4) . . .
55(4) . . .
62(4) . . .
56(4) . . .
50(4) . . .
51(4) . . .
52(4) . . .
55(4) . . .
46(4) . . .
69(5) . . .
68(4) . . .
57(4) . . .
57(4) . . .
50(4) . . .
51(4) . . .
46(4) . . .
49(4) . . .
54(4) . . .
54(4) . . .
49(4) . . .
49(4) . . .
54(4) . . .
52(4) . . .
55(4) . . .
42.5(34) . . .
53(4) . . .
53(4) . . .
46(4) . . .
61(4) . . .
49(4) . . .
48(4) . . .
50(4) . . .
66(4) . . .
54(4) . . .
58(4) . . .
54(4) . . .
53(4) . . .
67(4) . . .
54(4) . . .
57(4) . . .
63(4) . . .
66(4) . . .
64(4) . . .
65(4) . . .
57(4) . . .
59(4) . . .
60(4) . . .
60(4) . . .
60(4) . . .
55(4) . . .
61(4) . . .
50(4) . . .
63(4) . . .
54(4) . . .
64(4) . . .
57(4) . . .
53(4) . . .
49(4) . . .
50(4) . . .
59(4) . . .
68(4) . . .
52(4) . . .
48(4) . . .
49(4) . . .
47(4) . . .
55(4) . . .
66(4) . . .
55(4) . . .
57(4) . . .
57(4) . . .
50(4) . . .
60(4) . . .
54(4) . . .
42(4) . . .
44.3(34) . . .
57(4) . . .
65(4) . . .
60(5) . . .
59(4) . . .
67(5) . . .
45.3(34) . . .
54(4) . . .
56(4) . . .
56(4) . . .
56(4) . . .
50(4) . . .
58(4) . . .
53(4) . . .
50(4) . . .
56(4) . . .
56(4) . . .
48(4) . . .
57(4) . . .
57(4) . . .
53(4) . . .
53(4) . . .
60(4) . . .
50(4) . . .
57(4) . . .
61(4) . . .
73(4) . . .
55(4) . . .
60(4) . . .
46(4) . . .
57(4) . . .
57(4) . . .
63(4) . . .
71(5) . . .
61(4) . . .
59(4) . . .
50(4) . . .
55(4) . . .
53(4) . . .
57(4) . . .
59(4) . . .
57(4) . . .
57(4) . . .
66(4) . . .
67(4) . . .
62(4) . . .
57(4) . . .
60(4) . . .
56(4) . . .
60(4) . . .
52(4) . . .
57(4) . . .
70(5) . . .
63(4) . . .
54(4) . . .
48(4) . . .
48(4) . . .
61(4) . . .
53(4) . . .
48(4) . . .
56(4) . . .
52(4) . . .
52(4) . . .
54(4) . . .
54(4) . . .
53(4) . . .
45.4(35) . . .
58(4) . . .
54(4) . . .
59(4) . . .
59(4) . . .
65(4) . . .
58(4) . . .
58(4) . . .
58(4) . . .
69(4) . . .
63(4) . . .
56(4) . . .
51(4) . . .
50(4) . . .
56(4) . . .
63(4) . . .
55(4) . . .
62(4) . . .
55(4) . . .
55(4) . . .
59(4) . . .
55(4) . . .
58(4) . . .
65(4) . . .
59(4) . . .
52(4) . . .
59(4) . . .
59(4) . . .
50(4) . . .
55(4) . . .
58(4) . . .
51(4) . . .
62(4) . . .
61(4) . . .
63(4) . . .
53(4) . . .
50(4) . . .
60(4) . . .
60(4) . . .
56(4) . . .
53(4) . . .
48(4) . . .
48(4) . . .
51(4) . . .
50(4) . . .
57(4) . . .
65(4) . . .
66(4) . . .
54(4) . . .
59(4) . . .
57(4) . . .
58(4) . . .
56(4) . . .
57(4) . . .
62(4) . . .
48(4) . . .
57(4) . . .
52(4) . . .
49(4) . . .
52(4) . . .
52(4) . . .
63(4) . . .
66(5) . . .
57(4) . . .
55(4) . . .
54(4) . . .
54(4) . . .
51(4) . . .
71(4) . . .
58(4) . . .
54(4) . . .
55(4) . . .
48(4) . . .
55(4) . . .
54(4) . . .
51(4) . . .
50(4) . . .
52(4) . . .
51(4) . . .
48(4) . . .
65(4) . . .
58(4) . . .
45.4(35) . . .
56(4) . . .
66(4) . . .
66(5) . . .
49(4) . . .
56(4) . . .
63(4) . . .
54(4) . . .
59(4) . . .
55(4) . . .
64(4) . . .
68(4) . . .
62(4) . . .
60(4) . . .
60(4) . . .
58(4) . . .
63(4) . . .
55(4) . . .
60(4) . . .
58(4) . . .
57(4) . . .
56(4) . . .
63(4) . . .
51(4) . . .
61(4) . . .
62(4) . . .
63(4) . . .
53(4) . . .
54(4) . . .
62(4) . . .
62(4) . . .
59(4) . . .
64(4) . . .
52(4) . . .
60(4) . . .
56(4) . . .
58(4) . . .
56(4) . . .
56(4) . . .
56(4) . . .
50(4) . . .
54(4) . . .
63(4) . . .
73(5) . . .
55(4) . . .
60(4) . . .
63(4) . . .
59(4) . . .
55(4) . . .
47(4) . . .
57(4) . . .
59(4) . . .
49(4) . . .
49(4) . . .
56(4) . . .
55(4) . . .
60(4) . . .
49(4) . . .
48(4) . . .
49(4) . . .
47(4) . . .
52(4) . . .
54(4) . . .
56(4) . . .
56(4) . . .
58(4) . . .
55(4) . . .
58(4) . . .
54(4) . . .
55(4) . . .
48(4) . . .
56(4) . . .
66(4) . . .
63(4) . . .
47(4) . . .
62(4) . . .
49(4) . . .
61(4) . . .
53(4) . . .
54(4) . . .
46(4) . . .
48(4) . . .
50(4) . . .
55(4) . . .
56(4) . . .
54(4) . . .
46(4) . . .
60(4) . . .
58(4) . . .
52(4) . . .
55(4) . . .
57(4) . . .
48(4) . . .
55(4) . . .
58(4) . . .
48(4) . . .
56(4) . . .
55(4) . . .
55(4) . . .
61(4) . . .
61(4) . . .
56(4) . . .
51(4) . . .
54(4) . . .
56(4) . . .
62(4) . . .
49(4) . . .
56(4) . . .
60(4) . . .
60(4) . . .
52(4) . . .
57(4) . . .
67(4) . . .
54(4) . . .
55(4) . . .
53(4) . . .
61(5) . . .
51(4) . . .
61(4) . . .
59(4) . . .
59(4) . . .
57(4) . . .
57(4) . . .
53(4) . . .
60(4) . . .
58(4) . . .
57(4) . . .
55(4) . . .
54(4) . . .
57(4) . . .
58(4) . . .
64(4) . . .
64(4) . . .
61(4) . . .
58(4) . . .
53(4) . . .
56(4) . . .
59(4) . . .
50(4) . . .
58(4) . . .
51(4) . . .
53(4) . . .
61(4) . . .
52(4) . . .
52(4) . . .
51(4) . . .
57(4) . . .
55(4) . . .
48(4) . . .
50(4) . . .
57(4) . . .
57(4) . . .
60(4) . . .
59(4) . . .
54(4) . . .
60(4) . . .
50(4) . . .
57(4) . . .
64(4) . . .
56(4) . . .
59(4) . . .
66(4) . . .
64(4) . . .
47(4) . . .
52(4) . . .
59(4) . . .
57(4) . . .
55(4) . . .
50(4) . . .
51(4) . . .
54(4) . . .
55(4) . . .
62(4) . . .
51(4) . . .
57(4) . . .
52(4) . . .
47(4) . . .
56(4) . . .
60(4) . . .
58(4) . . .
57(4) . . .
49(4) . . .
59(4) . . .
63(4) . . .
55(4) . . .
60(4) . . .
60(4) . . .
57(4) . . .
49(4) . . .
56(4) . . .
49(4) . . .
64(4) . . .
54(4) . . .
58(4) . . .
56(4) . . .
55(4) . . .
54(4) . . .
41.9(34) . . .
59(4) . . .
54(4) . . .
61(4) . . .
55(4) . . .
64(4) . . .
54(4) . . .
55(4) . . .
54(4) . . .
55(4) . . .
47(4) . . .
57(4) . . .
51(4) . . .
56(4) . . .
64(4) . . .
52(4) . . .
59(4) . . .
46(4) . . .
55(4) . . .
59(4) . . .
64(4) . . .
52(4) . . .
55(4) . . .
61(4) . . .
56(4) . . .
57(4) . . .
59(4) . . .
57(4) . . .
57(4) . . .
60(4) . . .
58(4) . . .
61(4) . . .
52(4) . . .
50(4) . . .
54(4) . . .
50(4) . . .
53(4) . . .
54(4) . . .
52(4) . . .
51(4) . . .
52(4) . . .
63(4) . . .
62(4) . . .
55(4) . . .
64(4) . . .
58(4) . . .
68(4) . . .
59(4) . . .
58(4) . . .
56(4) . . .
55(4) . . .
68(5) . . .
57(4) . . .
46(4) . . .
60(4) . . .
49(4) . . .
53(4) . . .
59(4) . . .
59(4) . . .
50(4) . . .
46(4) . . .
50(4) . . .
47(4) . . .
47(4) . . .
62(4) . . .
54(4) . . .
55(4) . . .
54(4) . . .
50(4) . . .
53(4) . . .
61(4) . . .
55(4) . . .
54(4) . . .
63(4) . . .
56(4) . . .
55(4) . . .
64(5) . . .
54(4) . . .
52(4) . . .
52(4) . . .
51(4) . . .
61(4) . . .
62(4) . . .
61(4) . . .
64(4) . . .
54(4) . . .
61(4) . . .
57(4) . . .
61(4) . . .
58(4) . . .
62(4) . . .
52(4) . . .
62(4) . . .
54(4) . . .
44.0(35) . . .
51(4) . . .
53(4) . . .
64(4) . . .
64(4) . . .
54(4) . . .
52(4) . . .
50(4) . . .
56(4) . . .
60(4) . . .
57(4) . . .
67(5) . . .
54(4) . . .
57(4) . . .
58(4) . . .
56(4) . . .
53(4) . . .
51(4) . . .
44.5(34) . . .
50(4) . . .
59(4) . . .
62(4) . . .
66(4) . . .
60(4) . . .
63(4) . . .
53(4) . . .
55(4) . . .
57(4) . . .
64(4) . . .
51(4) . . .
60(4) . . .
66(5) . . .
53(4) . . .
60(4) . . .
62(4) . . .
58(4) . . .
59(4) . . .
51(4) . . .
59(4) . . .
53(4) . . .
49(4) . . .
55(4) . . .
52(4) . . .
69(4) . . .
52(4) . . .
46(4) . . .
52(4) . . .
55(4) . . .
50(4) . . .
55(4) . . .
63(4) . . .
54(4) . . .
57(4) . . .
57(4) . . .
46(4) . . .
58(4) . . .
65(5) . . .
50(4) . . .
57(4) . . .
59(4) . . .
55(4) . . .
53(4) . . .
55(4) . . .
58(4) . . .
50(4) . . .
59(4) . . .
51(4) . . .
58(4) . . .
52(4) . . .
57(4) . . .
50(4) . . .
63(4) . . .
58(4) . . .
45.0(34) . . .
48(4) . . .
53(4) . . .
49(4) . . .
57(4) . . .
51(4) . . .
56(4) . . .
59(4) . . .
47(4) . . .
51(4) . . .
61(4) . . .
54(4) . . .
55(4) . . .
51(4) . . .
41.8(33) . . .
52(4) . . .
55(4) . . .
51(4) . . .
56(4) . . .
61(4) . . .
74(5) . . .
67(4) . . .
60(4) . . .
59(4) . . .
62(4) . . .
53(4) . . .
52(4) . . .
53(4) . . .
57(4) . . .
65(4) . . .
58(4) . . .
57(4) . . .
58(4) . . .
58(4) . . .
60(4) . . .
61(4) . . .
60(4) . . .
66(5) . . .
63(4) . . .
59(4) . . .
57(4) . . .
63(4) . . .
49(4) . . .
58(4) . . .
52(4) . . .
49(4) . . .
58(4) . . .
48(4) . . .
57(4) . . .
56(4) . . .
57(4) . . .
60(4) . . .
54(4) . . .
53(4) . . .
54(4) . . .
54(4) . . .
52(4) . . .
54(4) . . .
50(4) . . .
60(4) . . .
59(4) . . .
62(5) . . .
46(4) . . .
48(4) . . .
60(4) . . .
53(4) . . .
58(4) . . .
62(4) . . .
65(4) . . .
43.0(34) . . .
52(4) . . .
59(4) . . .
62(4) . . .
60(4) . . .
61(4) . . .
66(4) . . .
61(4) . . .
63(4) . . .
62(4) . . .
61(4) . . .
53(4) . . .
51(4) . . .
55(4) . . .
56(4) . . .
55(4) . . .
56(4) . . .
54(4) . . .
57(4) . . .
53(4) . . .
43.2(35) . . .
67(5) . . .
61(4) . . .
53(4) . . .
52(4) . . .
49(4) . . .
55(4) . . .
56(4) . . .
51(4) . . .
53(4) . . .
49(4) . . .
54(4) . . .
55(4) . . .
58(4) . . .
47(4) . . .
47(4) . . .
62(4) . . .
62(4) . . .
56(4) . . .
54(4) . . .
63(4) . . .
49(4) . . .
54(4) . . .
55(4) . . .
52(4) . . .
63(4) . . .
55(4) . . .
52(4) . . .
51(4) . . .
59(4) . . .
60(4) . . .
54(4) . . .
57(4) . . .
60(4) . . .
56(4) . . .
54(4) . . .
58(4) . . .
50(4) . . .
68(4) . . .
60(4) . . .
52(4) . . .
56(4) . . .
58(4) . . .
54(4) . . .
60(4) . . .
48(4) . . .
53(4) . . .
50(4) . . .
60(4) . . .
59(4) . . .
56(4) . . .
56(4) . . .
52(4) . . .
57(4) . . .
56(4) . . .
50(4) . . .
42.8(34) . . .
50(4) . . .
49(4) . . .
50(4) . . .
57(4) . . .
56(4) . . .
58(4) . . .
57(4) . . .
61(4) . . .
39.3(33) . . .
49(4) . . .
62(4) . . .
60(4) . . .
55(4) . . .
63(4) . . .
55(4) . . .
52(4) . . .
50(4) . . .
53(4) . . .
48(4) . . .
64(4) . . .
52(4) . . .
61(4) . . .
53(4) . . .
58(4) . . .
56(4) . . .
55(4) . . .
58(4) . . .
53(4) . . .
61(4) . . .
62(4) . . .
50(4) . . .
54(4) . . .
46(4) . . .
52(4) . . .
53(4) . . .
56(4) . . .
51(4) . . .
59(4) . . .
57(4) . . .
50(4) . . .
55(4) . . .
49(4) . . .
49(4) . . .
54(4) . . .
61(4) . . .
60(4) . . .
51(4) . . .
48(4) . . .
50(4) . . .
53(4) . . .
53(4) . . .
56(4) . . .
55(4) . . .
61(4) . . .
51(4) . . .
43.6(34) . . .
64(4) . . .
67(4) . . .
69(5) . . .
49(4) . . .
53(4) . . .
63(4) . . .
56(4) . . .
50(4) . . .
58(4) . . .
52(4) . . .
61(4) . . .
64(4) . . .
52(4) . . .
65(4) . . .
51(4) . . .
47(4) . . .
47(4) . . .
55(4) . . .
52(4) . . .
46(4) . . .
43(4) . . .
51(4) . . .
51(4) . . .
49(4) . . .
54(4) . . .
52(4) . . .
50(4) . . .
45(4) . . .
55(4) . . .
55(4) . . .
55(4) . . .
60(4) . . .
61(4) . . .
52(4) . . .
54(4) . . .
61(4) . . .
41.9(35) . . .
53(4) . . .
50(4) . . .
59(4) . . .
53(4) . . .
57(4) . . .
51(4) . . .
47(4) . . .
59(4) . . .
57(4) . . .
51(4) . . .
55(4) . . .
57(4) . . .
54(4) . . .
54(4) . . .
60(4) . . .
61(4) . . .
55(4) . . .
49(4) . . .
52(4) . . .
47(4) . . .
52(4) . . .
50(4) . . .
60(4) . . .
51(4) . . .
57(4) . . .
53(4) . . .
43(4) . . .
53(4) . . .
54(4) . . .
53(4) . . .
54(4) . . .
62(4) . . .
57(4) . . .
58(4) . . .
58(4) . . .
47(4) . . .
63(4) . . .
63(4) . . .
54(4) . . .
54(4) . . .
57(4) . . .
63(4) . . .
61(4) . . .
63(4) . . .
57(4) . . .
59(4) . . .
66(4) . . .
64(5) . . .
47(4) . . .
55(4) . . .
47(4) . . .
50(4) . . .
56(4) . . .
55(4) . . .
54(4) . . .
54(4) . . .
53(4) . . .
57(4) . . .
41.6(34) . . .
64(4) . . .
60(4) . . .
58(4) . . .
49(4) . . .
59(4) . . .
67(4) . . .
57(4) . . .
53(4) . . .
45(4) . . .
58(4) . . .
58(4) . . .
54(4) . . .
57(4) . . .
58(4) . . .
51(4) . . .
55(4) . . .
62(4) . . .
55(4) . . .
54(4) . . .
59(4) . . .
57(4) . . .
44.1(35) . . .
56(4) . . .
60(4) . . .
52(4) . . .
65(4) . . .
51(4) . . .
43.7(35) . . .
57(4) . . .
71(5) . . .
52(4) . . .
42.0(34) . . .
53(4) . . .
52(4) . . .
52(4) . . .
50(4) . . .
55(4) . . .
48(4) . . .
51(4) . . .
59(4) . . .
61(4) . . .
59(4) . . .
47(4) . . .
51(4) . . .
45(4) . . .
52(4) . . .
60(4) . . .
53(4) . . .
56(4) . . .
57(4) . . .
53(4) . . .
55(4) . . .
61(4) . . .
59(4) . . .
53(4) . . .
59(4) . . .
53(4) . . .
58(4) . . .
61(4) . . .
58(4) . . .
57(4) . . .
52(4) . . .
51(4) . . .
53(4) . . .
58(4) . . .
36.5(31) . . .
63(4) . . .
52(4) . . .
52(4) . . .
48(4) . . .
68(4) . . .
59(4) . . .
55(4) . . .
62(4) . . .
61(4) . . .
53(4) . . .
58(4) . . .
58(4) . . .
62(4) . . .
54(4) . . .
55(4) . . .
60(4) . . .
59(4) . . .
51(4) . . .
53(4) . . .
67(4) . . .
57(4) . . .
49(4) . . .
57(4) . . .
51(4) . . .
51(4) . . .
49(4) . . .
55(4) . . .
60(4) . . .
63(4) . . .
55(4) . . .
54(4) . . .
56(4) . . .
42.9(35) . . .
50(4) . . .
62(4) . . .
62(4) . . .
63(4) . . .
73(4) . . .
57(4) . . .
50(4) . . .
47(4) . . .
57(4) . . .
57(4) . . .
63(4) . . .
56(4) . . .
50(4) . . .
59(4) . . .
54(4) . . .
70(4) . . .
66(4) . . .
56(4) . . .
53(4) . . .
49(4) . . .
52(4) . . .
54(4) . . .
46(4) . . .
50(4) . . .
53(4) . . .
57(4) . . .
56(4) . . .
59(4) . . .
51(4) . . .
56(4) . . .
57(4) . . .
61(4) . . .
52(4) . . .
61(4) . . .
51(4) . . .
60(4) . . .
53(4) . . .
61(4) . . .
58(4) . . .
49(4) . . .
54(4) . . .
56(4) . . .
56(4) . . .
56(4) . . .
58(4) . . .
55(4) . . .
54(4) . . .
50(4) . . .
56(4) . . .
53(4) . . .
61(4) . . .
62(4) . . .
58(4) . . .
55(4) . . .
64(4) . . .
59(4) . . .
59(4) . . .
51(4) . . .
55(4) . . .
57(4) . . .
56(4) . . .
57(4) . . .
52(4) . . .
67(4) . . .
55(4) . . .
57(4) . . .
65(5) . . .
63(4) . . .
60(4) . . .
50(4) . . .
56(4) . . .
51(4) . . .
50(4) . . .
53(4) . . .
57(4) . . .
67(4) . . .
55(4) . . .
64(4) . . .
54(4) . . .
59(4) . . .
47(4) . . .
59(4) . . .
52(4) . . .
56(4) . . .
73(5) . . .
55(4) . . .
50(4) . . .
50(4) . . .
47(4) . . .
51(4) . . .
58(4) . . .
57(4) . . .
51(4) . . .
48(4) . . .
53(4) . . .
54(4) . . .
50(4) . . .
64(4) . . .
55(4) . . .
56(4) . . .
45(4) . . .
47(4) . . .
46(4) . . .
45(4) . . .
43(4) . . .
53(4) . . .
57(4) . . .
51(4) . . .
56(4) . . .
58(4) . . .
64(4) . . .
70(5) . . .
51(4) . . .
61(4) . . .
52(4) . . .
57(4) . . .
68(5) . . .
51(4) . . .
42.6(34) . . .
49(4) . . .
57(4) . . .
51(4) . . .
60(4) . . .
62(4) . . .
51(4) . . .
62(4) . . .
53(4) . . .
62(4) . . .
59(4) . . .
45(4) . . .
57(4) . . .
68(5) . . .
66(4) . . .
57(4) . . .
47(4) . . .
49(4) . . .
56(4) . . .
44.4(35) . . .
54(4) . . .
63(4) . . .
58(4) . . .
52(4) . . .
59(4) . . .
53(4) . . .
62(4) . . .
62(4) . . .
50(4) . . .
47(4) . . .
60(4) . . .
55(4) . . .
35.0(31) . . .
48(4) . . .
56(4) . . .
54(4) . . .
56(4) . . .
51(4) . . .
57(4) . . .
52(4) . . .
63(4) . . .
48(4) . . .
47(4) . . .
55(4) . . .
58(4) . . .
53(4) . . .
59(4) . . .
56(4) . . .
60(4) . . .
62(4) . . .
50(4) . . .
53(4) . . .
53(4) . . .
61(4) . . .
62(4) . . .
47(4) . . .
51(4) . . .
45(4) . . .
52(4) . . .
51(4) . . .
49(4) . . .
48(4) . . .
47(4) . . .
50(4) . . .
58(4) . . .
60(4) . . .
62(4) . . .
59(4) . . .
65(4) . . .
55(4) . . .
57(4) . . .
66(5) . . .
59(4) . . .
55(4) . . .
56(4) . . .
53(4) . . .
54(4) . . .
57(4) . . .
65(4) . . .
64(4) . . .
62(4) . . .
49(4) . . .
60(4) . . .
51(4) . . .
53(4) . . .
68(5) . . .
52(4) . . .
68(4) . . .
59(4) . . .
47(4) . . .
64(5) . . .
60(4) . . .
55(4) . . .
52(4) . . .
47(4) . . .
65(5) . . .
54(4) . . .
49(4) . . .
63(4) . . .
68(4) . . .
58(4) . . .
50(4) . . .
59(4) . . .
51(4) . . .
53(4) . . .
67(5) . . .
66(4) . . .
58(4) . . .
59(4) . . .
48(4) . . .
56(4) . . .
56(4) . . .
54(4) . . .
51(4) . . .
52(4) . . .
55(4) . . .
51(4) . . .
46(4) . . .
49(4) . . .
51(4) . . .
50(4) . . .
52(4) . . .
43.8(34) . . .
53(4) . . .
56(4) . . .
53(4) . . .
55(4) . . .
46(4) . . .
51(4) . . .
50(4) . . .
51(4) . . .
50(4) . . .
53(4) . . .
67(4) . . .
58(4) . . .
56(4) . . .
65(4) . . .
59(4) . . .
50(4) . . .
64(4) . . .
62(4) . . .
55(4) . . .
49(4) . . .
40.8(34) . . .
54(4) . . .
49(4) . . .
53(4) . . .
58(4) . . .
56(4) . . .
51(4) . . .
55(4) . . .
51(4) . . .
57(4) . . .
58(4) . . .
64(4) . . .
56(4) . . .
53(4) . . .
60(4) . . .
51(4) . . .
40.7(33) . . .
61(4) . . .
57(4) . . .
62(4) . . .
53(4) . . .
50(4) . . .
55(4) . . .
46(4) . . .
50(4) . . .
53(4) . . .
51(4) . . .
57(4) . . .
57(4) . . .
56(4) . . .
53(4) . . .
46(4) . . .
52(4) . . .
61(4) . . .
53(4) . . .
60(4) . . .
60(4) . . .
55(4) . . .
60(4) . . .
53(4) . . .
51(4) . . .
52(4) . . .
56(4) . . .
48(4) . . .
53(4) . . .
61(4) . . .
59(4) . . .
58(4) . . .
65(4) . . .
55(4) . . .
45(4) . . .
62(4) . . .
52(4) . . .
50(4) . . .
59(4) . . .
66(5) . . .
58(4) . . .
61(4) . . .
65(4) . . .
55(4) . . .
54(4) . . .
52(4) . . .
46(4) . . .
57(4) . . .
57(4) . . .
59(4) . . .
45(4) . . .
63(4) . . .
59(4) . . .
50(4) . . .
67(5) . . .
62(4) . . .
44.4(35) . . .
57(4) . . .
56(4) . . .
47(4) . . .
58(4) . . .
56(4) . . .
44.5(34) . . .
55(4) . . .
60(4) . . .
54(4) . . .
61(4) . . .
63(4) . . .
56(4) . . .
49(4) . . .
51(4) . . .
57(4) . . .
50(4) . . .
58(4) . . .
51(4) . . .
55(4) . . .
53(4) . . .
52(4) . . .
50(4) . . .
54(4) . . .
58(4) . . .
58(4) . . .
54(4) . . .
59(4) . . .
58(4) . . .
57(4) . . .
63(4) . . .
62(4) . . .
57(4) . . .
55(4) . . .
58(4) . . .
50(4) . . .
58(4) . . .
63(5) . . .
58(4) . . .
52(4) . . .
56(4) . . .
45(4) . . .
53(4) . . .
52(4) . . .
54(4) . . .
51(4) . . .
54(4) . . .
59(4) . . .
55(4) . . .
54(4) . . .
60(4) . . .
59(4) . . .
51(4) . . .
48(4) . . .
47(4) . . .
61(4) . . .
57(4) . . .
61(4) . . .
64(4) . . .
58(4) . . .
55(4) . . .
58(4) . . .
56(4) . . .
56(4) . . .
60(4) . . .
50(4) . . .
55(4) . . .
46(4) . . .
50(4) . . .
51(4) . . .
56(4) . . .
51(4) . . .
53(4) . . .
47(4) . . .
52(4) . . .
66(4) . . .
59(4) . . .
53(4) . . .
57(4) . . .
59(4) . . .
53(4) . . .
58(4) . . .
58(4) . . .
53(4) . . .
61(4) . . .
59(4) . . .
54(4) . . .
52(4) . . .
54(4) . . .
63(4) . . .
64(4) . . .
60(4) . . .
55(4) . . .
52(4) . . .
48(4) . . .
49(4) . . .
44(4) . . .
54(4) . . .
57(4) . . .
54(4) . . .
60(4) . . .
65(4) . . .
64(4) . . .
61(4) . . .
67(4) . . .
57(4) . . .
57(4) . . .
52(4) . . .
52(4) . . .
47(4) . . .
54(4) . . .
63(4) . . .
61(4) . . .
62(4) . . .
53(4) . . .
58(4) . . .
59(4) . . .
64(4) . . .
57(4) . . .
68(4) . . .
51(4) . . .
50(4) . . .
53(4) . . .
52(4) . . .
59(4) . . .
51(4) . . .
59(4) . . .
60(4) . . .
65(4) . . .
60(4) . . .
62(4) . . .
57(4) . . .
47(4) . . .
56(4) . . .
55(4) . . .
53(4) . . .
60(4) . . .
58(4) . . .
54(4) . . .
58(4) . . .
61(4) . . .
48(4) . . .
54(4) . . .
51(4) . . .
62(4) . . .
61(4) . . .
47(4) . . .
53(4) . . .
55(4) . . .
54(4) . . .
59(4) . . .
56(4) . . .
62(4) . . .
54(4) . . .
47(4) . . .
56(4) . . .
56(4) . . .
60(4) . . .
54(4) . . .
58(4) . . .
62(4) . . .
55(4) . . .
58(4) . . .
60(4) . . .
54(4) . . .
55(4) . . .
69(4) . . .
56(4) . . .
55(4) . . .
53(4) . . .
57(4) . . .
57(4) . . .
60(4) . . .
54(4) . . .
58(4) . . .
69(4) . . .
53(4) . . .
48(4) . . .
47(4) . . .
53(4) . . .
59(4) . . .
51(4) . . .
49(4) . . .
47(4) . . .
58(4) . . .
39.2(33) . . .
54(4) . . .
63(4) . . .
51(4) . . .
50(4) . . .
51(4) . . .
48(4) . . .
59(4) . . .
51(4) . . .
59(4) . . .
47(4) . . .
51(4) . . .
65(4) . . .
51(4) . . .
52(4) . . .
60(4) . . .
54(4) . . .
56(4) . . .
53(4) . . .
70(5) . . .
53(4) . . .
65(4) . . .
54(4) . . .
49(4) . . .
60(4) . . .
58(4) . . .
55(4) . . .
57(4) . . .
52(4) . . .
54(4) . . .
54(4) . . .
56(4) . . .
54(4) . . .
48(4) . . .
45(4) . . .
49(4) . . .
51(4) . . .
57(4) . . .
56(4) . . .
65(4) . . .
60(4) . . .
48(4) . . .
54(4) . . .
46(4) . . .
55(4) . . .
48(4) . . .
52(4) . . .
49(4) . . .
52(4) . . .
59(4) . . .
62(4) . . .
53(4) . . .
59(4) . . .
61(4) . . .
56(4) . . .
57(4) . . .
56(4) . . .
51(4) . . .
52(4) . . .
46(4) . . .
48(4) . . .
62(4) . . .
58(4) . . .
59(4) . . .
65(4) . . .
47(4) . . .
48(4) . . .
66(5) . . .
57(4) . . .
54(4) . . .
57(4) . . .
58(4) . . .
61(4) . . .
50(4) . . .
52(4) . . .
52(4) . . .
60(4) . . .
49(4) . . .
68(5) . . .
53(4) . . .
58(4) . . .
58(4) . . .
55(4) . . .
54(4) . . .
52(4) . . .
61(4) . . .
53(4) . . .
69(5) . . .
55(4) . . .
50(4) . . .
51(4) . . .
64(4) . . .
55(4) . . .
66(4) . . .
52(4) . . .
46.8(35) . . .
52(4) . . .
54(4) . . .
56(4) . . .
67(4) . . .
50(4) . . .
57(4) . . .
52(4) . . .
53(4) . . .
59(4) . . .
53(4) . . .
51(4) . . .
63(5) . . .
58(4) . . .
54(4) . . .
60(4) . . .
59(4) . . .
52(4) . . .
48(4) . . .
49(4) . . .
65(4) . . .
54(4) . . .
55(4) . . .
51(4) . . .
62(4) . . .
72(4) . . .
53(4) . . .
51(4) . . .
56(4) . . .
58(4) . . .
58(4) . . .
53(4) . . .
57(4) . . .
54(4) . . .
50(4) . . .
61(4) . . .
58(4) . . .
52(4) . . .
50(4) . . .
64(4) . . .
62(4) . . .
63(4) . . .
59(4) . . .
46(4) . . .
44.0(35) . . .
45(4) . . .
48(4) . . .
58(4) . . .
54(4) . . .
51(4) . . .
47(4) . . .
47(4) . . .
58(4) . . .
57(4) . . .
52(4) . . .
50(4) . . .
56(4) . . .
55(4) . . .
57(4) . . .
50(4) . . .
64(4) . . .
56(4) . . .
63(4) . . .
57(4) . . .
54(4) . . .
58(4) . . .
60(4) . . .
58(4) . . .
64(4) . . .
52(4) . . .
54(4) . . .
45(4) . . .
58(4) . . .
55(4) . . .
44.0(35) . . .
55(4) . . .
60(4) . . .
51(4) . . .
60(4) . . .
54(4) . . .
47(4) . . .
61(5) . . .
60(4) . . .
63(4) . . .
67(4) . . .
51(4) . . .
58(4) . . .
42.5(34) . . .
63(4) . . .
65(5) . . .
61(4) . . .
57(4) . . .
63(4) . . .
51(4) . . .
54(4) . . .
60(4) . . .
55(4) . . .
56(4) . . .
55(4) . . .
41.2(34) . . .
47(4) . . .
50(4) . . .
56(4) . . .
55(4) . . .
58(4) . . .
53(4) . . .
57(4) . . .
62(4) . . .
50(4) . . .
47(4) . . .
53(4) . . .
56(4) . . .
61(4) . . .
56(4) . . .
56(4) . . .
60(4) . . .
54(4) . . .
54(4) . . .
54(4) . . .
50(4) . . .
50(4) . . .
65(4) . . .
57(4) . . .
55(4) . . .
58(4) . . .
45(4) . . .
59(4) . . .
56(4) . . .
61(4) . . .
58(4) . . .
50(4) . . .
55(4) . . .
48(4) . . .
55(4) . . .
61(4) . . .
55(4) . . .
60(4) . . .
66(4) . . .
50(4) . . .
56(4) . . .
51(4) . . .
62(4) . . .
55(4) . . .
53(4) . . .
56(4) . . .
52(4) . . .
63(4) . . .
52(4) . . .
45(4) . . .
57(4) . . .
59(4) . . .
52(4) . . .
52(4) . . .
64(4) . . .
63(5) . . .
50(4) . . .
54(4) . . .
51(4) . . .
63(4) . . .
53(4) . . .
56(4) . . .
59(4) . . .
51(4) . . .
56(4) . . .
51(4) . . .
52(4) . . .
47(4) . . .
53(4) . . .
49(4) . . .
55(4) . . .
54(4) . . .
53(4) . . .
50(4) . . .
57(4) . . .
58(4) . . .
53(4) . . .
47(4) . . .
48(4) . . .
42.3(33) . . .
50(4) . . .
47(4) . . .
63(4) . . .
56(4) . . .
60(4) . . .
57(4) . . .
52(4) . . .
60(4) . . .
58(4) . . .
59(4) . . .
48(4) . . .
53(4) . . .
66(4) . . .
46(4) . . .
48(4) . . .
46(4) . . .
67(4) . . .
49(4) . . .
55(4) . . .
50(4) . . .
66(4) . . .
56(4) . . .
55(4) . . .
61(4) . . .
51(4) . . .
48(4) . . .
54(4) . . .
59(4) . . .
57(4) . . .
61(4) . . .
59(4) . . .
53(4) . . .
52(4) . . .
55(4) . . .
54(4) . . .
51(4) . . .
52(4) . . .
57(4) . . .
55(4) . . .
43(4) . . .
50(4) . . .
60(4) . . .
45.5(35) . . .
53(4) . . .
54(4) . . .
46(4) . . .
48(4) . . .
51(4) . . .
60(4) . . .
51(4) . . .
58(4) . . .
52(4) . . .
55(4) . . .
48(4) . . .
56(4) . . .
42.4(35) . . .
52(4) . . .
52(4) . . .
54(4) . . .
57(4) . . .
51(4) . . .
48(4) . . .
48(4) . . .
56(4) . . .
53(4) . . .
57(4) . . .
61(4) . . .
59(4) . . .
54(4) . . .
58(4) . . .
50(4) . . .
50(4) . . .
49(4) . . .
55(4) . . .
58(4) . . .
49(4) . . .
50(4) . . .
57(4) . . .
52(4) . . .
54(4) . . .
53(4) . . .
47(4) . . .
55(4) . . .
55(4) . . .
51(4) . . .
42.5(34) . . .
51(4) . . .
66(4) . . .
60(4) . . .
55(4) . . .
67(4) . . .
53(4) . . .
61(4) . . .
48(4) . . .
47(4) . . .
61(4) . . .
57(4) . . .
48(4) . . .
48(4) . . .
40(4) . . .
48(4) . . .
49(4) . . .
48(4) . . .
63(4) . . .
56(4) . . .
62(4) . . .
65(4) . . .
58(4) . . .
50(4) . . .
54(4) . . .
68(4) . . .
57(4) . . .
61(4) . . .
61(4) . . .
56(4) . . .
63(4) . . .
65(4) . . .
52(4) . . .
49(4) . . .
49(4) . . .
47(4) . . .
61(4) . . .
51(4) . . .
56(4) . . .
64(4) . . .
47(4) . . .
51(4) . . .
49(4) . . .
46(4) . . .
61(4) . . .
49(4) . . .
55(4) . . .
50(4) . . .
49(4) . . .
54(4) . . .
55(4) . . .
61(4) . . .
51(4) . . .
56(4) . . .
60(4) . . .
51(4) . . .
69(5) . . .
57(4) . . .
54(4) . . .
54(4) . . .
55(4) . . .
57(4) . . .
57(4) . . .
64(4) . . .
49(4) . . .
62(4) . . .
53(4) . . .
60(4) . . .
56(4) . . .
52(4) . . .
53(4) . . .
56(4) . . .
55(4) . . .
54(4) . . .
49(4) . . .
65(4) . . .
61(4) . . .
56(4) . . .
51(4) . . .
54(4) . . .
51(4) . . .
62(4) . . .
52(4) . . .
51(4) . . .
49(4) . . .
54(4) . . .
47(4) . . .
56(4) . . .
54(4) . . .
61(4) . . .
49(4) . . .
53(4) . . .
49(4) . . .
51(4) . . .
55(4) . . .
73(4) . . .
58(4) . . .
58(4) . . .
63(4) . . .
53(4) . . .
61(4) . . .
54(4) . . .
58(4) . . .
51(4) . . .
55(4) . . .
62(4) . . .
42(4) . . .
54(4) . . .
57(4) . . .
47(4) . . .
53(4) . . .
58(4) . . .
59(4) . . .
56(4) . . .
48(4) . . .
60(4) . . .
56(4) . . .
44(4) . . .
46(4) . . .
59(4) . . .
62(4) . . .
61(4) . . .
50(4) . . .
47(4) . . .
60(4) . . .
56(4) . . .
43.8(33) . . .
53(4) . . .
54(4) . . .
55(4) . . .
53(4) . . .
56(4) . . .
58(4) . . .
55(4) . . .
68(4) . . .
58(4) . . .
63(4) . . .
62(4) . . .
69(4) . . .
52(4) . . .
60(4) . . .
56(4) . . .
59(4) . . .
55(4) . . .
47(4) . . .
53(4) . . .
54(4) . . .
60(4) . . .
51(4) . . .
54(4) . . .
55(4) . . .
55(4) . . .
60(4) . . .
62(4) . . .
54(4) . . .
53(4) . . .
47(4) . . .
61(4) . . .
61(4) . . .
47(4) . . .
53(4) . . .
42.0(34) . . .
60(4) . . .
48(4) . . .
55(4) . . .
67(4) . . .
66(4) . . .
55(4) . . .
57(4) . . .
58(4) . . .
68(4) . . .
64(4) . . .
62(4) . . .
58(4) . . .
56(4) . . .
62(5) . . .
54(4) . . .
50(4) . . .
63(4) . . .
52(4) . . .
59(4) . . .
58(4) . . .
52(4) . . .
53(4) . . .
50(4) . . .
51(4) . . .
60(4) . . .
46(4) . . .
61(4) . . .
56(4) . . .
56(4) . . .
53(4) . . .
53(4) . . .
69(5) . . .
67(5) . . .
52(4) . . .
48(4) . . .
55(4) . . .
49(4) . . .
47(4) . . .
42.3(35) . . .
62(4) . . .
42.0(34) . . .
49(4) . . .
52(4) . . .
54(4) . . .
55(4) . . .
48(4) . . .
56(4) . . .
54(4) . . .
55(4) . . .
51(4) . . .
45(4) . . .
51(4) . . .
61(4) . . .
55(4) . . .
52(4) . . .
54(4) . . .
57(4) . . .
48(4) . . .
50(4) . . .
53(4) . . .
55(4) . . .
51(4) . . .
62(4) . . .
57(4) . . .
52(4) . . .
56(4) . . .
51(4) . . .
58(4) . . .
55(4) . . .
62(4) . . .
47(4) . . .
52(4) . . .
60(4) . . .
59(4) . . .
50(4) . . .
55(4) . . .
51(4) . . .
52(4) . . .
43.0(34) . . .
66(4) . . .
58(4) . . .
58(4) . . .
62(4) . . .
45.4(35) . . .
57(4) . . .
56(4) . . .
67(5) . . .
63(4) . . .
54(4) . . .
63(4) . . .
55(4) . . .
60(4) . . .
55(4) . . .
56(4) . . .
55(4) . . .
61(4) . . .
68(5) . . .
51(4) . . .
62(4) . . .
47(4) . . .
53(4) . . .
51(4) . . .
64(4) . . .
58(4) . . .
59(4) . . .
54(4) . . .
58(4) . . .
62(4) . . .
46(4) . . .
54(4) . . .
59(4) . . .
53(4) . . .
50(4) . . .
52(4) . . .
51(4) . . .
54(4) . . .
53(4) . . .
52(4) . . .
45.2(35) . . .
50(4) . . .
63(5) . . .
60(4) . . .
46(4) . . .
51(4) . . .
54(4) . . .
69(5) . . .
50(4) . . .
48(4) . . .
56(4) . . .
49(4) . . .
62(5) . . .
59(4) . . .
57(4) . . .
71(4) . . .
53(4) . . .
48(4) . . .
56(4) . . .
54(4) . . .
50(4) . . .
57(4) . . .
55(4) . . .
42.7(33) . . .
53(4) . . .
58(4) . . .
54(4) . . .
56(4) . . .
52(4) . . .
49(4) . . .
49(4) . . .
58(4) . . .
50(4) . . .
60(4) . . .
56(4) . . .
48(4) . . .
51(4) . . .
53(4) . . .
57(4) . . .
52(4) . . .
61(4) . . .
67(5) . . .
50(4) . . .
54(4) . . .
59(4) . . .
60(4) . . .
53(4) . . .
56(4) . . .
50(4) . . .
58(4) . . .
48(4) . . .
55(4) . . .
61(4) . . .
48(4) . . .
50(4) . . .
56(4) . . .
56(4) . . .
59(4) . . .
48(4) . . .
63(4) . . .
54(4) . . .
60(4) . . .
58(4) . . .
56(4) . . .
57(4) . . .
49(4) . . .
50(4) . . .
49(4) . . .
47(4) . . .
50(4) . . .
57(4) . . .
45(4) . . .
51(4) . . .
44.6(34) . . .
51(4) . . .
64(4) . . .
44.8(35) . . .
62(4) . . .
60(4) . . .
44(4) . . .
49(4) . . .
58(4) . . .
52(4) . . .
57(4) . . .
59(4) . . .
58(4) . . .
66(5) . . .
58(4) . . .
40.6(33) . . .
56(4) . . .
55(4) . . .
47(4) . . .
42.5(34) . . .
58(4) . . .
53(4) . . .
43(4) . . .
62(4) . . .
59(4) . . .
62(4) . . .
56(4) . . .
56(4) . . .
58(4) . . .
59(4) . . .
54(4) . . .
51(4) . . .
48(4) . . .
54(4) . . .
42.9(34) . . .
65(4) . . .
55(4) . . .
57(4) . . .
42.5(34) . . .
48(4) . . .
57(4) . . .
55(4) . . .
57(4) . . .
58(4) . . .
55(4) . . .
48(4) . . .
51(4) . . .
44(4) . . .
49(4) . . .
54(4) . . .
43.5(35) . . .
46(4) . . .
54(4) . . .
53(4) . . .
56(4) . . .
62(4) . . .
54(4) . . .
57(4) . . .
56(4) . . .
57(4) . . .
50(4) . . .
51(4) . . .
50(4) . . .
56(4) . . .
52(4) . . .
57(4) . . .
56(4) . . .
55(4) . . .
52(4) . . .
53(4) . . .
49(4) . . .
58(4) . . .
43.2(34) . . .
55(4) . . .
45.3(35) . . .
53(4) . . .
49(4) . . .
54(4) . . .
55(4) . . .
54(4) . . .
51(4) . . .
49(4) . . .
60(4) . . .
51(4) . . .
51(4) . . .
54(4) . . .
54(4) . . .
62(4) . . .
62(4) . . .
52(4) . . .
56(4) . . .
50(4) . . .
60(4) . . .
53(4) . . .
60(4) . . .
53(4) . . .
55(4) . . .
57(4) . . .
58(4) . . .
58(4) . . .
55(4) . . .
55(4) . . .
50(4) . . .
56(4) . . .
47(4) . . .
47(4) . . .
42.6(33) . . .
46(4) . . .
39.9(33) . . .
48(4) . . .
44(4) . . .
49(4) . . .
53(4) . . .
57(4) . . .
51(4) . . .
52(4) . . .
61(4) . . .
56(4) . . .
58(4) . . .
54(4) . . .
52(4) . . .
52(4) . . .
48(4) . . .
63(4) . . .
61(4) . . .
59(4) . . .
56(4) . . .
55(4) . . .
63(4) . . .
53(4) . . .
58(4) . . .
60(4) . . .
55(4) . . .
57(4) . . .
74(5) . . .
53(4) . . .
56(4) . . .
56(4) . . .
51(4) . . .
60(4) . . .
59(4) . . .
57(4) . . .
52(4) . . .
61(4) . . .
54(4) . . .
56(4) . . .
51(4) . . .
61(4) . . .
62(4) . . .
57(4) . . .
61(4) . . .
51(4) . . .
57(4) . . .
54(4) . . .
53(4) . . .
61(4) . . .
62(4) . . .
48(4) . . .
54(4) . . .
65(4) . . .
57(4) . . .
58(4) . . .
50(4) . . .
40.9(34) . . .
51(4) . . .
51(4) . . .
57(4) . . .
63(4) . . .
64(4) . . .
64(4) . . .
62(4) . . .
57(4) . . .
54(4) . . .
46(4) . . .
56(4) . . .
53(4) . . .
54(4) . . .
49(4) . . .
42.0(34) . . .
49(4) . . .
62(4) . . .
66(4) . . .
64(4) . . .
52(4) . . .
47(4) . . .
50(4) . . .
51(4) . . .
58(4) . . .
59(4) . . .
50(4) . . .
53(4) . . .
49(4) . . .
51(4) . . .
61(4) . . .
60(4) . . .
55(4) . . .
62(4) . . .
46.7(35) . . .
43.9(35) . . .
46(4) . . .
51(4) . . .
60(4) . . .
49(4) . . .
51(4) . . .
55(4) . . .
59(4) . . .
53(4) . . .
45.2(35) . . .
51(4) . . .
51(4) . . .
53(4) . . .
53(4) . . .
52(4) . . .
62(4) . . .
60(4) . . .
47(4) . . .
49(4) . . .
47(4) . . .
55(4) . . .
56(4) . . .
57(4) . . .
49(4) . . .
51(4) . . .
54(4) . . .
46.6(35) . . .
61(4) . . .
59(4) . . .
61(4) . . .
53(4) . . .
50(4) . . .
55(4) . . .
48(4) . . .
59(4) . . .
49(4) . . .
45(4) . . .
57(4) . . .
52(4) . . .
51(4) . . .
59(4) . . .
63(4) . . .
52(4) . . .
57(4) . . .
53(4) . . .
50(4) . . .
37.8(32) . . .
50(4) . . .
60(4) . . .
45(4) . . .
48(4) . . .
53(4) . . .
59(4) . . .
54(4) . . .
43(4) . . .
53(4) . . .
50(4) . . .
58(4) . . .
47(4) . . .
53(4) . . .
57(4) . . .
47(4) . . .
61(4) . . .
63(4) . . .
60(4) . . .
51(4) . . .
59(4) . . .
50(4) . . .
57(4) . . .
52(4) . . .
48(4) . . .
52(4) . . .
58(4) . . .
53(4) . . .
47(4) . . .
57(4) . . .
62(4) . . .
61(4) . . .
64(4) . . .
42.8(35) . . .
49(4) . . .
65(4) . . .
54(4) . . .
56(4) . . .
53(4) . . .
53(4) . . .
53(4) . . .
58(4) . . .
56(4) . . .
46(4) . . .
57(4) . . .
54(4) . . .
43.6(34) . . .
45(4) . . .
56(4) . . .
59(4) . . .
57(4) . . .
52(4) . . .
51(4) . . .
49(4) . . .
61(4) . . .
54(4) . . .
49(4) . . .
48(4) . . .
45(4) . . .
59(4) . . .
48(4) . . .
49(4) . . .
50(4) . . .
56(4) . . .
53(4) . . .
48(4) . . .
53(4) . . .
55(4) . . .
62(4) . . .
60(4) . . .
53(4) . . .
56(4) . . .
62(4) . . .
57(4) . . .
50(4) . . .
50(4) . . .
49(4) . . .
58(4) . . .
58(4) . . .
51(4) . . .
62(4) . . .
55(4) . . .
60(4) . . .
45.5(34) . . .
50(4) . . .
52(4) . . .
55(4) . . .
58(4) . . .
46(4) . . .
54(4) . . .
55(4) . . .
49(4) . . .
51(4) . . .
56(4) . . .
57(4) . . .
51(4) . . .
56(4) . . .
60(4) . . .
49(4) . . .
58(4) . . .
62(4) . . .
66(4) . . .
52(4) . . .
46(4) . . .
55(4) . . .
58(4) . . .
64(4) . . .
51(4) . . .
51(4) . . .
58(4) . . .
59(4) . . .
65(4) . . .
67(5) . . .
45.8(35) . . .
56(4) . . .
62(4) . . .
47(4) . . .
47(4) . . .
57(4) . . .
53(4) . . .
64(4) . . .
57(4) . . .
55(4) . . .
51(4) . . .
45(4) . . .
53(4) . . .
56(4) . . .
59(4) . . .
50(4) . . .
59(4) . . .
66(4) . . .
49(4) . . .
58(4) . . .
58(4) . . .
39.9(32) . . .
47(4) . . .
56(4) . . .
64(4) . . .
59(4) . . .
49(4) . . .
57(4) . . .
58(4) . . .
56(4) . . .
59(4) . . .
60(4) . . .
53(4) . . .
55(4) . . .
63(4) . . .
58(4) . . .
48(4) . . .
49(4) . . .
50(4) . . .
58(4) . . .
55(4) . . .
47(4) . . .
49(4) . . .
52(4) . . .
53(4) . . .
56(4) . . .
57(4) . . .
61(4) . . .
56(4) . . .
56(4) . . .
56(4) . . .
52(4) . . .
56(4) . . .
56(4) . . .
46(4) . . .
61(4) . . .
54(4) . . .
51(4) . . .
61(4) . . .
51(4) . . .
46(4) . . .
53(4) . . .
55(4) . . .
51(4) . . .
47(4) . . .
59(4) . . .
57(4) . . .
58(4) . . .
52(4) . . .
56(4) . . .
52(4) . . .
62(4) . . .
49(4) . . .
57(4) . . .
49(4) . . .
56(4) . . .
54(4) . . .
49(4) . . .
62(4) . . .
59(4) . . .
66(4) . . .
52(4) . . .
59(4) . . .
54(4) . . .
47(4) . . .
53(4) . . .
58(4) . . .
52(4) . . .
55(4) . . .
65(4) . . .
53(4) . . .
55(4) . . .
49(4) . . .
46(4) . . .
56(4) . . .
56(4) . . .
52(4) . . .
69(5) . . .
67(5) . . .
63(4) . . .
59(4) . . .
59(4) . . .
54(4) . . .
47(4) . . .
50(4) . . .
52(4) . . .
62(4) . . .
69(5) . . .
60(4) . . .
57(4) . . .
48(4) . . .
47(4) . . .
47(4) . . .
52(4) . . .
56(4) . . .
60(4) . . .
50(4) . . .
57(4) . . .
54(4) . . .
51(4) . . .
53(4) . . .
62(4) . . .
65(4) . . .
45(4) . . .
48(4) . . .
59(4) . . .
56(4) . . .
55(4) . . .
62(4) . . .
53(4) . . .
54(4) . . .
64(5) . . .
61(4) . . .
57(4) . . .
49(4) . . .
51(4) . . .
62(5) . . .
54(4) . . .
51(4) . . .
57(4) . . .
49(4) . . .
48(4) . . .
55(4) . . .
55(4) . . .
57(4) . . .
58(4) . . .
54(4) . . .
46(4) . . .
53(4) . . .
54(4) . . .
47(4) . . .
66(4) . . .
52(4) . . .
56(4) . . .
42.8(34) . . .
51(4) . . .
43(4) . . .
51(4) . . .
47(4) . . .
53(4) . . .
56(4) . . .
52(4) . . .
56(4) . . .
54(4) . . .
59(4) . . .
56(4) . . .
48(4) . . .
47(4) . . .
54(4) . . .
55(4) . . .
49(4) . . .
48(4) . . .
51(4) . . .
57(4) . . .
47(4) . . .
53(4) . . .
54(4) . . .
59(4) . . .
56(4) . . .
56(4) . . .
67(5) . . .
50(4) . . .
56(4) . . .
54(4) . . .
58(4) . . .
62(4) . . .
60(4) . . .
59(4) . . .
64(4) . . .
54(4) . . .
54(4) . . .
58(4) . . .
50(4) . . .
51(4) . . .
42.2(33) . . .
53(4) . . .
52(4) . . .
55(4) . . .
59(4) . . .
55(4) . . .
59(4) . . .
54(4) . . .
57(4) . . .
56(4) . . .
49(4) . . .
56(4) . . .
55(4) . . .
52(4) . . .
54(4) . . .
58(4) . . .
60(4) . . .
58(4) . . .
63(4) . . .
55(4) . . .
49(4) . . .
50(4) . . .
64(4) . . .
56(4) . . .
49(4) . . .
50(4) . . .
55(4) . . .
53(4) . . .
48(4) . . .
51(4) . . .
52(4) . . .
50(4) . . .
57(4) . . .
59(4) . . .
54(4) . . .
49(4) . . .
53(4) . . .
57(4) . . .
54(4) . . .
52(4) . . .
55(4) . . .
56(4) . . .
57(4) . . .
61(4) . . .
58(4) . . .
56(4) . . .
54(4) . . .
48(4) . . .
58(4) . . .
55(4) . . .
57(4) . . .
57(4) . . .
49(4) . . .
53(4) . . .
54(4) . . .
51(4) . . .
60(4) . . .
54(4) . . .
52(4) . . .
50(4) . . .
54(4) . . .
53(4) . . .
59(4) . . .
55(4) . . .
50(4) . . .
57(4) . . .
50(4) . . .
64(4) . . .
47(4) . . .
57(4) . . .
53(4) . . .
56(4) . . .
50(4) . . .
62(4) . . .
50(4) . . .
60(4) . . .
52(4) . . .
54(4) . . .
49(4) . . .
44.9(35) . . .
57(4) . . .
53(4) . . .
57(4) . . .
58(4) . . .
49(4) . . .
60(4) . . .
49(4) . . .
57(4) . . .
47(4) . . .
50(4) . . .
54(4) . . .
51(4) . . .
58(4) . . .
56(4) . . .
59(4) . . .
53(4) . . .
50(4) . . .
47(4) . . .
53(4) . . .
51(4) . . .
62(4) . . .
52(4) . . .
53(4) . . .
63(4) . . .
53(4) . . .
56(4) . . .
54(4) . . .
57(4) . . .
57(4) . . .
49(4) . . .
52(4) . . .
58(4) . . .
56(4) . . .
50(4) . . .
55(4) . . .
54(4) . . .
51(4) . . .
57(4) . . .
58(4) . . .
53(4) . . .
55(4) . . .
53(4) . . .
52(4) . . .
56(4) . . .
60(4) . . .
63(4) . . .
51(4) . . .
48(4) . . .
60(4) . . .
61(4) . . .
59(4) . . .
54(4) . . .
44(4) . . .
46(4) . . .
45(4) . . .
49(4) . . .
57(4) . . .
57(4) . . .
55(4) . . .
48(4) . . .
52(4) . . .
60(4) . . .
64(4) . . .
52(4) . . .
55(4) . . .
55(4) . . .
64(4) . . .
63(4) . . .
54(4) . . .
49(4) . . .
47(4) . . .
50(4) . . .
52(4) . . .
50(4) . . .
56(4) . . .
60(4) . . .
59(4) . . .
48(4) . . .
53(4) . . .
60(4) . . .
48(4) . . .
53(4) . . .
55(4) . . .
55(4) . . .
52(4) . . .
55(4) . . .
61(4) . . .
59(4) . . .
52(4) . . .
54(4) . . .
44.0(35) . . .
45(4) . . .
49(4) . . .
57(4) . . .
53(4) . . .
56(4) . . .
62(4) . . .
54(4) . . .
56(4) . . .
55(4) . . .
51(4) . . .
42.6(34) . . .
56(4) . . .
63(4) . . .
57(4) . . .
59(4) . . .
51(4) . . .
53(4) . . .
59(4) . . .
55(4) . . .
58(4) . . .
53(4) . . .
55(4) . . .
56(4) . . .
57(4) . . .
51(4) . . .
50(4) . . .
54(4) . . .
55(4) . . .
64(4) . . .
62(4) . . .
63(4) . . .
59(4) . . .
60(4) . . .
56(4) . . .
44.1(35) . . .
47(4) . . .
51(4) . . .
59(4) . . .
64(4) . . .
58(4) . . .
49(4) . . .
51(4) . . .
53(4) . . .
48(4) . . .
46(4) . . .
44(4) . . .
58(4) . . .
51(4) . . .
46(4) . . .
55(4) . . .
54(4) . . .
60(4) . . .
52(4) . . .
54(4) . . .
56(4) . . .
66(5) . . .
46(4) . . .
51(4) . . .
61(4) . . .
62(4) . . .
72(5) . . .
58(4) . . .
57(4) . . .
64(4) . . .
58(4) . . .
52(4) . . .
56(4) . . .
51(4) . . .
47(4) . . .
47(4) . . .
48(4) . . .
49(4) . . .
49(4) . . .
57(4) . . .
59(4) . . .
61(4) . . .
52(4) . . .
49(4) . . .
50(4) . . .
54(4) . . .
51(4) . . .
56(4) . . .
62(4) . . .
48(4) . . .
51(4) . . .
52(4) . . .
49(4) . . .
54(4) . . .
68(4) . . .
57(4) . . .
53(4) . . .
50(4) . . .
59(4) . . .
51(4) . . .
55(4) . . .
52(4) . . .
56(4) . . .
58(4) . . .
49(4) . . .
41.9(33) . . .
49(4) . . .
56(4) . . .
54(4) . . .
50(4) . . .
45(4) . . .
56(4) . . .
58(4) . . .
56(4) . . .
49(4) . . .
49(4) . . .
67(5) . . .
62(4) . . .
52(4) . . .
46(4) . . .
50(4) . . .
51(4) . . .
58(4) . . .
47(4) . . .
41.3(33) . . .
57(4) . . .
53(4) . . .
50(4) . . .
52(4) . . .
54(4) . . .
52(4) . . .
57(4) . . .
64(4) . . .
55(4) . . .
52(4) . . .
56(4) . . .
53(4) . . .
57(4) . . .
51(4) . . .
46(4) . . .
58(4) . . .
62(4) . . .
47(4) . . .
52(4) . . .
57(4) . . .
58(4) . . .
59(4) . . .
53(4) . . .
48(4) . . .
54(4) . . .
56(4) . . .
47(4) . . .
47(4) . . .
53(4) . . .
55(4) . . .
50(4) . . .
52(4) . . .
56(4) . . .
54(4) . . .
53(4) . . .
47(4) . . .
50(4) . . .
55(4) . . .
60(4) . . .
60(4) . . .
52(4) . . .
49(4) . . .
44.2(35) . . .
59(4) . . .
54(4) . . .
53(4) . . .
55(4) . . .
51(4) . . .
57(4) . . .
51(4) . . .
53(4) . . .
62(4) . . .
56(4) . . .
50(4) . . .
55(4) . . .
51(4) . . .
46(4) . . .
46(4) . . .
57(4) . . .
54(4) . . .
45(4) . . .
43.1(35) . . .
49(4) . . .
48(4) . . .
52(4) . . .
45(4) . . .
43.4(34) . . .
50(4) . . .
58(4) . . .
67(5) . . .
51(4) . . .
56(4) . . .
56(4) . . .
62(4) . . .
64(4) . . .
63(4) . . .
41.1(34) . . .
59(4) . . .
51(4) . . .
54(4) . . .
51(4) . . .
60(4) . . .
49(4) . . .
58(4) . . .
56(4) . . .
58(4) . . .
51(4) . . .
50(4) . . .
47(4) . . .
58(4) . . .
42.0(34) . . .
53(4) . . .
50(4) . . .
48(4) . . .
53(4) . . .
59(4) . . .
53(4) . . .
58(4) . . .
42.2(35) . . .
58(4) . . .
58(4) . . .
60(4) . . .
45(4) . . .
40(4) . . .
45(4) . . .
61(4) . . .
62(4) . . .
48(4) . . .
49(4) . . .
53(4) . . .
55(4) . . .
54(4) . . .
59(4) . . .
51(4) . . .
49(4) . . .
49(4) . . .
62(4) . . .
60(4) . . .
49(4) . . .
47(4) . . .
58(4) . . .
51(4) . . .
54(4) . . .
48(4) . . .
47(4) . . .
54(4) . . .
50(4) . . .
49(4) . . .
54(4) . . .
61(4) . . .
53(4) . . .
50(4) . . .
49(4) . . .
58(4) . . .
53(4) . . .
49(4) . . .
51(4) . . .
60(4) . . .
46(4) . . .
42.6(34) . . .
51(4) . . .
64(4) . . .
54(4) . . .
47(4) . . .
47(4) . . .
53(4) . . .
47(4) . . .
57(4) . . .
60(4) . . .
58(4) . . .
60(4) . . .
51(4) . . .
53(4) . . .
50(4) . . .
56(4) . . .
51(4) . . .
50(4) . . .
60(4) . . .
57(4) . . .
45.2(35) . . .
52(4) . . .
57(4) . . .
46(4) . . .
54(4) . . .
57(4) . . .
44.8(34) . . .
60(4) . . .
51(4) . . .
60(4) . . .
49(4) . . .
52(4) . . .
43.3(35) . . .
43(4) . . .
59(4) . . .
57(4) . . .
47(4) . . .
54(4) . . .
71(5) . . .
52(4) . . .
53(4) . . .
59(4) . . .
52(4) . . .
61(4) . . .
51(4) . . .
53(4) . . .
49(4) . . .
57(4) . . .
49(4) . . .
54(4) . . .
56(4) . . .
44.6(35) . . .
63(4) . . .
53(4) . . .
51(4) . . .
52(4) . . .
49(4) . . .
56(4) . . .
50(4) . . .
60(4) . . .
45(4) . . .
57(4) . . .
53(4) . . .
59(4) . . .
52(4) . . .
51(4) . . .
61(4) . . .
60(4) . . .
66(4) . . .
66(4) . . .
47(4) . . .
55(4) . . .
55(4) . . .
57(4) . . .
58(4) . . .
50(4) . . .
63(4) . . .
54(4) . . .
58(4) . . .
54(4) . . .
55(4) . . .
46(4) . . .
52(4) . . .
56(4) . . .
50(4) . . .
50(4) . . .
37.1(34) . . .
59(5) . . .
58(4) . . .
59(4) . . .
56(4) . . .
51(4) . . .
46(4) . . .
43.9(34) . . .
53(4) . . .
43.9(35) . . .
47(4) . . .
49(4) . . .
55(4) . . .
57(4) . . .
62(4) . . .
45(4) . . .
50(4) . . .
54(4) . . .
54(4) . . .
48(4) . . .
49(4) . . .
55(4) . . .
51(4) . . .
54(4) . . .
59(4) . . .
57(4) . . .
51(4) . . .
57(4) . . .
57(4) . . .
51(4) . . .
53(4) . . .
43.1(34) . . .
50(4) . . .
54(4) . . .
56(4) . . .
52(4) . . .
63(4) . . .
62(4) . . .
54(4) . . .
53(4) . . .
57(4) . . .
46(4) . . .
52(4) . . .
57(4) . . .
52(4) . . .
56(4) . . .
59(4) . . .
54(4) . . .
49(4) . . .
56(4) . . .
49(4) . . .
47(4) . . .
53(4) . . .
48(4) . . .
52(4) . . .
49(4) . . .
57(4) . . .
56(4) . . .
51(4) . . .
51(4) . . .
41(4) . . .
51(4) . . .
57(4) . . .
55(4) . . .
52(4) . . .
47(4) . . .
52(4) . . .
56(4) . . .
50(4) . . .
54(4) . . .
56(4) . . .
51(4) . . .
59(4) . . .
54(4) . . .
50(4) . . .
59(4) . . .
48(4) . . .
52(4) . . .
48(4) . . .
48(4) . . .
50(4) . . .
53(4) . . .
53(4) . . .
53(4) . . .
51(4) . . .
51(4) . . .
49(4) . . .
59(4) . . .
57(4) . . .
55(4) . . .
49(4) . . .
57(4) . . .
54(4) . . .
58(4) . . .
58(4) . . .
64(4) . . .
55(4) . . .
58(4) . . .
59(4) . . .
61(4) . . .
56(4) . . .
57(4) . . .
52(4) . . .
53(4) . . .
54(4) . . .
60(4) . . .
56(4) . . .
48(4) . . .
51(4) . . .
45(4) . . .
61(4) . . .
58(4) . . .
55(4) . . .
55(4) . . .
44(4) . . .
42.8(34) . . .
40.5(33) . . .
53(4) . . .
50(4) . . .
49(4) . . .
50(4) . . .
49(4) . . .
63(4) . . .
61(4) . . .
60(4) . . .
54(4) . . .
49(4) . . .
49(4) . . .
59(4) . . .
49(4) . . .
55(4) . . .
53(4) . . .
56(4) . . .
56(4) . . .
59(4) . . .
49(4) . . .
60(4) . . .
53(4) . . .
57(4) . . .
58(4) . . .
53(4) . . .
47(4) . . .
52(4) . . .
46(4) . . .
58(4) . . .
44.6(34) . . .
53(4) . . .
67(4) . . .
62(4) . . .
60(4) . . .
59(4) . . .
52(4) . . .
55(4) . . .
53(4) . . .
50(4) . . .
51(4) . . .
47(4) . . .
36.1(31) . . .
53(4) . . .
47(4) . . .
49(4) . . .
56(4) . . .
54(4) . . .
50(4) . . .
47(4) . . .
48(4) . . .
50(4) . . .
54(4) . . .
60(4) . . .
69(4) . . .
54(4) . . .
37.2(32) . . .
46(4) . . .
50(4) . . .
42.9(35) . . .
56(4) . . .
53(4) . . .
48(4) . . .
51(4) . . .
45(4) . . .
53(4) . . .
60(4) . . .
59(4) . . .
49(4) . . .
53(4) . . .
56(4) . . .
51(4) . . .
61(4) . . .
50(4) . . .
41.4(33) . . .
58(4) . . .
58(4) . . .
53(4) . . .
49(4) . . .
50(4) . . .
57(4) . . .
64(4) . . .
51(4) . . .
47(4) . . .
55(4) . . .
44.5(34) . . .
59(4) . . .
58(4) . . .
41.0(33) . . .
50(4) . . .
54(4) . . .
50(4) . . .
53(4) . . .
55(4) . . .
53(4) . . .
60(4) . . .
57(4) . . .
53(4) . . .
55(4) . . .
51(4) . . .
54(4) . . .
46(4) . . .
61(4) . . .
49(4) . . .
48(4) . . .
46(4) . . .
56(4) . . .
53(4) . . .
55(4) . . .
55(4) . . .
39.5(32) . . .
51(4) . . .
44(4) . . .
53(4) . . .
57(4) . . .
50(4) . . .
46(4) . . .
53(4) . . .
54(4) . . .
59(4) . . .
56(4) . . .
49(4) . . .
49(4) . . .
57(4) . . .
59(4) . . .
49(4) . . .
55(4) . . .
58(4) . . .
46(4) . . .
59(4) . . .
53(4) . . .
50(4) . . .
51(4) . . .
53(4) . . .
43.1(35) . . .
49(4) . . .
54(4) . . .
64(4) . . .
50(4) . . .
52(4) . . .
52(4) . . .
56(4) . . .
53(4) . . .
55(4) . . .
56(4) . . .
60(4) . . .
39.4(34) . . .
55(4) . . .
50(4) . . .
50(4) . . .
49(4) . . .
51(4) . . .
57(4) . . .
47(4) . . .
49(4) . . .
50(4) . . .
50(4) . . .
49(4) . . .
56(4) . . .
57(4) . . .
56(4) . . .
62(4) . . .
53(4) . . .
46(4) . . .
48(4) . . .
49(4) . . .
49(4) . . .
58(4) . . .
54(4) . . .
56(4) . . .
54(4) . . .
48(4) . . .
52(4) . . .
55(4) . . .
60(4) . . .
53(4) . . .
51(4) . . .
55(4) . . .
57(4) . . .
60(4) . . .
58(4) . . .
53(4) . . .
56(4) . . .
49(4) . . .
48(4) . . .
49(4) . . .
52(4) . . .
54(4) . . .
54(4) . . .
36.0(32) . . .
51(4) . . .
51(4) . . .
54(4) . . .
55(4) . . .
59(4) . . .
49(4) . . .
60(4) . . .
53(4) . . .
40.5(35) . . .
50(4) . . .
49(4) . . .
52(4) . . .
46(4) . . .
53(4) . . .
62(4) . . .
58(4) . . .
47(4) . . .
50(4) . . .
53(4) . . .
58(4) . . .
48(4) . . .
62(4) . . .
63(4) . . .
51(4) . . .
49(4) . . .
37.7(33) . . .
58(4) . . .
51(4) . . .
46(4) . . .
44(4) . . .
56(4) . . .
56(4) . . .
51(4) . . .
45(4) . . .
45(4) . . .
48(4) . . .
48(4) . . .
46(4) . . .
50(4) . . .
48(4) . . .
53(4) . . .
57(4) . . .
60(4) . . .
62(4) . . .
51(4) . . .
50(4) . . .
44.7(35) . . .
53(4) . . .
55(4) . . .
56(4) . . .
56(4) . . .
51(4) . . .
55(4) . . .
46(4) . . .
58(4) . . .
58(4) . . .
52(4) . . .
54(4) . . .
56(4) . . .
45(4) . . .
48(4) . . .
49(4) . . .
55(4) . . .
57(4) . . .
58(4) . . .
52(4) . . .
57(4) . . .
55(4) . . .
53(4) . . .
57(4) . . .
42.3(34) . . .
47(4) . . .
54(4) . . .
69(5) . . .
62(4) . . .
64(4) . . .
44.3(35) . . .
47(4) . . .
44(4) . . .
52(4) . . .
55(4) . . .
52(4) . . .
45(4) . . .
57(4) . . .
45.2(35) . . .
49(4) . . .
61(4) . . .
52(4) . . .
51(4) . . .
54(4) . . .
56(4) . . .
45(4) . . .
53(4) . . .
51(4) . . .
50(4) . . .
52(4) . . .
58(4) . . .
59(4) . . .
55(4) . . .
56(4) . . .
53(4) . . .
62(4) . . .
55(4) . . .
55(4) . . .
49(4) . . .
44.2(35) . . .
51(4) . . .
61(4) . . .
44(4) . . .
59(4) . . .
53(4) . . .
56(4) . . .
42(4) . . .
53(4) . . .
51(4) . . .
53(4) . . .
56(4) . . .
58(4) . . .
55(4) . . .
62(4) . . .
55(4) . . .
46(4) . . .
50(4) . . .
56(4) . . .
50(4) . . .
50(4) . . .
47(4) . . .
51(4) . . .
46(4) . . .
52(4) . . .
55(4) . . .
53(4) . . .
55(4) . . .
49(4) . . .
56(4) . . .
55(4) . . .
52(4) . . .
56(4) . . .
45(4) . . .
47(4) . . .
47(4) . . .
53(4) . . .
57(4) . . .
54(4) . . .
60(4) . . .
51(4) . . .
56(4) . . .
45(4) . . .
57(4) . . .
50(4) . . .
57(4) . . .
53(4) . . .
48(4) . . .
51(4) . . .
54(4) . . .
42.7(34) . . .
55(4) . . .
51(4) . . .
61(4) . . .
45.4(35) . . .
41.9(33) . . .
51(4) . . .
57(4) . . .
57(4) . . .
55(4) . . .
52(4) . . .
57(4) . . .
55(4) . . .
47(4) . . .
50(4) . . .
42(4) . . .
49(4) . . .
41.0(34) . . .
45(4) . . .
59(4) . . .
51(4) . . .
48(4) . . .
54(4) . . .
56(4) . . .
51(4) . . .
50(4) . . .
59(4) . . .
48(4) . . .
61(4) . . .
54(4) . . .
54(4) . . .
51(4) . . .
46(4) . . .
46(4) . . .
57(4) . . .
47(4) . . .
42.1(33) . . .
60(4) . . .
51(4) . . .
58(4) . . .
48(4) . . .
58(5) . . .
53(4) . . .
59(4) . . .
45(4) . . .
41.7(35) . . .
44(4) . . .
51(4) . . .
49(4) . . .
50(4) . . .
50(4) . . .
52(4) . . .
51(4) . . .
55(4) . . .
49(4) . . .
48(4) . . .
55(4) . . .
49(4) . . .
45.9(35) . . .
50(4) . . .
54(4) . . .
50(4) . . .
51(4) . . .
49(4) . . .
50(4) . . .
52(4) . . .
54(4) . . .
64(4) . . .
55(4) . . .
51(4) . . .
59(4) . . .
63(4) . . .
44.9(34) . . .
50(4) . . .
46(4) . . .
53(4) . . .
42.2(34) . . .
53(4) . . .
58(4) . . .
64(4) . . .
50(4) . . .
62(4) . . .
60(4) . . .
58(4) . . .
63(4) . . .
55(4) . . .
51(4) . . .
43.6(35) . . .
41.6(33) . . .
50(4) . . .
57(4) . . .
54(4) . . .
54(4) . . .
57(4) . . .
49(4) . . .
49(4) . . .
45(4) . . .
43.7(35) . . .
56(4) . . .
50(4) . . .
47(4) . . .
49(4) . . .
61(4) . . .
55(4) . . .
43(4) . . .
46(4) . . .
47(4) . . .
53(4) . . .
52(4) . . .
49(4) . . .
58(4) . . .
48(4) . . .
44.6(34) . . .
56(4) . . .
48(4) . . .
42.4(33) . . .
55(4) . . .
52(4) . . .
50(4) . . .
59(4) . . .
49(4) . . .
46(4) . . .
49(4) . . .
50(4) . . .
51(4) . . .
47(4) . . .
63(4) . . .
57(4) . . .
50(4) . . .
50(4) . . .
41.0(33) . . .
53(4) . . .
55(4) . . .
52(4) . . .
53(4) . . .
44(4) . . .
57(4) . . .
65(4) . . .
57(4) . . .
52(4) . . .
54(4) . . .
49(4) . . .
50(4) . . .
60(4) . . .
50(4) . . .
50(4) . . .
54(4) . . .
44(4) . . .
51(4) . . .
51(4) . . .
52(4) . . .
60(4) . . .
49(4) . . .
52(4) . . .
46(4) . . .
48(4) . . .
52(4) . . .
50(4) . . .
54(4) . . .
49(4) . . .
49(4) . . .
48(4) . . .
50(4) . . .
53(4) . . .
49(4) . . .
48(4) . . .
49(4) . . .
45(4) . . .
60(4) . . .
46(4) . . .
49(4) . . .
49(4) . . .
52(4) . . .
51(4) . . .
54(4) . . .
52(4) . . .
56(4) . . .
51(4) . . .
49(4) . . .
53(4) . . .
40.7(33) . . .
52(4) . . .
48(4) . . .
45(4) . . .
48(4) . . .
40.7(33) . . .
40.0(33) . . .
41(4) . . .
49(4) . . .
59(4) . . .
53(4) . . .
53(4) . . .
53(4) . . .
48(4) . . .
41.3(34) . . .
52(4) . . .
45(4) . . .
50(4) . . .
53(4) . . .
52(4) . . .
49(4) . . .
50(4) . . .
66(4) . . .
54(4) . . .
50(4) . . .
61(4) . . .
52(4) . . .
48(4) . . .
55(4) . . .
51(4) . . .
48(4) . . .
52(4) . . .
56(4) . . .
56(4) . . .
53(4) . . .
51(4) . . .
43.8(35) . . .
53(4) . . .
60(4) . . .
46.1(35) . . .
48(4) . . .
56(4) . . .
51(4) . . .
43(4) . . .
44.4(35) . . .
44.1(35) . . .
49(4) . . .
53(4) . . .
55(4) . . .
42.7(34) . . .
54(4) . . .
51(4) . . .
56(4) . . .
46(4) . . .
55(4) . . .
69(4) . . .
49(4) . . .
55(4) . . .
60(4) . . .
48(4) . . .
46(4) . . .
47(4) . . .
39.7(35) . . .
54(4) . . .
48(4) . . .
52(4) . . .
47.2(35) . . .
47(4) . . .
52(4) . . .
49(4) . . .
44(4) . . .
53(4) . . .
48(4) . . .
50(4) . . .
44.5(34) . . .
55(4) . . .
53(4) . . .
47(4) . . .
62(4) . . .
54(4) . . .
48(4) . . .
44.8(35) . . .
48(4) . . .
49(4) . . .
48(4) . . .
51(4) . . .
56(4) . . .
45.2(35) . . .
52(4) . . .
48(4) . . .
52(4) . . .
48(4) . . .
48(4) . . .
50(4) . . .
47(4) . . .
55(4) . . .
55(4) . . .
55(4) . . .
52(4) . . .
46(4) . . .
46(4) . . .
58(4) . . .
47(4) . . .
50(4) . . .
59(4) . . .
50(4) . . .
57(4) . . .
55(4) . . .
50(4) . . .
48(4) . . .
49(4) . . .
61(4) . . .
50(4) . . .
51(4) . . .
64(4) . . .
54(4) . . .
41.1(35) . . .
55(4) . . .
41.7(34) . . .
56(4) . . .
52(4) . . .
49(4) . . .
45(4) . . .
55(4) . . .
48(4) . . .
51(4) . . .
56(4) . . .
56(4) . . .
43.8(34) . . .
50(4) . . .
60(4) . . .
51(4) . . .
47(4) . . .
48(4) . . .
47(4) . . .
41(4) . . .
55(4) . . .
58(4) . . .
53(4) . . .
59(4) . . .
43(4) . . .
43(4) . . .
39.8(34) . . .
55(4) . . .
49(4) . . .
52(4) . . .
62(4) . . .
54(4) . . .
62(4) . . .
51(4) . . .
62(4) . . .
58(4) . . .
42.6(33) . . .
52(4) . . .
50(4) . . .
49(4) . . .
51(4) . . .
41.0(33) . . .
48(4) . . .
57(4) . . .
49(4) . . .
45.2(35) . . .
40.7(33) . . .
47(4) . . .
54(4) . . .
44.9(35) . . .
64(4) . . .
50(4) . . .
51(4) . . .
43(4) . . .
50(4) . . .
48(4) . . .
57(4) . . .
55(4) . . .
55(4) . . .
56(4) . . .
45.4(35) . . .
44.5(35) . . .
49(4) . . .
42.9(35) . . .
53(4) . . .
52(4) . . .
48(4) . . .
55(4) . . .
54(4) . . .
53(4) . . .
61(4) . . .
57(4) . . .
49(4) . . .
55(4) . . .
42.3(35) . . .
49(4) . . .
42.7(34) . . .
47(4) . . .
51(4) . . .
51(4) . . .
45(4) . . .
52(4) . . .
49(4) . . .
46(4) . . .
57(4) . . .
61(4) . . .
47(4) . . .
47(4) . . .
53(4) . . .
49(4) . . .
58(4) . . .
51(4) . . .
51(4) . . .
43(4) . . .
53(4) . . .
53(4) . . .
56(4) . . .
52(4) . . .
50(4) . . .
47(4) . . .
55(4) . . .
46(4) . . .
47(4) . . .
39.1(33) . . .
47(4) . . .
47(4) . . .
44.3(34) . . .
53(4) . . .
46(4) . . .
53(4) . . .
47(4) . . .
45(4) . . .
48(4) . . .
55(4) . . .
48(4) . . .
47(4) . . .
40.8(34) . . .
47(4) . . .
56(4) . . .
49(4) . . .
58(4) . . .
46(4) . . .
59(4) . . .
58(4) . . .
44(4) . . .
51(4) . . .
49(4) . . .
42(4) . . .
35.4(31) . . .
49(4) . . .
51(4) . . .
48(4) . . .
44(4) . . .
49(4) . . .
48(4) . . .
53(4) . . .
49(4) . . .
50(4) . . .
55(4) . . .
47(4) . . .
39.7(33) . . .
54(4) . . .
50(4) . . .
57(4) . . .
48(4) . . .
41.7(34) . . .
44(4) . . .
51(4) . . .
48(4) . . .
46(4) . . .
63(4) . . .
59(4) . . .
53(4) . . .
39.5(33) . . .
47(4) . . .
61(4) . . .
56(4) . . .
54(4) . . .
51(4) . . .
50(4) . . .
53(4) . . .
49(4) . . .
51(4) . . .
54(4) . . .
54(4) . . .
49(4) . . .
50(4) . . .
51(4) . . .
45(4) . . .
49(4) . . .
43(4) . . .
48(4) . . .
39.8(35) . . .
45(4) . . .
50(4) . . .
58(4) . . .
48(4) . . .
46(4) . . .
50(4) . . .
49(4) . . .
54(4) . . .
42.9(35) . . .
41.2(34) . . .
53(4) . . .
54(4) . . .
49(4) . . .
55(4) . . .
40.5(35) . . .
44(4) . . .
46(4) . . .
48(4) . . .
56(4) . . .
52(4) . . .
55(4) . . .
49(4) . . .
42.6(34) . . .
52(4) . . .
50(4) . . .
53(4) . . .
44(4) . . .
50(4) . . .
50(4) . . .
52(4) . . .
48(4) . . .
46(4) . . .
43.1(35) . . .
55(4) . . .
46(4) . . .
52(4) . . .
49(4) . . .
50(4) . . .
42.8(34) . . .
50(4) . . .
53(4) . . .
58(4) . . .
53(4) . . .
58(4) . . .
47(4) . . .
49(4) . . .
45(4) . . .
47(4) . . .
47(4) . . .
52(4) . . .
55(4) . . .
54(4) . . .
50(4) . . .
59(4) . . .
51(4) . . .
65(4) . . .
54(4) . . .
49(4) . . .
52(4) . . .
45(4) . . .
56(4) . . .
47(4) . . .
50(4) . . .
59(4) . . .
53(4) . . .
53(4) . . .
56(4) . . .
55(4) . . .
48(4) . . .
52(4) . . .
61(4) . . .
57(4) . . .
55(4) . . .
50(4) . . .
49(4) . . .
47(4) . . .
61(4) . . .
47(4) . . .
47(4) . . .
49(4) . . .
40.1(33) . . .
40.7(34) . . .
48(4) . . .
46(4) . . .
45(4) . . .
56(4) . . .
50(4) . . .
51(4) . . .
48(4) . . .
55(4) . . .
49(4) . . .
47(4) . . .
36.9(32) . . .
56(4) . . .
51(4) . . .
51(4) . . .
51(4) . . .
46(4) . . .
55(4) . . .
49(4) . . .
57(4) . . .
56(4) . . .
54(4) . . .
50(4) . . .
52(4) . . .
40.1(33) . . .
38.0(34) . . .
43(4) . . .
49(4) . . .
49(4) . . .
38.8(33) . . .
45(4) . . .
55(4) . . .
62(4) . . .
49(4) . . .
53(4) . . .
42(4) . . .
52(4) . . .
54(4) . . .
45(4) . . .
41.5(34) . . .
50(4) . . .
63(4) . . .
52(4) . . .
53(4) . . .
51(4) . . .
52(4) . . .
50(4) . . .
46(4) . . .
46(4) . . .
48(4) . . .
44(4) . . .
44.8(35) . . .
47(4) . . .
50(4) . . .
43.2(33) . . .
49(4) . . .
65(4) . . .
43.3(34) . . .
49(4) . . .
44(4) . . .
44(4) . . .
46(4) . . .
48(4) . . .
47(4) . . .
50(4) . . .
56(4) . . .
49(4) . . .
47(4) . . .
53(4) . . .
51(4) . . .
58(4) . . .
54(4) . . .
59(4) . . .
56(4) . . .
45(4) . . .
50(4) . . .
42.8(34) . . .
52(4) . . .
58(4) . . .
49(4) . . .
56(4) . . .
52(4) . . .
48(4) . . .
49(4) . . .
51(4) . . .
50(4) . . .
48(4) . . .
50(4) . . .
49(4) . . .
46(4) . . .
54(4) . . .
57(4) . . .
45(4) . . .
51(4) . . .
53(4) . . .
44(4) . . .
54(4) . . .
50(4) . . .
48(4) . . .
51(4) . . .
49(4) . . .
40.2(33) . . .
53(4) . . .
56(4) . . .
47(4) . . .
49(4) . . .
48(4) . . .
46(4) . . .
50(4) . . .
44(4) . . .
45(4) . . .
58(4) . . .
40.6(34) . . .
49(4) . . .
52(4) . . .
52(4) . . .
45(4) . . .
46(4) . . .
41(4) . . .
51(4) . . .
48(4) . . .
52(4) . . .
47(4) . . .
45(4) . . .
51(4) . . .
52(4) . . .
53(4) . . .
50(4) . . .
47(4) . . .
50(4) . . .
49(4) . . .
51(4) . . .
45(4) . . .
50(4) . . .
52(4) . . .
54(4) . . .
49(4) . . .
52(4) . . .
56(4) . . .
52(4) . . .
45.7(35) . . .
49(4) . . .
46(4) . . .
45(4) . . .
46(4) . . .
46(4) . . .
46(4) . . .
46(4) . . .
49(4) . . .
49(4) . . .
57(4) . . .
54(4) . . .
43(4) . . .
52(4) . . .
48(4) . . .
40.4(33) . . .
47(4) . . .
59(4) . . .
52(4) . . .
46(4) . . .
49(4) . . .
52(4) . . .
47(4) . . .
41.0(34) . . .
49(4) . . .
50(4) . . .
51(4) . . .
58(4) . . .
47(4) . . .
50(4) . . .
40.8(33) . . .
51(4) . . .
44(4) . . .
56(4) . . .
52(4) . . .
52(4) . . .
55(4) . . .
45(4) . . .
52(4) . . .
59(4) . . .
54(4) . . .
58(4) . . .
41.0(33) . . .
45(4) . . .
48(4) . . .
47(4) . . .
48(4) . . .
48(4) . . .
50(4) . . .
44.8(35) . . .
51(4) . . .
50(4) . . .
51(4) . . .
48(4) . . .
53(4) . . .
54(4) . . .
41.5(34) . . .
48(4) . . .
51(4) . . .
49(4) . . .
43.5(35) . . .
45.0(35) . . .
52(4) . . .
56(4) . . .
44.5(35) . . .
42.5(34) . . .
41.5(34) . . .
36.8(32) . . .
45(4) . . .
57(4) . . .
52(4) . . .
47(4) . . .
45(4) . . .
52(4) . . .
44.1(35) . . .
51(4) . . .
53(4) . . .
47(4) . . .
46(4) . . .
48(4) . . .
42.4(34) . . .
44.5(34) . . .
56(4) . . .
47(4) . . .
40.5(33) . . .
36.5(32) . . .
46(4) . . .
46(4) . . .
44.1(34) . . .
49(4) . . .
57(4) . . .
41.5(35) . . .
45(4) . . .
46(4) . . .
55(4) . . .
50(4) . . .
43(4) . . .
50(4) . . .
58(4) . . .
49(4) . . .
48(4) . . .
44(4) . . .
54(4) . . .
48(4) . . .
53(4) . . .
53(4) . . .
46.3(35) . . .
49(4) . . .
64(4) . . .
50(4) . . .
58(4) . . .
46(4) . . .
38.8(33) . . .
48(4) . . .
54(4) . . .
56(4) . . .
47(4) . . .
49(4) . . .
51(4) . . .
51(4) . . .
49(4) . . .
48(4) . . .
52(4) . . .
53(4) . . .
57(4) . . .
51(4) . . .
44.6(35) . . .
48(4) . . .
48(4) . . .
51(4) . . .
52(4) . . .
54(4) . . .
47(4) . . .
61(4) . . .
48(4) . . .
54(4) . . .
40.0(33) . . .
45.6(35) . . .
38.7(33) . . .
49(4) . . .
53(4) . . .
48(4) . . .
47(4) . . .
54(4) . . .
54(4) . . .
55(4) . . .
55(4) . . .
56(4) . . .
57(4) . . .
51(4) . . .
45(4) . . .
58(4) . . .
52(4) . . .
52(4) . . .
56(4) . . .
50(4) . . .
48(4) . . .
53(4) . . .
49(4) . . .
48(4) . . .
52(4) . . .
57(4) . . .
47(4) . . .
47(4) . . .
44(4) . . .
47(4) . . .
51(4) . . .
53(4) . . .
48(4) . . .
46(4) . . .
36.7(32) . . .
42.0(34) . . .
52(4) . . .
52(4) . . .
49(4) . . .
47(4) . . .
42.7(34) . . .
50(4) . . .
48(4) . . .
53(4) . . .
51(4) . . .
42.2(34) . . .
52(4) . . .
56(4) . . .
49(4) . . .
52(4) . . .
53(4) . . .
49(4) . . .
51(4) . . .
55(4) . . .
56(4) . . .
41.5(34) . . .
48(4) . . .
48(4) . . .
46(4) . . .
40.0(34) . . .
64(4) . . .
48(4) . . .
50(4) . . .
43(4) . . .
39.5(35) . . .
43.2(34) . . .
56(4) . . .
40.5(35) . . .
53(4) . . .
50(4) . . .
53(4) . . .
50(4) . . .
47(4) . . .
49(4) . . .
43(4) . . .
45.0(35) . . .
50(4) . . .
50(4) . . .
46(4) . . .
49(4) . . .
44.9(35) . . .
49(4) . . .
54(4) . . .
53(4) . . .
62(4) . . .
47(4) . . .
45(4) . . .
50(4) . . .
41.8(34) . . .
46(4) . . .
41.7(33) . . .
48(4) . . .
47(4) . . .
51(4) . . .
49(4) . . .
48(4) . . .
51(4) . . .
37.3(31) . . .
44.1(35) . . .
53(4) . . .
60(4) . . .
51(4) . . .
50(4) . . .
42.0(35) . . .
45(4) . . .
37.6(31) . . .
47(4) . . .
48(4) . . .
46(4) . . .
48(4) . . .
39.5(32) . . .
48(4) . . .
48(4) . . .
49(4) . . .
49(4) . . .
39.3(32) . . .
44(4) . . .
51(4) . . .
51(4) . . .
44.6(34) . . .
47(4) . . .
44(4) . . .
49(4) . . .
55(4) . . .
43.2(34) . . .
50(4) . . .
61(4) . . .
58(4) . . .
48(4) . . .
51(4) . . .
44.3(34) . . .
48(4) . . .
43.1(35) . . .
42.2(34) . . .
64(4) . . .
50(4) . . .
47(4) . . .
35.3(33) . . .
38.0(32) . . .
47(4) . . .
49(4) . . .
52(4) . . .
51(4) . . .
56(4) . . .
51(4) . . .
51(4) . . .
48(4) . . .
46(4) . . .
48(4) . . .
46(4) . . .
50(4) . . .
51(4) . . .
46(4) . . .
52(4) . . .
59(4) . . .
49(4) . . .
37.9(32) . . .
64(4) . . .
52(4) . . .
46(4) . . .
49(4) . . .
54(4) . . .
49(4) . . .
53(4) . . .
49(4) . . .
48(4) . . .
46(4) . . .
52(4) . . .
50(4) . . .
40.4(33) . . .
50(4) . . .
44(4) . . .
43(4) . . .
51(4) . . .
43(4) . . .
47(4) . . .
54(4) . . .
48(4) . . .
55(4) . . .
47(4) . . .
50(4) . . .
46(4) . . .
48(4) . . .
57(4) . . .
50(4) . . .
47(4) . . .
51(4) . . .
56(4) . . .
47(4) . . .
49(4) . . .
54(4) . . .
55(4) . . .
46(4) . . .
43.5(35) . . .
51(4) . . .
47(4) . . .
50(4) . . .
53(4) . . .
44.7(35) . . .
40(4) . . .
45(4) . . .
51(4) . . .
43.1(34) . . .
47(4) . . .
46(4) . . .
57(4) . . .
52(4) . . .
51(4) . . .
60(4) . . .
47(4) . . .
47(4) . . .
47(4) . . .
52(4) . . .
49(4) . . .
50(4) . . .
48(4) . . .
41.2(35) . . .
48(4) . . .
51(4) . . .
45(4) . . .
49(4) . . .
42(4) . . .
55(4) . . .
54(4) . . .
52(4) . . .
43(4) . . .
51(4) . . .
47(4) . . .
41.8(33) . . .
52(4) . . .
48(4) . . .
40.6(34) . . .
49(4) . . .
40.8(34) . . .
47(4) . . .
45(4) . . .
50(4) . . .
53(4) . . .
47(4) . . .
53(4) . . .
48(4) . . .
41.4(34) . . .
55(4) . . .
48(4) . . .
48(4) . . .
46(4) . . .
51(4) . . .
49(4) . . .
51(4) . . .
55(4) . . .
51(4) . . .
50(4) . . .
43.7(35) . . .
56(4) . . .
38.1(34) . . .
44(4) . . .
62(4) . . .
55(4) . . .
44(4) . . .
52(4) . . .
51(4) . . .
58(4) . . .
41.5(33) . . .
48(4) . . .
55(4) . . .
51(4) . . .
45(4) . . .
40.6(33) . . .
44(4) . . .
46(4) . . .
56(4) . . .
57(4) . . .
45(4) . . .
50(4) . . .
53(4) . . .
45.3(35) . . .
48(4) . . .
43(4) . . .
49(4) . . .
40.4(34) . . .
54(4) . . .
55(4) . . .
53(4) . . .
42.4(35) . . .
54(4) . . .
45(4) . . .
42.8(34) . . .
50(4) . . .
51(4) . . .
52(4) . . .
39.6(33) . . .
45.4(35) . . .
49(4) . . .
52(4) . . .
50(4) . . .
53(4) . . .
42.2(34) . . .
43(4) . . .
43.5(35) . . .
45(4) . . .
48(4) . . .
47(4) . . .
54(4) . . .
53(4) . . .
56(4) . . .
48(4) . . .
35.8(32) . . .
49(4) . . .
48(4) . . .
37.0(33) . . .
47(4) . . .
43.9(34) . . .
47(4) . . .
47(4) . . .
50(4) . . .
49(4) . . .
47(4) . . .
49(4) . . .
48(4) . . .
53(4) . . .
48(4) . . .
51(4) . . .
53(4) . . .
43(4) . . .
48(4) . . .
52(4) . . .
56(4) . . .
48(4) . . .
46(4) . . .
51(4) . . .
45.4(35) . . .
54(4) . . .
47(4) . . .
41.4(34) . . .
51(4) . . .
52(4) . . .
37.1(33) . . .
46(4) . . .
48(4) . . .
45(4) . . .
38.2(32) . . .
46(4) . . .
42(4) . . .
44(4) . . .
54(4) . . .
49(4) . . .
49(4) . . .
46(4) . . .
60(4) . . .
42.9(34) . . .
45(4) . . .
52(4) . . .
49(4) . . .
50(4) . . .
49(4) . . .
56(4) . . .
54(4) . . .
53(4) . . .
46(4) . . .
41.3(33) . . .
46(4) . . .
53(4) . . .
56(4) . . .
49(4) . . .
53(4) . . .
47(4) . . .
41.9(34) . . .
48(4) . . .
48(4) . . .
45.3(35) . . .
53(4) . . .
47(4) . . .
46(4) . . .
45(4) . . .
49(4) . . .
52(4) . . .
54(4) . . .
49(4) . . .
40.9(33) . . .
52(4) . . .
42.4(34) . . .
48(4) . . .
47(4) . . .
52(4) . . .
57(4) . . .
57(4) . . .
52(4) . . .
39.0(33) . . .
42.9(34) . . .
43.9(35) . . .
51(4) . . .
55(4) . . .
53(4) . . .
38.6(33) . . .
47(4) . . .
49(4) . . .
53(4) . . .
46(4) . . .
36.6(32) . . .
50(4) . . .
52(4) . . .
47(4) . . .
43.7(34) . . .
47(4) . . .
56(4) . . .
45(4) . . .
45(4) . . .
48(4) . . .
50(4) . . .
52(4) . . .
46(4) . . .
44(4) . . .
48(4) . . .
50(4) . . .
48(4) . . .
44.3(34) . . .
52(4) . . .
52(4) . . .
59(4) . . .
55(4) . . .
49(4) . . .
41.7(34) . . .
55(4) . . .
50(4) . . .
46(4) . . .
47(4) . . .
44.7(34) . . .
61(4) . . .
49(4) . . .
45(4) . . .
45(4) . . .
50(4) . . .
43.9(35) . . .
44.0(35) . . .
61(4) . . .
54(4) . . .
51(4) . . .
50(4) . . .
43.4(35) . . .
45(4) . . .
46(4) . . .
55(4) . . .
43.4(35) . . .
49(4) . . .
45(4) . . .
40.0(33) . . .
44(4) . . .
52(4) . . .
47(4) . . .
47(4) . . .
52(4) . . .
50(4) . . .
49(4) . . .
55(4) . . .
60(4) . . .
39.4(34) . . .
41.7(34) . . .
52(4) . . .
55(4) . . .
47(4) . . .
51(4) . . .
47(4) . . .
54(4) . . .
47(4) . . .
36.5(30) . . .
43(4) . . .
53(4) . . .
50(4) . . .
51(4) . . .
40.3(33) . . .
51(4) . . .
46.5(35) . . .
52(4) . . .
52(4) . . .
49(4) . . .
41.0(34) . . .
60(4) . . .
44.9(35) . . .
40.5(33) . . .
43.0(34) . . .
50(4) . . .
45(4) . . .
53(4) . . .
51(4) . . .
45(4) . . .
52(4) . . .
48(4) . . .
46(4) . . .
46.9(35) . . .
53(4) . . .
59(4) . . .
50(4) . . .
43.1(34) . . .
50(4) . . .
47(4) . . .
48(4) . . .
48(4) . . .
36.0(31) . . .
47(4) . . .
43(4) . . .
46(4) . . .
51(4) . . .
50(4) . . .
58(4) . . .
51(4) . . .
46(4) . . .
45(4) . . .
44.4(35) . . .
44.3(35) . . .
52(4) . . .
42.2(35) . . .
41.7(33) . . .
40.8(33) . . .
47(4) . . .
46(4) . . .
54(4) . . .
40.7(33) . . .
48(4) . . .
44(4) . . .
45(4) . . .
51(4) . . .
41.8(34) . . .
40.3(34) . . .
44(4) . . .
48(4) . . .
46(4) . . .
56(4) . . .
47(4) . . .
45(4) . . .
51(4) . . .
46(4) . . .
51(4) . . .
43.6(35) . . .
50(4) . . .
52(4) . . .
51(4) . . .
58(4) . . .
48(4) . . .
48(4) . . .
50(4) . . .
54(4) . . .
50(4) . . .
47(4) . . .
52(4) . . .
58(4) . . .
49(4) . . .
52(4) . . .
54(4) . . .
44(4) . . .
55(4) . . .
49(4) . . .
52(4) . . .
43.1(35) . . .
49(4) . . .
50(4) . . .
52(4) . . .
44(4) . . .
55(4) . . .
56(4) . . .
47(4) . . .
53(4) . . .
52(4) . . .
47(4) . . .
54(4) . . .
50(4) . . .
41.5(34) . . .
50(4) . . .
49(4) . . .
47(4) . . .
54(4) . . .
48(4) . . .
44(4) . . .
42(4) . . .
44(4) . . .
49(4) . . .
45(4) . . .
46(4) . . .
48(4) . . .
43(4) . . .
40.2(34) . . .
45.2(34) . . .
46(4) . . .
48(4) . . .
48(4) . . .
51(4) . . .
47(4) . . .
45(4) . . .
48(4) . . .
45(4) . . .
49(4) . . .
57(4) . . .
47(4) . . .
54(4) . . .
45(4) . . .
42.5(33) . . .
55(4) . . .
46(4) . . .
53(4) . . .
63(4) . . .
49(4) . . .
48(4) . . .
50(4) . . .
50(4) . . .
52(4) . . .
45(4) . . .
56(4) . . .
36.8(32) . . .
43.0(34) . . .
45(4) . . .
39.9(34) . . .
44(4) . . .
53(4) . . .
42(4) . . .
45(4) . . .
48(4) . . .
51(4) . . .
50(4) . . .
46(4) . . .
52(4) . . .
49(4) . . .
50(4) . . .
46.5(35) . . .
52(4) . . .
40.4(35) . . .
41.2(34) . . .
47(4) . . .
54(4) . . .
50(4) . . .
35.5(32) . . .
44.6(35) . . .
41.0(33) . . .
55(4) . . .
44(4) . . .
53(4) . . .
54(4) . . .
51(4) . . .
53(4) . . .
47(4) . . .
40.7(34) . . .
38.6(32) . . .
39.7(33) . . .
46(4) . . .
55(4) . . .
47(4) . . .
49(4) . . .
50(4) . . .
51(4) . . .
47(4) . . .
46(4) . . .
54(4) . . .
40.1(33) . . .
43(4) . . .
44(4) . . .
41.2(34) . . .
55(4) . . .
48(4) . . .
52(4) . . .
56(4) . . .
52(4) . . .
53(4) . . .
45(4) . . .
44(4) . . .
49(4) . . .
49(4) . . .
48(4) . . .
45(4) . . .
49(4) . . .
49(4) . . .
48(4) . . .
45(4) . . .
45(4) . . .
42(4) . . .
41(4) . . .
44.9(35) . . .
48(4) . . .
35.9(32) . . .
35.6(34) . . .
42(4) . . .
46(4) . . .
60(4) . . .
45.1(34) . . .
59(4) . . .
43.1(34) . . .
58(4) . . .
54(4) . . .
52(4) . . .
52(4) . . .
40.9(33) . . .
50(4) . . .
51(4) . . .
40.3(33) . . .
43.2(34) . . .
42.2(35) . . .
49(4) . . .
46(4) . . .
37.5(33) . . .
45(4) . . .
40.0(33) . . .
50(4) . . .
52(4) . . .
42(4) . . .
48(4) . . .
49(4) . . .
49(4) . . .
51(4) . . .
45(4) . . .
39(4) . . .
45(4) . . .
45.0(35) . . .
38.8(34) . . .
52(4) . . .
53(4) . . .
51(4) . . .
48(4) . . .
44.7(35) . . .
52(4) . . .
46(4) . . .
44.9(35) . . .
44(4) . . .
44(4) . . .
40(4) . . .
48(4) . . .
46.1(35) . . .
46(4) . . .
44(4) . . .
55(4) . . .
49(4) . . .
46.9(35) . . .
54(4) . . .
60(4) . . .
49(4) . . .
41.4(34) . . .
45.3(35) . . .
48(4) . . .
48(4) . . .
45(4) . . .
56(4) . . .
54(4) . . .
43.2(34) . . .
62(4) . . .
43(4) . . .
66(4) . . .
53(4) . . .
48(4) . . .
45(4) . . .
55(4) . . .
48(4) . . .
39.2(33) . . .
39(4) . . .
55(4) . . .
47(4) . . .
50(4) . . .
55(4) . . .
46(4) . . .
44(4) . . .
44(4) . . .
41.5(34) . . .
45.9(35) . . .
54(4) . . .
47(4) . . .
45(4) . . .
53(4) . . .
52(4) . . .
43.5(35) . . .
45(4) . . .
53(4) . . .
50(4) . . .
39.7(33) . . .
43.7(35) . . .
45(4) . . .
46(4) . . .
51(4) . . .
46(4) . . .
49(4) . . .
48(4) . . .
44(4) . . .
53(4) . . .
40.3(34) . . .
48(4) . . .
50(4) . . .
47(4) . . .
52(4) . . .
44(4) . . .
56(4) . . .
47(4) . . .
48(4) . . .
52(4) . . .
50(4) . . .
36.7(33) . . .
36.5(33) . . .
50(4) . . .
46(4) . . .
44(4) . . .
41(4) . . .
43(4) . . .
43.8(35) . . .
47(4) . . .
39.3(35) . . .
42.8(35) . . .
41.2(34) . . .
48(4) . . .
58(4) . . .
51(4) . . .
58(4) . . .
52(4) . . .
43.4(34) . . .
38.4(32) . . .
44(4) . . .
50(4) . . .
42.4(35) . . .
48(4) . . .
48(4) . . .
52(4) . . .
41.0(35) . . .
47(4) . . .
52(4) . . .
45(4) . . .
50(4) . . .
44(4) . . .
39.1(34) . . .
50(4) . . .
42.4(34) . . .
51(4) . . .
48(4) . . .
44(4) . . .
48(4) . . .
40.5(33) . . .
51(4) . . .
43(4) . . .
52(4) . . .
53(4) . . .
46(4) . . .
50(4) . . .
43.5(35) . . .
48(4) . . .
37.9(32) . . .
42.2(34) . . .
51(4) . . .
31.9(31) . . .
43(4) . . .
41.2(33) . . .
51(4) . . .
48(4) . . .
44(4) . . .
48(4) . . .
39.5(33) . . .
45(4) . . .
45(4) . . .
52(4) . . .
51(4) . . .
53(4) . . .
48(4) . . .
49(4) . . .
57(4) . . .
42.8(34) . . .
37.8(33) . . .
47(4) . . .
48(4) . . .
49(4) . . .
49(4) . . .
44.3(35) . . .
37.3(32) . . .
42(4) . . .
52(4) . . .
47(4) . . .
47(4) . . .
47(4) . . .
53(4) . . .
37.1(33) . . .
38.6(33) . . .
44(4) . . .
53(4) . . .
41.0(34) . . .
45(4) . . .
42.2(34) . . .
47(4) . . .
45(4) . . .
45(4) . . .
36.3(32) . . .
51(4) . . .
45(4) . . .
43(4) . . .
43.1(35) . . .
38.9(33) . . .
48(4) . . .
51(4) . . .
47(4) . . .
50(4) . . .
56(4) . . .
52(4) . . .
52(4) . . .
46(4) . . .
47(4) . . .
55(4) . . .
44(4) . . .
46(4) . . .
48(4) . . .
48(4) . . .
42.9(35) . . .
45.4(35) . . .
42(4) . . .
35.6(33) . . .
48(4) . . .
47(4) . . .
37.0(32) . . .
43(4) . . .
44(4) . . .
48(4) . . .
46(4) . . .
44.4(34) . . .
46(4) . . .
51(4) . . .
43(4) . . .
41.5(34) . . .
49(4) . . .
44(4) . . .
47(4) . . .
41(4) . . .
50(4) . . .
58(4) . . .
59(4) . . .
50(4) . . .
47(4) . . .
46(4) . . .
56(4) . . .
44.2(35) . . .
42.4(35) . . .
51(4) . . .
47(4) . . .
45.2(34) . . .
54(4) . . .
47(4) . . .
50(4) . . .
46(4) . . .
43.5(35) . . .
47(4) . . .
47(4) . . .
41.2(34) . . .
43.2(34) . . .
48(4) . . .
56(4) . . .
50(4) . . .
42.2(35) . . .
40.9(34) . . .
41.3(34) . . .
41(4) . . .
47(4) . . .
44(4) . . .
36.5(31) . . .
43(4) . . .
55(4) . . .
47(4) . . .
51(4) . . .
52(4) . . .
51(4) . . .
48(4) . . .
47(4) . . .
44.4(34) . . .
52(4) . . .
49(4) . . .
56(4) . . .
39.9(34) . . .
48(4) . . .
41.8(35) . . .
48(4) . . .
44(4) . . .
44.0(35) . . .
46(4) . . .
47(4) . . .
56(4) . . .
48(4) . . .
41.5(33) . . .
47(4) . . .
49(4) . . .
55(4) . . .
46(4) . . .
51(4) . . .
48(4) . . .
44.8(35) . . .
47(4) . . .
49(4) . . .
51(4) . . .
47(4) . . .
47(4) . . .
45.6(35) . . .
50(4) . . .
51(4) . . .
45(4) . . .
45(4) . . .
39.5(34) . . .
57(4) . . .
46(4) . . .
38.5(32) . . .
39.4(34) . . .
40(4) . . .
43(4) . . .
34.7(31) . . .
50(4) . . .
40.9(34) . . .
54(4) . . .
39.5(33) . . .
40(4) . . .
48(4) . . .
42(4) . . .
38.5(34) . . .
55(4) . . .
49(4) . . .
53(4) . . .
43(4) . . .
45(4) . . .
46(4) . . .
52(4) . . .
49(4) . . .
51(4) . . .
50(4) . . .
55(4) . . .
50(4) . . .
51(4) . . .
43.8(35) . . .
45(4) . . .
52(4) . . .
43.2(34) . . .
49(4) . . .
36.5(33) . . .
45(4) . . .
50(4) . . .
37.1(32) . . .
49(4) . . .
40.2(34) . . .
46(4) . . .
43.5(35) . . .
50(4) . . .
51(4) . . .
44(4) . . .
41.2(34) . . .
50(4) . . .
54(4) . . .
49(4) . . .
51(4) . . .
52(4) . . .
38.4(33) . . .
46(4) . . .
49(4) . . .
51(4) . . .
43(4) . . .
49(4) . . .
52(4) . . .
46(4) . . .
46(4) . . .
43(4) . . .
45.8(35) . . .
47(4) . . .
46(4) . . .
50(4) . . .
40.5(34) . . .
50(4) . . .
48(4) . . .
43(4) . . .
37.0(34) . . .
43.5(34) . . .
50(4) . . .
54(4) . . .
49(4) . . .
43(4) . . .
43(4) . . .
54(4) . . .
53(4) . . .
43(4) . . .
44(4) . . .
46(4) . . .
53(4) . . .
57(4) . . .
53(4) . . .
44(4) . . .
42.6(34) . . .
53(4) . . .
43.5(35) . . .
49(4) . . .
46(4) . . .
46(4) . . .
38.4(32) . . .
53(4) . . .
47(4) . . .
37.2(34) . . .
44(4) . . .
45.5(35) . . .
57(4) . . .
47(4) . . .
38.2(33) . . .
42(4) . . .
51(4) . . .
43(4) . . .
43.2(35) . . .
50(4) . . .
49(4) . . .
48(4) . . .
47(4) . . .
51(4) . . .
47(4) . . .
47(4) . . .
39.2(33) . . .
64(4) . . .
61(4) . . .
53(4) . . .
38.9(33) . . .
35.8(33) . . .
48(4) . . .
50(4) . . .
41.5(35) . . .
46(4) . . .
58(4) . . .
53(4) . . .
46(4) . . .
51(4) . . .
50(4) . . .
39.5(33) . . .
40.5(33) . . .
44(4) . . .
47(4) . . .
52(4) . . .
42.1(34) . . .
47(4) . . .
38.7(34) . . .
38.9(34) . . .
58(4) . . .
47(4) . . .
35.6(31) . . .
48(4) . . .
49(4) . . .
46(4) . . .
39.0(33) . . .
52(4) . . .
51(4) . . .
47(4) . . .
49(4) . . .
46(4) . . .
46(4) . . .
52(4) . . .
43(4) . . .
47(4) . . .
40.2(33) . . .
46(4) . . .
48(4) . . .
45(4) . . .
40.8(33) . . .
41.2(35) . . .
45(4) . . .
41.6(33) . . .
38.0(31) . . .
43.1(34) . . .
41(4) . . .
47(4) . . .
42.3(35) . . .
43.4(34) . . .
52(4) . . .
45(4) . . .
35.6(32) . . .
43(4) . . .
43.8(35) . . .
48(4) . . .
44(4) . . .
48(4) . . .
42.7(34) . . .
49(4) . . .
56(4) . . .
47(4) . . .
50(4) . . .
50(4) . . .
50(4) . . .
46.0(35) . . .
42.0(34) . . .
48(4) . . .
56(4) . . .
51(4) . . .
36.8(32) . . .
41.8(34) . . .
41.6(34) . . .
44(4) . . .
42.3(34) . . .
52(4) . . .
57(4) . . .
41.3(34) . . .
46(4) . . .
54(4) . . .
47(4) . . .
49(4) . . .
35.5(33) . . .
52(4) . . .
50(4) . . .
40.5(33) . . .
52(4) . . .
47(4) . . .
47(4) . . .
46(4) . . .
43.1(34) . . .
48(4) . . .
44(4) . . .
50(4) . . .
47(4) . . .
38.5(32) . . .
41(4) . . .
33.6(33) . . .
40.5(34) . . .
45.2(35) . . .
48(4) . . .
41(4) . . .
44(4) . . .
53(4) . . .
52(4) . . .
48(4) . . .
44(4) . . .
40(4) . . .
33.5(30) . . .
48(4) . . .
40.9(35) . . .
39.6(35) . . .
40.2(35) . . .
45(4) . . .
53(4) . . .
42(4) . . .
50(4) . . .
52(4) . . .
51(4) . . .
40.5(34) . . .
48(4) . . .
61(5) . . .
44(4) . . .
43.3(34) . . .
50(4) . . .
55(4) . . .
51(4) . . .
49(4) . . .
43(4) . . .
50(4) . . .
42(4) . . .
46(4) . . .
49(4) . . .
53(4) . . .
35.2(31) . . .
42(4) . . .
39.5(33) . . .
50(4) . . .
44.3(35) . . .
56(4) . . .
50(4) . . .
42.8(35) . . .
51(4) . . .
46(4) . . .
54(4) . . .
50(4) . . .
43.0(34) . . .
47(4) . . .
42.2(34) . . .
35.0(31) . . .
46(4) . . .
44(4) . . .
48(4) . . .
38.3(33) . . .
44(4) . . .
48(4) . . .
48(4) . . .
48(4) . . .
42.8(34) . . .
54(4) . . .
48(4) . . .
43.2(35) . . .
47(4) . . .
48(4) . . .
54(4) . . .
53(4) . . .
50(4) . . .
46(4) . . .
41.7(33) . . .
47(4) . . .
54(4) . . .
43(4) . . .
46(4) . . .
47(4) . . .
46(4) . . .
51(4) . . .
55(4) . . .
41.3(34) . . .
53(4) . . .
39.6(34) . . .
46(4) . . .
44(4) . . .
46(4) . . .
46(4) . . .
51(4) . . .
41.7(34) . . .
48(4) . . .
47(4) . . .
48(4) . . .
43(4) . . .
36.2(32) . . .
37.7(32) . . .
44.3(34) . . .
40.8(34) . . .
43(4) . . .
42(4) . . .
39.7(34) . . .
43.8(34) . . .
55(4) . . .
49(4) . . .
38.4(32) . . .
38.2(33) . . .
39.5(33) . . .
43(4) . . .
41(4) . . .
47(4) . . .
46(4) . . .
38.6(32) . . .
44.2(35) . . .
47(4) . . .
44(4) . . .
49(4) . . .
42.9(34) . . .
41.9(34) . . .
39.7(35) . . .
39.9(34) . . .
54(4) . . .
37.4(31) . . .
47(4) . . .
42(4) . . .
43(4) . . .
45(4) . . .
37.7(33) . . .
48(4) . . .
42.7(34) . . .
49(4) . . .
51(4) . . .
50(4) . . .
48(4) . . .
43(4) . . .
56(4) . . .
47(4) . . .
55(4) . . .
47(4) . . .
54(4) . . .
48(4) . . .
42.5(34) . . .
49(4) . . .
54(4) . . .
49(4) . . .
46(4) . . .
39.8(33) . . .
43(4) . . .
43.8(35) . . .
45(4) . . .
41.5(34) . . .
45.0(34) . . .
45(4) . . .
47(4) . . .
54(4) . . .
54(4) . . .
47(4) . . .
52(4) . . .
42.8(35) . . .
51(4) . . .
51(4) . . .
37.2(32) . . .
43(4) . . .
41(4) . . .
45(4) . . .
40.3(33) . . .
35.1(31) . . .
45(4) . . .
40.3(34) . . .
45(4) . . .
41.4(34) . . .
45.4(35) . . .
42(4) . . .
40(4) . . .
38.0(33) . . .
57(4) . . .
39.3(33) . . .
44(4) . . .
45(4) . . .
37.8(33) . . .
44(4) . . .
46(4) . . .
47(4) . . .
50(4) . . .
37.7(32) . . .
39.2(33) . . .
43(4) . . .
44(4) . . .
44(4) . . .
46(4) . . .
45.1(35) . . .
45(4) . . .
53(4) . . .
39.9(34) . . .
39.6(33) . . .
43.9(34) . . .
50(4) . . .
38.7(35) . . .
40.9(34) . . .
48(4) . . .
46(4) . . .
38.5(34) . . .
39(4) . . .
39.3(32) . . .
42.2(34) . . .
43.7(34) . . .
43(4) . . .
42(4) . . .
38.6(33) . . .
38.6(34) . . .
46.3(35) . . .
42(4) . . .
51(4) . . .
44(4) . . .
35.8(31) . . .
40.7(33) . . .
56(4) . . .
55(4) . . .
46(4) . . .
51(4) . . .
50(4) . . .
43.7(34) . . .
51(4) . . .
43(4) . . .
52(4) . . .
45(4) . . .
53(4) . . .
51(4) . . .
44(4) . . .
47(4) . . .
49(4) . . .
37.0(31) . . .
40.1(35) . . .
45(4) . . .
44(4) . . .
41.7(34) . . .
49(4) . . .
51(4) . . .
46(4) . . .
39.7(33) . . .
51(4) . . .
45(4) . . .
38.6(33) . . .
52(4) . . .
43.1(35) . . .
47(4) . . .
44.2(35) . . .
35.9(33) . . .
39(4) . . .
47(4) . . .
48(4) . . .
46(4) . . .
43.5(35) . . .
48(4) . . .
51(4) . . .
35.2(31) . . .
46(4) . . .
46(4) . . .
46(4) . . .
42.6(34) . . .
46(4) . . .
49(4) . . .
35.0(30) . . .
41.9(33) . . .
46(4) . . .
47(4) . . .
53(4) . . .
51(4) . . .
43.0(34) . . .
44.0(35) . . .
39.3(34) . . .
36.1(34) . . .
40(4) . . .
46(4) . . .
43(4) . . .
58(4) . . .
46(4) . . .
42(4) . . .
40.6(34) . . .
42.3(33) . . .
43(4) . . .
40.9(34) . . .
36.5(32) . . .
48(4) . . .
45(4) . . .
36.2(31) . . .
47(4) . . .
45(4) . . .
40.5(33) . . .
47(4) . . .
46(4) . . .
41.8(35) . . .
51(4) . . .
38.1(32) . . .
48(4) . . .
49(4) . . .
52(4) . . .
46(4) . . .
32.8(30) . . .
34.7(32) . . .
34.8(32) . . .
43(4) . . .
49(4) . . .
40.9(33) . . .
36.7(32) . . .
37.6(33) . . .
34.9(31) . . .
45.0(35) . . .
36.7(31) . . .
39.2(34) . . .
44(4) . . .
41.1(35) . . .
36.5(32) . . .
42.5(33) . . .
45.9(35) . . .
43(4) . . .
36.7(32) . . .
44.0(35) . . .
45(4) . . .
43.3(35) . . .
47(4) . . .
40.2(33) . . .
37.4(32) . . .
33.8(30) . . .
50(4) . . .
48(4) . . .
50(4) . . .
24.9(26) . . .
37.6(32) . . .
38.7(34) . . .
44(4) . . .
47(4) . . .
46(4) . . .
55(4) . . .
41.7(34) . . .
48(4) . . .
50(4) . . .
49(4) . . .
46(4) . . .
46(4) . . .
40.8(34) . . .
47(4) . . .
39.0(33) . . .
39.8(33) . . .
36.3(32) . . .
43(4) . . .
39.0(34) . . .
33.9(31) . . .
40.7(34) . . .
36.4(31) . . .
39.1(34) . . .
40.7(34) . . .
39.8(33) . . .
32.6(30) . . .
47(4) . . .
52(4) . . .
40.3(34) . . .
50(4) . . .
43.5(35) . . .
39.2(33) . . .
34.9(31) . . .
36.7(31) . . .
36.7(32) . . .
28.7(29) . . .
38.6(35) . . .
43.3(34) . . .
41.1(34) . . .
45(4) . . .
47(4) . . .
44(4) . . .
39(4) . . .
41.8(33) . . .
40.6(33) . . .
50(4) . . .
37.5(32) . . .
39.1(34) . . .
40.3(33) . . .
37.2(33) . . .
48(4) . . .
44(4) . . .
46(4) . . .
40.7(33) . . .
41(4) . . .
40.3(34) . . .
45(4) . . .
25.6(27) . . .
41.0(33) . . .
41.0(33) . . .
43(4) . . .
43(4) . . .
47(4) . . .
43.9(34) . . .
49(4) . . .
42.0(34) . . .
50(4) . . .
48(4) . . .
47(4) . . .
52(4) . . .
57(4) . . .
45(4) . . .
44.8(35) . . .
58(4) . . .
43.5(35) . . .
48(4) . . .
48(4) . . .
38.7(32) . . .
45(4) . . .
38.1(34) . . .
47(4) . . .
46(4) . . .
38.8(33) . . .
49(4) . . .
48(4) . . .
47(4) . . .
36.3(32) . . .
29.0(28) . . .
45.3(34) . . .
43(4) . . .
44(4) . . .
49(4) . . .
39.2(33) . . .
39.7(33) . . .
49(4) . . .
38.0(33) . . .
46(4) . . .
52(4) . . .
49(4) . . .
36.1(31) . . .
49(4) . . .
47(4) . . .
33.6(30) . . .
44(4) . . .
49(4) . . .
43(4) . . .
46(4) . . .
40.4(34) . . .
45.1(34) . . .
50(4) . . .
44(4) . . .
49(4) . . .
37.4(32) . . .
46(4) . . .
42(4) . . .
49(4) . . .
41.9(34) . . .
45(4) . . .
44.8(35) . . .
47(4) . . .
37.1(33) . . .
45(4) . . .
44.1(35) . . .
41.3(34) . . .
44.0(33) . . .
52(4) . . .
44.3(34) . . .
54(4) . . .
47(4) . . .
46(4) . . .
43(4) . . .
57(4) . . .
30.4(29) . . .
50(4) . . .
54(4) . . .
45(4) . . .
42.7(35) . . .
45.8(35) . . .
46(4) . . .
43(4) . . .
47(4) . . .
43.1(35) . . .
42.7(34) . . .
48(4) . . .
39.3(35) . . .
44(4) . . .
39.1(32) . . .
47(4) . . .
45(4) . . .
50(4) . . .
49(4) . . .
42.3(34) . . .
39.4(33) . . .
42.9(34) . . .
45(4) . . .
39.0(33) . . .
35.6(31) . . .
41.7(34) . . .
42(4) . . .
36.9(34) . . .
44(4) . . .
42.2(34) . . .
39.7(33) . . .
34.9(32) . . .
45(4) . . .
43.7(35) . . .
48(4) . . .
50(4) . . .
44(4) . . .
40(4) . . .
37.2(34) . . .
44.2(34) . . .
50(4) . . .
51(4) . . .
35.9(33) . . .
37.1(32) . . .
40.4(33) . . .
51(4) . . .
44(4) . . .
46(4) . . .
55(4) . . .
46(4) . . .
54(4) . . .
45(4) . . .
47(4) . . .
51(4) . . .
51(4) . . .
42.0(34) . . .
43(4) . . .
42.3(35) . . .
38.9(33) . . .
38.1(32) . . .
45(4) . . .
32.8(31) . . .
42.5(35) . . .
40.3(33) . . .
48(4) . . .
42.8(35) . . .
43.6(33) . . .
46(4) . . .
48(4) . . .
43.4(34) . . .
49(4) . . .
41.3(35) . . .
44(4) . . .
42.3(34) . . .
48(4) . . .
49(4) . . .
44(4) . . .
39.3(35) . . .
46(4) . . .
44.4(35) . . .
39.4(33) . . .
38.4(33) . . .
39.0(34) . . .
48(4) . . .
50(4) . . .
47(4) . . .
44(4) . . .
41.8(34) . . .
44.5(34) . . .
46(4) . . .
47(4) . . .
53(4) . . .
46(4) . . .
43.4(34) . . .
54(4) . . .
43(4) . . .
48(4) . . .
36.2(32) . . .
39.8(33) . . .
47(4) . . .
49(4) . . .
49(4) . . .
51(4) . . .
57(4) . . .
43.7(34) . . .
51(4) . . .
43.0(34) . . .
35.9(31) . . .
41.3(33) . . .
44(4) . . .
43(4) . . .
46(4) . . .
37.4(33) . . .
39.5(33) . . .
47(4) . . .
42(4) . . .
39.7(34) . . .
46(4) . . .
49(4) . . .
37.2(33) . . .
43(4) . . .
41.0(34) . . .
43.7(34) . . .
40.4(35) . . .
37.8(33) . . .
46(4) . . .
48(4) . . .
47(4) . . .
50(4) . . .
50(4) . . .
37.5(32) . . .
40.3(34) . . .
44.6(35) . . .
45(4) . . .
40.7(33) . . .
44(4) . . .
42.9(35) . . .
42.9(34) . . .
46(4) . . .
33.8(30) . . .
42.8(35) . . .
42.3(34) . . .
45.5(35) . . .
44.6(35) . . .
50(4) . . .
50(4) . . .
49(4) . . .
46(4) . . .
43.3(34) . . .
44(4) . . .
49(4) . . .
42.6(33) . . .
42.8(35) . . .
50(4) . . .
45(4) . . .
36.1(31) . . .
45.0(35) . . .
48(4) . . .
45(4) . . .
42(4) . . .
38.7(31) . . .
49(4) . . .
47(4) . . .
43(4) . . .
50(4) . . .
48(4) . . .
40.5(33) . . .
53(4) . . .
41.6(34) . . .
43(4) . . .
38.6(32) . . .
44.6(35) . . .
44(4) . . .
46(4) . . .
43(4) . . .
46(4) . . .
42.0(34) . . .
47(4) . . .
47(4) . . .
52(4) . . .
48(4) . . .
41.8(34) . . .
38.3(32) . . .
40.6(35) . . .
42.2(35) . . .
42.2(35) . . .
34.8(30) . . .
43(4) . . .
43.1(35) . . .
44(4) . . .
40.8(33) . . .
42.7(34) . . .
40.5(34) . . .
43(4) . . .
42(4) . . .
48(4) . . .
35.8(31) . . .
33.1(30) . . .
42(4) . . .
43(4) . . .
44.3(35) . . .
42.3(34) . . .
43.6(35) . . .
44(4) . . .
36.2(31) . . .
45(4) . . .
57(4) . . .
49(4) . . .
41(4) . . .
39.2(35) . . .
40.3(34) . . .
50(4) . . .
43(4) . . .
41.4(35) . . .
45(4) . . .
47(4) . . .
42.5(34) . . .
50(4) . . .
47(4) . . .
41.2(34) . . .
33.6(30) . . .
41.6(35) . . .
51(4) . . .
35.2(33) . . .
39.6(34) . . .
39.6(32) . . .
49(4) . . .
50(4) . . .
47(4) . . .
39.9(34) . . .
36.7(32) . . .
32.6(30) . . .
37.8(33) . . .
42.4(34) . . .
47(4) . . .
42.6(34) . . .
56(4) . . .
44(4) . . .
32.1(32) . . .
44(4) . . .
45(4) . . .
54(4) . . .
56(4) . . .
45(4) . . .
43.5(34) . . .
42.7(34) . . .
39.2(33) . . .
42(4) . . .
39.9(34) . . .
42.1(35) . . .
45(4) . . .
41(4) . . .
42(4) . . .
40(4) . . .
37.7(33) . . .
41.9(34) . . .
46(4) . . .
43(4) . . .
49(4) . . .
41.0(33) . . .
48(4) . . .
45(4) . . .
46(4) . . .
45(4) . . .
42.7(33) . . .
41.7(34) . . .
40.9(34) . . .
51(4) . . .
41.3(34) . . .
34.7(31) . . .
42.0(33) . . .
43(4) . . .
42(4) . . .
44(4) . . .
41.1(33) . . .
41.7(34) . . .
46(4) . . .
46(4) . . .
51(4) . . .
46(4) . . .
45.0(35) . . .
40.6(34) . . .
41.7(34) . . .
42.3(35) . . .
44(4) . . .
38.8(32) . . .
51(4) . . .
38.2(32) . . .
43.6(35) . . .
39.8(33) . . .
40(4) . . .
34.4(32) . . .
47(4) . . .
43.1(34) . . .
51(4) . . .
41(4) . . .
40.8(33) . . .
41.2(35) . . .
43.0(34) . . .
47(4) . . .
36.3(32) . . .
34.6(32) . . .
37.9(33) . . .
41.2(34) . . .
30.4(29) . . .
46(4) . . .
46(4) . . .
40.3(32) . . .
49(4) . . .
42.1(33) . . .
32.1(32) . . .
42(4) . . .
39.6(33) . . .
39.3(33) . . .
38.4(33) . . .
38.2(33) . . .
39(4) . . .
47(4) . . .
40.3(33) . . .
39.6(33) . . .
47(4) . . .
37.1(33) . . .
42(4) . . .
32.6(30) . . .
42.5(35) . . .
44(4) . . .
48(4) . . .
42.9(35) . . .
43.8(34) . . .
37.9(35) . . .
47(4) . . .
44(4) . . .
39.8(35) . . .
44.2(35) . . .
44.6(35) . . .
34.8(31) . . .
47(4) . . .
49(4) . . .
39.8(34) . . .
38.6(33) . . .
36.4(32) . . .
36.0(30) . . .
45.7(35) . . .
45.4(35) . . .
40.0(35) . . .
37.4(34) . . .
40.8(34) . . .
42.3(34) . . .
50(4) . . .
44(4) . . .
42(4) . . .
38.3(32) . . .
39.9(33) . . .
41.8(34) . . .
40.3(32) . . .
42(4) . . .
42.5(34) . . .
39.6(33) . . .
47(4) . . .
42(4) . . .
45(4) . . .
47(4) . . .
34.9(31) . . .
51(4) . . .
39.2(33) . . .
45(4) . . .
42.5(35) . . .
44.5(35) . . .
55(4) . . .
47(4) . . .
47(4) . . .
45(4) . . .
35.8(31) . . .
41.5(34) . . .
38.8(32) . . .
42(4) . . .
42(4) . . .
38.2(33) . . .
43(4) . . .
44(4) . . .
47(4) . . .
55(4) . . .
44.0(35) . . .
44.6(35) . . .
49(4) . . .
42(4) . . .
46(4) . . .
36.3(31) . . .
36.9(32) . . .
46(4) . . .
43.4(35) . . .
38.9(33) . . .
41.8(34) . . .
48(4) . . .
43(4) . . .
38.2(34) . . .
35.2(31) . . .
35.8(31) . . .
44(4) . . .
40.0(34) . . .
40.8(35) . . .
42.3(34) . . .
42.2(34) . . .
46(4) . . .
43(4) . . .
42(4) . . .
48(4) . . .
37.6(32) . . .
48(4) . . .
47(4) . . .
44(4) . . .
50(4) . . .
45(4) . . .
49(4) . . .
52(4) . . .
39.9(34) . . .
35.3(31) . . .
37.2(32) . . .
45(4) . . .
36.8(33) . . .
35.9(33) . . .
46(4) . . .
45(4) . . .
45(4) . . .
37.3(33) . . .
38.4(33) . . .
44.8(34) . . .
50(4) . . .
42.7(34) . . .
44(4) . . .
43.6(34) . . .
46(4) . . .
44.9(35) . . .
51(4) . . .
42(4) . . .
39.6(34) . . .
35.3(31) . . .
38.6(33) . . .
41.2(34) . . .
36.0(31) . . .
43(4) . . .
38.5(33) . . .
49(4) . . .
49(4) . . .
47(4) . . .
49(4) . . .
36.2(31) . . .
54(4) . . .
48(4) . . .
42.7(34) . . .
41.9(33) . . .
46.8(35) . . .
40(4) . . .
40(4) . . .
42.5(35) . . .
41.3(34) . . .
43.5(34) . . .
41.5(34) . . .
40(4) . . .
39.0(32) . . .
36.2(33) . . .
40.5(34) . . .
44(4) . . .
48(4) . . .
42(4) . . .
36.9(31) . . .
36.6(32) . . .
43(4) . . .
43(4) . . .
42.9(35) . . .
37.1(32) . . .
45(4) . . .
41(4) . . .
42(4) . . .
33.3(31) . . .
29.1(29) . . .
39.7(33) . . .
33.5(30) . . .
44(4) . . .
37.3(32) . . .
43.2(34) . . .
43.6(35) . . .
43.1(35) . . .
47(4) . . .
41.4(34) . . .
43.1(34) . . .
40.9(35) . . .
40(4) . . .
30.4(30) . . .
49(4) . . .
46(4) . . .
36.1(31) . . .
40.8(35) . . .
40(4) . . .
37.2(32) . . .
51(4) . . .
34.8(32) . . .
39.9(34) . . .
40.5(35) . . .
37.1(33) . . .
38.2(33) . . .
41.6(34) . . .
51(4) . . .
47(4) . . .
44.9(34) . . .
43.0(35) . . .
48(4) . . .
47(4) . . .
46(4) . . .
44.3(35) . . .
44.2(35) . . .
41.5(34) . . .
42(4) . . .
41.5(35) . . .
45(4) . . .
48(4) . . .
47(4) . . .
34.6(32) . . .
37.7(33) . . .
51(4) . . .
44.2(35) . . .
40.4(35) . . .
44(4) . . .
33.5(30) . . .
45(4) . . .
46(4) . . .
38.0(34) . . .
30.8(31) . . .
39.1(35) . . .
52(4) . . .
42.7(34) . . .
41(4) . . .
34.5(31) . . .
42(4) . . .
46.9(35) . . .
50(4) . . .
45(4) . . .
45(4) . . .
46(4) . . .
42.5(34) . . .
39.9(33) . . .
44.5(35) . . .
45(4) . . .
45(4) . . .
40.3(33) . . .
50(4) . . .
42(4) . . .
44(4) . . .
37.0(32) . . .
38.0(32) . . .
41(4) . . .
50(4) . . .
42(4) . . .
37.5(32) . . .
43.0(34) . . .
43.0(34) . . .
34.4(31) . . .
41.8(34) . . .
52(4) . . .
40.8(33) . . .
41(4) . . .
35.3(32) . . .
48(4) . . .
39.6(32) . . .
38.6(32) . . .
37.6(32) . . .
43(4) . . .
43.6(35) . . .
37.3(32) . . .
41.7(33) . . .
47(4) . . .
44(4) . . .
48(4) . . .
48(4) . . .
44(4) . . .
44(4) . . .
39(4) . . .
38.7(33) . . .
56(4) . . .
49(4) . . .
37.5(33) . . .
43(4) . . .
45(4) . . .
37.7(32) . . .
51(4) . . .
48(4) . . .
38.4(33) . . .
39.9(33) . . .
42.4(34) . . .
40.3(33) . . .
46(4) . . .
36.3(31) . . .
38.3(33) . . .
36.8(32) . . .
36.8(33) . . .
48(4) . . .
37.7(33) . . .
31.5(29) . . .
31.3(29) . . .
42.3(35) . . .
37.3(33) . . .
44(4) . . .
44.1(34) . . .
37.6(32) . . .
45(4) . . .
41(4) . . .
46(4) . . .
42.7(34) . . .
38.3(32) . . .
38.2(32) . . .
48(4) . . .
42.5(34) . . .
40.8(33) . . .
43.4(34) . . .
49(4) . . .
48(4) . . .
50(4) . . .
37.0(31) . . .
43.7(35) . . .
43(4) . . .
45(4) . . .
32.1(30) . . .
37.5(33) . . .
50(4) . . .
39.6(34) . . .
38.0(34) . . .
38.3(33) . . .
46(4) . . .
47(4) . . .
36.1(34) . . .
38.0(33) . . .
45.7(35) . . .
49(4) . . .
40.4(33) . . .
45(4) . . .
39.3(34) . . .
38.6(34) . . .
37.7(32) . . .
42(4) . . .
39.3(35) . . .
44(4) . . .
37.0(32) . . .
39.6(33) . . .
41.1(35) . . .
46(4) . . .
34.7(31) . . .
43(4) . . .
37.8(32) . . .
41.9(33) . . .
44(4) . . .
51(4) . . .
45(4) . . .
47(4) . . .
46(4) . . .
41(4) . . .
38.0(34) . . .
41.8(34) . . .
42.0(34) . . .
42.8(34) . . .
45(4) . . .
39.0(33) . . .
46(4) . . .
42.8(34) . . .
37.3(32) . . .
47(4) . . .
40.2(34) . . .
43.1(33) . . .
43.7(34) . . .
43(4) . . .
47(4) . . .
43.6(34) . . .
43.4(34) . . .
39.5(33) . . .
42(4) . . .
38(4) . . .
47(4) . . .
36.9(32) . . .
45.5(35) . . .
37.0(32) . . .
48(4) . . .
47(4) . . .
44(4) . . .
45.3(35) . . .
45(4) . . .
40(4) . . .
42(4) . . .
34.5(31) . . .
46(4) . . .
46(4) . . .
40(4) . . .
40.7(34) . . .
38.0(32) . . .
41(4) . . .
41(4) . . .
46(4) . . .
45(4) . . .
33.5(30) . . .
45(4) . . .
43(4) . . .
48(4) . . .
45(4) . . .
37.2(32) . . .
42.8(34) . . .
52(4) . . .
50(4) . . .
42.0(34) . . .
40.6(33) . . .
38.3(34) . . .
50(4) . . .
36.4(31) . . .
47(4) . . .
46(4) . . .
54(4) . . .
38.5(34) . . .
38.6(33) . . .
32.2(30) . . .
33.0(31) . . .
34.7(33) . . .
43.4(35) . . .
47(4) . . .
41.0(34) . . .
33.4(31) . . .
41.8(34) . . .
37.5(34) . . .
37.6(34) . . .
43.4(34) . . .
41.5(33) . . .
48(4) . . .
40(4) . . .
36.8(32) . . .
39.3(33) . . .
32.1(31) . . .
37.8(33) . . .
44(4) . . .
45(4) . . .
38.2(32) . . .
45(4) . . .
46(4) . . .
53(4) . . .
53(4) . . .
43.9(34) . . .
41.5(34) . . .
33.5(30) . . .
37.6(32) . . .
46(4) . . .
33.1(30) . . .
42.0(35) . . .
40.4(34) . . .
39.1(33) . . .
51(4) . . .
46(4) . . .
42(4) . . .
46(4) . . .
46(4) . . .
41.7(35) . . .
38.1(32) . . .
32.6(30) . . .
37.1(34) . . .
42.6(34) . . .
49(4) . . .
32.1(29) . . .
45(4) . . .
43(4) . . .
39.3(33) . . .
45.9(35) . . .
35.7(32) . . .
41.8(34) . . .
52(4) . . .
48(4) . . .
41.2(33) . . .
39.8(33) . . .
38.4(33) . . .
37.8(33) . . .
50(4) . . .
51(4) . . .
31.8(29) . . .
36.0(32) . . .
36.7(31) . . .
43(4) . . .
39.2(34) . . .
39.4(33) . . .
36.5(34) . . .
27.1(29) . . .
42.5(34) . . .
41.1(33) . . .
41.7(34) . . .
53(4) . . .
43.5(35) . . .
46(4) . . .
42.2(34) . . .
42(4) . . .
44(4) . . .
40.1(34) . . .
39.5(32) . . .
42.9(35) . . .
48(4) . . .
45(4) . . .
53(4) . . .
43(4) . . .
37.8(32) . . .
44(4) . . .
44(4) . . .
45(4) . . .
42.7(33) . . .
40.4(33) . . .
51(4) . . .
50(4) . . .
38.4(33) . . .
32.8(30) . . .
36.0(32) . . .
40.2(35) . . .
49(4) . . .
43.4(35) . . .
35.5(31) . . .
39.3(33) . . .
44(4) . . .
40(4) . . .
39.7(33) . . .
45.6(35) . . .
46(4) . . .
50(4) . . .
40.7(34) . . .
41(4) . . .
35.3(32) . . .
44.4(35) . . .
51(4) . . .
38.6(33) . . .
35.2(31) . . .
42.8(34) . . .
45(4) . . .
42.2(35) . . .
39.1(33) . . .
45(4) . . .
38.9(33) . . .
48(4) . . .
34.2(30) . . .
43(4) . . .
39.6(32) . . .
47(4) . . .
39(4) . . .
49(4) . . .
44(4) . . .
39.2(33) . . .
37.8(32) . . .
49(4) . . .
41(4) . . .
42(4) . . .
38.1(32) . . .
45(4) . . .
46(4) . . .
32.2(31) . . .
36.5(32) . . .
49(4) . . .
44.6(35) . . .
50(4) . . .
42(4) . . .
45(4) . . .
34.5(30) . . .
42.3(34) . . .
47(4) . . .
40.9(35) . . .
49(4) . . .
45(4) . . .
31.9(29) . . .
47(4) . . .
41(4) . . .
41.5(34) . . .
37.7(32) . . .
35.5(31) . . .
41(4) . . .
41(4) . . .
43(4) . . .
38.9(33) . . .
46(4) . . .
48(4) . . .
45(4) . . .
45(4) . . .
36.9(31) . . .
48(4) . . .
50(4) . . .
46(4) . . .
40(4) . . .
35.1(31) . . .
47(4) . . .
46(4) . . .
38.6(33) . . .
50(4) . . .
42.9(34) . . .
37.4(35) . . .
33.6(30) . . .
50(4) . . .
46(4) . . .
40.0(33) . . .
43(4) . . .
42.0(35) . . .
45(4) . . .
40.9(34) . . .
43.5(35) . . .
43.3(35) . . .
40.5(33) . . .
31.6(29) . . .
43(4) . . .
45(4) . . .
41(4) . . .
52(4) . . .
39.5(34) . . .
47(4) . . .
42.2(33) . . .
35.4(32) . . .
42(4) . . .
37.7(34) . . .
51(4) . . .
39.9(33) . . .
39.3(33) . . .
46(4) . . .
39.3(33) . . .
47(4) . . .
46(4) . . .
40.4(35) . . .
37.0(33) . . .
39.6(33) . . .
44.2(35) . . .
44.9(35) . . .
42(4) . . .
42(4) . . .
43(4) . . .
49(4) . . .
38.0(32) . . .
42(4) . . .
41(4) . . .
46(4) . . .
42.9(34) . . .
39.1(34) . . .
42(4) . . .
52(4) . . .
38.4(33) . . .
42.3(34) . . .
47(4) . . .
38.5(33) . . .
45(4) . . .
45(4) . . .
39.5(33) . . .
39.3(33) . . .
36.4(34) . . .
32.4(30) . . .
49(4) . . .
41.5(33) . . .
41.3(34) . . .
41.1(34) . . .
39.0(32) . . .
42.8(34) . . .
40.1(33) . . .
41(4) . . .
42(4) . . .
41.3(34) . . .
37.5(32) . . .
38.3(33) . . .
36.1(32) . . .
48(4) . . .
55(4) . . .
41.5(33) . . .
47(4) . . .
35.9(33) . . .
42(4) . . .
51(4) . . .
45.3(35) . . .
43.5(35) . . .
40.6(34) . . .
39.9(34) . . .
39.6(33) . . .
37.7(33) . . .
38.4(32) . . .
37.8(33) . . .
45(4) . . .
33.5(31) . . .
37.4(32) . . .
36.6(32) . . .
41.3(34) . . .
36.6(32) . . .
47(4) . . .
50(4) . . .
42.9(34) . . .
39.1(33) . . .
46(4) . . .
40.5(34) . . .
35.0(31) . . .
34.8(31) . . .
39.9(33) . . .
49(4) . . .
41.0(34) . . .
41.0(34) . . .
47(4) . . .
46(4) . . .
34.5(32) . . .
47(4) . . .
49(4) . . .
39.2(33) . . .
39.5(35) . . .
43(4) . . .
35.2(32) . . .
42.0(34) . . .
43.0(35) . . .
39.0(34) . . .
32.7(30) . . .
43.2(34) . . .
40.6(33) . . .
45(4) . . .
37.3(34) . . .
31.1(29) . . .
40.5(33) . . .
53(4) . . .
33.9(33) . . .
38.0(33) . . .
41.5(34) . . .
45.5(35) . . .
40.3(33) . . .
49(4) . . .
44(4) . . .
32.5(30) . . .
38.0(32) . . .
41.1(33) . . .
48(4) . . .
42(4) . . .
48(4) . . .
36.3(32) . . .
35.4(31) . . .
40.6(35) . . .
45(4) . . .
45(4) . . .
37.4(32) . . .
43(4) . . .
47(4) . . .
54(4) . . .
37.4(32) . . .
40.9(34) . . .
33.8(32) . . .
50(4) . . .
49(4) . . .
39.0(34) . . .
37.3(32) . . .
48(4) . . .
34.9(31) . . .
43(4) . . .
39.0(34) . . .
45.3(35) . . .
42.3(34) . . .
46(4) . . .
41.1(33) . . .
35.6(32) . . .
53(4) . . .
41.5(34) . . .
45(4) . . .
38.4(35) . . .
40.7(33) . . .
44.1(34) . . .
41.9(33) . . .
40.0(33) . . .
43(4) . . .
46(4) . . .
37.1(32) . . .
41.5(34) . . .
36.9(35) . . .
28.0(27) . . .
41.8(33) . . .
51(4) . . .
45(4) . . .
35.8(34) . . .
33.0(32) . . .
46(4) . . .
51(4) . . .
35.8(30) . . .
33.5(31) . . .
37.1(33) . . .
42.4(33) . . .
38.0(32) . . .
39.1(32) . . .
55(4) . . .
46(4) . . .
38.6(32) . . .
49(4) . . .
44(4) . . .
38.8(34) . . .
41.1(34) . . .
42.1(34) . . .
49(4) . . .
39.9(34) . . .
49(4) . . .
36.2(32) . . .
28.0(27) . . .
31.6(30) . . .
41.9(35) . . .
43(4) . . .
36.2(32) . . .
39.9(33) . . .
37.5(32) . . .
43(4) . . .
44(4) . . .
39.4(32) . . .
33.6(30) . . .
36.5(33) . . .
36.0(32) . . .
33.8(31) . . .
34.2(31) . . .
33.9(31) . . .
28.1(28) . . .
38.5(35) . . .
37.5(33) . . .
45(4) . . .
43.8(35) . . .
40.3(35) . . .
34.4(32) . . .
45.5(35) . . .
47(4) . . .
38.7(32) . . .
36.7(32) . . .
32.3(30) . . .
40.5(34) . . .
40.5(33) . . .
33.6(30) . . .
46(4) . . .
41(4) . . .
35.4(33) . . .
48(4) . . .
52(4) . . .
40(4) . . .
48(4) . . .
42.0(34) . . .
41.1(33) . . .
48(4) . . .
36.5(33) . . .
38.1(33) . . .
39.4(34) . . .
38.2(32) . . .
45(4) . . .
45(4) . . .
40.5(34) . . .
47(4) . . .
31.8(30) . . .
38.0(33) . . .
39(4) . . .
38.7(35) . . .
35.4(31) . . .
45(4) . . .
47(4) . . .
48(4) . . .
50(4) . . .
42.5(34) . . .
47(4) . . .
47(4) . . .
37.0(32) . . .
41.5(35) . . .
32.6(30) . . .
36.1(32) . . .
41.9(34) . . .
48(4) . . .
44(4) . . .
40.5(34) . . .
45.1(35) . . .
39.7(33) . . .
41(4) . . .
30.0(32) . . .
37.6(32) . . .
32.8(30) . . .
43(4) . . .
40(4) . . .
47(4) . . .
46(4) . . .
42.2(33) . . .
39.0(33) . . .
48(4) . . .
44.5(35) . . .
38.9(33) . . .
47(4) . . .
43(4) . . .
41(4) . . .
31.1(30) . . .
40.4(33) . . .
35.0(30) . . .
39.3(34) . . .
35.6(31) . . .
47(4) . . .
52(4) . . .
40.3(33) . . .
39.7(34) . . .
35.5(31) . . .
54(4) . . .
34.7(31) . . .
38.0(32) . . .
41(4) . . .
41.7(35) . . .
40.4(33) . . .
39.7(33) . . .
46(4) . . .
49(4) . . .
41.3(33) . . .
40.8(33) . . .
49(4) . . .
42.3(34) . . .
40.4(32) . . .
46(4) . . .
27.0(27) . . .
38.0(32) . . .
34.7(31) . . .
45(4) . . .
36.5(33) . . .
41.8(34) . . .
43.8(35) . . .
37.4(32) . . .
41(4) . . .
42(4) . . .
36.4(32) . . .
40.6(33) . . .
47(4) . . .
39(4) . . .
43.3(35) . . .
44.3(35) . . .
46(4) . . .
42.6(34) . . .
43(4) . . .
43(4) . . .
42.1(35) . . .
41.8(33) . . .
41.5(35) . . .
36.3(33) . . .
36.8(32) . . .
42.2(34) . . .
38.4(32) . . .
33.9(31) . . .
40.8(34) . . .
41.9(33) . . .
51(4) . . .
41.8(35) . . .
40.9(35) . . .
41.8(34) . . .
39.9(33) . . .
41.8(34) . . .
41.8(34) . . .
44(4) . . .
39.1(33) . . .
39.7(33) . . .
36.7(32) . . .
48(4) . . .
41.0(35) . . .
43(4) . . .
38.9(32) . . .
41.8(33) . . .
50(4) . . .
48(4) . . .
48(4) . . .
49(4) . . .
47(4) . . .
47(4) . . .
41.8(34) . . .
50(4) . . .
43.7(35) . . .
49(4) . . .
47(4) . . .
37.3(34) . . .
41(4) . . .
38.2(32) . . .
41.2(34) . . .
43(4) . . .
41(4) . . .
45(4) . . .
37.8(32) . . .
46.6(35) . . .
33.7(30) . . .
34.3(32) . . .
42(4) . . .
38.2(33) . . .
43(4) . . .
45(4) . . .
46(4) . . .
49(4) . . .
38.9(32) . . .
42.4(34) . . .
42.5(34) . . .
49(4) . . .
32.7(30) . . .
41.0(33) . . .
39.5(33) . . .
39.7(35) . . .
43(4) . . .
44(4) . . .
42.9(34) . . .
39.6(34) . . .
37.9(33) . . .
42.4(35) . . .
47(4) . . .
44.7(35) . . .
50(4) . . .
39.3(33) . . .
48(4) . . .
31.4(30) . . .
43.8(35) . . .
40.2(34) . . .
38.2(34) . . .
38.1(34) . . .
40.2(35) . . .
38.5(33) . . .
42.7(35) . . .
35.6(32) . . .
39.7(34) . . .
37.6(32) . . .
38.0(33) . . .
42(4) . . .
48(4) . . .
38.5(33) . . .
33.0(30) . . .
39.5(33) . . .
50(4) . . .
36.9(32) . . .
35.9(32) . . .
34.9(30) . . .
48(4) . . .
40.4(33) . . .
38(4) . . .
42.3(35) . . .
37.1(32) . . .
43.6(35) . . .
56(4) . . .
41.7(34) . . .
29.2(27) . . .
46.3(35) . . .
52(4) . . .
47(4) . . .
47(4) . . .
42.3(34) . . .
39.6(33) . . .
35.0(31) . . .
45(4) . . .
42(4) . . .
35.7(32) . . .
42.8(34) . . .
38.2(33) . . .
48(4) . . .
39.9(33) . . .
38.0(32) . . .
43.8(34) . . .
46(4) . . .
32.0(32) . . .
33.6(32) . . .
38.6(34) . . .
34.8(31) . . .
41(4) . . .
32.8(31) . . .
52(4) . . .
46(4) . . .
42.5(34) . . .
38.0(33) . . .
43.2(33) . . .
46.5(34) . . .
44(4) . . .
43.0(34) . . .
43.0(35) . . .
46(4) . . .
39.4(34) . . .
43.5(34) . . .
36.8(32) . . .
45(4) . . .
47(4) . . .
42.9(35) . . .
46(4) . . .
43.7(35) . . .
33.0(30) . . .
37.8(34) . . .
39.9(35) . . .
42.8(34) . . .
38.0(33) . . .
38.4(34) . . .
47(4) . . .
36.2(32) . . .
38.3(34) . . .
40.4(33) . . .
43(4) . . .
41(4) . . .
38.7(34) . . .
34.3(30) . . .
42.4(35) . . .
38.6(32) . . .
49(4) . . .
33.4(30) . . .
43.4(35) . . .
39.8(33) . . .
45(4) . . .
44(4) . . .
31.6(31) . . .
41.3(33) . . .
37.8(32) . . .
44(4) . . .
44(4) . . .
36.0(31) . . .
32.8(30) . . .
36.8(33) . . .
37.6(33) . . .
41(4) . . .
34.2(31) . . .
41.2(34) . . .
36.1(32) . . .
37.2(32) . . .
41(4) . . .
44.8(35) . . .
54(4) . . .
41.0(34) . . .
42(4) . . .
41.2(35) . . .
39.5(33) . . .
33.2(31) . . .
28.0(28) . . .
40(4) . . .
45(4) . . .
41.5(34) . . .
50(4) . . .
39.7(33) . . .
36.0(33) . . .
35.3(31) . . .
36.4(32) . . .
37.6(32) . . .
42(4) . . .
49(4) . . .
42(4) . . .
45.1(35) . . .
47(4) . . .
41.9(35) . . .
36.1(32) . . .
36.9(32) . . .
43.7(35) . . .
33.4(31) . . .
30.8(31) . . .
35.2(33) . . .
38.3(34) . . .
46.5(35) . . .
45(4) . . .
45(4) . . .
41.2(34) . . .
36.3(32) . . .
40.1(33) . . .
34.5(30) . . .
42(4) . . .
39.3(34) . . .
39.3(33) . . .
44(4) . . .
37.7(33) . . .
43.8(35) . . .
38.8(32) . . .
34.3(31) . . .
39.0(32) . . .
31.5(30) . . .
36.5(32) . . .
39.5(34) . . .
46(4) . . .
37.3(32) . . .
40.6(35) . . .
43(4) . . .
43(4) . . .
42.0(33) . . .
47(4) . . .
38.4(32) . . .
38.5(32) . . .
39.0(33) . . .
39.5(32) . . .
37.2(32) . . .
39.7(35) . . .
39(4) . . .
37.4(33) . . .
47(4) . . .
43.8(34) . . .
40(4) . . .
35(4) . . .
35.2(34) . . .
52(4) . . .
37.1(31) . . .
40(4) . . .
40(4) . . .
35.3(32) . . .
40.5(33) . . .
40.9(34) . . .
35.2(32) . . .
38.8(34) . . .
46(4) . . .
32.9(30) . . .
34.5(32) . . .
39.6(34) . . .
42(4) . . .
40(4) . . .
42.3(34) . . .
38.9(33) . . .
43(4) . . .
39.9(35) . . .
34.3(31) . . .
44.5(35) . . .
38.3(33) . . .
39.1(33) . . .
37.8(32) . . .
35.7(32) . . .
35.3(31) . . .
34.9(33) . . .
43(4) . . .
37.5(33) . . .
32.4(29) . . .
45(4) . . .
43(4) . . .
46(4) . . .
43(4) . . .
40.3(34) . . .
34.0(31) . . .
52(4) . . .
45(4) . . .
41(4) . . .
42.0(34) . . .
40.3(33) . . .
45(4) . . .
32.9(33) . . .
36.2(34) . . .
46(4) . . .
47(4) . . .
39.5(35) . . .
36(4) . . .
36.7(32) . . .
31.6(30) . . .
38.8(32) . . .
42.2(34) . . .
37.2(34) . . .
40.9(34) . . .
40.0(33) . . .
39.8(33) . . .
37.6(32) . . .
35.4(31) . . .
40.5(33) . . .
35.3(31) . . .
40(4) . . .
36.5(32) . . .
40.7(35) . . .
49(4) . . .
50(4) . . .
42.0(35) . . .
46(4) . . .
39.0(33) . . .
32.3(30) . . .
34.9(31) . . .
45(4) . . .
38.9(34) . . .
37.2(34) . . .
40.0(34) . . .
30.8(29) . . .
35.5(32) . . .
43(4) . . .
32.3(30) . . .
43.9(34) . . .
42.8(34) . . .
50(4) . . .
49(4) . . .
46(4) . . .
51(4) . . .
38.1(32) . . .
44(4) . . .
37.7(34) . . .
45(4) . . .
40.8(34) . . .
41.5(33) . . .
45(4) . . .
44(4) . . .
35.1(30) . . .
37.1(32) . . .
43.9(34) . . .
39.3(33) . . .
46(4) . . .
33.7(31) . . .
44.6(35) . . .
43.6(34) . . .
45(4) . . .
40(4) . . .
46(4) . . .
44(4) . . .
37.3(32) . . .
41.1(35) . . .
41(4) . . .
32.3(31) . . .
40.5(32) . . .
44(4) . . .
35.3(32) . . .
36.2(33) . . .
41.9(35) . . .
46(4) . . .
42.4(33) . . .
43.0(34) . . .
46(4) . . .
46(4) . . .
34.0(32) . . .
47(4) . . .
41(4) . . .
45(4) . . .
37.8(35) . . .
35.6(31) . . .
41.7(35) . . .
44.1(34) . . .
40.3(33) . . .
36.4(32) . . .
42.5(33) . . .
36.5(33) . . .
39.0(33) . . .
49(4) . . .
35.3(32) . . .
31.3(29) . . .
40.3(34) . . .
51(4) . . .
37.7(32) . . .
41.2(34) . . .
39.1(33) . . .
35.2(33) . . .
45(4) . . .
36.5(31) . . .
37.3(32) . . .
32.1(30) . . .
38.7(34) . . .
37.2(33) . . .
35.5(32) . . .
43.1(35) . . .
37.5(31) . . .
31.6(30) . . .
40(4) . . .
32.1(30) . . .
37.5(32) . . .
40.7(34) . . .
42.4(34) . . .
36.8(34) . . .
43(4) . . .
41.3(33) . . .
42.5(35) . . .
50(4) . . .
36.5(32) . . .
42.9(35) . . .
41.7(33) . . .
37.8(35) . . .
39.6(33) . . .
41(4) . . .
39.6(35) . . .
40.2(33) . . .
40.0(33) . . .
37.2(32) . . .
46(4) . . .
54(4) . . .
40.6(33) . . .
39.5(33) . . .
36.2(32) . . .
34.0(31) . . .
43(4) . . .
39.4(33) . . .
36.2(32) . . .
46(4) . . .
40.5(34) . . .
43.6(35) . . .
41.5(34) . . .
30.9(30) . . .
39.2(34) . . .
37.4(32) . . .
36.6(32) . . .
39.1(33) . . .
42.5(34) . . .
39.9(35) . . .
48(4) . . .
39.6(33) . . .
42.9(35) . . .
33.1(31) . . .
36.3(33) . . .
43.5(33) . . .
45.8(35) . . .
42.1(34) . . .
47(4) . . .
40.8(34) . . .
34.7(32) . . .
38.9(33) . . .
37.3(33) . . .
35.8(33) . . .
45(4) . . .
38.9(32) . . .
42.1(34) . . .
39.4(33) . . .
42(4) . . .
38.3(34) . . .
29.7(29) . . .
35.6(31) . . .
32.0(29) . . .
34.7(31) . . .
38.4(33) . . .
31.5(29) . . .
37.9(34) . . .
42.2(35) . . .
35.2(31) . . .
41.4(34) . . .
39.4(32) . . .
42.7(35) . . .
41.7(33) . . .
40.8(34) . . .
42(4) . . .
37.6(34) . . .
36.2(32) . . .
35.5(32) . . .
41(4) . . .
39.4(35) . . .
33.9(31) . . .
40.6(33) . . .
38.1(33) . . .
44(4) . . .
43.3(34) . . .
49(4) . . .
42.6(34) . . .
34.4(32) . . .
33.6(31) . . .
47(4) . . .
42.6(34) . . .
41.3(34) . . .
39.2(34) . . .
41(4) . . .
40.5(34) . . .
43.2(34) . . .
35.8(31) . . .
34.6(31) . . .
35.2(33) . . .
37.5(33) . . .
33.3(30) . . .
45(4) . . .
38.3(33) . . .
49(4) . . .
33.6(32) . . .
36.2(32) . . .
47(4) . . .
44.4(34) . . .
47(4) . . .
40.1(33) . . .
37.2(32) . . .
37.0(32) . . .
41.2(35) . . .
35.0(32) . . .
41.8(35) . . .
38.8(32) . . .
36.9(32) . . .
37.8(32) . . .
41(4) . . .
47(4) . . .
37.6(33) . . .
36.5(34) . . .
43(4) . . .
39.7(33) . . .
43.6(35) . . .
39.8(33) . . .
33.8(31) . . .
39.7(33) . . .
43(4) . . .
39.1(33) . . .
41.2(33) . . .
34.6(32) . . .
40.0(34) . . .
38.8(34) . . .
46(4) . . .
33.6(31) . . .
45(4) . . .
38.1(33) . . .
45(4) . . .
39.3(33) . . .
45.3(35) . . .
36.7(33) . . .
36.7(35) . . .
36.4(33) . . .
46(4) . . .
36.6(31) . . .
43(4) . . .
44(4) . . .
39(4) . . .
41.9(34) . . .
46(4) . . .
36.8(33) . . .
38.0(35) . . .
30.9(29) . . .
43.9(35) . . .
32.8(30) . . .
35.8(33) . . .
31.8(29) . . .
36.4(32) . . .
34.9(31) . . .
36.9(31) . . .
40.8(34) . . .
46(4) . . .
37.3(33) . . .
42.3(34) . . .
41.5(35) . . .
47(4) . . .
39.3(34) . . .
39.3(34) . . .
41.1(34) . . .
35.9(31) . . .
38.2(34) . . .
40.0(34) . . .
42(4) . . .
41(4) . . .
42(4) . . .
33.5(31) . . .
38.0(34) . . .
33.2(30) . . .
45.0(35) . . .
41(4) . . .
37.9(34) . . .
44(4) . . .
40.5(33) . . .
35.7(31) . . .
38.2(32) . . .
42(4) . . .
37.1(33) . . .
44(4) . . .
36.9(33) . . .
35.4(32) . . .
41.7(33) . . .
41.6(33) . . .
32.3(30) . . .
36.8(31) . . .
40.6(33) . . .
44(4) . . .
35.3(31) . . .
43.2(34) . . .
38.6(32) . . .
37.1(34) . . .
32.7(31) . . .
38.2(34) . . .
33.0(30) . . .
43.5(35) . . .
28.4(28) . . .
38.1(34) . . .
45(4) . . .
38.6(33) . . .
38.0(32) . . .
35.0(32) . . .
44(4) . . .
45(4) . . .
47(4) . . .
42.1(34) . . .
43(4) . . .
39.4(34) . . .
36.6(32) . . .
47(4) . . .
35.5(31) . . .
37.8(32) . . .
49(4) . . .
37.2(32) . . .
43.8(35) . . .
43(4) . . .
32.2(31) . . .
44(4) . . .
38.4(33) . . .
41.6(34) . . .
45(4) . . .
33.4(33) . . .
33.2(33) . . .
37.2(33) . . .
37.2(32) . . .
41.9(35) . . .
42(4) . . .
45(4) . . .
43.7(34) . . .
39.2(33) . . .
32.6(33) . . .
36(4) . . .
36(4) . . .
44.7(35) . . .
41.8(34) . . .
39.9(34) . . .
31.5(32) . . .
41.2(35) . . .
40.5(33) . . .
44.5(35) . . .
40.8(34) . . .
37.4(35) . . .
35.4(34) . . .
37.9(32) . . .
45(4) . . .
44(4) . . .
43(4) . . .
37.5(32) . . .
45.1(35) . . .
35.5(31) . . .
41(4) . . .
37.1(34) . . .
46(4) . . .
39.8(33) . . .
31.6(29) . . .
46(4) . . .
46(4) . . .
40.5(34) . . .
39.2(33) . . .
36.1(31) . . .
38.7(34) . . .
36.3(32) . . .
44(4) . . .
52(4) . . .
40.0(32) . . .
39.0(33) . . .
40.5(34) . . .
45(4) . . .
42.1(34) . . .
36.6(32) . . .
38.1(32) . . .
45.8(35) . . .
38.8(32) . . .
41.5(33) . . .
37.8(33) . . .
34.3(32) . . .
33.1(32) . . .
34.5(31) . . .
43.0(34) . . .
43(4) . . .
38(4) . . .
37.6(34) . . .
41.9(35) . . .
34.3(31) . . .
37.6(34) . . .
33.5(31) . . .
45(4) . . .
43.3(34) . . .
42.3(34) . . .
39.3(32) . . .
43(4) . . .
40.1(33) . . .
50(4) . . .
34.8(30) . . .
39.2(34) . . .
34.3(33) . . .
45(4) . . .
38.2(32) . . .
40.8(33) . . .
35.7(33) . . .
35.5(35) . . .
35.5(32) . . .
46(4) . . .
32.8(30) . . .
41.2(34) . . .
39.1(35) . . .
38.4(33) . . .
38.3(32) . . .
39.1(33) . . .
39.5(33) . . .
31.4(30) . . .
48(4) . . .
31.2(29) . . .
41.7(34) . . .
49(4) . . .
42.2(35) . . .
33.2(33) . . .
40.3(34) . . .
39.8(33) . . .
46(4) . . .
39.2(35) . . .
43(4) . . .
38.6(33) . . .
38.5(33) . . .
46(4) . . .
36.1(33) . . .
44(4) . . .
39.6(33) . . .
38.6(35) . . .
39.3(34) . . .
31.8(32) . . .
37.3(33) . . .
30.8(29) . . .
47(4) . . .
31.2(30) . . .
39(4) . . .
42.3(33) . . .
42.4(35) . . .
34.4(31) . . .
48(4) . . .
38.3(33) . . .
39.1(33) . . .
29.4(28) . . .
36.3(32) . . .
46(4) . . .
42.5(34) . . .
40.7(33) . . .
39.3(33) . . .
37.0(34) . . .
38.7(35) . . .
45(4) . . .
41.8(34) . . .
40.9(34) . . .
40.9(34) . . .
44(4) . . .
43(4) . . .
42.8(33) . . .
38.1(33) . . .
44(4) . . .
36.1(31) . . .
47(4) . . .
35.5(31) . . .
42(4) . . .
39.1(35) . . .
38.5(34) . . .
34.8(33) . . .
46(4) . . .
34.3(32) . . .
34.2(32) . . .
43(4) . . .
32.7(31) . . .
38.3(32) . . .
36.9(33) . . .
38.7(33) . . .
44(4) . . .
39.2(33) . . .
31.2(29) . . .
33.5(33) . . .
29.3(28) . . .
35.1(32) . . .
36.8(33) . . .
47(4) . . .
43(4) . . .
44(4) . . .
36.1(32) . . .
36.0(31) . . .
41.1(33) . . .
51(4) . . .
37.6(32) . . .
39.1(34) . . .
44.5(35) . . .
51(4) . . .
44(4) . . .
43(4) . . .
45(4) . . .
41.6(33) . . .
35.9(31) . . .
32.1(30) . . .
37.2(35) . . .
47(4) . . .
32.5(29) . . .
43.5(35) . . .
42(4) . . .
45(4) . . .
41(4) . . .
35.7(31) . . .
39.2(33) . . .
32.9(30) . . .
37.3(32) . . .
38.1(34) . . .
40.7(33) . . .
37.6(33) . . .
36.8(33) . . .
47(4) . . .
39.6(34) . . .
37.7(32) . . .
33.1(30) . . .
39(4) . . .
34.8(33) . . .
43(4) . . .
38.8(32) . . .
47(4) . . .
45(4) . . .
47(4) . . .
48(4) . . .
43.4(34) . . .
32.7(33) . . .
39(4) . . .
36.2(32) . . .
40.4(33) . . .
45.4(35) . . .
43(4) . . .
45(4) . . .
36.3(32) . . .
36.1(32) . . .
33.2(30) . . .
40.6(34) . . .
40.5(34) . . .
45(4) . . .
46(4) . . .
47(4) . . .
42.4(34) . . .
40(4) . . .
44(4) . . .
46(4) . . .
42.0(33) . . .
46(4) . . .
46(4) . . .
44.1(34) . . .
44.6(35) . . .
35.3(31) . . .
41.4(35) . . .
35.9(31) . . .
47(4) . . .
38.4(33) . . .
42.2(34) . . .
40.6(33) . . .
31.7(29) . . .
33.6(31) . . .
37.9(32) . . .
40.8(34) . . .
33.5(31) . . .
42(4) . . .
39.7(33) . . .
46(4) . . .
45(4) . . .
44.5(35) . . .
39.1(33) . . .
46(4) . . .
44.6(35) . . .
42.6(33) . . .
40.0(34) . . .
34.9(32) . . .
40.1(34) . . .
42.8(34) . . .
55(4) . . .
43.2(34) . . .
39.3(32) . . .
45.5(35) . . .
40.6(33) . . .
39.0(33) . . .
36.3(33) . . .
48(4) . . .
43.5(35) . . .
38.4(32) . . .
37.9(34) . . .
37.3(33) . . .
37.5(33) . . .
43(4) . . .
36.8(31) . . .
45(4) . . .
38.0(32) . . .
45.5(35) . . .
37.1(32) . . .
41.9(35) . . .
39(4) . . .
39(4) . . .
31.6(30) . . .
44(4) . . .
40.8(33) . . .
45(4) . . .
44(4) . . .
38.8(34) . . .
38.6(32) . . .
35.8(31) . . .
42(4) . . .
49(4) . . .
42(4) . . .
30.9(29) . . .
43.9(35) . . .
38.9(34) . . .
33.7(31) . . .
38.2(33) . . .
37.9(32) . . .
36.7(31) . . .
40.8(35) . . .
32.7(31) . . .
42(4) . . .
45.3(35) . . .
44(4) . . .
49(4) . . .
39.6(35) . . .
37.8(32) . . .
41.7(34) . . .
44(4) . . .
35.1(33) . . .
39(4) . . .
34.4(32) . . .
39.6(33) . . .
45(4) . . .
31.5(30) . . .
41.4(35) . . .
49(4) . . .
34.7(31) . . .
37.8(33) . . .
28.5(28) . . .
45(4) . . .
33.5(30) . . .
36.7(33) . . .
44(4) . . .
48(4) . . .
41(4) . . .
38.6(33) . . .
35.7(31) . . .
41(4) . . .
35.2(34) . . .
43(4) . . .
43.3(34) . . .
39.6(33) . . .
38.8(32) . . .
42.3(35) . . .
35.8(31) . . .
38.3(32) . . .
42.8(35) . . .
35.7(34) . . .
43(4) . . .
44(4) . . .
44.3(35) . . .
32.8(31) . . .
29.9(30) . . .
42(4) . . .
35.9(32) . . .
39.9(33) . . .
48(4) . . .
37.3(33) . . .
51(4) . . .
40.7(34) . . .
42.5(34) . . .
43.0(35) . . .
37.1(32) . . .
35.5(30) . . .
40.3(33) . . .
42.2(34) . . .
44(4) . . .
35.5(31) . . .
40.4(34) . . .
40.3(34) . . .
39.7(33) . . .
35.8(34) . . .
39.4(34) . . .
40(4) . . .
39.0(32) . . .
33.8(30) . . .
40(4) . . .
37.4(34) . . .
37.7(33) . . .
43(4) . . .
43.8(35) . . .
46(4) . . .
38.1(34) . . .
41.0(35) . . .
31.6(29) . . .
28.0(27) . . .
34.1(32) . . .
43(4) . . .
40.9(34) . . .
37.8(34) . . .
43.1(34) . . .
35.8(32) . . .
37.9(34) . . .
42.6(35) . . .
50(4) . . .
35.7(32) . . .
47(4) . . .
35.8(32) . . .
41.9(35) . . .
34.1(31) . . .
39.8(34) . . .
37.8(33) . . .
39.5(33) . . .
33.5(30) . . .
31.2(30) . . .
44.7(35) . . .
38.2(34) . . .
38(4) . . .
44(4) . . .
34.3(31) . . .
36.9(31) . . .
34.7(32) . . .
30.6(28) . . .
34.2(33) . . .
31.8(29) . . .
34.7(32) . . .
33.5(32) . . .
34.7(32) . . .
40.8(34) . . .
44.1(35) . . .
46(4) . . .
43(4) . . .
38.3(33) . . .
40.3(33) . . .
38.3(32) . . .
34.4(30) . . .
44(4) . . .
41(4) . . .
47(4) . . .
42.5(34) . . .
33.8(32) . . .
39(4) . . .
40.5(34) . . .
43(4) . . .
44(4) . . .
34.6(31) . . .
38.0(34) . . .
38.2(35) . . .
34.5(30) . . .
40.8(33) . . .
37.4(33) . . .
39(4) . . .
45(4) . . .
38.0(32) . . .
46(4) . . .
43.9(35) . . .
51(4) . . .
40.5(35) . . .
34.3(30) . . .
40.3(33) . . .
44(4) . . .
31.8(33) . . .
36.9(34) . . .
34.1(30) . . .
45(4) . . .
40.5(33) . . .
51(4) . . .
45(4) . . .
45.3(34) . . .
38.2(34) . . .
35.8(34) . . .
41(4) . . .
41(4) . . .
40.9(33) . . .
39.3(35) . . .
30.9(29) . . .
32.8(31) . . .
37.3(33) . . .
38.5(32) . . .
35.5(31) . . .
42(4) . . .
37.6(33) . . .
40.7(34) . . .
44(4) . . .
30.7(29) . . .
36.1(32) . . .
41.0(34) . . .
37.6(33) . . .
45(4) . . .
35.9(32) . . .
28.7(29) . . .
32.6(31) . . .
38.0(33) . . .
36.7(32) . . .
38.5(34) . . .
49(4) . . .
39.1(33) . . .
30.0(28) . . .
43.5(34) . . .
40.0(33) . . .
37.2(33) . . .
39.6(34) . . .
40.1(34) . . .
46(4) . . .
35.1(32) . . .
41(4) . . .
37.2(34) . . .
32.2(30) . . .
47(4) . . .
49(4) . . .
50(4) . . .
43(4) . . .
34.2(31) . . .
46(4) . . .
39.7(34) . . .
36.4(32) . . .
40.0(33) . . .
31.0(29) . . .
33.8(31) . . .
21.7(27) . . .
27.5(29) . . .
39.0(34) . . .
47(4) . . .
41.6(34) . . .
34.5(31) . . .
35.2(34) . . .
43(4) . . .
36.4(31) . . .
45(4) . . .
37.1(33) . . .
42(4) . . .
45(4) . . .
47(4) . . .
29.2(28) . . .
45(4) . . .
49(4) . . .
36.6(31) . . .
43.7(34) . . .
45(4) . . .
47(4) . . .
40.5(34) . . .
35.1(32) . . .
44(4) . . .
33.5(30) . . .
37.8(35) . . .
33.7(34) . . .
34.8(31) . . .
35.3(31) . . .
37.3(33) . . .
44(4) . . .
38.8(33) . . .
41.8(33) . . .
40.9(33) . . .
39.6(34) . . .
42(4) . . .
33.3(32) . . .
33.2(30) . . .
34.1(30) . . .
44(4) . . .
39(4) . . .
44(4) . . .
40.8(34) . . .
37.5(34) . . .
42.3(35) . . .
39.5(33) . . .
41.0(34) . . .
29.0(29) . . .
33.1(30) . . .
38.6(32) . . .
35.7(32) . . .
38.0(33) . . .
45.1(35) . . .
43(4) . . .
44(4) . . .
34.8(33) . . .
32.9(31) . . .
36.4(31) . . .
38.8(35) . . .
40.5(35) . . .
43(4) . . .
34.8(32) . . .
37.7(32) . . .
44(4) . . .
39.5(34) . . .
28.7(28) . . .
43.0(35) . . .
34.9(31) . . .
36.8(32) . . .
43(4) . . .
36.0(31) . . .
38.0(32) . . .
44.9(35) . . .
40(4) . . .
39(4) . . .
44(4) . . .
36.8(31) . . .
36.0(32) . . .
36.2(32) . . .
46(4) . . .
48(4) . . .
40.2(33) . . .
39.4(33) . . .
38.1(34) . . .
36.1(34) . . .
39.0(33) . . .
45.5(35) . . .
37.5(32) . . .
43.2(35) . . .
46(4) . . .
41.9(34) . . .
43.4(35) . . .
47(4) . . .
52(4) . . .
45(4) . . .
42.3(35) . . .
42.8(34) . . .
41.2(34) . . .
31.4(31) . . .
37.0(35) . . .
34.8(32) . . .
33.0(30) . . .
34.3(32) . . .
40(4) . . .
31.7(33) . . .
36.9(33) . . .
37.5(32) . . .
40.3(34) . . .
40.7(33) . . .
41.4(34) . . .
41(4) . . .
40.0(33) . . .
34.3(33) . . .
39(4) . . .
37.9(32) . . .
39.2(34) . . .
39.7(33) . . .
45(4) . . .
33.2(33) . . .
44(4) . . .
42.7(35) . . .
38.8(32) . . .
42.5(35) . . .
45(4) . . .
37.5(34) . . .
41.3(33) . . .
40.9(34) . . .
34.2(31) . . .
37.8(34) . . .
47(4) . . .
52(4) . . .
42.2(34) . . .
33.3(30) . . .
35.3(33) . . .
42(4) . . .
40.7(33) . . .
38.7(33) . . .
32.2(30) . . .
44(4) . . .
32.6(29) . . .
35.4(32) . . .
37.0(32) . . .
40.5(35) . . .
42.1(35) . . .
36.3(32) . . .
41.2(33) . . .
43.6(35) . . .
42(4) . . .
41.4(34) . . .
33.7(30) . . .
50(4) . . .
49(4) . . .
35.4(30) . . .
34.9(32) . . .
41.1(34) . . .
39.5(33) . . .
55(4) . . .
34.4(32) . . .
37.9(34) . . .
40(4) . . .
36.8(32) . . .
44(4) . . .
32.7(32) . . .
36.0(33) . . .
38.3(32) . . .
34.5(31) . . .
40(4) . . .
38(4) . . .
41.6(35) . . .
40.5(34) . . .
42.6(33) . . .
37.9(33) . . .
38.5(34) . . .
40(4) . . .
33.2(30) . . .
41.7(33) . . .
43.3(35) . . .
47(4) . . .
55(4) . . .
36.7(31) . . .
44.0(34) . . .
27.8(28) . . .
37(4) . . .
38.8(33) . . .
31.5(29) . . .
35.1(31) . . .
45(4) . . .
44(4) . . .
33.8(32) . . .
36.7(32) . . .
35.0(31) . . .
45(4) . . .
42(4) . . .
41(4) . . .
48(4) . . .
37.4(33) . . .
36.5(32) . . .
39.9(33) . . .
38.6(33) . . .
42.9(33) . . .
33.8(30) . . .
36.9(33) . . .
37.6(34) . . .
38.7(33) . . .
35.3(31) . . .
46(4) . . .
34.5(31) . . .
47(4) . . .
41.2(34) . . .
38.6(33) . . .
34.3(32) . . .
37.6(34) . . .
36.8(31) . . .
38.9(32) . . .
39.4(33) . . .
37.3(34) . . .
41(4) . . .
32.7(30) . . .
31.4(30) . . .
39.4(33) . . .
33.3(34) . . .
32.3(32) . . .
32.2(29) . . .
46(4) . . .
38.3(33) . . .
39(4) . . .
48(4) . . .
42.9(35) . . .
33.5(30) . . .
43.5(34) . . .
41.5(35) . . .
48(4) . . .
38.5(34) . . .
40.8(33) . . .
33.0(30) . . .
33.7(32) . . .
31.2(31) . . .
30.8(30) . . .
31.8(30) . . .
40.2(34) . . .
39.7(35) . . .
34.7(32) . . .
35.2(32) . . .
33.5(31) . . .
40.9(33) . . .
44(4) . . .
39(4) . . .
28.7(30) . . .
45(4) . . .
39.7(33) . . .
36.8(33) . . .
37.6(33) . . .
46(4) . . .
42.0(34) . . .
35.3(31) . . .
41.3(34) . . .
39.6(34) . . .
39.9(33) . . .
36.5(31) . . .
36.8(33) . . .
44(4) . . .
46(4) . . .
33.4(30) . . .
31.1(28) . . .
41.3(35) . . .
42(4) . . .
32.5(31) . . .
33.2(30) . . .
42.5(35) . . .
39.7(33) . . .
41(4) . . .
35.2(31) . . .
43(4) . . .
36.9(32) . . .
32.8(30) . . .
38.6(34) . . .
43(4) . . .
40.8(33) . . .
32.5(30) . . .
42.3(35) . . .
40(4) . . .
37.7(33) . . .
50(4) . . .
43.3(34) . . .
36.7(32) . . .
46(4) . . .
46(4) . . .
38.7(32) . . .
37.1(32) . . .
38.2(35) . . .
39.7(35) . . .
36.8(33) . . .
48(4) . . .
39.2(32) . . .
48(4) . . .
43.3(34) . . .
48(4) . . .
42.0(34) . . .
43.7(34) . . .
36.8(33) . . .
41(4) . . .
46(4) . . .
34.4(31) . . .
36.4(31) . . .
35.6(33) . . .
39.1(34) . . .
35.2(31) . . .
36.5(32) . . .
33.3(30) . . .
37.7(34) . . .
40.5(33) . . .
47(4) . . .
45(4) . . .
38.5(35) . . .
42(4) . . .
39.5(33) . . .
45.0(35) . . .
47(4) . . .
36.8(31) . . .
41(4) . . .
32.1(31) . . .
43.3(34) . . .
40.6(34) . . .
38.4(32) . . .
48(4) . . .
50(4) . . .
38.7(33) . . .
40.8(33) . . .
34.5(31) . . .
37.0(34) . . .
30.8(27) . . .
37.5(32) . . .
33.5(31) . . .
36.4(34) . . .
28.9(31) . . .
37.4(34) . . .
40.3(33) . . .
45.2(35) . . .
43(4) . . .
40.3(35) . . .
40(4) . . .
29.7(29) . . .
47(4) . . .
42.7(35) . . .
36.8(33) . . .
39(4) . . .
45.2(35) . . .
38.5(32) . . .
33.8(30) . . .
34.3(31) . . .
37.2(31) . . .
38.1(32) . . .
35.0(31) . . .
45(4) . . .
32.0(31) . . .
34.4(31) . . .
44.2(35) . . .
34.9(31) . . .
39.0(33) . . .
32.8(30) . . .
40.5(34) . . .
38.7(33) . . .
40.8(34) . . .
43(4) . . .
36.6(32) . . .
36.3(33) . . .
31.0(28) . . .
41.6(34) . . .
46(4) . . .
46(4) . . .
45(4) . . .
41.1(33) . . .
40.9(33) . . .
39(4) . . .
38.9(33) . . .
43.3(34) . . .
40.4(33) . . .
32.8(31) . . .
34.1(33) . . .
36.6(33) . . .
41.4(33) . . .
41.3(33) . . .
44(4) . . .
41(4) . . .
39.3(34) . . .
32.4(29) . . .
43(4) . . .
51(4) . . .
32.5(30) . . .
41.1(35) . . .
38.9(32) . . .
45(4) . . .
44(4) . . .
32.3(29) . . .
42.3(35) . . .
46(4) . . .
35.1(30) . . .
32.2(32) . . .
37.5(34) . . .
43.0(34) . . .
41.5(34) . . .
32.3(30) . . .
31.5(31) . . .
33.5(33) . . .
32.9(31) . . .
36.9(32) . . .
41.8(34) . . .
37.5(33) . . .
36.0(33) . . .
32.8(31) . . .
40.2(33) . . .
39.9(33) . . .
42.5(35) . . .
43(4) . . .
42.4(34) . . .
46(4) . . .
42(4) . . .
43(4) . . .
40.8(34) . . .
36.7(31) . . .
38.6(33) . . .
35.7(32) . . .
31.4(31) . . .
36.0(32) . . .
41.7(33) . . .
42.9(34) . . .
37.4(32) . . .
39.2(34) . . .
37.5(34) . . .
35.3(31) . . .
35.9(31) . . .
34.8(32) . . .
32.7(32) . . .
34.2(31) . . .
37.9(32) . . .
35.3(30) . . .
36.2(34) . . .
37.3(34) . . .
41(4) . . .
43.8(35) . . .
38.8(33) . . .
38(4) . . .
37.1(34) . . .
40.0(34) . . .
34.5(31) . . .
36.4(32) . . .
45(4) . . .
39.0(34) . . .
44(4) . . .
46(4) . . .
38.2(32) . . .
43(4) . . .
44(4) . . .
48(4) . . .
27.6(27) . . .
36.4(32) . . .
33.8(31) . . .
32.1(32) . . .
36.1(33) . . .
37.8(32) . . .
47(4) . . .
40.5(35) . . .
45(4) . . .
39.4(33) . . .
41.8(33) . . .
47(4) . . .
41(4) . . .
41.1(35) . . .
28.7(28) . . .
44.0(35) . . .
34.3(31) . . .
32.6(33) . . .
32.9(32) . . .
41.5(34) . . .
40.0(33) . . .
40(4) . . .
38(4) . . .
36.8(33) . . .
36.7(31) . . .
40.7(33) . . .
32.5(30) . . .
49(4) . . .
38.1(33) . . .
39.0(34) . . .
42.8(34) . . .
32.7(30) . . .
34.9(32) . . .
37.9(33) . . .
30.2(29) . . .
36.2(32) . . .
49(4) . . .
34.2(31) . . .
41.1(34) . . .
40.4(33) . . .
37.5(33) . . .
37.9(34) . . .
33.6(33) . . .
31.7(31) . . .
41.1(34) . . .
48(4) . . .
48(4) . . .
40.1(34) . . .
38.9(33) . . .
43.2(34) . . .
45(4) . . .
41.2(34) . . .
40(4) . . .
39.6(34) . . .
43.9(34) . . .
46(4) . . .
38.9(34) . . .
36.8(33) . . .
44(4) . . .
48(4) . . .
42(4) . . .
41(4) . . .
37.5(32) . . .
36.5(31) . . .
29.6(28) . . .
30.3(29) . . .
31.6(34) . . .
33.1(35) . . .
34.7(31) . . .
39.2(32) . . .
42.5(34) . . .
36.9(35) . . .
34.7(31) . . .
41.1(33) . . .
42.2(34) . . .
40.5(34) . . .
37.2(34) . . .
40.5(35) . . .
46(4) . . .
36.5(32) . . .
34.5(32) . . .
41(4) . . .
40(4) . . .
35.0(30) . . .
36.8(32) . . .
26.5(26) . . .
28.7(30) . . .
37.7(33) . . .
35.7(31) . . .
37.8(33) . . .
39.7(34) . . .
38.5(33) . . .
49(4) . . .
40.3(35) . . .
47(4) . . .
32.2(28) . . .
34.4(31) . . .
36.1(35) . . .
30.6(29) . . .
31.2(31) . . .
38.5(34) . . .
41.0(34) . . .
41.1(34) . . .
38.9(33) . . .
45(4) . . .
42(4) . . .
33.1(32) . . .
37.3(32) . . .
43.1(35) . . .
42(4) . . .
40(4) . . .
33.6(32) . . .
29.4(28) . . .
39.4(32) . . .
41.2(35) . . .
44(4) . . .
37(4) . . .
31.9(31) . . .
36.6(31) . . .
35.3(31) . . .
35.6(32) . . .
42(4) . . .
35.1(31) . . .
34.0(30) . . .
42(4) . . .
38.6(35) . . .
46(4) . . .
36.6(31) . . .
35.0(31) . . .
41(4) . . .
34.8(32) . . .
46(4) . . .
42.2(35) . . .
36.2(31) . . .
35.2(33) . . .
30.8(30) . . .
38.4(33) . . .
43.7(34) . . .
32.4(30) . . .
29.7(29) . . .
37.6(34) . . .
34.3(30) . . .
40.0(34) . . .
39.9(33) . . .
34.8(30) . . .
42(4) . . .
32.1(31) . . .
35.6(32) . . .
43(4) . . .
42(4) . . .
33.1(32) . . .
39.8(35) . . .
33.6(30) . . .
35.8(32) . . .
29.6(28) . . .
28.6(27) . . .
34.2(30) . . .
33.8(31) . . .
36.0(32) . . .
38.2(33) . . .
39.2(32) . . .
46(4) . . .
36.4(31) . . .
30.1(30) . . .
39.8(33) . . .
46(4) . . .
40.3(34) . . .
43.8(35) . . .
48(4) . . .
35.9(34) . . .
39(4) . . .
41.8(34) . . .
37.3(32) . . .
44(4) . . .
40(4) . . .
43(4) . . .
40.2(33) . . .
36.0(31) . . .
43(4) . . .
40.0(35) . . .
43(4) . . .
33.2(30) . . .
39.7(33) . . .
33.8(32) . . .
39(4) . . .
35.1(31) . . .
32.3(29) . . .
31.3(31) . . .
38.5(32) . . .
45(4) . . .
38.5(35) . . .
41.3(34) . . .
47(4) . . .
30.2(28) . . .
33.6(32) . . .
29.8(30) . . .
48(4) . . .
37.3(32) . . .
45(4) . . .
41.8(34) . . .
36.3(32) . . .
33.1(30) . . .
35.1(31) . . .
33.1(30) . . .
30.1(29) . . .
42.8(34) . . .
40.3(33) . . .
48(4) . . .
36.9(33) . . .
43(4) . . .
35.3(34) . . .
28.8(28) . . .
43(4) . . .
36.1(31) . . .
43(4) . . .
33.0(31) . . .
34.1(31) . . .
38.8(35) . . .
38(4) . . .
35.1(31) . . .
39.6(32) . . .
44.3(35) . . .
36.0(31) . . .
33.7(32) . . .
39(4) . . .
45(4) . . .
34.2(31) . . .
40.3(35) . . .
37.3(33) . . .
37.3(32) . . .
34.1(30) . . .
46(4) . . .
43(4) . . .
30.7(30) . . .
41.6(34) . . .
30.6(29) . . .
42.5(34) . . .
40.4(34) . . .
33.2(30) . . .
46(4) . . .
45.7(35) . . .
38.3(33) . . .
41(4) . . .
38.3(33) . . .
36.8(32) . . .
48(4) . . .
48(4) . . .
46(4) . . .
36.6(32) . . .
36.8(31) . . .
38.6(33) . . .
35.3(31) . . .
39.9(34) . . .
39.9(34) . . .
37.6(33) . . .
56(4) . . .
44(4) . . .
42(4) . . .
33.0(30) . . .
33.0(31) . . .
45(4) . . .
44(4) . . .
42(4) . . .
36.3(33) . . .
35.4(33) . . .
37.0(32) . . .
27.9(28) . . .
38.3(35) . . .
34.0(31) . . .
34.7(31) . . .
30.8(29) . . .
40.4(34) . . .
39.4(34) . . .
36.7(35) . . .
42.3(34) . . .
26.7(28) . . .
35.0(31) . . .
38.4(34) . . .
49(4) . . .
46(4) . . .
41.3(34) . . .
44.6(35) . . .
39.1(35) . . .
38.7(34) . . .
36.2(32) . . .
40.0(33) . . .
40.4(34) . . .
41(4) . . .
45(4) . . .
46(4) . . .
45.5(35) . . .
35.8(32) . . .
36.5(34) . . .
47(4) . . .
37.2(32) . . .
41.7(34) . . .
48(4) . . .
39(4) . . .
39.2(34) . . .
44(4) . . .
41.8(35) . . .
35.1(32) . . .
34.6(32) . . .
42(4) . . .
36.4(32) . . .
42.2(35) . . .
38.6(33) . . .
42(4) . . .
36.4(33) . . .
31.9(29) . . .
45(4) . . .
38(4) . . .
43(4) . . .
36.7(31) . . .
38.2(32) . . .
34.6(31) . . .
34.0(31) . . .
39.1(34) . . .
35.8(31) . . .
35.6(31) . . .
34.2(32) . . .
37.0(35) . . .
36.2(32) . . .
41.8(35) . . .
35.8(31) . . .
40.5(33) . . .
41(4) . . .
36.7(31) . . .
36.2(31) . . .
41.6(33) . . .
34.9(31) . . .
33.0(30) . . .
37.7(32) . . .
46(4) . . .
38.2(33) . . .
35.4(32) . . .
48(4) . . .
40.8(34) . . .
39.3(33) . . .
37.6(32) . . .
42(4) . . .
36.2(32) . . .
38.8(32) . . .
34.4(31) . . .
27.0(27) . . .
34.2(33) . . .
31.5(30) . . .
36.8(32) . . .
44.2(35) . . .
37.3(32) . . .
40(4) . . .
39.5(34) . . .
34.2(32) . . .
39.4(32) . . .
45(4) . . .
41(4) . . .
31.1(32) . . .
36.6(32) . . .
28.8(28) . . .
32.1(30) . . .
45(4) . . .
45.4(35) . . .
44.3(35) . . .
35.5(32) . . .
44(4) . . .
44(4) . . .
35.6(30) . . .
44.2(35) . . .
35.0(31) . . .
35.9(33) . . .
46(4) . . .
40.7(32) . . .
37.7(32) . . .
34.8(31) . . .
34.9(32) . . .
46(4) . . .
42(4) . . .
36.6(31) . . .
41.4(34) . . .
46(4) . . .
38(4) . . .
36.6(33) . . .
36.1(31) . . .
30.2(29) . . .
23.4(28) . . .
27.9(29) . . .
35.1(32) . . .
35.5(31) . . .
32.1(30) . . .
32.8(31) . . .
39(4) . . .
34.6(31) . . .
38.6(32) . . .
41.5(33) . . .
42.4(34) . . .
42(4) . . .
42(4) . . .
32.6(29) . . .
46(4) . . .
39.6(34) . . .
33.5(32) . . .
34.7(32) . . .
33.0(30) . . .
35.9(32) . . .
35.7(31) . . .
34.2(33) . . .
43(4) . . .
27.3(27) . . .
33.8(32) . . .
40(4) . . .
49(4) . . .
39.5(34) . . .
36.4(32) . . .
38.0(32) . . .
49(4) . . .
43(4) . . .
39.7(33) . . .
38.8(32) . . .
39.1(34) . . .
37.7(34) . . .
41.2(34) . . .
45.7(35) . . .
36.7(31) . . .
46(4) . . .
40.3(34) . . .
29.7(28) . . .
31.9(29) . . .
34.3(31) . . .
35.5(32) . . .
37.0(34) . . .
36.4(32) . . .
37.0(31) . . .
32.8(29) . . .
39.8(34) . . .
52(4) . . .
47(4) . . .
39.2(33) . . .
40.6(33) . . .
37.5(33) . . .
34.7(33) . . .
41(4) . . .
38.3(33) . . .
33.4(30) . . .
36.8(33) . . .
42(4) . . .
38(4) . . .
36.2(31) . . .
43.9(35) . . .
35.8(33) . . .
30.9(31) . . .
25.7(27) . . .
41.9(34) . . .
38.9(33) . . .
35.8(31) . . .
33.9(30) . . .
40.9(34) . . .
30.6(29) . . .
37.5(33) . . .
36.8(34) . . .
34.4(31) . . .
41.5(33) . . .
40.1(33) . . .
32.0(29) . . .
45(4) . . .
39.7(34) . . .
40.3(35) . . .
30.8(29) . . .
34.9(31) . . .
45(4) . . .
29.8(27) . . .
37.2(31) . . .
41.4(33) . . .
38.9(35) . . .
41(4) . . .
32.7(30) . . .
49(4) . . .
35.1(31) . . .
36.3(33) . . .
35.7(35) . . .
31.3(29) . . .
34.5(32) . . .
33.3(31) . . .
42(4) . . .
41(4) . . .
34.5(31) . . .
40.6(33) . . .
34.0(30) . . .
36.5(33) . . .
37.4(34) . . .
32.9(30) . . .
36.6(33) . . .
37.7(32) . . .
36.8(32) . . .
30.4(29) . . .
40.7(34) . . .
39.2(32) . . .
41.6(34) . . .
37.2(33) . . .
35.4(31) . . .
46(4) . . .
45.8(35) . . .
34.9(30) . . .
35.3(32) . . .
35.2(31) . . .
38.9(33) . . .
35.8(31) . . .
39.0(34) . . .
39.9(34) . . .
36.0(33) . . .
44(4) . . .
38.9(33) . . .
32.9(33) . . .
41(4) . . .
32.9(31) . . .
46(4) . . .
39.0(33) . . .
41.8(34) . . .
42.3(35) . . .
40.1(34) . . .
34.9(31) . . .
40.6(33) . . .
34.3(31) . . .
34.7(34) . . .
44(4) . . .
35.6(31) . . .
33.8(30) . . .
37.8(32) . . .
40(4) . . .
39.9(33) . . .
53(4) . . .
33.0(30) . . .
34.8(30) . . .
28.8(30) . . .
41(4) . . .
45.5(35) . . .
33.9(31) . . .
34.9(30) . . .
43(4) . . .
45(4) . . .
36.3(32) . . .
32.4(31) . . .
34.7(32) . . .
42(4) . . .
42.5(35) . . .
46(4) . . .
34.1(31) . . .
26.2(26) . . .
45(4) . . .
38.6(34) . . .
40.8(33) . . .
35.2(32) . . .
44(4) . . .
31.4(30) . . .
38.7(34) . . .
41.4(34) . . .
38.4(33) . . .
38.5(34) . . .
38.9(34) . . .
45(4) . . .
37.6(31) . . .
35.1(31) . . .
35.4(35) . . .
33.2(31) . . .
40.2(34) . . .
37.4(32) . . .
42.2(35) . . .
44(4) . . .
37.0(33) . . .
37.1(33) . . .
33.8(30) . . .
37.4(31) . . .
33.7(31) . . .
45(4) . . .
38.9(32) . . .
37.6(32) . . .
38.0(33) . . .
36.8(34) . . .
29.2(28) . . .
34.4(30) . . .
30.8(29) . . .
43(4) . . .
33.9(31) . . .
37.2(33) . . .
37.8(32) . . .
36.5(35) . . .
32.4(30) . . .
32.2(30) . . .
39.0(34) . . .
43.8(34) . . .
29.2(29) . . .
38.0(33) . . .
43(4) . . .
37.7(33) . . .
39.0(33) . . .
39.1(32) . . .
43.3(35) . . .
39(4) . . .
34.8(32) . . .
36.4(31) . . .
32.5(30) . . .
41(4) . . .
33.9(31) . . .
45(4) . . .
33.9(31) . . .
40.6(33) . . .
42.6(34) . . .
30.6(29) . . .
29.5(28) . . .
28.1(28) . . .
38.8(32) . . .
35.4(32) . . .
45(4) . . .
40.2(33) . . .
36.9(32) . . .
36.9(34) . . .
39(4) . . .
44(4) . . .
35.1(31) . . .
35.7(31) . . .
31.5(29) . . .
40.0(35) . . .
33.8(31) . . .
37.8(32) . . .
43.7(34) . . .
36.3(32) . . .
27.7(28) . . .
37.3(33) . . .
38.9(32) . . .
43.2(34) . . .
46(4) . . .
34.2(33) . . .
32.1(30) . . .
35.9(32) . . .
36.6(32) . . .
46(4) . . .
35(4) . . .
41(4) . . .
34.6(30) . . .
41.1(34) . . .
47(4) . . .
33.8(31) . . .
39.4(34) . . .
32.9(31) . . .
37.3(32) . . .
42(4) . . .
37.4(34) . . .
38.5(33) . . .
35.5(31) . . .
45(4) . . .
48(4) . . .
42(4) . . .
38.5(34) . . .
40.8(34) . . .
37.5(32) . . .
41(4) . . .
31.8(30) . . .
37.8(32) . . .
50(4) . . .
44(4) . . .
42(4) . . .
39.0(34) . . .
31.7(30) . . .
30.4(29) . . .
29.8(29) . . .
44(4) . . .
33.8(31) . . .
38.9(33) . . .
34.9(31) . . .
33.8(32) . . .
40(4) . . .
38.2(35) . . .
37.3(32) . . .
42.9(34) . . .
41.7(35) . . .
37.9(34) . . .
40.3(33) . . .
48(4) . . .
36.7(32) . . .
32.1(29) . . .
44(4) . . .
46(4) . . .
36.3(32) . . .
37.9(32) . . .
29.0(29) . . .
35.5(32) . . .
33.8(31) . . .
33.3(30) . . .
52(4) . . .
36.4(32) . . .
39(4) . . .
36.9(33) . . .
40.5(33) . . .
32.1(30) . . .
49(4) . . .
44(4) . . .
41.8(34) . . .
31.8(30) . . .
31.6(30) . . .
41(4) . . .
41.0(34) . . .
45.1(35) . . .
44.1(35) . . .
46(4) . . .
41(4) . . .
37.3(33) . . .
36.0(31) . . .
41.9(34) . . .
29.9(31) . . .
38(4) . . .
38.0(33) . . .
53(4) . . .
40.7(33) . . .
43(4) . . .
35.7(33) . . .
37.0(33) . . .
36.1(31) . . .
40.6(33) . . .
32.5(31) . . .
39.1(33) . . .
36.4(31) . . .
40.4(35) . . .
36.4(32) . . .
46(4) . . .
39.2(34) . . .
39.5(35) . . .
38.4(32) . . .
33.7(30) . . .
37.9(32) . . .
41(4) . . .
40.3(34) . . .
37.8(32) . . .
39.7(34) . . .
31.1(29) . . .
37.2(33) . . .
40.6(34) . . .
39.3(33) . . .
37.2(32) . . .
43(4) . . .
41(4) . . .
34.1(32) . . .
40.8(34) . . .
37.1(33) . . .
30.8(30) . . .
27.6(29) . . .
31.4(30) . . .
35.3(31) . . .
30.6(29) . . .
37.2(33) . . .
38.8(34) . . .
44(4) . . .
33.8(30) . . .
38.1(32) . . .
35.3(31) . . .
33.3(31) . . .
44(4) . . .
40.7(34) . . .
38.3(33) . . .
33.1(32) . . .
35.0(33) . . .
47(4) . . .
33.4(30) . . .
44(4) . . .
36.8(34) . . .
40.1(35) . . .
35.9(32) . . .
41.5(33) . . .
35.2(31) . . .
35.5(31) . . .
41.0(34) . . .
29.9(31) . . .
42.2(34) . . .
43(4) . . .
47(4) . . .
39(4) . . .
37.8(32) . . .
36.7(31) . . .
32.4(30) . . .
46(4) . . .
34.9(32) . . .
42.8(34) . . .
33.5(30) . . .
34.7(31) . . .
33.2(30) . . .
35.6(31) . . .
37.7(34) . . .
45(4) . . .
38.9(33) . . .
36.1(32) . . .
39.1(34) . . .
35.5(32) . . .
34.8(31) . . .
48(4) . . .
41.6(35) . . .
31.1(30) . . .
31.5(29) . . .
37.1(32) . . .
35.5(32) . . .
36.7(33) . . .
36.8(34) . . .
34.5(31) . . .
37.5(33) . . .
34.3(31) . . .
39(4) . . .
41(4) . . .
38.1(32) . . .
33.4(30) . . .
44(4) . . .
41.9(33) . . .
43.5(35) . . .
36.8(33) . . .
30.3(28) . . .
33.3(32) . . .
32.0(31) . . .
39.3(34) . . .
37.4(32) . . .
49(4) . . .
27.9(27) . . .
43(4) . . .
42.5(34) . . .
37.5(32) . . .
43.5(35) . . .
37.6(34) . . .
36.5(31) . . .
34.3(31) . . .
33.8(30) . . .
47(4) . . .
39.3(35) . . .
35.0(32) . . .
38.7(32) . . .
42.3(34) . . .
40.5(33) . . .
42(4) . . .
31.3(31) . . .
42.1(34) . . .
38.9(32) . . .
33.3(31) . . .
30.4(30) . . .
36.9(32) . . .
38.3(32) . . .
39.0(32) . . .
36.6(34) . . .
33.4(33) . . .
35.7(32) . . .
34.3(30) . . .
37.6(33) . . .
41.4(35) . . .
45(4) . . .
36.7(33) . . .
36.4(32) . . .
34.0(31) . . .
34.4(31) . . .
39.5(34) . . .
35.6(31) . . .
39.6(33) . . .
36.4(32) . . .
33.9(32) . . .
42(4) . . .
40.8(34) . . .
38.5(32) . . .
45(4) . . .
57(4) . . .
45(4) . . .
39.8(33) . . .
37.8(33) . . .
35.0(32) . . .
41.2(34) . . .
38.8(32) . . .
37.7(32) . . .
36.9(32) . . .
41.3(34) . . .
45(4) . . .
38.0(32) . . .
34.8(31) . . .
33.0(30) . . .
45(4) . . .
41(4) . . .
31.0(29) . . .
31.4(30) . . .
37.0(31) . . .
39.3(34) . . .
34.1(31) . . .
28.1(27) . . .
36.0(31) . . .
40.6(34) . . .
42.7(35) . . .
44(4) . . .
38(4) . . .
24.1(27) . . .
31.1(30) . . .
42(4) . . .
31.3(32) . . .
39.7(35) . . .
36.8(31) . . .
46(4) . . .
45(4) . . .
42(4) . . .
41.5(35) . . .
40.5(33) . . .
42.1(33) . . .
43(4) . . .
34.0(31) . . .
40(4) . . .
38.1(32) . . .
37.6(32) . . .
36.6(31) . . .
45(4) . . .
36.9(32) . . .
39.5(33) . . .
49(4) . . .
43.7(35) . . .
42.6(34) . . .
38.7(33) . . .
33.4(30) . . .
39.6(35) . . .
39(4) . . .
33.7(33) . . .
30.6(30) . . .
32.1(29) . . .
41.3(35) . . .
32.4(30) . . .
43.1(34) . . .
45(4) . . .
43.6(34) . . .
32.5(30) . . .
34.7(34) . . .
26.3(27) . . .
40.3(33) . . .
43(4) . . .
40.7(34) . . .
44(4) . . .
37.0(32) . . .
38.3(32) . . .
38.2(32) . . .
41(4) . . .
36.6(35) . . .
44.8(35) . . .
34.7(31) . . .
35.8(31) . . .
36.1(32) . . .
33.5(31) . . .
41(4) . . .
29.6(28) . . .
36.5(31) . . .
34.8(32) . . .
35.0(33) . . .
43(4) . . .
37.8(33) . . .
37.0(33) . . .
43.0(35) . . .
46(4) . . .
37.5(33) . . .
40.5(34) . . .
35.7(31) . . .
38.8(33) . . .
41.5(33) . . .
41.1(34) . . .
45(4) . . .
42.0(35) . . .
41.4(35) . . .
33.8(31) . . .
38.4(33) . . .
34.8(31) . . .
34.1(31) . . .
37.4(34) . . .
35.1(33) . . .
36.1(31) . . .
34.7(31) . . .
36.9(33) . . .
38.7(34) . . .
34.6(32) . . .
37.9(32) . . .
40.0(34) . . .
43(4) . . .
36.6(31) . . .
40.7(34) . . .
38.6(32) . . .
36.0(31) . . .
33.5(32) . . .
37.1(32) . . .
37.3(32) . . .
35.8(31) . . .
40.3(33) . . .
35.0(33) . . .
34.7(33) . . .
44(4) . . .
40.0(32) . . .
31.9(29) . . .
32.8(31) . . .
33.8(31) . . .
39.3(34) . . .
40.0(33) . . .
42.5(34) . . .
44.0(35) . . .
43.5(34) . . .
29.4(29) . . .
39.2(33) . . .
39.1(32) . . .
43(4) . . .
44(4) . . .
45(4) . . .
37.7(32) . . .
37.9(33) . . .
36.0(31) . . .
43(4) . . .
40.4(33) . . .
44.6(35) . . .
43.7(35) . . .
37.2(33) . . .
37.3(33) . . .
42.7(35) . . .
49(4) . . .
38.7(32) . . .
40(4) . . .
44(4) . . .
37.1(32) . . .
42.5(34) . . .
34.8(31) . . .
34.4(31) . . .
33.9(30) . . .
47(4) . . .
39.3(33) . . .
34.2(32) . . .
39(4) . . .
31.2(30) . . .
33.3(32) . . .
37.1(31) . . .
44(4) . . .
44(4) . . .
37.0(33) . . .
39.5(35) . . .
35.5(31) . . .
41.0(34) . . .
37.5(34) . . .
38.7(34) . . .
36.3(31) . . .
39.3(34) . . .
29.2(29) . . .
43(4) . . .
36.3(32) . . .
39.7(32) . . .
41.2(34) . . .
40.3(33) . . .
39(4) . . .
33.7(32) . . .
32.6(30) . . .
21.8(25) . . .
41.2(35) . . .
45(4) . . .
42(4) . . .
32.7(30) . . .
29.5(28) . . .
38.2(33) . . .
38.0(35) . . .
32.7(33) . . .
42.9(35) . . .
39.4(34) . . .
37.3(34) . . .
33.0(34) . . .
35.7(32) . . .
35.2(31) . . .
41.7(35) . . .
42(4) . . .
36.6(34) . . .
33.2(31) . . .
44.1(35) . . .
53(4) . . .
35.5(32) . . .
34.7(30) . . .
41.1(34) . . .
47(4) . . .
40(4) . . .
35.6(33) . . .
40.0(35) . . .
38.9(32) . . .
33.5(31) . . .
38.5(34) . . .
32.8(32) . . .
31.9(31) . . .
28.2(28) . . .
33.2(30) . . .
36.6(33) . . .
40(4) . . .
41.8(35) . . .
44.0(35) . . .
42.2(34) . . .
44(4) . . .
38.4(34) . . .
40(4) . . .
36.0(31) . . .
32.0(31) . . .
41.3(34) . . .
36.9(32) . . .
31.0(29) . . .
38.1(33) . . .
40.8(33) . . .
31.5(30) . . .
35.2(34) . . .
34.8(32) . . .
45.6(35) . . .
35.7(31) . . .
33.5(30) . . .
41(4) . . .
43.7(35) . . .
34.3(31) . . .
39.2(33) . . .
44(4) . . .
36.4(32) . . .
37.9(33) . . .
43.7(34) . . .
37.4(33) . . .
38.9(35) . . .
33.4(33) . . .
37.1(32) . . .
42.8(34) . . .
32.1(31) . . .
47(4) . . .
38.4(32) . . .
35.0(31) . . .
33.2(30) . . .
41.9(34) . . .
34.4(31) . . .
26.3(27) . . .
34.1(31) . . .
30.8(29) . . .
37.1(34) . . .
35.7(33) . . .
33.3(31) . . .
41.0(33) . . .
45(4) . . .
27.5(28) . . .
35.3(34) . . .
37.9(33) . . .
32.1(30) . . .
37.3(32) . . .
33.2(29) . . .
30.0(31) . . .
35.3(32) . . .
33.5(30) . . .
31.8(30) . . .
29.1(29) . . .
31.6(32) . . .
32.5(31) . . .
39.2(32) . . .
36.9(32) . . .
45(4) . . .
36(4) . . .
32.6(31) . . .
46(4) . . .
48(4) . . .
39(4) . . .
30.4(32) . . .
32.0(31) . . .
30.1(30) . . .
44.9(35) . . .
37.4(34) . . .
42(4) . . .
38.1(32) . . .
39.4(33) . . .
40.2(34) . . .
34.7(32) . . .
35.2(33) . . .
37.8(35) . . .
45.5(35) . . .
37.4(34) . . .
42(4) . . .
38.7(32) . . .
39.0(33) . . .
30.4(29) . . .
40(4) . . .
37.2(33) . . .
41(4) . . .
29.8(28) . . .
32.3(29) . . .
33.3(30) . . .
36.6(34) . . .
48(4) . . .
37.4(32) . . .
38.3(32) . . .
33.8(31) . . .
44(4) . . .
45(4) . . .
33.0(31) . . .
35.8(31) . . .
37.8(32) . . .
40(4) . . .
34.2(31) . . .
40.2(34) . . .
40.5(33) . . .
40.7(33) . . .
45(4) . . .
35.6(32) . . .
36.0(31) . . .
33.8(30) . . .
40(4) . . .
40(4) . . .
35.7(32) . . .
39.9(33) . . .
52(4) . . .
40(4) . . .
31.2(32) . . .
29.7(30) . . .
34.5(30) . . .
40.6(34) . . .
33.4(31) . . .
34.1(34) . . .
37.3(32) . . .
40.4(33) . . .
35.4(31) . . .
37.6(32) . . .
47(4) . . .
41.2(34) . . .
39.4(32) . . .
36.6(32) . . .
48(4) . . .
33.1(30) . . .
38.0(33) . . .
34.5(31) . . .
30.3(30) . . .
35.6(32) . . .
35.4(32) . . .
34.0(31) . . .
39.8(33) . . .
36.0(32) . . .
38.5(33) . . .
34.4(31) . . .
37.2(32) . . .
48(4) . . .
37.9(34) . . .
40(4) . . .
38.2(33) . . .
37.7(32) . . .
38.9(32) . . .
36.2(32) . . .
38.3(34) . . .
39.6(34) . . .
40.0(34) . . .
37.2(32) . . .
36.3(33) . . .
42(4) . . .
42.6(34) . . .
44.7(34) . . .
36.2(32) . . .
37.3(34) . . .
37.3(34) . . .
42(4) . . .
39.8(33) . . .
37.1(31) . . .
33.3(32) . . .
36.7(34) . . .
36.2(32) . . .
40.0(33) . . .
46(4) . . .
34.7(32) . . .
28.3(28) . . .
32.8(31) . . .
35.6(32) . . .
42.9(34) . . .
43(4) . . .
36.5(32) . . .
40(4) . . .
32.5(30) . . .
31.7(30) . . .
45(4) . . .
39.2(33) . . .
35.0(31) . . .
34.1(31) . . .
44.1(35) . . .
40.5(35) . . .
38.3(33) . . .
40.4(35) . . .
35.4(32) . . .
38.2(33) . . .
34.9(32) . . .
45(4) . . .
35.0(32) . . .
42.5(34) . . .
43(4) . . .
39.2(34) . . .
31.5(30) . . .
33.8(30) . . .
27.6(27) . . .
39.6(33) . . .
34.6(31) . . .
45(4) . . .
42.3(34) . . .
47(4) . . .
42(4) . . .
30.8(31) . . .
29.7(31) . . .
31.4(31) . . .
48(4) . . .
44(4) . . .
39.5(34) . . .
40.2(33) . . .
43.1(34) . . .
38.1(32) . . .
34.0(30) . . .
40.3(34) . . .
36.6(33) . . .
35.5(31) . . .
34.1(31) . . .
39.5(34) . . .
36.2(32) . . .
26.9(29) . . .
36.1(32) . . .
37.2(31) . . .
43.8(35) . . .
41.7(34) . . .
42(4) . . .
42.6(34) . . .
33.0(31) . . .
32.7(29) . . .
41.1(35) . . .
28.4(28) . . .
48(4) . . .
29.8(29) . . .
44(4) . . .
43.9(35) . . .
42.0(35) . . .
36.2(32) . . .
44(4) . . .
33.5(31) . . .
36.0(34) . . .
31.2(29) . . .
46(4) . . .
44(4) . . .
40(4) . . .
40.5(35) . . .
35.7(32) . . .
38.6(32) . . .
41(4) . . .
39(4) . . .
43(4) . . .
35.3(31) . . .
30.2(29) . . .
43.9(35) . . .
38.9(34) . . .
37.2(32) . . .
33.1(30) . . .
35.2(31) . . .
41(4) . . .
30.5(30) . . .
35.1(32) . . .
42.0(34) . . .
40.7(32) . . .
37.2(32) . . .
41.4(34) . . .
41(4) . . .
33.9(30) . . .
36.9(33) . . .
39.5(35) . . .
34.3(31) . . .
32.8(30) . . .
34.3(31) . . .
41.2(34) . . .
34.7(33) . . .
36.6(35) . . .
32.8(31) . . .
43.8(34) . . .
36.1(33) . . .
38(4) . . .
36.0(33) . . .
40(4) . . .
37.0(32) . . .
36.8(33) . . .
32.8(31) . . .
33.0(30) . . .
39(4) . . .
32.8(30) . . .
31.6(30) . . .
31.7(31) . . .
37.8(33) . . .
36.0(31) . . .
39.4(32) . . .
40.6(34) . . .
33.8(32) . . .
30.5(29) . . .
34.8(31) . . .
49(4) . . .
39.5(33) . . .
33.4(32) . . .
37.0(33) . . .
38.8(32) . . .
45.6(35) . . .
38.7(33) . . .
45(4) . . .
38.6(33) . . .
34.8(31) . . .
32.5(30) . . .
36.3(33) . . .
36.3(35) . . .
28.0(28) . . .
33.8(31) . . .
33.6(30) . . .
40.3(34) . . .
40.3(34) . . .
39.9(34) . . .
35.2(32) . . .
34.0(31) . . .
41(4) . . .
35.5(33) . . .
29.9(30) . . .
38.2(33) . . .
47(4) . . .
32.4(31) . . .
40(4) . . .
34.7(31) . . .
27.3(27) . . .
34.1(32) . . .
35.7(34) . . .
42(4) . . .
43.6(34) . . .
42.2(34) . . .
40.2(35) . . .
26.2(27) . . .
39(4) . . .
42.1(34) . . .
29.8(29) . . .
38.1(32) . . .
37.2(32) . . .
40.2(34) . . .
44(4) . . .
46(4) . . .
44(4) . . .
43(4) . . .
35.9(30) . . .
42.4(33) . . .
46.3(35) . . .
34.9(32) . . .
39(4) . . .
38.9(34) . . .
38.0(32) . . .
34.0(30) . . .
38.9(32) . . .
39.3(34) . . .
38(4) . . .
38.9(35) . . .
33.4(30) . . .
32.2(29) . . .
54(4) . . .
38.9(33) . . .
32.8(30) . . .
36.9(32) . . .
35.7(31) . . .
39.9(33) . . .
40.7(34) . . .
47(4) . . .
40.5(33) . . .
38.8(35) . . .
35.7(34) . . .
32.7(32) . . .
38.3(32) . . .
42(4) . . .
41(4) . . .
37.3(34) . . .
40.5(34) . . .
38.9(33) . . .
36.3(31) . . .
30.5(28) . . .
38.4(34) . . .
30.0(29) . . .
33.1(31) . . .
30.2(28) . . .
48(4) . . .
46(4) . . .
35.5(32) . . .
31.9(30) . . .
34.8(32) . . .
39.2(34) . . .
38.4(34) . . .
27.6(30) . . .
40.0(33) . . .
41(4) . . .
40(4) . . .
32.9(31) . . .
41(4) . . .
37.0(32) . . .
33.8(31) . . .
38(4) . . .
33.8(29) . . .
42.0(34) . . .
44.6(35) . . .
35.2(32) . . .
35.4(33) . . .
42(4) . . .
33.0(31) . . .
37.9(33) . . .
40.2(34) . . .
33.6(30) . . .
33.8(30) . . .
28.3(27) . . .
42.7(34) . . .
31.4(30) . . .
36.5(33) . . .
34.6(32) . . .
47(4) . . .
36.5(32) . . .
35.8(33) . . .
38.9(34) . . .
47(4) . . .
29.4(28) . . .
31.1(30) . . .
36.0(33) . . .
35.4(31) . . .
46(4) . . .
45(4) . . .
29.5(29) . . .
35.0(34) . . .
38.4(33) . . .
37.7(33) . . .
31.3(29) . . .
34.3(33) . . .
32.0(29) . . .
38.4(32) . . .
41.7(34) . . .
33.8(30) . . .
41.8(34) . . .
40(4) . . .
28.0(29) . . .
33.2(30) . . .
34.1(31) . . .
34.3(33) . . .
41(4) . . .
40(4) . . .
37.0(32) . . .
39.6(33) . . .
39.3(33) . . .
31.8(31) . . .
36.8(34) . . .
48(4) . . .
35.0(32) . . .
37.1(32) . . .
40(4) . . .
41.3(34) . . .
31.8(30) . . .
43(4) . . .
39.6(34) . . .
41(4) . . .
38(4) . . .
37.1(31) . . .
27.7(28) . . .
36.5(32) . . .
35.6(31) . . .
45(4) . . .
38.2(33) . . .
47(4) . . .
29.5(28) . . .
31.9(31) . . .
41.1(34) . . .
42.2(34) . . .
28.2(27) . . .
32.6(31) . . .
43(4) . . .
33.5(34) . . .
36.1(32) . . .
46.0(35) . . .
38.6(32) . . .
36.6(32) . . .
34.2(30) . . .
36.4(31) . . .
40(4) . . .
39.9(33) . . .
32.0(31) . . .
31.4(29) . . .
35.7(31) . . .
31.8(29) . . .
40.5(34) . . .
31.8(28) . . .
43.3(35) . . .
38.9(33) . . .
39(4) . . .
34.9(34) . . .
33.9(31) . . .
38.0(33) . . .
35.5(31) . . .
41.5(34) . . .
39(4) . . .
31.0(30) . . .
36.2(31) . . .
41.8(34) . . .
40.9(33) . . .
42(4) . . .
37.5(33) . . .
33.0(30) . . .
37.2(32) . . .
36.8(33) . . .
34.5(34) . . .
36.6(32) . . .
36.4(31) . . .
41.8(34) . . .
38.4(34) . . .
38.2(33) . . .
36.1(33) . . .
35.5(31) . . .
31.2(30) . . .
34.6(32) . . .
40(4) . . .
43(4) . . .
29.4(29) . . .
31.3(30) . . .
43(4) . . .
37(4) . . .
43(4) . . .
33.8(30) . . .
47(4) . . .
37.8(32) . . .
37.4(34) . . .
31.0(29) . . .
30.8(29) . . .
43.1(34) . . .
32.3(30) . . .
39.8(34) . . .
39.6(34) . . .
36.5(31) . . .
51(4) . . .
38(4) . . .
32.1(30) . . .
33.0(30) . . .
37.8(32) . . .
44(4) . . .
39.8(34) . . .
34.5(31) . . .
36.8(32) . . .
38.6(32) . . .
39.1(34) . . .
35.3(32) . . .
38.7(33) . . .
36.7(32) . . .
40.4(33) . . .
36.8(33) . . .
44(4) . . .
42(4) . . .
40.1(33) . . .
38.3(33) . . .
36.5(32) . . .
36.1(32) . . .
34.1(31) . . .
36.9(32) . . .
35.7(32) . . .
32.1(31) . . .
41(4) . . .
35.7(30) . . .
41.3(33) . . .
38.7(33) . . .
46(4) . . .
44.1(35) . . .
35.8(31) . . .
28.8(28) . . .
34.1(30) . . .
38.3(35) . . .
35.4(32) . . .
34.2(30) . . .
39.1(33) . . .
31.7(31) . . .
36.3(35) . . .
34.7(32) . . .
42(4) . . .
33.5(30) . . .
34.2(33) . . .
40(4) . . .
30.7(30) . . .
36.7(34) . . .
35.7(31) . . .
32.6(30) . . .
34.5(34) . . .
35.6(33) . . .
30.4(29) . . .
38.2(32) . . .
44(4) . . .
37.7(33) . . .
36.4(31) . . .
35.7(31) . . .
44.9(34) . . .
37.6(34) . . .
38.8(34) . . .
39.1(33) . . .
35.0(32) . . .
36.0(31) . . .
39.7(33) . . .
36.9(32) . . .
31.4(28) . . .
37.8(33) . . .
30.6(29) . . .
38.9(35) . . .
34.8(33) . . .
36.9(31) . . .
41.3(34) . . .
39.6(32) . . .
41(4) . . .
29.0(29) . . .
32.7(30) . . .
38.9(34) . . .
30.1(28) . . .
38.6(34) . . .
32.3(31) . . .
48(4) . . .
36.9(31) . . .
32.4(30) . . .
32.5(29) . . .
46(4) . . .
36.4(32) . . .
38.2(32) . . .
37.0(33) . . .
34.5(33) . . .
35.7(33) . . .
33.3(30) . . .
34.1(30) . . .
40.5(33) . . .
40.5(35) . . .
35.3(31) . . .
43(4) . . .
35.6(32) . . .
42.1(34) . . .
42.1(35) . . .
40(4) . . .
33.4(32) . . .
37.3(32) . . .
38.9(33) . . .
31.1(32) . . .
35.5(34) . . .
35.8(31) . . .
36.9(32) . . .
32.9(31) . . .
37.2(33) . . .
30.3(29) . . .
36.6(33) . . .
27.7(28) . . .
32.7(32) . . .
37.3(33) . . .
35.0(32) . . .
37.5(33) . . .
35.1(31) . . .
37.3(33) . . .
31.9(30) . . .
35.2(32) . . .
39.1(32) . . .
37.1(33) . . .
38.6(35) . . .
32.5(33) . . .
35.7(33) . . .
31.2(29) . . .
43(4) . . .
43(4) . . .
35.4(32) . . .
34.7(32) . . .
31.7(30) . . .
32.9(30) . . .
33.1(31) . . .
34.4(33) . . .
28.6(29) . . .
41.2(33) . . .
41.0(33) . . .
32.9(29) . . .
37.5(33) . . .
37.2(34) . . .
38.4(33) . . .
37.5(32) . . .
41(4) . . .
36.0(33) . . .
39.7(34) . . .
32.9(30) . . .
34.4(30) . . .
48(4) . . .
45(4) . . .
38.4(33) . . .
32.3(30) . . .
30.0(29) . . .
52(4) . . .
40(4) . . .
32.7(31) . . .
32.1(29) . . .
41(4) . . .
37.1(33) . . .
32.3(29) . . .
33.6(31) . . .
29.3(29) . . .
35.2(31) . . .
38.2(34) . . .
44(4) . . .
39.4(33) . . .
35.7(31) . . .
44(4) . . .
37.8(33) . . .
43(4) . . .
31.0(29) . . .
32.4(29) . . .
38.6(32) . . .
35.1(32) . . .
36.2(33) . . .
39.2(33) . . .
31.5(29) . . .
31.3(29) . . .
35.8(31) . . .
43.6(35) . . .
38.0(33) . . .
37.1(32) . . .
32.4(29) . . .
44(4) . . .
28.7(28) . . .
37.4(32) . . .
42.1(34) . . .
41(4) . . .
36.5(33) . . .
38.8(32) . . .
41.3(33) . . .
36.5(32) . . .
35.4(31) . . .
39.4(34) . . .
31.9(30) . . .
32.3(30) . . .
38.0(32) . . .
36.6(32) . . .
43(4) . . .
35.2(31) . . .
42.5(33) . . .
34.4(32) . . .
38.2(33) . . .
40.7(34) . . .
38.3(32) . . .
34.8(31) . . .
48(4) . . .
41(4) . . .
35.6(31) . . .
41.2(34) . . .
40.9(34) . . .
44(4) . . .
33.3(32) . . .
46(4) . . .
44.1(34) . . .
38.9(33) . . .
41(4) . . .
33.8(32) . . .
31.7(30) . . .
36.8(34) . . .
39.4(33) . . .
46(4) . . .
40.7(34) . . .
34.0(34) . . .
34.3(31) . . .
31.1(29) . . .
32.4(30) . . .
34.0(34) . . .
30.2(33) . . .
35.2(32) . . .
35.0(31) . . .
31.8(30) . . .
29.8(31) . . .
30.5(30) . . .
42.5(34) . . .
50(4) . . .
36.2(33) . . .
30.0(30) . . .
26.5(28) . . .
32.8(30) . . .
40.9(34) . . .
42.9(34) . . .
38.4(31) . . .
31.1(29) . . .
44.2(34) . . .
34.1(32) . . .
33.4(32) . . .
36.1(32) . . .
36.0(31) . . .
35.8(31) . . .
40.6(34) . . .
32.4(31) . . .
37.8(34) . . .
41(4) . . .
29.4(28) . . .
32.2(29) . . .
35.9(33) . . .
36.4(34) . . .
40.9(34) . . .
30.7(29) . . .
38.3(33) . . .
37.4(33) . . .
32.0(31) . . .
28.6(29) . . .
26.0(26) . . .
34.8(32) . . .
36.2(33) . . .
40.3(35) . . .
32.2(29) . . .
36.0(31) . . .
38.3(32) . . .
33.2(30) . . .
34.4(31) . . .
35.4(31) . . .
39.6(33) . . .
37.7(34) . . .
39.3(35) . . .
40.1(32) . . .
44(4) . . .
40.0(32) . . .
42(4) . . .
36.2(33) . . .
37.4(34) . . .
38.8(33) . . .
40.7(33) . . .
39.0(33) . . .
28.9(28) . . .
35.2(32) . . .
30.7(29) . . .
41.7(35) . . .
37.6(32) . . .
47(4) . . .
27.2(28) . . .
29.0(28) . . .
38.2(35) . . .
28.5(27) . . .
32.9(32) . . .
33.3(31) . . .
42.6(34) . . .
28.3(29) . . .
32.4(31) . . .
32.6(29) . . .
39.0(33) . . .
37.9(32) . . .
23.8(25) . . .
34.2(33) . . .
37.6(35) . . .
42(4) . . .
38.3(32) . . .
40(4) . . .
26.0(27) . . .
31.3(29) . . .
37.9(32) . . .
39.1(32) . . .
45(4) . . .
40.5(35) . . .
27.7(28) . . .
35.8(32) . . .
44.3(34) . . .
29.6(28) . . .
38.1(34) . . .
37.8(32) . . .
38.2(32) . . .
37.9(32) . . .
41.4(35) . . .
36.1(32) . . .
37.5(34) . . .
38.4(32) . . .
39.5(33) . . .
34.9(31) . . .
33.3(33) . . .
36.1(33) . . .
32.1(30) . . .
34.2(32) . . .
34.0(31) . . .
39(4) . . .
32.7(30) . . .
38.2(33) . . .
42.6(35) . . .
42.5(34) . . .
33.8(32) . . .
38.0(33) . . .
38.1(32) . . .
39.2(34) . . .
35.9(34) . . .
33.8(31) . . .
34.1(32) . . .
33.3(30) . . .
31.1(31) . . .
42(4) . . .
42(4) . . .
33.2(31) . . .
31.7(29) . . .
35.3(32) . . .
40.2(35) . . .
35.6(32) . . .
45(4) . . .
50(4) . . .
35.3(32) . . .
43(4) . . .
39.5(34) . . .
37.8(32) . . .
43.7(35) . . .
42(4) . . .
36.1(31) . . .
36.7(34) . . .
33.5(32) . . .
27.3(27) . . .
46(4) . . .
36.8(33) . . .
32.6(30) . . .
32.8(31) . . .
37.2(31) . . .
34.2(33) . . .
39.0(34) . . .
35.9(32) . . .
30.9(29) . . .
37.0(32) . . .
30.9(29) . . .
35.5(31) . . .
40.3(33) . . .
37.0(32) . . .
37.1(32) . . .
35.9(33) . . .
30.9(30) . . .
47(4) . . .
36.9(32) . . .
40.6(34) . . .
37.4(33) . . .
33.3(30) . . .
36.3(31) . . .
50(4) . . .
38.0(33) . . .
35.5(31) . . .
43(4) . . .
28.8(28) . . .
33.3(30) . . .
33.0(31) . . .
28.1(31) . . .
39(4) . . .
35.3(33) . . .
37.8(32) . . .
41.2(35) . . .
36.6(32) . . .
32.3(31) . . .
36.6(32) . . .
37.5(31) . . .
31.6(30) . . .
33.5(32) . . .
38(4) . . .
37.8(33) . . .
40.1(33) . . .
39.2(33) . . .
41(4) . . .
30.5(30) . . .
26.3(28) . . .
39.1(32) . . .
42.0(34) . . .
35.8(32) . . .
42.3(34) . . .
44(4) . . .
36.7(31) . . .
35.8(31) . . .
41(4) . . .
35.8(34) . . .
38.7(33) . . .
35.3(32) . . .
39.1(34) . . .
43(4) . . .
37.4(34) . . .
38.4(32) . . .
33.6(30) . . .
33.0(32) . . .
26.7(27) . . .
36.4(32) . . .
29.7(28) . . .
32.8(32) . . .
36.0(31) . . .
45(4) . . .
44(4) . . .
30.3(28) . . .
33.5(30) . . .
33.4(30) . . .
37.5(33) . . .
31.9(30) . . .
34.3(31) . . .
35.8(31) . . .
38.9(34) . . .
39(4) . . .
42.8(34) . . .
39.8(33) . . .
37.4(32) . . .
47(4) . . .
35.8(32) . . .
30.5(29) . . .
36.7(31) . . .
34.3(31) . . .
41(4) . . .
35.3(32) . . .
34.7(30) . . .
39.4(33) . . .
36.6(33) . . .
32.1(32) . . .
39.9(35) . . .
35.7(32) . . .
34.3(31) . . .
34.6(33) . . .
32.7(33) . . .
34.7(32) . . .
34.1(30) . . .
38.0(32) . . .
38.4(33) . . .
43(4) . . .
37.2(33) . . .
31.9(32) . . .
35.4(31) . . .
32.2(30) . . .
31.1(30) . . .
38.0(33) . . .
33.4(30) . . .
40.0(34) . . .
36.5(33) . . .
37.2(35) . . .
35.4(32) . . .
34.1(30) . . .
42(4) . . .
33.0(32) . . .
26.7(28) . . .
41.5(35) . . .
31.6(30) . . .
36.0(32) . . .
39.3(34) . . .
41(4) . . .
33.3(31) . . .
33.5(31) . . .
38.2(32) . . .
35.3(32) . . .
43(4) . . .
51(4) . . .
46(4) . . .
37.0(32) . . .
38.8(33) . . .
43(4) . . .
34.0(30) . . .
34.4(30) . . .
34.4(30) . . .
37.2(34) . . .
37.7(33) . . .
37.4(32) . . .
40.2(33) . . .
30.0(31) . . .
35(4) . . .
34.7(34) . . .
34.3(32) . . .
46(4) . . .
34.6(31) . . .
34.2(32) . . .
43(4) . . .
37.7(33) . . .
24.4(27) . . .
37.9(33) . . .
36.2(34) . . .
33.5(31) . . .
31.0(29) . . .
33.3(30) . . .
32.7(30) . . .
41(4) . . .
32.9(30) . . .
34.9(31) . . .
40.4(34) . . .
36.4(32) . . .
35.9(33) . . .
37.0(32) . . .
36.1(31) . . .
33.2(30) . . .
39(4) . . .
38(4) . . .
44(4) . . .
32.2(30) . . .
32.5(29) . . .
36.2(31) . . .
43(4) . . .
33.4(31) . . .
38.2(32) . . .
45(4) . . .
40.4(34) . . .
42(4) . . .
32.8(31) . . .
41.0(33) . . .
30.0(30) . . .
32.6(31) . . .
31.8(29) . . .
38.0(34) . . .
39.2(33) . . .
40.1(34) . . .
43(4) . . .
33.6(30) . . .
33.2(33) . . .
28.7(28) . . .
36.9(32) . . .
34.9(33) . . .
41.9(35) . . .
39.8(33) . . .
35.8(31) . . .
31.7(30) . . .
33.9(33) . . .
35.1(32) . . .
40.3(33) . . .
37.4(32) . . .
35.3(34) . . .
47(4) . . .
33.1(30) . . .
39.3(33) . . .
44.1(35) . . .
32.7(33) . . .
34.5(33) . . .
38.4(34) . . .
43(4) . . .
32.9(29) . . .
34.7(32) . . .
38.5(34) . . .
36.8(32) . . .
33.0(30) . . .
44.2(35) . . .
38.0(33) . . .
36.7(33) . . .
42.0(34) . . .
29.5(29) . . .
44(4) . . .
31.5(29) . . .
37.8(34) . . .
31.9(31) . . .
31.4(29) . . .
28.6(29) . . .
38.8(35) . . .
33.0(31) . . .
43(4) . . .
38.1(32) . . .
41.2(34) . . .
34.9(32) . . .
35.3(33) . . .
38.7(34) . . .
39.8(33) . . .
38.4(34) . . .
35.9(34) . . .
30.8(30) . . .
35.5(33) . . .
38.0(32) . . .
32.6(30) . . .
37.0(34) . . .
32.0(30) . . .
28.1(27) . . .
36.0(32) . . .
38.5(33) . . .
33.2(33) . . .
42.2(34) . . .
39.9(33) . . .
32.8(29) . . .
34.3(33) . . .
29.5(30) . . .
30.4(31) . . .
23.0(25) . . .
37.7(32) . . .
35.6(33) . . .
27.9(30) . . .
25.0(27) . . .
36.1(32) . . .
35.2(34) . . .
38.6(33) . . .
37.3(33) . . .
33.5(30) . . .
44.2(35) . . .
33.9(30) . . .
32.9(29) . . .
38.8(35) . . .
37.8(33) . . .
37.4(33) . . .
39.4(33) . . .
36.7(32) . . .
33.8(31) . . .
45(4) . . .
40.7(34) . . .
26.3(26) . . .
36.6(33) . . .
30.1(30) . . .
44(4) . . .
30.7(30) . . .
32.0(29) . . .
35.2(35) . . .
30.3(30) . . .
37.4(32) . . .
39.8(33) . . .
40.9(34) . . .
36.1(32) . . .
29.2(28) . . .
30.0(29) . . .
37.3(32) . . .
48(4) . . .
32.3(31) . . .
31.1(29) . . .
37.0(32) . . .
32.4(30) . . .
44(4) . . .
38.2(34) . . .
31.5(30) . . .
37.2(33) . . .
38.6(32) . . .
34.8(31) . . .
34.0(31) . . .
38.2(33) . . .
43(4) . . .
44.4(34) . . .
44(4) . . .
36.7(35) . . .
32.6(30) . . .
35.3(31) . . .
38.1(33) . . .
37.1(32) . . .
37.3(34) . . .
38.5(33) . . .
33.1(30) . . .
31.2(29) . . .
36.4(32) . . .
41.8(35) . . .
39.4(32) . . .
32.5(29) . . .
49(4) . . .
38.6(34) . . .
33.1(32) . . .
23.9(26) . . .
30.9(29) . . .
35.2(31) . . .
38.6(34) . . .
32.3(31) . . .
34.6(32) . . .
35.4(31) . . .
39.9(33) . . .
38.7(33) . . .
36.7(33) . . .
23.8(27) . . .
34.2(30) . . .
35.1(31) . . .
34.4(32) . . .
42(4) . . .
43.5(35) . . .
30.1(28) . . .
38.9(32) . . .
40.2(35) . . .
38.9(33) . . .
38.9(33) . . .
49(4) . . .
33.9(31) . . .
38.7(33) . . .
40.4(33) . . .
35.1(32) . . .
38.3(33) . . .
37.2(33) . . .
31.4(32) . . .
39.3(35) . . .
45(4) . . .
36.3(32) . . .
37.2(32) . . .
32.1(31) . . .
38.7(34) . . .
44(4) . . .
29.2(28) . . .
35.8(31) . . .
44(4) . . .
42.1(34) . . .
48(4) . . .
32.7(31) . . .
34.7(33) . . .
36.5(34) . . .
31.5(31) . . .
29.6(28) . . .
29.5(29) . . .
34.9(35) . . .
30.8(31) . . .
39.7(35) . . .
28.9(28) . . .
31.5(29) . . .
36.1(35) . . .
35.5(32) . . .
29.4(28) . . .
39.7(33) . . .
40.8(34) . . .
37.0(35) . . .
39(4) . . .
46(4) . . .
43.8(34) . . .
42(4) . . .
32.5(31) . . .
32.4(30) . . .
42(4) . . .
34.1(31) . . .
29.6(28) . . .
36.9(31) . . .
37.7(33) . . .
28.1(30) . . .
25.8(26) . . .
37.0(32) . . .
40(4) . . .
33.4(34) . . .
34.0(30) . . .
41.3(34) . . .
35.5(31) . . .
36.8(33) . . .
34.6(33) . . .
48(4) . . .
43.4(34) . . .
30.1(28) . . .
37(4) . . .
42(4) . . .
36.0(32) . . .
40.8(34) . . .
38.4(33) . . .
31.7(30) . . .
39.4(34) . . .
35.0(30) . . .
27.5(29) . . .
44(4) . . .
45(4) . . .
40(4) . . .
40.1(33) . . .
44.1(35) . . .
36.5(34) . . .
33.7(34) . . .
36.5(32) . . .
37.0(31) . . .
36.8(32) . . .
37.5(34) . . .
37.8(33) . . .
34.3(30) . . .
39.2(34) . . .
31.8(29) . . .
29.1(29) . . .
32.6(32) . . .
31.0(30) . . .
36.3(31) . . .
36.2(31) . . .
37.0(32) . . .
40.5(35) . . .
37.1(32) . . .
33.7(30) . . .
30.4(30) . . .
38.7(34) . . .
33.7(31) . . .
41.3(34) . . .
46(4) . . .
33.8(31) . . .
34.6(31) . . .
36.6(30) . . .
48(4) . . .
31.4(29) . . .
33.5(32) . . .
32.0(29) . . .
34.2(30) . . .
38.0(32) . . .
31.4(29) . . .
40.2(34) . . .
39(4) . . .
33.4(31) . . .
38.4(33) . . .
29.1(28) . . .
27.1(27) . . .
35.4(34) . . .
31.0(29) . . .
32.8(30) . . .
33.2(30) . . .
37.0(32) . . .
35.5(33) . . .
40.2(35) . . .
26.8(27) . . .
36.7(32) . . .
33.0(31) . . .
34.3(31) . . .
42(4) . . .
34.0(31) . . .
27.1(27) . . .
33.5(31) . . .
40(4) . . .
29.0(29) . . .
33.1(30) . . .
31.0(29) . . .
37.6(33) . . .
34.5(32) . . .
35.2(31) . . .
42.8(33) . . .
42(4) . . .
37.8(33) . . .
48(4) . . .
32.3(30) . . .
44(4) . . .
44(4) . . .
34.8(33) . . .
34.3(32) . . .
40(4) . . .
32.2(30) . . .
52(4) . . .
35.9(31) . . .
35.7(31) . . .
32.6(30) . . .
35.5(31) . . .
36.8(33) . . .
34.2(33) . . .
35.9(33) . . .
39.1(35) . . .
24.7(26) . . .
35.6(32) . . .
35.9(33) . . .
33.4(30) . . .
44(4) . . .
35.3(30) . . .
33.7(31) . . .
34.0(32) . . .
36.5(35) . . .
29.8(28) . . .
30.5(29) . . .
36.0(32) . . .
37.4(33) . . .
46(4) . . .
43.5(34) . . .
30.3(29) . . .
44(4) . . .
34.1(32) . . .
29.6(29) . . .
29.5(28) . . .
46(4) . . .
39.6(34) . . .
37.1(33) . . .
31.3(30) . . .
34.7(30) . . .
32.3(29) . . .
36.7(33) . . .
43(4) . . .
38.1(34) . . .
41.0(34) . . .
36.5(32) . . .
37.6(33) . . .
34.0(33) . . .
30.4(31) . . .
33.7(30) . . .
37.1(33) . . .
37.8(34) . . .
41.9(34) . . .
36.0(31) . . .
30.1(29) . . .
32.8(31) . . .
36.8(33) . . .
40.2(34) . . .
31.9(30) . . .
27.3(28) . . .
35.0(32) . . .
39.8(35) . . .
35.7(33) . . .
36.5(34) . . .
29.8(28) . . .
35.1(31) . . .
31.6(31) . . .
28.5(28) . . .
33.7(32) . . .
38.0(32) . . .
29.9(29) . . .
31.2(31) . . .
37.3(33) . . .
34.3(31) . . .
35.2(31) . . .
31.7(30) . . .
39(4) . . .
36.4(32) . . .
44(4) . . .
33.9(30) . . .
33.2(30) . . .
41(4) . . .
36.0(31) . . .
40.7(33) . . .
37.8(33) . . .
43(4) . . .
39(4) . . .
45(4) . . .
32.0(29) . . .
30.7(29) . . .
31.6(30) . . .
33.7(32) . . .
36.4(32) . . .
39.5(32) . . .
34.5(31) . . .
28.9(30) . . .
36.7(34) . . .
35.6(32) . . .
34.2(30) . . .
29.9(29) . . .
32.1(31) . . .
43(4) . . .
35.7(31) . . .
34.5(31) . . .
35.0(32) . . .
35.3(33) . . .
39.1(33) . . .
38.0(32) . . .
34.7(31) . . .
34.7(32) . . .
39(4) . . .
34.8(33) . . .
32.3(29) . . .
30.5(30) . . .
34.0(33) . . .
35.9(34) . . .
44(4) . . .
39.6(34) . . .
43.6(34) . . .
31.3(30) . . .
38(4) . . .
37.1(34) . . .
40.4(34) . . .
40.9(33) . . .
39.0(34) . . .
35.4(33) . . .
31.2(30) . . .
42.4(35) . . .
31.2(30) . . .
29.5(29) . . .
31.5(32) . . .
35.7(32) . . .
34.3(31) . . .
39.0(33) . . .
36.3(32) . . .
33.4(31) . . .
34.4(31) . . .
40.3(34) . . .
38.9(33) . . .
28.2(28) . . .
38(4) . . .
40.7(35) . . .
29.6(28) . . .
34.7(31) . . .
42.9(35) . . .
34.5(30) . . .
32.6(30) . . .
39.0(33) . . .
32.5(31) . . .
31.8(31) . . .
33.2(32) . . .
34.6(31) . . .
39.1(33) . . .
40.2(34) . . .
41(4) . . .
24.9(27) . . .
30.9(30) . . .
42.6(34) . . .
33.7(30) . . .
35.5(32) . . .
44(4) . . .
31.6(30) . . .
40.1(33) . . .
26.5(27) . . .
34.0(33) . . .
32.9(33) . . .
30.6(31) . . .
34.4(31) . . .
42.7(35) . . .
45(4) . . .
39.6(33) . . .
37.1(32) . . .
31.1(29) . . .
34.3(32) . . .
25.5(27) . . .
27.1(28) . . .
30.7(29) . . .
35.4(31) . . .
35.9(31) . . .
38.5(34) . . .
36.8(33) . . .
37.2(32) . . .
33.5(30) . . .
31.2(29) . . .
37(4) . . .
26.5(26) . . .
35.0(31) . . .
39.2(33) . . .
35.3(31) . . .
35.2(33) . . .
40.0(33) . . .
43.8(34) . . .
40.8(34) . . .
31.5(31) . . .
32.2(32) . . .
30.0(32) . . .
33.0(30) . . .
33.8(31) . . .
31.3(30) . . .
33.3(31) . . .
29.7(29) . . .
35.8(31) . . .
39.8(33) . . .
32.7(32) . . .
37(4) . . .
28.7(28) . . .
36.9(32) . . .
36.8(35) . . .
36.9(32) . . .
35.2(32) . . .
45(4) . . .
26.8(27) . . .
36.1(33) . . .
22.3(24) . . .
28.0(30) . . .
35.5(33) . . .
32.8(30) . . .
34.4(32) . . .
34.0(32) . . .
41(4) . . .
42.2(35) . . .
33.2(30) . . .
36.0(31) . . .
35.6(32) . . .
42(4) . . .
42.0(34) . . .
37.4(32) . . .
32.7(31) . . .
33.2(32) . . .
37.0(33) . . .
32.4(30) . . .
36.7(32) . . .
40.0(35) . . .
33.0(34) . . .
43(4) . . .
38.8(32) . . .
28.4(29) . . .
32.3(30) . . .
39(4) . . .
29.2(28) . . .
30.9(29) . . .
27.8(28) . . .
40.3(34) . . .
39.0(34) . . .
33.0(30) . . .
36.7(32) . . .
31.9(29) . . .
31.6(29) . . .
38.4(35) . . .
40(4) . . .
34.4(30) . . .
42.7(34) . . .
41.3(33) . . .
38.6(34) . . .
34.1(33) . . .
36.1(31) . . .
43(4) . . .
29.8(28) . . .
28.4(28) . . .
34.6(31) . . .
30.9(29) . . .
36.3(34) . . .
30.5(29) . . .
34.2(33) . . .
42.5(35) . . .
37.3(32) . . .
33.8(30) . . .
36.5(33) . . .
45(4) . . .
27.9(27) . . .
35.9(32) . . .
28.0(27) . . .
34.1(32) . . .
37.6(33) . . .
32.3(31) . . .
32.8(31) . . .
36.2(32) . . .
37.0(33) . . .
39(4) . . .
34.6(30) . . .
27.6(27) . . .
44(4) . . .
40(4) . . .
32.1(30) . . .
38.0(32) . . .
36.5(31) . . .
31.9(32) . . .
41(4) . . .
24.4(27) . . .
34.8(31) . . .
32.2(29) . . .
37.7(33) . . .
43(4) . . .
37.9(33) . . .
35.3(32) . . .
27.2(27) . . .
31.4(32) . . .
31.8(31) . . .
37.6(33) . . .
35.3(31) . . .
34.4(31) . . .
29.7(29) . . .
33.1(33) . . .
32.6(32) . . .
34.8(31) . . .
30.5(29) . . .
32.3(30) . . .
43.6(35) . . .
43(4) . . .
38.4(32) . . .
38.9(33) . . .
33.3(33) . . .
30.0(30) . . .
35.6(32) . . .
30.0(28) . . .
26.1(27) . . .
38.4(33) . . .
43.5(35) . . .
34.0(30) . . .
39.1(33) . . .
43(4) . . .
33.0(31) . . .
32.8(31) . . .
30.8(29) . . .
35.4(32) . . .
38.8(34) . . .
41(4) . . .
40.0(34) . . .
30.4(29) . . .
36.8(32) . . .
29.3(29) . . .
40(4) . . .
35.0(32) . . .
32.1(30) . . .
29.5(28) . . .
31.6(29) . . .
39.3(34) . . .
44(4) . . .
39.8(33) . . .
32.2(30) . . .
28.5(27) . . .
38.4(34) . . .
33.5(31) . . .
32.6(30) . . .
36.7(31) . . .
39.5(34) . . .
31.8(32) . . .
30.3(30) . . .
29.0(29) . . .
40.1(33) . . .
43(4) . . .
33.7(30) . . .
34.4(30) . . .
39.5(33) . . .
37.2(34) . . .
40(4) . . .
32.1(30) . . .
34.3(31) . . .
41.3(33) . . .
39.8(34) . . .
50(4) . . .
31.4(31) . . .
35.4(31) . . .
35.6(31) . . .
45(4) . . .
41(4) . . .
34.0(30) . . .
32.8(30) . . .
29.2(28) . . .
36.1(32) . . .
32.8(34) . . .
29.0(29) . . .
33.2(30) . . .
30.9(29) . . .
36.8(32) . . .
36.0(33) . . .
37.5(35) . . .
33.7(31) . . .
35.3(32) . . .
31.1(31) . . .
31.0(31) . . .
33.4(31) . . .
31.9(29) . . .
32.9(32) . . .
36.2(33) . . .
34.4(31) . . .
36.6(33) . . .
29.4(28) . . .
34.2(31) . . .
35.6(32) . . .
33.9(31) . . .
35.2(31) . . .
27.6(27) . . .
33.0(30) . . .
36.8(34) . . .
35.0(31) . . .
38.9(33) . . .
35.1(31) . . .
28.8(28) . . .
27.9(31) . . .
27.6(28) . . .
39.5(34) . . .
41.7(34) . . .
41(4) . . .
34.1(32) . . .
32.9(30) . . .
36.3(31) . . .
28.1(28) . . .
38.1(33) . . .
41.5(34) . . .
36.0(32) . . .
37.6(33) . . .
29.5(28) . . .
31.6(30) . . .
28.1(28) . . .
37.7(35) . . .
33.7(31) . . .
36.0(31) . . .
32.0(30) . . .
35.2(32) . . .
35.0(31) . . .
39.3(33) . . .
37.9(32) . . .
29.7(30) . . .
30.9(32) . . .
30.3(28) . . .
39.8(33) . . .
36.6(32) . . .
33.2(32) . . .
36.5(32) . . .
45(4) . . .
38.7(32) . . .
34.8(32) . . .
29.9(30) . . .
44(4) . . .
31.5(30) . . .
25.5(26) . . .
35.7(31) . . .
37.5(31) . . .
37.2(34) . . .
31.4(30) . . .
32.1(30) . . .
32.0(29) . . .
34.2(32) . . .
30.8(32) . . .
38.0(35) . . .
28.2(28) . . .
34.1(32) . . .
30.3(30) . . .
34.0(32) . . .
36.2(32) . . .
32.8(29) . . .
40.6(35) . . .
31.9(31) . . .
25.0(28) . . .
34.3(33) . . .
40.0(33) . . .
37.9(33) . . .
46(4) . . .
35.8(32) . . .
34.7(33) . . .
29.6(28) . . .
34.7(33) . . .
30.8(30) . . .
34.2(31) . . .
47(4) . . .
28.8(29) . . .
29.3(31) . . .
30.1(29) . . .
31.6(29) . . .
42.8(34) . . .
39.3(33) . . .
32.2(31) . . .
26.7(27) . . .
39(4) . . .
35.9(31) . . .
30.6(28) . . .
30.1(28) . . .
44(4) . . .
47(4) . . .
42.2(34) . . .
33.1(29) . . .
33.0(31) . . .
32.1(31) . . .
31.5(29) . . .
43.8(35) . . .
34.9(33) . . .
33.8(31) . . .
31.5(33) . . .
29.9(28) . . .
30.5(29) . . .
30.6(31) . . .
34.5(32) . . .
38.0(33) . . .
34.3(33) . . .
37.8(33) . . .
39.5(32) . . .
38.2(33) . . .
28.0(29) . . .
37(4) . . .
37.1(32) . . .
30.9(30) . . .
37.7(35) . . .
37.5(34) . . .
32.7(31) . . .
33.6(30) . . .
29.4(28) . . .
35.2(34) . . .
37(4) . . .
31.0(30) . . .
36.2(31) . . .
40.6(35) . . .
29.8(29) . . .
33.4(33) . . .
43(4) . . .
39.3(34) . . .
29.6(29) . . .
33.6(31) . . .
31.9(30) . . .
39.8(34) . . .
33.1(31) . . .
40.2(34) . . .
31.9(31) . . .
36.9(33) . . .
34.7(32) . . .
41.4(33) . . .
35.7(32) . . .
37(4) . . .
30.7(29) . . .
36.2(31) . . .
35.0(32) . . .
37.4(33) . . .
40(4) . . .
33.8(31) . . .
28.3(27) . . .
28.2(27) . . .
30.4(30) . . .
34.4(34) . . .
36(4) . . .
39.5(32) . . .
33.5(31) . . .
35.9(33) . . .
32.4(32) . . .
27.4(29) . . .
40.5(33) . . .
40.3(33) . . .
34.2(29) . . .
38.5(33) . . .
39.6(34) . . .
44.7(35) . . .
42.5(34) . . .
35.2(31) . . .
42(4) . . .
30.0(29) . . .
41.9(34) . . .
38.0(33) . . .
43(4) . . .
49(4) . . .
41.6(33) . . .
47(4) . . .
34.6(31) . . .
37.7(32) . . .
31.5(29) . . .
33.8(31) . . .
25.1(26) . . .
35.5(33) . . .
41.2(35) . . .
34.7(32) . . .
39.3(33) . . .
34.9(30) . . .
35.0(31) . . .
29.5(29) . . .
36.1(32) . . .
37.3(32) . . .
41.3(34) . . .
34.7(32) . . .
28.7(30) . . .
43(4) . . .
38.8(32) . . .
35.2(31) . . .
37.0(34) . . .
28.8(30) . . .
31.2(28) . . .
32.8(30) . . .
32.5(30) . . .
34.8(32) . . .
31.4(30) . . .
34.5(34) . . .
31.7(30) . . .
29.2(28) . . .
39.9(35) . . .
39(4) . . .
31.4(29) . . .
28.5(28) . . .
38.2(33) . . .
32.3(29) . . .
36.0(33) . . .
33.0(31) . . .
31.5(30) . . .
40.2(33) . . .
34.5(31) . . .
34.4(32) . . .
26.5(27) . . .
38.6(32) . . .
43(4) . . .
38.8(34) . . .
40.8(35) . . .
40.6(33) . . .
41.6(34) . . .
35.2(32) . . .
33.3(33) . . .
30.1(28) . . .
35.9(33) . . .
35.2(31) . . .
34.7(31) . . .
32.5(30) . . .
32.0(31) . . .
39.9(33) . . .
34.9(32) . . .
26.4(28) . . .
38(4) . . .
37.6(33) . . .
32.9(30) . . .
35.7(31) . . .
38.9(34) . . .
32.7(32) . . .
29.0(28) . . .
44(4) . . .
33.1(30) . . .
33.7(31) . . .
35.5(34) . . .
34.2(32) . . .
24.1(25) . . .
31.8(30) . . .
32.5(29) . . .
41(4) . . .
30.3(29) . . .
34.4(30) . . .
31.6(29) . . .
35.6(31) . . .
33.1(32) . . .
30.1(28) . . .
45(4) . . .
45(4) . . .
40.6(35) . . .
36.8(34) . . .
37.0(32) . . .
36.4(32) . . .
25.2(26) . . .
29.9(31) . . .
35.6(32) . . .
37.1(32) . . .
27.2(29) . . .
29.9(29) . . .
30.4(31) . . .
31.5(31) . . .
37.8(33) . . .
28.1(27) . . .
35.2(33) . . .
29.3(28) . . .
37.5(34) . . .
26.9(27) . . .
34.6(31) . . .
28.6(28) . . .
34.8(31) . . .
34.7(32) . . .
37.2(33) . . .
31.5(30) . . .
34.9(32) . . .
33.2(30) . . .
33.6(31) . . .
32.6(30) . . .
24.7(27) . . .
36.3(32) . . .
31.4(29) . . .
39.9(35) . . .
28.6(28) . . .
34.4(31) . . .
30.1(28) . . .
41(4) . . .
37.5(33) . . .
37.3(32) . . .
36.5(31) . . .
37.3(32) . . .
42(4) . . .
37.4(33) . . .
29.3(29) . . .
27.6(28) . . .
32.4(30) . . .
36.7(34) . . .
35.8(34) . . .
34.1(31) . . .
34.4(31) . . .
38(4) . . .
35.3(34) . . .
35.7(33) . . .
32.7(30) . . .
32.7(30) . . .
33.0(30) . . .
32.5(30) . . .
30.9(29) . . .
39.2(33) . . .
35.3(32) . . .
35.1(32) . . .
50(4) . . .
31.5(29) . . .
36.4(31) . . .
32.7(30) . . .
38.9(34) . . .
29.9(29) . . .
28.5(29) . . .
33.1(30) . . .
27.4(28) . . .
29.5(29) . . .
28.4(29) . . .
32.2(29) . . .
38.3(33) . . .
38.6(34) . . .
39(4) . . .
54(4) . . .
37.6(33) . . .
31.3(29) . . .
37.0(33) . . .
28.0(31) . . .
32.8(31) . . .
35.7(31) . . .
39.8(33) . . .
28.5(28) . . .
36.0(33) . . .
34.9(31) . . .
38.8(34) . . .
32.5(30) . . .
29.1(29) . . .
29.9(32) . . .
34.0(32) . . .
28.1(28) . . .
23.4(25) . . .
38.2(32) . . .
37.8(34) . . .
46(4) . . .
29.8(28) . . .
32.9(31) . . .
30.2(29) . . .
32.5(31) . . .
35.7(33) . . .
29.9(28) . . .
40.8(34) . . .
39.7(33) . . .
36.3(31) . . .
32.3(30) . . .
33.0(30) . . .
33.3(30) . . .
42(4) . . .
34.5(32) . . .
36.2(32) . . .
32.5(30) . . .
44(4) . . .
44(4) . . .
33.1(31) . . .
29.4(30) . . .
32.4(30) . . .
30.3(29) . . .
43(4) . . .
38.4(34) . . .
40.6(33) . . .
39.1(33) . . .
30.6(31) . . .
38.9(34) . . .
37.2(32) . . .
50(4) . . .
33.5(30) . . .
38.2(34) . . .
30.6(29) . . .
42(4) . . .
34.3(30) . . .
30.5(29) . . .
35.4(32) . . .
29.1(31) . . .
33.8(33) . . .
39.2(33) . . .
41.6(33) . . .
38.8(33) . . .
34.2(33) . . .
40(4) . . .
36.0(31) . . .
38.3(32) . . .
35.8(32) . . .
37.4(35) . . .
33.6(31) . . .
36.0(31) . . .
35.4(32) . . .
29.3(32) . . .
30.5(31) . . .
25.5(26) . . .
35.4(31) . . .
39.9(34) . . .
36.8(33) . . .
36.1(32) . . .
35.1(32) . . .
30.0(29) . . .
34.5(31) . . .
35.3(33) . . .
39.0(34) . . .
36.5(34) . . .
30.9(29) . . .
28.0(27) . . .
34.0(32) . . .
38(4) . . .
36.3(32) . . .
36.7(32) . . .
36.4(32) . . .
33.4(31) . . .
39.2(34) . . .
35.6(32) . . .
32.0(29) . . .
33.4(31) . . .
31.7(31) . . .
45(4) . . .
37.7(31) . . .
39.4(33) . . .
40.6(34) . . .
35.4(33) . . .
27.4(28) . . .
41.4(34) . . .
40.8(34) . . .
33.7(31) . . .
41(4) . . .
39.2(35) . . .
29.3(29) . . .
48(4) . . .
41.3(34) . . .
40(4) . . .
30.4(31) . . .
39.4(33) . . .
31.8(30) . . .
48(4) . . .
43(4) . . .
33.4(31) . . .
29.8(29) . . .
32.5(30) . . .
40.8(34) . . .
34.3(32) . . .
32.2(30) . . .
32.6(30) . . .
38.5(33) . . .
41(4) . . .
32.8(31) . . .
29.1(28) . . .
29.5(28) . . .
36.5(32) . . .
30.9(31) . . .
34.9(33) . . .
37.1(32) . . .
37.7(32) . . .
43.6(34) . . .
34.3(31) . . .
38.2(34) . . .
33.7(32) . . .
30.0(28) . . .
36.9(33) . . .
23.0(24) . . .
42(4) . . .
38.0(33) . . .
35.6(31) . . .
31.2(30) . . .
29.5(29) . . .
36.5(34) . . .
31.6(29) . . .
28.5(28) . . .
38.8(35) . . .
41(4) . . .
37.2(34) . . .
36.8(32) . . .
39.1(33) . . .
32.8(32) . . .
40.0(34) . . .
45.3(35) . . .
43.3(35) . . .
41.9(34) . . .
37.7(33) . . .
31.3(32) . . .
32.3(32) . . .
27.4(27) . . .
34.2(32) . . .
33.6(32) . . .
29.1(29) . . .
32.7(30) . . .
36.2(31) . . .
40.3(33) . . .
35.4(32) . . .
31.8(31) . . .
31.1(30) . . .
35.0(31) . . .
34.5(31) . . .
34.3(31) . . .
31.9(31) . . .
29.0(29) . . .
27.3(28) . . .
43.5(34) . . .
38.3(32) . . .
45(4) . . .
35.7(33) . . .
32.3(29) . . .
38.2(33) . . .
42(4) . . .
33.3(31) . . .
39.7(35) . . .
30.0(29) . . .
35.5(31) . . .
36.9(33) . . .
36.2(32) . . .
41(4) . . .
34.1(30) . . .
31.5(30) . . .
33.5(32) . . .
41.0(35) . . .
47(4) . . .
31.8(30) . . .
33.2(31) . . .
32.5(31) . . .
31.7(30) . . .
37.0(32) . . .
30.4(29) . . .
28.6(28) . . .
31.3(30) . . .
39.0(34) . . .
43.7(35) . . .
37.9(32) . . .
40(4) . . .
32.6(34) . . .
38(4) . . .
38.3(33) . . .
43.2(35) . . .
38.7(34) . . .
28.8(30) . . .
32.7(31) . . .
35.9(31) . . .
30.6(30) . . .
39(4) . . .
31.0(29) . . .
44(4) . . .
34.7(30) . . .
37.3(32) . . .
30.4(29) . . .
27.5(30) . . .
29.3(29) . . .
39.4(33) . . .
31.7(30) . . .
38.6(34) . . .
35.0(32) . . .
33.7(31) . . .
35.8(31) . . .
38.5(33) . . .
38.1(32) . . .
31.9(29) . . .
28.3(28) . . .
38.0(32) . . .
32.3(30) . . .
36.2(32) . . .
37.4(34) . . .
39(4) . . .
31.9(29) . . .
42.2(35) . . .
35.2(32) . . .
28.7(29) . . .
40(4) . . .
31.1(29) . . .
37.2(35) . . .
32.1(32) . . .
40(4) . . .
27.3(28) . . .
33.4(30) . . .
43(4) . . .
32.2(31) . . .
30.5(29) . . .
32.3(29) . . .
30.6(29) . . .
40(4) . . .
28.0(27) . . .
43(4) . . .
35.3(32) . . .
34.8(31) . . .
41.6(35) . . .
34.8(34) . . .
33.3(30) . . .
40.3(34) . . .
44.3(35) . . .
32.7(29) . . .
31.1(32) . . .
41(4) . . .
35.3(31) . . .
33.0(30) . . .
36.9(32) . . .
34.6(33) . . .
37(4) . . .
37.3(31) . . .
33.7(30) . . .
28.5(29) . . .
33.1(32) . . .
43(4) . . .
33.3(30) . . .
41.9(34) . . .
39.8(32) . . .
41.8(34) . . .
38.0(33) . . .
26.1(27) . . .
33.3(31) . . .
39(4) . . .
31.1(30) . . .
41.1(34) . . .
38.8(33) . . .
34.6(31) . . .
29.5(32) . . .
32.7(33) . . .
35.4(31) . . .
42.4(34) . . .
27.8(28) . . .
27.7(29) . . .
29.9(30) . . .
39.1(34) . . .
34.1(30) . . .
43(4) . . .
37.1(35) . . .
25.8(28) . . .
33.4(32) . . .
26.3(28) . . .
29.7(29) . . .
35.0(33) . . .
35.4(32) . . .
33.3(30) . . .
49(4) . . .
34.5(32) . . .
30.3(32) . . .
37.9(33) . . .
36.4(31) . . .
35.6(32) . . .
35.5(31) . . .
47(4) . . .
37.8(32) . . .
36.0(31) . . .
41.8(34) . . .
40.3(34) . . .
35.6(33) . . .
37.6(33) . . .
36.8(32) . . .
35.1(32) . . .
28.7(28) . . .
31.0(30) . . .
34.9(33) . . .
25.8(27) . . .
30.7(30) . . .
38.3(34) . . .
33.4(32) . . .
39.5(34) . . .
34.9(31) . . .
37.5(32) . . .
37.4(35) . . .
34.3(32) . . .
32.2(30) . . .
35.2(31) . . .
29.5(28) . . .
32.2(30) . . .
31.5(30) . . .
30.2(29) . . .
32.9(30) . . .
33.4(31) . . .
26.2(26) . . .
38(4) . . .
40(4) . . .
38.1(32) . . .
30.4(32) . . .
34(4) . . .
33.7(33) . . .
39.9(33) . . .
42.2(34) . . .
39.5(33) . . .
43(4) . . .
41.6(34) . . .
31.8(29) . . .
25.7(27) . . .
35.3(32) . . .
31.5(32) . . .
32.4(31) . . .
31.1(29) . . .
33.8(30) . . .
34.1(31) . . .
37(4) . . .
27.9(28) . . .
32.1(29) . . .
29.1(29) . . .
43(4) . . .
42(4) . . .
30.7(29) . . .
41.6(34) . . .
34.9(33) . . .
29.7(28) . . .
38.8(34) . . .
39(4) . . .
36.4(31) . . .
38.3(33) . . .
39.1(33) . . .
31.9(32) . . .
37.3(34) . . .
35.4(31) . . .
41.9(35) . . .
34.0(31) . . .
29.8(30) . . .
34.7(32) . . .
36.0(32) . . .
37.6(32) . . .
37.0(30) . . .
45(4) . . .
33.8(31) . . .
37.4(31) . . .
36.8(31) . . .
31.5(29) . . .
39.9(34) . . .
34.0(30) . . .
29.4(28) . . .
38.6(34) . . .
37.6(33) . . .
38.8(34) . . .
33.5(30) . . .
42.0(34) . . .
37.6(34) . . .
35.7(33) . . .
43.2(35) . . .
38.8(33) . . .
33.3(30) . . .
27.9(30) . . .
33.1(32) . . .
36.8(32) . . .
36.7(32) . . .
37.6(32) . . .
35.7(32) . . .
41(4) . . .
33.0(31) . . .
26.9(28) . . .
30.1(29) . . .
32.3(31) . . .
39(4) . . .
46(4) . . .
35.7(32) . . .
32.2(30) . . .
39.3(33) . . .
31.9(30) . . .
32.3(30) . . .
32.9(30) . . .
33.8(30) . . .
37.6(33) . . .
30.8(30) . . .
46(4) . . .
37.0(32) . . .
28.0(28) . . .
32.3(30) . . .
33.5(31) . . .
34.5(30) . . .
33.9(31) . . .
30.1(29) . . .
34(4) . . .
34.0(32) . . .
38.8(33) . . .
34.9(31) . . .
31.4(30) . . .
35.9(32) . . .
33.8(30) . . .
31.9(29) . . .
32.6(29) . . .
34.2(32) . . .
29.3(29) . . .
35.6(33) . . .
31.0(30) . . .
36.7(31) . . .
36.7(34) . . .
37.3(33) . . .
35.9(32) . . .
40.0(34) . . .
34.3(31) . . .
38.3(34) . . .
39(4) . . .
32.8(31) . . .
36.3(31) . . .
40.0(33) . . .
32.5(30) . . .
40(4) . . .
29.0(29) . . .
22.6(25) . . .
38.1(33) . . .
39.1(33) . . .
41(4) . . .
40.5(33) . . .
37.7(32) . . .
32.9(30) . . .
36.3(32) . . .
40.3(35) . . .
34.3(31) . . .
39.4(33) . . .
45.3(35) . . .
44.7(35) . . .
36.4(33) . . .
43(4) . . .
36.2(32) . . .
40(4) . . .
29.8(30) . . .
38(4) . . .
31.2(29) . . .
31.8(29) . . .
37.7(32) . . .
25.3(27) . . .
28.0(30) . . .
38.8(35) . . .
31.7(29) . . .
25.0(27) . . .
40(4) . . .
34.0(32) . . .
35.3(31) . . .
39.1(33) . . .
45(4) . . .
33.3(31) . . .
37.9(33) . . .
32.7(30) . . .
32.4(30) . . .
32.3(30) . . .
31.4(29) . . .
35.1(31) . . .
36.1(32) . . .
33.5(30) . . .
28.6(28) . . .
42(4) . . .
31.6(30) . . .
40.5(34) . . .
30.3(30) . . .
29.8(31) . . .
32.6(32) . . .
36.8(33) . . .
28.4(28) . . .
42.6(34) . . .
39.3(33) . . .
32.3(33) . . .
37(4) . . .
30.3(29) . . .
41.2(33) . . .
47(4) . . .
39.0(33) . . .
35.4(31) . . .
36.2(31) . . .
30.0(28) . . .
28.8(28) . . .
42(4) . . .
38.1(33) . . .
33.9(31) . . .
38.1(32) . . .
37.6(34) . . .
42.8(35) . . .
36.8(34) . . .
25.0(26) . . .
44(4) . . .
32.9(30) . . .
34.1(31) . . .
37.8(35) . . .
31.5(29) . . .
32.7(31) . . .
42(4) . . .
38.7(33) . . .
38.3(34) . . .
29.0(28) . . .
38.0(33) . . .
41.2(34) . . .
41.8(34) . . .
35.8(31) . . .
37.6(32) . . .
34.1(32) . . .
34.5(31) . . .
28.1(27) . . .
29.5(28) . . .
27.0(27) . . .
32.7(31) . . .
38.9(35) . . .
35.5(33) . . .
36.3(31) . . .
39.7(32) . . .
35.2(32) . . .
31.9(34) . . .
34.5(32) . . .
28.0(27) . . .
33.7(31) . . .
35.2(32) . . .
34.9(35) . . .
36.2(34) . . .
37.5(32) . . .
24.2(26) . . .
42(4) . . .
35.6(34) . . .
27.2(28) . . .
38.6(32) . . .
30.2(29) . . .
44(4) . . .
38(4) . . .
31.1(31) . . .
28.4(28) . . .
31.2(29) . . .
28.3(27) . . .
46(4) . . .
38.0(33) . . .
26.1(28) . . .
38.3(34) . . .
37.0(34) . . .
31.2(30) . . .
32.8(31) . . .
34.3(30) . . .
38.0(34) . . .
27.1(27) . . .
28.7(27) . . .
42.3(35) . . .
31.0(29) . . .
29.5(29) . . .
31.5(31) . . .
32.5(33) . . .
32.1(29) . . .
39.0(33) . . .
38.1(34) . . .
37.8(35) . . .
37.7(33) . . .
33.0(30) . . .
32.7(30) . . .
29.3(31) . . .
25.8(27) . . .
40(4) . . .
35.9(32) . . .
32.4(30) . . .
34.9(34) . . .
36.3(33) . . .
31.5(30) . . .
31.6(29) . . .
41.8(34) . . .
33.8(30) . . .
32.5(31) . . .
35.5(34) . . .
40.1(34) . . .
41.7(34) . . .
30.7(30) . . .
42(4) . . .
35.5(32) . . .
35.1(31) . . .
41.6(34) . . .
33.2(29) . . .
25.9(27) . . .
40(4) . . .
39.8(33) . . .
44.5(34) . . .
47(4) . . .
41.6(34) . . .
32.9(30) . . .
30.1(29) . . .
26.9(29) . . .
32.5(32) . . .
33.0(33) . . .
23.3(28) . . .
31.0(29) . . .
39.7(33) . . .
34.0(30) . . .
31.8(30) . . .
38.6(33) . . .
39.9(32) . . .
43.1(34) . . .
44(4) . . .
31.6(30) . . .
30.3(29) . . .
34.0(30) . . .
30.3(29) . . .
36.2(34) . . .
35.2(32) . . .
36.6(34) . . .
27.7(28) . . .
35.8(33) . . .
32.9(33) . . .
36.6(33) . . .
40.8(33) . . .
25.4(26) . . .
24.9(26) . . .
35.6(32) . . .
32.1(30) . . .
31.4(29) . . .
39.3(33) . . .
39.7(32) . . .
45(4) . . .
33.9(30) . . .
34.0(31) . . .
29.0(28) . . .
35.5(35) . . .
38(4) . . .
36.0(33) . . .
28.2(28) . . .
19.7(23) . . .
27.0(28) . . .
32.5(32) . . .
45(4) . . .
40.3(33) . . .
39.1(33) . . .
30.8(31) . . .
34.3(34) . . .
34.6(32) . . .
31.4(29) . . .
31.5(30) . . .
33.6(32) . . .
25.2(29) . . .
27.0(28) . . .
35.9(32) . . .
34.0(32) . . .
41(4) . . .
38.2(33) . . .
30.7(29) . . .
33.8(30) . . .
44(4) . . .
38.7(34) . . .
35.1(30) . . .
51(4) . . .
33.2(30) . . .
24.2(27) . . .
28.1(32) . . .
38.1(32) . . .
40.6(33) . . .
40.6(34) . . .
42(4) . . .
41(4) . . .
39.0(34) . . .
29.8(29) . . .
25.0(26) . . .
32.6(30) . . .
36.5(32) . . .
35.3(30) . . .
34.0(30) . . .
24.7(26) . . .
33.4(31) . . .
30.5(30) . . .
34.3(33) . . .
30.3(30) . . .
32.1(29) . . .
33.5(30) . . .
29.3(29) . . .
28.3(29) . . .
42.1(34) . . .
40.7(34) . . .
37.0(33) . . .
33.7(32) . . .
32.5(30) . . .
29.8(29) . . .
37.1(31) . . .
32.7(31) . . .
33.7(33) . . .
38(4) . . .
33.1(31) . . .
37.9(32) . . .
48(4) . . .
33.1(32) . . .
36.6(33) . . .
31.8(30) . . .
37.3(33) . . .
28.6(28) . . .
28.8(31) . . .
30.0(30) . . .
33.4(30) . . .
35.0(32) . . .
36.0(32) . . .
34.1(33) . . .
31.5(32) . . .
28.4(28) . . .
31.0(29) . . .
30.4(29) . . .
37.5(32) . . .
39.4(33) . . .
46(4) . . .
43(4) . . .
38.3(34) . . .
32.6(31) . . .
34.0(30) . . .
33.1(30) . . .
35.1(33) . . .
30.7(28) . . .
37.7(32) . . .
30.0(29) . . .
24.5(26) . . .
29.4(29) . . .
46(4) . . .
34.8(34) . . .
25.0(26) . . .
26.8(27) . . .
37.9(34) . . .
34.0(33) . . .
34.8(31) . . .
35.1(31) . . .
32.2(30) . . .
34.1(33) . . .
31.4(33) . . .
31.0(31) . . .
30.0(29) . . .
38.4(32) . . .
36.5(33) . . .
31.8(30) . . .
32.7(30) . . .
31.9(29) . . .
36.6(33) . . .
25.2(27) . . .
32.3(30) . . .
40.5(33) . . .
41.4(34) . . .
31.4(29) . . .
27.1(28) . . .
37.1(33) . . .
45(4) . . .
31.7(30) . . .
29.8(29) . . .
30.7(32) . . .
28.5(29) . . .
40.1(34) . . .
30.4(29) . . .
38.9(35) . . .
39.7(35) . . .
31.5(32) . . .
39.9(34) . . .
27.0(27) . . .
34.6(32) . . .
31.3(32) . . .
27.4(28) . . .
35.4(32) . . .
33.0(30) . . .
32.8(31) . . .
33.2(31) . . .
38.2(35) . . .
35.2(31) . . .
38.2(32) . . .
28.5(29) . . .
28.1(30) . . .
30.3(32) . . .
34.9(31) . . .
29.9(29) . . .
40.6(35) . . .
31.3(31) . . .
41(4) . . .
44.1(35) . . .
41.7(34) . . .
41(4) . . .
36.0(33) . . .
40.7(34) . . .
44(4) . . .
33.6(32) . . .
33.4(31) . . .
37.1(34) . . .
34.5(30) . . .
36.2(31) . . .
48(4) . . .
32.4(32) . . .
32.0(33) . . .
34.3(33) . . .
35.6(32) . . .
30.9(29) . . .
44(4) . . .
50(4) . . .
38.5(33) . . .
41.3(33) . . .
34.4(31) . . .
40.9(35) . . .
43(4) . . .
34.4(31) . . .
34.9(31) . . .
44(4) . . .
41(4) . . .
30.2(31) . . .
28.9(30) . . .
30.7(29) . . .
36.3(33) . . .
34.3(33) . . .
35.4(32) . . .
28.3(29) . . .
38.1(32) . . .
42(4) . . .
28.0(29) . . .
40.5(34) . . .
37.8(31) . . .
31.8(30) . . .
37.7(34) . . .
28.4(27) . . .
40.5(34) . . .
38.9(33) . . .
29.5(28) . . .
27.8(30) . . .
27.2(30) . . .
33.8(31) . . .
33.4(30) . . .
32.5(30) . . .
39.5(34) . . .
29.9(30) . . .
33.2(31) . . .
33.9(31) . . .
30.6(29) . . .
42.7(35) . . .
40(4) . . .
31.6(31) . . .
42.5(33) . . .
29.5(29) . . .
39.0(34) . . .
32.0(31) . . .
35.4(32) . . .
29.9(29) . . .
30.8(31) . . .
35.9(33) . . .
38.0(34) . . .
32.9(32) . . .
33.3(30) . . .
37.7(33) . . .
32.1(31) . . .
43(4) . . .
31.4(30) . . .
36.6(31) . . .
37.5(33) . . .
37(4) . . .
31.9(30) . . .
29.9(29) . . .
37.1(32) . . .
36.7(32) . . .
31.5(28) . . .
39.7(34) . . .
35.0(31) . . .
37.0(32) . . .
28.5(29) . . .
27.8(30) . . .
33.7(32) . . .
33.9(31) . . .
27.5(27) . . .
31.5(31) . . .
29.9(31) . . .
38(4) . . .
32.9(30) . . .
42.2(35) . . .
33.7(30) . . .
37.2(34) . . .
37.4(32) . . .
42.6(34) . . .
33.2(30) . . .
29.3(30) . . .
34.1(33) . . .
32.4(31) . . .
27.2(27) . . .
30.9(29) . . .
33.3(31) . . .
37.5(34) . . .
39.7(34) . . .
39.3(33) . . .
39.5(33) . . .
48(4) . . .
39(4) . . .
33.6(31) . . .
42.4(34) . . .
34.6(32) . . .
32.9(33) . . .
33.4(34) . . .
30.3(31) . . .
33.0(30) . . .
39.4(32) . . .
31.1(30) . . .
38.2(33) . . .
38.5(33) . . .
44.6(34) . . .
38.8(34) . . .
32.2(32) . . .
27.8(29) . . .
33.5(31) . . .
40.3(33) . . .
34.9(32) . . .
34.4(34) . . .
32.1(30) . . .
37.6(32) . . .
26.4(26) . . .
30.7(30) . . .
36.4(33) . . .
31.5(30) . . .
24.7(27) . . .
37.3(33) . . .
31.9(31) . . .
35.8(35) . . .
25.5(27) . . .
31.8(29) . . .
38.6(32) . . .
35.9(34) . . .
29.2(30) . . .
32.9(30) . . .
34.5(31) . . .
28.7(29) . . .
35.1(31) . . .
37.0(34) . . .
33.2(32) . . .
41.8(35) . . .
42.3(34) . . .
41.0(32) . . .
32.2(32) . . .
32.3(32) . . .
30.6(29) . . .
32.9(30) . . .
27.6(27) . . .
35.5(35) . . .
33.2(31) . . .
44.2(34) . . .
32.5(32) . . .
34.3(32) . . .
29.0(28) . . .
28.0(29) . . .
27.2(28) . . .
35.6(31) . . .
38.6(34) . . .
27.9(29) . . .
37.9(32) . . .
39.5(33) . . .
36.7(32) . . .
31.2(31) . . .
31.7(30) . . .
35.8(35) . . .
23.3(26) . . .
34.3(32) . . .
41.6(35) . . .
38.9(33) . . .
30.9(29) . . .
34.1(30) . . .
37.8(34) . . .
35.5(32) . . .
37.3(32) . . .
34.3(31) . . .
44.6(34) . . .
29.5(28) . . .
35.2(32) . . .
36.7(33) . . .
40.4(34) . . .
38.7(32) . . .
29.5(29) . . .
33.4(32) . . .
37.7(34) . . .
30.3(29) . . .
32.8(30) . . .
37.0(32) . . .
32.6(33) . . .
34.5(33) . . .
34.1(31) . . .
36.2(32) . . .
46(4) . . .
32.4(30) . . .
31.5(29) . . .
31.4(30) . . .
31.5(29) . . .
38.6(34) . . .
26.7(28) . . .
33.8(32) . . .
47(4) . . .
35.8(31) . . .
33.5(30) . . .
37.2(34) . . .
30.4(29) . . .
31.5(29) . . .
29.1(28) . . .
29.9(29) . . .
30.4(30) . . .
31.5(30) . . .
29.0(29) . . .
32.6(31) . . .
31.4(32) . . .
38.2(33) . . .
40.4(33) . . .
32.2(30) . . .
42.3(35) . . .
38.2(34) . . .
34.6(31) . . .
35.6(31) . . .
29.1(28) . . .
34.0(33) . . .
31.2(33) . . .
26.8(27) . . .
36.8(33) . . .
31.6(29) . . .
29.5(31) . . .
30.4(31) . . .
32.0(31) . . .
26.2(28) . . .
32.8(30) . . .
39.4(34) . . .
41(4) . . .
34.0(31) . . .
32.8(29) . . .
39.1(33) . . .
33.4(30) . . .
32.8(31) . . .
35(4) . . .
23.9(26) . . .
36.3(31) . . .
38.3(34) . . .
31.6(32) . . .
35.5(32) . . .
31.1(30) . . .
31.8(29) . . .
37.1(33) . . .
42(4) . . .
30.7(29) . . .
37.1(31) . . .
39.0(33) . . .
41.5(34) . . .
30.9(28) . . .
36.8(32) . . .
31.8(29) . . .
36.1(31) . . .
36.8(31) . . .
36.5(33) . . .
27.4(27) . . .
33.8(30) . . .
34.7(31) . . .
35.2(32) . . .
35.9(33) . . .
33.8(31) . . .
32.0(29) . . .
29.4(29) . . .
27.7(28) . . .
32.5(30) . . .
43.1(34) . . .
30.4(29) . . .
28.8(29) . . .
31.5(30) . . .
35.2(31) . . .
37.0(34) . . .
33.5(30) . . .
33.8(31) . . .
34.1(33) . . .
31.4(31) . . .
35.8(33) . . .
30.7(28) . . .
27.1(28) . . .
28.7(29) . . .
37.2(33) . . .
41.2(33) . . .
43.8(35) . . .
36.0(32) . . .
27.0(29) . . .
33.1(31) . . .
37.4(32) . . .
34.4(30) . . .
30.6(29) . . .
36.8(34) . . .
33.2(32) . . .
31.4(30) . . .
28.0(28) . . .
34.8(32) . . .
34.2(31) . . .
34.7(32) . . .
38.7(33) . . .
41.9(33) . . .
35.2(31) . . .
38.5(33) . . .
39.8(34) . . .
33.7(30) . . .
25.9(27) . . .
35.2(32) . . .
37.7(33) . . .
36.1(32) . . .
33.0(30) . . .
47(4) . . .
27.9(27) . . .
26.9(27) . . .
35.1(31) . . .
30.9(29) . . .
40.6(34) . . .
38.5(35) . . .
30.1(30) . . .
32.7(31) . . .
34.0(30) . . .
42(4) . . .
35.0(33) . . .
36.9(33) . . .
32.6(30) . . .
30.7(29) . . .
41.2(33) . . .
33.0(30) . . .
38.9(35) . . .
35.1(31) . . .
28.5(28) . . .
31.3(29) . . .
30.7(30) . . .
33.5(31) . . .
31.0(29) . . .
40.6(33) . . .
32.3(33) . . .
31.8(31) . . .
37.5(32) . . .
34.6(32) . . .
34.0(30) . . .
34.5(32) . . .
41(4) . . .
39.0(33) . . .
30.5(29) . . .
24.6(26) . . .
43(4) . . .
36.4(34) . . .
36.3(33) . . .
33.8(31) . . .
42.2(34) . . .
44(4) . . .
33.6(33) . . .
30.0(29) . . .
27.8(27) . . .
32.7(30) . . .
42.3(35) . . .
33.2(29) . . .
32.3(30) . . .
40.6(33) . . .
37.7(32) . . .
42.1(34) . . .
35.8(32) . . .
29.5(29) . . .
34.5(31) . . .
24.7(26) . . .
35.3(33) . . .
35.8(34) . . .
38(4) . . .
36.5(32) . . .
36.8(34) . . .
33.2(31) . . .
34.8(32) . . .
33.4(30) . . .
34.0(30) . . .
35.9(33) . . .
42(4) . . .
36.6(31) . . .
39.6(33) . . .
34.2(31) . . .
28.9(29) . . .
30.2(31) . . .
33.3(32) . . .
39.4(32) . . .
33.5(31) . . .
36.3(34) . . .
41(4) . . .
34.7(31) . . .
33.0(30) . . .
31.2(29) . . .
30.8(29) . . .
43(4) . . .
32.8(30) . . .
28.5(28) . . .
35.3(31) . . .
33.5(31) . . .
34.7(31) . . .
34.2(33) . . .
34.0(31) . . .
38.3(32) . . .
28.2(28) . . .
34.9(32) . . .
40.3(33) . . .
34.3(30) . . .
33.6(30) . . .
42.4(35) . . .
35.6(34) . . .
32.5(33) . . .
35.3(31) . . .
40.1(33) . . .
39.2(33) . . .
37.5(34) . . .
31.4(32) . . .
33.3(30) . . .
38.8(32) . . .
44(4) . . .
32.2(29) . . .
33.5(32) . . .
22.7(25) . . .
28.1(29) . . .
31.9(31) . . .
34.0(32) . . .
29.3(28) . . .
31.3(29) . . .
35.3(32) . . .
31.8(31) . . .
29.8(28) . . .
36.6(32) . . .
32.9(30) . . .
35.4(31) . . .
44(4) . . .
36.8(33) . . .
42.5(35) . . .
28.6(28) . . .
37.4(33) . . .
38.0(34) . . .
41(4) . . .
35.4(32) . . .
39.5(33) . . .
27.8(29) . . .
25.2(29) . . .
30.1(29) . . .
33.3(30) . . .
40.8(33) . . .
36.6(33) . . .
32.2(32) . . .
40.0(34) . . .
34.0(30) . . .
32.8(30) . . .
37.4(33) . . .
29.5(32) . . .
29.2(30) . . .
34.8(31) . . .
28.9(31) . . .
32.3(30) . . .
37.8(33) . . .
36.4(34) . . .
27.2(28) . . .
26.2(29) . . .
39.0(35) . . .
35.6(34) . . .
28.1(28) . . .
29.9(28) . . .
37.6(34) . . .
32.7(30) . . .
28.5(27) . . .
46(4) . . .
33.5(30) . . .
30.7(30) . . .
37.0(33) . . .
38.3(35) . . .
32.7(30) . . .
35.1(31) . . .
36.8(32) . . .
31.9(29) . . .
34.6(33) . . .
32.6(29) . . .
33.2(30) . . .
40.5(35) . . .
34.2(31) . . .
38.0(34) . . .
33.7(30) . . .
33.7(30) . . .
30.3(31) . . .
35.7(34) . . .
39(4) . . .
36.0(32) . . .
34.9(30) . . .
37.2(32) . . .
37.4(34) . . .
34.4(32) . . .
34.8(31) . . .
36.5(31) . . .
29.4(29) . . .
37.6(34) . . .
33.7(31) . . .
28.6(28) . . .
39.0(32) . . .
35.7(32) . . .
30.6(31) . . .
32.0(31) . . .
35.5(31) . . .
46(4) . . .
38.4(32) . . .
47(4) . . .
37.1(33) . . .
30.9(30) . . .
30.5(29) . . .
37.2(31) . . .
37.2(32) . . .
38.0(33) . . .
32.3(30) . . .
30.0(28) . . .
36.6(33) . . .
33.2(30) . . .
38.3(33) . . .
32.4(30) . . .
31.4(30) . . .
30.0(29) . . .
41.6(35) . . .
40.9(34) . . .
31.0(30) . . .
35.1(31) . . .
41(4) . . .
35.4(34) . . .
26.1(26) . . .
37.2(33) . . .
25.0(26) . . .
31.0(32) . . .
28.7(29) . . .
37.0(31) . . .
28.7(29) . . .
33.0(30) . . .
39.0(33) . . .
40.2(34) . . .
36.1(32) . . .
24.7(26) . . .
32.6(31) . . .
43(4) . . .
49(4) . . .
33.8(31) . . .
32.8(30) . . .
38.4(34) . . .
31.2(31) . . .
41.9(34) . . .
30.6(29) . . .
29.0(28) . . .
32.6(32) . . .
40.3(34) . . .
32.3(29) . . .
31.7(29) . . .
30.5(29) . . .
27.6(28) . . .
28.8(29) . . .
34.8(32) . . .
31.5(29) . . .
32.7(31) . . .
30.1(29) . . .
40.2(35) . . .
36.1(33) . . .
32.1(30) . . .
34.0(31) . . .
39.9(33) . . .
36.7(32) . . .
34.8(31) . . .
36.3(32) . . .
36.9(33) . . .
31.9(30) . . .
28.4(26) . . .
37.9(33) . . .
29.5(28) . . .
32.3(31) . . .
35.8(34) . . .
40.8(34) . . .
43.6(35) . . .
29.1(30) . . .
31.5(30) . . .
32.9(34) . . .
38(4) . . .
27.6(28) . . .
34.9(31) . . .
29.9(28) . . .
35.0(32) . . .
34.4(31) . . .
35.7(32) . . .
35.2(31) . . .
33.3(32) . . .
29.5(29) . . .
32.0(31) . . .
35.2(32) . . .
35.9(31) . . .
43(4) . . .
34(4) . . .
34.4(32) . . .
39.5(33) . . .
37.1(32) . . .
31.7(30) . . .
41(4) . . .
28.0(28) . . .
35.0(30) . . .
38.1(34) . . .
39(4) . . .
33.7(32) . . .
35.0(31) . . .
27.5(27) . . .
36.0(32) . . .
36.4(33) . . .
29.0(29) . . .
38.5(33) . . .
36.0(31) . . .
40.3(33) . . .
32.1(31) . . .
35.1(33) . . .
34.0(31) . . .
32.4(29) . . .
36.3(31) . . .
41(4) . . .
34.7(33) . . .
42(4) . . .
32.7(30) . . .
40(4) . . .
35.4(32) . . .
27.2(27) . . .
32.7(29) . . .
34.8(31) . . .
37.9(33) . . .
33.1(32) . . .
40.0(34) . . .
43.7(34) . . .
37.3(32) . . .
36.1(31) . . .
47(4) . . .
36.3(33) . . .
35.5(31) . . .
32.4(30) . . .
37.7(32) . . .
35.7(32) . . .
30.3(29) . . .
30.5(29) . . .
36.5(32) . . .
39.4(35) . . .
40(4) . . .
34.9(33) . . .
44.0(34) . . .
30.1(29) . . .
36.4(33) . . .
35.7(34) . . .
35.6(34) . . .
27.6(28) . . .
37.1(32) . . .
29.7(30) . . .
29.6(29) . . .
39.8(34) . . .
35.6(31) . . .
41.3(34) . . .
29.0(27) . . .
39(4) . . .
29.1(28) . . .
36.0(31) . . .
32.1(30) . . .
34.1(34) . . .
38(4) . . .
30.8(30) . . .
26.6(27) . . .
36.2(33) . . .
34.9(33) . . .
36.1(32) . . .
37.9(32) . . .
38.7(33) . . .
42.9(34) . . .
46(4) . . .
35.2(33) . . .
32.8(31) . . .
38.8(33) . . .
44.5(35) . . .
50(4) . . .
39.9(35) . . .
38.0(34) . . .
38.2(32) . . .
41.3(35) . . .
37.6(32) . . .
40.1(34) . . .
26.7(27) . . .
31.0(29) . . .
38.5(34) . . .
30.7(31) . . .
38.4(35) . . .
29.9(28) . . .
34.3(32) . . .
39.4(34) . . .
38.8(34) . . .
33.7(31) . . .
30.3(29) . . .
42.4(34) . . .
33.8(30) . . .
36.0(34) . . .
27.1(29) . . .
27.5(28) . . .
36.1(31) . . .
39.9(34) . . .
31.1(30) . . .
25.5(27) . . .
31.4(29) . . .
32.8(30) . . .
31.8(29) . . .
31.6(32) . . .
32.8(31) . . .
27.1(27) . . .
32.1(31) . . .
30.1(28) . . .
39.2(34) . . .
32.7(31) . . .
28.0(28) . . .
36.2(34) . . .
25.7(28) . . .
28.0(29) . . .
31.0(29) . . .
29.0(28) . . .
34.4(31) . . .
35.7(33) . . .
39.0(35) . . .
33.1(32) . . .
35.4(31) . . .
33.4(30) . . .
34.4(30) . . .
34.6(31) . . .
35.3(33) . . .
25.8(26) . . .
29.2(29) . . .
30.5(29) . . .
30.4(28) . . .
35.5(31) . . .
34.1(30) . . .
37.2(33) . . .
30.1(30) . . .
38.3(33) . . .
43.3(34) . . .
50(4) . . .
51(4) . . .
33.9(32) . . .
38.6(33) . . .
30.6(29) . . .
33.5(30) . . .
34.5(32) . . .
38.3(34) . . .
38.8(35) . . .
33.7(30) . . .
33.3(30) . . .
36.2(34) . . .
35.2(35) . . .
34.8(33) . . .
31.0(29) . . .
35.5(31) . . .
36.2(34) . . .
34.5(35) . . .
32.5(31) . . .
29.6(29) . . .
33.1(30) . . .
35.9(32) . . .
42(4) . . .
32.8(30) . . .
33.2(30) . . .
33.0(30) . . .
37.8(33) . . .
32.1(31) . . .
33.0(30) . . .
32.5(30) . . .
41.5(33) . . .
33.8(31) . . .
31.9(31) . . .
36.0(34) . . .
35.3(31) . . .
40.9(33) . . .
38.9(34) . . .
30.0(31) . . .
30.3(29) . . .
27.2(27) . . .
30.8(31) . . .
33.5(32) . . .
36(4) . . .
37.7(33) . . .
28.2(27) . . .
34.3(34) . . .
34.5(34) . . .
31.7(32) . . .
38.0(32) . . .
35.8(31) . . .
32.7(30) . . .
45(4) . . .
34.8(32) . . .
44.1(35) . . .
39.4(33) . . .
36.7(35) . . .
43(4) . . .
30.6(30) . . .
38.3(33) . . .
34.1(30) . . .
38.2(33) . . .
32.1(32) . . .
32.4(31) . . .
31.4(29) . . .
33.8(31) . . .
32.8(32) . . .
31.2(31) . . .
35.3(33) . . .
31.4(29) . . .
34.0(30) . . .
38.7(35) . . .
31.3(31) . . .
41.4(35) . . .
31.4(29) . . .
33.8(31) . . .
43(4) . . .
42(4) . . .
40.5(34) . . .
32.7(30) . . .
32.5(29) . . .
31.2(30) . . .
44(4) . . .
37.7(32) . . .
40.1(33) . . .
29.8(29) . . .
26.0(27) . . .
25.2(27) . . .
36.4(33) . . .
32.4(31) . . .
28.0(28) . . .
36.2(33) . . .
43(4) . . .
40.8(34) . . .
32.5(29) . . .
27.5(30) . . .
30.4(31) . . .
33.0(29) . . .
41.5(34) . . .
27.4(27) . . .
24.5(26) . . .
31.6(31) . . .
37.1(33) . . .
34.5(30) . . .
31.2(29) . . .
33.9(30) . . .
31.5(30) . . .
32.0(30) . . .
31.0(29) . . .
39.5(32) . . .
41.6(34) . . .
32.7(31) . . .
36.7(35) . . .
40.8(33) . . .
33.7(31) . . .
40.4(33) . . .
38.0(34) . . .
34.2(31) . . .
38.8(32) . . .
33.6(30) . . .
35.1(31) . . .
43(4) . . .
39.1(33) . . .
43.5(34) . . .
30.6(29) . . .
29.0(28) . . .
30.7(30) . . .
27.7(31) . . .
42.1(34) . . .
41.3(34) . . .
36.8(33) . . .
35.4(34) . . .
29.6(29) . . .
29.6(29) . . .
33.2(31) . . .
34.7(31) . . .
27.1(27) . . .
35.9(33) . . .
49(4) . . .
31.6(30) . . .
34.5(31) . . .
36.3(32) . . .
30.1(28) . . .
28.7(28) . . .
43(4) . . .
33.7(31) . . .
35.7(31) . . .
34.9(32) . . .
35.3(31) . . .
37.0(34) . . .
33.9(32) . . .
38.5(34) . . .
40.1(33) . . .
28.8(28) . . .
35.6(32) . . .
23.7(25) . . .
35.1(32) . . .
38.8(33) . . .
39.1(32) . . .
34.1(31) . . .
37(4) . . .
28.0(29) . . .
32.5(30) . . .
44(4) . . .
24.0(26) . . .
31.3(31) . . .
29.8(29) . . .
43.6(34) . . .
33.8(30) . . .
33.6(31) . . .
32.7(31) . . .
38.4(31) . . .
35.5(31) . . .
37.4(32) . . .
38.7(33) . . .
26.3(27) . . .
34.3(32) . . .
29.7(28) . . .
40.5(34) . . .
36.7(32) . . .
34.8(31) . . .
32.7(30) . . .
33.0(30) . . .
35.0(32) . . .
35.9(32) . . .
35.9(31) . . .
36.9(32) . . .
35.2(31) . . .
35(4) . . .
30.7(32) . . .
33.6(31) . . .
33.3(31) . . .
29.8(29) . . .
31.9(29) . . .
37.0(34) . . .
36.1(33) . . .
36.4(33) . . .
33.1(31) . . .
34.5(31) . . .
30.5(29) . . .
35.8(32) . . .
32.3(30) . . .
33.2(30) . . .
38.9(33) . . .
28.8(29) . . .
31.5(30) . . .
26.6(29) . . .
36.7(32) . . .
42(4) . . .
30.0(30) . . .
33.5(31) . . .
36.3(32) . . .
32.1(29) . . .
33.6(30) . . .
35.8(33) . . .
37.3(32) . . .
38.7(32) . . .
32.0(31) . . .
32.2(29) . . .
34.4(34) . . .
32.5(31) . . .
38.3(32) . . .
35.0(31) . . .
45(4) . . .
32.3(30) . . .
34.0(31) . . .
33.9(30) . . .
30.0(30) . . .
36.4(33) . . .
37.3(34) . . .
29.3(28) . . .
38.5(32) . . .
32.9(30) . . .
30.8(30) . . .
35.8(35) . . .
30.8(29) . . .
34.6(31) . . .
32.6(30) . . .
32.5(30) . . .
35.1(34) . . .
34.6(31) . . .
30.5(29) . . .
28.8(29) . . .
41(4) . . .
46(4) . . .
35.3(31) . . .
36.4(31) . . .
36.1(33) . . .
31.4(30) . . .
41.0(35) . . .
34.0(30) . . .
38.0(33) . . .
35.2(30) . . .
33.2(29) . . .
44(4) . . .
31.6(29) . . .
36.4(32) . . .
41.0(35) . . .
30.0(30) . . .
31.6(30) . . .
34.0(30) . . .
35.0(31) . . .
34.4(30) . . .
35.8(34) . . .
30.9(32) . . .
41.1(33) . . .
37.3(33) . . .
29.8(29) . . .
36(4) . . .
38.6(33) . . .
34.3(31) . . .
30.9(30) . . .
34.5(32) . . .
36.3(34) . . .
40(4) . . .
28.4(27) . . .
29.8(29) . . .
32.6(31) . . .
42(4) . . .
29.7(29) . . .
37.4(32) . . .
37.0(32) . . .
40.3(34) . . .
35.9(33) . . .
39.8(34) . . .
40.6(33) . . .
30.0(30) . . .
36(4) . . .
34.4(33) . . .
32.3(29) . . .
37.0(32) . . .
36.2(33) . . .
31.3(30) . . .
35.3(32) . . .
30.0(29) . . .
37.3(32) . . .
28.8(28) . . .
29.0(29) . . .
36.4(32) . . .
35.8(32) . . .
31.9(29) . . .
37(4) . . .
29.4(29) . . .
38.1(35) . . .
32.4(30) . . .
37.2(31) . . .
34.2(31) . . .
33.7(31) . . .
38.2(33) . . .
41.4(34) . . .
33.4(30) . . .
33.0(33) . . .
29.3(29) . . .
35.6(34) . . .
36.8(32) . . .
28.0(28) . . .
33.8(31) . . .
45(4) . . .
36.4(32) . . .
35.0(31) . . .
37.2(31) . . .
35.7(32) . . .
38.5(34) . . .
29.8(29) . . .
33.4(30) . . .
36.6(32) . . .
32.5(30) . . .
32.2(30) . . .
38.5(35) . . .
33.3(30) . . .
37.3(34) . . .
36.9(34) . . .
25.2(26) . . .
38(4) . . .
25.1(26) . . .
32.7(29) . . .
31.0(31) . . .
30.9(30) . . .
33.7(31) . . .
26.0(27) . . .
33.0(31) . . .
27.9(28) . . .
35.5(33) . . .
32.8(31) . . .
38.2(33) . . .
33.3(30) . . .
28.9(29) . . .
30.5(29) . . .
33.7(30) . . .
34.6(31) . . .
27.2(29) . . .
30.6(32) . . .
29.0(29) . . .
36.6(32) . . .
33.8(31) . . .
33.1(30) . . .
31.9(32) . . .
37.6(34) . . .
42(4) . . .
31.6(30) . . .
35.5(32) . . .
32.7(31) . . .
30.5(30) . . .
28.1(27) . . .
37.5(33) . . .
32.9(30) . . .
30.8(30) . . .
38.6(34) . . .
29.3(28) . . .
27.5(28) . . .
26.5(28) . . .
29.1(30) . . .
33.4(32) . . .
32.1(29) . . .
30.1(29) . . .
38.1(33) . . .
30.1(31) . . .
37.1(34) . . .
33.8(30) . . .
33.1(30) . . .
35.1(32) . . .
29.3(27) . . .
48(4) . . .
33.0(30) . . .
37.0(33) . . .
39(4) . . .
29.8(28) . . .
30.2(29) . . .
32.9(29) . . .
31.1(32) . . .
35.7(33) . . .
36.3(34) . . .
33.5(32) . . .
30.3(29) . . .
26.1(27) . . .
34.7(33) . . .
35.2(32) . . .
38.5(32) . . .
37.2(33) . . .
37.7(34) . . .
38.8(34) . . .
31.8(30) . . .
26.6(27) . . .
31.8(29) . . .
28.3(28) . . .
39(4) . . .
33.9(31) . . .
36.0(31) . . .
36.1(32) . . .
34.8(32) . . .
36.9(34) . . .
37.4(32) . . .
39.9(33) . . .
27.2(27) . . .
36.7(33) . . .
30.6(32) . . .
39(4) . . .
31.4(29) . . .
29.2(29) . . .
34.3(31) . . .
32.1(33) . . .
36.9(32) . . .
39.0(32) . . .
30.6(29) . . .
32.8(31) . . .
35.9(33) . . .
35.0(32) . . .
35.6(31) . . .
33.3(31) . . .
25.2(26) . . .
38.2(34) . . .
23.1(26) . . .
29.6(29) . . .
32.5(31) . . .
35.5(32) . . .
44(4) . . .
39.9(33) . . .
28.5(28) . . .
34.2(30) . . .
39.8(33) . . .
43(4) . . .
38.5(32) . . .
33.4(29) . . .
27.4(27) . . .
32.9(32) . . .
40(4) . . .
32.0(29) . . .
42.4(34) . . .
26.2(28) . . .
20.7(24) . . .
33.6(32) . . .
32.3(30) . . .
29.6(28) . . .
31.9(32) . . .
24.8(26) . . .
33.6(32) . . .
34.7(31) . . .
36.7(31) . . .
31.1(30) . . .
29.0(30) . . .
30.9(31) . . .
26.7(27) . . .
31.3(30) . . .
38.0(33) . . .
32.6(31) . . .
37.9(33) . . .
28.6(28) . . .
27.6(28) . . .
35.0(34) . . .
41(4) . . .
31.2(29) . . .
31.9(30) . . .
37.9(32) . . .
36.1(32) . . .
36.0(33) . . .
31.2(29) . . .
28.4(28) . . .
37.2(32) . . .
39(4) . . .
31.4(30) . . .
35.2(31) . . .
34.0(30) . . .
33.1(30) . . .
40.2(34) . . .
36.6(33) . . .
33.5(30) . . .
36.0(31) . . .
37.0(33) . . .
37.4(32) . . .
32.4(30) . . .
27.1(28) . . .
39.3(33) . . .
30.4(30) . . .
27.2(28) . . .
33.7(31) . . .
29.5(28) . . .
38.0(32) . . .
26.6(28) . . .
28.4(28) . . .
41(4) . . .
33.6(31) . . .
35.3(31) . . .
32.9(33) . . .
40(4) . . .
32.5(32) . . .
32.3(31) . . .
34.8(30) . . .
25.4(27) . . .
39(4) . . .
45(4) . . .
37.5(31) . . .
34.3(30) . . .
35.2(34) . . .
34.8(34) . . .
33.8(31) . . .
38.8(32) . . .
34.4(31) . . .
32.5(32) . . .
39(4) . . .
38.0(33) . . .
31.6(29) . . .
24.1(27) . . .
24.8(27) . . .
32.1(33) . . .
36.2(35) . . .
36.5(32) . . .
30.4(28) . . .
34.4(31) . . .
38.2(35) . . .
34.8(34) . . .
34.5(31) . . .
34.7(30) . . .
25.5(26) . . .
32.8(33) . . .
35.5(32) . . .
36.8(32) . . .
30.8(29) . . .
25.4(28) . . .
35.2(33) . . .
30.9(30) . . .
41.1(34) . . .
29.1(28) . . .
35.8(34) . . .
35.6(31) . . .
40.4(34) . . .
37.3(32) . . .
28.4(28) . . .
43(4) . . .
31.2(28) . . .
30.9(29) . . .
39.1(33) . . .
36.4(34) . . .
27.3(27) . . .
44(4) . . .
35.5(32) . . .
33.9(31) . . .
35.0(33) . . .
38(4) . . .
32.0(30) . . .
35.9(32) . . .
37.0(31) . . .
35.1(32) . . .
37(4) . . .
26.6(27) . . .
30.5(29) . . .
27.5(28) . . .
24.9(27) . . .
37.7(35) . . .
35.6(31) . . .
34.1(30) . . .
32.0(30) . . .
37.8(32) . . .
35.7(32) . . .
44(4) . . .
30.3(29) . . .
24.6(27) . . .
38.7(35) . . .
33.9(32) . . .
42.8(35) . . .
39.3(33) . . .
35.7(31) . . .
35.9(33) . . .
38(4) . . .
31.5(31) . . .
32.1(30) . . .
38.8(32) . . .
33.8(32) . . .
32.0(33) . . .
35.9(33) . . .
36.0(32) . . .
35.4(32) . . .
37.1(35) . . .
35.2(32) . . .
40.1(34) . . .
43.9(34) . . .
34.1(31) . . .
42(4) . . .
39.3(33) . . .
38.3(32) . . .
48(4) . . .
37.2(32) . . .
38.5(33) . . .
36.9(34) . . .
34.7(31) . . .
35.5(31) . . .
32.0(31) . . .
33.3(32) . . .
34.1(31) . . .
36.6(32) . . .
31.5(29) . . .
31.8(29) . . .
36.2(33) . . .
33.0(29) . . .
38.8(33) . . .
41.8(34) . . .
40.1(33) . . .
35.6(34) . . .
32.3(30) . . .
38.1(32) . . .
33.1(30) . . .
36.9(32) . . .
43(4) . . .
38.3(34) . . .
41.3(33) . . .
32.7(29) . . .
30.6(30) . . .
35.6(34) . . .
45(4) . . .
38.1(32) . . .
39.0(33) . . .
35.9(32) . . .
30.9(29) . . .
27.9(29) . . .
35.3(31) . . .
33.4(32) . . .
35.4(32) . . .
37.1(35) . . .
34.7(32) . . .
34.6(30) . . .
38.1(34) . . .
26.1(27) . . .
42(4) . . .
33.9(31) . . .
32.4(29) . . .
33.6(30) . . .
41.3(35) . . .
37.2(33) . . .
36.2(31) . . .
38.5(32) . . .
35.4(32) . . .
32.7(32) . . .
41.2(35) . . .
38.7(33) . . .
36.0(31) . . .
38.1(35) . . .
45(4) . . .
37.3(33) . . .
33.2(30) . . .
28.9(28) . . .
28.2(29) . . .
34.2(33) . . .
34.3(33) . . .
25.8(27) . . .
30.7(29) . . .
32.3(30) . . .
36.3(34) . . .
37.2(32) . . .
31.3(30) . . .
31.9(29) . . .
38.8(33) . . .
42(4) . . .
40(4) . . .
33.7(31) . . .
32.6(30) . . .
33.2(31) . . .
40(4) . . .
42.3(35) . . .
45(4) . . .
38.8(32) . . .
35.8(33) . . .
34.6(32) . . .
32.1(29) . . .
42.4(34) . . .
34.8(31) . . .
30.4(30) . . .
38.0(35) . . .
30.6(29) . . .
37.3(32) . . .
38.7(33) . . .
35.4(30) . . .
34.1(31) . . .
29.6(29) . . .
34.0(30) . . .
44(4) . . .
36.5(33) . . .
34.9(32) . . .
38.5(33) . . .
39.1(33) . . .
35.0(32) . . .
39(4) . . .
33.8(33) . . .
30.0(29) . . .
29.1(29) . . .
33.4(32) . . .
36.7(33) . . .
44(4) . . .
34.1(30) . . .
37.9(33) . . .
38.0(33) . . .
31.6(30) . . .
41.8(34) . . .
36.5(32) . . .
38.9(32) . . .
27.8(28) . . .
30.0(31) . . .
44(4) . . .
25.0(26) . . .
41.1(34) . . .
36.6(32) . . .
32.5(35) . . .
30.8(31) . . .
33.4(31) . . .
32.2(29) . . .
36.3(32) . . .
39(4) . . .
47(4) . . .
35.7(32) . . .
37.1(31) . . .
39.1(33) . . .
39(4) . . .
34.6(32) . . .
36.6(32) . . .
35.2(32) . . .
35.4(32) . . .
36.9(33) . . .
29.5(29) . . .
27.4(28) . . .
29.0(30) . . .
28.2(29) . . .
31.7(31) . . .
27.1(27) . . .
28.3(28) . . .
26.3(27) . . .
37.1(33) . . .
35.6(32) . . .
27.5(28) . . .
38.6(32) . . .
32.4(31) . . .
26.1(27) . . .
33.3(31) . . .
29.8(29) . . .
27.7(28) . . .
37.8(35) . . .
40(4) . . .
30.2(31) . . .
36.2(33) . . .
33.6(30) . . .
32.1(30) . . .
27.2(29) . . .
35.7(33) . . .
41.9(35) . . .
44.1(35) . . .
30.4(29) . . .
34.8(34) . . .
39.6(33) . . .
37.5(32) . . .
30.2(30) . . .
32.9(30) . . .
33.3(30) . . .
27.7(27) . . .
35.8(31) . . .
37.2(32) . . .
32.5(30) . . .
32.2(30) . . .
39.3(33) . . .
41.6(34) . . .
28.7(28) . . .
31.9(30) . . .
36.7(34) . . .
34.4(32) . . .
39.9(34) . . .
37.3(32) . . .
34.7(32) . . .
41(4) . . .
36.5(32) . . .
36.5(32) . . .
39(4) . . .
29.3(29) . . .
31.8(30) . . .
38.7(34) . . .
40.0(33) . . .
29.2(28) . . .
38.4(34) . . .
36.3(34) . . .
29.1(29) . . .
33.2(30) . . .
39.1(33) . . .
40.5(35) . . .
38.1(34) . . .
32.7(30) . . .
34.7(31) . . .
42.4(34) . . .
33.7(32) . . .
33.2(32) . . .
40.1(34) . . .
39.6(33) . . .
32.0(30) . . .
26.9(28) . . .
38(4) . . .
29.1(28) . . .
31.8(29) . . .
32.7(30) . . .
34.7(34) . . .
32.7(33) . . .
32.0(31) . . .
33.7(30) . . .
32.2(30) . . .
36(4) . . .
35.2(35) . . .
34.7(30) . . .
38.7(32) . . .
47(4) . . .
45(4) . . .
29.3(29) . . .
35.4(31) . . .
33.3(32) . . .
29.5(29) . . .
31.7(30) . . .
35.9(31) . . .
35.4(31) . . .
32.2(30) . . .
30.5(30) . . .
35.7(33) . . .
33.9(32) . . .
35.7(32) . . .
35.7(31) . . .
34.9(31) . . .
40(4) . . .
32.7(31) . . .
31.6(30) . . .
33.4(30) . . .
37.4(33) . . .
34.4(31) . . .
34.9(32) . . .
37.3(32) . . .
38.8(33) . . .
34.5(33) . . .
30.8(29) . . .
47(4) . . .
27.0(27) . . .
29.3(31) . . .
38.0(34) . . .
38.0(33) . . .
40.3(34) . . .
26.0(27) . . .
27.1(27) . . .
39.5(34) . . .
34.3(32) . . .
35.8(31) . . .
38.2(33) . . .
34.7(32) . . .
30.4(30) . . .
29.8(31) . . .
29.0(29) . . .
28.4(29) . . .
27.7(28) . . .
39.0(35) . . .
36.8(32) . . .
30.9(29) . . .
26.3(27) . . .
35.5(34) . . .
24.3(27) . . .
27.0(30) . . .
33.5(30) . . .
34.3(30) . . .
25.1(26) . . .
37.0(33) . . .
36.7(33) . . .
30.9(29) . . .
36.2(33) . . .
32.7(31) . . .
30.3(30) . . .
31.9(30) . . .
27.6(27) . . .
29.7(29) . . .
39.1(34) . . .
42(4) . . .
32.9(33) . . .
29.9(28) . . .
31.3(31) . . .
37(4) . . .
32.8(31) . . .
36.2(31) . . .
29.4(28) . . .
30.2(30) . . .
26.3(28) . . .
31.7(31) . . .
28.5(28) . . .
32.8(31) . . .
35.4(32) . . .
28.4(30) . . .
32.8(31) . . .
33.2(31) . . .
44.0(35) . . .
31.1(29) . . .
33.0(31) . . .
32.4(31) . . .
35.1(32) . . .
34.8(31) . . .
32.0(31) . . .
29.8(31) . . .
36.1(34) . . .
37.5(32) . . .
35.8(31) . . .
33.1(30) . . .
41(4) . . .
34.9(32) . . .
35.4(31) . . .
36.3(31) . . .
37.9(33) . . .
29.9(30) . . .
34.6(32) . . .
35.2(31) . . .
38.4(32) . . .
30.8(29) . . .
34.0(33) . . .
39.1(33) . . .
37.9(33) . . .
34.1(31) . . .
27.0(30) . . .
31.3(30) . . .
38(4) . . .
29.9(30) . . .
33.3(32) . . .
28.9(28) . . .
35.4(34) . . .
35.3(33) . . .
36.1(31) . . .
32.5(30) . . .
41(4) . . .
42(4) . . .
43(4) . . .
43.8(35) . . .
36.5(32) . . .
36.1(34) . . .
26.1(26) . . .
31.6(29) . . .
39.5(33) . . .
42.8(35) . . .
29.5(29) . . .
32.7(31) . . .
40.3(33) . . .
33.4(30) . . .
33.4(32) . . .
33.1(32) . . .
30.7(30) . . .
29.6(29) . . .
34.7(31) . . .
37.7(32) . . .
28.1(30) . . .
27.6(28) . . .
38.4(32) . . .
47(4) . . .
38.0(32) . . .
32.7(31) . . .
35.0(32) . . .
35.6(31) . . .
31.9(29) . . .
30.6(28) . . .
36.5(34) . . .
44(4) . . .
28.0(28) . . .
35.6(31) . . .
34.7(32) . . .
36.0(34) . . .
37.0(32) . . .
27.4(28) . . .
33.8(30) . . .
35.3(32) . . .
37.6(33) . . .
26.3(27) . . .
36.1(31) . . .
44.1(35) . . .
36.2(31) . . .
26.0(29) . . .
39(4) . . .
32.6(29) . . .
35.8(31) . . .
39.1(34) . . .
28.5(30) . . .
31.5(29) . . .
35.0(31) . . .
33.8(31) . . .
34.8(31) . . .
41.2(34) . . .
32.6(30) . . .
39.3(33) . . .
39.4(35) . . .
34.7(33) . . .
27.9(27) . . .
35.1(30) . . .
39.0(33) . . .
33.4(32) . . .
33.7(32) . . .
31.6(29) . . .
33.0(30) . . .
35.5(31) . . .
36.6(34) . . .
33.8(32) . . .
37.5(34) . . .
32.9(31) . . .
32.6(30) . . .
42.1(34) . . .
37.5(34) . . .
30.5(30) . . .
37.7(32) . . .
43.8(34) . . .
42.7(35) . . .
33.9(33) . . .
32.3(29) . . .
44.4(34) . . .
32.1(30) . . .
34.4(31) . . .
34.4(33) . . .
36.1(34) . . .
40.4(33) . . .
43.6(35) . . .
36.0(31) . . .
38(4) . . .
31.9(30) . . .
31.3(30) . . .
31.7(30) . . .
32.9(31) . . .
42(4) . . .
35.1(31) . . .
38.1(32) . . .
28.1(28) . . .
42(4) . . .
32.9(32) . . .
28.1(28) . . .
31.0(29) . . .
32.8(30) . . .
33.7(32) . . .
35.1(32) . . .
33.3(31) . . .
39.0(33) . . .
43(4) . . .
32.2(31) . . .
29.1(30) . . .
34.1(32) . . .
31.9(29) . . .
31.9(31) . . .
31.1(31) . . .
42.1(35) . . .
34.7(31) . . .
35.3(31) . . .
28.3(29) . . .
34.3(34) . . .
29.8(30) . . .
33.8(30) . . .
38.1(32) . . .
26.3(27) . . .
28.3(30) . . .
37.0(32) . . .
36.7(32) . . .
38.5(33) . . .
35.4(33) . . .
36.2(33) . . .
40.9(34) . . .
37.4(32) . . .
31.4(30) . . .
35.3(31) . . .
32.6(30) . . .
37.8(34) . . .
36.8(31) . . .
32.9(30) . . .
34.3(31) . . .
37.6(34) . . .
34.5(32) . . .
34.7(31) . . .
31.5(31) . . .
34.3(31) . . .
34.7(32) . . .
43(4) . . .
34.5(31) . . .
28.9(28) . . .
31.6(29) . . .
33.7(31) . . .
30.2(30) . . .
31.4(29) . . .
34.7(32) . . .
28.7(28) . . .
35.3(32) . . .
27.8(27) . . .
28.4(27) . . .
30.3(29) . . .
44(4) . . .
29.5(29) . . .
34.6(31) . . .
34.0(31) . . .
36.4(33) . . .
33.6(33) . . .
27.6(29) . . .
33.8(30) . . .
32.5(30) . . .
31.6(30) . . .
33.6(34) . . .
30.6(31) . . .
27.5(28) . . .
34.4(31) . . .
39.8(33) . . .
34.3(32) . . .
30.9(29) . . .
37.4(33) . . .
35.7(32) . . .
32.3(32) . . .
31.0(31) . . .
37.8(33) . . .
35.8(33) . . .
32.7(31) . . .
32.3(30) . . .
31.1(34) . . .
31.2(31) . . .
31.3(29) . . .
35.2(31) . . .
37.0(33) . . .
29.5(31) . . .
33.3(32) . . .
34.9(31) . . .
34.1(30) . . .
36.0(31) . . .
32.8(30) . . .
26.1(27) . . .
28.9(28) . . .
31.5(30) . . .
36.0(32) . . .
30.1(29) . . .
31.4(30) . . .
40.9(33) . . .
36.0(32) . . .
36.4(33) . . .
28.3(29) . . .
31.2(35) . . .
29.6(29) . . .
34.3(32) . . .
38.8(35) . . .
45(4) . . .
42(4) . . .
38.1(32) . . .
37.8(33) . . .
33.5(30) . . .
35.8(32) . . .
29.0(28) . . .
32.7(29) . . .
32.6(31) . . .
38(4) . . .
22.7(24) . . .
29.0(28) . . .
36.2(32) . . .
29.7(28) . . .
34.8(34) . . .
36.1(32) . . .
38.6(33) . . .
32.3(30) . . .
30.0(29) . . .
25.1(27) . . .
31.6(32) . . .
35.2(31) . . .
35.2(31) . . .
38.8(33) . . .
30.2(30) . . .
31.9(30) . . .
42.8(34) . . .
37.1(32) . . .
32.7(30) . . .
35.5(33) . . .
37.0(33) . . .
37.8(33) . . .
46(4) . . .
34.3(32) . . .
24.7(26) . . .
32.5(31) . . .
31.6(30) . . .
29.4(28) . . .
30.5(30) . . .
40.0(34) . . .
34.9(33) . . .
24.3(26) . . .
31.0(31) . . .
35.8(32) . . .
37.4(33) . . .
37.0(32) . . .
32.3(30) . . .
32.8(31) . . .
24.3(25) . . .
39(4) . . .
39(4) . . .
38.4(32) . . .
33.9(32) . . .
36.7(34) . . .
31.8(29) . . .
37.0(31) . . .
39.0(33) . . .
30.5(29) . . .
36.6(33) . . .
37.9(33) . . .
41.8(35) . . .
33.4(31) . . .
29.2(29) . . .
30.8(29) . . .
44(4) . . .
31.6(29) . . .
34.9(31) . . .
38.8(34) . . .
45(4) . . .
29.1(28) . . .
31.0(29) . . .
41.7(35) . . .
38.0(33) . . .
32.8(34) . . .
31.0(31) . . .
33.1(30) . . .
29.9(29) . . .
40(4) . . .
44(4) . . .
36.2(32) . . .
31.6(29) . . .
35.8(31) . . .
38.0(33) . . .
38.2(35) . . .
36.3(34) . . .
31.0(30) . . .
40.7(34) . . .
39(4) . . .
29.9(29) . . .
29.0(28) . . .
37.0(31) . . .
35.3(31) . . .
36.1(33) . . .
34.2(31) . . .
39.6(33) . . .
38.1(32) . . .
37.1(33) . . .
36.1(35) . . .
33.5(33) . . .
34.7(32) . . .
36.7(32) . . .
34.2(32) . . .
29.0(28) . . .
34.3(31) . . .
37.9(32) . . .
31.8(29) . . .
38.6(33) . . .
46(4) . . .
30.7(29) . . .
37.0(32) . . .
33.9(30) . . .
26.6(28) . . .
30.2(32) . . .
27.7(29) . . .
32.1(32) . . .
38.0(32) . . .
36.3(33) . . .
37.4(34) . . .
35.2(31) . . .
31.7(29) . . .
37.5(32) . . .
28.9(30) . . .
27.2(32) . . .
30.0(29) . . .
35.3(31) . . .
28.8(28) . . .
36.2(34) . . .
32.7(32) . . .
36.9(32) . . .
42.0(34) . . .
30.1(28) . . .
39(4) . . .
38(4) . . .
42(4) . . .
31.5(29) . . .
31.6(30) . . .
30.8(31) . . .
34.7(32) . . .
41.9(35) . . .
33.5(30) . . .
33.9(30) . . .
31.8(29) . . .
41.5(34) . . .
38.5(34) . . .
29.0(29) . . .
31.6(30) . . .
35.4(32) . . .
40.3(35) . . .
39.5(34) . . .
33.8(30) . . .
27.8(27) . . .
33.5(32) . . .
35.8(34) . . .
29.2(29) . . .
28.0(27) . . .
37.4(32) . . .
32.6(31) . . .
23.8(26) . . .
31.7(31) . . .
27.0(27) . . .
37.5(34) . . .
31.4(32) . . .
38.2(34) . . .
27.0(27) . . .
27.4(28) . . .
32.9(30) . . .
44(4) . . .
29.4(29) . . .
44(4) . . .
35.1(31) . . .
32.8(30) . . .
33.2(32) . . .
36.3(32) . . .
35.9(31) . . .
34.8(31) . . .
36.4(34) . . .
36.8(34) . . .
37.3(34) . . .
38.3(32) . . .
44.7(35) . . .
37.6(34) . . .
36.1(34) . . .
36.7(32) . . .
35.7(31) . . .
30.2(29) . . .
33.5(31) . . .
34.1(33) . . .
39.7(35) . . .
38.7(32) . . .
31.4(30) . . .
31.0(30) . . .
38.2(34) . . .
35.4(31) . . .
33.5(30) . . .
37(4) . . .
32.6(30) . . .
37.4(32) . . .
39.0(33) . . .
33.7(31) . . .
36.2(31) . . .
35.7(31) . . .
42(4) . . .
33.2(30) . . .
35.6(31) . . .
27.6(28) . . .
28.7(30) . . .
35.8(34) . . .
32.3(30) . . .
29.9(28) . . .
40(4) . . .
35.0(32) . . .
32.3(31) . . .
29.5(28) . . .
29.9(29) . . .
29.2(29) . . .
36.9(34) . . .
31.0(29) . . .
32.8(29) . . .
38.0(32) . . .
33.2(30) . . .
33.8(34) . . .
30.6(29) . . .
23.7(25) . . .
37.4(33) . . .
36.8(32) . . .
36.1(32) . . .
43.4(35) . . .
34.8(30) . . .
34.3(30) . . .
35.9(33) . . .
35.4(33) . . .
35.8(32) . . .
44.4(35) . . .
35.6(32) . . .
40(4) . . .
29.9(30) . . .
25.6(28) . . .
24.6(26) . . .
37.9(34) . . .
36.5(32) . . .
30.5(27) . . .
33.4(33) . . .
31.7(29) . . .
25.8(28) . . .
25.1(26) . . .
33.6(32) . . .
27.9(29) . . .
35.3(31) . . .
28.0(28) . . .
31.5(32) . . .
22.6(24) . . .
33.7(31) . . .
30.7(29) . . .
42.7(35) . . .
30.6(30) . . .
27.8(29) . . .
31.8(29) . . .
26.3(27) . . .
36.8(34) . . .
28.3(30) . . .
30.1(31) . . .
32.3(30) . . .
36.8(32) . . .
32.1(31) . . .
36.7(34) . . .
35.6(32) . . .
25.3(26) . . .
30.1(29) . . .
41.9(35) . . .
38.9(33) . . .
35.2(30) . . .
37.0(32) . . .
37.2(31) . . .
40.5(35) . . .
46(4) . . .
36.3(32) . . .
28.0(28) . . .
33.7(30) . . .
36.1(32) . . .
35.9(35) . . .
36.3(32) . . .
35.9(31) . . .
29.9(29) . . .
36.7(33) . . .
38.7(34) . . .
37.4(33) . . .
37.3(31) . . .
37.9(32) . . .
38(4) . . .
35.4(32) . . .
36.5(33) . . .
47(4) . . .
33.3(32) . . .
32.7(29) . . .
36.7(32) . . .
36.2(32) . . .
37.2(32) . . .
33.0(32) . . .
30.1(31) . . .
35.6(34) . . .
25.0(28) . . .
36.5(32) . . .
29.3(28) . . .
32.3(32) . . .
33.0(32) . . .
39.3(32) . . .
30.7(30) . . .
29.7(29) . . .
33.8(31) . . .
37.4(32) . . .
29.5(29) . . .
34.5(31) . . .
37.8(32) . . .
29.7(30) . . .
33.4(33) . . .
31.0(31) . . .
33.2(30) . . .
40(4) . . .
35.8(32) . . .
45(4) . . .
31.6(29) . . .
34.5(31) . . .
28.0(27) . . .
35.1(33) . . .
34.9(31) . . .
29.7(28) . . .
35.2(32) . . .
38.3(34) . . .
37.8(34) . . .
41.8(35) . . .
38.5(33) . . .
25.8(27) . . .
33.4(32) . . .
35.8(35) . . .
31.5(30) . . .
33.1(30) . . .
30.6(29) . . .
25.1(26) . . .
32.6(32) . . .
45(4) . . .
37.7(32) . . .
32.7(30) . . .
34.6(33) . . .
24.6(26) . . .
29.1(28) . . .
39.7(33) . . .
36.6(32) . . .
38.4(35) . . .
33.7(32) . . .
30.6(31) . . .
40.5(33) . . .
40(4) . . .
33.0(31) . . .
31.5(31) . . .
31.8(33) . . .
29.7(29) . . .
31.5(30) . . .
27.5(29) . . .
29.8(29) . . .
28.5(29) . . .
36.1(32) . . .
36.3(31) . . .
37.4(33) . . .
36.5(32) . . .
37.4(32) . . .
34.0(31) . . .
31.1(30) . . .
26.9(28) . . .
39.5(35) . . .
40.0(34) . . .
40.4(32) . . .
30.4(29) . . .
35.7(33) . . .
39(4) . . .
40.3(33) . . .
37.4(32) . . .
37.1(34) . . .
28.4(30) . . .
31.4(30) . . .
35.8(31) . . .
35.6(31) . . .
37.7(31) . . .
38.6(33) . . .
37.9(35) . . .
37.6(33) . . .
36.3(31) . . .
35.1(33) . . .
31.0(31) . . .
34.0(32) . . .
31.5(29) . . .
31.0(30) . . .
29.6(29) . . .
35.3(31) . . .
32.1(33) . . .
27.5(27) . . .
31.3(29) . . .
30.5(30) . . .
31.7(31) . . .
27.7(28) . . .
40.5(33) . . .
30.9(31) . . .
34.2(33) . . .
29.9(28) . . .
34.9(32) . . .
43.9(34) . . .
27.9(29) . . .
38(4) . . .
37.5(33) . . .
33.8(31) . . .
31.1(29) . . .
39.0(33) . . .
36.7(34) . . .
32.1(30) . . .
32.7(30) . . .
39.1(32) . . .
32.6(30) . . .
44(4) . . .
28.2(29) . . .
34.9(31) . . .
36.7(32) . . .
31.0(28) . . .
35.3(32) . . .
36.5(33) . . .
38.1(32) . . .
25.0(27) . . .
32.7(33) . . .
25.4(26) . . .
33.4(32) . . .
24.9(26) . . .
32.7(30) . . .
34.8(31) . . .
33.6(31) . . .
34.3(31) . . .
42.4(34) . . .
29.8(29) . . .
31.9(32) . . .
27.1(28) . . .
37.8(35) . . .
41.5(33) . . .
38.8(33) . . .
33.3(30) . . .
30.5(31) . . .
32.1(31) . . .
36.3(31) . . .
44(4) . . .
33.0(31) . . .
36.3(34) . . .
28.0(28) . . .
36.9(32) . . .
36.7(32) . . .
39(4) . . .
30.1(31) . . .
32.7(30) . . .
32.9(30) . . .
38.6(32) . . .
40.2(35) . . .
31.7(30) . . .
33.4(30) . . .
33.3(30) . . .
32.1(33) . . .
32.0(33) . . .
30.5(29) . . .
33.8(31) . . .
33.8(31) . . .
36.2(32) . . .
32.5(31) . . .
31.0(30) . . .
31.9(31) . . .
34.5(30) . . .
29.2(28) . . .
31.5(30) . . .
40.2(35) . . .
38.0(33) . . .
38.0(32) . . .
33.7(32) . . .
28.7(30) . . .
36.9(35) . . .
29.4(29) . . .
30.7(29) . . .
29.0(28) . . .
35.6(33) . . .
36.2(31) . . .
34.2(30) . . .
29.6(30) . . .
38.7(33) . . .
38(4) . . .
34.7(32) . . .
30.3(29) . . .
37.1(32) . . .
35.3(33) . . .
34.8(31) . . .
29.8(33) . . .
34.2(31) . . .
36.1(32) . . .
33.0(30) . . .
37.9(33) . . .
32.1(29) . . .
47(4) . . .
34.6(31) . . .
30.6(29) . . .
43(4) . . .
26.0(28) . . .
33.4(30) . . .
28.3(30) . . .
30.8(31) . . .
26.2(28) . . .
28.9(28) . . .
31.7(30) . . .
39(4) . . .
33.6(32) . . .
25.7(27) . . .
38.9(33) . . .
33.8(31) . . .
33.2(31) . . .
40(4) . . .
25.3(26) . . .
32.4(30) . . .
35.6(31) . . .
32.4(30) . . .
29.6(30) . . .
34.2(32) . . .
29.5(29) . . .
31.4(29) . . .
34.8(31) . . .
30.1(30) . . .
35.0(32) . . .
38.9(33) . . .
34.2(30) . . .
43.7(34) . . .
42(4) . . .
39.6(34) . . .
31.5(29) . . .
41.2(34) . . .
38.1(35) . . .
27.6(27) . . .
30.9(31) . . .
29.2(29) . . .
34.4(32) . . .
37.3(34) . . .
28.1(28) . . .
32.1(30) . . .
44.0(35) . . .
44(4) . . .
34.5(31) . . .
24.0(27) . . .
25.5(27) . . .
29.0(28) . . .
38.3(33) . . .
33.9(31) . . .
35.3(34) . . .
33.7(31) . . .
36.1(32) . . .
28.3(29) . . .
33.9(31) . . .
33.4(30) . . .
33.2(31) . . .
36.0(31) . . .
32.5(30) . . .
40.3(35) . . .
37.2(34) . . .
38.5(33) . . .
33.0(30) . . .
32.9(31) . . .
28.1(31) . . .
31.3(31) . . .
30.5(29) . . .
34.8(31) . . .
29.1(30) . . .
31.0(31) . . .
34.7(31) . . .
32.3(30) . . .
33.1(30) . . .
31.2(30) . . .
38(4) . . .
29.4(29) . . .
37.0(32) . . .
33.6(31) . . .
34.1(32) . . .
32.8(31) . . .
36.9(33) . . .
30.4(29) . . .
37.2(34) . . .
33.2(31) . . .
35.4(32) . . .
37.8(32) . . .
34.5(30) . . .
34.6(31) . . .
29.4(30) . . .
26.5(27) . . .
30.8(29) . . .
33.0(30) . . .
30.0(28) . . .
34.2(33) . . .
35.0(33) . . .
33.8(31) . . .
33.7(30) . . .
29.9(29) . . .
49(4) . . .
43(4) . . .
35.6(32) . . .
33.1(30) . . .
28.7(28) . . .
39(4) . . .
33.0(31) . . .
34.2(32) . . .
36.2(32) . . .
35.2(32) . . .
32.2(30) . . .
35.7(34) . . .
30.4(30) . . .
28.3(28) . . .
31.9(30) . . .
31.8(30) . . .
33.5(32) . . .
33.1(30) . . .
41.7(34) . . .
34.7(32) . . .
40(4) . . .
38.6(34) . . .
31.7(29) . . .
29.8(29) . . .
30.8(29) . . .
32.0(32) . . .
36.6(32) . . .
35.7(31) . . .
33.9(32) . . .
39.5(34) . . .
28.6(31) . . .
30.1(29) . . .
30.3(29) . . .
36.0(31) . . .
42(4) . . .
25.7(28) . . .
46(4) . . .
36.7(31) . . .
36.0(32) . . .
30.7(30) . . .
43(4) . . .
29.0(28) . . .
35.4(31) . . .
36.6(31) . . .
37.5(33) . . .
41(4) . . .
28.5(29) . . .
41.3(34) . . .
28.5(27) . . .
35.9(32) . . .
32.7(31) . . .
27.0(28) . . .
31.4(30) . . .
38.9(33) . . .
29.6(28) . . .
39(4) . . .
30.0(29) . . .
36.7(32) . . .
35.2(31) . . .
33.9(30) . . .
35.4(32) . . .
28.6(28) . . .
31.6(29) . . .
31.6(31) . . .
34.8(33) . . .
30.2(29) . . .
32.9(30) . . .
32.3(29) . . .
32.7(31) . . .
37.6(35) . . .
31.1(30) . . .
36.7(32) . . .
26.6(27) . . .
41(4) . . .
40(4) . . .
28.1(28) . . .
34.3(30) . . .
33.8(30) . . .
33.3(30) . . .
31.5(32) . . .
38.9(35) . . .
33.1(29) . . .
31.5(30) . . .
32.0(29) . . .
34.3(33) . . .
33.9(31) . . .
34.6(31) . . .
50(4) . . .
38.2(33) . . .
34.6(32) . . .
33.4(31) . . .
28.7(28) . . .
30.3(30) . . .
32.1(30) . . .
33.6(32) . . .
29.3(29) . . .
33.3(30) . . .
24.9(27) . . .
32.3(30) . . .
31.5(29) . . .
37.8(33) . . .
27.9(28) . . .
34.5(31) . . .
32.7(32) . . .
28.5(28) . . .
38.7(32) . . .
39.7(33) . . .
42(4) . . .
28.7(29) . . .
34.4(31) . . .
38.4(32) . . .
33.9(31) . . .
43(4) . . .
30.7(31) . . .
28.9(28) . . .
36.5(33) . . .
37.8(33) . . .
39.2(33) . . .
31.3(29) . . .
34.6(34) . . .
37.4(32) . . .
29.8(28) . . .
35.3(32) . . .
39.2(34) . . .
37.5(33) . . .
32.7(30) . . .
37.3(32) . . .
31.0(31) . . .
32.9(33) . . .
29.5(28) . . .
40.1(32) . . .
38.2(32) . . .
40.4(35) . . .
39(4) . . .
37.0(32) . . .
36.6(31) . . .
33.0(30) . . .
27.9(28) . . .
29.8(31) . . .
25.5(27) . . .
30.9(29) . . .
37.2(33) . . .
28.0(28) . . .
27.8(29) . . .
38.2(33) . . .
40.7(33) . . .
35.8(31) . . .
34.1(31) . . .
33.0(32) . . .
31.4(31) . . .
35.5(32) . . .
31.3(30) . . .
32.1(30) . . .
30.4(30) . . .
30.1(28) . . .
28.9(28) . . .
32.9(32) . . .
31.5(30) . . .
28.0(28) . . .
36.5(31) . . .
28.3(28) . . .
31.6(30) . . .
28.9(29) . . .
38.2(34) . . .
41.5(33) . . .
30.0(29) . . .
34.1(32) . . .
32.0(30) . . .
32.2(31) . . .
31.6(30) . . .
29.8(28) . . .
38.0(34) . . .
29.9(28) . . .
31.7(30) . . .
38.3(33) . . .
33.7(31) . . .
44(4) . . .
36.9(32) . . .
32.5(31) . . .
27.0(27) . . .
37.0(32) . . .
33.3(29) . . .
33.6(31) . . .
37.3(34) . . .
32.8(30) . . .
33.5(30) . . .
29.4(29) . . .
33.6(32) . . .
39.7(34) . . .
26.6(27) . . .
41.5(35) . . .
30.5(31) . . .
27.6(29) . . .
33.9(31) . . .
31.3(30) . . .
32.5(29) . . .
31.5(28) . . .
34.6(31) . . .
36.2(35) . . .
35.0(31) . . .
31.9(29) . . .
34.6(32) . . .
24.5(27) . . .
31.4(30) . . .
32.5(30) . . .
29.4(28) . . .
42(4) . . .
45(4) . . .
30.8(30) . . .
31.8(30) . . .
39.9(33) . . .
34.8(32) . . .
35.1(32) . . .
43(4) . . .
35.4(30) . . .
25.8(29) . . .
32.0(33) . . .
25.8(28) . . .
36.9(32) . . .
37.4(31) . . .
33.5(31) . . .
36.9(35) . . .
30.5(28) . . .
26.9(27) . . .
25.4(27) . . .
31.2(32) . . .
27.6(28) . . .
33.6(32) . . .
39.7(34) . . .
25.7(26) . . .
36.9(33) . . .
31.7(29) . . .
35.8(31) . . .
32.8(30) . . .
38.6(33) . . .
38.3(33) . . .
38(4) . . .
32.0(30) . . .
35.0(31) . . .
27.7(29) . . .
36.0(33) . . .
35.0(33) . . .
39.7(32) . . .
39.8(33) . . .
43.1(34) . . .
35.6(32) . . .
28.6(29) . . .
31.5(30) . . .
28.7(28) . . .
26.1(27) . . .
36.9(34) . . .
34.3(32) . . .
39.1(33) . . .
41.3(33) . . .
32.8(33) . . .
35.0(31) . . .
29.8(28) . . .
38.2(33) . . .
31.2(29) . . .
35.6(32) . . .
37.2(31) . . .
42(4) . . .
30.1(29) . . .
37.2(32) . . .
33.9(32) . . .
25.1(26) . . .
31.8(30) . . .
33.3(30) . . .
32.9(30) . . .
36.0(33) . . .
30.3(29) . . .
33.2(32) . . .
35.0(31) . . .
40.3(33) . . .
36.8(32) . . .
28.1(29) . . .
31.5(30) . . .
36.6(32) . . .
38.4(32) . . .
35.8(33) . . .
30.0(30) . . .
29.8(28) . . .
34.9(32) . . .
30.7(29) . . .
40.4(34) . . .
41(4) . . .
32.1(30) . . .
25.5(27) . . .
36.2(31) . . .
40.4(34) . . .
41(4) . . .
32.7(31) . . .
30.7(28) . . .
29.0(29) . . .
34.2(33) . . .
34.4(33) . . .
39.8(34) . . .
31.6(29) . . .
29.5(29) . . .
37.9(34) . . .
30.8(31) . . .
30.6(30) . . .
39.3(32) . . .
26.4(27) . . .
38.2(34) . . .
38.2(33) . . .
37.7(33) . . .
29.5(28) . . .
36.2(31) . . .
35.3(30) . . .
32.1(29) . . .
33.0(31) . . .
36.9(32) . . .
36.6(32) . . .
35.7(32) . . .
33.3(30) . . .
28.0(28) . . .
35.7(31) . . .
37.8(34) . . .
33.2(31) . . .
30.5(31) . . .
34.6(31) . . .
33.9(30) . . .
25.5(26) . . .
31.8(31) . . .
37.5(33) . . .
36.8(32) . . .
32.5(30) . . .
36.1(32) . . .
36(4) . . .
30.3(30) . . .
31.4(29) . . .
32.8(30) . . .
29.7(29) . . .
34.3(35) . . .
37.1(32) . . .
36.9(31) . . .
31.9(30) . . .
41(4) . . .
27.4(28) . . .
38.8(35) . . .
39.3(33) . . .
39.5(33) . . .
33.8(33) . . .
35.6(32) . . .
32.6(30) . . .
32.8(30) . . .
30.4(29) . . .
33.4(32) . . .
36(4) . . .
32.0(30) . . .
33.3(30) . . .
33.5(31) . . .
27.6(28) . . .
50(4) . . .
32.0(30) . . .
35.7(31) . . .
34.4(31) . . .
40.8(35) . . .
39(4) . . .
30.9(30) . . .
39.8(32) . . .
30.8(29) . . .
32.1(29) . . .
34.8(32) . . .
30.6(30) . . .
47(4) . . .
36.4(33) . . .
33.8(33) . . .
37.9(34) . . .
39.3(32) . . .
33.2(30) . . .
41(4) . . .
36.7(34) . . .
24.6(26) . . .
31.8(30) . . .
37.5(32) . . .
37.9(34) . . .
33.0(33) . . .
31.3(31) . . .
35.2(31) . . .
33.8(30) . . .
35.1(32) . . .
31.0(31) . . .
35.1(32) . . .
32.2(30) . . .
43(4) . . .
35.4(31) . . .
38.5(34) . . .
37.5(32) . . .
40.7(34) . . .
39.0(32) . . .
38.2(32) . . .
31.6(29) . . .
30.0(29) . . .
25.1(26) . . .
29.5(28) . . .
32.5(30) . . .
32.0(31) . . .
34.2(32) . . .
33.4(30) . . .
30.1(30) . . .
28.1(29) . . .
33.5(34) . . .
32.8(31) . . .
32.5(29) . . .
loop_
_refln_index_h
_refln_index_k
_refln_index_l
_refln_observed_status
_refln_F_squared_meas
_refln_F_squared_calc
_refln_phase_calc
_refln_d_spacing
_gsas_i100_meas
0 2 0 o 1474.297 1397.159 180.00 8.38188 2.30
0 0 2 o 387.306 17.862 180.00 6.39292 0.35
1 0 1 o 13821.659 14191.918 0.00 5.88563 21.30
0 2 2 o 31308.475 31120.436 0.00 5.08317 36.01
0 3 1 o 1186.360 1306.192 180.00 5.12028 1.38
1 2 1 o 1840.114 1796.730 0.00 4.81675 3.80
1 1 2 o 4241.995 4188.545 0.00 4.43777 7.44
0 1 3 o 280.005 22.139 0.00 4.13055 0.21
0 4 0 o 2722.528 829.020 0.00 4.19094 1.07
1 0 3 o 722.419 197.152 180.00 3.58508 0.41
1 3 2 o 3690.316 3718.419 0.00 3.55234 4.15
0 0 4 o 163.671 110.975 180.00 3.19646 0.04
0 4 2 o 0.000 2.645 0.00 3.50494 0.00
0 3 3 o 11325.067 11483.270 0.00 3.38878 5.80
1 4 1 o 857.330 931.419 180.00 3.41389 0.89
1 2 3 o 868.033 1241.255 0.00 3.29623 0.84
0 5 1 o 38.812 73.398 180.00 3.24311 0.02
2 0 0 o 2095.945 2132.861 180.00 3.31491 0.51
0 2 4 o 2081.565 2047.234 0.00 2.98666 0.83
2 1 1 o 1017.737 1006.017 180.00 3.15160 0.90
2 2 0 o 171.242 220.682 0.00 3.08259 0.07
1 1 4 o 73.221 32.839 0.00 2.83773 0.05
2 0 2 o 477.694 428.209 0.00 2.94282 0.18
0 6 0 o 980.611 1329.558 0.00 2.79396 0.17
2 3 1 o 900.740 975.219 0.00 2.78266 0.62
2 2 2 o 2246.511 2379.746 180.00 2.77665 1.55
0 1 5 o 1868.551 1888.858 180.00 2.52793 0.53
1 4 3 o 5024.386 5237.286 0.00 2.72429 3.34
1 5 2 o 2991.440 2866.939 180.00 2.70984 1.97
1 3 4 o 86.706 101.607 0.00 2.55949 0.05
2 1 3 o 1558.100 1456.440 0.00 2.58531 0.93
2 4 0 o 1867.967 1895.259 180.00 2.59992 0.57
0 5 3 o 666.464 602.531 180.00 2.63511 0.21
0 4 4 o 10496.891 11933.754 0.00 2.54158 3.04
0 6 2 o 110.130 132.839 0.00 2.56014 0.03
1 6 1 o 713.211 688.771 0.00 2.52401 0.41
1 0 5 o 558.001 290.456 180.00 2.38585 0.14
0 3 5 o 275.205 194.241 0.00 2.32526 0.07
0 7 1 o 317.452 255.116 0.00 2.35389 0.08
1 2 5 o 577.813 477.617 0.00 2.29470 0.27
2 0 4 o 2921.323 2544.689 180.00 2.30098 0.69
2 3 3 o 105.324 124.864 180.00 2.36968 0.05
2 4 2 o 36.906 57.941 180.00 2.40837 0.02
2 5 1 o 3.530 2.906 180.00 2.31819 0.00
0 0 6 o 3509.902 3931.751 0.00 2.13097 0.36
2 2 4 o 37.645 30.787 0.00 2.21889 0.02
0 2 6 o 79.529 89.636 180.00 2.06527 0.02
1 5 4 o 5313.089 5551.601 0.00 2.18434 2.28
1 6 3 o 4946.940 4714.766 180.00 2.20376 2.16
0 8 0 o 22.694 17.004 180.00 2.09547 0.00
1 1 6 o 692.166 744.609 180.00 2.01406 0.25
2 6 0 o 1233.239 1367.713 180.00 2.13635 0.25
1 7 2 o 2295.590 2444.551 0.00 2.12439 0.93
1 4 5 o 5.333 5.798 180.00 2.07341 0.00
3 0 1 o 3123.089 2748.039 180.00 2.17765 0.67
2 1 5 o 335.397 366.444 180.00 2.01013 0.12
0 6 4 o 9323.642 7578.726 180.00 2.10363 1.86
0 7 3 o 6694.538 5716.519 0.00 2.08780 1.31
0 5 5 o 19714.650 21141.186 0.00 2.03327 3.67
3 2 1 o 33.147 38.582 0.00 2.10768 0.01
3 1 2 o 2776.745 2876.239 180.00 2.07264 1.07
2 5 3 o 363.293 384.340 0.00 2.06277 0.14
2 4 4 o 1317.960 1417.053 180.00 2.01697 0.48
0 8 2 o 2887.282 2682.722 180.00 1.99123 0.52
2 6 2 o 590.200 545.020 180.00 2.02621 0.22
1 8 1 o 641.306 788.844 180.00 1.97409 0.23
1 3 6 o 764.014 605.664 0.00 1.90696 0.25
0 4 6 o 2199.584 1587.159 180.00 1.89952 0.36
3 0 3 o 2465.713 2486.145 0.00 1.96188 0.43
0 1 7 o 262.244 535.829 0.00 1.81580 0.04
2 3 5 o 1340.110 1027.677 0.00 1.90362 0.44
2 7 1 o 299.771 282.181 180.00 1.91924 0.10
3 3 2 o 1287.502 772.401 0.00 1.95646 0.44
3 2 3 o 5224.684 4411.280 180.00 1.91025 1.72
3 4 1 o 962.330 548.080 180.00 1.93236 0.32
1 0 7 o 919.143 1122.389 0.00 1.76094 0.13
0 9 1 o 2842.720 3199.805 0.00 1.84318 0.44
2 0 6 o 6.120 10.905 180.00 1.79254 0.00
0 3 7 o 1149.635 1515.626 0.00 1.73615 0.16
1 2 7 o 517.268 617.229 180.00 1.72332 0.14
3 1 4 o 3073.072 3122.277 0.00 1.80720 0.91
2 2 6 o 1448.286 1634.139 180.00 1.75290 0.40
1 6 5 o 260.721 398.908 0.00 1.81435 0.08
1 7 4 o 470.134 446.765 180.00 1.84119 0.14
1 8 3 o 99.048 97.528 0.00 1.80911 0.03
2 8 0 o 43.480 39.492 0.00 1.77125 0.01
1 5 6 o 1073.025 1432.319 0.00 1.73572 0.29
3 4 3 o 360.534 314.664 180.00 1.77683 0.10
2 6 4 o 1537.049 1370.401 0.00 1.77617 0.44
2 5 5 o 1951.010 2564.811 180.00 1.73321 0.53
2 7 3 o 1650.712 1592.264 180.00 1.76661 0.47
0 0 8 o 192.528 155.720 0.00 1.59823 0.01
1 9 2 o 6.871 8.408 0.00 1.72658 0.00
3 5 2 o 476.646 409.042 0.00 1.77280 0.14
0 7 5 o 1476.954 1440.786 180.00 1.74797 0.20
3 3 4 o 171.149 226.756 180.00 1.72863 0.05
0 6 6 o 4354.534 6551.337 0.00 1.69439 0.57
0 10 0 o 10429.877 11543.875 180.00 1.67638 0.66
0 8 4 o 865.004 838.849 0.00 1.75247 0.12
2 8 2 o 1.082 9.704 0.00 1.70695 0.00
0 9 3 o 23.355 179.433 180.00 1.70676 0.00
3 6 1 o 1601.380 1573.195 180.00 1.71757 0.43
1 4 7 o 225.198 280.578 180.00 1.62345 0.05
3 0 5 o 2581.971 2882.046 180.00 1.67206 0.33
2 4 6 o 1785.884 1838.872 0.00 1.64811 0.44
2 1 7 o 531.853 359.606 0.00 1.59253 0.12
0 2 8 o 762.965 522.868 180.00 1.56995 0.09
0 5 7 o 5.506 4.793 0.00 1.60397 0.00
3 2 5 o 13.939 23.843 0.00 1.63975 0.00
1 1 8 o 831.634 781.049 0.00 1.54709 0.18
1 10 1 o 406.726 581.099 180.00 1.61225 0.10
0 10 2 o 348.753 443.734 0.00 1.62155 0.04
2 9 1 o 43.834 59.011 180.00 1.61091 0.01
4 0 0 o 1837.608 2162.508 0.00 1.65746 0.11
2 3 7 o 2437.015 2111.666 180.00 1.53798 0.52
4 1 1 o 1050.052 907.263 0.00 1.63586 0.25
1 3 8 o 199.044 179.489 0.00 1.49693 0.04
0 4 8 o 6.482 5.997 0.00 1.49333 0.00
4 2 0 o 466.202 264.558 180.00 1.62597 0.06
3 5 4 o 387.859 470.107 180.00 1.59803 0.09
3 1 6 o 16.001 11.426 180.00 1.52760 0.00
3 6 3 o 500.756 639.970 0.00 1.60558 0.12
4 0 2 o 196.678 161.310 180.00 1.60441 0.02
3 4 5 o 51.653 48.706 180.00 1.55302 0.01
3 7 2 o 2146.895 1997.725 180.00 1.57410 0.48
1 7 6 o 319.620 316.844 0.00 1.54797 0.07
4 2 2 o 1507.649 1611.723 0.00 1.57580 0.34
0 11 1 o 5170.547 5328.739 180.00 1.51327 0.54
1 8 5 o 485.911 486.143 180.00 1.57443 0.11
1 9 4 o 225.470 200.131 0.00 1.56392 0.05
0 1 9 o 2316.675 2373.209 0.00 1.41558 0.21
4 3 1 o 821.289 782.504 180.00 1.57690 0.19
1 6 7 o 899.688 826.099 0.00 1.48974 0.18
2 7 5 o 2106.285 2082.595 0.00 1.54618 0.46
2 0 8 o 1353.882 1227.678 180.00 1.43964 0.13
2 6 6 o 2566.235 3054.273 180.00 1.50872 0.53
1 10 3 o 22.232 20.326 180.00 1.51856 0.00
2 8 4 o 2120.659 2359.672 180.00 1.54929 0.46
4 1 3 o 563.363 525.573 180.00 1.53824 0.12
2 10 0 o 344.447 304.253 0.00 1.49597 0.04
2 9 3 o 269.630 256.373 0.00 1.51744 0.06
4 4 0 o 1522.121 1530.615 0.00 1.54130 0.16
3 3 6 o 4.449 5.075 180.00 1.47926 0.00
2 2 8 o 659.794 639.672 0.00 1.41886 0.12
3 8 1 o 103.794 118.479 0.00 1.50994 0.02
1 0 9 o 444.392 437.619 180.00 1.38912 0.04
0 8 6 o 1350.837 1364.833 180.00 1.49412 0.14
2 5 7 o 2449.376 2133.016 0.00 1.44383 0.47
0 7 7 o 4051.932 4776.685 0.00 1.45233 0.39
1 5 8 o 82.760 105.566 180.00 1.40971 0.02
0 3 9 o 37.776 33.900 0.00 1.37685 0.00
1 11 2 o 254.796 221.535 180.00 1.44671 0.05
2 10 2 o 223.965 263.804 180.00 1.45662 0.04
0 10 4 o 235.451 235.963 180.00 1.48460 0.02
4 4 2 o 1839.742 1390.049 180.00 1.49836 0.38
1 2 9 o 47.529 38.085 180.00 1.37042 0.01
4 3 3 o 2340.772 2097.132 0.00 1.48891 0.47
4 0 4 o 1027.002 1067.747 0.00 1.47141 0.10
0 9 5 o 526.705 798.305 0.00 1.50558 0.05
3 0 7 o 1014.305 1381.501 180.00 1.40790 0.09
4 5 1 o 2133.163 2462.647 0.00 1.47588 0.42
0 11 3 o 483.270 414.288 0.00 1.43500 0.05
4 2 4 o 794.782 781.325 180.00 1.44925 0.15
3 2 7 o 13.940 13.395 0.00 1.38845 0.00
0 6 8 o 3.998 3.840 180.00 1.38729 0.00
0 12 0 o 2619.387 2659.751 0.00 1.39698 0.12
3 6 5 o 31.933 25.942 180.00 1.43475 0.01
2 4 8 o 2531.361 2107.462 180.00 1.36155 0.43
3 7 4 o 60.477 59.162 0.00 1.44792 0.01
3 8 3 o 642.111 643.949 180.00 1.43216 0.12
4 6 0 o 4157.365 3981.156 180.00 1.42550 0.39
3 5 6 o 294.469 311.550 180.00 1.39492 0.05
1 4 9 o 63.136 52.801 0.00 1.31857 0.01
2 11 1 o 591.494 502.722 0.00 1.37661 0.10
0 0 10 o 5271.602 5217.733 180.00 1.27858 0.20
1 12 1 o 23.333 19.018 180.00 1.35922 0.00
3 9 2 o 10.711 10.400 180.00 1.39015 0.00
4 1 5 o 1351.727 1294.007 0.00 1.38609 0.24
0 12 2 o 5248.140 4474.937 180.00 1.36478 0.45
2 1 9 o 1172.672 1332.039 180.00 1.30184 0.18
0 5 9 o 51.057 64.641 0.00 1.30807 0.00
4 5 3 o 550.580 466.721 180.00 1.40300 0.10
4 4 4 o 886.794 799.910 0.00 1.38833 0.16
4 6 2 o 942.529 1162.059 0.00 1.39133 0.17
3 4 7 o 48.198 54.854 0.00 1.33461 0.01
1 8 7 o 128.274 81.774 0.00 1.34812 0.02
0 2 10 o 412.010 434.689 0.00 1.26396 0.03
1 9 6 o 328.327 231.918 180.00 1.37206 0.06
2 8 6 o 3189.050 2672.569 0.00 1.36215 0.54
2 3 9 o 681.183 724.658 0.00 1.27153 0.10
4 3 5 o 302.482 159.869 180.00 1.34967 0.05
2 7 7 o 2919.038 3123.782 180.00 1.33026 0.47
1 7 8 o 691.798 808.717 0.00 1.30343 0.11
1 10 5 o 154.237 113.661 0.00 1.37164 0.03
3 1 8 o 1016.865 1365.980 180.00 1.29120 0.16
2 9 5 o 3841.628 3311.557 180.00 1.37081 0.66
1 1 10 o 61.650 69.906 0.00 1.25195 0.01
4 7 1 o 3354.262 2536.006 180.00 1.35520 0.56
2 10 4 o 1334.363 1007.070 0.00 1.35492 0.22
1 11 4 o 28.707 24.397 180.00 1.34694 0.00
3 10 1 o 166.740 185.339 0.00 1.32837 0.03
4 0 6 o 927.643 1371.423 180.00 1.30831 0.07
2 11 3 o 1337.859 970.116 180.00 1.31690 0.21
2 6 8 o 2089.086 1972.871 0.00 1.27974 0.32
2 12 0 o 439.529 583.108 180.00 1.28734 0.03
1 3 10 o 0.086 0.066 180.00 1.22492 0.00
3 3 8 o 16.756 18.998 180.00 1.26161 0.00
0 13 1 o 2775.061 2711.068 0.00 1.28301 0.21
4 2 6 o 334.171 463.462 0.00 1.29266 0.05
1 12 3 o 112.306 118.703 180.00 1.30165 0.02
0 4 10 o 5.819 4.428 180.00 1.22294 0.00
1 6 9 o 239.640 136.230 180.00 1.24386 0.03
0 9 7 o 21.093 25.382 180.00 1.30414 0.00
0 8 8 o 886.900 985.523 0.00 1.27079 0.07
4 8 0 o 1680.942 1774.104 0.00 1.29996 0.13
0 10 6 o 24.749 18.614 180.00 1.31755 0.00
3 7 6 o 35.130 54.577 0.00 1.29171 0.01
5 0 1 o 2547.758 2116.769 0.00 1.31889 0.20
0 11 5 o 178.346 240.530 0.00 1.30913 0.01
3 8 5 o 13.011 31.147 180.00 1.30697 0.00
4 6 4 o 196.871 193.495 180.00 1.30190 0.03
3 9 4 o 107.300 106.687 180.00 1.30094 0.02
0 12 4 o 167.104 151.705 180.00 1.28007 0.01
2 12 2 o 1175.333 1306.721 0.00 1.26200 0.17
4 7 3 o 521.345 628.475 0.00 1.29812 0.08
4 5 5 o 388.197 395.320 0.00 1.28470 0.06
2 5 9 o 2144.015 1665.632 180.00 1.21676 0.29
3 6 7 o 475.544 651.380 180.00 1.25730 0.07
5 2 1 o 482.706 522.117 0.00 1.30286 0.08
5 1 2 o 389.957 440.393 0.00 1.29446 0.06
0 7 9 o 582.492 442.212 0.00 1.22184 0.04
1 13 2 o 75.873 34.174 180.00 1.24169 0.01
3 10 3 o 183.147 188.246 180.00 1.27448 0.03
4 8 2 o 1750.174 1781.919 180.00 1.27389 0.26
4 4 6 o 45.663 49.124 180.00 1.24887 0.01
0 13 3 o 1284.635 903.498 180.00 1.23426 0.09
4 1 7 o 719.652 542.979 180.00 1.22416 0.10
5 0 3 o 24.155 20.544 0.00 1.26610 0.00
3 5 8 o 222.594 234.313 0.00 1.20806 0.03
5 3 2 o 533.045 520.663 0.00 1.26464 0.08
3 11 2 o 628.182 569.404 0.00 1.23111 0.09
5 4 1 o 8.384 12.409 180.00 1.25806 0.00
5 2 3 o 284.426 406.677 0.00 1.25190 0.04
4 9 1 o 1623.909 1390.953 0.00 1.23245 0.23
5 1 4 o 15.940 13.530 0.00 1.22151 0.00
2 9 7 o 119.933 94.796 0.00 1.21360 0.02
1 10 7 o 134.483 106.031 180.00 1.21417 0.02
2 10 6 o 279.257 242.415 180.00 1.22439 0.04
2 11 5 o 44.411 28.764 180.00 1.21761 0.01
5 4 3 o 1280.856 1109.340 0.00 1.21200 0.17
1 11 6 o 91.248 53.160 0.00 1.21849 0.01
5 5 2 o 373.085 297.994 180.00 1.21072 0.05
