#------------------------------------------------------------------------------
#$Date: 2016-03-21 01:21:50 +0200 (Mon, 21 Mar 2016) $
#$Revision: 178377 $
#$URL: svn://www.crystallography.net/cod/cif/4/00/20/4002095.cif $
#------------------------------------------------------------------------------
#
# This file is available in the Crystallography Open Database (COD),
# http://www.crystallography.net/
#
# All data on this site have been placed in the public domain by the
# contributors.
#
data_4002095
loop_
_publ_author_name
'Nanthamathee, Chompoonoot'
'Ling, Sanliang'
'Slater, Ben'
'Attfield, Martin P.'
_publ_section_title
;
 Contradistinct Thermoresponsive Behavior of Isostructural MIL-53 Type
 Metal--Organic Frameworks by Modifying the Framework Inorganic Anion
;
_journal_name_full               'Chemistry of Materials'
_journal_page_first              141223143002002
_journal_paper_doi               10.1021/cm503311x
_journal_year                    2014
_chemical_formula_sum            'C8 Al F O4'
_chemical_formula_weight         206.06
_chemical_name_systematic        ' ?'
_space_group_IT_number           74
_symmetry_cell_setting           orthorhombic
_symmetry_space_group_name_Hall  '-I 2b 2'
_symmetry_space_group_name_H-M   'I m m a'
_audit_creation_date             2014-08-28T13:13
_audit_creation_method           'from EXP file using GSAS2CIF'
_audit_update_record
' 2014-08-28T13:13  Initial CIF as created by GSAS2CIF'
_cell_angle_alpha                90.0
_cell_angle_beta                 90.0
_cell_angle_gamma                90.0
_cell_formula_units_Z            4
_cell_length_a                   6.56800(16)
_cell_length_b                   16.4018(5)
_cell_length_c                   13.1830(6)
_cell_volume                     1420.17(9)
_computing_structure_refinement  GSAS
_diffrn_radiation_polarisn_ratio 0.95
_diffrn_radiation_probe          x-ray
_diffrn_radiation_wavelength     0.825993
_exptl_absorpt_correction_T_max  1.00000
_exptl_absorpt_correction_T_min  1.00000
_exptl_absorpt_process_details
;   GSAS Absorption/surface roughness correction: function number 0
 No correction is applied.
;
_pd_block_id                     2014-08-28T13:13|225K|225K|I11
_pd_calc_method                  'Rietveld Refinement'
_pd_instr_location               ' ?'
_pd_meas_2theta_range_inc        0.003
_pd_meas_2theta_range_max        149.9955
_pd_meas_2theta_range_min        0.0015
_pd_meas_number_of_points        49999
_pd_phase_name                   300K
_pd_proc_2theta_range_inc        0.003
_pd_proc_2theta_range_max        150.00549
_pd_proc_2theta_range_min        0.011491
_pd_proc_info_datetime           2014-08-28T13:13:34
_pd_proc_info_excluded_regions   ' ?'
_pd_proc_ls_background_function
;   GSAS Background function number 1 with  2 terms.
 Shifted Chebyshev function of 1st kind
      1:    0.00000     2:    0.00000    
;
_pd_proc_ls_peak_cutoff          0.00010
_pd_proc_ls_profile_function
;
 CW Profile function number 4 with  18 terms
 Pseudovoigt profile coefficients as parameterized in
 P. Thompson, D.E. Cox & J.B. Hastings (1987). J. Appl. Cryst.,20,79-83.
 Asymmetry correction of L.W. Finger, D.E. Cox & A. P. Jephcoat (1994).
 J. Appl. Cryst.,27,892-900.
 Microstrain broadening by P.W. Stephens,  (1999). J. Appl. Cryst.,32,281-289.
 Peak tails are ignored  where the intensity is below 0.0001 times the peak
   Aniso. broadening axis   1.0   0.0   1.0
;
_pd_proc_ls_prof_R_factor        0.0340
_pd_proc_ls_prof_wR_expected     0.0244
_pd_proc_ls_prof_wR_factor       0.0439
_pd_proc_number_of_points        49999
_pd_spec_mounting                ' ?'
_refine_ls_goodness_of_fit_all   1.80
_refine_ls_matrix_type           full
_refine_ls_number_parameters     30
_refine_ls_number_restraints     0
_refine_ls_R_Fsqd_factor         0.25470
_refine_ls_shift/su_max          0.07
_refine_ls_shift/su_mean         0.01
_reflns_d_resolution_high        1.210
_reflns_d_resolution_low         8.201
_reflns_limit_h_max              5
_reflns_limit_h_min              0
_reflns_limit_k_max              13
_reflns_limit_k_min              0
_reflns_limit_l_max              11
_reflns_limit_l_min              0
_reflns_number_total             252
_cod_data_source_file            alf225K.cif
_cod_data_source_block           225K_publ
_cod_depositor_comments
;
The following automatic conversions were performed:

'_geom_bond_publ_flag' value 'N' changed to 'n' according to
/home/saulius/struct/COD-crude-data--automatic-downloads/rss-feeds/ACS/lib/dictionaries/cif_core.dic
dictionary named 'cif_core.dic' version 2.4.2 from 2011-04-26 (18
times).

'_geom_angle_publ_flag' value 'N' changed to 'n' according
to
/home/saulius/struct/COD-crude-data--automatic-downloads/rss-feeds/ACS/lib/dictionaries/cif_core.dic
dictionary named 'cif_core.dic' version 2.4.2 from 2011-04-26 (24
times).

Automatic conversion script
Id: cif_fix_values 2935 2014-11-11 08:27:57Z andrius 
;
_cod_original_cell_volume        1420.17(8)
_cod_database_code               4002095
#BEGIN Tags that were not found in dictionaries:
_gsas_exptl_extinct_corr_t_min   1.00000
_gsas_exptl_extinct_corr_t_max   1.00000
#END Tags that were not found in dictionaries
loop_
_symmetry_equiv_pos_site_id
_symmetry_equiv_pos_as_xyz
1 +x,+y,+z
2 -x,+y,+z
3 +x,-y+1/2,+z
4 -x,-y+1/2,+z
-1 -x,-y,-z
-2 +x,-y,-z
-3 -x,+y+1/2,-z
-4 +x,+y+1/2,-z
101 +x+1/2,+y+1/2,+z+1/2
102 -x+1/2,+y+1/2,+z+1/2
103 +x+1/2,-y,+z+1/2
104 -x+1/2,-y,+z+1/2
-101 -x+1/2,-y+1/2,-z+1/2
-102 +x+1/2,-y+1/2,-z+1/2
-103 -x+1/2,+y,-z+1/2
-104 +x+1/2,+y,-z+1/2
loop_
_atom_site_type_symbol
_atom_site_label
_atom_site_fract_x
_atom_site_fract_y
_atom_site_fract_z
_atom_site_occupancy
_atom_site_thermal_displace_type
_atom_site_U_iso_or_equiv
_atom_site_symmetry_multiplicity
Al Al1 0.25 0.25 0.75 1.0 Uiso 0.0325(20) 4
F F1 0.0 0.25 0.6946(6) 1.0 Uiso 0.0231(14) 4
O O1 0.1699(6) 0.16825(26) 0.8413(4) 1.0 Uiso 0.0231(14) 16
C C1 -0.1959(7) 0.0291(6) 0.9567(7) 1.0 Uiso 0.0286(23) 16
C C2 0.0 0.0629(6) 0.9464(9) 1.0 Uiso 0.0286(23) 8
C C3 0.0 0.1372(7) 0.8662(10) 1.0 Uiso 0.0286(23) 8
loop_
_atom_type_symbol
_atom_type_number_in_cell
_atom_type_scat_dispersion_real
_atom_type_scat_dispersion_imag
_atom_type_scat_Cromer_Mann_a1
_atom_type_scat_Cromer_Mann_a2
_atom_type_scat_Cromer_Mann_a3
_atom_type_scat_Cromer_Mann_a4
_atom_type_scat_Cromer_Mann_b1
_atom_type_scat_Cromer_Mann_b2
_atom_type_scat_Cromer_Mann_b3
_atom_type_scat_Cromer_Mann_b4
_atom_type_scat_Cromer_Mann_c
_atom_type_scat_source
Al 4.0 0.000 0.000 6.42020 3.03870 1.90020 0.74260 1.59360 31.5472 1.96460
85.0886 1.11510 International_Tables_Vol_C
F 4.0 0.000 0.000 3.53920 10.2825 2.64120 4.29440 1.51700 0.26150 1.02430
26.1476 0.27760 International_Tables_Vol_C
O 16.0 0.000 0.000 3.04850 13.2771 2.28680 5.70110 1.54630 0.32390 0.86700
32.9089 0.25080 International_Tables_Vol_C
C 32.0 0.000 0.000 2.31000 20.8439 1.02000 10.2075 1.58860 0.56870 0.86500
51.6512 0.21560 International_Tables_Vol_C
loop_
_geom_angle_atom_site_label_1
_geom_angle_atom_site_label_2
_geom_angle_atom_site_label_3
_geom_angle
_geom_angle_site_symmetry_1
_geom_angle_site_symmetry_3
_geom_angle_publ_flag
F1 Al1 F1 180.0 1_555 -101_546 n
F1 Al1 O1 90.28(20) 1_555 1_555 n
F1 Al1 O1 90.28(20) 1_555 3_555 n
F1 Al1 O1 89.72(20) 1_555 -101_566 n
F1 Al1 O1 89.72(20) 1_555 -103_566 n
F1 Al1 O1 89.72(20) -101_566 1_555 n
F1 Al1 O1 89.72(20) -101_566 3_555 n
F1 Al1 O1 90.28(20) -101_566 -101_566 n
F1 Al1 O1 90.28(20) -101_566 -103_566 n
O1 Al1 O1 91.17(33) 1_555 3_555 n
O1 Al1 O1 180.0 1_555 -101_566 n
O1 Al1 O1 88.83(33) 1_555 -103_566 n
O1 Al1 O1 88.83(33) 3_555 -101_566 n
O1 Al1 O1 180.0 3_555 -103_566 n
O1 Al1 O1 91.17(33) -101_566 -103_566 n
Al1 F1 Al1 132.0(5) 1_555 2_555 n
Al1 O1 C3 134.3(6) 1_555 1_555 n
C1 C1 C2 109.0(7) -2_557 1_555 n
C1 C2 C1 132.2(12) 1_555 2_555 n
C1 C2 C3 111.1(6) 1_555 1_555 n
C1 C2 C3 111.1(6) 2_555 1_555 n
O1 C3 O1 123.1(10) 1_555 2_555 n
O1 C3 C2 118.2(5) 1_555 1_555 n
O1 C3 C2 118.2(5) 2_555 1_555 n
loop_
_geom_bond_atom_site_label_1
_geom_bond_atom_site_label_2
_geom_bond_distance
_geom_bond_site_symmetry_2
_geom_bond_publ_flag
Al1 F1 1.7973(33) 1_555 n
Al1 F1 1.7973(33) -101_445 n
Al1 O1 1.877(4) 1_555 n
Al1 O1 1.877(4) 3_555 n
Al1 O1 1.877(4) -101_445 n
Al1 O1 1.877(4) -103_445 n
F1 Al1 1.7973(33) 1_555 n
F1 Al1 1.7973(33) 2_555 n
O1 Al1 1.877(4) 1_555 n
O1 C3 1.270(5) 1_555 n
C1 C1 1.490(12) -2_557 n
C1 C2 1.407(6) 1_555 n
C2 C1 1.407(6) 1_555 n
C2 C1 1.407(6) 2_555 n
C2 C3 1.614(10) 1_555 n
C3 O1 1.270(5) 1_555 n
C3 O1 1.270(5) 2_555 n
C3 C2 1.614(10) 1_555 n
loop_
_pd_meas_intensity_total
_pd_proc_ls_weight
_pd_proc_intensity_bkg_calc
_pd_calc_intensity_total
12.2(18) 0.0 0.00 .
14.8(21) 0.0 0.00 .
16.0(22) 0.0 0.00 .
18.1(24) 0.0 0.00 .
40(4) 0.0 0.0 .
177(7) 0.0 0.0 .
134(6) 0.0 0.0 .
878(17) 0.0 0.0 .
1616(21) 0.0 0.0 .
3076(29) 0.0 0.0 .
3448(31) 0.0 0.0 .
3370(31) 0.0 0.0 .
3415(33) 0.0 0.0 .
1159(18) 0.0 0.0 .
110(5) 0.0 0.0 .
69(4) 0.0 0.0 .
49(4) 0.0 0.0 .
39.1(35) 0.0 0.00 .
40.7(34) 0.0 0.00 .
71(5) 0.0 0.0 .
265(9) 0.0 0.0 .
389(10) 0.0 0.0 .
821(16) 0.0 0.0 .
995(17) 0.0 0.0 .
1105(17) 0.0 0.0 .
1238(18) 0.0 0.0 .
1321(19) 0.0 0.0 .
1567(22) 0.0 0.0 .
1764(23) 0.0 0.0 .
1851(22) 0.0 0.0 .
2051(24) 0.0 0.0 .
2064(24) 0.0 0.0 .
1829(23) 0.0 0.0 .
1641(22) 0.0 0.0 .
1158(18) 0.0 0.0 .
678(14) 0.0 0.0 .
359(10) 0.0 0.0 .
205(8) 0.0 0.0 .
130(6) 0.0 0.0 .
74(4) 0.0 0.0 .
50(4) 0.0 0.0 .
28.2(26) 0.0 0.00 .
30.3(28) 0.0 0.00 .
37.8(32) 0.0 0.00 .
28.6(28) 0.0 0.00 .
27.8(29) 0.0 0.00 .
26.5(30) 0.0 0.00 .
23.4(27) 0.0 0.00 .
23.9(25) 0.0 0.00 .
22.3(25) 0.0 0.00 .
25.0(27) 0.0 0.00 .
25.9(28) 0.0 0.00 .
29.0(29) 0.0 0.00 .
35.3(30) 0.0 0.00 .
31.3(30) 0.0 0.00 .
31.8(31) 0.0 0.00 .
26.9(28) 0.0 0.00 .
23.4(26) 0.0 0.00 .
30.9(29) 0.0 0.00 .
29.1(29) 0.0 0.00 .
28.2(28) 0.0 0.00 .
26.5(27) 0.0 0.00 .
34.8(31) 0.0 0.00 .
25.3(26) 0.0 0.00 .
36.0(31) 0.0 0.00 .
29.7(29) 0.0 0.00 .
25.8(27) 0.0 0.00 .
31.8(30) 0.0 0.00 .
29.6(28) 0.0 0.00 .
38.4(32) 0.0 0.00 .
31.7(32) 0.0 0.00 .
35.8(34) 0.0 0.00 .
33.1(31) 0.0 0.00 .
32.3(31) 0.0 0.00 .
42(4) 0.0 0.0 .
24.4(26) 0.0 0.00 .
36.1(34) 0.0 0.00 .
28.3(29) 0.0 0.00 .
35.3(31) 0.0 0.00 .
35.2(32) 0.0 0.00 .
37.8(32) 0.0 0.00 .
35.7(30) 0.0 0.00 .
37.8(32) 0.0 0.00 .
32.8(30) 0.0 0.00 .
38(4) 0.0 0.0 .
30.7(28) 0.0 0.00 .
39.6(34) 0.0 0.00 .
35.6(32) 0.0 0.00 .
36.9(32) 0.0 0.00 .
40.2(35) 0.0 0.00 .
43(4) 0.0 0.0 .
43(4) 0.0 0.0 .
50(4) 0.0 0.0 .
48(4) 0.0 0.0 .
59(4) 0.0 0.0 .
70(4) 0.0 0.0 .
74(5) 0.0 0.0 .
83(5) 0.0 0.0 .
102(5) 0.0 0.0 .
98(5) 0.0 0.0 .
106(6) 0.0 0.0 .
107(6) 0.0 0.0 .
127(6) 0.0 0.0 .
128(6) 0.0 0.0 .
129(6) 0.0 0.0 .
142(7) 0.0 0.0 .
154(7) 0.0 0.0 .
155(6) 0.0 0.0 .
176(7) 0.0 0.0 .
173(7) 0.0 0.0 .
199(8) 0.0 0.0 .
176(7) 0.0 0.0 .
210(8) 0.0 0.0 .
230(8) 0.0 0.0 .
239(8) 0.0 0.0 .
254(9) 0.0 0.0 .
257(8) 0.0 0.0 .
244(8) 0.0 0.0 .
262(9) 0.0 0.0 .
286(9) 0.0 0.0 .
272(9) 0.0 0.0 .
285(9) 0.0 0.0 .
297(9) 0.0 0.0 .
299(9) 0.0 0.0 .
305(9) 0.0 0.0 .
307(10) 0.0 0.0 .
339(10) 0.0 0.0 .
352(10) 0.0 0.0 .
335(9) 0.0 0.0 .
381(11) 0.0 0.0 .
382(11) 0.0 0.0 .
361(10) 0.0 0.0 .
374(10) 0.0 0.0 .
376(10) 0.0 0.0 .
388(11) 0.0 0.0 .
414(11) 0.0 0.0 .
398(11) 0.0 0.0 .
436(11) 0.0 0.0 .
409(11) 0.0 0.0 .
412(11) 0.0 0.0 .
449(11) 0.0 0.0 .
455(11) 0.0 0.0 .
465(11) 0.0 0.0 .
477(12) 0.0 0.0 .
487(12) 0.0 0.0 .
480(12) 0.0 0.0 .
502(12) 0.0 0.0 .
491(12) 0.0 0.0 .
492(12) 0.0 0.0 .
494(12) 0.0 0.0 .
532(13) 0.0 0.0 .
498(12) 0.0 0.0 .
529(12) 0.0 0.0 .
518(12) 0.0 0.0 .
507(12) 0.0 0.0 .
527(12) 0.0 0.0 .
544(12) 0.0 0.0 .
518(12) 0.0 0.0 .
535(12) 0.0 0.0 .
536(13) 0.0 0.0 .
554(13) 0.0 0.0 .
558(12) 0.0 0.0 .
543(12) 0.0 0.0 .
557(13) 0.0 0.0 .
572(13) 0.0 0.0 .
529(12) 0.0 0.0 .
562(12) 0.0 0.0 .
575(12) 0.0 0.0 .
595(13) 0.0 0.0 .
600(14) 0.0 0.0 .
605(13) 0.0 0.0 .
589(13) 0.0 0.0 .
611(13) 0.0 0.0 .
615(13) 0.0 0.0 .
592(13) 0.0 0.0 .
620(13) 0.0 0.0 .
597(13) 0.0 0.0 .
600(13) 0.0 0.0 .
608(13) 0.0 0.0 .
624(14) 0.0 0.0 .
623(14) 0.0 0.0 .
621(13) 0.0 0.0 .
643(13) 0.0 0.0 .
643(14) 0.0 0.0 .
655(14) 0.0 0.0 .
635(14) 0.0 0.0 .
616(13) 0.0 0.0 .
656(14) 0.0 0.0 .
640(14) 0.0 0.0 .
659(14) 0.0 0.0 .
631(13) 0.0 0.0 .
631(13) 0.0 0.0 .
675(14) 0.0 0.0 .
622(13) 0.0 0.0 .
649(14) 0.0 0.0 .
680(14) 0.0 0.0 .
623(13) 0.0 0.0 .
692(14) 0.0 0.0 .
696(14) 0.0 0.0 .
658(14) 0.0 0.0 .
681(14) 0.0 0.0 .
688(14) 0.0 0.0 .
698(14) 0.0 0.0 .
672(14) 0.0 0.0 .
701(14) 0.0 0.0 .
688(14) 0.0 0.0 .
710(14) 0.0 0.0 .
705(14) 0.0 0.0 .
719(15) 0.0 0.0 .
728(14) 0.0 0.0 .
687(14) 0.0 0.0 .
705(14) 0.0 0.0 .
745(15) 0.0 0.0 .
726(15) 0.0 0.0 .
744(15) 0.0 0.0 .
723(14) 0.0 0.0 .
699(14) 0.0 0.0 .
708(14) 0.0 0.0 .
768(15) 0.0 0.0 .
764(15) 0.0 0.0 .
788(15) 0.0 0.0 .
736(14) 0.0 0.0 .
759(15) 0.0 0.0 .
740(15) 0.0 0.0 .
757(15) 0.0 0.0 .
808(15) 0.0 0.0 .
783(15) 0.0 0.0 .
768(15) 0.0 0.0 .
796(15) 0.0 0.0 .
760(15) 0.0 0.0 .
772(14) 0.0 0.0 .
802(15) 0.0 0.0 .
814(15) 0.0 0.0 .
790(15) 0.0 0.0 .
794(15) 0.0 0.0 .
816(15) 0.0 0.0 .
824(15) 0.0 0.0 .
801(15) 0.0 0.0 .
799(15) 0.0 0.0 .
790(15) 0.0 0.0 .
798(15) 0.0 0.0 .
830(15) 0.0 0.0 .
832(16) 0.0 0.0 .
846(16) 0.0 0.0 .
797(15) 0.0 0.0 .
835(15) 0.0 0.0 .
815(16) 0.0 0.0 .
815(15) 0.0 0.0 .
821(16) 0.0 0.0 .
812(15) 0.0 0.0 .
820(15) 0.0 0.0 .
800(15) 0.0 0.0 .
861(16) 0.0 0.0 .
832(15) 0.0 0.0 .
819(15) 0.0 0.0 .
832(15) 0.0 0.0 .
850(16) 0.0 0.0 .
868(17) 0.0 0.0 .
829(15) 0.0 0.0 .
831(15) 0.0 0.0 .
817(15) 0.0 0.0 .
825(15) 0.0 0.0 .
869(16) 0.0 0.0 .
832(15) 0.0 0.0 .
852(15) 0.0 0.0 .
881(15) 0.0 0.0 .
838(15) 0.0 0.0 .
890(17) 0.0 0.0 .
881(16) 0.0 0.0 .
853(15) 0.0 0.0 .
882(15) 0.0 0.0 .
857(16) 0.0 0.0 .
864(16) 0.0 0.0 .
883(16) 0.0 0.0 .
901(16) 0.0 0.0 .
870(15) 0.0 0.0 .
865(16) 0.0 0.0 .
871(16) 0.0 0.0 .
884(16) 0.0 0.0 .
910(16) 0.0 0.0 .
934(16) 0.0 0.0 .
919(16) 0.0 0.0 .
877(16) 0.0 0.0 .
900(16) 0.0 0.0 .
879(15) 0.0 0.0 .
847(15) 0.0 0.0 .
922(17) 0.0 0.0 .
927(17) 0.0 0.0 .
901(16) 0.0 0.0 .
914(16) 0.0 0.0 .
917(16) 0.0 0.0 .
953(17) 0.0 0.0 .
965(17) 0.0 0.0 .
956(16) 0.0 0.0 .
926(16) 0.0 0.0 .
940(16) 0.0 0.0 .
936(17) 0.0 0.0 .
934(17) 0.0 0.0 .
922(16) 0.0 0.0 .
928(16) 0.0 0.0 .
951(17) 0.0 0.0 .
851(16) 0.0 0.0 .
901(16) 0.0 0.0 .
944(16) 0.0 0.0 .
985(16) 0.0 0.0 .
952(16) 0.0 0.0 .
930(17) 0.0 0.0 .
948(16) 0.0 0.0 .
934(16) 0.0 0.0 .
910(16) 0.0 0.0 .
918(16) 0.0 0.0 .
953(17) 0.0 0.0 .
966(17) 0.0 0.0 .
936(16) 0.0 0.0 .
963(16) 0.0 0.0 .
981(17) 0.0 0.0 .
974(17) 0.0 0.0 .
971(17) 0.0 0.0 .
949(16) 0.0 0.0 .
978(16) 0.0 0.0 .
990(17) 0.0 0.0 .
961(17) 0.0 0.0 .
973(17) 0.0 0.0 .
984(16) 0.0 0.0 .
1018(17) 0.0 0.0 .
992(17) 0.0 0.0 .
977(17) 0.0 0.0 .
1019(17) 0.0 0.0 .
1011(16) 0.0 0.0 .
1017(17) 0.0 0.0 .
1007(17) 0.0 0.0 .
976(17) 0.0 0.0 .
1017(17) 0.0 0.0 .
1015(17) 0.0 0.0 .
1020(17) 0.0 0.0 .
1036(17) 0.0 0.0 .
1064(18) 0.0 0.0 .
1024(17) 0.0 0.0 .
1054(17) 0.0 0.0 .
1050(17) 0.0 0.0 .
1051(17) 0.0 0.0 .
1062(18) 0.0 0.0 .
1062(17) 0.0 0.0 .
1053(17) 0.0 0.0 .
1044(17) 0.0 0.0 .
1037(18) 0.0 0.0 .
1051(17) 0.0 0.0 .
1064(17) 0.0 0.0 .
1016(17) 0.0 0.0 .
1083(18) 0.0 0.0 .
1108(18) 0.0 0.0 .
1094(18) 0.0 0.0 .
1113(17) 0.0 0.0 .
1073(17) 0.0 0.0 .
1118(18) 0.0 0.0 .
1097(18) 0.0 0.0 .
1108(18) 0.0 0.0 .
1120(17) 0.0 0.0 .
1086(17) 0.0 0.0 .
1100(18) 0.0 0.0 .
1085(18) 0.0 0.0 .
1106(18) 0.0 0.0 .
1119(17) 0.0 0.0 .
1156(18) 0.0 0.0 .
1170(18) 0.0 0.0 .
1131(18) 0.0 0.0 .
1130(18) 0.0 0.0 .
1135(18) 0.0 0.0 .
1172(18) 0.0 0.0 .
1157(18) 0.0 0.0 .
1124(18) 0.0 0.0 .
1129(18) 0.0 0.0 .
1174(18) 0.0 0.0 .
1191(18) 0.0 0.0 .
1153(18) 0.0 0.0 .
1157(19) 0.0 0.0 .
1233(19) 0.0 0.0 .
1233(18) 0.0 0.0 .
1191(18) 0.0 0.0 .
1189(18) 0.0 0.0 .
1174(19) 0.0 0.0 .
1175(18) 0.0 0.0 .
1200(18) 0.0 0.0 .
1236(18) 0.0 0.0 .
1192(18) 0.0 0.0 .
1228(19) 0.0 0.0 .
1224(19) 0.0 0.0 .
1185(18) 0.0 0.0 .
1228(19) 0.0 0.0 .
1186(19) 0.0 0.0 .
1206(19) 0.0 0.0 .
1214(18) 0.0 0.0 .
1201(18) 0.0 0.0 .
1213(19) 0.0 0.0 .
1251(19) 0.0 0.0 .
1234(19) 0.0 0.0 .
1285(19) 0.0 0.0 .
1213(18) 0.0 0.0 .
1255(19) 0.0 0.0 .
1228(19) 0.0 0.0 .
1186(18) 0.0 0.0 .
1246(19) 0.0 0.0 .
1225(18) 0.0 0.0 .
1257(19) 0.0 0.0 .
1242(19) 0.0 0.0 .
1220(19) 0.0 0.0 .
1230(18) 0.0 0.0 .
1255(18) 0.0 0.0 .
1208(19) 0.0 0.0 .
1257(19) 0.0 0.0 .
1282(19) 0.0 0.0 .
1287(19) 0.0 0.0 .
1332(19) 0.0 0.0 .
1291(19) 0.0 0.0 .
1268(20) 0.0 0.0 .
1293(19) 0.0 0.0 .
1295(19) 0.0 0.0 .
1291(19) 0.0 0.0 .
1307(19) 0.0 0.0 .
1296(20) 0.0 0.0 .
1294(19) 0.0 0.0 .
1299(19) 0.0 0.0 .
1215(18) 0.0 0.0 .
1285(19) 0.0 0.0 .
1274(20) 0.0 0.0 .
1310(19) 0.0 0.0 .
1300(19) 0.0 0.0 .
1247(18) 0.0 0.0 .
1261(19) 0.0 0.0 .
1312(20) 0.0 0.0 .
1320(20) 0.0 0.0 .
1355(19) 0.0 0.0 .
1297(19) 0.0 0.0 .
1332(20) 0.0 0.0 .
1290(20) 0.0 0.0 .
1345(20) 0.0 0.0 .
1399(19) 0.0 0.0 .
1342(19) 0.0 0.0 .
1346(20) 0.0 0.0 .
1310(20) 0.0 0.0 .
1291(19) 0.0 0.0 .
1312(19) 0.0 0.0 .
1359(20) 0.0 0.0 .
1324(20) 0.0 0.0 .
1361(20) 0.0 0.0 .
1297(19) 0.0 0.0 .
1326(19) 0.0 0.0 .
1314(19) 0.0 0.0 .
1310(20) 0.0 0.0 .
1324(20) 0.0 0.0 .
1319(19) 0.0 0.0 .
1286(19) 0.0 0.0 .
1343(20) 0.0 0.0 .
1302(20) 0.0 0.0 .
1336(20) 0.0 0.0 .
1251(18) 0.0 0.0 .
1284(19) 0.0 0.0 .
1346(20) 0.0 0.0 .
1328(20) 0.0 0.0 .
1348(20) 0.0 0.0 .
1349(19) 0.0 0.0 .
1313(19) 0.0 0.0 .
1324(20) 0.0 0.0 .
1334(20) 0.0 0.0 .
1326(20) 0.0 0.0 .
1376(19) 0.0 0.0 .
1277(19) 0.0 0.0 .
1331(20) 0.0 0.0 .
1292(20) 0.0 0.0 .
1264(19) 0.0 0.0 .
1296(19) 0.0 0.0 .
1309(19) 0.0 0.0 .
1348(20) 0.0 0.0 .
1331(20) 0.0 0.0 .
1334(19) 0.0 0.0 .
1396(19) 0.0 0.0 .
1300(19) 0.0 0.0 .
1323(20) 0.0 0.0 .
1353(20) 0.0 0.0 .
1356(20) 0.0 0.0 .
1335(19) 0.0 0.0 .
1299(19) 0.0 0.0 .
1311(20) 0.0 0.0 .
1312(20) 0.0 0.0 .
1304(19) 0.0 0.0 .
1331(19) 0.0 0.0 .
1332(19) 0.0 0.0 .
1364(20) 0.0 0.0 .
1372(20) 0.0 0.0 .
1361(20) 0.0 0.0 .
1342(19) 0.0 0.0 .
1340(19) 0.0 0.0 .
1335(20) 0.0 0.0 .
1349(20) 0.0 0.0 .
1368(20) 0.0 0.0 .
1343(19) 0.0 0.0 .
1307(19) 0.0 0.0 .
1358(20) 0.0 0.0 .
1309(19) 0.0 0.0 .
1375(20) 0.0 0.0 .
1340(19) 0.0 0.0 .
1364(20) 0.0 0.0 .
1285(19) 0.0 0.0 .
1352(20) 0.0 0.0 .
1348(19) 0.0 0.0 .
1328(19) 0.0 0.0 .
1324(20) 0.0 0.0 .
1324(20) 0.0 0.0 .
1373(20) 0.0 0.0 .
1337(19) 0.0 0.0 .
1386(19) 0.0 0.0 .
1340(20) 0.0 0.0 .
1310(20) 0.0 0.0 .
1271(19) 0.0 0.0 .
1271(19) 0.0 0.0 .
1306(19) 0.0 0.0 .
1259(19) 0.0 0.0 .
1341(21) 0.0 0.0 .
1295(19) 0.0 0.0 .
1267(18) 0.0 0.0 .
1320(19) 0.0 0.0 .
1283(19) 0.0 0.0 .
1283(20) 0.0 0.0 .
1319(19) 0.0 0.0 .
1332(19) 0.0 0.0 .
1280(19) 0.0 0.0 .
1317(20) 0.0 0.0 .
1316(20) 0.0 0.0 .
1360(20) 0.0 0.0 .
1307(19) 0.0 0.0 .
1293(19) 0.0 0.0 .
1297(19) 0.0 0.0 .
1265(19) 0.0 0.0 .
1311(20) 0.0 0.0 .
1302(19) 0.0 0.0 .
1270(19) 0.0 0.0 .
1354(20) 0.0 0.0 .
1308(20) 0.0 0.0 .
1314(20) 0.0 0.0 .
1292(19) 0.0 0.0 .
1302(19) 0.0 0.0 .
1268(19) 0.0 0.0 .
1293(20) 0.0 0.0 .
1313(19) 0.0 0.0 .
1247(18) 0.0 0.0 .
1268(19) 0.0 0.0 .
1279(19) 0.0 0.0 .
1299(19) 0.0 0.0 .
1313(19) 0.0 0.0 .
1320(19) 0.0 0.0 .
1347(20) 0.0 0.0 .
1294(20) 0.0 0.0 .
1311(20) 0.0 0.0 .
1307(19) 0.0 0.0 .
1364(19) 0.0 0.0 .
1293(19) 0.0 0.0 .
1272(20) 0.0 0.0 .
1266(19) 0.0 0.0 .
1286(19) 0.0 0.0 .
1263(18) 0.0 0.0 .
1334(20) 0.0 0.0 .
1211(19) 0.0 0.0 .
1242(19) 0.0 0.0 .
1265(19) 0.0 0.0 .
1320(19) 0.0 0.0 .
1283(19) 0.0 0.0 .
1275(20) 0.0 0.0 .
1276(19) 0.0 0.0 .
1320(19) 0.0 0.0 .
1246(18) 0.0 0.0 .
1220(19) 0.0 0.0 .
1220(19) 0.0 0.0 .
1323(20) 0.0 0.0 .
1268(18) 0.0 0.0 .
1281(19) 0.0 0.0 .
1299(19) 0.0 0.0 .
1300(20) 0.0 0.0 .
1287(19) 0.0 0.0 .
1226(18) 0.0 0.0 .
1255(19) 0.0 0.0 .
1224(19) 0.0 0.0 .
1283(20) 0.0 0.0 .
1286(19) 0.0 0.0 .
1227(18) 0.0 0.0 .
1244(19) 0.0 0.0 .
1311(19) 0.0 0.0 .
1286(20) 0.0 0.0 .
1239(19) 0.0 0.0 .
1254(18) 0.0 0.0 .
1250(19) 0.0 0.0 .
1244(19) 0.0 0.0 .
1242(19) 0.0 0.0 .
1284(19) 0.0 0.0 .
1287(19) 0.0 0.0 .
1284(19) 0.0 0.0 .
1221(19) 0.0 0.0 .
1259(19) 0.0 0.0 .
1272(19) 0.0 0.0 .
1218(18) 0.0 0.0 .
1227(19) 0.0 0.0 .
1223(19) 0.0 0.0 .
1226(19) 0.0 0.0 .
1271(19) 0.0 0.0 .
1235(18) 0.0 0.0 .
1238(19) 0.0 0.0 .
1258(20) 0.0 0.0 .
1248(19) 0.0 0.0 .
1269(19) 0.0 0.0 .
1241(18) 0.0 0.0 .
1242(19) 0.0 0.0 .
1206(19) 0.0 0.0 .
1264(19) 0.0 0.0 .
1289(19) 0.0 0.0 .
1238(18) 0.0 0.0 .
1230(19) 0.0 0.0 .
1214(19) 0.0 0.0 .
1206(19) 0.0 0.0 .
1212(18) 0.0 0.0 .
1177(18) 0.0 0.0 .
1239(19) 0.0 0.0 .
1255(20) 0.0 0.0 .
1202(19) 0.0 0.0 .
1196(18) 0.0 0.0 .
1216(18) 0.0 0.0 .
1202(19) 0.0 0.0 .
1216(19) 0.0 0.0 .
1208(19) 0.0 0.0 .
1246(18) 0.0 0.0 .
1227(18) 0.0 0.0 .
1162(18) 0.0 0.0 .
1243(19) 0.0 0.0 .
1239(19) 0.0 0.0 .
1221(18) 0.0 0.0 .
1264(19) 0.0 0.0 .
1171(18) 0.0 0.0 .
1228(19) 0.0 0.0 .
1239(19) 0.0 0.0 .
1223(18) 0.0 0.0 .
1194(18) 0.0 0.0 .
1190(18) 0.0 0.0 .
1186(19) 0.0 0.0 .
1150(18) 0.0 0.0 .
1212(18) 0.0 0.0 .
1225(19) 0.0 0.0 .
1189(19) 0.0 0.0 .
1208(19) 0.0 0.0 .
1145(18) 0.0 0.0 .
1160(18) 0.0 0.0 .
1229(19) 0.0 0.0 .
1190(19) 0.0 0.0 .
1207(19) 0.0 0.0 .
1196(18) 0.0 0.0 .
1188(18) 0.0 0.0 .
1194(19) 0.0 0.0 .
1144(18) 0.0 0.0 .
1178(18) 0.0 0.0 .
1225(18) 0.0 0.0 .
1166(18) 0.0 0.0 .
1200(19) 0.0 0.0 .
1259(20) 0.0 0.0 .
1216(19) 0.0 0.0 .
1166(18) 0.0 0.0 .
1182(18) 0.0 0.0 .
1197(18) 0.0 0.0 .
1198(19) 0.0 0.0 .
1182(18) 0.0 0.0 .
1225(18) 0.0 0.0 .
1205(18) 0.0 0.0 .
1170(18) 0.0 0.0 .
1112(18) 0.0 0.0 .
1164(18) 0.0 0.0 .
1169(18) 0.0 0.0 .
1186(18) 0.0 0.0 .
1210(19) 0.0 0.0 .
1163(19) 0.0 0.0 .
1176(18) 0.0 0.0 .
1165(18) 0.0 0.0 .
1213(18) 0.0 0.0 .
1225(19) 0.0 0.0 .
1231(19) 0.0 0.0 .
1228(19) 0.0 0.0 .
1186(18) 0.0 0.0 .
1144(18) 0.0 0.0 .
1132(18) 0.0 0.0 .
1170(19) 0.0 0.0 .
1162(18) 0.0 0.0 .
1128(17) 0.0 0.0 .
1151(18) 0.0 0.0 .
1144(18) 0.0 0.0 .
1149(18) 0.0 0.0 .
1131(18) 0.0 0.0 .
1203(18) 0.0 0.0 .
1155(18) 0.0 0.0 .
1120(18) 0.0 0.0 .
1156(18) 0.0 0.0 .
1156(18) 0.0 0.0 .
1151(18) 0.0 0.0 .
1118(18) 0.0 0.0 .
1133(18) 0.0 0.0 .
1141(18) 0.0 0.0 .
1163(18) 0.0 0.0 .
1127(17) 0.0 0.0 .
1098(18) 0.0 0.0 .
1094(18) 0.0 0.0 .
1117(18) 0.0 0.0 .
1184(18) 0.0 0.0 .
1184(18) 0.0 0.0 .
1146(18) 0.0 0.0 .
1152(19) 0.0 0.0 .
1128(18) 0.0 0.0 .
1094(17) 0.0 0.0 .
1109(17) 0.0 0.0 .
1145(18) 0.0 0.0 .
1103(18) 0.0 0.0 .
1139(18) 0.0 0.0 .
1125(18) 0.0 0.0 .
1115(17) 0.0 0.0 .
1135(18) 0.0 0.0 .
1127(19) 0.0 0.0 .
1143(18) 0.0 0.0 .
1108(17) 0.0 0.0 .
1134(18) 0.0 0.0 .
1106(18) 0.0 0.0 .
1146(19) 0.0 0.0 .
1107(18) 0.0 0.0 .
1124(17) 0.0 0.0 .
1119(17) 0.0 0.0 .
1147(18) 0.0 0.0 .
1107(18) 0.0 0.0 .
1092(18) 0.0 0.0 .
1153(18) 0.0 0.0 .
1060(17) 0.0 0.0 .
1155(18) 0.0 0.0 .
1110(18) 0.0 0.0 .
1133(18) 0.0 0.0 .
1128(17) 0.0 0.0 .
1115(18) 0.0 0.0 .
1066(17) 0.0 0.0 .
1070(18) 0.0 0.0 .
1099(18) 0.0 0.0 .
1103(17) 0.0 0.0 .
1075(17) 0.0 0.0 .
1065(18) 0.0 0.0 .
1054(18) 0.0 0.0 .
1110(18) 0.0 0.0 .
1082(17) 0.0 0.0 .
1105(18) 0.0 0.0 .
1075(18) 0.0 0.0 .
1128(18) 0.0 0.0 .
1086(17) 0.0 0.0 .
1060(17) 0.0 0.0 .
1056(18) 0.0 0.0 .
1044(18) 0.0 0.0 .
1051(17) 0.0 0.0 .
1082(17) 0.0 0.0 .
1084(17) 0.0 0.0 .
1092(18) 0.0 0.0 .
1089(18) 0.0 0.0 .
1073(18) 0.0 0.0 .
1061(17) 0.0 0.0 .
1080(17) 0.0 0.0 .
1102(18) 0.0 0.0 .
1078(18) 0.0 0.0 .
1087(18) 0.0 0.0 .
1044(17) 0.0 0.0 .
1068(17) 0.0 0.0 .
1089(18) 0.0 0.0 .
1082(18) 0.0 0.0 .
1040(17) 0.0 0.0 .
1089(17) 0.0 0.0 .
1093(17) 0.0 0.0 .
1064(17) 0.0 0.0 .
1054(18) 0.0 0.0 .
1070(18) 0.0 0.0 .
1070(17) 0.0 0.0 .
1083(17) 0.0 0.0 .
1027(17) 0.0 0.0 .
1034(18) 0.0 0.0 .
997(17) 0.0 0.0 .
1001(16) 0.0 0.0 .
1011(17) 0.0 0.0 .
1039(17) 0.0 0.0 .
1027(18) 0.0 0.0 .
1062(18) 0.0 0.0 .
1038(17) 0.0 0.0 .
1034(17) 0.0 0.0 .
1075(18) 0.0 0.0 .
1015(17) 0.0 0.0 .
1005(17) 0.0 0.0 .
1033(17) 0.0 0.0 .
1036(17) 0.0 0.0 .
1061(18) 0.0 0.0 .
1059(18) 0.0 0.0 .
1026(17) 0.0 0.0 .
1005(16) 0.0 0.0 .
1023(17) 0.0 0.0 .
996(17) 0.0 0.0 .
1062(18) 0.0 0.0 .
1061(17) 0.0 0.0 .
1065(17) 0.0 0.0 .
1031(17) 0.0 0.0 .
1003(17) 0.0 0.0 .
1067(18) 0.0 0.0 .
1029(17) 0.0 0.0 .
1039(17) 0.0 0.0 .
1022(17) 0.0 0.0 .
1063(18) 0.0 0.0 .
1019(17) 0.0 0.0 .
1006(17) 0.0 0.0 .
1040(17) 0.0 0.0 .
1036(17) 0.0 0.0 .
1026(17) 0.0 0.0 .
1056(18) 0.0 0.0 .
1001(17) 0.0 0.0 .
1039(17) 0.0 0.0 .
949(16) 0.0 0.0 .
1056(18) 0.0 0.0 .
1065(17) 0.0 0.0 .
1037(17) 0.0 0.0 .
989(16) 0.0 0.0 .
984(17) 0.0 0.0 .
1005(18) 0.0 0.0 .
1003(17) 0.0 0.0 .
968(16) 0.0 0.0 .
1029(17) 0.0 0.0 .
1026(17) 0.0 0.0 .
999(17) 0.0 0.0 .
1032(17) 0.0 0.0 .
1022(17) 0.0 0.0 .
1030(17) 0.0 0.0 .
1013(17) 0.0 0.0 .
992(17) 0.0 0.0 .
1049(17) 0.0 0.0 .
1006(17) 0.0 0.0 .
1007(17) 0.0 0.0 .
962(16) 0.0 0.0 .
987(17) 0.0 0.0 .
996(17) 0.0 0.0 .
978(16) 0.0 0.0 .
1030(17) 0.0 0.0 .
1007(17) 0.0 0.0 .
1011(17) 0.0 0.0 .
980(17) 0.0 0.0 .
987(16) 0.0 0.0 .
972(16) 0.0 0.0 .
985(17) 0.0 0.0 .
934(17) 0.0 0.0 .
955(16) 0.0 0.0 .
990(16) 0.0 0.0 .
1018(17) 0.0 0.0 .
1049(18) 0.0 0.0 .
1048(17) 0.0 0.0 .
1053(17) 0.0 0.0 .
1011(17) 0.0 0.0 .
1018(17) 0.0 0.0 .
1022(18) 0.0 0.0 .
994(17) 0.0 0.0 .
1006(17) 0.0 0.0 .
994(16) 0.0 0.0 .
948(17) 0.0 0.0 .
996(17) 0.0 0.0 .
998(17) 0.0 0.0 .
1023(17) 0.0 0.0 .
1004(16) 0.0 0.0 .
945(17) 0.0 0.0 .
923(17) 0.0 0.0 .
998(17) 0.0 0.0 .
968(16) 0.0 0.0 .
974(16) 0.0 0.0 .
985(17) 0.0 0.0 .
915(17) 0.0 0.0 .
978(17) 0.0 0.0 .
963(16) 0.0 0.0 .
1004(17) 0.0 0.0 .
979(17) 0.0 0.0 .
948(17) 0.0 0.0 .
966(17) 0.0 0.0 .
972(16) 0.0 0.0 .
992(16) 0.0 0.0 .
982(17) 0.0 0.0 .
947(17) 0.0 0.0 .
974(17) 0.0 0.0 .
980(16) 0.0 0.0 .
964(16) 0.0 0.0 .
937(16) 0.0 0.0 .
977(17) 0.0 0.0 .
995(17) 0.0 0.0 .
978(16) 0.0 0.0 .
964(16) 0.0 0.0 .
939(17) 0.0 0.0 .
976(17) 0.0 0.0 .
959(16) 0.0 0.0 .
977(16) 0.0 0.0 .
958(16) 0.0 0.0 .
952(17) 0.0 0.0 .
972(17) 0.0 0.0 .
968(16) 0.0 0.0 .
941(16) 0.0 0.0 .
941(16) 0.0 0.0 .
899(16) 0.0 0.0 .
932(17) 0.0 0.0 .
945(16) 0.0 0.0 .
937(16) 0.0 0.0 .
972(17) 0.0 0.0 .
939(17) 0.0 0.0 .
991(17) 0.0 0.0 .
952(16) 0.0 0.0 .
939(16) 0.0 0.0 .
930(17) 0.0 0.0 .
984(17) 0.0 0.0 .
987(17) 0.0 0.0 .
981(16) 0.0 0.0 .
921(16) 0.0 0.0 .
918(16) 0.0 0.0 .
930(17) 0.0 0.0 .
962(17) 0.0 0.0 .
946(16) 0.0 0.0 .
939(16) 0.0 0.0 .
973(17) 0.0 0.0 .
945(17) 0.0 0.0 .
982(17) 0.0 0.0 .
927(16) 0.0 0.0 .
968(16) 0.0 0.0 .
973(17) 0.0 0.0 .
951(17) 0.0 0.0 .
938(16) 0.0 0.0 .
929(16) 0.0 0.0 .
930(16) 0.0 0.0 .
977(17) 0.0 0.0 .
941(17) 0.0 0.0 .
952(17) 0.0 0.0 .
956(16) 0.0 0.0 .
948(16) 0.0 0.0 .
912(16) 0.0 0.0 .
950(17) 0.0 0.0 .
916(16) 0.0 0.0 .
949(16) 0.0 0.0 .
932(16) 0.0 0.0 .
933(16) 0.0 0.0 .
913(16) 0.0 0.0 .
944(16) 0.0 0.0 .
938(16) 0.0 0.0 .
927(16) 0.0 0.0 .
929(16) 0.0 0.0 .
923(16) 0.0 0.0 .
910(16) 0.0 0.0 .
937(16) 0.0 0.0 .
942(16) 0.0 0.0 .
848(16) 0.0 0.0 .
896(16) 0.0 0.0 .
936(16) 0.0 0.0 .
910(16) 0.0 0.0 .
896(16) 0.0 0.0 .
919(17) 0.0 0.0 .
925(16) 0.0 0.0 .
939(16) 0.0 0.0 .
897(16) 0.0 0.0 .
876(16) 0.0 0.0 .
937(17) 0.0 0.0 .
919(16) 0.0 0.0 .
919(16) 0.0 0.0 .
934(16) 0.0 0.0 .
914(16) 0.0 0.0 .
926(17) 0.0 0.0 .
914(16) 0.0 0.0 .
951(16) 0.0 0.0 .
904(16) 0.0 0.0 .
843(15) 0.0 0.0 .
898(17) 0.0 0.0 .
877(16) 0.0 0.0 .
909(16) 0.0 0.0 .
928(16) 0.0 0.0 .
878(16) 0.0 0.0 .
913(17) 0.0 0.0 .
847(16) 0.0 0.0 .
876(15) 0.0 0.0 .
892(16) 0.0 0.0 .
865(16) 0.0 0.0 .
896(16) 0.0 0.0 .
881(16) 0.0 0.0 .
887(15) 0.0 0.0 .
865(15) 0.0 0.0 .
897(16) 0.0 0.0 .
902(16) 0.0 0.0 .
907(16) 0.0 0.0 .
900(16) 0.0 0.0 .
867(15) 0.0 0.0 .
846(16) 0.0 0.0 .
843(16) 0.0 0.0 .
882(16) 0.0 0.0 .
893(15) 0.0 0.0 .
869(16) 0.0 0.0 .
896(16) 0.0 0.0 .
888(16) 0.0 0.0 .
915(16) 0.0 0.0 .
869(15) 0.0 0.0 .
840(15) 0.0 0.0 .
889(16) 0.0 0.0 .
921(16) 0.0 0.0 .
884(16) 0.0 0.0 .
864(15) 0.0 0.0 .
855(16) 0.0 0.0 .
874(16) 0.0 0.0 .
892(16) 0.0 0.0 .
828(15) 0.0 0.0 .
858(15) 0.0 0.0 .
865(16) 0.0 0.0 .
869(16) 0.0 0.0 .
876(16) 0.0 0.0 .
875(16) 0.0 0.0 .
810(15) 0.0 0.0 .
877(16) 0.0 0.0 .
830(16) 0.0 0.0 .
841(16) 0.0 0.0 .
843(15) 0.0 0.0 .
875(15) 0.0 0.0 .
896(16) 0.0 0.0 .
848(16) 0.0 0.0 .
874(16) 0.0 0.0 .
905(16) 0.0 0.0 .
879(15) 0.0 0.0 .
839(16) 0.0 0.0 .
820(16) 0.0 0.0 .
850(16) 0.0 0.0 .
848(15) 0.0 0.0 .
865(15) 0.0 0.0 .
875(16) 0.0 0.0 .
832(16) 0.0 0.0 .
807(15) 0.0 0.0 .
813(15) 0.0 0.0 .
846(15) 0.0 0.0 .
843(16) 0.0 0.0 .
856(16) 0.0 0.0 .
826(15) 0.0 0.0 .
866(15) 0.0 0.0 .
850(15) 0.0 0.0 .
859(16) 0.0 0.0 .
872(16) 0.0 0.0 .
819(15) 0.0 0.0 .
800(15) 0.0 0.0 .
823(15) 0.0 0.0 .
843(16) 0.0 0.0 .
831(16) 0.0 0.0 .
841(15) 0.0 0.0 .
840(15) 0.0 0.0 .
821(15) 0.0 0.0 .
829(16) 0.0 0.0 .
841(16) 0.0 0.0 .
803(15) 0.0 0.0 .
819(15) 0.0 0.0 .
842(16) 0.0 0.0 .
806(16) 0.0 0.0 .
809(15) 0.0 0.0 .
842(15) 0.0 0.0 .
822(15) 0.0 0.0 .
798(15) 0.0 0.0 .
837(16) 0.0 0.0 .
823(15) 0.0 0.0 .
825(15) 0.0 0.0 .
832(15) 0.0 0.0 .
827(15) 0.0 0.0 .
822(16) 0.0 0.0 .
820(15) 0.0 0.0 .
809(15) 0.0 0.0 .
838(15) 0.0 0.0 .
847(16) 0.0 0.0 .
835(16) 0.0 0.0 .
843(16) 0.0 0.0 .
802(15) 0.0 0.0 .
854(15) 0.0 0.0 .
823(15) 0.0 0.0 .
836(16) 0.0 0.0 .
803(15) 0.0 0.0 .
823(15) 0.0 0.0 .
802(15) 0.0 0.0 .
838(16) 0.0 0.0 .
789(15) 0.0 0.0 .
769(15) 0.0 0.0 .
775(15) 0.0 0.0 .
818(15) 0.0 0.0 .
803(15) 0.0 0.0 .
804(16) 0.0 0.0 .
823(15) 0.0 0.0 .
831(15) 0.0 0.0 .
838(15) 0.0 0.0 .
816(15) 0.0 0.0 .
804(15) 0.0 0.0 .
822(15) 0.0 0.0 .
836(15) 0.0 0.0 .
789(15) 0.0 0.0 .
832(16) 0.0 0.0 .
827(16) 0.0 0.0 .
794(15) 0.0 0.0 .
791(15) 0.0 0.0 .
780(15) 0.0 0.0 .
771(15) 0.0 0.0 .
773(15) 0.0 0.0 .
803(15) 0.0 0.0 .
755(14) 0.0 0.0 .
789(15) 0.0 0.0 .
815(16) 0.0 0.0 .
754(15) 0.0 0.0 .
782(15) 0.0 0.0 .
812(15) 0.0 0.0 .
835(16) 0.0 0.0 .
780(15) 0.0 0.0 .
778(15) 0.0 0.0 .
803(15) 0.0 0.0 .
807(15) 0.0 0.0 .
776(15) 0.0 0.0 .
799(16) 0.0 0.0 .
773(15) 0.0 0.0 .
763(14) 0.0 0.0 .
789(15) 0.0 0.0 .
795(15) 0.0 0.0 .
841(16) 0.0 0.0 .
795(15) 0.0 0.0 .
741(14) 0.0 0.0 .
781(15) 0.0 0.0 .
776(15) 0.0 0.0 .
753(15) 0.0 0.0 .
775(15) 0.0 0.0 .
748(14) 0.0 0.0 .
776(15) 0.0 0.0 .
743(14) 0.0 0.0 .
779(16) 0.0 0.0 .
776(15) 0.0 0.0 .
757(14) 0.0 0.0 .
788(15) 0.0 0.0 .
763(15) 0.0 0.0 .
770(15) 0.0 0.0 .
808(15) 0.0 0.0 .
847(15) 0.0 0.0 .
769(15) 0.0 0.0 .
817(15) 0.0 0.0 .
808(15) 0.0 0.0 .
787(15) 0.0 0.0 .
735(14) 0.0 0.0 .
777(15) 0.0 0.0 .
789(15) 0.0 0.0 .
788(15) 0.0 0.0 .
751(15) 0.0 0.0 .
779(14) 0.0 0.0 .
753(15) 0.0 0.0 .
763(15) 0.0 0.0 .
761(15) 0.0 0.0 .
795(15) 0.0 0.0 .
760(14) 0.0 0.0 .
780(15) 0.0 0.0 .
764(15) 0.0 0.0 .
779(15) 0.0 0.0 .
770(15) 0.0 0.0 .
803(15) 0.0 0.0 .
772(15) 0.0 0.0 .
765(15) 0.0 0.0 .
745(15) 0.0 0.0 .
744(15) 0.0 0.0 .
747(14) 0.0 0.0 .
755(15) 0.0 0.0 .
740(15) 0.0 0.0 .
757(15) 0.0 0.0 .
767(15) 0.0 0.0 .
785(15) 0.0 0.0 .
749(15) 0.0 0.0 .
747(15) 0.0 0.0 .
735(14) 0.0 0.0 .
721(14) 0.0 0.0 .
759(14) 0.0 0.0 .
770(15) 0.0 0.0 .
733(15) 0.0 0.0 .
746(15) 0.0 0.0 .
755(14) 0.0 0.0 .
764(15) 0.0 0.0 .
739(14) 0.0 0.0 .
763(15) 0.0 0.0 .
772(15) 0.0 0.0 .
742(14) 0.0 0.0 .
796(15) 0.0 0.0 .
790(15) 0.0 0.0 .
765(15) 0.0 0.0 .
721(14) 0.0 0.0 .
727(14) 0.0 0.0 .
744(14) 0.0 0.0 .
755(15) 0.0 0.0 .
731(15) 0.0 0.0 .
755(15) 0.0 0.0 .
730(14) 0.0 0.0 .
792(15) 0.0 0.0 .
735(14) 0.0 0.0 .
784(15) 0.0 0.0 .
758(15) 0.0 0.0 .
770(14) 0.0 0.0 .
756(15) 0.0 0.0 .
706(14) 0.0 0.0 .
761(15) 0.0 0.0 .
725(14) 0.0 0.0 .
739(14) 0.0 0.0 .
717(14) 0.0 0.0 .
737(15) 0.0 0.0 .
766(15) 0.0 0.0 .
749(15) 0.0 0.0 .
771(14) 0.0 0.0 .
741(15) 0.0 0.0 .
756(15) 0.0 0.0 .
749(15) 0.0 0.0 .
716(14) 0.0 0.0 .
679(14) 0.0 0.0 .
772(15) 0.0 0.0 .
754(15) 0.0 0.0 .
730(14) 0.0 0.0 .
731(14) 0.0 0.0 .
780(14) 0.0 0.0 .
718(14) 0.0 0.0 .
735(15) 0.0 0.0 .
735(15) 0.0 0.0 .
732(14) 0.0 0.0 .
782(15) 0.0 0.0 .
752(15) 0.0 0.0 .
713(15) 0.0 0.0 .
698(14) 0.0 0.0 .
719(14) 0.0 0.0 .
743(14) 0.0 0.0 .
754(15) 0.0 0.0 .
773(16) 0.0 0.0 .
721(14) 0.0 0.0 .
705(14) 0.0 0.0 .
736(14) 0.0 0.0 .
708(14) 0.0 0.0 .
723(15) 0.0 0.0 .
737(15) 0.0 0.0 .
696(14) 0.0 0.0 .
748(14) 0.0 0.0 .
753(15) 0.0 0.0 .
746(15) 0.0 0.0 .
738(15) 0.0 0.0 .
705(14) 0.0 0.0 .
740(14) 0.0 0.0 .
712(14) 0.0 0.0 .
741(15) 0.0 0.0 .
732(15) 0.0 0.0 .
731(14) 0.0 0.0 .
733(14) 0.0 0.0 .
753(15) 0.0 0.0 .
691(14) 0.0 0.0 .
755(15) 0.0 0.0 .
720(14) 0.0 0.0 .
697(14) 0.0 0.0 .
745(15) 0.0 0.0 .
735(15) 0.0 0.0 .
698(14) 0.0 0.0 .
715(14) 0.0 0.0 .
727(15) 0.0 0.0 .
688(14) 0.0 0.0 .
752(15) 0.0 0.0 .
748(15) 0.0 0.0 .
726(14) 0.0 0.0 .
750(15) 0.0 0.0 .
708(15) 0.0 0.0 .
738(14) 0.0 0.0 .
742(14) 0.0 0.0 .
725(14) 0.0 0.0 .
704(14) 0.0 0.0 .
690(14) 0.0 0.0 .
751(15) 0.0 0.0 .
736(14) 0.0 0.0 .
686(14) 0.0 0.0 .
710(14) 0.0 0.0 .
676(14) 0.0 0.0 .
723(14) 0.0 0.0 .
726(14) 0.0 0.0 .
756(14) 0.0 0.0 .
740(15) 0.0 0.0 .
730(15) 0.0 0.0 .
707(14) 0.0 0.0 .
704(14) 0.0 0.0 .
740(14) 0.0 0.0 .
757(15) 0.0 0.0 .
741(15) 0.0 0.0 .
736(14) 0.0 0.0 .
695(14) 0.0 0.0 .
677(14) 0.0 0.0 .
694(14) 0.0 0.0 .
730(15) 0.0 0.0 .
704(14) 0.0 0.0 .
714(14) 0.0 0.0 .
697(14) 0.0 0.0 .
667(14) 0.0 0.0 .
715(15) 0.0 0.0 .
693(14) 0.0 0.0 .
697(14) 0.0 0.0 .
717(14) 0.0 0.0 .
721(14) 0.0 0.0 .
686(14) 0.0 0.0 .
693(14) 0.0 0.0 .
694(14) 0.0 0.0 .
702(14) 0.0 0.0 .
721(15) 0.0 0.0 .
704(14) 0.0 0.0 .
686(14) 0.0 0.0 .
699(14) 0.0 0.0 .
694(14) 0.0 0.0 .
702(14) 0.0 0.0 .
681(14) 0.0 0.0 .
738(15) 0.0 0.0 .
727(14) 0.0 0.0 .
729(15) 0.0 0.0 .
674(14) 0.0 0.0 .
704(14) 0.0 0.0 .
732(14) 0.0 0.0 .
716(14) 0.0 0.0 .
685(14) 0.0 0.0 .
725(15) 0.0 0.0 .
700(14) 0.0 0.0 .
682(14) 0.0 0.0 .
729(14) 0.0 0.0 .
735(15) 0.0 0.0 .
721(15) 0.0 0.0 .
742(15) 0.0 0.0 .
748(14) 0.0 0.0 .
762(14) 0.0 0.0 .
685(14) 0.0 0.0 .
661(14) 0.0 0.0 .
704(14) 0.0 0.0 .
722(14) 0.0 0.0 .
683(14) 0.0 0.0 .
717(14) 0.0 0.0 .
718(15) 0.0 0.0 .
725(14) 0.0 0.0 .
670(13) 0.0 0.0 .
699(14) 0.0 0.0 .
664(14) 0.0 0.0 .
719(15) 0.0 0.0 .
672(14) 0.0 0.0 .
687(14) 0.0 0.0 .
729(14) 0.0 0.0 .
720(14) 0.0 0.0 .
716(15) 0.0 0.0 .
675(14) 0.0 0.0 .
706(14) 0.0 0.0 .
701(14) 0.0 0.0 .
698(14) 0.0 0.0 .
723(15) 0.0 0.0 .
694(14) 0.0 0.0 .
730(14) 0.0 0.0 .
704(14) 0.0 0.0 .
708(14) 0.0 0.0 .
706(14) 0.0 0.0 .
695(14) 0.0 0.0 .
713(14) 0.0 0.0 .
703(14) 0.0 0.0 .
695(14) 0.0 0.0 .
710(14) 0.0 0.0 .
724(14) 0.0 0.0 .
681(14) 0.0 0.0 .
735(14) 0.0 0.0 .
709(14) 0.0 0.0 .
701(14) 0.0 0.0 .
725(14) 0.0 0.0 .
640(13) 0.0 0.0 .
699(14) 0.0 0.0 .
720(15) 0.0 0.0 .
663(14) 0.0 0.0 .
701(14) 0.0 0.0 .
676(13) 0.0 0.0 .
682(14) 0.0 0.0 .
718(15) 0.0 0.0 .
706(14) 0.0 0.0 .
602(13) 0.0 0.0 .
696(14) 0.0 0.0 .
705(14) 0.0 0.0 .
691(15) 0.0 0.0 .
700(14) 0.0 0.0 .
709(14) 0.0 0.0 .
691(14) 0.0 0.0 .
693(14) 0.0 0.0 .
705(15) 0.0 0.0 .
685(14) 0.0 0.0 .
727(14) 0.0 0.0 .
741(14) 0.0 0.0 .
701(14) 0.0 0.0 .
689(15) 0.0 0.0 .
722(15) 0.0 0.0 .
716(14) 0.0 0.0 .
722(14) 0.0 0.0 .
682(14) 0.0 0.0 .
703(15) 0.0 0.0 .
714(14) 0.0 0.0 .
674(13) 0.0 0.0 .
691(14) 0.0 0.0 .
677(14) 0.0 0.0 .
712(15) 0.0 0.0 .
666(14) 0.0 0.0 .
702(14) 0.0 0.0 .
716(14) 0.0 0.0 .
639(14) 0.0 0.0 .
704(14) 0.0 0.0 .
733(14) 0.0 0.0 .
704(14) 0.0 0.0 .
664(14) 0.0 0.0 .
736(15) 0.0 0.0 .
702(14) 0.0 0.0 .
685(14) 0.0 0.0 .
657(13) 0.0 0.0 .
629(13) 0.0 0.0 .
684(14) 0.0 0.0 .
694(14) 0.0 0.0 .
669(14) 0.0 0.0 .
697(14) 0.0 0.0 .
736(15) 0.0 0.0 .
714(15) 0.0 0.0 .
722(15) 0.0 0.0 .
675(14) 0.0 0.0 .
707(14) 0.0 0.0 .
663(14) 0.0 0.0 .
698(15) 0.0 0.0 .
697(14) 0.0 0.0 .
701(14) 0.0 0.0 .
681(14) 0.0 0.0 .
712(14) 0.0 0.0 .
679(14) 0.0 0.0 .
709(14) 0.0 0.0 .
703(14) 0.0 0.0 .
670(14) 0.0 0.0 .
717(14) 0.0 0.0 .
699(15) 0.0 0.0 .
700(14) 0.0 0.0 .
733(14) 0.0 0.0 .
704(14) 0.0 0.0 .
664(14) 0.0 0.0 .
676(15) 0.0 0.0 .
664(14) 0.0 0.0 .
715(14) 0.0 0.0 .
698(14) 0.0 0.0 .
690(14) 0.0 0.0 .
696(15) 0.0 0.0 .
707(14) 0.0 0.0 .
712(14) 0.0 0.0 .
714(14) 0.0 0.0 .
739(15) 0.0 0.0 .
697(15) 0.0 0.0 .
713(15) 0.0 0.0 .
723(14) 0.0 0.0 .
719(14) 0.0 0.0 .
682(14) 0.0 0.0 .
706(14) 0.0 0.0 .
727(14) 0.0 0.0 .
712(14) 0.0 0.0 .
733(14) 0.0 0.0 .
721(15) 0.0 0.0 .
727(15) 0.0 0.0 .
715(14) 0.0 0.0 .
710(14) 0.0 0.0 .
726(14) 0.0 0.0 .
731(15) 0.0 0.0 .
710(14) 0.0 0.0 .
740(15) 0.0 0.0 .
736(14) 0.0 0.0 .
754(15) 0.0 0.0 .
753(15) 0.0 0.0 .
743(15) 0.0 0.0 .
704(14) 0.0 0.0 .
756(14) 0.0 0.0 .
737(14) 0.0 0.0 .
723(15) 0.0 0.0 .
766(15) 0.0 0.0 .
730(14) 0.0 0.0 .
737(14) 0.0 0.0 .
740(15) 0.0 0.0 .
766(15) 0.0 0.0 .
755(15) 0.0 0.0 .
759(14) 0.0 0.0 .
742(14) 0.0 0.0 .
793(15) 0.0 0.0 .
819(16) 0.0 0.0 .
809(15) 0.0 0.0 .
794(15) 0.0 0.0 .
811(15) 0.0 0.0 .
838(16) 0.0 0.0 .
814(16) 0.0 0.0 .
833(16) 0.0 0.0 .
876(15) 0.0 0.0 .
896(16) 0.0 0.0 .
858(16) 0.0 0.0 .
878(16) 0.0 0.0 .
935(16) 0.0 0.0 .
922(16) 0.0 0.0 .
978(17) 0.0 0.0 .
947(16) 0.0 0.0 .
985(17) 0.0 0.0 .
1035(17) 0.0 0.0 .
1058(17) 0.0 0.0 .
1091(17) 0.0 0.0 .
1099(18) 0.0 0.0 .
1133(18) 0.0 0.0 .
1148(18) 0.0 0.0 .
1243(18) 0.0 0.0 .
1280(19) 0.0 0.0 .
1379(20) 0.0 0.0 .
1387(20) 0.0 0.0 .
1426(20) 0.0 0.0 .
1509(20) 0.0 0.0 .
1510(21) 0.0 0.0 .
1606(22) 0.0 0.0 .
1724(22) 0.0 0.0 .
1776(22) 0.0 0.0 .
1893(23) 0.0 0.0 .
1979(24) 0.0 0.0 .
2162(25) 0.0 0.0 .
2395(26) 0.0 0.0 .
2623(27) 0.0 0.0 .
2869(28) 0.0 0.0 .
3305(31) 0.0 0.0 .
3890(34) 0.0 0.0 .
4488(36) 0.0 0. .
5124(38) 0.0 0. .
6001(40) 0.0 0. .
7035(45) 0.0 0. .
8058(50) 0.0 0. .
9169(52) 0.0 0. .
10331(53) 0.0 0. .
11842(57) 0.0 0. .
13053(62) 0.0 0. .
14130(67) 0.0 0. .
15544(68) 0.0 0. .
17192(69) 0.0 0. .
18863(73) 0.0 0. .
21023(79) 0.0 0. .
23477(87) 0.0 0. .
26505(89) 0.0 0. .
29732(92) 0.0 0. .
33466(98) 0.0 0. .
36770(110) 0.0 0. .
38940(110) 0.0 0. .
38240(110) 0.0 0. .
34464(99) 0.0 0. .
29293(92) 0.0 0. .
24439(86) 0.0 0. .
20162(79) 0.0 0. .
16573(70) 0.0 0. .
13761(61) 0.0 0. .
11512(57) 0.0 0. .
9744(54) 0.0 0. .
8079(49) 0.0 0. .
6892(45) 0.0 0. .
5963(40) 0.0 0. .
5267(39) 0.0 0. .
4700(37) 0.0 0. .
4081(34) 0.0 0.0 .
3618(32) 0.0 0.0 .
3304(30) 0.0 0.0 .
2893(29) 0.0 0.0 .
2643(28) 0.0 0.0 .
2460(27) 0.0 0.0 .
2250(25) 0.0 0.0 .
2068(24) 0.0 0.0 .
1944(24) 0.0 0.0 .
1788(23) 0.0 0.0 .
1669(22) 0.0 0.0 .
1574(21) 0.0 0.0 .
1504(20) 0.0 0.0 .
1385(20) 0.0 0.0 .
1363(20) 0.0 0.0 .
1319(20) 0.0 0.0 .
1251(19) 0.0 0.0 .
1205(18) 0.0 0.0 .
1164(18) 0.0 0.0 .
1117(19) 0.0 0.0 .
1103(18) 0.0 0.0 .
1048(17) 0.0 0.0 .
1039(17) 0.0 0.0 .
972(17) 0.0 0.0 .
942(17) 0.0 0.0 .
925(16) 0.0 0.0 .
985(16) 0.0 0.0 .
915(16) 0.0 0.0 .
847(15) 0.0 0.0 .
926(17) 0.0 0.0 .
863(16) 0.0 0.0 .
882(15) 0.0 0.0 .
875(15) 0.0 0.0 .
826(15) 0.0 0.0 .
838(16) 0.0 0.0 .
846(16) 0.0 0.0 .
844(15) 0.0 0.0 .
835(15) 0.0 0.0 .
790(15) 0.0 0.0 .
786(15) 0.0 0.0 .
789(15) 0.0 0.0 .
774(14) 0.0 0.0 .
752(14) 0.0 0.0 .
733(14) 0.0 0.0 .
794(15) 0.0 0.0 .
759(15) 0.0 0.0 .
728(14) 0.0 0.0 .
773(15) 0.0 0.0 .
773(15) 0.0 0.0 .
747(15) 0.0 0.0 .
716(14) 0.0 0.0 .
721(14) 0.0 0.0 .
719(14) 0.0 0.0 .
726(15) 0.0 0.0 .
721(15) 0.0 0.0 .
702(14) 0.0 0.0 .
737(14) 0.0 0.0 .
687(14) 0.0 0.0 .
697(14) 0.0 0.0 .
682(14) 0.0 0.0 .
693(14) 0.0 0.0 .
712(14) 0.0 0.0 .
699(14) 0.0 0.0 .
699(15) 0.0 0.0 .
714(15) 0.0 0.0 .
703(14) 0.0 0.0 .
704(14) 0.0 0.0 .
713(15) 0.0 0.0 .
733(15) 0.0 0.0 .
666(14) 0.0 0.0 .
694(14) 0.0 0.0 .
649(13) 0.0 0.0 .
661(14) 0.0 0.0 .
670(14) 0.0 0.0 .
644(14) 0.0 0.0 .
692(14) 0.0 0.0 .
616(13) 0.0 0.0 .
656(14) 0.0 0.0 .
664(14) 0.0 0.0 .
650(14) 0.0 0.0 .
644(13) 0.0 0.0 .
651(13) 0.0 0.0 .
664(14) 0.0 0.0 .
645(14) 0.0 0.0 .
655(14) 0.0 0.0 .
665(13) 0.0 0.0 .
654(13) 0.0 0.0 .
646(14) 0.0 0.0 .
674(14) 0.0 0.0 .
690(14) 0.0 0.0 .
663(13) 0.0 0.0 .
611(13) 0.0 0.0 .
631(13) 0.0 0.0 .
660(14) 0.0 0.0 .
636(13) 0.0 0.0 .
627(13) 0.0 0.0 .
615(13) 0.0 0.0 .
672(14) 0.0 0.0 .
656(14) 0.0 0.0 .
647(14) 0.0 0.0 .
614(13) 0.0 0.0 .
616(13) 0.0 0.0 .
642(14) 0.0 0.0 .
630(13) 0.0 0.0 .
650(13) 0.0 0.0 .
602(13) 0.0 0.0 .
650(14) 0.0 0.0 .
645(14) 0.0 0.0 .
633(14) 0.0 0.0 .
609(13) 0.0 0.0 .
636(13) 0.0 0.0 .
629(13) 0.0 0.0 .
619(13) 0.0 0.0 .
647(14) 0.0 0.0 .
639(13) 0.0 0.0 .
661(13) 0.0 0.0 .
650(14) 0.0 0.0 .
629(14) 0.0 0.0 .
665(14) 0.0 0.0 .
609(13) 0.0 0.0 .
622(13) 0.00598 618.9 40.0
639(14) 0.00536 618.9 39.5
616(14) 0.00530 618.9 38.9
612(13) 0.00561 618.8 38.3
601(13) 0.00609 618.5 37.8
614(13) 0.00607 618.2 37.3
620(13) 0.00550 617.9 36.8
621(14) 0.00521 617.5 36.2
632(13) 0.00554 617.2 35.7
644(13) 0.00565 616.9 35.3
620(13) 0.00602 616.6 34.8
636(14) 0.00532 616.2 34.3
609(14) 0.00533 615.9 33.9
641(14) 0.00542 615.6 33.4
663(13) 0.00553 615.2 33.0
646(13) 0.00564 614.9 32.5
586(13) 0.00593 614.6 32.1
621(14) 0.00523 614.3 31.7
641(13) 0.00558 613.9 31.3
656(13) 0.00567 613.6 30.9
602(13) 0.00612 613.3 30.5
616(13) 0.00558 613.0 30.1
601(13) 0.00555 612.6 29.7
585(13) 0.00603 612.3 29.4
604(13) 0.00614 612.0 29.0
608(13) 0.00603 611.6 28.7
608(13) 0.00571 611.3 28.3
623(14) 0.00541 611.0 28.0
635(13) 0.00553 610.7 27.6
630(13) 0.00589 610.3 27.3
589(13) 0.00619 610.0 27.0
632(14) 0.00539 609.7 26.7
602(13) 0.00566 609.4 26.4
632(13) 0.00551 609.0 26.1
611(13) 0.00617 608.7 25.8
616(13) 0.00571 608.4 25.5
599(13) 0.00576 608.0 25.2
591(13) 0.00591 607.7 24.9
590(13) 0.00608 607.4 24.6
588(13) 0.00631 607.1 24.3
590(13) 0.00595 606.7 24.1
611(13) 0.00550 606.4 23.8
598(13) 0.00566 606.1 23.5
551(12) 0.00646 605.8 23.3
594(13) 0.00630 605.4 23.0
589(13) 0.00586 605.1 22.8
604(13) 0.00559 604.8 22.5
613(13) 0.00562 604.4 22.3
600(13) 0.00605 604.1 22.1
635(13) 0.00589 603.8 21.8
607(13) 0.00569 603.5 21.6
599(14) 0.00537 603.1 21.4
596(13) 0.00570 602.8 21.2
604(13) 0.00614 602.5 20.9
572(12) 0.00646 602.2 20.7
584(13) 0.00595 601.8 20.5
599(14) 0.00544 601.5 20.3
597(13) 0.00582 601.2 20.1
574(13) 0.00637 600.8 19.9
570(12) 0.00646 600.5 19.7
578(13) 0.00599 600.2 19.5
598(14) 0.00543 599.9 19.3
598(13) 0.00588 599.5 19.1
588(13) 0.00626 599.2 19.0
590(13) 0.00617 598.9 18.8
560(13) 0.00638 598.6 18.6
592(13) 0.00553 598.2 18.4
581(13) 0.00588 597.9 18.3
595(13) 0.00631 597.6 18.1
600(13) 0.00604 597.2 17.9
574(13) 0.00609 596.9 17.8
575(13) 0.00581 596.6 17.6
599(13) 0.00581 596.3 17.4
603(13) 0.00616 595.9 17.3
616(13) 0.00595 595.6 17.1
587(13) 0.00600 595.3 17.0
595(13) 0.00593 595.0 16.8
595(13) 0.00590 594.6 16.7
596(13) 0.00628 594.3 16.5
578(13) 0.00614 594.0 16.4
613(13) 0.00570 593.7 16.2
598(13) 0.00576 593.3 16.1
584(13) 0.00618 593.0 16.0
543(12) 0.00685 592.7 15.8
639(13) 0.00549 592.3 15.7
572(13) 0.00595 592.0 15.6
580(13) 0.00579 591.7 15.4
572(13) 0.00619 591.4 15.3
584(13) 0.00640 591.0 15.2
596(13) 0.00596 590.7 15.1
597(13) 0.00578 590.4 14.9
586(13) 0.00595 590.1 14.8
589(13) 0.00609 589.7 14.7
592(13) 0.00624 589.4 14.6
586(13) 0.00579 589.1 14.5
588(13) 0.00557 588.7 14.3
576(13) 0.00612 588.4 14.2
619(13) 0.00590 588.1 14.1
574(12) 0.00654 587.8 14.0
560(13) 0.00628 587.4 13.9
609(14) 0.00520 587.1 13.8
575(13) 0.00600 586.8 13.7
588(13) 0.00618 586.5 13.6
545(12) 0.00690 586.1 13.5
554(12) 0.00652 585.8 13.4
580(13) 0.00557 585.5 13.3
564(13) 0.00623 585.1 13.2
597(13) 0.00619 584.8 13.1
596(13) 0.00625 584.5 13.0
583(13) 0.00605 584.2 12.9
599(14) 0.00532 583.8 12.8
568(13) 0.00621 583.5 12.8
596(13) 0.00619 583.2 12.7
570(13) 0.00639 582.9 12.6
597(13) 0.00564 582.5 12.5
576(13) 0.00567 582.2 12.4
557(13) 0.00632 581.9 12.3
600(13) 0.00624 581.5 12.3
570(12) 0.00650 581.2 12.2
622(14) 0.00540 580.9 12.1
571(13) 0.00574 580.6 12.0
582(13) 0.00599 580.2 12.0
579(12) 0.00642 579.9 11.9
553(12) 0.00657 579.6 11.8
581(13) 0.00595 579.3 11.7
600(14) 0.00544 578.9 11.7
579(13) 0.00601 578.6 11.6
542(12) 0.00683 578.3 11.5
564(13) 0.00637 577.9 11.5
552(13) 0.00624 577.6 11.4
539(13) 0.00635 577.3 11.3
559(13) 0.00615 577.0 11.3
577(12) 0.00647 576.6 11.2
591(13) 0.00596 576.3 11.2
593(13) 0.00600 576.0 11.1
610(13) 0.00560 575.7 11.0
600(13) 0.00590 575.3 11.0
578(12) 0.00647 575.0 10.9
555(12) 0.00641 574.7 10.9
597(14) 0.00545 574.3 10.8
616(14) 0.00544 574.0 10.8
582(13) 0.00610 573.7 10.7
546(12) 0.00677 573.4 10.7
553(13) 0.00619 573.0 10.6
574(13) 0.00582 572.7 10.6
577(13) 0.00591 572.4 10.5
596(13) 0.00597 572.1 10.5
563(12) 0.00667 571.7 10.5
601(13) 0.00573 571.4 10.4
580(13) 0.00561 571.1 10.4
551(13) 0.00637 570.7 10.3
552(12) 0.00654 570.4 10.3
555(12) 0.00672 570.1 10.3
591(13) 0.00587 569.8 10.2
564(13) 0.00568 569.4 10.2
566(13) 0.00614 569.1 10.2
583(13) 0.00634 568.8 10.1
573(12) 0.00647 568.5 10.1
574(13) 0.00596 568.3 10.1
582(13) 0.00553 568.2 10.1
586(13) 0.00572 568.0 10.1
576(13) 0.00632 567.9 10.0
569(12) 0.00647 567.8 10.0
567(13) 0.00627 567.6 10.0
551(13) 0.00618 567.5 10.0
576(13) 0.00606 567.4 10.0
560(12) 0.00667 567.3 10.0
565(12) 0.00643 567.1 9.9
584(13) 0.00581 567.0 9.9
546(13) 0.00617 566.9 9.9
568(13) 0.00621 566.7 9.9
586(13) 0.00637 566.6 9.9
572(13) 0.00627 566.5 9.9
607(13) 0.00564 566.3 9.9
548(13) 0.00621 566.2 9.9
570(13) 0.00610 566.1 10.0
575(12) 0.00643 566.0 10.0
601(13) 0.00597 565.8 10.0
579(13) 0.00596 565.7 10.0
566(13) 0.00595 565.6 10.0
555(13) 0.00626 565.4 10.0
556(12) 0.00673 565.3 10.1
548(12) 0.00655 565.2 10.1
598(13) 0.00565 565.1 10.1
574(13) 0.00597 564.9 10.2
562(13) 0.00630 564.8 10.2
585(13) 0.00633 564.7 10.3
580(13) 0.00597 564.5 10.3
554(13) 0.00613 564.4 10.4
563(13) 0.00609 564.3 10.4
572(13) 0.00618 564.1 10.5
532(12) 0.00697 564.0 10.6
561(13) 0.00610 563.9 10.6
569(13) 0.00589 563.8 10.7
557(13) 0.00625 563.6 10.8
534(12) 0.00677 563.5 10.9
566(12) 0.00655 563.4 11.0
579(13) 0.00588 563.2 11.1
597(14) 0.00537 563.1 11.3
578(13) 0.00599 563.0 11.4
578(13) 0.00629 562.9 11.5
568(12) 0.00662 562.7 11.7
577(13) 0.00599 562.6 11.8
585(13) 0.00568 562.5 12.0
620(13) 0.00565 562.3 12.2
584(13) 0.00629 562.2 12.4
576(12) 0.00643 562.1 12.6
588(13) 0.00581 561.9 12.8
562(13) 0.00557 561.8 13.1
541(12) 0.00644 561.7 13.3
562(12) 0.00658 561.6 13.6
580(12) 0.00645 561.4 13.9
581(13) 0.00598 561.3 14.3
578(13) 0.00562 561.2 14.6
581(13) 0.00595 561.0 15.0
557(12) 0.00659 560.9 15.4
549(12) 0.00685 560.8 15.9
551(13) 0.00625 560.6 16.4
560(13) 0.00581 560.5 16.9
561(13) 0.00609 560.4 17.5
578(12) 0.00645 560.3 18.1
575(12) 0.00645 560.1 18.8
601(13) 0.00586 560.0 19.5
582(13) 0.00586 559.9 20.4
567(13) 0.00624 559.7 21.3
577(12) 0.00644 559.6 22.3
600(13) 0.00601 559.5 23.4
580(13) 0.00598 559.4 24.7
579(13) 0.00591 559.2 26.1
618(13) 0.00562 559.1 27.7
640(13) 0.00583 559.0 29.5
585(13) 0.00614 558.8 31.6
629(14) 0.00545 558.7 34.0
624(13) 0.00552 558.6 36.9
592(13) 0.00611 558.4 40.3
625(13) 0.00591 558.3 44.3
632(13) 0.00550 558.2 49.0
610(13) 0.00551 558.1 54.7
636(14) 0.00533 557.9 61.5
636(13) 0.00569 557.8 69.5
650(13) 0.00569 557.7 79.0
687(14) 0.00498 557.5 90.0
711(15) 0.00464 557.4 102.8
670(14) 0.00508 557.3 117.4
685(14) 0.00530 557.1 133.9
654(13) 0.00569 557.0 152.3
693(14) 0.00499 556.9 172.4
701(15) 0.00462 556.8 193.8
680(14) 0.00512 556.6 216.0
733(14) 0.00495 556.5 238.2
770(14) 0.00482 556.4 259.0
755(15) 0.00462 556.2 277.0
758(15) 0.00439 556.1 290.4
748(15) 0.00474 556.0 297.8
750(14) 0.00496 555.9 298.1
752(14) 0.00493 555.7 291.4
772(15) 0.00453 555.6 278.4
764(15) 0.00419 555.5 260.7
716(14) 0.00490 555.3 240.1
725(14) 0.00511 555.2 217.9
697(14) 0.00525 555.1 195.6
679(14) 0.00516 554.9 174.0
611(14) 0.00544 554.8 153.8
649(14) 0.00529 554.7 135.2
608(13) 0.00609 554.6 118.4
598(13) 0.00610 554.4 103.6
595(13) 0.00592 554.3 90.6
554(13) 0.00609 554.2 79.3
626(13) 0.00557 554.0 69.7
621(13) 0.00600 553.9 61.5
600(13) 0.00605 553.8 54.5
590(13) 0.00581 553.7 48.7
560(13) 0.00591 553.5 43.8
556(13) 0.00614 553.4 39.7
581(13) 0.00640 553.3 36.2
593(13) 0.00606 553.1 33.2
569(13) 0.00614 553.0 30.7
556(13) 0.00618 552.9 28.5
556(13) 0.00634 552.7 26.6
571(12) 0.00649 552.6 24.9
565(13) 0.00638 552.5 23.5
572(13) 0.00591 552.4 22.1
561(13) 0.00596 552.2 21.0
583(13) 0.00598 552.1 19.9
587(13) 0.00635 552.0 18.9
593(13) 0.00594 551.8 18.0
576(13) 0.00582 551.7 17.2
571(13) 0.00589 551.6 16.5
571(13) 0.00620 551.4 15.8
574(12) 0.00650 551.3 15.2
569(13) 0.00603 551.2 14.6
540(13) 0.00622 551.1 14.0
568(13) 0.00595 550.9 13.5
555(12) 0.00652 550.8 13.1
545(12) 0.00686 550.7 12.6
566(13) 0.00609 550.5 12.2
550(13) 0.00595 550.4 11.8
546(13) 0.00627 550.3 11.5
576(13) 0.00633 550.2 11.1
557(12) 0.00666 550.0 10.8
576(13) 0.00600 549.9 10.5
551(13) 0.00609 549.8 10.2
538(12) 0.00653 549.6 9.9
570(12) 0.00642 549.5 9.7
552(12) 0.00674 549.4 9.4
547(12) 0.00647 549.2 9.2
556(13) 0.00586 549.1 9.0
536(12) 0.00658 549.0 8.8
558(12) 0.00658 548.9 8.6
582(13) 0.00634 548.7 8.4
559(13) 0.00627 548.6 8.2
588(13) 0.00552 548.5 8.1
560(13) 0.00628 548.3 7.9
560(12) 0.00649 548.2 7.7
559(12) 0.00657 548.1 7.6
551(12) 0.00652 548.0 7.5
543(13) 0.00624 547.8 7.3
540(13) 0.00639 547.7 7.2
533(12) 0.00692 547.6 7.1
555(12) 0.00663 547.4 6.9
570(13) 0.00614 547.3 6.8
544(13) 0.00617 547.2 6.7
533(12) 0.00666 547.0 6.6
576(12) 0.00643 546.9 6.5
545(12) 0.00661 546.8 6.4
545(13) 0.00621 546.7 6.3
554(13) 0.00604 546.5 6.2
549(13) 0.00629 546.4 6.1
536(12) 0.00700 546.3 6.1
564(13) 0.00633 546.1 6.0
566(13) 0.00615 546.0 5.9
555(13) 0.00611 545.9 5.8
514(12) 0.00688 545.7 5.7
528(12) 0.00705 545.6 5.7
522(12) 0.00674 545.5 5.6
569(13) 0.00599 545.4 5.5
543(13) 0.00636 545.2 5.5
541(12) 0.00655 545.1 5.4
547(12) 0.00683 545.0 5.3
580(13) 0.00605 544.8 5.3
534(13) 0.00633 544.7 5.2
536(13) 0.00634 544.6 5.2
533(12) 0.00678 544.5 5.1
543(12) 0.00688 544.3 5.0
533(12) 0.00661 544.2 5.0
572(13) 0.00586 544.1 4.9
561(13) 0.00601 543.9 4.9
549(12) 0.00664 543.8 4.8
559(12) 0.00661 543.7 4.8
536(12) 0.00644 543.5 4.7
541(13) 0.00608 543.4 4.7
535(12) 0.00658 543.3 4.7
561(12) 0.00653 543.2 4.6
528(12) 0.00704 543.0 4.6
565(13) 0.00602 542.9 4.5
549(13) 0.00588 542.8 4.5
522(12) 0.00657 542.6 4.5
555(12) 0.00657 542.5 4.4
527(12) 0.00703 542.4 4.4
522(12) 0.00665 542.3 4.3
532(13) 0.00596 542.1 4.3
541(12) 0.00641 542.0 4.3
521(12) 0.00718 541.9 4.2
528(12) 0.00701 541.7 4.2
539(12) 0.00667 541.6 4.2
554(13) 0.00596 541.5 4.1
523(12) 0.00661 541.3 4.1
577(13) 0.00638 541.2 4.1
556(12) 0.00651 541.1 4.0
560(13) 0.00622 541.0 4.0
572(13) 0.00580 540.8 4.0
532(12) 0.00668 540.7 3.9
548(12) 0.00680 540.6 3.9
521(12) 0.00706 540.4 3.9
534(12) 0.00666 540.3 3.9
547(13) 0.00615 540.2 3.8
555(13) 0.00630 540.0 3.8
560(12) 0.00665 539.9 3.8
556(12) 0.00655 539.8 3.8
561(13) 0.00617 539.7 3.7
535(12) 0.00641 539.5 3.7
549(13) 0.00630 539.4 3.7
569(12) 0.00648 539.3 3.7
523(12) 0.00686 539.1 3.6
565(13) 0.00577 539.0 3.6
539(12) 0.00643 538.9 3.6
527(12) 0.00673 538.9 3.6
544(12) 0.00682 538.8 3.5
525(12) 0.00672 538.8 3.5
522(12) 0.00648 538.7 3.5
534(12) 0.00647 538.7 3.5
576(13) 0.00611 538.6 3.5
536(12) 0.00691 538.6 3.4
523(12) 0.00658 538.5 3.4
564(13) 0.00594 538.4 3.4
525(12) 0.00676 538.4 3.4
540(13) 0.00637 538.3 3.4
515(12) 0.00725 538.3 3.3
564(13) 0.00606 538.2 3.3
524(12) 0.00663 538.2 3.3
526(12) 0.00668 538.1 3.3
540(12) 0.00670 538.0 3.3
486(11) 0.00772 538.0 3.2
537(13) 0.00623 537.9 3.2
567(13) 0.00573 537.9 3.2
552(12) 0.00644 537.8 3.2
567(12) 0.00650 537.8 3.2
541(12) 0.00687 537.7 3.2
536(12) 0.00648 537.7 3.1
577(13) 0.00552 537.6 3.1
550(13) 0.00627 537.5 3.1
557(12) 0.00660 537.5 3.1
552(12) 0.00647 537.4 3.1
496(12) 0.00710 537.4 3.1
535(13) 0.00595 537.3 3.0
541(12) 0.00650 537.3 3.0
507(12) 0.00730 537.2 3.0
539(12) 0.00679 537.1 3.0
570(13) 0.00595 537.1 3.0
534(13) 0.00601 537.0 3.0
515(12) 0.00672 537.0 2.9
524(12) 0.00697 536.9 2.9
525(12) 0.00688 536.9 2.9
483(12) 0.00738 536.8 2.9
541(13) 0.00618 536.8 2.9
529(12) 0.00663 536.7 2.9
551(12) 0.00669 536.6 2.9
534(12) 0.00679 536.6 2.8
561(13) 0.00622 536.5 2.8
534(12) 0.00640 536.5 2.8
548(13) 0.00633 536.4 2.8
559(12) 0.00669 536.4 2.8
556(12) 0.00643 536.3 2.8
567(13) 0.00603 536.3 2.8
561(13) 0.00599 536.2 2.8
542(13) 0.00639 536.1 2.7
495(12) 0.00753 536.1 2.7
538(12) 0.00649 536.0 2.7
520(12) 0.00671 536.0 2.7
551(13) 0.00627 535.9 2.7
553(13) 0.00631 535.9 2.7
532(12) 0.00698 535.8 2.7
549(13) 0.00612 535.7 2.7
543(13) 0.00621 535.7 2.6
537(12) 0.00646 535.6 2.6
520(12) 0.00698 535.6 2.6
519(12) 0.00714 535.5 2.6
537(12) 0.00650 535.5 2.6
536(13) 0.00620 535.4 2.6
534(12) 0.00646 535.4 2.6
539(12) 0.00662 535.3 2.6
557(12) 0.00670 535.2 2.6
564(13) 0.00601 535.2 2.6
532(13) 0.00610 535.1 2.5
541(13) 0.00629 535.1 2.5
524(12) 0.00699 535.0 2.5
526(12) 0.00715 535.0 2.5
550(13) 0.00637 534.9 2.5
535(13) 0.00598 534.8 2.5
549(13) 0.00630 534.8 2.5
555(12) 0.00669 534.7 2.5
538(12) 0.00675 534.7 2.5
540(12) 0.00644 534.6 2.5
541(13) 0.00593 534.6 2.7
548(13) 0.00624 534.5 2.7
495(11) 0.00758 534.5 2.7
505(12) 0.00719 534.4 2.7
523(12) 0.00667 534.3 2.7
536(13) 0.00616 534.3 2.7
534(12) 0.00650 534.2 2.7
529(12) 0.00695 534.2 2.7
528(12) 0.00692 534.1 2.7
545(13) 0.00634 534.1 2.7
544(13) 0.00614 534.0 2.6
542(12) 0.00661 534.0 2.6
527(12) 0.00708 533.9 2.6
553(12) 0.00644 533.8 2.6
548(12) 0.00659 533.8 2.6
550(13) 0.00615 533.7 2.6
528(12) 0.00648 533.7 2.6
502(12) 0.00740 533.6 2.6
526(12) 0.00682 533.6 2.6
546(13) 0.00628 533.5 2.6
530(12) 0.00644 533.4 2.6
506(12) 0.00699 533.4 2.6
527(12) 0.00711 533.3 2.6
512(12) 0.00687 533.3 2.6
549(13) 0.00616 533.2 2.5
543(13) 0.00626 533.2 2.5
559(13) 0.00629 533.1 2.5
553(12) 0.00674 533.1 2.5
563(13) 0.00618 533.0 2.5
516(12) 0.00687 532.9 2.5
548(13) 0.00637 532.9 2.5
547(12) 0.00645 532.8 2.5
553(12) 0.00678 532.8 2.5
526(12) 0.00658 532.7 2.5
538(13) 0.00615 532.7 2.5
547(13) 0.00636 532.6 2.5
549(12) 0.00657 532.5 2.5
557(12) 0.00673 532.5 2.5
587(13) 0.00584 532.4 2.5
554(13) 0.00581 532.4 2.5
529(12) 0.00665 532.3 2.5
559(12) 0.00650 532.3 2.4
520(12) 0.00720 532.2 2.4
530(13) 0.00635 532.2 2.4
533(13) 0.00626 532.1 2.4
589(13) 0.00583 532.0 2.4
535(12) 0.00694 532.0 2.4
598(13) 0.00614 531.9 2.4
594(13) 0.00581 531.9 2.4
553(13) 0.00592 531.8 2.4
547(12) 0.00647 531.8 2.4
554(12) 0.00673 531.7 2.4
511(12) 0.00713 531.7 2.4
494(12) 0.00718 531.6 2.4
564(13) 0.00558 531.5 2.4
547(13) 0.00635 531.5 2.4
539(12) 0.00692 531.4 2.4
565(13) 0.00638 531.4 2.4
546(13) 0.00626 531.3 2.4
557(13) 0.00594 531.3 2.4
542(12) 0.00648 531.2 2.4
551(12) 0.00674 531.1 2.4
550(12) 0.00663 531.1 2.4
537(13) 0.00638 531.0 2.3
562(13) 0.00575 531.0 2.3
543(13) 0.00629 530.9 2.3
539(12) 0.00695 530.9 2.3
522(12) 0.00684 530.8 2.3
512(12) 0.00679 530.8 2.3
506(12) 0.00688 530.7 2.3
567(13) 0.00627 530.6 2.3
550(12) 0.00675 530.6 2.3
535(12) 0.00672 530.5 2.3
532(12) 0.00642 530.5 2.3
531(13) 0.00626 530.4 2.3
524(12) 0.00683 530.4 2.3
516(12) 0.00722 530.3 2.3
532(12) 0.00650 530.2 2.3
528(12) 0.00648 530.2 2.3
525(12) 0.00646 530.1 2.3
538(12) 0.00679 530.1 2.3
545(12) 0.00675 530.0 2.3
546(13) 0.00620 530.0 2.3
506(12) 0.00667 529.9 2.3
537(13) 0.00633 529.9 2.3
538(12) 0.00679 529.8 2.3
532(12) 0.00696 529.7 2.3
532(12) 0.00650 529.7 2.3
545(13) 0.00622 529.6 2.3
544(13) 0.00634 529.6 2.3
556(12) 0.00653 529.5 2.3
517(12) 0.00713 529.5 2.3
547(13) 0.00622 529.4 2.3
547(13) 0.00583 529.4 2.3
534(12) 0.00656 529.3 2.3
539(12) 0.00680 529.2 2.3
533(12) 0.00694 529.2 2.3
538(12) 0.00646 529.1 2.3
535(13) 0.00608 529.1 2.3
527(12) 0.00657 529.0 2.3
554(12) 0.00669 529.0 2.3
535(12) 0.00688 528.9 2.3
563(13) 0.00614 528.8 2.3
512(12) 0.00643 528.8 2.2
520(12) 0.00670 528.7 2.2
519(12) 0.00716 528.7 2.2
516(12) 0.00715 528.6 2.2
551(13) 0.00637 528.6 2.2
562(13) 0.00576 528.5 2.2
538(12) 0.00656 528.5 2.2
540(12) 0.00686 528.4 2.2
543(12) 0.00662 528.3 2.2
485(12) 0.00717 528.3 2.2
515(12) 0.00646 528.2 2.2
537(13) 0.00639 528.2 2.2
534(12) 0.00689 528.1 2.2
533(12) 0.00688 528.1 2.2
562(13) 0.00619 528.0 2.2
558(13) 0.00600 527.9 2.2
507(12) 0.00698 527.9 2.2
518(12) 0.00722 527.8 2.2
521(12) 0.00676 527.8 2.2
523(12) 0.00644 527.7 2.2
543(13) 0.00633 527.7 2.2
565(13) 0.00619 527.6 2.2
557(12) 0.00670 527.6 2.3
515(12) 0.00668 527.5 2.3
535(13) 0.00623 527.4 2.3
532(12) 0.00651 527.4 2.3
551(12) 0.00659 527.3 2.3
550(12) 0.00681 527.3 2.3
543(13) 0.00635 527.2 2.3
556(13) 0.00599 527.2 2.3
514(12) 0.00676 527.1 2.3
561(12) 0.00645 527.1 2.3
540(12) 0.00687 527.0 2.3
507(12) 0.00679 526.9 2.3
550(13) 0.00585 526.9 2.3
557(13) 0.00622 526.8 2.3
563(12) 0.00652 526.8 2.3
523(12) 0.00710 526.7 2.3
531(12) 0.00652 526.7 2.3
555(13) 0.00584 526.6 2.3
528(12) 0.00654 526.5 2.3
534(12) 0.00685 526.5 2.3
535(12) 0.00696 526.4 2.3
538(12) 0.00654 526.4 2.3
509(13) 0.00637 526.3 2.3
528(12) 0.00659 526.3 2.3
536(12) 0.00687 526.2 2.3
534(12) 0.00690 526.2 2.3
500(12) 0.00713 526.1 2.3
553(13) 0.00582 526.0 2.3
527(12) 0.00643 526.0 2.3
529(12) 0.00708 525.9 2.3
500(12) 0.00733 525.9 2.4
513(12) 0.00693 525.8 2.4
555(13) 0.00589 525.8 2.4
540(13) 0.00634 525.7 2.4
497(12) 0.00746 525.6 2.4
534(12) 0.00674 525.7 2.4
544(13) 0.00633 525.7 2.4
530(13) 0.00633 525.8 2.4
529(12) 0.00655 525.8 2.4
523(12) 0.00710 525.9 2.4
545(12) 0.00663 526.0 2.4
520(12) 0.00664 526.0 2.4
495(12) 0.00689 526.1 2.4
527(12) 0.00657 526.2 2.5
545(12) 0.00688 526.2 2.5
521(12) 0.00673 526.3 2.5
532(12) 0.00652 526.3 2.5
542(13) 0.00632 526.4 2.5
530(12) 0.00672 526.5 2.5
535(12) 0.00692 526.5 2.5
523(12) 0.00667 526.6 2.5
527(12) 0.00645 526.6 2.6
529(12) 0.00649 526.7 2.6
532(12) 0.00666 526.8 2.6
519(12) 0.00721 526.8 2.6
541(13) 0.00637 526.9 3.0
526(12) 0.00655 527.0 3.0
533(12) 0.00659 527.0 3.1
545(12) 0.00676 527.1 3.1
505(12) 0.00731 527.1 3.1
524(12) 0.00655 527.2 3.1
523(13) 0.00625 527.3 3.1
540(13) 0.00634 527.3 3.2
508(12) 0.00720 527.4 3.2
521(12) 0.00710 527.5 3.2
552(13) 0.00629 527.5 3.2
518(13) 0.00638 527.6 3.3
542(12) 0.00646 527.6 3.3
528(12) 0.00689 527.7 3.3
546(12) 0.00681 527.8 3.3
502(12) 0.00699 527.8 3.4
528(13) 0.00611 527.9 3.4
539(12) 0.00642 528.0 3.4
543(12) 0.00683 528.0 3.5
548(12) 0.00675 528.1 3.5
556(13) 0.00624 528.1 3.5
522(13) 0.00616 528.2 3.6
522(12) 0.00656 528.3 3.6
553(12) 0.00669 528.3 3.7
537(12) 0.00688 528.4 3.7
510(12) 0.00679 528.5 3.8
534(13) 0.00596 528.5 3.8
554(13) 0.00617 528.6 3.9
548(12) 0.00679 528.6 3.9
541(12) 0.00683 528.7 4.0
547(13) 0.00622 528.8 4.0
540(13) 0.00603 528.8 4.1
498(12) 0.00717 528.9 4.2
558(12) 0.00670 529.0 4.2
533(12) 0.00672 529.0 4.3
525(12) 0.00649 529.1 4.4
523(12) 0.00649 529.1 4.5
566(13) 0.00599 529.2 4.6
543(12) 0.00680 529.3 4.7
528(12) 0.00699 529.3 4.8
541(13) 0.00639 529.4 4.9
551(13) 0.00613 529.5 5.0
517(12) 0.00675 529.5 5.1
524(12) 0.00711 529.6 5.3
515(12) 0.00699 529.6 5.4
509(12) 0.00678 529.7 5.6
509(12) 0.00675 529.8 5.7
525(12) 0.00684 529.8 5.9
562(12) 0.00656 529.9 6.1
546(12) 0.00659 530.0 6.3
516(12) 0.00665 530.0 6.6
547(13) 0.00619 530.1 6.8
528(12) 0.00673 530.1 7.1
497(12) 0.00748 530.2 7.5
536(13) 0.00636 530.3 7.8
536(13) 0.00625 530.3 8.2
546(12) 0.00641 530.4 8.6
532(12) 0.00674 530.5 9.0
509(12) 0.00724 530.5 9.5
512(12) 0.00671 530.6 10.1
560(13) 0.00581 530.6 10.7
548(13) 0.00638 530.7 11.3
556(12) 0.00662 530.8 12.0
515(12) 0.00723 530.8 12.8
539(12) 0.00653 530.9 13.6
563(13) 0.00571 531.0 14.5
522(12) 0.00684 531.0 15.5
532(12) 0.00692 531.1 16.5
578(12) 0.00640 531.1 17.6
533(12) 0.00661 531.2 18.8
520(13) 0.00621 531.3 20.1
508(12) 0.00694 531.3 21.3
568(12) 0.00650 531.4 22.7
526(12) 0.00712 531.5 24.0
541(12) 0.00640 531.5 25.3
537(13) 0.00612 531.6 26.6
528(12) 0.00656 531.6 27.8
573(12) 0.00652 531.7 28.9
531(12) 0.00685 531.8 29.7
523(12) 0.00670 531.8 30.4
568(13) 0.00566 531.9 30.8
524(12) 0.00651 532.0 31.0
555(12) 0.00670 532.0 30.8
530(12) 0.00683 532.1 30.4
549(12) 0.00646 532.1 29.8
544(13) 0.00627 532.2 28.9
527(13) 0.00631 532.3 27.8
511(12) 0.00720 532.3 26.7
551(12) 0.00652 532.4 25.4
532(13) 0.00639 532.5 24.1
525(13) 0.00629 532.5 22.8
526(12) 0.00662 532.6 21.4
537(12) 0.00689 532.6 20.2
572(13) 0.00626 532.7 18.9
532(12) 0.00652 532.8 17.8
539(13) 0.00633 532.8 16.7
522(12) 0.00683 532.9 15.7
528(12) 0.00704 532.9 14.7
550(12) 0.00642 533.0 13.8
536(12) 0.00640 533.1 13.0
553(13) 0.00602 533.1 12.2
546(12) 0.00655 533.2 11.5
556(12) 0.00672 533.3 10.9
541(12) 0.00649 533.3 10.3
526(12) 0.00653 533.4 9.8
509(12) 0.00688 533.4 9.3
530(12) 0.00684 533.5 8.9
568(12) 0.00659 533.6 8.5
523(12) 0.00671 533.6 8.1
512(12) 0.00657 533.7 7.8
573(13) 0.00606 533.8 7.5
577(13) 0.00638 533.8 7.2
575(12) 0.00650 533.9 7.0
554(13) 0.00618 533.9 6.8
536(13) 0.00609 534.0 6.6
558(13) 0.00623 534.1 6.4
534(12) 0.00698 534.1 6.2
569(12) 0.00646 534.2 6.0
559(13) 0.00624 534.3 5.9
546(13) 0.00578 534.3 5.8
552(13) 0.00630 534.4 5.6
554(12) 0.00671 534.4 5.5
560(12) 0.00656 534.5 5.4
547(12) 0.00642 534.6 5.3
480(12) 0.00704 534.6 5.2
522(12) 0.00674 534.7 5.2
507(12) 0.00743 534.8 5.1
507(12) 0.00726 534.8 5.0
509(12) 0.00708 534.9 5.0
537(13) 0.00604 534.9 4.9
555(13) 0.00633 535.0 4.8
541(12) 0.00695 535.1 4.8
539(12) 0.00683 535.1 4.7
538(12) 0.00644 535.2 4.7
556(13) 0.00588 535.3 4.6
532(13) 0.00638 535.3 4.6
536(12) 0.00691 535.4 4.6
549(12) 0.00657 535.4 4.5
541(13) 0.00639 535.5 4.5
519(12) 0.00640 535.6 4.5
531(12) 0.00662 535.6 4.4
531(12) 0.00701 535.7 4.4
538(12) 0.00659 535.8 4.4
518(12) 0.00676 535.8 4.4
538(13) 0.00630 535.9 4.4
569(13) 0.00614 535.9 4.3
511(12) 0.00729 536.0 4.3
537(12) 0.00664 536.1 4.3
565(13) 0.00586 536.1 4.3
535(13) 0.00640 536.2 4.3
532(12) 0.00691 536.3 4.3
511(12) 0.00729 536.3 4.3
546(13) 0.00638 536.4 4.2
537(13) 0.00626 536.4 4.2
519(12) 0.00658 536.5 4.2
530(12) 0.00667 536.6 4.2
557(12) 0.00669 536.6 4.2
557(13) 0.00610 536.7 4.2
547(13) 0.00602 536.8 4.2
537(13) 0.00640 536.8 4.2
530(12) 0.00707 536.9 4.2
552(12) 0.00674 536.9 4.2
534(12) 0.00675 537.0 4.2
578(13) 0.00562 537.1 4.2
529(12) 0.00672 537.1 4.2
581(13) 0.00632 537.2 4.2
504(12) 0.00737 537.3 4.2
521(12) 0.00666 537.3 4.3
536(13) 0.00574 537.4 4.3
541(13) 0.00637 537.4 4.3
534(12) 0.00690 537.5 4.3
529(12) 0.00704 537.6 4.3
539(13) 0.00633 537.6 4.3
541(13) 0.00606 537.7 4.3
518(12) 0.00671 537.8 4.3
529(12) 0.00702 537.8 4.3
554(12) 0.00659 537.9 4.3
567(13) 0.00624 537.9 4.4
528(13) 0.00638 538.0 4.4
522(12) 0.00671 538.1 4.4
579(12) 0.00640 538.1 4.4
493(12) 0.00738 538.2 4.4
539(12) 0.00656 538.3 4.4
532(13) 0.00627 538.3 4.5
540(12) 0.00644 538.4 4.5
558(12) 0.00665 538.4 4.5
511(12) 0.00715 538.5 4.5
558(13) 0.00596 538.6 4.5
526(12) 0.00640 538.6 4.6
534(12) 0.00643 538.7 4.6
553(12) 0.00670 538.8 4.6
580(13) 0.00617 538.8 4.6
571(13) 0.00589 538.9 4.6
522(12) 0.00643 538.9 4.7
561(13) 0.00625 539.0 4.7
535(12) 0.00692 539.2 4.7
547(13) 0.00629 539.4 4.8
535(13) 0.00639 539.6 4.8
541(13) 0.00629 539.7 4.8
486(12) 0.00726 539.9 4.8
538(12) 0.00693 540.1 4.9
549(12) 0.00650 540.3 4.9
561(13) 0.00617 540.5 4.9
569(13) 0.00590 540.6 5.0
525(12) 0.00687 540.8 5.0
524(12) 0.00711 541.0 5.0
572(13) 0.00593 541.2 5.1
557(13) 0.00606 541.4 5.1
575(13) 0.00614 541.5 5.1
555(12) 0.00656 541.7 5.2
541(12) 0.00690 541.9 5.2
579(13) 0.00588 542.1 5.2
559(13) 0.00607 542.3 5.3
560(13) 0.00627 542.4 5.3
559(12) 0.00640 542.6 5.4
528(12) 0.00693 542.8 5.5
554(13) 0.00615 543.0 5.5
535(13) 0.00603 543.1 5.6
539(13) 0.00637 543.3 5.6
579(13) 0.00636 543.5 5.6
524(12) 0.00704 543.7 5.7
522(12) 0.00673 543.9 5.7
544(13) 0.00595 544.0 5.8
557(13) 0.00635 544.2 5.8
576(12) 0.00641 544.4 5.9
552(12) 0.00665 544.6 5.9
532(12) 0.00668 544.8 6.0
567(13) 0.00578 544.9 6.1
582(13) 0.00596 545.1 6.1
545(12) 0.00682 545.3 6.2
568(12) 0.00646 545.5 6.2
566(13) 0.00610 545.7 6.3
532(13) 0.00636 545.8 6.4
556(13) 0.00622 546.0 6.4
551(12) 0.00676 546.2 6.5
537(12) 0.00677 546.4 6.5
524(12) 0.00670 546.6 6.6
562(13) 0.00605 546.7 6.7
538(13) 0.00639 546.9 6.8
525(12) 0.00706 547.1 6.8
531(12) 0.00681 547.3 6.9
550(13) 0.00635 547.5 7.0
563(13) 0.00597 547.6 7.1
567(13) 0.00609 547.8 7.1
561(12) 0.00661 548.0 7.2
570(13) 0.00595 548.2 7.3
558(13) 0.00615 548.4 7.4
560(13) 0.00621 548.5 7.5
535(12) 0.00661 548.7 7.6
545(12) 0.00690 548.9 7.7
539(12) 0.00652 549.1 7.8
546(13) 0.00612 549.3 7.9
533(12) 0.00652 549.4 8.0
537(12) 0.00671 549.6 8.1
542(12) 0.00685 549.8 8.2
538(12) 0.00655 550.0 8.3
551(13) 0.00613 550.2 8.4
545(12) 0.00652 550.3 8.5
564(12) 0.00648 550.5 8.6
559(12) 0.00675 550.7 8.7
541(12) 0.00651 550.9 8.9
545(13) 0.00617 551.0 9.0
569(13) 0.00603 551.2 9.1
576(13) 0.00637 551.4 9.2
574(12) 0.00651 551.6 9.4
537(12) 0.00667 551.8 9.5
578(13) 0.00550 551.9 9.7
525(12) 0.00683 552.1 9.8
563(12) 0.00656 552.3 10.0
573(12) 0.00650 552.5 10.1
548(13) 0.00637 552.7 10.3
565(13) 0.00572 552.8 10.5
543(12) 0.00653 553.0 10.6
563(12) 0.00652 553.2 10.8
547(12) 0.00670 553.4 11.0
562(13) 0.00630 553.6 11.2
579(13) 0.00562 553.7 11.4
553(13) 0.00637 553.9 11.6
591(13) 0.00633 554.1 11.8
558(12) 0.00665 554.3 12.0
558(13) 0.00618 554.5 12.2
516(12) 0.00651 554.6 12.5
548(13) 0.00638 554.8 12.7
567(12) 0.00658 555.0 12.9
548(12) 0.00669 555.2 13.2
537(12) 0.00645 555.4 13.4
547(13) 0.00603 555.5 13.7
566(13) 0.00619 555.7 14.0
571(12) 0.00649 555.9 14.3
551(12) 0.00661 556.1 14.6
582(13) 0.00587 556.3 14.9
566(13) 0.00593 556.4 15.2
584(13) 0.00598 556.6 15.6
576(12) 0.00652 556.8 15.9
584(13) 0.00602 557.0 16.3
565(13) 0.00608 557.2 16.6
562(13) 0.00616 557.3 17.0
536(12) 0.00675 557.5 17.4
530(12) 0.00704 557.7 17.9
587(13) 0.00597 557.9 18.3
580(13) 0.00583 558.0 18.7
568(13) 0.00596 558.2 19.2
557(13) 0.00639 558.4 19.7
560(12) 0.00667 558.6 20.2
569(13) 0.00594 558.8 20.8
572(13) 0.00577 558.9 21.3
553(12) 0.00641 559.1 21.9
597(13) 0.00614 559.3 22.5
536(12) 0.00694 559.5 23.2
581(13) 0.00603 559.7 23.9
562(13) 0.00602 559.8 24.6
593(13) 0.00570 560.0 25.3
568(13) 0.00635 560.2 26.1
578(12) 0.00645 560.4 26.9
558(13) 0.00637 560.6 27.8
542(13) 0.00631 560.7 28.7
562(13) 0.00616 560.9 29.6
580(13) 0.00638 561.1 30.6
572(12) 0.00643 561.3 31.7
555(12) 0.00640 561.5 32.8
607(14) 0.00522 561.6 34.0
572(13) 0.00610 561.8 35.3
613(13) 0.00600 562.0 36.6
609(13) 0.00602 562.2 38.0
594(13) 0.00596 562.4 39.5
577(13) 0.00559 562.5 41.1
592(13) 0.00573 562.7 42.8
561(12) 0.00668 562.9 44.6
617(13) 0.00595 563.1 46.5
607(13) 0.00583 563.3 48.6
559(13) 0.00596 563.4 50.8
587(13) 0.00583 563.6 53.1
600(13) 0.00623 563.8 55.7
599(13) 0.00598 564.0 58.4
599(13) 0.00593 564.2 61.3
625(14) 0.00548 564.3 64.5
606(13) 0.00570 564.5 67.9
577(12) 0.00645 564.7 71.7
594(13) 0.00605 564.9 75.7
617(13) 0.00554 565.1 80.1
608(13) 0.00551 565.2 84.9
624(13) 0.00550 565.4 90.1
607(13) 0.00615 565.6 95.9
638(14) 0.00540 565.8 102.2
599(13) 0.00574 565.9 109.1
643(14) 0.00524 566.1 116.8
651(14) 0.00542 566.3 125.4
689(14) 0.00540 566.5 134.9
714(14) 0.00484 566.7 145.6
701(14) 0.00485 566.8 157.7
713(15) 0.00473 567.0 171.4
742(14) 0.00484 567.2 187.1
771(14) 0.00479 567.4 205.4
762(15) 0.00455 567.6 227.1
827(16) 0.00409 567.7 253.3
843(16) 0.00412 567.9 285.5
894(16) 0.00402 568.1 325.9
950(16) 0.00390 568.3 377.4
1028(17) 0.003272 568.5 443.7
1126(18) 0.002964 568.6 529.4
1214(19) 0.002866 568.8 639.9
1403(20) 0.002605 569.0 780.7
1587(21) 0.002343 569.2 957.5
1797(23) 0.001920 569.4 1174.9
2005(25) 0.001651 569.5 1435.7
2296(26) 0.001499 569.7 1739.8
2553(26) 0.001444 569.9 2082.8
2838(28) 0.001305 570.1 2453.9
3249(31) 0.001075 570.3 2834.0
3537(33) 0.000920 570.4 3193.0
3990(34) 0.000864 570.6 3489.8
4418(35) 0.000828 570.8 3678.4
4592(35) 0.000799 571. 3723.
4478(36) 0.000774 571. 3614.
3992(35) 0.000806 571. 3373.
3563(32) 0.000984 571.5 3044.1
3102(29) 0.001191 571.7 2671.5
2725(27) 0.001337 571.9 2292.4
2368(26) 0.001463 572.1 1931.5
2093(25) 0.001572 572.2 1604.4
1852(23) 0.001863 572.4 1318.6
1660(21) 0.002248 572.6 1076.5
1490(20) 0.002432 572.8 877.1
1366(20) 0.002527 572.9 716.3
1295(20) 0.002534 573.1 589.3
1124(18) 0.003097 573.3 490.1
1084(17) 0.003442 573.5 413.3
1027(17) 0.003496 573.7 353.9
975(17) 0.00352 573.8 307.6
899(16) 0.00379 574.0 271.1
848(16) 0.00410 574.2 241.7
833(15) 0.00446 574.4 217.6
824(15) 0.00438 574.6 197.5
788(15) 0.00435 574.7 180.4
786(15) 0.00427 574.9 165.6
708(14) 0.00494 575.1 152.7
713(14) 0.00522 575.3 141.2
711(14) 0.00495 575.5 131.1
701(14) 0.00483 575.6 122.0
703(14) 0.00477 575.8 113.8
711(14) 0.00488 576.0 106.5
685(14) 0.00542 576.2 99.8
672(14) 0.00525 576.4 93.8
663(14) 0.00516 576.5 88.3
636(13) 0.00552 576.7 83.2
640(13) 0.00564 576.9 78.6
658(13) 0.00564 577.1 74.4
642(14) 0.00543 577.3 70.5
637(14) 0.00527 577.4 67.0
592(13) 0.00584 577.6 63.7
613(13) 0.00590 577.8 60.6
654(13) 0.00573 578.0 57.8
620(13) 0.00565 578.2 55.2
619(14) 0.00531 578.3 52.7
620(13) 0.00558 578.5 50.4
615(13) 0.00594 578.7 48.3
619(13) 0.00596 578.9 46.3
634(14) 0.00542 579.1 44.5
615(14) 0.00525 579.2 42.7
594(13) 0.00585 579.4 41.1
601(13) 0.00606 579.6 39.6
598(13) 0.00620 579.8 38.1
599(13) 0.00570 580.0 36.8
610(14) 0.00514 580.1 35.5
588(13) 0.00590 580.3 34.3
620(13) 0.00600 580.5 33.1
621(13) 0.00588 580.7 32.1
574(13) 0.00602 580.8 31.0
594(13) 0.00556 581.0 30.1
607(13) 0.00574 581.2 29.2
575(12) 0.00650 581.4 28.3
601(13) 0.00615 581.6 27.5
594(13) 0.00599 581.7 26.7
584(13) 0.00566 581.9 25.9
556(13) 0.00622 582.1 25.2
595(13) 0.00628 582.3 24.5
597(13) 0.00596 582.5 23.9
559(13) 0.00622 582.6 23.3
574(13) 0.00566 582.8 22.7
551(13) 0.00626 583.0 22.1
597(13) 0.00622 583.2 21.6
605(13) 0.00600 583.4 21.1
617(13) 0.00576 583.5 20.6
599(13) 0.00564 583.7 20.1
601(13) 0.00583 583.9 19.7
588(13) 0.00630 584.1 19.2
594(13) 0.00598 584.3 18.8
579(13) 0.00584 584.4 18.4
586(13) 0.00589 584.6 18.1
561(13) 0.00636 584.8 17.7
583(13) 0.00631 585.0 17.3
578(13) 0.00601 585.2 17.0
604(13) 0.00549 585.3 16.7
575(13) 0.00596 585.5 16.4
563(13) 0.00636 585.7 16.1
599(13) 0.00624 585.9 15.8
637(13) 0.00552 586.1 15.5
575(13) 0.00597 586.2 15.2
579(13) 0.00601 586.4 15.0
574(13) 0.00638 586.6 14.7
602(13) 0.00618 586.8 14.5
580(13) 0.00620 587.0 14.3
592(13) 0.00555 587.1 14.1
564(13) 0.00629 587.3 13.8
593(13) 0.00616 587.5 13.6
588(13) 0.00635 587.7 13.4
619(13) 0.00564 587.8 13.3
590(13) 0.00551 588.0 13.1
574(13) 0.00609 588.2 12.9
603(13) 0.00615 588.4 12.7
585(13) 0.00632 588.6 12.6
607(13) 0.00563 588.7 12.4
580(13) 0.00556 588.9 12.2
577(13) 0.00606 589.1 12.1
608(13) 0.00606 589.3 11.9
594(13) 0.00616 589.5 11.8
565(13) 0.00629 589.6 11.7
618(14) 0.00521 589.8 11.5
593(13) 0.00583 590.0 11.4
616(13) 0.00606 590.2 11.3
590(13) 0.00618 590.4 11.2
592(13) 0.00580 590.5 11.1
607(13) 0.00561 590.7 11.0
597(13) 0.00596 590.9 10.9
590(13) 0.00634 591.1 10.8
600(13) 0.00595 591.3 10.7
625(14) 0.00546 591.4 10.6
657(14) 0.00498 591.6 10.5
602(13) 0.00575 591.8 10.4
583(13) 0.00640 592.0 10.3
577(13) 0.00619 592.2 10.2
587(13) 0.00587 592.3 10.1
590(13) 0.00574 592.5 10.1
612(13) 0.00578 592.7 10.0
566(12) 0.00658 592.9 9.9
617(13) 0.00566 593.1 9.9
601(13) 0.00578 593.2 9.8
582(13) 0.00606 593.4 9.7
596(13) 0.00602 593.6 9.7
615(13) 0.00611 593.8 9.6
579(13) 0.00603 594.0 9.5
622(14) 0.00544 594.1 9.5
582(13) 0.00597 594.3 9.4
603(13) 0.00591 594.5 9.4
609(13) 0.00611 594.7 9.3
598(13) 0.00574 594.9 9.3
576(13) 0.00587 595.0 9.3
587(13) 0.00588 595.2 9.2
611(13) 0.00590 595.4 9.2
585(12) 0.00642 595.6 9.1
578(13) 0.00596 595.7 9.1
592(13) 0.00559 595.9 9.1
574(13) 0.00618 596.1 9.0
598(13) 0.00624 596.3 9.0
597(13) 0.00624 596.5 9.0
612(13) 0.00567 596.6 9.0
592(14) 0.00547 596.8 8.9
600(13) 0.00583 597.0 8.9
639(13) 0.00575 597.2 8.9
599(13) 0.00616 597.4 8.9
621(13) 0.00558 597.5 8.8
557(13) 0.00602 597.7 8.8
578(13) 0.00601 597.9 8.8
632(13) 0.00590 598.1 8.8
622(13) 0.00591 598.3 8.8
559(12) 0.00644 598.4 8.8
609(14) 0.00530 598.6 8.8
589(13) 0.00593 598.8 8.8
616(13) 0.00609 599.0 8.7
594(13) 0.00613 599.2 8.7
587(13) 0.00595 599.3 8.7
625(14) 0.00519 599.5 8.7
579(13) 0.00600 599.7 8.8
588(13) 0.00627 599.9 8.8
624(13) 0.00584 600.1 8.8
621(13) 0.00561 600.2 8.8
632(14) 0.00510 600.4 8.8
590(13) 0.00579 600.6 8.8
595(13) 0.00619 600.8 8.8
623(13) 0.00574 601.0 8.8
640(14) 0.00539 601.1 8.8
616(13) 0.00554 601.3 8.8
631(14) 0.00548 601.5 8.8
630(13) 0.00586 601.7 8.9
607(13) 0.00585 601.9 8.9
610(13) 0.00554 602.0 8.9
624(14) 0.00530 602.2 8.9
615(13) 0.00570 602.4 8.9
597(13) 0.00621 602.9 8.9
589(13) 0.00607 603.3 9.0
621(14) 0.00542 603.7 9.0
579(13) 0.00610 604.2 9.0
605(13) 0.00602 604.6 9.0
581(12) 0.00644 605.1 9.1
600(13) 0.00584 605.5 9.1
595(13) 0.00574 605.9 9.1
594(13) 0.00569 606.4 9.1
583(13) 0.00618 606.8 9.2
606(13) 0.00614 607.2 9.2
575(13) 0.00600 607.7 9.2
613(14) 0.00533 608.1 9.3
627(14) 0.00542 608.6 9.3
620(13) 0.00582 609.0 9.3
622(13) 0.00601 609.4 9.4
658(14) 0.00518 609.9 9.4
638(14) 0.00520 610.3 9.5
652(14) 0.00530 610.7 9.5
650(13) 0.00575 611.2 9.5
597(13) 0.00621 611.6 9.6
613(13) 0.00554 612.1 9.6
610(14) 0.00542 612.5 9.7
615(13) 0.00574 612.9 9.7
639(13) 0.00580 613.4 9.8
645(13) 0.00569 613.8 9.8
631(14) 0.00544 614.2 9.9
614(14) 0.00509 614.7 9.9
602(13) 0.00585 615.1 10.0
615(13) 0.00606 615.6 10.1
637(13) 0.00583 616.0 10.1
588(13) 0.00594 616.4 10.2
624(14) 0.00529 616.9 10.2
671(14) 0.00519 617.3 10.3
615(13) 0.00602 617.7 10.4
616(13) 0.00598 618.2 10.5
597(13) 0.00593 618.6 10.5
605(13) 0.00556 619.1 10.6
604(13) 0.00594 619.5 10.7
621(13) 0.00595 619.9 10.7
630(13) 0.00566 620.4 10.8
617(13) 0.00560 620.8 10.9
626(14) 0.00533 621.2 11.0
595(13) 0.00576 621.7 11.1
627(13) 0.00598 622.1 11.2
615(13) 0.00575 622.6 11.2
619(14) 0.00540 623.0 11.3
599(13) 0.00562 623.4 11.4
568(13) 0.00620 623.9 11.5
612(13) 0.00608 624.3 11.6
636(13) 0.00549 624.7 11.7
650(14) 0.00515 625.2 11.8
697(14) 0.00487 625.6 11.9
628(13) 0.00575 626.0 12.0
591(13) 0.00627 626.5 12.1
669(14) 0.00520 626.9 12.2
631(14) 0.00538 627.4 12.3
649(14) 0.00515 627.8 12.5
641(13) 0.00568 628.2 12.6
662(13) 0.00560 628.7 12.7
622(13) 0.00552 629.1 12.8
641(14) 0.00512 629.5 13.0
655(14) 0.00508 630.0 13.1
634(13) 0.00581 630.4 13.2
616(13) 0.00599 630.9 13.4
614(13) 0.00571 631.3 13.5
658(14) 0.00496 631.7 13.6
640(14) 0.00543 632.2 13.8
625(13) 0.00578 632.6 13.9
644(13) 0.00582 633.0 14.1
631(13) 0.00553 633.5 14.2
655(14) 0.00502 633.9 14.4
654(14) 0.00528 634.4 14.6
648(13) 0.00570 634.8 14.7
619(13) 0.00599 635.2 14.9
636(14) 0.00542 635.7 15.1
657(14) 0.00492 636.1 15.3
639(14) 0.00547 636.5 15.4
622(13) 0.00596 637.0 15.6
644(13) 0.00578 637.4 15.8
642(14) 0.00536 637.9 16.0
653(14) 0.00485 638.3 16.2
644(14) 0.00536 638.7 16.4
640(13) 0.00580 639.2 16.6
656(13) 0.00561 639.6 16.9
629(14) 0.00548 640.0 17.1
664(14) 0.00486 640.5 17.3
642(14) 0.00532 640.9 17.6
649(13) 0.00573 641.4 17.8
645(13) 0.00573 641.8 18.0
641(14) 0.00544 642.2 18.3
610(13) 0.00549 642.7 18.6
661(14) 0.00513 643.1 18.8
658(13) 0.00566 643.5 19.1
663(14) 0.00535 644.0 19.4
670(14) 0.00515 644.4 19.7
654(14) 0.00527 644.9 20.0
659(14) 0.00533 645.3 20.3
637(13) 0.00583 645.7 20.6
645(13) 0.00552 646.2 20.9
619(13) 0.00552 646.6 21.2
670(14) 0.00510 647.0 21.6
677(14) 0.00527 647.5 21.9
661(13) 0.00562 647.9 22.3
668(14) 0.00519 648.4 22.6
633(13) 0.00556 648.8 23.0
651(14) 0.00537 649.2 23.4
667(14) 0.00537 649.7 23.8
660(13) 0.00566 650.1 24.2
653(14) 0.00526 650.5 24.7
630(14) 0.00533 651.0 25.1
624(13) 0.00550 651.4 25.5
655(13) 0.00552 651.9 26.0
665(13) 0.00557 652.3 26.5
651(14) 0.00524 652.7 27.0
641(14) 0.00516 653.2 27.5
693(14) 0.00497 653.6 28.0
673(14) 0.00541 654.0 28.6
654(13) 0.00574 654.5 29.1
680(14) 0.00511 654.9 29.7
640(14) 0.00510 655.4 30.3
641(14) 0.00545 655.8 30.9
658(13) 0.00564 656.2 31.6
681(14) 0.00545 656.7 32.2
674(14) 0.00517 657.1 32.9
678(15) 0.00474 657.5 33.6
691(14) 0.00504 658.0 34.3
696(14) 0.00536 658.4 35.1
650(13) 0.00573 658.8 35.9
656(14) 0.00549 659.3 36.7
708(15) 0.00459 659.7 37.5
678(14) 0.00509 660.2 38.4
643(13) 0.00580 660.6 39.3
653(13) 0.00566 661.0 40.2
707(14) 0.00487 661.5 41.2
681(14) 0.00491 661.9 42.2
689(14) 0.00511 662.3 43.3
675(13) 0.00553 662.8 44.4
684(14) 0.00526 663.2 45.5
675(14) 0.00513 663.7 46.7
671(14) 0.00498 664.1 47.9
669(14) 0.00517 664.5 49.2
745(14) 0.00500 665.0 50.6
707(14) 0.00515 665.4 52.0
683(14) 0.00504 665.8 53.4
707(14) 0.00485 666.3 55.0
704(14) 0.00506 666.7 56.5
705(14) 0.00529 667.2 58.2
726(14) 0.00499 667.6 60.0
762(15) 0.00449 668.0 61.8
693(14) 0.00496 668.5 63.7
734(15) 0.00475 668.9 65.7
767(14) 0.00482 669.3 67.8
701(14) 0.00505 669.8 70.0
694(14) 0.00497 670.2 72.3
705(14) 0.00505 670.7 74.8
689(14) 0.00518 671.1 77.3
713(14) 0.00521 671.5 80.0
745(15) 0.00456 672.0 82.9
729(15) 0.00451 672.4 85.9
699(14) 0.00492 672.8 89.1
759(15) 0.00466 673.3 92.5
743(14) 0.00500 673.7 96.0
739(15) 0.00459 674.2 99.8
741(15) 0.00446 674.6 103.8
751(15) 0.00441 675.0 108.1
726(14) 0.00502 675.5 112.6
776(14) 0.00478 675.9 117.4
739(15) 0.00462 676.3 122.6
715(15) 0.00446 676.8 128.0
751(15) 0.00469 677.2 133.9
749(14) 0.00495 677.7 140.2
787(15) 0.00471 678.1 146.9
801(15) 0.00435 678.5 154.1
761(15) 0.00428 679.0 161.9
783(15) 0.00440 679.4 170.3
784(15) 0.00474 679.8 179.3
819(15) 0.00449 680.3 189.1
850(16) 0.00404 680.7 199.7
840(16) 0.00388 681.2 211.2
830(15) 0.00427 681.6 223.7
885(15) 0.00419 682.0 237.4
853(15) 0.00429 682.5 252.4
839(16) 0.00416 682.9 268.8
922(17) 0.003426 683.3 286.9
863(16) 0.00394 683.8 306.8
916(16) 0.00410 684.2 329.1
969(16) 0.00371 684.7 353.9
947(17) 0.00367 685.1 381.8
976(17) 0.003441 685.5 413.6
1043(17) 0.003350 686.0 449.9
1096(17) 0.003384 686.4 491.9
1199(18) 0.002995 686.8 541.1
1223(19) 0.002868 687.3 599.1
1287(19) 0.002641 687.7 668.3
1343(20) 0.002520 688.2 751.3
1435(20) 0.002596 688.6 851.4
1562(21) 0.002258 689.0 972.5
1742(23) 0.001959 689.5 1118.5
1912(24) 0.001785 689.9 1293.9
2124(25) 0.001652 690.3 1503.1
2449(26) 0.001514 690.8 1750.3
2748(28) 0.001290 691.2 2039.0
3082(30) 0.001119 691.7 2371.2
3450(32) 0.000990 692.1 2747.0
3957(34) 0.000890 692.5 3163.9
4443(35) 0.000831 693.0 3614.1
5093(38) 0.000684 693. 4084.
5586(41) 0.000606 694. 4552.
6173(43) 0.000552 694. 4984.
6523(43) 0.000548 695. 5339.
6655(43) 0.000553 695. 5574.
6561(44) 0.000519 696. 5654.
6187(44) 0.000526 696. 5567.
5728(41) 0.000606 696. 5326.
5234(38) 0.000695 697. 4967.
4827(36) 0.000764 697. 4533.
4380(36) 0.000775 698. 4065.
4095(35) 0.000798 698. 3596.
3710(33) 0.000941 698.6 3147.3
3293(30) 0.001119 699.1 2732.4
3038(29) 0.001211 699.5 2358.8
2836(29) 0.001217 700.0 2028.8
2606(28) 0.001238 700.4 1742.3
2420(26) 0.001450 700.8 1497.2
2233(25) 0.001664 701.3 1289.9
2029(23) 0.001822 701.7 1116.3
1877(23) 0.001856 702.1 971.9
1841(24) 0.001754 702.6 852.3
1717(22) 0.002060 703.0 753.4
1621(21) 0.002294 703.5 671.6
1575(21) 0.002319 703.9 603.5
1472(20) 0.002387 704.3 546.4
1371(20) 0.002414 704.8 498.3
1317(20) 0.002621 705.2 457.2
1280(19) 0.002896 705.6 421.8
1261(19) 0.002881 706.1 391.1
1203(19) 0.002871 706.5 364.2
1168(19) 0.002806 707.0 340.4
1116(18) 0.003136 707.4 319.4
1109(17) 0.003368 707.8 300.6
1078(17) 0.003337 708.3 284.0
1075(18) 0.003221 708.7 269.1
1021(17) 0.003308 709.1 255.9
1030(17) 0.003378 709.6 244.3
1011(17) 0.00365 710.0 234.1
1050(17) 0.003383 710.5 225.2
971(17) 0.003496 710.9 217.8
979(17) 0.003380 711.3 211.7
942(16) 0.00381 711.8 207.1
916(16) 0.00407 712.2 203.9
908(16) 0.00391 712.6 202.2
884(16) 0.00392 713.1 202.1
980(17) 0.003472 713.5 203.8
952(16) 0.00377 714.0 207.2
993(16) 0.00374 714.4 212.4
952(17) 0.00365 714.8 219.5
956(17) 0.00360 715.3 228.3
927(16) 0.00377 715.7 238.9
928(16) 0.00386 716.1 250.9
951(16) 0.00387 716.6 263.8
953(17) 0.00363 717.0 276.8
956(17) 0.00356 717.5 289.0
1014(17) 0.003388 717.9 299.1
978(16) 0.00371 718.3 305.5
983(16) 0.00380 718.8 307.1
958(17) 0.00365 719.2 303.2
957(17) 0.003475 719.6 293.9
968(17) 0.00358 720.1 280.0
975(16) 0.00379 720.5 263.0
912(16) 0.00407 721.0 244.1
923(17) 0.00363 721.4 224.7
929(17) 0.003500 721.8 205.5
856(16) 0.00412 722.3 187.3
858(15) 0.00426 722.7 170.4
839(15) 0.00443 723.1 155.0
830(15) 0.00417 723.6 141.2
806(16) 0.00399 724.0 128.8
797(15) 0.00426 724.5 118.0
818(15) 0.00451 724.9 108.5
764(14) 0.00485 725.3 100.3
776(15) 0.00447 725.8 93.1
780(15) 0.00421 726.2 86.9
792(15) 0.00438 726.6 81.5
721(14) 0.00513 727.1 76.7
763(14) 0.00476 727.5 72.6
807(15) 0.00422 727.9 68.9
784(15) 0.00418 728.4 65.7
751(15) 0.00466 728.8 62.8
751(14) 0.00500 729.3 60.1
754(14) 0.00479 729.7 57.7
773(15) 0.00446 730.1 55.6
762(15) 0.00444 730.6 53.5
772(15) 0.00452 731.0 51.7
740(14) 0.00503 731.4 49.9
789(15) 0.00448 731.9 48.3
790(16) 0.00414 732.3 46.7
728(15) 0.00472 732.8 45.3
759(15) 0.00466 733.2 44.0
740(14) 0.00500 733.6 42.7
751(15) 0.00472 734.1 41.5
756(15) 0.00453 734.5 40.3
740(15) 0.00472 734.9 39.2
772(15) 0.00448 735.4 38.2
749(14) 0.00498 735.8 37.2
783(15) 0.00447 736.3 36.3
758(15) 0.00452 736.7 35.4
747(15) 0.00465 737.1 34.5
762(15) 0.00468 737.6 33.7
780(15) 0.00475 738.0 32.9
793(15) 0.00429 738.4 32.2
745(15) 0.00447 738.9 31.5
710(14) 0.00485 739.3 30.8
740(14) 0.00479 739.8 30.1
781(14) 0.00476 740.2 29.5
784(15) 0.00441 740.6 28.9
756(15) 0.00445 741.1 28.3
750(15) 0.00462 741.5 27.7
775(15) 0.00475 741.9 27.2
723(14) 0.00517 742.4 26.7
772(15) 0.00455 742.8 26.2
773(15) 0.00427 743.3 25.7
738(14) 0.00480 743.7 25.2
784(15) 0.00466 744.1 24.7
779(14) 0.00476 744.6 24.3
788(15) 0.00432 745.0 23.9
775(15) 0.00418 745.4 23.5
768(15) 0.00461 745.9 23.1
763(14) 0.00492 746.3 22.7
780(15) 0.00464 746.8 22.3
759(15) 0.00464 747.2 22.0
708(15) 0.00468 747.6 21.6
729(14) 0.00480 748.1 21.3
733(14) 0.00508 748.5 21.0
792(15) 0.00463 748.9 20.6
764(15) 0.00449 749.4 20.3
782(15) 0.00424 749.8 20.1
789(15) 0.00445 750.3 19.8
744(14) 0.00503 750.7 19.5
740(14) 0.00502 751.1 19.2
751(15) 0.00461 751.6 19.0
739(15) 0.00449 752.0 18.7
775(15) 0.00447 752.4 18.5
771(14) 0.00484 752.9 18.2
748(14) 0.00478 753.3 18.0
763(15) 0.00459 753.8 17.8
740(15) 0.00456 754.2 17.6
750(15) 0.00458 754.6 17.4
769(14) 0.00481 755.1 17.2
783(15) 0.00459 755.5 17.0
795(15) 0.00435 755.9 16.8
770(15) 0.00434 756.4 16.6
801(15) 0.00436 756.8 16.4
791(15) 0.00472 757.3 16.2
773(15) 0.00451 757.7 16.1
772(15) 0.00445 758.1 15.9
781(15) 0.00449 758.6 15.8
777(15) 0.00472 759.0 15.6
798(15) 0.00467 759.4 15.5
778(15) 0.00444 759.9 15.3
753(15) 0.00449 760.3 15.2
813(16) 0.00410 760.9 15.1
748(14) 0.00491 761.5 15.0
764(14) 0.00488 762.1 14.9
796(15) 0.00432 762.7 14.7
799(16) 0.00408 763.3 14.6
769(15) 0.00461 763.9 14.5
766(14) 0.00481 764.5 14.5
746(14) 0.00499 765.1 14.4
790(15) 0.00437 765.7 14.3
721(14) 0.00477 766.3 14.2
785(15) 0.00454 766.9 14.1
786(15) 0.00471 767.5 14.1
767(14) 0.00483 768.1 14.0
776(15) 0.00450 768.7 13.9
778(16) 0.00409 769.2 13.9
781(15) 0.00429 769.8 13.9
796(15) 0.00467 770.4 13.8
749(14) 0.00496 771.0 13.8
729(14) 0.00478 771.6 13.8
759(15) 0.00425 772.2 13.7
779(15) 0.00444 772.8 13.7
782(15) 0.00473 773.4 13.7
764(14) 0.00484 774.0 13.7
765(15) 0.00467 774.6 13.7
770(15) 0.00422 775.2 13.8
789(15) 0.00450 775.8 13.8
803(15) 0.00461 776.4 13.8
742(14) 0.00497 777.0 13.9
778(15) 0.00446 777.6 13.9
800(16) 0.00407 778.2 14.0
772(15) 0.00445 778.7 14.0
762(14) 0.00488 779.3 14.1
820(15) 0.00443 779.9 14.2
786(15) 0.00439 780.5 14.3
798(15) 0.00420 781.1 14.5
795(15) 0.00437 781.7 14.6
743(14) 0.00500 782.3 14.7
824(15) 0.00431 782.9 14.9
819(16) 0.00409 783.5 15.1
792(15) 0.00430 784.1 15.3
790(15) 0.00447 784.7 15.5
815(15) 0.00456 785.3 15.8
804(15) 0.00434 785.9 16.1
784(15) 0.00437 786.5 16.4
754(15) 0.00465 787.1 16.7
776(15) 0.00466 787.7 17.0
751(14) 0.00496 788.2 17.4
762(15) 0.00456 788.8 17.9
795(16) 0.00415 789.4 18.4
798(15) 0.00422 790.0 18.9
830(15) 0.00428 790.6 19.5
815(15) 0.00456 791.2 20.1
814(15) 0.00422 791.8 20.8
821(16) 0.00404 792.4 21.6
808(15) 0.00429 793.0 22.5
852(15) 0.00421 793.6 23.5
845(15) 0.00444 794.2 24.5
792(15) 0.00439 794.8 25.7
834(16) 0.00399 795.4 27.1
831(15) 0.00423 796.0 28.6
792(15) 0.00465 796.6 30.3
812(15) 0.00457 797.2 32.3
821(16) 0.00416 797.7 34.5
821(16) 0.00402 798.3 37.1
840(16) 0.00412 798.9 40.1
819(15) 0.00447 799.5 43.7
847(15) 0.00432 800.1 48.0
868(16) 0.00406 800.7 53.3
928(17) 0.003414 801.3 60.1
940(17) 0.00364 801.9 69.0
899(16) 0.00413 802.5 80.8
953(16) 0.00392 803.1 96.8
953(16) 0.00370 803.7 118.3
1021(18) 0.003183 804.3 147.0
1057(17) 0.003297 804.9 184.5
1072(17) 0.003454 805.5 232.3
1128(17) 0.003279 806.1 291.3
1230(19) 0.002746 806.7 361.3
1284(20) 0.002565 807.3 440.7
1316(20) 0.002615 807.8 525.9
1382(19) 0.002687 808.4 610.5
1468(20) 0.002478 809.0 684.6
1580(21) 0.002208 809.6 735.8
1640(22) 0.002038 810.2 752.9
1683(22) 0.002054 810.8 731.7
1563(20) 0.002380 811.4 677.4
1422(20) 0.002480 812.0 601.5
1292(19) 0.002659 812.6 516.4
1185(19) 0.002871 813.2 431.5
1104(18) 0.003147 813.8 352.9
1035(17) 0.00358 814.4 284.0
1020(17) 0.003447 815.0 226.2
974(17) 0.003475 815.6 179.4
930(17) 0.00365 816.2 142.9
932(16) 0.00379 816.8 115.0
882(15) 0.00422 817.3 94.0
911(16) 0.00383 817.9 78.5
902(16) 0.00376 818.5 67.0
906(16) 0.00382 819.1 58.3
859(15) 0.00418 819.7 51.6
859(15) 0.00432 820.3 46.3
862(16) 0.00389 820.9 42.1
849(16) 0.00397 821.5 38.5
864(16) 0.00414 822.1 35.5
867(15) 0.00417 822.7 32.9
836(15) 0.00442 823.3 30.6
860(16) 0.00387 823.9 28.6
842(16) 0.00389 824.5 26.9
846(16) 0.00406 825.1 25.3
849(15) 0.00429 825.7 23.9
827(15) 0.00451 826.3 22.6
828(15) 0.00418 826.8 21.5
831(16) 0.00379 827.4 20.5
840(15) 0.00420 828.0 19.5
812(15) 0.00453 828.6 18.7
810(15) 0.00460 829.2 17.9
848(16) 0.00411 829.8 17.2
814(16) 0.00403 830.4 16.5
852(16) 0.00416 831.0 15.9
855(15) 0.00432 831.6 15.4
856(15) 0.00427 832.2 14.9
868(16) 0.00400 832.8 14.4
847(16) 0.00378 833.4 14.0
839(15) 0.00418 834.0 13.6
848(15) 0.00437 834.6 13.2
830(15) 0.00446 835.2 12.8
828(15) 0.00422 835.8 12.5
856(16) 0.00392 836.3 12.2
852(16) 0.00414 836.9 11.9
885(15) 0.00421 837.5 11.7
834(15) 0.00443 838.1 11.4
857(16) 0.00401 838.7 11.2
850(16) 0.00384 839.3 11.0
853(16) 0.00390 839.9 10.8
853(15) 0.00433 840.5 10.6
840(15) 0.00421 841.1 10.4
838(16) 0.00413 841.7 10.2
874(16) 0.00382 842.3 10.1
882(16) 0.00397 842.9 9.9
848(15) 0.00439 843.5 9.8
898(16) 0.00387 844.1 9.6
866(16) 0.00394 844.7 9.5
876(16) 0.00391 845.3 9.4
863(16) 0.00404 845.8 9.3
869(15) 0.00426 846.4 9.2
833(15) 0.00420 847.0 9.1
850(16) 0.00400 847.6 9.0
859(16) 0.00398 848.2 8.9
833(15) 0.00440 848.8 8.8
809(15) 0.00458 849.4 8.7
839(16) 0.00412 850.0 8.6
890(16) 0.00376 850.6 8.6
860(16) 0.00403 851.2 8.5
885(16) 0.00405 851.8 8.4
883(15) 0.00421 852.4 8.4
848(16) 0.00405 853.0 8.3
841(16) 0.00398 853.6 8.3
872(16) 0.00396 854.2 8.2
910(16) 0.00396 854.8 8.2
931(16) 0.00398 855.4 8.2
871(16) 0.00396 855.9 8.1
838(16) 0.00383 856.5 8.1
844(16) 0.00407 857.1 8.1
862(15) 0.00435 857.7 8.0
836(15) 0.00445 858.3 8.0
852(16) 0.00412 858.9 8.0
885(17) 0.00356 859.5 8.0
848(16) 0.00414 860.1 7.9
880(15) 0.00420 860.7 7.9
892(16) 0.00416 861.3 7.9
899(16) 0.00382 861.9 7.9
899(17) 0.00352 862.5 7.9
880(16) 0.00397 863.1 7.9
866(15) 0.00428 863.7 7.9
827(15) 0.00431 864.3 7.9
851(16) 0.00412 864.9 7.9
879(16) 0.00373 865.4 7.9
850(16) 0.00402 866.0 7.9
870(15) 0.00426 866.6 7.9
881(16) 0.00414 867.2 7.9
873(16) 0.00394 867.8 8.0
854(16) 0.00382 868.4 8.0
864(16) 0.00393 869.0 8.0
900(16) 0.00409 869.6 8.0
897(16) 0.00399 870.2 8.0
891(16) 0.00381 870.8 8.1
900(16) 0.00372 871.4 8.1
890(16) 0.00393 872.0 8.1
895(16) 0.00411 872.6 8.2
881(16) 0.00403 873.1 8.2
883(16) 0.00392 873.6 8.2
881(16) 0.00392 874.1 8.3
864(16) 0.00409 874.6 8.3
875(15) 0.00423 875.1 8.4
911(16) 0.00386 875.6 8.4
894(16) 0.00381 876.0 8.5
876(16) 0.00390 876.5 8.5
873(16) 0.00405 877.0 8.6
820(15) 0.00454 877.5 8.7
876(16) 0.00391 878.0 8.7
894(16) 0.00376 878.5 8.8
914(16) 0.00378 879.0 8.9
888(16) 0.00405 879.5 9.0
882(15) 0.00424 880.0 9.0
903(16) 0.00380 880.5 9.1
923(17) 0.00361 881.0 9.2
908(16) 0.00380 881.5 9.3
876(16) 0.00415 882.0 9.4
911(16) 0.00410 882.5 9.5
867(16) 0.00401 883.0 9.6
901(16) 0.00369 883.5 9.7
861(16) 0.00410 883.9 9.8
932(16) 0.00394 884.4 9.9
874(15) 0.00427 884.9 10.0
872(16) 0.00406 885.4 10.2
888(17) 0.00365 885.9 10.3
900(16) 0.00387 886.4 10.4
891(15) 0.00418 886.9 10.6
871(15) 0.00422 887.4 10.7
898(16) 0.00389 887.9 10.9
894(17) 0.00362 888.4 11.0
887(16) 0.00392 888.9 11.2
943(16) 0.00390 889.4 11.4
937(16) 0.00394 889.9 11.6
896(16) 0.00398 890.4 11.7
891(16) 0.00382 890.9 11.9
915(16) 0.00385 891.4 12.1
929(16) 0.00400 891.8 12.4
918(16) 0.00400 892.3 12.6
913(16) 0.00382 892.8 12.8
880(16) 0.00377 893.3 13.1
912(16) 0.00375 893.8 13.3
910(16) 0.00408 894.3 13.6
908(16) 0.00402 894.8 13.8
902(16) 0.00392 895.3 14.1
941(17) 0.003478 895.8 14.4
905(16) 0.00377 896.3 14.7
900(16) 0.00411 896.8 15.1
900(16) 0.00393 897.3 15.4
917(16) 0.00378 897.8 15.8
903(16) 0.00389 898.3 16.1
898(16) 0.00396 898.8 16.5
936(16) 0.00397 899.3 16.9
917(16) 0.00380 899.7 17.4
924(16) 0.00369 900.2 17.8
964(17) 0.00354 900.7 18.3
918(16) 0.00390 901.2 18.8
932(16) 0.00398 901.7 19.3
893(16) 0.00396 902.2 19.8
929(17) 0.00358 902.7 20.4
898(16) 0.00386 903.2 21.0
979(16) 0.00368 903.7 21.7
927(16) 0.00403 904.2 22.3
882(16) 0.00402 904.7 23.0
899(16) 0.00372 905.2 23.8
926(16) 0.00380 905.7 24.6
945(16) 0.00390 906.2 25.4
962(16) 0.00386 906.7 26.3
927(16) 0.00372 907.2 27.3
970(17) 0.003318 907.7 28.3
948(17) 0.00363 908.1 29.3
942(16) 0.00390 908.6 30.4
926(16) 0.00400 909.1 31.7
932(16) 0.00377 909.6 32.9
936(17) 0.00355 910.1 34.3
915(16) 0.00388 910.6 35.8
940(16) 0.00394 911.1 37.3
953(16) 0.00391 911.6 39.0
959(17) 0.00354 912.1 40.8
975(17) 0.003272 912.6 42.7
966(17) 0.00357 913.1 44.8
1020(17) 0.00361 913.6 47.1
947(16) 0.00395 914.1 49.5
955(17) 0.00362 914.6 52.1
966(17) 0.003466 915.1 55.0
1012(17) 0.003342 915.6 58.1
950(16) 0.00390 916.0 61.5
983(17) 0.00365 916.5 65.3
1017(17) 0.003349 917.0 69.4
1023(18) 0.003259 917.5 74.0
1007(17) 0.003448 918.0 79.1
1004(16) 0.00371 918.5 84.8
1008(17) 0.00366 919.0 91.2
1039(17) 0.003340 919.5 98.4
1073(18) 0.003124 920.0 106.6
1039(17) 0.003379 920.5 115.9
1072(17) 0.003454 921.0 126.5
1102(18) 0.003233 921.5 138.7
1101(18) 0.003125 922.0 152.6
1093(18) 0.003115 922.5 168.6
1111(18) 0.003224 923.0 186.9
1109(17) 0.003353 923.5 207.7
1120(18) 0.003186 923.9 231.4
1179(19) 0.002872 924.4 258.3
1232(19) 0.002820 924.9 288.5
1234(19) 0.002893 925.4 322.4
1278(19) 0.002907 925.9 359.9
1350(20) 0.002583 926.4 401.2
1370(20) 0.002463 926.9 446.0
1456(21) 0.002323 927.4 493.8
1486(20) 0.002415 927.9 543.8
1554(20) 0.002402 928.4 594.6
1569(21) 0.002168 928.9 644.3
1629(22) 0.002047 929.4 690.2
1758(23) 0.001955 929.9 729.3
1734(22) 0.002115 930.4 758.3
1743(22) 0.002114 930.9 774.5
1752(22) 0.001976 931.4 776.2
1733(23) 0.001917 931.9 763.3
1699(22) 0.002064 932.3 737.1
1627(21) 0.002259 932.8 700.1
1568(21) 0.002374 933.3 655.5
1535(21) 0.002240 933.8 606.4
1438(21) 0.002248 934.3 555.7
1492(21) 0.002337 934.8 505.3
1433(20) 0.002587 935.3 456.9
1352(19) 0.002747 935.8 411.3
1341(20) 0.002606 936.3 369.2
1317(20) 0.002421 936.8 330.7
1227(19) 0.002883 937.3 296.0
1233(18) 0.003004 937.8 264.9
1209(18) 0.003040 938.3 237.2
1230(19) 0.002860 938.8 212.8
1178(19) 0.002823 939.3 191.3
1127(18) 0.003121 939.8 172.4
1156(18) 0.003203 940.2 155.9
1104(17) 0.003328 940.7 141.5
1110(18) 0.003090 941.2 128.9
1077(18) 0.003084 941.7 117.9
1143(18) 0.003049 942.2 108.3
1122(17) 0.003313 942.7 99.9
1106(18) 0.003226 943.2 92.4
1110(18) 0.003058 943.7 85.8
1114(18) 0.002976 944.2 80.0
1091(18) 0.003166 944.7 74.7
1080(17) 0.003421 945.2 70.0
1016(17) 0.00356 945.7 65.8
1065(18) 0.003191 946.2 61.9
1045(18) 0.003239 946.7 58.4
1045(17) 0.003348 947.2 55.2
1042(17) 0.00359 947.7 52.3
1037(17) 0.003428 948.1 49.6
1042(17) 0.003285 948.6 47.1
1063(18) 0.003166 949.1 44.8
1008(17) 0.00352 949.6 42.6
1000(16) 0.00371 950.1 40.7
1013(17) 0.003456 950.6 38.8
1058(18) 0.003240 951.1 37.1
1058(18) 0.003246 951.6 35.5
1031(17) 0.003468 952.1 34.0
969(16) 0.00384 952.6 32.6
1013(17) 0.003433 953.1 31.3
993(17) 0.003374 953.6 30.0
997(17) 0.003434 954.1 28.9
985(17) 0.00364 954.6 27.8
1024(17) 0.00365 955.1 26.7
1038(17) 0.003315 955.6 25.8
992(17) 0.003327 956.0 24.8
1002(17) 0.003466 956.5 24.0
1021(17) 0.00360 957.0 23.1
1029(17) 0.00359 957.5 22.4
1005(17) 0.003373 958.0 21.6
1021(18) 0.003224 958.5 20.9
988(17) 0.00354 959.0 20.3
988(16) 0.00371 959.5 19.6
1055(17) 0.00353 960.0 19.0
1066(17) 0.003281 960.5 18.5
1002(17) 0.003276 961.0 17.9
1012(17) 0.003484 961.5 17.4
1046(17) 0.00352 962.0 16.9
1010(17) 0.00364 962.5 16.4
987(17) 0.00356 963.0 16.0
1004(18) 0.003218 963.5 15.5
984(17) 0.00356 964.0 15.1
997(16) 0.00374 964.4 14.7
983(16) 0.00376 964.9 14.4
981(17) 0.00351 965.4 14.0
1001(17) 0.003302 965.9 13.6
1016(17) 0.003385 966.4 13.3
971(16) 0.00381 966.9 13.0
986(16) 0.00371 967.4 12.7
968(17) 0.00356 967.9 12.4
991(17) 0.003304 968.4 12.1
994(17) 0.003499 968.9 11.8
1025(17) 0.00362 969.4 11.6
998(16) 0.00369 969.9 11.3
988(17) 0.00351 970.4 11.1
1027(18) 0.003239 970.9 10.8
1010(17) 0.003424 971.4 10.6
978(16) 0.00380 971.9 10.4
1007(17) 0.00356 972.3 10.2
1039(18) 0.003255 972.8 10.0
998(17) 0.003394 973.3 9.8
1009(17) 0.003429 973.8 9.6
1029(17) 0.00364 974.3 9.4
959(16) 0.00375 974.8 9.3
981(17) 0.003424 975.3 9.1
1008(17) 0.003386 975.8 8.9
1011(17) 0.003472 976.3 8.8
981(16) 0.00379 976.8 8.6
1020(17) 0.003373 977.3 8.5
1010(17) 0.003399 977.8 8.3
1012(17) 0.003428 978.3 8.2
1006(17) 0.00360 978.8 8.0
1014(16) 0.00368 979.3 7.9
954(17) 0.00365 979.8 7.8
998(17) 0.003316 980.2 7.6
990(17) 0.003504 980.7 7.5
1046(17) 0.003469 981.2 7.4
981(16) 0.00382 981.7 7.3
1028(17) 0.003333 982.2 7.2
1016(18) 0.003220 982.7 7.1
988(17) 0.00352 983.2 7.0
1012(17) 0.00361 983.7 6.9
1005(16) 0.00370 984.2 6.8
1035(17) 0.003347 984.7 6.7
1042(18) 0.003096 985.2 6.6
1024(17) 0.003372 985.7 6.5
951(16) 0.00383 986.2 6.4
1050(17) 0.00354 986.7 6.3
1024(17) 0.003360 987.2 6.2
1015(18) 0.003122 987.7 6.1
1026(17) 0.003381 988.1 6.0
1023(17) 0.00363 988.6 6.0
1049(17) 0.00353 989.1 5.9
1002(17) 0.00351 989.6 5.8
1016(18) 0.003218 990.1 5.7
1022(17) 0.003362 990.6 5.7
1024(17) 0.00362 991.1 5.6
1008(17) 0.00363 991.6 5.5
1020(17) 0.003442 992.1 5.5
994(17) 0.003356 992.6 5.4
993(17) 0.003464 993.1 5.4
970(16) 0.00386 993.6 5.3
987(17) 0.00362 994.1 5.2
1014(17) 0.003354 994.6 5.2
1010(17) 0.003344 995.1 5.1
1005(17) 0.003484 995.6 5.1
1005(16) 0.00371 996.1 5.0
1037(17) 0.003420 996.5 5.0
1013(17) 0.003325 997.0 4.9
999(17) 0.003363 997.5 4.9
1018(17) 0.003389 998.0 4.8
1000(16) 0.00371 998.5 4.8
1044(17) 0.003316 999.0 4.7
1077(18) 0.003098 999.5 4.7
1052(18) 0.003236 1000.0 4.6
1032(17) 0.003458 1000.5 4.6
1028(17) 0.00361 1001.0 4.6
1041(17) 0.003276 1001.5 4.5
976(17) 0.003485 1002.0 4.5
991(17) 0.00355 1002.5 4.4
1049(17) 0.003409 1003.0 4.4
1016(17) 0.00364 1003.5 4.4
1014(17) 0.003367 1004.0 4.3
1004(18) 0.003258 1004.4 4.3
1012(17) 0.003385 1004.9 4.3
998(17) 0.00366 1005.4 4.2
1019(17) 0.00364 1005.9 4.2
1044(17) 0.003326 1006.4 4.2
1012(18) 0.003229 1006.9 4.2
1016(17) 0.003373 1007.4 4.1
1027(17) 0.00356 1007.9 4.1
1048(17) 0.00355 1008.4 4.1
1022(17) 0.003408 1008.9 4.1
1057(18) 0.003022 1009.4 4.0
1015(17) 0.003420 1009.9 4.0
1065(17) 0.003458 1010.4 4.0
1029(17) 0.00361 1010.9 4.0
1044(17) 0.003266 1011.4 4.0
1025(18) 0.003023 1011.9 4.0
1020(17) 0.003360 1012.3 3.9
1051(17) 0.00353 1012.8 3.9
1051(17) 0.00355 1013.3 3.9
1010(17) 0.003465 1013.8 3.9
1028(18) 0.003172 1014.3 3.9
1028(17) 0.003330 1014.8 3.9
986(16) 0.00378 1015.3 3.9
1058(17) 0.003441 1015.8 3.9
1005(17) 0.003428 1016.3 3.9
985(17) 0.003356 1016.8 3.9
1022(17) 0.003415 1017.3 3.9
1027(17) 0.00360 1017.8 3.9
1017(17) 0.00358 1018.3 3.9
981(17) 0.00352 1018.8 3.9
1008(17) 0.003310 1019.3 4.0
1028(17) 0.003320 1019.8 4.0
1048(17) 0.00356 1020.2 4.0
1058(17) 0.003347 1020.7 4.0
1020(17) 0.003364 1021.2 4.0
1053(18) 0.003192 1021.7 4.0
1012(17) 0.003448 1022.2 4.1
1043(17) 0.00356 1022.7 4.1
1034(17) 0.003468 1023.2 4.1
1046(17) 0.003276 1023.7 4.1
1012(17) 0.003386 1024.2 4.1
991(17) 0.00357 1024.7 4.1
1036(17) 0.00358 1025.2 4.1
1081(18) 0.003220 1025.6 4.1
1031(17) 0.003303 1025.6 4.1
1065(18) 0.003265 1025.6 4.1
1044(17) 0.003451 1025.6 4.1
1006(16) 0.00369 1025.7 4.1
1031(17) 0.003402 1025.7 4.0
1056(18) 0.003185 1025.7 4.0
1050(17) 0.003315 1025.7 4.0
1027(17) 0.00357 1025.7 3.9
1052(17) 0.00353 1025.7 3.9
1040(17) 0.003363 1025.8 3.9
1020(18) 0.003247 1025.8 3.8
1055(18) 0.003216 1025.8 3.8
983(16) 0.00369 1025.8 3.7
1037(17) 0.00357 1025.8 3.7
1027(17) 0.003335 1025.8 3.6
1044(18) 0.003074 1025.8 3.6
1009(17) 0.003450 1025.9 3.6
1055(17) 0.003473 1025.9 3.5
1066(17) 0.003451 1025.9 3.5
994(17) 0.00361 1025.9 3.5
1022(18) 0.003224 1025.9 3.4
1029(17) 0.003420 1025.9 3.4
1086(17) 0.003393 1026.0 3.4
1044(17) 0.003504 1026.0 3.4
1022(17) 0.003420 1026.0 3.3
1015(18) 0.003237 1026.0 3.3
1048(17) 0.003308 1026.0 3.3
1059(17) 0.00352 1026.0 3.3
1028(17) 0.00357 1026.0 3.3
1040(17) 0.003383 1026.1 3.3
1089(18) 0.003040 1026.1 3.2
1057(18) 0.003258 1026.1 3.2
1042(17) 0.00359 1026.1 3.2
1047(17) 0.003427 1026.1 3.2
1069(18) 0.003243 1026.1 3.2
1090(18) 0.003023 1026.1 3.2
1019(17) 0.003392 1026.2 3.2
1037(17) 0.00358 1026.2 3.2
1048(17) 0.003472 1026.2 3.2
1057(17) 0.003299 1026.2 3.2
1056(18) 0.003160 1026.2 3.2
1057(17) 0.003272 1026.2 3.2
1078(17) 0.003453 1026.3 3.2
1095(18) 0.003216 1026.3 3.2
1021(17) 0.003396 1026.3 3.2
1058(18) 0.003233 1026.3 3.2
1031(17) 0.003499 1026.3 3.2
1053(17) 0.00353 1026.3 3.2
1068(18) 0.003239 1026.3 3.2
1071(18) 0.003132 1026.4 3.3
1033(17) 0.003374 1026.4 3.3
1031(17) 0.003486 1026.4 3.3
1068(17) 0.003481 1026.4 3.3
1088(18) 0.003198 1026.4 3.3
1106(18) 0.002975 1026.4 3.3
1068(18) 0.003242 1026.5 3.4
1043(17) 0.00351 1026.5 3.4
1102(17) 0.003377 1026.5 3.4
1072(18) 0.003218 1026.5 3.4
1101(18) 0.003020 1026.5 3.5
1048(17) 0.003336 1026.5 3.5
1039(17) 0.003503 1026.5 3.5
1082(17) 0.003446 1026.6 3.6
1062(17) 0.003265 1026.6 3.6
1082(18) 0.003027 1026.6 3.6
1053(17) 0.003322 1026.6 3.7
1047(17) 0.003423 1026.6 3.7
1023(17) 0.00364 1026.6 3.8
1086(18) 0.003219 1026.7 3.8
1082(18) 0.003066 1026.7 3.8
1096(18) 0.003162 1026.7 3.9
1048(17) 0.00351 1026.7 4.0
1058(17) 0.003493 1026.7 4.0
1055(17) 0.003303 1026.7 4.1
1041(18) 0.003133 1026.7 4.1
1048(17) 0.003341 1026.8 4.2
1102(17) 0.003371 1026.8 4.3
1023(17) 0.00359 1026.8 4.4
1035(17) 0.003347 1026.8 4.4
1045(18) 0.003089 1026.8 4.5
1010(17) 0.003443 1026.8 4.6
1090(17) 0.003417 1026.8 4.7
1032(17) 0.003501 1026.9 4.8
1054(17) 0.003324 1026.9 4.9
1067(18) 0.003125 1026.9 5.1
1045(17) 0.003323 1026.9 5.2
1050(17) 0.00354 1026.9 5.3
1063(17) 0.003417 1026.9 5.5
1135(18) 0.003026 1027.0 5.6
1049(17) 0.003266 1027.0 5.8
1047(17) 0.003308 1027.0 5.9
1076(17) 0.003442 1027.0 6.1
1054(17) 0.003387 1027.0 6.3
1023(17) 0.003398 1027.0 6.5
1056(18) 0.003181 1027.0 6.8
1081(18) 0.003251 1027.1 7.0
1078(17) 0.003449 1027.1 7.3
1056(17) 0.003325 1027.1 7.6
1083(18) 0.003094 1027.1 7.9
1086(18) 0.003154 1027.1 8.1
1055(17) 0.003334 1027.1 8.5
1052(17) 0.00355 1027.2 8.9
1057(18) 0.003225 1027.2 9.3
1078(18) 0.003185 1027.2 9.8
1068(18) 0.003262 1027.2 10.4
1092(18) 0.003246 1027.2 11.0
1101(17) 0.003382 1027.2 11.6
1066(18) 0.003217 1027.2 12.3
1065(18) 0.003125 1027.3 13.1
1067(18) 0.003258 1027.3 14.0
1118(17) 0.003281 1027.3 14.9
1052(17) 0.00355 1027.3 15.9
1052(17) 0.003301 1027.3 17.1
1095(18) 0.002962 1027.3 18.3
993(17) 0.003493 1027.4 19.7
1059(17) 0.003453 1027.4 21.1
1054(17) 0.00354 1027.4 22.7
1076(18) 0.003245 1027.4 24.4
1094(18) 0.002945 1027.4 26.3
1062(17) 0.003357 1027.4 28.2
1078(17) 0.003432 1027.4 30.3
1067(17) 0.003456 1027.5 32.5
1071(17) 0.003271 1027.5 34.8
1015(18) 0.003218 1027.5 37.2
1053(18) 0.003227 1027.5 39.5
1020(17) 0.00362 1027.5 41.9
1096(17) 0.003359 1027.5 44.2
1085(18) 0.003178 1027.5 46.3
1103(19) 0.002920 1027.6 48.2
1133(18) 0.003077 1027.6 49.7
1128(17) 0.003299 1027.6 50.9
1115(17) 0.003269 1027.6 51.6
1075(18) 0.003231 1027.6 51.8
1091(18) 0.003004 1027.6 51.4
1099(18) 0.003179 1027.7 50.6
1091(17) 0.003424 1027.7 49.4
1119(18) 0.003255 1027.7 47.7
1133(18) 0.003059 1027.7 45.8
1079(18) 0.003089 1027.7 43.6
1070(18) 0.003190 1027.7 41.3
1076(17) 0.003481 1027.7 38.9
1095(17) 0.003268 1027.8 36.5
1118(18) 0.003039 1027.8 34.2
1096(18) 0.003088 1027.8 31.9
1059(17) 0.003322 1027.8 29.7
1067(17) 0.003467 1027.8 27.7
1062(17) 0.003366 1027.8 25.7
1105(18) 0.003100 1027.9 23.9
1066(18) 0.003250 1027.9 22.2
1070(17) 0.003292 1027.9 20.6
1072(17) 0.003478 1027.9 19.2
1034(17) 0.003386 1027.9 17.8
1049(18) 0.003244 1027.9 16.6
1056(17) 0.003271 1027.9 15.5
1042(17) 0.003426 1028.0 14.5
1076(17) 0.003437 1028.0 13.5
1069(18) 0.003205 1028.0 12.7
1041(18) 0.003231 1028.0 11.9
1109(18) 0.003123 1028.0 11.2
1110(18) 0.003247 1028.0 10.6
1056(17) 0.00352 1028.1 10.0
1090(18) 0.003222 1028.1 9.4
1087(18) 0.003060 1028.1 8.9
1093(18) 0.003225 1028.1 8.5
1090(17) 0.003315 1028.1 8.1
1082(17) 0.003442 1028.1 7.7
1023(17) 0.003354 1028.1 7.3
1020(18) 0.003196 1028.2 7.0
1019(17) 0.003433 1028.2 6.7
1033(17) 0.00358 1028.2 6.5
1088(17) 0.003430 1028.2 6.2
1083(18) 0.003235 1028.2 6.0
1066(18) 0.003018 1028.2 5.7
1085(18) 0.003162 1028.2 5.5
1025(17) 0.00364 1028.3 5.3
1088(17) 0.003396 1028.3 5.2
1045(17) 0.003400 1028.3 5.0
1079(18) 0.003047 1028.3 4.8
1095(18) 0.003228 1028.3 4.7
1064(17) 0.003488 1028.3 4.5
1092(17) 0.003350 1028.4 4.4
1111(18) 0.003041 1028.4 4.3
1073(18) 0.003029 1028.4 4.1
1011(17) 0.003505 1028.4 4.0
1063(17) 0.003490 1028.4 3.9
1026(17) 0.00354 1028.4 3.8
1039(17) 0.003329 1028.4 3.7
1056(18) 0.003116 1028.5 3.6
1049(17) 0.003296 1028.5 3.5
1052(17) 0.00355 1028.5 3.5
1076(17) 0.003302 1028.5 3.4
1019(17) 0.003419 1028.5 3.3
1041(17) 0.003273 1028.5 3.2
1112(18) 0.003108 1028.6 3.2
1068(17) 0.003493 1028.6 3.1
1048(17) 0.003404 1028.6 3.0
1001(17) 0.003451 1028.6 3.0
1032(17) 0.003294 1028.6 2.9
1075(18) 0.003224 1028.6 2.9
1020(17) 0.00365 1028.6 2.8
1047(17) 0.003311 1028.7 2.7
1078(18) 0.003130 1028.7 2.7
1071(18) 0.003191 1028.7 2.6
1088(17) 0.003289 1028.7 2.6
1087(17) 0.003419 1028.7 2.6
1093(18) 0.003178 1028.7 2.5
1020(17) 0.003332 1028.8 2.5
1062(18) 0.003196 1028.8 2.4
1073(17) 0.003349 1028.8 2.4
1002(16) 0.00370 1028.8 2.4
1047(17) 0.003305 1028.8 2.3
1035(18) 0.003164 1028.8 2.3
1063(18) 0.003254 1028.8 2.3
1064(17) 0.003449 1028.9 2.2
1050(17) 0.00355 1028.9 2.2
1038(17) 0.003307 1028.9 2.2
1079(18) 0.003033 1028.9 2.1
1099(18) 0.003159 1028.9 2.1
1020(17) 0.00364 1028.9 2.1
1058(17) 0.00352 1028.9 2.1
1037(17) 0.003374 1029.0 2.0
1038(18) 0.003151 1029.0 2.0
1068(18) 0.003253 1029.0 2.0
1043(17) 0.00356 1029.0 2.0
1066(17) 0.003442 1029.0 1.9
1078(18) 0.003142 1029.0 1.9
1020(18) 0.003152 1029.1 1.9
1030(17) 0.003414 1029.1 1.9
1075(17) 0.003458 1029.1 1.8
1056(17) 0.003502 1029.1 1.8
1077(18) 0.003202 1029.1 1.8
1140(19) 0.002859 1029.1 1.8
1053(17) 0.003313 1029.1 1.8
1053(17) 0.00354 1029.2 1.8
1079(17) 0.003357 1029.2 1.7
1007(17) 0.003464 1029.2 1.7
1042(18) 0.003158 1029.2 1.7
1057(17) 0.003322 1029.2 1.7
1062(17) 0.003492 1029.2 1.7
1051(17) 0.003411 1029.3 1.7
1051(17) 0.003290 1029.3 1.6
1091(18) 0.003088 1029.3 1.6
1070(18) 0.003244 1029.3 1.6
1029(17) 0.00359 1029.3 1.6
1063(17) 0.003312 1029.3 1.6
1066(18) 0.003161 1029.3 1.6
1061(18) 0.003227 1029.4 1.6
1076(17) 0.003307 1029.4 1.6
1054(17) 0.00352 1029.4 1.5
1017(17) 0.003425 1029.4 1.5
1023(18) 0.003259 1029.4 1.5
1029(17) 0.003321 1029.4 1.5
1064(17) 0.003359 1029.4 1.5
1075(17) 0.003471 1029.5 1.5
1055(18) 0.003200 1029.5 1.5
982(17) 0.003454 1029.5 1.5
1043(17) 0.003312 1029.5 1.5
1039(17) 0.00356 1029.5 1.4
1029(17) 0.00359 1029.5 1.4
1071(17) 0.003293 1029.6 1.4
1072(18) 0.003055 1029.6 1.4
1066(18) 0.003186 1029.6 1.4
1033(17) 0.00353 1029.6 1.4
1049(17) 0.00353 1029.6 1.4
1060(17) 0.003290 1029.6 1.4
1054(18) 0.003181 1029.6 1.4
1091(18) 0.003181 1029.7 1.4
1042(17) 0.00354 1029.7 1.4
1064(17) 0.003470 1029.7 1.3
1088(18) 0.003151 1029.7 1.3
1072(18) 0.003027 1029.7 1.3
1050(17) 0.003303 1029.7 1.3
1100(17) 0.003377 1029.8 1.3
1100(17) 0.003354 1029.8 1.3
1084(18) 0.003152 1029.8 1.3
1021(18) 0.003184 1029.8 1.3
1043(17) 0.003304 1029.8 1.3
1076(17) 0.003441 1029.8 1.3
1029(17) 0.00356 1029.8 1.3
1032(17) 0.003333 1029.9 1.3
1024(18) 0.003192 1029.9 1.3
1010(17) 0.003412 1029.9 1.3
1021(17) 0.00364 1029.9 1.3
1047(17) 0.003483 1029.9 1.3
1070(18) 0.003251 1029.9 1.3
1049(18) 0.003200 1030.0 1.3
1053(17) 0.003317 1030.0 1.3
1036(17) 0.00358 1030.0 1.3
1038(17) 0.003503 1030.0 1.3
1074(18) 0.003134 1030.0 1.3
1063(18) 0.003117 1029.8 1.3
1063(18) 0.003260 1029.3 1.3
1044(17) 0.00357 1028.9 1.3
1075(17) 0.003349 1028.4 1.3
1020(17) 0.003418 1027.9 1.3
1017(17) 0.003386 1027.5 1.3
1040(17) 0.003389 1027.0 1.3
1070(17) 0.003478 1026.6 1.3
1069(17) 0.003319 1026.1 1.2
1051(17) 0.003330 1025.6 1.2
1074(18) 0.003252 1025.2 1.2
1081(17) 0.003348 1024.7 1.2
1013(17) 0.00367 1024.2 1.2
1005(17) 0.003474 1023.8 1.2
1056(18) 0.003120 1023.3 1.2
1050(17) 0.003275 1022.9 1.2
1031(17) 0.003489 1022.4 1.2
1074(17) 0.003437 1021.9 1.2
1035(17) 0.003302 1021.5 1.2
1031(18) 0.003245 1021.0 1.2
1067(18) 0.003222 1020.6 1.2
1024(17) 0.00356 1020.1 1.2
1025(17) 0.00364 1019.6 1.2
1040(17) 0.003295 1019.2 1.2
1064(18) 0.003109 1018.7 1.2
1019(17) 0.003404 1018.2 1.2
1022(17) 0.00356 1017.8 1.2
1046(17) 0.00354 1017.3 1.2
1037(17) 0.003305 1016.9 1.2
1038(18) 0.003153 1016.4 1.2
1076(18) 0.003136 1015.9 1.2
1042(17) 0.003465 1015.5 1.2
1023(17) 0.00363 1015.0 1.2
969(17) 0.00360 1014.5 1.2
992(18) 0.003227 1014.1 1.2
1009(17) 0.003461 1013.6 1.2
1056(17) 0.00355 1013.2 1.2
1070(17) 0.003441 1012.7 1.2
1004(17) 0.00353 1012.2 1.2
1042(18) 0.003071 1011.8 1.2
1041(18) 0.003254 1011.3 1.1
1004(16) 0.00373 1010.8 1.1
1055(17) 0.003414 1010.4 1.1
1034(17) 0.003354 1009.9 1.1
1005(17) 0.003324 1009.5 1.1
1013(17) 0.003377 1009.0 1.1
1020(17) 0.00364 1008.5 1.1
1011(17) 0.00353 1008.1 1.1
1037(17) 0.003280 1007.6 1.1
1019(18) 0.003239 1007.2 1.1
1034(17) 0.003360 1006.7 1.1
994(16) 0.00371 1006.2 1.1
1043(17) 0.003409 1005.8 1.1
1007(17) 0.003434 1005.3 1.1
979(17) 0.00357 1004.8 1.1
1033(17) 0.003385 1004.4 1.1
1034(17) 0.00357 1003.9 1.1
963(16) 0.00369 1003.5 1.1
1008(17) 0.003360 1003.0 1.1
1035(17) 0.003268 1002.5 1.1
973(17) 0.00357 1002.1 1.1
1011(16) 0.00368 1001.6 1.1
1041(17) 0.003327 1001.1 1.1
1000(17) 0.003449 1000.7 1.1
1004(17) 0.003381 1000.2 1.1
998(17) 0.00359 999.8 1.1
975(16) 0.00381 999.3 1.1
1021(17) 0.003391 998.8 1.1
1046(18) 0.003200 998.4 1.1
1005(17) 0.003479 997.9 1.1
1008(17) 0.00359 997.5 1.1
1026(17) 0.00361 997.0 1.1
997(17) 0.003461 996.5 1.1
1030(18) 0.003133 996.1 1.1
991(17) 0.003423 995.6 1.1
997(16) 0.00370 995.1 1.1
1013(17) 0.00363 994.7 1.1
1020(17) 0.003378 994.2 1.1
993(17) 0.003287 993.8 1.1
982(17) 0.003506 993.3 1.1
1025(17) 0.00358 992.8 1.1
998(16) 0.00370 992.4 1.1
992(17) 0.003468 991.9 1.1
994(18) 0.003220 991.4 1.1
1002(17) 0.003499 991.0 1.1
966(16) 0.00381 990.5 1.1
983(16) 0.00372 990.1 1.1
966(17) 0.00357 989.6 1.1
987(17) 0.003283 989.1 1.1
1016(17) 0.003397 988.7 1.1
997(16) 0.00373 988.2 1.1
972(16) 0.00373 987.8 1.1
1014(17) 0.003450 987.3 1.1
1041(18) 0.003192 986.8 1.1
989(17) 0.00357 986.4 1.1
1027(17) 0.00362 985.9 1.1
1000(17) 0.00360 985.4 1.1
983(17) 0.00356 985.0 1.1
1012(17) 0.003272 984.5 1.1
965(17) 0.00353 984.1 1.1
983(16) 0.00379 983.6 1.1
1011(17) 0.00355 983.1 1.1
972(17) 0.00355 982.7 1.1
1012(17) 0.003305 982.2 1.1
948(16) 0.00370 981.7 1.1
974(16) 0.00381 981.3 1.1
1007(17) 0.003451 980.8 1.1
1011(17) 0.003332 980.4 1.1
1040(17) 0.003294 979.9 1.1
1031(17) 0.003392 979.4 1.1
1001(16) 0.00374 979.0 1.1
1014(17) 0.003483 978.5 1.1
968(17) 0.00352 978.1 1.1
992(17) 0.003504 977.6 1.1
992(17) 0.00365 977.1 1.1
935(16) 0.00396 976.7 1.1
981(17) 0.00354 976.2 1.1
1009(17) 0.003289 975.7 1.1
979(17) 0.00360 975.3 1.1
1007(17) 0.00362 974.8 1.1
998(16) 0.00371 974.4 1.1
983(17) 0.00357 973.9 1.1
996(17) 0.003322 973.4 1.1
992(17) 0.003498 973.0 1.1
988(16) 0.00369 972.5 1.1
955(16) 0.00390 972.0 1.1
973(17) 0.00356 971.6 1.1
996(17) 0.003277 971.1 1.1
995(17) 0.003475 970.7 1.1
968(16) 0.00385 970.2 1.1
983(16) 0.00376 969.7 1.1
990(17) 0.00353 969.3 1.1
996(17) 0.003281 968.8 1.1
993(17) 0.003479 968.4 1.1
990(16) 0.00379 967.9 1.1
975(16) 0.00380 967.4 1.1
995(17) 0.003474 967.0 1.1
981(17) 0.003266 966.5 1.1
998(17) 0.00354 966.0 1.1
1006(16) 0.00371 965.6 1.1
1010(17) 0.00362 965.1 1.1
932(16) 0.00377 964.7 1.1
962(17) 0.003429 964.2 1.1
991(17) 0.003439 963.7 1.1
963(16) 0.00387 963.3 1.1
975(16) 0.00377 962.8 1.1
965(17) 0.00356 962.3 1.2
926(17) 0.00361 961.9 1.2
938(17) 0.00367 961.4 1.2
994(16) 0.00374 961.0 1.2
993(16) 0.00367 960.5 1.2
955(17) 0.00364 960.0 1.2
1026(18) 0.003263 959.6 1.2
1006(17) 0.003446 959.1 1.2
968(16) 0.00383 958.7 1.2
995(17) 0.00363 958.2 1.2
960(17) 0.00355 957.7 1.2
964(17) 0.003495 957.3 1.2
954(17) 0.00367 956.8 1.2
930(16) 0.00400 956.3 1.2
956(16) 0.00370 955.9 1.2
973(17) 0.00353 955.4 1.2
952(16) 0.00369 955.0 1.2
966(16) 0.00370 954.5 1.2
976(16) 0.00381 954.0 1.2
1006(17) 0.003433 953.6 1.2
985(17) 0.003451 953.1 1.2
947(16) 0.00373 952.6 1.2
981(16) 0.00369 952.2 1.2
936(16) 0.00396 951.7 1.2
937(17) 0.00366 951.3 1.2
970(17) 0.003387 950.8 1.2
922(16) 0.00386 950.3 1.2
976(16) 0.00373 949.9 1.2
900(16) 0.00412 949.4 1.2
928(16) 0.00376 949.0 1.2
955(17) 0.003462 948.5 1.2
990(17) 0.00351 948.0 1.2
993(16) 0.00368 947.6 1.2
964(16) 0.00387 947.1 1.3
963(17) 0.00367 946.6 1.3
979(17) 0.003298 946.2 1.3
968(17) 0.00363 945.7 1.3
974(16) 0.00380 945.3 1.3
962(16) 0.00383 944.8 1.3
959(17) 0.00365 944.3 1.3
944(17) 0.003464 943.9 1.3
929(16) 0.00378 943.4 1.3
930(16) 0.00399 942.9 1.3
957(16) 0.00386 942.5 1.3
987(17) 0.003500 942.0 1.3
920(17) 0.00361 941.6 1.3
965(17) 0.00365 941.1 1.3
952(16) 0.00389 940.6 1.3
916(16) 0.00398 940.2 1.3
974(17) 0.00353 939.7 1.3
939(17) 0.00353 939.2 1.3
960(17) 0.00357 938.8 1.3
959(16) 0.00390 938.3 1.4
925(16) 0.00387 937.9 1.4
970(17) 0.00361 937.4 1.4
970(17) 0.00351 936.9 1.4
970(17) 0.00357 936.5 1.4
917(16) 0.00405 936.0 1.4
936(16) 0.00390 935.6 1.4
936(16) 0.00370 935.1 1.4
912(16) 0.00383 934.6 1.4
952(16) 0.00370 934.2 1.4
915(16) 0.00407 933.7 1.4
920(16) 0.00376 933.2 1.4
936(16) 0.00371 932.8 1.4
902(16) 0.00387 932.3 1.4
943(16) 0.00373 931.9 1.5
976(16) 0.00381 931.4 1.5
945(16) 0.00372 930.9 1.5
929(17) 0.00366 930.5 1.5
942(16) 0.00369 930.0 1.5
933(16) 0.00380 929.5 1.5
939(16) 0.00395 929.0 1.5
927(16) 0.00374 928.5 1.5
920(17) 0.00365 928.0 1.5
946(16) 0.00370 927.5 1.5
942(16) 0.00389 927.0 1.5
932(16) 0.00397 926.5 1.6
949(17) 0.00367 926.0 1.6
895(16) 0.00378 925.6 1.6
940(17) 0.00365 925.1 1.6
954(16) 0.00389 924.6 1.6
910(16) 0.00410 924.1 1.6
931(16) 0.00376 923.6 1.6
924(17) 0.00355 923.1 1.6
914(16) 0.00384 922.6 1.7
950(16) 0.00391 922.1 1.7
938(16) 0.00391 921.6 1.7
972(17) 0.00352 921.1 1.7
910(17) 0.00364 920.6 1.7
933(16) 0.00371 920.1 1.7
959(16) 0.00385 919.7 1.7
883(15) 0.00417 919.2 1.8
904(16) 0.00381 918.7 1.8
895(16) 0.00376 918.2 1.8
932(16) 0.00379 917.7 1.8
924(16) 0.00406 917.2 1.8
936(16) 0.00393 916.7 1.8
974(17) 0.00354 916.2 1.9
945(17) 0.003475 915.7 1.9
914(16) 0.00376 915.2 1.9
887(15) 0.00417 914.7 1.9
922(16) 0.00397 914.2 1.9
946(17) 0.00362 913.8 2.0
931(17) 0.00366 913.3 2.0
911(16) 0.00372 912.8 2.0
908(16) 0.00411 912.3 2.0
899(16) 0.00395 911.8 2.1
941(17) 0.00362 911.3 2.1
910(16) 0.00371 910.8 2.1
889(16) 0.00399 910.3 2.1
903(16) 0.00411 909.8 2.2
896(16) 0.00395 909.3 2.2
896(16) 0.00381 908.8 2.2
942(17) 0.00362 908.3 2.3
880(16) 0.00404 907.9 2.3
900(16) 0.00413 907.4 2.3
894(16) 0.00387 906.9 2.4
867(16) 0.00395 906.4 2.4
891(16) 0.00388 905.9 2.5
926(16) 0.00379 905.4 2.5
898(16) 0.00414 904.9 2.5
865(16) 0.00396 904.4 2.6
913(17) 0.00363 903.9 2.6
906(16) 0.00386 903.4 2.7
935(16) 0.00386 902.9 2.7
887(15) 0.00422 902.4 2.8
901(16) 0.00384 902.0 2.9
887(16) 0.00381 901.5 2.9
925(16) 0.00371 901.0 3.0
893(15) 0.00418 900.5 3.1
900(16) 0.00410 900.0 3.1
867(16) 0.00396 899.5 3.2
918(17) 0.00361 899.0 3.3
913(16) 0.00383 898.5 3.4
928(16) 0.00397 898.0 3.5
922(16) 0.00402 897.5 3.6
903(16) 0.00392 897.0 3.7
899(17) 0.00361 896.5 3.9
900(16) 0.00387 896.1 4.0
903(16) 0.00415 895.6 4.1
924(16) 0.00402 895.1 4.3
890(16) 0.00399 894.6 4.4
917(17) 0.00357 894.1 4.6
905(16) 0.00389 893.6 4.8
950(16) 0.00390 893.1 5.0
911(16) 0.00402 892.6 5.2
899(16) 0.00390 892.1 5.4
914(17) 0.00364 891.6 5.7
867(16) 0.00401 891.1 5.9
892(15) 0.00418 890.6 6.2
911(16) 0.00395 890.2 6.5
930(17) 0.00365 889.7 6.8
885(16) 0.00380 889.2 7.1
878(16) 0.00387 888.7 7.5
891(15) 0.00418 888.2 7.9
890(16) 0.00401 887.7 8.3
874(16) 0.00399 887.2 8.7
918(16) 0.00372 886.7 9.1
917(16) 0.00381 886.2 9.5
902(16) 0.00412 885.7 10.0
903(16) 0.00398 885.2 10.4
900(16) 0.00378 884.7 10.9
926(16) 0.00369 884.3 11.3
880(16) 0.00402 883.8 11.7
892(15) 0.00420 883.3 12.1
858(16) 0.00411 882.8 12.4
919(17) 0.00356 882.3 12.7
872(16) 0.00401 881.8 13.0
886(16) 0.00408 881.3 13.2
875(15) 0.00425 880.8 13.3
914(16) 0.00378 880.3 13.3
890(16) 0.00371 879.8 13.3
862(16) 0.00402 879.3 13.2
856(15) 0.00425 878.8 13.0
871(15) 0.00425 878.4 12.7
899(16) 0.00393 877.9 12.4
878(16) 0.00390 877.4 12.1
863(16) 0.00404 876.9 11.7
864(15) 0.00429 876.4 11.3
882(15) 0.00419 875.9 10.9
877(16) 0.00395 875.4 10.5
890(17) 0.00355 874.9 10.1
852(16) 0.00410 874.4 9.7
869(15) 0.00422 873.9 9.3
909(16) 0.00410 873.4 9.0
898(16) 0.00386 872.9 8.6
871(16) 0.00376 872.5 8.3
899(16) 0.00391 872.0 7.9
876(15) 0.00423 871.5 7.6
860(15) 0.00434 871.0 7.3
894(16) 0.00389 870.5 7.1
877(16) 0.00373 870.0 6.8
842(15) 0.00423 869.5 6.6
851(15) 0.00440 869.0 6.4
873(15) 0.00420 868.5 6.2
875(16) 0.00400 868.0 6.0
871(16) 0.00371 867.5 5.9
895(16) 0.00387 867.1 5.7
872(15) 0.00426 866.6 5.6
902(16) 0.00406 866.1 5.5
855(16) 0.00409 865.6 5.4
863(16) 0.00378 865.1 5.3
896(16) 0.00382 864.6 5.2
886(15) 0.00421 864.1 5.1
841(15) 0.00440 863.6 5.0
891(16) 0.00387 863.1 5.0
879(16) 0.00385 862.6 4.9
888(16) 0.00387 862.1 4.9
894(15) 0.00416 861.6 4.8
837(15) 0.00431 861.2 4.8
882(16) 0.00386 860.7 4.8
877(16) 0.00384 860.2 4.7
862(16) 0.00410 859.7 4.7
818(15) 0.00454 859.2 4.7
849(15) 0.00421 858.7 4.7
876(16) 0.00397 858.2 4.7
893(16) 0.00382 857.7 4.7
854(15) 0.00422 857.2 4.7
851(15) 0.00437 856.7 4.8
842(15) 0.00420 856.2 4.8
846(16) 0.00393 855.7 4.8
858(16) 0.00401 855.3 4.8
838(15) 0.00439 854.8 4.8
842(15) 0.00442 854.3 4.9
875(16) 0.00391 853.8 4.9
856(16) 0.00387 853.3 5.0
863(16) 0.00404 852.8 5.0
897(16) 0.00410 852.3 5.1
845(15) 0.00442 851.8 5.1
871(16) 0.00398 851.3 5.2
897(17) 0.00365 850.8 5.2
854(16) 0.00404 850.3 5.3
852(15) 0.00428 849.8 5.4
788(15) 0.00475 849.4 5.4
822(16) 0.00411 848.9 5.5
844(16) 0.00380 848.4 5.6
815(15) 0.00436 847.9 5.7
846(15) 0.00436 847.4 5.8
801(15) 0.00469 846.9 5.9
813(15) 0.00419 846.4 6.0
810(16) 0.00403 845.9 6.1
846(15) 0.00419 845.4 6.2
844(15) 0.00445 844.9 6.4
843(15) 0.00437 844.4 6.5
813(15) 0.00439 843.9 6.6
831(16) 0.00389 843.5 6.8
821(15) 0.00423 843.0 6.9
862(15) 0.00433 842.5 7.1
851(15) 0.00426 842.0 7.3
799(15) 0.00440 841.5 7.5
825(16) 0.00401 841.0 7.6
843(16) 0.00407 840.5 7.9
852(15) 0.00435 840.0 8.1
818(15) 0.00443 839.5 8.3
865(16) 0.00404 839.0 8.5
857(16) 0.00389 838.5 8.8
851(16) 0.00405 838.0 9.1
882(15) 0.00423 837.6 9.4
808(15) 0.00438 837.1 9.7
802(15) 0.00427 836.6 10.0
798(15) 0.00427 836.1 10.4
821(15) 0.00429 835.6 10.8
846(15) 0.00440 835.1 11.2
862(16) 0.00406 834.6 11.6
822(15) 0.00427 834.1 12.1
833(16) 0.00407 833.6 12.6
839(16) 0.00410 833.1 13.1
850(15) 0.00437 832.6 13.7
863(16) 0.00402 832.1 14.4
831(16) 0.00414 831.7 15.1
814(15) 0.00430 831.2 15.8
800(15) 0.00458 830.7 16.7
843(15) 0.00438 830.2 17.6
853(16) 0.00397 829.7 18.5
826(16) 0.00412 829.2 19.6
862(16) 0.00398 828.7 20.8
825(15) 0.00442 828.2 22.1
802(15) 0.00464 827.7 23.6
842(16) 0.00414 827.2 25.2
839(16) 0.00390 826.7 27.0
822(15) 0.00417 826.2 29.0
813(15) 0.00454 825.8 31.3
820(15) 0.00452 825.3 33.9
851(16) 0.00405 824.8 36.8
848(16) 0.00389 824.3 40.2
861(16) 0.00398 823.8 44.1
875(15) 0.00423 823.3 48.7
882(15) 0.00423 822.8 54.2
904(16) 0.00387 822.3 61.0
897(17) 0.00367 821.8 69.5
930(16) 0.00375 821.3 80.5
898(16) 0.00412 820.8 95.1
930(16) 0.00395 820.3 115.0
990(17) 0.003441 819.9 141.9
995(17) 0.003283 819.4 178.4
1037(17) 0.003316 818.9 226.7
1062(17) 0.003466 818.4 289.3
1122(17) 0.003324 817.9 367.5
1212(19) 0.002894 817.4 461.3
1307(20) 0.002484 816.9 568.5
1404(20) 0.002435 816.4 683.4
1484(20) 0.002506 815.9 795.3
1550(21) 0.002340 815.4 888.0
1691(22) 0.002079 814.9 941.9
1795(23) 0.001848 814.4 942.6
1721(22) 0.002006 814.0 889.9
1642(21) 0.002249 813.5 797.9
1445(20) 0.002478 813.0 686.3
1359(20) 0.002529 812.5 571.4
1205(19) 0.002849 812.0 464.0
1158(18) 0.003059 811.5 369.9
1131(18) 0.003263 811.0 291.4
1031(17) 0.003423 810.5 228.6
1037(17) 0.003285 810.0 179.9
1005(17) 0.003352 809.5 143.3
936(16) 0.00375 809.0 116.3
932(16) 0.00398 808.5 96.4
896(16) 0.00391 808.1 81.7
868(16) 0.00387 807.6 70.6
879(16) 0.00388 807.1 62.2
825(15) 0.00444 806.6 55.5
867(15) 0.00426 806.1 50.0
852(16) 0.00392 805.6 45.5
847(16) 0.00383 805.1 41.6
834(16) 0.00404 804.6 38.3
836(15) 0.00431 804.1 35.4
853(15) 0.00437 803.6 32.9
831(16) 0.00407 803.1 30.7
844(16) 0.00389 802.6 28.7
812(15) 0.00430 802.2 27.0
776(15) 0.00470 801.7 25.4
794(15) 0.00469 801.2 24.0
824(15) 0.00424 800.7 22.8
822(16) 0.00407 800.2 21.7
812(15) 0.00433 799.7 20.7
805(15) 0.00460 799.2 19.8
801(15) 0.00461 798.7 19.0
746(14) 0.00476 798.2 18.2
764(15) 0.00422 797.7 17.6
809(15) 0.00433 797.2 16.9
811(15) 0.00460 796.7 16.4
794(15) 0.00470 796.3 15.9
798(15) 0.00438 795.8 15.4
796(16) 0.00413 795.3 15.0
831(16) 0.00412 794.8 14.6
783(14) 0.00478 794.3 14.3
806(15) 0.00458 793.8 14.0
802(15) 0.00426 793.3 13.7
775(15) 0.00425 792.8 13.4
761(15) 0.00451 792.3 13.2
764(14) 0.00487 791.8 13.0
791(15) 0.00461 791.3 12.8
774(15) 0.00451 790.9 12.6
751(15) 0.00449 790.4 12.5
802(15) 0.00431 789.9 12.4
774(14) 0.00481 789.4 12.3
844(15) 0.00425 788.9 12.2
783(15) 0.00434 788.4 12.1
750(15) 0.00457 787.9 12.0
826(15) 0.00420 787.4 12.0
769(14) 0.00484 786.9 11.9
740(14) 0.00488 786.4 11.9
801(15) 0.00425 785.9 11.9
735(15) 0.00470 785.4 11.9
776(15) 0.00458 785.0 11.9
811(15) 0.00462 784.5 12.0
733(15) 0.00462 784.0 12.0
727(15) 0.00468 783.5 12.1
780(15) 0.00435 783.0 12.1
807(15) 0.00445 782.5 12.2
798(15) 0.00466 782.0 12.3
772(15) 0.00443 781.5 12.5
793(15) 0.00421 781.0 12.6
774(15) 0.00460 780.5 12.8
789(15) 0.00462 780.0 13.0
780(15) 0.00472 779.5 13.3
802(15) 0.00428 779.1 13.5
752(15) 0.00447 778.6 13.8
774(15) 0.00452 778.1 14.2
782(15) 0.00471 777.6 14.5
810(15) 0.00455 777.1 14.8
805(15) 0.00435 776.6 15.2
828(16) 0.00388 776.0 15.5
804(15) 0.00425 775.5 15.7
790(15) 0.00465 775.0 15.9
819(15) 0.00446 774.5 16.0
771(15) 0.00462 774.0 16.1
777(16) 0.00415 773.5 16.2
745(15) 0.00468 773.0 16.3
745(14) 0.00496 772.5 16.5
755(14) 0.00488 772.0 16.6
782(15) 0.00461 771.5 16.8
773(15) 0.00431 771.0 17.1
782(15) 0.00435 770.5 17.4
767(14) 0.00488 770.0 17.7
780(15) 0.00472 769.5 18.1
761(15) 0.00464 769.0 18.5
779(15) 0.00423 768.5 18.9
775(15) 0.00458 768.0 19.4
768(14) 0.00482 767.5 19.8
753(14) 0.00486 766.9 20.4
746(15) 0.00468 766.4 20.9
814(16) 0.00402 765.9 21.5
786(15) 0.00434 765.4 22.2
766(14) 0.00486 764.9 22.8
727(14) 0.00507 764.4 23.5
739(15) 0.00470 763.9 24.3
763(15) 0.00441 763.4 25.1
766(15) 0.00462 762.9 25.9
788(15) 0.00474 762.4 26.8
740(14) 0.00480 761.9 27.8
763(15) 0.00449 761.4 28.8
755(15) 0.00445 760.9 29.9
770(15) 0.00446 760.4 31.1
769(14) 0.00484 759.9 32.3
813(15) 0.00436 759.4 33.6
747(15) 0.00463 758.9 35.0
780(15) 0.00428 758.4 36.5
769(15) 0.00471 757.9 38.1
770(14) 0.00484 757.3 39.8
782(15) 0.00439 756.8 41.7
819(16) 0.00407 756.3 43.7
781(15) 0.00444 755.8 45.8
767(15) 0.00470 755.3 48.2
766(14) 0.00484 754.8 50.7
771(15) 0.00451 754.3 53.4
771(15) 0.00436 753.8 56.4
818(15) 0.00426 753.3 59.6
777(15) 0.00465 752.8 63.2
749(14) 0.00499 752.3 67.1
778(15) 0.00445 751.8 71.4
761(15) 0.00436 751.3 76.1
855(16) 0.00400 750.8 81.4
833(15) 0.00438 750.3 87.4
812(15) 0.00459 749.8 94.0
852(16) 0.00404 749.3 101.5
858(16) 0.00376 748.8 110.1
835(16) 0.00412 748.3 119.7
846(15) 0.00427 747.7 130.8
843(15) 0.00437 747.2 143.4
839(16) 0.00415 746.7 157.9
898(17) 0.00357 746.2 174.4
948(17) 0.00354 745.7 193.2
920(16) 0.00406 745.2 214.7
945(16) 0.00386 744.7 239.1
984(17) 0.003502 744.2 266.6
1034(18) 0.003102 743.7 297.6
1079(18) 0.003157 743.2 332.3
1093(17) 0.003416 742.7 370.6
1154(18) 0.003177 742.2 412.6
1194(19) 0.002913 741.7 457.9
1296(20) 0.002525 741.2 506.1
1356(20) 0.002555 740.7 556.0
1498(20) 0.002489 740.2 606.1
1540(21) 0.002348 739.7 654.0
1438(20) 0.002447 739.2 696.9
1507(21) 0.002264 738.7 731.7
1555(21) 0.002243 738.1 755.1
1546(20) 0.002412 737.6 764.9
1504(21) 0.002360 737.1 759.8
1442(20) 0.002389 736.6 740.6
1387(20) 0.002457 736.1 709.2
1370(20) 0.002534 735.6 668.6
1394(19) 0.002666 735.1 622.0
1284(19) 0.002795 734.6 572.4
1255(19) 0.002737 734.1 522.3
1160(18) 0.002955 733.6 473.5
1113(18) 0.003222 733.1 427.2
1114(17) 0.003337 732.6 384.2
1120(18) 0.003074 732.1 344.7
1036(17) 0.003280 731.6 309.0
1001(17) 0.003456 731.1 276.9
1024(17) 0.003500 730.6 248.3
1012(17) 0.00365 730.1 223.0
955(17) 0.00360 729.6 200.7
938(17) 0.00357 729.1 181.1
927(17) 0.00367 728.5 164.0
899(16) 0.00405 728.0 149.0
884(15) 0.00416 727.5 135.8
887(16) 0.00392 727.0 124.4
848(16) 0.00394 726.5 114.4
859(16) 0.00397 726.0 105.6
810(15) 0.00452 725.5 97.8
825(15) 0.00452 725.0 91.0
839(16) 0.00413 724.5 84.9
839(16) 0.00389 724.0 79.5
822(15) 0.00426 723.5 74.7
805(15) 0.00456 723.0 70.4
799(15) 0.00463 722.5 66.4
820(15) 0.00424 722.0 62.9
777(16) 0.00413 721.5 59.7
783(15) 0.00449 721.0 56.7
787(14) 0.00476 720.5 54.1
792(15) 0.00464 720.0 51.6
791(15) 0.00445 719.5 49.4
806(16) 0.00402 718.9 47.3
811(15) 0.00417 718.4 45.4
736(14) 0.00511 717.9 43.6
736(14) 0.00498 717.4 42.0
743(15) 0.00462 716.9 40.6
726(15) 0.00452 716.4 39.2
744(15) 0.00473 715.9 38.0
746(14) 0.00501 715.4 36.8
766(15) 0.00473 714.9 35.8
763(15) 0.00453 714.4 34.9
759(15) 0.00436 713.9 34.0
744(15) 0.00466 713.4 33.2
738(14) 0.00504 712.9 32.5
790(15) 0.00455 712.4 31.9
743(15) 0.00475 711.9 31.4
746(15) 0.00458 711.4 30.9
721(14) 0.00486 710.9 30.5
782(14) 0.00477 710.4 30.2
764(15) 0.00463 709.9 30.0
772(15) 0.00448 709.3 29.8
755(15) 0.00461 708.8 29.8
744(14) 0.00480 708.3 29.8
737(14) 0.00508 707.8 29.9
732(15) 0.00476 707.3 30.1
721(15) 0.00472 706.8 30.4
731(15) 0.00466 706.3 30.9
729(14) 0.00490 705.8 31.4
800(15) 0.00466 705.3 32.2
750(15) 0.00454 704.8 33.1
744(15) 0.00459 704.3 34.1
740(14) 0.00477 703.8 35.4
734(14) 0.00494 703.3 36.9
743(14) 0.00503 702.8 38.6
732(14) 0.00483 702.3 40.6
730(15) 0.00461 701.8 42.9
754(15) 0.00462 701.3 45.5
746(14) 0.00490 700.8 48.4
722(14) 0.00510 700.3 51.6
733(15) 0.00462 699.7 55.2
753(15) 0.00427 699.2 59.1
769(15) 0.00453 698.7 63.2
760(14) 0.00489 698.2 67.7
756(14) 0.00490 697.7 72.3
749(15) 0.00464 697.2 76.9
801(16) 0.00395 696.7 81.3
801(15) 0.00442 696.2 85.4
814(15) 0.00455 695.7 88.9
772(14) 0.00480 695.2 91.4
770(15) 0.00448 694.7 92.9
777(15) 0.00418 694.2 93.2
771(15) 0.00451 693.7 92.3
806(15) 0.00463 693.2 90.3
753(14) 0.00487 692.7 87.3
815(15) 0.00423 692.2 83.7
750(15) 0.00436 691.7 79.7
763(15) 0.00447 691.2 75.4
697(14) 0.00534 690.7 71.2
739(14) 0.00493 690.1 67.1
731(15) 0.00475 689.6 63.3
723(15) 0.00466 689.1 59.9
728(15) 0.00474 688.6 56.8
724(14) 0.00516 688.1 54.1
712(14) 0.00516 687.6 51.8
739(15) 0.00473 687.1 50.0
742(15) 0.00464 686.6 48.5
719(14) 0.00487 686.1 47.4
693(14) 0.00536 685.6 46.7
683(14) 0.00526 685.1 46.4
686(14) 0.00504 684.6 46.4
727(15) 0.00463 684.1 46.8
706(14) 0.00490 683.6 47.6
703(14) 0.00527 683.1 48.6
690(14) 0.00513 682.6 50.0
723(15) 0.00462 682.1 51.7
745(15) 0.00456 681.6 53.7
740(14) 0.00476 681.1 55.9
718(14) 0.00516 680.5 58.4
732(15) 0.00474 680.0 61.1
778(15) 0.00431 679.5 64.0
734(15) 0.00468 679.0 67.0
746(14) 0.00489 678.5 70.0
722(14) 0.00510 678.0 72.9
767(15) 0.00452 677.5 75.6
773(15) 0.00424 677.0 77.9
747(15) 0.00457 676.5 79.8
763(15) 0.00474 676.0 81.0
761(14) 0.00485 675.5 81.6
740(15) 0.00466 675.0 81.4
749(15) 0.00426 674.5 80.4
735(15) 0.00475 674.0 78.7
709(14) 0.00520 673.5 76.4
731(14) 0.00508 673.0 73.5
746(15) 0.00474 672.5 70.3
733(15) 0.00438 672.0 66.8
734(14) 0.00479 671.5 63.1
767(14) 0.00484 670.9 59.4
762(14) 0.00489 670.4 55.8
739(15) 0.00473 669.9 52.2
702(15) 0.00464 669.4 48.8
699(14) 0.00496 668.9 45.6
702(14) 0.00521 668.4 42.6
705(14) 0.00529 667.9 39.8
744(15) 0.00465 667.4 37.2
686(14) 0.00477 666.9 34.8
679(14) 0.00515 666.4 32.6
720(14) 0.00518 665.9 30.6
673(14) 0.00543 665.4 28.7
669(14) 0.00521 664.9 27.0
677(14) 0.00485 664.4 25.5
681(14) 0.00497 663.9 24.1
682(14) 0.00544 663.4 22.8
680(14) 0.00528 662.9 21.7
695(14) 0.00498 662.4 20.6
691(14) 0.00484 661.9 19.7
660(14) 0.00524 661.3 18.8
738(14) 0.00498 660.8 18.0
700(14) 0.00506 660.3 17.3
657(14) 0.00525 659.8 16.7
645(14) 0.00533 659.3 16.1
654(14) 0.00535 658.8 15.6
675(13) 0.00550 658.3 15.1
700(14) 0.00500 657.8 14.7
650(14) 0.00523 657.3 14.3
688(14) 0.00477 656.8 14.0
634(13) 0.00565 656.3 13.7
638(13) 0.00585 655.8 13.4
666(14) 0.00517 655.3 13.2
667(14) 0.00493 654.8 12.9
672(14) 0.00514 654.3 12.8
665(14) 0.00547 653.8 12.6
641(13) 0.00579 653.3 12.4
655(14) 0.00519 652.8 12.3
655(14) 0.00508 652.3 12.2
644(14) 0.00543 651.7 12.1
655(13) 0.00555 651.2 12.1
682(14) 0.00544 650.7 12.0
639(14) 0.00545 650.2 12.0
669(14) 0.00491 649.7 12.0
660(14) 0.00527 649.2 12.0
671(13) 0.00549 648.7 12.1
666(13) 0.00560 648.2 12.2
666(14) 0.00507 647.7 12.2
634(14) 0.00528 647.2 12.4
647(14) 0.00540 646.7 12.5
651(13) 0.00562 646.2 12.7
624(13) 0.00594 645.7 13.0
669(14) 0.00519 645.2 13.3
636(14) 0.00523 644.7 13.7
661(14) 0.00524 644.2 14.3
697(14) 0.00537 643.7 15.0
669(14) 0.00543 643.2 15.9
645(14) 0.00545 642.7 17.4
640(14) 0.00518 642.1 19.6
673(14) 0.00520 641.6 22.9
646(13) 0.00568 641.1 28.1
660(13) 0.00551 640.6 35.9
718(14) 0.00482 640.1 47.0
721(15) 0.00475 639.6 61.9
705(14) 0.00502 639.1 80.6
739(14) 0.00503 638.6 102.3
804(15) 0.00454 638.1 124.9
776(15) 0.00457 637.6 144.9
797(15) 0.00417 637.1 157.4
777(15) 0.00438 636.6 158.5
763(14) 0.00489 636.1 147.6
757(15) 0.00475 635.6 128.3
732(15) 0.00468 635.1 105.6
710(15) 0.00475 634.6 83.3
666(14) 0.00522 634.1 63.6
679(13) 0.00551 633.6 47.7
649(13) 0.00560 633.0 35.6
652(14) 0.00530 632.5 27.0
684(14) 0.00487 632.0 21.1
651(14) 0.00538 631.5 17.1
642(13) 0.00580 631.0 14.5
610(13) 0.00575 630.5 12.7
604(13) 0.00559 630.0 11.4
661(14) 0.00517 629.5 10.4
647(13) 0.00557 629.0 9.6
654(13) 0.00567 628.5 9.0
626(13) 0.00558 628.0 8.4
625(14) 0.00530 627.5 7.9
676(14) 0.00503 627.0 7.5
632(13) 0.00582 626.5 7.1
621(13) 0.00599 626.0 6.8
605(13) 0.00581 625.5 6.5
638(14) 0.00503 625.0 6.2
646(14) 0.00520 624.5 6.0
643(13) 0.00576 624.0 5.8
634(13) 0.00585 623.4 5.6
614(13) 0.00575 622.9 5.4
621(14) 0.00529 622.4 5.2
658(14) 0.00520 621.9 5.0
632(13) 0.00582 621.4 4.9
615(13) 0.00614 620.9 4.8
620(13) 0.00561 620.4 4.6
642(14) 0.00504 619.9 4.5
632(13) 0.00562 619.4 4.4
671(14) 0.00547 618.9 4.3
635(13) 0.00581 618.4 4.2
646(13) 0.00549 617.9 4.1
657(14) 0.00507 617.4 4.0
609(13) 0.00569 616.9 3.9
654(13) 0.00555 616.4 3.8
620(13) 0.00593 615.9 3.8
632(14) 0.00541 615.4 3.7
590(13) 0.00564 614.9 3.6
622(14) 0.00536 614.4 3.6
611(13) 0.00603 613.8 3.5
619(13) 0.00586 613.3 3.4
600(13) 0.00590 612.8 3.4
609(13) 0.00550 612.3 3.3
620(13) 0.00567 611.8 3.3
649(13) 0.00570 611.3 3.2
611(13) 0.00588 610.8 3.2
619(14) 0.00547 610.3 3.1
594(13) 0.00564 609.8 3.1
581(13) 0.00595 609.3 3.0
621(13) 0.00600 608.8 3.0
616(13) 0.00579 608.3 3.0
628(14) 0.00530 607.8 2.9
611(13) 0.00557 607.3 2.9
600(13) 0.00593 606.8 2.8
605(13) 0.00616 606.3 2.8
625(13) 0.00566 605.8 2.8
548(13) 0.00638 605.3 2.7
627(13) 0.00549 604.8 2.7
643(13) 0.00565 604.2 2.7
612(13) 0.00609 603.7 2.6
606(13) 0.00577 603.2 2.6
600(14) 0.00546 602.7 2.6
601(13) 0.00572 602.2 2.6
630(13) 0.00566 601.7 2.5
599(13) 0.00629 601.2 2.5
608(13) 0.00559 600.7 2.5
543(13) 0.00611 600.2 2.5
589(13) 0.00571 599.7 2.4
600(13) 0.00614 599.2 2.4
596(13) 0.00622 598.9 2.4
620(13) 0.00549 598.6 2.4
602(14) 0.00543 598.3 2.4
570(13) 0.00611 598.1 2.3
580(13) 0.00635 597.8 2.3
617(13) 0.00597 597.5 2.3
594(13) 0.00605 597.2 2.3
645(14) 0.00494 596.9 2.3
619(13) 0.00572 596.6 2.2
599(13) 0.00621 596.3 2.2
598(13) 0.00602 596.0 2.2
599(13) 0.00578 595.7 2.2
621(14) 0.00511 595.4 2.2
565(13) 0.00617 595.1 2.2
592(13) 0.00619 594.8 2.1
576(13) 0.00637 594.5 2.1
610(13) 0.00573 594.2 2.1
631(14) 0.00517 593.9 2.1
599(13) 0.00579 593.6 2.1
596(13) 0.00622 593.3 2.1
595(13) 0.00599 593.0 2.1
580(13) 0.00598 592.7 2.0
610(14) 0.00542 592.4 2.0
579(13) 0.00599 592.1 2.0
583(12) 0.00642 591.9 2.0
640(13) 0.00557 591.6 2.0
613(13) 0.00574 591.3 2.0
590(13) 0.00588 591.0 2.0
612(13) 0.00567 590.7 2.0
560(12) 0.00667 590.4 2.0
584(13) 0.00617 590.1 1.9
604(13) 0.00576 589.8 1.9
625(14) 0.00535 589.5 1.9
609(13) 0.00591 589.2 1.9
630(13) 0.00592 588.9 1.9
557(12) 0.00640 588.6 1.9
566(13) 0.00582 588.3 1.9
580(13) 0.00584 588.0 1.9
580(13) 0.00622 587.7 1.9
571(12) 0.00651 587.4 1.9
570(13) 0.00604 587.1 1.9
597(13) 0.00564 586.8 1.9
604(13) 0.00565 586.5 1.9
560(12) 0.00655 586.2 1.8
595(13) 0.00621 586.0 1.8
599(13) 0.00576 585.7 1.8
609(14) 0.00542 585.4 1.8
595(13) 0.00584 585.1 1.8
586(13) 0.00635 584.8 1.8
613(13) 0.00606 584.5 1.8
592(13) 0.00576 584.2 1.8
588(13) 0.00574 583.9 1.8
594(13) 0.00573 583.6 1.8
560(12) 0.00652 583.3 1.8
611(13) 0.00609 583.0 1.8
590(13) 0.00603 582.7 1.8
573(13) 0.00558 582.4 1.8
592(13) 0.00587 582.1 1.8
605(13) 0.00610 581.8 1.8
583(12) 0.00643 581.5 1.8
573(13) 0.00611 581.2 1.8
575(13) 0.00566 580.9 1.8
586(13) 0.00598 580.6 1.9
573(12) 0.00644 580.3 1.9
553(12) 0.00674 580.1 1.9
601(13) 0.00575 579.8 1.9
577(13) 0.00564 579.5 1.9
594(13) 0.00585 579.2 1.9
560(12) 0.00662 578.9 1.9
559(12) 0.00659 578.6 1.9
570(13) 0.00608 578.3 1.9
606(14) 0.00529 578.0 2.0
590(13) 0.00593 577.7 2.0
577(12) 0.00640 577.4 2.0
551(12) 0.00658 577.1 2.0
566(13) 0.00618 576.8 2.0
586(13) 0.00554 576.5 2.0
573(13) 0.00610 576.2 2.0
613(13) 0.00610 575.9 2.0
580(13) 0.00628 575.6 2.0
622(14) 0.00544 575.3 2.0
582(13) 0.00592 575.0 2.0
604(13) 0.00588 574.7 2.0
592(13) 0.00626 574.4 2.0
550(12) 0.00665 574.1 2.0
593(13) 0.00569 573.9 2.0
553(13) 0.00628 573.6 2.0
539(12) 0.00670 573.3 2.0
570(12) 0.00646 573.0 2.0
553(13) 0.00619 572.7 2.0
547(13) 0.00621 572.4 1.9
583(13) 0.00576 572.1 1.9
585(13) 0.00626 571.8 1.9
580(12) 0.00642 571.5 1.9
531(12) 0.00651 571.2 1.9
552(13) 0.00599 570.9 1.9
548(13) 0.00627 570.6 1.9
580(13) 0.00627 570.3 1.9
597(13) 0.00623 570.0 1.9
589(13) 0.00595 569.7 1.9
593(13) 0.00563 569.4 2.0
590(13) 0.00598 569.1 2.0
562(12) 0.00643 568.8 2.0
557(12) 0.00667 568.5 2.0
559(13) 0.00625 568.2 2.0
569(13) 0.00561 567.9 2.0
525(12) 0.00688 567.6 2.0
566(12) 0.00663 567.3 2.0
540(12) 0.00686 567.0 2.1
567(13) 0.00628 566.7 2.1
601(14) 0.00534 566.4 2.1
600(13) 0.00576 566.1 2.1
590(13) 0.00629 565.8 2.2
551(12) 0.00668 565.5 2.2
596(14) 0.00549 565.2 2.2
570(13) 0.00591 564.9 2.2
576(13) 0.00598 564.6 2.3
575(12) 0.00644 564.3 2.3
557(12) 0.00641 564.0 2.4
537(13) 0.00629 563.7 2.4
542(13) 0.00608 563.4 2.4
595(13) 0.00584 563.1 2.5
574(12) 0.00648 562.8 2.5
559(12) 0.00663 562.5 2.6
564(13) 0.00628 562.2 2.7
572(13) 0.00586 561.9 2.7
534(12) 0.00650 561.6 2.8
574(12) 0.00649 561.3 2.9
559(13) 0.00636 561.0 3.0
560(13) 0.00591 560.7 3.1
587(13) 0.00565 560.4 3.2
564(13) 0.00612 560.1 3.3
577(12) 0.00642 559.8 3.4
550(12) 0.00652 559.5 3.5
582(13) 0.00599 559.2 3.7
549(13) 0.00623 558.9 3.8
551(12) 0.00642 558.6 4.0
567(12) 0.00659 558.3 4.2
572(13) 0.00586 558.0 4.4
559(13) 0.00603 557.7 4.6
571(13) 0.00590 557.4 4.8
551(12) 0.00653 557.1 5.1
555(12) 0.00673 556.8 5.4
543(12) 0.00647 556.5 5.8
575(13) 0.00586 556.2 6.2
573(13) 0.00599 555.9 6.7
574(13) 0.00633 555.6 7.2
579(12) 0.00644 555.3 7.8
555(13) 0.00616 555.0 8.5
604(14) 0.00543 554.7 9.3
561(13) 0.00623 554.4 10.3
564(13) 0.00638 554.1 11.6
562(12) 0.00661 553.9 13.1
559(13) 0.00631 553.6 15.1
581(13) 0.00561 553.3 17.9
586(13) 0.00608 553.0 21.6
589(13) 0.00632 552.7 26.8
580(13) 0.00630 552.4 33.8
606(13) 0.00583 552.1 43.2
618(14) 0.00527 551.8 55.3
650(14) 0.00545 551.5 70.5
669(13) 0.00556 551.2 88.6
673(14) 0.00542 550.9 108.9
690(14) 0.00499 550.6 130.2
734(15) 0.00434 550.3 149.7
766(15) 0.00454 550.0 163.8
745(14) 0.00499 549.7 168.9
729(14) 0.00494 549.4 163.4
703(14) 0.00488 549.1 149.0
693(14) 0.00485 548.8 129.4
655(14) 0.00541 548.5 108.2
649(13) 0.00574 548.2 87.9
602(13) 0.00603 547.9 69.9
579(13) 0.00602 547.6 54.9
600(14) 0.00549 547.3 42.8
594(13) 0.00583 547.0 33.6
574(12) 0.00640 546.7 26.6
557(12) 0.00649 546.4 21.6
566(13) 0.00614 546.1 17.9
544(13) 0.00633 545.8 15.2
541(12) 0.00643 545.5 13.2
569(12) 0.00655 545.2 11.7
511(12) 0.00704 544.9 10.5
541(13) 0.00635 544.6 9.5
559(13) 0.00606 544.3 8.7
541(12) 0.00657 544.0 8.0
527(12) 0.00700 543.7 7.4
531(12) 0.00662 543.4 6.9
559(13) 0.00596 543.1 6.4
547(13) 0.00634 542.8 6.1
556(13) 0.00637 542.5 5.7
556(12) 0.00670 542.2 5.4
545(12) 0.00645 541.9 5.1
544(13) 0.00619 541.6 4.9
537(12) 0.00648 541.3 4.7
517(12) 0.00698 541.0 4.5
542(12) 0.00685 540.7 4.3
554(13) 0.00614 540.4 4.2
550(13) 0.00606 540.1 4.0
553(13) 0.00627 539.8 3.9
548(12) 0.00669 539.5 3.8
545(12) 0.00683 539.2 3.7
557(13) 0.00621 538.9 3.6
522(13) 0.00631 538.6 3.5
530(12) 0.00667 538.3 3.5
549(12) 0.00679 538.0 3.4
537(12) 0.00681 537.7 3.3
532(12) 0.00646 537.4 3.3
532(13) 0.00594 537.1 3.2
563(13) 0.00624 536.8 3.2
553(12) 0.00673 536.5 3.2
557(12) 0.00658 536.2 3.1
521(12) 0.00687 535.9 3.1
572(13) 0.00583 535.6 3.1
554(12) 0.00641 535.3 3.1
539(12) 0.00688 535.0 3.1
513(12) 0.00712 534.7 3.1
533(12) 0.00648 534.4 3.1
557(13) 0.00577 534.1 3.1
541(13) 0.00631 533.8 3.1
540(12) 0.00697 533.5 3.1
544(12) 0.00663 533.2 3.1
550(13) 0.00637 532.9 3.1
589(13) 0.00561 532.6 3.1
546(12) 0.00641 532.3 3.1
546(12) 0.00679 532.1 3.2
519(12) 0.00687 531.8 3.2
497(12) 0.00706 531.6 3.2
533(13) 0.00623 531.3 3.3
522(12) 0.00673 531.1 3.3
553(12) 0.00670 530.8 3.4
499(12) 0.00702 530.6 3.4
547(13) 0.00626 530.3 3.5
547(13) 0.00629 530.1 3.5
553(13) 0.00638 529.8 3.6
530(12) 0.00701 529.6 3.7
532(12) 0.00651 529.3 3.7
540(13) 0.00621 529.1 3.8
524(12) 0.00646 528.8 3.9
508(12) 0.00697 528.6 4.0
520(12) 0.00712 528.3 4.1
522(12) 0.00673 528.1 4.2
533(13) 0.00631 527.8 4.3
546(13) 0.00605 527.5 4.4
534(12) 0.00669 527.3 4.6
552(12) 0.00677 527.0 4.7
528(12) 0.00644 526.8 4.9
527(13) 0.00634 526.5 5.0
501(12) 0.00707 526.3 5.2
529(12) 0.00688 526.0 5.4
500(12) 0.00744 525.8 5.6
550(13) 0.00615 525.5 5.8
543(13) 0.00604 525.3 6.0
504(12) 0.00695 525.0 6.2
510(12) 0.00711 524.8 6.5
510(12) 0.00736 524.5 6.7
553(13) 0.00613 524.3 7.0
541(13) 0.00597 524.0 7.3
537(12) 0.00652 523.8 7.6
528(12) 0.00709 523.5 7.9
517(12) 0.00710 523.3 8.3
514(12) 0.00677 523.0 8.6
560(13) 0.00551 522.8 9.0
544(13) 0.00632 522.5 9.4
517(12) 0.00718 522.3 9.8
507(12) 0.00730 522.0 10.2
552(13) 0.00634 521.8 10.7
563(13) 0.00578 521.5 11.1
539(12) 0.00656 521.3 11.6
545(12) 0.00679 521.0 12.0
542(12) 0.00667 520.8 12.5
539(13) 0.00638 520.5 13.0
549(13) 0.00624 520.3 13.4
568(13) 0.00607 520.0 13.9
545(12) 0.00681 519.8 14.3
560(12) 0.00657 519.5 14.8
543(12) 0.00642 519.3 15.2
577(13) 0.00556 519.0 15.5
558(13) 0.00612 518.8 15.8
548(12) 0.00677 518.5 16.1
564(12) 0.00642 518.3 16.3
564(13) 0.00592 518.0 16.5
526(12) 0.00641 517.8 16.6
529(12) 0.00655 517.5 16.6
531(12) 0.00699 517.3 16.6
561(13) 0.00620 517.0 16.5
545(13) 0.00617 516.8 16.4
541(13) 0.00629 516.5 16.3
553(12) 0.00643 516.3 16.1
553(12) 0.00670 516.0 16.0
531(12) 0.00664 515.8 15.8
545(13) 0.00633 515.5 15.7
536(12) 0.00647 515.3 15.6
539(12) 0.00656 515.0 15.5
551(12) 0.00673 514.8 15.5
531(12) 0.00649 514.5 15.5
530(13) 0.00622 514.3 15.4
553(13) 0.00616 514.0 15.3
556(12) 0.00648 513.8 15.1
531(12) 0.00703 513.5 14.7
513(12) 0.00664 513.3 14.1
529(13) 0.00609 513.0 13.3
574(13) 0.00605 512.8 12.4
552(12) 0.00673 512.5 11.6
510(12) 0.00725 512.2 10.7
516(12) 0.00691 512.0 10.0
548(13) 0.00594 511.7 9.3
520(12) 0.00656 511.5 8.7
516(12) 0.00712 511.2 8.1
510(12) 0.00724 511.0 7.6
529(12) 0.00655 510.7 7.2
532(13) 0.00594 510.5 6.8
476(12) 0.00738 510.2 6.4
521(12) 0.00716 510.0 6.1
517(12) 0.00716 509.7 5.9
484(12) 0.00725 509.5 5.6
509(12) 0.00641 509.2 5.4
502(12) 0.00691 509.0 5.1
511(12) 0.00713 508.7 4.9
520(12) 0.00714 508.5 4.7
548(13) 0.00615 508.2 4.5
540(13) 0.00612 508.0 4.4
504(12) 0.00699 507.7 4.2
522(12) 0.00715 507.5 4.1
508(12) 0.00706 507.2 3.9
495(12) 0.00695 507.0 3.8
495(12) 0.00665 506.7 3.7
514(12) 0.00671 506.5 3.5
524(12) 0.00704 506.2 3.4
508(12) 0.00704 506.0 3.3
475(12) 0.00738 505.7 3.2
497(12) 0.00689 505.5 3.1
547(13) 0.00628 505.2 3.1
490(12) 0.00755 505.0 3.0
468(11) 0.00762 504.7 2.9
510(12) 0.00656 504.5 2.8
486(12) 0.00711 504.2 2.7
499(12) 0.00709 504.0 2.7
492(11) 0.00765 503.7 2.6
518(12) 0.00651 503.5 2.5
510(12) 0.00640 503.2 2.5
501(12) 0.00696 503.0 2.4
520(12) 0.00687 502.7 2.4
502(12) 0.00745 502.5 2.3
504(12) 0.00686 502.2 2.3
499(12) 0.00647 502.0 2.2
505(12) 0.00666 501.7 2.2
488(12) 0.00750 501.5 2.1
503(12) 0.00742 501.2 2.1
489(12) 0.00733 501.0 2.1
506(12) 0.00669 500.7 2.0
524(12) 0.00661 500.5 2.0
528(12) 0.00685 500.2 2.0
508(12) 0.00736 500.0 1.9
510(12) 0.00705 499.7 1.9
515(13) 0.00614 499.5 1.9
489(12) 0.00721 499.2 1.8
483(11) 0.00760 499.0 1.8
500(12) 0.00741 498.7 1.8
476(12) 0.00734 498.5 1.7
468(12) 0.00705 498.2 1.7
515(12) 0.00662 498.0 1.7
505(12) 0.00745 497.7 1.7
498(12) 0.00744 497.5 1.6
523(12) 0.00660 497.2 1.7
504(12) 0.00652 496.9 1.7
506(12) 0.00713 496.7 1.6
520(12) 0.00709 496.4 1.6
471(11) 0.00781 496.2 1.6
474(12) 0.00723 495.9 1.6
504(12) 0.00651 495.7 1.6
510(12) 0.00690 495.4 1.6
510(12) 0.00720 495.2 1.5
514(12) 0.00714 494.9 1.5
531(12) 0.00655 494.7 1.5
504(12) 0.00668 494.4 1.5
515(12) 0.00660 494.2 1.5
507(12) 0.00731 493.9 1.5
507(12) 0.00720 493.7 1.4
498(12) 0.00694 493.4 1.4
475(12) 0.00737 493.2 1.4
522(12) 0.00673 492.9 1.4
516(12) 0.00724 492.7 1.4
495(12) 0.00721 492.4 1.4
498(12) 0.00678 492.2 1.4
521(12) 0.00652 491.9 1.4
483(12) 0.00731 491.7 1.4
492(12) 0.00753 491.4 1.3
503(12) 0.00685 491.2 1.3
475(12) 0.00728 490.9 1.3
503(12) 0.00677 490.7 1.3
502(12) 0.00708 490.4 1.3
492(11) 0.00761 490.2 1.3
501(12) 0.00688 489.9 1.3
517(12) 0.00650 489.7 1.3
470(11) 0.00777 489.4 1.3
509(12) 0.00700 489.2 1.3
464(11) 0.00802 488.9 1.3
517(13) 0.00632 488.7 1.3
510(12) 0.00641 488.4 1.3
530(13) 0.00631 488.2 1.2
466(11) 0.00786 487.9 1.2
478(11) 0.00779 487.7 1.2
501(12) 0.00684 487.4 1.2
486(12) 0.00686 487.2 1.2
509(12) 0.00679 486.9 1.2
499(12) 0.00738 486.7 1.2
497(12) 0.00749 486.4 1.2
491(12) 0.00723 486.2 1.2
496(12) 0.00662 485.9 1.2
494(12) 0.00710 485.7 1.2
490(12) 0.00749 485.4 1.2
485(12) 0.00755 485.2 1.2
488(12) 0.00708 485.0 1.2
490(12) 0.00675 484.8 1.2
486(12) 0.00709 484.6 1.2
490(11) 0.00763 484.4 1.2
525(12) 0.00689 484.2 1.2
501(12) 0.00690 484.0 1.2
459(12) 0.00714 483.8 1.2
479(12) 0.00715 483.6 1.2
489(12) 0.00754 483.4 1.2
481(11) 0.00768 483.2 1.2
476(12) 0.00740 483.0 1.2
491(12) 0.00675 482.8 1.2
466(12) 0.00745 482.7 1.2
484(11) 0.00766 482.5 1.2
488(12) 0.00751 482.3 1.2
481(12) 0.00719 482.1 1.2
478(12) 0.00713 481.9 1.2
482(12) 0.00719 481.7 1.2
462(11) 0.00802 481.5 1.2
452(11) 0.00800 481.3 1.2
483(12) 0.00713 481.1 1.2
501(12) 0.00674 480.9 1.2
490(12) 0.00715 480.7 1.2
492(11) 0.00758 480.5 1.2
461(11) 0.00776 480.3 1.2
488(12) 0.00714 480.1 1.2
500(12) 0.00680 480.0 1.2
510(12) 0.00684 479.8 1.2
471(11) 0.00791 479.6 1.2
455(12) 0.00754 479.4 1.2
467(12) 0.00709 479.2 1.3
462(11) 0.00759 479.0 1.3
488(12) 0.00744 478.8 1.3
500(12) 0.00738 478.6 1.3
489(12) 0.00697 478.4 1.3
459(12) 0.00713 478.2 1.3
452(11) 0.00764 478.0 1.3
450(11) 0.00784 477.8 1.3
503(12) 0.00739 477.6 1.3
492(12) 0.00686 477.5 1.4
471(12) 0.00695 477.3 1.4
474(12) 0.00716 477.1 1.4
480(11) 0.00763 476.9 1.4
474(11) 0.00777 476.7 1.4
446(11) 0.00771 476.5 1.5
447(12) 0.00726 476.3 1.5
474(12) 0.00710 476.1 1.5
464(11) 0.00779 475.9 1.6
475(11) 0.00784 475.7 1.6
470(12) 0.00725 475.5 1.6
471(12) 0.00669 475.3 1.7
458(12) 0.00750 475.1 1.7
477(11) 0.00774 475.0 1.8
517(12) 0.00687 474.8 1.8
442(11) 0.00768 474.6 1.9
486(12) 0.00675 474.4 2.0
496(12) 0.00697 474.2 2.0
472(11) 0.00790 474.0 2.1
484(11) 0.00762 473.8 2.2
484(12) 0.00712 473.6 2.4
474(12) 0.00707 473.4 2.5
464(12) 0.00734 473.2 2.7
456(11) 0.00815 473.0 2.8
473(11) 0.00773 472.8 3.1
461(11) 0.00762 472.6 3.3
458(12) 0.00726 472.5 3.6
456(12) 0.00734 472.3 4.0
448(11) 0.00827 472.1 4.4
437(11) 0.00814 471.9 4.9
487(12) 0.00701 471.7 5.4
499(12) 0.00666 471.5 6.1
461(12) 0.00745 471.3 6.8
476(11) 0.00781 471.1 7.6
466(11) 0.00771 470.9 8.5
495(12) 0.00692 470.7 9.4
502(12) 0.00676 470.5 10.4
470(11) 0.00767 470.3 11.4
457(11) 0.00810 470.1 12.2
519(12) 0.00689 470.0 12.9
486(12) 0.00704 469.8 13.4
488(12) 0.00688 469.6 13.5
448(11) 0.00795 469.4 13.3
469(11) 0.00787 469.2 12.7
485(12) 0.00714 469.0 12.0
471(12) 0.00697 468.8 11.1
451(11) 0.00765 468.6 10.1
489(12) 0.00729 468.4 9.1
483(11) 0.00766 468.2 8.2
482(12) 0.00699 468.0 7.4
461(12) 0.00711 467.8 6.6
462(11) 0.00765 467.6 5.9
499(12) 0.00714 467.5 5.3
498(12) 0.00753 467.3 4.8
470(12) 0.00754 467.1 4.3
471(12) 0.00684 466.9 3.9
461(11) 0.00766 466.7 3.6
452(11) 0.00826 466.5 3.3
472(11) 0.00785 466.3 3.1
493(12) 0.00712 466.1 2.9
505(13) 0.00617 465.9 2.7
480(12) 0.00723 465.7 2.6
464(11) 0.00797 465.5 2.5
465(11) 0.00802 465.3 2.4
516(12) 0.00651 465.1 2.3
463(12) 0.00707 464.9 2.2
440(11) 0.00819 464.8 2.1
505(12) 0.00742 464.6 2.1
491(12) 0.00741 464.4 2.0
455(11) 0.00758 464.2 2.0
443(12) 0.00753 464.0 1.9
441(11) 0.00782 463.8 1.9
464(11) 0.00789 463.6 1.9
449(11) 0.00810 463.4 1.9
454(12) 0.00746 463.2 1.8
468(12) 0.00700 463.0 1.8
473(12) 0.00739 462.8 1.8
456(11) 0.00803 462.6 1.8
489(12) 0.00732 462.4 1.8
470(12) 0.00744 462.3 1.8
439(11) 0.00794 462.1 1.8
472(12) 0.00746 461.9 1.8
455(11) 0.00812 461.7 1.8
477(12) 0.00753 461.5 1.8
456(11) 0.00758 461.3 1.8
416(11) 0.00871 461.1 1.8
451(11) 0.00773 460.9 1.8
449(11) 0.00818 460.7 1.9
429(11) 0.00827 460.5 1.9
456(12) 0.00747 460.3 1.9
504(12) 0.00672 460.1 1.9
444(11) 0.00810 459.9 2.0
438(11) 0.00850 459.8 2.0
504(12) 0.00697 459.6 2.0
482(12) 0.00710 459.4 2.1
456(12) 0.00745 459.2 2.1
449(11) 0.00803 459.0 2.1
453(11) 0.00816 458.8 2.2
435(11) 0.00797 458.6 2.2
478(12) 0.00678 458.4 2.3
474(12) 0.00710 458.2 2.3
468(11) 0.00776 458.0 2.3
420(11) 0.00888 457.8 2.4
463(12) 0.00744 457.6 2.4
431(11) 0.00768 457.4 2.5
446(11) 0.00770 457.3 2.5
442(11) 0.00836 457.1 2.6
449(11) 0.00836 456.9 2.6
456(11) 0.00778 456.7 2.7
472(12) 0.00695 456.5 2.7
468(12) 0.00731 456.3 2.7
457(11) 0.00820 456.1 2.8
475(11) 0.00776 455.9 2.8
458(11) 0.00763 455.7 2.8
441(12) 0.00753 455.5 2.8
471(12) 0.00747 455.3 2.8
459(11) 0.00799 455.1 2.8
472(11) 0.00789 454.9 2.8
465(12) 0.00735 454.8 2.8
430(11) 0.00768 454.6 2.8
482(12) 0.00718 454.4 2.8
474(11) 0.00785 454.2 2.8
464(11) 0.00774 454.0 2.7
466(12) 0.00745 453.8 2.7
468(12) 0.00728 453.6 2.6
473(12) 0.00741 453.4 2.6
458(11) 0.00805 453.2 2.5
470(12) 0.00752 453.0 2.5
492(12) 0.00685 452.8 2.4
458(12) 0.00718 452.6 2.4
447(11) 0.00781 452.4 2.3
459(11) 0.00811 452.2 2.3
434(11) 0.00820 452.1 2.2
437(11) 0.00796 451.9 2.2
462(12) 0.00728 451.7 2.1
454(12) 0.00754 451.5 2.1
454(11) 0.00836 451.3 2.0
450(11) 0.00783 451.1 2.0
453(11) 0.00765 450.9 2.0
455(12) 0.00751 450.7 1.9
445(11) 0.00814 450.5 1.9
470(11) 0.00787 450.3 1.8
474(12) 0.00709 450.1 1.8
456(12) 0.00713 449.9 1.8
447(11) 0.00772 449.7 1.8
466(11) 0.00785 449.6 1.7
480(11) 0.00780 449.4 1.7
445(11) 0.00802 449.2 1.7
450(11) 0.00769 449.0 1.6
481(12) 0.00719 448.8 1.6
448(11) 0.00827 448.6 1.6
439(11) 0.00841 448.4 1.6
487(12) 0.00708 448.2 1.6
465(12) 0.00705 448.0 1.5
454(11) 0.00765 447.8 1.5
451(11) 0.00830 447.6 1.5
465(11) 0.00797 447.4 1.5
436(11) 0.00798 447.2 1.5
428(11) 0.00766 447.1 1.5
454(11) 0.00769 446.9 1.5
466(11) 0.00784 446.7 1.5
444(11) 0.00829 446.5 1.4
459(11) 0.00777 446.3 1.4
451(12) 0.00704 446.1 1.4
446(11) 0.00774 445.9 1.4
434(11) 0.00863 445.7 1.4
446(11) 0.00816 445.5 1.4
449(11) 0.00798 445.3 1.4
455(12) 0.00734 445.1 1.4
471(12) 0.00732 444.9 1.4
456(11) 0.00816 444.7 1.4
471(11) 0.00766 444.6 1.4
434(11) 0.00788 444.4 1.4
440(12) 0.00737 444.2 1.4
441(11) 0.00758 444.0 1.4
448(11) 0.00827 443.8 1.4
451(11) 0.00792 443.6 1.4
426(11) 0.00800 443.4 1.4
442(12) 0.00746 443.2 1.4
447(11) 0.00782 443.0 1.4
433(11) 0.00856 442.8 1.4
465(11) 0.00758 442.6 1.4
463(12) 0.00712 442.4 1.4
441(11) 0.00787 442.3 1.4
457(12) 0.00754 442.2 1.4
441(11) 0.00848 442.0 1.4
475(12) 0.00747 441.9 1.4
423(11) 0.00832 441.8 1.4
425(11) 0.00814 441.7 1.4
412(11) 0.00862 441.5 1.4
427(11) 0.00871 441.4 1.4
449(11) 0.00786 441.3 1.4
444(12) 0.00754 441.2 1.4
433(11) 0.00797 441.1 1.4
423(11) 0.00852 440.9 1.4
451(11) 0.00820 440.8 1.4
438(11) 0.00801 440.7 1.4
435(11) 0.00777 440.6 1.4
449(11) 0.00784 440.4 1.4
450(11) 0.00801 440.3 1.4
449(11) 0.00828 440.2 1.4
460(12) 0.00756 440.1 1.4
451(11) 0.00760 440.0 1.4
450(11) 0.00789 439.8 1.4
454(11) 0.00803 439.7 1.4
440(11) 0.00832 439.6 1.4
442(11) 0.00761 439.5 1.4
421(11) 0.00791 439.3 1.4
448(11) 0.00777 439.2 1.4
434(11) 0.00847 439.1 1.4
408(10) 0.00917 439.0 1.4
454(11) 0.00768 438.9 1.5
449(12) 0.00722 438.7 1.5
454(12) 0.00753 438.6 1.5
422(11) 0.00887 438.5 1.5
434(11) 0.00849 438.4 1.5
429(11) 0.00814 438.2 1.5
435(11) 0.00760 438.1 1.5
446(11) 0.00792 438.0 1.5
459(11) 0.00813 437.9 1.5
451(11) 0.00804 437.8 1.5
410(11) 0.00876 437.6 1.5
436(12) 0.00752 437.5 1.5
431(11) 0.00792 437.4 1.5
430(11) 0.00861 437.3 1.5
467(11) 0.00777 437.1 1.6
457(11) 0.00765 437.0 1.6
423(11) 0.00803 436.9 1.6
442(11) 0.00764 436.8 1.6
444(11) 0.00832 436.7 1.6
420(11) 0.00845 436.5 1.6
415(11) 0.00851 436.4 1.6
405(11) 0.00835 436.3 1.6
413(11) 0.00854 436.2 1.6
446(11) 0.00828 436.0 1.6
480(12) 0.00736 435.9 1.6
471(12) 0.00712 435.8 1.7
445(11) 0.00765 435.7 1.7
434(11) 0.00838 435.6 1.7
433(11) 0.00852 435.4 1.7
455(11) 0.00782 435.3 1.7
451(12) 0.00754 435.2 1.7
445(11) 0.00789 435.1 1.7
453(11) 0.00785 434.9 1.7
452(11) 0.00820 434.8 1.8
465(12) 0.00748 434.7 1.8
495(12) 0.00666 434.6 1.8
440(11) 0.00799 434.5 1.8
430(11) 0.00829 434.3 1.8
415(11) 0.00897 434.2 1.8
451(11) 0.00776 434.1 1.8
403(11) 0.00847 434.0 1.8
443(11) 0.00783 433.8 1.9
459(11) 0.00796 433.7 1.9
462(11) 0.00801 433.6 1.9
475(12) 0.00740 433.5 1.9
440(11) 0.00771 433.4 1.9
409(11) 0.00855 433.2 1.9
439(11) 0.00827 433.1 2.0
423(11) 0.00872 433.0 2.0
413(11) 0.00852 432.9 2.0
438(12) 0.00723 432.8 2.0
452(11) 0.00773 432.6 2.0
452(11) 0.00822 432.5 2.0
418(11) 0.00880 432.4 2.1
409(11) 0.00862 432.3 2.1
449(12) 0.00712 432.1 2.1
424(11) 0.00826 432.0 2.1
421(11) 0.00886 431.9 2.1
427(11) 0.00870 431.8 2.2
414(11) 0.00857 431.7 2.2
404(11) 0.00836 431.5 2.2
414(11) 0.00824 431.4 2.2
408(10) 0.00916 431.3 2.3
420(11) 0.00848 431.2 2.3
441(12) 0.00751 431.0 2.3
422(11) 0.00775 430.9 2.3
412(11) 0.00850 430.8 2.4
418(11) 0.00891 430.7 2.4
465(11) 0.00776 430.6 2.4
468(12) 0.00741 430.4 2.4
454(12) 0.00736 430.3 2.5
415(11) 0.00842 430.2 2.5
444(11) 0.00841 430.1 2.5
394(11) 0.00905 429.9 2.6
433(11) 0.00776 429.8 2.6
434(11) 0.00775 429.7 2.6
431(11) 0.00842 429.6 2.6
429(11) 0.00870 429.5 2.7
443(11) 0.00797 429.3 2.7
431(11) 0.00772 429.2 2.8
424(11) 0.00802 429.1 2.8
427(11) 0.00816 429.0 2.8
406(10) 0.00916 428.8 2.9
449(11) 0.00779 428.7 2.9
431(11) 0.00823 428.6 2.9
450(11) 0.00778 428.5 3.0
408(11) 0.00903 428.4 3.0
407(10) 0.00911 428.2 3.1
419(11) 0.00839 428.1 3.1
408(11) 0.00850 428.0 3.2
425(11) 0.00824 427.9 3.2
424(11) 0.00861 427.7 3.3
441(11) 0.00838 427.6 3.3
443(11) 0.00791 427.5 3.4
447(12) 0.00710 427.4 3.4
421(11) 0.00842 427.3 3.5
428(11) 0.00858 427.1 3.6
428(11) 0.00858 427.0 3.6
434(11) 0.00793 426.9 3.7
404(11) 0.00807 426.8 3.7
413(11) 0.00843 426.6 3.8
412(10) 0.00910 426.5 3.9
434(11) 0.00839 426.4 4.0
419(11) 0.00824 426.3 4.0
431(12) 0.00746 426.2 4.1
399(11) 0.00888 426.0 4.2
406(11) 0.00905 425.9 4.3
419(11) 0.00871 425.8 4.4
445(12) 0.00749 425.7 4.5
429(12) 0.00741 425.5 4.6
402(11) 0.00870 425.4 4.7
438(11) 0.00852 425.3 4.8
407(11) 0.00880 425.2 4.9
428(11) 0.00812 425.1 5.0
436(12) 0.00754 424.9 5.1
445(11) 0.00774 424.8 5.3
431(11) 0.00871 424.7 5.4
412(11) 0.00877 424.6 5.5
403(11) 0.00893 424.4 5.7
434(11) 0.00793 424.3 5.8
433(11) 0.00812 424.2 6.0
429(11) 0.00876 424.1 6.2
437(11) 0.00811 424.0 6.4
404(11) 0.00845 423.8 6.6
391(11) 0.00861 423.7 6.8
417(11) 0.00834 423.6 7.0
429(11) 0.00869 423.5 7.2
416(11) 0.00870 423.3 7.5
411(11) 0.00834 423.2 7.7
437(11) 0.00775 423.1 8.0
429(11) 0.00839 423.0 8.3
398(10) 0.00927 422.9 8.6
426(11) 0.00807 422.7 9.0
404(11) 0.00821 422.6 9.3
414(11) 0.00842 422.5 9.7
429(11) 0.00821 422.4 10.2
390(10) 0.00959 422.2 10.6
426(11) 0.00798 422.1 11.1
409(11) 0.00822 422.0 11.7
419(11) 0.00824 421.9 12.3
406(11) 0.00906 421.8 13.0
418(11) 0.00895 421.6 13.7
403(11) 0.00856 421.5 14.5
417(11) 0.00776 421.4 15.4
406(11) 0.00881 421.3 16.4
450(11) 0.00816 421.1 17.5
456(11) 0.00819 421.0 18.7
450(11) 0.00766 420.9 20.1
412(11) 0.00810 420.8 21.7
440(11) 0.00783 420.7 23.6
444(11) 0.00833 420.5 25.8
471(11) 0.00800 420.4 28.5
426(11) 0.00830 420.3 31.7
448(12) 0.00732 420.2 35.5
424(11) 0.00817 420.0 40.3
432(11) 0.00860 419.9 46.1
500(12) 0.00727 419.8 53.2
488(12) 0.00719 419.7 62.0
486(12) 0.00702 419.6 72.6
511(12) 0.00682 419.4 85.2
516(12) 0.00712 419.3 100.1
538(12) 0.00681 419.2 117.2
576(13) 0.00593 419.1 136.4
605(14) 0.00534 418.9 157.2
628(14) 0.00537 418.8 178.5
692(14) 0.00535 418.7 198.7
673(14) 0.00541 418.6 215.3
673(14) 0.00524 418.5 225.7
700(14) 0.00490 418.3 227.9
697(14) 0.00493 418.2 221.5
627(13) 0.00594 418.1 207.9
678(14) 0.00521 418.0 189.6
616(13) 0.00565 417.8 169.1
585(13) 0.00578 417.7 148.6
568(13) 0.00623 417.6 129.2
532(12) 0.00702 417.5 111.8
514(12) 0.00682 417.4 96.6
508(12) 0.00677 417.2 83.8
515(12) 0.00671 417.1 73.2
467(11) 0.00778 417.0 64.6
515(12) 0.00717 416.9 57.9
506(12) 0.00677 416.7 52.8
485(12) 0.00694 416.6 49.1
476(12) 0.00728 416.5 46.6
494(12) 0.00726 416.4 45.2
501(12) 0.00739 416.3 44.8
459(11) 0.00778 416.1 45.3
512(12) 0.00647 416.0 46.7
518(12) 0.00675 415.9 49.0
495(12) 0.00720 415.8 52.2
482(11) 0.00764 415.6 56.2
471(11) 0.00759 415.5 61.0
520(13) 0.00633 415.4 66.3
500(12) 0.00711 415.3 71.9
489(12) 0.00756 415.2 77.3
498(12) 0.00742 415.0 81.8
491(12) 0.00730 414.9 84.7
503(13) 0.00635 414.8 85.4
489(12) 0.00710 414.7 83.7
517(12) 0.00702 414.5 80.0
483(11) 0.00766 414.4 74.8
437(11) 0.00819 414.3 68.8
472(12) 0.00675 414.2 62.8
488(12) 0.00709 414.1 57.1
516(12) 0.00722 413.9 51.9
458(11) 0.00802 413.8 47.3
422(11) 0.00825 413.7 43.5
444(12) 0.00725 413.6 40.3
435(11) 0.00792 413.4 37.8
438(11) 0.00833 413.3 35.8
419(11) 0.00892 413.2 34.4
426(11) 0.00823 413.1 33.3
432(11) 0.00784 413.0 32.7
423(11) 0.00842 412.8 32.3
427(11) 0.00860 412.7 32.3
438(11) 0.00825 412.6 32.5
422(11) 0.00851 412.5 32.8
465(12) 0.00725 412.3 33.4
415(11) 0.00856 412.2 34.2
419(11) 0.00892 412.1 35.1
448(11) 0.00813 412.0 36.2
405(11) 0.00876 411.9 37.4
442(11) 0.00770 411.7 38.8
456(11) 0.00777 411.6 40.4
430(11) 0.00863 411.5 42.2
437(11) 0.00811 411.4 44.1
433(11) 0.00777 411.2 46.3
443(11) 0.00779 411.1 48.7
464(11) 0.00761 411.0 51.4
461(11) 0.00808 410.9 54.3
463(12) 0.00740 410.8 57.6
464(12) 0.00742 410.6 61.2
474(12) 0.00749 410.5 65.4
477(12) 0.00745 410.4 70.1
489(11) 0.00763 410.3 75.5
451(11) 0.00785 410.2 81.9
506(12) 0.00654 410.0 89.6
456(11) 0.00769 409.9 98.9
508(12) 0.00700 409.8 110.5
483(11) 0.00772 409.7 125.1
520(12) 0.00651 409.5 143.5
540(13) 0.00614 409.4 166.6
561(13) 0.00617 409.3 195.4
590(13) 0.00612 409.2 230.9
643(13) 0.00583 409.1 273.9
681(14) 0.00507 408.9 324.7
734(15) 0.00449 408.8 383.1
800(15) 0.00440 408.7 447.7
914(16) 0.00406 408.6 515.3
931(16) 0.00395 408.4 580.6
1019(17) 0.003370 408.3 635.3
1045(18) 0.003081 408.2 669.6
1079(18) 0.003187 408.1 676.1
983(16) 0.00379 408.0 652.9
963(16) 0.00387 407.8 605.3
877(16) 0.00388 407.7 542.6
819(16) 0.00392 407.6 473.9
771(15) 0.00449 407.5 406.2
740(14) 0.00502 407.3 343.6
695(14) 0.00535 407.2 288.2
702(14) 0.00489 407.1 240.6
605(14) 0.00543 407.0 200.8
579(13) 0.00598 406.9 168.1
595(13) 0.00627 406.7 141.8
578(13) 0.00632 406.6 120.7
539(12) 0.00661 406.5 104.0
535(13) 0.00628 406.4 90.7
482(12) 0.00728 406.2 80.1
528(12) 0.00705 406.1 71.6
502(12) 0.00716 406.0 64.5
466(11) 0.00767 405.9 58.7
467(12) 0.00730 405.8 53.8
469(12) 0.00727 405.6 49.5
458(11) 0.00811 405.5 45.9
474(12) 0.00748 405.4 42.7
451(11) 0.00757 405.3 39.9
452(11) 0.00765 405.1 37.4
411(11) 0.00879 405.0 35.1
466(11) 0.00802 404.9 33.1
422(11) 0.00830 404.8 31.3
448(12) 0.00747 404.7 29.7
437(11) 0.00763 404.5 28.3
428(11) 0.00834 404.4 26.9
435(11) 0.00857 404.3 25.7
411(11) 0.00850 404.2 24.7
437(11) 0.00770 404.0 23.7
423(11) 0.00828 403.9 22.8
447(11) 0.00804 403.8 22.0
445(11) 0.00838 403.7 21.2
411(11) 0.00831 403.6 20.6
426(12) 0.00751 403.4 20.0
424(11) 0.00778 403.3 19.4
414(11) 0.00875 403.2 18.9
415(11) 0.00897 403.1 18.4
425(11) 0.00805 402.9 18.0
409(11) 0.00780 402.8 17.7
398(11) 0.00842 402.7 17.3
433(11) 0.00848 402.6 17.1
462(11) 0.00799 402.5 16.8
417(11) 0.00821 402.3 16.6
408(11) 0.00765 402.2 16.4
419(11) 0.00838 402.1 16.3
442(11) 0.00838 402.0 16.1
415(11) 0.00885 401.8 16.0
399(11) 0.00878 401.7 16.0
428(12) 0.00722 401.6 15.9
408(11) 0.00845 401.5 15.9
397(10) 0.00930 401.4 16.0
431(11) 0.00851 401.2 16.0
406(11) 0.00878 401.1 16.1
408(11) 0.00820 401.0 16.3
445(11) 0.00762 400.9 16.4
420(11) 0.00882 400.7 16.6
411(11) 0.00891 400.6 16.8
412(11) 0.00827 400.5 17.1
423(11) 0.00798 400.4 17.4
426(11) 0.00816 400.3 17.8
413(11) 0.00902 400.1 18.2
399(10) 0.00915 400.0 18.6
422(11) 0.00822 399.9 19.2
426(11) 0.00807 399.8 19.7
462(12) 0.00745 399.6 20.4
460(11) 0.00803 399.5 21.1
406(11) 0.00878 399.4 21.9
429(11) 0.00803 399.3 22.8
439(11) 0.00782 399.2 23.8
435(11) 0.00806 399.0 25.0
434(11) 0.00853 398.9 26.2
436(11) 0.00793 398.8 27.7
426(11) 0.00820 398.7 29.3
461(12) 0.00748 398.5 31.2
459(11) 0.00776 398.4 33.3
425(11) 0.00869 398.3 35.7
451(11) 0.00771 398.2 38.5
450(12) 0.00738 398.1 41.6
463(12) 0.00730 397.9 45.2
474(12) 0.00750 397.8 49.4
448(11) 0.00830 397.7 54.0
468(11) 0.00761 397.6 59.3
484(12) 0.00702 397.4 65.4
497(12) 0.00697 397.3 72.1
497(12) 0.00734 397.2 79.7
517(12) 0.00725 397.1 88.1
517(12) 0.00679 397.0 97.4
544(13) 0.00602 396.8 107.5
540(12) 0.00659 396.7 118.3
551(12) 0.00668 396.6 129.7
570(12) 0.00650 396.5 141.3
555(13) 0.00625 396.3 152.8
542(13) 0.00590 396.2 163.6
549(13) 0.00632 396.1 172.9
600(13) 0.00617 396.0 180.1
582(12) 0.00642 395.9 184.4
601(13) 0.00579 395.7 185.5
623(14) 0.00519 395.6 183.2
608(13) 0.00568 395.5 177.7
569(12) 0.00660 395.4 169.7
599(13) 0.00609 395.2 159.7
554(13) 0.00638 395.1 148.5
564(13) 0.00571 395.0 136.9
522(12) 0.00669 394.9 125.2
529(12) 0.00713 394.8 113.9
493(12) 0.00736 394.6 103.3
445(11) 0.00815 394.5 93.4
495(12) 0.00666 394.4 84.3
471(12) 0.00737 394.3 76.1
449(11) 0.00834 394.1 68.8
447(11) 0.00819 394.0 62.2
433(11) 0.00793 393.9 56.3
414(11) 0.00840 393.8 51.2
455(12) 0.00749 393.7 46.6
455(11) 0.00816 393.5 42.6
407(11) 0.00858 393.4 39.1
413(11) 0.00806 393.3 36.0
417(11) 0.00817 393.2 33.2
393(10) 0.00922 393.0 30.8
392(10) 0.00943 392.9 28.7
391(11) 0.00902 392.8 26.8
410(11) 0.00828 392.7 25.2
446(11) 0.00774 392.6 23.7
411(11) 0.00862 392.4 22.3
387(10) 0.00966 392.3 21.1
413(11) 0.00844 392.2 20.0
414(11) 0.00799 392.1 19.1
401(11) 0.00851 391.9 18.2
385(10) 0.00932 391.8 17.3
391(10) 0.00945 391.7 16.6
401(11) 0.00869 391.6 15.9
413(11) 0.00826 391.5 15.3
397(11) 0.00863 391.3 14.7
385(10) 0.00963 391.2 14.1
421(11) 0.00883 391.1 13.6
411(11) 0.00851 391.0 13.2
374(10) 0.00924 390.8 12.7
408(11) 0.00853 390.7 12.3
360(10) 0.01034 390.6 12.0
379(10) 0.00985 390.5 11.6
400(11) 0.00870 390.4 11.3
385(11) 0.00830 390.2 11.0
344(10) 0.01040 390.1 10.7
406(11) 0.00893 390.0 10.4
381(10) 0.00984 389.9 10.2
392(11) 0.00899 389.7 9.9
393(11) 0.00833 389.6 9.7
398(11) 0.00864 389.5 9.5
395(10) 0.00945 389.4 9.3
374(10) 0.00966 389.3 9.1
388(11) 0.00890 389.1 9.0
383(11) 0.00868 389.0 8.8
420(11) 0.00805 388.9 8.7
386(10) 0.00963 388.8 8.5
395(10) 0.00923 388.6 8.4
421(11) 0.00799 388.5 8.3
381(11) 0.00897 388.4 8.2
391(11) 0.00905 388.3 8.0
414(11) 0.00907 388.2 7.9
374(10) 0.00971 388.0 7.9
403(11) 0.00819 387.9 7.8
377(10) 0.00922 387.8 7.7
370(10) 0.00930 387.7 7.6
371(10) 0.00992 387.6 7.5
385(10) 0.00931 387.4 7.5
364(10) 0.00956 387.3 7.4
357(10) 0.00979 387.2 7.4
389(11) 0.00901 387.1 7.3
383(10) 0.00981 387.0 7.3
381(10) 0.00940 386.9 7.2
397(11) 0.00861 386.8 7.2
398(11) 0.00879 386.7 7.2
407(11) 0.00886 386.6 7.2
387(10) 0.00957 386.5 7.1
401(11) 0.00880 386.4 7.1
374(10) 0.00926 386.3 7.1
389(11) 0.00885 386.1 7.1
388(10) 0.00907 386.0 7.1
392(10) 0.00946 385.9 7.1
399(11) 0.00873 385.8 7.1
392(11) 0.00876 385.7 7.1
393(11) 0.00888 385.6 7.2
389(10) 0.00936 385.5 7.2
385(10) 0.00969 385.4 7.2
369(10) 0.00945 385.3 7.2
367(10) 0.00931 385.2 7.3
415(11) 0.00825 385.1 7.3
390(10) 0.00931 385.0 7.4
375(10) 0.00993 384.9 7.4
377(11) 0.00898 384.7 7.5
392(11) 0.00827 384.6 7.6
383(10) 0.00907 384.5 7.6
369(10) 0.01023 384.4 7.7
401(10) 0.00909 384.3 7.8
378(10) 0.00943 384.2 8.0
377(11) 0.00873 384.1 8.1
380(10) 0.00938 384.0 8.2
399(10) 0.00938 383.9 8.4
390(10) 0.00938 383.8 8.6
373(10) 0.00908 383.7 8.8
400(11) 0.00789 383.6 9.1
375(10) 0.00958 383.4 9.4
375(10) 0.01005 383.3 9.8
412(11) 0.00867 383.2 10.3
408(11) 0.00849 383.1 11.0
373(11) 0.00907 383.0 12.1
405(11) 0.00856 382.9 13.5
417(11) 0.00887 382.8 15.5
410(11) 0.00898 382.7 18.2
404(11) 0.00868 382.6 21.5
409(11) 0.00827 382.5 25.5
406(11) 0.00845 382.4 30.0
433(11) 0.00863 382.3 34.4
448(11) 0.00798 382.2 38.1
427(11) 0.00802 382.0 40.1
407(11) 0.00839 381.9 39.7
393(11) 0.00898 381.8 37.2
408(11) 0.00904 381.7 33.4
413(11) 0.00846 381.6 29.2
421(11) 0.00809 381.5 25.1
389(11) 0.00894 381.4 21.7
400(11) 0.00864 381.3 18.9
395(10) 0.00933 381.2 16.8
405(11) 0.00877 381.1 15.3
367(10) 0.00924 381.0 14.4
380(11) 0.00866 380.9 13.7
361(10) 0.00972 380.8 13.4
379(10) 0.00973 380.6 13.2
398(11) 0.00874 380.5 13.2
385(11) 0.00898 380.4 13.2
378(10) 0.00941 380.3 13.3
398(11) 0.00905 380.2 13.4
390(10) 0.00957 380.1 13.6
374(10) 0.00927 380.0 13.8
405(11) 0.00834 379.9 14.0
377(10) 0.00972 379.8 14.3
394(10) 0.00924 379.7 14.6
382(10) 0.00975 379.6 14.9
400(11) 0.00886 379.5 15.2
380(11) 0.00883 379.4 15.5
360(10) 0.00946 379.2 15.9
378(10) 0.00955 379.1 16.3
378(10) 0.00974 379.0 16.7
382(10) 0.00929 378.9 17.1
376(11) 0.00878 378.8 17.6
395(11) 0.00874 378.7 18.0
394(10) 0.00947 378.6 18.5
400(11) 0.00907 378.5 19.0
374(10) 0.00941 378.4 19.6
392(11) 0.00844 378.3 20.1
382(10) 0.00923 378.2 20.7
408(10) 0.00910 378.1 21.3
393(10) 0.00928 377.9 22.0
405(11) 0.00849 377.8 22.6
406(11) 0.00819 377.7 23.3
383(10) 0.00925 377.6 24.0
424(11) 0.00874 377.5 24.8
414(11) 0.00865 377.4 25.6
405(11) 0.00823 377.3 26.4
419(11) 0.00769 377.2 27.2
430(11) 0.00799 377.1 28.1
405(10) 0.00910 377.0 29.1
414(11) 0.00881 376.9 30.0
420(11) 0.00833 376.8 31.0
395(11) 0.00860 376.7 32.1
405(11) 0.00847 376.5 33.2
411(11) 0.00902 376.4 34.4
414(11) 0.00866 376.3 35.7
422(11) 0.00799 376.2 37.0
432(11) 0.00766 376.1 38.4
401(11) 0.00838 376.0 39.9
437(11) 0.00849 375.9 41.4
419(11) 0.00834 375.8 43.1
450(12) 0.00753 375.7 44.9
428(11) 0.00811 375.6 46.7
462(12) 0.00749 375.5 48.7
416(11) 0.00885 375.4 50.8
429(11) 0.00822 375.3 53.0
448(12) 0.00740 375.1 55.3
446(11) 0.00776 375.0 57.6
484(12) 0.00742 374.9 60.0
471(11) 0.00787 374.8 62.3
478(12) 0.00704 374.7 64.6
498(12) 0.00672 374.6 66.6
492(12) 0.00708 374.5 68.5
472(12) 0.00749 374.4 69.9
474(11) 0.00781 374.3 71.0
469(12) 0.00739 374.2 71.5
462(12) 0.00698 374.1 71.5
450(11) 0.00772 374.0 71.0
441(11) 0.00834 373.9 69.9
494(12) 0.00754 373.7 68.4
458(11) 0.00762 373.6 66.6
461(12) 0.00704 373.5 64.5
421(11) 0.00840 373.4 62.2
434(11) 0.00827 373.3 59.9
454(11) 0.00818 373.2 57.5
435(11) 0.00806 373.1 55.2
420(12) 0.00752 373.0 53.0
416(11) 0.00853 372.9 51.0
453(11) 0.00818 372.8 49.1
438(11) 0.00843 372.7 47.3
424(11) 0.00826 372.6 45.7
424(11) 0.00773 372.4 44.3
435(11) 0.00794 372.3 43.0
415(11) 0.00896 372.2 41.9
425(11) 0.00865 372.1 40.9
431(11) 0.00782 372.0 40.1
458(12) 0.00698 371.9 39.5
404(11) 0.00864 371.8 38.9
415(11) 0.00892 371.7 38.6
406(11) 0.00895 371.6 38.3
386(11) 0.00865 371.5 38.2
398(11) 0.00844 371.4 38.2
407(11) 0.00857 371.3 38.4
413(11) 0.00903 371.2 38.6
412(11) 0.00871 371.0 39.0
409(11) 0.00847 370.9 39.5
440(11) 0.00777 370.8 40.2
411(11) 0.00860 370.7 40.9
408(10) 0.00908 370.6 41.8
418(11) 0.00851 370.5 42.9
414(11) 0.00824 370.4 44.1
437(11) 0.00770 370.3 45.5
412(11) 0.00867 370.2 47.1
421(11) 0.00891 370.1 48.9
378(10) 0.00941 370.0 50.8
414(11) 0.00805 369.9 53.1
402(11) 0.00857 369.8 55.6
405(11) 0.00869 369.6 58.4
417(11) 0.00887 369.5 61.5
429(11) 0.00823 369.4 65.0
427(11) 0.00778 369.3 68.9
424(11) 0.00780 369.2 73.3
431(11) 0.00822 369.1 78.2
436(11) 0.00865 369.0 83.6
442(11) 0.00778 368.9 89.6
437(12) 0.00747 368.8 96.3
426(11) 0.00821 368.7 103.8
462(11) 0.00793 368.6 112.0
493(12) 0.00748 368.5 121.0
450(11) 0.00802 368.3 131.0
502(12) 0.00640 368.2 141.9
494(12) 0.00693 368.1 153.7
537(12) 0.00681 368.0 166.6
525(12) 0.00707 367.9 180.4
530(12) 0.00673 367.8 195.1
570(13) 0.00572 367.7 210.6
585(13) 0.00592 367.6 226.6
614(13) 0.00599 367.5 243.0
632(13) 0.00593 367.4 259.2
650(14) 0.00531 367.3 274.8
667(14) 0.00482 367.2 289.2
660(14) 0.00542 367.1 301.8
665(13) 0.00553 366.9 311.8
653(13) 0.00570 366.8 318.9
670(14) 0.00523 366.7 322.5
645(14) 0.00518 366.6 322.7
632(13) 0.00552 366.5 319.5
638(13) 0.00582 366.4 313.5
596(13) 0.00616 366.3 305.0
594(13) 0.00591 366.2 294.8
598(13) 0.00558 366.1 283.6
604(13) 0.00566 366.0 271.7
574(12) 0.00650 365.9 259.7
586(13) 0.00609 365.8 247.7
546(12) 0.00653 365.7 235.9
536(13) 0.00627 365.5 224.4
554(13) 0.00630 365.4 212.9
516(12) 0.00719 365.3 201.4
537(13) 0.00633 365.2 189.9
517(12) 0.00648 365.1 178.2
499(12) 0.00672 365.0 166.6
455(11) 0.00774 364.9 155.1
503(12) 0.00742 364.8 143.8
513(12) 0.00683 364.7 133.0
478(12) 0.00714 364.6 122.8
497(12) 0.00685 364.5 113.3
467(11) 0.00779 364.4 104.4
459(11) 0.00804 364.3 96.3
466(12) 0.00738 364.1 88.8
458(12) 0.00728 364.0 82.1
442(11) 0.00793 363.9 75.9
437(11) 0.00829 363.8 70.4
439(11) 0.00849 363.7 65.4
436(11) 0.00801 363.6 60.9
411(11) 0.00833 363.5 56.8
399(11) 0.00893 363.4 53.1
426(11) 0.00867 363.3 49.8
435(11) 0.00850 363.2 46.8
441(11) 0.00791 363.1 44.1
400(11) 0.00833 363.0 41.6
397(11) 0.00878 362.8 39.4
407(11) 0.00887 362.7 37.4
406(10) 0.00930 362.6 35.5
415(11) 0.00840 362.5 33.8
387(11) 0.00835 362.4 32.2
407(11) 0.00849 362.3 30.7
375(10) 0.00979 362.2 29.4
399(10) 0.00914 362.1 28.1
379(10) 0.00910 362.0 27.0
359(11) 0.00905 361.9 25.9
393(11) 0.00897 361.8 24.9
392(10) 0.00940 361.7 23.9
413(11) 0.00888 361.6 23.0
407(11) 0.00841 361.4 22.2
379(11) 0.00891 361.3 21.4
385(10) 0.00915 361.2 20.7
358(10) 0.01042 361.1 20.0
361(10) 0.01008 361.0 19.4
349(10) 0.01030 360.9 18.8
385(11) 0.00856 360.8 18.2
374(10) 0.00912 360.7 17.6
368(10) 0.01004 360.6 17.1
383(10) 0.00940 360.5 16.6
364(10) 0.00951 360.4 16.2
390(11) 0.00886 360.3 15.8
361(10) 0.00982 360.2 15.3
358(10) 0.01042 360.0 15.0
372(10) 0.00915 359.9 14.6
356(10) 0.00970 359.8 14.3
353(10) 0.00981 359.7 13.9
354(10) 0.01001 359.6 13.6
349(10) 0.01072 359.5 13.3
366(10) 0.00966 359.4 13.1
382(11) 0.00880 359.3 12.8
360(10) 0.00950 359.2 12.6
368(10) 0.00963 359.1 12.4
363(10) 0.01026 359.0 12.2
371(10) 0.00969 358.9 12.0
355(10) 0.00972 358.8 11.8
349(10) 0.01012 358.6 11.7
389(10) 0.00939 358.5 11.5
357(10) 0.01024 358.4 11.4
349(10) 0.00982 358.3 11.3
342(10) 0.01010 358.2 11.2
339(10) 0.01048 358.1 11.1
374(10) 0.00974 358.0 11.1
348(10) 0.01060 357.9 11.1
377(11) 0.00907 357.8 11.0
346(10) 0.00954 357.7 11.1
350(10) 0.01021 357.6 11.1
375(10) 0.00974 357.5 11.1
362(10) 0.01021 357.3 11.2
353(10) 0.01025 357.2 11.3
392(11) 0.00796 357.1 11.5
362(10) 0.00976 357.0 11.6
386(10) 0.00959 356.9 11.8
369(10) 0.00978 356.8 12.0
365(10) 0.00970 356.7 12.3
360(10) 0.00935 356.6 12.6
369(10) 0.00930 356.5 12.9
351(10) 0.01047 356.4 13.2
356(10) 0.01041 356.3 13.6
344(10) 0.01045 356.2 14.0
353(10) 0.00927 356.1 14.4
359(10) 0.00987 355.9 14.8
356(10) 0.01041 355.8 15.2
351(10) 0.01051 355.7 15.6
362(10) 0.00952 355.6 15.9
354(10) 0.00925 355.5 16.2
357(10) 0.00950 355.4 16.5
365(10) 0.01024 355.3 16.6
351(10) 0.01040 355.2 16.7
392(11) 0.00826 355.1 16.6
363(10) 0.00922 355.0 16.5
357(10) 0.00984 354.9 16.2
359(10) 0.01023 354.8 15.9
342(10) 0.01039 354.7 15.5
383(11) 0.00896 354.5 15.0
380(11) 0.00903 354.4 14.5
350(10) 0.01036 354.3 13.9
381(10) 0.00983 354.2 13.4
364(10) 0.00973 354.1 12.8
339(10) 0.01033 354.0 12.3
350(10) 0.01021 353.9 11.7
343(10) 0.01049 353.8 11.2
355(10) 0.01038 353.7 10.8
358(10) 0.00945 353.6 10.3
329(10) 0.01030 353.5 9.9
345(10) 0.00998 353.4 9.5
358(10) 0.01017 353.2 9.1
333(9) 0.01130 353.1 8.7
335(10) 0.00976 353.0 8.4
370(11) 0.00880 352.9 8.1
367(10) 0.00950 352.8 7.9
383(10) 0.00952 352.7 7.6
347(10) 0.01070 352.6 7.4
361(10) 0.00980 352.5 7.2
339(10) 0.00997 352.4 7.0
337(10) 0.01066 352.3 6.8
364(10) 0.01015 352.2 6.6
376(10) 0.00986 352.1 6.5
337(10) 0.01050 352.0 6.3
357(10) 0.00920 351.8 6.2
344(10) 0.01031 351.7 6.1
366(10) 0.01016 351.6 6.0
339(10) 0.01089 351.5 5.9
346(10) 0.01008 351.4 5.8
380(11) 0.00851 351.3 5.7
366(10) 0.00928 351.2 5.6
330(9) 0.01117 351.1 5.5
354(10) 0.01042 351.0 5.5
340(10) 0.01004 350.9 5.4
313(10) 0.01085 350.8 5.4
352(10) 0.00972 350.7 5.3
349(10) 0.01060 350.6 5.3
336(10) 0.01067 350.4 5.2
357(10) 0.00981 350.3 5.2
371(11) 0.00877 350.2 5.2
343(10) 0.01000 350.1 5.1
337(10) 0.01089 350.0 5.1
353(10) 0.01021 349.9 5.1
350(10) 0.00981 349.8 5.1
370(10) 0.00916 349.7 5.1
351(10) 0.00987 349.6 5.1
359(10) 0.01034 349.5 5.1
368(10) 0.00983 349.4 5.1
336(10) 0.01070 349.3 5.1
334(10) 0.01053 349.3 5.1
362(10) 0.00953 349.2 5.1
362(10) 0.01024 349.1 5.1
357(10) 0.01018 349.0 5.1
354(10) 0.00968 348.9 5.1
365(10) 0.00912 348.8 5.2
342(10) 0.01033 348.7 5.2
360(10) 0.01042 348.6 5.2
364(10) 0.00964 348.5 5.3
338(10) 0.00992 348.4 5.3
355(10) 0.00959 348.3 5.3
354(10) 0.01039 348.2 5.4
336(10) 0.01094 348.1 5.5
357(10) 0.00926 348.0 5.5
345(10) 0.00965 347.9 5.6
365(10) 0.00946 347.8 5.7
375(10) 0.00971 347.7 5.7
335(10) 0.01102 347.7 5.8
338(10) 0.01025 347.6 5.9
334(10) 0.00998 347.5 6.0
355(10) 0.00988 347.4 6.2
338(10) 0.01090 347.3 6.3
350(10) 0.01054 347.2 6.4
344(10) 0.01022 347.1 6.6
355(10) 0.00912 347.0 6.7
337(10) 0.01051 346.9 6.9
345(10) 0.01038 346.8 7.1
364(10) 0.01026 346.7 7.3
340(10) 0.01000 346.6 7.5
335(10) 0.00940 346.5 7.7
318(10) 0.01100 346.4 7.9
349(10) 0.01063 346.3 8.2
363(10) 0.01002 346.2 8.5
345(10) 0.01035 346.1 8.8
382(11) 0.00822 346.1 9.1
356(10) 0.00985 346.0 9.5
347(10) 0.01075 345.9 9.9
352(10) 0.01058 345.8 10.3
358(10) 0.00991 345.7 10.8
384(11) 0.00841 345.6 11.3
365(10) 0.00943 345.5 11.8
350(10) 0.01058 345.4 12.3
329(9) 0.01126 345.3 12.9
345(10) 0.01026 345.2 13.6
367(11) 0.00886 345.1 14.3
362(10) 0.00929 345.0 15.0
382(10) 0.00973 344.9 15.7
364(10) 0.00995 344.8 16.5
372(10) 0.00909 344.7 17.4
342(10) 0.01029 344.6 18.2
363(10) 0.00975 344.5 19.1
367(10) 0.01018 344.5 20.1
358(10) 0.00984 344.4 21.0
349(10) 0.00920 344.3 22.0
345(10) 0.00945 344.2 22.9
360(10) 0.00948 344.1 23.9
348(10) 0.01063 344.0 24.8
378(10) 0.00942 343.9 25.6
369(10) 0.00925 343.8 26.4
364(10) 0.00917 343.7 27.0
387(10) 0.00939 343.6 27.6
349(10) 0.01065 343.5 28.0
343(10) 0.00976 343.4 28.3
364(11) 0.00899 343.3 28.4
370(10) 0.00957 343.2 28.4
371(10) 0.00958 343.1 28.1
348(10) 0.01076 343.0 27.8
349(10) 0.00994 342.9 27.3
377(11) 0.00864 342.9 26.6
356(10) 0.00982 342.8 25.9
353(10) 0.01028 342.7 25.1
365(10) 0.01021 342.6 24.2
352(10) 0.00989 342.5 23.3
332(10) 0.00992 342.4 22.3
345(10) 0.01011 342.3 21.4
370(10) 0.00983 342.2 20.4
352(10) 0.01061 342.1 19.5
336(10) 0.01066 342.0 18.6
375(11) 0.00877 341.9 17.7
375(10) 0.00941 341.8 16.9
346(10) 0.01090 341.7 16.1
333(10) 0.01099 341.6 15.3
333(10) 0.01049 341.5 14.6
359(10) 0.00911 341.4 13.9
357(10) 0.00980 341.3 13.3
352(10) 0.01039 341.3 12.7
364(10) 0.01007 341.2 12.2
330(10) 0.01054 341.1 11.6
358(11) 0.00891 341.0 11.2
346(10) 0.00981 340.9 10.7
359(10) 0.01041 340.8 10.3
336(10) 0.01090 340.7 9.9
327(10) 0.01026 340.6 9.6
340(10) 0.00976 340.5 9.2
328(10) 0.01071 340.4 8.9
328(9) 0.01136 340.3 8.7
329(9) 0.01111 340.2 8.4
318(10) 0.01086 340.1 8.2
342(10) 0.00995 340.0 8.0
342(10) 0.01022 339.9 7.8
328(9) 0.01126 339.8 7.6
307(9) 0.01185 339.7 7.5
349(10) 0.00973 339.7 7.3
350(10) 0.00966 339.6 7.2
322(10) 0.01085 339.5 7.1
332(9) 0.01118 339.4 7.0
361(10) 0.00969 339.3 6.9
315(9) 0.01121 339.2 6.8
348(10) 0.00981 339.1 6.8
326(10) 0.01066 339.0 6.7
350(10) 0.01067 338.9 6.7
347(10) 0.01031 338.8 6.6
358(10) 0.00947 338.7 6.6
364(10) 0.00913 338.6 6.6
333(10) 0.01067 338.5 6.6
338(10) 0.01102 338.4 6.6
340(10) 0.00996 338.3 6.6
331(10) 0.01015 338.2 6.6
322(9) 0.01110 338.1 6.6
358(10) 0.01038 338.1 6.7
341(10) 0.01086 338.0 6.7
346(10) 0.01008 337.9 6.7
344(10) 0.00933 337.8 6.8
306(9) 0.01201 337.7 6.8
309(9) 0.01200 337.6 6.9
337(10) 0.01103 337.5 7.0
298(9) 0.01195 337.4 7.0
335(10) 0.00936 337.3 7.1
341(10) 0.01026 337.2 7.2
343(10) 0.01076 337.1 7.3
337(10) 0.01101 337.0 7.4
322(10) 0.01067 336.9 7.5
342(10) 0.00932 336.8 7.5
326(10) 0.01084 336.7 7.6
311(9) 0.01176 336.6 7.7
320(9) 0.01148 336.5 7.8
329(10) 0.01062 336.5 7.9
345(10) 0.00919 336.4 8.0
355(10) 0.00948 336.3 8.0
344(10) 0.01053 336.2 8.1
379(10) 0.00967 336.1 8.2
358(10) 0.00973 336.0 8.2
332(10) 0.00982 335.9 8.3
347(10) 0.00986 335.8 8.3
362(10) 0.01015 335.7 8.3
337(10) 0.01094 335.6 8.3
340(10) 0.01009 335.5 8.3
325(10) 0.01077 335.4 8.3
346(10) 0.01011 335.3 8.3
379(10) 0.00971 335.2 8.3
340(10) 0.01083 335.1 8.2
337(10) 0.01018 335.0 8.1
352(10) 0.00957 334.9 8.1
335(10) 0.01074 334.9 8.0
370(10) 0.00998 334.8 7.9
334(10) 0.01069 334.7 7.8
303(9) 0.01113 334.6 7.7
324(10) 0.01037 334.5 7.5
322(9) 0.01124 334.4 7.4
330(9) 0.01120 334.3 7.3
368(10) 0.00945 334.2 7.1
327(10) 0.01012 334.1 7.0
330(10) 0.01039 334.0 6.9
336(10) 0.01064 333.9 6.7
344(10) 0.01085 333.8 6.6
348(10) 0.00992 333.7 6.4
346(10) 0.00986 333.6 6.3
311(9) 0.01135 333.5 6.1
333(10) 0.01076 333.4 6.0
331(9) 0.01135 333.3 5.8
329(10) 0.01044 333.3 5.7
336(10) 0.00960 333.2 5.6
315(9) 0.01151 333.1 5.4
364(10) 0.01002 333.0 5.3
344(10) 0.01075 332.9 5.2
330(10) 0.01087 332.8 5.0
331(10) 0.01026 332.7 4.9
342(10) 0.01032 332.6 4.8
318(9) 0.01179 332.5 4.7
332(9) 0.01125 332.4 4.6
324(10) 0.01062 332.3 4.5
333(10) 0.00961 332.2 4.4
342(10) 0.01005 332.1 4.3
320(9) 0.01156 332.0 4.2
326(10) 0.01105 331.9 4.1
322(10) 0.01051 331.8 4.0
299(9) 0.01112 331.7 3.9
318(10) 0.01078 331.5 3.8
338(10) 0.01093 331.4 3.7
349(10) 0.01057 331.3 3.7
341(10) 0.01022 331.2 3.6
340(10) 0.00987 331.1 3.5
338(10) 0.01017 331.0 3.5
321(9) 0.01163 330.9 3.4
326(9) 0.01137 330.8 3.3
330(10) 0.01042 330.7 3.3
345(10) 0.00979 330.6 3.2
344(10) 0.00975 330.5 3.2
315(9) 0.01176 330.4 3.1
333(10) 0.01102 330.3 3.0
320(10) 0.01077 330.2 3.0
322(10) 0.01039 330.1 3.0
316(10) 0.01084 330.0 2.9
334(10) 0.01106 329.9 2.9
346(10) 0.01020 329.8 2.8
333(10) 0.01024 329.7 2.8
304(9) 0.01121 329.5 2.7
313(9) 0.01139 329.4 2.7
329(9) 0.01137 329.3 2.7
358(10) 0.00970 329.2 2.6
331(10) 0.01000 329.1 2.6
341(10) 0.00993 329.0 2.6
320(9) 0.01157 328.9 2.5
333(10) 0.01094 328.8 2.5
365(10) 0.00923 328.7 2.5
339(10) 0.00951 328.6 2.5
324(10) 0.01064 328.5 2.4
325(10) 0.01097 328.4 2.4
321(9) 0.01168 328.3 2.4
327(10) 0.01076 328.2 2.4
341(10) 0.00954 328.1 2.3
335(10) 0.01033 328.0 2.3
331(10) 0.01103 327.9 2.3
332(9) 0.01125 327.8 2.3
329(10) 0.01071 327.7 2.3
334(10) 0.00972 327.5 2.3
330(10) 0.01048 327.4 2.2
311(9) 0.01166 327.3 2.2
310(9) 0.01198 327.2 2.2
302(9) 0.01197 327.1 2.2
340(10) 0.00927 327.0 2.2
328(10) 0.01097 326.9 2.2
328(9) 0.01125 326.8 2.2
319(9) 0.01162 326.7 2.2
340(10) 0.01013 326.6 2.1
354(10) 0.00931 326.5 2.1
355(10) 0.00988 326.4 2.1
329(9) 0.01112 326.3 2.1
304(9) 0.01180 326.2 2.1
328(10) 0.01056 326.1 2.1
336(10) 0.00981 326.0 2.1
337(10) 0.01036 325.9 2.1
339(10) 0.01096 325.8 2.1
324(9) 0.01123 325.7 2.1
323(10) 0.01074 325.6 2.1
332(10) 0.00996 325.4 2.1
324(10) 0.01066 325.3 2.1
330(9) 0.01115 325.2 2.1
309(9) 0.01175 325.1 2.1
318(10) 0.01095 325.0 2.1
338(10) 0.01009 324.9 2.1
351(10) 0.00964 324.8 2.1
301(9) 0.01234 324.7 2.1
296(9) 0.01198 324.6 2.1
309(10) 0.01061 324.5 2.1
299(9) 0.01144 324.4 2.1
322(10) 0.01098 324.3 2.1
308(9) 0.01213 324.2 2.1
319(10) 0.01098 324.1 2.1
325(10) 0.01032 324.0 2.2
328(10) 0.01038 323.9 2.2
330(10) 0.01065 323.8 2.2
321(9) 0.01146 323.7 2.2
325(10) 0.01072 323.6 2.2
327(10) 0.01031 323.4 2.2
325(10) 0.01072 323.3 2.3
312(9) 0.01172 323.2 2.3
324(9) 0.01138 323.1 2.3
303(9) 0.01182 323.0 2.3
311(10) 0.01090 322.9 2.4
320(9) 0.01113 322.8 2.4
325(9) 0.01153 322.7 2.4
306(9) 0.01208 322.6 2.5
323(10) 0.01061 322.5 2.5
336(10) 0.00988 322.4 2.6
314(10) 0.01090 322.3 2.6
316(9) 0.01157 322.2 2.7
315(9) 0.01167 322.1 2.7
314(10) 0.01085 322.0 2.8
328(10) 0.00972 321.9 2.9
329(10) 0.01054 321.8 3.0
308(9) 0.01209 321.7 3.1
311(9) 0.01170 321.6 3.2
295(9) 0.01164 321.4 3.3
302(10) 0.01073 321.3 3.4
328(10) 0.01009 321.2 3.6
311(9) 0.01200 321.1 3.8
326(9) 0.01127 321.0 4.0
321(10) 0.01100 320.9 4.2
320(10) 0.01030 320.8 4.5
316(9) 0.01120 320.7 4.9
325(9) 0.01142 320.6 5.3
344(10) 0.01065 320.5 5.8
332(10) 0.01073 320.4 6.5
339(10) 0.00978 320.3 7.2
292(9) 0.01143 320.2 8.1
296(9) 0.01251 320.1 9.2
348(10) 0.01037 320.0 10.5
335(10) 0.01003 319.9 11.9
329(10) 0.01005 319.8 13.6
317(10) 0.01080 319.7 15.5
342(10) 0.01078 319.6 17.5
321(10) 0.01075 319.4 19.5
314(10) 0.01094 319.3 21.4
296(9) 0.01159 319.2 23.0
337(10) 0.01009 319.1 24.0
338(10) 0.01092 319.0 24.3
327(10) 0.01045 318.9 23.8
314(10) 0.01084 318.8 22.6
303(9) 0.01156 318.7 21.0
299(9) 0.01217 318.6 19.0
322(9) 0.01152 318.5 17.1
335(10) 0.01023 318.4 15.1
348(10) 0.00965 318.3 13.4
332(10) 0.01039 318.2 11.8
315(9) 0.01166 318.1 10.4
299(9) 0.01221 318.0 9.3
316(9) 0.01111 317.9 8.3
351(10) 0.00949 317.8 7.5
321(10) 0.01106 317.7 6.8
323(9) 0.01124 317.6 6.3
323(9) 0.01162 317.5 5.8
331(10) 0.01057 317.3 5.5
302(10) 0.01103 317.2 5.2
298(9) 0.01157 317.1 5.0
309(9) 0.01184 317.0 4.8
306(9) 0.01222 316.9 4.6
317(9) 0.01114 316.8 4.5
313(10) 0.01079 316.7 4.4
311(9) 0.01152 316.6 4.4
317(9) 0.01175 316.5 4.3
324(9) 0.01142 316.4 4.3
318(10) 0.01097 316.3 4.2
328(10) 0.00967 316.2 4.2
308(9) 0.01133 316.1 4.2
309(9) 0.01199 316.0 4.2
310(9) 0.01186 315.9 4.3
312(10) 0.01095 315.8 4.3
333(10) 0.00957 315.7 4.3
309(9) 0.01140 315.6 4.4
325(9) 0.01136 315.5 4.4
318(9) 0.01136 315.3 4.5
310(10) 0.01103 315.2 4.5
332(10) 0.01000 315.1 4.6
308(9) 0.01130 315.0 4.7
306(9) 0.01205 314.9 4.8
337(10) 0.01101 314.8 4.9
333(10) 0.01043 314.7 5.1
321(10) 0.01013 314.6 5.2
301(9) 0.01178 314.5 5.4
335(9) 0.01116 314.4 5.6
311(9) 0.01137 314.3 5.8
314(10) 0.01097 314.2 6.0
326(10) 0.01081 314.1 6.3
332(10) 0.01068 314.0 6.5
302(9) 0.01227 313.9 6.7
311(9) 0.01135 313.8 6.9
335(10) 0.00999 313.7 7.0
322(10) 0.01071 313.6 7.0
305(9) 0.01185 313.5 7.0
292(9) 0.01281 313.3 6.9
327(10) 0.01043 313.2 6.7
329(10) 0.01011 313.1 6.5
314(10) 0.01052 313.0 6.2
293(9) 0.01188 312.9 6.0
311(9) 0.01179 312.8 5.7
326(10) 0.01056 312.7 5.5
329(10) 0.01038 312.6 5.2
317(10) 0.01094 312.5 5.0
322(9) 0.01114 312.4 4.9
333(10) 0.01105 312.3 4.7
342(10) 0.01011 312.2 4.6
324(10) 0.00992 312.1 4.5
321(10) 0.01084 312.0 4.4
333(10) 0.01060 311.9 4.3
331(10) 0.01104 311.8 4.2
323(10) 0.01045 311.7 4.2
335(10) 0.00933 311.6 4.2
322(10) 0.01104 311.5 4.1
312(9) 0.01157 311.4 4.1
300(9) 0.01239 311.2 4.1
330(10) 0.01009 311.1 4.1
298(10) 0.01091 311.0 4.2
330(10) 0.01034 310.9 4.2
295(9) 0.01265 310.8 4.2
331(10) 0.01095 310.7 4.2
291(9) 0.01201 310.6 4.3
313(10) 0.01044 310.5 4.3
318(10) 0.01077 310.4 4.4
313(9) 0.01187 310.3 4.5
313(9) 0.01168 310.2 4.5
314(10) 0.01068 310.1 4.6
323(10) 0.00975 310.0 4.7
306(10) 0.01027 309.9 4.8
293(9) 0.01269 309.8 4.9
285(9) 0.01260 309.8 5.0
319(9) 0.01113 309.7 5.1
319(10) 0.01045 309.7 5.2
319(10) 0.01064 309.6 5.3
305(9) 0.01215 309.6 5.4
309(9) 0.01134 309.5 5.6
323(10) 0.01046 309.5 5.7
305(10) 0.01103 309.4 5.8
312(9) 0.01145 309.4 6.0
316(9) 0.01171 309.3 6.2
309(9) 0.01143 309.3 6.3
324(10) 0.01023 309.3 6.5
331(10) 0.01041 309.2 6.7
305(9) 0.01185 309.2 6.9
323(9) 0.01155 309.1 7.1
313(10) 0.01106 309.1 7.3
331(10) 0.00998 309.0 7.5
313(9) 0.01113 309.0 7.7
311(9) 0.01157 308.9 7.9
325(9) 0.01145 308.9 8.1
322(10) 0.01060 308.8 8.4
309(10) 0.01063 308.8 8.6
326(10) 0.01039 308.7 8.8
323(9) 0.01150 308.7 9.1
347(10) 0.01071 308.6 9.3
337(10) 0.01043 308.6 9.5
316(10) 0.01048 308.5 9.7
297(9) 0.01120 308.5 10.0
287(9) 0.01267 308.5 10.2
309(9) 0.01202 308.4 10.4
302(9) 0.01194 308.4 10.6
324(10) 0.01029 308.3 10.8
315(9) 0.01127 308.3 11.0
319(9) 0.01171 308.2 11.1
323(9) 0.01135 308.2 11.2
330(10) 0.01050 308.1 11.4
335(10) 0.00963 308.1 11.5
312(9) 0.01125 308.0 11.5
317(9) 0.01167 308.0 11.6
332(9) 0.01115 307.9 11.6
296(9) 0.01186 307.9 11.7
287(9) 0.01116 307.8 11.6
313(10) 0.01083 307.8 11.6
295(9) 0.01276 307.7 11.6
307(9) 0.01180 307.7 11.5
301(9) 0.01133 307.6 11.5
302(10) 0.01072 307.6 11.4
328(10) 0.01034 307.6 11.3
334(9) 0.01111 307.5 11.2
314(9) 0.01110 307.5 11.2
301(9) 0.01186 307.4 11.1
316(10) 0.01043 307.4 11.0
293(9) 0.01215 307.3 10.9
316(9) 0.01181 307.3 10.8
306(9) 0.01186 307.2 10.7
309(9) 0.01113 307.2 10.7
306(10) 0.01093 307.1 10.6
316(10) 0.01095 307.1 10.6
321(9) 0.01143 307.0 10.6
326(10) 0.01087 307.0 10.6
323(10) 0.01058 306.9 10.6
332(10) 0.00991 306.9 10.6
320(9) 0.01117 306.8 10.7
318(9) 0.01176 306.8 10.8
306(9) 0.01178 306.8 10.9
290(9) 0.01190 306.7 11.0
307(10) 0.01093 306.7 11.1
327(10) 0.01097 306.6 11.3
294(9) 0.01269 306.6 11.5
310(10) 0.01097 306.5 11.7
306(10) 0.01094 306.5 12.0
315(10) 0.01089 306.4 12.2
346(10) 0.01040 306.4 12.5
347(10) 0.01066 306.3 12.9
309(10) 0.01091 306.3 13.2
308(10) 0.01049 306.2 13.6
321(10) 0.01095 306.2 14.0
353(10) 0.01034 306.1 14.4
338(9) 0.01113 306.1 14.9
350(10) 0.00991 306.0 15.3
334(10) 0.01006 306.0 15.8
321(9) 0.01119 306.0 16.3
340(10) 0.01054 305.9 16.8
326(9) 0.01130 305.9 17.2
323(10) 0.01083 305.8 17.7
334(10) 0.00973 305.8 18.1
335(10) 0.01031 305.7 18.5
353(10) 0.01022 305.7 18.8
341(10) 0.01095 305.6 19.1
357(10) 0.00980 305.6 19.3
338(10) 0.00983 305.5 19.4
353(10) 0.00995 305.5 19.5
365(10) 0.01025 305.4 19.5
377(10) 0.00980 305.4 19.3
341(10) 0.01016 305.3 19.2
338(10) 0.00964 305.3 18.9
315(9) 0.01133 305.2 18.5
356(10) 0.01047 305.2 18.1
329(9) 0.01118 305.1 17.7
343(10) 0.01011 305.1 17.2
339(10) 0.00995 305.1 16.7
339(10) 0.01031 305.0 16.1
339(10) 0.01100 305.0 15.6
323(9) 0.01124 304.9 15.0
324(10) 0.01095 304.9 14.4
324(10) 0.01007 304.8 13.9
330(10) 0.01055 304.8 13.3
312(9) 0.01188 304.7 12.8
316(9) 0.01162 304.7 12.3
307(9) 0.01130 304.6 11.8
319(10) 0.01058 304.6 11.3
325(10) 0.01088 304.5 10.9
317(9) 0.01175 304.5 10.4
315(10) 0.01106 304.4 10.0
294(9) 0.01171 304.4 9.7
327(10) 0.01034 304.3 9.3
313(9) 0.01158 304.3 9.0
306(9) 0.01207 304.3 8.7
308(9) 0.01161 304.2 8.4
318(10) 0.01068 304.2 8.1
315(9) 0.01148 304.1 7.9
336(10) 0.01052 304.1 7.7
319(9) 0.01171 304.0 7.5
308(9) 0.01117 304.0 7.3
302(9) 0.01134 303.9 7.1
311(9) 0.01127 303.9 7.0
308(9) 0.01201 303.8 6.8
303(9) 0.01216 303.8 6.7
295(9) 0.01235 303.7 6.6
320(10) 0.01045 303.7 6.5
318(9) 0.01109 303.6 6.5
304(9) 0.01203 303.6 6.4
320(9) 0.01155 303.5 6.3
298(9) 0.01205 303.5 6.3
312(10) 0.01004 303.4 6.3
312(10) 0.01089 303.4 6.2
323(9) 0.01147 303.4 6.2
308(9) 0.01209 303.3 6.2
301(9) 0.01173 303.3 6.2
315(10) 0.01024 303.2 6.2
324(10) 0.01052 303.2 6.2
284(9) 0.01313 303.1 6.2
302(9) 0.01207 303.1 6.2
315(9) 0.01133 303.0 6.2
320(10) 0.01038 303.0 6.2
328(10) 0.01013 302.9 6.2
316(9) 0.01175 302.9 6.2
293(9) 0.01257 302.8 6.1
321(10) 0.01053 302.8 6.1
314(10) 0.01077 302.7 6.1
322(10) 0.01094 302.7 6.0
296(9) 0.01274 302.6 5.9
307(9) 0.01170 302.6 5.9
305(9) 0.01146 302.6 5.8
287(9) 0.01185 302.5 5.7
313(10) 0.01088 302.5 5.6
306(9) 0.01217 302.4 5.5
307(9) 0.01191 302.4 5.3
291(9) 0.01247 302.3 5.2
314(10) 0.01065 302.3 5.1
316(9) 0.01126 302.2 5.0
312(9) 0.01204 302.2 4.9
313(9) 0.01138 302.1 4.7
315(10) 0.01083 302.1 4.6
293(9) 0.01190 302.0 4.5
303(9) 0.01156 302.0 4.4
310(9) 0.01200 301.9 4.3
304(9) 0.01164 301.9 4.1
313(10) 0.01046 301.8 4.0
292(9) 0.01247 301.8 3.9
309(9) 0.01132 301.7 3.8
302(9) 0.01231 301.7 3.7
309(9) 0.01121 301.7 3.6
308(10) 0.01095 301.6 3.5
314(10) 0.01089 301.6 3.5
262(8) 0.01416 301.5 3.4
303(9) 0.01219 301.5 3.3
299(9) 0.01181 301.4 3.2
316(10) 0.01050 301.4 3.2
292(9) 0.01193 301.3 3.1
299(9) 0.01216 301.3 3.0
303(9) 0.01236 301.2 3.0
306(9) 0.01156 301.2 2.9
283(9) 0.01186 301.1 2.9
304(10) 0.01063 301.1 2.8
274(9) 0.01363 301.0 2.8
298(9) 0.01240 301.0 2.7
291(9) 0.01186 300.9 2.7
291(10) 0.01068 300.9 2.6
289(9) 0.01238 300.9 2.6
294(9) 0.01276 300.8 2.6
310(9) 0.01173 300.8 2.5
291(9) 0.01200 300.7 2.5
306(10) 0.01054 300.7 2.5
296(9) 0.01224 300.6 2.4
303(9) 0.01222 300.6 2.4
295(9) 0.01243 300.5 2.4
301(9) 0.01175 300.5 2.4
298(10) 0.01102 300.4 2.4
288(9) 0.01226 300.4 2.3
326(9) 0.01145 300.3 2.3
295(9) 0.01231 300.3 2.3
295(9) 0.01198 300.2 2.3
303(9) 0.01112 300.2 2.3
301(9) 0.01174 300.1 2.3
291(9) 0.01285 300.1 2.3
280(9) 0.01250 300.1 2.3
319(10) 0.01048 300.0 2.3
285(9) 0.01180 300.0 2.3
313(10) 0.01099 299.9 2.3
314(9) 0.01191 299.9 2.3
293(9) 0.01201 299.8 2.3
293(9) 0.01139 299.8 2.3
295(9) 0.01132 299.7 2.3
303(9) 0.01187 299.7 2.3
291(9) 0.01273 299.6 2.3
285(9) 0.01238 299.6 2.3
295(9) 0.01181 299.5 2.2
300(9) 0.01155 299.5 2.2
262(9) 0.01375 299.4 2.2
296(9) 0.01252 299.4 2.2
292(9) 0.01184 299.3 2.1
304(10) 0.01061 299.3 2.1
306(10) 0.01096 299.2 2.1
296(9) 0.01218 299.2 2.1
302(9) 0.01231 299.2 2.0
314(9) 0.01108 299.1 2.0
281(9) 0.01189 299.1 2.0
304(9) 0.01120 299.0 2.0
309(9) 0.01172 299.0 1.9
279(9) 0.01328 298.9 1.9
308(9) 0.01109 298.9 1.9
325(10) 0.00991 298.8 1.9
315(9) 0.01111 298.8 1.9
319(9) 0.01159 298.7 1.9
308(9) 0.01213 298.7 1.9
300(9) 0.01165 298.6 1.8
292(9) 0.01132 298.6 1.8
288(9) 0.01253 298.5 1.8
307(9) 0.01191 298.5 1.8
309(9) 0.01223 298.4 1.8
279(9) 0.01268 298.4 1.8
277(9) 0.01149 298.4 1.8
305(9) 0.01143 298.3 1.8
299(9) 0.01264 298.3 1.8
303(9) 0.01225 298.2 1.8
303(9) 0.01123 298.2 1.8
291(9) 0.01144 298.1 1.8
286(9) 0.01245 298.1 1.8
305(9) 0.01227 298.0 1.8
312(9) 0.01154 298.0 1.8
290(9) 0.01193 297.9 1.8
266(9) 0.01305 297.9 1.8
296(9) 0.01177 297.8 1.8
309(9) 0.01193 297.8 1.8
290(9) 0.01269 297.7 1.8
310(10) 0.01091 297.7 1.8
298(9) 0.01135 297.6 1.8
282(9) 0.01246 297.6 1.8
302(9) 0.01227 297.5 1.8
309(9) 0.01171 297.5 1.8
292(9) 0.01162 297.5 1.8
293(9) 0.01140 297.4 1.8
281(9) 0.01221 297.4 1.8
282(9) 0.01330 297.3 1.8
282(9) 0.01216 297.3 1.8
261(9) 0.01285 297.2 1.8
284(9) 0.01190 297.2 1.8
299(9) 0.01197 297.1 1.8
289(9) 0.01285 297.1 1.8
283(9) 0.01258 297.0 1.8
288(9) 0.01163 297.0 1.8
284(9) 0.01182 296.9 1.8
269(9) 0.01354 296.9 1.8
284(9) 0.01309 296.8 1.8
283(9) 0.01205 296.8 1.8
286(9) 0.01146 296.7 1.8
289(9) 0.01240 296.7 1.8
285(9) 0.01233 296.7 1.8
288(9) 0.01301 296.6 1.8
300(9) 0.01172 296.6 1.8
318(10) 0.01011 296.5 1.8
308(9) 0.01149 296.5 1.8
325(9) 0.01128 296.4 1.8
303(9) 0.01232 296.4 1.8
299(9) 0.01167 296.3 1.8
277(9) 0.01218 296.3 1.8
281(9) 0.01262 296.2 1.8
300(9) 0.01247 296.2 1.8
286(9) 0.01306 296.1 1.8
302(9) 0.01153 296.1 1.8
299(10) 0.01058 296.0 1.9
304(9) 0.01112 296.0 1.9
281(9) 0.01317 295.9 1.9
292(9) 0.01223 295.9 1.9
281(9) 0.01241 295.9 1.9
302(10) 0.01107 295.8 1.9
312(9) 0.01112 295.8 1.9
300(9) 0.01250 295.7 1.9
308(9) 0.01192 295.7 1.9
312(10) 0.01070 295.6 1.9
273(9) 0.01220 295.6 1.9
296(9) 0.01138 295.5 1.9
292(9) 0.01263 295.5 1.9
272(9) 0.01350 295.4 1.9
293(9) 0.01179 295.4 2.0
281(9) 0.01206 295.3 2.0
299(9) 0.01151 295.3 2.0
306(9) 0.01212 295.2 2.0
293(9) 0.01188 295.2 2.0
297(9) 0.01170 295.2 2.0
309(9) 0.01125 295.2 2.0
311(9) 0.01115 295.2 2.0
296(9) 0.01251 295.3 2.0
294(9) 0.01229 295.3 2.1
302(9) 0.01111 295.4 2.1
291(9) 0.01210 295.4 2.1
300(9) 0.01169 295.4 2.1
316(9) 0.01188 295.5 2.1
305(9) 0.01142 295.5 2.1
311(9) 0.01125 295.5 2.1
304(9) 0.01157 295.6 2.1
308(9) 0.01143 295.6 2.2
266(8) 0.01398 295.7 2.2
316(10) 0.01085 295.7 2.2
290(9) 0.01188 295.7 2.2
313(10) 0.01086 295.8 2.2
303(9) 0.01190 295.8 2.2
298(9) 0.01236 295.9 2.3
297(9) 0.01183 295.9 2.3
283(9) 0.01179 295.9 2.3
284(9) 0.01198 296.0 2.3
288(9) 0.01275 296.0 2.3
285(9) 0.01310 296.0 2.3
298(9) 0.01162 296.1 2.4
289(9) 0.01144 296.1 2.4
314(10) 0.01103 296.2 2.4
314(9) 0.01166 296.2 2.4
320(9) 0.01151 296.2 2.5
320(10) 0.01059 296.3 2.5
302(10) 0.01061 296.3 2.5
280(9) 0.01216 296.4 2.5
282(9) 0.01314 296.4 2.6
300(9) 0.01211 296.4 2.6
306(9) 0.01141 296.5 2.6
299(9) 0.01127 296.5 2.7
289(9) 0.01223 296.6 2.7
286(9) 0.01282 296.6 2.7
308(9) 0.01142 296.6 2.8
292(9) 0.01171 296.7 2.8
294(10) 0.01106 296.7 2.8
302(9) 0.01157 296.7 2.9
316(9) 0.01186 296.8 2.9
279(9) 0.01326 296.8 3.0
305(9) 0.01164 296.9 3.0
313(10) 0.01079 296.9 3.0
286(9) 0.01240 296.9 3.1
272(9) 0.01367 297.0 3.1
308(9) 0.01176 297.0 3.2
286(9) 0.01212 297.1 3.2
294(9) 0.01149 297.1 3.2
289(9) 0.01185 297.1 3.3
270(8) 0.01399 297.2 3.3
290(9) 0.01230 297.2 3.3
287(9) 0.01233 297.2 3.4
289(9) 0.01171 297.3 3.4
297(9) 0.01202 297.3 3.4
295(9) 0.01260 297.4 3.4
282(9) 0.01233 297.4 3.4
305(10) 0.01083 297.4 3.5
302(9) 0.01152 297.5 3.5
284(9) 0.01299 297.5 3.5
309(9) 0.01210 297.6 3.5
280(9) 0.01260 297.6 3.5
294(9) 0.01136 297.6 3.5
296(9) 0.01162 297.7 3.5
318(9) 0.01146 297.7 3.5
284(9) 0.01324 297.8 3.5
307(9) 0.01114 297.8 3.6
314(10) 0.01078 297.8 3.6
305(9) 0.01193 297.9 3.6
296(9) 0.01261 297.9 3.6
295(9) 0.01256 297.9 3.6
308(9) 0.01167 298.0 3.7
290(9) 0.01176 298.0 3.7
292(9) 0.01200 298.1 3.7
303(9) 0.01194 298.1 3.7
287(9) 0.01292 298.1 3.8
291(9) 0.01226 298.2 3.8
285(9) 0.01143 298.2 3.8
284(9) 0.01244 298.3 3.9
303(9) 0.01217 298.3 3.9
260(8) 0.01414 298.3 3.9
291(9) 0.01188 298.4 4.0
290(9) 0.01121 298.4 4.0
311(10) 0.01105 298.4 4.1
314(9) 0.01172 298.5 4.1
306(9) 0.01195 298.5 4.2
284(9) 0.01223 298.6 4.2
274(9) 0.01251 298.6 4.3
296(9) 0.01179 298.6 4.3
299(9) 0.01239 298.7 4.4
265(9) 0.01379 298.7 4.4
276(9) 0.01294 298.8 4.5
282(9) 0.01240 298.8 4.5
296(9) 0.01155 298.8 4.6
276(9) 0.01361 298.9 4.7
278(9) 0.01325 298.9 4.7
284(9) 0.01224 299.0 4.8
305(9) 0.01122 299.0 4.9
299(9) 0.01192 299.0 4.9
297(9) 0.01265 299.1 5.0
293(9) 0.01200 299.1 5.1
304(10) 0.01090 299.1 5.2
293(9) 0.01182 299.2 5.3
291(9) 0.01185 299.2 5.3
289(9) 0.01285 299.3 5.4
294(9) 0.01191 299.3 5.5
306(9) 0.01126 299.3 5.6
310(9) 0.01137 299.4 5.7
311(9) 0.01194 299.4 5.8
308(9) 0.01208 299.5 5.9
280(9) 0.01246 299.5 6.0
295(10) 0.01070 299.5 6.1
294(9) 0.01168 299.6 6.2
295(9) 0.01240 299.6 6.3
304(9) 0.01221 299.6 6.5
298(9) 0.01175 299.7 6.6
311(10) 0.01099 299.7 6.7
299(9) 0.01199 299.8 6.8
307(9) 0.01201 299.8 7.0
312(9) 0.01192 299.8 7.1
301(9) 0.01134 299.9 7.3
307(10) 0.01052 299.9 7.4
304(10) 0.01105 300.0 7.6
296(9) 0.01241 300.0 7.7
288(9) 0.01308 300.0 7.9
290(9) 0.01185 300.1 8.1
298(10) 0.01049 300.1 8.2
300(10) 0.01101 300.2 8.4
305(9) 0.01215 300.2 8.6
332(9) 0.01123 300.2 8.8
314(9) 0.01124 300.3 9.0
301(10) 0.01080 300.3 9.2
296(9) 0.01194 300.3 9.4
313(9) 0.01182 300.4 9.7
289(9) 0.01270 300.4 9.9
301(9) 0.01142 300.5 10.2
301(9) 0.01111 300.5 10.4
325(10) 0.01081 300.5 10.7
309(9) 0.01200 300.6 11.0
325(9) 0.01131 300.6 11.3
306(9) 0.01151 300.7 11.6
270(9) 0.01254 300.7 11.9
306(10) 0.01078 300.7 12.2
313(9) 0.01200 300.8 12.5
334(10) 0.01072 300.8 12.9
283(9) 0.01244 300.9 13.3
303(10) 0.01076 300.9 13.6
309(9) 0.01119 300.9 14.1
313(9) 0.01191 301.0 14.5
295(9) 0.01237 301.0 14.9
310(10) 0.01068 301.0 15.4
312(10) 0.01070 301.1 15.9
308(9) 0.01133 301.1 16.4
304(9) 0.01228 301.2 16.9
333(10) 0.01028 301.2 17.4
310(10) 0.01038 301.2 18.0
295(9) 0.01140 301.3 18.6
322(10) 0.01062 301.3 19.3
309(9) 0.01201 301.4 20.0
325(10) 0.01056 301.4 20.7
311(10) 0.01052 301.4 21.4
325(10) 0.01004 301.5 22.2
307(9) 0.01129 301.5 23.1
319(9) 0.01178 301.5 24.0
317(10) 0.01046 301.6 24.9
310(9) 0.01127 301.6 25.9
346(10) 0.01008 301.7 27.0
330(9) 0.01115 301.7 28.1
323(9) 0.01155 301.7 29.3
332(10) 0.01054 301.8 30.6
341(10) 0.00957 301.8 32.0
340(10) 0.01013 301.9 33.5
348(10) 0.01034 301.9 35.1
341(10) 0.01093 301.9 36.8
350(10) 0.01003 302.0 38.7
335(10) 0.00967 302.0 40.8
329(10) 0.01069 302.1 43.0
344(10) 0.01086 302.1 45.4
343(10) 0.01075 302.1 48.1
349(10) 0.01003 302.2 51.0
352(11) 0.00903 302.2 54.3
346(10) 0.00958 302.2 58.0
353(10) 0.01048 302.3 62.2
355(10) 0.01076 302.3 67.0
379(10) 0.00940 302.4 72.4
396(11) 0.00842 302.4 78.7
373(10) 0.00923 302.4 86.0
387(10) 0.00955 302.5 94.5
391(10) 0.00925 302.5 104.4
437(11) 0.00785 302.6 115.9
428(11) 0.00794 302.6 129.4
449(11) 0.00780 302.6 145.1
457(11) 0.00813 302.7 163.2
470(11) 0.00776 302.7 184.1
487(12) 0.00746 302.7 207.9
532(13) 0.00635 302.8 234.8
575(13) 0.00604 302.8 264.6
631(13) 0.00591 302.9 297.1
646(13) 0.00553 302.9 331.8
687(14) 0.00504 302.9 367.2
741(15) 0.00442 303.0 401.8
754(15) 0.00456 303.0 432.9
787(15) 0.00475 303.1 458.3
753(15) 0.00467 303.1 476.0
753(15) 0.00447 303.1 484.9
768(15) 0.00443 303.2 485.7
733(14) 0.00492 303.2 480.3
727(14) 0.00512 303.3 471.1
709(14) 0.00496 303.3 460.4
776(15) 0.00433 303.3 449.6
741(15) 0.00465 303.4 439.2
718(14) 0.00501 303.4 429.0
731(14) 0.00511 303.4 417.8
759(15) 0.00449 303.5 404.3
698(14) 0.00483 303.5 387.5
716(14) 0.00495 303.6 366.9
694(14) 0.00532 303.6 342.8
661(13) 0.00563 303.6 316.4
618(13) 0.00571 303.7 288.7
607(14) 0.00546 303.7 261.3
583(13) 0.00598 303.8 234.9
536(12) 0.00680 303.8 210.3
524(12) 0.00709 303.8 187.7
460(11) 0.00783 303.9 167.4
446(12) 0.00731 303.9 149.4
425(11) 0.00832 303.9 133.5
433(11) 0.00848 304.0 119.5
430(11) 0.00874 304.0 107.3
392(11) 0.00906 304.1 96.7
406(11) 0.00775 304.1 87.4
392(11) 0.00894 304.1 79.4
383(10) 0.00962 304.2 72.5
366(10) 0.01021 304.2 66.5
368(10) 0.00917 304.3 61.2
320(10) 0.01014 304.3 56.6
352(10) 0.00946 304.3 52.6
343(10) 0.01073 304.4 49.0
364(10) 0.00988 304.4 45.8
359(10) 0.00967 304.5 43.0
366(10) 0.00918 304.5 40.4
381(11) 0.00892 304.5 38.1
341(10) 0.01104 304.6 36.0
370(10) 0.00992 304.6 34.1
353(10) 0.00966 304.6 32.4
344(10) 0.00950 304.7 30.8
351(10) 0.00968 304.7 29.3
311(9) 0.01185 304.8 28.0
296(9) 0.01199 304.8 26.7
307(9) 0.01121 304.8 25.6
318(10) 0.01067 304.9 24.5
331(10) 0.01044 304.9 23.5
327(9) 0.01136 305.0 22.6
330(10) 0.01087 305.0 21.7
315(10) 0.01100 305.0 20.9
333(10) 0.01000 305.1 20.1
308(9) 0.01167 305.1 19.4
313(9) 0.01172 305.1 18.8
316(10) 0.01079 305.2 18.1
303(9) 0.01130 305.2 17.6
301(9) 0.01150 305.3 17.0
330(10) 0.01056 305.3 16.5
342(10) 0.01092 305.3 16.0
308(9) 0.01141 305.4 15.6
314(10) 0.01061 305.4 15.1
312(9) 0.01122 305.5 14.7
316(9) 0.01177 305.5 14.4
326(9) 0.01135 305.5 14.0
289(9) 0.01245 305.6 13.7
302(9) 0.01119 305.6 13.4
309(10) 0.01086 305.7 13.1
295(9) 0.01252 305.7 12.8
330(9) 0.01138 305.7 12.6
305(9) 0.01144 305.8 12.4
312(10) 0.01052 305.8 12.1
296(9) 0.01187 305.8 11.9
314(9) 0.01164 305.8 11.8
307(9) 0.01218 305.7 11.6
328(10) 0.01041 305.7 11.5
310(10) 0.01075 305.6 11.3
329(10) 0.01069 305.6 11.2
309(9) 0.01229 305.5 11.1
299(9) 0.01218 305.5 11.0
284(9) 0.01178 305.4 11.0
312(10) 0.01026 305.4 11.0
305(9) 0.01141 305.3 10.9
327(9) 0.01134 305.3 11.0
314(9) 0.01171 305.3 11.0
339(10) 0.01015 305.2 11.1
312(10) 0.01085 305.2 11.2
313(9) 0.01128 305.1 11.3
306(9) 0.01213 305.1 11.5
318(9) 0.01130 305.0 11.7
325(10) 0.01077 305.0 12.0
318(10) 0.01026 304.9 12.3
308(10) 0.01080 304.9 12.8
315(9) 0.01188 304.8 13.3
333(10) 0.01049 304.8 14.0
295(9) 0.01251 304.7 14.8
325(10) 0.01059 304.7 16.0
353(10) 0.00990 304.6 17.5
323(9) 0.01144 304.6 19.5
338(10) 0.01055 304.5 22.4
348(10) 0.00969 304.5 26.2
348(10) 0.00964 304.4 31.3
341(10) 0.01050 304.4 38.0
354(10) 0.01047 304.3 46.5
375(10) 0.00933 304.3 56.9
366(10) 0.00928 304.2 69.0
368(10) 0.00950 304.2 82.3
422(11) 0.00859 304.1 95.6
428(11) 0.00860 304.1 107.1
398(11) 0.00883 304.0 114.3
413(11) 0.00809 304.0 115.2
409(11) 0.00848 303.9 109.6
395(10) 0.00920 303.9 99.0
370(10) 0.00995 303.9 85.9
381(10) 0.00912 303.8 72.3
348(10) 0.00975 303.8 59.7
349(10) 0.01024 303.7 48.7
352(10) 0.01029 303.7 39.5
341(10) 0.01104 303.6 32.2
345(10) 0.00981 303.6 26.5
317(10) 0.01011 303.5 22.2
317(10) 0.01048 303.5 19.0
321(9) 0.01144 303.4 16.6
303(9) 0.01232 303.4 14.8
302(9) 0.01125 303.3 13.4
310(10) 0.01051 303.3 12.4
318(10) 0.01082 303.2 11.5
323(9) 0.01131 303.2 10.8
308(9) 0.01203 303.1 10.2
323(10) 0.01058 303.1 9.7
286(9) 0.01148 303.0 9.2
306(10) 0.01106 303.0 8.9
296(9) 0.01246 302.9 8.5
324(10) 0.01095 302.9 8.2
308(9) 0.01124 302.8 7.9
286(9) 0.01168 302.8 7.7
297(9) 0.01133 302.7 7.5
289(9) 0.01293 302.7 7.3
301(9) 0.01203 302.6 7.1
315(10) 0.01103 302.6 7.0
302(9) 0.01119 302.5 6.8
315(10) 0.01103 302.5 6.7
304(9) 0.01203 302.5 6.6
331(10) 0.01083 302.4 6.5
318(10) 0.01053 302.4 6.4
298(9) 0.01121 302.3 6.3
299(9) 0.01123 302.3 6.2
270(8) 0.01385 302.2 6.1
279(9) 0.01298 302.2 6.1
303(9) 0.01112 302.1 6.0
309(10) 0.01105 302.1 5.9
300(9) 0.01199 302.0 5.9
309(9) 0.01210 302.0 5.8
288(9) 0.01181 301.9 5.8
304(9) 0.01126 301.9 5.7
314(9) 0.01121 301.8 5.7
311(9) 0.01154 301.8 5.7
305(9) 0.01216 301.7 5.7
323(10) 0.01049 301.7 5.6
327(10) 0.01005 301.6 5.6
298(9) 0.01186 301.6 5.6
306(9) 0.01169 301.5 5.6
317(9) 0.01180 301.5 5.6
304(9) 0.01153 301.4 5.5
299(9) 0.01149 301.4 5.5
305(9) 0.01145 301.3 5.5
317(9) 0.01140 301.3 5.5
307(9) 0.01211 301.2 5.5
319(10) 0.01092 301.2 5.5
308(10) 0.01061 301.1 5.5
298(9) 0.01202 301.1 5.5
316(9) 0.01177 301.1 5.6
304(9) 0.01227 301.0 5.6
315(10) 0.01090 301.0 5.6
313(10) 0.01025 300.9 5.6
280(9) 0.01215 300.9 5.6
281(9) 0.01316 300.8 5.6
300(9) 0.01222 300.8 5.6
298(9) 0.01146 300.7 5.7
281(9) 0.01136 300.7 5.7
304(10) 0.01105 300.6 5.7
310(9) 0.01195 300.6 5.8
299(9) 0.01253 300.5 5.8
299(10) 0.01106 300.5 5.8
291(9) 0.01163 300.4 5.9
307(9) 0.01121 300.4 5.9
278(9) 0.01340 300.3 5.9
294(9) 0.01244 300.3 6.0
284(9) 0.01251 300.2 6.0
304(9) 0.01130 300.2 6.1
319(10) 0.01093 300.1 6.1
308(9) 0.01200 300.1 6.2
294(9) 0.01229 300.0 6.2
272(9) 0.01302 300.0 6.3
299(10) 0.01105 299.9 6.3
311(9) 0.01118 299.9 6.4
297(9) 0.01250 299.8 6.5
311(9) 0.01145 299.8 6.5
286(9) 0.01231 299.7 6.6
300(9) 0.01124 299.7 6.7
311(9) 0.01122 299.7 6.8
312(9) 0.01194 299.6 6.8
284(9) 0.01279 299.6 6.9
317(10) 0.01075 299.5 7.0
343(10) 0.00999 299.5 7.1
318(9) 0.01109 299.4 7.2
293(9) 0.01265 299.4 7.3
305(9) 0.01163 299.3 7.4
300(9) 0.01133 299.3 7.5
300(9) 0.01157 299.2 7.6
279(9) 0.01318 299.2 7.7
289(9) 0.01292 299.2 7.8
295(9) 0.01169 299.1 7.9
307(10) 0.01106 299.1 8.0
296(9) 0.01145 299.1 8.1
311(9) 0.01170 299.1 8.3
303(9) 0.01229 299.1 8.4
302(9) 0.01155 299.1 8.5
330(10) 0.01002 299.1 8.6
310(9) 0.01169 299.1 8.8
322(9) 0.01146 299.1 8.9
291(9) 0.01292 299.1 9.0
324(10) 0.01078 299.1 9.2
305(10) 0.01044 299.1 9.3
296(9) 0.01180 299.1 9.4
304(9) 0.01208 299.1 9.6
304(9) 0.01221 299.0 9.7
322(10) 0.01056 299.0 9.9
311(10) 0.01013 299.0 10.0
302(9) 0.01180 299.0 10.1
311(9) 0.01202 299.0 10.3
314(9) 0.01143 299.0 10.4
297(9) 0.01140 299.0 10.5
295(10) 0.01075 299.0 10.7
310(10) 0.01104 299.0 10.8
294(9) 0.01283 299.0 10.9
311(9) 0.01183 299.0 11.0
312(10) 0.01089 299.0 11.2
295(10) 0.01105 299.0 11.3
279(9) 0.01257 299.0 11.4
302(9) 0.01234 298.9 11.5
324(9) 0.01114 298.9 11.6
286(9) 0.01276 298.9 11.7
281(9) 0.01250 298.9 11.8
304(9) 0.01126 298.9 11.9
300(9) 0.01228 298.9 12.0
316(9) 0.01123 298.9 12.1
297(9) 0.01151 298.9 12.2
295(9) 0.01122 298.9 12.2
319(10) 0.01069 298.9 12.3
315(9) 0.01188 298.9 12.4
342(10) 0.01042 298.9 12.5
303(9) 0.01178 298.9 12.6
320(10) 0.01055 298.9 12.7
302(9) 0.01160 298.8 12.8
302(9) 0.01242 298.8 12.9
325(10) 0.01071 298.8 13.0
329(10) 0.00997 298.8 13.1
302(9) 0.01135 298.8 13.2
337(10) 0.01082 298.8 13.3
309(9) 0.01190 298.8 13.5
316(10) 0.01091 298.8 13.6
322(10) 0.01037 298.8 13.8
321(10) 0.01094 298.8 13.9
321(9) 0.01142 298.8 14.1
334(9) 0.01118 298.8 14.3
300(9) 0.01170 298.8 14.5
313(10) 0.01060 298.8 14.8
323(10) 0.01096 298.7 15.0
330(9) 0.01140 298.7 15.3
339(10) 0.01090 298.7 15.6
329(10) 0.01076 298.7 15.9
338(10) 0.00942 298.7 16.2
335(10) 0.01038 298.7 16.6
316(9) 0.01188 298.7 17.0
299(9) 0.01229 298.7 17.5
302(9) 0.01169 298.7 18.0
332(10) 0.00987 298.7 18.5
316(9) 0.01117 298.7 19.1
339(10) 0.01085 298.7 19.7
323(9) 0.01147 298.7 20.4
326(9) 0.01114 298.7 21.2
330(10) 0.00969 298.6 22.0
315(9) 0.01133 298.6 22.9
338(10) 0.01081 298.6 24.0
332(10) 0.01103 298.6 25.1
315(9) 0.01121 298.6 26.3
330(10) 0.00999 298.6 27.8
354(10) 0.00970 298.6 29.3
331(9) 0.01118 298.6 31.1
323(9) 0.01134 298.6 33.2
344(10) 0.01001 298.6 35.5
349(10) 0.00949 298.6 38.3
360(10) 0.00953 298.6 41.7
354(10) 0.01056 298.6 45.9
364(10) 0.01004 298.6 51.4
373(11) 0.00897 298.5 58.9
397(11) 0.00845 298.5 69.5
409(11) 0.00863 298.5 84.6
410(11) 0.00904 298.5 106.0
454(11) 0.00799 298.5 135.1
473(12) 0.00751 298.5 173.4
525(12) 0.00655 298.5 220.7
574(13) 0.00599 298.5 275.5
618(13) 0.00604 298.5 333.2
718(14) 0.00495 298.5 385.7
780(15) 0.00437 298.5 421.7
807(15) 0.00420 298.5 430.3
734(14) 0.00489 298.5 409.1
721(14) 0.00514 298.5 366.0
659(14) 0.00515 298.4 312.9
589(13) 0.00578 298.4 259.4
559(13) 0.00611 298.4 211.7
511(12) 0.00703 298.4 172.4
486(11) 0.00761 298.4 142.2
454(11) 0.00758 298.4 120.2
450(12) 0.00745 298.4 105.0
450(11) 0.00771 298.4 94.7
453(11) 0.00797 298.4 87.8
423(11) 0.00887 298.4 83.2
411(11) 0.00829 298.4 79.8
411(11) 0.00789 298.4 77.3
386(10) 0.00925 298.4 75.2
387(10) 0.00953 298.4 73.4
387(10) 0.00968 298.3 71.9
402(11) 0.00891 298.3 70.6
389(11) 0.00834 298.3 69.4
384(10) 0.00943 298.3 68.5
392(10) 0.00948 298.3 67.7
368(10) 0.00999 298.3 67.1
394(11) 0.00864 298.3 66.7
381(11) 0.00826 298.3 66.6
383(10) 0.00913 298.3 66.6
368(10) 0.01017 298.3 66.8
365(10) 0.01006 298.3 67.2
349(10) 0.00994 298.3 67.7
351(10) 0.00949 298.3 68.5
364(10) 0.00954 298.3 69.3
413(11) 0.00898 298.2 70.3
372(10) 0.00986 298.2 71.3
398(11) 0.00860 298.2 72.4
379(11) 0.00885 298.2 73.5
383(11) 0.00902 298.2 74.5
361(10) 0.01026 298.2 75.5
367(10) 0.00973 298.2 76.3
388(11) 0.00884 298.2 76.9
389(11) 0.00856 298.2 77.2
389(11) 0.00892 298.2 77.3
375(10) 0.00999 298.2 77.1
368(10) 0.00954 298.2 76.6
354(10) 0.00952 298.2 75.7
369(10) 0.00925 298.2 74.6
372(10) 0.00922 298.1 73.2
385(10) 0.00968 298.1 71.6
358(10) 0.00976 298.1 69.9
360(10) 0.00942 298.1 68.0
352(10) 0.01033 298.1 66.1
365(10) 0.01008 298.1 64.1
400(10) 0.00926 298.1 62.1
361(10) 0.00971 298.1 60.2
370(10) 0.00913 298.1 58.4
377(11) 0.00897 298.1 56.6
348(10) 0.01068 298.1 54.8
341(10) 0.01101 298.1 52.9
353(10) 0.00977 298.1 51.0
350(10) 0.00962 298.1 49.0
354(10) 0.00966 298.0 47.0
336(10) 0.01082 298.0 45.0
360(10) 0.01029 298.0 43.1
358(10) 0.00984 298.0 41.3
339(10) 0.00992 298.0 39.7
340(10) 0.01018 298.0 38.2
335(10) 0.01099 298.0 36.8
340(10) 0.01097 298.0 35.6
338(10) 0.01037 298.0 34.5
333(10) 0.00966 298.0 33.6
315(10) 0.01106 298.0 32.7
311(9) 0.01212 298.0 32.0
314(9) 0.01173 298.0 31.3
327(10) 0.01035 298.0 30.7
328(10) 0.00968 297.9 30.2
307(9) 0.01177 297.9 29.7
320(9) 0.01159 297.9 29.3
347(10) 0.01076 297.9 29.0
338(10) 0.01052 297.9 28.7
331(10) 0.01024 297.9 28.5
307(9) 0.01137 297.9 28.4
319(9) 0.01164 297.9 28.3
328(9) 0.01109 297.9 28.2
328(10) 0.01013 297.9 28.2
320(10) 0.01029 297.9 28.2
324(10) 0.01079 297.9 28.3
337(10) 0.01084 297.9 28.4
318(9) 0.01143 297.9 28.5
347(10) 0.00976 297.8 28.7
308(10) 0.01074 297.8 29.0
317(10) 0.01095 297.8 29.2
322(9) 0.01142 297.8 29.6
334(10) 0.01090 297.8 29.9
334(10) 0.01033 297.8 30.3
322(10) 0.01051 297.8 30.8
337(10) 0.01050 297.8 31.3
316(9) 0.01175 297.8 31.9
338(10) 0.01043 297.8 32.5
332(10) 0.01012 297.8 33.1
342(10) 0.01023 297.8 33.8
351(10) 0.01018 297.8 34.6
354(10) 0.01056 297.8 35.5
369(10) 0.00917 297.7 36.4
351(10) 0.00957 297.7 37.4
333(10) 0.01043 297.7 38.5
358(10) 0.01012 297.7 39.6
329(9) 0.01143 297.7 40.9
368(10) 0.00922 297.7 42.3
366(11) 0.00897 297.7 43.8
371(10) 0.00939 297.7 45.4
360(10) 0.01010 297.7 47.2
368(10) 0.01021 297.7 49.2
367(10) 0.00962 297.7 51.3
352(10) 0.00976 297.7 53.6
345(10) 0.00986 297.7 56.2
353(10) 0.01043 297.7 59.0
373(10) 0.00980 297.6 62.0
381(11) 0.00890 297.6 65.4
365(11) 0.00879 297.6 69.0
378(11) 0.00883 297.6 73.0
389(10) 0.00939 297.6 77.3
405(10) 0.00909 297.6 82.0
386(10) 0.00912 297.6 87.0
379(11) 0.00851 297.6 92.5
395(11) 0.00858 297.6 98.4
406(10) 0.00914 297.6 104.6
403(10) 0.00911 297.6 111.2
396(11) 0.00892 297.6 118.1
415(11) 0.00774 297.6 125.2
429(11) 0.00809 297.6 132.4
444(11) 0.00844 297.5 139.5
460(11) 0.00789 297.5 146.4
462(12) 0.00737 297.5 152.7
459(12) 0.00701 297.5 158.3
451(12) 0.00748 297.5 162.9
448(11) 0.00831 297.5 166.3
495(12) 0.00723 297.5 168.4
489(12) 0.00726 297.5 169.2
465(12) 0.00737 297.5 168.8
475(12) 0.00728 297.5 167.5
468(11) 0.00798 297.5 165.4
458(11) 0.00797 297.5 162.9
455(11) 0.00765 297.5 160.3
421(11) 0.00797 297.5 157.9
452(11) 0.00768 297.4 156.0
477(11) 0.00783 297.4 154.9
458(11) 0.00771 297.4 154.8
446(11) 0.00766 297.4 156.0
436(11) 0.00782 297.4 158.6
472(12) 0.00748 297.4 162.9
454(11) 0.00815 297.4 169.0
501(12) 0.00686 297.4 177.0
481(12) 0.00736 297.4 187.1
501(12) 0.00682 297.4 199.2
526(12) 0.00665 297.4 213.0
535(12) 0.00696 297.4 228.2
527(13) 0.00632 297.4 244.0
537(13) 0.00634 297.4 259.2
580(13) 0.00590 297.3 272.1
564(12) 0.00654 297.3 281.2
596(13) 0.00630 297.3 285.6
563(13) 0.00614 297.3 285.0
546(13) 0.00616 297.3 280.4
575(13) 0.00611 297.3 273.4
560(12) 0.00654 297.3 265.6
525(12) 0.00710 297.3 258.3
529(12) 0.00661 297.3 252.4
530(13) 0.00624 297.3 248.3
545(13) 0.00638 297.3 246.4
553(12) 0.00663 297.3 246.7
569(12) 0.00650 297.3 249.0
581(13) 0.00606 297.3 253.2
613(14) 0.00522 297.2 259.2
594(13) 0.00586 297.2 266.6
596(13) 0.00620 297.2 275.1
641(13) 0.00580 297.2 284.3
653(14) 0.00536 297.2 293.9
622(14) 0.00534 297.2 303.5
648(14) 0.00537 297.2 312.5
671(13) 0.00555 297.2 320.5
657(13) 0.00551 297.2 327.2
623(13) 0.00558 297.2 332.0
607(14) 0.00541 297.2 334.8
617(13) 0.00554 297.2 335.2
624(13) 0.00595 297.2 333.2
625(13) 0.00583 297.2 328.9
605(13) 0.00573 297.1 322.3
580(13) 0.00587 297.1 313.7
585(13) 0.00601 297.1 303.6
575(12) 0.00645 297.1 292.1
572(13) 0.00620 297.1 279.8
546(13) 0.00622 297.1 266.8
540(13) 0.00617 297.1 253.5
547(13) 0.00625 297.1 240.0
483(11) 0.00773 297.1 226.6
513(12) 0.00710 297.1 213.3
510(12) 0.00659 297.1 200.4
486(12) 0.00724 297.1 187.9
498(12) 0.00712 297.1 176.0
491(12) 0.00756 297.1 164.7
479(12) 0.00746 297.0 154.0
463(12) 0.00727 297.0 144.1
470(12) 0.00725 297.0 134.9
452(11) 0.00778 297.0 126.3
420(11) 0.00881 297.0 118.4
421(11) 0.00807 297.0 111.1
406(11) 0.00835 297.0 104.3
425(11) 0.00817 297.0 98.1
409(11) 0.00906 297.0 92.4
407(10) 0.00929 297.0 87.1
412(11) 0.00855 297.0 82.3
407(11) 0.00811 297.0 77.9
383(11) 0.00893 297.0 73.8
373(10) 0.00969 297.0 70.0
378(10) 0.00987 296.9 66.5
389(11) 0.00894 296.9 63.3
394(11) 0.00831 296.9 60.4
386(11) 0.00904 296.9 57.6
379(10) 0.00959 296.9 55.1
355(10) 0.01045 296.9 52.8
357(10) 0.00959 296.9 50.6
353(10) 0.00922 296.9 48.6
353(10) 0.00995 296.9 46.7
353(10) 0.01049 296.9 45.0
361(10) 0.01010 296.9 43.4
356(10) 0.00980 296.9 41.9
360(11) 0.00883 296.9 40.4
366(10) 0.00948 296.9 39.1
341(10) 0.01091 296.8 37.9
349(10) 0.01044 296.8 36.7
342(10) 0.01046 296.8 35.6
342(10) 0.00987 296.8 34.6
362(10) 0.00986 296.8 33.6
362(10) 0.01040 296.8 32.7
363(10) 0.00999 296.8 31.8
314(9) 0.01138 296.8 30.9
334(10) 0.00994 296.8 30.1
333(10) 0.01013 296.8 29.4
328(9) 0.01130 296.8 28.6
342(10) 0.01093 296.8 27.9
370(11) 0.00903 296.8 27.3
342(10) 0.00958 296.8 26.6
341(10) 0.01014 296.7 26.0
345(10) 0.01083 296.7 25.4
360(10) 0.01023 296.7 24.8
358(10) 0.00985 296.7 24.2
326(10) 0.01046 296.7 23.7
309(9) 0.01163 296.7 23.2
350(10) 0.01066 296.7 22.6
328(10) 0.01074 296.7 22.1
314(10) 0.01083 296.7 21.7
346(10) 0.01007 296.7 21.2
339(10) 0.01080 296.7 20.8
328(9) 0.01142 296.7 20.3
313(9) 0.01129 296.7 19.9
329(10) 0.01037 296.7 19.5
315(10) 0.01083 296.6 19.1
312(9) 0.01179 296.6 18.7
305(9) 0.01214 296.6 18.4
322(10) 0.01095 296.6 18.1
323(10) 0.01005 296.6 17.7
313(9) 0.01121 296.6 17.4
317(9) 0.01167 296.6 17.1
328(9) 0.01146 296.6 16.9
311(9) 0.01110 296.6 16.6
295(9) 0.01133 296.6 16.4
305(9) 0.01167 296.6 16.2
310(9) 0.01196 296.6 15.9
313(9) 0.01205 296.6 15.8
308(10) 0.01106 296.6 15.6
303(10) 0.01054 296.5 15.4
321(10) 0.01093 296.5 15.3
336(10) 0.01105 296.5 15.2
314(9) 0.01173 296.5 15.1
311(9) 0.01131 296.5 15.0
331(10) 0.00955 296.5 14.9
330(10) 0.00997 296.5 14.9
319(9) 0.01157 296.5 14.9
322(9) 0.01142 296.5 14.9
287(9) 0.01251 296.5 15.0
300(10) 0.01064 296.5 15.1
309(9) 0.01111 296.5 15.2
327(9) 0.01127 296.5 15.3
310(9) 0.01179 296.5 15.6
293(9) 0.01226 296.4 15.8
323(10) 0.01048 296.4 16.1
325(10) 0.01078 296.4 16.5
291(9) 0.01287 296.4 16.9
328(10) 0.01084 296.4 17.4
300(9) 0.01200 296.4 18.0
344(10) 0.00965 296.4 18.7
349(10) 0.01002 296.4 19.5
344(10) 0.01076 296.4 20.3
337(10) 0.01078 296.4 21.3
334(10) 0.01056 296.4 22.3
334(10) 0.01041 296.4 23.5
335(10) 0.01048 296.4 24.7
346(10) 0.01075 296.4 26.0
348(10) 0.01038 296.3 27.4
334(10) 0.01019 296.3 28.9
325(10) 0.01082 296.3 30.3
367(10) 0.00949 296.3 31.7
331(9) 0.01121 296.3 32.9
343(10) 0.00955 296.3 34.0
343(10) 0.00966 296.3 34.8
341(10) 0.00992 296.3 35.2
353(10) 0.01024 296.3 35.3
362(10) 0.01024 296.3 35.0
336(10) 0.01020 296.3 34.4
339(10) 0.01003 296.3 33.4
371(10) 0.00942 296.3 32.2
342(10) 0.01080 296.3 30.8
321(9) 0.01157 296.2 29.2
351(10) 0.00970 296.2 27.6
327(10) 0.01023 296.2 26.0
314(9) 0.01115 296.2 24.4
301(9) 0.01242 296.2 22.9
328(9) 0.01131 296.2 21.5
325(10) 0.01043 296.2 20.2
328(10) 0.00951 296.2 18.9
344(10) 0.00981 296.2 17.8
335(9) 0.01115 296.2 16.8
284(9) 0.01267 296.2 15.8
306(9) 0.01140 296.2 15.0
338(10) 0.00908 296.2 14.2
319(10) 0.01052 296.2 13.5
320(9) 0.01154 296.1 12.9
292(9) 0.01286 296.1 12.3
329(10) 0.01057 296.1 11.8
320(10) 0.01027 296.1 11.3
305(9) 0.01123 296.1 10.9
301(9) 0.01231 296.1 10.5
294(9) 0.01263 296.1 10.2
323(10) 0.01056 296.1 9.9
330(10) 0.00986 296.1 9.6
336(10) 0.01054 296.1 9.3
316(9) 0.01172 296.1 9.1
293(9) 0.01231 296.1 8.9
310(9) 0.01122 296.1 8.7
305(9) 0.01116 296.1 8.5
329(10) 0.01049 296.0 8.4
342(10) 0.01091 296.0 8.2
322(9) 0.01125 296.0 8.1
304(9) 0.01165 296.0 8.0
304(9) 0.01145 296.0 7.9
302(9) 0.01142 296.0 7.8
317(9) 0.01171 296.0 7.7
292(9) 0.01223 296.0 7.6
321(10) 0.01040 296.0 7.5
296(9) 0.01203 296.0 7.4
284(9) 0.01286 296.0 7.4
322(9) 0.01152 296.0 7.3
309(9) 0.01129 296.0 7.3
314(10) 0.01066 296.0 7.3
292(9) 0.01160 295.9 7.3
296(9) 0.01197 295.9 7.2
304(9) 0.01204 295.9 7.2
316(10) 0.01103 295.9 7.2
332(10) 0.00987 295.9 7.3
315(9) 0.01118 295.9 7.3
319(9) 0.01150 295.9 7.3
303(9) 0.01235 295.9 7.4
335(10) 0.00995 295.9 7.4
313(10) 0.01035 295.9 7.5
316(10) 0.01087 295.9 7.6
326(9) 0.01120 295.9 7.7
320(9) 0.01154 295.9 7.9
326(10) 0.01060 295.9 8.0
307(10) 0.01062 295.8 8.2
309(9) 0.01108 295.8 8.4
294(9) 0.01272 295.8 8.6
302(9) 0.01223 295.8 8.9
321(10) 0.01061 295.8 9.1
295(10) 0.01106 295.8 9.5
303(9) 0.01151 295.8 9.8
285(9) 0.01300 295.8 10.2
314(9) 0.01166 295.8 10.7
305(9) 0.01183 295.8 11.1
300(9) 0.01155 295.8 11.7
315(10) 0.01103 295.8 12.2
280(9) 0.01356 295.8 12.9
337(10) 0.01062 295.8 13.5
292(9) 0.01219 295.7 14.2
311(10) 0.01055 295.7 14.9
310(9) 0.01121 295.7 15.7
328(9) 0.01138 295.7 16.4
332(10) 0.01076 295.7 17.1
309(9) 0.01115 295.7 17.8
318(10) 0.01010 295.7 18.4
324(10) 0.01063 295.7 18.9
317(9) 0.01183 295.7 19.3
336(10) 0.01032 295.7 19.5
297(9) 0.01117 295.7 19.6
312(10) 0.01076 295.7 19.4
300(9) 0.01206 295.7 19.1
316(9) 0.01177 295.7 18.7
336(10) 0.01060 295.6 18.1
308(9) 0.01133 295.6 17.4
316(10) 0.01051 295.6 16.7
322(10) 0.01084 295.6 15.9
317(9) 0.01174 295.6 15.1
312(9) 0.01116 295.6 14.3
322(10) 0.01030 295.6 13.6
305(10) 0.01071 295.6 12.8
289(9) 0.01238 295.6 12.1
297(9) 0.01264 295.6 11.5
324(9) 0.01110 295.6 10.9
329(10) 0.01027 295.6 10.3
316(9) 0.01129 295.6 9.8
299(9) 0.01213 295.6 9.3
302(9) 0.01227 295.5 8.9
304(9) 0.01171 295.5 8.5
335(10) 0.00958 295.5 8.1
313(10) 0.01102 295.5 7.8
301(9) 0.01187 295.5 7.5
287(9) 0.01290 295.5 7.2
310(9) 0.01112 295.5 7.0
311(10) 0.01063 295.5 6.7
305(9) 0.01138 295.5 6.5
325(9) 0.01134 295.5 6.3
340(10) 0.01099 295.5 6.2
313(9) 0.01135 295.5 6.0
293(9) 0.01109 295.5 5.9
321(10) 0.01050 295.5 5.8
286(9) 0.01292 295.4 5.6
271(9) 0.01359 295.4 5.5
300(9) 0.01168 295.4 5.4
285(9) 0.01164 295.4 5.3
278(9) 0.01283 295.4 5.3
314(9) 0.01171 295.4 5.2
334(10) 0.01097 295.4 5.1
298(9) 0.01188 295.4 5.0
302(10) 0.01073 295.4 5.0
286(9) 0.01206 295.4 4.9
295(9) 0.01288 295.4 4.9
295(9) 0.01223 295.4 4.8
300(9) 0.01190 295.4 4.8
295(9) 0.01146 295.4 4.7
280(9) 0.01255 295.3 4.7
313(9) 0.01184 295.3 4.7
302(9) 0.01210 295.3 4.6
298(9) 0.01185 295.3 4.6
292(9) 0.01186 295.3 4.6
320(10) 0.01075 295.3 4.6
296(9) 0.01270 295.3 4.5
305(9) 0.01173 295.3 4.5
303(9) 0.01134 295.3 4.5
326(10) 0.00986 295.3 4.5
293(9) 0.01199 295.3 4.5
290(9) 0.01282 295.3 4.4
299(9) 0.01191 295.3 4.4
288(9) 0.01160 295.3 4.4
299(9) 0.01157 295.2 4.4
277(9) 0.01333 295.2 4.4
310(9) 0.01187 295.2 4.4
303(9) 0.01148 295.2 4.4
289(9) 0.01179 295.2 4.4
307(10) 0.01108 295.2 4.4
275(9) 0.01297 295.2 4.4
302(9) 0.01234 295.2 4.4
303(10) 0.01043 295.2 4.4
297(10) 0.01098 295.2 4.4
304(9) 0.01130 295.2 4.4
271(9) 0.01340 295.2 4.4
303(9) 0.01219 295.2 4.4
285(9) 0.01217 295.2 4.4
296(9) 0.01130 295.1 4.5
302(9) 0.01135 295.1 4.5
289(9) 0.01268 295.1 4.5
288(9) 0.01276 295.1 4.5
288(9) 0.01246 295.1 4.5
288(9) 0.01115 295.1 4.5
297(10) 0.01098 295.1 4.6
319(9) 0.01145 295.0 4.6
316(9) 0.01180 295.0 4.6
298(9) 0.01172 295.0 4.6
303(10) 0.01018 295.0 4.6
277(9) 0.01240 295.0 4.7
288(9) 0.01290 295.0 4.7
290(9) 0.01248 294.9 4.7
310(10) 0.01081 294.9 4.8
311(10) 0.01029 294.9 4.8
302(9) 0.01169 294.9 4.8
322(9) 0.01134 294.9 4.9
281(9) 0.01293 294.9 4.9
310(9) 0.01114 294.9 4.9
309(10) 0.01082 294.8 5.0
325(10) 0.01062 294.8 5.0
292(9) 0.01272 294.8 5.1
300(9) 0.01230 294.8 5.1
314(10) 0.01070 294.8 5.2
287(9) 0.01218 294.8 5.2
309(10) 0.01100 294.7 5.3
289(9) 0.01291 294.7 5.3
328(10) 0.01067 294.7 5.4
287(9) 0.01153 294.7 5.4
292(9) 0.01160 294.7 5.5
311(9) 0.01139 294.7 5.6
297(9) 0.01262 294.7 5.6
269(9) 0.01293 294.6 5.7
297(9) 0.01172 294.6 5.8
310(10) 0.01096 294.6 5.9
312(9) 0.01162 294.6 5.9
299(9) 0.01257 294.6 6.0
303(9) 0.01128 294.6 6.1
291(9) 0.01133 294.5 6.2
297(9) 0.01117 294.5 6.3
296(9) 0.01218 294.5 6.4
297(9) 0.01252 294.5 6.5
298(9) 0.01168 294.5 6.6
295(9) 0.01155 294.5 6.8
301(9) 0.01165 294.4 6.9
303(9) 0.01188 294.4 7.0
320(9) 0.01154 294.4 7.1
300(9) 0.01157 294.4 7.3
302(9) 0.01112 294.4 7.4
323(10) 0.01085 294.4 7.6
292(9) 0.01251 294.4 7.8
289(9) 0.01268 294.3 7.9
321(10) 0.01056 294.3 8.1
308(10) 0.01058 294.3 8.3
297(9) 0.01173 294.3 8.5
301(9) 0.01219 294.3 8.7
327(9) 0.01144 294.3 8.9
306(9) 0.01171 294.2 9.2
301(10) 0.01091 294.2 9.4
300(9) 0.01188 294.2 9.7
308(9) 0.01208 294.2 10.0
309(9) 0.01215 294.2 10.3
324(10) 0.01082 294.2 10.6
311(10) 0.01041 294.2 11.0
301(9) 0.01166 294.1 11.4
304(9) 0.01218 294.1 11.8
321(9) 0.01140 294.1 12.2
308(9) 0.01149 294.1 12.6
307(10) 0.01066 294.1 13.1
315(10) 0.01097 294.1 13.7
332(9) 0.01117 294.0 14.2
304(9) 0.01212 294.0 14.9
280(9) 0.01257 294.0 15.6
320(10) 0.01004 294.0 16.3
286(9) 0.01233 294.0 17.1
319(9) 0.01161 294.0 18.0
327(10) 0.01103 294.0 19.0
334(10) 0.01040 293.9 20.1
334(10) 0.00997 293.9 21.3
302(9) 0.01148 293.9 22.6
320(9) 0.01175 293.9 24.1
311(9) 0.01135 293.9 25.7
326(10) 0.01093 293.9 27.4
346(10) 0.00987 293.8 29.4
333(10) 0.01035 293.8 31.5
338(10) 0.01097 293.8 33.8
366(10) 0.00984 293.8 36.3
330(10) 0.01050 293.8 39.1
353(10) 0.00981 293.8 42.0
354(10) 0.01056 293.8 45.1
326(9) 0.01137 293.7 48.4
371(10) 0.00938 293.7 51.8
360(10) 0.00925 293.7 55.3
356(10) 0.00967 293.7 58.7
373(10) 0.00987 293.7 61.9
358(10) 0.01029 293.7 64.8
358(10) 0.00936 293.6 67.3
355(10) 0.00942 293.6 69.1
344(10) 0.01011 293.6 70.2
348(10) 0.01069 293.6 70.6
340(10) 0.01095 293.6 70.2
382(10) 0.00913 293.6 69.0
357(10) 0.00932 293.6 67.3
398(11) 0.00872 293.5 65.1
354(10) 0.01054 293.5 62.7
355(10) 0.01059 293.5 60.0
359(10) 0.00968 293.5 57.3
374(11) 0.00847 293.5 54.7
346(10) 0.00990 293.5 52.0
360(10) 0.01038 293.4 49.5
377(10) 0.00974 293.4 47.2
372(10) 0.00912 293.4 44.9
370(11) 0.00873 293.4 42.9
348(10) 0.00990 293.4 40.9
328(9) 0.01137 293.4 39.2
330(9) 0.01112 293.3 37.5
317(10) 0.01097 293.3 36.0
337(10) 0.00982 293.3 34.7
346(10) 0.01004 293.3 33.4
325(9) 0.01126 293.3 32.3
356(10) 0.01040 293.3 31.3
326(10) 0.01088 293.3 30.4
316(10) 0.01074 293.2 29.6
304(10) 0.01107 293.2 28.9
327(9) 0.01123 293.2 28.2
326(9) 0.01132 293.2 27.7
325(10) 0.01084 293.2 27.2
334(10) 0.00988 293.2 26.8
336(10) 0.01025 293.1 26.4
312(9) 0.01195 293.1 26.1
328(10) 0.01036 293.1 25.8
321(10) 0.01071 293.1 25.6
315(10) 0.01096 293.1 25.5
318(9) 0.01135 293.1 25.4
318(9) 0.01163 293.1 25.3
332(10) 0.01070 293.0 25.3
331(10) 0.01008 293.0 25.3
321(10) 0.01070 293.0 25.3
322(10) 0.01083 293.0 25.3
322(9) 0.01148 293.0 25.4
349(10) 0.00991 293.0 25.5
313(10) 0.01093 292.9 25.7
320(10) 0.01088 292.9 25.8
315(9) 0.01131 292.9 26.0
331(9) 0.01131 292.9 26.2
345(10) 0.01005 292.9 26.4
315(10) 0.01083 292.9 26.6
333(10) 0.01032 292.9 26.9
314(9) 0.01127 292.8 27.1
305(9) 0.01208 292.8 27.4
331(10) 0.01009 292.8 27.7
339(10) 0.00968 292.8 28.1
332(10) 0.01080 292.8 28.4
325(9) 0.01115 292.8 28.8
324(9) 0.01151 292.7 29.3
353(10) 0.00966 292.7 29.9
310(9) 0.01113 292.7 30.5
332(10) 0.01076 292.7 31.3
341(10) 0.01092 292.7 32.2
321(9) 0.01151 292.7 33.3
335(10) 0.01077 292.7 34.7
381(11) 0.00827 292.6 36.4
332(10) 0.01100 292.6 38.4
361(10) 0.01022 292.6 40.8
341(10) 0.01080 292.6 43.7
358(10) 0.00932 292.6 47.0
376(11) 0.00889 292.6 50.7
401(11) 0.00841 292.5 54.8
404(10) 0.00912 292.5 59.0
400(10) 0.00913 292.5 63.1
404(11) 0.00857 292.5 66.7
422(11) 0.00757 292.5 69.3
395(11) 0.00882 292.5 70.4
356(10) 0.01047 292.4 70.0
372(10) 0.00975 292.4 68.0
394(11) 0.00849 292.4 65.1
389(11) 0.00842 292.4 61.5
358(10) 0.00970 292.4 57.9
360(10) 0.01029 292.4 54.4
387(11) 0.00904 292.4 51.2
363(10) 0.00962 292.3 48.4
361(10) 0.00952 292.3 46.1
359(10) 0.00953 292.3 44.2
353(10) 0.01061 292.3 42.7
335(10) 0.01059 292.3 41.5
327(10) 0.01054 292.3 40.6
364(10) 0.00932 292.2 40.0
338(10) 0.01042 292.2 39.5
366(10) 0.01016 292.2 39.2
347(10) 0.01021 292.2 39.0
344(10) 0.00976 292.2 38.9
356(10) 0.00985 292.2 38.8
326(10) 0.01099 292.2 38.7
334(9) 0.01118 292.1 38.6
345(10) 0.00990 292.1 38.5
353(10) 0.00942 292.1 38.3
361(10) 0.00933 292.1 38.2
340(10) 0.01072 292.1 37.9
323(9) 0.01153 292.1 37.7
331(10) 0.01067 292.0 37.3
342(10) 0.00995 292.0 37.0
334(10) 0.01076 292.0 36.5
338(10) 0.01078 292.0 36.0
343(10) 0.01082 292.0 35.5
304(9) 0.01176 292.0 35.0
323(10) 0.01035 292.0 34.4
337(10) 0.01048 291.9 33.7
340(10) 0.01096 291.9 33.1
326(9) 0.01147 291.9 32.4
337(10) 0.00988 291.9 31.7
308(10) 0.01031 291.9 31.1
327(10) 0.01024 291.9 30.4
330(9) 0.01132 291.8 29.7
304(9) 0.01212 291.8 29.0
322(10) 0.01072 291.8 28.3
298(9) 0.01125 291.8 27.7
309(9) 0.01120 291.8 27.1
344(10) 0.01078 291.8 26.5
337(10) 0.01077 291.8 25.9
307(9) 0.01143 291.7 25.3
308(10) 0.01066 291.7 24.8
324(10) 0.01058 291.7 24.3
324(9) 0.01151 291.7 23.9
306(9) 0.01162 291.7 23.4
334(10) 0.01044 291.7 23.0
330(10) 0.00999 291.6 22.7
302(9) 0.01111 291.6 22.3
307(9) 0.01216 291.6 22.0
322(9) 0.01148 291.6 21.8
310(9) 0.01118 291.6 21.5
312(10) 0.01082 291.6 21.3
320(9) 0.01108 291.5 21.1
334(10) 0.01108 291.5 21.0
307(9) 0.01136 291.5 20.9
312(9) 0.01120 291.5 20.8
345(10) 0.00963 291.5 20.7
315(9) 0.01128 291.5 20.7
348(10) 0.01067 291.5 20.6
334(10) 0.01052 291.4 20.6
343(10) 0.00959 291.4 20.6
345(10) 0.00973 291.4 20.6
309(9) 0.01169 291.4 20.6
328(9) 0.01135 291.4 20.6
343(10) 0.01012 291.4 20.6
324(10) 0.00995 291.3 20.6
307(9) 0.01120 291.3 20.6
305(9) 0.01193 291.3 20.5
319(9) 0.01169 291.3 20.4
311(9) 0.01115 291.3 20.3
340(10) 0.00934 291.3 20.2
329(10) 0.01047 291.3 20.0
330(9) 0.01121 291.2 19.8
312(9) 0.01204 291.2 19.6
335(10) 0.01084 291.2 19.4
332(10) 0.01005 291.2 19.1
324(10) 0.01104 291.2 18.8
314(9) 0.01193 291.2 18.5
337(10) 0.01102 291.1 18.2
323(10) 0.01053 291.1 17.8
311(10) 0.01020 291.1 17.5
283(9) 0.01224 291.1 17.2
298(9) 0.01234 291.1 16.9
306(9) 0.01188 291.1 16.5
306(9) 0.01130 291.1 16.2
338(10) 0.00953 291.0 16.0
328(10) 0.01047 291.0 15.7
318(9) 0.01156 291.0 15.4
317(9) 0.01155 291.0 15.2
325(10) 0.01085 291.0 15.0
328(10) 0.01035 291.0 14.8
313(9) 0.01119 290.9 14.6
311(9) 0.01186 290.9 14.4
299(9) 0.01196 290.9 14.3
282(9) 0.01279 290.9 14.2
343(10) 0.00954 290.9 14.1
330(10) 0.01043 290.9 14.0
317(9) 0.01179 290.9 14.0
311(9) 0.01177 290.8 14.0
308(9) 0.01130 290.8 14.0
312(10) 0.01057 290.8 14.1
324(10) 0.01063 290.8 14.2
310(9) 0.01199 290.8 14.3
304(9) 0.01142 290.8 14.4
324(10) 0.01034 290.7 14.6
328(10) 0.01034 290.7 14.9
310(9) 0.01149 290.7 15.1
305(9) 0.01219 290.7 15.5
319(10) 0.01063 290.7 15.9
315(10) 0.01073 290.7 16.3
308(9) 0.01142 290.6 16.9
313(9) 0.01135 290.6 17.5
331(9) 0.01124 290.6 18.2
319(9) 0.01119 290.6 19.1
333(10) 0.00992 290.6 20.0
320(10) 0.01058 290.6 21.2
331(9) 0.01110 290.6 22.4
319(9) 0.01169 290.5 23.9
331(10) 0.01007 290.5 25.6
312(10) 0.01058 290.5 27.5
381(11) 0.00861 290.5 29.6
350(10) 0.01053 290.5 31.9
324(9) 0.01143 290.5 34.5
358(10) 0.00958 290.4 37.2
326(10) 0.01042 290.4 40.1
353(10) 0.00985 290.4 43.1
358(10) 0.01038 290.4 46.0
371(10) 0.01008 290.4 48.8
399(11) 0.00884 290.4 51.3
405(11) 0.00817 290.4 53.3
376(10) 0.00946 290.3 54.9
344(10) 0.01072 290.3 56.1
381(10) 0.00955 290.3 57.0
369(10) 0.00918 290.3 57.8
377(11) 0.00823 290.3 58.7
389(11) 0.00886 290.3 60.0
415(11) 0.00896 290.2 61.7
399(10) 0.00936 290.2 64.0
395(11) 0.00861 290.2 67.0
372(11) 0.00901 290.2 70.8
419(11) 0.00828 290.2 75.4
419(11) 0.00891 290.2 80.7
408(11) 0.00887 290.2 86.9
420(11) 0.00823 290.1 93.7
435(12) 0.00748 290.1 101.2
445(11) 0.00774 290.1 109.1
476(11) 0.00775 290.1 117.1
482(12) 0.00754 290.1 124.9
463(11) 0.00762 290.1 131.9
491(12) 0.00671 290.0 137.6
467(12) 0.00733 290.0 141.4
472(11) 0.00782 290.0 143.0
458(11) 0.00786 290.0 142.2
477(12) 0.00699 290.0 138.9
438(11) 0.00776 290.0 133.5
455(11) 0.00760 290.0 126.4
449(11) 0.00825 289.9 118.3
397(11) 0.00894 289.9 109.5
412(11) 0.00826 289.9 100.7
415(11) 0.00833 289.9 91.9
389(10) 0.00916 289.9 83.6
383(10) 0.00976 289.9 75.8
383(10) 0.00917 289.8 68.7
401(11) 0.00828 289.8 62.1
393(11) 0.00874 289.8 56.2
356(10) 0.00989 289.8 51.0
333(9) 0.01128 289.8 46.2
338(10) 0.00998 289.8 42.1
324(10) 0.01042 289.8 38.4
348(10) 0.01008 289.7 35.2
349(10) 0.01043 289.7 32.3
340(10) 0.01100 289.7 29.8
364(10) 0.00942 289.7 27.6
309(10) 0.01079 289.7 25.7
296(9) 0.01215 289.7 24.0
333(10) 0.01101 289.6 22.5
308(9) 0.01195 289.6 21.1
321(10) 0.01085 289.6 19.9
311(10) 0.01041 289.6 18.9
311(9) 0.01142 289.6 17.9
307(9) 0.01186 289.6 17.1
310(9) 0.01219 289.5 16.3
344(10) 0.01009 289.5 15.7
329(10) 0.01003 289.5 15.0
311(9) 0.01145 289.5 14.5
314(9) 0.01197 289.5 14.0
331(10) 0.01106 289.5 13.5
316(10) 0.01098 289.5 13.1
293(10) 0.01090 289.4 12.7
305(10) 0.01107 289.4 12.3
291(9) 0.01284 289.4 12.0
286(9) 0.01275 289.4 11.7
311(10) 0.01107 289.4 11.5
298(9) 0.01115 289.4 11.3
300(9) 0.01150 289.3 11.1
309(9) 0.01202 289.3 10.9
313(9) 0.01173 289.3 10.7
295(9) 0.01171 289.3 10.6
295(9) 0.01146 289.3 10.5
297(9) 0.01159 289.3 10.4
287(9) 0.01294 289.3 10.3
274(9) 0.01331 289.2 10.3
293(9) 0.01206 289.2 10.2
303(9) 0.01134 289.2 10.2
295(9) 0.01167 289.2 10.2
276(9) 0.01347 289.2 10.3
313(10) 0.01100 289.2 10.3
298(9) 0.01174 289.1 10.4
297(9) 0.01186 289.1 10.5
321(10) 0.01102 289.1 10.6
303(9) 0.01233 289.1 10.7
273(9) 0.01273 289.1 10.9
267(9) 0.01273 289.1 11.1
285(9) 0.01204 289.1 11.3
280(9) 0.01308 289.0 11.5
300(9) 0.01238 289.0 11.7
286(9) 0.01223 289.0 12.0
295(9) 0.01139 289.0 12.2
300(9) 0.01162 289.0 12.5
286(9) 0.01270 289.0 12.8
291(9) 0.01280 288.9 13.2
296(9) 0.01148 288.9 13.5
303(10) 0.01070 288.9 13.8
289(9) 0.01213 288.9 14.2
308(9) 0.01165 288.9 14.5
312(9) 0.01196 288.9 14.8
310(10) 0.01077 288.9 15.1
291(9) 0.01130 288.8 15.4
315(10) 0.01079 288.8 15.6
302(9) 0.01199 288.8 15.8
301(9) 0.01259 288.8 16.0
312(9) 0.01120 288.8 16.1
287(9) 0.01111 288.8 16.2
297(9) 0.01125 288.7 16.2
270(9) 0.01351 288.7 16.1
318(9) 0.01172 288.7 16.0
298(9) 0.01176 288.7 15.8
294(9) 0.01133 288.7 15.6
314(9) 0.01122 288.7 15.3
307(9) 0.01214 288.6 15.0
319(9) 0.01127 288.6 14.7
284(9) 0.01257 288.6 14.3
303(9) 0.01110 288.6 13.9
313(9) 0.01117 288.6 13.5
303(9) 0.01234 288.6 13.1
315(9) 0.01146 288.6 12.7
314(10) 0.01095 288.5 12.3
328(10) 0.01052 288.5 11.9
296(9) 0.01180 288.5 11.5
302(9) 0.01235 288.5 11.1
296(9) 0.01205 288.5 10.7
289(9) 0.01194 288.5 10.4
300(9) 0.01129 288.4 10.1
289(9) 0.01187 288.4 9.7
275(9) 0.01366 288.4 9.4
284(9) 0.01284 288.4 9.2
298(9) 0.01136 288.4 8.9
290(9) 0.01138 288.4 8.6
280(9) 0.01299 288.4 8.4
282(9) 0.01308 288.3 8.2
301(9) 0.01161 288.3 8.0
281(9) 0.01286 288.3 7.8
271(9) 0.01305 288.3 7.6
290(9) 0.01211 288.3 7.5
285(9) 0.01290 288.3 7.3
287(9) 0.01199 288.2 7.2
282(9) 0.01193 288.2 7.1
284(9) 0.01234 288.2 6.9
292(9) 0.01267 288.2 6.8
292(9) 0.01284 288.2 6.7
279(9) 0.01229 288.2 6.6
250(9) 0.01375 288.2 6.6
302(9) 0.01144 288.1 6.5
278(9) 0.01331 288.1 6.4
289(9) 0.01285 288.1 6.4
270(9) 0.01278 288.1 6.3
276(9) 0.01177 288.1 6.3
292(9) 0.01176 288.1 6.2
281(9) 0.01292 288.0 6.2
312(9) 0.01182 288.0 6.2
298(9) 0.01181 288.0 6.1
303(10) 0.01066 288.0 6.1
302(9) 0.01189 288.0 6.1
291(9) 0.01275 288.0 6.1
307(9) 0.01212 288.0 6.1
303(10) 0.01106 287.9 6.0
275(9) 0.01155 287.9 6.0
280(9) 0.01223 287.9 6.0
279(9) 0.01337 287.9 6.0
270(9) 0.01370 287.9 6.0
266(9) 0.01338 287.9 6.0
303(10) 0.01077 287.8 6.0
311(10) 0.01081 287.8 6.0
253(8) 0.01471 287.8 6.0
283(9) 0.01298 287.8 6.0
277(9) 0.01273 287.8 6.0
269(9) 0.01250 287.8 6.0
299(9) 0.01123 287.7 6.0
297(9) 0.01237 287.7 6.0
293(9) 0.01243 287.7 6.0
290(9) 0.01195 287.7 6.0
295(9) 0.01137 287.7 6.0
288(9) 0.01241 287.7 6.0
310(9) 0.01193 287.7 6.0
281(9) 0.01272 287.6 6.0
280(9) 0.01231 287.6 6.0
300(9) 0.01146 287.6 6.0
308(9) 0.01127 287.6 6.0
286(9) 0.01291 287.6 6.0
297(9) 0.01201 287.6 6.0
297(9) 0.01179 287.5 5.9
289(9) 0.01204 287.5 5.9
283(9) 0.01260 287.5 5.9
302(9) 0.01234 287.5 5.9
298(9) 0.01154 287.4 5.8
278(9) 0.01169 287.4 5.8
268(9) 0.01298 287.4 5.8
306(9) 0.01154 287.3 5.7
283(9) 0.01307 287.3 5.7
268(9) 0.01307 287.3 5.6
273(9) 0.01256 287.2 5.6
287(9) 0.01198 287.2 5.6
284(9) 0.01304 287.2 5.5
297(9) 0.01240 287.2 5.5
271(9) 0.01308 287.1 5.4
277(9) 0.01173 287.1 5.4
263(9) 0.01348 287.1 5.3
279(9) 0.01328 287.0 5.2
301(9) 0.01233 287.0 5.2
292(9) 0.01144 287.0 5.1
304(10) 0.01018 286.9 5.1
272(9) 0.01290 286.9 5.0
270(9) 0.01335 286.9 5.0
275(9) 0.01368 286.8 4.9
280(9) 0.01193 286.8 4.9
284(9) 0.01122 286.8 4.8
293(9) 0.01210 286.7 4.7
299(9) 0.01241 286.7 4.7
290(9) 0.01271 286.7 4.6
278(9) 0.01271 286.6 4.6
294(9) 0.01137 286.6 4.5
291(9) 0.01217 286.6 4.5
270(9) 0.01368 286.5 4.4
296(9) 0.01221 286.5 4.4
286(9) 0.01205 286.5 4.3
308(10) 0.01057 286.5 4.3
288(9) 0.01183 286.4 4.2
292(9) 0.01264 286.4 4.2
300(9) 0.01175 286.4 4.1
275(9) 0.01282 286.3 4.1
281(9) 0.01186 286.3 4.0
289(9) 0.01178 286.3 4.0
299(9) 0.01242 286.2 3.9
279(9) 0.01299 286.2 3.9
266(9) 0.01290 286.2 3.9
274(9) 0.01233 286.1 3.8
263(9) 0.01338 286.1 3.8
296(9) 0.01255 286.1 3.7
304(9) 0.01155 286.0 3.7
276(9) 0.01268 286.0 3.7
277(9) 0.01201 286.0 3.6
258(8) 0.01404 285.9 3.6
292(9) 0.01268 285.9 3.6
282(9) 0.01213 285.9 3.5
297(9) 0.01138 285.8 3.5
272(9) 0.01275 285.8 3.5
266(9) 0.01350 285.8 3.5
280(9) 0.01335 285.8 3.4
264(9) 0.01278 285.7 3.4
256(9) 0.01302 285.7 3.4
283(9) 0.01179 285.7 3.4
287(9) 0.01258 285.6 3.3
282(9) 0.01317 285.6 3.3
263(9) 0.01370 285.6 3.3
291(9) 0.01109 285.5 3.3
298(9) 0.01127 285.5 3.2
267(9) 0.01353 285.5 3.2
287(9) 0.01269 285.4 3.2
312(9) 0.01132 285.4 3.2
315(10) 0.01016 285.4 3.2
295(9) 0.01169 285.3 3.2
286(9) 0.01269 285.3 3.1
285(9) 0.01294 285.3 3.1
287(9) 0.01215 285.2 3.1
296(10) 0.01054 285.2 3.1
274(9) 0.01231 285.2 3.1
283(9) 0.01329 285.1 3.1
290(9) 0.01273 285.1 3.1
285(9) 0.01273 285.1 3.1
300(10) 0.01089 285.1 3.1
271(9) 0.01276 285.0 3.0
267(8) 0.01391 285.0 3.0
251(8) 0.01430 285.0 3.0
264(9) 0.01309 284.9 3.0
277(9) 0.01204 284.9 3.0
288(9) 0.01166 284.9 3.0
269(9) 0.01374 284.8 3.0
276(9) 0.01350 284.8 3.0
283(9) 0.01235 284.8 3.0
276(9) 0.01211 284.7 3.0
308(9) 0.01141 284.7 3.0
289(9) 0.01274 284.7 3.0
281(9) 0.01266 284.6 3.0
283(9) 0.01176 284.6 3.0
278(9) 0.01214 284.6 3.0
298(9) 0.01188 284.5 3.0
270(9) 0.01367 284.5 3.0
269(9) 0.01322 284.5 3.0
299(9) 0.01146 284.4 3.0
298(9) 0.01130 284.4 3.0
251(8) 0.01420 284.4 3.0
286(9) 0.01304 284.4 3.0
305(9) 0.01147 284.3 3.0
289(9) 0.01156 284.3 3.0
293(9) 0.01172 284.3 3.0
275(9) 0.01328 284.2 3.0
293(9) 0.01266 284.2 3.1
277(9) 0.01257 284.2 3.1
264(9) 0.01317 284.1 3.1
288(9) 0.01181 284.1 3.1
298(9) 0.01236 284.1 3.1
276(9) 0.01353 284.0 3.1
292(9) 0.01237 284.0 3.1
282(9) 0.01182 284.0 3.1
278(9) 0.01255 283.9 3.1
281(9) 0.01308 283.9 3.2
298(9) 0.01255 283.9 3.2
310(10) 0.01101 283.8 3.2
278(9) 0.01175 283.8 3.2
280(9) 0.01246 283.8 3.2
267(8) 0.01390 283.7 3.2
311(9) 0.01178 283.7 3.3
298(9) 0.01189 283.7 3.3
269(9) 0.01231 283.7 3.3
297(9) 0.01183 283.6 3.3
302(9) 0.01194 283.6 3.4
259(8) 0.01417 283.6 3.4
297(9) 0.01193 283.5 3.4
319(10) 0.01009 283.5 3.4
276(9) 0.01242 283.5 3.5
273(9) 0.01369 283.5 3.5
268(9) 0.01348 283.5 3.5
297(9) 0.01168 283.4 3.6
302(10) 0.01086 283.4 3.6
288(9) 0.01126 283.4 3.6
278(9) 0.01346 283.4 3.7
266(9) 0.01375 283.4 3.7
298(9) 0.01166 283.4 3.8
280(9) 0.01204 283.4 3.8
294(9) 0.01150 283.3 3.9
269(9) 0.01381 283.3 3.9
288(9) 0.01273 283.3 4.0
302(10) 0.01098 283.3 4.0
294(9) 0.01133 283.3 4.1
275(9) 0.01320 283.3 4.2
277(9) 0.01330 283.2 4.3
275(9) 0.01273 283.2 4.3
295(9) 0.01179 283.2 4.4
288(9) 0.01191 283.2 4.5
266(9) 0.01344 283.2 4.6
289(9) 0.01277 283.2 4.7
274(9) 0.01314 283.2 4.9
304(10) 0.01105 283.1 5.0
283(9) 0.01229 283.1 5.1
295(9) 0.01226 283.1 5.3
293(9) 0.01256 283.1 5.5
299(9) 0.01135 283.1 5.7
291(9) 0.01180 283.1 6.0
310(9) 0.01124 283.0 6.2
278(9) 0.01304 283.0 6.6
285(9) 0.01292 283.0 7.0
294(9) 0.01179 283.0 7.5
315(10) 0.00988 283.0 8.1
292(9) 0.01166 283.0 8.8
288(9) 0.01248 282.9 9.6
292(9) 0.01278 282.9 10.6
283(9) 0.01254 282.9 11.8
304(10) 0.01020 282.9 13.1
284(9) 0.01225 282.9 14.6
305(9) 0.01236 282.9 16.3
289(9) 0.01269 282.9 18.2
306(10) 0.01088 282.8 20.1
311(10) 0.01022 282.8 22.0
317(10) 0.01071 282.8 23.6
307(9) 0.01210 282.8 24.9
307(9) 0.01180 282.8 25.6
315(9) 0.01127 282.8 25.6
307(9) 0.01113 282.7 24.9
319(10) 0.01105 282.7 23.7
315(9) 0.01173 282.7 22.1
281(9) 0.01330 282.7 20.4
331(10) 0.01033 282.7 18.6
311(10) 0.01053 282.7 16.9
279(9) 0.01209 282.7 15.4
283(9) 0.01322 282.6 14.1
289(9) 0.01244 282.6 12.9
287(9) 0.01231 282.6 11.9
288(9) 0.01142 282.6 11.1
290(9) 0.01181 282.6 10.5
273(9) 0.01370 282.6 10.0
285(9) 0.01251 282.5 9.6
284(9) 0.01165 282.5 9.3
261(9) 0.01314 282.5 9.1
268(9) 0.01308 282.5 9.0
283(9) 0.01313 282.5 8.9
283(9) 0.01277 282.5 8.9
290(9) 0.01200 282.5 8.9
314(10) 0.01067 282.4 8.9
309(9) 0.01161 282.4 9.0
281(9) 0.01307 282.4 9.1
298(9) 0.01172 282.4 9.3
283(9) 0.01190 282.4 9.5
288(9) 0.01146 282.4 9.7
296(9) 0.01207 282.3 9.9
265(9) 0.01382 282.3 10.2
296(9) 0.01141 282.3 10.5
325(10) 0.00980 282.3 10.9
296(9) 0.01146 282.3 11.3
286(9) 0.01276 282.3 11.8
291(9) 0.01271 282.3 12.3
292(9) 0.01220 282.2 12.9
319(10) 0.01032 282.2 13.5
280(9) 0.01291 282.2 14.3
283(9) 0.01279 282.2 15.1
289(9) 0.01295 282.2 16.0
323(10) 0.01089 282.2 16.9
304(10) 0.01104 282.1 18.0
312(10) 0.01088 282.1 19.2
297(9) 0.01239 282.1 20.4
295(9) 0.01236 282.1 21.7
292(9) 0.01239 282.1 23.0
338(10) 0.00941 282.1 24.3
309(9) 0.01126 282.1 25.6
311(9) 0.01190 282.0 26.8
294(9) 0.01259 282.0 27.9
320(9) 0.01111 282.0 28.7
304(10) 0.01050 282.0 29.3
295(9) 0.01183 282.0 29.6
296(9) 0.01253 282.0 29.6
322(9) 0.01131 281.9 29.3
298(9) 0.01142 281.9 28.8
302(10) 0.01083 281.9 28.1
294(9) 0.01178 281.9 27.3
284(9) 0.01323 281.9 26.5
321(9) 0.01127 281.9 25.6
276(9) 0.01301 281.8 24.8
304(9) 0.01130 281.8 24.1
301(9) 0.01182 281.8 23.5
296(9) 0.01257 281.8 23.0
299(9) 0.01218 281.8 22.5
306(9) 0.01142 281.8 22.2
288(9) 0.01239 281.8 22.0
332(10) 0.01026 281.7 21.9
306(9) 0.01212 281.7 21.9
314(10) 0.01099 281.7 22.0
286(9) 0.01227 281.7 22.2
268(9) 0.01300 281.7 22.5
277(9) 0.01274 281.7 22.8
292(9) 0.01271 281.6 23.3
284(9) 0.01281 281.6 23.9
312(10) 0.01079 281.6 24.6
297(9) 0.01173 281.6 25.4
300(9) 0.01157 281.6 26.2
322(9) 0.01151 281.6 27.2
309(9) 0.01112 281.6 28.3
312(10) 0.01105 281.5 29.5
303(9) 0.01174 281.5 30.8
323(10) 0.01085 281.5 32.2
324(9) 0.01153 281.5 33.7
323(10) 0.01042 281.5 35.4
297(9) 0.01121 281.5 37.2
291(9) 0.01164 281.4 39.1
314(9) 0.01137 281.4 41.2
339(10) 0.01099 281.4 43.4
366(10) 0.00939 281.4 45.7
338(10) 0.00955 281.4 48.1
315(9) 0.01115 281.4 50.7
336(10) 0.01102 281.4 53.4
392(10) 0.00940 281.3 56.2
350(10) 0.01025 281.3 59.0
366(11) 0.00844 281.3 61.8
367(10) 0.00935 281.3 64.7
376(10) 0.00986 281.3 67.5
359(10) 0.01025 281.3 70.1
341(10) 0.01015 281.2 72.6
389(11) 0.00829 281.2 74.8
385(10) 0.00917 281.2 76.7
359(10) 0.01026 281.2 78.2
384(10) 0.00961 281.2 79.2
371(10) 0.00975 281.2 79.8
383(11) 0.00878 281.2 79.9
391(11) 0.00892 281.1 79.6
384(10) 0.00970 281.1 78.8
375(10) 0.00969 281.1 77.6
339(10) 0.01078 281.1 76.0
350(10) 0.00975 281.1 74.2
354(10) 0.01003 281.1 72.2
349(10) 0.01066 281.0 70.0
338(10) 0.01074 281.0 67.8
366(10) 0.00932 281.0 65.5
349(10) 0.00976 281.0 63.3
323(10) 0.01093 281.0 61.1
353(10) 0.01057 281.0 59.0
336(10) 0.01050 281.0 57.0
339(10) 0.01009 280.9 55.0
322(10) 0.01042 280.9 53.3
335(10) 0.01031 280.9 51.6
360(10) 0.01032 280.9 50.1
367(10) 0.00967 280.9 48.7
330(10) 0.01051 280.9 47.4
336(10) 0.00989 280.8 46.2
335(10) 0.01004 280.8 45.1
349(10) 0.01056 280.8 44.1
333(10) 0.01061 280.8 43.2
314(10) 0.01086 280.8 42.3
321(10) 0.01023 280.8 41.6
319(9) 0.01136 280.8 40.8
305(9) 0.01191 280.7 40.2
313(10) 0.01099 280.7 39.6
323(10) 0.01045 280.7 39.0
295(9) 0.01212 280.7 38.4
308(9) 0.01161 280.7 37.8
315(9) 0.01174 280.7 37.3
320(10) 0.01058 280.6 36.8
304(10) 0.01097 280.6 36.2
301(9) 0.01166 280.6 35.7
307(9) 0.01202 280.6 35.1
318(9) 0.01168 280.6 34.5
339(10) 0.01027 280.6 33.9
323(10) 0.00986 280.5 33.3
313(10) 0.01096 280.5 32.7
307(9) 0.01143 280.5 32.1
293(9) 0.01272 280.5 31.4
311(10) 0.01086 280.5 30.8
320(10) 0.01033 280.5 30.1
317(9) 0.01153 280.5 29.5
324(9) 0.01153 280.4 28.8
331(9) 0.01113 280.4 28.1
310(9) 0.01138 280.4 27.4
307(10) 0.01072 280.4 26.8
315(10) 0.01087 280.4 26.1
315(9) 0.01164 280.4 25.4
322(9) 0.01118 280.3 24.8
297(9) 0.01134 280.3 24.1
303(10) 0.01064 280.3 23.5
304(9) 0.01155 280.3 22.9
319(9) 0.01144 280.3 22.3
290(9) 0.01253 280.3 21.7
259(8) 0.01410 280.3 21.2
296(9) 0.01122 280.2 20.6
298(9) 0.01155 280.2 20.1
301(9) 0.01241 280.2 19.6
299(9) 0.01208 280.2 19.1
296(9) 0.01152 280.2 18.6
281(9) 0.01233 280.2 18.1
296(9) 0.01177 280.1 17.7
311(9) 0.01205 280.1 17.3
295(9) 0.01175 280.1 16.9
306(9) 0.01119 280.1 16.5
307(9) 0.01127 280.1 16.1
286(9) 0.01229 280.1 15.8
291(9) 0.01278 280.1 15.4
291(9) 0.01164 280.0 15.1
287(9) 0.01211 280.0 14.8
288(9) 0.01210 280.0 14.5
271(9) 0.01325 280.0 14.2
279(9) 0.01341 280.0 14.0
282(9) 0.01228 280.0 13.7
275(9) 0.01219 279.9 13.5
269(9) 0.01321 279.9 13.3
287(9) 0.01273 279.9 13.1
296(9) 0.01236 279.9 12.9
296(9) 0.01167 279.9 12.7
277(9) 0.01252 279.9 12.6
291(9) 0.01209 279.9 12.4
297(9) 0.01220 279.8 12.3
299(9) 0.01250 279.8 12.1
283(9) 0.01202 279.8 12.0
286(9) 0.01142 279.8 11.9
300(9) 0.01141 279.8 11.8
280(9) 0.01336 279.8 11.8
297(9) 0.01256 279.7 11.7
277(9) 0.01273 279.7 11.6
294(10) 0.01096 279.7 11.6
270(9) 0.01313 279.7 11.5
279(9) 0.01338 279.7 11.5
307(9) 0.01206 279.7 11.5
291(9) 0.01151 279.7 11.5
275(9) 0.01168 279.6 11.5
286(9) 0.01235 279.6 11.5
284(9) 0.01307 279.6 11.6
270(9) 0.01371 279.6 11.6
297(9) 0.01213 279.6 11.7
297(10) 0.01092 279.6 11.8
299(9) 0.01131 279.5 11.8
276(9) 0.01351 279.5 11.9
276(9) 0.01346 279.5 12.1
315(10) 0.01079 279.5 12.2
299(10) 0.01097 279.5 12.3
266(9) 0.01299 279.5 12.5
269(9) 0.01380 279.4 12.6
280(9) 0.01287 279.4 12.8
303(9) 0.01110 279.4 13.0
293(9) 0.01159 279.4 13.1
286(9) 0.01183 279.4 13.3
297(9) 0.01245 279.4 13.5
287(9) 0.01289 279.4 13.7
291(9) 0.01138 279.3 13.9
300(9) 0.01136 279.3 14.1
315(10) 0.01076 279.3 14.3
276(9) 0.01354 279.3 14.5
287(9) 0.01234 279.3 14.7
313(10) 0.01081 279.3 14.9
313(10) 0.01079 279.2 15.0
304(9) 0.01178 279.2 15.2
322(9) 0.01174 279.2 15.3
306(9) 0.01191 279.2 15.4
301(9) 0.01146 279.2 15.5
277(9) 0.01277 279.2 15.6
314(9) 0.01148 279.2 15.7
306(9) 0.01225 279.1 15.8
264(9) 0.01347 279.1 15.9
304(10) 0.01106 279.1 16.0
310(9) 0.01152 279.1 16.1
300(9) 0.01198 279.1 16.2
284(9) 0.01326 279.1 16.4
305(9) 0.01146 279.0 16.5
288(9) 0.01162 279.0 16.6
260(9) 0.01343 279.0 16.7
307(9) 0.01200 279.0 16.8
290(9) 0.01273 279.0 17.0
290(9) 0.01184 279.0 17.1
307(10) 0.01060 279.0 17.2
337(10) 0.01005 278.9 17.3
282(9) 0.01293 278.9 17.4
305(9) 0.01201 278.9 17.5
326(10) 0.01071 278.9 17.6
307(10) 0.01057 278.9 17.7
275(9) 0.01313 278.9 17.8
311(9) 0.01202 278.8 17.9
305(9) 0.01210 278.8 17.9
296(9) 0.01170 278.8 18.0
303(10) 0.01040 278.8 18.0
271(9) 0.01282 278.8 18.1
297(9) 0.01254 278.8 18.1
328(9) 0.01119 278.8 18.1
320(10) 0.01075 278.7 18.1
277(9) 0.01242 278.7 18.1
300(9) 0.01176 278.7 18.1
287(9) 0.01295 278.7 18.0
306(9) 0.01160 278.7 18.0
308(10) 0.01102 278.7 17.9
267(9) 0.01248 278.6 17.9
282(9) 0.01141 278.6 17.8
271(9) 0.01384 278.6 17.8
282(9) 0.01280 278.6 17.7
286(9) 0.01184 278.6 17.7
299(9) 0.01115 278.6 17.6
302(9) 0.01180 278.6 17.5
280(9) 0.01328 278.5 17.5
300(9) 0.01182 278.5 17.4
306(9) 0.01137 278.5 17.4
291(9) 0.01199 278.5 17.4
284(9) 0.01229 278.5 17.3
295(9) 0.01258 278.5 17.3
286(9) 0.01208 278.4 17.3
280(9) 0.01220 278.4 17.3
279(9) 0.01261 278.4 17.3
291(9) 0.01228 278.4 17.4
296(9) 0.01257 278.4 17.4
307(10) 0.01103 278.4 17.5
319(10) 0.01026 278.3 17.6
307(9) 0.01153 278.3 17.8
287(9) 0.01284 278.3 17.9
294(9) 0.01255 278.3 18.1
279(9) 0.01237 278.3 18.4
289(9) 0.01160 278.3 18.7
304(10) 0.01099 278.3 19.0
278(9) 0.01325 278.2 19.5
308(9) 0.01210 278.2 20.0
288(9) 0.01213 278.2 20.7
287(9) 0.01129 278.2 21.5
299(9) 0.01117 278.2 22.5
283(9) 0.01294 278.2 23.7
291(9) 0.01259 278.1 25.0
312(9) 0.01120 278.1 26.7
318(10) 0.00999 278.1 28.6
323(10) 0.01059 278.1 30.8
342(10) 0.01088 278.1 33.2
321(9) 0.01156 278.1 35.9
364(10) 0.00973 278.1 38.8
370(10) 0.00930 278.0 41.7
342(10) 0.01026 278.0 44.6
361(10) 0.01025 278.0 47.0
349(10) 0.01039 278.0 48.9
352(10) 0.00995 278.0 49.9
358(10) 0.00952 278.0 49.8
325(10) 0.01080 277.9 48.9
337(9) 0.01109 277.9 47.1
343(10) 0.01048 277.9 44.9
324(10) 0.01086 277.9 42.4
347(10) 0.00933 277.9 39.9
340(10) 0.01049 277.9 37.6
341(10) 0.01082 277.9 35.5
307(9) 0.01165 277.8 33.8
315(9) 0.01131 277.8 32.3
308(9) 0.01131 277.8 31.1
314(9) 0.01135 277.8 30.2
332(9) 0.01121 277.8 29.6
302(9) 0.01181 277.8 29.2
332(10) 0.01017 277.7 28.9
304(9) 0.01138 277.7 28.8
291(9) 0.01200 277.7 28.6
301(9) 0.01247 277.7 28.4
300(9) 0.01166 277.7 28.1
307(10) 0.01108 277.7 27.6
295(9) 0.01200 277.7 27.1
298(9) 0.01229 277.6 26.4
277(9) 0.01343 277.6 25.7
289(9) 0.01190 277.6 25.0
301(10) 0.01091 277.6 24.4
320(10) 0.01041 277.6 23.7
307(9) 0.01174 277.6 23.1
301(9) 0.01252 277.5 22.6
307(9) 0.01111 277.5 22.1
292(9) 0.01162 277.5 21.7
315(10) 0.01088 277.5 21.4
317(9) 0.01175 277.5 21.0
296(9) 0.01235 277.5 20.8
307(10) 0.01099 277.5 20.6
307(10) 0.01098 277.4 20.4
284(9) 0.01252 277.4 20.2
271(9) 0.01360 277.4 20.1
290(9) 0.01283 277.4 20.0
314(9) 0.01141 277.4 19.9
270(9) 0.01234 277.4 19.9
288(9) 0.01205 277.3 19.9
298(9) 0.01263 277.3 19.9
300(9) 0.01213 277.3 19.9
265(9) 0.01338 277.3 20.0
303(10) 0.01039 277.3 20.0
281(9) 0.01213 277.3 20.1
284(9) 0.01308 277.2 20.2
269(9) 0.01326 277.2 20.4
289(9) 0.01211 277.2 20.5
301(10) 0.01050 277.2 20.7
281(9) 0.01269 277.2 20.9
292(9) 0.01279 277.2 21.1
305(9) 0.01195 277.2 21.3
308(10) 0.01102 277.1 21.5
286(9) 0.01140 277.1 21.7
272(9) 0.01277 277.1 21.9
278(9) 0.01324 277.1 22.2
285(9) 0.01245 277.1 22.4
305(9) 0.01108 277.1 22.7
308(9) 0.01116 277.0 22.9
309(9) 0.01163 277.0 23.1
274(9) 0.01356 277.0 23.3
285(9) 0.01237 277.0 23.5
303(9) 0.01110 277.0 23.7
301(9) 0.01108 277.0 23.8
277(9) 0.01308 277.0 23.9
307(9) 0.01214 276.9 24.0
330(10) 0.01073 276.9 24.1
313(10) 0.01092 276.9 24.2
294(9) 0.01188 276.9 24.3
300(9) 0.01205 276.9 24.4
310(9) 0.01201 276.9 24.5
311(10) 0.01074 276.8 24.6
293(9) 0.01157 276.8 24.7
295(9) 0.01230 276.8 24.9
291(9) 0.01255 276.8 25.0
319(9) 0.01157 276.8 25.3
316(10) 0.01031 276.8 25.5
294(10) 0.01105 276.8 25.8
294(9) 0.01160 276.7 26.2
309(9) 0.01171 276.7 26.5
285(9) 0.01265 276.7 26.8
308(9) 0.01157 276.7 27.1
302(10) 0.01105 276.7 27.4
312(9) 0.01121 276.7 27.6
305(9) 0.01215 276.6 27.7
308(9) 0.01207 276.6 27.7
324(10) 0.01084 276.6 27.6
303(9) 0.01110 276.6 27.6
293(9) 0.01180 276.6 27.5
327(9) 0.01131 276.6 27.6
297(9) 0.01258 276.6 27.8
312(9) 0.01123 276.5 28.2
310(10) 0.01064 276.5 28.8
332(10) 0.01010 276.5 29.8
290(9) 0.01306 276.5 31.1
314(9) 0.01183 276.5 32.7
334(10) 0.01041 276.5 34.7
336(10) 0.00945 276.4 37.2
311(9) 0.01121 276.4 40.0
342(10) 0.01082 276.4 43.1
327(9) 0.01114 276.4 46.5
359(10) 0.00970 276.4 49.9
340(10) 0.01008 276.4 53.1
347(10) 0.00979 276.4 55.7
366(10) 0.01012 276.3 57.5
351(10) 0.01015 276.3 58.4
362(10) 0.00946 276.3 58.5
352(10) 0.00937 276.3 58.0
343(10) 0.00995 276.3 57.2
339(10) 0.01090 276.3 56.3
326(10) 0.01089 276.2 55.3
366(10) 0.00930 276.2 54.2
342(10) 0.01006 276.2 53.1
337(10) 0.01079 276.2 51.9
345(10) 0.01078 276.2 50.6
329(10) 0.01071 276.2 49.1
336(10) 0.01015 276.2 47.5
323(10) 0.01073 276.1 45.8
305(9) 0.01189 276.1 44.1
336(9) 0.01109 276.1 42.3
326(10) 0.01097 276.1 40.6
298(9) 0.01152 276.1 38.9
310(10) 0.01093 276.1 37.3
323(9) 0.01110 276.0 35.8
295(9) 0.01269 276.0 34.4
288(9) 0.01194 276.0 33.3
308(9) 0.01119 276.0 32.2
309(9) 0.01144 276.0 31.4
286(9) 0.01244 276.0 30.7
294(9) 0.01277 275.9 30.2
287(9) 0.01232 275.9 29.9
296(9) 0.01144 275.9 29.7
293(9) 0.01208 275.9 29.7
305(9) 0.01210 275.9 29.9
308(9) 0.01199 275.9 30.2
318(10) 0.01037 275.9 30.8
331(10) 0.00993 275.8 31.5
311(9) 0.01158 275.8 32.3
319(9) 0.01158 275.8 33.4
303(9) 0.01215 275.8 34.6
317(10) 0.01085 275.8 36.0
339(10) 0.00924 275.8 37.5
352(10) 0.00966 275.7 39.2
328(9) 0.01137 275.7 41.1
311(9) 0.01205 275.7 43.0
308(9) 0.01108 275.7 45.1
341(10) 0.00950 275.7 47.3
348(10) 0.01012 275.7 49.5
328(9) 0.01134 275.7 51.7
343(10) 0.01078 275.6 53.8
333(10) 0.01036 275.6 55.9
310(10) 0.01085 275.6 57.7
329(10) 0.01026 275.6 59.3
301(9) 0.01227 275.6 60.6
318(10) 0.01096 275.6 61.6
315(9) 0.01137 275.5 62.2
345(10) 0.00986 275.5 62.4
334(10) 0.01052 275.5 62.2
348(10) 0.01071 275.5 61.5
302(9) 0.01210 275.5 60.4
321(10) 0.01081 275.5 58.8
334(10) 0.01057 275.5 56.8
332(10) 0.01064 275.4 54.5
312(9) 0.01194 275.4 52.0
309(9) 0.01134 275.4 49.3
300(9) 0.01141 275.4 46.5
305(9) 0.01122 275.4 43.7
300(9) 0.01199 275.4 40.9
308(9) 0.01193 275.3 38.2
304(9) 0.01134 275.3 35.7
294(9) 0.01168 275.3 33.3
311(10) 0.01047 275.3 31.1
285(9) 0.01288 275.3 29.0
287(9) 0.01298 275.3 27.1
284(9) 0.01220 275.3 25.4
298(9) 0.01120 275.2 23.8
311(10) 0.01085 275.2 22.3
309(9) 0.01175 275.2 21.0
287(9) 0.01311 275.2 19.8
296(9) 0.01117 275.2 18.8
293(9) 0.01111 275.2 17.8
282(9) 0.01207 275.1 16.9
270(9) 0.01369 275.1 16.1
278(9) 0.01326 275.1 15.4
282(9) 0.01233 275.1 14.8
280(9) 0.01145 275.1 14.2
283(9) 0.01212 275.1 13.7
271(9) 0.01339 275.1 13.2
277(9) 0.01344 275.0 12.8
275(9) 0.01271 275.0 12.4
268(9) 0.01210 275.0 12.1
288(9) 0.01238 275.0 11.8
290(9) 0.01282 275.0 11.6
286(9) 0.01288 275.0 11.3
280(9) 0.01261 274.9 11.1
282(9) 0.01154 274.9 11.0
286(9) 0.01222 274.9 10.9
296(9) 0.01271 274.9 10.8
281(9) 0.01295 274.9 10.7
269(9) 0.01341 274.9 10.7
284(9) 0.01205 274.8 10.6
294(9) 0.01194 274.8 10.7
287(9) 0.01296 274.8 10.7
284(9) 0.01282 274.8 10.8
293(9) 0.01179 274.8 10.9
305(10) 0.01099 274.8 11.1
270(9) 0.01257 274.8 11.2
287(9) 0.01286 274.7 11.4
295(9) 0.01208 274.7 11.7
267(9) 0.01299 274.7 11.9
293(10) 0.01087 274.7 12.2
283(9) 0.01208 274.7 12.5
276(9) 0.01358 274.7 12.7
267(9) 0.01350 274.6 13.0
269(9) 0.01323 274.6 13.3
280(9) 0.01227 274.6 13.5
293(9) 0.01219 274.6 13.7
272(9) 0.01375 274.6 13.9
304(9) 0.01145 274.6 13.9
304(9) 0.01147 274.6 13.9
317(10) 0.01081 274.5 13.9
284(9) 0.01267 274.5 13.7
273(9) 0.01357 274.5 13.5
272(9) 0.01295 274.5 13.2
264(9) 0.01271 274.5 12.8
270(9) 0.01285 274.5 12.5
286(9) 0.01239 274.4 12.1
242(8) 0.01531 274.4 11.7
291(9) 0.01191 274.4 11.3
278(9) 0.01183 274.4 10.9
296(9) 0.01120 274.4 10.5
271(9) 0.01353 274.4 10.2
278(9) 0.01325 274.4 9.8
259(8) 0.01404 274.3 9.5
266(9) 0.01186 274.3 9.2
273(9) 0.01182 274.3 9.0
267(9) 0.01347 274.3 8.7
249(8) 0.01485 274.3 8.5
268(9) 0.01278 274.3 8.3
281(9) 0.01155 274.2 8.2
279(9) 0.01255 274.2 8.0
282(9) 0.01321 274.2 7.9
257(8) 0.01470 274.2 7.8
274(9) 0.01276 274.2 7.7
276(9) 0.01213 274.2 7.6
286(9) 0.01231 274.2 7.5
310(9) 0.01183 274.2 7.5
281(9) 0.01320 274.2 7.4
269(9) 0.01276 274.2 7.4
275(9) 0.01184 274.2 7.4
262(9) 0.01358 274.2 7.4
269(8) 0.01388 274.2 7.4
271(9) 0.01337 274.2 7.4
288(9) 0.01247 274.2 7.4
279(9) 0.01229 274.3 7.5
286(9) 0.01178 274.3 7.5
271(9) 0.01370 274.3 7.6
265(9) 0.01376 274.3 7.6
267(9) 0.01301 274.3 7.7
268(9) 0.01289 274.3 7.8
287(9) 0.01182 274.3 7.9
267(8) 0.01388 274.3 8.0
267(9) 0.01352 274.3 8.1
257(9) 0.01307 274.3 8.2
285(9) 0.01216 274.4 8.3
276(9) 0.01313 274.4 8.5
271(9) 0.01365 274.4 8.7
271(9) 0.01252 274.4 8.8
264(9) 0.01314 274.4 9.0
289(9) 0.01210 274.4 9.2
298(9) 0.01227 274.4 9.4
282(9) 0.01311 274.4 9.7
262(9) 0.01338 274.4 9.9
282(9) 0.01160 274.5 10.2
264(9) 0.01378 274.5 10.5
290(9) 0.01211 274.5 10.8
272(8) 0.01395 274.5 11.1
278(9) 0.01292 274.5 11.5
285(9) 0.01132 274.5 11.9
267(9) 0.01276 274.5 12.3
280(9) 0.01289 274.5 12.7
280(9) 0.01317 274.5 13.2
269(9) 0.01298 274.5 13.8
286(10) 0.01100 274.6 14.3
258(9) 0.01332 274.6 14.9
310(9) 0.01176 274.6 15.6
278(9) 0.01342 274.6 16.3
279(9) 0.01283 274.6 17.0
290(9) 0.01130 274.6 17.8
294(9) 0.01149 274.6 18.6
301(9) 0.01223 274.6 19.6
293(9) 0.01260 274.6 20.5
276(9) 0.01243 274.6 21.6
289(10) 0.01107 274.7 22.7
292(9) 0.01200 274.7 23.8
273(9) 0.01372 274.7 25.1
276(9) 0.01321 274.7 26.4
289(9) 0.01180 274.7 27.7
293(10) 0.01091 274.7 29.2
285(9) 0.01244 274.7 30.7
283(9) 0.01313 274.7 32.3
318(9) 0.01129 274.7 33.9
326(10) 0.01098 274.7 35.5
337(10) 0.00997 274.8 37.2
321(10) 0.01054 274.8 38.9
336(10) 0.01105 274.8 40.6
333(10) 0.01055 274.8 42.3
334(10) 0.01011 274.8 43.8
317(10) 0.01074 274.8 45.3
317(10) 0.01104 274.8 46.7
316(9) 0.01177 274.8 47.9
307(9) 0.01170 274.8 48.9
340(10) 0.01014 274.8 49.7
326(10) 0.01034 274.9 50.2
301(9) 0.01117 274.9 50.4
302(9) 0.01221 274.9 50.4
314(9) 0.01115 274.9 50.1
325(10) 0.00993 274.9 49.6
312(9) 0.01112 274.9 48.8
309(9) 0.01154 274.9 47.8
337(10) 0.01104 274.9 46.5
312(9) 0.01117 274.9 45.2
326(10) 0.01043 274.9 43.7
320(10) 0.01089 275.0 42.1
308(9) 0.01156 275.0 40.5
320(9) 0.01175 275.0 38.8
290(9) 0.01232 275.0 37.1
307(10) 0.01078 275.0 35.4
306(10) 0.01091 275.0 33.8
313(9) 0.01171 275.0 32.2
301(9) 0.01239 275.0 30.7
274(9) 0.01275 275.0 29.2
279(9) 0.01198 275.1 27.8
301(9) 0.01172 275.1 26.4
290(9) 0.01271 275.1 25.1
315(9) 0.01186 275.1 23.9
308(9) 0.01154 275.1 22.8
296(9) 0.01128 275.1 21.7
286(9) 0.01251 275.1 20.7
294(9) 0.01266 275.1 19.8
296(9) 0.01256 275.1 18.9
288(9) 0.01218 275.1 18.1
273(9) 0.01165 275.2 17.3
299(9) 0.01164 275.2 16.6
301(9) 0.01225 275.2 16.0
279(9) 0.01332 275.2 15.3
274(9) 0.01274 275.2 14.8
274(9) 0.01199 275.2 14.2
291(9) 0.01207 275.2 13.8
271(9) 0.01380 275.2 13.3
260(8) 0.01385 275.2 12.9
296(9) 0.01120 275.2 12.5
277(9) 0.01251 275.3 12.2
293(9) 0.01209 275.3 11.8
299(9) 0.01239 275.3 11.5
279(9) 0.01294 275.3 11.3
284(9) 0.01267 275.3 11.0
284(9) 0.01211 275.3 10.8
276(9) 0.01318 275.3 10.6
285(9) 0.01281 275.3 10.4
256(8) 0.01393 275.3 10.2
258(9) 0.01376 275.3 10.1
297(9) 0.01117 275.4 10.0
284(9) 0.01228 275.4 9.9
297(9) 0.01228 275.4 9.8
299(9) 0.01208 275.4 9.7
301(9) 0.01150 275.4 9.6
283(9) 0.01205 275.4 9.6
275(9) 0.01273 275.4 9.5
278(9) 0.01332 275.4 9.5
303(9) 0.01149 275.4 9.5
289(9) 0.01191 275.4 9.5
275(9) 0.01281 275.5 9.5
275(9) 0.01283 275.5 9.6
281(9) 0.01316 275.5 9.6
263(9) 0.01307 275.5 9.7
284(9) 0.01161 275.5 9.8
265(9) 0.01315 275.5 9.9
289(9) 0.01258 275.5 10.0
294(9) 0.01267 275.5 10.2
288(9) 0.01188 275.5 10.3
277(9) 0.01208 275.5 10.5
284(9) 0.01184 275.6 10.8
285(9) 0.01287 275.6 11.0
285(9) 0.01298 275.6 11.3
286(9) 0.01156 275.6 11.6
280(9) 0.01171 275.6 12.0
292(9) 0.01161 275.6 12.4
281(9) 0.01340 275.6 12.8
304(9) 0.01205 275.6 13.3
300(9) 0.01161 275.6 13.8
295(10) 0.01019 275.7 14.4
286(9) 0.01231 275.7 15.1
295(9) 0.01253 275.7 15.8
282(9) 0.01313 275.7 16.6
307(9) 0.01126 275.7 17.4
285(9) 0.01141 275.7 18.3
313(10) 0.01084 275.7 19.3
330(9) 0.01109 275.7 20.4
293(9) 0.01265 275.7 21.6
282(9) 0.01303 275.7 22.9
275(9) 0.01259 275.8 24.2
299(10) 0.01107 275.8 25.7
306(9) 0.01211 275.8 27.2
290(9) 0.01280 275.8 28.8
305(9) 0.01160 275.8 30.4
311(10) 0.01102 275.8 32.1
302(9) 0.01155 275.8 33.7
342(10) 0.01100 275.8 35.4
339(10) 0.01020 275.8 36.9
303(9) 0.01132 275.8 38.3
319(10) 0.01052 275.9 39.6
316(9) 0.01127 275.9 40.6
295(9) 0.01267 275.9 41.3
314(9) 0.01153 275.9 41.7
325(10) 0.01046 275.9 41.8
309(9) 0.01117 275.9 41.6
323(10) 0.01080 275.9 41.0
298(9) 0.01253 275.9 40.1
292(9) 0.01179 275.9 39.0
288(9) 0.01130 275.9 37.7
308(10) 0.01097 276.0 36.2
303(9) 0.01190 276.0 34.7
297(9) 0.01246 276.0 33.1
276(9) 0.01271 276.0 31.5
303(9) 0.01121 276.0 29.9
298(9) 0.01144 276.0 28.4
303(9) 0.01180 276.0 26.9
297(9) 0.01253 276.0 25.5
310(10) 0.01099 276.0 24.2
286(9) 0.01171 276.0 23.0
301(9) 0.01210 276.1 21.9
317(9) 0.01136 276.1 20.9
289(9) 0.01301 276.1 20.0
283(9) 0.01222 276.1 19.1
284(9) 0.01150 276.1 18.4
293(9) 0.01167 276.1 17.7
290(9) 0.01286 276.1 17.1
280(9) 0.01327 276.1 16.6
281(9) 0.01237 276.1 16.1
272(9) 0.01199 276.1 15.7
274(9) 0.01330 276.2 15.4
270(9) 0.01360 276.2 15.1
266(8) 0.01395 276.2 14.9
274(9) 0.01269 276.2 14.7
289(10) 0.01097 276.2 14.6
287(9) 0.01201 276.2 14.5
289(9) 0.01278 276.2 14.4
284(9) 0.01320 276.2 14.4
294(9) 0.01183 276.2 14.5
287(9) 0.01115 276.3 14.6
279(9) 0.01276 276.3 14.7
317(9) 0.01170 276.3 14.8
301(9) 0.01225 276.3 15.0
286(9) 0.01203 276.3 15.2
296(9) 0.01126 276.3 15.4
306(9) 0.01154 276.3 15.7
304(9) 0.01207 276.3 15.9
301(9) 0.01162 276.3 16.2
276(9) 0.01266 276.3 16.5
279(9) 0.01202 276.4 16.9
295(9) 0.01125 276.4 17.2
310(9) 0.01196 276.4 17.5
294(9) 0.01238 276.4 17.9
314(10) 0.01075 276.4 18.2
299(9) 0.01141 276.4 18.6
302(9) 0.01147 276.4 18.9
284(9) 0.01321 276.4 19.2
292(9) 0.01215 276.4 19.5
311(10) 0.01106 276.4 19.7
300(9) 0.01169 276.5 19.9
284(9) 0.01261 276.5 20.1
312(9) 0.01198 276.5 20.2
291(9) 0.01214 276.5 20.3
282(9) 0.01207 276.5 20.3
316(10) 0.01064 276.5 20.3
331(10) 0.01099 276.5 20.2
343(10) 0.01076 276.5 20.1
324(10) 0.01093 276.5 19.9
302(9) 0.01115 276.5 19.7
299(9) 0.01132 276.6 19.4
263(8) 0.01414 276.6 19.1
286(9) 0.01301 276.6 18.8
307(9) 0.01111 276.6 18.5
280(9) 0.01124 276.6 18.1
291(9) 0.01180 276.6 17.8
276(9) 0.01313 276.6 17.4
290(9) 0.01262 276.6 17.0
292(9) 0.01209 276.6 16.6
303(10) 0.01086 276.6 16.2
292(9) 0.01245 276.7 15.8
291(9) 0.01268 276.7 15.4
269(9) 0.01349 276.7 15.0
268(9) 0.01310 276.7 14.6
296(9) 0.01113 276.7 14.3
299(9) 0.01195 276.7 13.9
314(9) 0.01210 276.7 13.5
283(9) 0.01257 276.7 13.2
276(9) 0.01276 276.7 12.9
296(9) 0.01185 276.8 12.5
291(9) 0.01243 276.8 12.2
296(9) 0.01243 276.8 12.0
271(9) 0.01359 276.8 11.7
276(9) 0.01199 276.8 11.4
290(9) 0.01135 276.8 11.2
280(9) 0.01263 276.8 11.0
292(9) 0.01274 276.8 10.8
271(9) 0.01371 276.8 10.6
279(9) 0.01265 276.8 10.4
276(9) 0.01202 276.9 10.2
273(9) 0.01236 276.9 10.1
284(9) 0.01292 276.9 10.0
299(9) 0.01219 276.9 9.9
294(9) 0.01151 276.9 9.8
305(10) 0.01070 276.9 9.7
272(9) 0.01321 276.9 9.6
281(9) 0.01332 276.9 9.6
264(9) 0.01378 276.9 9.6
276(9) 0.01212 276.9 9.5
275(9) 0.01264 277.0 9.5
283(9) 0.01276 277.0 9.5
256(8) 0.01439 277.0 9.6
285(9) 0.01183 277.0 9.6
283(9) 0.01195 277.0 9.7
271(9) 0.01314 277.0 9.7
292(9) 0.01212 277.0 9.8
276(9) 0.01339 277.0 9.9
289(9) 0.01205 277.0 10.0
297(9) 0.01149 277.0 10.1
273(9) 0.01279 277.1 10.3
278(9) 0.01321 277.1 10.4
276(9) 0.01339 277.1 10.6
314(10) 0.01099 277.1 10.8
321(10) 0.01029 277.1 11.0
283(9) 0.01244 277.1 11.2
267(9) 0.01377 277.1 11.4
275(9) 0.01346 277.1 11.7
283(9) 0.01224 277.1 12.0
293(10) 0.01097 277.1 12.2
281(9) 0.01235 277.2 12.5
299(9) 0.01226 277.2 12.9
280(9) 0.01334 277.2 13.2
286(9) 0.01210 277.2 13.6
280(9) 0.01134 277.2 13.9
264(9) 0.01297 277.2 14.3
294(9) 0.01278 277.2 14.7
312(9) 0.01180 277.2 15.1
295(9) 0.01186 277.2 15.6
292(9) 0.01127 277.2 16.0
297(9) 0.01141 277.3 16.5
297(9) 0.01248 277.3 16.9
269(9) 0.01317 277.3 17.4
286(9) 0.01201 277.3 17.9
297(9) 0.01115 277.3 18.4
312(9) 0.01117 277.3 18.9
297(9) 0.01249 277.3 19.3
277(9) 0.01329 277.3 19.8
266(9) 0.01339 277.3 20.2
289(9) 0.01162 277.4 20.7
274(9) 0.01266 277.4 21.1
280(9) 0.01321 277.4 21.5
307(9) 0.01167 277.4 21.8
289(9) 0.01231 277.4 22.1
303(9) 0.01124 277.4 22.3
283(9) 0.01293 277.4 22.5
312(9) 0.01189 277.4 22.7
286(9) 0.01251 277.4 22.8
308(10) 0.01065 277.4 22.8
284(9) 0.01247 277.5 22.8
285(9) 0.01238 277.5 22.7
290(9) 0.01280 277.5 22.6
291(9) 0.01149 277.5 22.4
299(9) 0.01128 277.5 22.1
283(9) 0.01203 277.5 21.8
279(9) 0.01304 277.5 21.5
291(9) 0.01273 277.5 21.1
313(10) 0.01041 277.5 20.7
285(9) 0.01188 277.5 20.3
283(9) 0.01227 277.6 19.8
314(9) 0.01136 277.6 19.3
289(9) 0.01289 277.6 18.9
284(9) 0.01192 277.6 18.4
296(10) 0.01097 277.6 17.9
299(9) 0.01121 277.6 17.4
282(9) 0.01315 277.6 16.9
270(9) 0.01373 277.6 16.4
294(9) 0.01152 277.6 15.9
264(9) 0.01246 277.6 15.5
291(9) 0.01190 277.7 15.0
278(9) 0.01306 277.7 14.6
274(9) 0.01381 277.7 14.2
283(9) 0.01286 277.7 13.8
307(10) 0.01027 277.7 13.4
292(9) 0.01168 277.7 13.0
300(9) 0.01235 277.7 12.7
286(9) 0.01292 277.7 12.3
290(9) 0.01196 277.7 12.0
281(9) 0.01163 277.7 11.7
279(9) 0.01243 277.8 11.4
277(9) 0.01350 277.8 11.1
286(9) 0.01278 277.8 10.9
291(9) 0.01162 277.8 10.6
278(9) 0.01193 277.8 10.4
277(9) 0.01240 277.8 10.2
267(8) 0.01390 277.8 10.0
283(9) 0.01250 277.8 9.8
277(9) 0.01286 277.8 9.6
275(9) 0.01214 277.8 9.4
297(9) 0.01149 277.9 9.3
263(8) 0.01413 277.9 9.1
274(9) 0.01354 277.9 9.0
297(9) 0.01167 277.9 8.9
286(9) 0.01190 277.9 8.8
299(9) 0.01128 277.9 8.7
283(9) 0.01317 277.9 8.6
261(9) 0.01372 277.9 8.5
308(10) 0.01096 277.9 8.4
295(9) 0.01116 278.0 8.3
294(9) 0.01207 278.0 8.3
278(9) 0.01341 278.0 8.2
282(9) 0.01241 278.0 8.2
291(9) 0.01174 278.0 8.1
307(9) 0.01159 278.0 8.1
303(9) 0.01220 278.0 8.1
272(9) 0.01367 278.0 8.1
269(9) 0.01273 278.0 8.0
261(9) 0.01244 278.0 8.0
278(9) 0.01231 278.1 8.0
291(9) 0.01237 278.1 8.0
281(9) 0.01326 278.1 8.0
290(9) 0.01190 278.1 8.0
258(9) 0.01344 278.1 8.0
291(9) 0.01146 278.1 8.0
270(9) 0.01357 278.1 8.0
284(9) 0.01309 278.1 8.1
271(9) 0.01242 278.1 8.1
266(9) 0.01198 278.1 8.1
270(9) 0.01321 278.2 8.1
281(9) 0.01315 278.2 8.2
283(9) 0.01301 278.2 8.2
271(9) 0.01342 278.2 8.2
294(10) 0.01077 278.2 8.3
267(9) 0.01325 278.2 8.3
279(9) 0.01321 278.2 8.3
299(9) 0.01243 278.2 8.4
272(9) 0.01311 278.2 8.4
282(9) 0.01142 278.2 8.5
281(9) 0.01237 278.2 8.6
278(9) 0.01353 278.2 8.6
265(8) 0.01393 278.2 8.7
290(9) 0.01170 278.2 8.8
255(9) 0.01338 278.2 8.9
264(9) 0.01331 278.2 9.0
289(9) 0.01282 278.2 9.1
270(9) 0.01365 278.2 9.2
268(9) 0.01277 278.2 9.3
277(9) 0.01189 278.2 9.4
278(9) 0.01232 278.2 9.5
281(9) 0.01328 278.2 9.7
274(9) 0.01309 278.2 9.8
287(9) 0.01168 278.2 9.9
272(9) 0.01281 278.2 10.1
287(9) 0.01246 278.2 10.3
278(9) 0.01336 278.2 10.4
303(9) 0.01153 278.2 10.6
292(9) 0.01203 278.2 10.8
284(9) 0.01199 278.2 10.9
275(9) 0.01301 278.2 11.1
279(9) 0.01345 278.2 11.3
273(9) 0.01271 278.2 11.4
267(9) 0.01256 278.2 11.6
273(9) 0.01226 278.2 11.7
280(9) 0.01273 278.2 11.9
286(9) 0.01309 278.2 12.0
289(9) 0.01216 278.2 12.1
289(9) 0.01134 278.2 12.2
297(9) 0.01183 278.2 12.3
289(9) 0.01284 278.2 12.4
270(9) 0.01369 278.2 12.4
285(9) 0.01175 278.2 12.5
261(9) 0.01264 278.2 12.5
284(9) 0.01195 278.2 12.5
276(9) 0.01340 278.2 12.6
282(9) 0.01325 278.2 12.6
290(9) 0.01172 278.2 12.6
283(9) 0.01173 278.2 12.6
269(9) 0.01337 278.2 12.7
291(9) 0.01275 278.2 12.7
299(9) 0.01229 278.2 12.7
295(9) 0.01109 278.2 12.8
285(9) 0.01128 278.2 12.8
276(9) 0.01281 278.2 12.9
314(9) 0.01177 278.2 13.0
296(9) 0.01245 278.2 13.1
279(9) 0.01222 278.2 13.2
270(9) 0.01156 278.2 13.4
276(9) 0.01225 278.2 13.5
279(9) 0.01333 278.2 13.7
292(9) 0.01251 278.2 13.9
302(9) 0.01177 278.2 14.1
279(9) 0.01182 278.2 14.4
285(9) 0.01180 278.2 14.7
255(8) 0.01454 278.2 15.0
291(9) 0.01264 278.2 15.3
307(9) 0.01137 278.2 15.7
303(10) 0.01102 278.2 16.1
311(9) 0.01109 278.2 16.6
306(9) 0.01225 278.2 17.1
287(9) 0.01270 278.2 17.8
299(9) 0.01154 278.2 18.6
305(10) 0.01092 278.2 19.6
277(9) 0.01264 278.2 20.8
280(9) 0.01313 278.2 22.3
292(9) 0.01237 278.2 24.3
297(9) 0.01156 278.2 26.8
296(9) 0.01122 278.2 29.8
305(9) 0.01134 278.2 33.4
313(9) 0.01179 278.2 37.6
292(9) 0.01233 278.2 42.2
303(9) 0.01149 278.2 47.1
312(10) 0.01099 278.2 51.9
316(9) 0.01109 278.2 56.0
329(9) 0.01126 278.2 58.8
329(10) 0.01038 278.2 59.7
311(10) 0.01071 278.2 58.6
305(9) 0.01135 278.2 55.8
311(9) 0.01137 278.2 51.8
305(9) 0.01214 278.2 47.4
299(10) 0.01102 278.2 43.0
290(9) 0.01117 278.2 38.9
311(10) 0.01088 278.2 35.3
294(9) 0.01256 278.2 32.2
319(9) 0.01168 278.2 29.7
297(9) 0.01126 278.2 27.8
290(9) 0.01128 278.2 26.2
318(10) 0.01065 278.2 25.0
299(9) 0.01204 278.2 24.1
275(9) 0.01350 278.2 23.3
303(9) 0.01115 278.2 22.7
279(9) 0.01241 278.2 22.2
324(10) 0.01036 278.2 21.7
292(9) 0.01280 278.2 21.2
284(9) 0.01279 278.2 20.8
297(9) 0.01177 278.2 20.4
284(9) 0.01177 278.2 20.0
296(9) 0.01178 278.2 19.6
291(9) 0.01271 278.2 19.2
292(9) 0.01244 278.2 18.8
284(9) 0.01293 278.2 18.4
315(10) 0.01014 278.2 18.0
298(9) 0.01187 278.2 17.6
294(9) 0.01239 278.2 17.2
283(9) 0.01299 278.2 16.8
310(10) 0.01090 278.2 16.4
308(9) 0.01123 278.2 16.1
326(10) 0.01047 278.2 15.7
287(9) 0.01297 278.2 15.3
305(9) 0.01197 278.2 15.0
300(9) 0.01195 278.2 14.6
304(10) 0.01077 278.2 14.3
268(9) 0.01271 278.2 13.9
300(9) 0.01226 278.2 13.6
299(9) 0.01228 278.2 13.3
288(9) 0.01227 278.2 13.0
295(10) 0.01087 278.2 12.7
286(9) 0.01199 278.2 12.4
271(9) 0.01360 278.2 12.1
275(9) 0.01321 278.2 11.8
269(9) 0.01299 278.2 11.6
271(9) 0.01262 278.2 11.3
294(9) 0.01199 278.2 11.1
292(9) 0.01284 278.2 10.8
276(9) 0.01285 278.2 10.6
259(9) 0.01341 278.2 10.4
274(9) 0.01251 278.2 10.2
289(9) 0.01231 278.2 10.0
281(9) 0.01305 278.2 9.8
264(9) 0.01305 278.2 9.6
287(9) 0.01160 278.2 9.5
298(9) 0.01134 278.2 9.3
268(9) 0.01380 278.2 9.1
290(9) 0.01285 278.2 9.0
296(9) 0.01144 278.2 8.9
275(9) 0.01222 278.2 8.7
279(9) 0.01270 278.2 8.6
276(9) 0.01352 278.2 8.5
277(9) 0.01329 278.2 8.4
255(8) 0.01407 278.2 8.3
296(10) 0.01050 278.2 8.2
279(9) 0.01173 278.2 8.1
281(9) 0.01287 278.2 8.0
279(9) 0.01318 278.2 7.9
257(9) 0.01314 278.2 7.8
269(9) 0.01168 278.2 7.8
273(9) 0.01286 278.2 7.7
269(9) 0.01329 278.2 7.7
267(9) 0.01361 278.2 7.6
269(9) 0.01269 278.2 7.6
257(9) 0.01276 278.2 7.5
287(9) 0.01221 278.2 7.5
298(9) 0.01234 278.2 7.5
267(9) 0.01383 278.2 7.4
273(9) 0.01300 278.2 7.4
276(9) 0.01189 278.2 7.4
272(9) 0.01278 278.2 7.4
293(9) 0.01270 278.2 7.4
263(8) 0.01398 278.2 7.4
283(9) 0.01195 278.2 7.4
262(9) 0.01242 278.2 7.4
278(9) 0.01243 278.2 7.4
297(9) 0.01242 278.2 7.4
301(9) 0.01219 278.2 7.5
262(9) 0.01333 278.2 7.5
260(9) 0.01301 278.2 7.5
278(9) 0.01231 278.2 7.6
285(9) 0.01298 278.2 7.6
286(9) 0.01226 278.2 7.6
269(9) 0.01262 278.2 7.7
309(10) 0.01058 278.2 7.7
277(9) 0.01319 278.2 7.8
289(9) 0.01282 278.2 7.9
278(9) 0.01281 278.2 8.0
287(9) 0.01192 278.2 8.1
270(9) 0.01319 278.2 8.2
260(9) 0.01378 278.2 8.3
289(9) 0.01299 278.2 8.4
300(9) 0.01195 278.2 8.6
280(9) 0.01221 278.2 8.8
265(9) 0.01349 278.2 9.0
300(9) 0.01224 278.2 9.2
289(9) 0.01275 278.2 9.5
264(9) 0.01360 278.2 9.9
313(10) 0.01001 278.2 10.3
267(9) 0.01370 278.2 10.8
299(9) 0.01239 278.2 11.5
302(9) 0.01222 278.2 12.4
313(10) 0.01063 278.2 13.6
278(9) 0.01166 278.2 15.1
293(9) 0.01145 278.2 17.0
319(9) 0.01142 278.2 19.4
324(9) 0.01166 278.2 22.4
311(9) 0.01163 278.2 26.0
328(10) 0.00998 278.2 30.2
296(9) 0.01217 278.2 35.0
318(9) 0.01152 278.2 40.3
323(9) 0.01167 278.2 45.7
330(10) 0.01059 278.2 50.9
327(10) 0.00991 278.2 55.2
352(10) 0.00994 278.2 58.0
336(9) 0.01108 278.2 58.8
348(10) 0.01049 278.2 57.3
316(9) 0.01131 278.2 53.8
334(10) 0.01011 278.2 49.1
324(10) 0.01064 278.2 43.8
295(9) 0.01250 278.2 38.4
304(9) 0.01229 278.2 33.3
303(9) 0.01145 278.2 28.6
272(9) 0.01197 278.2 24.6
292(9) 0.01167 278.2 21.2
315(9) 0.01178 278.2 18.4
306(9) 0.01151 278.2 16.1
283(9) 0.01213 278.2 14.4
297(9) 0.01121 278.2 13.0
293(9) 0.01156 278.2 11.9
269(9) 0.01375 278.2 11.1
299(9) 0.01202 278.2 10.4
295(9) 0.01188 278.2 9.9
271(9) 0.01285 278.2 9.5
270(9) 0.01271 278.2 9.1
260(8) 0.01435 278.2 8.9
285(9) 0.01231 278.2 8.6
287(9) 0.01220 278.2 8.4
291(9) 0.01181 278.2 8.2
281(9) 0.01246 278.2 8.1
275(9) 0.01362 278.2 7.9
244(9) 0.01380 278.2 7.8
294(9) 0.01113 278.2 7.7
270(9) 0.01294 278.2 7.6
294(9) 0.01199 278.2 7.5
266(8) 0.01390 278.2 7.4
264(9) 0.01270 278.2 7.3
273(9) 0.01177 278.2 7.2
282(9) 0.01217 278.2 7.2
278(9) 0.01310 278.2 7.1
287(9) 0.01298 278.2 7.0
293(9) 0.01203 278.2 7.0
275(9) 0.01194 278.2 6.9
277(9) 0.01214 278.2 6.9
277(9) 0.01335 278.2 6.8
276(9) 0.01366 278.2 6.8
283(9) 0.01245 278.2 6.7
251(9) 0.01384 278.2 6.7
283(9) 0.01230 278.2 6.6
282(9) 0.01296 278.2 6.6
274(9) 0.01356 278.2 6.5
261(9) 0.01336 278.2 6.5
267(9) 0.01192 278.2 6.5
283(9) 0.01243 278.2 6.4
272(9) 0.01347 278.2 6.4
283(9) 0.01300 278.2 6.4
309(10) 0.01080 278.2 6.3
279(9) 0.01155 278.2 6.3
269(9) 0.01279 278.2 6.3
282(9) 0.01322 278.2 6.3
284(9) 0.01278 278.2 6.3
288(9) 0.01160 278.2 6.3
283(9) 0.01156 278.2 6.3
277(9) 0.01227 278.2 6.4
291(9) 0.01283 278.2 6.5
267(9) 0.01348 278.2 6.6
274(9) 0.01333 278.2 6.7
291(9) 0.01161 278.2 6.9
281(9) 0.01251 278.2 7.2
277(9) 0.01318 278.2 7.4
309(9) 0.01183 278.2 7.8
303(9) 0.01135 278.2 8.1
294(9) 0.01162 278.2 8.5
294(9) 0.01205 278.2 8.9
300(9) 0.01234 278.2 9.2
287(9) 0.01223 278.2 9.4
285(9) 0.01136 278.2 9.4
292(9) 0.01150 278.2 9.3
284(9) 0.01238 278.2 9.0
288(9) 0.01292 278.2 8.6
282(9) 0.01232 278.2 8.2
284(9) 0.01221 278.2 7.8
287(9) 0.01244 278.2 7.3
302(9) 0.01192 278.2 6.9
267(8) 0.01385 278.2 6.6
269(9) 0.01310 278.2 6.3
256(9) 0.01353 278.2 6.0
265(9) 0.01337 278.2 5.8
266(9) 0.01341 278.2 5.6
286(9) 0.01313 278.2 5.5
297(9) 0.01114 278.2 5.4
246(8) 0.01407 278.2 5.3
279(9) 0.01277 278.2 5.2
296(9) 0.01255 278.2 5.1
257(8) 0.01464 278.2 5.1
278(9) 0.01267 278.2 5.0
288(9) 0.01130 278.2 5.0
297(9) 0.01154 278.2 5.0
250(8) 0.01479 278.2 4.9
270(9) 0.01366 278.2 4.9
278(9) 0.01227 278.2 4.9
265(9) 0.01226 278.2 4.9
270(9) 0.01351 278.2 4.9
269(8) 0.01397 278.2 4.9
270(9) 0.01367 278.2 4.9
292(9) 0.01189 278.2 4.9
245(8) 0.01415 278.2 4.9
285(9) 0.01189 278.2 4.9
292(9) 0.01286 278.2 4.9
289(9) 0.01273 278.2 4.9
284(9) 0.01211 278.2 4.9
278(9) 0.01189 278.2 4.9
277(9) 0.01255 278.2 5.0
278(9) 0.01339 278.2 5.0
284(9) 0.01276 278.2 5.0
269(9) 0.01296 278.2 5.0
278(9) 0.01196 278.2 5.0
280(9) 0.01241 278.2 5.1
268(9) 0.01375 278.2 5.1
272(9) 0.01326 278.2 5.1
288(9) 0.01172 278.2 5.2
289(9) 0.01156 278.2 5.2
280(9) 0.01268 278.2 5.3
257(8) 0.01442 278.2 5.3
265(9) 0.01356 278.2 5.4
266(9) 0.01311 278.2 5.4
273(9) 0.01241 278.2 5.5
295(9) 0.01176 278.3 5.5
283(9) 0.01316 278.3 5.6
263(9) 0.01297 278.3 5.6
273(9) 0.01256 278.3 5.7
286(9) 0.01176 278.4 5.8
259(8) 0.01387 278.4 5.8
277(9) 0.01326 278.4 5.9
297(9) 0.01131 278.5 6.0
295(9) 0.01120 278.5 6.1
277(9) 0.01219 278.5 6.2
259(9) 0.01375 278.6 6.3
274(9) 0.01345 278.6 6.4
272(9) 0.01288 278.6 6.5
260(9) 0.01343 278.7 6.6
290(9) 0.01195 278.7 6.7
308(9) 0.01140 278.7 6.8
281(9) 0.01322 278.8 6.9
288(9) 0.01185 278.8 7.1
272(9) 0.01163 278.8 7.2
287(9) 0.01162 278.8 7.3
269(9) 0.01335 278.9 7.5
291(9) 0.01252 278.9 7.6
291(9) 0.01222 278.9 7.8
280(9) 0.01138 279.0 8.0
278(9) 0.01246 279.0 8.2
270(9) 0.01372 279.0 8.4
282(9) 0.01310 279.1 8.6
291(9) 0.01244 279.1 8.8
287(9) 0.01158 279.1 9.1
277(9) 0.01276 279.2 9.3
259(8) 0.01436 279.2 9.6
294(9) 0.01225 279.2 9.9
275(9) 0.01240 279.2 10.2
274(9) 0.01204 279.3 10.6
281(9) 0.01236 279.3 11.0
289(9) 0.01296 279.3 11.4
301(9) 0.01178 279.4 11.9
269(9) 0.01283 279.4 12.5
284(9) 0.01146 279.4 13.0
280(9) 0.01210 279.5 13.7
285(9) 0.01289 279.5 14.4
295(9) 0.01238 279.5 15.2
280(9) 0.01213 279.6 16.0
313(10) 0.01021 279.6 17.0
304(9) 0.01227 279.6 18.0
320(9) 0.01111 279.6 19.1
300(9) 0.01151 279.7 20.2
308(10) 0.01096 279.7 21.4
307(9) 0.01121 279.7 22.6
296(9) 0.01263 279.8 23.8
287(9) 0.01218 279.8 24.9
298(9) 0.01112 279.8 25.9
286(9) 0.01195 279.9 26.8
295(9) 0.01147 279.9 27.5
290(9) 0.01286 279.9 28.1
302(9) 0.01166 280.0 28.4
306(10) 0.01080 280.0 28.5
304(9) 0.01130 280.0 28.5
301(9) 0.01207 280.0 28.3
312(9) 0.01206 280.1 27.8
302(10) 0.01082 280.1 27.3
335(10) 0.00969 280.1 26.6
321(10) 0.01069 280.2 25.7
313(9) 0.01137 280.2 24.9
300(9) 0.01257 280.2 23.9
308(9) 0.01159 280.3 23.0
312(10) 0.01090 280.3 22.1
286(9) 0.01223 280.3 21.2
292(9) 0.01266 280.4 20.4
329(10) 0.01104 280.4 19.6
293(9) 0.01258 280.4 18.9
320(10) 0.00998 280.4 18.3
272(9) 0.01289 280.5 17.7
279(9) 0.01295 280.5 17.2
296(9) 0.01257 280.5 16.7
311(10) 0.01105 280.6 16.2
279(9) 0.01169 280.6 15.8
288(9) 0.01233 280.6 15.4
281(9) 0.01315 280.7 15.1
286(9) 0.01316 280.7 14.8
287(9) 0.01253 280.7 14.5
301(10) 0.01100 280.8 14.2
282(9) 0.01239 280.8 13.9
271(9) 0.01380 280.8 13.6
276(9) 0.01361 280.8 13.4
289(9) 0.01244 280.9 13.1
305(10) 0.01078 280.9 12.9
291(9) 0.01128 280.9 12.7
281(9) 0.01330 281.0 12.5
290(9) 0.01247 281.0 12.3
293(9) 0.01194 281.0 12.1
289(9) 0.01179 281.1 11.9
287(9) 0.01229 281.1 11.7
301(9) 0.01233 281.1 11.5
284(9) 0.01253 281.2 11.4
292(9) 0.01180 281.2 11.2
283(9) 0.01187 281.2 11.1
278(9) 0.01277 281.2 10.9
280(9) 0.01334 281.3 10.8
304(9) 0.01165 281.3 10.6
285(9) 0.01202 281.3 10.5
292(9) 0.01141 281.4 10.3
282(9) 0.01256 281.4 10.2
298(9) 0.01232 281.4 10.1
282(9) 0.01253 281.5 10.0
278(9) 0.01191 281.5 9.9
294(9) 0.01121 281.5 9.8
267(9) 0.01355 281.6 9.7
283(9) 0.01303 281.6 9.6
303(9) 0.01128 281.6 9.5
275(9) 0.01258 281.6 9.4
269(9) 0.01280 281.7 9.3
264(9) 0.01359 281.7 9.3
272(9) 0.01371 281.7 9.2
255(9) 0.01339 281.8 9.2
275(9) 0.01197 281.8 9.1
290(9) 0.01182 281.8 9.0
260(8) 0.01437 281.9 9.0
261(9) 0.01374 281.9 9.0
295(9) 0.01173 281.9 8.9
294(10) 0.01101 282.0 8.9
286(9) 0.01231 282.0 8.9
301(9) 0.01224 282.0 8.8
284(9) 0.01285 282.0 8.8
282(9) 0.01234 282.1 8.8
294(10) 0.01062 282.1 8.8
259(9) 0.01344 282.1 8.8
297(9) 0.01241 282.2 8.8
240(8) 0.01593 282.2 8.8
280(9) 0.01249 282.2 8.8
270(9) 0.01221 282.3 8.8
272(9) 0.01298 282.3 8.8
298(9) 0.01232 282.3 8.7
267(9) 0.01378 282.4 8.7
262(9) 0.01299 282.4 8.7
270(9) 0.01233 282.4 8.7
290(9) 0.01169 282.5 8.7
288(9) 0.01281 282.5 8.7
296(9) 0.01189 282.5 8.7
282(9) 0.01228 282.5 8.7
292(9) 0.01152 282.6 8.7
294(9) 0.01202 282.6 8.7
300(9) 0.01237 282.6 8.7
285(9) 0.01274 282.7 8.6
294(9) 0.01174 282.7 8.6
281(9) 0.01232 282.7 8.6
297(9) 0.01162 282.8 8.6
283(9) 0.01331 282.8 8.5
266(9) 0.01379 282.8 8.5
286(9) 0.01195 282.9 8.5
282(9) 0.01215 282.9 8.4
279(9) 0.01288 282.9 8.4
278(9) 0.01350 282.9 8.3
260(9) 0.01317 283.0 8.3
263(9) 0.01297 283.0 8.3
272(9) 0.01259 283.0 8.2
296(9) 0.01187 283.1 8.2
265(8) 0.01419 283.1 8.2
294(9) 0.01201 283.1 8.1
283(9) 0.01233 283.2 8.1
294(9) 0.01175 283.2 8.1
319(9) 0.01126 283.2 8.0
280(9) 0.01336 283.3 8.0
293(9) 0.01193 283.3 8.0
280(9) 0.01195 283.3 8.0
251(8) 0.01421 283.3 8.0
302(9) 0.01200 283.4 8.0
303(9) 0.01223 283.4 8.0
269(9) 0.01307 283.4 8.0
267(9) 0.01233 283.5 8.1
282(9) 0.01253 283.5 8.1
293(9) 0.01261 283.5 8.1
283(9) 0.01309 283.6 8.2
264(9) 0.01278 283.6 8.3
252(9) 0.01265 283.6 8.3
269(9) 0.01306 283.7 8.4
278(9) 0.01333 283.7 8.5
262(8) 0.01400 283.7 8.7
254(8) 0.01403 283.7 8.8
296(10) 0.01077 283.8 9.0
273(9) 0.01283 283.8 9.2
280(9) 0.01336 283.8 9.5
274(9) 0.01350 283.9 9.8
291(9) 0.01195 283.9 10.2
284(9) 0.01135 283.9 10.7
270(9) 0.01229 284.0 11.3
296(9) 0.01260 284.0 12.0
275(9) 0.01295 284.0 13.0
276(9) 0.01248 284.1 14.1
306(10) 0.01102 284.1 15.4
322(10) 0.01085 284.1 17.0
306(9) 0.01233 284.1 18.8
298(9) 0.01225 284.2 20.7
305(9) 0.01112 284.2 22.9
278(9) 0.01193 284.2 25.1
304(9) 0.01158 284.3 27.1
290(9) 0.01283 284.3 28.9
302(9) 0.01189 284.3 30.2
300(9) 0.01136 284.4 30.7
297(9) 0.01210 284.4 30.5
319(9) 0.01117 284.4 29.5
278(9) 0.01342 284.5 28.0
307(9) 0.01131 284.5 26.2
319(10) 0.01043 284.5 24.3
297(9) 0.01158 284.5 22.5
280(9) 0.01320 284.6 20.9
287(9) 0.01289 284.6 19.5
303(9) 0.01172 284.6 18.2
297(9) 0.01125 284.7 17.3
288(9) 0.01178 284.7 16.5
294(9) 0.01252 284.7 15.9
306(9) 0.01200 284.8 15.5
294(9) 0.01182 284.8 15.3
303(9) 0.01132 284.8 15.2
304(9) 0.01140 284.9 15.2
287(9) 0.01245 284.9 15.3
278(9) 0.01359 284.9 15.4
298(9) 0.01171 284.9 15.6
297(9) 0.01124 285.0 15.8
323(10) 0.01060 285.0 16.1
282(9) 0.01277 285.0 16.5
303(9) 0.01218 285.1 16.8
296(9) 0.01169 285.1 17.2
310(10) 0.01069 285.1 17.7
297(9) 0.01180 285.2 18.2
324(9) 0.01148 285.2 18.7
327(9) 0.01127 285.2 19.3
305(9) 0.01147 285.3 20.0
306(10) 0.00994 285.3 20.8
279(9) 0.01267 285.3 21.7
324(9) 0.01140 285.3 22.7
311(9) 0.01159 285.4 24.0
318(10) 0.01081 285.4 25.4
336(10) 0.00961 285.4 27.1
327(10) 0.01028 285.5 29.2
333(10) 0.01106 285.5 31.6
322(9) 0.01123 285.5 34.5
339(10) 0.01022 285.6 37.8
314(10) 0.01032 285.6 41.7
324(10) 0.01031 285.6 46.0
325(9) 0.01137 285.7 50.9
333(10) 0.01073 285.7 56.2
330(10) 0.01021 285.7 61.9
341(10) 0.00958 285.7 67.6
342(10) 0.01028 285.8 73.1
369(10) 0.00988 285.8 77.8
356(10) 0.01011 285.8 81.4
351(10) 0.00971 285.9 83.3
353(10) 0.00955 285.9 83.2
358(10) 0.00992 285.9 81.4
366(10) 0.01013 286.0 78.0
359(10) 0.00984 286.0 73.7
316(10) 0.01078 286.0 69.0
336(10) 0.01019 286.1 64.3
365(10) 0.00987 286.1 60.0
344(10) 0.01094 286.1 56.2
338(10) 0.01012 286.1 53.0
304(9) 0.01130 286.2 50.6
308(9) 0.01115 286.2 48.8
306(9) 0.01186 286.2 47.6
312(9) 0.01184 286.3 47.0
296(9) 0.01136 286.3 46.6
332(10) 0.00949 286.3 46.4
315(10) 0.01100 286.4 46.0
327(9) 0.01117 286.4 45.3
360(10) 0.01013 286.4 44.2
341(10) 0.01041 286.5 42.6
325(10) 0.01065 286.5 40.6
316(9) 0.01139 286.5 38.4
325(9) 0.01138 286.6 36.1
350(10) 0.01063 286.6 33.9
342(10) 0.01027 286.6 31.8
309(10) 0.01069 286.6 30.0
322(10) 0.01084 286.7 28.3
317(9) 0.01167 286.7 27.0
309(9) 0.01193 286.7 25.8
338(10) 0.01031 286.8 25.0
322(10) 0.01040 286.8 24.3
290(9) 0.01202 286.8 23.8
293(9) 0.01268 286.9 23.6
305(9) 0.01162 286.9 23.5
321(10) 0.01069 286.9 23.6
310(10) 0.01051 287.0 23.8
308(9) 0.01142 287.0 24.1
289(9) 0.01288 287.0 24.6
306(9) 0.01188 287.0 25.1
296(9) 0.01190 287.1 25.8
315(10) 0.01048 287.1 26.5
284(9) 0.01239 287.1 27.2
318(9) 0.01169 287.2 28.0
332(10) 0.01069 287.2 28.8
307(9) 0.01153 287.2 29.7
309(10) 0.01100 287.3 30.5
299(9) 0.01190 287.3 31.3
314(9) 0.01191 287.3 32.1
318(10) 0.01089 287.4 32.8
296(9) 0.01156 287.4 33.5
308(10) 0.01087 287.4 34.1
309(9) 0.01120 287.4 34.8
295(9) 0.01248 287.5 35.4
335(10) 0.01074 287.5 36.0
312(10) 0.01106 287.5 36.6
309(9) 0.01146 287.6 37.2
345(10) 0.01032 287.6 37.8
313(9) 0.01173 287.6 38.4
310(9) 0.01137 287.7 38.9
296(9) 0.01153 287.7 39.4
338(10) 0.01004 287.7 39.8
310(9) 0.01175 287.8 40.1
327(9) 0.01135 287.8 40.2
315(10) 0.01100 287.8 40.2
315(10) 0.01040 287.8 40.0
305(9) 0.01116 287.9 39.5
298(9) 0.01237 287.9 38.9
308(9) 0.01211 287.9 38.1
310(9) 0.01124 288.0 37.1
323(10) 0.01012 288.0 36.0
314(10) 0.01075 288.0 34.9
297(9) 0.01200 288.1 33.6
304(9) 0.01229 288.1 32.3
310(9) 0.01119 288.1 31.0
324(10) 0.01000 288.2 29.7
298(9) 0.01143 288.2 28.4
289(9) 0.01260 288.2 27.2
287(9) 0.01282 288.2 26.0
309(10) 0.01082 288.3 24.9
303(10) 0.01061 288.3 23.9
318(10) 0.01094 288.3 22.9
287(9) 0.01303 288.4 22.0
302(9) 0.01248 288.4 21.2
319(10) 0.01098 288.4 20.5
303(10) 0.01083 288.5 19.9
295(9) 0.01162 288.5 19.3
319(9) 0.01168 288.5 18.8
304(9) 0.01225 288.6 18.3
300(9) 0.01117 288.6 17.9
293(10) 0.01055 288.6 17.6
289(9) 0.01178 288.6 17.3
280(9) 0.01327 288.7 17.1
281(9) 0.01289 288.7 16.8
297(9) 0.01140 288.7 16.6
290(9) 0.01169 288.8 16.4
295(9) 0.01155 288.8 16.3
286(9) 0.01303 288.8 16.1
291(9) 0.01200 288.9 15.9
273(9) 0.01295 288.9 15.8
296(9) 0.01136 288.9 15.6
311(10) 0.01096 289.0 15.5
267(8) 0.01388 289.0 15.3
289(9) 0.01225 289.0 15.2
279(9) 0.01206 289.0 15.1
311(10) 0.01076 289.1 15.1
337(10) 0.01022 289.1 15.1
282(9) 0.01326 289.1 15.2
307(9) 0.01155 289.2 15.3
293(9) 0.01201 289.2 15.6
309(10) 0.01069 289.2 15.9
276(9) 0.01318 289.3 16.4
299(9) 0.01236 289.3 17.0
281(9) 0.01254 289.3 17.8
309(10) 0.01040 289.4 18.8
319(10) 0.01085 289.4 19.9
305(9) 0.01187 289.4 21.2
290(9) 0.01283 289.4 22.8
303(9) 0.01126 289.5 24.6
317(10) 0.01047 289.5 26.6
348(10) 0.00973 289.5 28.8
322(9) 0.01115 289.6 31.1
309(9) 0.01217 289.6 33.6
332(10) 0.00998 289.6 36.0
343(10) 0.00941 289.7 38.3
324(9) 0.01112 289.7 40.3
354(10) 0.01031 289.7 41.9
379(10) 0.00979 289.8 42.8
355(10) 0.01004 289.8 42.9
337(10) 0.00955 289.8 42.3
339(10) 0.01007 289.8 40.9
314(9) 0.01178 289.9 39.0
306(9) 0.01177 289.9 36.8
326(10) 0.01054 289.9 34.3
318(10) 0.01034 290.0 31.8
318(10) 0.01097 290.0 29.4
350(10) 0.01059 290.0 27.1
320(9) 0.01169 290.1 24.9
297(9) 0.01170 290.1 23.0
298(10) 0.01103 290.1 21.3
272(9) 0.01231 290.2 19.8
297(9) 0.01261 290.2 18.5
326(9) 0.01118 290.2 17.4
309(9) 0.01119 290.3 16.4
316(10) 0.01034 290.3 15.7
319(9) 0.01109 290.3 15.0
287(9) 0.01278 290.3 14.6
291(9) 0.01222 290.4 14.2
301(9) 0.01176 290.4 13.9
316(10) 0.01072 290.4 13.8
290(9) 0.01153 290.5 13.7
286(9) 0.01293 290.5 13.8
324(10) 0.01100 290.5 13.9
318(10) 0.01061 290.6 14.1
302(9) 0.01115 290.6 14.4
301(9) 0.01147 290.6 14.8
313(9) 0.01174 290.7 15.2
301(9) 0.01213 290.7 15.8
314(10) 0.01088 290.7 16.5
316(10) 0.01099 290.7 17.3
302(9) 0.01183 290.8 18.2
307(9) 0.01220 290.8 19.2
306(10) 0.01078 290.8 20.4
326(10) 0.01005 290.9 21.7
307(9) 0.01128 290.9 23.2
310(9) 0.01163 290.9 24.8
333(10) 0.01097 291.0 26.6
308(9) 0.01169 291.0 28.6
333(10) 0.00978 291.0 30.6
290(9) 0.01212 291.1 32.8
314(9) 0.01157 291.1 35.1
323(9) 0.01155 291.1 37.4
328(10) 0.01049 291.1 39.7
312(10) 0.01049 291.2 41.9
334(10) 0.01021 291.2 43.9
319(9) 0.01148 291.2 45.5
326(9) 0.01123 291.3 46.8
298(9) 0.01164 291.3 47.5
331(10) 0.00970 291.3 47.7
318(10) 0.01091 291.4 47.2
299(9) 0.01243 291.4 46.3
292(9) 0.01243 291.4 44.8
328(10) 0.01046 291.5 43.0
341(11) 0.00898 291.5 40.9
297(9) 0.01166 291.5 38.6
322(9) 0.01165 291.5 36.2
330(9) 0.01120 291.6 33.8
331(10) 0.01055 291.6 31.5
315(10) 0.00996 291.6 29.3
306(10) 0.01090 291.7 27.2
299(9) 0.01262 291.7 25.2
319(9) 0.01150 291.7 23.4
288(9) 0.01210 291.8 21.8
297(9) 0.01110 291.8 20.3
313(10) 0.01100 291.8 18.9
311(9) 0.01179 291.9 17.7
306(9) 0.01167 291.9 16.6
317(10) 0.01092 291.9 15.7
316(10) 0.01080 291.9 14.8
306(9) 0.01172 292.0 14.1
295(9) 0.01261 292.0 13.4
281(9) 0.01245 292.0 12.9
280(9) 0.01229 292.1 12.4
296(9) 0.01113 292.1 12.1
282(9) 0.01276 292.1 11.8
313(9) 0.01197 292.2 11.5
287(9) 0.01255 292.2 11.4
297(9) 0.01152 292.2 11.3
301(9) 0.01153 292.3 11.2
280(9) 0.01303 292.3 11.3
307(9) 0.01218 292.3 11.4
275(9) 0.01276 292.3 11.5
298(9) 0.01137 292.4 11.7
303(9) 0.01127 292.4 12.0
308(9) 0.01177 292.4 12.4
295(9) 0.01261 292.5 12.8
298(9) 0.01149 292.5 13.2
295(9) 0.01183 292.5 13.7
306(9) 0.01193 292.6 14.3
326(10) 0.01102 292.6 14.8
299(9) 0.01260 292.6 15.3
286(9) 0.01211 292.7 15.8
305(10) 0.01047 292.7 16.2
297(9) 0.01209 292.7 16.4
310(9) 0.01193 292.7 16.5
311(9) 0.01200 292.8 16.5
316(9) 0.01135 292.8 16.3
334(10) 0.00975 292.8 15.9
283(9) 0.01292 292.9 15.4
323(9) 0.01139 292.9 14.8
309(9) 0.01188 292.9 14.2
314(10) 0.01030 293.0 13.5
297(10) 0.01070 293.0 12.9
289(9) 0.01211 293.0 12.2
278(9) 0.01338 293.1 11.6
284(9) 0.01299 293.1 11.1
286(9) 0.01221 293.1 10.6
293(10) 0.01094 293.1 10.1
328(10) 0.01053 293.2 9.7
313(9) 0.01190 293.2 9.4
284(9) 0.01256 293.2 9.1
310(9) 0.01138 293.3 8.8
310(10) 0.01072 293.3 8.6
304(9) 0.01156 293.3 8.4
272(9) 0.01345 293.4 8.3
306(9) 0.01199 293.4 8.2
273(9) 0.01313 293.4 8.1
296(9) 0.01125 293.5 8.1
285(9) 0.01252 293.5 8.1
302(9) 0.01241 293.5 8.1
305(9) 0.01158 293.5 8.1
302(9) 0.01162 293.6 8.2
301(10) 0.01102 293.6 8.4
293(9) 0.01173 293.6 8.5
311(9) 0.01202 293.7 8.7
295(9) 0.01235 293.7 9.0
296(9) 0.01161 293.7 9.3
276(9) 0.01242 293.8 9.7
302(9) 0.01173 293.8 10.1
291(9) 0.01287 293.8 10.7
290(9) 0.01186 293.9 11.3
278(9) 0.01197 293.9 12.0
292(9) 0.01179 293.9 12.8
313(9) 0.01172 293.9 13.6
298(9) 0.01258 294.0 14.6
298(9) 0.01166 294.0 15.7
316(10) 0.01018 294.0 16.9
299(9) 0.01143 294.1 18.2
329(10) 0.01076 294.1 19.5
302(9) 0.01232 294.1 20.9
308(10) 0.01053 294.2 22.2
295(10) 0.01101 294.2 23.4
310(9) 0.01124 294.2 24.4
317(9) 0.01148 294.3 25.1
322(9) 0.01153 294.3 25.5
308(9) 0.01117 294.3 25.5
309(10) 0.01053 294.4 25.2
308(9) 0.01147 294.4 24.6
316(9) 0.01123 294.4 23.8
300(9) 0.01241 294.4 22.9
296(9) 0.01163 294.5 21.8
297(9) 0.01114 294.5 20.8
318(10) 0.01090 294.5 19.9
296(9) 0.01236 294.6 19.0
296(9) 0.01245 294.6 18.2
298(9) 0.01138 294.6 17.6
289(9) 0.01147 294.7 17.1
285(9) 0.01245 294.7 16.7
317(9) 0.01164 294.7 16.4
313(9) 0.01183 294.8 16.2
297(9) 0.01205 294.8 16.2
283(9) 0.01179 294.8 16.3
321(10) 0.01099 294.8 16.4
302(9) 0.01229 294.9 16.7
311(9) 0.01189 294.9 17.0
294(9) 0.01196 294.9 17.5
310(10) 0.01045 295.0 18.0
283(9) 0.01205 295.0 18.6
300(9) 0.01233 295.0 19.2
277(9) 0.01346 295.1 20.0
303(9) 0.01181 295.1 20.8
289(9) 0.01190 295.1 21.6
309(9) 0.01148 295.2 22.5
321(9) 0.01152 295.2 23.4
324(9) 0.01115 295.2 24.4
322(10) 0.01076 295.2 25.3
327(10) 0.01046 295.3 26.3
314(9) 0.01142 295.3 27.3
329(9) 0.01133 295.3 28.2
313(10) 0.01104 295.4 29.1
310(9) 0.01141 295.4 29.9
343(10) 0.01005 295.4 30.6
320(9) 0.01151 295.5 31.2
328(9) 0.01127 295.5 31.7
322(10) 0.01099 295.5 32.0
321(10) 0.01092 295.6 32.1
359(10) 0.00943 295.6 32.1
322(9) 0.01136 295.6 31.9
326(9) 0.01139 295.6 31.6
299(9) 0.01147 295.7 31.1
305(10) 0.01078 295.7 30.4
309(9) 0.01118 295.7 29.6
331(10) 0.01107 295.8 28.8
293(9) 0.01258 295.8 27.8
312(9) 0.01117 295.8 26.8
295(9) 0.01133 295.9 25.8
304(9) 0.01147 295.9 24.7
303(9) 0.01208 295.9 23.7
319(9) 0.01172 296.0 22.6
310(9) 0.01140 296.0 21.6
310(10) 0.01036 296.0 20.6
299(9) 0.01136 296.0 19.6
295(9) 0.01232 296.1 18.7
305(9) 0.01229 296.1 17.8
307(9) 0.01150 296.1 17.0
310(10) 0.01061 296.2 16.2
303(9) 0.01172 296.2 15.5
334(9) 0.01119 296.2 14.8
316(9) 0.01174 296.3 14.1
317(10) 0.01099 296.3 13.5
307(10) 0.01060 296.3 12.9
292(9) 0.01192 296.4 12.4
291(9) 0.01284 296.4 11.9
291(9) 0.01235 296.4 11.5
319(10) 0.01045 296.4 11.0
288(9) 0.01131 296.5 10.7
292(9) 0.01155 296.5 10.3
320(9) 0.01146 296.5 10.0
307(9) 0.01210 296.6 9.7
282(9) 0.01250 296.6 9.4
271(9) 0.01224 296.6 9.1
290(9) 0.01186 296.7 8.9
304(9) 0.01226 296.7 8.7
295(9) 0.01217 296.7 8.5
293(9) 0.01174 296.8 8.4
304(9) 0.01127 296.8 8.2
308(9) 0.01136 296.8 8.1
294(9) 0.01283 296.8 8.0
308(9) 0.01137 296.9 7.9
308(10) 0.01106 296.9 7.8
293(9) 0.01212 296.9 7.7
314(9) 0.01147 297.0 7.6
284(9) 0.01301 297.0 7.6
301(9) 0.01205 297.0 7.5
326(10) 0.01007 297.1 7.5
290(9) 0.01202 297.1 7.5
278(9) 0.01281 297.1 7.4
275(9) 0.01354 297.2 7.4
278(9) 0.01255 297.2 7.4
306(10) 0.01078 297.2 7.4
319(10) 0.01085 297.2 7.4
295(9) 0.01241 297.3 7.4
280(9) 0.01317 297.3 7.4
295(9) 0.01166 297.3 7.4
274(9) 0.01216 297.4 7.4
280(9) 0.01237 297.4 7.4
300(9) 0.01238 297.4 7.3
298(9) 0.01246 297.5 7.3
284(9) 0.01225 297.5 7.3
295(9) 0.01116 297.5 7.3
277(9) 0.01297 297.6 7.2
295(9) 0.01261 297.6 7.2
293(9) 0.01253 297.6 7.2
276(9) 0.01274 297.6 7.1
297(10) 0.01040 297.7 7.0
248(8) 0.01421 297.7 7.0
270(9) 0.01376 297.7 6.9
291(9) 0.01262 297.8 6.8
296(10) 0.01098 297.8 6.7
288(9) 0.01123 297.8 6.6
297(9) 0.01160 297.9 6.6
284(9) 0.01320 297.9 6.5
287(9) 0.01269 297.9 6.4
287(9) 0.01207 298.0 6.3
304(10) 0.01040 298.0 6.2
298(9) 0.01175 298.0 6.1
308(9) 0.01206 298.1 6.0
326(9) 0.01128 298.1 5.9
313(9) 0.01112 298.1 5.8
298(9) 0.01119 298.1 5.7
308(10) 0.01094 298.2 5.6
292(9) 0.01272 298.2 5.6
293(9) 0.01248 298.2 5.5
324(10) 0.01079 298.2 5.4
300(9) 0.01118 298.3 5.4
279(9) 0.01278 298.3 5.3
291(9) 0.01282 298.3 5.2
282(9) 0.01224 298.3 5.2
316(10) 0.01041 298.3 5.1
299(9) 0.01141 298.4 5.1
310(9) 0.01133 298.4 5.0
285(9) 0.01309 298.4 5.0
281(9) 0.01218 298.4 5.0
301(10) 0.01101 298.4 5.0
317(10) 0.01065 298.4 4.9
301(9) 0.01208 298.5 4.9
298(9) 0.01255 298.5 4.9
306(9) 0.01117 298.5 4.9
305(10) 0.01093 298.5 4.9
304(9) 0.01109 298.5 5.0
294(9) 0.01246 298.5 5.0
300(9) 0.01234 298.6 5.0
305(9) 0.01146 298.6 5.0
310(10) 0.01059 298.6 5.1
312(10) 0.01083 298.6 5.1
277(9) 0.01348 298.6 5.2
275(9) 0.01350 298.7 5.3
303(9) 0.01122 298.7 5.4
302(10) 0.01046 298.7 5.5
315(10) 0.01064 298.7 5.6
291(9) 0.01271 298.7 5.7
289(9) 0.01279 298.7 5.9
281(9) 0.01201 298.8 6.1
262(9) 0.01243 298.8 6.3
276(9) 0.01217 298.8 6.6
288(9) 0.01276 298.8 6.9
303(9) 0.01229 298.8 7.3
299(9) 0.01178 298.8 7.7
306(10) 0.01059 298.9 8.2
307(9) 0.01108 298.9 8.8
299(9) 0.01244 298.9 9.5
300(9) 0.01205 298.9 10.3
309(9) 0.01136 298.9 11.3
308(10) 0.01101 299.0 12.3
312(10) 0.01096 299.0 13.5
306(9) 0.01198 299.0 14.9
319(9) 0.01158 299.0 16.4
324(10) 0.01081 299.0 18.0
310(10) 0.01072 299.0 19.7
294(9) 0.01111 299.1 21.6
301(9) 0.01240 299.1 23.4
345(10) 0.01050 299.1 25.2
336(10) 0.01048 299.1 26.9
305(9) 0.01116 299.1 28.3
305(9) 0.01133 299.1 29.2
304(9) 0.01224 299.2 29.7
342(10) 0.01046 299.2 29.7
323(10) 0.01069 299.2 29.0
298(9) 0.01145 299.2 28.0
318(9) 0.01130 299.2 26.5
310(9) 0.01202 299.3 24.9
322(10) 0.01045 299.3 23.1
314(10) 0.01097 299.3 21.2
321(10) 0.01070 299.3 19.5
302(9) 0.01183 299.3 17.8
312(9) 0.01188 299.3 16.2
297(9) 0.01165 299.4 14.8
317(10) 0.01071 299.4 13.5
315(10) 0.01077 299.4 12.3
294(9) 0.01252 299.4 11.3
303(9) 0.01227 299.4 10.4
292(9) 0.01224 299.5 9.7
307(9) 0.01120 299.5 9.0
299(9) 0.01209 299.5 8.4
309(9) 0.01184 299.5 8.0
298(9) 0.01241 299.5 7.6
327(10) 0.01006 299.5 7.2
319(10) 0.00993 299.6 6.9
320(10) 0.01050 299.6 6.7
335(10) 0.01100 299.6 6.5
313(9) 0.01172 299.6 6.3
307(9) 0.01136 299.6 6.1
325(10) 0.00927 299.6 6.0
332(10) 0.01038 299.7 5.9
301(9) 0.01230 299.7 5.8
298(9) 0.01244 299.7 5.7
301(9) 0.01201 299.7 5.7
340(10) 0.00968 299.7 5.6
293(9) 0.01181 299.8 5.6
289(9) 0.01295 299.8 5.5
309(9) 0.01179 299.8 5.5
296(9) 0.01204 299.8 5.5
307(10) 0.01095 299.8 5.5
307(9) 0.01178 299.8 5.5
313(9) 0.01182 299.9 5.5
321(9) 0.01159 299.9 5.5
301(9) 0.01186 299.9 5.5
312(10) 0.01080 299.9 5.5
305(9) 0.01170 299.9 5.5
306(9) 0.01209 299.9 5.5
313(9) 0.01174 300.0 5.6
278(9) 0.01252 300.0 5.6
281(9) 0.01245 300.0 5.6
292(9) 0.01182 300.0 5.7
293(9) 0.01261 300.0 5.7
284(9) 0.01244 300.1 5.8
297(9) 0.01145 300.1 5.8
306(10) 0.01063 300.1 5.9
308(10) 0.01096 300.1 6.0
306(9) 0.01219 300.1 6.0
311(10) 0.01107 300.1 6.1
309(10) 0.01093 300.2 6.2
303(10) 0.01076 300.2 6.3
291(9) 0.01226 300.2 6.3
313(9) 0.01200 300.2 6.4
313(9) 0.01133 300.2 6.5
312(10) 0.01104 300.2 6.6
292(9) 0.01197 300.3 6.7
278(9) 0.01293 300.3 6.9
307(9) 0.01207 300.3 7.0
322(10) 0.01099 300.3 7.1
308(10) 0.01081 300.3 7.2
285(9) 0.01206 300.4 7.4
284(9) 0.01281 300.4 7.5
300(9) 0.01225 300.4 7.7
297(9) 0.01200 300.4 7.9
319(10) 0.01001 300.4 8.0
316(10) 0.01072 300.4 8.2
293(9) 0.01249 300.5 8.5
271(9) 0.01366 300.5 8.7
303(10) 0.01097 300.5 8.9
323(10) 0.00985 300.5 9.2
333(10) 0.01027 300.5 9.4
326(9) 0.01135 300.5 9.7
313(9) 0.01190 300.6 10.1
322(10) 0.01087 300.6 10.4
310(10) 0.01073 300.6 10.8
298(9) 0.01163 300.6 11.2
303(9) 0.01232 300.6 11.7
320(9) 0.01158 300.7 12.3
340(10) 0.01011 300.7 12.9
340(10) 0.00952 300.7 13.6
315(10) 0.01108 300.7 14.4
321(9) 0.01143 300.7 15.3
311(9) 0.01179 300.7 16.3
332(10) 0.01068 300.8 17.5
377(11) 0.00844 300.8 18.8
351(10) 0.00988 300.8 20.3
355(10) 0.01040 300.8 22.0
347(10) 0.01028 300.8 23.8
348(10) 0.01000 300.8 25.8
352(10) 0.00965 300.9 28.0
353(10) 0.01000 300.9 30.3
335(10) 0.01107 300.9 32.6
358(10) 0.01034 300.9 34.9
369(10) 0.00920 300.9 37.0
350(10) 0.00951 301.0 38.8
383(10) 0.00910 301.0 40.2
394(10) 0.00946 301.0 41.1
332(10) 0.01093 301.0 41.3
355(10) 0.00930 301.0 41.0
359(10) 0.00916 301.0 40.1
353(10) 0.01006 301.1 38.9
379(10) 0.00989 301.1 37.5
340(10) 0.01048 301.1 36.1
354(10) 0.00961 301.1 34.6
358(10) 0.00996 301.1 33.3
354(10) 0.01005 301.2 32.1
345(10) 0.01085 301.2 31.2
325(10) 0.01073 301.2 30.4
353(10) 0.00942 301.2 29.9
352(10) 0.00971 301.2 29.6
335(10) 0.01078 301.2 29.6
331(9) 0.01118 301.3 29.8
329(10) 0.01038 301.3 30.3
362(11) 0.00880 301.3 31.0
328(10) 0.01056 301.3 32.0
315(9) 0.01176 301.3 33.3
332(9) 0.01111 301.3 34.8
355(10) 0.00976 301.4 36.6
339(10) 0.00966 301.4 38.7
356(10) 0.00976 301.4 41.1
339(10) 0.01102 301.4 43.8
366(10) 0.01022 301.4 46.7
371(10) 0.00930 301.5 49.8
383(11) 0.00830 301.5 53.1
402(11) 0.00862 301.5 56.5
404(10) 0.00921 301.5 59.8
400(10) 0.00919 301.5 62.9
426(11) 0.00777 301.5 65.5
378(11) 0.00848 301.6 67.4
352(10) 0.00989 301.6 68.5
372(10) 0.00994 301.6 68.6
372(10) 0.00971 301.6 67.6
370(10) 0.00936 301.6 65.7
377(11) 0.00890 301.6 63.1
359(10) 0.00997 301.7 59.9
348(10) 0.01070 301.7 56.3
373(10) 0.00978 301.7 52.7
362(10) 0.00982 301.7 49.0
354(10) 0.00963 301.7 45.5
367(10) 0.00955 301.8 42.1
347(10) 0.01073 301.8 39.0
329(10) 0.01105 301.8 36.2
339(10) 0.01015 301.8 33.6
332(10) 0.01048 301.8 31.3
340(10) 0.01040 301.8 29.2
312(9) 0.01196 301.9 27.4
315(9) 0.01115 301.9 25.7
309(9) 0.01109 301.9 24.3
329(10) 0.01035 301.9 23.0
323(10) 0.01067 301.9 21.9
324(9) 0.01150 301.9 20.9
300(9) 0.01150 302.0 20.1
293(9) 0.01186 302.0 19.3
324(10) 0.01023 302.0 18.7
330(10) 0.01031 302.0 18.1
324(9) 0.01152 302.0 17.5
295(9) 0.01158 302.1 17.0
329(10) 0.00962 302.1 16.6
324(10) 0.01034 302.1 16.2
317(9) 0.01130 302.1 15.9
328(9) 0.01138 302.1 15.6
322(10) 0.01057 302.1 15.3
340(10) 0.00950 302.2 15.0
292(9) 0.01241 302.2 14.8
317(9) 0.01168 302.2 14.6
325(9) 0.01138 302.2 14.4
341(10) 0.01008 302.2 14.2
318(10) 0.01042 302.2 14.1
331(10) 0.01044 302.3 13.9
334(9) 0.01111 302.3 13.8
304(9) 0.01215 302.3 13.7
294(9) 0.01211 302.3 13.7
310(10) 0.01044 302.3 13.6
329(10) 0.01041 302.4 13.6
318(9) 0.01171 302.4 13.6
300(9) 0.01226 302.4 13.6
305(9) 0.01144 302.4 13.6
309(10) 0.01019 302.4 13.6
314(10) 0.01081 302.4 13.6
333(10) 0.01108 302.5 13.7
322(9) 0.01139 302.5 13.8
316(9) 0.01141 302.5 13.9
303(9) 0.01110 302.5 14.0
313(10) 0.01099 302.5 14.2
322(9) 0.01131 302.5 14.3
321(9) 0.01136 302.6 14.5
296(9) 0.01146 302.6 14.8
292(9) 0.01158 302.6 15.0
324(10) 0.01086 302.6 15.3
305(9) 0.01214 302.6 15.6
301(9) 0.01210 302.7 15.9
310(10) 0.01103 302.7 16.2
299(9) 0.01159 302.7 16.6
308(9) 0.01120 302.7 17.0
319(9) 0.01168 302.7 17.5
287(9) 0.01228 302.7 18.0
327(10) 0.01057 302.8 18.5
308(9) 0.01147 302.8 19.1
303(9) 0.01166 302.8 19.7
309(9) 0.01201 302.8 20.3
297(9) 0.01213 302.8 21.0
313(10) 0.01063 302.8 21.7
335(10) 0.01040 302.9 22.4
310(9) 0.01156 302.9 23.2
322(9) 0.01151 302.9 24.1
313(9) 0.01124 302.9 24.9
306(10) 0.01097 302.9 25.8
318(10) 0.01073 303.0 26.6
311(9) 0.01149 303.0 27.5
336(9) 0.01111 303.0 28.4
322(10) 0.01051 303.0 29.2
326(10) 0.01033 303.0 30.0
326(9) 0.01116 303.0 30.8
332(10) 0.01106 303.1 31.5
350(10) 0.01062 303.1 32.2
340(10) 0.01021 303.1 32.8
315(10) 0.01035 303.1 33.4
307(9) 0.01181 303.1 34.0
325(9) 0.01139 303.2 34.4
302(9) 0.01231 303.2 34.8
341(10) 0.01024 303.2 35.2
339(10) 0.00964 303.2 35.5
318(10) 0.01093 303.2 35.7
333(9) 0.01121 303.2 35.9
358(10) 0.01049 303.3 36.0
340(10) 0.01030 303.3 36.0
304(10) 0.01060 303.3 35.9
292(9) 0.01186 303.3 35.8
323(9) 0.01144 303.3 35.6
332(9) 0.01123 303.3 35.3
328(10) 0.01066 303.4 35.0
317(10) 0.01032 303.4 34.6
332(10) 0.01018 303.4 34.2
334(9) 0.01114 303.4 33.8
338(10) 0.01075 303.4 33.3
346(10) 0.00962 303.5 32.8
353(10) 0.00911 303.5 32.3
318(10) 0.01004 303.5 31.7
299(9) 0.01237 303.5 31.2
322(10) 0.01101 303.5 30.7
304(9) 0.01164 303.5 30.3
345(10) 0.00971 303.6 29.8
318(9) 0.01117 303.6 29.4
310(9) 0.01188 303.6 29.0
328(10) 0.01077 303.6 28.7
329(10) 0.01050 303.6 28.4
344(10) 0.00956 303.6 28.1
317(9) 0.01109 303.7 27.9
365(10) 0.01012 303.7 27.7
335(9) 0.01109 303.7 27.5
327(10) 0.01080 303.7 27.4
327(10) 0.01061 303.7 27.3
306(9) 0.01185 303.8 27.2
324(9) 0.01149 303.8 27.2
365(10) 0.00937 303.8 27.2
353(10) 0.00982 303.8 27.2
340(10) 0.01050 303.8 27.3
331(9) 0.01120 303.8 27.4
324(9) 0.01150 303.9 27.5
312(9) 0.01142 303.9 27.6
329(10) 0.01019 303.9 27.7
339(10) 0.01014 303.9 27.9
321(9) 0.01161 303.9 28.1
338(10) 0.01099 303.9 28.3
368(10) 0.00927 304.0 28.5
334(10) 0.01008 304.0 28.7
358(10) 0.00968 304.0 29.0
369(10) 0.01006 304.0 29.2
337(10) 0.01101 304.0 29.5
326(10) 0.01066 304.1 29.9
337(10) 0.00971 304.1 30.3
329(10) 0.01053 304.1 30.7
330(10) 0.01102 304.1 31.2
337(10) 0.01099 304.1 31.7
351(10) 0.00977 304.1 32.4
344(10) 0.00982 304.2 33.1
364(10) 0.00934 304.2 33.9
345(10) 0.01057 304.2 34.9
350(10) 0.01060 304.2 35.9
365(10) 0.00963 304.2 37.1
360(10) 0.00945 304.2 38.4
401(11) 0.00849 304.3 39.9
366(10) 0.01016 304.3 41.5
348(10) 0.01086 304.3 43.2
366(10) 0.00944 304.3 45.0
349(10) 0.00945 304.3 46.9
352(10) 0.00975 304.4 48.7
332(9) 0.01128 304.4 50.5
340(10) 0.01068 304.4 52.2
348(10) 0.00963 304.4 53.5
345(10) 0.00977 304.4 54.6
359(10) 0.00934 304.4 55.1
356(10) 0.01056 304.5 55.1
355(10) 0.00987 304.5 54.6
337(10) 0.01007 304.5 53.5
345(10) 0.00971 304.5 52.0
340(10) 0.01050 304.5 50.1
356(10) 0.01044 304.5 47.9
353(10) 0.01021 304.6 45.5
367(10) 0.00907 304.6 43.0
344(10) 0.00958 304.6 40.5
327(10) 0.01100 304.6 38.1
326(9) 0.01140 304.6 35.8
338(10) 0.01033 304.7 33.6
321(10) 0.01066 304.7 31.5
327(10) 0.01054 304.7 29.6
355(10) 0.01024 304.7 27.9
338(10) 0.01107 304.7 26.2
337(10) 0.01008 304.7 24.8
310(10) 0.01066 304.8 23.4
324(10) 0.01044 304.8 22.2
329(10) 0.01092 304.8 21.2
347(10) 0.01089 304.8 20.2
313(9) 0.01121 304.8 19.3
316(10) 0.01005 304.9 18.5
310(9) 0.01122 304.9 17.8
314(9) 0.01164 304.9 17.2
337(9) 0.01119 304.9 16.6
308(9) 0.01153 304.9 16.1
326(10) 0.00975 304.9 15.6
322(10) 0.01073 305.0 15.2
322(9) 0.01140 305.0 14.8
329(9) 0.01119 305.0 14.5
322(10) 0.01060 305.0 14.2
293(9) 0.01125 305.0 13.9
305(9) 0.01144 305.0 13.6
301(9) 0.01210 305.1 13.4
318(9) 0.01162 305.1 13.2
333(10) 0.01044 305.1 13.0
340(10) 0.00942 305.1 12.8
300(9) 0.01184 305.1 12.6
344(10) 0.01076 305.2 12.5
316(9) 0.01146 305.2 12.3
297(9) 0.01188 305.2 12.2
322(10) 0.01043 305.2 12.1
351(10) 0.01005 305.2 12.0
331(9) 0.01123 305.2 11.9
343(10) 0.01072 305.3 11.8
319(10) 0.01104 305.3 11.7
327(10) 0.01014 305.3 11.7
315(10) 0.01103 305.3 11.6
292(9) 0.01272 305.3 11.6
291(9) 0.01239 305.3 11.5
293(9) 0.01178 305.4 11.5
313(9) 0.01113 305.4 11.4
336(10) 0.01034 305.4 11.4
313(9) 0.01183 305.4 11.4
324(10) 0.01098 305.4 11.4
324(10) 0.01049 305.5 11.4
317(10) 0.01066 305.5 11.3
321(10) 0.01102 305.5 11.3
308(9) 0.01201 305.5 11.3
325(10) 0.01066 305.5 11.3
335(10) 0.01005 305.5 11.3
319(10) 0.01089 305.6 11.4
313(9) 0.01142 305.6 11.4
310(9) 0.01200 305.6 11.4
301(9) 0.01117 305.6 11.4
309(10) 0.01085 305.6 11.4
327(10) 0.01016 305.6 11.5
310(9) 0.01201 305.7 11.5
339(10) 0.01086 305.7 11.6
312(9) 0.01120 305.7 11.6
314(10) 0.01051 305.7 11.7
290(9) 0.01214 305.7 11.7
325(9) 0.01137 305.8 11.8
315(9) 0.01188 305.8 11.9
304(9) 0.01156 305.8 11.9
300(10) 0.01072 305.8 12.0
294(9) 0.01154 305.8 12.2
309(9) 0.01179 305.8 12.3
304(9) 0.01233 305.9 12.4
337(10) 0.01011 305.9 12.6
325(10) 0.00965 305.9 12.7
331(10) 0.01041 305.9 12.9
331(9) 0.01114 305.9 13.1
298(9) 0.01231 305.9 13.3
312(9) 0.01136 306.0 13.6
315(10) 0.01017 306.0 13.8
327(10) 0.01068 306.0 14.1
324(9) 0.01156 306.0 14.4
319(9) 0.01152 306.0 14.7
310(9) 0.01137 306.1 15.0
327(10) 0.00962 306.1 15.3
320(10) 0.01101 306.1 15.6
359(10) 0.01043 306.1 15.8
318(9) 0.01147 306.1 16.1
314(10) 0.01080 306.1 16.3
340(10) 0.00989 306.2 16.4
341(10) 0.01006 306.2 16.5
331(9) 0.01133 306.2 16.5
321(9) 0.01134 306.2 16.4
328(10) 0.01066 306.2 16.3
322(10) 0.01040 306.2 16.0
327(10) 0.01051 306.3 15.7
332(9) 0.01124 306.3 15.3
333(10) 0.01036 306.3 14.9
331(10) 0.01016 306.3 14.4
329(10) 0.01030 306.3 13.9
308(9) 0.01130 306.4 13.4
318(9) 0.01162 306.4 12.9
318(9) 0.01109 306.4 12.5
314(10) 0.01096 306.4 12.0
320(10) 0.01093 306.4 11.5
342(10) 0.01033 306.4 11.1
309(9) 0.01205 306.5 10.6
314(10) 0.01103 306.5 10.2
335(10) 0.00970 306.5 9.9
300(9) 0.01187 306.5 9.5
312(9) 0.01178 306.5 9.2
333(9) 0.01115 306.6 8.9
312(9) 0.01123 306.6 8.6
306(9) 0.01110 306.6 8.3
283(9) 0.01226 306.6 8.1
300(9) 0.01204 306.6 7.8
319(9) 0.01165 306.6 7.6
317(10) 0.01101 306.7 7.4
301(10) 0.01085 306.7 7.2
294(9) 0.01155 306.7 7.1
278(9) 0.01344 306.7 6.9
306(9) 0.01208 306.7 6.8
294(9) 0.01211 306.7 6.6
296(9) 0.01118 306.8 6.5
323(10) 0.01017 306.8 6.4
297(9) 0.01247 306.8 6.3
329(10) 0.01079 306.8 6.2
310(10) 0.01100 306.8 6.1
302(10) 0.01071 306.9 6.0
325(10) 0.01033 306.9 5.9
319(9) 0.01169 306.9 5.8
330(9) 0.01120 306.9 5.7
344(10) 0.00994 306.9 5.7
319(10) 0.01022 306.9 5.6
288(9) 0.01241 307.0 5.5
299(9) 0.01255 307.0 5.5
300(9) 0.01227 307.0 5.4
314(10) 0.01086 307.0 5.4
310(9) 0.01110 307.0 5.3
308(9) 0.01136 307.0 5.3
324(9) 0.01155 307.1 5.3
299(9) 0.01231 307.1 5.2
312(9) 0.01122 307.1 5.2
311(10) 0.01108 307.1 5.2
314(10) 0.01099 307.1 5.1
286(9) 0.01300 307.2 5.1
302(9) 0.01180 307.2 5.1
290(9) 0.01190 307.2 5.1
313(10) 0.01093 307.2 5.1
323(9) 0.01119 307.2 5.1
317(9) 0.01166 307.2 5.1
289(9) 0.01227 307.3 5.0
309(10) 0.01090 307.3 5.0
288(9) 0.01192 307.3 5.0
306(9) 0.01132 307.3 5.0
300(9) 0.01235 307.3 5.0
296(9) 0.01219 307.3 5.0
320(10) 0.01050 307.4 5.0
314(10) 0.01091 307.4 5.0
321(10) 0.01104 307.4 4.9
268(8) 0.01386 307.4 4.9
296(9) 0.01136 307.4 4.9
303(10) 0.01092 307.5 4.9
298(9) 0.01171 307.5 4.9
302(9) 0.01215 307.5 5.0
300(9) 0.01234 307.5 5.0
322(10) 0.01088 307.5 5.0
327(10) 0.01002 307.5 5.0
294(9) 0.01237 307.6 5.0
330(10) 0.01100 307.6 5.0
308(9) 0.01199 307.6 5.0
300(9) 0.01108 307.6 5.1
294(10) 0.01096 307.5 5.1
318(10) 0.01070 307.5 5.1
292(9) 0.01263 307.5 5.1
293(9) 0.01275 307.5 5.2
295(9) 0.01181 307.5 5.2
303(10) 0.01060 307.5 5.2
299(9) 0.01153 307.5 5.3
295(9) 0.01231 307.5 5.3
308(9) 0.01212 307.4 5.4
318(10) 0.01077 307.4 5.4
318(10) 0.00990 307.4 5.5
298(9) 0.01158 307.4 5.5
293(9) 0.01273 307.4 5.6
304(9) 0.01177 307.4 5.6
294(9) 0.01182 307.4 5.7
307(10) 0.01094 307.3 5.7
335(10) 0.01008 307.3 5.8
295(9) 0.01262 307.3 5.8
291(9) 0.01236 307.3 5.9
305(9) 0.01159 307.3 5.9
315(10) 0.01075 307.3 6.0
304(9) 0.01137 307.3 6.1
317(9) 0.01176 307.3 6.1
290(9) 0.01215 307.2 6.2
295(9) 0.01183 307.2 6.2
326(10) 0.01038 307.2 6.3
333(10) 0.01093 307.2 6.3
296(9) 0.01251 307.2 6.4
304(9) 0.01154 307.2 6.4
299(10) 0.01106 307.2 6.4
321(10) 0.01025 307.2 6.5
300(9) 0.01176 307.1 6.5
298(9) 0.01253 307.1 6.5
307(10) 0.01078 307.1 6.5
333(10) 0.00986 307.1 6.6
308(9) 0.01150 307.1 6.6
308(9) 0.01204 307.1 6.6
298(9) 0.01237 307.1 6.6
306(9) 0.01149 307.0 6.6
299(10) 0.01078 307.0 6.6
322(10) 0.01033 307.0 6.6
303(9) 0.01214 307.0 6.6
307(9) 0.01201 307.0 6.5
307(9) 0.01131 307.0 6.5
332(10) 0.01027 307.0 6.5
357(10) 0.00996 307.0 6.5
335(10) 0.01082 306.9 6.5
301(9) 0.01248 306.9 6.4
281(9) 0.01289 306.9 6.4
318(10) 0.01026 306.9 6.4
304(9) 0.01188 306.9 6.3
301(9) 0.01217 306.9 6.3
287(9) 0.01269 306.9 6.3
307(9) 0.01112 306.9 6.2
318(10) 0.00993 306.8 6.2
288(9) 0.01253 306.8 6.2
321(9) 0.01129 306.8 6.1
288(9) 0.01307 306.8 6.1
300(9) 0.01131 306.8 6.1
308(10) 0.01049 306.8 6.0
313(10) 0.01102 306.8 6.0
283(9) 0.01312 306.7 6.0
298(9) 0.01248 306.7 5.9
299(9) 0.01117 306.7 5.9
301(10) 0.01107 306.7 5.9
284(9) 0.01223 306.7 5.8
316(9) 0.01188 306.7 5.8
306(9) 0.01177 306.7 5.8
312(10) 0.01077 306.7 5.7
298(9) 0.01123 306.6 5.7
288(9) 0.01230 306.6 5.7
308(9) 0.01194 306.6 5.6
306(9) 0.01182 306.6 5.6
311(10) 0.01104 306.6 5.5
305(10) 0.01104 306.6 5.5
279(9) 0.01260 306.6 5.5
313(9) 0.01192 306.6 5.4
312(9) 0.01157 306.5 5.4
308(9) 0.01120 306.5 5.4
294(9) 0.01186 306.5 5.3
288(9) 0.01233 306.5 5.3
319(9) 0.01162 306.5 5.2
319(9) 0.01127 306.5 5.2
314(10) 0.01083 306.5 5.2
309(9) 0.01121 306.4 5.1
296(9) 0.01230 306.4 5.1
312(9) 0.01201 306.4 5.1
303(9) 0.01125 306.4 5.0
294(9) 0.01123 306.4 5.0
299(9) 0.01131 306.4 5.0
287(9) 0.01273 306.4 5.0
307(9) 0.01223 306.4 4.9
289(9) 0.01220 306.3 4.9
307(10) 0.01058 306.3 4.9
315(10) 0.01101 306.3 4.9
310(9) 0.01178 306.3 4.9
278(9) 0.01357 306.3 4.8
299(9) 0.01150 306.3 4.8
318(10) 0.01005 306.3 4.8
308(9) 0.01127 306.3 4.8
298(9) 0.01245 306.2 4.8
292(9) 0.01275 306.2 4.8
299(9) 0.01171 306.2 4.8
275(9) 0.01241 306.2 4.8
309(9) 0.01137 306.2 4.8
298(9) 0.01253 306.2 4.8
287(9) 0.01265 306.2 4.8
285(9) 0.01206 306.1 4.8
303(10) 0.01065 306.1 4.8
299(9) 0.01169 306.1 4.8
312(9) 0.01189 306.1 4.8
310(9) 0.01168 306.1 4.9
282(9) 0.01266 306.1 4.9
284(9) 0.01149 306.1 4.9
282(9) 0.01254 306.1 4.9
321(9) 0.01161 306.0 5.0
298(9) 0.01225 306.0 5.0
327(10) 0.01024 306.0 5.0
279(9) 0.01179 306.0 5.1
303(9) 0.01149 306.0 5.1
304(9) 0.01226 306.0 5.2
303(9) 0.01193 306.0 5.2
288(9) 0.01203 306.0 5.3
297(9) 0.01129 305.9 5.4
325(10) 0.01101 305.9 5.4
296(9) 0.01254 305.9 5.5
299(9) 0.01178 305.9 5.6
303(9) 0.01167 305.9 5.7
306(9) 0.01141 305.9 5.8
313(9) 0.01138 305.9 5.9
304(9) 0.01224 305.8 6.0
279(9) 0.01291 305.8 6.1
312(10) 0.01086 305.8 6.3
320(10) 0.01036 305.8 6.4
302(9) 0.01184 305.8 6.6
312(9) 0.01187 305.8 6.7
315(9) 0.01123 305.8 6.9
303(9) 0.01116 305.8 7.1
333(10) 0.01022 305.7 7.3
323(9) 0.01133 305.7 7.6
300(9) 0.01234 305.7 7.8
335(10) 0.01039 305.7 8.1
304(9) 0.01122 305.7 8.4
301(9) 0.01171 305.7 8.7
324(9) 0.01109 305.7 9.0
311(9) 0.01180 305.7 9.4
321(10) 0.01071 305.6 9.8
316(10) 0.01019 305.6 10.2
287(9) 0.01219 305.6 10.6
304(9) 0.01206 305.6 11.0
308(9) 0.01212 305.6 11.4
283(9) 0.01272 305.6 11.9
287(9) 0.01130 305.6 12.4
312(9) 0.01117 305.5 12.8
286(9) 0.01253 305.5 13.3
332(9) 0.01115 305.5 13.7
320(10) 0.01074 305.5 14.1
303(10) 0.01066 305.5 14.5
300(9) 0.01185 305.5 14.8
329(9) 0.01125 305.5 15.0
299(9) 0.01244 305.5 15.2
319(10) 0.01086 305.4 15.3
295(9) 0.01169 305.4 15.3
311(10) 0.01097 305.4 15.2
303(9) 0.01231 305.4 15.1
308(9) 0.01186 305.4 14.9
314(9) 0.01132 305.4 14.6
299(9) 0.01145 305.4 14.3
314(9) 0.01123 305.4 14.0
330(9) 0.01132 305.3 13.6
300(9) 0.01191 305.3 13.2
312(9) 0.01136 305.3 12.8
318(10) 0.01061 305.3 12.5
318(10) 0.01086 305.3 12.1
306(9) 0.01210 305.3 11.7
291(9) 0.01245 305.3 11.4
313(10) 0.01057 305.2 11.1
324(10) 0.01042 305.2 10.8
292(9) 0.01200 305.2 10.5
293(9) 0.01265 305.2 10.2
302(9) 0.01165 305.2 10.0
275(9) 0.01239 305.2 9.8
285(9) 0.01172 305.2 9.6
295(9) 0.01225 305.2 9.4
321(9) 0.01167 305.1 9.3
294(9) 0.01159 305.1 9.2
315(10) 0.01025 305.1 9.0
298(9) 0.01192 305.1 9.0
310(9) 0.01185 305.1 8.9
319(9) 0.01159 305.1 8.8
326(10) 0.01047 305.1 8.8
293(9) 0.01158 305.1 8.7
339(10) 0.00981 305.0 8.7
300(9) 0.01200 305.0 8.7
322(9) 0.01159 305.0 8.7
344(10) 0.00998 305.0 8.7
285(9) 0.01204 305.0 8.7
312(9) 0.01109 305.0 8.7
311(9) 0.01163 305.0 8.8
313(9) 0.01170 304.9 8.8
311(10) 0.01105 304.9 8.9
311(10) 0.01033 304.9 8.9
317(10) 0.01081 304.9 9.0
320(9) 0.01159 304.9 9.1
313(9) 0.01161 304.9 9.2
327(10) 0.01059 304.9 9.3
317(10) 0.01016 304.9 9.4
286(9) 0.01235 304.8 9.5
304(9) 0.01199 304.8 9.7
313(9) 0.01167 304.8 9.8
308(10) 0.01099 304.8 10.0
314(10) 0.01006 304.8 10.3
314(9) 0.01134 304.8 10.5
316(9) 0.01184 304.8 10.8
305(9) 0.01205 304.8 11.1
345(10) 0.01013 304.7 11.5
317(10) 0.01033 304.7 11.9
301(9) 0.01116 304.7 12.3
318(9) 0.01164 304.7 12.8
308(9) 0.01204 304.7 13.4
302(9) 0.01143 304.7 13.9
319(10) 0.01045 304.7 14.6
341(10) 0.01012 304.6 15.3
320(9) 0.01160 304.6 16.0
323(10) 0.01108 304.6 16.8
304(9) 0.01130 304.6 17.6
331(10) 0.01012 304.6 18.4
323(10) 0.01091 304.6 19.3
324(9) 0.01151 304.6 20.2
347(10) 0.01012 304.6 21.0
318(9) 0.01132 304.5 21.8
332(10) 0.01032 304.5 22.6
335(10) 0.01085 304.5 23.2
332(9) 0.01114 304.5 23.8
343(10) 0.01013 304.5 24.2
345(10) 0.00950 304.5 24.4
337(10) 0.01023 304.5 24.4
358(10) 0.01021 304.5 24.3
337(10) 0.01085 304.4 23.9
310(10) 0.01083 304.4 23.4
307(10) 0.01091 304.4 22.8
323(10) 0.01049 304.4 22.0
323(9) 0.01112 304.4 21.2
337(9) 0.01109 304.4 20.3
337(10) 0.01004 304.4 19.4
320(10) 0.01041 304.3 18.5
323(10) 0.01089 304.3 17.6
328(10) 0.01085 304.3 16.7
308(9) 0.01207 304.3 15.8
316(10) 0.01079 304.3 15.0
318(10) 0.01008 304.3 14.2
320(10) 0.01073 304.3 13.5
307(9) 0.01214 304.3 12.8
342(10) 0.01064 304.2 12.2
310(9) 0.01150 304.2 11.6
310(10) 0.01034 304.2 11.1
308(9) 0.01157 304.2 10.6
294(9) 0.01266 304.2 10.2
320(9) 0.01132 304.2 9.8
294(9) 0.01184 304.2 9.4
306(10) 0.01063 304.2 9.1
325(10) 0.01090 304.1 8.8
305(9) 0.01237 304.1 8.6
295(9) 0.01185 304.1 8.4
310(9) 0.01114 304.1 8.2
285(9) 0.01141 304.1 8.0
305(10) 0.01080 304.1 7.9
288(9) 0.01281 304.1 7.8
293(9) 0.01241 304.1 7.7
322(10) 0.01041 304.0 7.6
328(10) 0.01004 304.0 7.6
281(9) 0.01232 304.0 7.5
311(9) 0.01202 304.0 7.5
309(9) 0.01137 304.0 7.4
281(9) 0.01256 304.0 7.4
311(10) 0.01065 304.0 7.4
291(9) 0.01189 303.9 7.4
306(9) 0.01220 303.9 7.3
286(9) 0.01221 303.9 7.3
274(9) 0.01255 303.9 7.3
313(10) 0.01067 303.9 7.2
317(10) 0.01080 303.9 7.2
313(9) 0.01198 303.9 7.1
290(9) 0.01223 303.9 7.1
303(9) 0.01128 303.8 7.0
295(9) 0.01193 303.8 6.9
290(9) 0.01226 303.8 6.8
306(9) 0.01221 303.8 6.7
311(10) 0.01072 303.8 6.6
327(10) 0.00976 303.8 6.5
293(9) 0.01149 303.8 6.4
268(9) 0.01341 303.8 6.2
331(10) 0.01101 303.7 6.1
298(9) 0.01163 303.7 6.0
322(10) 0.00996 303.7 5.9
275(9) 0.01247 303.7 5.8
273(9) 0.01322 303.7 5.6
294(9) 0.01263 303.7 5.5
305(9) 0.01119 303.7 5.4
298(10) 0.01089 303.6 5.3
306(9) 0.01148 303.6 5.2
305(9) 0.01210 303.6 5.1
333(10) 0.01101 303.6 5.0
295(9) 0.01170 303.6 4.9
308(10) 0.01042 303.6 4.9
285(9) 0.01274 303.6 4.8
297(9) 0.01212 303.6 4.7
304(9) 0.01217 303.6 4.7
295(9) 0.01192 303.6 4.6
305(10) 0.01087 303.6 4.5
311(9) 0.01160 303.6 4.5
326(9) 0.01125 303.6 4.5
305(9) 0.01165 303.6 4.4
269(9) 0.01286 303.6 4.4
316(10) 0.01027 303.6 4.4
292(9) 0.01213 303.6 4.3
310(9) 0.01203 303.6 4.3
289(9) 0.01273 303.6 4.3
298(9) 0.01164 303.7 4.3
292(9) 0.01111 303.7 4.3
281(9) 0.01225 303.7 4.3
320(9) 0.01180 303.7 4.3
293(9) 0.01234 303.7 4.3
290(9) 0.01220 303.7 4.3
293(10) 0.01097 303.7 4.3
325(10) 0.01013 303.7 4.3
307(9) 0.01210 303.7 4.3
326(10) 0.01041 303.7 4.4
302(9) 0.01143 303.7 4.4
308(9) 0.01130 303.7 4.4
320(10) 0.01079 303.7 4.5
288(9) 0.01294 303.7 4.5
315(9) 0.01108 303.7 4.6
304(9) 0.01120 303.8 4.6
299(9) 0.01195 303.8 4.7
323(9) 0.01112 303.8 4.8
332(9) 0.01135 303.8 4.9
333(10) 0.01042 303.8 4.9
310(10) 0.01091 303.8 5.0
308(9) 0.01113 303.8 5.2
308(9) 0.01161 303.8 5.3
322(9) 0.01163 303.8 5.4
324(10) 0.01090 303.8 5.6
297(9) 0.01148 303.8 5.8
306(9) 0.01137 303.8 6.0
319(9) 0.01163 303.8 6.2
296(9) 0.01257 303.8 6.5
307(9) 0.01120 303.8 6.8
309(10) 0.01035 303.9 7.1
332(10) 0.01023 303.9 7.5
323(9) 0.01133 303.9 7.9
300(9) 0.01257 303.9 8.3
320(10) 0.01060 303.9 8.8
310(10) 0.01079 303.9 9.4
333(10) 0.01035 303.9 9.9
337(10) 0.01087 303.9 10.5
323(9) 0.01171 303.9 11.1
329(10) 0.01026 303.9 11.7
310(10) 0.01019 303.9 12.3
309(9) 0.01116 303.9 12.8
338(10) 0.01083 303.9 13.2
339(10) 0.01089 303.9 13.6
323(10) 0.01056 303.9 13.8
329(10) 0.00960 304.0 13.8
317(10) 0.01031 304.0 13.8
309(9) 0.01194 304.0 13.7
316(10) 0.01105 304.0 13.5
324(10) 0.01036 304.0 13.2
329(10) 0.01011 304.0 13.0
325(10) 0.01058 304.0 12.8
304(9) 0.01209 304.0 12.6
315(9) 0.01146 304.0 12.4
291(9) 0.01172 304.0 12.2
303(9) 0.01128 304.0 12.2
342(10) 0.00984 304.0 12.1
328(9) 0.01121 304.0 12.1
332(10) 0.01090 304.0 12.2
308(9) 0.01154 304.0 12.3
309(9) 0.01160 304.0 12.5
331(10) 0.01064 304.1 12.6
318(9) 0.01171 304.1 12.9
325(10) 0.01051 304.1 13.1
313(10) 0.01058 304.1 13.4
315(10) 0.01091 304.1 13.7
349(10) 0.01015 304.1 14.0
348(10) 0.01074 304.1 14.3
315(10) 0.01073 304.1 14.7
310(10) 0.01082 304.1 15.0
323(10) 0.01051 304.1 15.3
313(9) 0.01149 304.1 15.6
333(9) 0.01113 304.1 15.9
340(10) 0.01011 304.1 16.2
326(10) 0.01071 304.1 16.4
315(9) 0.01142 304.1 16.6
330(10) 0.01104 304.2 16.7
318(9) 0.01167 304.2 16.8
345(10) 0.00964 304.2 16.9
332(10) 0.00969 304.2 16.9
338(10) 0.01015 304.2 16.9
331(10) 0.01096 304.2 16.9
332(10) 0.01101 304.2 16.8
317(10) 0.01092 304.2 16.7
299(9) 0.01132 304.2 16.6
319(10) 0.01100 304.2 16.5
312(9) 0.01194 304.2 16.3
322(9) 0.01127 304.2 16.2
319(10) 0.01084 304.2 16.0
330(10) 0.00954 304.2 15.9
318(10) 0.01087 304.2 15.7
329(9) 0.01138 304.3 15.6
308(9) 0.01192 304.3 15.5
318(10) 0.01067 304.3 15.3
328(10) 0.00988 304.3 15.2
307(9) 0.01120 304.3 15.1
316(9) 0.01163 304.3 15.1
334(10) 0.01064 304.3 15.0
336(10) 0.01043 304.3 15.0
322(10) 0.01047 304.3 15.0
335(10) 0.01068 304.3 15.1
327(9) 0.01145 304.3 15.1
328(10) 0.01106 304.3 15.3
334(10) 0.01056 304.3 15.4
311(10) 0.01099 304.3 15.6
343(10) 0.00990 304.3 15.8
302(9) 0.01243 304.3 16.1
343(10) 0.01018 304.4 16.4
313(9) 0.01133 304.4 16.8
324(10) 0.01038 304.4 17.3
313(9) 0.01113 304.4 17.7
340(10) 0.01098 304.4 18.3
330(10) 0.01052 304.4 18.9
345(10) 0.00963 304.4 19.5
344(10) 0.01025 304.4 20.1
331(10) 0.01058 304.4 20.8
308(9) 0.01212 304.4 21.5
310(9) 0.01122 304.4 22.1
320(10) 0.01084 304.4 22.7
311(9) 0.01140 304.4 23.1
297(9) 0.01222 304.4 23.4
313(9) 0.01182 304.4 23.6
324(10) 0.01096 304.5 23.6
306(9) 0.01113 304.5 23.3
330(10) 0.01042 304.5 22.9
322(9) 0.01128 304.5 22.4
351(10) 0.01071 304.5 21.6
338(10) 0.01006 304.5 20.8
323(10) 0.01008 304.5 19.9
301(9) 0.01194 304.5 19.0
326(9) 0.01130 304.5 18.1
339(10) 0.01099 304.5 17.2
328(10) 0.01067 304.5 16.3
313(10) 0.01029 304.5 15.5
312(9) 0.01125 304.5 14.7
331(10) 0.01099 304.5 13.9
309(9) 0.01201 304.5 13.2
305(9) 0.01172 304.6 12.6
310(10) 0.01058 304.6 12.0
326(10) 0.01084 304.6 11.5
308(9) 0.01167 304.6 11.0
320(9) 0.01159 304.6 10.6
314(9) 0.01137 304.6 10.2
304(9) 0.01130 304.6 9.9
306(9) 0.01135 304.6 9.6
298(9) 0.01254 304.6 9.3
335(10) 0.01074 304.6 9.1
330(10) 0.01019 304.6 8.9
294(9) 0.01129 304.6 8.7
304(10) 0.01108 304.6 8.6
311(9) 0.01198 304.6 8.5
327(10) 0.01098 304.6 8.4
315(10) 0.01054 304.6 8.3
311(10) 0.01083 304.7 8.3
332(10) 0.01051 304.7 8.3
298(9) 0.01259 304.7 8.3
304(9) 0.01147 304.7 8.3
322(10) 0.01057 304.7 8.4
325(10) 0.01028 304.7 8.5
314(9) 0.01122 304.7 8.6
337(10) 0.01100 304.7 8.8
287(9) 0.01213 304.7 9.0
294(9) 0.01127 304.7 9.2
295(9) 0.01151 304.7 9.5
321(9) 0.01119 304.7 9.8
301(9) 0.01219 304.7 10.2
291(9) 0.01183 304.7 10.6
296(9) 0.01170 304.7 11.1
326(10) 0.01058 304.8 11.6
321(9) 0.01127 304.8 12.1
302(9) 0.01236 304.8 12.7
309(9) 0.01130 304.8 13.4
333(10) 0.00988 304.8 14.1
310(10) 0.01096 304.8 14.8
314(9) 0.01174 304.8 15.6
312(9) 0.01182 304.8 16.4
336(10) 0.01039 304.8 17.2
322(10) 0.01057 304.8 17.9
314(9) 0.01137 304.8 18.6
336(10) 0.01076 304.8 19.2
306(9) 0.01206 304.8 19.7
294(9) 0.01196 304.8 20.0
323(10) 0.00984 304.8 20.2
314(9) 0.01118 304.9 20.2
298(9) 0.01213 304.9 20.0
318(9) 0.01168 304.9 19.6
318(10) 0.01066 304.9 19.1
322(10) 0.01012 304.9 18.5
329(10) 0.01053 304.9 17.7
334(10) 0.01105 304.9 17.0
346(10) 0.01059 304.9 16.2
338(10) 0.01041 304.9 15.4
322(10) 0.01052 304.9 14.6
329(10) 0.01039 304.9 13.9
335(10) 0.01106 304.9 13.1
317(9) 0.01164 304.9 12.5
313(10) 0.01079 304.9 11.9
314(10) 0.01050 304.9 11.3
316(9) 0.01117 305.0 10.8
316(9) 0.01180 305.0 10.3
311(9) 0.01197 305.0 9.9
321(10) 0.01044 305.0 9.5
331(10) 0.00998 305.0 9.2
306(9) 0.01124 305.0 8.9
283(9) 0.01314 305.0 8.7
318(9) 0.01110 305.0 8.5
301(9) 0.01162 305.0 8.4
298(9) 0.01130 305.0 8.3
299(9) 0.01186 305.0 8.3
311(9) 0.01190 305.0 8.4
328(10) 0.01099 305.0 8.5
311(10) 0.01080 305.0 8.6
310(10) 0.01066 305.0 8.9
296(9) 0.01197 305.0 9.2
282(9) 0.01315 305.1 9.6
306(9) 0.01127 305.1 10.1
320(10) 0.01051 305.1 10.7
324(10) 0.01054 305.1 11.4
330(10) 0.01097 305.1 12.2
312(9) 0.01197 305.1 13.0
324(10) 0.01069 305.1 13.8
314(10) 0.01092 305.1 14.5
330(10) 0.01041 305.1 15.2
326(10) 0.01102 305.1 15.7
337(10) 0.01092 305.1 15.9
304(9) 0.01161 305.1 15.9
348(10) 0.00964 305.1 15.7
329(10) 0.01059 305.1 15.2
362(10) 0.00993 305.1 14.6
330(9) 0.01139 305.2 13.9
325(10) 0.01084 305.2 13.2
310(10) 0.01065 305.2 12.5
308(9) 0.01122 305.2 11.8
276(9) 0.01334 305.2 11.2
320(9) 0.01165 305.2 10.7
307(9) 0.01120 305.2 10.2
310(10) 0.01057 305.2 9.9
308(10) 0.01075 305.2 9.6
304(9) 0.01211 305.2 9.4
298(9) 0.01258 305.2 9.3
293(9) 0.01205 305.2 9.2
283(9) 0.01182 305.2 9.1
311(9) 0.01117 305.2 9.1
306(9) 0.01184 305.2 9.1
308(9) 0.01219 305.3 9.2
321(10) 0.01074 305.3 9.3
297(9) 0.01127 305.3 9.4
291(9) 0.01231 305.3 9.5
314(9) 0.01187 305.3 9.6
312(9) 0.01144 305.3 9.8
317(10) 0.01087 305.3 9.9
285(9) 0.01200 305.3 10.1
325(10) 0.01061 305.3 10.3
315(9) 0.01181 305.3 10.5
326(9) 0.01122 305.3 10.7
346(10) 0.01014 305.3 10.9
351(10) 0.00976 305.3 11.2
350(10) 0.01010 305.3 11.5
335(10) 0.01099 305.3 11.8
303(9) 0.01206 305.3 12.1
288(9) 0.01210 305.4 12.4
308(10) 0.01051 305.4 12.8
304(9) 0.01165 305.4 13.2
313(9) 0.01198 305.4 13.6
316(10) 0.01078 305.4 14.1
338(10) 0.00996 305.4 14.6
315(10) 0.01064 305.4 15.2
324(10) 0.01067 305.4 15.8
321(9) 0.01156 305.4 16.6
323(10) 0.01092 305.4 17.4
314(10) 0.01092 305.4 18.3
327(10) 0.01083 305.4 19.3
337(10) 0.01078 305.4 20.4
318(9) 0.01168 305.4 21.7
357(10) 0.00977 305.4 23.2
320(10) 0.01087 305.5 24.8
319(9) 0.01131 305.5 26.7
355(10) 0.01032 305.5 28.9
353(10) 0.01061 305.5 31.3
352(10) 0.01011 305.5 34.0
382(11) 0.00876 305.5 37.0
388(11) 0.00885 305.5 40.4
371(10) 0.01009 305.5 44.1
369(10) 0.00993 305.5 48.2
386(11) 0.00854 305.5 52.7
398(11) 0.00820 305.5 57.5
412(11) 0.00847 305.5 62.7
395(10) 0.00943 305.5 68.1
409(11) 0.00903 305.5 73.8
417(11) 0.00826 305.5 79.5
418(12) 0.00755 305.6 85.1
429(11) 0.00802 305.6 90.3
430(11) 0.00855 305.6 95.1
441(11) 0.00841 305.6 99.0
427(11) 0.00819 305.6 101.8
415(11) 0.00784 305.6 103.3
404(11) 0.00879 305.6 103.4
417(11) 0.00889 305.6 102.1
402(11) 0.00906 305.6 99.5
426(11) 0.00832 305.6 95.8
390(11) 0.00882 305.6 91.2
389(11) 0.00902 305.6 86.1
377(10) 0.00976 305.6 80.6
361(10) 0.00994 305.6 75.1
368(10) 0.00961 305.6 69.5
364(10) 0.00928 305.6 64.2
352(10) 0.01001 305.7 59.1
363(10) 0.01021 305.7 54.2
379(10) 0.00941 305.7 49.7
358(10) 0.00953 305.7 45.5
356(10) 0.00966 305.7 41.7
332(10) 0.01079 305.7 38.2
320(9) 0.01165 305.7 35.1
341(10) 0.01055 305.7 32.2
345(10) 0.00965 305.7 29.6
318(10) 0.01083 305.7 27.3
348(10) 0.01010 305.7 25.2
339(10) 0.01095 305.7 23.4
337(10) 0.01069 305.7 21.8
338(10) 0.01015 305.7 20.3
336(10) 0.01049 305.7 19.0
334(10) 0.01035 305.8 17.9
325(9) 0.01151 305.8 16.9
356(10) 0.00938 305.8 16.0
342(10) 0.00926 305.8 15.2
320(10) 0.01085 305.8 14.5
318(9) 0.01149 305.8 13.8
314(9) 0.01183 305.8 13.2
300(9) 0.01173 305.8 12.7
320(10) 0.01054 305.8 12.3
306(9) 0.01140 305.8 11.8
342(10) 0.01045 305.8 11.5
319(9) 0.01159 305.8 11.1
308(9) 0.01111 305.8 10.8
313(10) 0.01011 305.8 10.6
288(9) 0.01217 305.8 10.3
328(10) 0.01105 305.9 10.1
316(9) 0.01174 305.9 9.9
318(10) 0.01080 305.9 9.8
278(9) 0.01172 305.9 9.6
292(9) 0.01182 305.9 9.5
307(9) 0.01225 305.9 9.4
312(9) 0.01196 305.9 9.4
310(10) 0.01099 305.9 9.3
281(9) 0.01197 305.9 9.3
311(9) 0.01117 305.9 9.2
362(10) 0.01030 305.9 9.2
315(9) 0.01157 305.9 9.2
320(9) 0.01113 305.9 9.2
309(10) 0.01096 305.9 9.2
298(9) 0.01168 305.9 9.2
297(9) 0.01248 306.0 9.1
300(9) 0.01246 306.0 9.1
310(9) 0.01154 306.0 9.1
308(10) 0.01084 306.0 9.1
283(9) 0.01185 306.0 9.0
287(9) 0.01294 306.0 8.9
322(9) 0.01126 306.0 8.8
328(10) 0.01052 306.0 8.7
304(9) 0.01121 306.0 8.6
308(10) 0.01072 306.0 8.5
320(9) 0.01166 306.0 8.3
299(9) 0.01166 306.0 8.2
315(10) 0.01103 306.0 8.0
296(9) 0.01153 306.0 7.9
313(9) 0.01129 306.0 7.7
273(9) 0.01372 306.0 7.6
310(10) 0.01093 306.1 7.4
311(10) 0.01082 306.1 7.3
277(9) 0.01249 306.1 7.2
304(9) 0.01179 306.1 7.0
299(9) 0.01235 306.1 6.9
319(10) 0.01082 306.1 6.8
300(9) 0.01173 306.1 6.7
298(9) 0.01209 306.1 6.6
293(9) 0.01227 306.1 6.5
299(9) 0.01241 306.1 6.4
286(9) 0.01231 306.1 6.4
315(10) 0.01058 306.1 6.3
316(9) 0.01110 306.1 6.2
310(9) 0.01182 306.1 6.2
310(9) 0.01207 306.1 6.2
292(9) 0.01211 306.2 6.1
301(9) 0.01113 306.2 6.1
309(9) 0.01121 306.2 6.1
302(9) 0.01229 306.2 6.1
323(9) 0.01166 306.2 6.1
308(9) 0.01164 306.2 6.1
298(10) 0.01094 306.2 6.1
307(10) 0.01103 306.2 6.1
287(9) 0.01317 306.2 6.1
312(9) 0.01179 306.2 6.2
299(9) 0.01183 306.2 6.2
314(10) 0.01013 306.2 6.2
322(10) 0.01040 306.2 6.3
303(9) 0.01238 306.2 6.3
317(9) 0.01139 306.2 6.4
317(10) 0.01086 306.2 6.5
302(10) 0.01099 306.2 6.5
310(9) 0.01115 306.2 6.6
303(9) 0.01225 306.2 6.7
306(9) 0.01203 306.2 6.7
310(10) 0.01096 306.2 6.8
298(9) 0.01134 306.1 6.9
323(10) 0.01079 306.1 7.0
311(9) 0.01201 306.1 7.1
304(9) 0.01200 306.1 7.2
306(10) 0.01101 306.1 7.3
295(9) 0.01148 306.1 7.3
305(9) 0.01155 306.0 7.4
292(9) 0.01269 306.0 7.5
297(9) 0.01224 306.0 7.6
324(10) 0.01075 306.0 7.6
321(10) 0.01088 306.0 7.7
310(9) 0.01116 306.0 7.8
284(9) 0.01319 305.9 7.8
311(9) 0.01118 305.9 7.9
305(10) 0.01103 305.9 7.9
296(9) 0.01129 305.9 8.0
300(9) 0.01138 305.9 8.0
329(9) 0.01130 305.9 8.0
301(9) 0.01163 305.8 8.1
282(9) 0.01210 305.8 8.1
304(9) 0.01145 305.8 8.1
306(9) 0.01195 305.8 8.1
315(9) 0.01179 305.8 8.2
333(10) 0.00995 305.8 8.2
298(10) 0.01107 305.7 8.2
289(9) 0.01243 305.7 8.2
306(9) 0.01199 305.7 8.3
300(9) 0.01222 305.7 8.3
292(9) 0.01226 305.7 8.3
298(9) 0.01130 305.7 8.3
320(10) 0.01086 305.6 8.3
315(9) 0.01129 305.6 8.4
297(9) 0.01268 305.6 8.4
309(9) 0.01135 305.6 8.4
313(10) 0.01023 305.6 8.4
318(10) 0.01036 305.5 8.5
300(9) 0.01260 305.5 8.5
277(9) 0.01325 305.5 8.5
306(9) 0.01141 305.5 8.6
298(10) 0.01021 305.5 8.6
294(9) 0.01190 305.5 8.6
301(9) 0.01236 305.4 8.7
308(9) 0.01184 305.4 8.7
308(9) 0.01142 305.4 8.8
309(10) 0.01068 305.4 8.8
303(10) 0.01108 305.4 8.9
316(9) 0.01171 305.4 9.0
306(9) 0.01204 305.3 9.0
314(10) 0.01105 305.3 9.1
326(10) 0.01033 305.3 9.2
322(10) 0.01072 305.3 9.3
309(9) 0.01188 305.3 9.4
299(9) 0.01242 305.3 9.5
331(10) 0.01029 305.2 9.6
337(10) 0.00998 305.2 9.8
312(9) 0.01157 305.2 9.9
337(10) 0.01098 305.2 10.1
323(9) 0.01120 305.2 10.2
331(10) 0.01039 305.2 10.4
324(10) 0.01075 305.1 10.6
317(10) 0.01087 305.1 10.8
318(9) 0.01176 305.1 11.0
317(10) 0.01048 305.1 11.3
307(10) 0.01076 305.1 11.5
307(10) 0.01081 305.1 11.8
331(10) 0.01031 305.0 12.1
346(10) 0.01075 305.0 12.4
302(9) 0.01177 305.0 12.7
311(10) 0.01086 305.0 13.0
315(10) 0.01101 305.0 13.4
310(9) 0.01113 305.0 13.8
334(10) 0.01106 304.9 14.2
323(10) 0.01036 304.9 14.6
329(10) 0.00973 304.9 15.1
324(10) 0.01026 304.9 15.6
341(10) 0.01046 304.9 16.1
346(10) 0.01053 304.8 16.7
297(9) 0.01183 304.8 17.2
344(10) 0.00984 304.8 17.9
349(10) 0.01042 304.8 18.5
320(9) 0.01157 304.8 19.2
332(9) 0.01110 304.8 19.9
325(10) 0.01053 304.7 20.7
334(10) 0.00961 304.7 21.5
333(10) 0.01035 304.7 22.3
340(10) 0.01081 304.7 23.2
363(10) 0.01017 304.7 24.2
330(10) 0.01071 304.7 25.1
319(10) 0.01004 304.6 26.1
332(10) 0.01044 304.6 27.2
335(9) 0.01123 304.6 28.2
339(10) 0.01086 304.6 29.3
348(10) 0.01013 304.6 30.5
343(10) 0.00941 304.6 31.6
368(11) 0.00888 304.5 32.8
369(10) 0.01012 304.5 34.0
340(10) 0.01078 304.5 35.2
395(11) 0.00847 304.5 36.4
374(11) 0.00859 304.5 37.6
363(10) 0.00958 304.5 38.7
360(10) 0.01030 304.4 39.8
350(10) 0.01046 304.4 40.8
355(10) 0.00985 304.4 41.8
356(10) 0.00943 304.4 42.7
371(10) 0.00941 304.4 43.5
349(10) 0.01070 304.4 44.3
347(10) 0.01009 304.3 44.9
371(11) 0.00901 304.3 45.5
353(10) 0.00927 304.3 45.9
368(10) 0.00950 304.3 46.3
364(10) 0.01023 304.3 46.6
338(10) 0.01040 304.3 46.9
352(10) 0.00957 304.2 47.0
356(10) 0.00970 304.2 47.2
393(11) 0.00883 304.2 47.3
358(10) 0.01044 304.2 47.3
377(10) 0.00932 304.2 47.4
368(10) 0.00928 304.1 47.4
406(11) 0.00807 304.1 47.4
383(10) 0.00920 304.1 47.4
341(10) 0.01075 304.1 47.4
359(10) 0.00956 304.1 47.4
333(10) 0.01032 304.1 47.3
346(10) 0.01008 304.0 47.2
334(10) 0.01084 304.0 47.0
364(10) 0.01017 304.0 46.8
368(10) 0.00947 304.0 46.4
357(10) 0.00916 304.0 46.0
343(10) 0.00975 304.0 45.4
301(9) 0.01203 303.9 44.7
347(10) 0.01073 303.9 43.9
373(10) 0.00920 303.9 43.0
375(11) 0.00879 303.9 42.0
372(10) 0.00926 303.9 40.9
359(10) 0.01031 303.9 39.8
339(10) 0.01099 303.8 38.6
351(10) 0.00961 303.8 37.3
342(10) 0.00937 303.8 36.1
314(9) 0.01138 303.8 34.8
381(10) 0.00958 303.8 33.5
352(10) 0.01047 303.8 32.3
320(10) 0.01091 303.7 31.1
352(11) 0.00891 303.7 29.9
331(10) 0.01068 303.7 28.8
313(9) 0.01191 303.7 27.8
315(9) 0.01191 303.7 26.7
330(10) 0.01095 303.7 25.8
368(11) 0.00892 303.6 24.8
338(10) 0.01046 303.6 23.9
333(9) 0.01120 303.6 23.1
348(10) 0.01041 303.6 22.3
328(10) 0.01040 303.6 21.6
314(10) 0.01039 303.6 20.9
325(10) 0.01036 303.5 20.2
301(9) 0.01224 303.5 19.6
309(9) 0.01186 303.5 19.0
326(10) 0.01048 303.5 18.5
302(9) 0.01146 303.5 18.0
326(10) 0.01069 303.4 17.5
316(9) 0.01174 303.4 17.1
308(9) 0.01159 303.4 16.6
305(9) 0.01141 303.4 16.2
315(9) 0.01117 303.4 15.8
334(10) 0.01078 303.4 15.5
329(9) 0.01133 303.3 15.1
314(10) 0.01095 303.3 14.8
350(10) 0.00956 303.3 14.5
347(10) 0.01000 303.3 14.2
302(9) 0.01194 303.3 13.9
304(9) 0.01233 303.3 13.7
296(9) 0.01204 303.2 13.4
315(10) 0.01064 303.2 13.2
294(9) 0.01169 303.2 12.9
329(9) 0.01115 303.2 12.7
304(9) 0.01207 303.2 12.5
328(10) 0.01065 303.2 12.3
323(10) 0.01014 303.1 12.1
322(10) 0.01082 303.1 11.9
330(9) 0.01111 303.1 11.7
305(9) 0.01234 303.1 11.6
284(9) 0.01212 303.1 11.4
308(10) 0.01018 303.1 11.2
312(9) 0.01127 303.0 11.0
306(9) 0.01185 303.0 10.9
314(9) 0.01189 303.0 10.7
311(10) 0.01071 303.0 10.6
310(10) 0.01049 303.0 10.4
325(10) 0.01077 303.0 10.3
346(10) 0.01081 302.9 10.2
321(9) 0.01137 302.9 10.0
307(9) 0.01120 302.9 9.9
264(9) 0.01273 302.9 9.8
286(9) 0.01186 302.9 9.6
327(9) 0.01126 302.9 9.5
307(9) 0.01211 302.8 9.4
286(9) 0.01223 302.8 9.3
332(10) 0.00936 302.8 9.2
295(9) 0.01222 302.8 9.1
312(9) 0.01197 302.8 9.0
297(9) 0.01213 302.8 8.8
275(9) 0.01222 302.7 8.7
296(10) 0.01106 302.7 8.6
312(10) 0.01077 302.7 8.5
291(9) 0.01277 302.7 8.4
311(9) 0.01190 302.7 8.4
296(9) 0.01147 302.6 8.3
275(9) 0.01222 302.6 8.2
318(10) 0.01082 302.6 8.1
303(9) 0.01215 302.6 8.0
311(9) 0.01179 302.6 7.9
298(9) 0.01150 302.6 7.8
298(10) 0.01095 302.5 7.8
290(9) 0.01214 302.5 7.7
320(9) 0.01162 302.5 7.6
311(9) 0.01135 302.5 7.6
309(10) 0.01095 302.5 7.5
299(9) 0.01148 302.5 7.4
292(9) 0.01178 302.4 7.4
300(9) 0.01236 302.4 7.3
307(9) 0.01162 302.4 7.3
322(10) 0.01066 302.4 7.2
286(9) 0.01223 302.4 7.2
301(9) 0.01181 302.4 7.1
318(9) 0.01151 302.3 7.1
297(9) 0.01194 302.3 7.0
302(9) 0.01109 302.3 7.0
317(10) 0.01076 302.3 7.0
306(9) 0.01200 302.3 6.9
306(9) 0.01232 302.3 6.9
322(10) 0.01107 302.2 6.9
285(9) 0.01188 302.2 6.8
292(9) 0.01191 302.2 6.8
311(9) 0.01168 302.2 6.8
313(9) 0.01194 302.2 6.8
298(9) 0.01154 302.2 6.8
290(9) 0.01155 302.1 6.8
301(9) 0.01190 302.1 6.8
298(9) 0.01253 302.1 6.7
319(9) 0.01156 302.1 6.7
297(9) 0.01182 302.1 6.7
307(10) 0.01043 302.1 6.7
283(9) 0.01226 302.0 6.7
286(9) 0.01303 302.0 6.8
311(9) 0.01190 302.0 6.8
321(10) 0.01059 302.0 6.8
305(10) 0.01059 302.0 6.8
279(9) 0.01237 301.9 6.8
313(9) 0.01183 301.9 6.8
325(9) 0.01114 301.9 6.8
342(10) 0.01037 301.9 6.9
309(10) 0.01101 301.9 6.9
306(10) 0.01085 301.9 6.9
312(9) 0.01206 301.8 7.0
282(9) 0.01265 301.8 7.0
298(9) 0.01172 301.8 7.0
314(10) 0.01049 301.8 7.1
321(10) 0.01022 301.8 7.1
301(9) 0.01238 301.8 7.2
265(8) 0.01391 301.7 7.2
305(9) 0.01112 301.7 7.3
295(9) 0.01177 301.7 7.3
295(9) 0.01161 301.7 7.4
285(9) 0.01301 301.7 7.4
292(9) 0.01248 301.7 7.5
295(9) 0.01150 301.6 7.6
296(9) 0.01161 301.6 7.6
312(9) 0.01112 301.6 7.7
312(9) 0.01185 301.6 7.8
293(9) 0.01192 301.6 7.9
285(9) 0.01223 301.6 7.9
301(9) 0.01183 301.5 8.0
293(9) 0.01218 301.5 8.1
288(9) 0.01296 301.5 8.2
287(9) 0.01221 301.5 8.3
303(9) 0.01108 301.5 8.4
333(10) 0.01009 301.5 8.4
310(9) 0.01179 301.4 8.5
276(9) 0.01340 301.4 8.6
301(9) 0.01187 301.4 8.7
291(9) 0.01122 301.4 8.8
278(9) 0.01248 301.4 8.9
311(9) 0.01166 301.4 9.0
304(9) 0.01215 301.3 9.1
288(9) 0.01224 301.3 9.2
321(10) 0.01012 301.3 9.2
312(10) 0.01081 301.3 9.3
306(9) 0.01221 301.3 9.4
305(9) 0.01222 301.2 9.5
273(9) 0.01276 301.2 9.5
317(10) 0.00995 301.2 9.6
286(9) 0.01291 301.2 9.7
309(9) 0.01175 301.2 9.7
308(9) 0.01191 301.2 9.8
316(9) 0.01113 301.1 9.8
314(10) 0.01041 301.1 9.9
297(9) 0.01147 301.1 9.9
311(9) 0.01196 301.1 10.0
306(9) 0.01212 301.1 10.0
303(10) 0.01093 301.1 10.0
295(10) 0.01097 301.0 10.1
302(10) 0.01080 301.0 10.1
287(9) 0.01286 301.0 10.1
310(9) 0.01167 301.0 10.2
277(9) 0.01241 301.0 10.2
313(10) 0.01031 301.0 10.2
306(10) 0.01101 300.9 10.2
281(9) 0.01317 300.9 10.2
291(9) 0.01226 300.9 10.3
287(9) 0.01206 300.9 10.3
295(9) 0.01190 300.9 10.3
318(10) 0.01093 300.9 10.3
298(9) 0.01234 300.8 10.4
317(10) 0.01099 300.8 10.4
301(9) 0.01126 300.8 10.4
295(9) 0.01143 300.8 10.4
314(9) 0.01114 300.8 10.5
302(9) 0.01233 300.8 10.5
297(9) 0.01203 300.8 10.6
299(9) 0.01110 300.7 10.6
295(9) 0.01156 300.7 10.6
322(10) 0.01064 300.7 10.7
311(9) 0.01200 300.7 10.7
294(9) 0.01192 300.7 10.8
298(9) 0.01114 300.7 10.8
309(9) 0.01108 300.7 10.9
285(9) 0.01282 300.6 10.9
307(9) 0.01220 300.6 11.0
309(9) 0.01142 300.6 11.0
310(10) 0.01080 300.6 11.1
329(10) 0.01058 300.6 11.1
319(9) 0.01137 300.6 11.2
336(10) 0.01098 300.6 11.2
324(10) 0.01072 300.5 11.3
265(9) 0.01290 300.5 11.3
308(10) 0.01096 300.5 11.3
307(9) 0.01167 300.5 11.4
324(9) 0.01112 300.5 11.4
290(9) 0.01188 300.5 11.4
300(10) 0.01090 300.5 11.4
304(9) 0.01181 300.4 11.4
330(10) 0.01106 300.4 11.4
317(9) 0.01169 300.4 11.4
313(9) 0.01109 300.4 11.4
307(10) 0.01029 300.4 11.4
328(10) 0.01078 300.4 11.3
331(9) 0.01118 300.4 11.3
303(9) 0.01185 300.3 11.3
296(9) 0.01180 300.3 11.2
303(10) 0.01076 300.3 11.1
308(10) 0.01080 300.3 11.1
313(9) 0.01180 300.3 11.0
313(9) 0.01176 300.3 10.9
292(9) 0.01232 300.3 10.9
307(10) 0.01066 300.2 10.8
309(10) 0.01075 300.2 10.7
297(9) 0.01263 300.2 10.6
289(9) 0.01266 300.2 10.6
293(9) 0.01225 300.2 10.5
337(10) 0.00965 300.2 10.4
318(10) 0.01104 300.2 10.3
327(9) 0.01135 300.1 10.2
310(9) 0.01158 300.1 10.2
311(9) 0.01135 300.1 10.1
309(10) 0.01082 300.1 10.0
310(9) 0.01149 300.1 9.9
336(10) 0.01107 300.1 9.8
297(9) 0.01141 300.1 9.8
304(9) 0.01136 300.0 9.7
308(10) 0.01106 300.0 9.6
299(9) 0.01173 300.0 9.5
306(9) 0.01222 300.0 9.5
309(9) 0.01161 300.0 9.4
302(9) 0.01110 300.0 9.3
311(9) 0.01134 300.0 9.3
291(9) 0.01273 299.9 9.2
293(9) 0.01251 299.9 9.1
291(9) 0.01190 299.9 9.1
293(9) 0.01145 299.9 9.0
298(9) 0.01201 299.9 8.9
284(9) 0.01263 299.9 8.9
302(9) 0.01241 299.8 8.8
307(10) 0.01106 299.8 8.8
331(10) 0.00974 299.8 8.7
317(10) 0.01105 299.8 8.7
313(9) 0.01178 299.8 8.7
263(8) 0.01427 299.8 8.6
303(10) 0.01102 299.8 8.6
304(10) 0.01013 299.7 8.6
280(9) 0.01242 299.7 8.5
298(9) 0.01278 299.7 8.5
289(9) 0.01250 299.7 8.5
312(10) 0.01081 299.7 8.5
295(9) 0.01128 299.7 8.6
276(9) 0.01271 299.7 8.6
296(9) 0.01268 299.6 8.6
321(9) 0.01145 299.6 8.7
343(10) 0.00974 299.6 8.7
326(10) 0.00976 299.6 8.8
296(9) 0.01203 299.6 9.0
312(9) 0.01193 299.6 9.1
323(9) 0.01133 299.6 9.3
316(9) 0.01119 299.5 9.6
314(10) 0.01076 299.5 10.0
310(9) 0.01122 299.5 10.4
298(9) 0.01244 299.5 11.0
278(9) 0.01288 299.5 11.7
301(9) 0.01144 299.5 12.6
300(10) 0.01103 299.5 13.6
310(9) 0.01130 299.4 14.9
330(9) 0.01124 299.4 16.5
315(9) 0.01125 299.4 18.2
315(10) 0.01098 299.4 20.2
295(9) 0.01197 299.4 22.4
316(9) 0.01121 299.4 24.8
327(9) 0.01142 299.4 27.2
345(10) 0.01007 299.3 29.6
319(9) 0.01128 299.3 31.9
345(10) 0.00972 299.3 33.8
333(10) 0.01064 299.3 35.1
313(9) 0.01183 299.3 35.7
321(10) 0.01058 299.3 35.5
275(9) 0.01245 299.3 34.6
333(10) 0.01010 299.2 32.9
333(10) 0.01084 299.2 30.8
326(9) 0.01134 299.2 28.5
324(10) 0.01076 299.2 26.0
319(10) 0.01036 299.2 23.6
312(9) 0.01129 299.2 21.3
334(10) 0.01093 299.2 19.2
334(10) 0.01102 299.1 17.4
296(9) 0.01229 299.1 15.7
321(10) 0.01055 299.1 14.3
318(10) 0.01106 299.1 13.1
346(10) 0.01040 299.1 12.2
312(9) 0.01191 299.1 11.4
323(10) 0.01091 299.1 10.7
310(10) 0.01067 299.0 10.2
316(10) 0.01093 299.0 9.8
302(9) 0.01226 299.0 9.5
289(9) 0.01278 299.0 9.3
302(9) 0.01126 299.0 9.1
310(10) 0.00969 299.0 9.0
277(9) 0.01230 299.0 8.9
312(9) 0.01194 298.9 8.9
310(9) 0.01185 298.9 8.8
327(10) 0.01074 298.9 8.8
300(9) 0.01144 298.9 8.8
314(9) 0.01131 298.9 8.8
309(9) 0.01188 298.9 8.8
330(10) 0.01101 298.8 8.9
310(10) 0.01078 298.8 8.9
318(10) 0.00996 298.8 9.0
313(10) 0.01092 298.8 9.0
307(9) 0.01212 298.8 9.1
310(9) 0.01166 298.8 9.2
296(9) 0.01180 298.8 9.3
291(9) 0.01205 298.7 9.4
318(9) 0.01124 298.7 9.6
290(9) 0.01278 298.7 9.7
299(9) 0.01189 298.7 9.9
298(9) 0.01172 298.7 10.1
309(10) 0.01097 298.7 10.2
297(9) 0.01206 298.7 10.4
305(9) 0.01224 298.6 10.7
316(9) 0.01110 298.6 10.9
289(9) 0.01180 298.6 11.1
287(9) 0.01202 298.6 11.4
302(9) 0.01182 298.6 11.7
303(9) 0.01230 298.6 11.9
331(10) 0.01060 298.6 12.2
319(10) 0.01014 298.5 12.5
298(9) 0.01157 298.5 12.8
301(9) 0.01189 298.5 13.1
315(9) 0.01171 298.5 13.4
321(10) 0.01101 298.5 13.6
292(9) 0.01152 298.5 13.9
297(9) 0.01141 298.5 14.1
339(10) 0.01082 298.4 14.4
328(9) 0.01120 298.4 14.6
303(9) 0.01142 298.4 14.8
300(10) 0.01105 298.4 15.0
325(10) 0.01070 298.4 15.3
332(9) 0.01114 298.4 15.5
319(9) 0.01165 298.4 15.8
311(9) 0.01132 298.3 16.0
320(10) 0.01019 298.3 16.3
308(9) 0.01133 298.3 16.6
298(9) 0.01233 298.3 16.9
324(9) 0.01148 298.3 17.3
336(10) 0.01049 298.3 17.6
327(10) 0.01000 298.3 18.0
332(10) 0.01055 298.2 18.3
305(9) 0.01210 298.2 18.7
315(9) 0.01170 298.2 19.1
298(9) 0.01203 298.2 19.6
311(10) 0.01073 298.2 20.0
325(10) 0.01073 298.2 20.4
300(9) 0.01244 298.2 20.8
298(9) 0.01239 298.1 21.3
313(9) 0.01129 298.1 21.7
328(10) 0.00984 298.1 22.2
316(10) 0.01096 298.1 22.6
333(9) 0.01125 298.1 23.0
312(9) 0.01163 298.1 23.5
296(9) 0.01164 298.1 23.9
315(10) 0.01077 298.0 24.2
324(10) 0.01053 298.0 24.6
308(9) 0.01218 298.0 24.9
296(9) 0.01223 298.0 25.3
320(10) 0.01065 298.0 25.5
342(10) 0.00966 298.0 25.8
307(9) 0.01174 298.0 26.0
323(9) 0.01155 297.9 26.2
324(9) 0.01114 297.9 26.3
297(9) 0.01173 297.9 26.4
319(10) 0.01059 297.9 26.5
342(10) 0.01041 297.9 26.5
339(10) 0.01099 297.9 26.5
323(9) 0.01126 297.8 26.5
324(10) 0.01088 297.8 26.4
351(10) 0.01006 297.8 26.3
352(10) 0.01032 297.8 26.2
326(9) 0.01135 297.8 26.0
343(10) 0.00990 297.8 25.8
327(10) 0.01026 297.8 25.6
346(10) 0.00989 297.7 25.4
308(9) 0.01156 297.7 25.2
329(9) 0.01124 297.7 25.0
308(9) 0.01116 297.7 24.7
314(10) 0.01053 297.7 24.5
335(10) 0.00977 297.7 24.3
316(9) 0.01127 297.7 24.0
333(9) 0.01120 297.6 23.8
328(10) 0.01022 297.6 23.6
346(10) 0.00924 297.6 23.4
319(10) 0.01065 297.6 23.2
348(10) 0.01041 297.6 23.0
327(9) 0.01137 297.6 22.8
309(10) 0.01106 297.6 22.6
291(9) 0.01129 297.5 22.4
324(10) 0.01014 297.5 22.2
340(10) 0.01090 297.5 22.0
328(9) 0.01141 297.5 21.7
313(10) 0.01096 297.5 21.4
299(10) 0.01044 297.5 21.0
298(9) 0.01118 297.5 20.6
312(9) 0.01192 297.4 20.2
317(9) 0.01164 297.4 19.7
314(10) 0.01080 297.4 19.2
306(10) 0.01099 297.4 18.7
314(10) 0.01097 297.4 18.2
321(9) 0.01158 297.4 17.7
324(9) 0.01143 297.4 17.2
315(9) 0.01121 297.3 16.7
310(10) 0.01075 297.3 16.2
315(9) 0.01112 297.3 15.8
314(9) 0.01195 297.3 15.4
331(10) 0.01084 297.3 15.0
295(9) 0.01232 297.3 14.6
296(9) 0.01157 297.3 14.3
307(9) 0.01142 297.2 14.1
284(9) 0.01310 297.2 13.9
302(9) 0.01170 297.2 13.7
299(9) 0.01122 297.2 13.6
314(9) 0.01124 297.2 13.5
325(10) 0.01107 297.2 13.6
299(9) 0.01247 297.2 13.7
314(9) 0.01132 297.1 13.9
323(10) 0.01087 297.1 14.3
332(10) 0.01030 297.1 14.7
303(9) 0.01179 297.1 15.2
330(9) 0.01129 297.1 15.9
315(9) 0.01144 297.1 16.6
305(10) 0.01087 297.1 17.5
295(9) 0.01165 297.0 18.4
286(9) 0.01265 297.0 19.3
296(9) 0.01248 297.0 20.2
325(10) 0.01056 297.0 20.9
347(10) 0.00959 297.0 21.6
322(10) 0.01058 297.0 22.0
308(9) 0.01155 297.0 22.0
308(9) 0.01200 296.9 21.8
302(9) 0.01147 296.9 21.3
317(10) 0.01012 296.9 20.6
316(10) 0.01086 296.9 19.6
303(9) 0.01196 296.9 18.6
298(9) 0.01233 296.9 17.6
306(9) 0.01162 296.8 16.6
301(10) 0.01064 296.8 15.7
301(10) 0.01106 296.8 14.8
299(9) 0.01233 296.8 14.1
314(9) 0.01177 296.8 13.4
295(9) 0.01214 296.8 12.8
330(10) 0.00965 296.8 12.3
304(9) 0.01169 296.7 11.9
297(9) 0.01246 296.7 11.6
298(9) 0.01257 296.7 11.3
313(9) 0.01143 296.7 11.1
332(10) 0.01005 296.7 10.9
309(9) 0.01139 296.7 10.7
303(9) 0.01230 296.7 10.6
295(9) 0.01237 296.6 10.5
305(9) 0.01135 296.6 10.4
293(9) 0.01130 296.6 10.4
297(9) 0.01146 296.6 10.3
276(9) 0.01325 296.6 10.3
289(9) 0.01278 296.6 10.3
313(10) 0.01083 296.6 10.4
318(10) 0.01006 296.5 10.4
307(9) 0.01154 296.5 10.5
331(9) 0.01121 296.5 10.6
288(9) 0.01281 296.5 10.8
294(9) 0.01177 296.5 11.0
303(10) 0.01094 296.5 11.2
312(9) 0.01148 296.5 11.5
312(9) 0.01185 296.4 11.8
307(9) 0.01117 296.4 12.1
284(9) 0.01192 296.4 12.5
300(10) 0.01088 296.4 12.9
302(9) 0.01131 296.4 13.4
287(9) 0.01305 296.4 13.9
325(10) 0.01066 296.4 14.4
311(10) 0.01100 296.3 15.0
304(9) 0.01147 296.3 15.5
299(9) 0.01217 296.3 16.1
305(9) 0.01223 296.3 16.7
293(9) 0.01159 296.3 17.3
301(10) 0.01091 296.3 17.9
303(9) 0.01137 296.3 18.4
331(10) 0.01091 296.2 18.9
334(9) 0.01110 296.2 19.3
298(9) 0.01214 296.2 19.8
308(10) 0.01058 296.2 20.2
309(9) 0.01111 296.2 20.5
303(9) 0.01230 296.2 20.9
323(9) 0.01165 296.2 21.3
306(9) 0.01159 296.1 21.7
317(10) 0.00993 296.1 22.2
310(10) 0.01086 296.1 22.7
311(9) 0.01188 296.1 23.3
324(9) 0.01135 296.1 23.8
328(10) 0.01039 296.1 24.4
319(10) 0.01005 296.1 25.0
298(9) 0.01143 296.0 25.5
312(9) 0.01175 296.0 25.8
342(10) 0.01094 296.0 26.0
318(10) 0.01081 296.0 26.0
319(10) 0.00982 296.0 25.8
309(10) 0.01108 296.0 25.5
331(9) 0.01138 296.0 25.0
321(9) 0.01147 295.9 24.5
307(10) 0.01103 295.9 23.9
295(10) 0.01094 295.9 23.3
328(10) 0.01071 295.9 22.8
328(9) 0.01132 295.9 22.3
320(9) 0.01139 295.9 21.9
328(10) 0.01058 295.8 21.5
314(10) 0.01046 295.8 21.1
316(10) 0.01058 295.8 20.8
328(9) 0.01126 295.8 20.5
293(9) 0.01230 295.8 20.2
296(9) 0.01166 295.8 19.9
310(10) 0.01084 295.8 19.6
321(10) 0.01105 295.7 19.3
319(9) 0.01158 295.7 18.9
306(9) 0.01163 295.7 18.5
310(10) 0.01085 295.7 18.2
316(10) 0.01069 295.7 17.7
316(9) 0.01134 295.7 17.3
312(9) 0.01186 295.7 16.9
309(9) 0.01150 295.6 16.4
311(10) 0.01087 295.6 16.0
317(10) 0.01063 295.6 15.5
297(9) 0.01215 295.6 15.1
309(9) 0.01203 295.6 14.6
300(9) 0.01145 295.6 14.1
307(10) 0.01066 295.6 13.7
322(10) 0.01077 295.5 13.2
331(10) 0.01094 295.5 12.7
301(9) 0.01228 295.5 12.3
295(9) 0.01172 295.5 11.8
299(9) 0.01118 295.5 11.4
314(9) 0.01118 295.5 10.9
306(9) 0.01219 295.5 10.5
323(9) 0.01154 295.4 10.1
327(10) 0.01081 295.4 9.7
323(10) 0.00999 295.4 9.3
307(9) 0.01174 295.4 9.0
311(9) 0.01172 295.4 8.6
271(9) 0.01369 295.4 8.3
284(9) 0.01213 295.4 8.0
281(9) 0.01161 295.3 7.7
290(9) 0.01255 295.3 7.4
278(9) 0.01297 295.3 7.1
306(9) 0.01214 295.3 6.9
305(9) 0.01146 295.3 6.6
302(10) 0.01080 295.3 6.4
308(10) 0.01103 295.3 6.2
318(9) 0.01152 295.2 6.0
313(9) 0.01181 295.2 5.8
325(10) 0.01029 295.2 5.6
308(9) 0.01112 295.2 5.5
291(9) 0.01242 295.2 5.3
304(9) 0.01233 295.2 5.1
305(9) 0.01205 295.2 5.0
309(9) 0.01121 295.1 4.9
291(9) 0.01186 295.1 4.7
303(9) 0.01141 295.1 4.6
314(9) 0.01188 295.1 4.5
301(9) 0.01182 295.1 4.4
294(9) 0.01217 295.1 4.3
308(10) 0.01061 295.1 4.2
276(9) 0.01275 295.0 4.1
304(9) 0.01217 295.0 4.0
295(9) 0.01206 295.0 3.9
324(10) 0.01059 295.0 3.9
321(10) 0.01098 295.0 3.8
309(9) 0.01175 295.0 3.7
283(9) 0.01325 295.0 3.6
296(9) 0.01167 294.9 3.6
311(10) 0.01071 294.9 3.5
295(9) 0.01175 294.9 3.5
310(9) 0.01172 294.9 3.4
302(9) 0.01219 294.9 3.4
292(9) 0.01190 294.9 3.3
288(9) 0.01113 294.9 3.3
275(9) 0.01268 294.8 3.2
309(9) 0.01133 294.8 3.2
296(9) 0.01252 294.8 3.1
294(9) 0.01182 294.8 3.1
286(9) 0.01123 294.8 3.1
278(9) 0.01278 294.8 3.0
275(9) 0.01377 294.7 3.0
293(9) 0.01252 294.7 3.0
286(9) 0.01196 294.7 2.9
287(9) 0.01108 294.7 2.9
302(9) 0.01131 294.7 2.9
316(9) 0.01148 294.7 2.9
278(9) 0.01312 294.7 2.8
284(9) 0.01226 294.6 2.8
287(9) 0.01129 294.6 2.8
296(9) 0.01179 294.6 2.8
303(9) 0.01227 294.6 2.8
296(9) 0.01246 294.6 2.7
299(9) 0.01150 294.6 2.7
274(9) 0.01216 294.6 2.7
298(9) 0.01127 294.5 2.7
294(9) 0.01258 294.5 2.7
280(9) 0.01308 294.5 2.7
292(9) 0.01166 294.5 2.7
289(9) 0.01120 294.5 2.6
295(9) 0.01194 294.5 2.6
325(9) 0.01146 294.5 2.6
293(9) 0.01228 294.4 2.6
291(9) 0.01191 294.4 2.6
298(9) 0.01111 294.4 2.6
303(10) 0.01108 294.4 2.6
290(9) 0.01277 294.4 2.6
283(9) 0.01279 294.4 2.6
315(10) 0.01097 294.4 2.6
299(9) 0.01141 294.3 2.6
277(9) 0.01294 294.3 2.6
301(9) 0.01228 294.3 2.6
298(9) 0.01185 294.3 2.6
283(9) 0.01195 294.3 2.6
302(10) 0.01060 294.3 2.6
293(9) 0.01195 294.3 2.6
290(9) 0.01299 294.2 2.6
303(9) 0.01135 294.2 2.6
275(9) 0.01238 294.2 2.6
299(9) 0.01124 294.2 2.6
297(9) 0.01173 294.2 2.6
283(9) 0.01298 294.2 2.6
287(9) 0.01200 294.2 2.6
267(9) 0.01257 294.2 2.6
273(9) 0.01226 294.2 2.6
289(9) 0.01201 294.2 2.7
304(9) 0.01229 294.2 2.7
281(9) 0.01260 294.2 2.7
259(9) 0.01318 294.2 2.7
304(10) 0.01060 294.2 2.7
291(9) 0.01233 294.1 2.7
294(9) 0.01260 294.1 2.8
291(9) 0.01218 294.1 2.8
292(9) 0.01137 294.1 2.8
301(9) 0.01193 294.1 2.8
317(9) 0.01153 294.1 2.8
308(9) 0.01216 294.1 2.9
273(9) 0.01275 294.1 2.9
301(10) 0.01074 294.1 2.9
285(9) 0.01211 294.1 3.0
278(9) 0.01318 294.1 3.0
290(9) 0.01285 294.1 3.0
307(9) 0.01120 294.1 3.1
320(10) 0.00959 294.1 3.1
277(9) 0.01292 294.1 3.1
314(9) 0.01178 294.1 3.2
304(9) 0.01203 294.1 3.2
290(9) 0.01207 294.1 3.3
298(10) 0.01069 294.1 3.3
281(9) 0.01184 294.1 3.4
277(9) 0.01336 294.0 3.4
334(10) 0.01092 294.0 3.5
270(9) 0.01346 294.0 3.5
294(9) 0.01143 294.0 3.6
286(9) 0.01218 294.0 3.6
323(9) 0.01155 294.0 3.7
318(9) 0.01159 294.0 3.8
310(9) 0.01135 294.0 3.8
320(10) 0.01050 294.0 3.9
300(9) 0.01168 294.0 4.0
279(9) 0.01338 294.0 4.1
291(9) 0.01264 294.0 4.2
293(9) 0.01196 294.0 4.2
305(10) 0.01077 294.0 4.3
302(9) 0.01166 294.0 4.4
291(9) 0.01270 294.0 4.5
297(9) 0.01190 294.0 4.6
294(9) 0.01154 294.0 4.7
290(9) 0.01197 294.0 4.8
281(9) 0.01290 293.9 4.9
304(9) 0.01223 293.9 5.1
297(9) 0.01201 293.9 5.2
300(9) 0.01135 293.9 5.3
294(9) 0.01214 293.9 5.4
281(9) 0.01260 293.9 5.5
303(9) 0.01226 293.9 5.6
317(10) 0.01075 293.9 5.7
293(9) 0.01155 293.9 5.8
307(9) 0.01121 293.9 5.9
293(9) 0.01263 293.9 6.1
284(9) 0.01310 293.9 6.2
264(9) 0.01295 293.9 6.2
302(10) 0.01027 293.9 6.3
295(9) 0.01183 293.9 6.4
304(9) 0.01221 293.9 6.5
316(9) 0.01185 293.9 6.5
303(9) 0.01149 293.9 6.6
289(10) 0.01074 293.9 6.6
305(9) 0.01141 293.8 6.7
306(9) 0.01213 293.8 6.7
298(9) 0.01233 293.8 6.7
306(10) 0.01098 293.8 6.7
282(9) 0.01118 293.8 6.7
267(9) 0.01251 293.8 6.7
314(9) 0.01158 293.8 6.7
291(9) 0.01252 293.8 6.7
259(9) 0.01358 293.8 6.7
290(9) 0.01109 293.8 6.6
301(9) 0.01164 293.8 6.6
290(9) 0.01296 293.8 6.6
301(9) 0.01200 293.8 6.6
293(9) 0.01123 293.8 6.5
278(9) 0.01179 293.8 6.5
294(9) 0.01119 293.8 6.5
283(9) 0.01302 293.8 6.5
306(9) 0.01192 293.8 6.4
287(9) 0.01240 293.8 6.4
326(10) 0.01004 293.8 6.4
290(9) 0.01218 293.7 6.4
315(9) 0.01179 293.7 6.4
321(9) 0.01126 293.7 6.4
342(10) 0.00972 293.7 6.4
293(9) 0.01167 293.7 6.4
280(9) 0.01213 293.7 6.4
280(9) 0.01321 293.7 6.5
285(9) 0.01241 293.7 6.5
288(9) 0.01219 293.7 6.5
297(9) 0.01152 293.7 6.6
293(9) 0.01185 293.7 6.6
278(9) 0.01347 293.7 6.7
268(9) 0.01327 293.7 6.8
301(9) 0.01129 293.7 6.8
306(9) 0.01114 293.7 6.9
326(10) 0.01080 293.7 7.0
285(9) 0.01299 293.7 7.1
298(9) 0.01121 293.7 7.2
311(10) 0.01063 293.7 7.3
305(9) 0.01150 293.6 7.4
324(10) 0.01107 293.6 7.5
319(9) 0.01183 293.6 7.7
279(9) 0.01255 293.6 7.8
288(9) 0.01171 293.6 8.0
288(9) 0.01272 293.6 8.2
318(9) 0.01187 293.6 8.4
320(9) 0.01140 293.6 8.6
308(9) 0.01145 293.6 8.8
308(10) 0.01061 293.6 9.0
289(9) 0.01213 293.6 9.3
304(9) 0.01216 293.6 9.5
297(9) 0.01252 293.6 9.8
317(10) 0.01098 293.6 10.1
323(10) 0.01001 293.6 10.5
322(10) 0.01106 293.6 10.8
320(9) 0.01167 293.6 11.2
307(9) 0.01199 293.6 11.6
301(9) 0.01188 293.6 12.0
293(9) 0.01152 293.5 12.4
302(9) 0.01155 293.5 12.9
274(9) 0.01367 293.5 13.4
288(9) 0.01288 293.5 13.9
309(9) 0.01149 293.5 14.4
305(10) 0.01097 293.5 15.0
302(9) 0.01123 293.5 15.5
310(9) 0.01190 293.5 16.1
308(9) 0.01199 293.5 16.7
335(10) 0.01047 293.5 17.2
323(10) 0.01080 293.5 17.8
330(10) 0.01034 293.5 18.4
293(9) 0.01251 293.5 18.9
307(9) 0.01188 293.5 19.5
309(10) 0.01104 293.5 19.9
311(10) 0.01013 293.5 20.4
308(10) 0.01079 293.5 20.7
273(9) 0.01360 293.5 21.1
295(9) 0.01201 293.5 21.3
303(9) 0.01156 293.5 21.4
339(10) 0.01005 293.4 21.5
353(10) 0.00965 293.4 21.5
323(9) 0.01149 293.4 21.4
312(9) 0.01136 293.4 21.3
328(10) 0.01010 293.4 21.0
323(10) 0.01005 293.4 20.7
307(9) 0.01177 293.4 20.4
310(9) 0.01183 293.4 20.0
308(9) 0.01110 293.4 19.6
305(9) 0.01119 293.4 19.2
324(10) 0.01049 293.4 18.7
311(9) 0.01183 293.4 18.3
309(9) 0.01176 293.4 17.8
291(9) 0.01199 293.4 17.3
298(9) 0.01128 293.4 16.9
322(10) 0.01076 293.4 16.5
333(10) 0.01094 293.4 16.0
311(9) 0.01208 293.4 15.6
286(9) 0.01274 293.4 15.3
319(10) 0.01010 293.3 14.9
293(9) 0.01168 293.3 14.6
284(9) 0.01295 293.3 14.3
305(9) 0.01209 293.3 14.0
296(9) 0.01122 293.3 13.8
310(10) 0.01035 293.3 13.6
318(10) 0.01104 293.3 13.5
332(9) 0.01109 293.3 13.4
294(9) 0.01262 293.3 13.4
317(10) 0.01100 293.3 13.4
307(10) 0.01063 293.3 13.5
304(9) 0.01136 293.3 13.7
310(9) 0.01205 293.3 13.9
319(9) 0.01114 293.3 14.2
326(10) 0.01037 293.3 14.5
321(10) 0.01018 293.3 15.0
327(10) 0.01057 293.3 15.4
298(9) 0.01248 293.3 16.0
303(9) 0.01229 293.3 16.5
294(9) 0.01207 293.2 17.1
349(10) 0.00921 293.2 17.6
305(9) 0.01112 293.2 18.1
321(9) 0.01151 293.2 18.4
329(9) 0.01110 293.2 18.6
320(9) 0.01129 293.2 18.6
325(10) 0.01047 293.2 18.4
319(10) 0.01093 293.2 18.0
333(9) 0.01115 293.2 17.5
311(9) 0.01159 293.2 16.8
292(9) 0.01165 293.2 16.0
314(10) 0.01062 293.2 15.1
311(9) 0.01163 293.2 14.3
316(9) 0.01182 293.2 13.4
315(10) 0.01095 293.2 12.6
307(9) 0.01165 293.2 11.8
311(10) 0.01087 293.2 11.1
288(9) 0.01211 293.2 10.5
309(9) 0.01208 293.2 9.9
302(9) 0.01111 293.1 9.3
297(9) 0.01112 293.1 8.8
307(10) 0.01090 293.1 8.4
316(9) 0.01142 293.1 8.0
299(9) 0.01241 293.1 7.7
287(9) 0.01208 293.1 7.4
301(10) 0.01091 293.1 7.1
282(9) 0.01274 293.1 6.9
315(9) 0.01171 293.1 6.7
316(9) 0.01190 293.1 6.5
309(9) 0.01130 293.1 6.3
306(10) 0.01090 293.1 6.1
306(9) 0.01142 293.1 6.0
293(9) 0.01254 293.1 5.8
286(9) 0.01306 293.1 5.7
290(9) 0.01234 293.1 5.6
293(10) 0.01104 293.1 5.5
303(9) 0.01165 293.1 5.3
309(9) 0.01207 293.1 5.2
292(9) 0.01256 293.1 5.1
290(9) 0.01195 293.0 5.1
306(10) 0.01057 293.0 5.0
289(9) 0.01279 293.0 4.9
295(9) 0.01244 293.0 4.8
301(9) 0.01230 293.0 4.7
312(9) 0.01127 293.0 4.7
281(9) 0.01181 293.0 4.6
275(9) 0.01281 293.0 4.5
269(9) 0.01380 293.0 4.5
305(9) 0.01182 293.0 4.4
289(9) 0.01239 293.0 4.4
300(9) 0.01140 293.0 4.3
283(9) 0.01266 293.0 4.3
299(9) 0.01254 293.0 4.2
287(9) 0.01283 293.0 4.2
289(9) 0.01189 293.0 4.1
295(9) 0.01114 293.0 4.1
302(9) 0.01152 293.0 4.1
297(9) 0.01256 293.0 4.1
284(9) 0.01262 292.9 4.0
274(9) 0.01230 292.9 4.0
280(9) 0.01203 292.9 4.0
301(10) 0.01103 292.9 4.0
277(9) 0.01331 292.9 3.9
289(9) 0.01196 292.9 3.9
288(9) 0.01197 292.9 3.9
297(9) 0.01149 292.9 3.9
294(9) 0.01232 292.9 3.9
325(9) 0.01131 292.9 3.9
314(10) 0.01067 292.9 3.9
287(9) 0.01231 292.9 3.9
303(9) 0.01159 292.9 3.9
281(9) 0.01309 292.9 3.9
294(9) 0.01261 292.9 3.9
315(9) 0.01116 292.9 3.9
315(10) 0.01054 292.9 4.0
297(9) 0.01154 292.9 4.0
300(9) 0.01187 292.9 4.0
265(8) 0.01390 292.8 4.0
290(9) 0.01193 292.8 4.1
309(10) 0.01075 292.8 4.1
303(9) 0.01178 292.8 4.1
295(9) 0.01250 292.8 4.2
272(9) 0.01370 292.8 4.2
281(9) 0.01270 292.8 4.3
283(9) 0.01200 292.8 4.3
305(9) 0.01154 292.8 4.4
301(9) 0.01227 292.8 4.5
298(9) 0.01267 292.8 4.5
287(9) 0.01233 292.8 4.6
296(10) 0.01059 292.8 4.7
280(9) 0.01240 292.8 4.9
294(9) 0.01259 292.8 5.0
278(9) 0.01324 292.8 5.1
299(9) 0.01150 292.7 5.3
321(10) 0.01007 292.7 5.5
291(9) 0.01179 292.7 5.7
285(9) 0.01311 292.7 5.9
297(9) 0.01204 292.7 6.2
292(9) 0.01215 292.7 6.4
317(10) 0.01029 292.7 6.7
313(10) 0.01083 292.7 7.1
319(9) 0.01144 292.7 7.4
287(9) 0.01261 292.7 7.8
277(9) 0.01248 292.7 8.2
291(9) 0.01109 292.7 8.6
301(9) 0.01133 292.7 9.0
310(9) 0.01212 292.7 9.4
316(9) 0.01146 292.7 9.8
317(10) 0.01054 292.7 10.2
293(9) 0.01161 292.7 10.5
285(9) 0.01215 292.6 10.7
297(9) 0.01255 292.6 10.9
294(9) 0.01196 292.6 10.9
312(10) 0.01080 292.6 10.9
308(9) 0.01114 292.6 10.8
306(9) 0.01151 292.6 10.7
311(9) 0.01209 292.6 10.5
333(10) 0.01033 292.6 10.2
310(9) 0.01128 292.6 10.0
290(9) 0.01210 292.6 9.7
280(9) 0.01262 292.6 9.4
316(9) 0.01179 292.6 9.2
306(9) 0.01115 292.6 9.0
291(9) 0.01165 292.6 8.8
303(10) 0.01106 292.6 8.6
309(9) 0.01161 292.6 8.4
314(9) 0.01198 292.5 8.3
306(10) 0.01086 292.5 8.2
330(10) 0.00959 292.5 8.1
294(9) 0.01193 292.5 8.0
280(9) 0.01317 292.5 8.0
296(9) 0.01258 292.5 8.0
286(9) 0.01224 292.5 8.0
294(9) 0.01157 292.5 8.0
310(9) 0.01131 292.5 8.0
317(9) 0.01155 292.5 8.0
314(9) 0.01196 292.5 8.1
305(9) 0.01114 292.5 8.1
296(10) 0.01089 292.5 8.2
312(9) 0.01124 292.5 8.3
293(9) 0.01245 292.5 8.4
310(9) 0.01189 292.5 8.4
310(9) 0.01128 292.5 8.5
314(10) 0.01077 292.4 8.6
314(9) 0.01139 292.4 8.7
290(9) 0.01269 292.4 8.8
269(8) 0.01394 292.4 8.9
335(10) 0.00993 292.4 9.0
322(10) 0.00997 292.4 9.1
284(9) 0.01247 292.4 9.2
322(9) 0.01159 292.4 9.2
309(9) 0.01181 292.4 9.3
292(9) 0.01138 292.4 9.4
286(9) 0.01152 292.4 9.5
324(10) 0.01046 292.4 9.6
318(9) 0.01166 292.4 9.6
310(9) 0.01194 292.4 9.7
328(10) 0.01027 292.4 9.8
300(9) 0.01118 292.4 9.8
294(9) 0.01214 292.3 9.9
308(9) 0.01208 292.3 9.9
326(10) 0.01096 292.3 9.9
316(10) 0.01064 292.3 10.0
302(9) 0.01165 292.3 10.0
309(9) 0.01133 292.3 10.0
310(9) 0.01197 292.3 10.0
304(9) 0.01174 292.3 10.0
310(10) 0.01104 292.3 10.0
292(9) 0.01214 292.3 10.0
299(9) 0.01163 292.3 9.9
324(9) 0.01160 292.3 9.9
305(9) 0.01138 292.3 9.9
295(9) 0.01123 292.3 9.8
326(10) 0.01038 292.3 9.8
307(9) 0.01146 292.3 9.7
327(9) 0.01132 292.3 9.6
322(10) 0.01067 292.2 9.6
298(9) 0.01164 292.2 9.5
293(9) 0.01213 292.2 9.4
309(9) 0.01193 292.2 9.3
316(9) 0.01166 292.2 9.2
316(10) 0.01066 292.2 9.1
322(10) 0.01013 292.2 9.0
313(9) 0.01118 292.2 9.0
304(9) 0.01226 292.2 8.9
293(9) 0.01266 292.2 8.8
296(9) 0.01190 292.2 8.7
307(10) 0.01054 292.2 8.6
310(9) 0.01138 292.2 8.5
302(9) 0.01220 292.2 8.4
282(9) 0.01320 292.2 8.3
275(9) 0.01248 292.2 8.2
303(10) 0.01055 292.2 8.1
291(9) 0.01220 292.1 8.0
307(9) 0.01206 292.1 7.9
309(9) 0.01194 292.1 7.8
318(10) 0.01082 292.1 7.7
283(9) 0.01197 292.1 7.6
276(9) 0.01269 292.1 7.5
303(9) 0.01226 292.1 7.4
317(9) 0.01127 292.1 7.3
304(9) 0.01137 292.1 7.2
292(9) 0.01143 292.1 7.2
320(10) 0.01039 292.1 7.1
298(9) 0.01240 292.1 7.0
296(9) 0.01217 292.1 6.9
301(9) 0.01158 292.1 6.9
293(9) 0.01142 292.1 6.8
326(10) 0.01035 292.1 6.7
284(9) 0.01298 292.0 6.6
316(9) 0.01110 292.0 6.6
292(9) 0.01195 292.0 6.5
313(10) 0.01099 292.0 6.4
303(9) 0.01155 292.0 6.4
321(9) 0.01160 292.0 6.3
315(9) 0.01138 292.0 6.2
329(10) 0.01017 292.0 6.2
291(9) 0.01198 292.0 6.1
279(9) 0.01283 292.0 6.0
305(9) 0.01219 292.0 6.0
317(10) 0.01085 292.0 5.9
314(10) 0.01033 292.0 5.8
301(9) 0.01126 292.0 5.8
302(9) 0.01169 292.0 5.7
320(9) 0.01143 292.0 5.6
314(10) 0.01086 292.0 5.6
316(10) 0.01033 291.9 5.5
298(9) 0.01135 291.9 5.4
284(9) 0.01311 291.9 5.4
315(9) 0.01174 291.9 5.3
296(9) 0.01152 291.9 5.2
298(10) 0.01085 291.9 5.2
304(9) 0.01143 291.9 5.1
300(9) 0.01199 291.9 5.0
293(9) 0.01283 291.9 5.0
288(9) 0.01223 291.9 4.9
289(9) 0.01130 291.9 4.8
293(9) 0.01166 291.9 4.8
286(9) 0.01288 291.9 4.7
281(9) 0.01303 291.9 4.7
289(9) 0.01194 291.9 4.6
326(10) 0.00944 291.9 4.6
325(10) 0.01055 291.8 4.5
274(9) 0.01371 291.8 4.5
286(9) 0.01281 291.8 4.4
293(9) 0.01166 291.8 4.4
285(9) 0.01200 291.8 4.3
314(9) 0.01140 291.8 4.3
307(9) 0.01215 291.8 4.2
342(10) 0.01056 291.8 4.2
297(9) 0.01163 291.8 4.1
292(9) 0.01125 291.8 4.1
293(9) 0.01188 291.8 4.1
280(9) 0.01323 291.8 4.0
304(9) 0.01181 291.8 4.0
295(9) 0.01183 291.8 4.0
280(9) 0.01191 291.8 4.0
286(9) 0.01173 291.8 3.9
275(9) 0.01363 291.8 3.9
300(9) 0.01226 291.7 3.9
315(9) 0.01110 291.7 3.9
314(10) 0.01066 291.7 3.9
293(9) 0.01209 291.7 3.8
278(9) 0.01330 291.7 3.8
311(9) 0.01137 291.7 3.8
294(9) 0.01152 291.7 3.8
292(9) 0.01181 291.7 3.8
297(9) 0.01223 291.7 3.8
285(9) 0.01314 291.7 3.8
307(9) 0.01141 291.7 3.8
286(9) 0.01159 291.7 3.8
269(9) 0.01292 291.7 3.8
324(10) 0.01088 291.7 3.8
283(9) 0.01316 291.7 3.8
280(9) 0.01224 291.7 3.8
300(9) 0.01125 291.6 3.8
293(9) 0.01282 291.6 3.8
300(9) 0.01215 291.6 3.8
306(9) 0.01195 291.6 3.8
305(10) 0.01097 291.6 3.8
273(9) 0.01228 291.6 3.8
290(9) 0.01224 291.6 3.8
293(9) 0.01235 291.6 3.8
294(9) 0.01268 291.6 3.8
288(9) 0.01207 291.6 3.9
306(10) 0.01071 291.6 3.9
323(10) 0.01066 291.6 3.9
321(9) 0.01142 291.6 3.9
292(9) 0.01274 291.6 3.9
280(9) 0.01257 291.6 4.0
305(10) 0.01048 291.6 4.0
298(9) 0.01167 291.6 4.0
276(9) 0.01368 291.5 4.0
302(9) 0.01215 291.5 4.1
306(9) 0.01176 291.5 4.1
305(10) 0.01080 291.5 4.1
287(9) 0.01212 291.5 4.2
290(9) 0.01275 291.5 4.2
298(9) 0.01243 291.5 4.2
298(9) 0.01171 291.5 4.2
285(9) 0.01165 291.5 4.3
308(9) 0.01130 291.5 4.3
295(9) 0.01272 291.5 4.4
282(9) 0.01300 291.5 4.4
287(9) 0.01226 291.5 4.4
285(9) 0.01244 291.5 4.5
298(9) 0.01185 291.5 4.5
303(9) 0.01226 291.5 4.6
292(9) 0.01237 291.4 4.6
294(9) 0.01192 291.4 4.7
294(9) 0.01134 291.4 4.7
308(10) 0.01071 291.4 4.7
284(9) 0.01311 291.4 4.8
292(9) 0.01188 291.4 4.8
270(9) 0.01296 291.4 4.9
297(9) 0.01153 291.4 4.9
291(9) 0.01180 291.4 5.0
299(9) 0.01246 291.4 5.1
284(9) 0.01225 291.4 5.1
313(10) 0.01021 291.4 5.2
303(9) 0.01119 291.4 5.2
293(9) 0.01241 291.4 5.3
300(9) 0.01246 291.4 5.3
298(9) 0.01138 291.4 5.4
285(9) 0.01170 291.4 5.5
312(10) 0.01095 291.3 5.5
295(9) 0.01195 291.3 5.6
293(9) 0.01290 291.3 5.6
288(9) 0.01176 291.3 5.7
296(9) 0.01126 291.3 5.8
280(9) 0.01214 291.3 5.8
268(9) 0.01361 291.3 5.9
300(9) 0.01252 291.3 6.0
295(9) 0.01162 291.3 6.0
296(10) 0.01077 291.3 6.1
285(9) 0.01207 291.3 6.1
295(9) 0.01233 291.3 6.2
309(9) 0.01183 291.3 6.3
288(9) 0.01218 291.3 6.3
299(10) 0.01081 291.3 6.4
291(9) 0.01170 291.3 6.5
323(9) 0.01140 291.3 6.5
293(9) 0.01259 291.2 6.6
302(9) 0.01113 291.2 6.7
295(10) 0.01062 291.2 6.7
283(9) 0.01182 291.2 6.8
284(9) 0.01296 291.2 6.9
328(9) 0.01134 291.2 6.9
302(9) 0.01177 291.2 7.0
324(10) 0.01070 291.2 7.1
304(9) 0.01179 291.2 7.2
298(9) 0.01233 291.2 7.2
292(9) 0.01250 291.2 7.3
290(9) 0.01233 291.2 7.4
292(9) 0.01112 291.2 7.5
296(9) 0.01169 291.2 7.6
300(9) 0.01226 291.2 7.7
298(9) 0.01237 291.2 7.8
307(10) 0.01087 291.1 7.9
300(9) 0.01119 291.1 8.0
304(9) 0.01131 291.1 8.2
284(9) 0.01327 291.1 8.3
272(9) 0.01338 291.1 8.5
298(9) 0.01142 291.1 8.7
288(9) 0.01192 291.1 8.8
330(10) 0.01047 291.1 9.0
296(9) 0.01244 291.1 9.2
304(9) 0.01140 291.1 9.4
290(9) 0.01135 291.1 9.6
295(9) 0.01180 291.1 9.8
312(9) 0.01156 291.1 10.0
308(9) 0.01208 291.1 10.1
344(10) 0.01016 291.1 10.2
318(10) 0.01049 291.1 10.3
306(10) 0.01107 291.1 10.3
271(9) 0.01357 291.0 10.3
287(9) 0.01307 291.0 10.2
295(9) 0.01179 291.0 10.1
288(9) 0.01154 291.0 9.9
293(9) 0.01221 291.0 9.8
315(9) 0.01149 291.0 9.6
297(9) 0.01268 291.0 9.4
291(9) 0.01180 291.0 9.3
312(10) 0.01050 291.0 9.1
280(9) 0.01285 291.0 8.9
279(9) 0.01303 291.0 8.8
300(9) 0.01237 291.0 8.7
312(9) 0.01125 291.0 8.6
303(10) 0.01085 291.0 8.5
287(9) 0.01249 291.0 8.4
330(9) 0.01112 291.0 8.4
294(9) 0.01284 290.9 8.4
279(9) 0.01267 290.9 8.3
294(10) 0.01098 290.9 8.3
298(9) 0.01166 290.9 8.3
311(9) 0.01169 290.9 8.4
326(9) 0.01135 290.9 8.4
301(9) 0.01178 290.9 8.4
315(10) 0.01027 290.9 8.5
296(9) 0.01181 290.9 8.6
309(9) 0.01203 290.9 8.7
307(9) 0.01188 290.9 8.8
308(10) 0.01078 290.9 8.9
283(9) 0.01204 290.9 9.0
306(10) 0.01094 290.9 9.1
304(9) 0.01225 290.9 9.2
303(9) 0.01202 290.9 9.4
291(9) 0.01209 290.9 9.6
295(9) 0.01132 290.8 9.7
297(9) 0.01165 290.8 9.9
297(9) 0.01267 290.8 10.2
312(9) 0.01118 290.8 10.4
300(9) 0.01129 290.8 10.6
292(9) 0.01211 290.8 10.9
315(9) 0.01132 290.8 11.2
304(9) 0.01242 290.8 11.5
321(9) 0.01122 290.8 11.8
325(10) 0.01078 290.8 12.1
308(9) 0.01109 290.8 12.5
314(9) 0.01137 290.8 12.9
315(9) 0.01189 290.8 13.2
327(10) 0.01019 290.8 13.6
297(9) 0.01133 290.8 14.0
304(9) 0.01137 290.8 14.4
299(9) 0.01216 290.7 14.8
314(9) 0.01177 290.7 15.1
299(9) 0.01168 290.7 15.4
322(10) 0.00974 290.7 15.6
310(10) 0.01092 290.7 15.8
336(10) 0.01084 290.7 15.9
310(9) 0.01198 290.7 16.0
296(9) 0.01143 290.7 16.0
317(10) 0.00987 290.7 16.0
290(9) 0.01250 290.7 15.9
298(9) 0.01230 290.7 15.8
277(9) 0.01346 290.7 15.7
308(9) 0.01143 290.7 15.6
304(10) 0.01050 290.7 15.4
324(10) 0.01059 290.7 15.3
304(9) 0.01231 290.7 15.1
301(9) 0.01240 290.7 14.9
306(9) 0.01157 290.6 14.8
319(10) 0.01009 290.6 14.6
297(9) 0.01172 290.6 14.4
285(9) 0.01309 290.6 14.2
314(9) 0.01166 290.6 14.0
312(9) 0.01130 290.6 13.9
303(10) 0.01082 290.6 13.7
299(9) 0.01155 290.6 13.5
295(9) 0.01271 290.6 13.4
316(9) 0.01136 290.6 13.2
290(9) 0.01205 290.6 13.1
289(9) 0.01116 290.6 12.9
301(9) 0.01133 290.6 12.8
294(9) 0.01283 290.6 12.7
277(9) 0.01280 290.6 12.5
322(10) 0.01070 290.6 12.4
301(9) 0.01139 290.5 12.3
319(10) 0.01053 290.5 12.2
295(9) 0.01248 290.5 12.0
299(9) 0.01157 290.5 11.9
292(9) 0.01142 290.5 11.7
301(10) 0.01100 290.5 11.6
293(9) 0.01205 290.5 11.4
320(9) 0.01151 290.5 11.2
315(9) 0.01164 290.5 11.0
300(9) 0.01184 290.5 10.8
305(10) 0.01091 290.5 10.7
322(10) 0.01094 290.5 10.5
333(9) 0.01126 290.5 10.3
310(9) 0.01109 290.5 10.1
298(9) 0.01125 290.5 9.9
300(9) 0.01116 290.5 9.8
289(9) 0.01233 290.5 9.6
286(9) 0.01289 290.4 9.4
314(10) 0.01106 290.4 9.3
325(10) 0.01018 290.4 9.1
319(10) 0.01050 290.4 9.0
305(9) 0.01198 290.4 8.9
301(9) 0.01243 290.4 8.8
293(9) 0.01157 290.4 8.7
274(9) 0.01176 290.4 8.5
287(9) 0.01190 290.4 8.4
306(9) 0.01177 290.4 8.3
273(9) 0.01353 290.4 8.3
289(9) 0.01161 290.4 8.2
302(9) 0.01117 290.4 8.1
333(10) 0.01014 290.4 8.0
312(9) 0.01164 290.4 8.0
272(9) 0.01378 290.4 7.9
308(9) 0.01149 290.4 7.8
301(10) 0.01065 290.3 7.8
339(10) 0.00988 290.3 7.8
323(9) 0.01146 290.3 7.7
298(9) 0.01222 290.3 7.7
303(9) 0.01108 290.3 7.7
314(10) 0.01011 290.3 7.6
292(9) 0.01181 290.3 7.6
291(9) 0.01255 290.3 7.6
296(9) 0.01257 290.3 7.6
304(9) 0.01159 290.3 7.6
319(10) 0.01011 290.3 7.6
304(9) 0.01136 290.3 7.6
294(9) 0.01254 290.3 7.7
290(9) 0.01263 290.3 7.7
306(9) 0.01138 290.3 7.7
290(9) 0.01145 290.3 7.8
289(9) 0.01169 290.2 7.8
294(9) 0.01263 290.2 7.9
315(10) 0.01094 290.2 7.9
268(9) 0.01308 290.2 8.0
289(9) 0.01160 290.2 8.0
291(9) 0.01194 290.2 8.1
299(9) 0.01254 290.2 8.2
289(9) 0.01233 290.2 8.3
270(9) 0.01265 290.2 8.3
300(9) 0.01147 290.2 8.4
285(9) 0.01287 290.2 8.4
297(9) 0.01254 290.2 8.5
299(9) 0.01155 290.2 8.5
266(9) 0.01326 290.2 8.6
271(9) 0.01269 290.2 8.6
288(9) . . .
285(9) . . .
282(9) . . .
297(9) . . .
308(9) . . .
291(9) . . .
275(9) . . .
293(9) . . .
304(10) . . .
292(9) . . .
274(9) . . .
268(8) . . .
274(9) . . .
307(10) . . .
324(10) . . .
291(9) . . .
292(9) . . .
295(9) . . .
300(10) . . .
292(9) . . .
291(9) . . .
319(9) . . .
304(9) . . .
281(9) . . .
277(9) . . .
309(9) . . .
314(9) . . .
291(9) . . .
283(9) . . .
306(9) . . .
293(9) . . .
317(9) . . .
322(10) . . .
301(10) . . .
321(10) . . .
309(9) . . .
336(10) . . .
308(9) . . .
329(10) . . .
335(10) . . .
293(9) . . .
307(9) . . .
315(9) . . .
310(9) . . .
324(10) . . .
300(9) . . .
338(10) . . .
307(9) . . .
309(10) . . .
324(10) . . .
307(9) . . .
307(10) . . .
308(10) . . .
307(9) . . .
290(9) . . .
309(9) . . .
285(9) . . .
282(9) . . .
302(9) . . .
304(9) . . .
295(9) . . .
323(10) . . .
288(9) . . .
292(9) . . .
305(9) . . .
298(9) . . .
319(10) . . .
300(9) . . .
331(10) . . .
296(9) . . .
283(9) . . .
296(9) . . .
300(10) . . .
289(9) . . .
286(9) . . .
301(9) . . .
295(9) . . .
282(9) . . .
280(9) . . .
326(9) . . .
278(9) . . .
275(9) . . .
295(10) . . .
312(10) . . .
302(9) . . .
291(9) . . .
285(9) . . .
305(10) . . .
308(9) . . .
289(9) . . .
298(9) . . .
302(10) . . .
293(9) . . .
307(9) . . .
307(9) . . .
322(10) . . .
293(9) . . .
305(9) . . .
303(9) . . .
298(9) . . .
258(8) . . .
285(9) . . .
293(9) . . .
310(9) . . .
286(9) . . .
288(9) . . .
301(10) . . .
295(9) . . .
280(9) . . .
274(9) . . .
303(9) . . .
293(9) . . .
289(9) . . .
273(9) . . .
268(9) . . .
306(9) . . .
289(9) . . .
271(9) . . .
277(9) . . .
287(9) . . .
281(9) . . .
284(9) . . .
290(9) . . .
269(9) . . .
291(9) . . .
296(9) . . .
251(9) . . .
277(9) . . .
302(9) . . .
302(9) . . .
268(9) . . .
277(9) . . .
253(8) . . .
301(9) . . .
271(9) . . .
301(9) . . .
292(9) . . .
282(9) . . .
268(9) . . .
292(9) . . .
296(9) . . .
278(9) . . .
280(9) . . .
287(9) . . .
293(9) . . .
298(9) . . .
291(9) . . .
297(9) . . .
284(9) . . .
277(9) . . .
257(9) . . .
278(9) . . .
308(9) . . .
311(9) . . .
289(9) . . .
289(9) . . .
290(9) . . .
303(9) . . .
274(9) . . .
291(9) . . .
294(9) . . .
297(9) . . .
285(9) . . .
293(9) . . .
295(9) . . .
294(10) . . .
289(9) . . .
270(9) . . .
267(8) . . .
279(9) . . .
281(10) . . .
287(9) . . .
294(9) . . .
269(9) . . .
274(9) . . .
295(10) . . .
290(9) . . .
302(9) . . .
268(8) . . .
271(9) . . .
270(9) . . .
270(9) . . .
299(9) . . .
279(9) . . .
294(9) . . .
264(9) . . .
272(9) . . .
301(9) . . .
281(9) . . .
295(9) . . .
312(10) . . .
292(9) . . .
276(9) . . .
282(9) . . .
284(9) . . .
291(9) . . .
297(9) . . .
279(9) . . .
282(9) . . .
288(9) . . .
282(9) . . .
265(9) . . .
289(9) . . .
256(9) . . .
288(9) . . .
261(9) . . .
254(8) . . .
275(9) . . .
260(9) . . .
286(9) . . .
287(9) . . .
270(9) . . .
265(8) . . .
273(9) . . .
271(9) . . .
287(9) . . .
284(9) . . .
265(8) . . .
293(9) . . .
267(9) . . .
289(9) . . .
291(9) . . .
301(9) . . .
259(9) . . .
273(9) . . .
265(9) . . .
262(8) . . .
309(9) . . .
295(9) . . .
267(9) . . .
263(9) . . .
267(8) . . .
274(9) . . .
281(9) . . .
279(9) . . .
276(9) . . .
268(9) . . .
272(9) . . .
291(9) . . .
273(9) . . .
268(9) . . .
271(9) . . .
294(9) . . .
277(9) . . .
289(9) . . .
279(9) . . .
274(9) . . .
295(9) . . .
286(9) . . .
289(9) . . .
254(8) . . .
277(9) . . .
282(9) . . .
265(9) . . .
279(9) . . .
296(9) . . .
273(9) . . .
249(8) . . .
276(9) . . .
284(9) . . .
269(9) . . .
277(9) . . .
262(8) . . .
274(9) . . .
275(9) . . .
244(8) . . .
258(8) . . .
278(9) . . .
281(9) . . .
280(9) . . .
267(8) . . .
284(9) . . .
263(9) . . .
273(9) . . .
297(9) . . .
289(9) . . .
265(9) . . .
284(9) . . .
294(9) . . .
285(9) . . .
278(9) . . .
295(9) . . .
263(9) . . .
263(9) . . .
288(9) . . .
272(9) . . .
273(9) . . .
309(10) . . .
305(9) . . .
282(9) . . .
292(9) . . .
273(9) . . .
297(9) . . .
284(9) . . .
274(9) . . .
290(9) . . .
295(9) . . .
288(9) . . .
301(9) . . .
309(9) . . .
306(9) . . .
292(9) . . .
317(10) . . .
286(9) . . .
321(10) . . .
302(9) . . .
298(9) . . .
319(10) . . .
318(10) . . .
320(9) . . .
320(9) . . .
291(9) . . .
301(10) . . .
297(9) . . .
302(9) . . .
284(9) . . .
307(9) . . .
306(10) . . .
279(9) . . .
289(9) . . .
280(9) . . .
279(9) . . .
279(9) . . .
283(9) . . .
306(9) . . .
278(9) . . .
265(9) . . .
289(9) . . .
296(9) . . .
253(8) . . .
294(9) . . .
299(10) . . .
271(9) . . .
288(9) . . .
287(9) . . .
285(9) . . .
278(9) . . .
303(10) . . .
295(9) . . .
276(9) . . .
277(9) . . .
281(9) . . .
295(9) . . .
297(9) . . .
300(9) . . .
264(9) . . .
284(9) . . .
297(9) . . .
306(9) . . .
288(9) . . .
291(9) . . .
275(9) . . .
277(9) . . .
296(9) . . .
281(9) . . .
257(9) . . .
284(9) . . .
273(9) . . .
256(8) . . .
289(9) . . .
275(9) . . .
306(10) . . .
274(9) . . .
288(9) . . .
270(9) . . .
295(9) . . .
302(10) . . .
280(9) . . .
291(9) . . .
310(9) . . .
279(9) . . .
293(10) . . .
260(9) . . .
294(9) . . .
275(9) . . .
314(9) . . .
306(10) . . .
292(9) . . .
305(9) . . .
276(9) . . .
291(9) . . .
281(9) . . .
317(10) . . .
307(9) . . .
303(9) . . .
303(9) . . .
289(9) . . .
291(9) . . .
298(9) . . .
300(9) . . .
285(9) . . .
287(9) . . .
298(9) . . .
298(9) . . .
315(10) . . .
288(9) . . .
289(9) . . .
295(9) . . .
291(9) . . .
266(9) . . .
284(9) . . .
283(9) . . .
286(9) . . .
284(9) . . .
295(9) . . .
266(9) . . .
269(9) . . .
294(9) . . .
319(9) . . .
286(9) . . .
270(9) . . .
281(9) . . .
272(9) . . .
302(9) . . .
297(9) . . .
303(10) . . .
294(9) . . .
284(9) . . .
309(9) . . .
299(9) . . .
299(9) . . .
293(9) . . .
325(9) . . .
281(9) . . .
285(9) . . .
284(9) . . .
281(9) . . .
284(9) . . .
301(9) . . .
266(9) . . .
272(9) . . .
279(9) . . .
272(8) . . .
289(9) . . .
268(9) . . .
273(9) . . .
308(10) . . .
301(9) . . .
275(9) . . .
287(9) . . .
291(9) . . .
287(9) . . .
266(8) . . .
274(9) . . .
263(9) . . .
258(9) . . .
273(9) . . .
280(9) . . .
246(8) . . .
283(9) . . .
266(9) . . .
275(9) . . .
274(9) . . .
258(9) . . .
290(9) . . .
264(9) . . .
279(9) . . .
282(9) . . .
278(9) . . .
263(9) . . .
273(9) . . .
282(9) . . .
292(9) . . .
262(9) . . .
297(10) . . .
292(9) . . .
260(9) . . .
272(9) . . .
264(9) . . .
297(10) . . .
258(9) . . .
251(8) . . .
244(8) . . .
280(9) . . .
277(9) . . .
245(8) . . .
265(8) . . .
259(8) . . .
275(9) . . .
245(8) . . .
263(8) . . .
257(8) . . .
257(8) . . .
258(9) . . .
256(9) . . .
244(8) . . .
280(9) . . .
261(8) . . .
249(8) . . .
275(9) . . .
264(9) . . .
264(8) . . .
263(9) . . .
270(9) . . .
267(9) . . .
245(8) . . .
258(8) . . .
255(8) . . .
264(9) . . .
281(9) . . .
263(9) . . .
270(9) . . .
273(9) . . .
261(9) . . .
272(9) . . .
249(8) . . .
275(9) . . .
263(9) . . .
261(9) . . .
253(8) . . .
262(8) . . .
246(8) . . .
285(9) . . .
256(9) . . .
256(9) . . .
260(8) . . .
262(8) . . .
274(9) . . .
261(9) . . .
263(9) . . .
243(8) . . .
239(8) . . .
275(9) . . .
264(9) . . .
275(9) . . .
256(8) . . .
275(9) . . .
255(8) . . .
275(9) . . .
268(9) . . .
243(8) . . .
271(9) . . .
254(9) . . .
242(8) . . .
268(9) . . .
257(8) . . .
280(9) . . .
271(9) . . .
282(9) . . .
245(8) . . .
268(8) . . .
265(9) . . .
256(9) . . .
249(9) . . .
252(8) . . .
260(8) . . .
247(8) . . .
276(9) . . .
270(9) . . .
277(9) . . .
258(8) . . .
243(8) . . .
254(9) . . .
274(9) . . .
269(9) . . .
258(8) . . .
261(9) . . .
269(9) . . .
261(9) . . .
265(9) . . .
249(8) . . .
247(9) . . .
251(9) . . .
246(8) . . .
275(9) . . .
244(8) . . .
262(9) . . .
253(9) . . .
256(8) . . .
252(8) . . .
282(9) . . .
270(9) . . .
261(9) . . .
246(8) . . .
242(8) . . .
250(8) . . .
278(9) . . .
270(9) . . .
256(9) . . .
248(8) . . .
264(8) . . .
264(9) . . .
237(8) . . .
264(9) . . .
260(8) . . .
259(8) . . .
251(8) . . .
272(9) . . .
247(8) . . .
263(8) . . .
261(9) . . .
242(8) . . .
257(9) . . .
241(8) . . .
234(8) . . .
263(9) . . .
269(9) . . .
254(9) . . .
257(8) . . .
255(8) . . .
253(8) . . .
259(9) . . .
249(9) . . .
233(8) . . .
270(8) . . .
276(9) . . .
271(9) . . .
267(9) . . .
258(8) . . .
260(8) . . .
234(8) . . .
236(8) . . .
260(9) . . .
282(9) . . .
249(8) . . .
242(8) . . .
244(8) . . .
254(9) . . .
250(8) . . .
240(8) . . .
261(9) . . .
253(9) . . .
284(9) . . .
264(8) . . .
261(9) . . .
246(8) . . .
251(9) . . .
263(9) . . .
268(8) . . .
254(8) . . .
266(9) . . .
254(9) . . .
254(9) . . .
247(8) . . .
275(9) . . .
274(9) . . .
256(9) . . .
261(9) . . .
231(8) . . .
268(9) . . .
269(9) . . .
263(9) . . .
250(9) . . .
261(8) . . .
252(8) . . .
252(9) . . .
269(9) . . .
278(9) . . .
245(8) . . .
266(9) . . .
251(9) . . .
255(9) . . .
258(9) . . .
268(8) . . .
252(8) . . .
229(8) . . .
249(9) . . .
250(8) . . .
256(8) . . .
250(8) . . .
238(8) . . .
257(9) . . .
277(9) . . .
275(9) . . .
259(9) . . .
234(8) . . .
260(9) . . .
270(9) . . .
241(8) . . .
246(9) . . .
245(9) . . .
252(8) . . .
242(8) . . .
242(8) . . .
262(9) . . .
256(9) . . .
242(8) . . .
254(8) . . .
247(8) . . .
241(8) . . .
258(9) . . .
239(8) . . .
230(8) . . .
261(9) . . .
240(8) . . .
258(9) . . .
236(8) . . .
243(8) . . .
247(8) . . .
235(8) . . .
254(9) . . .
271(9) . . .
263(8) . . .
259(9) . . .
258(9) . . .
227(8) . . .
238(8) . . .
231(8) . . .
243(8) . . .
257(9) . . .
238(8) . . .
252(9) . . .
257(8) . . .
255(9) . . .
254(9) . . .
272(9) . . .
251(8) . . .
238(8) . . .
260(9) . . .
246(9) . . .
222(8) . . .
237(8) . . .
261(8) . . .
245(8) . . .
244(9) . . .
235(8) . . .
233(8) . . .
247(8) . . .
267(9) . . .
230(8) . . .
249(9) . . .
242(8) . . .
236(8) . . .
216(8) . . .
257(9) . . .
252(9) . . .
223(8) . . .
263(8) . . .
243(8) . . .
250(9) . . .
222(8) . . .
267(8) . . .
248(8) . . .
229(8) . . .
247(9) . . .
247(8) . . .
243(8) . . .
266(9) . . .
288(9) . . .
276(9) . . .
260(9) . . .
244(8) . . .
252(8) . . .
244(8) . . .
251(9) . . .
243(8) . . .
252(8) . . .
244(8) . . .
249(8) . . .
260(9) . . .
247(8) . . .
265(8) . . .
254(9) . . .
238(8) . . .
250(8) . . .
248(8) . . .
236(8) . . .
252(9) . . .
237(8) . . .
248(9) . . .
253(8) . . .
259(8) . . .
245(9) . . .
249(9) . . .
251(9) . . .
258(8) . . .
261(8) . . .
243(8) . . .
252(9) . . .
266(9) . . .
260(8) . . .
271(9) . . .
277(9) . . .
276(9) . . .
254(9) . . .
268(9) . . .
264(8) . . .
273(9) . . .
278(9) . . .
272(9) . . .
256(8) . . .
252(8) . . .
292(9) . . .
258(9) . . .
276(9) . . .
257(8) . . .
268(9) . . .
250(9) . . .
268(9) . . .
244(8) . . .
274(9) . . .
254(8) . . .
260(9) . . .
249(8) . . .
250(8) . . .
258(8) . . .
253(8) . . .
252(9) . . .
236(8) . . .
248(8) . . .
227(8) . . .
262(9) . . .
251(9) . . .
233(8) . . .
232(8) . . .
248(8) . . .
253(8) . . .
233(8) . . .
221(8) . . .
252(8) . . .
243(8) . . .
233(8) . . .
243(9) . . .
238(8) . . .
243(8) . . .
243(8) . . .
244(8) . . .
230(9) . . .
234(8) . . .
211(8) . . .
218(8) . . .
223(8) . . .
228(8) . . .
231(8) . . .
227(8) . . .
237(8) . . .
241(8) . . .
246(9) . . .
236(8) . . .
232(8) . . .
222(8) . . .
241(8) . . .
222(8) . . .
242(8) . . .
224(8) . . .
244(8) . . .
231(8) . . .
235(8) . . .
219(8) . . .
225(8) . . .
235(8) . . .
211(8) . . .
210(8) . . .
225(8) . . .
234(8) . . .
237(8) . . .
228(8) . . .
248(9) . . .
230(8) . . .
218(8) . . .
264(9) . . .
235(8) . . .
249(8) . . .
212(8) . . .
225(8) . . .
213(8) . . .
218(8) . . .
249(9) . . .
221(8) . . .
232(8) . . .
211(8) . . .
236(8) . . .
215(8) . . .
230(8) . . .
246(8) . . .
219(8) . . .
227(9) . . .
230(8) . . .
217(8) . . .
250(8) . . .
236(8) . . .
216(8) . . .
215(8) . . .
229(8) . . .
223(8) . . .
234(8) . . .
232(9) . . .
225(8) . . .
221(8) . . .
221(8) . . .
233(8) . . .
237(9) . . .
227(8) . . .
217(8) . . .
219(8) . . .
238(8) . . .
210(8) . . .
215(8) . . .
230(8) . . .
238(8) . . .
210(8) . . .
229(8) . . .
221(8) . . .
239(8) . . .
224(8) . . .
217(8) . . .
211(8) . . .
225(8) . . .
231(8) . . .
214(8) . . .
233(8) . . .
202(8) . . .
235(8) . . .
237(8) . . .
241(8) . . .
238(8) . . .
218(8) . . .
217(8) . . .
223(8) . . .
208(8) . . .
212(8) . . .
221(8) . . .
232(8) . . .
220(8) . . .
240(8) . . .
209(8) . . .
218(8) . . .
226(8) . . .
212(8) . . .
218(8) . . .
232(9) . . .
229(8) . . .
197(7) . . .
229(8) . . .
197(7) . . .
213(8) . . .
216(8) . . .
234(8) . . .
218(8) . . .
215(8) . . .
224(9) . . .
227(8) . . .
224(8) . . .
232(8) . . .
239(8) . . .
207(8) . . .
210(8) . . .
234(8) . . .
212(8) . . .
205(8) . . .
238(8) . . .
247(9) . . .
224(8) . . .
210(8) . . .
262(9) . . .
222(8) . . .
225(8) . . .
239(8) . . .
211(8) . . .
205(8) . . .
215(8) . . .
224(8) . . .
205(7) . . .
223(8) . . .
217(8) . . .
203(8) . . .
221(8) . . .
223(8) . . .
216(8) . . .
245(9) . . .
236(8) . . .
213(8) . . .
226(8) . . .
222(8) . . .
209(8) . . .
202(7) . . .
220(8) . . .
219(8) . . .
230(8) . . .
224(8) . . .
234(8) . . .
229(8) . . .
235(8) . . .
212(8) . . .
224(8) . . .
237(8) . . .
223(8) . . .
218(8) . . .
239(8) . . .
245(9) . . .
218(8) . . .
214(8) . . .
215(8) . . .
203(8) . . .
233(9) . . .
216(8) . . .
223(8) . . .
234(8) . . .
198(7) . . .
228(8) . . .
215(8) . . .
211(8) . . .
217(8) . . .
225(8) . . .
216(8) . . .
219(8) . . .
229(8) . . .
220(8) . . .
226(8) . . .
248(9) . . .
223(8) . . .
243(8) . . .
223(8) . . .
221(8) . . .
205(8) . . .
231(8) . . .
227(8) . . .
237(8) . . .
237(8) . . .
226(8) . . .
211(8) . . .
230(8) . . .
231(8) . . .
215(8) . . .
205(8) . . .
214(8) . . .
222(8) . . .
221(8) . . .
222(8) . . .
231(8) . . .
217(8) . . .
212(8) . . .
219(8) . . .
223(8) . . .
217(8) . . .
216(8) . . .
211(8) . . .
204(8) . . .
236(9) . . .
213(8) . . .
206(7) . . .
207(7) . . .
227(8) . . .
199(8) . . .
220(8) . . .
230(8) . . .
228(8) . . .
211(8) . . .
237(9) . . .
208(8) . . .
208(8) . . .
214(8) . . .
209(8) . . .
217(8) . . .
207(8) . . .
220(8) . . .
228(8) . . .
218(8) . . .
228(8) . . .
209(8) . . .
235(8) . . .
239(8) . . .
229(8) . . .
236(8) . . .
225(8) . . .
217(8) . . .
231(8) . . .
225(8) . . .
239(8) . . .
217(8) . . .
234(8) . . .
218(8) . . .
228(8) . . .
237(8) . . .
235(8) . . .
231(8) . . .
213(8) . . .
234(8) . . .
229(8) . . .
228(8) . . .
225(8) . . .
225(8) . . .
240(9) . . .
229(8) . . .
230(8) . . .
233(8) . . .
233(8) . . .
219(8) . . .
235(9) . . .
223(8) . . .
208(7) . . .
218(8) . . .
209(8) . . .
226(8) . . .
204(7) . . .
239(8) . . .
218(8) . . .
221(8) . . .
215(8) . . .
200(7) . . .
227(8) . . .
212(8) . . .
225(8) . . .
202(8) . . .
219(8) . . .
234(8) . . .
201(7) . . .
241(8) . . .
221(8) . . .
225(8) . . .
225(8) . . .
216(8) . . .
186(7) . . .
202(8) . . .
216(8) . . .
221(8) . . .
231(8) . . .
205(8) . . .
207(8) . . .
214(8) . . .
220(8) . . .
210(8) . . .
200(8) . . .
203(7) . . .
218(8) . . .
198(7) . . .
239(9) . . .
215(8) . . .
221(8) . . .
214(8) . . .
199(7) . . .
224(8) . . .
212(8) . . .
209(8) . . .
205(7) . . .
212(8) . . .
224(8) . . .
209(8) . . .
166(7) . . .
211(8) . . .
203(8) . . .
204(8) . . .
204(8) . . .
184(7) . . .
193(7) . . .
193(7) . . .
197(8) . . .
181(7) . . .
211(8) . . .
211(8) . . .
197(8) . . .
185(7) . . .
207(8) . . .
211(7) . . .
218(8) . . .
204(8) . . .
213(8) . . .
224(8) . . .
219(8) . . .
216(8) . . .
217(8) . . .
227(8) . . .
207(8) . . .
205(7) . . .
190(7) . . .
219(8) . . .
208(8) . . .
205(8) . . .
220(8) . . .
214(8) . . .
193(7) . . .
204(8) . . .
206(8) . . .
202(7) . . .
194(7) . . .
216(8) . . .
212(8) . . .
237(8) . . .
220(8) . . .
211(8) . . .
199(8) . . .
191(7) . . .
211(8) . . .
194(7) . . .
189(8) . . .
205(8) . . .
204(8) . . .
219(8) . . .
195(7) . . .
209(8) . . .
200(8) . . .
200(7) . . .
207(7) . . .
210(8) . . .
210(8) . . .
201(8) . . .
215(8) . . .
197(7) . . .
215(8) . . .
215(8) . . .
200(8) . . .
205(8) . . .
207(7) . . .
204(7) . . .
188(7) . . .
225(9) . . .
198(7) . . .
192(7) . . .
211(8) . . .
212(8) . . .
204(8) . . .
185(7) . . .
205(7) . . .
220(8) . . .
195(7) . . .
210(8) . . .
225(8) . . .
206(7) . . .
190(8) . . .
193(8) . . .
200(8) . . .
209(7) . . .
229(8) . . .
188(7) . . .
208(8) . . .
194(7) . . .
199(7) . . .
208(7) . . .
215(8) . . .
206(8) . . .
223(8) . . .
190(7) . . .
202(7) . . .
200(7) . . .
211(8) . . .
197(7) . . .
196(7) . . .
199(7) . . .
208(8) . . .
200(8) . . .
168(7) . . .
178(7) . . .
188(7) . . .
195(7) . . .
215(8) . . .
219(8) . . .
211(8) . . .
208(8) . . .
197(7) . . .
206(8) . . .
195(8) . . .
204(7) . . .
178(7) . . .
204(8) . . .
194(8) . . .
185(7) . . .
195(7) . . .
186(7) . . .
196(8) . . .
214(8) . . .
224(8) . . .
186(7) . . .
209(8) . . .
220(8) . . .
227(8) . . .
204(8) . . .
202(7) . . .
203(8) . . .
208(8) . . .
190(7) . . .
219(8) . . .
209(8) . . .
182(7) . . .
193(8) . . .
203(8) . . .
190(7) . . .
206(7) . . .
213(8) . . .
210(8) . . .
198(8) . . .
198(7) . . .
188(7) . . .
202(8) . . .
213(8) . . .
192(8) . . .
176(7) . . .
178(7) . . .
199(8) . . .
188(8) . . .
207(8) . . .
199(7) . . .
204(7) . . .
180(7) . . .
192(7) . . .
196(7) . . .
201(7) . . .
170(7) . . .
192(7) . . .
203(8) . . .
198(7) . . .
218(8) . . .
216(8) . . .
208(8) . . .
203(8) . . .
209(8) . . .
220(8) . . .
198(7) . . .
213(8) . . .
200(8) . . .
203(8) . . .
206(7) . . .
194(7) . . .
185(7) . . .
196(8) . . .
198(7) . . .
190(7) . . .
202(7) . . .
185(7) . . .
197(8) . . .
202(7) . . .
205(7) . . .
186(7) . . .
229(9) . . .
223(8) . . .
218(8) . . .
207(7) . . .
199(7) . . .
222(8) . . .
205(8) . . .
215(8) . . .
222(8) . . .
201(8) . . .
225(8) . . .
220(8) . . .
205(7) . . .
221(8) . . .
216(8) . . .
200(8) . . .
193(7) . . .
198(7) . . .
185(7) . . .
217(8) . . .
205(8) . . .
193(7) . . .
197(7) . . .
209(8) . . .
211(8) . . .
215(8) . . .
204(8) . . .
216(8) . . .
228(8) . . .
203(8) . . .
200(8) . . .
198(8) . . .
196(7) . . .
210(8) . . .
206(8) . . .
209(8) . . .
205(8) . . .
211(8) . . .
205(8) . . .
198(8) . . .
202(8) . . .
202(7) . . .
200(7) . . .
221(8) . . .
207(8) . . .
208(8) . . .
212(8) . . .
219(8) . . .
204(8) . . .
234(8) . . .
201(8) . . .
203(8) . . .
209(7) . . .
201(8) . . .
195(8) . . .
189(7) . . .
197(7) . . .
201(7) . . .
194(8) . . .
195(8) . . .
195(7) . . .
208(8) . . .
206(7) . . .
211(8) . . .
206(8) . . .
196(7) . . .
218(8) . . .
224(8) . . .
205(8) . . .
204(8) . . .
187(7) . . .
201(7) . . .
212(8) . . .
187(7) . . .
180(7) . . .
194(8) . . .
183(7) . . .
186(7) . . .
187(7) . . .
201(8) . . .
185(7) . . .
196(7) . . .
191(7) . . .
206(8) . . .
217(8) . . .
205(8) . . .
204(7) . . .
193(7) . . .
194(8) . . .
178(7) . . .
194(7) . . .
224(8) . . .
184(7) . . .
204(8) . . .
184(7) . . .
196(7) . . .
219(8) . . .
199(7) . . .
187(7) . . .
209(8) . . .
200(7) . . .
193(7) . . .
198(8) . . .
211(8) . . .
201(7) . . .
201(7) . . .
201(7) . . .
199(7) . . .
186(7) . . .
205(8) . . .
206(8) . . .
207(8) . . .
175(7) . . .
216(8) . . .
203(8) . . .
180(7) . . .
209(8) . . .
189(7) . . .
203(8) . . .
230(8) . . .
212(8) . . .
194(7) . . .
196(8) . . .
192(8) . . .
195(8) . . .
208(7) . . .
225(8) . . .
225(8) . . .
214(8) . . .
186(7) . . .
182(7) . . .
202(8) . . .
216(8) . . .
218(8) . . .
201(8) . . .
193(7) . . .
178(7) . . .
208(8) . . .
201(8) . . .
186(7) . . .
187(7) . . .
204(8) . . .
192(8) . . .
195(8) . . .
206(8) . . .
186(7) . . .
201(8) . . .
201(8) . . .
203(8) . . .
196(7) . . .
182(7) . . .
202(8) . . .
189(7) . . .
200(8) . . .
202(8) . . .
171(7) . . .
194(7) . . .
201(8) . . .
202(8) . . .
201(7) . . .
205(7) . . .
194(8) . . .
207(8) . . .
201(8) . . .
194(7) . . .
176(7) . . .
198(8) . . .
212(8) . . .
205(8) . . .
202(7) . . .
206(7) . . .
217(8) . . .
196(8) . . .
187(7) . . .
197(7) . . .
197(7) . . .
189(7) . . .
192(8) . . .
175(7) . . .
208(7) . . .
187(7) . . .
191(8) . . .
173(7) . . .
175(7) . . .
180(7) . . .
196(7) . . .
189(7) . . .
186(7) . . .
181(7) . . .
185(7) . . .
186(7) . . .
188(7) . . .
174(7) . . .
180(7) . . .
194(7) . . .
197(7) . . .
189(7) . . .
173(7) . . .
191(7) . . .
182(7) . . .
208(8) . . .
211(8) . . .
209(8) . . .
185(7) . . .
173(7) . . .
193(7) . . .
203(8) . . .
200(8) . . .
202(7) . . .
185(7) . . .
183(7) . . .
190(8) . . .
192(7) . . .
178(7) . . .
196(7) . . .
198(8) . . .
214(8) . . .
204(8) . . .
183(7) . . .
190(7) . . .
171(7) . . .
169(7) . . .
185(7) . . .
193(7) . . .
201(8) . . .
207(8) . . .
185(7) . . .
193(8) . . .
189(7) . . .
184(7) . . .
167(7) . . .
170(7) . . .
198(8) . . .
204(7) . . .
190(7) . . .
196(8) . . .
188(8) . . .
189(7) . . .
167(7) . . .
178(7) . . .
185(7) . . .
201(8) . . .
184(7) . . .
194(7) . . .
182(7) . . .
184(7) . . .
201(8) . . .
164(7) . . .
190(7) . . .
192(8) . . .
177(7) . . .
195(8) . . .
190(7) . . .
178(7) . . .
196(7) . . .
194(8) . . .
192(8) . . .
194(7) . . .
188(7) . . .
169(7) . . .
190(8) . . .
189(7) . . .
186(7) . . .
196(7) . . .
204(8) . . .
184(7) . . .
178(7) . . .
182(7) . . .
184(7) . . .
186(7) . . .
173(7) . . .
201(8) . . .
216(8) . . .
184(7) . . .
178(7) . . .
199(8) . . .
196(8) . . .
194(7) . . .
201(7) . . .
195(8) . . .
178(7) . . .
179(7) . . .
195(7) . . .
194(7) . . .
190(7) . . .
194(8) . . .
188(7) . . .
182(7) . . .
179(7) . . .
179(7) . . .
187(7) . . .
184(7) . . .
171(7) . . .
195(7) . . .
162(7) . . .
180(7) . . .
192(7) . . .
190(7) . . .
205(8) . . .
173(7) . . .
189(8) . . .
186(7) . . .
186(7) . . .
172(7) . . .
194(8) . . .
185(7) . . .
187(7) . . .
175(7) . . .
187(7) . . .
178(7) . . .
178(7) . . .
184(7) . . .
171(7) . . .
178(7) . . .
167(7) . . .
188(7) . . .
194(7) . . .
184(7) . . .
182(7) . . .
195(8) . . .
206(8) . . .
174(7) . . .
192(7) . . .
189(7) . . .
180(7) . . .
166(7) . . .
188(7) . . .
186(7) . . .
165(7) . . .
199(8) . . .
193(8) . . .
176(7) . . .
196(7) . . .
194(7) . . .
202(8) . . .
195(8) . . .
197(7) . . .
222(8) . . .
186(7) . . .
191(8) . . .
180(7) . . .
186(7) . . .
188(7) . . .
186(7) . . .
198(8) . . .
209(8) . . .
212(7) . . .
185(7) . . .
181(7) . . .
206(8) . . .
203(7) . . .
195(7) . . .
193(7) . . .
189(7) . . .
200(8) . . .
189(7) . . .
202(7) . . .
196(8) . . .
194(8) . . .
179(7) . . .
195(8) . . .
191(7) . . .
197(8) . . .
186(7) . . .
186(7) . . .
190(7) . . .
201(7) . . .
196(7) . . .
201(8) . . .
197(8) . . .
209(8) . . .
196(7) . . .
207(8) . . .
212(8) . . .
169(7) . . .
199(7) . . .
210(7) . . .
210(8) . . .
182(7) . . .
188(7) . . .
194(7) . . .
189(7) . . .
196(8) . . .
191(7) . . .
192(7) . . .
195(7) . . .
189(7) . . .
203(8) . . .
189(7) . . .
223(8) . . .
199(7) . . .
182(7) . . .
195(8) . . .
189(7) . . .
190(7) . . .
200(7) . . .
201(7) . . .
195(7) . . .
197(8) . . .
196(7) . . .
194(7) . . .
188(7) . . .
206(8) . . .
179(7) . . .
177(7) . . .
183(7) . . .
181(7) . . .
174(7) . . .
188(8) . . .
180(7) . . .
188(7) . . .
189(7) . . .
185(7) . . .
191(7) . . .
182(7) . . .
194(7) . . .
197(8) . . .
196(8) . . .
179(7) . . .
190(7) . . .
178(7) . . .
176(7) . . .
179(7) . . .
190(8) . . .
163(7) . . .
156(7) . . .
179(7) . . .
172(7) . . .
182(7) . . .
181(7) . . .
204(8) . . .
184(7) . . .
179(8) . . .
179(7) . . .
171(7) . . .
192(7) . . .
166(7) . . .
190(8) . . .
175(7) . . .
163(7) . . .
180(7) . . .
179(7) . . .
190(7) . . .
178(7) . . .
192(7) . . .
182(7) . . .
181(7) . . .
191(7) . . .
190(7) . . .
190(7) . . .
181(7) . . .
193(8) . . .
181(7) . . .
175(7) . . .
180(7) . . .
185(7) . . .
189(7) . . .
171(7) . . .
173(7) . . .
195(7) . . .
184(7) . . .
189(8) . . .
167(7) . . .
181(7) . . .
189(7) . . .
149(6) . . .
174(7) . . .
187(7) . . .
179(7) . . .
179(7) . . .
191(7) . . .
191(8) . . .
190(7) . . .
168(7) . . .
180(7) . . .
189(7) . . .
205(8) . . .
184(7) . . .
185(7) . . .
194(7) . . .
189(7) . . .
191(7) . . .
211(8) . . .
180(7) . . .
193(7) . . .
183(7) . . .
158(7) . . .
179(7) . . .
202(7) . . .
189(7) . . .
182(7) . . .
195(8) . . .
185(7) . . .
168(7) . . .
192(7) . . .
185(7) . . .
193(8) . . .
198(8) . . .
175(7) . . .
179(7) . . .
162(7) . . .
180(7) . . .
182(7) . . .
177(7) . . .
193(7) . . .
187(7) . . .
210(8) . . .
190(7) . . .
194(7) . . .
172(7) . . .
163(7) . . .
179(7) . . .
197(7) . . .
198(7) . . .
180(7) . . .
183(8) . . .
157(7) . . .
161(7) . . .
171(7) . . .
197(8) . . .
173(7) . . .
168(7) . . .
180(7) . . .
192(7) . . .
181(7) . . .
173(7) . . .
165(7) . . .
189(7) . . .
160(7) . . .
175(7) . . .
171(7) . . .
186(7) . . .
187(7) . . .
194(7) . . .
188(7) . . .
182(7) . . .
177(7) . . .
166(7) . . .
179(7) . . .
180(7) . . .
167(7) . . .
198(8) . . .
180(7) . . .
168(7) . . .
162(7) . . .
184(7) . . .
169(7) . . .
170(7) . . .
165(7) . . .
156(7) . . .
185(7) . . .
196(7) . . .
193(7) . . .
172(7) . . .
174(7) . . .
186(7) . . .
183(7) . . .
191(7) . . .
173(7) . . .
173(7) . . .
188(7) . . .
172(7) . . .
165(7) . . .
172(7) . . .
188(8) . . .
185(7) . . .
165(7) . . .
168(7) . . .
179(7) . . .
177(7) . . .
184(7) . . .
168(7) . . .
169(7) . . .
180(7) . . .
178(7) . . .
190(7) . . .
161(7) . . .
168(7) . . .
177(7) . . .
190(8) . . .
180(7) . . .
181(7) . . .
164(7) . . .
178(7) . . .
177(7) . . .
180(7) . . .
188(7) . . .
181(7) . . .
185(7) . . .
182(7) . . .
179(7) . . .
169(7) . . .
176(7) . . .
189(8) . . .
189(8) . . .
182(7) . . .
179(7) . . .
178(7) . . .
180(7) . . .
165(7) . . .
179(7) . . .
178(7) . . .
178(7) . . .
184(7) . . .
175(7) . . .
188(7) . . .
191(7) . . .
184(7) . . .
181(7) . . .
179(7) . . .
176(7) . . .
191(7) . . .
180(7) . . .
188(7) . . .
192(7) . . .
180(7) . . .
186(7) . . .
176(7) . . .
176(7) . . .
189(7) . . .
182(7) . . .
182(7) . . .
175(7) . . .
172(7) . . .
175(7) . . .
177(7) . . .
169(7) . . .
189(7) . . .
179(7) . . .
193(7) . . .
181(7) . . .
176(7) . . .
181(7) . . .
194(8) . . .
179(7) . . .
195(7) . . .
190(7) . . .
186(7) . . .
176(7) . . .
196(8) . . .
173(7) . . .
195(7) . . .
194(8) . . .
193(8) . . .
185(7) . . .
190(7) . . .
189(7) . . .
160(7) . . .
199(8) . . .
157(7) . . .
174(7) . . .
180(7) . . .
169(7) . . .
183(7) . . .
181(7) . . .
172(7) . . .
195(8) . . .
189(8) . . .
174(7) . . .
184(7) . . .
177(7) . . .
175(7) . . .
171(7) . . .
167(7) . . .
187(7) . . .
186(7) . . .
183(7) . . .
176(7) . . .
168(7) . . .
177(7) . . .
167(7) . . .
184(7) . . .
190(8) . . .
162(7) . . .
178(7) . . .
167(7) . . .
180(7) . . .
194(8) . . .
173(7) . . .
168(7) . . .
157(7) . . .
177(7) . . .
177(7) . . .
193(8) . . .
158(7) . . .
165(7) . . .
172(7) . . .
154(7) . . .
172(7) . . .
175(7) . . .
182(7) . . .
181(7) . . .
170(7) . . .
171(7) . . .
174(7) . . .
185(7) . . .
166(7) . . .
175(7) . . .
176(7) . . .
188(7) . . .
175(7) . . .
186(7) . . .
180(7) . . .
167(7) . . .
163(7) . . .
181(7) . . .
178(7) . . .
157(7) . . .
174(7) . . .
174(7) . . .
173(7) . . .
166(7) . . .
170(7) . . .
173(7) . . .
174(7) . . .
169(7) . . .
188(8) . . .
188(7) . . .
184(7) . . .
174(7) . . .
169(7) . . .
152(7) . . .
182(7) . . .
167(7) . . .
171(7) . . .
172(7) . . .
170(7) . . .
181(7) . . .
165(7) . . .
158(6) . . .
180(7) . . .
175(7) . . .
172(7) . . .
177(7) . . .
195(7) . . .
190(7) . . .
186(7) . . .
198(8) . . .
172(7) . . .
175(7) . . .
182(7) . . .
197(8) . . .
185(8) . . .
188(7) . . .
170(7) . . .
180(7) . . .
181(7) . . .
190(7) . . .
167(7) . . .
161(7) . . .
165(7) . . .
173(7) . . .
171(7) . . .
170(7) . . .
181(7) . . .
178(7) . . .
180(7) . . .
182(7) . . .
178(7) . . .
164(7) . . .
177(7) . . .
172(7) . . .
173(7) . . .
184(7) . . .
172(7) . . .
173(7) . . .
184(7) . . .
168(7) . . .
176(7) . . .
185(7) . . .
177(7) . . .
156(7) . . .
159(7) . . .
168(7) . . .
197(8) . . .
169(7) . . .
162(7) . . .
160(7) . . .
165(7) . . .
179(7) . . .
161(7) . . .
186(8) . . .
182(7) . . .
185(7) . . .
171(7) . . .
173(7) . . .
162(7) . . .
173(7) . . .
160(7) . . .
176(7) . . .
178(7) . . .
172(7) . . .
165(7) . . .
184(7) . . .
187(7) . . .
172(7) . . .
171(7) . . .
153(6) . . .
172(7) . . .
183(7) . . .
172(7) . . .
175(7) . . .
167(7) . . .
181(7) . . .
176(7) . . .
181(7) . . .
181(7) . . .
181(7) . . .
179(7) . . .
179(7) . . .
160(7) . . .
171(7) . . .
168(7) . . .
168(7) . . .
183(8) . . .
174(7) . . .
174(7) . . .
171(7) . . .
191(7) . . .
182(8) . . .
182(7) . . .
160(7) . . .
176(7) . . .
169(7) . . .
163(7) . . .
161(7) . . .
178(7) . . .
177(7) . . .
170(7) . . .
184(7) . . .
186(7) . . .
175(7) . . .
154(6) . . .
168(7) . . .
163(7) . . .
190(8) . . .
174(7) . . .
161(7) . . .
177(7) . . .
164(7) . . .
175(7) . . .
179(7) . . .
159(7) . . .
196(8) . . .
155(7) . . .
174(7) . . .
165(7) . . .
180(7) . . .
180(7) . . .
187(7) . . .
164(7) . . .
159(7) . . .
175(7) . . .
167(7) . . .
173(7) . . .
175(7) . . .
175(7) . . .
169(7) . . .
174(7) . . .
178(7) . . .
174(7) . . .
187(7) . . .
171(7) . . .
168(7) . . .
168(7) . . .
175(7) . . .
191(7) . . .
190(7) . . .
177(7) . . .
190(7) . . .
166(7) . . .
162(7) . . .
187(7) . . .
162(7) . . .
193(8) . . .
170(7) . . .
180(7) . . .
182(7) . . .
190(8) . . .
190(7) . . .
193(7) . . .
172(7) . . .
196(8) . . .
194(8) . . .
191(7) . . .
196(7) . . .
171(7) . . .
178(7) . . .
178(7) . . .
151(7) . . .
146(6) . . .
170(7) . . .
175(7) . . .
169(7) . . .
176(7) . . .
183(7) . . .
192(7) . . .
176(7) . . .
164(7) . . .
160(7) . . .
168(7) . . .
187(7) . . .
169(7) . . .
161(7) . . .
161(7) . . .
170(7) . . .
166(7) . . .
166(7) . . .
167(7) . . .
174(7) . . .
174(7) . . .
183(7) . . .
192(8) . . .
177(7) . . .
190(7) . . .
162(7) . . .
179(7) . . .
176(7) . . .
181(7) . . .
177(7) . . .
184(7) . . .
167(7) . . .
185(8) . . .
172(7) . . .
176(7) . . .
152(6) . . .
174(7) . . .
159(7) . . .
167(7) . . .
169(7) . . .
162(7) . . .
175(7) . . .
173(7) . . .
171(7) . . .
175(7) . . .
184(7) . . .
174(7) . . .
194(8) . . .
196(7) . . .
179(7) . . .
168(7) . . .
177(7) . . .
170(7) . . .
171(7) . . .
190(7) . . .
166(7) . . .
155(7) . . .
167(7) . . .
188(7) . . .
186(7) . . .
169(7) . . .
161(7) . . .
177(7) . . .
168(7) . . .
184(7) . . .
190(8) . . .
186(7) . . .
200(8) . . .
176(7) . . .
161(7) . . .
177(7) . . .
186(8) . . .
183(7) . . .
191(7) . . .
198(7) . . .
184(7) . . .
183(8) . . .
183(7) . . .
180(7) . . .
177(7) . . .
182(7) . . .
190(8) . . .
184(7) . . .
162(7) . . .
185(7) . . .
201(8) . . .
176(7) . . .
169(7) . . .
182(7) . . .
185(7) . . .
196(8) . . .
180(8) . . .
161(7) . . .
178(7) . . .
187(7) . . .
191(8) . . .
161(7) . . .
176(7) . . .
164(7) . . .
164(7) . . .
161(7) . . .
178(7) . . .
147(6) . . .
173(7) . . .
173(7) . . .
202(8) . . .
176(7) . . .
177(7) . . .
177(7) . . .
178(7) . . .
179(7) . . .
192(7) . . .
188(7) . . .
170(7) . . .
175(7) . . .
182(7) . . .
181(7) . . .
187(7) . . .
175(7) . . .
178(7) . . .
180(7) . . .
181(7) . . .
189(7) . . .
195(7) . . .
176(7) . . .
186(8) . . .
188(7) . . .
185(7) . . .
185(7) . . .
184(7) . . .
189(8) . . .
186(7) . . .
207(8) . . .
198(7) . . .
183(7) . . .
182(8) . . .
173(7) . . .
199(7) . . .
204(7) . . .
187(7) . . .
183(7) . . .
196(8) . . .
179(7) . . .
176(7) . . .
172(7) . . .
196(8) . . .
199(8) . . .
182(7) . . .
179(7) . . .
178(7) . . .
184(7) . . .
181(7) . . .
179(7) . . .
164(7) . . .
184(7) . . .
189(7) . . .
175(7) . . .
170(7) . . .
172(7) . . .
177(7) . . .
177(7) . . .
167(7) . . .
174(7) . . .
182(7) . . .
170(7) . . .
166(7) . . .
171(7) . . .
207(7) . . .
182(7) . . .
170(7) . . .
170(7) . . .
180(7) . . .
176(7) . . .
170(7) . . .
168(7) . . .
187(7) . . .
166(7) . . .
184(7) . . .
174(7) . . .
169(7) . . .
189(7) . . .
177(7) . . .
190(7) . . .
161(7) . . .
185(8) . . .
166(7) . . .
172(7) . . .
187(7) . . .
177(7) . . .
207(8) . . .
170(7) . . .
176(7) . . .
180(7) . . .
180(7) . . .
184(8) . . .
188(7) . . .
187(7) . . .
177(7) . . .
191(7) . . .
185(7) . . .
199(8) . . .
179(7) . . .
181(7) . . .
182(7) . . .
194(8) . . .
173(7) . . .
171(7) . . .
195(7) . . .
184(7) . . .
174(7) . . .
176(7) . . .
188(7) . . .
207(8) . . .
205(8) . . .
196(8) . . .
178(7) . . .
183(7) . . .
190(7) . . .
168(7) . . .
197(7) . . .
200(7) . . .
187(7) . . .
187(7) . . .
185(7) . . .
185(7) . . .
168(7) . . .
169(7) . . .
174(7) . . .
183(8) . . .
199(8) . . .
180(7) . . .
199(7) . . .
192(8) . . .
181(8) . . .
174(7) . . .
175(7) . . .
181(7) . . .
179(7) . . .
180(7) . . .
175(7) . . .
178(7) . . .
168(7) . . .
177(7) . . .
158(7) . . .
155(7) . . .
168(7) . . .
157(7) . . .
189(7) . . .
180(7) . . .
185(7) . . .
162(7) . . .
181(7) . . .
175(7) . . .
172(7) . . .
171(7) . . .
172(7) . . .
182(7) . . .
181(7) . . .
188(7) . . .
179(7) . . .
180(7) . . .
185(7) . . .
176(7) . . .
175(7) . . .
170(7) . . .
184(7) . . .
180(7) . . .
183(8) . . .
167(7) . . .
163(7) . . .
195(7) . . .
171(7) . . .
159(7) . . .
176(7) . . .
171(7) . . .
169(7) . . .
166(7) . . .
190(8) . . .
172(7) . . .
174(7) . . .
196(7) . . .
185(7) . . .
181(8) . . .
169(7) . . .
181(7) . . .
178(7) . . .
161(7) . . .
184(8) . . .
168(7) . . .
199(7) . . .
174(7) . . .
176(7) . . .
173(7) . . .
165(7) . . .
165(7) . . .
168(7) . . .
179(7) . . .
176(7) . . .
167(7) . . .
159(7) . . .
168(7) . . .
178(7) . . .
158(7) . . .
171(7) . . .
192(7) . . .
166(7) . . .
162(7) . . .
165(7) . . .
167(7) . . .
177(7) . . .
182(7) . . .
177(7) . . .
178(7) . . .
184(7) . . .
184(7) . . .
172(7) . . .
167(7) . . .
180(7) . . .
180(7) . . .
162(7) . . .
174(7) . . .
159(7) . . .
183(7) . . .
184(7) . . .
166(7) . . .
179(7) . . .
160(7) . . .
169(7) . . .
146(6) . . .
163(7) . . .
184(7) . . .
184(8) . . .
171(7) . . .
167(7) . . .
172(7) . . .
179(7) . . .
193(8) . . .
182(7) . . .
180(7) . . .
194(7) . . .
169(7) . . .
177(7) . . .
176(7) . . .
167(7) . . .
173(7) . . .
180(7) . . .
178(7) . . .
172(7) . . .
191(7) . . .
174(7) . . .
176(7) . . .
173(7) . . .
171(7) . . .
172(7) . . .
162(7) . . .
179(7) . . .
164(7) . . .
162(7) . . .
166(7) . . .
191(7) . . .
184(8) . . .
192(8) . . .
169(7) . . .
166(7) . . .
181(7) . . .
160(7) . . .
174(7) . . .
161(7) . . .
170(7) . . .
163(7) . . .
165(7) . . .
183(7) . . .
165(7) . . .
182(7) . . .
183(7) . . .
174(7) . . .
173(7) . . .
180(7) . . .
168(7) . . .
174(7) . . .
173(7) . . .
179(7) . . .
156(6) . . .
169(7) . . .
171(7) . . .
156(7) . . .
196(8) . . .
187(7) . . .
201(7) . . .
186(7) . . .
169(7) . . .
174(7) . . .
180(7) . . .
184(7) . . .
159(7) . . .
173(7) . . .
184(7) . . .
201(7) . . .
172(7) . . .
188(7) . . .
185(7) . . .
184(7) . . .
178(7) . . .
176(7) . . .
174(7) . . .
169(7) . . .
172(7) . . .
190(7) . . .
176(7) . . .
175(7) . . .
181(7) . . .
176(7) . . .
180(7) . . .
190(7) . . .
177(7) . . .
170(7) . . .
159(7) . . .
190(7) . . .
168(7) . . .
182(7) . . .
192(7) . . .
185(7) . . .
188(7) . . .
187(7) . . .
188(8) . . .
193(8) . . .
186(7) . . .
194(7) . . .
184(7) . . .
185(7) . . .
166(7) . . .
185(7) . . .
164(7) . . .
168(7) . . .
158(7) . . .
169(7) . . .
170(7) . . .
196(7) . . .
177(7) . . .
178(7) . . .
182(7) . . .
161(7) . . .
167(7) . . .
173(7) . . .
176(7) . . .
191(7) . . .
189(7) . . .
165(7) . . .
181(7) . . .
173(7) . . .
155(7) . . .
190(7) . . .
200(7) . . .
182(7) . . .
178(7) . . .
169(7) . . .
167(7) . . .
168(7) . . .
164(7) . . .
178(7) . . .
195(7) . . .
170(7) . . .
174(7) . . .
178(7) . . .
174(7) . . .
177(7) . . .
184(7) . . .
179(7) . . .
180(7) . . .
166(7) . . .
155(6) . . .
170(7) . . .
180(7) . . .
171(7) . . .
178(7) . . .
173(7) . . .
176(7) . . .
180(7) . . .
190(8) . . .
184(7) . . .
185(7) . . .
173(7) . . .
188(7) . . .
179(7) . . .
177(7) . . .
171(7) . . .
177(7) . . .
174(7) . . .
177(7) . . .
170(7) . . .
142(6) . . .
171(7) . . .
168(7) . . .
155(7) . . .
167(7) . . .
167(7) . . .
150(6) . . .
180(7) . . .
164(7) . . .
165(7) . . .
175(7) . . .
194(7) . . .
182(7) . . .
178(7) . . .
177(7) . . .
154(6) . . .
212(8) . . .
188(7) . . .
172(7) . . .
183(7) . . .
169(7) . . .
175(7) . . .
177(7) . . .
168(7) . . .
164(7) . . .
176(7) . . .
190(7) . . .
194(8) . . .
178(7) . . .
176(7) . . .
185(7) . . .
175(7) . . .
161(7) . . .
145(6) . . .
187(7) . . .
181(7) . . .
195(7) . . .
200(8) . . .
179(7) . . .
201(7) . . .
178(7) . . .
175(7) . . .
194(8) . . .
176(7) . . .
188(7) . . .
178(7) . . .
165(7) . . .
181(8) . . .
181(7) . . .
152(6) . . .
202(7) . . .
170(7) . . .
159(7) . . .
163(7) . . .
166(7) . . .
194(7) . . .
170(7) . . .
178(7) . . .
179(7) . . .
181(7) . . .
168(7) . . .
200(8) . . .
195(8) . . .
189(7) . . .
182(7) . . .
187(7) . . .
166(7) . . .
187(7) . . .
181(7) . . .
186(7) . . .
183(7) . . .
180(7) . . .
175(7) . . .
180(7) . . .
194(7) . . .
197(7) . . .
180(7) . . .
170(7) . . .
175(7) . . .
193(7) . . .
177(7) . . .
179(7) . . .
170(7) . . .
174(7) . . .
180(7) . . .
170(7) . . .
177(7) . . .
174(7) . . .
177(7) . . .
178(7) . . .
179(7) . . .
160(7) . . .
164(7) . . .
196(7) . . .
174(7) . . .
159(7) . . .
166(7) . . .
189(7) . . .
158(6) . . .
164(7) . . .
177(7) . . .
184(8) . . .
174(7) . . .
169(7) . . .
177(7) . . .
177(7) . . .
173(7) . . .
164(7) . . .
198(7) . . .
178(7) . . .
177(7) . . .
167(7) . . .
146(6) . . .
171(7) . . .
180(7) . . .
187(7) . . .
177(7) . . .
170(7) . . .
163(7) . . .
188(7) . . .
184(7) . . .
161(7) . . .
159(7) . . .
162(7) . . .
170(7) . . .
148(7) . . .
151(7) . . .
167(7) . . .
178(7) . . .
172(7) . . .
181(7) . . .
175(7) . . .
163(7) . . .
171(7) . . .
178(7) . . .
190(7) . . .
189(7) . . .
184(7) . . .
172(7) . . .
163(7) . . .
178(8) . . .
167(7) . . .
177(7) . . .
176(7) . . .
177(7) . . .
187(8) . . .
159(7) . . .
166(7) . . .
184(7) . . .
173(7) . . .
185(7) . . .
188(7) . . .
162(7) . . .
171(7) . . .
179(7) . . .
198(8) . . .
176(7) . . .
173(7) . . .
185(7) . . .
177(7) . . .
174(7) . . .
161(7) . . .
159(7) . . .
149(6) . . .
170(7) . . .
164(7) . . .
180(7) . . .
180(7) . . .
171(7) . . .
175(7) . . .
169(7) . . .
180(7) . . .
172(7) . . .
173(7) . . .
162(7) . . .
171(7) . . .
162(7) . . .
166(7) . . .
167(7) . . .
187(8) . . .
179(7) . . .
165(7) . . .
160(7) . . .
176(7) . . .
190(7) . . .
199(8) . . .
186(7) . . .
199(7) . . .
176(7) . . .
184(7) . . .
181(7) . . .
183(7) . . .
188(7) . . .
203(8) . . .
180(7) . . .
182(7) . . .
193(7) . . .
183(7) . . .
172(7) . . .
168(7) . . .
194(8) . . .
200(7) . . .
193(7) . . .
180(7) . . .
167(7) . . .
172(7) . . .
184(7) . . .
185(7) . . .
181(7) . . .
168(7) . . .
189(7) . . .
170(7) . . .
176(7) . . .
188(7) . . .
173(7) . . .
178(7) . . .
190(7) . . .
183(7) . . .
174(7) . . .
172(7) . . .
169(7) . . .
164(7) . . .
154(6) . . .
175(7) . . .
173(7) . . .
166(7) . . .
162(7) . . .
160(7) . . .
174(7) . . .
174(7) . . .
154(6) . . .
174(7) . . .
159(7) . . .
179(7) . . .
174(7) . . .
173(7) . . .
157(6) . . .
175(7) . . .
191(8) . . .
148(6) . . .
181(7) . . .
180(7) . . .
172(7) . . .
166(7) . . .
160(7) . . .
154(6) . . .
163(7) . . .
165(7) . . .
172(7) . . .
183(7) . . .
201(7) . . .
177(7) . . .
160(7) . . .
173(7) . . .
170(7) . . .
165(7) . . .
161(7) . . .
164(7) . . .
179(7) . . .
164(7) . . .
162(7) . . .
169(7) . . .
177(7) . . .
171(7) . . .
169(7) . . .
172(7) . . .
161(7) . . .
170(7) . . .
169(7) . . .
156(7) . . .
159(7) . . .
190(7) . . .
172(7) . . .
177(7) . . .
162(7) . . .
174(7) . . .
166(7) . . .
179(7) . . .
159(7) . . .
173(7) . . .
159(7) . . .
175(7) . . .
171(7) . . .
174(7) . . .
162(7) . . .
167(7) . . .
177(7) . . .
173(7) . . .
169(7) . . .
176(7) . . .
175(7) . . .
172(7) . . .
147(6) . . .
179(7) . . .
176(7) . . .
165(7) . . .
168(7) . . .
183(8) . . .
181(7) . . .
156(6) . . .
163(7) . . .
163(7) . . .
181(8) . . .
169(7) . . .
163(7) . . .
170(7) . . .
144(6) . . .
168(7) . . .
173(7) . . .
183(7) . . .
167(7) . . .
161(7) . . .
173(7) . . .
173(7) . . .
191(7) . . .
189(7) . . .
176(7) . . .
176(7) . . .
179(7) . . .
180(7) . . .
181(7) . . .
174(7) . . .
175(7) . . .
186(7) . . .
185(7) . . .
166(7) . . .
179(7) . . .
169(7) . . .
178(7) . . .
172(7) . . .
178(7) . . .
175(7) . . .
185(7) . . .
170(7) . . .
181(7) . . .
183(7) . . .
170(7) . . .
184(7) . . .
188(7) . . .
165(7) . . .
183(7) . . .
165(7) . . .
156(7) . . .
167(7) . . .
168(7) . . .
184(7) . . .
183(8) . . .
167(7) . . .
176(7) . . .
167(7) . . .
170(7) . . .
172(7) . . .
158(7) . . .
171(7) . . .
176(7) . . .
184(7) . . .
170(7) . . .
146(6) . . .
167(7) . . .
159(7) . . .
164(7) . . .
175(7) . . .
173(7) . . .
164(7) . . .
166(7) . . .
160(7) . . .
169(7) . . .
153(7) . . .
157(6) . . .
167(7) . . .
151(6) . . .
154(7) . . .
161(7) . . .
177(7) . . .
171(7) . . .
186(7) . . .
181(7) . . .
159(7) . . .
153(6) . . .
188(7) . . .
186(7) . . .
163(7) . . .
151(6) . . .
139(6) . . .
166(7) . . .
160(7) . . .
167(7) . . .
181(7) . . .
170(7) . . .
182(7) . . .
195(8) . . .
164(7) . . .
167(7) . . .
144(6) . . .
173(7) . . .
168(7) . . .
173(7) . . .
167(7) . . .
165(7) . . .
158(7) . . .
172(7) . . .
181(7) . . .
162(7) . . .
158(7) . . .
162(7) . . .
177(7) . . .
163(7) . . .
172(7) . . .
181(7) . . .
166(7) . . .
177(7) . . .
165(7) . . .
163(7) . . .
178(7) . . .
166(7) . . .
175(7) . . .
178(7) . . .
167(7) . . .
167(7) . . .
184(7) . . .
171(7) . . .
185(7) . . .
206(7) . . .
172(7) . . .
186(7) . . .
180(7) . . .
169(7) . . .
187(7) . . .
173(7) . . .
165(7) . . .
174(7) . . .
172(7) . . .
154(6) . . .
190(8) . . .
174(7) . . .
173(7) . . .
185(7) . . .
174(7) . . .
160(7) . . .
171(7) . . .
173(7) . . .
173(7) . . .
161(7) . . .
205(8) . . .
153(7) . . .
171(7) . . .
184(7) . . .
171(7) . . .
153(7) . . .
158(7) . . .
169(7) . . .
179(7) . . .
157(7) . . .
179(7) . . .
168(7) . . .
176(7) . . .
167(7) . . .
178(7) . . .
161(7) . . .
172(7) . . .
174(7) . . .
165(7) . . .
153(6) . . .
157(7) . . .
171(7) . . .
171(7) . . .
160(7) . . .
168(7) . . .
181(7) . . .
164(7) . . .
168(7) . . .
149(6) . . .
155(7) . . .
167(7) . . .
162(7) . . .
157(7) . . .
156(6) . . .
184(7) . . .
157(7) . . .
150(7) . . .
177(7) . . .
180(7) . . .
174(7) . . .
168(7) . . .
182(7) . . .
164(7) . . .
158(7) . . .
177(7) . . .
172(7) . . .
176(7) . . .
175(7) . . .
171(7) . . .
168(7) . . .
154(7) . . .
164(7) . . .
167(7) . . .
164(7) . . .
182(7) . . .
178(8) . . .
148(6) . . .
174(7) . . .
156(7) . . .
170(7) . . .
162(7) . . .
164(7) . . .
164(7) . . .
167(7) . . .
174(7) . . .
169(7) . . .
155(7) . . .
148(6) . . .
159(7) . . .
164(7) . . .
167(7) . . .
170(7) . . .
180(7) . . .
172(7) . . .
165(7) . . .
156(7) . . .
138(6) . . .
173(7) . . .
152(6) . . .
183(7) . . .
149(7) . . .
159(7) . . .
162(7) . . .
170(7) . . .
152(7) . . .
178(7) . . .
160(7) . . .
160(7) . . .
175(7) . . .
157(7) . . .
153(7) . . .
154(7) . . .
174(7) . . .
173(7) . . .
174(7) . . .
163(7) . . .
168(7) . . .
144(6) . . .
166(7) . . .
169(7) . . .
183(7) . . .
181(7) . . .
167(7) . . .
172(7) . . .
176(7) . . .
168(7) . . .
163(7) . . .
167(7) . . .
175(7) . . .
151(7) . . .
169(7) . . .
177(7) . . .
175(7) . . .
164(7) . . .
162(7) . . .
161(7) . . .
167(7) . . .
173(7) . . .
168(7) . . .
175(7) . . .
169(7) . . .
153(6) . . .
159(7) . . .
177(7) . . .
170(7) . . .
175(7) . . .
173(7) . . .
186(7) . . .
165(7) . . .
168(7) . . .
178(7) . . .
181(7) . . .
192(7) . . .
180(7) . . .
176(7) . . .
159(7) . . .
166(7) . . .
157(7) . . .
170(7) . . .
168(7) . . .
210(8) . . .
165(7) . . .
171(7) . . .
193(8) . . .
165(7) . . .
179(7) . . .
162(7) . . .
168(7) . . .
189(8) . . .
192(7) . . .
177(7) . . .
173(7) . . .
165(7) . . .
155(7) . . .
174(7) . . .
162(7) . . .
189(7) . . .
182(7) . . .
158(7) . . .
170(7) . . .
154(6) . . .
169(7) . . .
149(7) . . .
159(7) . . .
161(7) . . .
153(6) . . .
172(7) . . .
172(7) . . .
172(7) . . .
165(7) . . .
179(7) . . .
171(7) . . .
180(7) . . .
159(7) . . .
159(7) . . .
178(7) . . .
181(7) . . .
160(7) . . .
170(7) . . .
158(7) . . .
180(7) . . .
166(7) . . .
185(7) . . .
169(7) . . .
164(7) . . .
172(7) . . .
161(7) . . .
163(7) . . .
166(7) . . .
165(7) . . .
167(7) . . .
159(7) . . .
178(8) . . .
185(7) . . .
175(7) . . .
152(6) . . .
149(7) . . .
145(7) . . .
165(7) . . .
160(7) . . .
174(7) . . .
162(7) . . .
183(8) . . .
162(7) . . .
159(6) . . .
173(7) . . .
165(7) . . .
181(7) . . .
194(7) . . .
162(7) . . .
156(7) . . .
159(7) . . .
155(7) . . .
146(6) . . .
160(7) . . .
157(7) . . .
143(6) . . .
171(7) . . .
164(7) . . .
163(7) . . .
168(7) . . .
155(7) . . .
149(7) . . .
163(7) . . .
168(7) . . .
153(6) . . .
172(7) . . .
177(7) . . .
176(7) . . .
168(7) . . .
162(7) . . .
172(7) . . .
169(7) . . .
184(7) . . .
184(7) . . .
182(7) . . .
177(7) . . .
182(7) . . .
173(7) . . .
153(6) . . .
159(7) . . .
161(7) . . .
173(7) . . .
165(7) . . .
183(7) . . .
181(7) . . .
165(7) . . .
154(7) . . .
169(7) . . .
146(6) . . .
179(7) . . .
171(7) . . .
169(7) . . .
158(6) . . .
163(7) . . .
142(6) . . .
181(8) . . .
162(7) . . .
167(7) . . .
167(7) . . .
165(7) . . .
170(7) . . .
164(7) . . .
168(7) . . .
160(7) . . .
165(7) . . .
167(7) . . .
164(7) . . .
193(7) . . .
175(7) . . .
158(7) . . .
169(7) . . .
172(7) . . .
181(7) . . .
157(7) . . .
168(7) . . .
171(7) . . .
159(7) . . .
165(7) . . .
174(7) . . .
161(7) . . .
167(7) . . .
168(7) . . .
162(7) . . .
155(6) . . .
155(7) . . .
198(8) . . .
167(7) . . .
170(7) . . .
171(7) . . .
170(7) . . .
167(7) . . .
161(7) . . .
185(7) . . .
159(7) . . .
180(8) . . .
185(8) . . .
171(7) . . .
172(7) . . .
160(7) . . .
175(8) . . .
172(7) . . .
159(7) . . .
161(7) . . .
171(7) . . .
164(7) . . .
171(7) . . .
149(6) . . .
151(6) . . .
164(7) . . .
165(7) . . .
166(7) . . .
159(7) . . .
157(7) . . .
155(7) . . .
164(7) . . .
163(7) . . .
166(7) . . .
164(7) . . .
158(7) . . .
159(7) . . .
156(7) . . .
167(7) . . .
164(7) . . .
167(7) . . .
158(7) . . .
169(7) . . .
162(7) . . .
166(7) . . .
171(7) . . .
171(7) . . .
160(7) . . .
155(7) . . .
181(7) . . .
168(7) . . .
164(7) . . .
174(7) . . .
167(7) . . .
167(7) . . .
175(7) . . .
177(7) . . .
162(7) . . .
160(7) . . .
161(7) . . .
175(7) . . .
176(7) . . .
155(7) . . .
154(6) . . .
158(7) . . .
161(7) . . .
173(7) . . .
159(6) . . .
153(6) . . .
155(7) . . .
166(7) . . .
171(7) . . .
156(6) . . .
158(7) . . .
175(7) . . .
175(7) . . .
178(7) . . .
168(7) . . .
159(7) . . .
155(7) . . .
167(7) . . .
142(6) . . .
157(7) . . .
150(6) . . .
173(7) . . .
185(7) . . .
170(7) . . .
179(7) . . .
176(7) . . .
129(6) . . .
142(6) . . .
160(7) . . .
179(7) . . .
166(7) . . .
174(7) . . .
169(7) . . .
168(7) . . .
176(7) . . .
174(7) . . .
159(7) . . .
175(7) . . .
194(8) . . .
164(7) . . .
158(7) . . .
158(7) . . .
175(7) . . .
179(7) . . .
188(7) . . .
144(6) . . .
181(7) . . .
176(7) . . .
160(7) . . .
165(7) . . .
179(7) . . .
167(7) . . .
155(7) . . .
159(7) . . .
149(6) . . .
171(7) . . .
159(7) . . .
169(7) . . .
173(7) . . .
165(7) . . .
156(7) . . .
180(8) . . .
166(7) . . .
145(6) . . .
176(7) . . .
183(7) . . .
168(7) . . .
153(7) . . .
148(6) . . .
168(7) . . .
162(7) . . .
141(7) . . .
157(7) . . .
184(7) . . .
179(7) . . .
174(7) . . .
170(7) . . .
161(7) . . .
161(7) . . .
171(7) . . .
172(7) . . .
173(7) . . .
177(7) . . .
170(7) . . .
179(7) . . .
165(7) . . .
176(7) . . .
165(7) . . .
166(7) . . .
171(7) . . .
181(7) . . .
176(7) . . .
144(6) . . .
140(6) . . .
162(7) . . .
170(7) . . .
170(7) . . .
162(7) . . .
168(7) . . .
165(7) . . .
160(7) . . .
161(7) . . .
140(6) . . .
167(7) . . .
158(7) . . .
180(8) . . .
145(6) . . .
142(6) . . .
160(7) . . .
165(7) . . .
152(7) . . .
147(7) . . .
157(7) . . .
165(7) . . .
160(7) . . .
162(7) . . .
173(7) . . .
158(7) . . .
145(6) . . .
167(7) . . .
175(7) . . .
177(7) . . .
177(7) . . .
183(7) . . .
169(7) . . .
149(6) . . .
165(7) . . .
149(6) . . .
153(7) . . .
157(7) . . .
141(7) . . .
161(7) . . .
194(7) . . .
158(7) . . .
150(6) . . .
165(7) . . .
165(7) . . .
170(7) . . .
139(6) . . .
167(7) . . .
176(7) . . .
158(7) . . .
162(7) . . .
165(7) . . .
171(7) . . .
168(7) . . .
156(6) . . .
185(7) . . .
163(7) . . .
155(7) . . .
166(7) . . .
143(6) . . .
159(7) . . .
164(7) . . .
153(7) . . .
147(6) . . .
171(7) . . .
170(7) . . .
166(7) . . .
165(7) . . .
149(6) . . .
157(7) . . .
165(7) . . .
163(7) . . .
164(7) . . .
153(7) . . .
145(6) . . .
145(6) . . .
160(7) . . .
152(7) . . .
156(7) . . .
146(6) . . .
166(7) . . .
154(7) . . .
158(7) . . .
157(7) . . .
146(6) . . .
156(6) . . .
150(6) . . .
148(7) . . .
158(7) . . .
160(7) . . .
170(7) . . .
169(7) . . .
164(7) . . .
164(7) . . .
165(7) . . .
160(7) . . .
155(7) . . .
156(7) . . .
166(7) . . .
153(6) . . .
160(7) . . .
137(6) . . .
166(7) . . .
166(7) . . .
168(7) . . .
158(7) . . .
167(7) . . .
149(6) . . .
167(7) . . .
144(6) . . .
159(7) . . .
152(7) . . .
140(6) . . .
158(7) . . .
159(7) . . .
159(7) . . .
184(8) . . .
161(7) . . .
159(7) . . .
156(6) . . .
175(7) . . .
183(8) . . .
172(7) . . .
160(6) . . .
154(7) . . .
163(7) . . .
153(7) . . .
154(7) . . .
168(7) . . .
170(7) . . .
166(7) . . .
184(8) . . .
153(7) . . .
159(7) . . .
167(7) . . .
169(7) . . .
154(7) . . .
159(7) . . .
163(7) . . .
152(7) . . .
150(7) . . .
158(7) . . .
167(7) . . .
162(7) . . .
169(7) . . .
163(7) . . .
178(7) . . .
165(7) . . .
170(7) . . .
163(7) . . .
165(7) . . .
153(7) . . .
168(7) . . .
157(7) . . .
176(7) . . .
177(7) . . .
160(7) . . .
174(7) . . .
149(6) . . .
151(7) . . .
160(7) . . .
155(7) . . .
154(7) . . .
149(6) . . .
153(7) . . .
157(7) . . .
151(7) . . .
146(6) . . .
160(7) . . .
174(7) . . .
167(7) . . .
170(7) . . .
162(7) . . .
164(7) . . .
156(7) . . .
158(7) . . .
179(7) . . .
153(6) . . .
151(6) . . .
161(7) . . .
161(7) . . .
180(7) . . .
157(7) . . .
148(6) . . .
149(6) . . .
150(7) . . .
165(7) . . .
135(6) . . .
178(7) . . .
156(7) . . .
158(7) . . .
150(7) . . .
136(6) . . .
167(7) . . .
167(7) . . .
161(7) . . .
155(6) . . .
157(6) . . .
187(7) . . .
153(7) . . .
165(7) . . .
147(6) . . .
164(7) . . .
144(6) . . .
151(7) . . .
168(7) . . .
165(7) . . .
164(7) . . .
154(7) . . .
152(7) . . .
159(7) . . .
142(6) . . .
146(6) . . .
158(7) . . .
159(7) . . .
152(7) . . .
152(6) . . .
161(7) . . .
151(7) . . .
146(7) . . .
149(6) . . .
144(6) . . .
186(7) . . .
185(7) . . .
184(8) . . .
161(7) . . .
157(7) . . .
167(7) . . .
166(7) . . .
167(7) . . .
153(7) . . .
158(7) . . .
153(6) . . .
138(6) . . .
150(7) . . .
185(7) . . .
163(7) . . .
161(7) . . .
165(7) . . .
151(7) . . .
145(6) . . .
156(6) . . .
162(7) . . .
163(7) . . .
168(7) . . .
147(6) . . .
150(6) . . .
145(6) . . .
147(7) . . .
155(7) . . .
159(7) . . .
168(7) . . .
158(7) . . .
156(7) . . .
174(7) . . .
153(6) . . .
159(7) . . .
166(7) . . .
162(7) . . .
156(7) . . .
164(7) . . .
159(7) . . .
145(7) . . .
141(6) . . .
158(7) . . .
147(6) . . .
147(6) . . .
142(6) . . .
164(7) . . .
161(7) . . .
150(6) . . .
161(7) . . .
166(7) . . .
143(7) . . .
161(7) . . .
184(7) . . .
180(7) . . .
168(7) . . .
162(7) . . .
161(7) . . .
160(7) . . .
175(7) . . .
143(6) . . .
161(7) . . .
175(7) . . .
151(6) . . .
162(7) . . .
157(7) . . .
170(7) . . .
161(7) . . .
167(7) . . .
169(7) . . .
172(7) . . .
160(7) . . .
143(6) . . .
143(6) . . .
151(6) . . .
161(7) . . .
169(7) . . .
180(7) . . .
157(7) . . .
167(7) . . .
162(7) . . .
150(7) . . .
155(6) . . .
158(7) . . .
184(7) . . .
158(7) . . .
165(7) . . .
175(7) . . .
160(7) . . .
149(7) . . .
168(7) . . .
168(7) . . .
167(7) . . .
158(7) . . .
156(7) . . .
149(7) . . .
154(7) . . .
164(7) . . .
152(6) . . .
148(6) . . .
151(7) . . .
159(7) . . .
163(7) . . .
166(7) . . .
166(7) . . .
155(7) . . .
164(7) . . .
170(7) . . .
185(7) . . .
151(7) . . .
149(7) . . .
164(7) . . .
164(7) . . .
173(7) . . .
145(6) . . .
153(7) . . .
163(7) . . .
153(6) . . .
179(7) . . .
177(7) . . .
179(7) . . .
169(7) . . .
168(7) . . .
156(7) . . .
175(7) . . .
168(7) . . .
152(6) . . .
167(7) . . .
159(7) . . .
155(7) . . .
153(7) . . .
165(7) . . .
152(6) . . .
161(7) . . .
143(7) . . .
176(7) . . .
165(7) . . .
163(7) . . .
147(7) . . .
167(7) . . .
191(7) . . .
178(7) . . .
166(7) . . .
171(7) . . .
154(7) . . .
170(7) . . .
172(7) . . .
152(6) . . .
180(7) . . .
157(7) . . .
166(7) . . .
156(6) . . .
150(7) . . .
167(7) . . .
165(7) . . .
173(7) . . .
162(7) . . .
168(7) . . .
154(7) . . .
157(7) . . .
171(7) . . .
154(6) . . .
164(7) . . .
167(7) . . .
168(7) . . .
154(7) . . .
160(7) . . .
152(6) . . .
142(6) . . .
152(7) . . .
164(7) . . .
157(6) . . .
144(6) . . .
160(7) . . .
155(7) . . .
139(6) . . .
174(7) . . .
182(7) . . .
169(7) . . .
153(7) . . .
141(6) . . .
162(7) . . .
155(7) . . .
155(7) . . .
147(7) . . .
147(6) . . .
146(6) . . .
149(7) . . .
156(7) . . .
161(7) . . .
138(6) . . .
164(7) . . .
154(7) . . .
159(7) . . .
161(7) . . .
171(7) . . .
169(7) . . .
159(7) . . .
165(7) . . .
146(7) . . .
156(7) . . .
144(6) . . .
165(7) . . .
163(7) . . .
156(7) . . .
168(7) . . .
150(6) . . .
167(7) . . .
151(7) . . .
154(7) . . .
173(7) . . .
170(7) . . .
166(7) . . .
184(8) . . .
150(7) . . .
164(7) . . .
162(7) . . .
150(7) . . .
161(7) . . .
161(7) . . .
164(7) . . .
150(6) . . .
143(6) . . .
157(7) . . .
145(6) . . .
137(6) . . .
163(7) . . .
178(7) . . .
177(7) . . .
159(7) . . .
147(6) . . .
147(7) . . .
154(7) . . .
153(7) . . .
144(6) . . .
167(7) . . .
156(7) . . .
172(7) . . .
154(6) . . .
158(7) . . .
171(7) . . .
155(7) . . .
160(7) . . .
165(7) . . .
163(7) . . .
167(7) . . .
159(7) . . .
153(7) . . .
147(6) . . .
157(6) . . .
155(6) . . .
161(7) . . .
162(8) . . .
144(7) . . .
150(6) . . .
153(6) . . .
162(7) . . .
152(7) . . .
166(7) . . .
158(7) . . .
163(7) . . .
133(6) . . .
140(7) . . .
157(7) . . .
155(7) . . .
170(7) . . .
151(7) . . .
153(7) . . .
153(7) . . .
166(7) . . .
163(7) . . .
170(7) . . .
146(7) . . .
157(7) . . .
162(7) . . .
156(7) . . .
150(7) . . .
164(7) . . .
148(6) . . .
139(6) . . .
158(7) . . .
153(7) . . .
164(7) . . .
168(7) . . .
143(6) . . .
175(7) . . .
164(7) . . .
161(7) . . .
148(6) . . .
168(7) . . .
151(7) . . .
156(7) . . .
158(7) . . .
160(7) . . .
152(6) . . .
156(7) . . .
160(7) . . .
177(7) . . .
144(6) . . .
138(6) . . .
164(7) . . .
180(7) . . .
178(7) . . .
149(6) . . .
156(7) . . .
168(7) . . .
157(7) . . .
172(7) . . .
168(7) . . .
163(7) . . .
165(7) . . .
164(7) . . .
160(7) . . .
163(7) . . .
169(7) . . .
154(6) . . .
169(7) . . .
163(7) . . .
174(7) . . .
176(7) . . .
148(7) . . .
147(6) . . .
167(7) . . .
167(7) . . .
159(7) . . .
158(7) . . .
157(7) . . .
152(6) . . .
160(7) . . .
151(7) . . .
155(7) . . .
156(7) . . .
159(7) . . .
154(6) . . .
157(7) . . .
150(7) . . .
155(7) . . .
155(7) . . .
157(7) . . .
161(7) . . .
158(7) . . .
162(7) . . .
159(7) . . .
172(7) . . .
169(7) . . .
157(7) . . .
148(6) . . .
165(7) . . .
158(7) . . .
140(6) . . .
162(7) . . .
163(7) . . .
161(7) . . .
155(6) . . .
151(7) . . .
162(7) . . .
179(7) . . .
162(7) . . .
142(6) . . .
167(7) . . .
154(7) . . .
145(6) . . .
146(6) . . .
151(7) . . .
148(7) . . .
155(7) . . .
154(7) . . .
157(6) . . .
149(6) . . .
161(7) . . .
152(7) . . .
146(6) . . .
153(6) . . .
146(6) . . .
151(7) . . .
129(6) . . .
162(7) . . .
154(6) . . .
163(7) . . .
144(6) . . .
148(7) . . .
159(7) . . .
165(7) . . .
164(7) . . .
158(7) . . .
146(6) . . .
149(6) . . .
144(6) . . .
145(6) . . .
153(7) . . .
153(7) . . .
151(6) . . .
169(7) . . .
153(7) . . .
154(7) . . .
165(7) . . .
134(6) . . .
138(6) . . .
159(7) . . .
157(7) . . .
156(7) . . .
163(7) . . .
148(6) . . .
148(6) . . .
144(7) . . .
156(7) . . .
149(6) . . .
154(6) . . .
151(7) . . .
155(7) . . .
156(7) . . .
143(6) . . .
150(6) . . .
144(6) . . .
153(7) . . .
153(7) . . .
141(6) . . .
155(7) . . .
151(7) . . .
141(6) . . .
162(7) . . .
149(6) . . .
145(6) . . .
143(7) . . .
167(7) . . .
166(7) . . .
144(6) . . .
160(7) . . .
169(7) . . .
161(7) . . .
161(7) . . .
145(6) . . .
147(7) . . .
158(7) . . .
150(7) . . .
136(6) . . .
148(6) . . .
160(7) . . .
166(7) . . .
152(7) . . .
164(7) . . .
152(6) . . .
152(7) . . .
156(7) . . .
162(7) . . .
145(6) . . .
155(6) . . .
154(7) . . .
141(7) . . .
151(7) . . .
169(7) . . .
158(7) . . .
144(6) . . .
153(7) . . .
158(7) . . .
162(7) . . .
180(7) . . .
161(7) . . .
147(7) . . .
136(6) . . .
167(7) . . .
172(7) . . .
154(7) . . .
146(7) . . .
157(7) . . .
138(6) . . .
148(6) . . .
172(7) . . .
145(7) . . .
151(7) . . .
149(6) . . .
147(6) . . .
159(7) . . .
168(7) . . .
158(7) . . .
168(7) . . .
160(7) . . .
157(7) . . .
147(7) . . .
148(7) . . .
167(7) . . .
165(7) . . .
167(7) . . .
162(7) . . .
147(6) . . .
168(7) . . .
159(7) . . .
157(7) . . .
145(6) . . .
177(7) . . .
161(7) . . .
161(7) . . .
149(7) . . .
164(7) . . .
161(7) . . .
149(6) . . .
145(6) . . .
147(7) . . .
139(6) . . .
140(6) . . .
156(7) . . .
162(7) . . .
159(7) . . .
156(7) . . .
166(7) . . .
162(7) . . .
181(7) . . .
175(7) . . .
161(7) . . .
161(7) . . .
155(7) . . .
161(7) . . .
148(7) . . .
160(7) . . .
148(6) . . .
154(6) . . .
135(6) . . .
139(6) . . .
147(7) . . .
159(7) . . .
154(7) . . .
150(7) . . .
158(7) . . .
135(6) . . .
151(6) . . .
141(6) . . .
166(7) . . .
166(7) . . .
161(7) . . .
164(7) . . .
143(7) . . .
133(6) . . .
150(7) . . .
159(7) . . .
148(6) . . .
162(7) . . .
144(7) . . .
132(6) . . .
148(6) . . .
141(6) . . .
133(6) . . .
150(7) . . .
137(6) . . .
141(6) . . .
153(6) . . .
168(7) . . .
169(7) . . .
146(7) . . .
169(7) . . .
151(6) . . .
134(6) . . .
152(7) . . .
152(7) . . .
149(6) . . .
149(6) . . .
142(6) . . .
157(7) . . .
150(6) . . .
150(6) . . .
134(6) . . .
151(7) . . .
148(7) . . .
149(6) . . .
135(6) . . .
141(6) . . .
137(6) . . .
174(8) . . .
143(7) . . .
162(7) . . .
167(7) . . .
154(7) . . .
151(7) . . .
169(7) . . .
171(7) . . .
150(6) . . .
164(7) . . .
134(6) . . .
165(7) . . .
157(7) . . .
142(6) . . .
146(6) . . .
152(7) . . .
133(6) . . .
148(6) . . .
162(7) . . .
148(7) . . .
146(7) . . .
144(6) . . .
154(6) . . .
132(6) . . .
139(6) . . .
143(6) . . .
134(6) . . .
157(6) . . .
129(6) . . .
142(7) . . .
150(7) . . .
160(7) . . .
153(6) . . .
144(6) . . .
140(6) . . .
148(7) . . .
142(6) . . .
141(6) . . .
153(7) . . .
146(7) . . .
154(7) . . .
141(6) . . .
147(6) . . .
140(6) . . .
152(7) . . .
154(7) . . .
139(6) . . .
156(7) . . .
127(6) . . .
142(7) . . .
131(6) . . .
165(7) . . .
148(6) . . .
160(7) . . .
155(7) . . .
156(7) . . .
145(6) . . .
149(6) . . .
141(6) . . .
160(7) . . .
149(7) . . .
150(6) . . .
156(7) . . .
126(6) . . .
135(6) . . .
138(6) . . .
149(6) . . .
148(7) . . .
143(7) . . .
133(6) . . .
146(6) . . .
132(6) . . .
137(6) . . .
163(7) . . .
141(6) . . .
179(7) . . .
149(6) . . .
151(7) . . .
150(7) . . .
154(7) . . .
147(6) . . .
146(6) . . .
149(7) . . .
131(6) . . .
130(6) . . .
136(6) . . .
142(6) . . .
145(6) . . .
151(7) . . .
150(7) . . .
146(6) . . .
153(7) . . .
135(6) . . .
139(7) . . .
150(7) . . .
140(6) . . .
149(6) . . .
162(7) . . .
142(7) . . .
133(6) . . .
133(6) . . .
137(6) . . .
137(6) . . .
140(6) . . .
142(6) . . .
135(6) . . .
146(6) . . .
144(6) . . .
155(7) . . .
160(7) . . .
146(6) . . .
150(7) . . .
156(7) . . .
159(7) . . .
155(7) . . .
150(6) . . .
143(6) . . .
150(7) . . .
152(7) . . .
150(6) . . .
158(7) . . .
154(7) . . .
145(7) . . .
155(7) . . .
171(7) . . .
173(7) . . .
160(7) . . .
177(8) . . .
175(7) . . .
162(7) . . .
166(7) . . .
162(7) . . .
162(7) . . .
175(7) . . .
157(7) . . .
186(7) . . .
147(7) . . .
158(7) . . .
155(7) . . .
145(6) . . .
165(7) . . .
155(7) . . .
150(7) . . .
162(7) . . .
173(7) . . .
162(7) . . .
170(7) . . .
164(7) . . .
154(7) . . .
168(7) . . .
168(7) . . .
166(7) . . .
158(7) . . .
160(7) . . .
140(6) . . .
149(7) . . .
159(7) . . .
163(7) . . .
148(6) . . .
172(7) . . .
160(7) . . .
144(6) . . .
157(7) . . .
183(7) . . .
153(6) . . .
161(7) . . .
151(7) . . .
150(6) . . .
144(6) . . .
151(6) . . .
155(7) . . .
155(7) . . .
149(7) . . .
157(7) . . .
154(6) . . .
150(7) . . .
161(7) . . .
161(7) . . .
148(6) . . .
152(6) . . .
154(7) . . .
153(7) . . .
180(7) . . .
162(7) . . .
163(7) . . .
155(7) . . .
159(7) . . .
168(7) . . .
141(6) . . .
157(7) . . .
140(6) . . .
166(7) . . .
145(6) . . .
149(6) . . .
145(6) . . .
154(7) . . .
154(7) . . .
128(6) . . .
141(6) . . .
154(7) . . .
154(7) . . .
145(7) . . .
138(6) . . .
149(6) . . .
133(6) . . .
149(7) . . .
158(7) . . .
138(6) . . .
137(6) . . .
163(7) . . .
151(7) . . .
148(7) . . .
166(7) . . .
145(6) . . .
152(7) . . .
161(7) . . .
142(6) . . .
151(7) . . .
133(6) . . .
153(7) . . .
162(7) . . .
154(7) . . .
140(6) . . .
145(6) . . .
154(7) . . .
159(7) . . .
147(7) . . .
164(7) . . .
158(6) . . .
152(7) . . .
152(7) . . .
143(6) . . .
142(6) . . .
161(7) . . .
143(6) . . .
156(7) . . .
146(6) . . .
164(7) . . .
161(7) . . .
146(6) . . .
149(7) . . .
145(7) . . .
149(6) . . .
134(6) . . .
152(7) . . .
153(7) . . .
149(7) . . .
159(7) . . .
156(7) . . .
161(7) . . .
166(7) . . .
148(7) . . .
150(6) . . .
143(6) . . .
133(6) . . .
137(6) . . .
151(7) . . .
157(7) . . .
138(6) . . .
149(7) . . .
154(7) . . .
151(6) . . .
152(6) . . .
153(7) . . .
143(6) . . .
172(7) . . .
161(7) . . .
155(6) . . .
160(7) . . .
158(7) . . .
149(7) . . .
143(6) . . .
147(6) . . .
164(7) . . .
158(7) . . .
147(6) . . .
133(6) . . .
144(6) . . .
136(6) . . .
127(6) . . .
146(7) . . .
156(7) . . .
135(6) . . .
154(7) . . .
132(7) . . .
146(6) . . .
143(6) . . .
159(7) . . .
154(7) . . .
161(7) . . .
155(7) . . .
145(6) . . .
145(6) . . .
168(7) . . .
161(7) . . .
153(7) . . .
141(6) . . .
141(6) . . .
174(7) . . .
159(7) . . .
157(7) . . .
164(7) . . .
164(7) . . .
164(7) . . .
142(6) . . .
161(7) . . .
168(7) . . .
159(7) . . .
148(6) . . .
157(7) . . .
155(7) . . .
175(7) . . .
162(7) . . .
142(6) . . .
142(6) . . .
157(7) . . .
152(6) . . .
161(7) . . .
161(7) . . .
156(7) . . .
161(7) . . .
152(6) . . .
146(7) . . .
161(7) . . .
151(7) . . .
155(7) . . .
154(6) . . .
138(6) . . .
139(7) . . .
152(7) . . .
154(6) . . .
152(6) . . .
156(7) . . .
162(7) . . .
157(7) . . .
156(7) . . .
167(7) . . .
145(6) . . .
142(7) . . .
127(6) . . .
146(6) . . .
156(6) . . .
144(6) . . .
133(6) . . .
134(6) . . .
142(6) . . .
146(6) . . .
142(6) . . .
140(6) . . .
160(7) . . .
162(7) . . .
142(6) . . .
154(7) . . .
146(7) . . .
154(7) . . .
136(6) . . .
153(7) . . .
156(7) . . .
139(6) . . .
147(6) . . .
147(6) . . .
143(6) . . .
143(6) . . .
137(6) . . .
156(7) . . .
138(6) . . .
138(6) . . .
162(7) . . .
138(6) . . .
154(7) . . .
147(6) . . .
142(7) . . .
146(7) . . .
138(6) . . .
164(7) . . .
147(6) . . .
147(6) . . .
144(7) . . .
126(6) . . .
139(6) . . .
151(6) . . .
143(6) . . .
155(7) . . .
144(6) . . .
142(6) . . .
136(6) . . .
137(6) . . .
152(7) . . .
130(6) . . .
139(6) . . .
142(6) . . .
138(6) . . .
160(7) . . .
137(6) . . .
155(6) . . .
142(6) . . .
131(6) . . .
137(6) . . .
138(6) . . .
153(6) . . .
133(6) . . .
156(7) . . .
148(7) . . .
151(7) . . .
149(6) . . .
170(7) . . .
130(6) . . .
126(6) . . .
128(6) . . .
141(6) . . .
147(6) . . .
143(6) . . .
163(7) . . .
151(6) . . .
134(6) . . .
164(7) . . .
137(6) . . .
141(6) . . .
150(6) . . .
150(6) . . .
138(6) . . .
131(6) . . .
132(6) . . .
144(6) . . .
138(6) . . .
150(7) . . .
149(7) . . .
131(6) . . .
156(7) . . .
147(6) . . .
133(6) . . .
157(7) . . .
151(7) . . .
139(6) . . .
142(6) . . .
160(7) . . .
162(7) . . .
170(7) . . .
143(6) . . .
148(6) . . .
136(6) . . .
136(6) . . .
150(7) . . .
148(6) . . .
144(6) . . .
159(7) . . .
156(7) . . .
141(7) . . .
121(6) . . .
131(6) . . .
140(6) . . .
140(7) . . .
140(7) . . .
121(6) . . .
150(6) . . .
149(7) . . .
140(6) . . .
157(7) . . .
132(6) . . .
141(6) . . .
151(7) . . .
142(6) . . .
166(7) . . .
147(6) . . .
155(7) . . .
143(6) . . .
151(7) . . .
123(6) . . .
157(6) . . .
151(6) . . .
152(7) . . .
122(6) . . .
140(6) . . .
143(6) . . .
155(7) . . .
157(7) . . .
153(7) . . .
150(6) . . .
138(6) . . .
147(7) . . .
148(7) . . .
137(6) . . .
142(6) . . .
147(6) . . .
136(6) . . .
129(6) . . .
151(6) . . .
156(6) . . .
140(6) . . .
138(6) . . .
148(7) . . .
148(6) . . .
160(7) . . .
163(7) . . .
156(7) . . .
157(7) . . .
139(6) . . .
153(6) . . .
142(6) . . .
149(7) . . .
122(6) . . .
135(6) . . .
143(6) . . .
148(6) . . .
148(6) . . .
162(7) . . .
147(7) . . .
147(6) . . .
139(6) . . .
143(6) . . .
143(6) . . .
159(7) . . .
147(6) . . .
142(6) . . .
146(7) . . .
143(6) . . .
149(6) . . .
149(6) . . .
134(6) . . .
146(6) . . .
160(7) . . .
143(6) . . .
141(6) . . .
154(7) . . .
154(7) . . .
145(7) . . .
147(6) . . .
149(6) . . .
141(6) . . .
124(6) . . .
138(6) . . .
141(6) . . .
133(6) . . .
142(6) . . .
148(7) . . .
135(6) . . .
148(6) . . .
147(6) . . .
139(7) . . .
142(7) . . .
161(7) . . .
143(6) . . .
152(6) . . .
138(6) . . .
135(6) . . .
139(6) . . .
137(6) . . .
150(6) . . .
164(7) . . .
148(7) . . .
136(6) . . .
140(6) . . .
150(7) . . .
142(6) . . .
142(6) . . .
149(6) . . .
140(6) . . .
144(6) . . .
151(7) . . .
137(6) . . .
128(6) . . .
148(6) . . .
137(6) . . .
127(6) . . .
149(7) . . .
153(7) . . .
144(6) . . .
152(7) . . .
145(7) . . .
124(6) . . .
149(6) . . .
132(6) . . .
141(6) . . .
129(6) . . .
129(6) . . .
133(6) . . .
122(6) . . .
130(6) . . .
138(7) . . .
150(7) . . .
144(6) . . .
143(6) . . .
159(7) . . .
143(7) . . .
138(6) . . .
144(6) . . .
131(6) . . .
140(6) . . .
137(6) . . .
132(6) . . .
142(6) . . .
140(6) . . .
122(6) . . .
151(7) . . .
134(6) . . .
141(6) . . .
135(6) . . .
129(6) . . .
142(7) . . .
143(6) . . .
157(7) . . .
142(6) . . .
135(6) . . .
154(7) . . .
151(7) . . .
121(6) . . .
148(6) . . .
141(6) . . .
160(7) . . .
139(6) . . .
143(6) . . .
132(6) . . .
158(7) . . .
151(7) . . .
138(6) . . .
139(6) . . .
140(6) . . .
159(7) . . .
142(6) . . .
139(6) . . .
144(6) . . .
151(7) . . .
141(6) . . .
135(6) . . .
135(6) . . .
135(6) . . .
147(7) . . .
144(7) . . .
149(6) . . .
152(6) . . .
147(6) . . .
144(6) . . .
152(7) . . .
147(6) . . .
145(6) . . .
136(6) . . .
130(6) . . .
138(6) . . .
140(6) . . .
151(6) . . .
144(6) . . .
149(7) . . .
138(6) . . .
158(7) . . .
126(6) . . .
157(7) . . .
148(7) . . .
140(7) . . .
135(6) . . .
138(6) . . .
140(6) . . .
139(6) . . .
135(7) . . .
137(6) . . .
158(7) . . .
144(6) . . .
135(6) . . .
147(7) . . .
139(6) . . .
147(6) . . .
165(7) . . .
136(6) . . .
133(6) . . .
159(7) . . .
129(6) . . .
137(6) . . .
148(7) . . .
144(6) . . .
137(6) . . .
136(6) . . .
127(6) . . .
147(6) . . .
162(7) . . .
140(6) . . .
155(6) . . .
134(6) . . .
125(6) . . .
124(6) . . .
144(6) . . .
142(6) . . .
134(6) . . .
150(7) . . .
150(7) . . .
153(6) . . .
148(6) . . .
124(6) . . .
153(7) . . .
150(6) . . .
158(7) . . .
156(6) . . .
145(6) . . .
146(7) . . .
139(6) . . .
138(6) . . .
149(6) . . .
142(6) . . .
169(7) . . .
143(6) . . .
145(6) . . .
115(6) . . .
120(6) . . .
129(6) . . .
137(6) . . .
142(6) . . .
139(6) . . .
133(6) . . .
141(7) . . .
147(6) . . .
138(6) . . .
139(6) . . .
144(6) . . .
145(7) . . .
144(7) . . .
147(6) . . .
139(6) . . .
148(7) . . .
131(6) . . .
144(7) . . .
162(7) . . .
140(6) . . .
149(7) . . .
146(7) . . .
127(6) . . .
138(6) . . .
130(6) . . .
132(6) . . .
144(7) . . .
140(6) . . .
143(6) . . .
135(6) . . .
136(6) . . .
134(6) . . .
147(6) . . .
139(6) . . .
140(6) . . .
144(7) . . .
151(7) . . .
145(6) . . .
134(6) . . .
129(6) . . .
160(7) . . .
147(7) . . .
131(6) . . .
132(6) . . .
131(6) . . .
125(6) . . .
146(7) . . .
137(6) . . .
136(6) . . .
134(6) . . .
139(7) . . .
147(6) . . .
136(6) . . .
132(6) . . .
118(6) . . .
136(6) . . .
144(7) . . .
143(6) . . .
142(6) . . .
149(7) . . .
137(6) . . .
122(6) . . .
131(6) . . .
143(7) . . .
124(6) . . .
140(6) . . .
152(6) . . .
139(6) . . .
144(6) . . .
136(6) . . .
160(7) . . .
135(6) . . .
131(6) . . .
140(6) . . .
151(7) . . .
137(6) . . .
135(6) . . .
140(6) . . .
145(7) . . .
140(6) . . .
139(6) . . .
136(6) . . .
142(6) . . .
141(6) . . .
133(6) . . .
133(6) . . .
123(6) . . .
134(6) . . .
134(6) . . .
144(7) . . .
138(6) . . .
141(6) . . .
127(6) . . .
143(6) . . .
131(6) . . .
145(6) . . .
139(6) . . .
144(6) . . .
145(7) . . .
141(7) . . .
144(6) . . .
130(6) . . .
122(6) . . .
126(6) . . .
147(7) . . .
134(6) . . .
136(6) . . .
141(6) . . .
137(6) . . .
141(7) . . .
136(6) . . .
127(6) . . .
122(6) . . .
136(6) . . .
131(6) . . .
142(6) . . .
150(6) . . .
145(6) . . .
152(7) . . .
147(7) . . .
144(6) . . .
145(6) . . .
148(7) . . .
149(7) . . .
136(6) . . .
136(6) . . .
147(6) . . .
143(7) . . .
122(6) . . .
127(6) . . .
154(7) . . .
132(6) . . .
139(6) . . .
136(6) . . .
144(6) . . .
135(6) . . .
146(6) . . .
140(7) . . .
132(6) . . .
142(6) . . .
131(6) . . .
137(6) . . .
141(6) . . .
131(7) . . .
128(6) . . .
152(6) . . .
133(6) . . .
127(6) . . .
133(6) . . .
128(6) . . .
129(6) . . .
127(6) . . .
132(6) . . .
131(6) . . .
150(6) . . .
123(6) . . .
128(6) . . .
136(6) . . .
148(7) . . .
146(7) . . .
143(6) . . .
137(6) . . .
136(6) . . .
133(6) . . .
145(6) . . .
137(6) . . .
149(6) . . .
144(6) . . .
144(7) . . .
132(6) . . .
145(6) . . .
147(6) . . .
130(6) . . .
139(6) . . .
131(6) . . .
114(6) . . .
127(6) . . .
141(7) . . .
128(6) . . .
142(6) . . .
153(6) . . .
145(6) . . .
132(6) . . .
139(6) . . .
128(6) . . .
135(6) . . .
125(6) . . .
133(6) . . .
143(7) . . .
139(6) . . .
148(6) . . .
138(6) . . .
135(6) . . .
145(6) . . .
136(6) . . .
126(6) . . .
123(6) . . .
124(6) . . .
119(6) . . .
141(6) . . .
130(6) . . .
145(6) . . .
121(6) . . .
136(6) . . .
135(6) . . .
138(6) . . .
148(7) . . .
126(6) . . .
120(6) . . .
147(6) . . .
151(6) . . .
126(6) . . .
123(6) . . .
130(6) . . .
128(6) . . .
123(6) . . .
149(7) . . .
154(7) . . .
144(6) . . .
128(6) . . .
124(6) . . .
138(6) . . .
128(6) . . .
131(6) . . .
137(6) . . .
138(6) . . .
147(7) . . .
149(7) . . .
167(7) . . .
130(6) . . .
129(6) . . .
129(6) . . .
135(6) . . .
136(6) . . .
129(6) . . .
137(6) . . .
139(6) . . .
136(6) . . .
117(6) . . .
122(6) . . .
129(6) . . .
128(6) . . .
137(6) . . .
142(6) . . .
137(6) . . .
139(6) . . .
138(7) . . .
137(6) . . .
132(6) . . .
126(6) . . .
123(6) . . .
128(6) . . .
131(6) . . .
126(6) . . .
127(6) . . .
137(6) . . .
145(7) . . .
141(7) . . .
127(6) . . .
133(6) . . .
129(6) . . .
130(6) . . .
145(7) . . .
141(6) . . .
144(6) . . .
135(6) . . .
139(6) . . .
154(7) . . .
136(6) . . .
137(6) . . .
134(6) . . .
127(6) . . .
121(6) . . .
127(6) . . .
130(6) . . .
128(6) . . .
135(6) . . .
133(6) . . .
134(6) . . .
125(6) . . .
124(6) . . .
135(6) . . .
136(6) . . .
131(6) . . .
133(6) . . .
152(7) . . .
139(6) . . .
154(6) . . .
164(7) . . .
149(7) . . .
138(6) . . .
129(6) . . .
133(6) . . .
134(6) . . .
145(7) . . .
150(7) . . .
130(6) . . .
131(6) . . .
134(6) . . .
131(6) . . .
148(7) . . .
152(7) . . .
138(6) . . .
142(6) . . .
128(6) . . .
128(6) . . .
149(7) . . .
146(6) . . .
123(6) . . .
142(6) . . .
115(6) . . .
118(6) . . .
129(6) . . .
127(6) . . .
117(6) . . .
131(6) . . .
132(6) . . .
132(6) . . .
116(6) . . .
133(6) . . .
142(7) . . .
123(6) . . .
139(6) . . .
117(6) . . .
138(6) . . .
126(6) . . .
136(6) . . .
134(6) . . .
141(6) . . .
135(6) . . .
151(7) . . .
141(6) . . .
140(6) . . .
124(6) . . .
140(7) . . .
136(6) . . .
142(6) . . .
135(6) . . .
162(7) . . .
132(6) . . .
129(6) . . .
135(6) . . .
122(6) . . .
136(6) . . .
137(7) . . .
126(6) . . .
126(6) . . .
126(6) . . .
133(6) . . .
128(6) . . .
131(6) . . .
130(6) . . .
133(6) . . .
141(6) . . .
142(7) . . .
150(7) . . .
131(6) . . .
132(6) . . .
142(7) . . .
139(7) . . .
121(6) . . .
117(6) . . .
143(6) . . .
139(6) . . .
147(7) . . .
134(6) . . .
129(6) . . .
132(6) . . .
136(6) . . .
133(6) . . .
148(7) . . .
125(6) . . .
137(6) . . .
135(6) . . .
141(6) . . .
128(6) . . .
144(6) . . .
140(6) . . .
133(6) . . .
124(6) . . .
125(6) . . .
124(6) . . .
132(6) . . .
139(6) . . .
135(6) . . .
141(6) . . .
121(6) . . .
125(6) . . .
119(6) . . .
134(6) . . .
127(6) . . .
142(6) . . .
141(6) . . .
132(6) . . .
134(6) . . .
134(6) . . .
121(6) . . .
133(6) . . .
129(6) . . .
125(6) . . .
125(6) . . .
135(6) . . .
135(6) . . .
135(6) . . .
138(7) . . .
141(6) . . .
142(6) . . .
153(7) . . .
145(7) . . .
119(6) . . .
142(6) . . .
135(6) . . .
140(6) . . .
140(7) . . .
129(6) . . .
122(6) . . .
130(6) . . .
128(6) . . .
150(7) . . .
141(6) . . .
133(6) . . .
140(6) . . .
122(6) . . .
135(6) . . .
121(6) . . .
123(6) . . .
152(7) . . .
126(6) . . .
144(7) . . .
129(6) . . .
135(6) . . .
131(6) . . .
113(6) . . .
130(6) . . .
126(6) . . .
142(6) . . .
147(7) . . .
149(7) . . .
133(6) . . .
133(6) . . .
136(6) . . .
131(6) . . .
137(7) . . .
139(6) . . .
137(6) . . .
151(6) . . .
134(6) . . .
132(6) . . .
151(7) . . .
140(6) . . .
142(6) . . .
133(6) . . .
128(6) . . .
126(6) . . .
139(6) . . .
139(6) . . .
125(6) . . .
148(7) . . .
134(6) . . .
148(6) . . .
139(6) . . .
130(6) . . .
120(6) . . .
130(6) . . .
129(6) . . .
142(6) . . .
135(6) . . .
139(7) . . .
123(6) . . .
137(6) . . .
141(6) . . .
129(6) . . .
127(6) . . .
132(6) . . .
117(6) . . .
116(6) . . .
136(6) . . .
138(7) . . .
133(6) . . .
122(6) . . .
157(7) . . .
153(7) . . .
132(6) . . .
118(6) . . .
125(6) . . .
133(6) . . .
138(6) . . .
144(6) . . .
126(6) . . .
137(6) . . .
134(6) . . .
123(6) . . .
118(6) . . .
134(6) . . .
136(6) . . .
150(6) . . .
137(6) . . .
141(6) . . .
137(6) . . .
132(6) . . .
141(6) . . .
139(7) . . .
152(7) . . .
131(6) . . .
124(6) . . .
118(6) . . .
151(7) . . .
134(6) . . .
120(6) . . .
145(6) . . .
141(7) . . .
131(6) . . .
121(6) . . .
134(6) . . .
137(6) . . .
128(6) . . .
139(6) . . .
157(7) . . .
134(6) . . .
127(6) . . .
121(6) . . .
129(6) . . .
141(6) . . .
120(6) . . .
126(6) . . .
126(6) . . .
139(6) . . .
131(6) . . .
145(6) . . .
139(6) . . .
136(6) . . .
128(6) . . .
134(6) . . .
127(6) . . .
151(7) . . .
136(6) . . .
143(6) . . .
136(6) . . .
144(6) . . .
132(6) . . .
126(6) . . .
108(6) . . .
134(6) . . .
131(6) . . .
135(6) . . .
147(7) . . .
148(7) . . .
138(6) . . .
135(6) . . .
133(6) . . .
134(6) . . .
125(6) . . .
127(6) . . .
124(6) . . .
130(6) . . .
146(7) . . .
119(6) . . .
134(6) . . .
130(6) . . .
142(6) . . .
131(6) . . .
127(6) . . .
125(6) . . .
143(6) . . .
136(6) . . .
135(6) . . .
120(6) . . .
139(6) . . .
137(6) . . .
116(6) . . .
115(6) . . .
123(6) . . .
119(6) . . .
124(6) . . .
131(6) . . .
120(6) . . .
140(6) . . .
123(6) . . .
127(6) . . .
137(6) . . .
121(6) . . .
130(6) . . .
153(6) . . .
130(6) . . .
131(6) . . .
124(6) . . .
129(6) . . .
134(6) . . .
148(6) . . .
145(7) . . .
126(6) . . .
132(6) . . .
140(6) . . .
128(6) . . .
134(7) . . .
133(6) . . .
143(6) . . .
143(6) . . .
151(7) . . .
136(6) . . .
139(6) . . .
140(6) . . .
139(6) . . .
120(6) . . .
128(6) . . .
146(7) . . .
157(7) . . .
131(6) . . .
126(6) . . .
130(6) . . .
117(6) . . .
145(6) . . .
124(6) . . .
126(6) . . .
156(7) . . .
141(6) . . .
138(6) . . .
148(7) . . .
134(6) . . .
128(6) . . .
132(6) . . .
121(6) . . .
139(6) . . .
132(7) . . .
132(6) . . .
138(6) . . .
133(6) . . .
139(6) . . .
127(6) . . .
148(7) . . .
145(6) . . .
132(6) . . .
127(6) . . .
144(7) . . .
125(6) . . .
132(6) . . .
123(6) . . .
129(6) . . .
136(7) . . .
132(6) . . .
142(6) . . .
137(6) . . .
124(6) . . .
129(6) . . .
133(6) . . .
133(6) . . .
146(6) . . .
140(6) . . .
133(6) . . .
129(6) . . .
141(6) . . .
120(6) . . .
130(6) . . .
133(6) . . .
134(6) . . .
128(6) . . .
128(6) . . .
122(6) . . .
148(7) . . .
133(6) . . .
130(6) . . .
130(6) . . .
125(6) . . .
144(7) . . .
120(6) . . .
118(6) . . .
124(6) . . .
128(6) . . .
125(6) . . .
123(6) . . .
127(6) . . .
136(6) . . .
131(6) . . .
149(7) . . .
136(6) . . .
137(6) . . .
133(6) . . .
135(6) . . .
136(6) . . .
125(6) . . .
134(6) . . .
141(6) . . .
125(6) . . .
113(6) . . .
123(6) . . .
126(6) . . .
123(6) . . .
143(7) . . .
133(6) . . .
131(6) . . .
135(6) . . .
120(6) . . .
129(6) . . .
143(6) . . .
129(6) . . .
127(6) . . .
123(6) . . .
121(6) . . .
138(6) . . .
120(6) . . .
138(6) . . .
123(6) . . .
133(6) . . .
128(6) . . .
126(6) . . .
120(6) . . .
136(6) . . .
126(6) . . .
142(6) . . .
139(6) . . .
150(7) . . .
116(6) . . .
128(6) . . .
127(6) . . .
117(6) . . .
108(6) . . .
131(6) . . .
146(7) . . .
135(6) . . .
140(6) . . .
139(6) . . .
132(6) . . .
138(6) . . .
134(6) . . .
122(6) . . .
131(6) . . .
140(7) . . .
126(6) . . .
125(6) . . .
125(6) . . .
129(6) . . .
145(7) . . .
137(6) . . .
139(6) . . .
107(5) . . .
136(6) . . .
122(6) . . .
125(6) . . .
138(6) . . .
121(6) . . .
106(5) . . .
123(6) . . .
122(6) . . .
119(6) . . .
132(6) . . .
138(6) . . .
143(6) . . .
128(6) . . .
126(6) . . .
136(6) . . .
125(6) . . .
149(7) . . .
131(6) . . .
130(6) . . .
125(6) . . .
127(6) . . .
136(7) . . .
146(7) . . .
145(6) . . .
146(6) . . .
141(6) . . .
127(6) . . .
124(6) . . .
111(5) . . .
113(6) . . .
126(6) . . .
133(6) . . .
153(7) . . .
129(6) . . .
130(6) . . .
135(6) . . .
140(6) . . .
121(6) . . .
132(6) . . .
118(6) . . .
136(7) . . .
124(6) . . .
132(6) . . .
117(6) . . .
129(6) . . .
116(6) . . .
128(6) . . .
135(6) . . .
148(6) . . .
122(6) . . .
136(6) . . .
126(6) . . .
122(6) . . .
134(6) . . .
140(6) . . .
116(6) . . .
126(6) . . .
135(6) . . .
133(6) . . .
132(6) . . .
132(7) . . .
124(6) . . .
121(6) . . .
127(6) . . .
147(6) . . .
133(7) . . .
144(7) . . .
125(6) . . .
125(6) . . .
123(6) . . .
120(6) . . .
128(6) . . .
123(6) . . .
124(6) . . .
138(6) . . .
139(6) . . .
148(7) . . .
151(6) . . .
122(6) . . .
111(5) . . .
140(6) . . .
142(6) . . .
122(6) . . .
130(6) . . .
143(6) . . .
119(6) . . .
120(6) . . .
123(6) . . .
131(6) . . .
130(6) . . .
122(6) . . .
133(6) . . .
133(6) . . .
129(6) . . .
127(6) . . .
138(6) . . .
133(6) . . .
138(6) . . .
136(6) . . .
120(6) . . .
123(6) . . .
105(5) . . .
146(6) . . .
135(6) . . .
139(6) . . .
130(6) . . .
129(6) . . .
127(6) . . .
125(6) . . .
112(6) . . .
133(6) . . .
124(6) . . .
140(6) . . .
145(6) . . .
126(6) . . .
133(6) . . .
127(6) . . .
137(6) . . .
117(6) . . .
130(6) . . .
125(6) . . .
130(6) . . .
122(6) . . .
125(6) . . .
123(6) . . .
119(6) . . .
131(6) . . .
115(6) . . .
116(6) . . .
136(6) . . .
129(6) . . .
122(6) . . .
129(6) . . .
133(6) . . .
113(6) . . .
123(6) . . .
129(6) . . .
141(6) . . .
138(6) . . .
115(6) . . .
115(6) . . .
117(6) . . .
134(6) . . .
137(6) . . .
131(6) . . .
117(6) . . .
134(6) . . .
140(6) . . .
140(6) . . .
145(6) . . .
139(6) . . .
111(5) . . .
132(6) . . .
122(6) . . .
134(6) . . .
131(6) . . .
138(6) . . .
123(6) . . .
129(6) . . .
148(7) . . .
127(6) . . .
107(5) . . .
125(6) . . .
131(6) . . .
135(6) . . .
127(6) . . .
136(6) . . .
125(6) . . .
127(6) . . .
120(6) . . .
128(6) . . .
124(6) . . .
131(6) . . .
117(6) . . .
140(6) . . .
121(6) . . .
114(6) . . .
128(6) . . .
125(6) . . .
125(6) . . .
135(6) . . .
128(6) . . .
127(6) . . .
119(6) . . .
141(6) . . .
135(6) . . .
126(6) . . .
140(6) . . .
134(6) . . .
131(6) . . .
124(6) . . .
135(6) . . .
117(6) . . .
111(6) . . .
127(6) . . .
126(6) . . .
112(6) . . .
134(7) . . .
125(6) . . .
126(6) . . .
123(6) . . .
108(5) . . .
124(6) . . .
146(7) . . .
134(6) . . .
130(6) . . .
122(6) . . .
115(6) . . .
143(7) . . .
140(6) . . .
127(6) . . .
116(6) . . .
121(6) . . .
135(6) . . .
133(6) . . .
128(6) . . .
126(6) . . .
118(6) . . .
122(6) . . .
118(6) . . .
113(5) . . .
126(6) . . .
143(7) . . .
119(6) . . .
126(6) . . .
129(6) . . .
131(6) . . .
127(6) . . .
121(6) . . .
128(6) . . .
146(6) . . .
138(6) . . .
126(6) . . .
122(6) . . .
131(6) . . .
131(6) . . .
130(6) . . .
132(6) . . .
131(6) . . .
124(6) . . .
136(6) . . .
116(6) . . .
128(6) . . .
127(6) . . .
136(6) . . .
126(6) . . .
137(6) . . .
129(6) . . .
123(6) . . .
135(6) . . .
131(6) . . .
143(7) . . .
142(6) . . .
121(6) . . .
130(6) . . .
114(6) . . .
123(6) . . .
124(6) . . .
140(6) . . .
119(6) . . .
124(6) . . .
131(6) . . .
131(6) . . .
110(6) . . .
114(6) . . .
125(6) . . .
133(6) . . .
136(6) . . .
125(6) . . .
115(6) . . .
142(7) . . .
123(6) . . .
145(7) . . .
126(6) . . .
145(6) . . .
114(6) . . .
119(6) . . .
124(6) . . .
124(6) . . .
127(6) . . .
122(6) . . .
140(6) . . .
129(6) . . .
123(6) . . .
142(6) . . .
144(7) . . .
113(6) . . .
126(6) . . .
118(6) . . .
135(6) . . .
119(6) . . .
135(6) . . .
121(6) . . .
134(6) . . .
128(6) . . .
139(6) . . .
137(6) . . .
133(6) . . .
124(6) . . .
112(6) . . .
137(6) . . .
137(6) . . .
138(6) . . .
128(6) . . .
134(6) . . .
132(6) . . .
123(6) . . .
144(6) . . .
127(6) . . .
135(6) . . .
131(6) . . .
126(6) . . .
141(6) . . .
149(6) . . .
129(6) . . .
147(7) . . .
140(6) . . .
142(6) . . .
149(7) . . .
130(6) . . .
149(7) . . .
142(6) . . .
142(6) . . .
147(6) . . .
146(7) . . .
146(7) . . .
153(7) . . .
131(6) . . .
133(6) . . .
138(6) . . .
135(7) . . .
156(7) . . .
126(6) . . .
137(6) . . .
146(7) . . .
141(7) . . .
139(6) . . .
143(6) . . .
134(6) . . .
137(6) . . .
131(6) . . .
127(6) . . .
156(7) . . .
139(6) . . .
138(6) . . .
145(6) . . .
150(6) . . .
130(6) . . .
136(6) . . .
140(6) . . .
147(7) . . .
146(6) . . .
159(7) . . .
140(6) . . .
138(6) . . .
142(7) . . .
151(6) . . .
125(6) . . .
124(6) . . .
129(6) . . .
115(6) . . .
117(6) . . .
135(6) . . .
140(6) . . .
140(7) . . .
131(6) . . .
132(6) . . .
115(6) . . .
120(6) . . .
152(7) . . .
144(7) . . .
121(6) . . .
127(6) . . .
127(6) . . .
145(7) . . .
127(6) . . .
116(6) . . .
126(6) . . .
132(6) . . .
124(6) . . .
132(6) . . .
121(6) . . .
141(6) . . .
124(6) . . .
125(6) . . .
126(6) . . .
126(6) . . .
133(6) . . .
136(6) . . .
143(7) . . .
123(6) . . .
118(6) . . .
137(6) . . .
127(6) . . .
142(6) . . .
136(6) . . .
143(6) . . .
121(6) . . .
127(6) . . .
109(5) . . .
129(6) . . .
145(6) . . .
128(6) . . .
119(6) . . .
123(6) . . .
121(6) . . .
124(6) . . .
123(6) . . .
124(6) . . .
131(6) . . .
145(6) . . .
131(6) . . .
120(6) . . .
126(6) . . .
126(6) . . .
120(6) . . .
132(6) . . .
139(6) . . .
136(7) . . .
127(6) . . .
131(6) . . .
137(6) . . .
135(6) . . .
112(6) . . .
130(6) . . .
145(6) . . .
137(6) . . .
130(6) . . .
129(6) . . .
145(6) . . .
137(6) . . .
116(6) . . .
110(6) . . .
129(6) . . .
146(6) . . .
148(6) . . .
144(6) . . .
119(6) . . .
130(6) . . .
128(6) . . .
132(6) . . .
140(7) . . .
131(6) . . .
136(6) . . .
131(6) . . .
140(6) . . .
133(6) . . .
139(6) . . .
139(6) . . .
134(6) . . .
142(6) . . .
148(7) . . .
131(6) . . .
139(7) . . .
121(6) . . .
122(6) . . .
141(7) . . .
155(7) . . .
141(6) . . .
155(7) . . .
149(6) . . .
137(6) . . .
127(6) . . .
141(7) . . .
129(6) . . .
125(6) . . .
140(6) . . .
126(6) . . .
132(6) . . .
121(6) . . .
134(6) . . .
145(6) . . .
134(6) . . .
141(6) . . .
128(6) . . .
130(6) . . .
119(6) . . .
134(6) . . .
138(6) . . .
137(6) . . .
148(7) . . .
152(7) . . .
135(6) . . .
137(6) . . .
125(6) . . .
129(6) . . .
158(7) . . .
145(7) . . .
147(7) . . .
127(6) . . .
129(6) . . .
140(6) . . .
147(7) . . .
127(6) . . .
129(6) . . .
138(6) . . .
136(6) . . .
125(6) . . .
145(6) . . .
142(6) . . .
172(7) . . .
123(6) . . .
125(6) . . .
142(6) . . .
151(6) . . .
140(6) . . .
120(6) . . .
139(6) . . .
132(6) . . .
138(6) . . .
144(7) . . .
136(6) . . .
129(6) . . .
136(6) . . .
127(6) . . .
139(6) . . .
135(6) . . .
131(6) . . .
136(6) . . .
112(6) . . .
135(6) . . .
141(7) . . .
134(6) . . .
153(6) . . .
131(6) . . .
128(6) . . .
102(5) . . .
126(6) . . .
134(6) . . .
117(6) . . .
142(6) . . .
139(7) . . .
124(6) . . .
114(6) . . .
115(6) . . .
124(6) . . .
132(6) . . .
144(6) . . .
131(6) . . .
146(6) . . .
143(7) . . .
121(6) . . .
123(6) . . .
116(6) . . .
146(7) . . .
127(6) . . .
130(6) . . .
122(6) . . .
116(6) . . .
136(6) . . .
114(6) . . .
120(6) . . .
128(6) . . .
122(6) . . .
127(6) . . .
140(6) . . .
146(7) . . .
141(6) . . .
131(6) . . .
115(6) . . .
121(6) . . .
141(6) . . .
128(6) . . .
119(6) . . .
135(6) . . .
141(7) . . .
145(6) . . .
137(6) . . .
141(6) . . .
116(6) . . .
132(7) . . .
120(6) . . .
131(6) . . .
135(6) . . .
134(6) . . .
122(6) . . .
117(6) . . .
142(6) . . .
126(6) . . .
115(6) . . .
117(6) . . .
140(6) . . .
148(6) . . .
130(6) . . .
135(6) . . .
146(7) . . .
134(6) . . .
144(6) . . .
134(6) . . .
131(6) . . .
143(7) . . .
136(6) . . .
131(6) . . .
139(6) . . .
135(6) . . .
125(6) . . .
135(6) . . .
116(6) . . .
120(6) . . .
125(6) . . .
128(6) . . .
128(6) . . .
135(6) . . .
130(6) . . .
128(6) . . .
144(6) . . .
122(6) . . .
125(6) . . .
115(6) . . .
113(6) . . .
134(6) . . .
149(6) . . .
129(6) . . .
114(6) . . .
136(6) . . .
124(6) . . .
134(6) . . .
141(6) . . .
135(6) . . .
129(6) . . .
133(6) . . .
130(6) . . .
114(6) . . .
136(6) . . .
126(6) . . .
125(6) . . .
139(6) . . .
129(6) . . .
142(6) . . .
137(6) . . .
133(6) . . .
115(6) . . .
122(6) . . .
113(6) . . .
138(6) . . .
123(6) . . .
136(6) . . .
130(6) . . .
133(6) . . .
123(6) . . .
131(6) . . .
130(6) . . .
124(6) . . .
118(6) . . .
137(6) . . .
134(6) . . .
136(6) . . .
143(6) . . .
138(6) . . .
133(6) . . .
121(6) . . .
138(6) . . .
143(6) . . .
133(6) . . .
153(7) . . .
138(6) . . .
136(6) . . .
134(6) . . .
114(6) . . .
120(6) . . .
128(6) . . .
127(6) . . .
113(6) . . .
125(6) . . .
147(7) . . .
132(6) . . .
158(6) . . .
141(6) . . .
124(6) . . .
108(6) . . .
138(6) . . .
138(6) . . .
133(6) . . .
111(6) . . .
120(6) . . .
148(6) . . .
118(6) . . .
128(6) . . .
129(6) . . .
133(6) . . .
126(6) . . .
135(6) . . .
137(6) . . .
134(6) . . .
123(6) . . .
127(6) . . .
121(6) . . .
119(6) . . .
133(6) . . .
123(6) . . .
140(6) . . .
117(6) . . .
125(6) . . .
145(7) . . .
140(6) . . .
131(6) . . .
121(6) . . .
128(6) . . .
135(6) . . .
128(6) . . .
122(6) . . .
149(7) . . .
136(6) . . .
128(6) . . .
129(6) . . .
120(6) . . .
134(6) . . .
131(6) . . .
150(7) . . .
124(6) . . .
120(6) . . .
135(6) . . .
114(6) . . .
131(6) . . .
123(6) . . .
131(6) . . .
122(6) . . .
126(6) . . .
133(6) . . .
140(6) . . .
130(6) . . .
119(6) . . .
131(7) . . .
142(6) . . .
138(6) . . .
130(6) . . .
133(6) . . .
134(6) . . .
127(6) . . .
116(6) . . .
115(6) . . .
137(6) . . .
117(6) . . .
115(6) . . .
124(6) . . .
117(6) . . .
131(6) . . .
138(6) . . .
121(6) . . .
125(6) . . .
133(6) . . .
138(6) . . .
128(6) . . .
133(6) . . .
122(6) . . .
115(6) . . .
125(6) . . .
114(6) . . .
130(6) . . .
139(6) . . .
137(7) . . .
133(6) . . .
137(6) . . .
144(6) . . .
146(6) . . .
155(7) . . .
137(6) . . .
127(6) . . .
135(6) . . .
117(6) . . .
123(6) . . .
118(6) . . .
116(6) . . .
119(6) . . .
134(6) . . .
123(6) . . .
117(6) . . .
127(6) . . .
132(6) . . .
116(6) . . .
122(6) . . .
145(7) . . .
148(7) . . .
125(6) . . .
111(5) . . .
138(6) . . .
124(6) . . .
129(6) . . .
128(6) . . .
127(6) . . .
130(6) . . .
124(6) . . .
129(6) . . .
127(6) . . .
130(6) . . .
128(6) . . .
136(6) . . .
138(6) . . .
125(6) . . .
111(5) . . .
140(7) . . .
114(6) . . .
124(6) . . .
132(6) . . .
133(6) . . .
115(6) . . .
121(6) . . .
152(7) . . .
124(6) . . .
129(6) . . .
148(7) . . .
130(6) . . .
136(6) . . .
130(6) . . .
131(6) . . .
132(6) . . .
124(6) . . .
156(6) . . .
140(6) . . .
137(6) . . .
136(6) . . .
133(6) . . .
146(6) . . .
120(6) . . .
130(6) . . .
125(6) . . .
125(6) . . .
140(6) . . .
119(6) . . .
141(6) . . .
129(6) . . .
121(6) . . .
122(6) . . .
146(7) . . .
131(6) . . .
124(6) . . .
135(6) . . .
142(6) . . .
120(6) . . .
117(6) . . .
129(6) . . .
147(6) . . .
155(6) . . .
145(6) . . .
113(6) . . .
129(6) . . .
129(6) . . .
128(6) . . .
132(6) . . .
127(6) . . .
119(6) . . .
132(6) . . .
139(6) . . .
140(6) . . .
140(6) . . .
125(6) . . .
129(6) . . .
132(6) . . .
129(6) . . .
129(6) . . .
135(6) . . .
132(6) . . .
135(6) . . .
121(6) . . .
115(6) . . .
132(6) . . .
136(6) . . .
128(6) . . .
117(6) . . .
116(6) . . .
132(6) . . .
125(6) . . .
113(5) . . .
131(6) . . .
127(6) . . .
123(6) . . .
139(6) . . .
125(6) . . .
123(6) . . .
135(6) . . .
117(6) . . .
123(6) . . .
117(6) . . .
131(6) . . .
114(5) . . .
123(6) . . .
115(6) . . .
133(6) . . .
131(6) . . .
118(6) . . .
125(6) . . .
114(6) . . .
113(6) . . .
116(6) . . .
128(6) . . .
123(6) . . .
114(6) . . .
122(6) . . .
124(6) . . .
116(6) . . .
121(6) . . .
114(6) . . .
106(5) . . .
117(6) . . .
124(6) . . .
122(6) . . .
130(6) . . .
101(5) . . .
135(6) . . .
128(6) . . .
119(6) . . .
117(6) . . .
114(6) . . .
120(6) . . .
111(6) . . .
122(6) . . .
130(6) . . .
111(5) . . .
123(6) . . .
122(6) . . .
100(6) . . .
112(6) . . .
125(6) . . .
132(6) . . .
128(6) . . .
111(6) . . .
112(6) . . .
133(6) . . .
124(6) . . .
113(6) . . .
107(6) . . .
118(6) . . .
121(6) . . .
130(6) . . .
131(6) . . .
122(6) . . .
114(6) . . .
115(6) . . .
113(6) . . .
117(6) . . .
103(5) . . .
129(7) . . .
119(6) . . .
129(6) . . .
135(6) . . .
126(6) . . .
110(6) . . .
125(6) . . .
127(6) . . .
103(5) . . .
130(6) . . .
123(6) . . .
110(5) . . .
122(6) . . .
125(6) . . .
128(6) . . .
111(6) . . .
115(6) . . .
128(6) . . .
140(7) . . .
119(6) . . .
126(6) . . .
132(6) . . .
128(6) . . .
113(6) . . .
132(6) . . .
126(6) . . .
112(5) . . .
115(6) . . .
116(6) . . .
115(6) . . .
116(6) . . .
135(6) . . .
118(6) . . .
121(6) . . .
137(6) . . .
126(6) . . .
116(6) . . .
111(6) . . .
120(6) . . .
123(6) . . .
126(6) . . .
107(5) . . .
135(6) . . .
122(6) . . .
115(6) . . .
133(6) . . .
114(6) . . .
125(6) . . .
121(6) . . .
124(6) . . .
132(6) . . .
133(6) . . .
124(6) . . .
121(6) . . .
131(6) . . .
123(6) . . .
117(6) . . .
118(6) . . .
124(6) . . .
120(6) . . .
127(6) . . .
134(6) . . .
130(6) . . .
117(6) . . .
121(6) . . .
123(6) . . .
116(6) . . .
118(6) . . .
128(6) . . .
123(6) . . .
134(6) . . .
117(6) . . .
131(6) . . .
128(6) . . .
116(6) . . .
124(6) . . .
127(6) . . .
124(6) . . .
120(6) . . .
121(6) . . .
133(6) . . .
115(6) . . .
136(6) . . .
119(6) . . .
113(6) . . .
112(5) . . .
118(6) . . .
119(6) . . .
103(5) . . .
104(5) . . .
119(6) . . .
110(6) . . .
131(7) . . .
111(6) . . .
130(6) . . .
130(6) . . .
132(6) . . .
126(6) . . .
116(6) . . .
126(6) . . .
111(6) . . .
116(6) . . .
123(6) . . .
119(6) . . .
107(5) . . .
116(6) . . .
113(6) . . .
126(6) . . .
106(6) . . .
113(6) . . .
115(6) . . .
123(6) . . .
118(6) . . .
116(6) . . .
119(6) . . .
123(6) . . .
113(6) . . .
128(6) . . .
124(6) . . .
121(6) . . .
128(6) . . .
133(6) . . .
128(6) . . .
124(6) . . .
128(6) . . .
120(6) . . .
137(6) . . .
138(6) . . .
120(6) . . .
117(6) . . .
115(6) . . .
111(6) . . .
97(5) . . .
113(6) . . .
105(5) . . .
123(6) . . .
119(6) . . .
121(6) . . .
128(6) . . .
134(6) . . .
123(6) . . .
130(7) . . .
128(6) . . .
133(6) . . .
109(5) . . .
115(6) . . .
115(6) . . .
120(6) . . .
130(6) . . .
119(6) . . .
105(6) . . .
125(6) . . .
131(6) . . .
120(6) . . .
114(6) . . .
138(6) . . .
122(6) . . .
117(6) . . .
123(6) . . .
126(6) . . .
124(6) . . .
128(6) . . .
117(6) . . .
118(6) . . .
117(6) . . .
127(6) . . .
113(6) . . .
130(6) . . .
111(5) . . .
130(6) . . .
136(6) . . .
123(6) . . .
125(6) . . .
123(6) . . .
112(6) . . .
120(6) . . .
117(6) . . .
116(6) . . .
113(6) . . .
115(6) . . .
123(6) . . .
117(6) . . .
119(6) . . .
139(6) . . .
131(6) . . .
121(6) . . .
129(6) . . .
136(6) . . .
113(6) . . .
124(6) . . .
121(6) . . .
137(6) . . .
120(6) . . .
110(5) . . .
132(6) . . .
121(6) . . .
108(6) . . .
112(6) . . .
109(6) . . .
115(6) . . .
134(7) . . .
128(6) . . .
117(6) . . .
122(6) . . .
126(6) . . .
119(6) . . .
108(5) . . .
123(6) . . .
133(6) . . .
125(6) . . .
115(6) . . .
115(6) . . .
105(5) . . .
124(6) . . .
128(6) . . .
127(6) . . .
122(6) . . .
133(6) . . .
128(6) . . .
127(6) . . .
135(6) . . .
118(6) . . .
121(6) . . .
124(6) . . .
109(6) . . .
116(6) . . .
117(6) . . .
142(6) . . .
120(6) . . .
122(6) . . .
122(6) . . .
124(6) . . .
121(6) . . .
117(6) . . .
118(6) . . .
132(6) . . .
132(6) . . .
135(6) . . .
112(6) . . .
136(7) . . .
117(6) . . .
132(6) . . .
116(6) . . .
113(6) . . .
122(6) . . .
123(6) . . .
118(6) . . .
119(6) . . .
114(6) . . .
120(6) . . .
123(6) . . .
125(6) . . .
123(6) . . .
112(6) . . .
125(6) . . .
127(6) . . .
119(6) . . .
118(6) . . .
126(6) . . .
112(6) . . .
98(5) . . .
113(6) . . .
128(6) . . .
133(6) . . .
134(6) . . .
139(6) . . .
118(6) . . .
120(6) . . .
113(6) . . .
114(6) . . .
113(6) . . .
124(6) . . .
129(6) . . .
129(6) . . .
140(6) . . .
116(6) . . .
103(5) . . .
119(6) . . .
121(6) . . .
124(6) . . .
116(6) . . .
113(5) . . .
112(6) . . .
126(6) . . .
112(6) . . .
127(6) . . .
135(6) . . .
131(6) . . .
129(6) . . .
131(6) . . .
124(6) . . .
117(6) . . .
110(5) . . .
111(6) . . .
124(6) . . .
110(5) . . .
135(6) . . .
125(6) . . .
115(6) . . .
116(6) . . .
132(6) . . .
124(6) . . .
119(6) . . .
131(7) . . .
128(6) . . .
121(6) . . .
121(6) . . .
128(6) . . .
122(6) . . .
121(6) . . .
122(6) . . .
144(6) . . .
133(6) . . .
128(6) . . .
116(6) . . .
114(6) . . .
126(6) . . .
117(6) . . .
116(6) . . .
117(6) . . .
124(6) . . .
130(6) . . .
124(6) . . .
109(6) . . .
122(6) . . .
135(6) . . .
129(6) . . .
110(6) . . .
120(6) . . .
139(6) . . .
130(6) . . .
125(6) . . .
110(6) . . .
116(6) . . .
125(6) . . .
120(6) . . .
101(5) . . .
126(6) . . .
136(6) . . .
129(6) . . .
147(6) . . .
127(6) . . .
132(6) . . .
127(6) . . .
111(5) . . .
116(6) . . .
113(6) . . .
121(6) . . .
116(6) . . .
113(5) . . .
111(6) . . .
126(6) . . .
128(6) . . .
121(6) . . .
134(6) . . .
126(6) . . .
131(6) . . .
118(6) . . .
127(6) . . .
126(6) . . .
116(6) . . .
128(6) . . .
112(6) . . .
107(5) . . .
123(6) . . .
127(6) . . .
107(5) . . .
120(6) . . .
130(6) . . .
129(6) . . .
127(6) . . .
126(6) . . .
121(6) . . .
133(6) . . .
130(6) . . .
102(5) . . .
119(6) . . .
121(6) . . .
111(6) . . .
112(6) . . .
123(6) . . .
120(6) . . .
119(6) . . .
131(6) . . .
121(6) . . .
138(6) . . .
139(7) . . .
127(6) . . .
128(6) . . .
107(5) . . .
124(6) . . .
116(6) . . .
127(6) . . .
135(6) . . .
110(5) . . .
123(6) . . .
122(6) . . .
118(6) . . .
113(6) . . .
111(5) . . .
118(6) . . .
117(6) . . .
116(6) . . .
139(6) . . .
132(6) . . .
138(6) . . .
106(5) . . .
125(6) . . .
120(6) . . .
112(6) . . .
124(6) . . .
111(6) . . .
115(6) . . .
115(6) . . .
121(6) . . .
130(6) . . .
123(6) . . .
138(6) . . .
124(6) . . .
120(6) . . .
120(6) . . .
123(6) . . .
117(6) . . .
120(6) . . .
133(6) . . .
122(6) . . .
142(7) . . .
119(6) . . .
127(6) . . .
122(6) . . .
121(6) . . .
122(6) . . .
104(5) . . .
114(6) . . .
129(6) . . .
113(6) . . .
121(6) . . .
114(6) . . .
127(6) . . .
148(6) . . .
117(6) . . .
117(6) . . .
119(6) . . .
131(6) . . .
118(6) . . .
109(6) . . .
121(6) . . .
128(6) . . .
124(6) . . .
114(6) . . .
126(6) . . .
118(6) . . .
119(6) . . .
126(6) . . .
109(6) . . .
119(6) . . .
119(6) . . .
107(5) . . .
118(6) . . .
123(6) . . .
123(6) . . .
106(5) . . .
111(5) . . .
124(6) . . .
116(6) . . .
130(6) . . .
136(6) . . .
131(6) . . .
127(6) . . .
120(6) . . .
134(6) . . .
120(6) . . .
110(5) . . .
113(6) . . .
113(6) . . .
110(6) . . .
124(6) . . .
134(6) . . .
123(6) . . .
133(6) . . .
127(6) . . .
119(6) . . .
141(6) . . .
133(6) . . .
128(6) . . .
118(6) . . .
115(6) . . .
113(6) . . .
114(6) . . .
109(6) . . .
121(6) . . .
134(6) . . .
134(6) . . .
116(6) . . .
119(6) . . .
133(6) . . .
123(6) . . .
130(6) . . .
128(6) . . .
125(6) . . .
128(6) . . .
125(6) . . .
124(6) . . .
127(6) . . .
129(6) . . .
121(6) . . .
111(5) . . .
111(6) . . .
117(6) . . .
110(6) . . .
135(6) . . .
116(6) . . .
124(6) . . .
131(6) . . .
121(6) . . .
135(6) . . .
115(6) . . .
123(6) . . .
127(6) . . .
128(6) . . .
141(6) . . .
135(6) . . .
129(6) . . .
117(6) . . .
133(6) . . .
100(5) . . .
115(6) . . .
123(6) . . .
105(6) . . .
123(6) . . .
126(6) . . .
129(6) . . .
117(6) . . .
118(6) . . .
127(6) . . .
132(6) . . .
118(6) . . .
129(6) . . .
110(6) . . .
124(6) . . .
134(6) . . .
133(6) . . .
116(6) . . .
127(6) . . .
124(6) . . .
117(6) . . .
120(6) . . .
135(6) . . .
119(6) . . .
105(5) . . .
112(6) . . .
108(5) . . .
126(6) . . .
117(6) . . .
123(6) . . .
130(6) . . .
118(6) . . .
112(6) . . .
129(6) . . .
116(6) . . .
121(6) . . .
134(6) . . .
131(6) . . .
119(6) . . .
113(6) . . .
119(6) . . .
126(6) . . .
135(6) . . .
108(5) . . .
127(6) . . .
124(6) . . .
115(6) . . .
124(6) . . .
132(6) . . .
111(6) . . .
127(6) . . .
110(6) . . .
128(6) . . .
148(7) . . .
132(6) . . .
136(6) . . .
126(6) . . .
117(6) . . .
112(6) . . .
105(5) . . .
113(5) . . .
131(6) . . .
106(6) . . .
123(6) . . .
120(6) . . .
126(6) . . .
121(6) . . .
144(7) . . .
120(6) . . .
120(6) . . .
122(6) . . .
124(6) . . .
127(6) . . .
120(6) . . .
147(6) . . .
107(5) . . .
125(6) . . .
123(6) . . .
124(6) . . .
138(6) . . .
145(6) . . .
121(6) . . .
125(6) . . .
122(6) . . .
125(6) . . .
129(6) . . .
116(6) . . .
106(6) . . .
136(6) . . .
125(6) . . .
114(6) . . .
120(6) . . .
133(6) . . .
107(5) . . .
117(6) . . .
120(6) . . .
119(6) . . .
117(6) . . .
109(5) . . .
119(6) . . .
124(6) . . .
123(6) . . .
124(6) . . .
112(6) . . .
130(6) . . .
129(6) . . .
129(6) . . .
130(6) . . .
137(6) . . .
125(6) . . .
115(6) . . .
118(6) . . .
127(6) . . .
122(6) . . .
114(6) . . .
133(6) . . .
107(5) . . .
119(6) . . .
129(6) . . .
128(6) . . .
132(6) . . .
123(6) . . .
100(5) . . .
126(6) . . .
130(6) . . .
130(6) . . .
123(6) . . .
128(6) . . .
117(6) . . .
134(6) . . .
127(6) . . .
143(7) . . .
135(6) . . .
120(6) . . .
128(6) . . .
139(6) . . .
136(6) . . .
116(6) . . .
128(6) . . .
123(6) . . .
135(6) . . .
134(6) . . .
135(6) . . .
145(6) . . .
125(6) . . .
147(7) . . .
145(6) . . .
128(6) . . .
140(6) . . .
136(6) . . .
133(6) . . .
124(6) . . .
118(6) . . .
136(6) . . .
118(6) . . .
137(6) . . .
138(6) . . .
134(6) . . .
138(6) . . .
125(6) . . .
137(7) . . .
131(6) . . .
132(6) . . .
129(6) . . .
135(6) . . .
130(6) . . .
126(6) . . .
121(6) . . .
122(6) . . .
108(6) . . .
130(7) . . .
119(6) . . .
117(6) . . .
117(6) . . .
133(6) . . .
124(6) . . .
127(6) . . .
126(6) . . .
124(6) . . .
132(6) . . .
148(7) . . .
130(6) . . .
123(6) . . .
125(6) . . .
121(6) . . .
127(6) . . .
123(6) . . .
117(6) . . .
121(6) . . .
126(6) . . .
128(6) . . .
135(6) . . .
146(6) . . .
137(6) . . .
129(6) . . .
137(6) . . .
137(6) . . .
118(6) . . .
133(6) . . .
127(6) . . .
121(6) . . .
125(6) . . .
130(6) . . .
116(6) . . .
125(6) . . .
137(6) . . .
121(6) . . .
127(6) . . .
132(6) . . .
130(6) . . .
123(6) . . .
135(6) . . .
128(6) . . .
133(6) . . .
125(6) . . .
144(6) . . .
136(6) . . .
123(6) . . .
131(6) . . .
125(6) . . .
106(5) . . .
122(6) . . .
132(6) . . .
129(6) . . .
128(6) . . .
118(6) . . .
135(6) . . .
117(6) . . .
110(6) . . .
127(6) . . .
130(6) . . .
124(6) . . .
126(6) . . .
122(6) . . .
122(6) . . .
139(6) . . .
123(6) . . .
131(6) . . .
128(6) . . .
140(6) . . .
130(6) . . .
139(6) . . .
120(6) . . .
111(6) . . .
116(6) . . .
121(6) . . .
129(6) . . .
129(6) . . .
136(6) . . .
127(6) . . .
133(6) . . .
127(6) . . .
118(6) . . .
124(6) . . .
130(6) . . .
123(6) . . .
124(6) . . .
117(6) . . .
134(7) . . .
132(6) . . .
131(6) . . .
132(6) . . .
122(6) . . .
133(6) . . .
128(6) . . .
134(6) . . .
126(6) . . .
129(6) . . .
130(6) . . .
119(6) . . .
129(6) . . .
147(6) . . .
136(6) . . .
129(6) . . .
106(5) . . .
127(6) . . .
132(6) . . .
128(6) . . .
130(6) . . .
128(6) . . .
131(6) . . .
129(6) . . .
126(6) . . .
116(6) . . .
121(6) . . .
125(6) . . .
123(6) . . .
114(6) . . .
131(6) . . .
123(6) . . .
119(6) . . .
126(6) . . .
121(6) . . .
135(6) . . .
123(6) . . .
123(6) . . .
118(6) . . .
127(6) . . .
144(7) . . .
130(6) . . .
123(6) . . .
125(6) . . .
126(6) . . .
122(6) . . .
117(6) . . .
130(6) . . .
130(6) . . .
140(6) . . .
126(6) . . .
131(6) . . .
128(6) . . .
123(6) . . .
132(6) . . .
129(6) . . .
130(6) . . .
120(6) . . .
140(6) . . .
144(7) . . .
136(6) . . .
119(6) . . .
135(6) . . .
129(6) . . .
128(6) . . .
135(6) . . .
117(6) . . .
118(6) . . .
128(6) . . .
131(6) . . .
108(6) . . .
124(6) . . .
137(6) . . .
133(6) . . .
134(6) . . .
124(6) . . .
115(6) . . .
129(6) . . .
122(6) . . .
121(6) . . .
123(6) . . .
134(6) . . .
134(6) . . .
120(6) . . .
124(6) . . .
132(6) . . .
122(6) . . .
124(6) . . .
122(6) . . .
129(6) . . .
134(6) . . .
128(6) . . .
150(7) . . .
121(6) . . .
140(7) . . .
117(6) . . .
114(5) . . .
128(6) . . .
124(6) . . .
114(6) . . .
123(6) . . .
130(6) . . .
127(6) . . .
123(6) . . .
115(6) . . .
144(6) . . .
117(6) . . .
114(6) . . .
127(6) . . .
147(7) . . .
127(6) . . .
120(6) . . .
113(6) . . .
116(6) . . .
124(6) . . .
117(6) . . .
119(6) . . .
134(6) . . .
133(6) . . .
128(6) . . .
121(6) . . .
127(6) . . .
122(6) . . .
127(6) . . .
116(6) . . .
120(6) . . .
136(6) . . .
115(6) . . .
124(6) . . .
126(6) . . .
133(6) . . .
116(6) . . .
134(6) . . .
141(7) . . .
111(6) . . .
122(6) . . .
131(6) . . .
118(6) . . .
121(6) . . .
123(6) . . .
118(6) . . .
121(6) . . .
124(6) . . .
116(6) . . .
128(6) . . .
128(6) . . .
139(6) . . .
129(6) . . .
120(6) . . .
122(6) . . .
119(6) . . .
137(6) . . .
132(6) . . .
125(6) . . .
117(6) . . .
125(6) . . .
117(6) . . .
132(6) . . .
131(6) . . .
131(6) . . .
121(6) . . .
116(6) . . .
121(6) . . .
125(6) . . .
123(6) . . .
129(6) . . .
130(6) . . .
122(6) . . .
129(6) . . .
113(6) . . .
121(6) . . .
136(6) . . .
122(6) . . .
132(6) . . .
131(6) . . .
125(6) . . .
123(6) . . .
127(6) . . .
130(6) . . .
139(6) . . .
124(6) . . .
122(6) . . .
124(6) . . .
137(6) . . .
130(6) . . .
116(6) . . .
123(6) . . .
132(6) . . .
126(6) . . .
132(6) . . .
134(6) . . .
124(6) . . .
130(6) . . .
129(6) . . .
132(6) . . .
126(6) . . .
133(6) . . .
104(5) . . .
121(6) . . .
126(6) . . .
107(5) . . .
119(6) . . .
120(6) . . .
127(6) . . .
129(6) . . .
128(6) . . .
132(6) . . .
138(6) . . .
128(6) . . .
142(6) . . .
131(6) . . .
132(6) . . .
133(6) . . .
122(6) . . .
128(6) . . .
136(6) . . .
135(6) . . .
128(6) . . .
128(6) . . .
133(6) . . .
121(6) . . .
131(6) . . .
124(6) . . .
115(6) . . .
124(6) . . .
113(6) . . .
114(6) . . .
117(6) . . .
129(6) . . .
135(6) . . .
135(6) . . .
119(6) . . .
116(6) . . .
123(6) . . .
130(6) . . .
134(6) . . .
132(6) . . .
127(6) . . .
143(6) . . .
113(6) . . .
119(6) . . .
129(6) . . .
122(6) . . .
118(6) . . .
120(6) . . .
113(6) . . .
110(6) . . .
111(5) . . .
128(6) . . .
111(6) . . .
129(6) . . .
119(6) . . .
118(6) . . .
132(6) . . .
132(6) . . .
122(6) . . .
117(6) . . .
131(6) . . .
118(6) . . .
115(6) . . .
128(6) . . .
130(6) . . .
125(6) . . .
118(6) . . .
110(6) . . .
124(6) . . .
119(6) . . .
129(6) . . .
117(6) . . .
129(6) . . .
109(6) . . .
129(6) . . .
126(6) . . .
136(6) . . .
117(6) . . .
122(6) . . .
132(6) . . .
145(6) . . .
110(5) . . .
127(6) . . .
121(6) . . .
140(6) . . .
129(6) . . .
133(6) . . .
118(6) . . .
126(6) . . .
132(6) . . .
136(6) . . .
125(6) . . .
128(6) . . .
123(6) . . .
130(6) . . .
132(6) . . .
128(6) . . .
128(6) . . .
123(6) . . .
124(6) . . .
124(6) . . .
143(6) . . .
121(6) . . .
149(7) . . .
123(6) . . .
123(6) . . .
106(5) . . .
130(6) . . .
119(6) . . .
94(5) . . .
121(6) . . .
127(6) . . .
129(7) . . .
113(6) . . .
132(6) . . .
125(6) . . .
129(6) . . .
139(7) . . .
114(6) . . .
128(6) . . .
136(6) . . .
129(6) . . .
133(6) . . .
113(6) . . .
117(6) . . .
134(6) . . .
131(6) . . .
124(6) . . .
132(6) . . .
129(6) . . .
118(6) . . .
136(6) . . .
122(6) . . .
128(6) . . .
115(6) . . .
112(6) . . .
129(6) . . .
115(6) . . .
142(6) . . .
149(6) . . .
134(6) . . .
124(6) . . .
119(6) . . .
119(6) . . .
133(6) . . .
122(6) . . .
129(6) . . .
120(6) . . .
122(6) . . .
137(6) . . .
134(6) . . .
111(6) . . .
134(6) . . .
117(6) . . .
120(6) . . .
120(6) . . .
134(6) . . .
127(6) . . .
129(6) . . .
135(6) . . .
110(6) . . .
104(6) . . .
102(5) . . .
134(6) . . .
122(6) . . .
121(6) . . .
128(6) . . .
121(6) . . .
139(6) . . .
118(6) . . .
126(6) . . .
135(6) . . .
135(6) . . .
124(6) . . .
127(6) . . .
129(6) . . .
130(6) . . .
132(6) . . .
137(6) . . .
138(6) . . .
129(6) . . .
117(6) . . .
127(6) . . .
126(6) . . .
125(6) . . .
110(6) . . .
130(6) . . .
120(6) . . .
133(6) . . .
130(6) . . .
136(6) . . .
111(6) . . .
118(6) . . .
122(6) . . .
115(6) . . .
138(6) . . .
119(6) . . .
137(6) . . .
112(6) . . .
123(6) . . .
131(6) . . .
125(6) . . .
124(6) . . .
107(5) . . .
107(5) . . .
120(6) . . .
123(6) . . .
132(6) . . .
115(6) . . .
125(6) . . .
135(7) . . .
131(6) . . .
134(6) . . .
114(6) . . .
134(6) . . .
135(7) . . .
110(6) . . .
123(6) . . .
117(6) . . .
130(6) . . .
132(6) . . .
124(6) . . .
127(6) . . .
124(6) . . .
133(6) . . .
126(6) . . .
133(6) . . .
126(6) . . .
119(6) . . .
121(6) . . .
121(6) . . .
118(6) . . .
120(6) . . .
131(6) . . .
129(6) . . .
136(6) . . .
122(6) . . .
121(6) . . .
125(6) . . .
119(6) . . .
117(6) . . .
126(6) . . .
126(6) . . .
128(6) . . .
133(6) . . .
150(7) . . .
135(6) . . .
105(5) . . .
121(6) . . .
112(6) . . .
123(6) . . .
128(6) . . .
129(6) . . .
129(6) . . .
123(6) . . .
131(6) . . .
132(6) . . .
141(6) . . .
126(6) . . .
140(7) . . .
134(6) . . .
131(6) . . .
110(6) . . .
109(6) . . .
107(6) . . .
105(5) . . .
115(6) . . .
122(6) . . .
140(6) . . .
131(6) . . .
139(6) . . .
137(6) . . .
110(5) . . .
138(6) . . .
129(6) . . .
136(6) . . .
123(6) . . .
131(6) . . .
121(6) . . .
122(6) . . .
129(6) . . .
141(6) . . .
128(6) . . .
135(6) . . .
129(6) . . .
114(6) . . .
141(6) . . .
111(6) . . .
125(6) . . .
125(6) . . .
128(6) . . .
121(6) . . .
127(6) . . .
120(6) . . .
134(6) . . .
111(6) . . .
124(6) . . .
126(6) . . .
127(6) . . .
111(6) . . .
123(6) . . .
135(6) . . .
136(6) . . .
120(6) . . .
123(6) . . .
123(6) . . .
124(6) . . .
117(6) . . .
122(6) . . .
123(6) . . .
127(6) . . .
132(6) . . .
128(6) . . .
126(6) . . .
135(6) . . .
113(5) . . .
125(6) . . .
136(6) . . .
114(6) . . .
119(6) . . .
109(5) . . .
126(6) . . .
98(5) . . .
122(6) . . .
122(6) . . .
127(6) . . .
126(6) . . .
124(6) . . .
126(6) . . .
127(6) . . .
124(6) . . .
111(5) . . .
133(6) . . .
130(6) . . .
123(6) . . .
121(6) . . .
111(6) . . .
117(6) . . .
124(6) . . .
130(6) . . .
127(6) . . .
116(6) . . .
140(7) . . .
126(6) . . .
127(6) . . .
117(6) . . .
126(6) . . .
131(6) . . .
118(6) . . .
120(6) . . .
126(6) . . .
119(6) . . .
116(6) . . .
124(6) . . .
110(6) . . .
125(6) . . .
116(6) . . .
135(6) . . .
126(6) . . .
114(6) . . .
126(6) . . .
116(6) . . .
132(6) . . .
127(6) . . .
107(5) . . .
144(6) . . .
118(6) . . .
111(6) . . .
123(6) . . .
127(6) . . .
101(5) . . .
116(6) . . .
131(7) . . .
150(7) . . .
130(6) . . .
114(6) . . .
109(6) . . .
135(6) . . .
131(6) . . .
129(6) . . .
130(6) . . .
126(6) . . .
126(6) . . .
138(6) . . .
118(6) . . .
125(6) . . .
118(6) . . .
121(6) . . .
115(6) . . .
127(6) . . .
154(7) . . .
128(6) . . .
131(6) . . .
131(6) . . .
134(6) . . .
126(6) . . .
118(6) . . .
126(6) . . .
118(6) . . .
122(6) . . .
124(6) . . .
122(6) . . .
120(6) . . .
129(6) . . .
118(6) . . .
121(6) . . .
118(6) . . .
128(6) . . .
132(6) . . .
109(5) . . .
119(6) . . .
135(6) . . .
133(6) . . .
126(6) . . .
130(6) . . .
127(6) . . .
111(6) . . .
126(6) . . .
135(6) . . .
141(6) . . .
120(6) . . .
123(6) . . .
118(6) . . .
107(5) . . .
112(5) . . .
121(6) . . .
118(6) . . .
134(6) . . .
131(6) . . .
144(6) . . .
126(6) . . .
113(6) . . .
119(6) . . .
122(6) . . .
116(6) . . .
136(6) . . .
121(6) . . .
107(6) . . .
137(6) . . .
107(5) . . .
126(6) . . .
115(6) . . .
132(6) . . .
121(6) . . .
115(6) . . .
130(6) . . .
123(6) . . .
118(6) . . .
124(6) . . .
114(6) . . .
130(6) . . .
107(5) . . .
114(6) . . .
142(6) . . .
119(6) . . .
123(6) . . .
132(6) . . .
126(6) . . .
125(6) . . .
130(6) . . .
131(6) . . .
110(6) . . .
120(6) . . .
122(6) . . .
120(6) . . .
115(6) . . .
135(6) . . .
121(6) . . .
108(5) . . .
116(6) . . .
125(6) . . .
114(6) . . .
121(6) . . .
106(5) . . .
142(7) . . .
117(6) . . .
119(6) . . .
119(6) . . .
130(6) . . .
121(6) . . .
125(6) . . .
121(6) . . .
135(6) . . .
130(6) . . .
137(7) . . .
115(6) . . .
132(6) . . .
127(6) . . .
111(5) . . .
121(6) . . .
118(6) . . .
122(6) . . .
125(6) . . .
121(6) . . .
131(6) . . .
104(5) . . .
116(6) . . .
120(6) . . .
142(6) . . .
126(6) . . .
125(6) . . .
125(6) . . .
118(6) . . .
122(6) . . .
121(6) . . .
110(6) . . .
123(6) . . .
126(6) . . .
120(6) . . .
130(6) . . .
119(6) . . .
122(6) . . .
141(6) . . .
106(5) . . .
114(6) . . .
131(6) . . .
129(6) . . .
123(6) . . .
124(6) . . .
121(6) . . .
137(6) . . .
126(6) . . .
136(6) . . .
125(6) . . .
113(6) . . .
126(6) . . .
119(6) . . .
112(5) . . .
111(5) . . .
123(6) . . .
113(6) . . .
119(6) . . .
129(6) . . .
121(6) . . .
121(6) . . .
112(6) . . .
142(6) . . .
117(6) . . .
119(6) . . .
126(6) . . .
153(7) . . .
127(6) . . .
98(5) . . .
119(6) . . .
125(6) . . .
125(6) . . .
113(6) . . .
119(6) . . .
116(6) . . .
121(6) . . .
111(6) . . .
111(5) . . .
126(6) . . .
94(5) . . .
119(6) . . .
139(6) . . .
122(6) . . .
120(6) . . .
121(6) . . .
117(6) . . .
131(6) . . .
140(6) . . .
126(6) . . .
108(5) . . .
115(6) . . .
127(6) . . .
123(6) . . .
121(6) . . .
132(7) . . .
123(6) . . .
115(6) . . .
108(5) . . .
119(6) . . .
119(6) . . .
107(5) . . .
108(5) . . .
123(6) . . .
118(6) . . .
123(6) . . .
135(6) . . .
115(6) . . .
114(6) . . .
117(6) . . .
116(6) . . .
107(6) . . .
112(6) . . .
123(6) . . .
128(6) . . .
128(6) . . .
130(6) . . .
116(6) . . .
130(6) . . .
122(6) . . .
111(6) . . .
124(6) . . .
120(6) . . .
128(6) . . .
120(6) . . .
117(6) . . .
114(6) . . .
110(5) . . .
123(6) . . .
138(6) . . .
119(6) . . .
125(6) . . .
128(6) . . .
119(6) . . .
130(6) . . .
139(6) . . .
132(6) . . .
133(6) . . .
131(6) . . .
124(6) . . .
128(6) . . .
124(6) . . .
130(6) . . .
129(6) . . .
123(6) . . .
124(6) . . .
141(6) . . .
132(6) . . .
124(6) . . .
128(6) . . .
114(6) . . .
126(6) . . .
118(6) . . .
125(6) . . .
114(6) . . .
116(6) . . .
118(6) . . .
132(6) . . .
137(7) . . .
105(6) . . .
124(6) . . .
138(6) . . .
125(6) . . .
109(6) . . .
124(6) . . .
110(6) . . .
130(6) . . .
132(6) . . .
122(6) . . .
126(6) . . .
129(6) . . .
124(6) . . .
115(6) . . .
116(6) . . .
140(6) . . .
138(6) . . .
128(6) . . .
123(6) . . .
125(6) . . .
118(6) . . .
108(5) . . .
119(6) . . .
128(6) . . .
118(6) . . .
121(6) . . .
122(6) . . .
113(6) . . .
140(6) . . .
107(6) . . .
118(6) . . .
116(6) . . .
121(6) . . .
111(6) . . .
111(6) . . .
115(6) . . .
121(6) . . .
117(6) . . .
120(6) . . .
114(6) . . .
130(6) . . .
121(6) . . .
123(6) . . .
127(6) . . .
122(6) . . .
108(6) . . .
126(6) . . .
123(6) . . .
106(5) . . .
122(6) . . .
128(6) . . .
119(6) . . .
118(6) . . .
116(6) . . .
110(6) . . .
145(7) . . .
128(6) . . .
137(6) . . .
109(5) . . .
128(6) . . .
119(6) . . .
111(5) . . .
126(6) . . .
123(6) . . .
128(6) . . .
129(6) . . .
136(6) . . .
126(6) . . .
131(6) . . .
139(6) . . .
131(6) . . .
120(6) . . .
132(6) . . .
114(6) . . .
116(6) . . .
130(6) . . .
128(6) . . .
126(6) . . .
118(6) . . .
114(6) . . .
111(6) . . .
119(6) . . .
119(6) . . .
109(6) . . .
103(5) . . .
120(6) . . .
117(6) . . .
130(6) . . .
126(6) . . .
117(6) . . .
128(6) . . .
123(6) . . .
112(6) . . .
110(6) . . .
122(6) . . .
113(6) . . .
123(6) . . .
119(6) . . .
114(6) . . .
128(6) . . .
131(6) . . .
125(6) . . .
130(6) . . .
123(6) . . .
134(6) . . .
121(6) . . .
128(6) . . .
125(6) . . .
122(6) . . .
104(5) . . .
113(6) . . .
114(6) . . .
107(5) . . .
118(6) . . .
132(6) . . .
135(6) . . .
120(6) . . .
118(6) . . .
118(6) . . .
101(5) . . .
119(6) . . .
116(6) . . .
125(6) . . .
127(6) . . .
122(6) . . .
132(6) . . .
132(6) . . .
117(6) . . .
121(6) . . .
137(6) . . .
123(6) . . .
125(6) . . .
127(6) . . .
122(6) . . .
112(5) . . .
114(6) . . .
120(6) . . .
124(6) . . .
124(6) . . .
102(5) . . .
98(5) . . .
118(6) . . .
112(6) . . .
119(6) . . .
119(6) . . .
134(6) . . .
122(6) . . .
124(6) . . .
120(6) . . .
121(6) . . .
112(5) . . .
124(6) . . .
108(5) . . .
139(6) . . .
136(6) . . .
117(6) . . .
131(6) . . .
125(6) . . .
111(6) . . .
116(6) . . .
119(6) . . .
127(6) . . .
120(6) . . .
120(6) . . .
114(6) . . .
118(6) . . .
128(6) . . .
119(6) . . .
129(6) . . .
114(6) . . .
127(6) . . .
121(6) . . .
118(6) . . .
113(6) . . .
117(6) . . .
118(6) . . .
109(6) . . .
117(6) . . .
121(6) . . .
119(6) . . .
112(6) . . .
118(6) . . .
123(6) . . .
126(6) . . .
127(6) . . .
128(6) . . .
121(6) . . .
123(6) . . .
114(6) . . .
109(5) . . .
115(6) . . .
116(6) . . .
107(5) . . .
100(5) . . .
119(6) . . .
121(6) . . .
133(6) . . .
100(5) . . .
127(6) . . .
133(6) . . .
110(5) . . .
125(6) . . .
126(6) . . .
126(6) . . .
112(5) . . .
114(6) . . .
123(6) . . .
139(6) . . .
138(6) . . .
117(6) . . .
122(6) . . .
123(6) . . .
123(6) . . .
123(6) . . .
123(6) . . .
130(6) . . .
113(6) . . .
130(6) . . .
137(6) . . .
130(6) . . .
116(6) . . .
109(5) . . .
121(6) . . .
120(6) . . .
111(6) . . .
139(7) . . .
128(6) . . .
122(6) . . .
118(6) . . .
125(6) . . .
117(6) . . .
127(6) . . .
133(6) . . .
122(6) . . .
120(6) . . .
122(6) . . .
112(6) . . .
120(6) . . .
140(6) . . .
134(6) . . .
118(6) . . .
109(6) . . .
124(6) . . .
132(6) . . .
137(6) . . .
122(6) . . .
109(6) . . .
116(6) . . .
122(6) . . .
146(6) . . .
130(6) . . .
115(6) . . .
119(6) . . .
115(6) . . .
129(6) . . .
119(6) . . .
121(6) . . .
114(6) . . .
123(6) . . .
126(6) . . .
127(6) . . .
130(6) . . .
124(6) . . .
123(6) . . .
110(6) . . .
106(5) . . .
108(5) . . .
125(6) . . .
126(6) . . .
118(6) . . .
125(6) . . .
120(6) . . .
110(5) . . .
111(6) . . .
135(6) . . .
119(6) . . .
138(6) . . .
113(6) . . .
125(6) . . .
107(6) . . .
128(6) . . .
116(6) . . .
113(6) . . .
121(6) . . .
125(6) . . .
110(6) . . .
108(5) . . .
115(6) . . .
121(6) . . .
120(6) . . .
123(6) . . .
135(6) . . .
129(6) . . .
119(6) . . .
112(6) . . .
112(6) . . .
116(6) . . .
126(6) . . .
126(6) . . .
106(6) . . .
118(6) . . .
127(6) . . .
116(6) . . .
116(6) . . .
114(6) . . .
119(6) . . .
123(6) . . .
124(6) . . .
121(6) . . .
132(6) . . .
135(6) . . .
124(6) . . .
111(6) . . .
117(6) . . .
120(6) . . .
120(6) . . .
133(6) . . .
128(6) . . .
124(6) . . .
123(6) . . .
122(6) . . .
127(6) . . .
128(6) . . .
120(6) . . .
109(6) . . .
112(6) . . .
127(6) . . .
133(6) . . .
130(6) . . .
128(6) . . .
130(6) . . .
120(6) . . .
130(6) . . .
115(6) . . .
126(6) . . .
122(6) . . .
113(6) . . .
117(6) . . .
116(6) . . .
113(6) . . .
130(6) . . .
135(6) . . .
130(6) . . .
118(6) . . .
138(7) . . .
124(6) . . .
123(6) . . .
122(6) . . .
110(6) . . .
143(6) . . .
118(6) . . .
120(6) . . .
128(6) . . .
135(6) . . .
116(6) . . .
122(6) . . .
123(6) . . .
124(6) . . .
142(7) . . .
129(6) . . .
121(6) . . .
114(6) . . .
123(6) . . .
132(6) . . .
115(6) . . .
131(6) . . .
114(6) . . .
121(6) . . .
132(6) . . .
110(6) . . .
110(5) . . .
130(6) . . .
120(6) . . .
123(6) . . .
134(6) . . .
134(6) . . .
116(6) . . .
124(6) . . .
118(6) . . .
115(6) . . .
112(6) . . .
128(6) . . .
105(6) . . .
127(6) . . .
112(5) . . .
132(6) . . .
118(6) . . .
119(6) . . .
123(6) . . .
133(6) . . .
119(6) . . .
124(6) . . .
110(6) . . .
124(6) . . .
113(6) . . .
112(6) . . .
120(6) . . .
127(6) . . .
121(6) . . .
124(6) . . .
122(6) . . .
126(6) . . .
130(6) . . .
118(6) . . .
120(6) . . .
112(6) . . .
118(6) . . .
115(6) . . .
107(5) . . .
120(6) . . .
114(6) . . .
128(6) . . .
118(6) . . .
134(6) . . .
115(6) . . .
119(6) . . .
115(6) . . .
105(6) . . .
104(5) . . .
118(6) . . .
113(6) . . .
93(5) . . .
105(6) . . .
107(5) . . .
114(6) . . .
109(6) . . .
112(6) . . .
119(6) . . .
113(6) . . .
120(6) . . .
116(6) . . .
123(6) . . .
117(6) . . .
120(6) . . .
107(5) . . .
117(6) . . .
128(6) . . .
128(6) . . .
111(5) . . .
125(6) . . .
124(6) . . .
117(6) . . .
106(5) . . .
112(6) . . .
107(5) . . .
124(6) . . .
136(7) . . .
120(6) . . .
113(6) . . .
110(6) . . .
118(6) . . .
116(6) . . .
121(6) . . .
123(6) . . .
124(6) . . .
114(6) . . .
120(6) . . .
128(6) . . .
118(6) . . .
95(5) . . .
111(6) . . .
107(6) . . .
117(6) . . .
124(6) . . .
136(6) . . .
126(6) . . .
115(6) . . .
120(6) . . .
123(6) . . .
128(6) . . .
115(6) . . .
122(6) . . .
121(6) . . .
126(6) . . .
121(6) . . .
114(6) . . .
117(6) . . .
112(6) . . .
124(6) . . .
113(6) . . .
118(6) . . .
131(6) . . .
122(6) . . .
125(6) . . .
122(6) . . .
122(6) . . .
126(6) . . .
120(6) . . .
113(6) . . .
116(6) . . .
113(6) . . .
134(6) . . .
126(6) . . .
134(6) . . .
111(6) . . .
112(6) . . .
123(6) . . .
136(6) . . .
135(6) . . .
119(6) . . .
101(5) . . .
113(6) . . .
127(6) . . .
114(6) . . .
111(6) . . .
114(6) . . .
113(6) . . .
115(6) . . .
123(6) . . .
117(6) . . .
123(6) . . .
120(6) . . .
119(6) . . .
120(6) . . .
118(6) . . .
117(6) . . .
117(6) . . .
118(6) . . .
125(6) . . .
115(6) . . .
122(6) . . .
120(6) . . .
130(6) . . .
110(6) . . .
123(6) . . .
122(6) . . .
119(6) . . .
138(6) . . .
131(6) . . .
101(6) . . .
106(5) . . .
111(6) . . .
109(5) . . .
116(6) . . .
117(6) . . .
118(6) . . .
140(6) . . .
104(5) . . .
122(6) . . .
125(6) . . .
115(6) . . .
135(6) . . .
129(6) . . .
113(6) . . .
114(6) . . .
122(6) . . .
110(6) . . .
115(6) . . .
140(7) . . .
124(6) . . .
106(5) . . .
110(5) . . .
118(6) . . .
112(5) . . .
115(6) . . .
120(6) . . .
115(6) . . .
120(6) . . .
113(6) . . .
121(6) . . .
115(6) . . .
116(6) . . .
128(6) . . .
112(6) . . .
115(6) . . .
105(5) . . .
117(6) . . .
108(6) . . .
108(6) . . .
111(6) . . .
118(6) . . .
109(5) . . .
130(6) . . .
119(6) . . .
137(6) . . .
120(6) . . .
127(6) . . .
112(6) . . .
117(6) . . .
122(6) . . .
114(6) . . .
117(6) . . .
117(6) . . .
114(6) . . .
115(6) . . .
112(6) . . .
107(5) . . .
122(6) . . .
122(6) . . .
118(6) . . .
114(6) . . .
120(6) . . .
119(6) . . .
121(6) . . .
119(6) . . .
123(6) . . .
118(6) . . .
122(6) . . .
113(6) . . .
113(6) . . .
115(6) . . .
111(5) . . .
122(6) . . .
121(6) . . .
113(6) . . .
109(5) . . .
112(6) . . .
114(6) . . .
124(6) . . .
115(6) . . .
118(6) . . .
115(6) . . .
127(6) . . .
135(6) . . .
124(6) . . .
117(6) . . .
114(6) . . .
118(6) . . .
99(5) . . .
124(6) . . .
116(6) . . .
126(6) . . .
117(6) . . .
108(6) . . .
111(6) . . .
125(6) . . .
127(6) . . .
118(6) . . .
119(6) . . .
112(6) . . .
115(6) . . .
109(6) . . .
120(6) . . .
115(6) . . .
114(6) . . .
122(6) . . .
127(6) . . .
126(6) . . .
117(6) . . .
121(6) . . .
111(5) . . .
117(6) . . .
116(6) . . .
119(6) . . .
122(6) . . .
127(6) . . .
124(6) . . .
124(6) . . .
117(6) . . .
120(6) . . .
130(6) . . .
99(5) . . .
115(6) . . .
123(6) . . .
116(6) . . .
120(6) . . .
135(6) . . .
120(6) . . .
122(6) . . .
119(6) . . .
116(6) . . .
131(6) . . .
113(6) . . .
109(5) . . .
115(6) . . .
121(6) . . .
114(6) . . .
113(6) . . .
108(5) . . .
108(5) . . .
110(6) . . .
118(6) . . .
114(6) . . .
122(6) . . .
106(5) . . .
124(6) . . .
129(6) . . .
118(6) . . .
118(6) . . .
115(6) . . .
116(6) . . .
118(6) . . .
125(6) . . .
118(6) . . .
125(6) . . .
108(5) . . .
110(6) . . .
113(6) . . .
115(6) . . .
129(6) . . .
108(6) . . .
108(6) . . .
106(5) . . .
119(6) . . .
115(6) . . .
129(6) . . .
110(6) . . .
118(6) . . .
107(5) . . .
114(6) . . .
128(6) . . .
105(6) . . .
116(6) . . .
108(5) . . .
109(5) . . .
112(6) . . .
100(6) . . .
102(5) . . .
116(6) . . .
109(5) . . .
106(6) . . .
123(6) . . .
122(6) . . .
114(6) . . .
127(6) . . .
118(6) . . .
125(6) . . .
108(6) . . .
121(6) . . .
118(6) . . .
98(5) . . .
117(6) . . .
105(5) . . .
117(6) . . .
122(6) . . .
137(7) . . .
103(5) . . .
125(6) . . .
120(6) . . .
130(6) . . .
116(6) . . .
111(6) . . .
113(6) . . .
123(6) . . .
124(6) . . .
107(6) . . .
134(6) . . .
116(6) . . .
112(5) . . .
131(6) . . .
109(6) . . .
109(6) . . .
116(6) . . .
113(6) . . .
114(6) . . .
114(6) . . .
123(6) . . .
121(6) . . .
108(5) . . .
109(6) . . .
119(6) . . .
115(6) . . .
110(5) . . .
110(6) . . .
103(5) . . .
114(6) . . .
124(6) . . .
120(6) . . .
122(6) . . .
103(5) . . .
120(6) . . .
110(6) . . .
111(5) . . .
109(5) . . .
106(6) . . .
124(6) . . .
111(6) . . .
118(6) . . .
118(6) . . .
120(6) . . .
90(5) . . .
103(5) . . .
111(5) . . .
105(5) . . .
126(6) . . .
127(6) . . .
113(6) . . .
118(6) . . .
111(6) . . .
123(6) . . .
116(6) . . .
115(6) . . .
119(6) . . .
112(6) . . .
112(6) . . .
115(6) . . .
118(6) . . .
116(6) . . .
116(6) . . .
117(6) . . .
148(7) . . .
110(6) . . .
111(6) . . .
123(6) . . .
119(6) . . .
117(6) . . .
122(6) . . .
130(6) . . .
112(6) . . .
113(6) . . .
106(6) . . .
114(6) . . .
117(6) . . .
110(6) . . .
106(6) . . .
110(6) . . .
112(6) . . .
123(6) . . .
109(6) . . .
118(6) . . .
102(5) . . .
113(6) . . .
104(5) . . .
107(6) . . .
115(6) . . .
110(6) . . .
111(5) . . .
109(6) . . .
93(5) . . .
116(6) . . .
117(6) . . .
139(6) . . .
125(6) . . .
102(6) . . .
101(6) . . .
112(6) . . .
111(5) . . .
96(5) . . .
104(6) . . .
118(6) . . .
108(5) . . .
115(6) . . .
115(6) . . .
120(6) . . .
109(5) . . .
120(6) . . .
115(6) . . .
112(6) . . .
121(6) . . .
124(6) . . .
124(6) . . .
126(6) . . .
120(6) . . .
124(6) . . .
113(6) . . .
122(6) . . .
115(6) . . .
116(6) . . .
110(6) . . .
97(5) . . .
103(5) . . .
121(6) . . .
113(6) . . .
120(6) . . .
109(6) . . .
125(6) . . .
126(6) . . .
109(6) . . .
106(6) . . .
98(6) . . .
115(6) . . .
134(6) . . .
124(6) . . .
109(6) . . .
117(6) . . .
114(6) . . .
104(5) . . .
114(6) . . .
118(6) . . .
120(6) . . .
111(5) . . .
116(6) . . .
99(5) . . .
97(5) . . .
121(6) . . .
106(5) . . .
109(5) . . .
122(6) . . .
119(6) . . .
111(6) . . .
121(6) . . .
117(6) . . .
110(6) . . .
114(6) . . .
107(5) . . .
96(5) . . .
101(5) . . .
119(6) . . .
122(6) . . .
114(6) . . .
112(6) . . .
116(6) . . .
108(6) . . .
102(6) . . .
111(5) . . .
121(6) . . .
107(5) . . .
125(7) . . .
121(6) . . .
106(5) . . .
113(6) . . .
108(6) . . .
111(6) . . .
113(6) . . .
100(5) . . .
120(6) . . .
107(6) . . .
123(6) . . .
111(6) . . .
98(5) . . .
110(6) . . .
108(5) . . .
123(6) . . .
106(6) . . .
94(5) . . .
116(6) . . .
113(6) . . .
113(6) . . .
115(6) . . .
102(5) . . .
125(6) . . .
121(6) . . .
129(6) . . .
115(6) . . .
105(5) . . .
105(6) . . .
107(6) . . .
122(6) . . .
116(6) . . .
106(5) . . .
101(5) . . .
104(6) . . .
107(6) . . .
110(6) . . .
118(6) . . .
95(5) . . .
116(6) . . .
111(6) . . .
122(6) . . .
124(6) . . .
104(5) . . .
111(6) . . .
128(6) . . .
99(5) . . .
109(5) . . .
111(6) . . .
98(5) . . .
121(6) . . .
118(6) . . .
96(5) . . .
114(6) . . .
129(6) . . .
107(5) . . .
112(6) . . .
115(6) . . .
109(6) . . .
112(6) . . .
127(6) . . .
120(6) . . .
129(6) . . .
119(6) . . .
113(6) . . .
96(5) . . .
122(6) . . .
110(5) . . .
112(6) . . .
119(6) . . .
109(6) . . .
121(6) . . .
110(6) . . .
104(6) . . .
109(6) . . .
116(6) . . .
131(6) . . .
111(6) . . .
110(6) . . .
110(6) . . .
109(6) . . .
124(6) . . .
117(6) . . .
108(6) . . .
112(6) . . .
121(6) . . .
124(6) . . .
116(6) . . .
110(6) . . .
113(6) . . .
108(5) . . .
113(6) . . .
106(5) . . .
107(6) . . .
103(5) . . .
109(5) . . .
114(6) . . .
109(6) . . .
113(6) . . .
121(6) . . .
100(5) . . .
118(6) . . .
111(6) . . .
116(6) . . .
127(6) . . .
111(6) . . .
100(5) . . .
109(6) . . .
106(5) . . .
123(6) . . .
110(5) . . .
111(6) . . .
125(6) . . .
104(6) . . .
110(6) . . .
97(5) . . .
123(6) . . .
118(6) . . .
121(6) . . .
124(6) . . .
102(5) . . .
113(6) . . .
117(6) . . .
109(6) . . .
111(6) . . .
124(6) . . .
115(6) . . .
107(6) . . .
100(5) . . .
107(6) . . .
124(6) . . .
118(6) . . .
116(6) . . .
118(6) . . .
115(6) . . .
108(5) . . .
113(6) . . .
116(6) . . .
104(5) . . .
110(5) . . .
117(6) . . .
113(6) . . .
109(6) . . .
120(6) . . .
103(5) . . .
99(5) . . .
103(5) . . .
117(6) . . .
112(6) . . .
116(6) . . .
116(6) . . .
112(6) . . .
109(6) . . .
107(5) . . .
107(5) . . .
118(6) . . .
105(5) . . .
112(6) . . .
111(6) . . .
108(5) . . .
99(5) . . .
132(6) . . .
114(6) . . .
125(6) . . .
105(5) . . .
120(6) . . .
126(6) . . .
125(6) . . .
92(5) . . .
110(5) . . .
129(6) . . .
101(5) . . .
109(6) . . .
121(6) . . .
92(5) . . .
107(6) . . .
94(5) . . .
101(5) . . .
103(5) . . .
121(6) . . .
115(6) . . .
109(6) . . .
119(6) . . .
103(5) . . .
109(5) . . .
106(5) . . .
103(5) . . .
108(6) . . .
121(6) . . .
103(5) . . .
97(5) . . .
126(6) . . .
119(6) . . .
96(5) . . .
106(5) . . .
102(5) . . .
103(5) . . .
111(6) . . .
120(6) . . .
106(5) . . .
92(5) . . .
99(6) . . .
105(6) . . .
122(6) . . .
106(5) . . .
116(6) . . .
115(6) . . .
123(6) . . .
106(5) . . .
110(6) . . .
111(6) . . .
127(6) . . .
114(6) . . .
117(6) . . .
117(6) . . .
114(6) . . .
98(5) . . .
111(6) . . .
94(5) . . .
97(5) . . .
108(6) . . .
122(6) . . .
99(5) . . .
112(6) . . .
134(6) . . .
110(6) . . .
124(6) . . .
116(6) . . .
108(5) . . .
126(6) . . .
111(6) . . .
100(5) . . .
104(5) . . .
121(6) . . .
106(5) . . .
116(6) . . .
117(6) . . .
116(6) . . .
116(6) . . .
111(6) . . .
111(6) . . .
102(5) . . .
98(5) . . .
112(6) . . .
96(5) . . .
110(6) . . .
109(6) . . .
111(5) . . .
121(6) . . .
99(5) . . .
110(6) . . .
110(6) . . .
112(6) . . .
97(5) . . .
113(6) . . .
114(6) . . .
122(6) . . .
123(6) . . .
117(6) . . .
103(5) . . .
108(6) . . .
102(5) . . .
115(6) . . .
114(6) . . .
103(6) . . .
108(6) . . .
102(6) . . .
100(5) . . .
106(5) . . .
111(6) . . .
122(6) . . .
111(5) . . .
110(6) . . .
104(5) . . .
103(5) . . .
115(6) . . .
96(5) . . .
110(5) . . .
125(6) . . .
116(6) . . .
102(5) . . .
109(6) . . .
104(5) . . .
112(5) . . .
111(6) . . .
111(6) . . .
105(5) . . .
110(5) . . .
117(6) . . .
122(6) . . .
125(6) . . .
120(6) . . .
117(6) . . .
115(6) . . .
113(6) . . .
115(6) . . .
98(5) . . .
118(6) . . .
118(6) . . .
110(6) . . .
113(6) . . .
92(5) . . .
113(6) . . .
102(5) . . .
108(6) . . .
122(6) . . .
125(6) . . .
105(5) . . .
110(6) . . .
106(6) . . .
95(5) . . .
99(5) . . .
104(5) . . .
119(6) . . .
123(6) . . .
107(5) . . .
101(5) . . .
101(5) . . .
112(6) . . .
95(5) . . .
108(5) . . .
125(6) . . .
96(5) . . .
108(6) . . .
106(6) . . .
109(6) . . .
110(5) . . .
109(6) . . .
114(6) . . .
113(6) . . .
112(6) . . .
108(5) . . .
108(6) . . .
108(6) . . .
118(6) . . .
121(6) . . .
112(5) . . .
116(6) . . .
104(6) . . .
114(6) . . .
98(5) . . .
116(6) . . .
103(5) . . .
100(6) . . .
109(6) . . .
103(5) . . .
113(6) . . .
99(5) . . .
100(6) . . .
100(5) . . .
107(5) . . .
107(5) . . .
114(6) . . .
98(5) . . .
101(5) . . .
98(5) . . .
105(5) . . .
116(6) . . .
111(6) . . .
120(6) . . .
109(5) . . .
116(6) . . .
118(6) . . .
113(6) . . .
110(6) . . .
107(5) . . .
119(6) . . .
95(5) . . .
124(6) . . .
134(6) . . .
100(5) . . .
113(6) . . .
97(5) . . .
94(5) . . .
113(6) . . .
107(5) . . .
109(6) . . .
105(6) . . .
109(6) . . .
102(5) . . .
103(5) . . .
121(6) . . .
114(6) . . .
112(6) . . .
109(5) . . .
113(5) . . .
106(5) . . .
115(6) . . .
131(6) . . .
116(6) . . .
116(6) . . .
131(6) . . .
115(6) . . .
117(6) . . .
126(6) . . .
113(6) . . .
93(5) . . .
104(6) . . .
110(6) . . .
114(6) . . .
105(5) . . .
118(6) . . .
110(6) . . .
115(6) . . .
112(5) . . .
106(5) . . .
104(6) . . .
92(5) . . .
105(5) . . .
116(6) . . .
119(6) . . .
111(6) . . .
116(6) . . .
105(5) . . .
115(6) . . .
106(5) . . .
100(5) . . .
109(6) . . .
118(6) . . .
124(6) . . .
107(6) . . .
109(6) . . .
101(5) . . .
116(6) . . .
100(5) . . .
109(6) . . .
108(6) . . .
103(5) . . .
107(6) . . .
118(6) . . .
116(6) . . .
124(6) . . .
121(6) . . .
112(6) . . .
120(6) . . .
100(6) . . .
118(6) . . .
114(6) . . .
108(5) . . .
111(5) . . .
112(6) . . .
101(6) . . .
102(5) . . .
89(5) . . .
104(5) . . .
118(6) . . .
94(5) . . .
103(5) . . .
98(5) . . .
102(5) . . .
99(5) . . .
106(6) . . .
104(5) . . .
97(5) . . .
108(6) . . .
110(6) . . .
108(6) . . .
123(6) . . .
116(6) . . .
108(5) . . .
105(6) . . .
112(6) . . .
116(6) . . .
104(5) . . .
105(5) . . .
120(6) . . .
118(6) . . .
113(6) . . .
115(6) . . .
116(6) . . .
110(6) . . .
120(6) . . .
130(6) . . .
113(6) . . .
103(5) . . .
104(6) . . .
114(6) . . .
126(6) . . .
111(5) . . .
102(6) . . .
98(5) . . .
98(5) . . .
107(5) . . .
93(5) . . .
106(6) . . .
106(6) . . .
109(6) . . .
107(5) . . .
109(5) . . .
92(5) . . .
109(6) . . .
121(6) . . .
101(5) . . .
104(5) . . .
104(5) . . .
104(6) . . .
109(6) . . .
118(6) . . .
123(6) . . .
121(6) . . .
120(6) . . .
110(6) . . .
122(6) . . .
107(5) . . .
107(6) . . .
105(5) . . .
120(6) . . .
106(5) . . .
96(5) . . .
120(6) . . .
113(6) . . .
116(6) . . .
106(5) . . .
94(5) . . .
109(6) . . .
103(6) . . .
113(6) . . .
100(5) . . .
106(5) . . .
109(6) . . .
110(6) . . .
112(6) . . .
109(5) . . .
105(6) . . .
121(6) . . .
115(6) . . .
108(5) . . .
110(5) . . .
119(6) . . .
117(6) . . .
108(6) . . .
109(6) . . .
98(5) . . .
99(5) . . .
110(6) . . .
107(6) . . .
111(6) . . .
127(6) . . .
113(6) . . .
107(5) . . .
109(5) . . .
112(6) . . .
114(6) . . .
103(5) . . .
106(6) . . .
113(6) . . .
104(5) . . .
105(5) . . .
100(5) . . .
102(6) . . .
113(6) . . .
120(6) . . .
105(5) . . .
98(5) . . .
126(6) . . .
127(6) . . .
98(5) . . .
101(5) . . .
120(6) . . .
110(6) . . .
102(6) . . .
117(6) . . .
113(6) . . .
96(5) . . .
107(6) . . .
100(5) . . .
106(5) . . .
112(6) . . .
124(6) . . .
109(5) . . .
104(5) . . .
100(5) . . .
119(6) . . .
94(5) . . .
122(6) . . .
127(6) . . .
119(6) . . .
99(5) . . .
112(6) . . .
102(5) . . .
99(5) . . .
94(5) . . .
106(6) . . .
109(6) . . .
114(6) . . .
106(5) . . .
121(6) . . .
121(6) . . .
115(6) . . .
102(5) . . .
108(5) . . .
109(5) . . .
106(5) . . .
119(6) . . .
97(5) . . .
103(5) . . .
107(5) . . .
107(6) . . .
125(6) . . .
112(5) . . .
111(5) . . .
109(5) . . .
99(5) . . .
112(6) . . .
107(6) . . .
104(5) . . .
113(6) . . .
114(6) . . .
99(5) . . .
122(6) . . .
116(6) . . .
96(5) . . .
102(5) . . .
116(6) . . .
122(6) . . .
107(5) . . .
96(5) . . .
117(6) . . .
95(5) . . .
119(6) . . .
119(6) . . .
102(5) . . .
105(5) . . .
112(6) . . .
102(5) . . .
120(6) . . .
121(6) . . .
109(6) . . .
96(5) . . .
99(5) . . .
114(6) . . .
113(6) . . .
86(5) . . .
101(5) . . .
101(5) . . .
102(5) . . .
103(5) . . .
97(5) . . .
91(5) . . .
108(5) . . .
106(5) . . .
109(6) . . .
105(6) . . .
113(6) . . .
111(5) . . .
115(6) . . .
112(6) . . .
122(6) . . .
110(6) . . .
106(5) . . .
102(5) . . .
114(6) . . .
111(6) . . .
118(6) . . .
106(5) . . .
96(5) . . .
105(5) . . .
114(6) . . .
108(6) . . .
99(5) . . .
116(6) . . .
102(5) . . .
96(5) . . .
94(5) . . .
101(5) . . .
107(5) . . .
93(5) . . .
110(6) . . .
112(6) . . .
100(5) . . .
120(6) . . .
95(5) . . .
105(6) . . .
109(6) . . .
92(5) . . .
98(5) . . .
107(6) . . .
125(6) . . .
98(5) . . .
96(5) . . .
126(6) . . .
112(6) . . .
107(6) . . .
101(5) . . .
112(5) . . .
119(6) . . .
108(6) . . .
115(6) . . .
119(6) . . .
110(5) . . .
99(5) . . .
103(6) . . .
104(5) . . .
121(6) . . .
113(5) . . .
104(6) . . .
108(6) . . .
107(5) . . .
97(5) . . .
108(5) . . .
95(5) . . .
110(6) . . .
101(5) . . .
105(5) . . .
115(6) . . .
97(5) . . .
108(6) . . .
104(5) . . .
108(5) . . .
104(5) . . .
109(6) . . .
99(5) . . .
93(5) . . .
112(5) . . .
116(6) . . .
111(6) . . .
104(6) . . .
97(5) . . .
105(5) . . .
103(5) . . .
110(6) . . .
108(6) . . .
98(5) . . .
97(5) . . .
107(5) . . .
108(6) . . .
94(5) . . .
93(5) . . .
103(5) . . .
113(6) . . .
112(6) . . .
125(6) . . .
104(5) . . .
117(6) . . .
105(5) . . .
107(6) . . .
94(5) . . .
95(5) . . .
118(6) . . .
121(6) . . .
105(6) . . .
112(6) . . .
103(5) . . .
108(5) . . .
97(5) . . .
107(6) . . .
111(6) . . .
99(5) . . .
113(6) . . .
108(6) . . .
102(5) . . .
117(6) . . .
102(5) . . .
94(5) . . .
102(6) . . .
114(6) . . .
106(6) . . .
116(6) . . .
92(5) . . .
107(5) . . .
121(6) . . .
107(6) . . .
114(6) . . .
112(6) . . .
99(5) . . .
109(6) . . .
96(5) . . .
111(5) . . .
118(6) . . .
98(5) . . .
101(5) . . .
109(6) . . .
106(5) . . .
104(5) . . .
107(6) . . .
107(6) . . .
116(6) . . .
105(5) . . .
111(6) . . .
97(5) . . .
110(6) . . .
113(6) . . .
102(5) . . .
104(6) . . .
106(6) . . .
93(5) . . .
101(5) . . .
107(5) . . .
95(5) . . .
115(6) . . .
104(5) . . .
96(5) . . .
110(5) . . .
113(6) . . .
103(6) . . .
104(6) . . .
114(6) . . .
117(6) . . .
105(6) . . .
96(5) . . .
104(6) . . .
108(5) . . .
110(6) . . .
103(6) . . .
95(5) . . .
110(6) . . .
113(5) . . .
107(6) . . .
106(5) . . .
112(6) . . .
103(6) . . .
100(5) . . .
104(5) . . .
106(5) . . .
112(6) . . .
106(5) . . .
110(5) . . .
105(5) . . .
106(6) . . .
107(6) . . .
113(6) . . .
97(5) . . .
109(6) . . .
108(6) . . .
113(6) . . .
104(6) . . .
96(5) . . .
100(5) . . .
110(6) . . .
94(5) . . .
113(6) . . .
107(5) . . .
97(6) . . .
104(6) . . .
113(6) . . .
103(5) . . .
117(6) . . .
100(5) . . .
107(6) . . .
104(5) . . .
119(6) . . .
115(6) . . .
109(6) . . .
109(6) . . .
93(5) . . .
99(5) . . .
108(5) . . .
108(6) . . .
117(6) . . .
101(5) . . .
105(5) . . .
112(6) . . .
100(5) . . .
100(6) . . .
107(6) . . .
113(6) . . .
107(5) . . .
96(5) . . .
98(5) . . .
102(6) . . .
113(6) . . .
113(6) . . .
105(5) . . .
101(5) . . .
116(6) . . .
102(5) . . .
114(6) . . .
116(6) . . .
102(5) . . .
108(6) . . .
95(5) . . .
119(6) . . .
113(6) . . .
104(5) . . .
97(5) . . .
116(6) . . .
109(5) . . .
111(6) . . .
120(6) . . .
105(6) . . .
115(6) . . .
102(5) . . .
108(6) . . .
104(5) . . .
102(5) . . .
97(5) . . .
105(6) . . .
103(5) . . .
112(6) . . .
105(5) . . .
109(5) . . .
101(5) . . .
105(6) . . .
101(5) . . .
85(5) . . .
114(6) . . .
106(5) . . .
112(6) . . .
108(6) . . .
97(5) . . .
116(6) . . .
96(5) . . .
108(6) . . .
116(6) . . .
92(5) . . .
99(5) . . .
110(6) . . .
96(6) . . .
106(6) . . .
103(5) . . .
113(6) . . .
109(6) . . .
110(6) . . .
98(5) . . .
84(5) . . .
100(5) . . .
114(6) . . .
103(6) . . .
89(5) . . .
108(5) . . .
118(6) . . .
101(5) . . .
118(6) . . .
102(5) . . .
123(6) . . .
112(6) . . .
115(6) . . .
113(6) . . .
103(5) . . .
105(5) . . .
99(5) . . .
93(5) . . .
89(5) . . .
116(6) . . .
94(5) . . .
104(6) . . .
96(5) . . .
103(5) . . .
97(5) . . .
107(5) . . .
86(5) . . .
97(6) . . .
114(6) . . .
112(5) . . .
118(6) . . .
99(5) . . .
90(5) . . .
106(5) . . .
116(6) . . .
104(5) . . .
120(6) . . .
113(6) . . .
92(5) . . .
105(5) . . .
100(5) . . .
108(6) . . .
101(6) . . .
104(5) . . .
109(5) . . .
95(5) . . .
97(5) . . .
106(6) . . .
101(5) . . .
98(5) . . .
102(5) . . .
113(6) . . .
110(6) . . .
108(6) . . .
108(5) . . .
106(5) . . .
121(6) . . .
93(5) . . .
105(6) . . .
111(5) . . .
106(5) . . .
113(6) . . .
104(5) . . .
97(5) . . .
105(5) . . .
105(5) . . .
105(6) . . .
108(6) . . .
104(5) . . .
91(5) . . .
99(6) . . .
91(5) . . .
110(6) . . .
99(5) . . .
111(5) . . .
97(5) . . .
89(5) . . .
102(5) . . .
112(6) . . .
91(5) . . .
91(5) . . .
91(5) . . .
109(6) . . .
100(5) . . .
109(5) . . .
103(6) . . .
94(5) . . .
115(6) . . .
99(5) . . .
102(5) . . .
107(5) . . .
112(6) . . .
100(5) . . .
97(5) . . .
113(6) . . .
106(5) . . .
99(5) . . .
102(5) . . .
112(5) . . .
117(6) . . .
92(5) . . .
97(5) . . .
104(6) . . .
124(6) . . .
109(6) . . .
106(5) . . .
97(5) . . .
96(5) . . .
103(5) . . .
97(5) . . .
108(6) . . .
101(5) . . .
104(5) . . .
117(6) . . .
101(5) . . .
91(5) . . .
115(6) . . .
117(6) . . .
91(5) . . .
98(5) . . .
96(5) . . .
108(6) . . .
97(5) . . .
93(5) . . .
103(6) . . .
104(6) . . .
116(6) . . .
111(6) . . .
100(5) . . .
100(6) . . .
107(6) . . .
99(5) . . .
97(5) . . .
92(5) . . .
93(5) . . .
114(6) . . .
94(5) . . .
107(5) . . .
111(5) . . .
110(5) . . .
105(6) . . .
113(6) . . .
98(5) . . .
110(5) . . .
97(5) . . .
106(6) . . .
94(5) . . .
110(5) . . .
105(5) . . .
95(5) . . .
105(6) . . .
102(5) . . .
107(5) . . .
97(5) . . .
106(5) . . .
105(6) . . .
108(6) . . .
107(5) . . .
122(6) . . .
113(6) . . .
109(6) . . .
104(5) . . .
109(5) . . .
102(6) . . .
99(6) . . .
99(5) . . .
93(5) . . .
103(5) . . .
110(6) . . .
107(6) . . .
99(5) . . .
95(5) . . .
119(6) . . .
116(6) . . .
92(5) . . .
109(6) . . .
105(5) . . .
111(6) . . .
102(5) . . .
110(6) . . .
105(5) . . .
97(5) . . .
106(5) . . .
115(6) . . .
93(5) . . .
106(6) . . .
110(5) . . .
118(6) . . .
110(6) . . .
105(6) . . .
105(6) . . .
98(5) . . .
106(5) . . .
108(6) . . .
92(5) . . .
104(6) . . .
106(5) . . .
97(5) . . .
100(5) . . .
99(6) . . .
114(6) . . .
123(6) . . .
115(6) . . .
115(6) . . .
111(6) . . .
101(6) . . .
109(5) . . .
111(6) . . .
89(5) . . .
104(5) . . .
103(5) . . .
111(5) . . .
76(4) . . .
98(5) . . .
100(5) . . .
104(5) . . .
108(5) . . .
86(5) . . .
106(6) . . .
96(5) . . .
104(5) . . .
108(5) . . .
90(5) . . .
88(5) . . .
96(5) . . .
85(5) . . .
101(5) . . .
115(6) . . .
100(5) . . .
101(5) . . .
111(6) . . .
101(5) . . .
110(6) . . .
97(5) . . .
108(6) . . .
103(5) . . .
100(5) . . .
103(5) . . .
101(6) . . .
113(6) . . .
109(5) . . .
95(5) . . .
103(5) . . .
110(6) . . .
90(5) . . .
107(5) . . .
101(5) . . .
95(5) . . .
97(6) . . .
104(5) . . .
108(5) . . .
100(5) . . .
85(5) . . .
96(5) . . .
101(5) . . .
93(5) . . .
103(6) . . .
100(5) . . .
94(5) . . .
103(5) . . .
98(5) . . .
102(5) . . .
104(6) . . .
113(6) . . .
105(6) . . .
105(5) . . .
105(5) . . .
99(5) . . .
93(5) . . .
103(5) . . .
86(5) . . .
104(6) . . .
112(6) . . .
97(5) . . .
91(5) . . .
110(5) . . .
105(6) . . .
109(6) . . .
103(5) . . .
109(5) . . .
98(5) . . .
103(6) . . .
104(5) . . .
103(5) . . .
98(5) . . .
100(5) . . .
106(6) . . .
100(6) . . .
94(5) . . .
111(6) . . .
93(5) . . .
93(5) . . .
86(5) . . .
105(6) . . .
81(5) . . .
111(5) . . .
97(5) . . .
94(5) . . .
106(6) . . .
95(5) . . .
97(5) . . .
96(5) . . .
91(5) . . .
97(5) . . .
92(5) . . .
99(5) . . .
90(5) . . .
101(5) . . .
87(5) . . .
104(5) . . .
109(6) . . .
101(5) . . .
96(5) . . .
107(6) . . .
101(5) . . .
96(6) . . .
97(5) . . .
112(6) . . .
103(5) . . .
102(5) . . .
97(5) . . .
99(5) . . .
107(5) . . .
95(5) . . .
98(5) . . .
92(5) . . .
107(6) . . .
99(5) . . .
100(5) . . .
108(5) . . .
94(5) . . .
105(6) . . .
97(5) . . .
97(5) . . .
98(5) . . .
87(5) . . .
94(5) . . .
100(5) . . .
104(5) . . .
92(5) . . .
100(5) . . .
110(6) . . .
107(5) . . .
92(5) . . .
112(6) . . .
95(5) . . .
89(5) . . .
104(5) . . .
85(5) . . .
92(5) . . .
109(6) . . .
109(6) . . .
116(6) . . .
101(5) . . .
100(5) . . .
114(6) . . .
93(5) . . .
100(5) . . .
103(5) . . .
109(6) . . .
97(5) . . .
109(6) . . .
114(6) . . .
94(5) . . .
102(5) . . .
104(5) . . .
95(5) . . .
97(5) . . .
97(5) . . .
100(5) . . .
104(6) . . .
92(5) . . .
106(6) . . .
97(5) . . .
99(5) . . .
90(5) . . .
97(5) . . .
86(5) . . .
99(5) . . .
111(6) . . .
90(5) . . .
104(6) . . .
97(5) . . .
108(5) . . .
118(6) . . .
83(5) . . .
98(5) . . .
100(5) . . .
110(6) . . .
109(6) . . .
104(6) . . .
105(6) . . .
104(5) . . .
97(5) . . .
92(5) . . .
100(5) . . .
115(6) . . .
112(5) . . .
117(6) . . .
103(5) . . .
100(5) . . .
110(6) . . .
108(5) . . .
96(5) . . .
93(5) . . .
108(6) . . .
108(5) . . .
98(5) . . .
99(5) . . .
107(6) . . .
94(5) . . .
86(5) . . .
98(5) . . .
102(5) . . .
106(6) . . .
94(5) . . .
90(5) . . .
105(5) . . .
99(5) . . .
83(5) . . .
93(5) . . .
101(5) . . .
106(5) . . .
92(5) . . .
95(5) . . .
99(5) . . .
103(5) . . .
121(6) . . .
92(5) . . .
96(5) . . .
96(5) . . .
103(5) . . .
113(5) . . .
88(5) . . .
98(5) . . .
114(6) . . .
107(5) . . .
90(5) . . .
96(5) . . .
104(6) . . .
98(5) . . .
93(5) . . .
89(5) . . .
87(5) . . .
82(5) . . .
94(5) . . .
91(5) . . .
101(5) . . .
111(6) . . .
91(5) . . .
86(5) . . .
86(5) . . .
93(5) . . .
109(6) . . .
104(5) . . .
94(5) . . .
95(5) . . .
106(5) . . .
110(6) . . .
95(5) . . .
102(5) . . .
92(5) . . .
120(6) . . .
112(6) . . .
85(5) . . .
91(5) . . .
120(6) . . .
109(6) . . .
107(6) . . .
96(5) . . .
107(5) . . .
97(5) . . .
106(6) . . .
93(5) . . .
110(6) . . .
88(5) . . .
100(5) . . .
92(5) . . .
106(6) . . .
95(5) . . .
89(5) . . .
97(5) . . .
101(5) . . .
102(6) . . .
106(6) . . .
92(5) . . .
99(5) . . .
87(5) . . .
106(6) . . .
89(5) . . .
103(5) . . .
86(5) . . .
88(5) . . .
94(5) . . .
104(6) . . .
102(5) . . .
96(5) . . .
87(5) . . .
92(5) . . .
93(5) . . .
95(5) . . .
95(5) . . .
82(5) . . .
104(6) . . .
100(5) . . .
95(5) . . .
112(6) . . .
92(5) . . .
78(5) . . .
104(6) . . .
103(5) . . .
88(5) . . .
102(6) . . .
98(5) . . .
103(5) . . .
92(5) . . .
97(5) . . .
93(5) . . .
97(5) . . .
89(5) . . .
110(5) . . .
105(6) . . .
99(5) . . .
99(5) . . .
104(5) . . .
109(5) . . .
100(5) . . .
103(6) . . .
106(6) . . .
104(5) . . .
101(5) . . .
101(5) . . .
101(6) . . .
91(5) . . .
93(5) . . .
109(5) . . .
89(5) . . .
117(6) . . .
100(5) . . .
88(5) . . .
93(5) . . .
95(5) . . .
104(6) . . .
94(5) . . .
111(5) . . .
96(5) . . .
97(5) . . .
109(6) . . .
108(5) . . .
101(5) . . .
88(5) . . .
103(5) . . .
88(5) . . .
79(5) . . .
101(5) . . .
96(5) . . .
101(5) . . .
106(6) . . .
92(5) . . .
84(5) . . .
99(5) . . .
94(5) . . .
109(6) . . .
115(6) . . .
100(5) . . .
109(6) . . .
109(6) . . .
101(5) . . .
109(5) . . .
102(5) . . .
90(5) . . .
103(6) . . .
87(5) . . .
94(5) . . .
89(5) . . .
107(6) . . .
106(6) . . .
109(6) . . .
107(5) . . .
91(5) . . .
110(6) . . .
93(5) . . .
90(5) . . .
102(5) . . .
98(5) . . .
95(5) . . .
83(5) . . .
91(5) . . .
101(5) . . .
99(5) . . .
106(6) . . .
113(6) . . .
99(5) . . .
93(5) . . .
96(5) . . .
98(5) . . .
90(5) . . .
96(5) . . .
102(5) . . .
98(5) . . .
99(5) . . .
121(6) . . .
103(5) . . .
91(5) . . .
101(5) . . .
104(6) . . .
98(5) . . .
102(5) . . .
91(5) . . .
108(5) . . .
105(6) . . .
99(6) . . .
100(5) . . .
119(6) . . .
100(5) . . .
97(5) . . .
97(5) . . .
92(5) . . .
101(5) . . .
97(5) . . .
100(5) . . .
103(5) . . .
92(5) . . .
89(5) . . .
103(6) . . .
94(5) . . .
102(6) . . .
98(5) . . .
100(5) . . .
88(5) . . .
94(6) . . .
93(5) . . .
96(5) . . .
97(5) . . .
91(5) . . .
100(6) . . .
101(5) . . .
96(5) . . .
98(5) . . .
105(6) . . .
87(5) . . .
115(6) . . .
96(5) . . .
97(5) . . .
100(5) . . .
104(6) . . .
104(5) . . .
92(5) . . .
97(5) . . .
93(5) . . .
109(6) . . .
101(5) . . .
95(5) . . .
96(5) . . .
81(5) . . .
95(5) . . .
100(5) . . .
87(5) . . .
98(5) . . .
106(6) . . .
95(5) . . .
110(6) . . .
94(5) . . .
91(5) . . .
106(6) . . .
92(5) . . .
99(5) . . .
112(5) . . .
84(5) . . .
94(5) . . .
101(5) . . .
100(5) . . .
92(5) . . .
102(5) . . .
101(6) . . .
91(5) . . .
94(5) . . .
92(5) . . .
108(6) . . .
89(5) . . .
104(6) . . .
91(5) . . .
106(5) . . .
88(5) . . .
90(5) . . .
91(5) . . .
99(5) . . .
104(5) . . .
95(5) . . .
89(5) . . .
99(5) . . .
108(6) . . .
87(5) . . .
84(5) . . .
99(6) . . .
104(6) . . .
114(6) . . .
99(5) . . .
102(5) . . .
118(6) . . .
95(5) . . .
95(5) . . .
95(5) . . .
87(5) . . .
96(5) . . .
100(5) . . .
91(5) . . .
81(5) . . .
98(5) . . .
92(5) . . .
107(5) . . .
87(5) . . .
95(5) . . .
104(6) . . .
108(6) . . .
94(5) . . .
90(5) . . .
113(6) . . .
96(5) . . .
95(5) . . .
101(5) . . .
90(5) . . .
84(5) . . .
91(5) . . .
100(6) . . .
100(5) . . .
89(5) . . .
111(6) . . .
98(6) . . .
90(5) . . .
101(5) . . .
90(5) . . .
97(6) . . .
100(6) . . .
85(5) . . .
96(5) . . .
86(5) . . .
104(5) . . .
97(5) . . .
100(5) . . .
92(5) . . .
96(5) . . .
88(5) . . .
95(5) . . .
108(5) . . .
109(5) . . .
91(5) . . .
89(5) . . .
89(5) . . .
99(5) . . .
107(5) . . .
100(5) . . .
102(6) . . .
104(6) . . .
103(6) . . .
101(5) . . .
90(5) . . .
102(5) . . .
99(5) . . .
90(5) . . .
111(5) . . .
93(5) . . .
90(5) . . .
101(5) . . .
106(5) . . .
92(5) . . .
104(5) . . .
100(5) . . .
106(6) . . .
96(5) . . .
95(5) . . .
93(5) . . .
87(5) . . .
98(6) . . .
96(5) . . .
105(5) . . .
90(5) . . .
95(5) . . .
111(6) . . .
101(5) . . .
84(5) . . .
88(6) . . .
90(5) . . .
93(5) . . .
104(5) . . .
94(5) . . .
98(5) . . .
93(5) . . .
97(5) . . .
95(5) . . .
88(5) . . .
94(5) . . .
105(6) . . .
97(5) . . .
97(5) . . .
97(5) . . .
85(5) . . .
100(6) . . .
97(5) . . .
96(5) . . .
95(5) . . .
99(5) . . .
121(6) . . .
99(5) . . .
103(5) . . .
89(5) . . .
96(5) . . .
96(5) . . .
105(6) . . .
97(5) . . .
89(5) . . .
95(5) . . .
95(5) . . .
100(5) . . .
96(5) . . .
102(5) . . .
90(5) . . .
93(5) . . .
94(5) . . .
102(5) . . .
104(5) . . .
99(6) . . .
102(5) . . .
107(5) . . .
91(5) . . .
95(5) . . .
84(5) . . .
100(6) . . .
98(5) . . .
95(5) . . .
102(6) . . .
90(5) . . .
110(6) . . .
94(5) . . .
96(5) . . .
102(6) . . .
108(6) . . .
110(6) . . .
95(5) . . .
94(5) . . .
97(5) . . .
118(6) . . .
95(5) . . .
105(5) . . .
99(5) . . .
105(5) . . .
108(6) . . .
89(5) . . .
88(5) . . .
98(5) . . .
97(5) . . .
98(5) . . .
88(5) . . .
97(5) . . .
103(5) . . .
94(5) . . .
101(5) . . .
90(5) . . .
100(5) . . .
98(5) . . .
96(5) . . .
98(5) . . .
90(5) . . .
91(5) . . .
97(5) . . .
100(5) . . .
94(5) . . .
102(5) . . .
94(5) . . .
101(5) . . .
101(5) . . .
94(5) . . .
92(5) . . .
88(5) . . .
96(5) . . .
98(6) . . .
94(5) . . .
103(5) . . .
90(5) . . .
98(6) . . .
92(5) . . .
104(5) . . .
96(5) . . .
102(5) . . .
90(5) . . .
92(5) . . .
79(5) . . .
89(5) . . .
97(5) . . .
86(5) . . .
92(5) . . .
98(5) . . .
92(5) . . .
97(5) . . .
89(5) . . .
98(6) . . .
97(5) . . .
93(5) . . .
89(5) . . .
100(5) . . .
92(5) . . .
90(5) . . .
104(5) . . .
101(5) . . .
101(5) . . .
96(5) . . .
97(5) . . .
92(5) . . .
89(5) . . .
97(5) . . .
81(5) . . .
91(5) . . .
97(5) . . .
110(5) . . .
92(5) . . .
104(6) . . .
106(5) . . .
90(5) . . .
87(5) . . .
96(5) . . .
92(5) . . .
97(5) . . .
100(5) . . .
112(6) . . .
109(6) . . .
91(5) . . .
97(5) . . .
101(5) . . .
100(5) . . .
105(6) . . .
91(5) . . .
91(5) . . .
104(5) . . .
108(6) . . .
98(6) . . .
88(5) . . .
92(5) . . .
91(5) . . .
97(5) . . .
99(5) . . .
96(5) . . .
96(5) . . .
91(5) . . .
109(6) . . .
106(6) . . .
100(5) . . .
95(5) . . .
96(5) . . .
91(5) . . .
96(5) . . .
82(5) . . .
100(5) . . .
105(5) . . .
110(6) . . .
90(5) . . .
97(5) . . .
94(5) . . .
93(5) . . .
93(5) . . .
91(5) . . .
105(5) . . .
89(5) . . .
100(5) . . .
92(5) . . .
91(5) . . .
96(5) . . .
98(5) . . .
99(6) . . .
91(5) . . .
81(5) . . .
92(5) . . .
85(5) . . .
92(5) . . .
108(6) . . .
95(5) . . .
90(5) . . .
85(5) . . .
95(5) . . .
94(5) . . .
87(5) . . .
89(5) . . .
86(5) . . .
86(5) . . .
90(5) . . .
85(5) . . .
93(5) . . .
97(5) . . .
93(5) . . .
105(6) . . .
94(5) . . .
98(5) . . .
104(5) . . .
94(5) . . .
95(6) . . .
92(5) . . .
84(5) . . .
91(5) . . .
93(5) . . .
97(5) . . .
93(5) . . .
93(5) . . .
93(5) . . .
105(6) . . .
92(5) . . .
106(6) . . .
89(5) . . .
84(5) . . .
87(5) . . .
98(5) . . .
96(5) . . .
88(5) . . .
101(5) . . .
82(5) . . .
86(5) . . .
104(6) . . .
89(5) . . .
99(5) . . .
90(5) . . .
88(5) . . .
88(5) . . .
88(5) . . .
101(5) . . .
95(5) . . .
77(5) . . .
92(5) . . .
96(5) . . .
86(5) . . .
75(5) . . .
84(5) . . .
96(5) . . .
101(5) . . .
96(5) . . .
87(5) . . .
91(5) . . .
112(6) . . .
94(5) . . .
95(5) . . .
97(5) . . .
94(5) . . .
88(5) . . .
94(5) . . .
103(6) . . .
86(5) . . .
94(5) . . .
103(5) . . .
92(5) . . .
99(5) . . .
92(5) . . .
89(5) . . .
89(5) . . .
89(5) . . .
90(5) . . .
81(5) . . .
89(5) . . .
86(5) . . .
89(5) . . .
89(5) . . .
101(6) . . .
75(5) . . .
88(5) . . .
94(5) . . .
99(5) . . .
104(6) . . .
101(5) . . .
94(5) . . .
87(5) . . .
97(5) . . .
90(5) . . .
102(6) . . .
95(5) . . .
86(5) . . .
98(6) . . .
83(5) . . .
87(5) . . .
94(5) . . .
103(5) . . .
96(5) . . .
101(5) . . .
80(5) . . .
100(5) . . .
98(6) . . .
102(6) . . .
98(5) . . .
93(5) . . .
98(5) . . .
107(6) . . .
90(5) . . .
89(5) . . .
89(5) . . .
100(5) . . .
101(5) . . .
96(5) . . .
84(5) . . .
95(5) . . .
84(5) . . .
97(5) . . .
100(6) . . .
91(5) . . .
89(5) . . .
107(6) . . .
83(5) . . .
82(5) . . .
81(5) . . .
100(5) . . .
93(5) . . .
99(6) . . .
93(5) . . .
102(5) . . .
95(5) . . .
88(5) . . .
100(5) . . .
97(5) . . .
86(5) . . .
88(5) . . .
95(5) . . .
95(5) . . .
90(5) . . .
93(5) . . .
96(5) . . .
80(5) . . .
92(5) . . .
97(6) . . .
90(5) . . .
105(5) . . .
87(5) . . .
87(5) . . .
101(6) . . .
106(5) . . .
88(5) . . .
98(5) . . .
92(5) . . .
86(5) . . .
94(5) . . .
95(5) . . .
97(5) . . .
95(5) . . .
94(5) . . .
90(5) . . .
97(5) . . .
94(5) . . .
103(6) . . .
94(5) . . .
89(5) . . .
87(5) . . .
92(5) . . .
113(6) . . .
98(5) . . .
93(5) . . .
97(5) . . .
92(5) . . .
79(5) . . .
82(5) . . .
74(4) . . .
87(5) . . .
97(5) . . .
102(6) . . .
106(6) . . .
87(5) . . .
109(6) . . .
103(5) . . .
87(5) . . .
93(5) . . .
92(5) . . .
86(5) . . .
92(5) . . .
90(5) . . .
85(5) . . .
93(5) . . .
72(4) . . .
90(5) . . .
85(5) . . .
110(6) . . .
91(5) . . .
107(6) . . .
93(5) . . .
109(6) . . .
86(5) . . .
78(5) . . .
88(5) . . .
101(6) . . .
86(5) . . .
86(5) . . .
95(5) . . .
92(5) . . .
103(6) . . .
89(5) . . .
105(5) . . .
99(5) . . .
85(5) . . .
89(5) . . .
82(5) . . .
90(5) . . .
91(5) . . .
89(5) . . .
86(5) . . .
91(5) . . .
71(4) . . .
82(5) . . .
86(5) . . .
86(5) . . .
90(5) . . .
89(5) . . .
73(4) . . .
111(6) . . .
98(5) . . .
88(5) . . .
74(4) . . .
93(5) . . .
81(5) . . .
94(5) . . .
94(5) . . .
84(5) . . .
91(5) . . .
88(5) . . .
82(5) . . .
102(5) . . .
96(5) . . .
89(5) . . .
99(6) . . .
80(5) . . .
91(5) . . .
92(5) . . .
83(5) . . .
101(6) . . .
93(5) . . .
89(5) . . .
82(5) . . .
85(5) . . .
82(5) . . .
89(5) . . .
100(5) . . .
105(5) . . .
101(5) . . .
97(6) . . .
88(5) . . .
91(5) . . .
89(5) . . .
84(5) . . .
87(5) . . .
96(5) . . .
94(5) . . .
98(5) . . .
97(5) . . .
92(5) . . .
86(5) . . .
106(5) . . .
88(5) . . .
103(5) . . .
91(6) . . .
80(5) . . .
92(5) . . .
93(5) . . .
94(5) . . .
92(5) . . .
81(5) . . .
94(5) . . .
85(5) . . .
102(6) . . .
97(5) . . .
82(5) . . .
90(5) . . .
85(5) . . .
86(5) . . .
94(5) . . .
85(5) . . .
103(5) . . .
91(5) . . .
82(5) . . .
87(5) . . .
108(6) . . .
96(5) . . .
86(5) . . .
93(5) . . .
87(5) . . .
102(5) . . .
93(5) . . .
93(5) . . .
87(5) . . .
86(5) . . .
90(5) . . .
81(5) . . .
85(5) . . .
90(5) . . .
91(5) . . .
94(5) . . .
75(4) . . .
90(5) . . .
91(5) . . .
87(5) . . .
99(5) . . .
96(5) . . .
99(5) . . .
103(6) . . .
95(5) . . .
104(5) . . .
96(5) . . .
82(5) . . .
98(6) . . .
85(5) . . .
94(5) . . .
86(5) . . .
77(5) . . .
85(5) . . .
97(5) . . .
95(5) . . .
99(5) . . .
104(5) . . .
86(5) . . .
93(5) . . .
86(5) . . .
76(5) . . .
86(5) . . .
98(5) . . .
88(5) . . .
76(4) . . .
92(5) . . .
84(5) . . .
88(5) . . .
83(5) . . .
101(5) . . .
88(5) . . .
80(5) . . .
100(5) . . .
89(5) . . .
73(4) . . .
83(5) . . .
81(5) . . .
88(5) . . .
95(5) . . .
86(5) . . .
100(5) . . .
94(5) . . .
96(5) . . .
98(5) . . .
88(5) . . .
108(6) . . .
79(5) . . .
95(5) . . .
97(5) . . .
81(5) . . .
86(5) . . .
102(6) . . .
94(5) . . .
97(5) . . .
100(5) . . .
99(5) . . .
86(5) . . .
84(5) . . .
86(5) . . .
92(5) . . .
86(5) . . .
94(5) . . .
107(6) . . .
89(5) . . .
88(5) . . .
104(5) . . .
85(5) . . .
84(5) . . .
78(5) . . .
101(5) . . .
80(5) . . .
79(5) . . .
92(5) . . .
89(5) . . .
91(5) . . .
97(5) . . .
115(6) . . .
99(5) . . .
96(5) . . .
93(5) . . .
90(5) . . .
99(6) . . .
103(5) . . .
90(5) . . .
102(5) . . .
98(5) . . .
94(5) . . .
89(5) . . .
86(5) . . .
92(5) . . .
88(5) . . .
93(5) . . .
117(6) . . .
83(5) . . .
97(5) . . .
93(5) . . .
82(5) . . .
95(5) . . .
92(5) . . .
88(5) . . .
89(5) . . .
87(5) . . .
79(5) . . .
76(5) . . .
89(5) . . .
92(5) . . .
95(5) . . .
81(5) . . .
90(5) . . .
83(5) . . .
93(5) . . .
94(5) . . .
72(4) . . .
87(5) . . .
84(5) . . .
76(5) . . .
81(5) . . .
80(5) . . .
90(5) . . .
94(5) . . .
87(5) . . .
96(5) . . .
87(5) . . .
90(5) . . .
100(6) . . .
73(5) . . .
91(5) . . .
94(5) . . .
84(5) . . .
97(5) . . .
96(5) . . .
98(5) . . .
94(5) . . .
98(5) . . .
83(5) . . .
94(5) . . .
92(5) . . .
74(4) . . .
103(5) . . .
99(5) . . .
87(5) . . .
82(5) . . .
86(5) . . .
79(5) . . .
94(6) . . .
81(5) . . .
89(5) . . .
89(5) . . .
90(5) . . .
90(5) . . .
94(5) . . .
100(5) . . .
103(5) . . .
86(5) . . .
81(5) . . .
87(5) . . .
90(5) . . .
96(5) . . .
97(5) . . .
100(5) . . .
89(5) . . .
102(5) . . .
92(5) . . .
89(5) . . .
83(5) . . .
85(5) . . .
84(5) . . .
91(5) . . .
81(5) . . .
92(6) . . .
88(5) . . .
86(5) . . .
82(5) . . .
87(5) . . .
72(4) . . .
105(6) . . .
87(5) . . .
104(5) . . .
99(5) . . .
87(5) . . .
88(5) . . .
102(5) . . .
94(5) . . .
87(5) . . .
92(5) . . .
86(5) . . .
85(5) . . .
109(6) . . .
111(6) . . .
77(5) . . .
86(5) . . .
78(5) . . .
94(5) . . .
91(5) . . .
81(5) . . .
87(5) . . .
92(5) . . .
99(6) . . .
85(5) . . .
85(5) . . .
82(5) . . .
94(5) . . .
100(5) . . .
104(6) . . .
94(5) . . .
97(5) . . .
91(5) . . .
89(5) . . .
79(5) . . .
83(5) . . .
92(5) . . .
86(5) . . .
88(5) . . .
74(5) . . .
81(5) . . .
85(5) . . .
98(5) . . .
91(5) . . .
88(5) . . .
93(5) . . .
96(5) . . .
92(5) . . .
99(5) . . .
78(5) . . .
87(5) . . .
83(5) . . .
77(5) . . .
84(5) . . .
98(5) . . .
97(5) . . .
78(5) . . .
95(5) . . .
99(6) . . .
91(5) . . .
103(5) . . .
83(5) . . .
72(4) . . .
97(6) . . .
74(5) . . .
92(5) . . .
86(5) . . .
78(5) . . .
88(5) . . .
82(5) . . .
94(5) . . .
97(5) . . .
84(5) . . .
98(6) . . .
84(5) . . .
86(5) . . .
86(5) . . .
93(5) . . .
103(6) . . .
81(5) . . .
87(5) . . .
75(5) . . .
99(5) . . .
91(5) . . .
78(5) . . .
82(5) . . .
99(5) . . .
98(5) . . .
70(5) . . .
83(5) . . .
91(5) . . .
98(5) . . .
104(5) . . .
91(5) . . .
81(5) . . .
94(5) . . .
87(5) . . .
86(5) . . .
94(5) . . .
86(5) . . .
84(5) . . .
93(5) . . .
82(5) . . .
89(5) . . .
87(5) . . .
75(4) . . .
81(5) . . .
92(5) . . .
99(5) . . .
87(5) . . .
78(5) . . .
91(5) . . .
88(5) . . .
79(5) . . .
79(5) . . .
96(5) . . .
80(5) . . .
87(5) . . .
94(5) . . .
84(5) . . .
94(5) . . .
93(5) . . .
84(5) . . .
84(5) . . .
76(5) . . .
84(5) . . .
80(5) . . .
98(6) . . .
103(5) . . .
83(5) . . .
96(5) . . .
99(5) . . .
86(5) . . .
86(5) . . .
92(5) . . .
83(5) . . .
90(5) . . .
98(6) . . .
80(5) . . .
88(5) . . .
94(5) . . .
83(5) . . .
94(5) . . .
91(5) . . .
86(5) . . .
102(5) . . .
92(5) . . .
90(5) . . .
93(5) . . .
84(5) . . .
103(5) . . .
91(5) . . .
85(5) . . .
84(5) . . .
96(5) . . .
98(5) . . .
80(5) . . .
84(5) . . .
87(5) . . .
73(4) . . .
87(5) . . .
90(5) . . .
82(5) . . .
83(5) . . .
88(5) . . .
84(5) . . .
91(5) . . .
78(5) . . .
87(5) . . .
91(5) . . .
84(5) . . .
82(5) . . .
85(5) . . .
78(5) . . .
91(5) . . .
84(5) . . .
82(5) . . .
75(5) . . .
75(5) . . .
77(5) . . .
89(5) . . .
83(5) . . .
84(5) . . .
85(5) . . .
92(5) . . .
87(5) . . .
78(5) . . .
84(5) . . .
89(5) . . .
92(5) . . .
84(5) . . .
87(5) . . .
89(5) . . .
82(5) . . .
91(5) . . .
80(5) . . .
87(5) . . .
94(5) . . .
82(5) . . .
77(5) . . .
79(5) . . .
89(5) . . .
80(5) . . .
89(5) . . .
92(5) . . .
75(5) . . .
87(5) . . .
87(5) . . .
92(5) . . .
97(5) . . .
98(6) . . .
86(5) . . .
87(5) . . .
83(5) . . .
94(5) . . .
88(5) . . .
83(5) . . .
95(5) . . .
94(5) . . .
84(5) . . .
95(5) . . .
77(5) . . .
83(5) . . .
81(5) . . .
96(5) . . .
83(5) . . .
77(5) . . .
90(5) . . .
85(5) . . .
82(5) . . .
83(5) . . .
92(5) . . .
82(5) . . .
90(5) . . .
93(5) . . .
99(6) . . .
83(5) . . .
88(5) . . .
84(5) . . .
86(5) . . .
84(5) . . .
85(5) . . .
80(5) . . .
83(5) . . .
94(5) . . .
90(5) . . .
83(5) . . .
100(5) . . .
94(5) . . .
89(5) . . .
89(5) . . .
76(5) . . .
99(5) . . .
87(5) . . .
71(4) . . .
89(5) . . .
84(5) . . .
91(5) . . .
88(5) . . .
85(5) . . .
89(5) . . .
87(5) . . .
88(5) . . .
97(5) . . .
76(5) . . .
78(5) . . .
83(5) . . .
81(5) . . .
73(5) . . .
80(5) . . .
94(5) . . .
91(5) . . .
85(5) . . .
82(5) . . .
90(5) . . .
92(5) . . .
84(5) . . .
89(5) . . .
86(5) . . .
79(5) . . .
90(5) . . .
91(5) . . .
90(5) . . .
89(5) . . .
71(4) . . .
85(5) . . .
68(4) . . .
81(5) . . .
87(5) . . .
92(5) . . .
78(5) . . .
87(5) . . .
93(5) . . .
87(5) . . .
88(5) . . .
97(5) . . .
85(5) . . .
83(5) . . .
92(5) . . .
75(5) . . .
78(5) . . .
83(5) . . .
78(5) . . .
73(5) . . .
74(5) . . .
82(5) . . .
82(5) . . .
101(5) . . .
80(5) . . .
75(5) . . .
83(5) . . .
81(5) . . .
94(5) . . .
86(5) . . .
81(5) . . .
86(5) . . .
82(5) . . .
85(5) . . .
80(5) . . .
82(5) . . .
89(5) . . .
84(5) . . .
90(5) . . .
78(5) . . .
85(5) . . .
90(5) . . .
105(5) . . .
101(5) . . .
87(5) . . .
92(5) . . .
77(5) . . .
79(5) . . .
98(5) . . .
88(5) . . .
83(5) . . .
84(5) . . .
90(5) . . .
99(5) . . .
75(5) . . .
76(5) . . .
94(5) . . .
87(5) . . .
91(5) . . .
80(5) . . .
88(5) . . .
90(5) . . .
90(5) . . .
79(5) . . .
78(5) . . .
86(5) . . .
85(5) . . .
67(4) . . .
88(5) . . .
84(5) . . .
87(5) . . .
95(5) . . .
86(5) . . .
79(5) . . .
96(5) . . .
86(5) . . .
91(5) . . .
85(5) . . .
79(5) . . .
86(5) . . .
74(4) . . .
85(5) . . .
94(5) . . .
90(5) . . .
92(5) . . .
94(5) . . .
82(5) . . .
92(5) . . .
80(5) . . .
81(5) . . .
95(5) . . .
74(4) . . .
90(5) . . .
85(5) . . .
81(5) . . .
85(5) . . .
95(5) . . .
80(5) . . .
78(5) . . .
82(5) . . .
91(5) . . .
85(5) . . .
75(5) . . .
99(6) . . .
92(5) . . .
81(5) . . .
78(5) . . .
82(5) . . .
89(5) . . .
84(5) . . .
67(4) . . .
75(4) . . .
89(5) . . .
81(5) . . .
85(5) . . .
88(5) . . .
84(5) . . .
90(5) . . .
86(5) . . .
100(5) . . .
89(5) . . .
99(5) . . .
78(5) . . .
84(5) . . .
84(5) . . .
87(5) . . .
74(5) . . .
83(5) . . .
80(5) . . .
84(5) . . .
77(5) . . .
82(5) . . .
91(5) . . .
84(5) . . .
88(5) . . .
76(5) . . .
86(5) . . .
96(6) . . .
81(5) . . .
83(5) . . .
99(5) . . .
84(5) . . .
78(5) . . .
89(5) . . .
84(5) . . .
68(4) . . .
89(5) . . .
89(5) . . .
79(5) . . .
74(5) . . .
77(5) . . .
86(5) . . .
88(5) . . .
85(5) . . .
88(5) . . .
86(5) . . .
71(4) . . .
92(5) . . .
91(5) . . .
89(5) . . .
83(5) . . .
84(5) . . .
99(6) . . .
99(5) . . .
77(5) . . .
85(5) . . .
80(5) . . .
87(5) . . .
84(5) . . .
88(5) . . .
89(5) . . .
79(5) . . .
81(5) . . .
79(5) . . .
89(5) . . .
81(5) . . .
80(5) . . .
80(5) . . .
88(5) . . .
90(5) . . .
79(5) . . .
74(5) . . .
90(5) . . .
86(5) . . .
81(5) . . .
86(5) . . .
78(5) . . .
88(5) . . .
98(5) . . .
86(5) . . .
95(5) . . .
79(5) . . .
83(5) . . .
73(4) . . .
86(5) . . .
94(5) . . .
91(5) . . .
83(5) . . .
104(6) . . .
99(5) . . .
82(5) . . .
87(5) . . .
86(5) . . .
76(4) . . .
86(5) . . .
81(5) . . .
82(5) . . .
84(5) . . .
79(5) . . .
77(5) . . .
65(4) . . .
70(5) . . .
77(5) . . .
84(5) . . .
85(5) . . .
83(5) . . .
94(5) . . .
86(5) . . .
91(5) . . .
88(5) . . .
83(5) . . .
94(5) . . .
87(5) . . .
96(5) . . .
85(5) . . .
81(5) . . .
85(5) . . .
102(6) . . .
81(5) . . .
92(5) . . .
86(5) . . .
78(5) . . .
78(5) . . .
90(5) . . .
84(5) . . .
85(5) . . .
82(5) . . .
90(5) . . .
80(5) . . .
82(5) . . .
79(5) . . .
84(5) . . .
80(5) . . .
76(5) . . .
85(5) . . .
80(5) . . .
81(5) . . .
83(5) . . .
74(4) . . .
89(5) . . .
93(5) . . .
79(5) . . .
87(5) . . .
77(5) . . .
77(5) . . .
69(5) . . .
73(5) . . .
87(5) . . .
84(5) . . .
72(4) . . .
72(5) . . .
80(5) . . .
69(4) . . .
72(4) . . .
82(5) . . .
77(5) . . .
81(5) . . .
78(5) . . .
76(5) . . .
78(5) . . .
85(5) . . .
99(5) . . .
77(5) . . .
79(5) . . .
92(5) . . .
88(5) . . .
70(4) . . .
91(5) . . .
88(5) . . .
88(5) . . .
76(5) . . .
74(5) . . .
97(5) . . .
90(5) . . .
85(5) . . .
82(5) . . .
92(5) . . .
77(5) . . .
76(5) . . .
77(5) . . .
93(5) . . .
77(5) . . .
88(5) . . .
85(5) . . .
88(5) . . .
87(5) . . .
88(5) . . .
85(5) . . .
83(5) . . .
83(5) . . .
87(5) . . .
79(5) . . .
90(5) . . .
105(5) . . .
74(5) . . .
73(4) . . .
81(5) . . .
82(5) . . .
74(5) . . .
82(5) . . .
89(5) . . .
71(5) . . .
77(5) . . .
77(5) . . .
83(5) . . .
90(5) . . .
76(5) . . .
71(4) . . .
82(5) . . .
70(4) . . .
83(5) . . .
88(5) . . .
76(5) . . .
84(5) . . .
78(5) . . .
79(5) . . .
80(5) . . .
80(5) . . .
77(5) . . .
92(5) . . .
93(5) . . .
84(5) . . .
91(5) . . .
72(4) . . .
85(5) . . .
77(5) . . .
78(5) . . .
88(5) . . .
95(5) . . .
90(5) . . .
81(5) . . .
82(5) . . .
82(5) . . .
84(5) . . .
78(5) . . .
84(5) . . .
77(5) . . .
82(5) . . .
84(5) . . .
75(5) . . .
84(5) . . .
92(5) . . .
83(5) . . .
92(5) . . .
66(4) . . .
78(5) . . .
92(5) . . .
70(4) . . .
69(4) . . .
76(5) . . .
93(5) . . .
85(5) . . .
81(5) . . .
86(5) . . .
90(5) . . .
86(5) . . .
84(5) . . .
78(5) . . .
90(5) . . .
100(5) . . .
91(5) . . .
91(5) . . .
91(5) . . .
79(5) . . .
86(5) . . .
91(5) . . .
84(5) . . .
86(5) . . .
86(5) . . .
83(5) . . .
95(5) . . .
86(5) . . .
95(6) . . .
79(5) . . .
86(5) . . .
82(5) . . .
77(5) . . .
80(5) . . .
86(5) . . .
76(5) . . .
78(5) . . .
74(5) . . .
83(5) . . .
76(5) . . .
69(4) . . .
88(5) . . .
83(5) . . .
81(5) . . .
96(5) . . .
83(5) . . .
78(5) . . .
82(5) . . .
85(5) . . .
82(5) . . .
70(4) . . .
82(5) . . .
83(5) . . .
80(5) . . .
90(5) . . .
81(5) . . .
76(5) . . .
71(4) . . .
84(5) . . .
85(5) . . .
90(5) . . .
71(5) . . .
83(5) . . .
83(5) . . .
70(4) . . .
69(4) . . .
77(5) . . .
84(5) . . .
94(6) . . .
75(5) . . .
76(5) . . .
84(5) . . .
71(4) . . .
80(5) . . .
83(5) . . .
76(5) . . .
92(5) . . .
92(5) . . .
84(5) . . .
74(4) . . .
94(5) . . .
84(5) . . .
89(5) . . .
72(4) . . .
73(5) . . .
84(5) . . .
83(5) . . .
78(5) . . .
90(5) . . .
77(5) . . .
78(5) . . .
93(5) . . .
87(5) . . .
86(5) . . .
87(5) . . .
79(5) . . .
89(5) . . .
89(5) . . .
87(5) . . .
75(4) . . .
90(5) . . .
90(5) . . .
103(6) . . .
73(5) . . .
87(5) . . .
99(5) . . .
88(5) . . .
89(5) . . .
91(5) . . .
80(5) . . .
78(5) . . .
72(5) . . .
67(5) . . .
86(5) . . .
79(5) . . .
81(5) . . .
82(5) . . .
72(4) . . .
86(5) . . .
91(5) . . .
81(5) . . .
78(5) . . .
73(5) . . .
74(5) . . .
73(4) . . .
84(5) . . .
81(5) . . .
79(5) . . .
91(5) . . .
86(5) . . .
73(5) . . .
88(5) . . .
94(5) . . .
90(5) . . .
79(5) . . .
92(5) . . .
65(4) . . .
74(5) . . .
77(5) . . .
74(4) . . .
89(5) . . .
77(5) . . .
79(5) . . .
74(5) . . .
77(5) . . .
86(5) . . .
80(5) . . .
81(5) . . .
91(5) . . .
70(4) . . .
73(5) . . .
79(5) . . .
79(5) . . .
82(5) . . .
78(5) . . .
80(5) . . .
85(5) . . .
84(5) . . .
81(5) . . .
83(5) . . .
85(5) . . .
75(5) . . .
75(4) . . .
78(5) . . .
74(4) . . .
86(5) . . .
87(5) . . .
90(5) . . .
75(4) . . .
74(5) . . .
80(5) . . .
87(5) . . .
83(5) . . .
75(5) . . .
79(5) . . .
89(5) . . .
83(5) . . .
69(4) . . .
76(5) . . .
81(5) . . .
77(5) . . .
74(4) . . .
81(5) . . .
77(5) . . .
97(5) . . .
92(5) . . .
74(5) . . .
81(5) . . .
76(5) . . .
89(5) . . .
91(5) . . .
88(5) . . .
80(5) . . .
74(4) . . .
83(5) . . .
69(5) . . .
85(5) . . .
84(5) . . .
82(5) . . .
83(5) . . .
73(5) . . .
77(5) . . .
79(5) . . .
84(5) . . .
81(5) . . .
73(5) . . .
81(5) . . .
82(5) . . .
78(5) . . .
82(5) . . .
80(5) . . .
87(5) . . .
87(5) . . .
78(5) . . .
87(5) . . .
80(5) . . .
78(5) . . .
78(5) . . .
87(5) . . .
65(4) . . .
78(5) . . .
82(5) . . .
84(5) . . .
85(5) . . .
77(5) . . .
81(5) . . .
87(5) . . .
78(5) . . .
84(5) . . .
71(5) . . .
70(5) . . .
71(5) . . .
84(5) . . .
71(4) . . .
84(5) . . .
79(5) . . .
76(5) . . .
84(5) . . .
79(5) . . .
77(5) . . .
83(5) . . .
75(5) . . .
76(5) . . .
81(5) . . .
72(5) . . .
69(5) . . .
79(5) . . .
66(4) . . .
73(5) . . .
66(4) . . .
70(4) . . .
81(5) . . .
78(5) . . .
82(5) . . .
77(5) . . .
77(5) . . .
87(5) . . .
90(5) . . .
89(5) . . .
76(5) . . .
69(4) . . .
84(5) . . .
81(5) . . .
79(5) . . .
79(5) . . .
78(5) . . .
75(4) . . .
68(4) . . .
83(5) . . .
83(5) . . .
79(5) . . .
79(5) . . .
80(5) . . .
69(4) . . .
72(5) . . .
81(5) . . .
73(4) . . .
87(5) . . .
87(5) . . .
74(5) . . .
73(5) . . .
76(5) . . .
80(5) . . .
72(5) . . .
84(5) . . .
89(5) . . .
76(5) . . .
69(5) . . .
77(5) . . .
74(5) . . .
63(4) . . .
75(5) . . .
91(5) . . .
76(5) . . .
83(5) . . .
81(5) . . .
78(5) . . .
82(5) . . .
78(5) . . .
71(5) . . .
78(5) . . .
87(5) . . .
72(4) . . .
79(5) . . .
72(5) . . .
74(4) . . .
69(4) . . .
72(5) . . .
76(5) . . .
85(5) . . .
87(5) . . .
94(5) . . .
67(4) . . .
74(5) . . .
71(5) . . .
82(5) . . .
84(5) . . .
63(4) . . .
67(5) . . .
73(5) . . .
77(5) . . .
72(4) . . .
84(5) . . .
86(5) . . .
77(5) . . .
69(4) . . .
90(5) . . .
83(5) . . .
82(5) . . .
88(5) . . .
85(5) . . .
74(5) . . .
82(5) . . .
77(5) . . .
72(4) . . .
64(4) . . .
79(5) . . .
76(5) . . .
73(4) . . .
87(5) . . .
79(5) . . .
80(5) . . .
87(5) . . .
80(5) . . .
70(4) . . .
79(5) . . .
77(5) . . .
75(5) . . .
76(5) . . .
78(5) . . .
75(4) . . .
78(5) . . .
81(5) . . .
74(5) . . .
93(5) . . .
82(5) . . .
82(5) . . .
79(5) . . .
88(5) . . .
83(5) . . .
78(5) . . .
79(5) . . .
70(4) . . .
73(5) . . .
77(5) . . .
80(5) . . .
77(5) . . .
87(5) . . .
100(5) . . .
86(5) . . .
76(5) . . .
85(5) . . .
68(4) . . .
80(5) . . .
79(5) . . .
68(4) . . .
81(5) . . .
77(5) . . .
75(5) . . .
80(5) . . .
83(5) . . .
86(5) . . .
84(5) . . .
85(5) . . .
78(5) . . .
92(5) . . .
88(5) . . .
85(5) . . .
82(5) . . .
67(4) . . .
69(4) . . .
84(5) . . .
83(5) . . .
87(5) . . .
70(4) . . .
78(5) . . .
88(5) . . .
87(5) . . .
89(5) . . .
75(4) . . .
58(4) . . .
80(5) . . .
91(5) . . .
80(5) . . .
80(5) . . .
80(5) . . .
75(5) . . .
70(5) . . .
75(4) . . .
75(5) . . .
74(5) . . .
80(5) . . .
69(5) . . .
90(5) . . .
71(4) . . .
71(5) . . .
78(5) . . .
81(5) . . .
82(5) . . .
86(5) . . .
91(5) . . .
78(5) . . .
79(5) . . .
75(5) . . .
73(5) . . .
82(5) . . .
93(5) . . .
76(5) . . .
75(4) . . .
92(5) . . .
78(5) . . .
73(5) . . .
65(4) . . .
81(5) . . .
86(5) . . .
80(5) . . .
82(5) . . .
88(5) . . .
80(5) . . .
81(5) . . .
70(4) . . .
90(5) . . .
79(5) . . .
62(4) . . .
82(5) . . .
75(5) . . .
83(5) . . .
71(4) . . .
82(5) . . .
79(5) . . .
84(5) . . .
76(5) . . .
84(5) . . .
73(4) . . .
87(5) . . .
87(5) . . .
72(5) . . .
83(5) . . .
74(4) . . .
70(4) . . .
74(5) . . .
85(5) . . .
76(5) . . .
75(4) . . .
85(5) . . .
90(5) . . .
89(5) . . .
68(4) . . .
72(4) . . .
75(5) . . .
62(4) . . .
68(4) . . .
87(5) . . .
82(5) . . .
76(5) . . .
78(5) . . .
88(5) . . .
74(4) . . .
75(5) . . .
77(5) . . .
76(5) . . .
78(5) . . .
72(4) . . .
72(5) . . .
84(5) . . .
70(4) . . .
72(4) . . .
87(5) . . .
67(4) . . .
75(5) . . .
60(4) . . .
68(4) . . .
81(5) . . .
79(5) . . .
63(4) . . .
70(5) . . .
78(5) . . .
83(5) . . .
80(5) . . .
66(4) . . .
70(4) . . .
70(4) . . .
74(4) . . .
84(5) . . .
77(5) . . .
78(5) . . .
84(5) . . .
57(4) . . .
74(4) . . .
79(5) . . .
83(5) . . .
74(4) . . .
71(4) . . .
89(5) . . .
94(5) . . .
67(4) . . .
74(4) . . .
82(5) . . .
82(5) . . .
69(5) . . .
64(4) . . .
68(4) . . .
82(5) . . .
83(5) . . .
73(5) . . .
62(4) . . .
72(4) . . .
73(5) . . .
71(5) . . .
76(5) . . .
77(5) . . .
66(4) . . .
86(5) . . .
67(4) . . .
76(5) . . .
82(5) . . .
80(5) . . .
75(5) . . .
89(5) . . .
79(5) . . .
75(5) . . .
84(5) . . .
82(5) . . .
80(5) . . .
77(5) . . .
75(5) . . .
88(5) . . .
79(5) . . .
74(5) . . .
81(5) . . .
80(5) . . .
72(4) . . .
64(4) . . .
68(5) . . .
70(4) . . .
81(5) . . .
71(4) . . .
74(4) . . .
80(5) . . .
76(5) . . .
76(5) . . .
68(4) . . .
78(5) . . .
84(5) . . .
81(5) . . .
70(4) . . .
74(5) . . .
74(5) . . .
80(5) . . .
74(5) . . .
91(5) . . .
77(5) . . .
72(5) . . .
73(5) . . .
74(5) . . .
76(4) . . .
89(5) . . .
75(5) . . .
77(5) . . .
75(4) . . .
72(4) . . .
81(5) . . .
82(5) . . .
69(4) . . .
75(5) . . .
94(5) . . .
77(5) . . .
77(5) . . .
76(5) . . .
83(5) . . .
76(5) . . .
87(5) . . .
83(5) . . .
76(5) . . .
75(5) . . .
78(5) . . .
73(5) . . .
65(4) . . .
69(5) . . .
80(5) . . .
75(4) . . .
69(4) . . .
77(5) . . .
92(5) . . .
86(5) . . .
77(5) . . .
74(5) . . .
73(5) . . .
77(5) . . .
84(5) . . .
87(5) . . .
70(4) . . .
79(5) . . .
74(5) . . .
94(5) . . .
77(5) . . .
74(5) . . .
92(5) . . .
80(5) . . .
63(4) . . .
64(4) . . .
69(4) . . .
89(5) . . .
79(5) . . .
66(4) . . .
74(5) . . .
77(5) . . .
69(4) . . .
71(4) . . .
79(5) . . .
86(5) . . .
70(4) . . .
74(5) . . .
78(5) . . .
71(4) . . .
83(5) . . .
79(5) . . .
79(5) . . .
70(4) . . .
90(5) . . .
81(5) . . .
85(5) . . .
77(5) . . .
79(5) . . .
75(5) . . .
55(4) . . .
70(5) . . .
80(5) . . .
78(5) . . .
81(5) . . .
75(5) . . .
80(5) . . .
73(5) . . .
82(5) . . .
83(5) . . .
77(5) . . .
84(5) . . .
78(5) . . .
67(4) . . .
74(5) . . .
80(5) . . .
70(5) . . .
76(5) . . .
78(5) . . .
75(5) . . .
90(5) . . .
77(5) . . .
72(4) . . .
85(5) . . .
87(5) . . .
69(4) . . .
76(5) . . .
78(5) . . .
73(4) . . .
86(5) . . .
76(5) . . .
69(4) . . .
83(5) . . .
91(5) . . .
76(5) . . .
90(5) . . .
76(5) . . .
68(4) . . .
71(4) . . .
75(5) . . .
77(5) . . .
75(4) . . .
86(5) . . .
74(4) . . .
82(5) . . .
66(4) . . .
72(5) . . .
76(5) . . .
84(5) . . .
72(4) . . .
76(5) . . .
82(5) . . .
72(4) . . .
82(5) . . .
82(5) . . .
76(5) . . .
72(4) . . .
76(4) . . .
83(5) . . .
79(5) . . .
81(5) . . .
89(5) . . .
84(5) . . .
75(5) . . .
74(5) . . .
68(4) . . .
75(5) . . .
77(5) . . .
80(5) . . .
85(5) . . .
71(4) . . .
73(5) . . .
78(5) . . .
85(5) . . .
82(5) . . .
77(5) . . .
79(5) . . .
79(5) . . .
71(5) . . .
65(4) . . .
67(4) . . .
78(5) . . .
79(5) . . .
93(5) . . .
76(5) . . .
86(5) . . .
60(4) . . .
70(4) . . .
84(5) . . .
62(4) . . .
73(5) . . .
69(4) . . .
69(4) . . .
85(5) . . .
78(5) . . .
79(5) . . .
82(5) . . .
89(5) . . .
82(5) . . .
74(5) . . .
82(5) . . .
82(5) . . .
80(5) . . .
88(5) . . .
78(5) . . .
86(5) . . .
86(5) . . .
92(5) . . .
74(5) . . .
77(5) . . .
74(5) . . .
67(4) . . .
79(5) . . .
73(4) . . .
80(5) . . .
79(5) . . .
76(5) . . .
71(4) . . .
67(4) . . .
73(5) . . .
75(5) . . .
74(4) . . .
74(4) . . .
76(5) . . .
78(5) . . .
95(5) . . .
83(5) . . .
70(4) . . .
72(4) . . .
77(5) . . .
78(5) . . .
74(4) . . .
80(5) . . .
80(5) . . .
83(5) . . .
86(5) . . .
76(5) . . .
75(5) . . .
85(5) . . .
81(5) . . .
74(5) . . .
73(4) . . .
81(5) . . .
76(5) . . .
75(5) . . .
84(5) . . .
71(4) . . .
70(5) . . .
80(5) . . .
77(5) . . .
72(4) . . .
68(4) . . .
70(4) . . .
87(5) . . .
82(5) . . .
81(5) . . .
79(5) . . .
77(5) . . .
76(5) . . .
81(5) . . .
76(5) . . .
82(5) . . .
78(5) . . .
80(5) . . .
73(4) . . .
80(5) . . .
65(4) . . .
73(5) . . .
87(5) . . .
82(5) . . .
76(4) . . .
81(5) . . .
82(5) . . .
70(4) . . .
71(5) . . .
90(5) . . .
82(5) . . .
75(5) . . .
62(4) . . .
74(5) . . .
85(5) . . .
81(5) . . .
84(5) . . .
72(4) . . .
72(4) . . .
80(5) . . .
75(5) . . .
77(5) . . .
76(5) . . .
83(5) . . .
77(5) . . .
82(5) . . .
69(4) . . .
93(5) . . .
80(5) . . .
71(4) . . .
78(5) . . .
81(5) . . .
71(5) . . .
63(4) . . .
71(4) . . .
66(4) . . .
79(5) . . .
70(5) . . .
76(4) . . .
74(5) . . .
75(5) . . .
69(5) . . .
78(5) . . .
76(5) . . .
70(4) . . .
70(4) . . .
74(5) . . .
80(5) . . .
85(5) . . .
74(5) . . .
71(5) . . .
69(4) . . .
92(5) . . .
76(5) . . .
94(5) . . .
71(4) . . .
69(4) . . .
81(5) . . .
72(4) . . .
78(5) . . .
76(4) . . .
73(4) . . .
77(5) . . .
72(4) . . .
88(5) . . .
72(4) . . .
78(5) . . .
83(5) . . .
74(4) . . .
79(5) . . .
89(5) . . .
81(5) . . .
76(5) . . .
83(5) . . .
89(5) . . .
71(4) . . .
73(5) . . .
77(5) . . .
69(4) . . .
76(5) . . .
66(4) . . .
77(5) . . .
88(5) . . .
83(5) . . .
75(5) . . .
92(6) . . .
75(5) . . .
78(5) . . .
73(4) . . .
74(5) . . .
79(5) . . .
78(5) . . .
73(5) . . .
82(5) . . .
81(5) . . .
72(5) . . .
72(5) . . .
71(4) . . .
73(4) . . .
76(5) . . .
78(5) . . .
77(5) . . .
73(4) . . .
73(4) . . .
81(5) . . .
68(5) . . .
80(5) . . .
63(4) . . .
75(5) . . .
67(4) . . .
83(5) . . .
79(5) . . .
78(5) . . .
76(5) . . .
72(5) . . .
73(5) . . .
71(5) . . .
79(5) . . .
75(5) . . .
63(4) . . .
68(4) . . .
77(5) . . .
66(4) . . .
78(5) . . .
66(4) . . .
77(5) . . .
83(5) . . .
86(5) . . .
74(5) . . .
78(5) . . .
75(5) . . .
73(5) . . .
73(4) . . .
71(5) . . .
81(5) . . .
82(5) . . .
71(5) . . .
64(4) . . .
81(5) . . .
79(5) . . .
78(5) . . .
84(5) . . .
88(5) . . .
81(5) . . .
77(5) . . .
80(5) . . .
74(5) . . .
65(4) . . .
80(5) . . .
87(5) . . .
68(4) . . .
78(5) . . .
78(5) . . .
68(5) . . .
70(5) . . .
79(5) . . .
77(5) . . .
70(4) . . .
76(5) . . .
77(5) . . .
74(5) . . .
68(4) . . .
61(4) . . .
71(5) . . .
68(5) . . .
73(5) . . .
72(4) . . .
94(5) . . .
74(5) . . .
76(5) . . .
80(5) . . .
76(4) . . .
75(5) . . .
77(5) . . .
70(4) . . .
81(5) . . .
68(4) . . .
82(5) . . .
74(5) . . .
79(5) . . .
81(5) . . .
84(5) . . .
99(5) . . .
85(5) . . .
76(5) . . .
80(5) . . .
70(4) . . .
57(4) . . .
70(5) . . .
73(5) . . .
77(5) . . .
82(5) . . .
76(5) . . .
75(5) . . .
74(5) . . .
81(5) . . .
71(4) . . .
77(5) . . .
88(5) . . .
78(5) . . .
100(5) . . .
77(5) . . .
74(5) . . .
76(5) . . .
83(5) . . .
82(5) . . .
84(5) . . .
77(5) . . .
74(5) . . .
72(5) . . .
69(4) . . .
65(4) . . .
71(4) . . .
76(5) . . .
74(5) . . .
74(4) . . .
71(4) . . .
67(4) . . .
74(5) . . .
66(4) . . .
74(5) . . .
80(5) . . .
79(5) . . .
75(5) . . .
65(4) . . .
67(4) . . .
67(4) . . .
60(4) . . .
75(5) . . .
85(5) . . .
73(4) . . .
72(5) . . .
74(5) . . .
71(5) . . .
71(4) . . .
77(5) . . .
79(5) . . .
70(5) . . .
67(5) . . .
85(5) . . .
73(4) . . .
72(5) . . .
79(5) . . .
75(5) . . .
74(5) . . .
70(4) . . .
70(5) . . .
86(5) . . .
78(5) . . .
84(5) . . .
71(4) . . .
68(4) . . .
76(5) . . .
66(4) . . .
83(5) . . .
79(5) . . .
79(5) . . .
72(5) . . .
77(5) . . .
72(4) . . .
86(5) . . .
66(4) . . .
74(5) . . .
82(5) . . .
70(4) . . .
77(5) . . .
86(5) . . .
74(5) . . .
76(5) . . .
74(5) . . .
78(5) . . .
71(4) . . .
76(5) . . .
91(5) . . .
79(5) . . .
78(5) . . .
74(5) . . .
69(5) . . .
85(5) . . .
76(5) . . .
66(4) . . .
72(5) . . .
69(4) . . .
73(5) . . .
67(4) . . .
78(5) . . .
74(5) . . .
69(5) . . .
68(4) . . .
79(5) . . .
82(5) . . .
76(5) . . .
74(5) . . .
76(5) . . .
74(4) . . .
64(4) . . .
76(5) . . .
80(5) . . .
74(4) . . .
63(4) . . .
81(5) . . .
60(4) . . .
65(4) . . .
72(4) . . .
63(4) . . .
61(4) . . .
68(5) . . .
73(5) . . .
77(5) . . .
68(4) . . .
67(4) . . .
75(5) . . .
67(4) . . .
70(4) . . .
79(5) . . .
69(5) . . .
76(5) . . .
70(4) . . .
73(4) . . .
82(5) . . .
77(5) . . .
79(5) . . .
72(5) . . .
84(5) . . .
83(5) . . .
86(5) . . .
63(4) . . .
68(4) . . .
72(4) . . .
83(5) . . .
71(5) . . .
77(5) . . .
68(4) . . .
68(4) . . .
80(5) . . .
77(5) . . .
71(4) . . .
79(5) . . .
76(5) . . .
75(5) . . .
71(5) . . .
73(5) . . .
62(4) . . .
76(5) . . .
70(4) . . .
76(5) . . .
62(4) . . .
68(4) . . .
68(4) . . .
75(5) . . .
86(5) . . .
76(5) . . .
79(5) . . .
74(4) . . .
88(5) . . .
84(5) . . .
71(5) . . .
69(4) . . .
66(4) . . .
73(5) . . .
65(4) . . .
61(4) . . .
75(5) . . .
85(5) . . .
77(5) . . .
77(5) . . .
84(5) . . .
67(4) . . .
67(4) . . .
66(4) . . .
66(4) . . .
66(4) . . .
67(4) . . .
74(5) . . .
74(5) . . .
65(4) . . .
69(4) . . .
79(5) . . .
78(5) . . .
73(5) . . .
77(5) . . .
74(5) . . .
71(4) . . .
69(4) . . .
75(5) . . .
70(5) . . .
65(4) . . .
57(4) . . .
72(5) . . .
54(4) . . .
65(4) . . .
79(5) . . .
71(4) . . .
70(4) . . .
69(5) . . .
85(5) . . .
66(4) . . .
92(5) . . .
70(4) . . .
74(5) . . .
79(5) . . .
74(4) . . .
76(5) . . .
82(5) . . .
72(5) . . .
84(5) . . .
75(4) . . .
72(4) . . .
69(5) . . .
67(4) . . .
61(4) . . .
75(5) . . .
69(4) . . .
70(4) . . .
65(4) . . .
65(4) . . .
71(4) . . .
70(4) . . .
68(4) . . .
77(5) . . .
80(5) . . .
81(5) . . .
66(4) . . .
77(5) . . .
75(5) . . .
72(5) . . .
74(4) . . .
67(4) . . .
76(5) . . .
80(5) . . .
91(5) . . .
71(4) . . .
85(5) . . .
82(5) . . .
71(4) . . .
69(4) . . .
70(4) . . .
72(5) . . .
68(5) . . .
82(5) . . .
71(4) . . .
71(5) . . .
68(4) . . .
61(4) . . .
69(5) . . .
79(5) . . .
83(5) . . .
80(5) . . .
72(5) . . .
72(4) . . .
84(5) . . .
76(5) . . .
71(5) . . .
72(5) . . .
66(4) . . .
70(4) . . .
68(4) . . .
72(5) . . .
64(4) . . .
66(4) . . .
71(4) . . .
71(4) . . .
68(4) . . .
75(5) . . .
74(5) . . .
67(4) . . .
71(5) . . .
67(4) . . .
73(5) . . .
62(4) . . .
60(4) . . .
72(5) . . .
73(5) . . .
69(5) . . .
65(4) . . .
74(5) . . .
70(5) . . .
70(5) . . .
68(4) . . .
76(5) . . .
78(5) . . .
81(5) . . .
75(5) . . .
74(4) . . .
86(5) . . .
85(5) . . .
68(4) . . .
75(5) . . .
73(5) . . .
84(5) . . .
75(4) . . .
76(5) . . .
68(5) . . .
64(4) . . .
66(4) . . .
79(5) . . .
76(5) . . .
71(5) . . .
80(5) . . .
72(4) . . .
74(5) . . .
78(5) . . .
69(4) . . .
58(4) . . .
54(4) . . .
73(5) . . .
66(4) . . .
66(5) . . .
61(4) . . .
69(4) . . .
74(4) . . .
83(5) . . .
69(5) . . .
81(5) . . .
74(5) . . .
80(5) . . .
77(5) . . .
66(4) . . .
74(5) . . .
64(4) . . .
76(5) . . .
74(5) . . .
75(5) . . .
77(5) . . .
72(4) . . .
92(5) . . .
65(4) . . .
77(5) . . .
71(4) . . .
64(4) . . .
72(5) . . .
66(4) . . .
71(5) . . .
66(4) . . .
70(4) . . .
80(5) . . .
71(5) . . .
60(4) . . .
79(5) . . .
82(5) . . .
64(4) . . .
70(5) . . .
80(5) . . .
75(4) . . .
69(4) . . .
60(4) . . .
77(5) . . .
80(5) . . .
73(4) . . .
85(5) . . .
80(5) . . .
70(5) . . .
77(5) . . .
72(4) . . .
82(5) . . .
73(5) . . .
69(5) . . .
73(5) . . .
79(5) . . .
63(4) . . .
68(5) . . .
76(5) . . .
65(4) . . .
70(4) . . .
69(5) . . .
66(4) . . .
75(5) . . .
73(5) . . .
85(5) . . .
71(4) . . .
70(4) . . .
73(5) . . .
65(4) . . .
70(4) . . .
73(5) . . .
72(5) . . .
78(5) . . .
75(5) . . .
57(4) . . .
74(5) . . .
75(5) . . .
72(5) . . .
75(5) . . .
74(4) . . .
70(5) . . .
72(5) . . .
66(4) . . .
73(4) . . .
63(4) . . .
61(4) . . .
54(4) . . .
62(4) . . .
59(4) . . .
81(5) . . .
76(5) . . .
71(5) . . .
88(5) . . .
84(5) . . .
66(4) . . .
66(5) . . .
64(4) . . .
76(5) . . .
80(5) . . .
67(4) . . .
68(4) . . .
72(5) . . .
66(4) . . .
66(4) . . .
64(4) . . .
82(5) . . .
70(5) . . .
71(5) . . .
72(4) . . .
65(4) . . .
66(4) . . .
60(4) . . .
63(4) . . .
79(5) . . .
85(5) . . .
75(5) . . .
70(4) . . .
73(5) . . .
64(4) . . .
69(4) . . .
65(4) . . .
71(5) . . .
83(5) . . .
67(4) . . .
73(5) . . .
74(5) . . .
69(4) . . .
78(5) . . .
68(4) . . .
67(4) . . .
67(4) . . .
78(5) . . .
69(4) . . .
67(4) . . .
69(4) . . .
78(5) . . .
74(5) . . .
75(5) . . .
78(5) . . .
68(4) . . .
83(5) . . .
68(4) . . .
75(5) . . .
76(5) . . .
72(5) . . .
70(5) . . .
61(4) . . .
68(4) . . .
75(5) . . .
76(5) . . .
66(4) . . .
78(5) . . .
75(5) . . .
74(5) . . .
70(5) . . .
76(5) . . .
58(4) . . .
69(4) . . .
73(4) . . .
59(4) . . .
55(4) . . .
65(4) . . .
77(5) . . .
76(5) . . .
75(5) . . .
67(4) . . .
79(5) . . .
70(4) . . .
82(5) . . .
69(5) . . .
71(5) . . .
67(4) . . .
78(5) . . .
72(5) . . .
69(4) . . .
81(5) . . .
87(5) . . .
77(5) . . .
67(4) . . .
67(4) . . .
82(5) . . .
63(4) . . .
72(4) . . .
79(5) . . .
69(5) . . .
73(5) . . .
76(5) . . .
73(4) . . .
60(4) . . .
64(4) . . .
78(5) . . .
64(4) . . .
80(5) . . .
68(5) . . .
64(4) . . .
67(4) . . .
66(4) . . .
71(4) . . .
71(4) . . .
82(5) . . .
75(5) . . .
70(4) . . .
76(5) . . .
64(4) . . .
60(4) . . .
75(5) . . .
60(4) . . .
55(4) . . .
69(4) . . .
74(5) . . .
80(5) . . .
76(5) . . .
68(4) . . .
71(5) . . .
71(5) . . .
68(5) . . .
69(4) . . .
80(5) . . .
79(5) . . .
64(4) . . .
74(5) . . .
77(5) . . .
93(5) . . .
66(4) . . .
81(5) . . .
75(5) . . .
66(4) . . .
66(4) . . .
74(5) . . .
68(4) . . .
61(4) . . .
76(5) . . .
65(4) . . .
69(5) . . .
67(4) . . .
71(4) . . .
77(5) . . .
68(4) . . .
77(5) . . .
87(5) . . .
65(4) . . .
63(4) . . .
69(5) . . .
66(5) . . .
64(4) . . .
73(4) . . .
69(4) . . .
72(5) . . .
73(5) . . .
71(4) . . .
61(4) . . .
61(4) . . .
57(4) . . .
65(5) . . .
74(5) . . .
77(5) . . .
75(4) . . .
74(4) . . .
84(5) . . .
73(5) . . .
65(4) . . .
64(4) . . .
60(4) . . .
72(5) . . .
62(4) . . .
71(4) . . .
86(5) . . .
82(5) . . .
74(5) . . .
71(4) . . .
72(4) . . .
72(4) . . .
72(4) . . .
85(5) . . .
79(5) . . .
70(4) . . .
76(5) . . .
66(4) . . .
65(4) . . .
68(4) . . .
71(4) . . .
67(4) . . .
68(4) . . .
81(5) . . .
74(5) . . .
74(4) . . .
72(5) . . .
69(5) . . .
69(4) . . .
57(4) . . .
74(4) . . .
82(5) . . .
78(5) . . .
62(4) . . .
72(4) . . .
74(4) . . .
75(5) . . .
67(5) . . .
62(4) . . .
63(4) . . .
79(5) . . .
66(5) . . .
60(4) . . .
85(5) . . .
69(4) . . .
71(4) . . .
67(4) . . .
80(5) . . .
72(5) . . .
74(4) . . .
68(4) . . .
63(4) . . .
75(5) . . .
68(5) . . .
70(4) . . .
74(5) . . .
63(4) . . .
60(4) . . .
69(4) . . .
70(4) . . .
74(5) . . .
70(5) . . .
68(5) . . .
65(4) . . .
75(4) . . .
60(4) . . .
75(5) . . .
78(5) . . .
82(5) . . .
78(5) . . .
71(5) . . .
70(5) . . .
54(4) . . .
70(4) . . .
69(4) . . .
68(5) . . .
61(4) . . .
66(4) . . .
78(5) . . .
69(4) . . .
63(4) . . .
67(5) . . .
84(5) . . .
80(5) . . .
70(4) . . .
71(4) . . .
78(5) . . .
74(4) . . .
68(4) . . .
68(4) . . .
72(4) . . .
71(4) . . .
78(5) . . .
72(4) . . .
59(4) . . .
70(4) . . .
79(5) . . .
75(5) . . .
80(5) . . .
78(5) . . .
69(4) . . .
76(5) . . .
67(4) . . .
69(4) . . .
75(5) . . .
64(4) . . .
69(4) . . .
63(4) . . .
72(4) . . .
63(4) . . .
65(4) . . .
68(4) . . .
66(4) . . .
67(4) . . .
62(4) . . .
70(5) . . .
72(5) . . .
80(5) . . .
63(4) . . .
73(5) . . .
63(4) . . .
63(4) . . .
52(4) . . .
72(4) . . .
67(4) . . .
57(4) . . .
63(4) . . .
78(5) . . .
78(5) . . .
62(4) . . .
78(5) . . .
55(4) . . .
69(4) . . .
70(4) . . .
75(5) . . .
75(5) . . .
76(5) . . .
62(4) . . .
65(4) . . .
67(4) . . .
81(5) . . .
64(4) . . .
72(4) . . .
69(4) . . .
69(4) . . .
64(4) . . .
72(5) . . .
60(4) . . .
67(4) . . .
76(5) . . .
61(4) . . .
58(4) . . .
70(4) . . .
67(4) . . .
67(4) . . .
70(5) . . .
72(4) . . .
65(4) . . .
67(4) . . .
72(5) . . .
63(4) . . .
72(5) . . .
64(4) . . .
61(4) . . .
79(5) . . .
67(4) . . .
71(5) . . .
58(4) . . .
73(5) . . .
75(5) . . .
70(5) . . .
67(4) . . .
71(4) . . .
72(5) . . .
66(5) . . .
81(5) . . .
69(4) . . .
64(4) . . .
74(5) . . .
77(5) . . .
76(5) . . .
73(5) . . .
68(4) . . .
73(5) . . .
73(5) . . .
70(4) . . .
62(4) . . .
64(4) . . .
73(5) . . .
65(4) . . .
67(4) . . .
63(4) . . .
70(5) . . .
74(4) . . .
79(5) . . .
65(4) . . .
78(5) . . .
65(4) . . .
66(4) . . .
64(4) . . .
76(5) . . .
64(4) . . .
75(4) . . .
75(5) . . .
58(4) . . .
57(4) . . .
65(4) . . .
71(4) . . .
55(4) . . .
71(5) . . .
77(5) . . .
81(5) . . .
64(4) . . .
65(4) . . .
77(5) . . .
70(4) . . .
67(4) . . .
53(4) . . .
64(4) . . .
76(5) . . .
76(5) . . .
71(4) . . .
66(4) . . .
63(4) . . .
61(4) . . .
70(4) . . .
66(4) . . .
66(4) . . .
64(5) . . .
65(4) . . .
74(5) . . .
65(4) . . .
69(5) . . .
75(5) . . .
65(4) . . .
70(4) . . .
66(4) . . .
60(4) . . .
74(5) . . .
70(4) . . .
72(4) . . .
75(4) . . .
63(4) . . .
64(4) . . .
68(4) . . .
75(5) . . .
75(4) . . .
73(5) . . .
78(5) . . .
74(5) . . .
68(4) . . .
59(4) . . .
68(4) . . .
70(4) . . .
69(4) . . .
66(4) . . .
68(4) . . .
71(5) . . .
67(4) . . .
64(4) . . .
71(4) . . .
72(4) . . .
68(4) . . .
73(5) . . .
74(5) . . .
64(4) . . .
81(5) . . .
67(4) . . .
76(5) . . .
68(4) . . .
71(4) . . .
64(4) . . .
60(4) . . .
71(5) . . .
76(5) . . .
70(4) . . .
65(4) . . .
62(4) . . .
70(4) . . .
78(5) . . .
65(4) . . .
73(5) . . .
68(5) . . .
66(4) . . .
58(4) . . .
68(4) . . .
65(4) . . .
71(5) . . .
71(4) . . .
71(4) . . .
70(4) . . .
67(4) . . .
79(5) . . .
63(4) . . .
72(4) . . .
70(4) . . .
73(5) . . .
65(4) . . .
63(4) . . .
69(4) . . .
59(4) . . .
63(4) . . .
59(4) . . .
63(4) . . .
75(4) . . .
72(4) . . .
66(4) . . .
62(4) . . .
77(5) . . .
68(4) . . .
62(4) . . .
61(4) . . .
60(4) . . .
75(5) . . .
65(4) . . .
66(4) . . .
74(5) . . .
68(4) . . .
76(5) . . .
57(4) . . .
60(4) . . .
66(4) . . .
73(5) . . .
61(4) . . .
67(4) . . .
64(4) . . .
68(5) . . .
78(5) . . .
67(4) . . .
68(4) . . .
71(5) . . .
48(4) . . .
69(4) . . .
62(4) . . .
64(4) . . .
65(4) . . .
67(5) . . .
56(4) . . .
78(5) . . .
65(4) . . .
53(4) . . .
66(5) . . .
70(4) . . .
82(5) . . .
60(4) . . .
78(5) . . .
70(4) . . .
71(4) . . .
53(4) . . .
69(4) . . .
74(5) . . .
69(5) . . .
64(4) . . .
69(4) . . .
67(4) . . .
65(4) . . .
64(4) . . .
63(4) . . .
71(4) . . .
70(4) . . .
72(5) . . .
62(4) . . .
61(4) . . .
68(4) . . .
64(4) . . .
71(4) . . .
75(5) . . .
68(4) . . .
59(4) . . .
57(4) . . .
62(4) . . .
64(4) . . .
71(4) . . .
67(4) . . .
67(4) . . .
59(4) . . .
72(5) . . .
76(4) . . .
84(5) . . .
64(4) . . .
52(4) . . .
65(4) . . .
61(4) . . .
68(4) . . .
65(4) . . .
51(4) . . .
65(4) . . .
62(4) . . .
52(4) . . .
61(4) . . .
63(4) . . .
64(4) . . .
71(4) . . .
70(4) . . .
60(4) . . .
65(5) . . .
58(4) . . .
74(4) . . .
67(4) . . .
72(5) . . .
69(5) . . .
65(4) . . .
77(5) . . .
74(5) . . .
63(4) . . .
64(4) . . .
65(4) . . .
66(4) . . .
73(4) . . .
62(4) . . .
74(5) . . .
66(4) . . .
66(4) . . .
61(4) . . .
63(4) . . .
70(5) . . .
68(4) . . .
74(4) . . .
74(5) . . .
62(4) . . .
57(4) . . .
61(4) . . .
66(4) . . .
61(4) . . .
69(4) . . .
71(5) . . .
63(4) . . .
65(4) . . .
72(5) . . .
76(5) . . .
74(5) . . .
68(4) . . .
71(4) . . .
70(5) . . .
63(5) . . .
53(4) . . .
57(4) . . .
73(4) . . .
61(4) . . .
64(4) . . .
63(4) . . .
61(4) . . .
50(4) . . .
67(4) . . .
65(4) . . .
56(4) . . .
58(4) . . .
66(4) . . .
66(4) . . .
73(5) . . .
77(5) . . .
80(5) . . .
69(4) . . .
64(4) . . .
67(4) . . .
72(5) . . .
67(4) . . .
61(4) . . .
58(4) . . .
67(4) . . .
61(4) . . .
71(4) . . .
71(4) . . .
67(4) . . .
60(4) . . .
62(4) . . .
78(5) . . .
73(4) . . .
64(4) . . .
56(4) . . .
60(4) . . .
69(4) . . .
67(4) . . .
67(5) . . .
68(4) . . .
55(4) . . .
63(4) . . .
66(4) . . .
74(5) . . .
75(5) . . .
60(4) . . .
66(4) . . .
75(5) . . .
71(5) . . .
60(4) . . .
56(4) . . .
74(5) . . .
75(5) . . .
61(5) . . .
55(4) . . .
67(4) . . .
76(5) . . .
62(4) . . .
60(4) . . .
58(4) . . .
53(4) . . .
58(4) . . .
67(4) . . .
71(5) . . .
63(4) . . .
75(5) . . .
68(4) . . .
59(4) . . .
70(5) . . .
60(4) . . .
56(4) . . .
69(4) . . .
67(4) . . .
68(4) . . .
73(4) . . .
67(4) . . .
77(5) . . .
60(4) . . .
75(5) . . .
79(5) . . .
65(4) . . .
70(5) . . .
60(4) . . .
67(4) . . .
62(4) . . .
60(4) . . .
70(5) . . .
68(5) . . .
66(5) . . .
68(5) . . .
66(4) . . .
66(4) . . .
66(5) . . .
65(4) . . .
70(5) . . .
56(4) . . .
66(4) . . .
67(5) . . .
60(4) . . .
63(4) . . .
63(4) . . .
63(4) . . .
64(4) . . .
61(4) . . .
57(4) . . .
67(4) . . .
64(4) . . .
65(4) . . .
67(4) . . .
64(4) . . .
66(4) . . .
63(4) . . .
74(5) . . .
59(4) . . .
71(4) . . .
60(4) . . .
71(5) . . .
53(4) . . .
70(5) . . .
62(4) . . .
72(5) . . .
76(5) . . .
52(4) . . .
59(4) . . .
59(4) . . .
69(5) . . .
56(4) . . .
63(4) . . .
78(5) . . .
76(5) . . .
74(5) . . .
71(5) . . .
52(4) . . .
71(5) . . .
69(4) . . .
60(4) . . .
64(4) . . .
68(4) . . .
65(4) . . .
62(4) . . .
64(5) . . .
61(4) . . .
58(4) . . .
54(4) . . .
54(4) . . .
60(4) . . .
62(4) . . .
75(5) . . .
70(4) . . .
65(4) . . .
65(4) . . .
52(4) . . .
58(4) . . .
76(5) . . .
69(4) . . .
55(4) . . .
64(5) . . .
58(4) . . .
61(4) . . .
68(4) . . .
70(5) . . .
69(5) . . .
59(4) . . .
74(4) . . .
63(4) . . .
73(5) . . .
66(5) . . .
66(4) . . .
93(5) . . .
67(4) . . .
64(4) . . .
66(4) . . .
74(5) . . .
59(4) . . .
63(4) . . .
67(4) . . .
66(5) . . .
78(5) . . .
72(4) . . .
59(4) . . .
61(4) . . .
66(4) . . .
73(5) . . .
70(4) . . .
69(5) . . .
53(4) . . .
68(4) . . .
63(4) . . .
80(5) . . .
75(5) . . .
74(5) . . .
66(5) . . .
61(4) . . .
66(4) . . .
71(5) . . .
63(4) . . .
62(4) . . .
66(4) . . .
65(4) . . .
61(4) . . .
68(5) . . .
65(4) . . .
64(4) . . .
68(4) . . .
69(5) . . .
56(4) . . .
55(4) . . .
58(4) . . .
69(4) . . .
64(4) . . .
58(4) . . .
68(4) . . .
60(4) . . .
61(4) . . .
65(4) . . .
52(4) . . .
71(5) . . .
65(4) . . .
61(4) . . .
75(5) . . .
64(4) . . .
64(4) . . .
70(4) . . .
73(4) . . .
73(5) . . .
59(4) . . .
60(4) . . .
51(4) . . .
63(4) . . .
66(4) . . .
65(4) . . .
58(4) . . .
69(4) . . .
60(4) . . .
71(5) . . .
64(4) . . .
63(4) . . .
71(4) . . .
76(5) . . .
66(4) . . .
68(4) . . .
71(4) . . .
79(5) . . .
72(5) . . .
63(4) . . .
57(4) . . .
60(4) . . .
59(4) . . .
76(5) . . .
70(5) . . .
61(4) . . .
70(4) . . .
70(4) . . .
64(4) . . .
60(4) . . .
72(5) . . .
74(4) . . .
69(4) . . .
63(4) . . .
58(4) . . .
70(5) . . .
68(4) . . .
61(4) . . .
63(4) . . .
66(5) . . .
71(5) . . .
66(4) . . .
68(4) . . .
64(4) . . .
63(4) . . .
60(4) . . .
63(4) . . .
61(4) . . .
69(5) . . .
60(4) . . .
65(4) . . .
66(4) . . .
71(4) . . .
72(5) . . .
59(4) . . .
68(4) . . .
62(4) . . .
60(4) . . .
66(4) . . .
57(4) . . .
64(4) . . .
74(4) . . .
70(5) . . .
61(4) . . .
62(4) . . .
62(4) . . .
68(4) . . .
64(4) . . .
66(4) . . .
64(4) . . .
63(4) . . .
74(4) . . .
66(4) . . .
82(5) . . .
49(4) . . .
58(4) . . .
64(4) . . .
74(5) . . .
53(4) . . .
56(4) . . .
65(4) . . .
64(4) . . .
71(5) . . .
63(4) . . .
60(4) . . .
69(4) . . .
73(4) . . .
68(5) . . .
79(5) . . .
68(4) . . .
70(4) . . .
67(4) . . .
68(5) . . .
59(4) . . .
71(5) . . .
65(4) . . .
63(4) . . .
64(4) . . .
59(4) . . .
66(4) . . .
79(5) . . .
66(4) . . .
59(4) . . .
63(4) . . .
72(5) . . .
65(4) . . .
59(4) . . .
67(5) . . .
58(4) . . .
71(4) . . .
60(4) . . .
64(4) . . .
65(4) . . .
65(4) . . .
50(4) . . .
65(4) . . .
71(4) . . .
76(5) . . .
63(4) . . .
61(4) . . .
66(4) . . .
59(4) . . .
66(5) . . .
59(4) . . .
62(4) . . .
64(4) . . .
54(4) . . .
57(4) . . .
66(4) . . .
70(4) . . .
72(4) . . .
63(4) . . .
66(5) . . .
63(4) . . .
70(4) . . .
70(4) . . .
64(4) . . .
73(5) . . .
72(5) . . .
67(4) . . .
68(4) . . .
73(5) . . .
59(4) . . .
73(5) . . .
63(4) . . .
66(4) . . .
59(4) . . .
64(4) . . .
68(5) . . .
64(4) . . .
68(4) . . .
54(4) . . .
69(5) . . .
72(5) . . .
62(4) . . .
71(4) . . .
67(5) . . .
71(5) . . .
68(4) . . .
60(4) . . .
65(4) . . .
60(4) . . .
62(4) . . .
68(4) . . .
76(5) . . .
62(4) . . .
65(4) . . .
66(4) . . .
66(4) . . .
59(4) . . .
65(4) . . .
66(5) . . .
68(4) . . .
60(4) . . .
61(4) . . .
55(4) . . .
69(5) . . .
65(4) . . .
64(4) . . .
71(4) . . .
70(5) . . .
56(4) . . .
57(4) . . .
61(4) . . .
64(4) . . .
72(5) . . .
68(4) . . .
65(4) . . .
60(4) . . .
59(4) . . .
75(5) . . .
75(5) . . .
60(4) . . .
67(4) . . .
62(4) . . .
63(4) . . .
66(5) . . .
53(4) . . .
64(4) . . .
64(4) . . .
68(4) . . .
72(4) . . .
72(5) . . .
56(4) . . .
47(4) . . .
64(4) . . .
68(5) . . .
64(4) . . .
58(4) . . .
61(4) . . .
70(5) . . .
70(4) . . .
62(4) . . .
61(4) . . .
62(4) . . .
66(4) . . .
63(4) . . .
64(4) . . .
65(4) . . .
63(5) . . .
70(5) . . .
63(4) . . .
67(4) . . .
64(4) . . .
76(5) . . .
73(5) . . .
59(4) . . .
63(4) . . .
54(4) . . .
71(5) . . .
74(5) . . .
59(4) . . .
61(4) . . .
57(4) . . .
60(4) . . .
61(4) . . .
67(5) . . .
65(4) . . .
61(4) . . .
66(4) . . .
66(4) . . .
64(4) . . .
60(4) . . .
70(4) . . .
67(4) . . .
65(4) . . .
64(4) . . .
73(4) . . .
64(4) . . .
67(4) . . .
78(5) . . .
68(4) . . .
63(4) . . .
56(4) . . .
56(4) . . .
68(4) . . .
61(4) . . .
66(4) . . .
60(4) . . .
72(5) . . .
75(5) . . .
63(4) . . .
73(4) . . .
67(4) . . .
73(5) . . .
70(4) . . .
65(4) . . .
64(4) . . .
77(5) . . .
75(5) . . .
79(5) . . .
70(4) . . .
62(4) . . .
70(4) . . .
65(5) . . .
52(4) . . .
53(4) . . .
59(4) . . .
61(4) . . .
50(4) . . .
59(4) . . .
63(4) . . .
63(4) . . .
65(4) . . .
73(5) . . .
71(4) . . .
70(4) . . .
63(4) . . .
56(4) . . .
59(4) . . .
69(5) . . .
54(4) . . .
63(4) . . .
51(4) . . .
72(5) . . .
67(4) . . .
70(4) . . .
59(4) . . .
64(4) . . .
60(4) . . .
70(5) . . .
58(4) . . .
62(4) . . .
70(5) . . .
58(4) . . .
56(4) . . .
70(4) . . .
67(4) . . .
63(4) . . .
61(4) . . .
70(4) . . .
56(4) . . .
68(5) . . .
56(4) . . .
52(4) . . .
52(4) . . .
61(4) . . .
58(4) . . .
61(4) . . .
67(5) . . .
58(4) . . .
57(4) . . .
61(4) . . .
54(4) . . .
65(4) . . .
78(5) . . .
65(4) . . .
66(4) . . .
62(4) . . .
68(4) . . .
57(4) . . .
60(4) . . .
70(4) . . .
70(5) . . .
61(4) . . .
65(4) . . .
73(4) . . .
67(4) . . .
65(4) . . .
68(4) . . .
61(4) . . .
67(4) . . .
56(4) . . .
67(5) . . .
52(4) . . .
62(4) . . .
63(4) . . .
67(5) . . .
65(4) . . .
63(4) . . .
62(4) . . .
67(4) . . .
66(4) . . .
59(4) . . .
63(4) . . .
60(4) . . .
70(4) . . .
59(4) . . .
50(4) . . .
71(5) . . .
55(4) . . .
68(5) . . .
68(5) . . .
67(4) . . .
58(4) . . .
59(4) . . .
61(4) . . .
69(4) . . .
70(5) . . .
61(4) . . .
61(4) . . .
75(5) . . .
67(5) . . .
69(5) . . .
63(4) . . .
69(4) . . .
70(5) . . .
55(4) . . .
56(4) . . .
69(4) . . .
58(4) . . .
66(4) . . .
57(4) . . .
64(4) . . .
61(4) . . .
66(4) . . .
62(4) . . .
63(5) . . .
58(4) . . .
69(4) . . .
64(4) . . .
71(5) . . .
61(4) . . .
63(4) . . .
65(4) . . .
58(4) . . .
53(4) . . .
54(4) . . .
62(4) . . .
63(4) . . .
56(4) . . .
76(5) . . .
53(4) . . .
70(5) . . .
63(4) . . .
63(4) . . .
64(4) . . .
59(4) . . .
74(5) . . .
62(4) . . .
56(4) . . .
63(4) . . .
65(4) . . .
63(4) . . .
65(4) . . .
67(4) . . .
72(5) . . .
59(4) . . .
70(4) . . .
73(4) . . .
57(4) . . .
63(4) . . .
60(4) . . .
67(4) . . .
69(4) . . .
72(5) . . .
68(5) . . .
64(4) . . .
58(4) . . .
57(4) . . .
66(5) . . .
57(4) . . .
63(4) . . .
62(4) . . .
63(4) . . .
58(4) . . .
64(5) . . .
63(4) . . .
62(4) . . .
57(4) . . .
60(4) . . .
64(4) . . .
64(4) . . .
61(4) . . .
72(4) . . .
67(4) . . .
65(4) . . .
66(5) . . .
62(4) . . .
59(4) . . .
63(4) . . .
65(4) . . .
80(5) . . .
57(4) . . .
62(4) . . .
66(4) . . .
70(5) . . .
74(5) . . .
60(4) . . .
47(4) . . .
65(5) . . .
65(4) . . .
74(5) . . .
66(4) . . .
69(4) . . .
69(5) . . .
56(4) . . .
59(4) . . .
55(4) . . .
59(4) . . .
59(4) . . .
60(4) . . .
64(4) . . .
60(4) . . .
58(4) . . .
64(5) . . .
70(5) . . .
58(4) . . .
57(4) . . .
59(4) . . .
58(4) . . .
60(4) . . .
54(4) . . .
56(4) . . .
62(4) . . .
56(4) . . .
54(4) . . .
68(4) . . .
69(5) . . .
61(4) . . .
64(4) . . .
54(4) . . .
64(4) . . .
60(4) . . .
66(5) . . .
59(4) . . .
68(5) . . .
66(4) . . .
67(4) . . .
73(5) . . .
44.9(35) . . .
66(5) . . .
54(4) . . .
69(4) . . .
63(4) . . .
61(4) . . .
66(5) . . .
54(4) . . .
70(4) . . .
61(4) . . .
59(4) . . .
62(4) . . .
62(4) . . .
54(4) . . .
60(4) . . .
53(4) . . .
61(4) . . .
70(4) . . .
77(5) . . .
61(4) . . .
69(4) . . .
77(5) . . .
62(4) . . .
60(4) . . .
62(5) . . .
63(4) . . .
62(4) . . .
67(4) . . .
58(4) . . .
70(5) . . .
56(4) . . .
59(4) . . .
53(4) . . .
70(4) . . .
65(4) . . .
66(4) . . .
76(5) . . .
61(4) . . .
69(4) . . .
67(4) . . .
70(5) . . .
65(4) . . .
63(4) . . .
58(4) . . .
62(4) . . .
67(5) . . .
62(4) . . .
62(4) . . .
68(4) . . .
72(5) . . .
57(4) . . .
59(4) . . .
68(4) . . .
53(4) . . .
60(4) . . .
60(4) . . .
72(4) . . .
60(4) . . .
64(4) . . .
68(5) . . .
67(4) . . .
53(4) . . .
55(4) . . .
62(4) . . .
56(4) . . .
73(4) . . .
61(4) . . .
57(4) . . .
58(4) . . .
59(4) . . .
57(4) . . .
67(4) . . .
63(4) . . .
65(5) . . .
84(5) . . .
74(5) . . .
79(5) . . .
73(5) . . .
61(4) . . .
76(5) . . .
65(4) . . .
49(4) . . .
71(5) . . .
59(4) . . .
58(4) . . .
50(4) . . .
56(4) . . .
68(4) . . .
62(4) . . .
64(4) . . .
60(4) . . .
68(4) . . .
60(4) . . .
57(4) . . .
64(4) . . .
68(4) . . .
66(4) . . .
62(4) . . .
75(5) . . .
58(4) . . .
61(4) . . .
55(4) . . .
69(4) . . .
69(4) . . .
67(4) . . .
68(4) . . .
57(4) . . .
64(4) . . .
64(4) . . .
64(4) . . .
60(4) . . .
58(4) . . .
66(5) . . .
67(4) . . .
67(4) . . .
72(4) . . .
59(4) . . .
63(4) . . .
72(5) . . .
61(4) . . .
59(4) . . .
72(5) . . .
73(5) . . .
64(4) . . .
60(4) . . .
54(4) . . .
52(4) . . .
53(4) . . .
65(4) . . .
63(4) . . .
65(4) . . .
67(5) . . .
55(4) . . .
60(4) . . .
62(4) . . .
64(4) . . .
62(4) . . .
68(5) . . .
51(4) . . .
58(4) . . .
66(4) . . .
64(4) . . .
55(4) . . .
67(4) . . .
68(4) . . .
58(4) . . .
62(4) . . .
43.0(35) . . .
59(4) . . .
58(4) . . .
67(4) . . .
62(4) . . .
57(4) . . .
67(4) . . .
60(4) . . .
73(4) . . .
58(4) . . .
57(4) . . .
67(4) . . .
55(4) . . .
64(4) . . .
66(4) . . .
63(4) . . .
59(4) . . .
69(4) . . .
62(4) . . .
66(4) . . .
69(4) . . .
56(4) . . .
58(4) . . .
55(4) . . .
67(5) . . .
61(4) . . .
60(4) . . .
69(4) . . .
67(4) . . .
67(5) . . .
66(4) . . .
70(5) . . .
70(4) . . .
62(4) . . .
58(4) . . .
61(4) . . .
72(4) . . .
61(4) . . .
60(4) . . .
59(4) . . .
60(4) . . .
72(4) . . .
62(4) . . .
67(4) . . .
65(4) . . .
72(5) . . .
63(4) . . .
66(4) . . .
46(4) . . .
61(4) . . .
60(4) . . .
66(4) . . .
68(4) . . .
75(5) . . .
65(4) . . .
68(4) . . .
72(4) . . .
60(4) . . .
72(5) . . .
63(4) . . .
68(4) . . .
68(4) . . .
58(4) . . .
67(4) . . .
66(4) . . .
66(4) . . .
70(4) . . .
66(4) . . .
53(4) . . .
59(4) . . .
68(4) . . .
63(4) . . .
60(4) . . .
56(4) . . .
75(5) . . .
66(4) . . .
74(4) . . .
61(4) . . .
60(4) . . .
62(4) . . .
60(4) . . .
64(4) . . .
72(5) . . .
52(4) . . .
53(4) . . .
73(5) . . .
86(5) . . .
65(4) . . .
53(4) . . .
59(4) . . .
61(4) . . .
58(4) . . .
56(4) . . .
65(5) . . .
63(4) . . .
60(4) . . .
63(4) . . .
67(4) . . .
61(4) . . .
60(4) . . .
62(4) . . .
55(4) . . .
51(4) . . .
67(4) . . .
60(4) . . .
50(4) . . .
66(4) . . .
66(4) . . .
58(4) . . .
61(4) . . .
67(4) . . .
63(4) . . .
63(4) . . .
54(4) . . .
61(4) . . .
61(4) . . .
55(4) . . .
63(4) . . .
59(4) . . .
70(4) . . .
63(4) . . .
59(4) . . .
62(4) . . .
65(4) . . .
60(4) . . .
72(4) . . .
63(4) . . .
57(4) . . .
71(5) . . .
53(4) . . .
57(4) . . .
68(4) . . .
58(4) . . .
63(4) . . .
60(4) . . .
67(4) . . .
64(4) . . .
57(4) . . .
68(4) . . .
64(4) . . .
72(4) . . .
67(4) . . .
63(4) . . .
65(4) . . .
66(4) . . .
70(4) . . .
66(4) . . .
70(5) . . .
50(4) . . .
71(4) . . .
50(4) . . .
60(4) . . .
65(4) . . .
64(4) . . .
59(4) . . .
55(4) . . .
69(4) . . .
72(5) . . .
62(4) . . .
55(4) . . .
54(4) . . .
64(4) . . .
59(4) . . .
54(4) . . .
55(4) . . .
72(4) . . .
67(5) . . .
54(4) . . .
63(4) . . .
60(4) . . .
66(4) . . .
55(4) . . .
55(4) . . .
59(4) . . .
71(4) . . .
66(4) . . .
68(4) . . .
65(5) . . .
69(4) . . .
60(4) . . .
70(4) . . .
68(5) . . .
66(4) . . .
60(4) . . .
67(4) . . .
54(4) . . .
57(4) . . .
64(4) . . .
60(4) . . .
67(4) . . .
53(4) . . .
60(4) . . .
64(4) . . .
66(4) . . .
55(4) . . .
61(4) . . .
62(4) . . .
51(4) . . .
70(4) . . .
62(4) . . .
72(5) . . .
73(5) . . .
59(4) . . .
59(4) . . .
59(4) . . .
65(4) . . .
71(5) . . .
68(4) . . .
62(4) . . .
59(4) . . .
58(4) . . .
60(4) . . .
65(4) . . .
63(4) . . .
75(5) . . .
56(4) . . .
60(4) . . .
50(4) . . .
57(4) . . .
65(4) . . .
72(5) . . .
56(4) . . .
62(4) . . .
69(4) . . .
60(4) . . .
63(4) . . .
63(4) . . .
66(4) . . .
51(4) . . .
52(4) . . .
66(5) . . .
62(4) . . .
62(4) . . .
64(4) . . .
65(4) . . .
52(4) . . .
63(4) . . .
54(4) . . .
58(4) . . .
66(4) . . .
60(4) . . .
64(4) . . .
58(4) . . .
68(4) . . .
63(4) . . .
71(5) . . .
59(4) . . .
63(4) . . .
66(4) . . .
54(4) . . .
62(4) . . .
58(4) . . .
67(4) . . .
59(4) . . .
52(4) . . .
67(5) . . .
68(4) . . .
57(4) . . .
54(4) . . .
58(4) . . .
65(4) . . .
66(4) . . .
61(4) . . .
58(4) . . .
56(4) . . .
59(4) . . .
66(4) . . .
57(4) . . .
55(4) . . .
55(4) . . .
63(5) . . .
49(4) . . .
59(4) . . .
58(4) . . .
69(5) . . .
56(4) . . .
60(4) . . .
68(4) . . .
58(4) . . .
69(5) . . .
64(4) . . .
59(4) . . .
62(4) . . .
54(4) . . .
58(4) . . .
54(4) . . .
56(4) . . .
67(4) . . .
58(4) . . .
57(4) . . .
68(5) . . .
64(4) . . .
62(4) . . .
54(4) . . .
54(4) . . .
67(4) . . .
68(4) . . .
69(4) . . .
66(4) . . .
60(4) . . .
65(4) . . .
72(4) . . .
67(4) . . .
61(4) . . .
49(4) . . .
49(4) . . .
59(4) . . .
61(4) . . .
68(5) . . .
52(4) . . .
57(4) . . .
66(4) . . .
56(4) . . .
67(4) . . .
74(5) . . .
70(4) . . .
64(4) . . .
73(5) . . .
63(4) . . .
65(5) . . .
51(4) . . .
61(4) . . .
61(4) . . .
58(4) . . .
52(4) . . .
62(4) . . .
63(4) . . .
62(4) . . .
56(4) . . .
74(5) . . .
67(4) . . .
67(4) . . .
67(4) . . .
54(4) . . .
65(4) . . .
61(4) . . .
59(4) . . .
58(4) . . .
58(4) . . .
67(4) . . .
65(4) . . .
51(4) . . .
61(4) . . .
70(5) . . .
62(4) . . .
59(4) . . .
52(4) . . .
69(5) . . .
58(4) . . .
73(5) . . .
68(4) . . .
61(4) . . .
48(4) . . .
62(4) . . .
47(4) . . .
54(4) . . .
60(4) . . .
63(4) . . .
60(4) . . .
65(4) . . .
56(4) . . .
56(4) . . .
66(4) . . .
59(4) . . .
63(4) . . .
69(4) . . .
58(4) . . .
62(4) . . .
58(4) . . .
53(4) . . .
63(4) . . .
66(5) . . .
71(5) . . .
68(4) . . .
53(4) . . .
60(4) . . .
52(4) . . .
55(4) . . .
73(5) . . .
63(4) . . .
64(4) . . .
70(4) . . .
76(5) . . .
62(4) . . .
60(4) . . .
62(4) . . .
60(4) . . .
51(4) . . .
57(4) . . .
59(4) . . .
67(4) . . .
58(4) . . .
59(4) . . .
69(4) . . .
50(4) . . .
64(4) . . .
54(4) . . .
52(4) . . .
64(4) . . .
60(4) . . .
58(4) . . .
51(4) . . .
54(4) . . .
70(5) . . .
63(4) . . .
62(4) . . .
57(4) . . .
59(4) . . .
61(4) . . .
77(5) . . .
63(4) . . .
56(4) . . .
64(4) . . .
62(4) . . .
56(4) . . .
59(4) . . .
67(4) . . .
57(4) . . .
58(4) . . .
54(4) . . .
67(5) . . .
61(4) . . .
66(4) . . .
69(4) . . .
64(4) . . .
63(4) . . .
66(4) . . .
50(4) . . .
56(4) . . .
58(4) . . .
63(4) . . .
60(4) . . .
61(4) . . .
69(4) . . .
57(4) . . .
70(4) . . .
61(4) . . .
70(5) . . .
61(4) . . .
59(4) . . .
61(4) . . .
58(4) . . .
65(4) . . .
63(4) . . .
62(4) . . .
66(4) . . .
57(4) . . .
75(5) . . .
69(4) . . .
57(4) . . .
51(4) . . .
51(4) . . .
64(4) . . .
62(4) . . .
60(4) . . .
56(4) . . .
63(4) . . .
61(4) . . .
72(4) . . .
54(4) . . .
55(4) . . .
54(4) . . .
79(5) . . .
59(4) . . .
75(5) . . .
59(4) . . .
62(4) . . .
61(4) . . .
76(5) . . .
56(4) . . .
62(4) . . .
51(4) . . .
53(4) . . .
61(4) . . .
65(4) . . .
53(4) . . .
69(5) . . .
69(4) . . .
68(4) . . .
67(4) . . .
60(4) . . .
51(4) . . .
66(4) . . .
63(4) . . .
70(5) . . .
70(5) . . .
56(4) . . .
50(4) . . .
56(4) . . .
58(4) . . .
61(5) . . .
55(4) . . .
55(4) . . .
63(4) . . .
64(4) . . .
66(5) . . .
76(5) . . .
65(4) . . .
59(4) . . .
61(4) . . .
67(5) . . .
66(5) . . .
59(4) . . .
65(4) . . .
67(4) . . .
71(5) . . .
65(4) . . .
51(4) . . .
62(4) . . .
55(4) . . .
60(4) . . .
65(4) . . .
57(4) . . .
59(4) . . .
68(5) . . .
63(4) . . .
63(4) . . .
54(4) . . .
64(4) . . .
52(4) . . .
57(4) . . .
66(4) . . .
68(4) . . .
64(4) . . .
67(5) . . .
56(4) . . .
56(4) . . .
65(4) . . .
50(4) . . .
50(4) . . .
66(5) . . .
66(4) . . .
59(4) . . .
55(4) . . .
52(4) . . .
52(4) . . .
70(4) . . .
68(4) . . .
54(4) . . .
68(5) . . .
50(4) . . .
54(4) . . .
53(4) . . .
62(4) . . .
65(5) . . .
66(4) . . .
63(4) . . .
63(4) . . .
63(4) . . .
58(4) . . .
62(4) . . .
67(4) . . .
58(4) . . .
67(5) . . .
76(5) . . .
58(4) . . .
55(4) . . .
57(4) . . .
62(4) . . .
55(4) . . .
69(4) . . .
61(4) . . .
54(4) . . .
54(4) . . .
60(4) . . .
53(4) . . .
49(4) . . .
67(4) . . .
61(4) . . .
57(4) . . .
57(4) . . .
57(4) . . .
58(4) . . .
62(4) . . .
65(4) . . .
51(4) . . .
56(4) . . .
55(4) . . .
54(4) . . .
60(4) . . .
60(4) . . .
67(4) . . .
58(4) . . .
57(4) . . .
57(4) . . .
65(4) . . .
69(4) . . .
70(4) . . .
51(4) . . .
54(4) . . .
52(4) . . .
56(4) . . .
65(4) . . .
67(4) . . .
64(4) . . .
57(4) . . .
55(4) . . .
58(4) . . .
58(4) . . .
73(5) . . .
60(4) . . .
56(4) . . .
73(5) . . .
65(4) . . .
62(4) . . .
59(4) . . .
63(4) . . .
61(4) . . .
64(4) . . .
59(4) . . .
59(4) . . .
57(4) . . .
61(4) . . .
71(5) . . .
61(4) . . .
57(4) . . .
60(4) . . .
65(4) . . .
68(5) . . .
64(4) . . .
62(4) . . .
51(4) . . .
63(4) . . .
59(4) . . .
60(4) . . .
56(4) . . .
53(4) . . .
52(4) . . .
61(4) . . .
72(4) . . .
62(4) . . .
61(4) . . .
59(4) . . .
71(5) . . .
56(4) . . .
51(4) . . .
68(4) . . .
61(4) . . .
60(4) . . .
55(4) . . .
54(4) . . .
56(4) . . .
68(5) . . .
67(4) . . .
60(4) . . .
55(4) . . .
65(4) . . .
53(4) . . .
69(4) . . .
58(4) . . .
60(4) . . .
68(5) . . .
54(4) . . .
63(4) . . .
61(4) . . .
61(4) . . .
69(4) . . .
62(4) . . .
62(4) . . .
50(4) . . .
62(4) . . .
67(4) . . .
60(4) . . .
66(4) . . .
70(4) . . .
69(4) . . .
63(4) . . .
65(4) . . .
65(4) . . .
51(4) . . .
60(4) . . .
60(4) . . .
66(4) . . .
57(4) . . .
65(4) . . .
48(4) . . .
63(4) . . .
55(4) . . .
55(4) . . .
57(4) . . .
65(4) . . .
71(5) . . .
61(4) . . .
60(4) . . .
53(4) . . .
61(4) . . .
70(4) . . .
65(4) . . .
58(4) . . .
61(4) . . .
55(4) . . .
66(5) . . .
60(4) . . .
59(4) . . .
58(4) . . .
62(4) . . .
56(4) . . .
54(4) . . .
66(4) . . .
51(4) . . .
63(4) . . .
65(4) . . .
65(4) . . .
70(4) . . .
58(4) . . .
52(4) . . .
58(4) . . .
71(4) . . .
59(4) . . .
61(4) . . .
64(4) . . .
58(4) . . .
61(4) . . .
58(4) . . .
46(4) . . .
58(4) . . .
54(4) . . .
56(4) . . .
66(4) . . .
57(4) . . .
56(4) . . .
56(4) . . .
52(4) . . .
62(4) . . .
58(4) . . .
62(4) . . .
63(4) . . .
57(4) . . .
53(4) . . .
63(4) . . .
62(4) . . .
52(4) . . .
57(4) . . .
56(4) . . .
55(4) . . .
61(4) . . .
54(4) . . .
64(4) . . .
57(4) . . .
59(4) . . .
64(5) . . .
59(4) . . .
64(4) . . .
53(4) . . .
58(4) . . .
54(4) . . .
55(4) . . .
62(4) . . .
53(4) . . .
61(4) . . .
52(4) . . .
62(4) . . .
62(4) . . .
59(4) . . .
60(4) . . .
56(4) . . .
57(4) . . .
59(4) . . .
58(4) . . .
57(4) . . .
56(4) . . .
62(4) . . .
66(4) . . .
56(4) . . .
58(4) . . .
58(4) . . .
55(4) . . .
63(4) . . .
66(4) . . .
62(4) . . .
56(4) . . .
69(4) . . .
59(4) . . .
64(4) . . .
61(4) . . .
57(4) . . .
55(4) . . .
46(4) . . .
64(4) . . .
50(4) . . .
59(4) . . .
56(4) . . .
62(4) . . .
53(4) . . .
57(4) . . .
55(4) . . .
53(4) . . .
61(4) . . .
70(5) . . .
59(4) . . .
51(4) . . .
60(4) . . .
52(4) . . .
53(4) . . .
65(5) . . .
63(4) . . .
61(4) . . .
62(4) . . .
62(4) . . .
61(4) . . .
61(4) . . .
68(4) . . .
73(4) . . .
57(4) . . .
63(4) . . .
64(4) . . .
53(4) . . .
49(4) . . .
54(4) . . .
49(4) . . .
55(4) . . .
60(4) . . .
76(5) . . .
60(4) . . .
68(5) . . .
60(4) . . .
59(4) . . .
56(4) . . .
60(4) . . .
62(4) . . .
47(4) . . .
61(4) . . .
65(4) . . .
66(4) . . .
54(4) . . .
59(4) . . .
64(4) . . .
68(5) . . .
52(4) . . .
55(4) . . .
62(4) . . .
59(4) . . .
57(4) . . .
59(4) . . .
66(4) . . .
57(4) . . .
54(4) . . .
56(4) . . .
57(4) . . .
62(4) . . .
57(4) . . .
49(4) . . .
60(4) . . .
53(4) . . .
57(4) . . .
53(4) . . .
63(4) . . .
56(4) . . .
52(4) . . .
60(4) . . .
53(4) . . .
59(4) . . .
59(4) . . .
62(4) . . .
61(4) . . .
74(5) . . .
51(4) . . .
51(4) . . .
64(4) . . .
61(4) . . .
59(4) . . .
72(5) . . .
56(4) . . .
55(4) . . .
52(4) . . .
67(4) . . .
68(4) . . .
70(5) . . .
68(5) . . .
58(4) . . .
54(4) . . .
57(4) . . .
64(4) . . .
56(4) . . .
64(4) . . .
53(4) . . .
60(4) . . .
57(4) . . .
60(4) . . .
53(4) . . .
64(4) . . .
61(4) . . .
57(4) . . .
48(4) . . .
56(4) . . .
49(4) . . .
71(5) . . .
59(4) . . .
59(4) . . .
51(4) . . .
59(4) . . .
53(4) . . .
62(5) . . .
57(4) . . .
59(4) . . .
63(4) . . .
64(4) . . .
52(4) . . .
66(4) . . .
67(4) . . .
54(4) . . .
59(4) . . .
56(4) . . .
53(4) . . .
61(4) . . .
62(4) . . .
59(4) . . .
62(4) . . .
64(4) . . .
53(4) . . .
48(4) . . .
57(4) . . .
69(4) . . .
70(4) . . .
62(4) . . .
59(4) . . .
49(4) . . .
57(4) . . .
54(4) . . .
54(4) . . .
62(4) . . .
59(4) . . .
62(4) . . .
61(4) . . .
61(4) . . .
56(4) . . .
65(5) . . .
45(4) . . .
54(4) . . .
54(4) . . .
65(4) . . .
68(5) . . .
61(4) . . .
54(4) . . .
51(4) . . .
50(4) . . .
58(4) . . .
53(4) . . .
60(4) . . .
70(4) . . .
62(4) . . .
61(4) . . .
71(5) . . .
50(4) . . .
68(4) . . .
55(4) . . .
42.8(35) . . .
49(4) . . .
64(4) . . .
55(4) . . .
58(4) . . .
65(5) . . .
57(4) . . .
59(4) . . .
61(4) . . .
62(4) . . .
61(4) . . .
56(4) . . .
58(4) . . .
61(4) . . .
60(4) . . .
53(4) . . .
56(4) . . .
54(4) . . .
47(4) . . .
53(4) . . .
60(4) . . .
57(4) . . .
58(4) . . .
58(4) . . .
54(4) . . .
59(4) . . .
63(4) . . .
54(4) . . .
56(4) . . .
60(4) . . .
60(4) . . .
70(5) . . .
57(4) . . .
63(4) . . .
57(4) . . .
59(4) . . .
75(5) . . .
63(4) . . .
62(4) . . .
58(4) . . .
49(4) . . .
63(4) . . .
67(4) . . .
52(4) . . .
53(4) . . .
50(4) . . .
55(4) . . .
57(4) . . .
55(4) . . .
64(5) . . .
58(4) . . .
66(4) . . .
58(4) . . .
59(4) . . .
61(4) . . .
58(4) . . .
60(4) . . .
48(4) . . .
54(4) . . .
53(4) . . .
56(4) . . .
72(4) . . .
63(4) . . .
57(4) . . .
52(4) . . .
72(5) . . .
56(4) . . .
46(4) . . .
59(4) . . .
70(5) . . .
65(4) . . .
60(4) . . .
64(4) . . .
71(5) . . .
67(5) . . .
57(4) . . .
64(4) . . .
64(4) . . .
52(4) . . .
60(4) . . .
63(4) . . .
61(4) . . .
70(4) . . .
63(4) . . .
59(4) . . .
60(4) . . .
56(4) . . .
64(4) . . .
58(4) . . .
60(4) . . .
59(4) . . .
52(4) . . .
57(4) . . .
59(4) . . .
69(5) . . .
57(4) . . .
54(4) . . .
65(4) . . .
62(4) . . .
69(4) . . .
52(4) . . .
57(4) . . .
57(4) . . .
52(4) . . .
54(4) . . .
54(4) . . .
61(4) . . .
66(4) . . .
70(5) . . .
54(4) . . .
55(4) . . .
63(4) . . .
66(4) . . .
57(4) . . .
56(4) . . .
69(4) . . .
79(5) . . .
56(4) . . .
43.9(35) . . .
65(4) . . .
52(4) . . .
54(4) . . .
46(4) . . .
61(4) . . .
63(4) . . .
58(4) . . .
58(4) . . .
72(5) . . .
58(4) . . .
58(4) . . .
54(4) . . .
67(5) . . .
57(4) . . .
65(4) . . .
51(4) . . .
50(4) . . .
69(5) . . .
52(4) . . .
57(4) . . .
67(4) . . .
56(4) . . .
55(4) . . .
58(4) . . .
57(4) . . .
58(4) . . .
53(4) . . .
63(4) . . .
62(4) . . .
62(4) . . .
62(4) . . .
58(4) . . .
57(4) . . .
62(4) . . .
65(5) . . .
64(4) . . .
59(4) . . .
65(5) . . .
58(4) . . .
62(4) . . .
64(4) . . .
61(4) . . .
53(4) . . .
72(5) . . .
65(5) . . .
51(4) . . .
69(4) . . .
64(4) . . .
61(4) . . .
64(4) . . .
62(4) . . .
54(4) . . .
49(4) . . .
60(4) . . .
51(4) . . .
60(4) . . .
56(4) . . .
68(5) . . .
69(5) . . .
56(4) . . .
51(4) . . .
66(4) . . .
62(4) . . .
57(4) . . .
66(4) . . .
65(4) . . .
56(4) . . .
53(4) . . .
54(4) . . .
68(4) . . .
69(4) . . .
62(4) . . .
65(5) . . .
57(4) . . .
63(4) . . .
58(4) . . .
67(4) . . .
57(4) . . .
47(4) . . .
49(4) . . .
64(4) . . .
66(4) . . .
60(4) . . .
62(4) . . .
63(4) . . .
67(4) . . .
49(4) . . .
60(4) . . .
55(4) . . .
57(4) . . .
65(4) . . .
55(4) . . .
56(4) . . .
60(4) . . .
62(4) . . .
60(4) . . .
63(4) . . .
52(4) . . .
60(4) . . .
63(4) . . .
61(4) . . .
56(4) . . .
56(4) . . .
55(4) . . .
46(4) . . .
60(4) . . .
55(4) . . .
59(4) . . .
62(4) . . .
64(4) . . .
53(4) . . .
65(5) . . .
52(4) . . .
51(4) . . .
56(4) . . .
53(4) . . .
62(4) . . .
67(4) . . .
61(4) . . .
53(4) . . .
48(4) . . .
50(4) . . .
57(4) . . .
49(4) . . .
63(4) . . .
67(4) . . .
74(5) . . .
59(4) . . .
58(4) . . .
67(4) . . .
66(4) . . .
54(4) . . .
53(4) . . .
57(4) . . .
60(4) . . .
63(4) . . .
52(4) . . .
50(4) . . .
55(4) . . .
54(4) . . .
65(4) . . .
53(4) . . .
53(4) . . .
60(4) . . .
53(4) . . .
57(4) . . .
60(4) . . .
59(4) . . .
60(4) . . .
61(4) . . .
61(4) . . .
63(4) . . .
64(4) . . .
62(4) . . .
62(4) . . .
60(4) . . .
70(5) . . .
67(4) . . .
70(4) . . .
63(4) . . .
58(4) . . .
55(4) . . .
60(4) . . .
61(4) . . .
57(4) . . .
56(4) . . .
62(4) . . .
50(4) . . .
53(4) . . .
55(4) . . .
54(4) . . .
54(4) . . .
49(4) . . .
48(4) . . .
65(5) . . .
66(5) . . .
58(4) . . .
63(4) . . .
50(4) . . .
59(4) . . .
50(4) . . .
51(4) . . .
57(4) . . .
58(4) . . .
53(4) . . .
54(4) . . .
64(4) . . .
61(4) . . .
60(4) . . .
54(4) . . .
63(4) . . .
61(4) . . .
54(4) . . .
63(4) . . .
59(4) . . .
64(4) . . .
53(4) . . .
60(4) . . .
57(4) . . .
69(4) . . .
62(4) . . .
60(4) . . .
64(4) . . .
53(4) . . .
67(4) . . .
63(4) . . .
56(4) . . .
56(4) . . .
56(4) . . .
59(4) . . .
67(4) . . .
58(4) . . .
58(4) . . .
58(4) . . .
72(5) . . .
53(4) . . .
61(4) . . .
66(4) . . .
59(4) . . .
64(4) . . .
57(4) . . .
51(4) . . .
53(4) . . .
54(4) . . .
56(4) . . .
62(4) . . .
56(4) . . .
63(4) . . .
51(4) . . .
48(4) . . .
55(4) . . .
64(4) . . .
56(4) . . .
50(4) . . .
53(4) . . .
62(4) . . .
57(4) . . .
59(4) . . .
58(4) . . .
59(4) . . .
61(4) . . .
54(4) . . .
55(4) . . .
72(5) . . .
69(5) . . .
57(4) . . .
52(4) . . .
57(4) . . .
64(4) . . .
61(4) . . .
57(4) . . .
44.6(34) . . .
60(4) . . .
58(4) . . .
62(4) . . .
77(5) . . .
69(4) . . .
57(4) . . .
61(4) . . .
54(4) . . .
61(4) . . .
58(4) . . .
54(4) . . .
65(4) . . .
60(4) . . .
58(4) . . .
53(4) . . .
47(4) . . .
52(4) . . .
52(4) . . .
56(4) . . .
55(4) . . .
55(4) . . .
58(4) . . .
59(4) . . .
63(4) . . .
51(4) . . .
66(4) . . .
64(5) . . .
58(4) . . .
58(4) . . .
63(4) . . .
53(4) . . .
60(4) . . .
54(4) . . .
63(4) . . .
57(4) . . .
51(4) . . .
61(4) . . .
58(4) . . .
59(4) . . .
62(4) . . .
59(4) . . .
60(4) . . .
57(4) . . .
49(4) . . .
60(4) . . .
54(4) . . .
60(4) . . .
61(4) . . .
56(4) . . .
56(4) . . .
59(4) . . .
53(4) . . .
57(4) . . .
67(4) . . .
54(4) . . .
66(5) . . .
68(4) . . .
60(4) . . .
49(4) . . .
58(4) . . .
61(4) . . .
53(4) . . .
69(4) . . .
58(4) . . .
58(4) . . .
59(4) . . .
67(4) . . .
60(4) . . .
64(4) . . .
57(4) . . .
58(4) . . .
61(4) . . .
54(4) . . .
64(4) . . .
42.1(33) . . .
53(4) . . .
53(4) . . .
59(4) . . .
56(4) . . .
62(4) . . .
48(4) . . .
48(4) . . .
50(4) . . .
67(4) . . .
62(4) . . .
55(4) . . .
56(4) . . .
61(4) . . .
63(4) . . .
63(4) . . .
63(4) . . .
60(4) . . .
57(4) . . .
48(4) . . .
57(4) . . .
56(4) . . .
50(4) . . .
70(4) . . .
67(4) . . .
56(4) . . .
54(4) . . .
58(4) . . .
48(4) . . .
50(4) . . .
56(4) . . .
65(4) . . .
70(4) . . .
64(4) . . .
65(4) . . .
61(4) . . .
61(4) . . .
67(4) . . .
59(4) . . .
63(4) . . .
62(4) . . .
57(4) . . .
49(4) . . .
38.9(33) . . .
52(4) . . .
60(4) . . .
61(4) . . .
56(4) . . .
48(4) . . .
58(4) . . .
59(4) . . .
73(5) . . .
58(4) . . .
70(4) . . .
62(4) . . .
59(4) . . .
49(4) . . .
58(4) . . .
64(4) . . .
61(4) . . .
53(4) . . .
55(4) . . .
52(4) . . .
54(4) . . .
61(4) . . .
65(5) . . .
50(4) . . .
57(4) . . .
50(4) . . .
60(4) . . .
59(4) . . .
54(4) . . .
75(5) . . .
60(4) . . .
62(4) . . .
60(4) . . .
59(4) . . .
57(4) . . .
57(4) . . .
55(4) . . .
56(4) . . .
62(4) . . .
51(4) . . .
51(4) . . .
61(4) . . .
51(4) . . .
49(4) . . .
65(4) . . .
54(4) . . .
58(4) . . .
64(4) . . .
50(4) . . .
61(4) . . .
55(4) . . .
59(4) . . .
61(4) . . .
74(5) . . .
59(4) . . .
49(4) . . .
63(4) . . .
64(4) . . .
64(4) . . .
48(4) . . .
54(4) . . .
49(4) . . .
57(4) . . .
48(4) . . .
52(4) . . .
57(4) . . .
64(5) . . .
52(4) . . .
51(4) . . .
53(4) . . .
54(4) . . .
53(4) . . .
49(4) . . .
53(4) . . .
72(5) . . .
59(4) . . .
50(4) . . .
52(4) . . .
60(4) . . .
60(4) . . .
58(4) . . .
63(4) . . .
53(4) . . .
64(4) . . .
56(4) . . .
55(4) . . .
58(4) . . .
55(4) . . .
44.3(35) . . .
55(4) . . .
55(4) . . .
60(4) . . .
55(4) . . .
57(4) . . .
64(4) . . .
50(4) . . .
50(4) . . .
57(4) . . .
54(4) . . .
52(4) . . .
66(4) . . .
61(4) . . .
61(4) . . .
53(4) . . .
67(4) . . .
62(4) . . .
56(4) . . .
58(4) . . .
68(5) . . .
54(4) . . .
68(4) . . .
62(4) . . .
71(4) . . .
67(5) . . .
48(4) . . .
49(4) . . .
60(4) . . .
58(4) . . .
56(4) . . .
52(4) . . .
54(4) . . .
50(4) . . .
53(4) . . .
53(4) . . .
57(4) . . .
66(4) . . .
50(4) . . .
54(4) . . .
61(4) . . .
61(4) . . .
55(4) . . .
51(4) . . .
55(4) . . .
49(4) . . .
56(4) . . .
63(4) . . .
53(4) . . .
62(4) . . .
58(4) . . .
57(4) . . .
51(4) . . .
62(4) . . .
60(4) . . .
54(4) . . .
60(4) . . .
57(4) . . .
64(4) . . .
57(4) . . .
56(4) . . .
63(4) . . .
61(4) . . .
56(4) . . .
63(4) . . .
56(4) . . .
65(4) . . .
60(4) . . .
49(4) . . .
49(4) . . .
54(4) . . .
59(4) . . .
50(4) . . .
62(4) . . .
56(4) . . .
49(4) . . .
58(4) . . .
63(4) . . .
53(4) . . .
61(5) . . .
54(4) . . .
61(4) . . .
55(4) . . .
64(4) . . .
58(4) . . .
58(4) . . .
49(4) . . .
64(4) . . .
54(4) . . .
66(5) . . .
54(4) . . .
52(4) . . .
49(4) . . .
54(4) . . .
53(4) . . .
60(4) . . .
54(4) . . .
55(4) . . .
63(4) . . .
68(5) . . .
51(4) . . .
52(4) . . .
59(4) . . .
58(4) . . .
58(4) . . .
51(4) . . .
55(4) . . .
57(4) . . .
55(4) . . .
60(4) . . .
61(4) . . .
51(4) . . .
69(5) . . .
55(4) . . .
56(4) . . .
58(4) . . .
51(4) . . .
58(4) . . .
56(4) . . .
55(4) . . .
59(4) . . .
55(4) . . .
56(4) . . .
58(4) . . .
57(4) . . .
64(4) . . .
62(4) . . .
54(4) . . .
49(4) . . .
54(4) . . .
61(4) . . .
53(4) . . .
48(4) . . .
56(4) . . .
52(4) . . .
58(4) . . .
53(4) . . .
63(4) . . .
63(4) . . .
59(4) . . .
58(4) . . .
66(4) . . .
50(4) . . .
57(4) . . .
49(4) . . .
56(4) . . .
59(4) . . .
56(4) . . .
58(4) . . .
63(4) . . .
56(4) . . .
54(4) . . .
45(4) . . .
50(4) . . .
51(4) . . .
57(4) . . .
57(4) . . .
62(4) . . .
49(4) . . .
59(4) . . .
65(4) . . .
56(4) . . .
63(5) . . .
48(4) . . .
50(4) . . .
51(4) . . .
69(5) . . .
48(4) . . .
57(4) . . .
59(4) . . .
58(4) . . .
50(4) . . .
61(4) . . .
60(4) . . .
70(4) . . .
57(4) . . .
47(4) . . .
53(4) . . .
51(4) . . .
59(4) . . .
60(4) . . .
57(4) . . .
55(4) . . .
57(4) . . .
53(4) . . .
49(4) . . .
44(4) . . .
52(4) . . .
54(4) . . .
61(4) . . .
57(4) . . .
65(4) . . .
62(4) . . .
56(4) . . .
65(4) . . .
57(4) . . .
48(4) . . .
51(4) . . .
60(4) . . .
49(4) . . .
48(4) . . .
54(4) . . .
54(4) . . .
64(4) . . .
56(4) . . .
55(4) . . .
57(4) . . .
54(4) . . .
52(4) . . .
51(4) . . .
58(4) . . .
63(5) . . .
48(4) . . .
67(4) . . .
53(4) . . .
54(4) . . .
56(4) . . .
63(4) . . .
58(4) . . .
57(4) . . .
57(4) . . .
49(4) . . .
63(4) . . .
51(4) . . .
56(4) . . .
72(5) . . .
62(4) . . .
59(4) . . .
56(4) . . .
63(4) . . .
60(4) . . .
65(5) . . .
57(4) . . .
51(4) . . .
56(4) . . .
55(4) . . .
54(4) . . .
60(4) . . .
59(4) . . .
48(4) . . .
49(4) . . .
50(4) . . .
63(4) . . .
46(4) . . .
54(4) . . .
52(4) . . .
63(4) . . .
51(4) . . .
56(4) . . .
48(4) . . .
65(5) . . .
59(4) . . .
55(4) . . .
54(4) . . .
59(4) . . .
53(4) . . .
59(4) . . .
56(4) . . .
61(4) . . .
60(4) . . .
69(5) . . .
54(4) . . .
54(4) . . .
45(4) . . .
56(4) . . .
53(4) . . .
57(4) . . .
56(4) . . .
55(4) . . .
54(4) . . .
51(4) . . .
59(4) . . .
61(4) . . .
39.3(33) . . .
45(4) . . .
54(4) . . .
51(4) . . .
43.5(35) . . .
56(4) . . .
61(4) . . .
58(4) . . .
57(4) . . .
56(4) . . .
50(4) . . .
44.2(35) . . .
57(4) . . .
60(4) . . .
59(4) . . .
68(4) . . .
56(4) . . .
64(4) . . .
63(4) . . .
55(4) . . .
53(4) . . .
54(4) . . .
50(4) . . .
54(4) . . .
62(4) . . .
63(4) . . .
58(4) . . .
59(4) . . .
64(4) . . .
65(4) . . .
58(4) . . .
64(4) . . .
59(4) . . .
53(4) . . .
53(4) . . .
49(4) . . .
64(4) . . .
61(4) . . .
54(4) . . .
45(4) . . .
49(4) . . .
53(4) . . .
44(4) . . .
56(4) . . .
58(4) . . .
48(4) . . .
52(4) . . .
48(4) . . .
52(4) . . .
48(4) . . .
62(4) . . .
54(4) . . .
61(4) . . .
58(4) . . .
55(4) . . .
61(4) . . .
54(4) . . .
62(5) . . .
45.7(35) . . .
58(4) . . .
66(5) . . .
62(4) . . .
61(4) . . .
61(4) . . .
64(4) . . .
63(4) . . .
57(4) . . .
56(4) . . .
60(4) . . .
58(4) . . .
58(4) . . .
67(4) . . .
60(4) . . .
59(4) . . .
52(4) . . .
62(4) . . .
50(4) . . .
62(4) . . .
55(4) . . .
53(4) . . .
53(4) . . .
46(4) . . .
54(4) . . .
46(4) . . .
48(4) . . .
59(4) . . .
47(4) . . .
58(4) . . .
63(4) . . .
59(4) . . .
64(4) . . .
50(4) . . .
51(4) . . .
52(4) . . .
58(4) . . .
67(4) . . .
65(4) . . .
59(4) . . .
50(4) . . .
51(4) . . .
56(4) . . .
48(4) . . .
63(4) . . .
66(4) . . .
60(4) . . .
55(4) . . .
57(4) . . .
68(4) . . .
49(4) . . .
57(4) . . .
65(5) . . .
51(4) . . .
51(4) . . .
59(4) . . .
57(4) . . .
52(4) . . .
49(4) . . .
53(4) . . .
48(4) . . .
52(4) . . .
48(4) . . .
61(4) . . .
55(4) . . .
52(4) . . .
58(4) . . .
60(4) . . .
60(4) . . .
56(4) . . .
60(4) . . .
61(4) . . .
57(4) . . .
61(4) . . .
61(4) . . .
55(4) . . .
57(4) . . .
64(4) . . .
55(4) . . .
61(4) . . .
63(4) . . .
56(4) . . .
46.8(35) . . .
52(4) . . .
55(4) . . .
60(4) . . .
53(4) . . .
56(4) . . .
51(4) . . .
51(4) . . .
51(4) . . .
66(5) . . .
43.9(35) . . .
57(4) . . .
52(4) . . .
43.9(35) . . .
50(4) . . .
56(4) . . .
53(4) . . .
48(4) . . .
58(4) . . .
65(4) . . .
66(4) . . .
49(4) . . .
58(4) . . .
47(4) . . .
46(4) . . .
60(4) . . .
55(4) . . .
48(4) . . .
50(4) . . .
55(4) . . .
64(5) . . .
54(4) . . .
57(4) . . .
51(4) . . .
58(4) . . .
56(4) . . .
48(4) . . .
48(4) . . .
55(4) . . .
51(4) . . .
59(4) . . .
67(4) . . .
60(4) . . .
60(4) . . .
65(4) . . .
65(4) . . .
53(4) . . .
56(4) . . .
54(4) . . .
58(4) . . .
64(4) . . .
49(4) . . .
61(4) . . .
51(4) . . .
51(4) . . .
56(4) . . .
48(4) . . .
51(4) . . .
50(4) . . .
52(4) . . .
50(4) . . .
46.6(35) . . .
61(4) . . .
60(4) . . .
53(4) . . .
58(4) . . .
49(4) . . .
53(4) . . .
56(4) . . .
49(4) . . .
52(4) . . .
57(4) . . .
61(4) . . .
49(4) . . .
53(4) . . .
52(4) . . .
60(4) . . .
58(4) . . .
48(4) . . .
55(4) . . .
54(4) . . .
50(4) . . .
53(4) . . .
62(4) . . .
49(4) . . .
53(4) . . .
59(4) . . .
56(4) . . .
67(5) . . .
62(4) . . .
56(4) . . .
67(5) . . .
70(5) . . .
57(4) . . .
54(4) . . .
55(4) . . .
49(4) . . .
50(4) . . .
61(4) . . .
73(5) . . .
54(4) . . .
47(4) . . .
58(4) . . .
48(4) . . .
44(4) . . .
60(4) . . .
71(5) . . .
53(4) . . .
59(4) . . .
58(4) . . .
60(4) . . .
53(4) . . .
55(4) . . .
59(4) . . .
62(4) . . .
57(4) . . .
51(4) . . .
56(4) . . .
60(4) . . .
48(4) . . .
53(4) . . .
66(5) . . .
51(4) . . .
61(4) . . .
56(4) . . .
53(4) . . .
51(4) . . .
49(4) . . .
48(4) . . .
60(4) . . .
60(4) . . .
48(4) . . .
56(4) . . .
53(4) . . .
49(4) . . .
54(4) . . .
58(4) . . .
45(4) . . .
53(4) . . .
57(4) . . .
46(4) . . .
57(4) . . .
57(4) . . .
57(4) . . .
56(4) . . .
57(4) . . .
46(4) . . .
47(4) . . .
57(4) . . .
45.5(35) . . .
51(4) . . .
53(4) . . .
58(4) . . .
64(4) . . .
60(4) . . .
57(4) . . .
44(4) . . .
51(4) . . .
59(4) . . .
63(4) . . .
52(4) . . .
51(4) . . .
48(4) . . .
55(4) . . .
48(4) . . .
51(4) . . .
61(4) . . .
58(4) . . .
52(4) . . .
64(4) . . .
67(4) . . .
52(4) . . .
51(4) . . .
53(4) . . .
52(4) . . .
44.6(35) . . .
50(4) . . .
55(4) . . .
60(4) . . .
57(4) . . .
52(4) . . .
56(4) . . .
55(4) . . .
54(4) . . .
53(4) . . .
56(4) . . .
53(4) . . .
51(4) . . .
61(4) . . .
57(4) . . .
53(4) . . .
49(4) . . .
64(4) . . .
65(4) . . .
51(4) . . .
67(5) . . .
54(4) . . .
56(4) . . .
49(4) . . .
51(4) . . .
54(4) . . .
61(4) . . .
53(4) . . .
58(4) . . .
57(4) . . .
56(4) . . .
52(4) . . .
66(4) . . .
50(4) . . .
63(4) . . .
57(4) . . .
55(4) . . .
60(4) . . .
62(4) . . .
65(4) . . .
60(4) . . .
49(4) . . .
49(4) . . .
58(4) . . .
58(4) . . .
58(4) . . .
55(4) . . .
58(4) . . .
59(4) . . .
54(4) . . .
57(4) . . .
60(4) . . .
57(4) . . .
51(4) . . .
53(4) . . .
49(4) . . .
58(4) . . .
58(4) . . .
48(4) . . .
52(4) . . .
47(4) . . .
49(4) . . .
56(4) . . .
61(4) . . .
50(4) . . .
51(4) . . .
56(4) . . .
52(4) . . .
49(4) . . .
56(4) . . .
52(4) . . .
53(4) . . .
57(4) . . .
63(4) . . .
50(4) . . .
51(4) . . .
69(4) . . .
48(4) . . .
51(4) . . .
58(4) . . .
54(4) . . .
51(4) . . .
53(4) . . .
48(4) . . .
56(4) . . .
49(4) . . .
52(4) . . .
63(4) . . .
62(4) . . .
63(5) . . .
49(4) . . .
52(4) . . .
54(4) . . .
53(4) . . .
59(4) . . .
64(4) . . .
60(4) . . .
61(4) . . .
59(4) . . .
53(4) . . .
57(4) . . .
57(4) . . .
64(4) . . .
55(4) . . .
53(4) . . .
48(4) . . .
50(4) . . .
38.0(32) . . .
53(4) . . .
53(4) . . .
51(4) . . .
61(4) . . .
57(4) . . .
59(4) . . .
57(4) . . .
57(4) . . .
48(4) . . .
49(4) . . .
52(4) . . .
56(4) . . .
50(4) . . .
55(4) . . .
54(4) . . .
58(4) . . .
57(4) . . .
50(4) . . .
50(4) . . .
50(4) . . .
49(4) . . .
48(4) . . .
53(4) . . .
46(4) . . .
55(4) . . .
59(4) . . .
61(4) . . .
53(4) . . .
58(4) . . .
49(4) . . .
57(4) . . .
61(4) . . .
56(4) . . .
60(4) . . .
58(4) . . .
49(4) . . .
49(4) . . .
51(4) . . .
62(4) . . .
59(4) . . .
62(4) . . .
57(4) . . .
64(4) . . .
57(4) . . .
53(4) . . .
46(4) . . .
45(4) . . .
54(4) . . .
52(4) . . .
50(4) . . .
52(4) . . .
64(4) . . .
46(4) . . .
57(4) . . .
62(4) . . .
67(5) . . .
62(4) . . .
55(4) . . .
61(4) . . .
53(4) . . .
49(4) . . .
51(4) . . .
49(4) . . .
50(4) . . .
53(4) . . .
56(4) . . .
49(4) . . .
45(4) . . .
46(4) . . .
62(4) . . .
54(4) . . .
51(4) . . .
48(4) . . .
46(4) . . .
52(4) . . .
63(4) . . .
59(4) . . .
50(4) . . .
53(4) . . .
53(4) . . .
51(4) . . .
57(4) . . .
48(4) . . .
53(4) . . .
49(4) . . .
53(4) . . .
55(4) . . .
58(4) . . .
56(4) . . .
56(4) . . .
48(4) . . .
42.1(34) . . .
51(4) . . .
56(4) . . .
50(4) . . .
53(4) . . .
56(4) . . .
45.6(35) . . .
51(4) . . .
40(4) . . .
49(4) . . .
52(4) . . .
54(4) . . .
50(4) . . .
42(4) . . .
48(4) . . .
52(4) . . .
52(4) . . .
64(4) . . .
59(4) . . .
49(4) . . .
49(4) . . .
44(4) . . .
55(4) . . .
52(4) . . .
46(4) . . .
55(4) . . .
54(4) . . .
50(4) . . .
53(4) . . .
57(4) . . .
41.3(33) . . .
53(4) . . .
58(4) . . .
47(4) . . .
53(4) . . .
54(4) . . .
68(5) . . .
49(4) . . .
47(4) . . .
59(4) . . .
56(4) . . .
49(4) . . .
46(4) . . .
56(4) . . .
56(4) . . .
52(4) . . .
52(4) . . .
58(4) . . .
61(4) . . .
57(4) . . .
51(4) . . .
51(4) . . .
59(4) . . .
44(4) . . .
48(4) . . .
53(4) . . .
45(4) . . .
61(4) . . .
59(4) . . .
52(4) . . .
53(4) . . .
57(4) . . .
56(4) . . .
53(4) . . .
50(4) . . .
51(4) . . .
41.6(34) . . .
52(4) . . .
54(4) . . .
58(4) . . .
47(4) . . .
49(4) . . .
50(4) . . .
54(4) . . .
47(4) . . .
65(4) . . .
58(4) . . .
57(4) . . .
60(4) . . .
50(4) . . .
59(4) . . .
50(4) . . .
54(4) . . .
52(4) . . .
56(4) . . .
57(4) . . .
44(4) . . .
53(4) . . .
47(4) . . .
43.6(34) . . .
65(4) . . .
51(4) . . .
50(4) . . .
48(4) . . .
50(4) . . .
57(4) . . .
58(4) . . .
57(4) . . .
51(4) . . .
54(4) . . .
50(4) . . .
47(4) . . .
63(4) . . .
54(4) . . .
55(4) . . .
49(4) . . .
61(4) . . .
57(4) . . .
64(4) . . .
53(4) . . .
56(4) . . .
51(4) . . .
51(4) . . .
55(4) . . .
57(4) . . .
55(4) . . .
57(4) . . .
65(4) . . .
51(4) . . .
51(4) . . .
54(4) . . .
58(4) . . .
46(4) . . .
45(4) . . .
53(4) . . .
50(4) . . .
53(4) . . .
59(4) . . .
59(4) . . .
56(4) . . .
58(4) . . .
59(4) . . .
49(4) . . .
39.9(33) . . .
48(4) . . .
43(4) . . .
48(4) . . .
55(4) . . .
47(4) . . .
53(4) . . .
57(4) . . .
54(4) . . .
47(4) . . .
48(4) . . .
62(4) . . .
57(4) . . .
59(4) . . .
56(4) . . .
58(4) . . .
55(4) . . .
54(4) . . .
58(4) . . .
53(4) . . .
50(4) . . .
58(4) . . .
61(4) . . .
46(4) . . .
52(4) . . .
54(4) . . .
51(4) . . .
61(4) . . .
63(4) . . .
58(4) . . .
46(4) . . .
42.5(35) . . .
50(4) . . .
59(4) . . .
49(4) . . .
49(4) . . .
49(4) . . .
49(4) . . .
54(4) . . .
53(4) . . .
52(4) . . .
63(4) . . .
55(4) . . .
48(4) . . .
48(4) . . .
51(4) . . .
58(4) . . .
58(4) . . .
51(4) . . .
47(4) . . .
55(4) . . .
51(4) . . .
53(4) . . .
55(4) . . .
46(4) . . .
49(4) . . .
51(4) . . .
59(4) . . .
62(4) . . .
56(4) . . .
55(4) . . .
50(4) . . .
48(4) . . .
54(4) . . .
57(4) . . .
59(4) . . .
51(4) . . .
65(4) . . .
56(4) . . .
53(4) . . .
50(4) . . .
50(4) . . .
57(4) . . .
54(4) . . .
53(4) . . .
54(4) . . .
56(4) . . .
54(4) . . .
54(4) . . .
58(4) . . .
55(4) . . .
56(4) . . .
53(4) . . .
55(4) . . .
54(4) . . .
64(5) . . .
50(4) . . .
48(4) . . .
55(4) . . .
44(4) . . .
56(4) . . .
57(4) . . .
55(4) . . .
57(4) . . .
59(4) . . .
49(4) . . .
50(4) . . .
55(4) . . .
47(4) . . .
56(4) . . .
64(4) . . .
59(4) . . .
54(4) . . .
48(4) . . .
53(4) . . .
55(4) . . .
51(4) . . .
54(4) . . .
48(4) . . .
51(4) . . .
44(4) . . .
55(4) . . .
57(4) . . .
53(4) . . .
54(4) . . .
62(4) . . .
49(4) . . .
43.0(34) . . .
54(4) . . .
58(4) . . .
47(4) . . .
47(4) . . .
49(4) . . .
40.9(34) . . .
51(4) . . .
46(4) . . .
56(4) . . .
48(4) . . .
50(4) . . .
58(4) . . .
53(4) . . .
58(4) . . .
57(4) . . .
60(4) . . .
52(4) . . .
57(4) . . .
49(4) . . .
55(4) . . .
52(4) . . .
56(4) . . .
48(4) . . .
58(4) . . .
54(4) . . .
50(4) . . .
47(4) . . .
58(4) . . .
53(4) . . .
51(4) . . .
55(4) . . .
58(4) . . .
56(4) . . .
52(4) . . .
57(4) . . .
47(4) . . .
48(4) . . .
54(4) . . .
47(4) . . .
57(4) . . .
51(4) . . .
47(4) . . .
47(4) . . .
51(4) . . .
56(4) . . .
46(4) . . .
58(4) . . .
65(4) . . .
43.3(34) . . .
59(4) . . .
58(4) . . .
59(4) . . .
50(4) . . .
47(4) . . .
66(4) . . .
55(4) . . .
53(4) . . .
56(4) . . .
53(4) . . .
47(4) . . .
42(4) . . .
62(5) . . .
47(4) . . .
43.5(34) . . .
44(4) . . .
48(4) . . .
57(4) . . .
55(4) . . .
60(4) . . .
49(4) . . .
53(4) . . .
55(4) . . .
48(4) . . .
41.2(34) . . .
49(4) . . .
59(4) . . .
51(4) . . .
50(4) . . .
55(4) . . .
52(4) . . .
51(4) . . .
56(4) . . .
55(4) . . .
64(4) . . .
55(4) . . .
50(4) . . .
47(4) . . .
53(4) . . .
56(4) . . .
57(4) . . .
58(4) . . .
54(4) . . .
47(4) . . .
46(4) . . .
50(4) . . .
55(4) . . .
49(4) . . .
46(4) . . .
49(4) . . .
46(4) . . .
49(4) . . .
54(4) . . .
60(4) . . .
53(4) . . .
51(4) . . .
53(4) . . .
49(4) . . .
55(4) . . .
54(4) . . .
52(4) . . .
58(4) . . .
60(4) . . .
49(4) . . .
63(4) . . .
57(4) . . .
53(4) . . .
54(4) . . .
51(4) . . .
53(4) . . .
53(4) . . .
51(4) . . .
48(4) . . .
59(4) . . .
52(4) . . .
57(4) . . .
54(4) . . .
52(4) . . .
47(4) . . .
41.8(35) . . .
47(4) . . .
40.6(34) . . .
46(4) . . .
56(4) . . .
46(4) . . .
52(4) . . .
60(4) . . .
52(4) . . .
51(4) . . .
53(4) . . .
56(4) . . .
48(4) . . .
59(4) . . .
49(4) . . .
53(4) . . .
58(4) . . .
61(4) . . .
54(4) . . .
54(4) . . .
51(4) . . .
54(4) . . .
62(4) . . .
51(4) . . .
50(4) . . .
53(4) . . .
55(4) . . .
50(4) . . .
58(4) . . .
56(4) . . .
49(4) . . .
56(4) . . .
60(4) . . .
59(4) . . .
58(4) . . .
44.0(35) . . .
51(4) . . .
50(4) . . .
55(4) . . .
59(4) . . .
48(4) . . .
53(4) . . .
52(4) . . .
54(4) . . .
49(4) . . .
56(4) . . .
53(4) . . .
47(4) . . .
56(4) . . .
52(4) . . .
57(4) . . .
52(4) . . .
53(4) . . .
55(4) . . .
53(4) . . .
52(4) . . .
62(4) . . .
50(4) . . .
51(4) . . .
57(4) . . .
52(4) . . .
47(4) . . .
51(4) . . .
63(4) . . .
58(4) . . .
57(4) . . .
58(4) . . .
46(4) . . .
46(4) . . .
51(4) . . .
55(4) . . .
45(4) . . .
61(4) . . .
49(4) . . .
43.1(34) . . .
45(4) . . .
62(4) . . .
49(4) . . .
44.3(35) . . .
54(4) . . .
49(4) . . .
49(4) . . .
55(4) . . .
52(4) . . .
59(4) . . .
41.6(34) . . .
50(4) . . .
50(4) . . .
50(4) . . .
47(4) . . .
53(4) . . .
41(4) . . .
36.8(32) . . .
51(4) . . .
47(4) . . .
49(4) . . .
57(4) . . .
52(4) . . .
55(4) . . .
53(4) . . .
52(4) . . .
57(4) . . .
42.3(35) . . .
49(4) . . .
54(4) . . .
45(4) . . .
41.8(34) . . .
48(4) . . .
41(4) . . .
46(4) . . .
42.8(34) . . .
59(4) . . .
53(4) . . .
50(4) . . .
60(4) . . .
52(4) . . .
50(4) . . .
54(4) . . .
57(4) . . .
51(4) . . .
62(4) . . .
47(4) . . .
52(4) . . .
51(4) . . .
56(4) . . .
51(4) . . .
46(4) . . .
56(4) . . .
53(4) . . .
45(4) . . .
58(4) . . .
56(4) . . .
58(4) . . .
54(4) . . .
37.9(33) . . .
55(4) . . .
51(4) . . .
48(4) . . .
47(4) . . .
61(4) . . .
47(4) . . .
49(4) . . .
46(4) . . .
53(4) . . .
45.4(35) . . .
52(4) . . .
57(4) . . .
56(4) . . .
51(4) . . .
43.1(34) . . .
44.6(35) . . .
40.4(33) . . .
49(4) . . .
45(4) . . .
51(4) . . .
54(4) . . .
48(4) . . .
47(4) . . .
47(4) . . .
55(4) . . .
56(4) . . .
50(4) . . .
51(4) . . .
54(4) . . .
62(4) . . .
54(4) . . .
49(4) . . .
56(4) . . .
54(4) . . .
49(4) . . .
49(4) . . .
47(4) . . .
53(4) . . .
49(4) . . .
46(4) . . .
46.4(35) . . .
49(4) . . .
48(4) . . .
54(4) . . .
48(4) . . .
56(4) . . .
46(4) . . .
43.5(34) . . .
53(4) . . .
66(4) . . .
52(4) . . .
53(4) . . .
52(4) . . .
47(4) . . .
59(4) . . .
50(4) . . .
56(4) . . .
55(4) . . .
55(4) . . .
50(4) . . .
52(4) . . .
42(4) . . .
50(4) . . .
58(4) . . .
67(4) . . .
51(4) . . .
53(4) . . .
49(4) . . .
53(4) . . .
52(4) . . .
37.1(32) . . .
54(4) . . .
49(4) . . .
48(4) . . .
56(4) . . .
47(4) . . .
52(4) . . .
54(4) . . .
57(4) . . .
51(4) . . .
41.0(33) . . .
46(4) . . .
52(4) . . .
62(4) . . .
48(4) . . .
44.3(34) . . .
63(4) . . .
54(4) . . .
51(4) . . .
56(4) . . .
50(4) . . .
59(4) . . .
58(4) . . .
47(4) . . .
54(4) . . .
52(4) . . .
48(4) . . .
41.6(34) . . .
53(4) . . .
52(4) . . .
51(4) . . .
51(4) . . .
54(4) . . .
55(4) . . .
46(4) . . .
52(4) . . .
53(4) . . .
58(4) . . .
51(4) . . .
55(4) . . .
55(4) . . .
57(4) . . .
59(4) . . .
48(4) . . .
55(4) . . .
42(4) . . .
49(4) . . .
44(4) . . .
58(4) . . .
54(4) . . .
52(4) . . .
50(4) . . .
61(4) . . .
60(4) . . .
48(4) . . .
50(4) . . .
49(4) . . .
44(4) . . .
47(4) . . .
46(4) . . .
51(4) . . .
50(4) . . .
44(4) . . .
57(4) . . .
47(4) . . .
48(4) . . .
53(4) . . .
49(4) . . .
50(4) . . .
41.7(34) . . .
55(4) . . .
44.4(35) . . .
50(4) . . .
45(4) . . .
43.2(34) . . .
52(4) . . .
40(4) . . .
60(4) . . .
47(4) . . .
53(4) . . .
52(4) . . .
48(4) . . .
52(4) . . .
48(4) . . .
53(4) . . .
50(4) . . .
53(4) . . .
45(4) . . .
44(4) . . .
56(4) . . .
39.0(31) . . .
51(4) . . .
57(4) . . .
54(4) . . .
51(4) . . .
38.5(32) . . .
54(4) . . .
59(4) . . .
58(4) . . .
48(4) . . .
49(4) . . .
54(4) . . .
53(4) . . .
52(4) . . .
47(4) . . .
50(4) . . .
54(4) . . .
55(4) . . .
54(4) . . .
52(4) . . .
51(4) . . .
44.6(35) . . .
50(4) . . .
52(4) . . .
55(4) . . .
50(4) . . .
48(4) . . .
37.7(31) . . .
52(4) . . .
53(4) . . .
51(4) . . .
52(4) . . .
53(4) . . .
56(4) . . .
53(4) . . .
48(4) . . .
50(4) . . .
45(4) . . .
57(4) . . .
55(4) . . .
59(4) . . .
51(4) . . .
59(4) . . .
50(4) . . .
54(4) . . .
46(4) . . .
50(4) . . .
51(4) . . .
47(4) . . .
47(4) . . .
39.5(35) . . .
55(4) . . .
52(4) . . .
48(4) . . .
47(4) . . .
51(4) . . .
53(4) . . .
48(4) . . .
56(4) . . .
56(4) . . .
68(4) . . .
57(4) . . .
44.2(35) . . .
56(4) . . .
54(4) . . .
52(4) . . .
44.0(34) . . .
45(4) . . .
49(4) . . .
47(4) . . .
56(4) . . .
41.8(35) . . .
50(4) . . .
58(4) . . .
54(4) . . .
54(4) . . .
53(4) . . .
42.3(33) . . .
46(4) . . .
57(4) . . .
62(4) . . .
50(4) . . .
40.3(34) . . .
60(4) . . .
65(5) . . .
53(4) . . .
63(4) . . .
60(4) . . .
50(4) . . .
46(4) . . .
53(4) . . .
48(4) . . .
51(4) . . .
51(4) . . .
50(4) . . .
53(4) . . .
47(4) . . .
57(4) . . .
60(4) . . .
48(4) . . .
51(4) . . .
42.4(34) . . .
50(4) . . .
56(4) . . .
47(4) . . .
53(4) . . .
44.5(35) . . .
49(4) . . .
48(4) . . .
56(4) . . .
55(4) . . .
55(4) . . .
49(4) . . .
50(4) . . .
50(4) . . .
54(4) . . .
49(4) . . .
45(4) . . .
53(4) . . .
58(4) . . .
60(4) . . .
53(4) . . .
46(4) . . .
59(4) . . .
52(4) . . .
44.2(35) . . .
51(4) . . .
54(4) . . .
55(4) . . .
44(4) . . .
45(4) . . .
55(4) . . .
58(4) . . .
57(4) . . .
51(4) . . .
55(4) . . .
55(4) . . .
54(4) . . .
56(4) . . .
54(4) . . .
53(4) . . .
44.7(35) . . .
49(4) . . .
52(4) . . .
46(4) . . .
43.0(34) . . .
42.0(35) . . .
66(4) . . .
63(4) . . .
43.1(35) . . .
45.9(35) . . .
50(4) . . .
48(4) . . .
49(4) . . .
47(4) . . .
49(4) . . .
53(4) . . .
59(4) . . .
52(4) . . .
50(4) . . .
54(4) . . .
56(4) . . .
51(4) . . .
59(4) . . .
55(4) . . .
46.2(35) . . .
39.0(33) . . .
54(4) . . .
46(4) . . .
50(4) . . .
62(4) . . .
58(4) . . .
54(4) . . .
50(4) . . .
45(4) . . .
53(4) . . .
59(4) . . .
65(5) . . .
49(4) . . .
60(4) . . .
53(4) . . .
50(4) . . .
56(4) . . .
57(4) . . .
50(4) . . .
42.1(34) . . .
56(4) . . .
56(4) . . .
45(4) . . .
55(4) . . .
53(4) . . .
49(4) . . .
54(4) . . .
52(4) . . .
57(4) . . .
55(4) . . .
56(4) . . .
49(4) . . .
50(4) . . .
55(4) . . .
52(4) . . .
53(4) . . .
50(4) . . .
46(4) . . .
52(4) . . .
40.9(35) . . .
49(4) . . .
38.7(32) . . .
51(4) . . .
37.8(32) . . .
59(4) . . .
60(4) . . .
62(4) . . .
52(4) . . .
48(4) . . .
49(4) . . .
45(4) . . .
52(4) . . .
53(4) . . .
49(4) . . .
53(4) . . .
39.2(33) . . .
46.0(35) . . .
59(4) . . .
57(4) . . .
56(4) . . .
50(4) . . .
43.9(35) . . .
57(4) . . .
55(4) . . .
43(4) . . .
43(4) . . .
55(4) . . .
50(4) . . .
45(4) . . .
45.0(35) . . .
47(4) . . .
52(4) . . .
55(4) . . .
48(4) . . .
46(4) . . .
63(5) . . .
49(4) . . .
45.8(35) . . .
51(4) . . .
47(4) . . .
46(4) . . .
43.1(35) . . .
38.3(33) . . .
50(4) . . .
50(4) . . .
45(4) . . .
46(4) . . .
48(4) . . .
47(4) . . .
47(4) . . .
43(4) . . .
45(4) . . .
43.2(34) . . .
56(4) . . .
51(4) . . .
48(4) . . .
59(4) . . .
53(4) . . .
58(4) . . .
52(4) . . .
53(4) . . .
42.8(34) . . .
57(4) . . .
48(4) . . .
50(4) . . .
50(4) . . .
47(4) . . .
54(4) . . .
51(4) . . .
45(4) . . .
52(4) . . .
48(4) . . .
54(4) . . .
49(4) . . .
54(4) . . .
52(4) . . .
52(4) . . .
52(4) . . .
47(4) . . .
56(4) . . .
57(4) . . .
43.3(34) . . .
52(4) . . .
44(4) . . .
52(4) . . .
53(4) . . .
63(4) . . .
42.7(35) . . .
50(4) . . .
50(4) . . .
58(4) . . .
62(4) . . .
53(4) . . .
51(4) . . .
46(4) . . .
49(4) . . .
51(4) . . .
58(4) . . .
52(4) . . .
65(4) . . .
60(4) . . .
50(4) . . .
58(4) . . .
56(4) . . .
44.6(35) . . .
43.9(34) . . .
49(4) . . .
50(4) . . .
42.7(35) . . .
42(4) . . .
44(4) . . .
46(4) . . .
56(4) . . .
53(4) . . .
54(4) . . .
46(4) . . .
47(4) . . .
48(4) . . .
56(4) . . .
52(4) . . .
49(4) . . .
53(4) . . .
59(4) . . .
56(4) . . .
54(4) . . .
47(4) . . .
48(4) . . .
40.9(35) . . .
46(4) . . .
42(4) . . .
47(4) . . .
57(4) . . .
53(4) . . .
52(4) . . .
51(4) . . .
54(4) . . .
56(4) . . .
47(4) . . .
55(4) . . .
56(4) . . .
52(4) . . .
59(4) . . .
52(4) . . .
47(4) . . .
40.0(34) . . .
47(4) . . .
56(4) . . .
55(4) . . .
52(4) . . .
52(4) . . .
55(4) . . .
42.7(34) . . .
59(4) . . .
52(4) . . .
52(4) . . .
50(4) . . .
44.6(35) . . .
45(4) . . .
60(4) . . .
44.3(35) . . .
48(4) . . .
43(4) . . .
41(4) . . .
41.3(35) . . .
57(4) . . .
46(4) . . .
53(4) . . .
51(4) . . .
52(4) . . .
54(4) . . .
47(4) . . .
46(4) . . .
47(4) . . .
58(4) . . .
51(4) . . .
45.0(35) . . .
51(4) . . .
44(4) . . .
43(4) . . .
44.9(34) . . .
43.0(34) . . .
43(4) . . .
53(4) . . .
62(4) . . .
51(4) . . .
55(4) . . .
57(4) . . .
46(4) . . .
50(4) . . .
55(4) . . .
56(4) . . .
59(4) . . .
50(4) . . .
52(4) . . .
41.7(34) . . .
46(4) . . .
51(4) . . .
54(4) . . .
51(4) . . .
45.1(35) . . .
51(4) . . .
54(4) . . .
51(4) . . .
44.1(35) . . .
49(4) . . .
45(4) . . .
50(4) . . .
42(4) . . .
51(4) . . .
53(4) . . .
51(4) . . .
51(4) . . .
49(4) . . .
52(4) . . .
52(4) . . .
50(4) . . .
50(4) . . .
52(4) . . .
54(4) . . .
54(4) . . .
42(4) . . .
44(4) . . .
53(4) . . .
57(4) . . .
52(4) . . .
49(4) . . .
49(4) . . .
49(4) . . .
56(4) . . .
52(4) . . .
56(4) . . .
48(4) . . .
57(4) . . .
51(4) . . .
59(4) . . .
51(4) . . .
44(4) . . .
55(4) . . .
48(4) . . .
50(4) . . .
45.3(35) . . .
60(4) . . .
49(4) . . .
50(4) . . .
48(4) . . .
52(4) . . .
41.9(33) . . .
45(4) . . .
47(4) . . .
43(4) . . .
53(4) . . .
50(4) . . .
45(4) . . .
48(4) . . .
46(4) . . .
53(4) . . .
41.7(33) . . .
52(4) . . .
48(4) . . .
48(4) . . .
59(4) . . .
50(4) . . .
44(4) . . .
48(4) . . .
49(4) . . .
55(4) . . .
48(4) . . .
58(4) . . .
51(4) . . .
48(4) . . .
47(4) . . .
46(4) . . .
53(4) . . .
57(4) . . .
49(4) . . .
60(4) . . .
55(4) . . .
48(4) . . .
51(4) . . .
49(4) . . .
40(4) . . .
52(4) . . .
39.2(32) . . .
51(4) . . .
57(4) . . .
47(4) . . .
41.6(34) . . .
38.2(32) . . .
49(4) . . .
53(4) . . .
42.0(34) . . .
39.5(33) . . .
43(4) . . .
50(4) . . .
38.1(33) . . .
55(4) . . .
51(4) . . .
49(4) . . .
49(4) . . .
50(4) . . .
53(4) . . .
58(4) . . .
49(4) . . .
54(4) . . .
46.8(35) . . .
50(4) . . .
52(4) . . .
41.8(34) . . .
54(4) . . .
51(4) . . .
54(4) . . .
52(4) . . .
52(4) . . .
50(4) . . .
50(4) . . .
48(4) . . .
52(4) . . .
48(4) . . .
46(4) . . .
56(4) . . .
45(4) . . .
57(4) . . .
42.0(35) . . .
51(4) . . .
53(4) . . .
60(4) . . .
51(4) . . .
37.1(34) . . .
49(4) . . .
46(4) . . .
43.5(34) . . .
48(4) . . .
47(4) . . .
46(4) . . .
46(4) . . .
50(4) . . .
49(4) . . .
56(4) . . .
52(4) . . .
48(4) . . .
47(4) . . .
49(4) . . .
49(4) . . .
58(4) . . .
43(4) . . .
40.7(34) . . .
57(4) . . .
42(4) . . .
32.3(30) . . .
52(4) . . .
56(4) . . .
53(4) . . .
52(4) . . .
45(4) . . .
46(4) . . .
47(4) . . .
54(4) . . .
47(4) . . .
43(4) . . .
46(4) . . .
39.7(33) . . .
52(4) . . .
50(4) . . .
52(4) . . .
56(4) . . .
54(4) . . .
50(4) . . .
45(4) . . .
47(4) . . .
48(4) . . .
55(4) . . .
56(4) . . .
56(4) . . .
58(4) . . .
52(4) . . .
41.0(33) . . .
51(4) . . .
47(4) . . .
51(4) . . .
63(4) . . .
58(4) . . .
47(4) . . .
46(4) . . .
56(4) . . .
48(4) . . .
45(4) . . .
52(4) . . .
52(4) . . .
51(4) . . .
40.6(34) . . .
57(4) . . .
46(4) . . .
51(4) . . .
47(4) . . .
52(4) . . .
54(4) . . .
49(4) . . .
53(4) . . .
47(4) . . .
53(4) . . .
38.8(34) . . .
44(4) . . .
44(4) . . .
51(4) . . .
42.7(34) . . .
43.9(34) . . .
49(4) . . .
50(4) . . .
46(4) . . .
55(4) . . .
55(4) . . .
46(4) . . .
45(4) . . .
43.5(34) . . .
52(4) . . .
50(4) . . .
46(4) . . .
46(4) . . .
47(4) . . .
56(4) . . .
47(4) . . .
46(4) . . .
51(4) . . .
50(4) . . .
50(4) . . .
48(4) . . .
46(4) . . .
53(4) . . .
50(4) . . .
49(4) . . .
53(4) . . .
44.0(34) . . .
54(4) . . .
50(4) . . .
50(4) . . .
53(4) . . .
46(4) . . .
45(4) . . .
54(4) . . .
49(4) . . .
53(4) . . .
50(4) . . .
46(4) . . .
57(4) . . .
50(4) . . .
52(4) . . .
45(4) . . .
49(4) . . .
56(4) . . .
49(4) . . .
48(4) . . .
46(4) . . .
48(4) . . .
50(4) . . .
45(4) . . .
55(4) . . .
58(4) . . .
45(4) . . .
56(4) . . .
42.4(34) . . .
45(4) . . .
54(4) . . .
49(4) . . .
51(4) . . .
53(4) . . .
50(4) . . .
52(4) . . .
49(4) . . .
36.8(32) . . .
45(4) . . .
53(4) . . .
40.8(34) . . .
47(4) . . .
44.1(34) . . .
43.5(35) . . .
47(4) . . .
54(4) . . .
40.1(34) . . .
48(4) . . .
48(4) . . .
51(4) . . .
49(4) . . .
43.9(35) . . .
57(4) . . .
39.1(32) . . .
45(4) . . .
56(4) . . .
47(4) . . .
53(4) . . .
49(4) . . .
48(4) . . .
38.7(35) . . .
51(4) . . .
37.9(32) . . .
50(4) . . .
47(4) . . .
45(4) . . .
46(4) . . .
54(4) . . .
40.9(33) . . .
53(4) . . .
53(4) . . .
40.9(35) . . .
46(4) . . .
42.8(34) . . .
43(4) . . .
49(4) . . .
48(4) . . .
49(4) . . .
48(4) . . .
51(4) . . .
57(4) . . .
48(4) . . .
46(4) . . .
47(4) . . .
53(4) . . .
45(4) . . .
42.3(34) . . .
47(4) . . .
47(4) . . .
54(4) . . .
44(4) . . .
55(4) . . .
42.4(33) . . .
50(4) . . .
50(4) . . .
49(4) . . .
44.4(35) . . .
44.3(34) . . .
37.8(31) . . .
49(4) . . .
48(4) . . .
49(4) . . .
47(4) . . .
50(4) . . .
51(4) . . .
50(4) . . .
50(4) . . .
48(4) . . .
44(4) . . .
43(4) . . .
40.1(34) . . .
49(4) . . .
47(4) . . .
43(4) . . .
51(4) . . .
46(4) . . .
50(4) . . .
38.4(33) . . .
45(4) . . .
58(4) . . .
42.2(34) . . .
50(4) . . .
47(4) . . .
49(4) . . .
55(4) . . .
53(4) . . .
43.8(35) . . .
44(4) . . .
45(4) . . .
52(4) . . .
43.9(34) . . .
48(4) . . .
39.4(34) . . .
41.6(35) . . .
52(4) . . .
51(4) . . .
54(4) . . .
53(4) . . .
58(4) . . .
47(4) . . .
48(4) . . .
49(4) . . .
53(4) . . .
61(4) . . .
49(4) . . .
48(4) . . .
44.8(34) . . .
58(4) . . .
47(4) . . .
44(4) . . .
50(4) . . .
43(4) . . .
58(4) . . .
50(4) . . .
39(4) . . .
37.6(32) . . .
57(4) . . .
55(4) . . .
50(4) . . .
49(4) . . .
44(4) . . .
44(4) . . .
40(4) . . .
57(4) . . .
51(4) . . .
48(4) . . .
50(4) . . .
51(4) . . .
39.3(33) . . .
51(4) . . .
46(4) . . .
49(4) . . .
54(4) . . .
58(4) . . .
54(4) . . .
54(4) . . .
51(4) . . .
47(4) . . .
48(4) . . .
46(4) . . .
54(4) . . .
43.8(35) . . .
49(4) . . .
53(4) . . .
59(4) . . .
54(4) . . .
52(4) . . .
55(4) . . .
56(4) . . .
49(4) . . .
45(4) . . .
52(4) . . .
47(4) . . .
60(4) . . .
54(4) . . .
45(4) . . .
52(4) . . .
48(4) . . .
53(4) . . .
52(4) . . .
50(4) . . .
41.9(35) . . .
43(4) . . .
48(4) . . .
37.3(33) . . .
57(4) . . .
48(4) . . .
47(4) . . .
62(4) . . .
53(4) . . .
57(4) . . .
49(4) . . .
49(4) . . .
49(4) . . .
41.6(34) . . .
42.4(34) . . .
47(4) . . .
44(4) . . .
43(4) . . .
44.4(35) . . .
48(4) . . .
47(4) . . .
56(4) . . .
47(4) . . .
40.5(33) . . .
49(4) . . .
41.8(34) . . .
51(4) . . .
50(4) . . .
53(4) . . .
44(4) . . .
45(4) . . .
43(4) . . .
52(4) . . .
50(4) . . .
46(4) . . .
49(4) . . .
54(4) . . .
51(4) . . .
57(4) . . .
60(4) . . .
45(4) . . .
46(4) . . .
49(4) . . .
39.6(32) . . .
59(4) . . .
56(4) . . .
53(4) . . .
57(4) . . .
53(4) . . .
67(5) . . .
51(4) . . .
60(4) . . .
50(4) . . .
47(4) . . .
52(4) . . .
46(4) . . .
44(4) . . .
46(4) . . .
45(4) . . .
49(4) . . .
47(4) . . .
44.0(35) . . .
50(4) . . .
49(4) . . .
46(4) . . .
47(4) . . .
43(4) . . .
43.2(34) . . .
54(4) . . .
43.2(34) . . .
37.5(32) . . .
41.5(34) . . .
46(4) . . .
56(4) . . .
49(4) . . .
48(4) . . .
41.3(33) . . .
49(4) . . .
54(4) . . .
35.8(33) . . .
55(4) . . .
52(4) . . .
55(4) . . .
51(4) . . .
48(4) . . .
52(4) . . .
37.5(32) . . .
46(4) . . .
47(4) . . .
53(4) . . .
49(4) . . .
43.4(34) . . .
57(4) . . .
46(4) . . .
50(4) . . .
49(4) . . .
48(4) . . .
45.8(35) . . .
49(4) . . .
46(4) . . .
49(4) . . .
37.1(32) . . .
46(4) . . .
58(4) . . .
49(4) . . .
50(4) . . .
54(4) . . .
43(4) . . .
53(4) . . .
54(4) . . .
41.2(33) . . .
48(4) . . .
48(4) . . .
46(4) . . .
43(4) . . .
48(4) . . .
46(4) . . .
40.1(34) . . .
46(4) . . .
48(4) . . .
49(4) . . .
49(4) . . .
49(4) . . .
45(4) . . .
55(4) . . .
50(4) . . .
51(4) . . .
61(4) . . .
50(4) . . .
38.7(34) . . .
47(4) . . .
42.0(34) . . .
55(4) . . .
45(4) . . .
37.6(32) . . .
51(4) . . .
49(4) . . .
46(4) . . .
42(4) . . .
44(4) . . .
44.4(34) . . .
53(4) . . .
47(4) . . .
53(4) . . .
52(4) . . .
53(4) . . .
54(4) . . .
38.0(34) . . .
47(4) . . .
55(4) . . .
52(4) . . .
46.3(35) . . .
49(4) . . .
45(4) . . .
54(4) . . .
46.2(35) . . .
59(4) . . .
55(4) . . .
46(4) . . .
42.3(34) . . .
44.2(34) . . .
53(4) . . .
45(4) . . .
51(4) . . .
43(4) . . .
49(4) . . .
53(4) . . .
47(4) . . .
38.8(34) . . .
42.0(34) . . .
51(4) . . .
47(4) . . .
48(4) . . .
48(4) . . .
48(4) . . .
43.2(34) . . .
49(4) . . .
40.9(34) . . .
53(4) . . .
51(4) . . .
59(4) . . .
52(4) . . .
51(4) . . .
45(4) . . .
50(4) . . .
51(4) . . .
39.8(33) . . .
49(4) . . .
46(4) . . .
50(4) . . .
43.0(34) . . .
48(4) . . .
52(4) . . .
55(4) . . .
44.3(35) . . .
49(4) . . .
45(4) . . .
45(4) . . .
37.7(34) . . .
44.2(35) . . .
51(4) . . .
39.6(34) . . .
37(4) . . .
49(4) . . .
52(4) . . .
41.6(34) . . .
48(4) . . .
43(4) . . .
45(4) . . .
48(4) . . .
43(4) . . .
51(4) . . .
52(4) . . .
48(4) . . .
54(4) . . .
41.8(33) . . .
40.3(34) . . .
48(4) . . .
36.5(31) . . .
49(4) . . .
45(4) . . .
56(4) . . .
55(4) . . .
54(4) . . .
45.4(35) . . .
40.4(33) . . .
36.6(33) . . .
53(4) . . .
45.8(35) . . .
50(4) . . .
43(4) . . .
47(4) . . .
47(4) . . .
52(4) . . .
54(4) . . .
43.8(34) . . .
49(4) . . .
51(4) . . .
50(4) . . .
52(4) . . .
42.1(34) . . .
41.6(35) . . .
43(4) . . .
46(4) . . .
52(4) . . .
33.3(32) . . .
40(4) . . .
52(4) . . .
52(4) . . .
53(4) . . .
41.5(35) . . .
58(4) . . .
54(4) . . .
44.1(34) . . .
49(4) . . .
45(4) . . .
45(4) . . .
45(4) . . .
41.4(34) . . .
46(4) . . .
45(4) . . .
45(4) . . .
51(4) . . .
50(4) . . .
55(4) . . .
47(4) . . .
52(4) . . .
50(4) . . .
52(4) . . .
46(4) . . .
55(4) . . .
51(4) . . .
41.8(34) . . .
48(4) . . .
56(4) . . .
46(4) . . .
51(4) . . .
45(4) . . .
42.9(35) . . .
41.1(35) . . .
44(4) . . .
50(4) . . .
52(4) . . .
41.6(34) . . .
48(4) . . .
43(4) . . .
48(4) . . .
45.1(35) . . .
53(4) . . .
48(4) . . .
54(4) . . .
44(4) . . .
47(4) . . .
55(4) . . .
56(4) . . .
55(4) . . .
52(4) . . .
52(4) . . .
41.3(34) . . .
43(4) . . .
46(4) . . .
51(4) . . .
42.6(34) . . .
47(4) . . .
50(4) . . .
37.6(35) . . .
47(4) . . .
54(4) . . .
51(4) . . .
53(4) . . .
52(4) . . .
50(4) . . .
49(4) . . .
41.7(33) . . .
45(4) . . .
43(4) . . .
49(4) . . .
43.1(34) . . .
62(4) . . .
47(4) . . .
50(4) . . .
47(4) . . .
52(4) . . .
55(4) . . .
55(4) . . .
45.1(35) . . .
54(4) . . .
42.0(34) . . .
58(4) . . .
42.3(34) . . .
40.6(34) . . .
45.6(35) . . .
44.8(35) . . .
38.0(33) . . .
41.4(35) . . .
44(4) . . .
55(4) . . .
51(4) . . .
44(4) . . .
50(4) . . .
43.8(35) . . .
43.3(34) . . .
47(4) . . .
49(4) . . .
51(4) . . .
49(4) . . .
57(4) . . .
51(4) . . .
43.1(35) . . .
43(4) . . .
40.4(35) . . .
43.8(34) . . .
54(4) . . .
50(4) . . .
45(4) . . .
48(4) . . .
53(4) . . .
49(4) . . .
48(4) . . .
44(4) . . .
45(4) . . .
42.7(34) . . .
43.0(34) . . .
43(4) . . .
44(4) . . .
46(4) . . .
64(4) . . .
58(4) . . .
53(4) . . .
48(4) . . .
51(4) . . .
53(4) . . .
52(4) . . .
39.4(34) . . .
60(4) . . .
50(4) . . .
50(4) . . .
49(4) . . .
48(4) . . .
49(4) . . .
53(4) . . .
54(4) . . .
49(4) . . .
49(4) . . .
49(4) . . .
52(4) . . .
54(4) . . .
55(4) . . .
47(4) . . .
45(4) . . .
53(4) . . .
45.1(35) . . .
44(4) . . .
53(4) . . .
41.1(33) . . .
58(4) . . .
60(4) . . .
52(4) . . .
51(4) . . .
48(4) . . .
51(4) . . .
42.5(34) . . .
54(4) . . .
44(4) . . .
52(4) . . .
41.5(34) . . .
41.4(35) . . .
45(4) . . .
55(4) . . .
51(4) . . .
48(4) . . .
50(4) . . .
52(4) . . .
48(4) . . .
48(4) . . .
52(4) . . .
46(4) . . .
50(4) . . .
38.4(33) . . .
52(4) . . .
49(4) . . .
55(4) . . .
49(4) . . .
49(4) . . .
46(4) . . .
42.7(34) . . .
48(4) . . .
52(4) . . .
49(4) . . .
48(4) . . .
53(4) . . .
48(4) . . .
55(4) . . .
48(4) . . .
51(4) . . .
57(4) . . .
51(4) . . .
47(4) . . .
53(4) . . .
44.4(35) . . .
52(4) . . .
45(4) . . .
61(4) . . .
57(4) . . .
54(4) . . .
64(4) . . .
51(4) . . .
42.3(35) . . .
63(4) . . .
51(4) . . .
46.3(35) . . .
47(4) . . .
53(4) . . .
47(4) . . .
46(4) . . .
45(4) . . .
57(4) . . .
42.2(34) . . .
49(4) . . .
46.2(35) . . .
32.6(30) . . .
46(4) . . .
43(4) . . .
57(4) . . .
54(4) . . .
51(4) . . .
50(4) . . .
43(4) . . .
38.9(33) . . .
42.7(34) . . .
42.4(34) . . .
54(4) . . .
47(4) . . .
49(4) . . .
50(4) . . .
44(4) . . .
47(4) . . .
55(4) . . .
47(4) . . .
47(4) . . .
55(4) . . .
39.9(34) . . .
47(4) . . .
46(4) . . .
46(4) . . .
45(4) . . .
52(4) . . .
53(4) . . .
42.0(34) . . .
41.9(34) . . .
47(4) . . .
51(4) . . .
49(4) . . .
44.1(35) . . .
42.5(33) . . .
53(4) . . .
49(4) . . .
50(4) . . .
47(4) . . .
48(4) . . .
46(4) . . .
43(4) . . .
41.2(34) . . .
53(4) . . .
49(4) . . .
53(4) . . .
50(4) . . .
42.8(35) . . .
45.2(35) . . .
55(4) . . .
53(4) . . .
47(4) . . .
54(4) . . .
51(4) . . .
51(4) . . .
48(4) . . .
49(4) . . .
49(4) . . .
48(4) . . .
50(4) . . .
48(4) . . .
44(4) . . .
38.3(32) . . .
51(4) . . .
51(4) . . .
54(4) . . .
55(4) . . .
39.3(33) . . .
41.5(34) . . .
49(4) . . .
40.2(32) . . .
53(4) . . .
51(4) . . .
61(4) . . .
55(4) . . .
53(4) . . .
45(4) . . .
43.6(35) . . .
45.5(35) . . .
54(4) . . .
48(4) . . .
56(4) . . .
50(4) . . .
44.1(35) . . .
59(4) . . .
52(4) . . .
54(4) . . .
48(4) . . .
43.4(35) . . .
50(4) . . .
51(4) . . .
45(4) . . .
52(4) . . .
50(4) . . .
47(4) . . .
46(4) . . .
50(4) . . .
43.2(35) . . .
47(4) . . .
52(4) . . .
52(4) . . .
45(4) . . .
47(4) . . .
55(4) . . .
48(4) . . .
51(4) . . .
53(4) . . .
42.7(34) . . .
53(4) . . .
46(4) . . .
52(4) . . .
48(4) . . .
48(4) . . .
48(4) . . .
44(4) . . .
39.3(34) . . .
40.4(34) . . .
48(4) . . .
54(4) . . .
52(4) . . .
43(4) . . .
42.1(34) . . .
46.5(35) . . .
57(4) . . .
46(4) . . .
37.9(33) . . .
44.1(35) . . .
50(4) . . .
46(4) . . .
40(4) . . .
40.4(34) . . .
52(4) . . .
46(4) . . .
46(4) . . .
47(4) . . .
43.9(35) . . .
44.5(35) . . .
49(4) . . .
51(4) . . .
52(4) . . .
49(4) . . .
54(4) . . .
52(4) . . .
52(4) . . .
48(4) . . .
50(4) . . .
57(4) . . .
49(4) . . .
47(4) . . .
51(4) . . .
41.1(34) . . .
44.0(34) . . .
47(4) . . .
50(4) . . .
48(4) . . .
47(4) . . .
37.2(32) . . .
49(4) . . .
48(4) . . .
51(4) . . .
38.8(34) . . .
46(4) . . .
53(4) . . .
49(4) . . .
44(4) . . .
48(4) . . .
47(4) . . .
50(4) . . .
48(4) . . .
52(4) . . .
48(4) . . .
45(4) . . .
49(4) . . .
47(4) . . .
50(4) . . .
54(4) . . .
44.2(35) . . .
49(4) . . .
48(4) . . .
46(4) . . .
50(4) . . .
43.5(34) . . .
47(4) . . .
51(4) . . .
50(4) . . .
52(4) . . .
47(4) . . .
47(4) . . .
48(4) . . .
45(4) . . .
43.0(34) . . .
50(4) . . .
49(4) . . .
47(4) . . .
47(4) . . .
45.5(35) . . .
42.7(35) . . .
51(4) . . .
52(4) . . .
47(4) . . .
43.3(34) . . .
49(4) . . .
51(4) . . .
55(4) . . .
45(4) . . .
53(4) . . .
48(4) . . .
51(4) . . .
42.3(35) . . .
43(4) . . .
50(4) . . .
51(4) . . .
54(4) . . .
48(4) . . .
47(4) . . .
44.1(34) . . .
53(4) . . .
49(4) . . .
47(4) . . .
47(4) . . .
50(4) . . .
45(4) . . .
49(4) . . .
37.7(33) . . .
46.1(35) . . .
44.7(35) . . .
41.5(34) . . .
43(4) . . .
51(4) . . .
42.8(34) . . .
51(4) . . .
51(4) . . .
44(4) . . .
52(4) . . .
40.8(33) . . .
52(4) . . .
43.6(35) . . .
43(4) . . .
41(4) . . .
52(4) . . .
45.7(35) . . .
49(4) . . .
42(4) . . .
45(4) . . .
42.2(34) . . .
45.1(35) . . .
52(4) . . .
45(4) . . .
54(4) . . .
48(4) . . .
46(4) . . .
38.1(33) . . .
48(4) . . .
47(4) . . .
53(4) . . .
41.2(33) . . .
47(4) . . .
49(4) . . .
43.8(34) . . .
46(4) . . .
53(4) . . .
47(4) . . .
37.5(32) . . .
43(4) . . .
50(4) . . .
40.7(34) . . .
54(4) . . .
44(4) . . .
43(4) . . .
40.8(33) . . .
53(4) . . .
50(4) . . .
47(4) . . .
52(4) . . .
52(4) . . .
42(4) . . .
41.0(33) . . .
52(4) . . .
57(4) . . .
51(4) . . .
50(4) . . .
45(4) . . .
48(4) . . .
39.6(32) . . .
41.6(34) . . .
50(4) . . .
48(4) . . .
46(4) . . .
50(4) . . .
47(4) . . .
48(4) . . .
48(4) . . .
41.4(34) . . .
50(4) . . .
52(4) . . .
52(4) . . .
48(4) . . .
46(4) . . .
46(4) . . .
38.1(33) . . .
50(4) . . .
42.5(34) . . .
39.0(35) . . .
46(4) . . .
54(4) . . .
52(4) . . .
38.0(35) . . .
49(4) . . .
38.7(33) . . .
46.5(35) . . .
45(4) . . .
60(4) . . .
49(4) . . .
46(4) . . .
54(4) . . .
49(4) . . .
52(4) . . .
47(4) . . .
48(4) . . .
53(4) . . .
48(4) . . .
45(4) . . .
38.9(33) . . .
53(4) . . .
54(4) . . .
48(4) . . .
43.2(35) . . .
48(4) . . .
57(4) . . .
52(4) . . .
37.5(34) . . .
43(4) . . .
52(4) . . .
50(4) . . .
36.4(33) . . .
54(4) . . .
43(4) . . .
38.3(32) . . .
34.2(30) . . .
44(4) . . .
49(4) . . .
45(4) . . .
43.1(34) . . .
50(4) . . .
44(4) . . .
43(4) . . .
46(4) . . .
53(4) . . .
44.2(35) . . .
46(4) . . .
45(4) . . .
44.3(35) . . .
52(4) . . .
56(4) . . .
44.8(34) . . .
41(4) . . .
39.6(34) . . .
55(4) . . .
48(4) . . .
34.3(30) . . .
45(4) . . .
52(4) . . .
49(4) . . .
54(4) . . .
42.9(35) . . .
54(4) . . .
51(4) . . .
52(4) . . .
48(4) . . .
47(4) . . .
47(4) . . .
51(4) . . .
49(4) . . .
52(4) . . .
40.0(33) . . .
41.1(34) . . .
46(4) . . .
54(4) . . .
53(4) . . .
52(4) . . .
44(4) . . .
48(4) . . .
50(4) . . .
39.7(33) . . .
50(4) . . .
49(4) . . .
44.7(35) . . .
50(4) . . .
41.1(34) . . .
43(4) . . .
33.9(31) . . .
51(4) . . .
41.9(34) . . .
48(4) . . .
37.8(34) . . .
52(4) . . .
59(4) . . .
45(4) . . .
37.5(33) . . .
49(4) . . .
51(4) . . .
59(4) . . .
49(4) . . .
51(4) . . .
47(4) . . .
58(4) . . .
46(4) . . .
43.2(35) . . .
42.0(33) . . .
57(4) . . .
51(4) . . .
58(4) . . .
46(4) . . .
48(4) . . .
53(4) . . .
52(4) . . .
44.2(34) . . .
37.7(34) . . .
44(4) . . .
52(4) . . .
51(4) . . .
56(4) . . .
50(4) . . .
52(4) . . .
53(4) . . .
45(4) . . .
50(4) . . .
49(4) . . .
40.3(33) . . .
52(4) . . .
43.2(34) . . .
43.3(34) . . .
44.8(35) . . .
59(4) . . .
52(4) . . .
46(4) . . .
47(4) . . .
44(4) . . .
46(4) . . .
47(4) . . .
49(4) . . .
50(4) . . .
46(4) . . .
45(4) . . .
57(4) . . .
47(4) . . .
45(4) . . .
47(4) . . .
45(4) . . .
38.0(33) . . .
53(4) . . .
49(4) . . .
55(4) . . .
48(4) . . .
51(4) . . .
41.0(33) . . .
46(4) . . .
55(4) . . .
46(4) . . .
50(4) . . .
46(4) . . .
46(4) . . .
57(4) . . .
41.6(34) . . .
50(4) . . .
48(4) . . .
41.0(35) . . .
51(4) . . .
54(4) . . .
50(4) . . .
50(4) . . .
51(4) . . .
51(4) . . .
43.4(34) . . .
46(4) . . .
48(4) . . .
50(4) . . .
42.4(34) . . .
44(4) . . .
44.3(34) . . .
42.0(35) . . .
47(4) . . .
51(4) . . .
61(4) . . .
52(4) . . .
57(4) . . .
43.9(34) . . .
47(4) . . .
48(4) . . .
43.7(34) . . .
46(4) . . .
54(4) . . .
43(4) . . .
51(4) . . .
42.5(34) . . .
39.8(33) . . .
51(4) . . .
58(4) . . .
54(4) . . .
53(4) . . .
47(4) . . .
45(4) . . .
43(4) . . .
44(4) . . .
48(4) . . .
43(4) . . .
45(4) . . .
43(4) . . .
46(4) . . .
44.8(34) . . .
41.4(34) . . .
50(4) . . .
40.7(32) . . .
50(4) . . .
52(4) . . .
46(4) . . .
45(4) . . .
48(4) . . .
51(4) . . .
45(4) . . .
53(4) . . .
45(4) . . .
53(4) . . .
51(4) . . .
49(4) . . .
41.4(34) . . .
48(4) . . .
42(4) . . .
46(4) . . .
39.7(33) . . .
41.5(33) . . .
47(4) . . .
48(4) . . .
39.3(33) . . .
39.2(33) . . .
39.6(33) . . .
42(4) . . .
41.3(34) . . .
45.6(35) . . .
54(4) . . .
41.8(33) . . .
37.3(34) . . .
34.1(31) . . .
46(4) . . .
41.2(34) . . .
58(4) . . .
46(4) . . .
44(4) . . .
47(4) . . .
50(4) . . .
45(4) . . .
46(4) . . .
45(4) . . .
42.9(34) . . .
45(4) . . .
53(4) . . .
47(4) . . .
43.1(34) . . .
49(4) . . .
42.7(35) . . .
49(4) . . .
52(4) . . .
44(4) . . .
53(4) . . .
49(4) . . .
54(4) . . .
47(4) . . .
51(4) . . .
43.5(35) . . .
44(4) . . .
47(4) . . .
52(4) . . .
38.5(34) . . .
45.4(35) . . .
36.1(32) . . .
51(4) . . .
48(4) . . .
43.0(35) . . .
54(4) . . .
53(4) . . .
50(4) . . .
47(4) . . .
43.2(34) . . .
40.5(33) . . .
40.5(33) . . .
50(4) . . .
42.3(33) . . .
44.7(35) . . .
55(4) . . .
46(4) . . .
44(4) . . .
47(4) . . .
51(4) . . .
44.4(34) . . .
44.2(35) . . .
50(4) . . .
43.9(35) . . .
47(4) . . .
47(4) . . .
43(4) . . .
43(4) . . .
50(4) . . .
48(4) . . .
47(4) . . .
46(4) . . .
49(4) . . .
55(4) . . .
58(4) . . .
45(4) . . .
47(4) . . .
45(4) . . .
39.0(33) . . .
47(4) . . .
47(4) . . .
46(4) . . .
56(4) . . .
37.8(32) . . .
46(4) . . .
47(4) . . .
47(4) . . .
53(4) . . .
50(4) . . .
43.8(35) . . .
35.3(32) . . .
38(4) . . .
37.8(33) . . .
49(4) . . .
49(4) . . .
45(4) . . .
39(4) . . .
45(4) . . .
43.1(34) . . .
58(4) . . .
44.2(34) . . .
51(4) . . .
44(4) . . .
42.0(34) . . .
48(4) . . .
54(4) . . .
51(4) . . .
52(4) . . .
48(4) . . .
42.6(34) . . .
46(4) . . .
53(4) . . .
45(4) . . .
44(4) . . .
48(4) . . .
57(4) . . .
50(4) . . .
54(4) . . .
41.9(34) . . .
49(4) . . .
55(4) . . .
47(4) . . .
44(4) . . .
46(4) . . .
53(4) . . .
45(4) . . .
42(4) . . .
54(4) . . .
42.2(34) . . .
46(4) . . .
48(4) . . .
44(4) . . .
36.3(31) . . .
40.2(33) . . .
40.2(35) . . .
48(4) . . .
49(4) . . .
45(4) . . .
48(4) . . .
55(4) . . .
49(4) . . .
46(4) . . .
51(4) . . .
41.1(33) . . .
48(4) . . .
44(4) . . .
50(4) . . .
50(4) . . .
44(4) . . .
46(4) . . .
56(4) . . .
43.8(35) . . .
42.8(33) . . .
47(4) . . .
44.6(35) . . .
44(4) . . .
36.7(32) . . .
45.0(34) . . .
34.2(30) . . .
51(4) . . .
47(4) . . .
43(4) . . .
49(4) . . .
42.9(34) . . .
49(4) . . .
57(4) . . .
55(4) . . .
45(4) . . .
47(4) . . .
52(4) . . .
41.0(33) . . .
43.7(35) . . .
50(4) . . .
51(4) . . .
49(4) . . .
52(4) . . .
54(4) . . .
41.8(33) . . .
36.8(32) . . .
40.8(34) . . .
45(4) . . .
44.4(35) . . .
46(4) . . .
51(4) . . .
46(4) . . .
41.6(34) . . .
49(4) . . .
45.0(35) . . .
44(4) . . .
45(4) . . .
51(4) . . .
48(4) . . .
54(4) . . .
46(4) . . .
60(4) . . .
50(4) . . .
43(4) . . .
37.3(32) . . .
41(4) . . .
37.3(31) . . .
56(4) . . .
44(4) . . .
51(4) . . .
44(4) . . .
51(4) . . .
48(4) . . .
57(4) . . .
41.7(33) . . .
41.0(34) . . .
43.0(35) . . .
53(4) . . .
49(4) . . .
44.4(35) . . .
47(4) . . .
48(4) . . .
44(4) . . .
40.7(33) . . .
47(4) . . .
44(4) . . .
49(4) . . .
44(4) . . .
46.6(35) . . .
51(4) . . .
36.0(31) . . .
37.0(34) . . .
55(4) . . .
40.6(33) . . .
44.2(35) . . .
37.7(32) . . .
48(4) . . .
43.8(35) . . .
41.5(33) . . .
39.7(34) . . .
42(4) . . .
38.8(34) . . .
46(4) . . .
44.6(34) . . .
41.7(34) . . .
52(4) . . .
42(4) . . .
39.8(34) . . .
49(4) . . .
44.0(35) . . .
50(4) . . .
40.5(34) . . .
41.0(34) . . .
43.2(34) . . .
50(4) . . .
48(4) . . .
47(4) . . .
45(4) . . .
50(4) . . .
48(4) . . .
45(4) . . .
47(4) . . .
38.3(32) . . .
51(4) . . .
36.2(33) . . .
42(4) . . .
35.4(32) . . .
51(4) . . .
35.6(31) . . .
38.3(32) . . .
44(4) . . .
52(4) . . .
44.5(35) . . .
43.5(34) . . .
52(4) . . .
43(4) . . .
44.9(35) . . .
52(4) . . .
52(4) . . .
58(4) . . .
57(4) . . .
53(4) . . .
51(4) . . .
44(4) . . .
49(4) . . .
55(4) . . .
44.9(35) . . .
51(4) . . .
49(4) . . .
59(4) . . .
50(4) . . .
50(4) . . .
60(4) . . .
60(4) . . .
53(4) . . .
49(4) . . .
40.5(33) . . .
50(4) . . .
54(4) . . .
46.7(34) . . .
50(4) . . .
57(4) . . .
49(4) . . .
49(4) . . .
45(4) . . .
46(4) . . .
43.4(35) . . .
56(4) . . .
48(4) . . .
45(4) . . .
44.2(35) . . .
50(4) . . .
39.0(33) . . .
51(4) . . .
51(4) . . .
42.7(34) . . .
38.3(32) . . .
53(4) . . .
47.1(35) . . .
45(4) . . .
45(4) . . .
53(4) . . .
53(4) . . .
50(4) . . .
44(4) . . .
52(4) . . .
48(4) . . .
38.1(34) . . .
37.1(32) . . .
40.8(34) . . .
42.9(34) . . .
48(4) . . .
51(4) . . .
43.0(35) . . .
43(4) . . .
42.0(35) . . .
52(4) . . .
47(4) . . .
47(4) . . .
46(4) . . .
40.0(34) . . .
48(4) . . .
48(4) . . .
63(4) . . .
48(4) . . .
49(4) . . .
43.0(34) . . .
33.2(30) . . .
51(4) . . .
48(4) . . .
57(4) . . .
45.9(35) . . .
38.2(32) . . .
42.3(35) . . .
37.7(32) . . .
40.1(33) . . .
45.7(35) . . .
43.0(35) . . .
38.1(33) . . .
43.4(35) . . .
39.9(33) . . .
39.1(33) . . .
52(4) . . .
43(4) . . .
43(4) . . .
53(4) . . .
52(4) . . .
52(4) . . .
36.9(32) . . .
40.5(35) . . .
41.2(34) . . .
46(4) . . .
52(4) . . .
51(4) . . .
50(4) . . .
38.2(33) . . .
43(4) . . .
41.0(34) . . .
51(4) . . .
38.7(34) . . .
47(4) . . .
49(4) . . .
49(4) . . .
45(4) . . .
50(4) . . .
56(4) . . .
45(4) . . .
45(4) . . .
46(4) . . .
53(4) . . .
46(4) . . .
52(4) . . .
42.4(34) . . .
39.0(32) . . .
54(4) . . .
58(4) . . .
42(4) . . .
52(4) . . .
51(4) . . .
44(4) . . .
55(4) . . .
55(4) . . .
55(4) . . .
45(4) . . .
51(4) . . .
53(4) . . .
53(4) . . .
52(4) . . .
41.7(34) . . .
39.6(33) . . .
46(4) . . .
49(4) . . .
41.2(34) . . .
50(4) . . .
39.8(32) . . .
44.7(35) . . .
47(4) . . .
39.3(34) . . .
51(4) . . .
47(4) . . .
49(4) . . .
41.7(34) . . .
48(4) . . .
55(4) . . .
45.9(35) . . .
51(4) . . .
40.8(33) . . .
53(4) . . .
53(4) . . .
49(4) . . .
43.5(35) . . .
51(4) . . .
48(4) . . .
46(4) . . .
42.0(34) . . .
47(4) . . .
48(4) . . .
42.3(33) . . .
50(4) . . .
42.3(34) . . .
47(4) . . .
48(4) . . .
44(4) . . .
49(4) . . .
55(4) . . .
47(4) . . .
43(4) . . .
52(4) . . .
44(4) . . .
40.9(34) . . .
47(4) . . .
56(4) . . .
40.8(34) . . .
49(4) . . .
46(4) . . .
51(4) . . .
47(4) . . .
40.2(34) . . .
47(4) . . .
57(4) . . .
52(4) . . .
48(4) . . .
52(4) . . .
48(4) . . .
47(4) . . .
49(4) . . .
54(4) . . .
50(4) . . .
45.0(35) . . .
44.2(34) . . .
50(4) . . .
53(4) . . .
55(4) . . .
46(4) . . .
41.4(33) . . .
42.2(35) . . .
43(4) . . .
45(4) . . .
52(4) . . .
53(4) . . .
47(4) . . .
47(4) . . .
39.9(35) . . .
45(4) . . .
46(4) . . .
52(4) . . .
39(4) . . .
44(4) . . .
44.7(35) . . .
40(4) . . .
40.7(35) . . .
50(4) . . .
57(4) . . .
35.8(32) . . .
44(4) . . .
40(4) . . .
46(4) . . .
47(4) . . .
45.8(35) . . .
45(4) . . .
45(4) . . .
46(4) . . .
48(4) . . .
41.6(34) . . .
51(4) . . .
47(4) . . .
47(4) . . .
47(4) . . .
44.5(35) . . .
44(4) . . .
51(4) . . .
51(4) . . .
48(4) . . .
35.4(31) . . .
49(4) . . .
48(4) . . .
46(4) . . .
50(4) . . .
44.5(34) . . .
39.7(34) . . .
46(4) . . .
45(4) . . .
54(4) . . .
52(4) . . .
40.8(35) . . .
47(4) . . .
44.3(35) . . .
50(4) . . .
50(4) . . .
50(4) . . .
51(4) . . .
45(4) . . .
49(4) . . .
46(4) . . .
51(4) . . .
47(4) . . .
45(4) . . .
52(4) . . .
40.5(33) . . .
39.2(34) . . .
48(4) . . .
54(4) . . .
48(4) . . .
54(4) . . .
55(4) . . .
46(4) . . .
49(4) . . .
59(4) . . .
46(4) . . .
48(4) . . .
40.1(34) . . .
40.1(34) . . .
53(4) . . .
47(4) . . .
46(4) . . .
46(4) . . .
48(4) . . .
38.8(33) . . .
42.9(34) . . .
44(4) . . .
40.3(33) . . .
41.8(33) . . .
44(4) . . .
51(4) . . .
55(4) . . .
47(4) . . .
43.9(34) . . .
51(4) . . .
52(4) . . .
47(4) . . .
46(4) . . .
44.2(35) . . .
39.5(33) . . .
49(4) . . .
44.1(35) . . .
42(4) . . .
38.0(32) . . .
35.8(31) . . .
46(4) . . .
48(4) . . .
38.6(34) . . .
59(4) . . .
47(4) . . .
54(4) . . .
44.7(34) . . .
52(4) . . .
58(4) . . .
53(4) . . .
40.9(34) . . .
45(4) . . .
51(4) . . .
44.1(35) . . .
39.7(33) . . .
48(4) . . .
46(4) . . .
44.0(35) . . .
64(4) . . .
52(4) . . .
46(4) . . .
37.8(33) . . .
40.4(34) . . .
47(4) . . .
40.2(34) . . .
40(4) . . .
46(4) . . .
52(4) . . .
40.5(33) . . .
42(4) . . .
40.8(35) . . .
36.8(31) . . .
49(4) . . .
43.1(34) . . .
48(4) . . .
40(4) . . .
47(4) . . .
57(4) . . .
47(4) . . .
52(4) . . .
45(4) . . .
41.8(35) . . .
47(4) . . .
50(4) . . .
41.8(34) . . .
51(4) . . .
48(4) . . .
40.4(33) . . .
52(4) . . .
45(4) . . .
42(4) . . .
50(4) . . .
39.5(33) . . .
52(4) . . .
43.9(35) . . .
46(4) . . .
43(4) . . .
42.9(34) . . .
42.0(33) . . .
44.0(35) . . .
54(4) . . .
41.1(34) . . .
46.6(35) . . .
45(4) . . .
45.1(35) . . .
59(4) . . .
54(4) . . .
54(4) . . .
42.6(34) . . .
39.8(33) . . .
43.8(34) . . .
46(4) . . .
46(4) . . .
59(4) . . .
48(4) . . .
43(4) . . .
55(4) . . .
46(4) . . .
49(4) . . .
48(4) . . .
62(4) . . .
55(4) . . .
58(4) . . .
48(4) . . .
49(4) . . .
44.7(34) . . .
43.4(34) . . .
40.1(33) . . .
49(4) . . .
57(4) . . .
53(4) . . .
44.3(35) . . .
39.7(33) . . .
44.6(34) . . .
52(4) . . .
45(4) . . .
49(4) . . .
46(4) . . .
55(4) . . .
58(4) . . .
46(4) . . .
54(4) . . .
42.8(34) . . .
55(4) . . .
42.5(35) . . .
44(4) . . .
47(4) . . .
42.0(34) . . .
41.7(35) . . .
39.7(34) . . .
46(4) . . .
45.0(35) . . .
53(4) . . .
46(4) . . .
41.4(34) . . .
46(4) . . .
40.0(34) . . .
37.8(33) . . .
49(4) . . .
48(4) . . .
46(4) . . .
50(4) . . .
41(4) . . .
40(4) . . .
43(4) . . .
45.5(35) . . .
39.5(33) . . .
49(4) . . .
52(4) . . .
48(4) . . .
52(4) . . .
40.9(34) . . .
41.5(34) . . .
56(4) . . .
48(4) . . .
48(4) . . .
51(4) . . .
56(4) . . .
48(4) . . .
41.5(34) . . .
56(4) . . .
41.3(33) . . .
43(4) . . .
45(4) . . .
39.2(33) . . .
40.4(34) . . .
44(4) . . .
45(4) . . .
50(4) . . .
44.0(34) . . .
50(4) . . .
38.6(33) . . .
34.2(33) . . .
48(4) . . .
51(4) . . .
57(4) . . .
53(4) . . .
42(4) . . .
45(4) . . .
41.8(34) . . .
50(4) . . .
42.4(33) . . .
54(4) . . .
53(4) . . .
37.4(32) . . .
44.3(35) . . .
47(4) . . .
44(4) . . .
49(4) . . .
36.7(33) . . .
43.8(34) . . .
53(4) . . .
50(4) . . .
46(4) . . .
40.8(34) . . .
40.6(33) . . .
45(4) . . .
49(4) . . .
40.3(33) . . .
43.4(35) . . .
50(4) . . .
58(4) . . .
42(4) . . .
45(4) . . .
47(4) . . .
44.3(34) . . .
38.7(33) . . .
40.5(35) . . .
42.3(34) . . .
53(4) . . .
40.1(32) . . .
46(4) . . .
51(4) . . .
37.8(32) . . .
53(4) . . .
36.8(32) . . .
49(4) . . .
37.7(34) . . .
40.9(34) . . .
54(4) . . .
38.3(34) . . .
37.8(34) . . .
51(4) . . .
40.8(33) . . .
51(4) . . .
55(4) . . .
54(4) . . .
57(4) . . .
42.0(34) . . .
47(4) . . .
51(4) . . .
39.2(33) . . .
52(4) . . .
52(4) . . .
45.7(35) . . .
49(4) . . .
50(4) . . .
51(4) . . .
50(4) . . .
47(4) . . .
45(4) . . .
45(4) . . .
50(4) . . .
44.1(35) . . .
56(4) . . .
46(4) . . .
46(4) . . .
56(4) . . .
49(4) . . .
39.8(32) . . .
39.3(35) . . .
48(4) . . .
50(4) . . .
38.2(32) . . .
50(4) . . .
44(4) . . .
43(4) . . .
48(4) . . .
50(4) . . .
47(4) . . .
36.3(33) . . .
45(4) . . .
51(4) . . .
55(4) . . .
42.5(34) . . .
48(4) . . .
43(4) . . .
35.8(31) . . .
35.7(31) . . .
46(4) . . .
41.4(34) . . .
48(4) . . .
48(4) . . .
39.2(32) . . .
51(4) . . .
60(4) . . .
47(4) . . .
49(4) . . .
41.2(34) . . .
46(4) . . .
43.3(35) . . .
45(4) . . .
41.2(34) . . .
48(4) . . .
46(4) . . .
44(4) . . .
52(4) . . .
34.7(32) . . .
50(4) . . .
44(4) . . .
41(4) . . .
48(4) . . .
43.7(35) . . .
51(4) . . .
45(4) . . .
43.1(35) . . .
45(4) . . .
51(4) . . .
53(4) . . .
51(4) . . .
48(4) . . .
46(4) . . .
49(4) . . .
56(4) . . .
46(4) . . .
48(4) . . .
44(4) . . .
42.0(34) . . .
44.8(34) . . .
49(4) . . .
37.9(35) . . .
41.9(34) . . .
46(4) . . .
43.6(34) . . .
48(4) . . .
51(4) . . .
50(4) . . .
46(4) . . .
45(4) . . .
48(4) . . .
49(4) . . .
44(4) . . .
45(4) . . .
46(4) . . .
46(4) . . .
46(4) . . .
50(4) . . .
46(4) . . .
40.9(34) . . .
38.3(34) . . .
54(4) . . .
49(4) . . .
47(4) . . .
37(4) . . .
42(4) . . .
41.7(35) . . .
48(4) . . .
44(4) . . .
50(4) . . .
50(4) . . .
44.1(34) . . .
47(4) . . .
46(4) . . .
51(4) . . .
50(4) . . .
46(4) . . .
44(4) . . .
43.3(35) . . .
51(4) . . .
39.8(35) . . .
47(4) . . .
44.0(34) . . .
48(4) . . .
48(4) . . .
57(4) . . .
39.2(32) . . .
53(4) . . .
46(4) . . .
43(4) . . .
43(4) . . .
56(4) . . .
60(4) . . .
44(4) . . .
51(4) . . .
46(4) . . .
50(4) . . .
45.1(34) . . .
49(4) . . .
40.6(35) . . .
43(4) . . .
56(4) . . .
45(4) . . .
51(4) . . .
47(4) . . .
43(4) . . .
40.2(34) . . .
46(4) . . .
42(4) . . .
58(4) . . .
48(4) . . .
52(4) . . .
48(4) . . .
44.0(35) . . .
57(4) . . .
44.7(35) . . .
38.8(33) . . .
42.5(34) . . .
49(4) . . .
52(4) . . .
43(4) . . .
50(4) . . .
51(4) . . .
53(4) . . .
50(4) . . .
50(4) . . .
50(4) . . .
57(4) . . .
45(4) . . .
45(4) . . .
51(4) . . .
49(4) . . .
53(4) . . .
37.6(33) . . .
47(4) . . .
47(4) . . .
44.0(34) . . .
48(4) . . .
39.5(34) . . .
38.9(33) . . .
42.9(35) . . .
40.6(33) . . .
52(4) . . .
46(4) . . .
50(4) . . .
44(4) . . .
42.0(34) . . .
45(4) . . .
40(4) . . .
38.9(34) . . .
41.3(35) . . .
42.3(34) . . .
51(4) . . .
47(4) . . .
58(4) . . .
49(4) . . .
47(4) . . .
42(4) . . .
38.5(35) . . .
59(4) . . .
49(4) . . .
47(4) . . .
48(4) . . .
51(4) . . .
50(4) . . .
45.0(35) . . .
49(4) . . .
52(4) . . .
40(4) . . .
49(4) . . .
46(4) . . .
39.5(33) . . .
36.7(32) . . .
48(4) . . .
41.4(34) . . .
51(4) . . .
38.0(32) . . .
43(4) . . .
39.6(34) . . .
52(4) . . .
44.5(35) . . .
53(4) . . .
40.5(33) . . .
50(4) . . .
62(4) . . .
39.1(32) . . .
34.5(31) . . .
46(4) . . .
39.2(35) . . .
41(4) . . .
43.7(35) . . .
45.1(34) . . .
36.8(32) . . .
49(4) . . .
40.8(34) . . .
45.6(34) . . .
43.0(35) . . .
48(4) . . .
40(4) . . .
41(4) . . .
48(4) . . .
55(4) . . .
45(4) . . .
34.8(32) . . .
42(4) . . .
50(4) . . .
42.5(34) . . .
52(4) . . .
56(4) . . .
54(4) . . .
46(4) . . .
49(4) . . .
51(4) . . .
45(4) . . .
55(4) . . .
35.2(31) . . .
47(4) . . .
54(4) . . .
48(4) . . .
53(4) . . .
36.3(32) . . .
46(4) . . .
36.8(31) . . .
38.4(32) . . .
47(4) . . .
52(4) . . .
51(4) . . .
49(4) . . .
52(4) . . .
44.0(34) . . .
44(4) . . .
51(4) . . .
46(4) . . .
46(4) . . .
46(4) . . .
51(4) . . .
46(4) . . .
40(4) . . .
42.5(35) . . .
51(4) . . .
54(4) . . .
45.1(35) . . .
48(4) . . .
51(4) . . .
50(4) . . .
41.4(33) . . .
38.9(34) . . .
45(4) . . .
42(4) . . .
44(4) . . .
47(4) . . .
32.3(29) . . .
42(4) . . .
43.1(35) . . .
47(4) . . .
48(4) . . .
44(4) . . .
45(4) . . .
47(4) . . .
40.0(33) . . .
51(4) . . .
53(4) . . .
38.7(34) . . .
45(4) . . .
48(4) . . .
44.7(35) . . .
53(4) . . .
50(4) . . .
37.6(32) . . .
47(4) . . .
52(4) . . .
55(4) . . .
53(4) . . .
50(4) . . .
40.5(33) . . .
44(4) . . .
37.6(34) . . .
46(4) . . .
41.6(34) . . .
38.2(32) . . .
55(4) . . .
43(4) . . .
50(4) . . .
39.9(34) . . .
49(4) . . .
52(4) . . .
52(4) . . .
48(4) . . .
43.3(34) . . .
42.2(34) . . .
47(4) . . .
55(4) . . .
43.5(35) . . .
40.3(33) . . .
45.5(35) . . .
44(4) . . .
46(4) . . .
57(4) . . .
56(4) . . .
36.9(32) . . .
50(4) . . .
51(4) . . .
49(4) . . .
45.0(35) . . .
40.3(35) . . .
46(4) . . .
41.7(34) . . .
48(4) . . .
44.0(35) . . .
45(4) . . .
47(4) . . .
43(4) . . .
48(4) . . .
48(4) . . .
41.5(34) . . .
46(4) . . .
44(4) . . .
47(4) . . .
47(4) . . .
43.9(35) . . .
49(4) . . .
54(4) . . .
57(4) . . .
53(4) . . .
41.5(35) . . .
50(4) . . .
51(4) . . .
44(4) . . .
54(4) . . .
49(4) . . .
46(4) . . .
50(4) . . .
46(4) . . .
50(4) . . .
48(4) . . .
44(4) . . .
45(4) . . .
46(4) . . .
44(4) . . .
47(4) . . .
38.3(34) . . .
52(4) . . .
53(4) . . .
52(4) . . .
52(4) . . .
44(4) . . .
41.0(35) . . .
40.6(33) . . .
50(4) . . .
56(4) . . .
50(4) . . .
43.8(35) . . .
48(4) . . .
55(4) . . .
43.6(35) . . .
54(4) . . .
54(4) . . .
46(4) . . .
45(4) . . .
45(4) . . .
45(4) . . .
50(4) . . .
46(4) . . .
39.4(33) . . .
45(4) . . .
54(4) . . .
53(4) . . .
48(4) . . .
39.6(34) . . .
46(4) . . .
46(4) . . .
46(4) . . .
43.0(34) . . .
54(4) . . .
44(4) . . .
44(4) . . .
52(4) . . .
45(4) . . .
39.8(33) . . .
45(4) . . .
41.8(34) . . .
41.1(34) . . .
39.2(33) . . .
49(4) . . .
49(4) . . .
39.0(33) . . .
43.6(35) . . .
43.7(34) . . .
55(4) . . .
56(4) . . .
52(4) . . .
54(4) . . .
50(4) . . .
40.7(34) . . .
46(4) . . .
43.1(34) . . .
42.4(34) . . .
47(4) . . .
39.0(32) . . .
45(4) . . .
51(4) . . .
50(4) . . .
38.1(32) . . .
42.8(34) . . .
41.1(35) . . .
50(4) . . .
54(4) . . .
38.0(33) . . .
44.7(35) . . .
46(4) . . .
40.8(33) . . .
49(4) . . .
59(4) . . .
42.0(34) . . .
47(4) . . .
54(4) . . .
50(4) . . .
51(4) . . .
50(4) . . .
50(4) . . .
47(4) . . .
54(4) . . .
42.0(34) . . .
39.3(34) . . .
41.5(35) . . .
40.3(34) . . .
52(4) . . .
44(4) . . .
47(4) . . .
48(4) . . .
44.9(34) . . .
45(4) . . .
45(4) . . .
53(4) . . .
51(4) . . .
48(4) . . .
49(4) . . .
52(4) . . .
46(4) . . .
54(4) . . .
47(4) . . .
46.3(35) . . .
46(4) . . .
42(4) . . .
56(4) . . .
52(4) . . .
40.4(33) . . .
45(4) . . .
44(4) . . .
41.5(34) . . .
45.2(35) . . .
46(4) . . .
44(4) . . .
46(4) . . .
52(4) . . .
58(4) . . .
50(4) . . .
44(4) . . .
42.0(34) . . .
58(4) . . .
50(4) . . .
49(4) . . .
45(4) . . .
39.0(32) . . .
47(4) . . .
43.5(35) . . .
52(4) . . .
58(4) . . .
54(4) . . .
45(4) . . .
39.2(33) . . .
52(4) . . .
44(4) . . .
48(4) . . .
41.2(34) . . .
54(4) . . .
43(4) . . .
41(4) . . .
45(4) . . .
54(4) . . .
46(4) . . .
47(4) . . .
43(4) . . .
48(4) . . .
48(4) . . .
37.3(32) . . .
36.4(31) . . .
44(4) . . .
51(4) . . .
62(4) . . .
56(4) . . .
40.2(33) . . .
41(4) . . .
39.7(33) . . .
40.0(33) . . .
44.4(35) . . .
41.6(34) . . .
54(4) . . .
57(4) . . .
51(4) . . .
47(4) . . .
46(4) . . .
47(4) . . .
45(4) . . .
49(4) . . .
49(4) . . .
52(4) . . .
50(4) . . .
47(4) . . .
44.4(35) . . .
53(4) . . .
47(4) . . .
54(4) . . .
51(4) . . .
50(4) . . .
47(4) . . .
44(4) . . .
45(4) . . .
47(4) . . .
46(4) . . .
42.3(35) . . .
47(4) . . .
53(4) . . .
44(4) . . .
37.5(32) . . .
53(4) . . .
46(4) . . .
43(4) . . .
39.7(32) . . .
45(4) . . .
50(4) . . .
42(4) . . .
44(4) . . .
45(4) . . .
55(4) . . .
51(4) . . .
45(4) . . .
51(4) . . .
52(4) . . .
30.1(29) . . .
45(4) . . .
56(4) . . .
42.7(34) . . .
48(4) . . .
42.5(34) . . .
51(4) . . .
49(4) . . .
42(4) . . .
49(4) . . .
52(4) . . .
54(4) . . .
45(4) . . .
40.1(34) . . .
49(4) . . .
52(4) . . .
48(4) . . .
43(4) . . .
40.7(34) . . .
44.5(35) . . .
38.8(32) . . .
41.5(33) . . .
42(4) . . .
51(4) . . .
45(4) . . .
40.9(34) . . .
49(4) . . .
41.9(35) . . .
47(4) . . .
43.9(35) . . .
48(4) . . .
47(4) . . .
47(4) . . .
54(4) . . .
41.4(34) . . .
40(4) . . .
39(4) . . .
46(4) . . .
41.5(34) . . .
47(4) . . .
44(4) . . .
44(4) . . .
48(4) . . .
46(4) . . .
49(4) . . .
57(4) . . .
45(4) . . .
44(4) . . .
45(4) . . .
41.9(35) . . .
49(4) . . .
49(4) . . .
43(4) . . .
39.7(33) . . .
50(4) . . .
43.2(34) . . .
53(4) . . .
51(4) . . .
41.8(33) . . .
48(4) . . .
43(4) . . .
52(4) . . .
42.4(33) . . .
47(4) . . .
51(4) . . .
39.3(33) . . .
39.1(33) . . .
47(4) . . .
53(4) . . .
43.9(34) . . .
44(4) . . .
44(4) . . .
40.8(35) . . .
43.4(34) . . .
42.0(34) . . .
53(4) . . .
41.4(35) . . .
38.4(33) . . .
45(4) . . .
45(4) . . .
41.6(35) . . .
44(4) . . .
49(4) . . .
46(4) . . .
48(4) . . .
40.8(34) . . .
39(4) . . .
41(4) . . .
47(4) . . .
47(4) . . .
46(4) . . .
54(4) . . .
37.8(32) . . .
45.6(35) . . .
45(4) . . .
53(4) . . .
41.1(33) . . .
52(4) . . .
47(4) . . .
50(4) . . .
46(4) . . .
36.2(32) . . .
46(4) . . .
45(4) . . .
44(4) . . .
49(4) . . .
44(4) . . .
46(4) . . .
43(4) . . .
50(4) . . .
41.6(34) . . .
48(4) . . .
44.0(35) . . .
44.8(34) . . .
43.4(35) . . .
37.7(34) . . .
44(4) . . .
48(4) . . .
53(4) . . .
47(4) . . .
48(4) . . .
51(4) . . .
48(4) . . .
52(4) . . .
48(4) . . .
45.8(35) . . .
43.3(34) . . .
43.4(34) . . .
46(4) . . .
43.1(33) . . .
42(4) . . .
46(4) . . .
47(4) . . .
41.3(33) . . .
49(4) . . .
44(4) . . .
43(4) . . .
42.2(34) . . .
48(4) . . .
46(4) . . .
48(4) . . .
50(4) . . .
40.8(33) . . .
45(4) . . .
52(4) . . .
52(4) . . .
59(4) . . .
48(4) . . .
41.0(33) . . .
36.1(32) . . .
38.9(33) . . .
51(4) . . .
45.6(35) . . .
50(4) . . .
47(4) . . .
47(4) . . .
52(4) . . .
51(4) . . .
44.1(35) . . .
49(4) . . .
46(4) . . .
44.1(35) . . .
48(4) . . .
43(4) . . .
35.7(35) . . .
37.8(34) . . .
41.2(34) . . .
40.5(33) . . .
44(4) . . .
51(4) . . .
46(4) . . .
54(4) . . .
44.6(35) . . .
50(4) . . .
45(4) . . .
37.6(33) . . .
37.2(32) . . .
41.7(34) . . .
47(4) . . .
42.4(34) . . .
55(4) . . .
49(4) . . .
56(4) . . .
45(4) . . .
48(4) . . .
44(4) . . .
55(4) . . .
45(4) . . .
49(4) . . .
50(4) . . .
45(4) . . .
47(4) . . .
49(4) . . .
47(4) . . .
37.4(34) . . .
45(4) . . .
54(4) . . .
41.2(33) . . .
49(4) . . .
50(4) . . .
49(4) . . .
39.6(33) . . .
39.7(33) . . .
45(4) . . .
31.3(31) . . .
45(4) . . .
51(4) . . .
48(4) . . .
50(4) . . .
39.7(33) . . .
41.6(34) . . .
52(4) . . .
44.6(34) . . .
48(4) . . .
54(4) . . .
39.7(33) . . .
40.8(33) . . .
42.2(34) . . .
38.0(35) . . .
42.2(35) . . .
49(4) . . .
41.4(34) . . .
39.4(32) . . .
37.0(32) . . .
49(4) . . .
37.3(32) . . .
46(4) . . .
50(4) . . .
47(4) . . .
42.9(35) . . .
38.7(33) . . .
47(4) . . .
47(4) . . .
48(4) . . .
48(4) . . .
38.0(32) . . .
42(4) . . .
46(4) . . .
49(4) . . .
39.8(33) . . .
41.6(34) . . .
43.8(34) . . .
52(4) . . .
41(4) . . .
42.2(34) . . .
46(4) . . .
50(4) . . .
50(4) . . .
43.3(34) . . .
51(4) . . .
48(4) . . .
51(4) . . .
57(4) . . .
47(4) . . .
57(4) . . .
43.6(34) . . .
42.5(34) . . .
49(4) . . .
47(4) . . .
39.9(33) . . .
34.1(31) . . .
49(4) . . .
44(4) . . .
51(4) . . .
52(4) . . .
53(4) . . .
45(4) . . .
39.5(32) . . .
53(4) . . .
46(4) . . .
49(4) . . .
44(4) . . .
53(4) . . .
48(4) . . .
46(4) . . .
43.5(35) . . .
49(4) . . .
37.1(31) . . .
54(4) . . .
50(4) . . .
49(4) . . .
54(4) . . .
40.0(33) . . .
43(4) . . .
47(4) . . .
53(4) . . .
57(4) . . .
54(4) . . .
47(4) . . .
55(4) . . .
50(4) . . .
46(4) . . .
47(4) . . .
47(4) . . .
51(4) . . .
46(4) . . .
43(4) . . .
46(4) . . .
40.6(33) . . .
46(4) . . .
47(4) . . .
48(4) . . .
53(4) . . .
44.8(35) . . .
53(4) . . .
37.2(32) . . .
43(4) . . .
51(4) . . .
45.3(35) . . .
49(4) . . .
47(4) . . .
38(4) . . .
37.7(32) . . .
42.2(34) . . .
52(4) . . .
51(4) . . .
52(4) . . .
44(4) . . .
48(4) . . .
47(4) . . .
47(4) . . .
39(4) . . .
47(4) . . .
38.6(33) . . .
59(4) . . .
52(4) . . .
51(4) . . .
55(4) . . .
49(4) . . .
56(4) . . .
56(4) . . .
38.1(32) . . .
50(4) . . .
48(4) . . .
42.2(34) . . .
58(4) . . .
54(4) . . .
48(4) . . .
51(4) . . .
43(4) . . .
48(4) . . .
51(4) . . .
48(4) . . .
41.7(34) . . .
44(4) . . .
43(4) . . .
43.3(35) . . .
46(4) . . .
49(4) . . .
39.2(34) . . .
42(4) . . .
46(4) . . .
48(4) . . .
46.0(35) . . .
44(4) . . .
47(4) . . .
46(4) . . .
50(4) . . .
33.8(30) . . .
36.4(32) . . .
40(4) . . .
36.2(34) . . .
50(4) . . .
43.5(34) . . .
45(4) . . .
50(4) . . .
51(4) . . .
50(4) . . .
53(4) . . .
47(4) . . .
39.7(34) . . .
39.1(34) . . .
58(4) . . .
48(4) . . .
51(4) . . .
49(4) . . .
47(4) . . .
46(4) . . .
47(4) . . .
50(4) . . .
40.2(33) . . .
48(4) . . .
37.0(31) . . .
44.3(35) . . .
51(4) . . .
44(4) . . .
51(4) . . .
47(4) . . .
40.5(34) . . .
43(4) . . .
44(4) . . .
53(4) . . .
44.1(35) . . .
52(4) . . .
52(4) . . .
53(4) . . .
48(4) . . .
46(4) . . .
52(4) . . .
55(4) . . .
52(4) . . .
34.9(32) . . .
40.0(32) . . .
44(4) . . .
46(4) . . .
36.1(33) . . .
38.7(32) . . .
38.1(32) . . .
47(4) . . .
49(4) . . .
43.2(35) . . .
51(4) . . .
49(4) . . .
44(4) . . .
45(4) . . .
44(4) . . .
48(4) . . .
35.2(33) . . .
48(4) . . .
52(4) . . .
44(4) . . .
46(4) . . .
39.8(34) . . .
45(4) . . .
46.4(35) . . .
44(4) . . .
49(4) . . .
49(4) . . .
52(4) . . .
42.2(35) . . .
55(4) . . .
51(4) . . .
42.5(34) . . .
43(4) . . .
41.2(34) . . .
56(4) . . .
54(4) . . .
51(4) . . .
52(4) . . .
52(4) . . .
41.0(35) . . .
50(4) . . .
50(4) . . .
43(4) . . .
48(4) . . .
52(4) . . .
39.2(32) . . .
57(4) . . .
44(4) . . .
50(4) . . .
48(4) . . .
47(4) . . .
34.5(31) . . .
44(4) . . .
50(4) . . .
53(4) . . .
55(4) . . .
50(4) . . .
45(4) . . .
52(4) . . .
49(4) . . .
42.9(34) . . .
39.7(33) . . .
50(4) . . .
51(4) . . .
48(4) . . .
43.5(34) . . .
44(4) . . .
44(4) . . .
50(4) . . .
53(4) . . .
44.9(35) . . .
57(4) . . .
51(4) . . .
43(4) . . .
40.3(33) . . .
46.2(35) . . .
49(4) . . .
39.3(34) . . .
43.0(34) . . .
46(4) . . .
44.9(35) . . .
52(4) . . .
53(4) . . .
44.0(35) . . .
48(4) . . .
44(4) . . .
45(4) . . .
53(4) . . .
40.8(33) . . .
42.5(34) . . .
53(4) . . .
51(4) . . .
50(4) . . .
47(4) . . .
44.0(35) . . .
44(4) . . .
40.9(34) . . .
38.4(32) . . .
39.0(33) . . .
42.6(35) . . .
48(4) . . .
44(4) . . .
44(4) . . .
54(4) . . .
50(4) . . .
48(4) . . .
49(4) . . .
44(4) . . .
42.8(34) . . .
47(4) . . .
40.5(33) . . .
50(4) . . .
43.6(34) . . .
43.1(34) . . .
49(4) . . .
51(4) . . .
39.5(33) . . .
43(4) . . .
44.9(35) . . .
48(4) . . .
46(4) . . .
48(4) . . .
44(4) . . .
51(4) . . .
56(4) . . .
45(4) . . .
44(4) . . .
46(4) . . .
48(4) . . .
46(4) . . .
42(4) . . .
48(4) . . .
43(4) . . .
56(4) . . .
43.5(35) . . .
44(4) . . .
45(4) . . .
44(4) . . .
52(4) . . .
39.2(32) . . .
43.8(35) . . .
53(4) . . .
43(4) . . .
46(4) . . .
55(4) . . .
50(4) . . .
45(4) . . .
48(4) . . .
51(4) . . .
44(4) . . .
51(4) . . .
47(4) . . .
40.2(34) . . .
46(4) . . .
50(4) . . .
47(4) . . .
46(4) . . .
48(4) . . .
64(4) . . .
54(4) . . .
46(4) . . .
45(4) . . .
47(4) . . .
38.9(32) . . .
57(4) . . .
40.3(34) . . .
48(4) . . .
56(4) . . .
42.4(33) . . .
56(4) . . .
49(4) . . .
46(4) . . .
52(4) . . .
43.9(35) . . .
45(4) . . .
50(4) . . .
57(4) . . .
47(4) . . .
42.6(35) . . .
48(4) . . .
44(4) . . .
39.7(33) . . .
48(4) . . .
54(4) . . .
43(4) . . .
43.1(35) . . .
44.8(35) . . .
48(4) . . .
43(4) . . .
41(4) . . .
45(4) . . .
50(4) . . .
52(4) . . .
44.4(35) . . .
46(4) . . .
42.3(35) . . .
42.4(33) . . .
47(4) . . .
42(4) . . .
44(4) . . .
45(4) . . .
48(4) . . .
52(4) . . .
47(4) . . .
48(4) . . .
54(4) . . .
47(4) . . .
41.8(33) . . .
40(4) . . .
43(4) . . .
40(4) . . .
52(4) . . .
46(4) . . .
45(4) . . .
49(4) . . .
45(4) . . .
48(4) . . .
44.2(34) . . .
48(4) . . .
53(4) . . .
37.8(33) . . .
43.4(34) . . .
42(4) . . .
37.3(33) . . .
39(4) . . .
33.8(33) . . .
37.9(33) . . .
51(4) . . .
49(4) . . .
50(4) . . .
36.3(32) . . .
38.6(32) . . .
39.0(34) . . .
45(4) . . .
39.4(33) . . .
37.0(33) . . .
36.4(31) . . .
44(4) . . .
48(4) . . .
46(4) . . .
40.0(35) . . .
37.1(32) . . .
37.8(33) . . .
41.1(35) . . .
44(4) . . .
49(4) . . .
48(4) . . .
53(4) . . .
40(4) . . .
42(4) . . .
51(4) . . .
37.9(32) . . .
44(4) . . .
54(4) . . .
43.1(34) . . .
41.5(34) . . .
47(4) . . .
46(4) . . .
44(4) . . .
49(4) . . .
45.2(35) . . .
51(4) . . .
50(4) . . .
45(4) . . .
38.6(32) . . .
49(4) . . .
41.3(33) . . .
46(4) . . .
44(4) . . .
43(4) . . .
42.6(34) . . .
44.7(35) . . .
43(4) . . .
48(4) . . .
49(4) . . .
47(4) . . .
44.4(35) . . .
46(4) . . .
46(4) . . .
37.0(32) . . .
45.5(35) . . .
39.9(34) . . .
40.2(35) . . .
45(4) . . .
36.7(35) . . .
45.1(35) . . .
49(4) . . .
42(4) . . .
44(4) . . .
49(4) . . .
51(4) . . .
50(4) . . .
50(4) . . .
51(4) . . .
50(4) . . .
49(4) . . .
45(4) . . .
50(4) . . .
47(4) . . .
37.5(32) . . .
55(4) . . .
52(4) . . .
50(4) . . .
40.8(35) . . .
43.9(35) . . .
44.3(35) . . .
48(4) . . .
53(4) . . .
40.0(34) . . .
60(4) . . .
45(4) . . .
32.7(30) . . .
45(4) . . .
44(4) . . .
50(4) . . .
45(4) . . .
46(4) . . .
38.2(32) . . .
48(4) . . .
45(4) . . .
44(4) . . .
43(4) . . .
47(4) . . .
59(4) . . .
46(4) . . .
48(4) . . .
53(4) . . .
55(4) . . .
53(4) . . .
47(4) . . .
47(4) . . .
47(4) . . .
45(4) . . .
45(4) . . .
47(4) . . .
54(4) . . .
45(4) . . .
55(4) . . .
47(4) . . .
49(4) . . .
40.2(34) . . .
53(4) . . .
51(4) . . .
52(4) . . .
42.1(33) . . .
51(4) . . .
47(4) . . .
51(4) . . .
53(4) . . .
49(4) . . .
52(4) . . .
55(4) . . .
50(4) . . .
52(4) . . .
39.7(33) . . .
39.3(34) . . .
38.5(33) . . .
46(4) . . .
51(4) . . .
46(4) . . .
51(4) . . .
53(4) . . .
58(4) . . .
45.9(35) . . .
54(4) . . .
50(4) . . .
46(4) . . .
37.2(33) . . .
38.1(32) . . .
48(4) . . .
51(4) . . .
37.6(34) . . .
43(4) . . .
38.0(32) . . .
50(4) . . .
51(4) . . .
37.9(33) . . .
53(4) . . .
49(4) . . .
51(4) . . .
58(4) . . .
49(4) . . .
53(4) . . .
52(4) . . .
35.6(31) . . .
51(4) . . .
44(4) . . .
44(4) . . .
39.9(33) . . .
48(4) . . .
52(4) . . .
48(4) . . .
47(4) . . .
53(4) . . .
49(4) . . .
49(4) . . .
49(4) . . .
42.1(34) . . .
48(4) . . .
42.6(35) . . .
45(4) . . .
44(4) . . .
37.6(32) . . .
43.4(34) . . .
51(4) . . .
41.1(35) . . .
45(4) . . .
37.4(32) . . .
43.0(35) . . .
41.6(34) . . .
54(4) . . .
49(4) . . .
38.0(32) . . .
46.3(35) . . .
40.8(34) . . .
38.0(35) . . .
52(4) . . .
43.3(34) . . .
46(4) . . .
48(4) . . .
43(4) . . .
39.8(35) . . .
38.8(32) . . .
53(4) . . .
49(4) . . .
47(4) . . .
41.6(34) . . .
52(4) . . .
50(4) . . .
39.5(32) . . .
45(4) . . .
46(4) . . .
49(4) . . .
45.1(35) . . .
47(4) . . .
46(4) . . .
43.2(34) . . .
46.2(35) . . .
42(4) . . .
33.9(32) . . .
44(4) . . .
51(4) . . .
56(4) . . .
47(4) . . .
48(4) . . .
45(4) . . .
45(4) . . .
50(4) . . .
46(4) . . .
44(4) . . .
42.7(34) . . .
47(4) . . .
55(4) . . .
49(4) . . .
42.0(33) . . .
53(4) . . .
41.4(33) . . .
46(4) . . .
42(4) . . .
35.9(32) . . .
44.0(35) . . .
48(4) . . .
40.1(32) . . .
50(4) . . .
40.5(34) . . .
47(4) . . .
44.4(34) . . .
46(4) . . .
40.6(34) . . .
43(4) . . .
36.9(33) . . .
43.3(34) . . .
50(4) . . .
42.2(35) . . .
48(4) . . .
47(4) . . .
46(4) . . .
42.1(34) . . .
57(4) . . .
59(4) . . .
53(4) . . .
46(4) . . .
43.2(34) . . .
48(4) . . .
38.5(34) . . .
36.4(32) . . .
50(4) . . .
48(4) . . .
46(4) . . .
44(4) . . .
40.7(33) . . .
43.7(34) . . .
50(4) . . .
44(4) . . .
52(4) . . .
47(4) . . .
49(4) . . .
46(4) . . .
48(4) . . .
47(4) . . .
51(4) . . .
49(4) . . .
42.5(34) . . .
45(4) . . .
42(4) . . .
42.0(34) . . .
44.3(34) . . .
46(4) . . .
44(4) . . .
46(4) . . .
48(4) . . .
39.3(32) . . .
47(4) . . .
52(4) . . .
49(4) . . .
48(4) . . .
47(4) . . .
44(4) . . .
48(4) . . .
40(4) . . .
46(4) . . .
42.9(34) . . .
44(4) . . .
56(4) . . .
51(4) . . .
50(4) . . .
40.2(33) . . .
46(4) . . .
38.6(33) . . .
50(4) . . .
41.2(33) . . .
45(4) . . .
49(4) . . .
37.1(33) . . .
41(4) . . .
66(4) . . .
49(4) . . .
42(4) . . .
48(4) . . .
39.9(33) . . .
48(4) . . .
51(4) . . .
49(4) . . .
42(4) . . .
37.7(33) . . .
36.8(31) . . .
39(4) . . .
42(4) . . .
39.5(33) . . .
46(4) . . .
47(4) . . .
36.2(32) . . .
41.7(34) . . .
46(4) . . .
41.3(33) . . .
39.3(33) . . .
35.0(33) . . .
54(4) . . .
49(4) . . .
48(4) . . .
38.3(31) . . .
35.2(31) . . .
48(4) . . .
49(4) . . .
43.3(34) . . .
40.1(33) . . .
51(4) . . .
41(4) . . .
36.7(32) . . .
51(4) . . .
57(4) . . .
46(4) . . .
48(4) . . .
52(4) . . .
43.2(34) . . .
43.5(35) . . .
39.5(34) . . .
39(4) . . .
44(4) . . .
44.3(35) . . .
41.4(35) . . .
40.7(34) . . .
44(4) . . .
47(4) . . .
55(4) . . .
47(4) . . .
49(4) . . .
45(4) . . .
45.3(35) . . .
51(4) . . .
45(4) . . .
53(4) . . .
39.2(34) . . .
43.4(35) . . .
51(4) . . .
49(4) . . .
42(4) . . .
35.3(31) . . .
40.6(32) . . .
44(4) . . .
51(4) . . .
41.9(34) . . .
52(4) . . .
38.3(33) . . .
43.6(34) . . .
53(4) . . .
46(4) . . .
48(4) . . .
46(4) . . .
52(4) . . .
54(4) . . .
47(4) . . .
44(4) . . .
35.3(31) . . .
45(4) . . .
45(4) . . .
46(4) . . .
43(4) . . .
47(4) . . .
49(4) . . .
42.8(34) . . .
51(4) . . .
46(4) . . .
47(4) . . .
49(4) . . .
52(4) . . .
44(4) . . .
37.3(32) . . .
45.3(35) . . .
40.8(34) . . .
42(4) . . .
53(4) . . .
55(4) . . .
43.3(34) . . .
40.0(33) . . .
44(4) . . .
47(4) . . .
44.7(35) . . .
57(4) . . .
40.4(34) . . .
44(4) . . .
49(4) . . .
38.1(33) . . .
42.8(34) . . .
46(4) . . .
40.0(35) . . .
45(4) . . .
52(4) . . .
49(4) . . .
51(4) . . .
47(4) . . .
56(4) . . .
52(4) . . .
49(4) . . .
43(4) . . .
37.3(33) . . .
51(4) . . .
59(4) . . .
42.1(34) . . .
60(5) . . .
48(4) . . .
38.2(32) . . .
54(4) . . .
39.1(32) . . .
50(4) . . .
44(4) . . .
44.2(34) . . .
49(4) . . .
52(4) . . .
45(4) . . .
47(4) . . .
53(4) . . .
48(4) . . .
50(4) . . .
46.6(35) . . .
50(4) . . .
48(4) . . .
48(4) . . .
45(4) . . .
43(4) . . .
42.7(35) . . .
35.4(30) . . .
47(4) . . .
45(4) . . .
52(4) . . .
50(4) . . .
51(4) . . .
42.4(34) . . .
36.2(33) . . .
42(4) . . .
40(4) . . .
43.8(35) . . .
50(4) . . .
46(4) . . .
52(4) . . .
51(4) . . .
51(4) . . .
43.3(35) . . .
41.5(34) . . .
49(4) . . .
47(4) . . .
49(4) . . .
45(4) . . .
43.3(34) . . .
36.6(33) . . .
49(4) . . .
54(4) . . .
45(4) . . .
40.1(33) . . .
45(4) . . .
48(4) . . .
51(4) . . .
41.5(33) . . .
45(4) . . .
47(4) . . .
36.3(34) . . .
39.1(32) . . .
55(4) . . .
47(4) . . .
40.7(34) . . .
43(4) . . .
44.9(35) . . .
53(4) . . .
45(4) . . .
44(4) . . .
47(4) . . .
53(4) . . .
48(4) . . .
62(4) . . .
44(4) . . .
37.6(33) . . .
40.4(33) . . .
44(4) . . .
44(4) . . .
50(4) . . .
53(4) . . .
40.2(33) . . .
45(4) . . .
46(4) . . .
41.4(35) . . .
46(4) . . .
53(4) . . .
58(4) . . .
48(4) . . .
51(4) . . .
50(4) . . .
45(4) . . .
49(4) . . .
47(4) . . .
47(4) . . .
47(4) . . .
53(4) . . .
45(4) . . .
44(4) . . .
42(4) . . .
52(4) . . .
44.0(34) . . .
42(4) . . .
43(4) . . .
47(4) . . .
48(4) . . .
46.1(35) . . .
36.7(32) . . .
42(4) . . .
47(4) . . .
47(4) . . .
47(4) . . .
45(4) . . .
48(4) . . .
47(4) . . .
46(4) . . .
37.8(32) . . .
45(4) . . .
44(4) . . .
47(4) . . .
31.2(30) . . .
41.8(33) . . .
46(4) . . .
34.1(33) . . .
45(4) . . .
42.5(34) . . .
49(4) . . .
46(4) . . .
50(4) . . .
47(4) . . .
40.3(33) . . .
45(4) . . .
46(4) . . .
45(4) . . .
47(4) . . .
45(4) . . .
52(4) . . .
44.5(35) . . .
49(4) . . .
42.0(34) . . .
40.9(33) . . .
50(4) . . .
42.3(34) . . .
57(4) . . .
40.8(32) . . .
49(4) . . .
59(4) . . .
54(4) . . .
42.7(35) . . .
42.5(34) . . .
47(4) . . .
50(4) . . .
44(4) . . .
43(4) . . .
51(4) . . .
49(4) . . .
48(4) . . .
55(4) . . .
42.1(34) . . .
40.4(34) . . .
43.4(34) . . .
55(4) . . .
39.7(33) . . .
42.3(35) . . .
37.9(32) . . .
40.8(34) . . .
45(4) . . .
42(4) . . .
51(4) . . .
43.4(34) . . .
54(4) . . .
46(4) . . .
43(4) . . .
48(4) . . .
44.2(35) . . .
52(4) . . .
45(4) . . .
42(4) . . .
41.0(33) . . .
56(4) . . .
50(4) . . .
47(4) . . .
38.7(32) . . .
45(4) . . .
44.5(35) . . .
33.4(30) . . .
33.8(30) . . .
44(4) . . .
36.2(32) . . .
41.9(34) . . .
49(4) . . .
48(4) . . .
41.0(34) . . .
39.6(32) . . .
44(4) . . .
43(4) . . .
52(4) . . .
46(4) . . .
50(4) . . .
45.3(35) . . .
47(4) . . .
40(4) . . .
44(4) . . .
49(4) . . .
41.5(33) . . .
38.1(32) . . .
53(4) . . .
51(4) . . .
37.9(32) . . .
42.6(34) . . .
47(4) . . .
49(4) . . .
50(4) . . .
36.9(32) . . .
53(4) . . .
52(4) . . .
42(4) . . .
46(4) . . .
40.5(33) . . .
49(4) . . .
43(4) . . .
50(4) . . .
43(4) . . .
39.6(33) . . .
50(4) . . .
37.7(33) . . .
43(4) . . .
45(4) . . .
55(4) . . .
51(4) . . .
47(4) . . .
48(4) . . .
41.4(35) . . .
45.3(35) . . .
48(4) . . .
48(4) . . .
49(4) . . .
43.1(34) . . .
49(4) . . .
42.6(35) . . .
41(4) . . .
45(4) . . .
45.0(35) . . .
37.3(32) . . .
41.1(33) . . .
43(4) . . .
48(4) . . .
49(4) . . .
38.7(32) . . .
48(4) . . .
42(4) . . .
42(4) . . .
36.3(31) . . .
46(4) . . .
46(4) . . .
37.0(32) . . .
47(4) . . .
41.1(33) . . .
44.3(34) . . .
45(4) . . .
52(4) . . .
45(4) . . .
44.9(35) . . .
39.5(34) . . .
47(4) . . .
44(4) . . .
46(4) . . .
49(4) . . .
42.8(33) . . .
53(4) . . .
48(4) . . .
46(4) . . .
43.5(34) . . .
48(4) . . .
57(4) . . .
50(4) . . .
45(4) . . .
41.8(33) . . .
44(4) . . .
44(4) . . .
47(4) . . .
44(4) . . .
50(4) . . .
48(4) . . .
43(4) . . .
41.2(34) . . .
48(4) . . .
46(4) . . .
49(4) . . .
42.2(34) . . .
37.7(32) . . .
47(4) . . .
53(4) . . .
46(4) . . .
46(4) . . .
52(4) . . .
40.8(34) . . .
44.1(35) . . .
51(4) . . .
43.0(34) . . .
45(4) . . .
40.7(33) . . .
40.8(33) . . .
39(4) . . .
44(4) . . .
46(4) . . .
40.5(33) . . .
50(4) . . .
48(4) . . .
44(4) . . .
49(4) . . .
49(4) . . .
40.7(33) . . .
53(4) . . .
36.0(34) . . .
34.1(31) . . .
46.1(35) . . .
51(4) . . .
54(4) . . .
58(4) . . .
49(4) . . .
39.6(33) . . .
35.7(30) . . .
48(4) . . .
47(4) . . .
48(4) . . .
40.6(33) . . .
39.9(34) . . .
47(4) . . .
43.2(34) . . .
54(4) . . .
56(4) . . .
38.5(32) . . .
40(4) . . .
48(4) . . .
45(4) . . .
39.9(33) . . .
44(4) . . .
39(4) . . .
52(4) . . .
35.1(30) . . .
41.4(34) . . .
45(4) . . .
48(4) . . .
49(4) . . .
43.1(34) . . .
43.3(34) . . .
45(4) . . .
42(4) . . .
48(4) . . .
45(4) . . .
49(4) . . .
46(4) . . .
51(4) . . .
43.4(35) . . .
48(4) . . .
45(4) . . .
43(4) . . .
42(4) . . .
53(4) . . .
42.9(34) . . .
41.7(33) . . .
41.9(34) . . .
47(4) . . .
50(4) . . .
47(4) . . .
38.4(33) . . .
39.7(34) . . .
46(4) . . .
52(4) . . .
46(4) . . .
47(4) . . .
41.1(34) . . .
44(4) . . .
47(4) . . .
36.4(31) . . .
47(4) . . .
42(4) . . .
39.7(34) . . .
41.6(35) . . .
41.3(33) . . .
47(4) . . .
41.4(34) . . .
51(4) . . .
36.6(32) . . .
51(4) . . .
53(4) . . .
46(4) . . .
43.7(34) . . .
45(4) . . .
42.3(34) . . .
44(4) . . .
49(4) . . .
48(4) . . .
45(4) . . .
40.9(34) . . .
46(4) . . .
45(4) . . .
47(4) . . .
49(4) . . .
42.2(34) . . .
47(4) . . .
46(4) . . .
37.4(34) . . .
44(4) . . .
36.8(32) . . .
39.7(34) . . .
43(4) . . .
43(4) . . .
46(4) . . .
55(4) . . .
47(4) . . .
44(4) . . .
39.0(34) . . .
48(4) . . .
45.5(35) . . .
51(4) . . .
51(4) . . .
49(4) . . .
52(4) . . .
54(4) . . .
52(4) . . .
41(4) . . .
43(4) . . .
46(4) . . .
61(4) . . .
50(4) . . .
50(4) . . .
51(4) . . .
50(4) . . .
37.2(33) . . .
33.9(31) . . .
36.2(32) . . .
45(4) . . .
50(4) . . .
60(4) . . .
42.6(34) . . .
52(4) . . .
40.9(34) . . .
37.9(32) . . .
43(4) . . .
42.3(34) . . .
40.7(32) . . .
46(4) . . .
39.5(33) . . .
42(4) . . .
40.3(35) . . .
44(4) . . .
45(4) . . .
46(4) . . .
45(4) . . .
44(4) . . .
45(4) . . .
39.3(34) . . .
43.9(34) . . .
42.4(35) . . .
38(4) . . .
44(4) . . .
34.6(31) . . .
43.2(35) . . .
45(4) . . .
49(4) . . .
49(4) . . .
50(4) . . .
36.2(31) . . .
41(4) . . .
42(4) . . .
42.7(35) . . .
47(4) . . .
55(4) . . .
43(4) . . .
40.0(34) . . .
47(4) . . .
52(4) . . .
43.5(35) . . .
44(4) . . .
45(4) . . .
37.8(32) . . .
52(4) . . .
54(4) . . .
61(4) . . .
51(4) . . .
51(4) . . .
50(4) . . .
49(4) . . .
49(4) . . .
45(4) . . .
42.5(34) . . .
43.6(34) . . .
47(4) . . .
51(4) . . .
50(4) . . .
41.3(33) . . .
44.0(35) . . .
51(4) . . .
50(4) . . .
41.9(34) . . .
49(4) . . .
55(4) . . .
38.1(32) . . .
44(4) . . .
54(4) . . .
45(4) . . .
51(4) . . .
53(4) . . .
51(4) . . .
43.0(35) . . .
41.2(34) . . .
49(4) . . .
39.6(33) . . .
39.1(35) . . .
38.9(34) . . .
46(4) . . .
49(4) . . .
47(4) . . .
43(4) . . .
49(4) . . .
51(4) . . .
48(4) . . .
52(4) . . .
52(4) . . .
38.7(32) . . .
44.5(35) . . .
52(4) . . .
49(4) . . .
46(4) . . .
40.9(35) . . .
44.6(35) . . .
53(4) . . .
48(4) . . .
55(4) . . .
46(4) . . .
43.5(34) . . .
50(4) . . .
47(4) . . .
48(4) . . .
51(4) . . .
51(4) . . .
54(4) . . .
37.5(33) . . .
47(4) . . .
46.2(35) . . .
51(4) . . .
49(4) . . .
50(4) . . .
38.8(32) . . .
42.3(34) . . .
48(4) . . .
45(4) . . .
44(4) . . .
39.3(33) . . .
42.1(34) . . .
40.4(33) . . .
40(4) . . .
48(4) . . .
48(4) . . .
42.3(34) . . .
47(4) . . .
52(4) . . .
50(4) . . .
47(4) . . .
45.1(35) . . .
42.2(34) . . .
37.0(33) . . .
49(4) . . .
41.9(34) . . .
39.8(33) . . .
43.8(35) . . .
49(4) . . .
54(4) . . .
51(4) . . .
52(4) . . .
48(4) . . .
47(4) . . .
47(4) . . .
47(4) . . .
50(4) . . .
53(4) . . .
53(4) . . .
47(4) . . .
46(4) . . .
45(4) . . .
45(4) . . .
43(4) . . .
41(4) . . .
48(4) . . .
40.8(33) . . .
41(4) . . .
35.0(32) . . .
38.2(33) . . .
42.5(34) . . .
34.2(31) . . .
52(4) . . .
52(4) . . .
49(4) . . .
45(4) . . .
46(4) . . .
48(4) . . .
48(4) . . .
41.7(34) . . .
43(4) . . .
36.5(31) . . .
46(4) . . .
51(4) . . .
42.8(34) . . .
40.7(32) . . .
52(4) . . .
49(4) . . .
42(4) . . .
54(4) . . .
47(4) . . .
37.5(31) . . .
49(4) . . .
49(4) . . .
36.7(32) . . .
46(4) . . .
40.1(34) . . .
52(4) . . .
51(4) . . .
39.5(33) . . .
51(4) . . .
47(4) . . .
49(4) . . .
47(4) . . .
51(4) . . .
51(4) . . .
45(4) . . .
35.1(34) . . .
41.0(34) . . .
45(4) . . .
32.2(29) . . .
47(4) . . .
50(4) . . .
47(4) . . .
49(4) . . .
47(4) . . .
37.0(33) . . .
48(4) . . .
34.0(31) . . .
42.8(35) . . .
49(4) . . .
45(4) . . .
39.2(34) . . .
51(4) . . .
44(4) . . .
46(4) . . .
46(4) . . .
38.9(33) . . .
40.3(34) . . .
40.4(33) . . .
41.4(34) . . .
46(4) . . .
39(4) . . .
49(4) . . .
45(4) . . .
48(4) . . .
45(4) . . .
40.9(35) . . .
38.1(32) . . .
49(4) . . .
43.6(34) . . .
43(4) . . .
47(4) . . .
45(4) . . .
41.0(34) . . .
39.2(32) . . .
45(4) . . .
44(4) . . .
51(4) . . .
41.0(33) . . .
40.5(33) . . .
39.4(34) . . .
40(4) . . .
43(4) . . .
44.6(34) . . .
49(4) . . .
37.3(34) . . .
40(4) . . .
46(4) . . .
43.3(34) . . .
40.9(33) . . .
37.8(32) . . .
54(4) . . .
58(4) . . .
47(4) . . .
51(4) . . .
51(4) . . .
43.9(35) . . .
42.3(35) . . .
41.0(33) . . .
45(4) . . .
45(4) . . .
42.8(34) . . .
48(4) . . .
39.9(33) . . .
57(4) . . .
40(4) . . .
39.5(35) . . .
45(4) . . .
49(4) . . .
38.1(34) . . .
47(4) . . .
39.0(33) . . .
40.7(33) . . .
40.0(34) . . .
42(4) . . .
52(4) . . .
44(4) . . .
36.1(31) . . .
42.3(34) . . .
47(4) . . .
40(4) . . .
54(4) . . .
47(4) . . .
53(4) . . .
43.2(34) . . .
45(4) . . .
49(4) . . .
44.9(35) . . .
46(4) . . .
53(4) . . .
48(4) . . .
48(4) . . .
52(4) . . .
45(4) . . .
48(4) . . .
43(4) . . .
44(4) . . .
47(4) . . .
37.3(32) . . .
47(4) . . .
46(4) . . .
48(4) . . .
46(4) . . .
47(4) . . .
39.5(32) . . .
55(4) . . .
42.0(34) . . .
48(4) . . .
46(4) . . .
44(4) . . .
42(4) . . .
46(4) . . .
47(4) . . .
49(4) . . .
50(4) . . .
47(4) . . .
36.9(31) . . .
45.1(35) . . .
44(4) . . .
41(4) . . .
46(4) . . .
42.4(34) . . .
40.2(33) . . .
45.6(35) . . .
42.2(35) . . .
50(4) . . .
56(4) . . .
53(4) . . .
47(4) . . .
42(4) . . .
45(4) . . .
41.3(33) . . .
45.0(35) . . .
46(4) . . .
41.5(34) . . .
49(4) . . .
50(4) . . .
48(4) . . .
49(4) . . .
47(4) . . .
42(4) . . .
47(4) . . .
51(4) . . .
41.5(34) . . .
40.6(34) . . .
48(4) . . .
47(4) . . .
46(4) . . .
40.5(35) . . .
48(4) . . .
51(4) . . .
44.2(34) . . .
50(4) . . .
49(4) . . .
50(4) . . .
48(4) . . .
42.4(34) . . .
46(4) . . .
54(4) . . .
42(4) . . .
41.6(34) . . .
43.3(34) . . .
47(4) . . .
46(4) . . .
45(4) . . .
46(4) . . .
46(4) . . .
46(4) . . .
37.7(33) . . .
42(4) . . .
46(4) . . .
43.3(35) . . .
47(4) . . .
46(4) . . .
48(4) . . .
49(4) . . .
53(4) . . .
46(4) . . .
42(4) . . .
39.7(33) . . .
50(4) . . .
43.6(35) . . .
46(4) . . .
48(4) . . .
40.9(33) . . .
40.9(33) . . .
39.7(33) . . .
50(4) . . .
54(4) . . .
51(4) . . .
50(4) . . .
46(4) . . .
48(4) . . .
48(4) . . .
55(4) . . .
49(4) . . .
56(4) . . .
46(4) . . .
48(4) . . .
54(4) . . .
44.9(35) . . .
48(4) . . .
51(4) . . .
42.8(34) . . .
53(4) . . .
51(4) . . .
47(4) . . .
57(4) . . .
50(4) . . .
47(4) . . .
37.7(32) . . .
42.5(35) . . .
42.5(34) . . .
44(4) . . .
43.2(34) . . .
42.8(34) . . .
43(4) . . .
36.9(33) . . .
30.8(29) . . .
54(4) . . .
47(4) . . .
54(4) . . .
37.2(32) . . .
53(4) . . .
49(4) . . .
37.2(32) . . .
43(4) . . .
41(4) . . .
44(4) . . .
48(4) . . .
41.5(33) . . .
57(4) . . .
47(4) . . .
47(4) . . .
51(4) . . .
44.8(35) . . .
49(4) . . .
44(4) . . .
39(4) . . .
33.0(29) . . .
46(4) . . .
45.1(35) . . .
51(4) . . .
46(4) . . .
52(4) . . .
48(4) . . .
46(4) . . .
51(4) . . .
39.3(33) . . .
40.8(33) . . .
51(4) . . .
52(4) . . .
46(4) . . .
43(4) . . .
40.1(33) . . .
48(4) . . .
42(4) . . .
45(4) . . .
41.5(33) . . .
54(4) . . .
46(4) . . .
48(4) . . .
44.1(35) . . .
47(4) . . .
47(4) . . .
43(4) . . .
44(4) . . .
51(4) . . .
49(4) . . .
43.5(34) . . .
46(4) . . .
37.0(32) . . .
47(4) . . .
38.6(32) . . .
41.4(34) . . .
53(4) . . .
54(4) . . .
41.8(35) . . .
44.3(34) . . .
43.0(34) . . .
43(4) . . .
51(4) . . .
37.6(34) . . .
44(4) . . .
40.4(33) . . .
50(4) . . .
47(4) . . .
49(4) . . .
41.8(34) . . .
42.1(33) . . .
38.5(33) . . .
51(4) . . .
47(4) . . .
37.7(32) . . .
40.9(33) . . .
47(4) . . .
51(4) . . .
46(4) . . .
41.7(34) . . .
45(4) . . .
44(4) . . .
45(4) . . .
53(4) . . .
55(4) . . .
43.0(34) . . .
50(4) . . .
42.8(34) . . .
50(4) . . .
49(4) . . .
51(4) . . .
47(4) . . .
47(4) . . .
46(4) . . .
42.8(34) . . .
37.1(32) . . .
41(4) . . .
44(4) . . .
48(4) . . .
46(4) . . .
46(4) . . .
46(4) . . .
46.1(35) . . .
48(4) . . .
41.1(33) . . .
49(4) . . .
41.1(35) . . .
48(4) . . .
52(4) . . .
51(4) . . .
43.1(34) . . .
50(4) . . .
47(4) . . .
55(4) . . .
46(4) . . .
55(4) . . .
45(4) . . .
41.6(34) . . .
42.8(35) . . .
49(4) . . .
45(4) . . .
39.0(35) . . .
44(4) . . .
45.9(35) . . .
53(4) . . .
52(4) . . .
49(4) . . .
51(4) . . .
45(4) . . .
43.5(34) . . .
37.7(32) . . .
59(4) . . .
51(4) . . .
52(4) . . .
49(4) . . .
43.6(34) . . .
42.5(34) . . .
46(4) . . .
49(4) . . .
45(4) . . .
50(4) . . .
56(4) . . .
32.4(30) . . .
43.3(34) . . .
48(4) . . .
46(4) . . .
45(4) . . .
44(4) . . .
48(4) . . .
53(4) . . .
43(4) . . .
54(4) . . .
55(4) . . .
39.4(32) . . .
44.2(35) . . .
47(4) . . .
52(4) . . .
37.6(32) . . .
40.0(32) . . .
44(4) . . .
50(4) . . .
46(4) . . .
44(4) . . .
52(4) . . .
41.9(34) . . .
46(4) . . .
47(4) . . .
41.1(33) . . .
37.7(32) . . .
42.2(34) . . .
54(4) . . .
43.7(35) . . .
49(4) . . .
45(4) . . .
35.7(31) . . .
48(4) . . .
41.9(34) . . .
50(4) . . .
50(4) . . .
43(4) . . .
43(4) . . .
40.9(34) . . .
43.1(35) . . .
50(4) . . .
52(4) . . .
40.5(33) . . .
53(4) . . .
49(4) . . .
45(4) . . .
50(4) . . .
36.8(32) . . .
41.5(34) . . .
40.6(33) . . .
48(4) . . .
55(4) . . .
60(4) . . .
57(4) . . .
50(4) . . .
49(4) . . .
55(4) . . .
40.3(33) . . .
42.3(35) . . .
44.7(35) . . .
43(4) . . .
54(4) . . .
50(4) . . .
44.1(35) . . .
49(4) . . .
54(4) . . .
48(4) . . .
40.4(33) . . .
41.0(33) . . .
50(4) . . .
42.2(34) . . .
35.1(33) . . .
40.8(33) . . .
49(4) . . .
49(4) . . .
45(4) . . .
42.1(34) . . .
49(4) . . .
50(4) . . .
47(4) . . .
36.4(33) . . .
46(4) . . .
46(4) . . .
49(4) . . .
46(4) . . .
45(4) . . .
47(4) . . .
45(4) . . .
40.0(32) . . .
49(4) . . .
44(4) . . .
40.0(34) . . .
46(4) . . .
44.7(35) . . .
39.2(32) . . .
33.3(31) . . .
36.8(34) . . .
38.5(33) . . .
31.3(29) . . .
41(4) . . .
39.9(32) . . .
46(4) . . .
41.9(33) . . .
41.5(34) . . .
53(4) . . .
45(4) . . .
48(4) . . .
52(4) . . .
47(4) . . .
45(4) . . .
45(4) . . .
47(4) . . .
45.6(35) . . .
49(4) . . .
49(4) . . .
38.9(31) . . .
53(4) . . .
46.1(35) . . .
40.0(33) . . .
37.5(32) . . .
43(4) . . .
44(4) . . .
42.3(33) . . .
44.3(35) . . .
46(4) . . .
42.9(35) . . .
50(4) . . .
44.6(35) . . .
46(4) . . .
43(4) . . .
45(4) . . .
47(4) . . .
39.9(33) . . .
55(4) . . .
46(4) . . .
49(4) . . .
47(4) . . .
42.1(34) . . .
43(4) . . .
30.5(30) . . .
45(4) . . .
49(4) . . .
38.5(32) . . .
42.7(35) . . .
45(4) . . .
49(4) . . .
43.6(35) . . .
42.8(34) . . .
43(4) . . .
45(4) . . .
45(4) . . .
41.3(35) . . .
37.5(32) . . .
46(4) . . .
39.0(33) . . .
60(4) . . .
47(4) . . .
42.3(34) . . .
43(4) . . .
43(4) . . .
38.9(34) . . .
42.8(35) . . .
51(4) . . .
37.4(32) . . .
42(4) . . .
48(4) . . .
36.5(31) . . .
43.6(34) . . .
36.0(31) . . .
44(4) . . .
42.8(35) . . .
49(4) . . .
53(4) . . .
49(4) . . .
46(4) . . .
53(4) . . .
48(4) . . .
45(4) . . .
36.5(33) . . .
45(4) . . .
36.7(34) . . .
44.1(35) . . .
47(4) . . .
50(4) . . .
49(4) . . .
47(4) . . .
43.5(34) . . .
47(4) . . .
36.7(32) . . .
46(4) . . .
46(4) . . .
40.9(34) . . .
36.2(31) . . .
48(4) . . .
50(4) . . .
42(4) . . .
45(4) . . .
40.9(34) . . .
48(4) . . .
47(4) . . .
45.2(35) . . .
49(4) . . .
51(4) . . .
46(4) . . .
48(4) . . .
43.4(34) . . .
55(4) . . .
52(4) . . .
49(4) . . .
35.5(32) . . .
41.3(33) . . .
48(4) . . .
41.3(33) . . .
44(4) . . .
47(4) . . .
56(4) . . .
38.4(32) . . .
47(4) . . .
50(4) . . .
50(4) . . .
47(4) . . .
50(4) . . .
53(4) . . .
48(4) . . .
45(4) . . .
41.4(33) . . .
42(4) . . .
47(4) . . .
45(4) . . .
45(4) . . .
44(4) . . .
52(4) . . .
46(4) . . .
49(4) . . .
46(4) . . .
33.0(30) . . .
37.4(32) . . .
43.8(34) . . .
56(4) . . .
42(4) . . .
50(4) . . .
51(4) . . .
41(4) . . .
36.9(33) . . .
42.9(34) . . .
52(4) . . .
45(4) . . .
45(4) . . .
36.5(33) . . .
44(4) . . .
53(4) . . .
38.9(33) . . .
47(4) . . .
45(4) . . .
51(4) . . .
41.1(34) . . .
38.5(34) . . .
38.1(34) . . .
40.9(34) . . .
43.9(34) . . .
49(4) . . .
51(4) . . .
47(4) . . .
37.7(32) . . .
48(4) . . .
40.1(33) . . .
43(4) . . .
49(4) . . .
41.8(34) . . .
48(4) . . .
42.4(34) . . .
35.0(32) . . .
46(4) . . .
36.7(33) . . .
36.2(31) . . .
52(4) . . .
59(4) . . .
48(4) . . .
41.5(34) . . .
38.3(32) . . .
48(4) . . .
48(4) . . .
40.9(35) . . .
45(4) . . .
40.4(33) . . .
45(4) . . .
39.8(34) . . .
46(4) . . .
44(4) . . .
46(4) . . .
43.6(34) . . .
46(4) . . .
49(4) . . .
51(4) . . .
45.1(35) . . .
45(4) . . .
40(4) . . .
52(4) . . .
53(4) . . .
52(4) . . .
43(4) . . .
56(4) . . .
39.4(33) . . .
41.1(35) . . .
46(4) . . .
54(4) . . .
50(4) . . .
40.8(35) . . .
41.0(33) . . .
47(4) . . .
47(4) . . .
49(4) . . .
46(4) . . .
44(4) . . .
42.5(33) . . .
41.1(34) . . .
42(4) . . .
38.3(33) . . .
39.0(32) . . .
55(4) . . .
48.4(35) . . .
52(4) . . .
45(4) . . .
47(4) . . .
39.3(33) . . .
46(4) . . .
48(4) . . .
50(4) . . .
49(4) . . .
37.7(31) . . .
41.4(34) . . .
43(4) . . .
46(4) . . .
49(4) . . .
43.1(34) . . .
49(4) . . .
52(4) . . .
44.5(35) . . .
55(4) . . .
51(4) . . .
35.6(33) . . .
41.0(35) . . .
42(4) . . .
51(4) . . .
55(4) . . .
40.6(34) . . .
35.8(32) . . .
36.9(32) . . .
57(4) . . .
47(4) . . .
44(4) . . .
42(4) . . .
51(4) . . .
46(4) . . .
49(4) . . .
51(4) . . .
46(4) . . .
45.3(35) . . .
40.1(33) . . .
44(4) . . .
47(4) . . .
52(4) . . .
44.3(35) . . .
38.1(32) . . .
51(4) . . .
44(4) . . .
45(4) . . .
36.6(32) . . .
48(4) . . .
38.5(32) . . .
44(4) . . .
44(4) . . .
43.0(34) . . .
46(4) . . .
41.2(35) . . .
41(4) . . .
47(4) . . .
48(4) . . .
41.8(33) . . .
49(4) . . .
47(4) . . .
41(4) . . .
52(4) . . .
50(4) . . .
44.1(35) . . .
49(4) . . .
49(4) . . .
48(4) . . .
47(4) . . .
38.2(32) . . .
48(4) . . .
43(4) . . .
42.5(34) . . .
43.3(35) . . .
42.1(34) . . .
37.5(34) . . .
43(4) . . .
41.8(33) . . .
47(4) . . .
46(4) . . .
47(4) . . .
45(4) . . .
40.2(33) . . .
47(4) . . .
49(4) . . .
37(4) . . .
47(4) . . .
50(4) . . .
47(4) . . .
42(4) . . .
44(4) . . .
47(4) . . .
48(4) . . .
60(4) . . .
50(4) . . .
49(4) . . .
43.8(34) . . .
46(4) . . .
43.2(34) . . .
56(4) . . .
44.0(35) . . .
50(4) . . .
47(4) . . .
48(4) . . .
51(4) . . .
41.8(34) . . .
42.4(34) . . .
42.8(35) . . .
45(4) . . .
34.3(31) . . .
42.0(34) . . .
35.4(31) . . .
41.1(34) . . .
41.0(34) . . .
45(4) . . .
47(4) . . .
48(4) . . .
43.0(35) . . .
43(4) . . .
44(4) . . .
53(4) . . .
48(4) . . .
49(4) . . .
52(4) . . .
42.7(35) . . .
41.0(34) . . .
49(4) . . .
50(4) . . .
43(4) . . .
34.3(30) . . .
43.2(34) . . .
43.3(35) . . .
35.5(32) . . .
41(4) . . .
41.6(34) . . .
39.8(34) . . .
52(4) . . .
47(4) . . .
51(4) . . .
45(4) . . .
51(4) . . .
40.3(33) . . .
37.3(32) . . .
45(4) . . .
36.8(32) . . .
49(4) . . .
41.2(34) . . .
52(4) . . .
54(4) . . .
40.3(33) . . .
52(4) . . .
51(4) . . .
57(4) . . .
48(4) . . .
40.7(34) . . .
40.0(32) . . .
38.1(33) . . .
46(4) . . .
47(4) . . .
46(4) . . .
34.4(31) . . .
48(4) . . .
49(4) . . .
49(4) . . .
48(4) . . .
41.0(33) . . .
40.1(33) . . .
35.7(32) . . .
50(4) . . .
51(4) . . .
39.5(32) . . .
43(4) . . .
35.8(31) . . .
56(4) . . .
48(4) . . .
48(4) . . .
44(4) . . .
45(4) . . .
39.6(34) . . .
45(4) . . .
41.8(35) . . .
42(4) . . .
49(4) . . .
44(4) . . .
51(4) . . .
48(4) . . .
45(4) . . .
51(4) . . .
50(4) . . .
52(4) . . .
47(4) . . .
50(4) . . .
46(4) . . .
39.0(32) . . .
51(4) . . .
43.9(34) . . .
44(4) . . .
49(4) . . .
52(4) . . .
39.5(32) . . .
43.0(35) . . .
53(4) . . .
50(4) . . .
45(4) . . .
48(4) . . .
44.9(35) . . .
41.5(34) . . .
38.7(35) . . .
41.3(35) . . .
50(4) . . .
44.2(34) . . .
47(4) . . .
34.9(31) . . .
52(4) . . .
40.5(34) . . .
44.2(34) . . .
53(4) . . .
42(4) . . .
37.0(34) . . .
39.1(33) . . .
41.7(34) . . .
45(4) . . .
42.0(34) . . .
45(4) . . .
38.4(32) . . .
47(4) . . .
49(4) . . .
40.8(34) . . .
47(4) . . .
36.9(31) . . .
45(4) . . .
41(4) . . .
41(4) . . .
43(4) . . .
50(4) . . .
55(4) . . .
47(4) . . .
49(4) . . .
46.7(35) . . .
45.8(35) . . .
36.1(32) . . .
39.8(34) . . .
38.8(32) . . .
43.8(34) . . .
38.6(32) . . .
38.8(34) . . .
49(4) . . .
47(4) . . .
39.9(33) . . .
51(4) . . .
51(4) . . .
48(4) . . .
39.2(33) . . .
36.9(31) . . .
36.9(31) . . .
40.5(35) . . .
41(4) . . .
40.8(33) . . .
36.7(32) . . .
37.8(32) . . .
60(4) . . .
44.2(35) . . .
45(4) . . .
45.6(34) . . .
49(4) . . .
48(4) . . .
45(4) . . .
39.8(34) . . .
41.9(33) . . .
40.7(33) . . .
43.9(34) . . .
44(4) . . .
40(4) . . .
46(4) . . .
44.2(34) . . .
39.8(32) . . .
40.7(34) . . .
40.2(34) . . .
45.1(35) . . .
43(4) . . .
41.1(34) . . .
42.8(34) . . .
42.8(35) . . .
42.4(33) . . .
42.6(35) . . .
52(4) . . .
49(4) . . .
49(4) . . .
48(4) . . .
52(4) . . .
33.2(29) . . .
46(4) . . .
43(4) . . .
44.0(35) . . .
40.4(33) . . .
49(4) . . .
48(4) . . .
39.4(32) . . .
44(4) . . .
41(4) . . .
39(4) . . .
43.1(35) . . .
47(4) . . .
46(4) . . .
50(4) . . .
44(4) . . .
50(4) . . .
41.5(34) . . .
55(4) . . .
44(4) . . .
36.4(33) . . .
41.3(34) . . .
34.6(31) . . .
44(4) . . .
38.7(31) . . .
51(4) . . .
43.3(35) . . .
36.4(31) . . .
46(4) . . .
42.8(34) . . .
41.0(33) . . .
45(4) . . .
51(4) . . .
45(4) . . .
44(4) . . .
48(4) . . .
50(4) . . .
51(4) . . .
39.8(33) . . .
47(4) . . .
46(4) . . .
41.8(34) . . .
39.6(33) . . .
40.4(33) . . .
49(4) . . .
39.9(34) . . .
39.2(34) . . .
53(4) . . .
47(4) . . .
38.6(32) . . .
46(4) . . .
41.3(34) . . .
57(4) . . .
55(4) . . .
52(4) . . .
41.6(35) . . .
41.5(34) . . .
51(4) . . .
54(4) . . .
53(4) . . .
44(4) . . .
38.7(32) . . .
39.4(32) . . .
51(4) . . .
45(4) . . .
40.8(34) . . .
47(4) . . .
40.8(34) . . .
43(4) . . .
47(4) . . .
43.9(35) . . .
47.3(35) . . .
37.7(32) . . .
41(4) . . .
41.4(35) . . .
46(4) . . .
44.3(35) . . .
48(4) . . .
41.7(35) . . .
37.7(33) . . .
56(4) . . .
40.1(33) . . .
49(4) . . .
45(4) . . .
47(4) . . .
46(4) . . .
38.8(33) . . .
38.5(32) . . .
47.6(35) . . .
50(4) . . .
43(4) . . .
52(4) . . .
47(4) . . .
35.1(31) . . .
47(4) . . .
48(4) . . .
53(4) . . .
51(4) . . .
45(4) . . .
47(4) . . .
48(4) . . .
40.0(33) . . .
46(4) . . .
46(4) . . .
46(4) . . .
49(4) . . .
45(4) . . .
38.5(33) . . .
49(4) . . .
42.5(35) . . .
44(4) . . .
37.0(31) . . .
38.8(33) . . .
41(4) . . .
38.1(34) . . .
42.1(34) . . .
41.5(34) . . .
40(4) . . .
43(4) . . .
47(4) . . .
36.9(32) . . .
40.5(34) . . .
49(4) . . .
40(4) . . .
36.4(34) . . .
34.6(31) . . .
43.4(34) . . .
42.5(34) . . .
52(4) . . .
43.9(34) . . .
48(4) . . .
52(4) . . .
47(4) . . .
46(4) . . .
45(4) . . .
40.1(33) . . .
48(4) . . .
36.8(32) . . .
36.9(33) . . .
41.9(35) . . .
41.7(34) . . .
39.9(35) . . .
37.7(35) . . .
41.4(34) . . .
46(4) . . .
45(4) . . .
44.6(34) . . .
50(4) . . .
51(4) . . .
40.8(34) . . .
41.6(34) . . .
35.3(33) . . .
40(4) . . .
55(4) . . .
39.0(32) . . .
48(4) . . .
42.7(34) . . .
39(4) . . .
45(4) . . .
46(4) . . .
46(4) . . .
44(4) . . .
47(4) . . .
47(4) . . .
44.5(34) . . .
50(4) . . .
50(4) . . .
40(4) . . .
50(4) . . .
36.1(31) . . .
38.8(33) . . .
42(4) . . .
36.8(32) . . .
46(4) . . .
52(4) . . .
44.4(35) . . .
47(4) . . .
39.3(33) . . .
42.7(35) . . .
48(4) . . .
36.7(32) . . .
40.3(35) . . .
41(4) . . .
36.9(33) . . .
38.1(33) . . .
47(4) . . .
45(4) . . .
47(4) . . .
43.2(35) . . .
42.0(33) . . .
43(4) . . .
45(4) . . .
45(4) . . .
49(4) . . .
43.7(34) . . .
41.8(33) . . .
46(4) . . .
43(4) . . .
49(4) . . .
39.1(33) . . .
41(4) . . .
47(4) . . .
47(4) . . .
47(4) . . .
50(4) . . .
34.9(31) . . .
49(4) . . .
43(4) . . .
45(4) . . .
44.0(34) . . .
51(4) . . .
50(4) . . .
47(4) . . .
40.4(33) . . .
39.3(33) . . .
45.0(35) . . .
39.8(33) . . .
46(4) . . .
35.1(31) . . .
42.1(35) . . .
44(4) . . .
47(4) . . .
35.6(31) . . .
48(4) . . .
40.2(33) . . .
37.3(33) . . .
46(4) . . .
43(4) . . .
36.3(31) . . .
38.5(33) . . .
35.1(32) . . .
45(4) . . .
55(4) . . .
43.1(34) . . .
37.5(32) . . .
46(4) . . .
46(4) . . .
51(4) . . .
50(4) . . .
44(4) . . .
43(4) . . .
50(4) . . .
45(4) . . .
36.5(31) . . .
47(4) . . .
44(4) . . .
61(4) . . .
52(4) . . .
41.2(34) . . .
39.3(33) . . .
47(4) . . .
46(4) . . .
39.8(32) . . .
47(4) . . .
43.7(34) . . .
37.8(32) . . .
42.9(35) . . .
36.0(32) . . .
41.0(34) . . .
49(4) . . .
40(4) . . .
51(4) . . .
42.9(34) . . .
40.8(33) . . .
41.5(34) . . .
49(4) . . .
51(4) . . .
46(4) . . .
44.3(34) . . .
43.1(34) . . .
48(4) . . .
44(4) . . .
40.3(33) . . .
38.7(32) . . .
46(4) . . .
42(4) . . .
36.0(31) . . .
39.4(32) . . .
47(4) . . .
44(4) . . .
51(4) . . .
40.0(33) . . .
49(4) . . .
53(4) . . .
38.7(35) . . .
33.3(31) . . .
45(4) . . .
36.0(32) . . .
51(4) . . .
40.2(33) . . .
52(4) . . .
40.4(33) . . .
37.0(32) . . .
38.8(33) . . .
41(4) . . .
42(4) . . .
38.3(32) . . .
45.6(35) . . .
44(4) . . .
36.5(33) . . .
46(4) . . .
45(4) . . .
42.6(34) . . .
35.6(32) . . .
43(4) . . .
43(4) . . .
42.8(35) . . .
46(4) . . .
43.7(35) . . .
39.5(35) . . .
41.1(35) . . .
45(4) . . .
47(4) . . .
40.0(34) . . .
39(4) . . .
33.9(31) . . .
39.7(33) . . .
36.5(32) . . .
36.7(31) . . .
40.2(34) . . .
41.5(34) . . .
41.9(34) . . .
37.7(32) . . .
39.2(33) . . .
48(4) . . .
50(4) . . .
42.3(33) . . .
43(4) . . .
48(4) . . .
41(4) . . .
41.1(33) . . .
38.9(33) . . .
49(4) . . .
44.1(35) . . .
38.0(33) . . .
54(4) . . .
44.8(35) . . .
45(4) . . .
34.8(31) . . .
49(4) . . .
51(4) . . .
43.0(34) . . .
38.8(33) . . .
38.8(34) . . .
60(4) . . .
34.6(31) . . .
44.1(34) . . .
43(4) . . .
42(4) . . .
39(4) . . .
29.1(30) . . .
38.6(32) . . .
49(4) . . .
47(4) . . .
41.8(33) . . .
47(4) . . .
42.3(35) . . .
42.4(35) . . .
50(4) . . .
47(4) . . .
40.9(34) . . .
42.4(34) . . .
43.5(35) . . .
39.8(34) . . .
36.9(33) . . .
46.5(35) . . .
40.7(33) . . .
48(4) . . .
37.4(33) . . .
43.0(35) . . .
40.7(34) . . .
51(4) . . .
36.9(32) . . .
43(4) . . .
41.5(33) . . .
52(4) . . .
39.6(32) . . .
51(4) . . .
42.2(35) . . .
50(4) . . .
43.8(34) . . .
43.8(34) . . .
50(4) . . .
40.5(34) . . .
45(4) . . .
48(4) . . .
45(4) . . .
45(4) . . .
42.6(35) . . .
49(4) . . .
44.5(35) . . .
46(4) . . .
43(4) . . .
46(4) . . .
52(4) . . .
36.6(32) . . .
44(4) . . .
37.4(32) . . .
49(4) . . .
54(4) . . .
42.1(34) . . .
39.3(33) . . .
43(4) . . .
47(4) . . .
49(4) . . .
42.9(34) . . .
48(4) . . .
43(4) . . .
43.7(34) . . .
42.6(34) . . .
45.0(35) . . .
40(4) . . .
43(4) . . .
39.9(34) . . .
43.2(34) . . .
39.3(32) . . .
40(4) . . .
40(4) . . .
39.8(34) . . .
40.1(33) . . .
38.3(32) . . .
51(4) . . .
53(4) . . .
49(4) . . .
37.9(32) . . .
43.1(34) . . .
46(4) . . .
48(4) . . .
39.6(35) . . .
47(4) . . .
39.5(34) . . .
44(4) . . .
47(4) . . .
39.3(34) . . .
41.7(35) . . .
50(4) . . .
44(4) . . .
42.2(35) . . .
47(4) . . .
45(4) . . .
48(4) . . .
47(4) . . .
48(4) . . .
35.7(33) . . .
37.7(32) . . .
41.3(35) . . .
52(4) . . .
47(4) . . .
39.3(34) . . .
31.7(29) . . .
46(4) . . .
49(4) . . .
46(4) . . .
42.8(34) . . .
44.0(34) . . .
48(4) . . .
55(4) . . .
47(4) . . .
41.6(34) . . .
34.0(30) . . .
44(4) . . .
34.5(31) . . .
46(4) . . .
40.4(33) . . .
36.1(31) . . .
48(4) . . .
39.8(34) . . .
44(4) . . .
46(4) . . .
42.3(34) . . .
39.4(35) . . .
48(4) . . .
41(4) . . .
52(4) . . .
48(4) . . .
46(4) . . .
45(4) . . .
41.3(34) . . .
50(4) . . .
47(4) . . .
43.2(34) . . .
38.6(34) . . .
40.1(34) . . .
46.0(35) . . .
47(4) . . .
48(4) . . .
53(4) . . .
31.2(30) . . .
38.5(33) . . .
43(4) . . .
45(4) . . .
39.2(33) . . .
46(4) . . .
41.5(34) . . .
44(4) . . .
47(4) . . .
40(4) . . .
37.9(33) . . .
43.0(34) . . .
53(4) . . .
42(4) . . .
42.4(34) . . .
46(4) . . .
44.7(34) . . .
45(4) . . .
35.3(31) . . .
37.0(33) . . .
38.3(32) . . .
55(4) . . .
47(4) . . .
36.2(33) . . .
44(4) . . .
45(4) . . .
41.2(33) . . .
34.9(33) . . .
47(4) . . .
52(4) . . .
37.0(31) . . .
33.7(30) . . .
41.2(35) . . .
42(4) . . .
45(4) . . .
47(4) . . .
49(4) . . .
44(4) . . .
44(4) . . .
44(4) . . .
47(4) . . .
47(4) . . .
45(4) . . .
44(4) . . .
38.4(34) . . .
41.3(33) . . .
37.6(32) . . .
44(4) . . .
45(4) . . .
40.2(34) . . .
39.0(33) . . .
40.5(34) . . .
38.2(34) . . .
52(4) . . .
49(4) . . .
37.2(32) . . .
40(4) . . .
45(4) . . .
38.1(33) . . .
44.8(35) . . .
42.0(34) . . .
41.8(34) . . .
37.0(33) . . .
40.2(34) . . .
47(4) . . .
44.2(34) . . .
39.8(33) . . .
40.3(34) . . .
41(4) . . .
45(4) . . .
44.8(35) . . .
36.8(34) . . .
65(5) . . .
47(4) . . .
40.3(33) . . .
49(4) . . .
49(4) . . .
48(4) . . .
45(4) . . .
34.6(32) . . .
55(4) . . .
50(4) . . .
43(4) . . .
32.4(31) . . .
43.0(35) . . .
36.8(32) . . .
47(4) . . .
43(4) . . .
47(4) . . .
36.8(32) . . .
42(4) . . .
45.0(35) . . .
44(4) . . .
46(4) . . .
40.7(33) . . .
47(4) . . .
35.9(31) . . .
45(4) . . .
53(4) . . .
49(4) . . .
49(4) . . .
37.8(32) . . .
48(4) . . .
45.8(35) . . .
48(4) . . .
52(4) . . .
47(4) . . .
49(4) . . .
52(4) . . .
42.7(34) . . .
39.9(33) . . .
47(4) . . .
48(4) . . .
41.3(34) . . .
42.1(34) . . .
34.0(30) . . .
45(4) . . .
37.4(32) . . .
39.1(32) . . .
39.9(35) . . .
48(4) . . .
36.8(32) . . .
49(4) . . .
47(4) . . .
38.0(33) . . .
45(4) . . .
38.3(34) . . .
49(4) . . .
48(4) . . .
40.6(33) . . .
37.7(33) . . .
43(4) . . .
37.4(33) . . .
41.2(34) . . .
41.6(34) . . .
49(4) . . .
33.2(29) . . .
39.4(33) . . .
42.5(35) . . .
38.3(32) . . .
53(4) . . .
48(4) . . .
38.0(32) . . .
41.3(34) . . .
50(4) . . .
52(4) . . .
39.3(34) . . .
40(4) . . .
42.6(34) . . .
45(4) . . .
43(4) . . .
41.4(34) . . .
43.0(35) . . .
39.8(33) . . .
50(4) . . .
34.4(31) . . .
35.9(32) . . .
41.0(34) . . .
41.5(34) . . .
50(4) . . .
44(4) . . .
42(4) . . .
40.4(33) . . .
50(4) . . .
40.5(35) . . .
52(4) . . .
50(4) . . .
41.6(35) . . .
42.3(34) . . .
49(4) . . .
38.0(33) . . .
40.6(34) . . .
48(4) . . .
49(4) . . .
49(4) . . .
44(4) . . .
45(4) . . .
54(4) . . .
42.2(34) . . .
47(4) . . .
43(4) . . .
42(4) . . .
40.8(34) . . .
36.9(32) . . .
44(4) . . .
41(4) . . .
40.6(34) . . .
50(4) . . .
45.1(34) . . .
45(4) . . .
44(4) . . .
42(4) . . .
30.5(29) . . .
43(4) . . .
32.8(30) . . .
34.6(31) . . .
49(4) . . .
40.1(33) . . .
46(4) . . .
47(4) . . .
50(4) . . .
38.9(33) . . .
42.3(33) . . .
41.2(34) . . .
43(4) . . .
34.7(30) . . .
36.6(34) . . .
34.6(31) . . .
36.0(34) . . .
39.7(35) . . .
51(4) . . .
51(4) . . .
48(4) . . .
48(4) . . .
44(4) . . .
34.1(30) . . .
40(4) . . .
38.2(33) . . .
51(4) . . .
51(4) . . .
39.0(32) . . .
39.8(33) . . .
40.3(33) . . .
36.5(33) . . .
39(4) . . .
40.5(35) . . .
37.6(33) . . .
39.1(32) . . .
46(4) . . .
43(4) . . .
50(4) . . .
47(4) . . .
38.5(33) . . .
53(4) . . .
44(4) . . .
39.0(33) . . .
42.3(34) . . .
41.7(34) . . .
46(4) . . .
40.2(35) . . .
44(4) . . .
44(4) . . .
37.6(32) . . .
39.3(33) . . .
40.4(35) . . .
40.0(33) . . .
47(4) . . .
48(4) . . .
34.7(32) . . .
49(4) . . .
44(4) . . .
39.0(33) . . .
48(4) . . .
35.4(33) . . .
41(4) . . .
34.1(33) . . .
50(4) . . .
47(4) . . .
41.5(34) . . .
40.9(33) . . .
52(4) . . .
51(4) . . .
49(4) . . .
42(4) . . .
35.4(32) . . .
43(4) . . .
47(4) . . .
45(4) . . .
51(4) . . .
39.0(32) . . .
48(4) . . .
43.1(34) . . .
49(4) . . .
43.5(35) . . .
50(4) . . .
51(4) . . .
54(4) . . .
45(4) . . .
41.7(35) . . .
35.8(31) . . .
42.4(34) . . .
41.1(34) . . .
38.5(32) . . .
36.9(31) . . .
44(4) . . .
42.8(34) . . .
45.4(35) . . .
48(4) . . .
38.8(34) . . .
46(4) . . .
45.4(35) . . .
41.7(34) . . .
33.9(30) . . .
42(4) . . .
41(4) . . .
42.8(34) . . .
39.0(33) . . .
40.2(33) . . .
43(4) . . .
49(4) . . .
43.5(34) . . .
48(4) . . .
44(4) . . .
44(4) . . .
42.8(34) . . .
39.9(33) . . .
50(4) . . .
42(4) . . .
40.0(33) . . .
41.1(33) . . .
41.6(34) . . .
35.1(31) . . .
39.7(35) . . .
37.8(33) . . .
42.6(34) . . .
50(4) . . .
49(4) . . .
47(4) . . .
37.8(32) . . .
34.4(31) . . .
42.1(34) . . .
43(4) . . .
41.5(35) . . .
42.0(33) . . .
43.8(34) . . .
41.4(34) . . .
37.4(33) . . .
32.3(32) . . .
41.8(35) . . .
37.3(32) . . .
36.6(32) . . .
39.6(33) . . .
39(4) . . .
29.6(28) . . .
53(4) . . .
50(4) . . .
35.5(31) . . .
44(4) . . .
40.5(34) . . .
40.3(33) . . .
33.3(31) . . .
39.7(33) . . .
39.8(35) . . .
42(4) . . .
33.8(30) . . .
35.9(31) . . .
35.6(33) . . .
37.9(34) . . .
41(4) . . .
50(4) . . .
43.9(35) . . .
41.0(34) . . .
47(4) . . .
38.8(33) . . .
42.0(34) . . .
37.9(35) . . .
48(4) . . .
36.2(31) . . .
39.2(33) . . .
47(4) . . .
46(4) . . .
47(4) . . .
33.8(29) . . .
39.8(33) . . .
34.0(30) . . .
39.8(34) . . .
37.8(35) . . .
38.0(33) . . .
51(4) . . .
39.5(34) . . .
42(4) . . .
32.2(31) . . .
43(4) . . .
44.4(34) . . .
46.2(35) . . .
46(4) . . .
48(4) . . .
49(4) . . .
44.1(34) . . .
49(4) . . .
39.6(33) . . .
40.1(34) . . .
48(4) . . .
47(4) . . .
36.9(33) . . .
44(4) . . .
47(4) . . .
51(4) . . .
44.5(35) . . .
41.6(34) . . .
34.5(31) . . .
34.6(33) . . .
30.1(28) . . .
43.4(35) . . .
41(4) . . .
43(4) . . .
45(4) . . .
44(4) . . .
48(4) . . .
38.1(32) . . .
45(4) . . .
45(4) . . .
48(4) . . .
41.3(34) . . .
42.9(35) . . .
36.3(32) . . .
39(4) . . .
38.7(33) . . .
43.8(34) . . .
40.5(33) . . .
37.6(33) . . .
35.7(32) . . .
44.9(35) . . .
44.7(35) . . .
42.9(35) . . .
42(4) . . .
38.1(32) . . .
47(4) . . .
56(4) . . .
48(4) . . .
48(4) . . .
48(4) . . .
44(4) . . .
45.7(35) . . .
39(4) . . .
48(4) . . .
43(4) . . .
40.6(33) . . .
36.4(31) . . .
41.8(34) . . .
43(4) . . .
44(4) . . .
49(4) . . .
50(4) . . .
46(4) . . .
45(4) . . .
45(4) . . .
43.3(34) . . .
37.3(33) . . .
43.4(34) . . .
43(4) . . .
35.5(31) . . .
41.1(33) . . .
45(4) . . .
45(4) . . .
36.7(32) . . .
45(4) . . .
37.0(32) . . .
40.5(33) . . .
37.6(32) . . .
45(4) . . .
49(4) . . .
31.5(29) . . .
43(4) . . .
48(4) . . .
44.4(34) . . .
43(4) . . .
43(4) . . .
49(4) . . .
40.0(33) . . .
38.4(33) . . .
44.8(35) . . .
40.4(33) . . .
35.5(31) . . .
39.5(33) . . .
37.6(33) . . .
43.8(35) . . .
50(4) . . .
36.3(33) . . .
40.1(34) . . .
41.5(34) . . .
45(4) . . .
54(4) . . .
45(4) . . .
46(4) . . .
29.1(27) . . .
33.3(30) . . .
42.4(34) . . .
31.0(29) . . .
46(4) . . .
44.7(35) . . .
42.5(34) . . .
43.1(35) . . .
44(4) . . .
41(4) . . .
42(4) . . .
36.3(32) . . .
41.0(34) . . .
34.6(31) . . .
50(4) . . .
40.6(35) . . .
43.8(34) . . .
41.3(33) . . .
41.6(34) . . .
35.2(32) . . .
43(4) . . .
51(4) . . .
38.3(32) . . .
37.6(34) . . .
36.4(34) . . .
42(4) . . .
42.7(34) . . .
40.5(33) . . .
43(4) . . .
42.7(35) . . .
44(4) . . .
36.5(31) . . .
42.3(34) . . .
54(4) . . .
45(4) . . .
38.8(33) . . .
38.2(33) . . .
38.1(34) . . .
37.7(33) . . .
50(4) . . .
45(4) . . .
46(4) . . .
41.2(33) . . .
32.1(30) . . .
38.6(35) . . .
44.4(35) . . .
39.0(32) . . .
38.3(33) . . .
41.5(34) . . .
40.0(34) . . .
41.3(34) . . .
40.4(33) . . .
41.0(35) . . .
38.8(33) . . .
36.7(32) . . .
41.0(34) . . .
40.9(34) . . .
40(4) . . .
40(4) . . .
38.0(33) . . .
46(4) . . .
44.0(35) . . .
35.7(32) . . .
41.2(35) . . .
46(4) . . .
36.1(31) . . .
44(4) . . .
44(4) . . .
40.9(35) . . .
36.7(31) . . .
41.2(33) . . .
38.4(32) . . .
39.4(35) . . .
47(4) . . .
44(4) . . .
45.7(35) . . .
42.3(34) . . .
43(4) . . .
44(4) . . .
47(4) . . .
45.2(35) . . .
44(4) . . .
35.5(31) . . .
42.1(34) . . .
48(4) . . .
40.2(33) . . .
46(4) . . .
47(4) . . .
50(4) . . .
46(4) . . .
42.0(34) . . .
47(4) . . .
42.3(34) . . .
42.4(34) . . .
43.3(34) . . .
40.3(33) . . .
38.3(33) . . .
46(4) . . .
40(4) . . .
34.7(31) . . .
40.3(33) . . .
46(4) . . .
42(4) . . .
41.2(35) . . .
40.2(33) . . .
40.7(33) . . .
38.7(34) . . .
32.4(30) . . .
34.0(32) . . .
36.3(31) . . .
37.2(32) . . .
38.3(32) . . .
51(4) . . .
42(4) . . .
39.6(33) . . .
51(4) . . .
36.9(31) . . .
36.4(33) . . .
40.3(34) . . .
43.9(35) . . .
55(4) . . .
45(4) . . .
44(4) . . .
49(4) . . .
44.1(35) . . .
40.9(33) . . .
45(4) . . .
47(4) . . .
39.4(34) . . .
51(4) . . .
39.3(33) . . .
37.5(32) . . .
46(4) . . .
42.6(35) . . .
38.9(32) . . .
31.7(29) . . .
41.0(34) . . .
47(4) . . .
42(4) . . .
35.9(32) . . .
49(4) . . .
45(4) . . .
39.6(33) . . .
46(4) . . .
45(4) . . .
46(4) . . .
37.3(33) . . .
45(4) . . .
51(4) . . .
50(4) . . .
38.5(33) . . .
40.0(35) . . .
44(4) . . .
41.1(34) . . .
41.6(33) . . .
44.0(35) . . .
54(4) . . .
47(4) . . .
41.5(35) . . .
37.4(32) . . .
53(4) . . .
42(4) . . .
41(4) . . .
43.4(34) . . .
32.4(31) . . .
37.9(33) . . .
37.1(33) . . .
47(4) . . .
34.7(30) . . .
43.6(34) . . .
50(4) . . .
37.0(33) . . .
37.9(34) . . .
45.7(35) . . .
37.6(33) . . .
37.8(33) . . .
32.2(31) . . .
39(4) . . .
41.2(33) . . .
46(4) . . .
42(4) . . .
47(4) . . .
36.1(31) . . .
40.1(32) . . .
46(4) . . .
32.2(30) . . .
50(4) . . .
42(4) . . .
33.4(30) . . .
42(4) . . .
38.1(33) . . .
40.2(35) . . .
45(4) . . .
51(4) . . .
47(4) . . .
47(4) . . .
42(4) . . .
40.8(34) . . .
45.1(35) . . .
33.9(30) . . .
49(4) . . .
38.0(32) . . .
54(4) . . .
45.0(35) . . .
51(4) . . .
39.3(34) . . .
33.1(30) . . .
44(4) . . .
39.1(32) . . .
39.7(34) . . .
41(4) . . .
39(4) . . .
41.8(33) . . .
41.1(34) . . .
44(4) . . .
49(4) . . .
37.8(32) . . .
41.7(34) . . .
42.7(34) . . .
35.3(32) . . .
40(4) . . .
40.9(33) . . .
44.4(35) . . .
50(4) . . .
38.5(33) . . .
42.5(35) . . .
54(4) . . .
42.7(34) . . .
42(4) . . .
41(4) . . .
36.5(34) . . .
38.9(33) . . .
38.5(33) . . .
40.4(33) . . .
39.8(33) . . .
40.8(35) . . .
37.6(32) . . .
36.7(32) . . .
44(4) . . .
50(4) . . .
42.7(33) . . .
40.0(34) . . .
41.9(34) . . .
44(4) . . .
46(4) . . .
37.4(32) . . .
49(4) . . .
42.4(34) . . .
39.8(33) . . .
39(4) . . .
40.0(34) . . .
43.1(34) . . .
47(4) . . .
44.0(35) . . .
54(4) . . .
34.4(32) . . .
47(4) . . .
48(4) . . .
46(4) . . .
39(4) . . .
36.3(31) . . .
35.3(31) . . .
49(4) . . .
43.8(34) . . .
45(4) . . .
38.1(32) . . .
52(4) . . .
51(4) . . .
45(4) . . .
42(4) . . .
39.3(33) . . .
35.0(31) . . .
46(4) . . .
39.7(33) . . .
33.5(33) . . .
37.9(34) . . .
44.2(35) . . .
49(4) . . .
43(4) . . .
43(4) . . .
44(4) . . .
32.9(30) . . .
46(4) . . .
44(4) . . .
40.2(33) . . .
41.9(34) . . .
40.2(33) . . .
38.3(34) . . .
38.5(33) . . .
40.5(34) . . .
45(4) . . .
42.6(34) . . .
31.0(29) . . .
41.8(34) . . .
42.7(34) . . .
42.7(34) . . .
39.2(32) . . .
36.2(31) . . .
42(4) . . .
37.7(35) . . .
42.1(34) . . .
46(4) . . .
38.2(33) . . .
34.1(33) . . .
45(4) . . .
45(4) . . .
36.9(31) . . .
49(4) . . .
43(4) . . .
45(4) . . .
35.2(32) . . .
40.8(33) . . .
41(4) . . .
39.1(35) . . .
46(4) . . .
42.5(34) . . .
37.7(32) . . .
49(4) . . .
41.4(35) . . .
50(4) . . .
49(4) . . .
49(4) . . .
51(4) . . .
43(4) . . .
38.4(33) . . .
40.8(33) . . .
42.4(34) . . .
42(4) . . .
49(4) . . .
29.9(29) . . .
48(4) . . .
36.3(31) . . .
36.5(33) . . .
47(4) . . .
39.6(32) . . .
44.3(35) . . .
37.8(33) . . .
54(4) . . .
43.2(34) . . .
39.6(32) . . .
43.3(34) . . .
52(4) . . .
41.3(33) . . .
42.5(33) . . .
43.3(35) . . .
42.9(34) . . .
39.7(34) . . .
46(4) . . .
41.6(35) . . .
37.9(32) . . .
40.7(33) . . .
51(4) . . .
44(4) . . .
50(4) . . .
42.1(34) . . .
32.8(30) . . .
41.6(34) . . .
46(4) . . .
38.8(33) . . .
37.9(32) . . .
36.2(31) . . .
39.4(33) . . .
50(4) . . .
48(4) . . .
52(4) . . .
49(4) . . .
46(4) . . .
45(4) . . .
41.6(34) . . .
52(4) . . .
37.8(32) . . .
55(4) . . .
47(4) . . .
46(4) . . .
44.0(34) . . .
38.9(33) . . .
44(4) . . .
33.4(31) . . .
38.8(33) . . .
40.4(33) . . .
38.8(33) . . .
36.0(32) . . .
40.1(34) . . .
36.3(32) . . .
31.8(30) . . .
50(4) . . .
34.7(30) . . .
38.8(33) . . .
28.5(28) . . .
43.2(34) . . .
42.4(35) . . .
45(4) . . .
46(4) . . .
28.3(27) . . .
51(4) . . .
46(4) . . .
45(4) . . .
43(4) . . .
34.9(31) . . .
39.5(33) . . .
45(4) . . .
34.7(31) . . .
36.2(32) . . .
36.1(32) . . .
41.3(33) . . .
38.0(34) . . .
41(4) . . .
42(4) . . .
35.1(30) . . .
39.5(33) . . .
50(4) . . .
44(4) . . .
41.0(34) . . .
45(4) . . .
41.4(34) . . .
46(4) . . .
39(4) . . .
39.8(33) . . .
53(4) . . .
42.6(34) . . .
38.6(34) . . .
41(4) . . .
41.2(35) . . .
48(4) . . .
47(4) . . .
42(4) . . .
37.3(33) . . .
38.8(34) . . .
36.1(32) . . .
37.6(33) . . .
41(4) . . .
43(4) . . .
38.0(33) . . .
40.6(33) . . .
36.3(32) . . .
33.4(32) . . .
40.8(34) . . .
48(4) . . .
38.0(32) . . .
38.5(32) . . .
44(4) . . .
38.9(34) . . .
32.8(30) . . .
41.0(34) . . .
48(4) . . .
47(4) . . .
31.1(30) . . .
37.1(32) . . .
34.5(31) . . .
41(4) . . .
46(4) . . .
42(4) . . .
41.7(34) . . .
41.4(34) . . .
32.9(30) . . .
53(4) . . .
46(4) . . .
43.5(35) . . .
45.3(35) . . .
45(4) . . .
46(4) . . .
47(4) . . .
49(4) . . .
44(4) . . .
48(4) . . .
46(4) . . .
41.6(33) . . .
40.5(33) . . .
40.0(33) . . .
36.5(34) . . .
47(4) . . .
41(4) . . .
36.1(31) . . .
38.8(33) . . .
42.0(35) . . .
47(4) . . .
38.0(33) . . .
37.8(32) . . .
32.4(31) . . .
31.5(32) . . .
43(4) . . .
52(4) . . .
44.9(35) . . .
41.2(34) . . .
39(4) . . .
43(4) . . .
45(4) . . .
36.3(31) . . .
40.2(35) . . .
48(4) . . .
48(4) . . .
39.6(32) . . .
37.0(32) . . .
31.9(32) . . .
42(4) . . .
47(4) . . .
38.5(33) . . .
44.5(35) . . .
39.6(35) . . .
33.5(31) . . .
40.0(34) . . .
42.8(34) . . .
37.1(33) . . .
49(4) . . .
32.2(29) . . .
45(4) . . .
35.9(31) . . .
37.4(33) . . .
38.0(34) . . .
42.2(35) . . .
49(4) . . .
50(4) . . .
42.9(34) . . .
43(4) . . .
45(4) . . .
51(4) . . .
53(4) . . .
36.6(32) . . .
43(4) . . .
46(4) . . .
37.5(33) . . .
43.8(34) . . .
48(4) . . .
36.5(32) . . .
33.9(32) . . .
33.6(31) . . .
40.5(33) . . .
38.6(33) . . .
40.3(33) . . .
39.5(33) . . .
44.9(35) . . .
50(4) . . .
31.5(29) . . .
41(4) . . .
34.2(31) . . .
45(4) . . .
39.9(32) . . .
46(4) . . .
45(4) . . .
39.7(32) . . .
42.3(34) . . .
36.8(32) . . .
48(4) . . .
40.2(34) . . .
43(4) . . .
35.0(31) . . .
35.2(31) . . .
41(4) . . .
33.4(31) . . .
31.3(32) . . .
33.1(29) . . .
41.7(34) . . .
42(4) . . .
35.2(33) . . .
36.5(33) . . .
38.5(32) . . .
44.4(35) . . .
47(4) . . .
35.9(34) . . .
43(4) . . .
43.9(34) . . .
39.8(33) . . .
46(4) . . .
42(4) . . .
35.6(31) . . .
42.8(34) . . .
40.8(34) . . .
53(4) . . .
40(4) . . .
32.6(31) . . .
41.0(35) . . .
31.2(29) . . .
40.0(35) . . .
39.6(35) . . .
39.0(35) . . .
39.9(32) . . .
45(4) . . .
37.3(33) . . .
43.2(35) . . .
38.7(32) . . .
46(4) . . .
41.7(34) . . .
33.5(31) . . .
46(4) . . .
38.5(33) . . .
39.3(32) . . .
50(4) . . .
41.3(34) . . .
52(4) . . .
42.3(35) . . .
42.4(34) . . .
38.5(35) . . .
38.5(33) . . .
33.1(29) . . .
38.4(32) . . .
33.9(30) . . .
36.9(32) . . .
36.1(33) . . .
31.6(29) . . .
33.8(30) . . .
36.6(31) . . .
47(4) . . .
52(4) . . .
39.5(34) . . .
43.8(35) . . .
48(4) . . .
36.8(32) . . .
45(4) . . .
39.5(33) . . .
37.5(32) . . .
36.0(32) . . .
49(4) . . .
41(4) . . .
42.0(35) . . .
45.0(35) . . .
45(4) . . .
36(4) . . .
46(4) . . .
41(4) . . .
33.8(31) . . .
38.7(32) . . .
36.8(32) . . .
40.5(35) . . .
35.0(33) . . .
35.6(31) . . .
34.2(30) . . .
44(4) . . .
51(4) . . .
43(4) . . .
45.0(35) . . .
46(4) . . .
36.1(31) . . .
39.0(34) . . .
44(4) . . .
34.6(30) . . .
34.1(31) . . .
32.7(29) . . .
36.4(31) . . .
50(4) . . .
37.6(32) . . .
52(4) . . .
44(4) . . .
41.0(33) . . .
41.0(33) . . .
34.1(31) . . .
43.4(35) . . .
43(4) . . .
44(4) . . .
44.9(35) . . .
35.3(32) . . .
42(4) . . .
42(4) . . .
49(4) . . .
42.2(34) . . .
41.3(34) . . .
47(4) . . .
48(4) . . .
42(4) . . .
54(4) . . .
39.2(34) . . .
44(4) . . .
37.0(32) . . .
47(4) . . .
46.2(35) . . .
36.2(31) . . .
37.0(34) . . .
38(4) . . .
33.6(32) . . .
46.1(35) . . .
47(4) . . .
31.4(28) . . .
44(4) . . .
33.1(30) . . .
44.5(34) . . .
39.6(33) . . .
39.8(35) . . .
32.2(31) . . .
36.7(32) . . .
36.2(31) . . .
42.3(34) . . .
37.8(33) . . .
44(4) . . .
38.9(32) . . .
38.1(33) . . .
38.3(32) . . .
42(4) . . .
35.7(32) . . .
38.5(32) . . .
47(4) . . .
40.3(34) . . .
31.8(31) . . .
29.8(29) . . .
38.2(33) . . .
44.0(34) . . .
40.4(35) . . .
43(4) . . .
45(4) . . .
43(4) . . .
48(4) . . .
46(4) . . .
42(4) . . .
45(4) . . .
34.0(32) . . .
38.0(33) . . .
35.5(32) . . .
35.1(33) . . .
39.1(33) . . .
35.3(31) . . .
40.3(34) . . .
30.8(30) . . .
34.3(32) . . .
43.3(34) . . .
38.9(32) . . .
34.2(30) . . .
43.3(35) . . .
53(4) . . .
39.7(34) . . .
40.7(33) . . .
39.0(33) . . .
49(4) . . .
47(4) . . .
43.1(35) . . .
46.3(35) . . .
40.8(33) . . .
40.5(34) . . .
37.6(33) . . .
45(4) . . .
31.3(29) . . .
43(4) . . .
35.3(32) . . .
29.2(29) . . .
38.5(33) . . .
33.5(31) . . .
44.0(35) . . .
52(4) . . .
40.2(34) . . .
39.8(34) . . .
25.7(27) . . .
42.7(34) . . .
43(4) . . .
42(4) . . .
37.8(34) . . .
41.6(33) . . .
41(4) . . .
41(4) . . .
41.1(34) . . .
34.6(32) . . .
43.1(34) . . .
44(4) . . .
30.5(30) . . .
38.2(33) . . .
42.9(34) . . .
40.2(33) . . .
43.1(35) . . .
46(4) . . .
37.4(33) . . .
41.9(34) . . .
30.6(28) . . .
46(4) . . .
48(4) . . .
39(4) . . .
40.7(34) . . .
41.4(33) . . .
44(4) . . .
37.7(34) . . .
39.5(34) . . .
44.2(35) . . .
41.2(34) . . .
32.6(29) . . .
34.5(32) . . .
41.2(35) . . .
45(4) . . .
50(4) . . .
49(4) . . .
32.4(30) . . .
43(4) . . .
40.8(33) . . .
41.7(34) . . .
35.0(31) . . .
39.7(35) . . .
42(4) . . .
48(4) . . .
50(4) . . .
41(4) . . .
39.3(32) . . .
36.6(31) . . .
37.3(33) . . .
35.5(33) . . .
34.5(32) . . .
43(4) . . .
30.8(30) . . .
31.6(29) . . .
37.2(33) . . .
35.8(33) . . .
41.6(34) . . .
42.3(34) . . .
38.6(33) . . .
40.9(34) . . .
36.8(33) . . .
45(4) . . .
41.3(34) . . .
38.8(32) . . .
42(4) . . .
41(4) . . .
41.0(35) . . .
34.8(31) . . .
44(4) . . .
36.7(33) . . .
36.7(34) . . .
33.9(32) . . .
46(4) . . .
38.0(32) . . .
41.6(34) . . .
45(4) . . .
49(4) . . .
31.8(29) . . .
39.5(32) . . .
48(4) . . .
45(4) . . .
45(4) . . .
33.7(30) . . .
38.1(32) . . .
44(4) . . .
42(4) . . .
43(4) . . .
41.0(33) . . .
37.4(32) . . .
33.4(30) . . .
38.5(34) . . .
35.0(31) . . .
46(4) . . .
47(4) . . .
48(4) . . .
43.4(35) . . .
42(4) . . .
41.8(33) . . .
32.0(31) . . .
34.8(31) . . .
38.0(33) . . .
35.6(32) . . .
38.3(32) . . .
42.2(35) . . .
33.7(32) . . .
35.3(31) . . .
40.0(34) . . .
43.3(34) . . .
45(4) . . .
47(4) . . .
46(4) . . .
41.0(33) . . .
34.1(31) . . .
29.6(29) . . .
46(4) . . .
42(4) . . .
33.3(30) . . .
39.3(33) . . .
50(4) . . .
39.3(34) . . .
38.0(33) . . .
45(4) . . .
43.5(34) . . .
46(4) . . .
47(4) . . .
40.8(33) . . .
40.8(33) . . .
35.5(31) . . .
37.6(33) . . .
38.3(34) . . .
39.4(34) . . .
33.9(30) . . .
44.7(35) . . .
44(4) . . .
36.7(33) . . .
41(4) . . .
44.0(35) . . .
39.5(33) . . .
42(4) . . .
34.6(32) . . .
40(4) . . .
37.2(31) . . .
48(4) . . .
45(4) . . .
37.7(32) . . .
44.4(35) . . .
35.3(31) . . .
40.5(33) . . .
34.0(32) . . .
41(4) . . .
40.1(34) . . .
51(4) . . .
36.3(32) . . .
50(4) . . .
41(4) . . .
35.4(31) . . .
41.6(33) . . .
47(4) . . .
34.5(31) . . .
33.9(31) . . .
30.8(29) . . .
37.8(33) . . .
42(4) . . .
42(4) . . .
39(4) . . .
42.1(34) . . .
34.9(31) . . .
36.1(32) . . .
36.3(35) . . .
40(4) . . .
34.4(31) . . .
38.2(32) . . .
49(4) . . .
30.0(30) . . .
40(4) . . .
32.2(30) . . .
45(4) . . .
36.7(32) . . .
33.8(32) . . .
44(4) . . .
40.2(33) . . .
45(4) . . .
37.1(35) . . .
36.1(34) . . .
46(4) . . .
47(4) . . .
43.8(35) . . .
43(4) . . .
40.4(35) . . .
31.4(29) . . .
38.0(32) . . .
43.9(35) . . .
39.4(34) . . .
38.8(33) . . .
48(4) . . .
42.2(34) . . .
42.3(35) . . .
42.0(33) . . .
45(4) . . .
42(4) . . .
37.5(33) . . .
38.2(32) . . .
46(4) . . .
41.8(34) . . .
44(4) . . .
33.3(30) . . .
45(4) . . .
42.0(35) . . .
34.0(30) . . .
35.6(32) . . .
39.5(32) . . .
33.5(31) . . .
41(4) . . .
37.7(32) . . .
41.3(34) . . .
35.0(30) . . .
34.4(31) . . .
44(4) . . .
38.4(33) . . .
33.0(31) . . .
48(4) . . .
44(4) . . .
45(4) . . .
44(4) . . .
45(4) . . .
44.7(35) . . .
45(4) . . .
39(4) . . .
43(4) . . .
30.6(29) . . .
33.0(30) . . .
38.3(34) . . .
36.8(34) . . .
37.8(32) . . .
41.5(33) . . .
39.5(34) . . .
38.4(35) . . .
46(4) . . .
38.9(34) . . .
33.8(31) . . .
33.5(31) . . .
43(4) . . .
39.4(34) . . .
44(4) . . .
44.4(34) . . .
41.2(33) . . .
42.7(35) . . .
40.6(34) . . .
36.0(32) . . .
40.8(33) . . .
39.1(33) . . .
42(4) . . .
48(4) . . .
42.1(34) . . .
39.6(33) . . .
36.6(32) . . .
36.1(33) . . .
32.0(30) . . .
31.6(30) . . .
39.3(33) . . .
38(4) . . .
44(4) . . .
39.8(34) . . .
42.8(34) . . .
51(4) . . .
39.2(33) . . .
40.5(35) . . .
55(4) . . .
38.0(32) . . .
30.7(29) . . .
48(4) . . .
38.1(34) . . .
37.4(35) . . .
28.4(28) . . .
36.1(31) . . .
44(4) . . .
42(4) . . .
33.3(31) . . .
29.8(28) . . .
35.9(32) . . .
33.5(31) . . .
43(4) . . .
38.9(33) . . .
35.3(30) . . .
40.1(33) . . .
35.0(31) . . .
46(4) . . .
36.2(33) . . .
37.0(31) . . .
42.6(35) . . .
40.0(33) . . .
40(4) . . .
41.9(34) . . .
37.6(32) . . .
38.7(32) . . .
40.0(35) . . .
40(4) . . .
42(4) . . .
30.4(29) . . .
41.1(34) . . .
43(4) . . .
44(4) . . .
46(4) . . .
42.6(34) . . .
40.4(33) . . .
44(4) . . .
48(4) . . .
52(4) . . .
37.5(32) . . .
43(4) . . .
37.8(34) . . .
34.3(32) . . .
35.0(31) . . .
37.8(32) . . .
41(4) . . .
36.3(33) . . .
45(4) . . .
48(4) . . .
40.6(33) . . .
37.0(31) . . .
42(4) . . .
36.1(31) . . .
43.6(34) . . .
41.3(34) . . .
51(4) . . .
41(4) . . .
31.7(29) . . .
41.9(34) . . .
42.4(34) . . .
41.1(35) . . .
46(4) . . .
38.0(32) . . .
46(4) . . .
30.5(29) . . .
40.2(33) . . .
37.0(30) . . .
41.6(35) . . .
30.9(30) . . .
46(4) . . .
50(4) . . .
41(4) . . .
37.7(33) . . .
49(4) . . .
34.1(31) . . .
40.7(35) . . .
37.3(32) . . .
43.7(35) . . .
39.1(32) . . .
34.5(31) . . .
32.3(30) . . .
41(4) . . .
28.9(29) . . .
37.5(32) . . .
45(4) . . .
42.1(34) . . .
40.2(34) . . .
44.2(35) . . .
46(4) . . .
33.3(31) . . .
44(4) . . .
31.6(31) . . .
39.2(33) . . .
33.5(31) . . .
42.9(34) . . .
45(4) . . .
36.2(32) . . .
32.6(30) . . .
40.3(33) . . .
50(4) . . .
38.3(34) . . .
38.0(34) . . .
36.7(31) . . .
35.5(31) . . .
34.8(31) . . .
39(4) . . .
30.1(31) . . .
37.4(32) . . .
31.1(30) . . .
41.3(34) . . .
33.6(31) . . .
35.1(32) . . .
34.0(31) . . .
38.3(32) . . .
33.7(30) . . .
37.5(33) . . .
38.6(33) . . .
37.2(31) . . .
42.2(34) . . .
41(4) . . .
39(4) . . .
37.1(33) . . .
39.0(32) . . .
37.4(33) . . .
35.3(33) . . .
38(4) . . .
36.6(32) . . .
39.5(32) . . .
45(4) . . .
36.0(32) . . .
42(4) . . .
33.5(30) . . .
38.4(32) . . .
42.4(35) . . .
40.7(35) . . .
38.3(33) . . .
33.6(30) . . .
39.1(33) . . .
50(4) . . .
41.2(34) . . .
44(4) . . .
37.6(32) . . .
29.7(28) . . .
39.3(35) . . .
27.1(27) . . .
35.4(32) . . .
47(4) . . .
45.1(35) . . .
40.6(35) . . .
40(4) . . .
45(4) . . .
38.8(33) . . .
34.7(31) . . .
43(4) . . .
36.4(34) . . .
40.2(32) . . .
41.5(33) . . .
34.3(30) . . .
43(4) . . .
35.3(33) . . .
32.8(31) . . .
32.6(29) . . .
34.5(31) . . .
36.9(31) . . .
42(4) . . .
36.0(32) . . .
40.5(33) . . .
37.6(32) . . .
48(4) . . .
47(4) . . .
45(4) . . .
40.9(33) . . .
36.8(32) . . .
48(4) . . .
37.0(34) . . .
37.5(33) . . .
40.3(33) . . .
45(4) . . .
36.6(32) . . .
37.0(34) . . .
32.5(30) . . .
41.0(33) . . .
35.4(31) . . .
27.2(27) . . .
37.5(35) . . .
39.6(33) . . .
37.6(32) . . .
45(4) . . .
35.7(30) . . .
47(4) . . .
34.2(31) . . .
39.4(33) . . .
29.1(28) . . .
46(4) . . .
35.1(32) . . .
38.5(33) . . .
38.3(33) . . .
39.5(33) . . .
41(4) . . .
32.0(32) . . .
36.7(32) . . .
29.0(28) . . .
38.6(34) . . .
42(4) . . .
40.1(34) . . .
40.6(34) . . .
37.2(32) . . .
44(4) . . .
40.3(35) . . .
42.3(35) . . .
36.1(31) . . .
40.7(34) . . .
34.8(32) . . .
46(4) . . .
40.3(35) . . .
36.7(31) . . .
37.5(34) . . .
40(4) . . .
36.8(33) . . .
42(4) . . .
35.5(31) . . .
27.8(27) . . .
48(4) . . .
36.2(31) . . .
47(4) . . .
34.3(31) . . .
36.3(31) . . .
48(4) . . .
42(4) . . .
39.6(34) . . .
46(4) . . .
34.1(30) . . .
41.2(35) . . .
31.4(30) . . .
35.4(33) . . .
25.9(27) . . .
39.0(33) . . .
37.4(32) . . .
39.4(34) . . .
46(4) . . .
32.3(29) . . .
38.6(33) . . .
45(4) . . .
37.3(34) . . .
31.7(30) . . .
42.0(34) . . .
44(4) . . .
42(4) . . .
33.5(31) . . .
39.5(33) . . .
41.0(33) . . .
37.6(33) . . .
47(4) . . .
33.7(31) . . .
43.5(34) . . .
31.8(29) . . .
33.4(31) . . .
41.0(34) . . .
37.9(31) . . .
37.2(31) . . .
40.8(34) . . .
34.5(30) . . .
45(4) . . .
31.2(28) . . .
39.2(32) . . .
35.1(31) . . .
34.5(32) . . .
35.6(32) . . .
40.8(34) . . .
41.2(33) . . .
40.1(33) . . .
32.6(29) . . .
46(4) . . .
38.6(34) . . .
42.9(34) . . .
40.6(33) . . .
42(4) . . .
46(4) . . .
45(4) . . .
39.8(34) . . .
37.8(32) . . .
42(4) . . .
38.5(33) . . .
42(4) . . .
36.5(32) . . .
35.5(31) . . .
38.1(33) . . .
45(4) . . .
45(4) . . .
41.0(33) . . .
31.8(30) . . .
42(4) . . .
38.1(33) . . .
32.0(30) . . .
35.5(31) . . .
33.6(33) . . .
33.1(30) . . .
33.7(31) . . .
36.9(32) . . .
40.0(33) . . .
42(4) . . .
41(4) . . .
40.5(33) . . .
35.7(31) . . .
34.7(31) . . .
38.0(34) . . .
44(4) . . .
38.0(35) . . .
43.2(35) . . .
33.9(30) . . .
34.2(31) . . .
40(4) . . .
36.5(32) . . .
40.0(33) . . .
31.8(29) . . .
29.5(28) . . .
40(4) . . .
45(4) . . .
44.7(34) . . .
41.8(34) . . .
41(4) . . .
39(4) . . .
38.5(34) . . .
39.1(32) . . .
28.9(28) . . .
35.3(33) . . .
37.9(34) . . .
33.8(32) . . .
42.4(34) . . .
30.3(30) . . .
43(4) . . .
33.4(31) . . .
35.8(31) . . .
33.7(31) . . .
39.2(33) . . .
36.9(34) . . .
39.8(33) . . .
38.5(33) . . .
38.5(32) . . .
39.7(33) . . .
39.9(34) . . .
43.2(35) . . .
42.6(34) . . .
48(4) . . .
42.2(35) . . .
42(4) . . .
45(4) . . .
29.2(28) . . .
26.7(27) . . .
30.0(29) . . .
42(4) . . .
37.0(32) . . .
33.4(30) . . .
39.9(33) . . .
37.2(32) . . .
30.8(31) . . .
39(4) . . .
48(4) . . .
44.2(35) . . .
42(4) . . .
43(4) . . .
34.6(31) . . .
42.4(34) . . .
43.2(35) . . .
38.1(33) . . .
35.3(32) . . .
46(4) . . .
44.0(34) . . .
31.5(29) . . .
35.5(33) . . .
39.4(34) . . .
48(4) . . .
35.7(31) . . .
44(4) . . .
43.0(35) . . .
37.8(34) . . .
30.9(29) . . .
41.7(33) . . .
47(4) . . .
41.7(34) . . .
43(4) . . .
46(4) . . .
31.3(29) . . .
38.6(33) . . .
36.0(33) . . .
35.8(33) . . .
41.1(34) . . .
35.1(31) . . .
39.3(34) . . .
40(4) . . .
48(4) . . .
35.1(31) . . .
34.8(31) . . .
39.8(33) . . .
40.0(34) . . .
42.9(35) . . .
38.2(32) . . .
28.4(28) . . .
44(4) . . .
45(4) . . .
35.8(31) . . .
40.5(34) . . .
43.2(34) . . .
39.2(33) . . .
42.9(35) . . .
38.2(34) . . .
41.2(34) . . .
32.7(30) . . .
47(4) . . .
36.6(33) . . .
37.4(33) . . .
44(4) . . .
37.8(31) . . .
40.4(34) . . .
44(4) . . .
47(4) . . .
42.2(34) . . .
40.0(33) . . .
51(4) . . .
39.5(35) . . .
33.6(31) . . .
43.1(34) . . .
42.8(34) . . .
37.2(33) . . .
36.0(31) . . .
41.8(35) . . .
34.4(31) . . .
31.7(30) . . .
37.9(34) . . .
39(4) . . .
37.9(33) . . .
31.7(30) . . .
41.6(34) . . .
36.5(33) . . .
32.6(31) . . .
32.2(30) . . .
34.6(31) . . .
36.5(31) . . .
40.8(35) . . .
31.4(29) . . .
34.3(32) . . .
41.0(33) . . .
40.1(33) . . .
48(4) . . .
35.2(31) . . .
31.8(29) . . .
38.7(33) . . .
43(4) . . .
34.1(31) . . .
41.7(35) . . .
33.7(31) . . .
40.2(33) . . .
44(4) . . .
48(4) . . .
37.4(34) . . .
39.6(33) . . .
44.5(35) . . .
37.3(33) . . .
42.3(35) . . .
41(4) . . .
40.5(34) . . .
36.3(31) . . .
40.4(34) . . .
36.3(34) . . .
34.2(30) . . .
36.7(32) . . .
36.7(32) . . .
31.3(30) . . .
36.4(34) . . .
41.8(35) . . .
36.0(31) . . .
39.0(33) . . .
51(4) . . .
47(4) . . .
34.8(31) . . .
34.9(30) . . .
44(4) . . .
36.0(33) . . .
42(4) . . .
41.5(34) . . .
40.5(33) . . .
28.0(28) . . .
34.1(32) . . .
32.8(31) . . .
41(4) . . .
38.2(32) . . .
36.2(33) . . .
37.2(34) . . .
27.3(27) . . .
35.3(32) . . .
39.6(32) . . .
41(4) . . .
41.0(35) . . .
38.8(32) . . .
38.1(32) . . .
42.8(35) . . .
53(4) . . .
41.0(35) . . .
42.0(35) . . .
46(4) . . .
32.7(30) . . .
36(4) . . .
41(4) . . .
40(4) . . .
34.1(31) . . .
39.4(32) . . .
38.7(34) . . .
41(4) . . .
39.2(34) . . .
45(4) . . .
29.7(29) . . .
34.9(31) . . .
32.8(32) . . .
39.6(33) . . .
31.8(29) . . .
36.1(31) . . .
36.2(32) . . .
38.1(34) . . .
38(4) . . .
35.8(31) . . .
36.2(31) . . .
40.8(34) . . .
45(4) . . .
45(4) . . .
36.8(31) . . .
40.0(33) . . .
43(4) . . .
43(4) . . .
44(4) . . .
18.9(23) . . .
30.1(29) . . .
31.6(30) . . .
38.1(35) . . .
37.2(32) . . .
35.0(31) . . .
37.7(33) . . .
48(4) . . .
42.0(35) . . .
38.2(35) . . .
41.3(34) . . .
37.0(34) . . .
32.3(31) . . .
34.9(31) . . .
32.2(29) . . .
32.5(30) . . .
38.3(35) . . .
37.0(34) . . .
42(4) . . .
34.5(32) . . .
35.2(31) . . .
35.4(33) . . .
41(4) . . .
35.6(31) . . .
41.8(34) . . .
42.2(33) . . .
28.9(28) . . .
46(4) . . .
40.4(34) . . .
44(4) . . .
38.1(33) . . .
36.0(31) . . .
38(4) . . .
32.7(32) . . .
44.7(35) . . .
43(4) . . .
48(4) . . .
44(4) . . .
36.3(32) . . .
34.5(31) . . .
40.0(33) . . .
28.9(28) . . .
45(4) . . .
41(4) . . .
36.1(31) . . .
28.6(29) . . .
50(4) . . .
39.4(34) . . .
39.6(35) . . .
40.2(33) . . .
40.9(34) . . .
40.4(34) . . .
34.7(31) . . .
42.1(35) . . .
46(4) . . .
42.9(34) . . .
39.7(34) . . .
39(4) . . .
41.5(34) . . .
43.1(34) . . .
29.6(30) . . .
31.0(30) . . .
39.7(34) . . .
44.0(35) . . .
45.4(35) . . .
43(4) . . .
42.2(35) . . .
34.9(31) . . .
32.2(29) . . .
38.4(32) . . .
45(4) . . .
46(4) . . .
39.6(35) . . .
36.8(33) . . .
29.5(28) . . .
41(4) . . .
37.0(33) . . .
41.1(34) . . .
29.9(28) . . .
33.9(30) . . .
35.8(33) . . .
36.8(34) . . .
41.4(35) . . .
33.7(30) . . .
33.0(30) . . .
39.1(34) . . .
36.8(33) . . .
31.9(29) . . .
34.1(31) . . .
31.5(29) . . .
34.2(32) . . .
34.3(31) . . .
37.4(32) . . .
44.8(35) . . .
40.1(35) . . .
44(4) . . .
30.6(29) . . .
36.3(32) . . .
36.0(32) . . .
50(4) . . .
41.6(34) . . .
42(4) . . .
37.1(34) . . .
36.7(32) . . .
35.9(31) . . .
34.3(32) . . .
39(4) . . .
33.8(32) . . .
44(4) . . .
38.9(34) . . .
31.1(29) . . .
32.7(30) . . .
40.3(34) . . .
41.8(34) . . .
35.3(34) . . .
31.4(29) . . .
41.1(34) . . .
34.2(31) . . .
35.5(31) . . .
40.8(35) . . .
32.0(30) . . .
47(4) . . .
33.0(31) . . .
32.5(29) . . .
28.5(30) . . .
35.9(34) . . .
40.9(35) . . .
35.1(31) . . .
33.9(30) . . .
36.3(32) . . .
37.2(34) . . .
42(4) . . .
34.5(31) . . .
39.9(33) . . .
38.4(33) . . .
37.7(32) . . .
43.3(34) . . .
46(4) . . .
45.0(35) . . .
35.0(31) . . .
33.4(33) . . .
32.4(30) . . .
48(4) . . .
41.2(33) . . .
41(4) . . .
31.3(30) . . .
42(4) . . .
33.2(30) . . .
39.3(33) . . .
52(4) . . .
42.6(34) . . .
50(4) . . .
38.5(32) . . .
33.4(31) . . .
36.7(34) . . .
36(4) . . .
38.2(34) . . .
38.9(33) . . .
39.1(34) . . .
45(4) . . .
32.3(32) . . .
33.0(30) . . .
30.4(29) . . .
34.2(32) . . .
30.1(28) . . .
39.4(35) . . .
37.8(32) . . .
37.8(32) . . .
35.4(33) . . .
37.5(34) . . .
34.6(32) . . .
42.2(35) . . .
36.8(32) . . .
41.5(35) . . .
38(4) . . .
38.1(35) . . .
27.0(27) . . .
29.9(28) . . .
45(4) . . .
40(4) . . .
37.3(33) . . .
47(4) . . .
34.0(30) . . .
34.3(31) . . .
38(4) . . .
38.7(33) . . .
42.5(34) . . .
38.6(34) . . .
43(4) . . .
33.3(33) . . .
39(4) . . .
36.1(31) . . .
43.3(34) . . .
37.6(33) . . .
30.9(30) . . .
34.0(30) . . .
29.5(28) . . .
36.7(33) . . .
35.9(32) . . .
30.7(30) . . .
35.2(32) . . .
37.5(32) . . .
34.9(32) . . .
32.2(30) . . .
38.5(33) . . .
48(4) . . .
29.4(29) . . .
36.2(32) . . .
35.6(33) . . .
38.0(35) . . .
34.6(32) . . .
32.7(30) . . .
32.4(32) . . .
42(4) . . .
42(4) . . .
38.0(32) . . .
43.6(34) . . .
37.5(32) . . .
34.4(32) . . .
36.8(33) . . .
37.5(33) . . .
27.5(27) . . .
44(4) . . .
44(4) . . .
39.7(34) . . .
37.9(32) . . .
31.9(29) . . .
30.9(30) . . .
30.0(30) . . .
35.1(32) . . .
40.8(33) . . .
35.1(31) . . .
37.2(34) . . .
34.5(33) . . .
43(4) . . .
37.3(31) . . .
32.2(29) . . .
38.3(32) . . .
36.0(33) . . .
42(4) . . .
42.2(34) . . .
40.4(33) . . .
33.9(31) . . .
35.5(33) . . .
35.7(31) . . .
41.7(34) . . .
38.6(33) . . .
38.0(34) . . .
26.1(28) . . .
36.5(35) . . .
34.4(31) . . .
32.5(30) . . .
39.9(34) . . .
34.2(31) . . .
36.4(32) . . .
38.7(33) . . .
36.3(33) . . .
34.1(30) . . .
37.9(34) . . .
39.9(33) . . .
38.9(32) . . .
40(4) . . .
43(4) . . .
33.6(31) . . .
42.6(35) . . .
45.4(35) . . .
32.1(31) . . .
43(4) . . .
42.4(34) . . .
40.9(33) . . .
38.0(32) . . .
33.6(31) . . .
26.4(28) . . .
30.5(30) . . .
32.0(29) . . .
36.5(31) . . .
33.2(31) . . .
30.3(28) . . .
32.9(30) . . .
35.2(31) . . .
35.4(31) . . .
36.4(31) . . .
31.6(31) . . .
29.9(29) . . .
38.4(33) . . .
41.4(34) . . .
32.3(30) . . .
28.7(34) . . .
36.3(33) . . .
42.3(34) . . .
36.9(32) . . .
40.6(35) . . .
44(4) . . .
47(4) . . .
33.5(30) . . .
37.9(32) . . .
30.0(30) . . .
38(4) . . .
36.0(32) . . .
35.9(31) . . .
34.9(32) . . .
36.0(33) . . .
31.3(29) . . .
33.5(31) . . .
31.1(29) . . .
36.5(31) . . .
42.1(35) . . .
40.5(34) . . .
32.3(30) . . .
34.0(30) . . .
40.0(33) . . .
44(4) . . .
44(4) . . .
46(4) . . .
34.4(31) . . .
32.8(31) . . .
41(4) . . .
39.3(35) . . .
37.0(32) . . .
32.4(31) . . .
28.8(29) . . .
28.7(28) . . .
33.8(31) . . .
45.3(35) . . .
37.9(32) . . .
27.7(27) . . .
29.5(30) . . .
35.3(32) . . .
38.3(34) . . .
35.2(31) . . .
34.7(31) . . .
34.3(32) . . .
34.6(30) . . .
42.7(34) . . .
41.0(34) . . .
40.0(33) . . .
35.8(33) . . .
31.8(29) . . .
31.5(29) . . .
30.4(29) . . .
34.4(32) . . .
28.3(30) . . .
30.1(30) . . .
39.3(32) . . .
34.7(32) . . .
28.9(29) . . .
41(4) . . .
35.5(33) . . .
38.2(32) . . .
35.2(31) . . .
33.5(31) . . .
42.6(35) . . .
37.2(32) . . .
28.3(28) . . .
32.1(31) . . .
39.1(34) . . .
36.1(32) . . .
38.7(34) . . .
41.2(34) . . .
36.0(32) . . .
38.4(32) . . .
29.6(29) . . .
27.9(30) . . .
39.4(32) . . .
34.1(31) . . .
39.8(34) . . .
32.3(30) . . .
33.1(31) . . .
30.3(29) . . .
34.7(31) . . .
43(4) . . .
40(4) . . .
35.5(32) . . .
40.9(33) . . .
39.1(33) . . .
41(4) . . .
40.0(34) . . .
43.8(34) . . .
39.4(33) . . .
35.5(32) . . .
42(4) . . .
33.7(30) . . .
34.3(31) . . .
40.5(33) . . .
36.4(31) . . .
35.9(32) . . .
41.8(34) . . .
37.4(32) . . .
32.0(29) . . .
36.7(32) . . .
35.4(33) . . .
44(4) . . .
44.0(35) . . .
40.3(35) . . .
35.8(31) . . .
34.4(31) . . .
36.3(32) . . .
35.5(31) . . .
35.4(31) . . .
28.1(27) . . .
42(4) . . .
42.1(34) . . .
42.6(34) . . .
33.5(30) . . .
41(4) . . .
32.5(31) . . .
30.7(31) . . .
39.7(33) . . .
30.9(30) . . .
34.5(33) . . .
33.5(31) . . .
41(4) . . .
34.3(31) . . .
35.3(33) . . .
30.0(31) . . .
25.3(27) . . .
43(4) . . .
34.6(31) . . .
36.8(34) . . .
31.6(31) . . .
37.7(34) . . .
40.5(33) . . .
33.0(30) . . .
34.9(32) . . .
40(4) . . .
34.3(32) . . .
38.5(32) . . .
36.7(32) . . .
38.8(34) . . .
43(4) . . .
38.0(35) . . .
30.1(29) . . .
36.8(31) . . .
29.6(29) . . .
41(4) . . .
39.7(34) . . .
37.3(32) . . .
40.0(33) . . .
41.0(34) . . .
38.0(35) . . .
37.8(33) . . .
30.4(28) . . .
32.5(30) . . .
36.4(32) . . .
38.3(33) . . .
42(4) . . .
38.0(32) . . .
34.0(31) . . .
42(4) . . .
33.6(31) . . .
43.2(35) . . .
28.0(29) . . .
36(4) . . .
33.0(31) . . .
34.8(32) . . .
31.1(29) . . .
34.5(31) . . .
40.2(34) . . .
39.0(33) . . .
38.2(33) . . .
32.8(30) . . .
30.1(29) . . .
42(4) . . .
39.2(35) . . .
34.7(31) . . .
30.8(29) . . .
46(4) . . .
36.2(33) . . .
34.8(32) . . .
37.8(33) . . .
34.3(30) . . .
35.0(31) . . .
32.0(29) . . .
30.7(30) . . .
36.9(33) . . .
32.4(30) . . .
34.8(31) . . .
41(4) . . .
32.6(32) . . .
28.8(29) . . .
34.5(30) . . .
28.5(28) . . .
30.8(31) . . .
37.3(35) . . .
41(4) . . .
34.8(31) . . .
37.2(32) . . .
34.3(31) . . .
39(4) . . .
39.1(33) . . .
33.2(30) . . .
30.6(29) . . .
29.9(28) . . .
36.6(33) . . .
39.9(33) . . .
40.9(33) . . .
31.9(32) . . .
32.4(30) . . .
33.2(31) . . .
38.4(34) . . .
35.4(31) . . .
42.7(35) . . .
35.6(31) . . .
42.0(35) . . .
40.4(34) . . .
35.6(31) . . .
33.1(30) . . .
43(4) . . .
32.8(30) . . .
33.6(30) . . .
39.5(33) . . .
35.1(31) . . .
32.3(34) . . .
32.9(31) . . .
37.3(33) . . .
32.0(30) . . .
39.0(34) . . .
43(4) . . .
32.8(29) . . .
42.9(34) . . .
41.3(35) . . .
40.8(34) . . .
36.3(33) . . .
35.4(32) . . .
36.9(33) . . .
37.6(32) . . .
34.0(33) . . .
29.5(28) . . .
41(4) . . .
31.6(30) . . .
36.0(31) . . .
30.2(29) . . .
34.0(33) . . .
42(4) . . .
33.1(30) . . .
35.0(31) . . .
36.9(32) . . .
34.4(31) . . .
36.3(32) . . .
38.8(32) . . .
41.2(33) . . .
40.7(33) . . .
43(4) . . .
26.2(26) . . .
31.4(30) . . .
43.3(34) . . .
36.5(32) . . .
35.7(34) . . .
32.6(31) . . .
21.7(24) . . .
36.3(31) . . .
39.7(33) . . .
40.5(33) . . .
39.8(33) . . .
31.4(29) . . .
35.7(33) . . .
39.8(34) . . .
35.6(31) . . .
39.6(33) . . .
36.8(31) . . .
31.1(29) . . .
30.0(29) . . .
35.6(32) . . .
34.7(31) . . .
37.7(32) . . .
41.2(34) . . .
41.3(35) . . .
34.0(31) . . .
38.1(32) . . .
35.7(32) . . .
38.6(33) . . .
40(4) . . .
35.4(32) . . .
42.9(34) . . .
39.1(33) . . .
35.5(31) . . .
38.2(34) . . .
33.5(30) . . .
41.2(34) . . .
42.1(33) . . .
41(4) . . .
43(4) . . .
29.7(28) . . .
37.2(32) . . .
35.4(33) . . .
27.3(28) . . .
34.3(32) . . .
34.4(30) . . .
37.5(31) . . .
36.8(32) . . .
28.3(28) . . .
41(4) . . .
34.0(31) . . .
27.3(28) . . .
39.1(33) . . .
33.0(30) . . .
36.1(32) . . .
39.3(33) . . .
30.8(29) . . .
39.0(32) . . .
41(4) . . .
32.5(29) . . .
33.5(31) . . .
32.8(30) . . .
35.1(31) . . .
41.0(34) . . .
39.4(32) . . .
38.4(33) . . .
32.9(30) . . .
35.6(32) . . .
35.1(31) . . .
35.4(32) . . .
32.3(30) . . .
28.2(28) . . .
41.8(34) . . .
34.4(32) . . .
35.5(33) . . .
30.6(30) . . .
33.3(30) . . .
30.6(30) . . .
32.0(31) . . .
43(4) . . .
37.8(32) . . .
37.6(32) . . .
33.1(30) . . .
31.3(29) . . .
35.8(32) . . .
43.3(34) . . .
37.0(32) . . .
32.9(30) . . .
32.4(32) . . .
35.7(32) . . .
31.0(29) . . .
34.9(32) . . .
39.7(33) . . .
45(4) . . .
36.9(32) . . .
36.1(31) . . .
34.4(31) . . .
36.9(33) . . .
39.7(34) . . .
37.1(32) . . .
39.2(33) . . .
32.9(30) . . .
46(4) . . .
44(4) . . .
33.0(32) . . .
36.0(32) . . .
37.0(33) . . .
40(4) . . .
38(4) . . .
37.3(35) . . .
26.9(27) . . .
31.7(30) . . .
33.9(31) . . .
32.6(31) . . .
37.9(34) . . .
30.6(29) . . .
33.4(33) . . .
41(4) . . .
34.2(32) . . .
45(4) . . .
32.5(30) . . .
37.2(33) . . .
36.6(35) . . .
27.3(28) . . .
37.8(33) . . .
34.0(30) . . .
42.5(35) . . .
37.5(33) . . .
27.3(27) . . .
39.3(34) . . .
36.8(31) . . .
38.6(34) . . .
40.7(34) . . .
39.5(33) . . .
35.7(31) . . .
41.2(34) . . .
36.3(33) . . .
33.7(32) . . .
29.5(29) . . .
37.5(33) . . .
40.3(34) . . .
32.5(32) . . .
42.6(35) . . .
37.0(33) . . .
33.1(31) . . .
34.1(30) . . .
35.1(32) . . .
44(4) . . .
38.0(33) . . .
38.8(33) . . .
40.7(33) . . .
35.2(32) . . .
32.6(32) . . .
36.6(32) . . .
30.1(29) . . .
33.7(30) . . .
23.5(25) . . .
41(4) . . .
31.5(30) . . .
24.4(26) . . .
31.8(30) . . .
31.8(31) . . .
36.1(32) . . .
35.7(32) . . .
35.9(32) . . .
40.7(34) . . .
35.8(33) . . .
35.8(33) . . .
39.0(33) . . .
40.3(33) . . .
32.1(30) . . .
31.6(32) . . .
35.5(33) . . .
42.1(34) . . .
32.9(30) . . .
44(4) . . .
29.6(28) . . .
37.2(34) . . .
30.1(29) . . .
32.0(29) . . .
34.2(32) . . .
36.3(35) . . .
34.9(32) . . .
33.3(30) . . .
34.0(31) . . .
39.8(35) . . .
36.1(33) . . .
35.1(31) . . .
39.4(33) . . .
40.2(33) . . .
34.5(32) . . .
45(4) . . .
35.1(32) . . .
26.2(27) . . .
35.2(31) . . .
42(4) . . .
33.5(31) . . .
40(4) . . .
29.1(29) . . .
39.9(33) . . .
32.6(30) . . .
42(4) . . .
35.6(31) . . .
36.5(32) . . .
38.7(32) . . .
43(4) . . .
42(4) . . .
32.7(31) . . .
33.7(31) . . .
39.0(33) . . .
29.8(28) . . .
36.4(34) . . .
41(4) . . .
36.5(32) . . .
36.5(31) . . .
34.3(30) . . .
39.2(34) . . .
36.3(33) . . .
37.6(32) . . .
48(4) . . .
28.1(27) . . .
39.2(35) . . .
31.9(30) . . .
37.0(32) . . .
37.1(33) . . .
36.9(32) . . .
34.6(31) . . .
27.2(28) . . .
30.9(29) . . .
41.4(34) . . .
36.2(33) . . .
28.5(30) . . .
29.0(29) . . .
39.6(33) . . .
35.2(33) . . .
34.8(33) . . .
29.3(29) . . .
43.4(35) . . .
34.6(31) . . .
37.5(33) . . .
44(4) . . .
38.8(33) . . .
38.1(34) . . .
23.8(25) . . .
35.0(34) . . .
38(4) . . .
41(4) . . .
37.2(32) . . .
37.2(32) . . .
38.6(33) . . .
37.9(35) . . .
37.4(31) . . .
35.5(31) . . .
41.8(34) . . .
37.5(32) . . .
30.9(29) . . .
41.1(34) . . .
36.3(31) . . .
29.7(28) . . .
36.9(34) . . .
39.6(35) . . .
28.7(28) . . .
31.6(29) . . .
39.5(33) . . .
25.9(25) . . .
36.8(33) . . .
39.3(34) . . .
39.8(33) . . .
29.5(29) . . .
33.7(32) . . .
44(4) . . .
34.7(32) . . .
38.0(32) . . .
33.3(31) . . .
28.0(29) . . .
33.1(30) . . .
40.2(33) . . .
39.1(33) . . .
35.1(32) . . .
32.4(33) . . .
39(4) . . .
34.8(31) . . .
37.9(32) . . .
29.7(29) . . .
36.3(32) . . .
36.9(31) . . .
40.3(33) . . .
40.0(32) . . .
35.1(31) . . .
35.2(33) . . .
32.9(32) . . .
34.3(31) . . .
35.2(31) . . .
41.3(34) . . .
37.5(32) . . .
41(4) . . .
37.3(32) . . .
39.8(33) . . .
36.5(31) . . .
35.0(32) . . .
35.0(32) . . .
37.5(32) . . .
44(4) . . .
33.1(31) . . .
36.9(34) . . .
40.8(34) . . .
37.6(32) . . .
41.7(34) . . .
35.9(34) . . .
30.9(31) . . .
33.5(34) . . .
25.0(26) . . .
29.3(29) . . .
37.3(33) . . .
41.0(34) . . .
34.4(31) . . .
41.9(34) . . .
33.9(30) . . .
29.9(29) . . .
32.8(32) . . .
34.1(31) . . .
39.6(33) . . .
38.4(33) . . .
37.0(31) . . .
30.1(29) . . .
32.8(32) . . .
41.2(34) . . .
31.2(29) . . .
35.6(31) . . .
35.6(34) . . .
31.6(30) . . .
33.4(30) . . .
36.6(31) . . .
39.1(34) . . .
29.5(28) . . .
40.0(33) . . .
36.8(32) . . .
34.3(33) . . .
39(4) . . .
36.7(32) . . .
41.9(34) . . .
37.3(32) . . .
30.1(31) . . .
46(4) . . .
39.0(33) . . .
35.7(31) . . .
30.9(29) . . .
35.7(32) . . .
30.6(31) . . .
36.2(33) . . .
39.5(32) . . .
33.4(30) . . .
35.0(33) . . .
41(4) . . .
35.3(32) . . .
33.1(31) . . .
41.5(33) . . .
47(4) . . .
30.6(29) . . .
34.4(30) . . .
40.5(33) . . .
34.6(31) . . .
35.7(32) . . .
32.0(29) . . .
40.5(33) . . .
33.1(30) . . .
39.2(33) . . .
34.3(31) . . .
34.6(31) . . .
38.2(33) . . .
30.0(29) . . .
32.8(30) . . .
31.3(33) . . .
32.5(32) . . .
26.3(26) . . .
29.3(29) . . .
34.3(31) . . .
37.8(34) . . .
37.3(33) . . .
31.6(29) . . .
31.0(29) . . .
35.0(34) . . .
37(4) . . .
35.0(33) . . .
29.0(28) . . .
43.3(34) . . .
34.4(31) . . .
40(4) . . .
32.9(30) . . .
37.3(32) . . .
41.5(34) . . .
34.8(32) . . .
31.7(32) . . .
33.4(33) . . .
36.6(33) . . .
39.0(32) . . .
39.8(35) . . .
36.2(34) . . .
39.1(32) . . .
32.7(30) . . .
30.3(30) . . .
38.8(33) . . .
34.3(31) . . .
41.4(35) . . .
38.2(32) . . .
30.4(30) . . .
31.2(30) . . .
42(4) . . .
34.9(31) . . .
32.2(30) . . .
36.9(32) . . .
35.3(31) . . .
40.0(34) . . .
30.2(29) . . .
30.5(28) . . .
41(4) . . .
34.5(31) . . .
32.6(33) . . .
34.7(32) . . .
28.7(28) . . .
37.2(33) . . .
34.0(31) . . .
33.4(31) . . .
37.6(34) . . .
34.4(31) . . .
35.0(31) . . .
34.9(33) . . .
36.1(33) . . .
36.3(32) . . .
31.8(29) . . .
41(4) . . .
30.4(30) . . .
30.9(30) . . .
30.8(29) . . .
25.8(27) . . .
34.0(32) . . .
31.1(32) . . .
29.4(29) . . .
37.2(32) . . .
24.8(26) . . .
29.1(30) . . .
36.0(34) . . .
28.3(29) . . .
43(4) . . .
41.1(34) . . .
38.6(32) . . .
36.8(33) . . .
35.0(32) . . .
38.3(34) . . .
28.1(27) . . .
31.0(29) . . .
34.2(33) . . .
41.2(35) . . .
32.8(30) . . .
28.8(28) . . .
33.0(32) . . .
31.8(31) . . .
32.8(30) . . .
37.0(32) . . .
33.6(32) . . .
34.5(32) . . .
36.4(33) . . .
37.9(34) . . .
36.5(31) . . .
38.8(34) . . .
32.2(32) . . .
36.6(34) . . .
35.1(31) . . .
41.6(34) . . .
33.9(31) . . .
31.5(31) . . .
36.3(35) . . .
31.1(30) . . .
33.6(31) . . .
31.7(29) . . .
40.2(34) . . .
32.0(30) . . .
31.0(29) . . .
37.5(32) . . .
32.6(31) . . .
35.4(32) . . .
42(4) . . .
30.5(29) . . .
32.2(31) . . .
27.1(29) . . .
38(4) . . .
36.8(32) . . .
40.4(33) . . .
35.1(30) . . .
37.2(32) . . .
35.6(33) . . .
30.2(30) . . .
28.1(27) . . .
32.9(30) . . .
34.6(33) . . .
38(4) . . .
39.2(34) . . .
28.8(28) . . .
36.3(32) . . .
33.1(33) . . .
34.0(34) . . .
36.8(33) . . .
29.7(29) . . .
30.6(28) . . .
30.5(29) . . .
33.1(33) . . .
26.4(29) . . .
36.2(32) . . .
25.3(28) . . .
27.5(27) . . .
35.1(33) . . .
34.5(31) . . .
32.0(29) . . .
37.3(33) . . .
38.2(34) . . .
36.1(35) . . .
26.0(28) . . .
40.5(33) . . .
35.1(32) . . .
35.6(33) . . .
36.7(33) . . .
38.6(33) . . .
37.4(32) . . .
37.3(32) . . .
32.5(31) . . .
34.5(33) . . .
32.0(30) . . .
29.4(28) . . .
35.2(34) . . .
25.7(27) . . .
36.7(33) . . .
33.3(30) . . .
38.4(32) . . .
38.9(34) . . .
34.7(33) . . .
32.7(30) . . .
34.6(31) . . .
38.8(33) . . .
40(4) . . .
32.0(31) . . .
31.3(30) . . .
31.2(30) . . .
33.9(30) . . .
28.0(28) . . .
35.7(33) . . .
36.2(31) . . .
35.1(30) . . .
38.2(33) . . .
36.8(31) . . .
34.1(35) . . .
38.3(35) . . .
35.5(31) . . .
31.6(29) . . .
40.0(34) . . .
34.7(33) . . .
40.3(34) . . .
25.9(27) . . .
35.3(32) . . .
32.2(30) . . .
38(4) . . .
36.5(32) . . .
27.7(27) . . .
35.9(31) . . .
36.9(33) . . .
28.8(29) . . .
27.8(29) . . .
37.5(32) . . .
39.0(32) . . .
37.3(33) . . .
39(4) . . .
31.4(33) . . .
37.6(32) . . .
32.4(30) . . .
29.7(28) . . .
37.8(33) . . .
34.2(30) . . .
34.9(31) . . .
25.9(27) . . .
31.1(30) . . .
37.8(34) . . .
38.1(32) . . .
29.7(29) . . .
36.9(34) . . .
40(4) . . .
41.4(35) . . .
36.5(31) . . .
32.4(30) . . .
31(4) . . .
41(4) . . .
32.1(30) . . .
38.0(33) . . .
34.8(31) . . .
28.3(28) . . .
33.4(32) . . .
36.3(32) . . .
34.2(31) . . .
36.6(32) . . .
34.7(31) . . .
37.0(35) . . .
32.3(29) . . .
37.2(31) . . .
38.8(34) . . .
28.2(28) . . .
35.5(34) . . .
31.7(30) . . .
30.6(29) . . .
38.0(32) . . .
41(4) . . .
29.4(30) . . .
30.4(29) . . .
36.8(31) . . .
36.5(33) . . .
35.4(34) . . .
36.9(34) . . .
31.0(30) . . .
31.8(30) . . .
35.3(30) . . .
36.8(31) . . .
34.6(34) . . .
24.1(26) . . .
29.6(28) . . .
33.6(31) . . .
29.5(30) . . .
34.5(31) . . .
39.5(34) . . .
36.0(31) . . .
28.3(27) . . .
31.3(29) . . .
37.6(34) . . .
35.1(31) . . .
41.6(34) . . .
35.1(32) . . .
41(4) . . .
28.0(28) . . .
32.7(32) . . .
38.1(32) . . .
31.5(31) . . .
36.3(34) . . .
35.8(32) . . .
37.0(32) . . .
37.8(32) . . .
33.6(33) . . .
31.4(31) . . .
28.8(28) . . .
33.3(30) . . .
35.3(31) . . .
43(4) . . .
39.2(35) . . .
35.1(31) . . .
44.6(34) . . .
36.6(31) . . .
39.9(35) . . .
34.8(33) . . .
32.7(31) . . .
35.0(31) . . .
40.2(33) . . .
38(4) . . .
39.9(35) . . .
44(4) . . .
33.1(30) . . .
40.9(33) . . .
37.7(33) . . .
30.0(28) . . .
36.7(32) . . .
36.8(32) . . .
35.0(31) . . .
30.6(28) . . .
40.3(34) . . .
34.5(33) . . .
36.1(31) . . .
29.9(29) . . .
32.4(32) . . .
31.4(31) . . .
38.3(33) . . .
32.5(30) . . .
38.6(33) . . .
32.7(34) . . .
34.0(34) . . .
38.8(33) . . .
36.0(31) . . .
35.3(33) . . .
27.4(28) . . .
35.3(33) . . .
33.8(30) . . .
28.1(28) . . .
36.7(32) . . .
23.9(26) . . .
29.5(30) . . .
36.7(32) . . .
31.0(29) . . .
32.6(30) . . .
30.5(30) . . .
31.9(31) . . .
31.2(29) . . .
32.1(29) . . .
42.7(35) . . .
35.9(33) . . .
28.5(27) . . .
33.5(31) . . .
31.7(30) . . .
33.2(31) . . .
40(4) . . .
33.9(31) . . .
35.2(31) . . .
39.3(33) . . .
30.8(29) . . .
38(4) . . .
32.0(32) . . .
26.8(28) . . .
25.3(27) . . .
41(4) . . .
34.7(32) . . .
31.2(30) . . .
27.5(28) . . .
31.1(29) . . .
36.1(32) . . .
37.4(34) . . .
33.1(31) . . .
31.4(29) . . .
37.1(32) . . .
33.6(31) . . .
29.3(29) . . .
34.4(32) . . .
41.8(34) . . .
34.9(31) . . .
31.5(32) . . .
37.4(34) . . .
26.5(27) . . .
31.2(29) . . .
38.1(35) . . .
35.8(32) . . .
33.8(33) . . .
30.0(29) . . .
32.9(30) . . .
32.3(31) . . .
34.5(32) . . .
39.9(34) . . .
35.0(31) . . .
34.0(31) . . .
31.9(29) . . .
29.0(28) . . .
40(4) . . .
40.6(33) . . .
38.0(33) . . .
36.9(34) . . .
41(4) . . .
35.7(32) . . .
32.0(30) . . .
36.7(31) . . .
36.0(33) . . .
32.1(30) . . .
39.0(35) . . .
33.3(30) . . .
33.3(30) . . .
35.2(31) . . .
40(4) . . .
41.5(34) . . .
43.1(34) . . .
45(4) . . .
33.1(29) . . .
28.6(29) . . .
34.4(34) . . .
46(4) . . .
35.0(31) . . .
29.0(29) . . .
31.1(31) . . .
30.7(31) . . .
33.9(30) . . .
39.9(34) . . .
32.7(31) . . .
35.7(33) . . .
39.8(34) . . .
34.0(30) . . .
36.0(32) . . .
34.6(31) . . .
44(4) . . .
42.7(34) . . .
34.6(30) . . .
32.6(30) . . .
26.4(28) . . .
34.5(32) . . .
36.7(32) . . .
33.0(30) . . .
35.1(33) . . .
31.6(29) . . .
31.6(29) . . .
31.0(29) . . .
31.1(30) . . .
34.2(32) . . .
27.5(27) . . .
39(4) . . .
31.0(29) . . .
37.3(32) . . .
38.8(33) . . .
34.0(34) . . .
32.9(31) . . .
37.6(32) . . .
43.2(35) . . .
37.5(32) . . .
38.1(35) . . .
29.7(29) . . .
34.8(30) . . .
44.0(35) . . .
31.6(29) . . .
35.6(32) . . .
34.6(32) . . .
30.8(29) . . .
31.8(29) . . .
30.6(29) . . .
30.9(31) . . .
40(4) . . .
40.2(33) . . .
30.1(28) . . .
37.0(34) . . .
42(4) . . .
32.5(30) . . .
43.5(34) . . .
37.7(32) . . .
30.8(30) . . .
31.7(32) . . .
28.7(29) . . .
34.1(29) . . .
30.5(29) . . .
27.6(28) . . .
37.0(32) . . .
40(4) . . .
43.0(34) . . .
36.8(35) . . .
35.3(32) . . .
36.5(32) . . .
36.1(32) . . .
35.8(31) . . .
41(4) . . .
35.5(32) . . .
33.2(32) . . .
25.9(26) . . .
27.8(28) . . .
38.8(33) . . .
42(4) . . .
47(4) . . .
38.2(33) . . .
33.4(30) . . .
39.7(35) . . .
36.5(34) . . .
33.7(32) . . .
35.4(31) . . .
34.8(31) . . .
36.5(32) . . .
35.8(35) . . .
30.7(29) . . .
35.1(31) . . .
31.3(29) . . .
40.6(34) . . .
31.3(32) . . .
34.3(32) . . .
37.5(32) . . .
31.9(30) . . .
31.5(30) . . .
32.6(32) . . .
38.0(33) . . .
33.4(30) . . .
35.0(31) . . .
40.8(34) . . .
42(4) . . .
37.8(33) . . .
38.7(33) . . .
39.2(33) . . .
32.8(31) . . .
36.0(33) . . .
39.0(33) . . .
47(4) . . .
33.8(31) . . .
36.9(34) . . .
35.0(34) . . .
32.2(30) . . .
26.9(27) . . .
26.2(27) . . .
27.9(28) . . .
37.1(35) . . .
40(4) . . .
34.5(31) . . .
34.9(32) . . .
29.8(30) . . .
31.4(33) . . .
36.0(31) . . .
36.0(31) . . .
41.3(35) . . .
28.4(28) . . .
33.9(32) . . .
37.8(32) . . .
34.1(31) . . .
34.6(31) . . .
38.9(34) . . .
35.2(32) . . .
34.9(31) . . .
39.0(32) . . .
36.7(32) . . .
29.4(28) . . .
36.4(33) . . .
41.1(34) . . .
32.8(30) . . .
35.3(32) . . .
28.7(28) . . .
32.8(30) . . .
30.2(29) . . .
30.7(29) . . .
28.9(28) . . .
40.4(34) . . .
42.7(34) . . .
37.4(32) . . .
34.1(32) . . .
40(4) . . .
35.7(31) . . .
29.2(28) . . .
28.9(28) . . .
38.9(33) . . .
31.6(30) . . .
26.7(30) . . .
31.7(31) . . .
41.4(34) . . .
25.6(26) . . .
40.5(34) . . .
37.7(33) . . .
37.9(33) . . .
32.8(30) . . .
31.4(30) . . .
35.7(34) . . .
29.6(29) . . .
38.6(34) . . .
34.0(31) . . .
33.3(32) . . .
38.5(35) . . .
35.8(31) . . .
35.1(31) . . .
30.2(29) . . .
32.8(31) . . .
28.5(29) . . .
23.2(25) . . .
35.0(31) . . .
34.3(30) . . .
38.5(33) . . .
35.3(34) . . .
39(4) . . .
33.2(30) . . .
25.7(26) . . .
29.4(29) . . .
31.3(31) . . .
34.2(32) . . .
27.6(27) . . .
33.5(31) . . .
29.6(29) . . .
32.8(32) . . .
36.1(32) . . .
34.6(30) . . .
24.4(26) . . .
30.5(30) . . .
27.1(29) . . .
27.4(27) . . .
34.8(31) . . .
29.5(28) . . .
31.5(30) . . .
31.9(28) . . .
36.7(32) . . .
39.3(33) . . .
38.9(34) . . .
30.9(30) . . .
28.2(28) . . .
39(4) . . .
32.2(30) . . .
32.6(31) . . .
40.3(35) . . .
37.0(33) . . .
39.3(33) . . .
36.0(31) . . .
30.9(31) . . .
27.4(28) . . .
39(4) . . .
30.7(29) . . .
35.7(31) . . .
34.5(31) . . .
42(4) . . .
35.6(32) . . .
32.0(31) . . .
34.0(30) . . .
31.7(29) . . .
35.8(34) . . .
42(4) . . .
32.4(29) . . .
40.3(33) . . .
32.3(30) . . .
35.1(33) . . .
26.5(27) . . .
32.4(30) . . .
30.7(29) . . .
33.8(31) . . .
42(4) . . .
36.4(33) . . .
39.0(32) . . .
33.9(30) . . .
36.0(31) . . .
28.2(28) . . .
38.1(33) . . .
36.7(32) . . .
28.9(28) . . .
34.7(33) . . .
23.0(24) . . .
33.8(31) . . .
32.6(30) . . .
33.8(31) . . .
33.0(30) . . .
35.7(33) . . .
30.2(30) . . .
40.7(33) . . .
32.2(30) . . .
24.1(27) . . .
34.7(33) . . .
37.8(33) . . .
33.5(30) . . .
38.0(33) . . .
40.0(34) . . .
34.8(30) . . .
32.2(30) . . .
27.5(28) . . .
25.8(27) . . .
29.0(29) . . .
34.3(31) . . .
37.6(33) . . .
29.7(29) . . .
34.3(34) . . .
31.3(29) . . .
33.0(30) . . .
27.0(27) . . .
29.8(29) . . .
31.9(29) . . .
38.5(34) . . .
38.0(33) . . .
38.3(32) . . .
34.8(31) . . .
30.5(30) . . .
25.8(27) . . .
28.3(31) . . .
28.9(30) . . .
35.3(31) . . .
31.5(31) . . .
25.9(29) . . .
31.5(30) . . .
35.5(31) . . .
32.8(30) . . .
38.2(33) . . .
34.3(31) . . .
36.4(32) . . .
35.5(31) . . .
30.8(29) . . .
39.3(33) . . .
38(4) . . .
39(4) . . .
34.0(31) . . .
51(4) . . .
34.9(33) . . .
28.6(30) . . .
29.3(29) . . .
29.0(29) . . .
25.8(27) . . .
35.6(32) . . .
33.0(32) . . .
29.6(29) . . .
25.1(26) . . .
32.7(30) . . .
33.1(30) . . .
37.8(35) . . .
29.9(29) . . .
38.2(32) . . .
33.6(31) . . .
28.6(30) . . .
40(4) . . .
40.1(34) . . .
30.1(29) . . .
28.1(29) . . .
33.6(33) . . .
32.9(34) . . .
33.5(31) . . .
30.2(28) . . .
41.6(34) . . .
48(4) . . .
35.1(32) . . .
36.2(32) . . .
37.6(32) . . .
33.7(32) . . .
33.7(30) . . .
36.6(31) . . .
41.9(34) . . .
36.5(31) . . .
33.0(31) . . .
32.9(32) . . .
39(4) . . .
35.4(31) . . .
35.1(31) . . .
28.8(30) . . .
34.0(33) . . .
37.1(33) . . .
33.7(31) . . .
39.5(32) . . .
34.5(31) . . .
34.8(31) . . .
42.9(35) . . .
34.6(31) . . .
35.7(32) . . .
33.7(31) . . .
36.8(33) . . .
44(4) . . .
42.7(34) . . .
28.1(29) . . .
37.6(34) . . .
30.1(29) . . .
33.8(31) . . .
33.2(30) . . .
34.3(31) . . .
36.1(33) . . .
38.6(35) . . .
42.6(35) . . .
28.0(28) . . .
27.1(27) . . .
31.8(29) . . .
43(4) . . .
42.3(35) . . .
41.4(34) . . .
34.0(31) . . .
32.9(31) . . .
41(4) . . .
30.1(29) . . .
31.6(30) . . .
31.1(31) . . .
29.2(29) . . .
26.3(26) . . .
32.8(30) . . .
37.9(32) . . .
37(4) . . .
28.1(28) . . .
41.3(35) . . .
34.6(30) . . .
36.3(31) . . .
37.0(33) . . .
30.3(30) . . .
37.9(33) . . .
45.7(35) . . .
36.5(31) . . .
28.9(31) . . .
28.9(29) . . .
30.3(29) . . .
32.3(30) . . .
40.4(34) . . .
35.0(33) . . .
31.9(31) . . .
34.3(31) . . .
33.5(30) . . .
30.4(29) . . .
25.9(26) . . .
34.2(32) . . .
41.3(34) . . .
39.4(32) . . .
34.7(30) . . .
32.0(33) . . .
27.7(29) . . .
32.9(32) . . .
35.8(34) . . .
34.0(30) . . .
38.3(33) . . .
34.6(32) . . .
26.4(27) . . .
40.3(33) . . .
28.6(30) . . .
30.6(32) . . .
23.3(26) . . .
31.7(31) . . .
39.9(33) . . .
36.0(32) . . .
34.3(31) . . .
38.1(33) . . .
39.7(33) . . .
37.3(33) . . .
27.9(28) . . .
39(4) . . .
35.1(34) . . .
38.6(33) . . .
35.6(31) . . .
46(4) . . .
28.5(30) . . .
31.9(32) . . .
40.0(32) . . .
37.4(32) . . .
31.0(30) . . .
36(4) . . .
32.2(32) . . .
33.6(30) . . .
26.6(26) . . .
31.2(30) . . .
33.4(34) . . .
33.3(29) . . .
39.1(32) . . .
29.1(29) . . .
25.5(27) . . .
32.8(33) . . .
36.1(34) . . .
36.7(31) . . .
34.8(31) . . .
30.7(31) . . .
32.2(33) . . .
32.5(30) . . .
31.5(29) . . .
28.1(30) . . .
28.3(28) . . .
33.0(31) . . .
30.2(30) . . .
28.6(29) . . .
40.2(33) . . .
31.4(31) . . .
31.2(31) . . .
29.3(28) . . .
37.0(31) . . .
32.7(31) . . .
36.4(32) . . .
38.5(34) . . .
36.5(33) . . .
35.7(31) . . .
32.6(30) . . .
35.9(31) . . .
41(4) . . .
32.1(31) . . .
38.1(32) . . .
29.0(28) . . .
39.4(34) . . .
27.5(30) . . .
32.9(30) . . .
28.2(28) . . .
28.4(29) . . .
31.5(31) . . .
33.1(32) . . .
34.4(30) . . .
43.8(35) . . .
28.0(30) . . .
32.5(34) . . .
27.3(27) . . .
38.4(32) . . .
35.8(31) . . .
34.1(32) . . .
34.6(33) . . .
27.2(28) . . .
30.6(30) . . .
39.4(33) . . .
37.1(33) . . .
40.4(34) . . .
40.0(34) . . .
29.4(30) . . .
28.7(29) . . .
37.5(33) . . .
35.7(31) . . .
41.6(35) . . .
34.2(30) . . .
29.7(28) . . .
29.8(29) . . .
40(4) . . .
40.2(34) . . .
36.0(31) . . .
42.1(35) . . .
32.5(29) . . .
31.4(30) . . .
38(4) . . .
39.6(32) . . .
28.0(29) . . .
30.8(32) . . .
37(4) . . .
28.0(29) . . .
33.2(30) . . .
29.3(31) . . .
28.8(30) . . .
27.6(27) . . .
29.9(29) . . .
30.0(29) . . .
27.4(28) . . .
42(4) . . .
34.3(34) . . .
33.7(30) . . .
44.5(35) . . .
30.7(29) . . .
34.8(32) . . .
33.0(32) . . .
31.1(29) . . .
30.5(29) . . .
40(4) . . .
41(4) . . .
34.9(31) . . .
32.7(30) . . .
35.3(32) . . .
28.2(29) . . .
28.4(30) . . .
35.6(32) . . .
33.3(30) . . .
30.2(29) . . .
30.1(28) . . .
32.5(32) . . .
34.3(32) . . .
37.1(32) . . .
30.4(29) . . .
32.5(31) . . .
34.5(34) . . .
34.1(31) . . .
33.3(30) . . .
36.9(32) . . .
28.8(29) . . .
33.0(32) . . .
36.4(34) . . .
35.1(31) . . .
36.0(31) . . .
35.4(33) . . .
29.5(32) . . .
35.5(35) . . .
30.3(29) . . .
27.3(28) . . .
34.8(32) . . .
38.8(34) . . .
33.1(32) . . .
41.0(33) . . .
35.7(32) . . .
27.0(27) . . .
32.8(30) . . .
37.6(33) . . .
28.2(28) . . .
29.6(29) . . .
31.3(30) . . .
32.6(31) . . .
30.0(29) . . .
37.1(32) . . .
34.3(32) . . .
32.9(34) . . .
32.2(32) . . .
36.7(31) . . .
28.5(28) . . .
32.4(30) . . .
39(4) . . .
38.8(35) . . .
26.5(27) . . .
38.9(33) . . .
34.7(32) . . .
32.8(32) . . .
33.0(31) . . .
27.8(28) . . .
36.7(32) . . .
33.3(32) . . .
36(4) . . .
26.1(27) . . .
33.3(31) . . .
32.6(30) . . .
29.1(28) . . .
33.7(32) . . .
29.8(29) . . .
29.4(30) . . .
38.2(32) . . .
33.2(30) . . .
27.9(28) . . .
38.3(35) . . .
34.1(30) . . .
36.1(31) . . .
38.1(33) . . .
37.7(35) . . .
27.1(30) . . .
31.0(29) . . .
36.6(32) . . .
35.2(33) . . .
34.5(33) . . .
30.3(29) . . .
25.1(27) . . .
29.2(29) . . .
36.3(32) . . .
28.4(27) . . .
29.1(29) . . .
37.9(32) . . .
27.8(28) . . .
39.6(32) . . .
40.5(35) . . .
30.5(29) . . .
26.9(28) . . .
36.0(34) . . .
37.3(33) . . .
35.3(31) . . .
38.2(33) . . .
39.3(33) . . .
33.6(30) . . .
47(4) . . .
30.8(30) . . .
33.0(29) . . .
33.0(31) . . .
35.1(31) . . .
31.3(30) . . .
33.4(31) . . .
39.4(33) . . .
34.1(31) . . .
33.8(30) . . .
31.2(33) . . .
28.6(29) . . .
30.6(28) . . .
41.2(33) . . .
28.7(28) . . .
38(4) . . .
24.9(26) . . .
36.2(31) . . .
29.7(28) . . .
34.8(35) . . .
28.8(32) . . .
33.8(33) . . .
34.3(31) . . .
30.1(28) . . .
30.5(30) . . .
34.4(33) . . .
35.0(33) . . .
38.9(32) . . .
36.2(31) . . .
40(4) . . .
32.1(30) . . .
31.3(30) . . .
25.9(26) . . .
28.0(27) . . .
38.0(34) . . .
38.5(33) . . .
41.7(34) . . .
39.5(33) . . .
34.9(30) . . .
31.2(31) . . .
24.6(27) . . .
37.5(35) . . .
39.1(32) . . .
35.7(33) . . .
32.9(32) . . .
37(4) . . .
33.7(31) . . .
33.7(30) . . .
31.8(32) . . .
29.1(30) . . .
33.7(33) . . .
35.3(32) . . .
36.7(31) . . .
31.9(33) . . .
32.2(33) . . .
32.1(32) . . .
25.8(27) . . .
39.6(32) . . .
35.7(32) . . .
37.8(34) . . .
31.1(28) . . .
32.4(31) . . .
33.9(31) . . .
30.3(29) . . .
22.7(24) . . .
33.7(31) . . .
35.6(31) . . .
32.0(30) . . .
25.9(28) . . .
33.7(33) . . .
35.6(32) . . .
39.0(32) . . .
35.7(31) . . .
28.5(26) . . .
36.0(32) . . .
35.7(32) . . .
38.3(32) . . .
36.6(32) . . .
32.6(32) . . .
30.2(28) . . .
32.5(31) . . .
36.5(33) . . .
43(4) . . .
38.9(35) . . .
34.3(34) . . .
32.8(31) . . .
45.4(35) . . .
31.6(29) . . .
38.9(33) . . .
30.0(30) . . .
37.1(33) . . .
31.2(30) . . .
29.9(29) . . .
34.2(33) . . .
42(4) . . .
26.2(27) . . .
32.3(30) . . .
34.8(31) . . .
37.9(33) . . .
30.1(29) . . .
33.1(31) . . .
35.9(31) . . .
27.1(28) . . .
27.4(31) . . .
29.0(29) . . .
35.4(31) . . .
32.0(29) . . .
33.8(31) . . .
35.2(34) . . .
30.3(29) . . .
28.9(28) . . .
36.2(31) . . .
42(4) . . .
33.9(32) . . .
29.5(29) . . .
35.6(32) . . .
25.5(27) . . .
36.7(33) . . .
42(4) . . .
39(4) . . .
32.9(30) . . .
36.5(31) . . .
29.3(29) . . .
30.9(32) . . .
26.1(27) . . .
32.6(30) . . .
31.0(29) . . .
29.8(28) . . .
30.8(30) . . .
26.8(27) . . .
41.7(34) . . .
37.7(33) . . .
33.2(32) . . .
23.4(26) . . .
32.3(33) . . .
29.1(28) . . .
30.0(30) . . .
27.5(29) . . .
32.2(32) . . .
32.2(31) . . .
42.9(34) . . .
33.9(30) . . .
35.1(33) . . .
30.8(29) . . .
35.0(32) . . .
30.9(29) . . .
32.0(29) . . .
33.0(32) . . .
30.0(30) . . .
32.8(30) . . .
31.0(29) . . .
32.2(31) . . .
26.9(29) . . .
37.5(34) . . .
31.6(29) . . .
38.0(32) . . .
32.5(30) . . .
32.7(33) . . .
34.1(32) . . .
27.5(27) . . .
30.1(28) . . .
40.3(34) . . .
36.2(34) . . .
40.9(35) . . .
38.9(32) . . .
32.6(31) . . .
31.6(31) . . .
32.2(32) . . .
35.1(31) . . .
27.1(27) . . .
29.1(28) . . .
28.6(28) . . .
36.6(34) . . .
36.3(33) . . .
30.6(28) . . .
34.9(31) . . .
32.6(31) . . .
33.6(31) . . .
46(4) . . .
46(4) . . .
27.2(28) . . .
29.8(29) . . .
30.2(30) . . .
33.6(33) . . .
28.2(28) . . .
34.2(30) . . .
39.4(33) . . .
30.7(29) . . .
38.1(33) . . .
37.4(32) . . .
27.3(28) . . .
25.6(26) . . .
31.5(30) . . .
45(4) . . .
35.2(31) . . .
31.8(32) . . .
37.8(33) . . .
42.3(35) . . .
30.2(29) . . .
36.9(32) . . .
41.0(35) . . .
37.6(34) . . .
37.0(34) . . .
30.4(28) . . .
37.7(31) . . .
26.0(26) . . .
33.6(32) . . .
32.5(32) . . .
31.2(29) . . .
36.7(32) . . .
33.5(31) . . .
35.0(34) . . .
33.3(34) . . .
39.7(33) . . .
37.5(32) . . .
45(4) . . .
31.9(30) . . .
31.7(30) . . .
28.5(28) . . .
32.2(30) . . .
41(4) . . .
41(4) . . .
30.2(28) . . .
31.5(29) . . .
30.8(29) . . .
27.3(29) . . .
41(4) . . .
39.5(34) . . .
41.8(33) . . .
43.8(35) . . .
37.4(34) . . .
32.6(30) . . .
28.2(29) . . .
23.6(25) . . .
27.8(27) . . .
41(4) . . .
29.7(29) . . .
37.9(33) . . .
30.0(28) . . .
27.8(29) . . .
33.5(31) . . .
33.1(32) . . .
29.7(29) . . .
26.9(27) . . .
36.3(33) . . .
34.5(34) . . .
32.1(31) . . .
43.7(34) . . .
48(4) . . .
29.7(28) . . .
38.1(35) . . .
28.0(28) . . .
37.5(32) . . .
32.6(30) . . .
31.7(29) . . .
28.6(29) . . .
36.2(33) . . .
36.0(31) . . .
40.8(33) . . .
34.2(32) . . .
38(4) . . .
28.5(33) . . .
28.2(28) . . .
28.8(28) . . .
29.4(29) . . .
33.2(33) . . .
31.6(30) . . .
38.2(33) . . .
39.7(32) . . .
35.9(32) . . .
34(4) . . .
29.4(29) . . .
36.7(31) . . .
37.4(32) . . .
36.1(32) . . .
30.4(30) . . .
33.1(31) . . .
32.2(30) . . .
35.7(31) . . .
29.5(31) . . .
30.6(34) . . .
31.2(33) . . .
32.5(30) . . .
33.0(31) . . .
32.1(29) . . .
35.5(32) . . .
32.1(30) . . .
36.3(31) . . .
32.5(30) . . .
37.8(34) . . .
32.6(30) . . .
32.4(31) . . .
32.9(30) . . .
35.5(32) . . .
34.7(31) . . .
46(4) . . .
29.5(29) . . .
35.3(31) . . .
28.6(28) . . .
34.6(34) . . .
34.1(31) . . .
28.4(28) . . .
25.6(27) . . .
31.7(34) . . .
35.2(35) . . .
24.4(26) . . .
37.4(33) . . .
29.7(29) . . .
35.3(35) . . .
34.5(33) . . .
29.4(28) . . .
37.3(32) . . .
32.8(30) . . .
33.4(31) . . .
22.2(26) . . .
26.3(27) . . .
33.3(30) . . .
31.8(29) . . .
31.8(30) . . .
38.1(35) . . .
35.2(31) . . .
30.3(28) . . .
28.7(28) . . .
32.0(29) . . .
34.7(33) . . .
30.3(30) . . .
32.9(31) . . .
36.2(31) . . .
39.6(33) . . .
37.1(34) . . .
34.8(31) . . .
39.2(34) . . .
27.5(28) . . .
34.7(32) . . .
46(4) . . .
35.4(34) . . .
26.3(27) . . .
29.5(29) . . .
34.6(33) . . .
30.5(30) . . .
43(4) . . .
42.1(34) . . .
30.3(30) . . .
31.4(31) . . .
36.5(33) . . .
35.7(31) . . .
30.9(29) . . .
28.7(29) . . .
27.8(29) . . .
22.7(26) . . .
32.0(33) . . .
40.0(33) . . .
38.1(33) . . .
37.1(33) . . .
37.6(32) . . .
41(4) . . .
29.7(29) . . .
28.6(28) . . .
35.0(32) . . .
27.9(29) . . .
34.2(30) . . .
30.7(29) . . .
29.2(29) . . .
33.4(32) . . .
33.2(31) . . .
30.7(29) . . .
37.4(32) . . .
36.0(34) . . .
27.3(29) . . .
33.7(34) . . .
37.0(32) . . .
28.9(28) . . .
39.5(33) . . .
35.5(32) . . .
32.7(32) . . .
30.0(28) . . .
36.5(32) . . .
34.2(34) . . .
35.6(35) . . .
30.7(30) . . .
28.0(28) . . .
27.4(29) . . .
28.0(28) . . .
30.5(31) . . .
34.4(33) . . .
38.4(32) . . .
36.5(31) . . .
35.6(33) . . .
30.4(31) . . .
30.8(31) . . .
32.7(30) . . .
29.0(28) . . .
27.9(30) . . .
29.5(30) . . .
26.6(28) . . .
23.1(25) . . .
33.9(33) . . .
28.3(30) . . .
34.4(32) . . .
33.3(30) . . .
28.4(28) . . .
30.5(28) . . .
30.2(30) . . .
32.9(32) . . .
35.9(32) . . .
28.8(28) . . .
29.9(30) . . .
32.3(31) . . .
29.5(30) . . .
31.0(32) . . .
28.1(28) . . .
33.9(31) . . .
36.3(32) . . .
40.7(34) . . .
32.9(32) . . .
32.4(29) . . .
34.7(31) . . .
32.5(31) . . .
37.2(33) . . .
28.9(28) . . .
40.2(33) . . .
36.2(32) . . .
36(4) . . .
30.0(31) . . .
28.6(28) . . .
32.4(30) . . .
33.2(31) . . .
32.2(32) . . .
33.6(30) . . .
32.4(30) . . .
34.8(31) . . .
47(4) . . .
34.9(34) . . .
26.9(28) . . .
32.0(29) . . .
34.6(31) . . .
28.9(31) . . .
27.4(29) . . .
31.5(30) . . .
26.6(27) . . .
26.5(28) . . .
43(4) . . .
40(4) . . .
32.6(32) . . .
28.3(28) . . .
34.0(34) . . .
28.6(30) . . .
28.7(30) . . .
26.5(27) . . .
32.2(30) . . .
29.3(29) . . .
39(4) . . .
35.1(31) . . .
37.1(32) . . .
35.3(31) . . .
33.2(31) . . .
29.5(31) . . .
32.4(31) . . .
32.8(30) . . .
27.7(28) . . .
35.1(34) . . .
33.0(30) . . .
34.5(31) . . .
35.6(31) . . .
27.3(28) . . .
35.1(33) . . .
35.4(33) . . .
41(4) . . .
33.5(30) . . .
28.8(29) . . .
31.2(31) . . .
36(4) . . .
30.9(32) . . .
32.2(30) . . .
32.7(30) . . .
30.9(31) . . .
31.4(31) . . .
32.5(30) . . .
31.2(29) . . .
32.3(31) . . .
30.8(29) . . .
35.8(32) . . .
33.4(31) . . .
33.0(30) . . .
32.1(29) . . .
34.1(32) . . .
34.9(32) . . .
30.3(31) . . .
26.1(27) . . .
26.6(27) . . .
30.7(28) . . .
35.7(30) . . .
31.0(30) . . .
36.7(32) . . .
32.5(32) . . .
36.0(33) . . .
40(4) . . .
20.2(23) . . .
31.5(30) . . .
37.8(32) . . .
31.7(30) . . .
34.0(33) . . .
28.1(28) . . .
27.3(27) . . .
35.8(34) . . .
38.7(35) . . .
28.1(27) . . .
36.1(33) . . .
36.5(32) . . .
28.2(28) . . .
31.8(32) . . .
29.5(29) . . .
30.0(29) . . .
27.9(27) . . .
26.1(27) . . .
39(4) . . .
38.6(33) . . .
35.1(31) . . .
30.2(30) . . .
32.8(31) . . .
36.8(35) . . .
41(4) . . .
41.2(33) . . .
31.0(29) . . .
31.2(31) . . .
32.8(33) . . .
29.0(29) . . .
27.8(28) . . .
33.4(30) . . .
30.8(31) . . .
33.5(33) . . .
39.3(34) . . .
29.9(28) . . .
34.7(31) . . .
36.4(34) . . .
32.5(33) . . .
32.4(31) . . .
37.6(32) . . .
35.4(31) . . .
32.8(30) . . .
34.5(31) . . .
42.2(35) . . .
35.1(31) . . .
34.4(30) . . .
36.8(33) . . .
31.6(31) . . .
31.8(30) . . .
31.0(29) . . .
36.4(34) . . .
34.5(32) . . .
39.6(33) . . .
38.2(33) . . .
26.9(27) . . .
28.3(28) . . .
36.0(33) . . .
31.8(30) . . .
37.8(32) . . .
37.9(32) . . .
32.6(32) . . .
33.8(32) . . .
24.3(26) . . .
31.3(29) . . .
40.3(34) . . .
38.0(34) . . .
49(4) . . .
28.8(29) . . .
38.8(33) . . .
25.8(26) . . .
35.7(32) . . .
31.3(30) . . .
30.1(30) . . .
51(4) . . .
36.5(32) . . .
35.3(33) . . .
32.8(29) . . .
36.4(32) . . .
36.5(31) . . .
42.5(34) . . .
38.3(32) . . .
31.8(31) . . .
30.5(29) . . .
32.8(30) . . .
41.0(33) . . .
45(4) . . .
31.8(33) . . .
24.8(26) . . .
29.3(28) . . .
28.4(29) . . .
26.7(27) . . .
34.4(34) . . .
30.9(32) . . .
27.2(27) . . .
31.2(29) . . .
34.6(31) . . .
32.5(29) . . .
32.2(29) . . .
30.0(29) . . .
42(4) . . .
35.4(32) . . .
26.3(28) . . .
36.4(33) . . .
27.7(28) . . .
30.6(29) . . .
31.4(31) . . .
34.7(32) . . .
30.5(28) . . .
28.3(28) . . .
36.2(33) . . .
37.0(34) . . .
32.6(31) . . .
40.6(35) . . .
32.6(30) . . .
32.0(31) . . .
30.1(31) . . .
37(4) . . .
29.4(29) . . .
26.3(26) . . .
30.2(30) . . .
41(4) . . .
37.7(33) . . .
34.8(30) . . .
39.5(33) . . .
33.8(33) . . .
30.0(30) . . .
37.2(33) . . .
25.6(27) . . .
30.8(30) . . .
30.0(29) . . .
27.5(28) . . .
32.4(31) . . .
29.1(28) . . .
29.4(28) . . .
25.7(27) . . .
27.5(29) . . .
33.7(30) . . .
34.7(30) . . .
33.3(30) . . .
27.8(30) . . .
26.2(26) . . .
32.2(32) . . .
26.3(27) . . .
32.4(30) . . .
30.1(28) . . .
38.2(34) . . .
33.8(30) . . .
36.7(32) . . .
39.6(34) . . .
28.5(27) . . .
34.4(31) . . .
33.3(30) . . .
39.6(33) . . .
39.1(35) . . .
24.6(25) . . .
31.5(31) . . .
25.2(26) . . .
32.5(30) . . .
32.5(30) . . .
27.8(29) . . .
39(4) . . .
34.4(30) . . .
26.6(27) . . .
33.3(31) . . .
28.6(27) . . .
30.1(28) . . .
30.2(29) . . .
40.4(33) . . .
32.5(30) . . .
27.6(28) . . .
32.9(34) . . .
29.5(28) . . .
30.8(29) . . .
29.5(30) . . .
35.2(34) . . .
35.6(32) . . .
41.6(34) . . .
35.8(31) . . .
39.2(33) . . .
40(4) . . .
35.7(31) . . .
31.6(30) . . .
34.6(31) . . .
27.9(29) . . .
25.5(27) . . .
28.2(28) . . .
37.5(32) . . .
32.4(31) . . .
30.7(30) . . .
28.3(28) . . .
44(4) . . .
39.7(34) . . .
37.2(32) . . .
29.0(27) . . .
30.9(29) . . .
26.7(27) . . .
34.2(31) . . .
37.0(32) . . .
32.6(32) . . .
36.8(33) . . .
33.3(32) . . .
32.2(30) . . .
31.0(30) . . .
35.6(32) . . .
36.1(31) . . .
29.3(28) . . .
35.0(31) . . .
33.1(31) . . .
26.1(27) . . .
25.7(27) . . .
32.6(31) . . .
27.0(27) . . .
32.2(31) . . .
31.9(32) . . .
42(4) . . .
35.3(31) . . .
34.6(31) . . .
34.4(32) . . .
35.0(32) . . .
31.6(29) . . .
26.2(26) . . .
28.0(28) . . .
33.2(32) . . .
31.1(33) . . .
35.9(32) . . .
35.7(32) . . .
39.9(33) . . .
32.5(30) . . .
33.6(33) . . .
34.2(31) . . .
33.0(30) . . .
40.5(34) . . .
41(4) . . .
39(4) . . .
32.1(30) . . .
35.2(31) . . .
32.1(30) . . .
32.1(30) . . .
25.4(29) . . .
28.7(30) . . .
32.5(30) . . .
42(4) . . .
32.7(30) . . .
27.6(30) . . .
25.3(27) . . .
33.3(31) . . .
23.9(25) . . .
30.8(32) . . .
34.6(33) . . .
34.2(33) . . .
36.2(32) . . .
26.9(28) . . .
37.5(32) . . .
36.3(32) . . .
34.1(31) . . .
23.8(26) . . .
28.9(28) . . .
33.5(33) . . .
33.2(32) . . .
37.0(32) . . .
34.7(30) . . .
29.7(29) . . .
31.9(31) . . .
42(4) . . .
30.8(29) . . .
39.0(32) . . .
31.9(31) . . .
35.6(32) . . .
35.4(31) . . .
25.3(26) . . .
24.4(27) . . .
37.0(33) . . .
27.6(30) . . .
31.4(30) . . .
26.4(27) . . .
31.7(30) . . .
32.2(30) . . .
28.9(29) . . .
33.3(31) . . .
25.3(26) . . .
35.1(32) . . .
27.3(30) . . .
34.2(34) . . .
33.6(31) . . .
38.8(32) . . .
32.1(29) . . .
46(4) . . .
40.6(33) . . .
37.5(33) . . .
35.8(31) . . .
29.2(28) . . .
40.0(35) . . .
33.4(31) . . .
27.0(28) . . .
30.8(29) . . .
30.9(31) . . .
28.1(29) . . .
39(4) . . .
42(4) . . .
31.2(30) . . .
35.8(32) . . .
31.3(32) . . .
27.7(28) . . .
28.8(29) . . .
26.4(28) . . .
35.9(31) . . .
37.6(34) . . .
36.3(32) . . .
35.2(31) . . .
33.4(30) . . .
38(4) . . .
34.9(33) . . .
27.5(27) . . .
33.2(30) . . .
29.5(28) . . .
29.0(29) . . .
30.7(30) . . .
35.1(31) . . .
33.1(31) . . .
31.3(29) . . .
36.5(33) . . .
32.4(33) . . .
28.4(28) . . .
29.0(29) . . .
32.0(30) . . .
37.2(33) . . .
30.5(31) . . .
33.8(33) . . .
35.5(32) . . .
30.3(28) . . .
32.8(34) . . .
30.0(31) . . .
33.7(31) . . .
36.0(32) . . .
32.7(29) . . .
31.7(30) . . .
30.4(30) . . .
30.3(29) . . .
33.3(30) . . .
37.6(33) . . .
34.7(31) . . .
41(4) . . .
36.6(32) . . .
28.4(28) . . .
31.2(29) . . .
35.2(32) . . .
36.9(34) . . .
30.5(30) . . .
26.5(27) . . .
22.1(25) . . .
26.7(28) . . .
31.3(34) . . .
30.5(30) . . .
30.6(29) . . .
40(4) . . .
33.1(31) . . .
36.9(33) . . .
33.2(30) . . .
33.4(31) . . .
39.8(33) . . .
39.7(34) . . .
37.9(34) . . .
28.7(28) . . .
32.4(30) . . .
32.3(31) . . .
35.0(33) . . .
24.0(25) . . .
33.2(30) . . .
26.1(27) . . .
31.2(29) . . .
32.2(33) . . .
26.7(28) . . .
31.4(29) . . .
33.0(29) . . .
32.6(30) . . .
32.7(32) . . .
38.6(34) . . .
35.4(32) . . .
39.0(33) . . .
33.0(30) . . .
34.3(32) . . .
36.1(32) . . .
41.6(33) . . .
23.9(25) . . .
27.4(29) . . .
30.8(30) . . .
28.4(29) . . .
34.1(31) . . .
32.5(30) . . .
23.3(27) . . .
29.8(31) . . .
37.2(34) . . .
32.9(30) . . .
27.4(27) . . .
29.7(28) . . .
32.0(30) . . .
35.8(34) . . .
22.5(25) . . .
38.3(33) . . .
33.0(29) . . .
47(4) . . .
31.1(29) . . .
35.5(32) . . .
32.1(30) . . .
32.7(31) . . .
34.5(31) . . .
33.1(31) . . .
35.9(31) . . .
36.0(31) . . .
37.9(34) . . .
34.5(32) . . .
37.3(33) . . .
25.8(27) . . .
28.0(27) . . .
35.1(31) . . .
35.3(31) . . .
33.9(31) . . .
33.3(30) . . .
34.1(31) . . .
37.8(34) . . .
27.0(26) . . .
32.9(30) . . .
29.3(29) . . .
36.1(32) . . .
39(4) . . .
30.4(28) . . .
30.8(29) . . .
32.1(30) . . .
36.2(32) . . .
28.6(30) . . .
23.3(26) . . .
38.1(32) . . .
38.4(32) . . .
36.0(33) . . .
25.7(27) . . .
35.6(32) . . .
28.5(28) . . .
34.6(31) . . .
38.0(34) . . .
28.8(30) . . .
28.9(29) . . .
31.1(30) . . .
25.0(26) . . .
29.2(28) . . .
28.3(28) . . .
40.6(34) . . .
38.4(33) . . .
32.2(32) . . .
32.0(32) . . .
33.4(32) . . .
36.5(34) . . .
38.3(32) . . .
30.3(29) . . .
28.6(29) . . .
30.7(29) . . .
38.0(33) . . .
26.3(27) . . .
31.2(31) . . .
33.4(33) . . .
34.1(33) . . .
35.7(32) . . .
31.3(29) . . .
27.0(29) . . .
39(4) . . .
31.8(30) . . .
31.9(29) . . .
32.4(30) . . .
31.6(29) . . .
44(4) . . .
36.2(32) . . .
30.7(29) . . .
39.4(32) . . .
32.0(30) . . .
33.3(33) . . .
33.7(31) . . .
40.7(33) . . .
39.1(33) . . .
36.8(33) . . .
33.3(34) . . .
29.3(29) . . .
32.2(29) . . .
35.7(31) . . .
35.5(31) . . .
30.0(29) . . .
35.4(32) . . .
33.2(30) . . .
31.7(29) . . .
27.9(28) . . .
37.3(35) . . .
28.8(28) . . .
42.7(34) . . .
28.6(27) . . .
30.5(29) . . .
32.9(32) . . .
32.4(32) . . .
31.7(30) . . .
35.6(33) . . .
29.8(30) . . .
28.9(30) . . .
34.9(31) . . .
40.6(33) . . .
34.9(31) . . .
40(4) . . .
36.1(33) . . .
30.5(29) . . .
29.0(28) . . .
36.3(32) . . .
37.1(34) . . .
29.1(28) . . .
40.4(35) . . .
25.6(27) . . .
34.4(31) . . .
31.8(32) . . .
29.6(30) . . .
30.5(29) . . .
23.7(25) . . .
26.4(28) . . .
28.5(31) . . .
29.1(30) . . .
38.0(32) . . .
37.5(32) . . .
34.7(33) . . .
33.3(33) . . .
29.5(28) . . .
26.2(27) . . .
30.9(28) . . .
24.4(27) . . .
26.3(28) . . .
31.3(29) . . .
33.5(30) . . .
34.2(30) . . .
31.5(30) . . .
31.5(31) . . .
32.5(31) . . .
26.7(27) . . .
18.5(22) . . .
35.8(34) . . .
37.0(32) . . .
33.6(30) . . .
32.6(30) . . .
28.2(28) . . .
35.2(32) . . .
32.4(31) . . .
30.7(30) . . .
26.3(27) . . .
29.1(28) . . .
30.7(31) . . .
32.2(31) . . .
37.0(32) . . .
26.4(27) . . .
30.4(30) . . .
33.3(31) . . .
33.5(30) . . .
35.4(31) . . .
33.3(31) . . .
33.9(30) . . .
37.5(35) . . .
28.2(30) . . .
37.6(34) . . .
40.9(34) . . .
41(4) . . .
27.9(27) . . .
30.7(31) . . .
28.5(29) . . .
28.4(28) . . .
29.8(30) . . .
31.5(31) . . .
31.2(31) . . .
34.2(30) . . .
31.6(30) . . .
22.6(27) . . .
24.5(28) . . .
30.4(31) . . .
32.3(30) . . .
29.0(29) . . .
34.5(32) . . .
37.0(34) . . .
40.2(34) . . .
31.4(30) . . .
35.1(30) . . .
34.0(31) . . .
38(4) . . .
34.6(31) . . .
34.3(32) . . .
38.8(34) . . .
39.5(34) . . .
35.5(33) . . .
29.7(30) . . .
31.3(29) . . .
31.7(30) . . .
46(4) . . .
37.8(34) . . .
41.6(35) . . .
32.8(30) . . .
27.9(28) . . .
37(4) . . .
29.8(28) . . .
38.4(33) . . .
31.9(30) . . .
35.5(32) . . .
33.4(31) . . .
33.7(31) . . .
34.5(31) . . .
32.5(31) . . .
31.8(31) . . .
26.4(27) . . .
32.0(30) . . .
24.3(27) . . .
34.0(31) . . .
28.5(29) . . .
39(4) . . .
29.0(28) . . .
35.0(32) . . .
33.6(30) . . .
33.5(32) . . .
30.0(29) . . .
31.3(30) . . .
35.6(31) . . .
40.9(34) . . .
30.1(30) . . .
30.0(29) . . .
31.1(30) . . .
28.1(29) . . .
29.6(28) . . .
34.4(32) . . .
31.9(33) . . .
33.5(32) . . .
39.5(33) . . .
34.8(30) . . .
32.1(29) . . .
43(4) . . .
26.1(29) . . .
30.6(30) . . .
32.1(29) . . .
35.6(32) . . .
26.7(28) . . .
28.4(31) . . .
28.6(28) . . .
26.6(27) . . .
18.5(22) . . .
33.3(32) . . .
37.5(32) . . .
33.0(30) . . .
36.2(31) . . .
35.7(32) . . .
29.4(29) . . .
35.7(34) . . .
26.2(26) . . .
34.2(32) . . .
30.6(29) . . .
32.6(31) . . .
36.0(32) . . .
35.4(31) . . .
30.8(30) . . .
27.8(31) . . .
27.5(29) . . .
35.2(31) . . .
27.1(27) . . .
39.5(33) . . .
36.7(33) . . .
44(4) . . .
38.2(32) . . .
30.1(29) . . .
33.0(30) . . .
35.1(30) . . .
32.0(30) . . .
33.8(30) . . .
35.4(31) . . .
29.3(28) . . .
26.4(29) . . .
25.4(28) . . .
31.3(29) . . .
40.1(33) . . .
34.2(32) . . .
29.4(31) . . .
29.7(30) . . .
30.2(29) . . .
28.5(29) . . .
36.2(33) . . .
40(4) . . .
40.3(34) . . .
36.5(32) . . .
30.4(30) . . .
30.7(31) . . .
35.0(34) . . .
31.6(30) . . .
31.5(29) . . .
29.4(28) . . .
31.5(30) . . .
30.7(30) . . .
29.4(30) . . .
29.3(28) . . .
35.6(31) . . .
24.1(26) . . .
28.8(28) . . .
36.5(35) . . .
27.8(27) . . .
31.9(30) . . .
27.5(28) . . .
30.8(30) . . .
30.1(28) . . .
33.3(30) . . .
38.5(34) . . .
35.1(32) . . .
40.2(35) . . .
31.6(30) . . .
26.7(27) . . .
28.6(30) . . .
28.4(28) . . .
38.4(34) . . .
33.6(30) . . .
30.8(28) . . .
37(4) . . .
24.9(27) . . .
32.0(31) . . .
36.9(33) . . .
35.2(31) . . .
28.2(29) . . .
29.9(31) . . .
33.3(30) . . .
29.6(28) . . .
35.5(31) . . .
38(4) . . .
30.1(30) . . .
33.9(32) . . .
34.0(30) . . .
39.4(33) . . .
40.2(35) . . .
30.0(30) . . .
30.7(30) . . .
29.8(29) . . .
36.8(32) . . .
41.1(34) . . .
42(4) . . .
35.8(31) . . .
38.6(32) . . .
30.5(30) . . .
36.1(32) . . .
30.5(29) . . .
33.6(31) . . .
32.7(31) . . .
31.3(29) . . .
30.3(29) . . .
30.1(30) . . .
35.0(32) . . .
38.0(32) . . .
33.2(30) . . .
29.0(30) . . .
28.5(30) . . .
29.4(29) . . .
32.6(30) . . .
30.7(28) . . .
31.4(30) . . .
32.0(31) . . .
40(4) . . .
33.1(30) . . .
30.7(29) . . .
28.5(31) . . .
32.0(31) . . .
33.2(30) . . .
26.6(27) . . .
26.9(28) . . .
36.0(32) . . .
33.5(30) . . .
37.3(33) . . .
32.9(30) . . .
29.3(28) . . .
35.9(33) . . .
33.3(31) . . .
30.5(29) . . .
32.4(29) . . .
21.5(24) . . .
32.1(33) . . .
26.5(28) . . .
33.1(30) . . .
32.0(30) . . .
34.6(33) . . .
33.9(33) . . .
29.6(28) . . .
31.8(30) . . .
41.4(34) . . .
35.2(33) . . .
29.0(30) . . .
25.9(26) . . .
36.3(31) . . .
33.0(30) . . .
37.9(32) . . .
31.7(31) . . .
35.0(33) . . .
34.1(31) . . .
31.3(30) . . .
34.8(32) . . .
36.1(33) . . .
31.9(30) . . .
34.0(30) . . .
31.6(30) . . .
38.8(33) . . .
24.8(27) . . .
34(4) . . .
27.4(27) . . .
28.2(28) . . .
37.9(34) . . .
29.3(30) . . .
34.0(32) . . .
40.7(33) . . .
32.8(30) . . .
29.9(29) . . .
31.8(30) . . .
40.0(35) . . .
31.5(29) . . .
30.7(30) . . .
30.8(32) . . .
32.7(34) . . .
29.3(28) . . .
32.2(30) . . .
25.8(27) . . .
28.4(29) . . .
36.9(34) . . .
33.3(30) . . .
31.7(30) . . .
29.6(28) . . .
42(4) . . .
35.2(31) . . .
29.1(29) . . .
25.0(27) . . .
23.3(26) . . .
33.3(33) . . .
35.4(32) . . .
35.1(31) . . .
22.2(24) . . .
39(4) . . .
29.2(29) . . .
27.3(27) . . .
28.7(28) . . .
36.6(31) . . .
31.6(31) . . .
31.1(32) . . .
30.8(30) . . .
32.6(30) . . .
40.5(33) . . .
32.0(30) . . .
28.4(29) . . .
29.7(29) . . .
35.4(31) . . .
32.2(30) . . .
28.6(29) . . .
37.0(35) . . .
31.1(31) . . .
35.5(31) . . .
31.7(29) . . .
33.4(31) . . .
34.6(32) . . .
33.7(31) . . .
23.6(25) . . .
31.5(29) . . .
31.8(30) . . .
40.8(34) . . .
32.6(29) . . .
35.9(31) . . .
35.4(32) . . .
28.1(29) . . .
28.5(29) . . .
33.8(31) . . .
31.4(29) . . .
29.2(30) . . .
27.0(28) . . .
37.2(32) . . .
29.8(28) . . .
32.7(30) . . .
30.6(29) . . .
41(4) . . .
35.0(34) . . .
38.7(32) . . .
32.4(30) . . .
28.2(29) . . .
27.0(31) . . .
29.3(33) . . .
29.9(30) . . .
35.5(31) . . .
39.2(34) . . .
35.7(34) . . .
35.8(35) . . .
28.6(28) . . .
29.2(28) . . .
36.6(33) . . .
36.0(35) . . .
26.9(28) . . .
26.1(27) . . .
39.3(32) . . .
27.5(28) . . .
27.8(30) . . .
28.4(29) . . .
32.4(29) . . .
33.0(32) . . .
36.1(33) . . .
21.7(24) . . .
28.7(28) . . .
31.0(29) . . .
28.5(29) . . .
32.2(29) . . .
30.1(28) . . .
40.9(34) . . .
32.8(30) . . .
30.5(29) . . .
37.2(32) . . .
39.9(34) . . .
29.3(29) . . .
32.0(30) . . .
26.3(27) . . .
30.6(31) . . .
33.5(31) . . .
36.3(32) . . .
37.5(33) . . .
28.0(30) . . .
34.7(30) . . .
36.4(32) . . .
32.2(30) . . .
34.2(31) . . .
25.3(27) . . .
32.6(32) . . .
29.0(29) . . .
25.4(27) . . .
28.2(28) . . .
28.7(29) . . .
37.4(35) . . .
28.0(30) . . .
34.4(30) . . .
34.3(30) . . .
34.5(31) . . .
37(4) . . .
27.7(28) . . .
26.5(27) . . .
39.0(33) . . .
38.7(34) . . .
31.7(31) . . .
32.5(32) . . .
39.2(33) . . .
30.5(29) . . .
28.7(28) . . .
40(4) . . .
31.2(30) . . .
27.8(28) . . .
25.6(28) . . .
37.6(34) . . .
34.1(33) . . .
29.9(29) . . .
27.6(27) . . .
34.7(31) . . .
29.5(29) . . .
30.1(31) . . .
32.5(33) . . .
37.8(32) . . .
33.4(30) . . .
30.4(29) . . .
32.6(30) . . .
32.0(30) . . .
26.5(27) . . .
28.1(28) . . .
27.8(30) . . .
31.8(34) . . .
27.7(29) . . .
28.7(28) . . .
36.1(32) . . .
33.1(30) . . .
37(4) . . .
28.1(28) . . .
21.9(25) . . .
33.0(31) . . .
30.5(31) . . .
35.4(33) . . .
26.1(28) . . .
31.3(29) . . .
28.1(29) . . .
25.5(29) . . .
33.8(32) . . .
40.2(34) . . .
29.4(28) . . .
28.1(28) . . .
30.4(33) . . .
27.8(29) . . .
30.5(28) . . .
31.0(30) . . .
35.2(32) . . .
27.5(28) . . .
39(4) . . .
31.7(29) . . .
31.6(29) . . .
31.1(30) . . .
34.8(34) . . .
37.7(35) . . .
38.4(32) . . .
28.5(27) . . .
32.7(30) . . .
28.4(28) . . .
37.7(33) . . .
30.2(29) . . .
39.7(34) . . .
36.4(33) . . .
39.5(34) . . .
38.0(33) . . .
25.4(26) . . .
27.0(27) . . .
24.1(25) . . .
29.5(28) . . .
28.5(28) . . .
26.3(27) . . .
26.9(29) . . .
33.3(33) . . .
29.3(28) . . .
33.4(31) . . .
35.9(31) . . .
42.3(35) . . .
23.3(24) . . .
28.5(26) . . .
34.6(32) . . .
27.8(27) . . .
27.4(27) . . .
24.1(26) . . .
27.7(29) . . .
32.9(32) . . .
34.7(30) . . .
31.6(31) . . .
30.7(31) . . .
37.8(34) . . .
34.9(30) . . .
27.6(28) . . .
33.2(33) . . .
35.5(34) . . .
32.4(30) . . .
31.9(29) . . .
30.0(29) . . .
33.0(31) . . .
30.9(34) . . .
31.2(30) . . .
35.3(30) . . .
33.3(30) . . .
24.5(27) . . .
34(4) . . .
33.0(31) . . .
40.6(33) . . .
21.7(24) . . .
33.4(33) . . .
29.5(30) . . .
30.2(29) . . .
31.2(29) . . .
20.0(26) . . .
26.8(30) . . .
33.3(32) . . .
33.6(31) . . .
34.5(31) . . .
30.8(30) . . .
32.7(30) . . .
36.0(34) . . .
25.4(27) . . .
22.5(25) . . .
34.2(31) . . .
32.5(31) . . .
32.7(31) . . .
41.5(35) . . .
28.4(28) . . .
29.4(31) . . .
33.4(33) . . .
32.5(30) . . .
35.5(31) . . .
39.2(33) . . .
28.4(28) . . .
30.6(31) . . .
25.9(27) . . .
27.8(27) . . .
33.2(30) . . .
32.8(30) . . .
33.0(32) . . .
30.8(31) . . .
27.0(27) . . .
32.8(30) . . .
42(4) . . .
29.2(28) . . .
34.3(33) . . .
33.0(31) . . .
26.5(27) . . .
31.1(31) . . .
35.6(34) . . .
31.0(30) . . .
33.0(30) . . .
31.9(29) . . .
32.5(32) . . .
30.1(30) . . .
26.0(27) . . .
27.7(28) . . .
33.7(31) . . .
30.3(29) . . .
35.1(33) . . .
27.9(28) . . .
35.5(31) . . .
35.8(31) . . .
31.1(29) . . .
30.8(31) . . .
32.2(32) . . .
26.5(27) . . .
25.9(26) . . .
38(4) . . .
33.1(32) . . .
34.0(32) . . .
30.3(29) . . .
27.1(28) . . .
37.7(34) . . .
28.9(28) . . .
36.2(32) . . .
34.3(31) . . .
39.0(34) . . .
31.7(31) . . .
26.4(27) . . .
29.9(29) . . .
36.8(33) . . .
47(4) . . .
29.5(31) . . .
27.3(32) . . .
26.4(27) . . .
31.3(30) . . .
31.9(31) . . .
29.3(31) . . .
30.9(31) . . .
27.6(27) . . .
33.8(30) . . .
29.6(28) . . .
29.5(30) . . .
32.7(30) . . .
33.1(31) . . .
30.5(28) . . .
33.5(30) . . .
36.6(34) . . .
29.2(29) . . .
32.2(30) . . .
35.0(31) . . .
34.2(31) . . .
35.4(33) . . .
33.8(31) . . .
34.8(30) . . .
32.8(30) . . .
37.6(34) . . .
30.3(31) . . .
27.4(28) . . .
39.2(32) . . .
26.3(27) . . .
23.7(26) . . .
25.5(26) . . .
36.0(32) . . .
37.3(32) . . .
41.4(34) . . .
38.0(34) . . .
32.9(33) . . .
24.0(27) . . .
29.9(28) . . .
27.7(29) . . .
28.5(30) . . .
25.2(27) . . .
29.8(32) . . .
30.2(29) . . .
25.2(26) . . .
28.4(28) . . .
37.4(33) . . .
39.7(33) . . .
35.6(32) . . .
29.2(28) . . .
31.4(29) . . .
31.8(31) . . .
29.6(28) . . .
32.9(30) . . .
39.0(35) . . .
39(4) . . .
24.4(25) . . .
29.1(28) . . .
31.3(30) . . .
30.4(29) . . .
38(4) . . .
27.4(29) . . .
33.5(30) . . .
28.6(29) . . .
33.3(32) . . .
35.3(34) . . .
39(4) . . .
28.8(28) . . .
36.2(32) . . .
37.8(34) . . .
31.2(30) . . .
36.2(33) . . .
29.2(28) . . .
25.0(26) . . .
31.7(30) . . .
34.9(34) . . .
26.4(27) . . .
26.7(27) . . .
39.7(33) . . .
29.3(33) . . .
25.9(28) . . .
30.8(30) . . .
31.7(29) . . .
24.7(27) . . .
31.7(30) . . .
33.3(32) . . .
31.5(30) . . .
24.6(26) . . .
30.0(28) . . .
30.5(29) . . .
33.0(31) . . .
26.0(27) . . .
28.0(28) . . .
39.2(34) . . .
34.5(32) . . .
31.1(29) . . .
31.0(29) . . .
35.3(31) . . .
31.3(30) . . .
29.5(30) . . .
31.8(30) . . .
20.3(24) . . .
28.6(28) . . .
36.6(34) . . .
27.1(28) . . .
30.2(30) . . .
25.5(27) . . .
31.8(29) . . .
32.3(31) . . .
28.5(30) . . .
19.8(23) . . .
35.2(31) . . .
32.5(29) . . .
36.3(33) . . .
24.7(28) . . .
28.9(29) . . .
28.7(28) . . .
35.5(32) . . .
31.3(30) . . .
33.5(33) . . .
32.0(30) . . .
24.6(26) . . .
31.7(29) . . .
24.1(27) . . .
33.3(31) . . .
33.4(30) . . .
32.3(29) . . .
34.7(32) . . .
33.0(30) . . .
37(4) . . .
28.9(31) . . .
33.1(31) . . .
25.0(26) . . .
26.9(28) . . .
25.8(28) . . .
37.0(33) . . .
37.9(32) . . .
33.3(32) . . .
27.4(28) . . .
32.7(32) . . .
30.3(30) . . .
28.9(28) . . .
27.5(28) . . .
31.3(31) . . .
27.3(29) . . .
31.4(29) . . .
35.2(31) . . .
31.8(30) . . .
37.9(35) . . .
29.7(29) . . .
30.1(29) . . .
28.6(28) . . .
31.3(31) . . .
33.3(31) . . .
38(4) . . .
33.0(31) . . .
32.2(29) . . .
32.5(31) . . .
26.3(29) . . .
24.8(26) . . .
35.2(31) . . .
32.0(29) . . .
30.4(30) . . .
32.7(31) . . .
32.7(32) . . .
29.3(29) . . .
33.8(30) . . .
35.5(32) . . .
34.3(32) . . .
30.7(29) . . .
30.6(28) . . .
36.1(32) . . .
26.4(28) . . .
28.6(29) . . .
31.9(29) . . .
30.6(29) . . .
31.1(31) . . .
29.1(30) . . .
26.9(28) . . .
31.5(30) . . .
32.6(30) . . .
38.7(32) . . .
40.4(35) . . .
32.7(33) . . .
30.5(33) . . .
23.3(25) . . .
27.5(28) . . .
28.3(28) . . .
29.5(29) . . .
33.0(31) . . .
29.2(28) . . .
31.6(29) . . .
29.0(29) . . .
28.5(30) . . .
25.7(26) . . .
39.1(32) . . .
30.6(30) . . .
33.5(30) . . .
30.0(29) . . .
33.0(31) . . .
28.6(28) . . .
30.8(30) . . .
34.0(31) . . .
30.2(29) . . .
25.9(28) . . .
25.2(26) . . .
31.6(31) . . .
34.6(34) . . .
28.8(28) . . .
32.7(30) . . .
26.3(27) . . .
32.6(31) . . .
26.9(29) . . .
30.6(30) . . .
24.4(25) . . .
25.1(26) . . .
31.4(30) . . .
30.4(30) . . .
27.9(29) . . .
38.2(32) . . .
31.9(29) . . .
45(4) . . .
33.0(31) . . .
34.1(32) . . .
30.5(29) . . .
39.1(32) . . .
34.6(33) . . .
27.6(29) . . .
30.0(29) . . .
24.3(26) . . .
36.0(32) . . .
33.0(31) . . .
25.7(26) . . .
25.5(27) . . .
33.3(30) . . .
33.2(30) . . .
44(4) . . .
38(4) . . .
25.4(27) . . .
32.7(30) . . .
38.1(34) . . .
29.3(31) . . .
24.1(27) . . .
39.1(33) . . .
30.1(29) . . .
33.1(30) . . .
29.9(28) . . .
30.3(31) . . .
26.4(29) . . .
31.2(29) . . .
39.2(35) . . .
27.1(27) . . .
32.1(30) . . .
23.7(25) . . .
38.6(33) . . .
36.9(33) . . .
36.5(34) . . .
30.1(31) . . .
30.4(29) . . .
22.7(24) . . .
29.3(29) . . .
35.7(33) . . .
31.1(30) . . .
28.7(28) . . .
29.8(28) . . .
34.8(31) . . .
29.9(31) . . .
29.5(30) . . .
36.8(33) . . .
26.5(28) . . .
31.4(29) . . .
39.9(35) . . .
35.0(30) . . .
32.8(30) . . .
26.9(28) . . .
28.0(31) . . .
21.9(26) . . .
23.0(26) . . .
33.5(30) . . .
41(4) . . .
35.7(31) . . .
41(4) . . .
30.0(29) . . .
29.4(28) . . .
34.0(31) . . .
31.5(33) . . .
29.9(29) . . .
27.5(28) . . .
32.9(30) . . .
24.9(26) . . .
28.5(28) . . .
37.5(34) . . .
28.2(28) . . .
29.2(28) . . .
28.2(29) . . .
28.5(31) . . .
29.3(30) . . .
38.4(32) . . .
33.8(30) . . .
36.3(32) . . .
35.5(33) . . .
41(4) . . .
34.1(32) . . .
33.3(30) . . .
28.8(29) . . .
35.0(33) . . .
35.2(31) . . .
41.5(34) . . .
35.3(30) . . .
36.2(34) . . .
30.6(31) . . .
28.7(28) . . .
37.4(32) . . .
31.5(29) . . .
35.3(31) . . .
37.9(35) . . .
30.2(30) . . .
33.8(30) . . .
28.2(28) . . .
23.6(25) . . .
32.1(31) . . .
31.6(30) . . .
32.5(29) . . .
34.6(31) . . .
38.0(35) . . .
31.6(29) . . .
38(4) . . .
27.9(28) . . .
25.5(26) . . .
31.0(30) . . .
30.7(30) . . .
26.9(28) . . .
33.9(30) . . .
27.2(28) . . .
26.6(27) . . .
36.3(33) . . .
31.0(29) . . .
30.1(28) . . .
35.8(33) . . .
40.2(34) . . .
31.9(29) . . .
35.7(33) . . .
29.3(28) . . .
40(4) . . .
34.7(33) . . .
28.8(30) . . .
35.5(32) . . .
36.1(31) . . .
37(4) . . .
28.3(28) . . .
40.2(35) . . .
33.5(31) . . .
31.6(29) . . .
27.1(28) . . .
25.6(26) . . .
39.1(33) . . .
28.7(28) . . .
25.0(26) . . .
23.0(25) . . .
28.6(31) . . .
34.7(32) . . .
33.4(30) . . .
33.8(30) . . .
28.1(31) . . .
26.8(31) . . .
37.0(33) . . .
28.6(28) . . .
26.3(27) . . .
32.9(32) . . .
34.2(33) . . .
34.9(33) . . .
32.6(30) . . .
28.5(28) . . .
29.0(32) . . .
28.8(31) . . .
32(4) . . .
26.8(27) . . .
38.0(33) . . .
29.4(29) . . .
29.8(28) . . .
36.4(34) . . .
26.0(27) . . .
34.5(30) . . .
39.9(34) . . .
28.0(28) . . .
24.6(26) . . .
32.2(29) . . .
33.4(31) . . .
34.9(32) . . .
27.8(29) . . .
35.9(33) . . .
23.5(26) . . .
27.7(29) . . .
34.0(32) . . .
38.4(34) . . .
35.6(31) . . .
36.4(32) . . .
26.7(28) . . .
38(4) . . .
38.0(35) . . .
35.3(32) . . .
33.4(30) . . .
28.0(31) . . .
27.8(30) . . .
28.6(29) . . .
26.2(26) . . .
39.8(33) . . .
27.5(27) . . .
29.8(30) . . .
31.8(30) . . .
29.5(28) . . .
33.7(30) . . .
34.9(33) . . .
32.1(31) . . .
33.6(32) . . .
32.1(29) . . .
40.6(33) . . .
38.5(34) . . .
31.5(32) . . .
34.2(31) . . .
33.6(30) . . .
31.7(29) . . .
30.2(30) . . .
32.9(32) . . .
38.3(34) . . .
26.6(26) . . .
35.4(31) . . .
29.3(29) . . .
30.9(30) . . .
32.1(29) . . .
34.9(31) . . .
34.7(31) . . .
40(4) . . .
32.6(31) . . .
33.4(31) . . .
26.4(27) . . .
25.8(26) . . .
29.5(29) . . .
31.7(31) . . .
34.7(33) . . .
31.8(30) . . .
38.6(34) . . .
30.5(29) . . .
37(4) . . .
25.6(30) . . .
30.5(29) . . .
31.3(30) . . .
33.8(33) . . .
24.0(25) . . .
25.3(26) . . .
32.2(30) . . .
33.8(32) . . .
26.5(28) . . .
29.5(29) . . .
33.6(31) . . .
29.0(28) . . .
32.8(30) . . .
32.5(31) . . .
33.6(32) . . .
25.7(28) . . .
32.9(30) . . .
34.6(31) . . .
33.0(33) . . .
38.2(34) . . .
34.2(31) . . .
27.5(27) . . .
28.0(27) . . .
28.7(27) . . .
32.5(31) . . .
30.6(29) . . .
24.4(26) . . .
38.6(35) . . .
35(4) . . .
26.8(27) . . .
24.3(26) . . .
31.5(30) . . .
28.0(28) . . .
29.3(30) . . .
36(4) . . .
26.5(27) . . .
23.2(25) . . .
35.7(32) . . .
24.3(26) . . .
26.5(28) . . .
30.5(29) . . .
29.4(29) . . .
30.2(30) . . .
30.6(31) . . .
33.2(32) . . .
33.8(30) . . .
27.9(28) . . .
34.7(32) . . .
30.9(33) . . .
22.4(26) . . .
43.1(35) . . .
39.2(32) . . .
28.1(28) . . .
27.9(29) . . .
28.8(28) . . .
28.4(28) . . .
29.4(30) . . .
32.5(33) . . .
27.0(26) . . .
29.6(28) . . .
31.7(29) . . .
28.9(28) . . .
33.9(32) . . .
31.3(30) . . .
34.9(31) . . .
34.9(31) . . .
34.2(34) . . .
25.5(28) . . .
36.9(33) . . .
37.4(33) . . .
33.0(31) . . .
24.3(26) . . .
32.1(31) . . .
33.2(31) . . .
37.3(32) . . .
33.3(30) . . .
33.0(31) . . .
26.4(28) . . .
32.4(30) . . .
33.6(31) . . .
24.2(26) . . .
31.9(32) . . .
32.5(32) . . .
35.0(32) . . .
36.5(31) . . .
30.3(30) . . .
27.3(26) . . .
40.1(35) . . .
32.6(30) . . .
33.3(31) . . .
35.7(31) . . .
34.5(33) . . .
29.1(30) . . .
30.3(30) . . .
24.5(26) . . .
31.3(29) . . .
35.2(33) . . .
37.5(33) . . .
40(4) . . .
38.9(33) . . .
25.5(27) . . .
33.2(31) . . .
32.8(31) . . .
30.9(31) . . .
26.3(26) . . .
28.1(28) . . .
37.2(35) . . .
34.3(33) . . .
33.2(30) . . .
38.1(32) . . .
35.7(34) . . .
28.5(28) . . .
34.7(33) . . .
18.9(23) . . .
33.6(31) . . .
35.2(32) . . .
24.3(28) . . .
24.3(26) . . .
30.5(29) . . .
25.0(26) . . .
29.5(30) . . .
23.7(26) . . .
32.3(31) . . .
33.7(31) . . .
44(4) . . .
43(4) . . .
25.2(25) . . .
29.2(29) . . .
32.4(30) . . .
35.1(31) . . .
33.6(31) . . .
24.6(27) . . .
32.6(31) . . .
30.8(29) . . .
21.6(24) . . .
24.7(25) . . .
31.5(30) . . .
31.8(31) . . .
24.4(26) . . .
25.6(28) . . .
26.7(27) . . .
40.2(35) . . .
34.6(32) . . .
31.0(29) . . .
36.0(32) . . .
32.8(33) . . .
26.3(29) . . .
31.3(31) . . .
24.6(26) . . .
29.9(30) . . .
36.6(35) . . .
41.1(34) . . .
33.2(31) . . .
34.2(30) . . .
25.3(27) . . .
40(4) . . .
35.6(32) . . .
25.8(27) . . .
29.8(28) . . .
28.7(29) . . .
34.5(32) . . .
33.8(31) . . .
32.0(30) . . .
40.5(33) . . .
24.9(26) . . .
24.3(28) . . .
23.9(27) . . .
31.4(30) . . .
33.9(30) . . .
31.0(28) . . .
39(4) . . .
33.2(32) . . .
28.4(28) . . .
27.5(27) . . .
29.3(30) . . .
32.8(33) . . .
35.4(31) . . .
29.9(28) . . .
26.0(27) . . .
28.0(28) . . .
42(4) . . .
23.1(25) . . .
28.8(29) . . .
28.9(28) . . .
18.9(22) . . .
25.4(28) . . .
32.1(32) . . .
25.1(26) . . .
28.4(28) . . .
30.8(29) . . .
32.3(31) . . .
34.8(31) . . .
31.5(29) . . .
29.8(29) . . .
45(4) . . .
38(4) . . .
28.6(28) . . .
32.0(30) . . .
33.3(31) . . .
36.2(32) . . .
32.7(31) . . .
24.7(28) . . .
29.8(29) . . .
25.1(26) . . .
31.2(31) . . .
31.0(32) . . .
28.6(30) . . .
27.7(27) . . .
36.5(35) . . .
24.6(26) . . .
29.7(30) . . .
25.2(27) . . .
22.3(25) . . .
31.6(30) . . .
31.7(32) . . .
35.3(33) . . .
24.9(26) . . .
37.3(31) . . .
35.6(31) . . .
33.6(30) . . .
30.2(30) . . .
36.8(32) . . .
42.0(33) . . .
35.5(31) . . .
28.4(29) . . .
32.1(31) . . .
35.1(30) . . .
39.3(34) . . .
32.2(29) . . .
31.4(31) . . .
27.5(27) . . .
38.5(33) . . .
28.3(28) . . .
40.0(35) . . .
34.7(33) . . .
33.8(33) . . .
31.6(30) . . .
24.6(26) . . .
35.9(33) . . .
34.8(33) . . .
27.7(28) . . .
26.1(27) . . .
34.4(31) . . .
30.5(32) . . .
26.1(27) . . .
29.9(31) . . .
32.3(30) . . .
35.3(34) . . .
30.7(31) . . .
28.0(30) . . .
29.1(28) . . .
36.1(32) . . .
37.6(34) . . .
42(4) . . .
37.1(32) . . .
33.8(31) . . .
33.6(31) . . .
27.3(27) . . .
32.3(31) . . .
34.8(32) . . .
26.6(27) . . .
31.1(30) . . .
30.5(30) . . .
34.5(34) . . .
32.2(31) . . .
27.9(28) . . .
29.7(29) . . .
29.7(30) . . .
28.3(29) . . .
29.6(29) . . .
29.5(29) . . .
32.9(30) . . .
34.1(32) . . .
27.7(28) . . .
33.5(30) . . .
28.2(28) . . .
22.6(25) . . .
36.5(33) . . .
28.1(28) . . .
34.1(31) . . .
31.6(30) . . .
30.9(29) . . .
26.0(27) . . .
26.5(30) . . .
31.3(33) . . .
28.9(28) . . .
33.4(32) . . .
31.1(30) . . .
29.9(29) . . .
26.4(29) . . .
26.2(26) . . .
31.2(29) . . .
36.5(35) . . .
26.0(28) . . .
35.9(34) . . .
39.4(33) . . .
33.6(31) . . .
31.6(31) . . .
37.9(35) . . .
28.5(29) . . .
31.7(29) . . .
30.4(29) . . .
35.3(34) . . .
31.8(31) . . .
32.9(31) . . .
32.6(30) . . .
28.8(28) . . .
30.1(30) . . .
26.9(30) . . .
26.5(27) . . .
26.6(28) . . .
48(4) . . .
30.9(29) . . .
29.2(29) . . .
35.6(31) . . .
34.5(31) . . .
31.3(32) . . .
32.1(31) . . .
27.1(28) . . .
27.4(27) . . .
21.2(24) . . .
29.3(33) . . .
34.3(33) . . .
33.9(31) . . .
30.8(29) . . .
39.3(32) . . .
37.3(34) . . .
26.0(28) . . .
31.7(30) . . .
26.9(27) . . .
33.1(30) . . .
32.1(32) . . .
28.8(30) . . .
26.2(27) . . .
29.2(28) . . .
36.3(33) . . .
27.1(29) . . .
27.3(29) . . .
35.8(32) . . .
27.2(27) . . .
28.2(27) . . .
25.2(27) . . .
33.9(32) . . .
37.2(33) . . .
37.1(32) . . .
39.9(35) . . .
26.1(29) . . .
25.0(28) . . .
26.5(28) . . .
23.5(25) . . .
31.6(30) . . .
28.4(28) . . .
31.0(31) . . .
31.3(30) . . .
26.7(27) . . .
29.4(32) . . .
39.9(34) . . .
36.7(31) . . .
35.7(31) . . .
39.3(33) . . .
36.0(33) . . .
40(4) . . .
32.0(31) . . .
38.5(32) . . .
32.6(30) . . .
30.7(31) . . .
30.9(31) . . .
30.6(31) . . .
31.1(29) . . .
30.2(28) . . .
26.9(28) . . .
36.1(35) . . .
29.0(28) . . .
34.1(31) . . .
31.0(30) . . .
41(4) . . .
30.3(30) . . .
32.4(30) . . .
27.1(27) . . .
25.1(27) . . .
34.3(32) . . .
30.2(29) . . .
35.2(31) . . .
36.9(32) . . .
31.3(29) . . .
38.6(34) . . .
29.3(31) . . .
27.4(29) . . .
32.6(31) . . .
33.3(30) . . .
31.4(32) . . .
22.8(26) . . .
29.7(30) . . .
32.0(30) . . .
29.2(29) . . .
33.5(32) . . .
37.5(34) . . .
28.4(28) . . .
39.2(33) . . .
31.3(29) . . .
36.0(33) . . .
31.5(29) . . .
34.0(32) . . .
33.7(30) . . .
29.5(29) . . .
29.8(30) . . .
33.5(31) . . .
34.9(31) . . .
23.8(25) . . .
35.2(32) . . .
32.2(30) . . .
37.4(35) . . .
30.2(29) . . .
29.8(29) . . .
37.2(33) . . .
37.0(33) . . .
36.0(33) . . .
33.7(30) . . .
30.8(29) . . .
28.7(27) . . .
34.6(33) . . .
31.5(29) . . .
26.0(28) . . .
38.0(32) . . .
23.9(26) . . .
24.3(29) . . .
27.2(28) . . .
29.3(29) . . .
27.1(27) . . .
31.3(29) . . .
28.2(30) . . .
30.5(32) . . .
30.7(29) . . .
33.2(30) . . .
32.8(32) . . .
36.8(34) . . .
31.3(32) . . .
27.8(27) . . .
29.8(29) . . .
26.9(32) . . .
31.0(33) . . .
32.6(32) . . .
29.0(28) . . .
30.0(29) . . .
37.6(34) . . .
36.1(34) . . .
26.0(27) . . .
23.8(25) . . .
25.5(26) . . .
31.1(29) . . .
32.3(32) . . .
35.9(32) . . .
36.5(32) . . .
26.6(26) . . .
30.5(30) . . .
28.6(28) . . .
30.4(29) . . .
36.7(32) . . .
36.3(34) . . .
33.4(32) . . .
31.5(32) . . .
32.3(30) . . .
25.4(26) . . .
39.8(34) . . .
32.3(30) . . .
32.2(32) . . .
33.0(30) . . .
28.9(28) . . .
29.8(29) . . .
31.6(31) . . .
30.9(29) . . .
28.6(27) . . .
41.7(33) . . .
33.4(32) . . .
25.7(29) . . .
29.2(30) . . .
27.2(27) . . .
32.0(30) . . .
35.5(32) . . .
28.1(29) . . .
28.1(28) . . .
25.3(26) . . .
33.4(31) . . .
40.6(33) . . .
31.6(30) . . .
28.3(28) . . .
38.7(33) . . .
35.2(32) . . .
43.9(35) . . .
31.5(30) . . .
30.8(30) . . .
31.4(29) . . .
27.0(27) . . .
33.0(31) . . .
28.1(30) . . .
29.2(29) . . .
26.9(27) . . .
24.6(26) . . .
30.9(30) . . .
34.9(31) . . .
34.5(31) . . .
29.6(28) . . .
35.2(33) . . .
35.9(34) . . .
26.9(28) . . .
25.2(26) . . .
32.8(30) . . .
30.5(31) . . .
34.4(33) . . .
44(4) . . .
24.7(26) . . .
29.0(28) . . .
31.1(29) . . .
32.3(31) . . .
32.7(30) . . .
34.0(32) . . .
31.1(29) . . .
27.3(27) . . .
30.7(34) . . .
32.1(32) . . .
32.9(30) . . .
35.3(32) . . .
29.0(30) . . .
33.6(32) . . .
31.5(29) . . .
22.8(25) . . .
25.6(26) . . .
26.6(28) . . .
29.5(31) . . .
32.0(32) . . .
27.0(27) . . .
31.2(29) . . .
30.3(29) . . .
31.3(31) . . .
30.2(29) . . .
33.9(30) . . .
33.0(30) . . .
31.8(29) . . .
38.8(34) . . .
28.7(28) . . .
28.7(29) . . .
28.9(28) . . .
26.6(29) . . .
28.9(30) . . .
28.9(30) . . .
27.9(28) . . .
23.1(25) . . .
28.8(29) . . .
32.9(29) . . .
29.7(29) . . .
31.2(29) . . .
44(4) . . .
32.0(30) . . .
32.2(30) . . .
24.9(26) . . .
29.7(29) . . .
29.4(31) . . .
32.6(32) . . .
26.9(27) . . .
28.3(28) . . .
33.4(31) . . .
30.7(30) . . .
33.2(33) . . .
34.9(32) . . .
33.2(30) . . .
31.3(29) . . .
31.9(31) . . .
25.4(27) . . .
33.2(31) . . .
30.1(29) . . .
33.2(30) . . .
27.4(28) . . .
25.3(28) . . .
27.1(29) . . .
34.3(31) . . .
36.3(32) . . .
28.4(29) . . .
34(4) . . .
26.1(28) . . .
30.2(29) . . .
41.1(33) . . .
35.3(32) . . .
31.4(31) . . .
32.3(31) . . .
33.7(30) . . .
32.1(29) . . .
30.0(28) . . .
33.1(32) . . .
30.7(31) . . .
33.9(30) . . .
25.7(27) . . .
32.8(31) . . .
33.0(31) . . .
29.0(30) . . .
19.8(23) . . .
29.2(29) . . .
26.8(28) . . .
28.4(29) . . .
37.4(35) . . .
31.1(29) . . .
30.6(29) . . .
25.3(27) . . .
31.1(30) . . .
33.4(32) . . .
27.7(27) . . .
29.4(30) . . .
26.1(27) . . .
27.4(29) . . .
28.5(29) . . .
29.0(28) . . .
25.8(27) . . .
38(4) . . .
24.1(26) . . .
23.0(26) . . .
34.8(31) . . .
26.5(27) . . .
30.1(32) . . .
28.2(28) . . .
28.0(29) . . .
32.2(30) . . .
17.9(22) . . .
27.7(29) . . .
30.2(30) . . .
32.1(31) . . .
26.8(28) . . .
28.7(28) . . .
30.2(30) . . .
27.8(28) . . .
30.3(29) . . .
29.6(28) . . .
27.8(29) . . .
29.4(30) . . .
30.3(32) . . .
36.7(32) . . .
28.8(28) . . .
35.1(33) . . .
33.4(31) . . .
34.8(33) . . .
33.8(30) . . .
30.6(30) . . .
31.3(30) . . .
39.4(35) . . .
31.5(30) . . .
27.8(28) . . .
33.1(31) . . .
28.5(30) . . .
27.9(28) . . .
31.7(31) . . .
25.7(26) . . .
29.7(29) . . .
32.5(31) . . .
33.0(32) . . .
27.8(28) . . .
30.9(29) . . .
29.3(28) . . .
31.5(32) . . .
25.4(28) . . .
29.1(30) . . .
21.7(25) . . .
27.1(28) . . .
29.8(30) . . .
30.8(30) . . .
25.1(26) . . .
24.5(26) . . .
38.5(34) . . .
23.2(25) . . .
31.3(32) . . .
29.2(30) . . .
35.8(31) . . .
27.1(29) . . .
28.8(31) . . .
27.7(27) . . .
30.1(28) . . .
34.5(30) . . .
30.8(29) . . .
29.8(31) . . .
24.3(26) . . .
32.7(31) . . .
38.5(33) . . .
33.7(31) . . .
29.2(32) . . .
29.9(31) . . .
35.7(31) . . .
36.3(32) . . .
32.3(32) . . .
25.4(30) . . .
25.0(28) . . .
27.9(28) . . .
24.8(28) . . .
26.8(28) . . .
32.5(32) . . .
27.9(29) . . .
31.8(29) . . .
28.5(29) . . .
27.9(28) . . .
30.3(32) . . .
26.8(28) . . .
35.5(32) . . .
31.3(29) . . .
23.3(25) . . .
26.3(29) . . .
28.5(29) . . .
33.1(30) . . .
28.9(28) . . .
21.8(23) . . .
34.9(32) . . .
31.5(30) . . .
27.3(27) . . .
22.9(25) . . .
33(4) . . .
26.4(26) . . .
34.7(32) . . .
33.8(30) . . .
25.1(28) . . .
32.9(34) . . .
31.5(31) . . .
24.6(26) . . .
22.1(25) . . .
26.5(27) . . .
31.4(31) . . .
26.7(27) . . .
33.7(30) . . .
32.1(29) . . .
36.0(32) . . .
34.8(34) . . .
32.9(31) . . .
31.0(30) . . .
43.5(34) . . .
39.0(33) . . .
30.5(30) . . .
25.9(27) . . .
28.4(28) . . .
36.7(31) . . .
33.0(31) . . .
33.7(32) . . .
30.4(31) . . .
38.5(34) . . .
36.2(32) . . .
27.2(28) . . .
22.8(27) . . .
29.6(31) . . .
27.9(28) . . .
33.3(31) . . .
26.3(27) . . .
38(4) . . .
31.3(30) . . .
33.9(31) . . .
34.4(30) . . .
28.6(28) . . .
27.9(27) . . .
33.0(32) . . .
39.9(33) . . .
37.0(32) . . .
27.2(29) . . .
34.0(34) . . .
26.5(27) . . .
32.5(30) . . .
40.9(34) . . .
29.7(31) . . .
26.5(29) . . .
32.8(30) . . .
30.8(29) . . .
30.7(29) . . .
35.4(32) . . .
21.0(23) . . .
30.7(30) . . .
30.0(28) . . .
27.7(28) . . .
36.7(34) . . .
30.9(30) . . .
23.6(26) . . .
24.8(26) . . .
30.2(30) . . .
30.3(30) . . .
31.7(30) . . .
31.2(30) . . .
36.4(31) . . .
28.0(29) . . .
36.1(35) . . .
35.8(33) . . .
22.8(26) . . .
23.6(25) . . .
37.4(32) . . .
31.0(31) . . .
19.4(24) . . .
26.9(27) . . .
40.4(34) . . .
24.9(26) . . .
35(4) . . .
22.6(26) . . .
30.1(28) . . .
35.6(31) . . .
31.0(31) . . .
35.4(34) . . .
30.9(30) . . .
30.8(29) . . .
30.0(28) . . .
33.0(30) . . .
31.7(31) . . .
26.0(28) . . .
31.1(30) . . .
34.2(32) . . .
28.9(32) . . .
27.3(30) . . .
27.3(30) . . .
29.3(29) . . .
30.7(29) . . .
39(4) . . .
29.1(30) . . .
31.6(30) . . .
29.2(28) . . .
34.4(31) . . .
29.4(29) . . .
29.9(29) . . .
36.8(31) . . .
31.6(29) . . .
30.5(30) . . .
38(4) . . .
35.6(34) . . .
28.8(28) . . .
38.1(32) . . .
30.4(32) . . .
37(4) . . .
25.1(25) . . .
25.0(26) . . .
42.2(34) . . .
26.8(28) . . .
26.5(29) . . .
37.9(35) . . .
32.7(31) . . .
36.7(31) . . .
30.8(30) . . .
31.5(34) . . .
20.7(24) . . .
25.1(26) . . .
26.7(27) . . .
34.6(32) . . .
22.5(26) . . .
21.5(25) . . .
25.3(26) . . .
24.8(26) . . .
29.8(30) . . .
28.6(30) . . .
33.1(33) . . .
38.4(33) . . .
31.6(29) . . .
35.1(31) . . .
28.6(29) . . .
33.3(31) . . .
29.5(28) . . .
28.9(28) . . .
31.0(31) . . .
28.2(29) . . .
34.0(31) . . .
29.2(28) . . .
28.9(29) . . .
30.5(30) . . .
28.5(29) . . .
31.8(29) . . .
29.2(28) . . .
39.4(34) . . .
33.2(31) . . .
30.6(30) . . .
34.9(32) . . .
35.3(31) . . .
26.8(30) . . .
34.2(32) . . .
33.1(31) . . .
29.0(29) . . .
19.6(23) . . .
28.8(28) . . .
23.5(25) . . .
36.5(32) . . .
34.9(31) . . .
24.4(25) . . .
28.2(28) . . .
32.6(31) . . .
28.5(28) . . .
29.3(28) . . .
31.7(29) . . .
29.3(30) . . .
22.5(25) . . .
32.9(32) . . .
34.5(31) . . .
34.2(30) . . .
30.5(29) . . .
26.1(28) . . .
24.7(26) . . .
27.3(27) . . .
33.9(30) . . .
35.3(33) . . .
30.9(30) . . .
27.9(29) . . .
26.8(27) . . .
30.6(29) . . .
28.3(27) . . .
33.5(32) . . .
30.5(30) . . .
33.0(29) . . .
27.0(27) . . .
32.6(31) . . .
30.5(32) . . .
29.8(29) . . .
35.5(31) . . .
32.6(30) . . .
33.8(32) . . .
30.5(31) . . .
23.1(25) . . .
34.7(31) . . .
32.3(30) . . .
34.0(32) . . .
32.9(32) . . .
26.5(27) . . .
33.4(31) . . .
42(4) . . .
37.7(34) . . .
28.6(29) . . .
32.7(31) . . .
37.9(32) . . .
30.4(30) . . .
27.8(29) . . .
37.7(31) . . .
33.7(30) . . .
31.2(30) . . .
29.2(30) . . .
26.8(31) . . .
33.2(33) . . .
27.6(28) . . .
28.2(28) . . .
30.0(29) . . .
35.3(34) . . .
32.6(33) . . .
33.5(30) . . .
21.8(24) . . .
31.2(29) . . .
26.9(28) . . .
35.3(32) . . .
26.4(27) . . .
28.8(29) . . .
27.9(27) . . .
34.4(35) . . .
33.0(31) . . .
27.0(27) . . .
29.6(29) . . .
33.9(31) . . .
25.7(26) . . .
30.8(29) . . .
19.8(23) . . .
25.8(26) . . .
23.9(27) . . .
29.4(30) . . .
33.2(31) . . .
28.2(28) . . .
29.8(28) . . .
32.1(31) . . .
24.2(27) . . .
19.4(23) . . .
32.3(30) . . .
30.2(29) . . .
31.9(32) . . .
27.3(27) . . .
28.4(27) . . .
29.6(28) . . .
23.8(25) . . .
32.1(31) . . .
27.8(28) . . .
33.8(31) . . .
22.4(25) . . .
31.0(31) . . .
34.0(34) . . .
35.0(33) . . .
35.6(31) . . .
37.3(32) . . .
35.5(32) . . .
27.8(30) . . .
31.2(30) . . .
32.8(30) . . .
29.7(29) . . .
30.3(30) . . .
34.8(34) . . .
28.9(29) . . .
39.5(33) . . .
29.9(30) . . .
32.2(32) . . .
26.3(28) . . .
27.4(28) . . .
35.5(32) . . .
27.7(28) . . .
30.8(29) . . .
33.8(31) . . .
35.3(32) . . .
29.5(29) . . .
23.1(26) . . .
28.0(29) . . .
37(4) . . .
25.5(28) . . .
30.8(29) . . .
24.8(28) . . .
28.1(28) . . .
40(4) . . .
30.5(29) . . .
33.1(30) . . .
28.2(27) . . .
31.8(30) . . .
35.7(34) . . .
34.6(32) . . .
31.1(29) . . .
30.3(31) . . .
30.5(30) . . .
37.3(34) . . .
27.9(30) . . .
30.6(29) . . .
37.8(33) . . .
25.2(26) . . .
32.7(31) . . .
37.5(33) . . .
29.7(28) . . .
28.4(28) . . .
33.7(31) . . .
41(4) . . .
35.3(33) . . .
27.9(28) . . .
27.3(28) . . .
27.5(29) . . .
27.8(27) . . .
31.0(29) . . .
23.9(26) . . .
31.7(32) . . .
37(4) . . .
27.4(27) . . .
35.3(31) . . .
34.6(30) . . .
27.2(29) . . .
26.9(29) . . .
26.1(27) . . .
31.0(30) . . .
30.4(29) . . .
34.8(31) . . .
34.7(34) . . .
34.5(31) . . .
38.1(32) . . .
31.0(31) . . .
31.7(30) . . .
34.3(31) . . .
35.8(33) . . .
27.8(28) . . .
33.5(30) . . .
31.5(31) . . .
25.3(29) . . .
23.0(26) . . .
34.2(30) . . .
36.9(32) . . .
34(4) . . .
33.1(33) . . .
28.7(29) . . .
27.3(28) . . .
33.5(33) . . .
41(4) . . .
27.3(27) . . .
32.8(32) . . .
36.6(32) . . .
30.0(29) . . .
28.0(30) . . .
36.9(34) . . .
30.7(29) . . .
43.2(34) . . .
23.8(25) . . .
31.7(32) . . .
27.1(28) . . .
27.4(27) . . .
37.0(32) . . .
32.6(31) . . .
36.2(34) . . .
29.2(28) . . .
30.1(30) . . .
27.2(27) . . .
25.0(27) . . .
30.7(33) . . .
28.3(28) . . .
26.7(27) . . .
24.4(26) . . .
36.0(32) . . .
36.3(34) . . .
27.8(28) . . .
28.5(28) . . .
30.8(29) . . .
23.8(25) . . .
35.0(34) . . .
30.5(29) . . .
34.2(30) . . .
30.4(28) . . .
29.8(31) . . .
27.6(32) . . .
32.7(30) . . .
36.8(32) . . .
33.5(30) . . .
27.6(29) . . .
26.7(28) . . .
30.2(30) . . .
30.1(29) . . .
29.8(29) . . .
30.6(30) . . .
34.6(31) . . .
31.8(30) . . .
27.4(27) . . .
30.5(28) . . .
30.0(29) . . .
32.7(31) . . .
29.4(29) . . .
28.4(28) . . .
35.9(33) . . .
28.5(28) . . .
35.2(33) . . .
28.1(27) . . .
24.2(26) . . .
32.6(31) . . .
29.5(29) . . .
33.5(30) . . .
37.5(32) . . .
32.9(30) . . .
35.0(33) . . .
24.0(25) . . .
29.1(28) . . .
30.2(28) . . .
30.2(29) . . .
28.0(28) . . .
29.7(32) . . .
29.8(30) . . .
32.2(29) . . .
29.4(29) . . .
34.6(33) . . .
27.0(28) . . .
33.4(31) . . .
29.8(28) . . .
29.4(28) . . .
27.5(28) . . .
28.3(28) . . .
30.1(29) . . .
28.1(27) . . .
28.2(28) . . .
30.1(29) . . .
32.6(32) . . .
33.0(30) . . .
28.6(28) . . .
24.8(26) . . .
27.5(28) . . .
34.8(33) . . .
32.8(30) . . .
32.2(29) . . .
21.7(25) . . .
26.6(30) . . .
24.7(30) . . .
27.9(27) . . .
29.2(28) . . .
32.8(30) . . .
22.4(25) . . .
32.2(33) . . .
29.1(29) . . .
32.7(29) . . .
25.2(30) . . .
28.1(30) . . .
36.7(33) . . .
28.4(28) . . .
34.7(30) . . .
34.6(31) . . .
25.9(28) . . .
31.7(31) . . .
37.6(32) . . .
37.3(32) . . .
27.4(28) . . .
28.1(29) . . .
24.1(26) . . .
32.1(29) . . .
32.4(29) . . .
29.5(29) . . .
35.0(32) . . .
31.4(30) . . .
23.5(26) . . .
30.6(29) . . .
30.0(29) . . .
26.0(29) . . .
27.3(28) . . .
30.3(28) . . .
29.4(28) . . .
21.8(24) . . .
23.5(26) . . .
33.2(31) . . .
33.0(31) . . .
28.8(27) . . .
31.6(29) . . .
35.5(34) . . .
24.8(27) . . .
35.9(30) . . .
35.9(32) . . .
29.0(29) . . .
36(4) . . .
32.7(31) . . .
25.0(27) . . .
36.1(33) . . .
40(4) . . .
29.8(31) . . .
28.5(29) . . .
31.1(29) . . .
26.7(29) . . .
31.2(30) . . .
28.8(30) . . .
25.1(28) . . .
27.0(27) . . .
30.4(30) . . .
32.7(31) . . .
31.8(30) . . .
30.9(31) . . .
31.4(29) . . .
27.1(29) . . .
26.6(28) . . .
38(4) . . .
38.1(34) . . .
29.5(28) . . .
28.1(28) . . .
34.4(32) . . .
35.8(33) . . .
37.1(32) . . .
32.6(29) . . .
34.9(34) . . .
38.7(34) . . .
26.3(27) . . .
27.7(27) . . .
32.4(30) . . .
30.3(30) . . .
33.9(32) . . .
32.6(31) . . .
38.9(32) . . .
27.2(28) . . .
26.3(27) . . .
29.9(32) . . .
32.2(31) . . .
32.7(30) . . .
25.2(27) . . .
24.6(26) . . .
26.1(28) . . .
25.4(27) . . .
29.8(29) . . .
28.2(28) . . .
29.9(28) . . .
32.4(31) . . .
31.3(30) . . .
28.7(28) . . .
32.1(29) . . .
29.8(29) . . .
18.7(22) . . .
24.0(26) . . .
34.9(30) . . .
34.9(32) . . .
31.2(30) . . .
31.9(32) . . .
27.9(28) . . .
35.3(31) . . .
33.5(32) . . .
24.4(27) . . .
31.8(30) . . .
39.6(33) . . .
30.1(28) . . .
26.1(27) . . .
39(4) . . .
33.9(32) . . .
30.3(29) . . .
34.3(31) . . .
27.8(33) . . .
28.6(30) . . .
41(4) . . .
33.1(31) . . .
32.2(29) . . .
29.7(29) . . .
45(4) . . .
31.6(30) . . .
31.5(30) . . .
35.7(31) . . .
25.6(27) . . .
27.9(29) . . .
26.3(28) . . .
30.5(28) . . .
26.8(27) . . .
21.4(25) . . .
28.1(30) . . .
29.8(28) . . .
31.2(29) . . .
34.6(31) . . .
35.4(32) . . .
26.7(28) . . .
36.4(33) . . .
31.3(29) . . .
31.8(29) . . .
27.6(27) . . .
32.5(33) . . .
29.6(29) . . .
27.1(27) . . .
32.9(30) . . .
30.3(28) . . .
32.6(33) . . .
35.8(34) . . .
36.8(31) . . .
26.9(27) . . .
32.4(32) . . .
28.1(28) . . .
28.3(28) . . .
27.4(27) . . .
30.9(30) . . .
26.0(30) . . .
30.8(31) . . .
28.6(27) . . .
27.5(27) . . .
38.5(33) . . .
33.6(32) . . .
30.6(30) . . .
27.1(29) . . .
25.3(26) . . .
29.3(30) . . .
32.1(31) . . .
25.5(28) . . .
24.0(26) . . .
32.9(30) . . .
33.7(31) . . .
26.9(29) . . .
25.0(29) . . .
29.0(28) . . .
29.9(29) . . .
32.3(31) . . .
24.2(27) . . .
31.0(29) . . .
29.9(28) . . .
27.1(27) . . .
24.9(27) . . .
33.4(34) . . .
31.7(30) . . .
25.9(26) . . .
33.6(30) . . .
39.4(32) . . .
35.7(32) . . .
38.0(33) . . .
27.6(28) . . .
34.1(30) . . .
31.0(29) . . .
29.2(30) . . .
36(4) . . .
21.9(25) . . .
36.4(33) . . .
31.0(31) . . .
28.0(30) . . .
35.2(32) . . .
30.4(29) . . .
25.4(27) . . .
36.4(34) . . .
23.6(25) . . .
22.6(28) . . .
25.5(26) . . .
34.3(32) . . .
28.3(28) . . .
26.6(27) . . .
27.0(28) . . .
36.0(31) . . .
35.0(31) . . .
26.8(28) . . .
32.6(33) . . .
33.0(31) . . .
29.6(28) . . .
31.6(30) . . .
31.3(30) . . .
27.9(28) . . .
26.3(27) . . .
27.9(27) . . .
35.2(33) . . .
26.7(28) . . .
27.8(29) . . .
25.1(26) . . .
34.6(30) . . .
30.8(30) . . .
30.8(30) . . .
26.4(28) . . .
28.4(28) . . .
25.7(26) . . .
34.2(32) . . .
24.1(27) . . .
23.7(26) . . .
33.6(31) . . .
32.5(29) . . .
31.9(30) . . .
25.6(29) . . .
30.1(30) . . .
33.4(30) . . .
27.2(28) . . .
29.4(30) . . .
26.3(29) . . .
28.1(28) . . .
37.0(32) . . .
26.0(28) . . .
34.0(31) . . .
26.8(28) . . .
33.7(31) . . .
28.8(28) . . .
31.3(31) . . .
28.0(31) . . .
27.1(30) . . .
30.1(29) . . .
33.3(30) . . .
33.5(30) . . .
33.6(31) . . .
30.4(29) . . .
39.1(33) . . .
28.8(28) . . .
37.4(34) . . .
32.8(31) . . .
33.8(32) . . .
32.1(30) . . .
28.1(28) . . .
30.6(30) . . .
32.0(29) . . .
34.3(34) . . .
31.3(31) . . .
39.1(33) . . .
27.1(28) . . .
23.0(26) . . .
32.0(33) . . .
27.8(28) . . .
30.4(29) . . .
33(4) . . .
27.0(27) . . .
28.8(30) . . .
34.0(31) . . .
32.9(31) . . .
32.2(31) . . .
32.5(31) . . .
36.3(33) . . .
25.6(26) . . .
28.4(28) . . .
31.8(33) . . .
41(4) . . .
28.5(30) . . .
30.4(28) . . .
26.3(27) . . .
31.0(31) . . .
33(4) . . .
29.7(29) . . .
27.7(27) . . .
41.1(34) . . .
28.8(28) . . .
25.7(26) . . .
33.3(32) . . .
29.2(28) . . .
32.6(31) . . .
30.5(29) . . .
29.1(29) . . .
34.0(31) . . .
28.4(28) . . .
32.2(32) . . .
25.4(27) . . .
26.5(28) . . .
30.8(30) . . .
26.7(27) . . .
26.5(26) . . .
35(4) . . .
28.9(29) . . .
32.0(31) . . .
25.2(26) . . .
34.6(33) . . .
27.3(29) . . .
32.2(30) . . .
29.3(29) . . .
31.3(30) . . .
34.2(30) . . .
28.5(29) . . .
24.4(26) . . .
31.1(31) . . .
21.5(24) . . .
29.1(31) . . .
30.4(31) . . .
30.8(30) . . .
29.4(29) . . .
27.4(28) . . .
34.2(31) . . .
31.7(33) . . .
28.0(28) . . .
33.1(31) . . .
29.6(28) . . .
35.4(32) . . .
26.1(26) . . .
34.0(32) . . .
23.2(26) . . .
24.5(26) . . .
32.7(32) . . .
29.2(30) . . .
25.5(26) . . .
31.6(29) . . .
28.7(28) . . .
30.1(29) . . .
25.2(27) . . .
26.4(29) . . .
25.3(27) . . .
25.9(26) . . .
25.7(29) . . .
23.4(29) . . .
29.2(32) . . .
24.8(26) . . .
32.2(31) . . .
36.1(34) . . .
38.3(35) . . .
37.6(33) . . .
31.3(29) . . .
23.2(25) . . .
23.0(26) . . .
25.9(29) . . .
26.8(30) . . .
27.8(27) . . .
29.5(29) . . .
31.0(31) . . .
27.7(27) . . .
38.3(33) . . .
25.6(27) . . .
26.8(29) . . .
23.3(28) . . .
24.2(26) . . .
33.7(31) . . .
34.3(30) . . .
35.9(32) . . .
32.1(32) . . .
30.6(30) . . .
27.1(28) . . .
22.1(24) . . .
24.6(26) . . .
33.3(32) . . .
29.2(29) . . .
24.7(27) . . .
23.1(25) . . .
32.5(31) . . .
24.1(27) . . .
23.9(28) . . .
32.8(30) . . .
29.0(29) . . .
35.3(33) . . .
21.4(25) . . .
30.4(32) . . .
30.5(29) . . .
39.7(33) . . .
29.0(28) . . .
31.3(32) . . .
26.4(28) . . .
26.9(27) . . .
28.1(28) . . .
35.0(34) . . .
36(4) . . .
27.1(29) . . .
34.5(31) . . .
28.2(29) . . .
36.6(32) . . .
38.2(34) . . .
30.0(29) . . .
31.5(29) . . .
20.1(24) . . .
27.2(28) . . .
24.1(28) . . .
30.1(31) . . .
27.9(28) . . .
35.1(31) . . .
26.4(27) . . .
24.6(29) . . .
20.2(25) . . .
37.7(32) . . .
30.1(30) . . .
33.7(32) . . .
27.3(27) . . .
28.5(28) . . .
27.5(27) . . .
30.2(29) . . .
31.0(32) . . .
29.1(29) . . .
35.7(32) . . .
33.2(30) . . .
28.9(30) . . .
26.7(27) . . .
28.9(29) . . .
31.2(30) . . .
25.3(26) . . .
21.4(24) . . .
30.7(30) . . .
32.6(31) . . .
39.3(33) . . .
31.5(28) . . .
31.7(31) . . .
31.1(32) . . .
28.4(28) . . .
34.4(30) . . .
31.5(29) . . .
36.4(33) . . .
33.0(32) . . .
28.5(29) . . .
31.8(29) . . .
23.5(26) . . .
36.5(34) . . .
26.0(27) . . .
23.5(26) . . .
25.7(27) . . .
30.0(29) . . .
24.4(25) . . .
28.1(27) . . .
36.8(33) . . .
28.6(28) . . .
29.3(29) . . .
32.3(30) . . .
30.8(30) . . .
30.1(29) . . .
30.4(29) . . .
33.6(33) . . .
32.3(33) . . .
30.4(31) . . .
29.6(28) . . .
28.9(29) . . .
36.3(32) . . .
27.3(30) . . .
31.8(31) . . .
35.2(32) . . .
25.6(26) . . .
27.4(28) . . .
27.6(30) . . .
30.3(30) . . .
26.4(27) . . .
21.8(25) . . .
32.8(32) . . .
24.8(26) . . .
26.9(30) . . .
23.0(26) . . .
29.7(28) . . .
29.4(29) . . .
31.2(33) . . .
26.5(28) . . .
31.1(29) . . .
32.8(30) . . .
36.2(32) . . .
27.9(30) . . .
30.1(31) . . .
23.1(25) . . .
37.6(32) . . .
37.9(34) . . .
26.8(27) . . .
25.0(25) . . .
29.5(28) . . .
24.3(26) . . .
29.2(29) . . .
29.6(29) . . .
29.1(28) . . .
32.8(30) . . .
22.3(25) . . .
24.0(26) . . .
31.1(30) . . .
27.6(27) . . .
29.5(28) . . .
29.3(30) . . .
28.4(28) . . .
26.2(27) . . .
28.8(29) . . .
30.7(29) . . .
30.8(32) . . .
23.6(26) . . .
35.4(31) . . .
32.0(30) . . .
35.9(31) . . .
38.3(33) . . .
30.1(28) . . .
29.1(27) . . .
37.1(32) . . .
30.7(29) . . .
32.0(30) . . .
35.1(32) . . .
35.3(32) . . .
33.0(30) . . .
30.2(29) . . .
30.0(30) . . .
30.4(31) . . .
31.9(29) . . .
37.9(33) . . .
31.6(29) . . .
31.0(30) . . .
30.0(31) . . .
25.8(29) . . .
24.8(27) . . .
31.1(29) . . .
23.2(26) . . .
32.0(33) . . .
32.4(31) . . .
28.8(28) . . .
36.3(31) . . .
23.7(26) . . .
31.6(33) . . .
24.8(27) . . .
33.7(30) . . .
28.4(29) . . .
29.4(29) . . .
24.6(26) . . .
38.5(34) . . .
32.0(29) . . .
34.0(30) . . .
38.1(34) . . .
39(4) . . .
31.4(30) . . .
32.2(30) . . .
33.2(30) . . .
26.6(28) . . .
24.4(29) . . .
29.7(30) . . .
27.9(28) . . .
31.1(31) . . .
27.5(27) . . .
30.6(30) . . .
31.0(29) . . .
34.8(31) . . .
34.1(31) . . .
25.6(27) . . .
35.3(33) . . .
32.8(30) . . .
28.7(28) . . .
35.9(34) . . .
31.6(31) . . .
32.1(32) . . .
30.1(30) . . .
31.5(29) . . .
28.4(30) . . .
33.3(33) . . .
23.3(25) . . .
30.2(29) . . .
26.0(26) . . .
28.5(29) . . .
27.5(29) . . .
30.3(31) . . .
21.9(24) . . .
23.9(26) . . .
27.5(28) . . .
32.4(31) . . .
29.9(30) . . .
24.1(26) . . .
28.3(28) . . .
25.3(26) . . .
32.6(33) . . .
35.8(32) . . .
32.4(30) . . .
27.8(28) . . .
25.1(27) . . .
31.1(30) . . .
32.7(32) . . .
28.3(27) . . .
27.2(27) . . .
32.2(29) . . .
28.7(29) . . .
29.2(28) . . .
33.5(31) . . .
27.9(28) . . .
28.6(29) . . .
35(4) . . .
32.2(32) . . .
25.4(26) . . .
33.1(30) . . .
24.7(25) . . .
30.8(31) . . .
29.7(29) . . .
37.5(32) . . .
35.5(32) . . .
30.3(30) . . .
30.9(30) . . .
37.6(32) . . .
26.7(27) . . .
24.5(26) . . .
30.4(29) . . .
32.4(30) . . .
27.7(28) . . .
30.0(28) . . .
32.0(30) . . .
29.5(30) . . .
23.4(25) . . .
28.2(28) . . .
35.4(31) . . .
30.1(30) . . .
34(4) . . .
27.8(30) . . .
21.7(24) . . .
27.0(27) . . .
30.3(29) . . .
30.5(31) . . .
27.4(29) . . .
28.1(27) . . .
28.8(28) . . .
36.0(32) . . .
33.5(33) . . .
26.9(27) . . .
34.2(30) . . .
33.7(31) . . .
22.3(25) . . .
23.2(28) . . .
25.3(29) . . .
29.0(28) . . .
27.6(28) . . .
21.2(25) . . .
21.5(25) . . .
35.0(34) . . .
23.8(26) . . .
34.5(31) . . .
28.9(28) . . .
23.6(26) . . .
39(4) . . .
32.3(30) . . .
21.3(25) . . .
31.9(32) . . .
29.9(31) . . .
27.2(29) . . .
17.2(23) . . .
28.2(28) . . .
26.2(27) . . .
22.3(25) . . .
25.4(26) . . .
29.6(28) . . .
32.4(31) . . .
28.0(28) . . .
31.4(30) . . .
36.8(33) . . .
31.1(29) . . .
28.5(28) . . .
21.5(26) . . .
28.4(31) . . .
30.6(29) . . .
34.2(30) . . .
23.8(28) . . .
27.8(30) . . .
29.9(30) . . .
30.0(28) . . .
20.5(24) . . .
26.9(31) . . .
25.0(30) . . .
25.9(28) . . .
28.3(29) . . .
26.2(27) . . .
30.8(30) . . .
30.2(31) . . .
38(4) . . .
40.2(33) . . .
26.0(27) . . .
28.9(28) . . .
33.2(32) . . .
27.6(30) . . .
35.1(32) . . .
23.0(24) . . .
22.1(26) . . .
28.6(28) . . .
36.6(33) . . .
22.2(25) . . .
30.1(30) . . .
30.6(31) . . .
35.5(34) . . .
28.7(29) . . .
22.8(25) . . .
31.7(33) . . .
33.8(32) . . .
25.5(29) . . .
35.3(32) . . .
32.0(30) . . .
24.2(26) . . .
20.3(24) . . .
29.1(31) . . .
28.1(29) . . .
25.9(26) . . .
26.2(27) . . .
27.9(28) . . .
23.5(26) . . .
34.4(31) . . .
35.3(31) . . .
27.7(29) . . .
30.8(30) . . .
36.8(31) . . .
35.1(31) . . .
30.4(28) . . .
37.0(34) . . .
30.6(29) . . .
27.6(27) . . .
31.7(30) . . .
25.1(26) . . .
33.4(33) . . .
32.4(31) . . .
30.2(29) . . .
32.5(30) . . .
24.9(26) . . .
30.9(30) . . .
41(4) . . .
29.1(29) . . .
33.0(30) . . .
30.6(29) . . .
31.3(30) . . .
32.0(32) . . .
38.3(35) . . .
28.6(28) . . .
30.4(29) . . .
29.1(28) . . .
28.9(28) . . .
38.8(34) . . .
36.2(32) . . .
38.0(33) . . .
27.0(28) . . .
28.6(29) . . .
24.4(26) . . .
22.3(25) . . .
31.1(30) . . .
34.7(32) . . .
28.1(29) . . .
31.5(31) . . .
32.3(30) . . .
31.1(29) . . .
31.7(31) . . .
31.4(30) . . .
25.7(26) . . .
25.8(26) . . .
35.0(34) . . .
25.8(28) . . .
33.2(30) . . .
34.0(31) . . .
25.8(27) . . .
33.7(33) . . .
29.6(29) . . .
32.8(31) . . .
28.4(27) . . .
28.9(28) . . .
35.3(34) . . .
27.7(28) . . .
29.4(30) . . .
30.9(29) . . .
27.3(27) . . .
25.2(26) . . .
31.3(31) . . .
31.6(30) . . .
33.9(30) . . .
22.8(25) . . .
31.5(32) . . .
33.1(32) . . .
34.6(32) . . .
24.9(26) . . .
28.5(28) . . .
26.0(26) . . .
32.7(31) . . .
31.6(31) . . .
27.5(27) . . .
32.6(29) . . .
33.5(32) . . .
31.1(29) . . .
35.0(31) . . .
30.0(29) . . .
24.9(27) . . .
29.7(30) . . .
24.5(27) . . .
26.0(27) . . .
25.7(26) . . .
26.4(27) . . .
35.2(33) . . .
34.8(34) . . .
30.8(29) . . .
29.7(28) . . .
35.3(31) . . .
26.4(28) . . .
28.5(28) . . .
29.5(29) . . .
32.6(29) . . .
35.1(32) . . .
25.4(27) . . .
28.6(29) . . .
35.5(32) . . .
31.8(29) . . .
26.0(28) . . .
33.8(32) . . .
34.2(33) . . .
32.5(31) . . .
27.0(28) . . .
32.0(32) . . .
29.2(28) . . .
36.5(33) . . .
29.9(28) . . .
29.0(28) . . .
24.8(26) . . .
36.5(33) . . .
34.2(31) . . .
26.2(27) . . .
27.4(27) . . .
24.8(27) . . .
29.2(31) . . .
29.4(30) . . .
26.3(26) . . .
35.2(31) . . .
38.0(34) . . .
26.1(27) . . .
36.3(32) . . .
26.5(27) . . .
26.7(27) . . .
30.9(31) . . .
28.1(30) . . .
28.4(29) . . .
33.1(31) . . .
28.3(29) . . .
31.9(30) . . .
35.1(33) . . .
25.7(26) . . .
33.3(30) . . .
29.8(29) . . .
37.4(35) . . .
24.7(27) . . .
30.8(30) . . .
34.0(30) . . .
32.7(30) . . .
27.7(27) . . .
34.1(32) . . .
27.9(28) . . .
28.8(29) . . .
23.3(25) . . .
27.7(29) . . .
27.5(28) . . .
39.2(33) . . .
29.4(28) . . .
38.2(32) . . .
37.2(33) . . .
24.3(28) . . .
25.9(26) . . .
33.3(30) . . .
34.0(30) . . .
31.5(30) . . .
32.4(30) . . .
33.0(30) . . .
33.3(30) . . .
23.6(27) . . .
29.9(31) . . .
26.9(28) . . .
30.9(29) . . .
26.5(27) . . .
34.5(34) . . .
38(4) . . .
29.5(28) . . .
31.6(30) . . .
24.3(25) . . .
30.0(30) . . .
25.5(26) . . .
36.0(32) . . .
30.9(29) . . .
29.8(29) . . .
28.8(31) . . .
28.5(29) . . .
31.5(29) . . .
29.1(28) . . .
29.1(28) . . .
26.0(28) . . .
32.1(32) . . .
27.2(27) . . .
24.1(26) . . .
24.7(27) . . .
27.4(27) . . .
33.0(31) . . .
31.6(30) . . .
35.4(31) . . .
26.6(26) . . .
29.3(29) . . .
26.0(31) . . .
28.0(28) . . .
29.6(28) . . .
34.9(32) . . .
28.1(29) . . .
27.6(27) . . .
29.7(30) . . .
31.8(30) . . .
35.9(33) . . .
33.2(32) . . .
30.3(31) . . .
26.0(28) . . .
34.8(31) . . .
28.0(28) . . .
27.6(28) . . .
31.3(29) . . .
33.2(30) . . .
23.4(25) . . .
27.6(27) . . .
35.4(34) . . .
36.0(33) . . .
29.4(30) . . .
30.2(29) . . .
35.5(34) . . .
24.8(28) . . .
27.0(27) . . .
32.7(29) . . .
35.9(32) . . .
33.9(30) . . .
35.2(33) . . .
30.3(28) . . .
27.7(28) . . .
26.8(26) . . .
25.9(27) . . .
31.8(32) . . .
39.3(35) . . .
35.3(31) . . .
36.5(31) . . .
27.8(27) . . .
28.9(30) . . .
24.9(27) . . .
31.5(30) . . .
23.8(26) . . .
28.7(29) . . .
34.9(32) . . .
27.3(28) . . .
30.4(29) . . .
25.8(27) . . .
33.3(32) . . .
28.9(30) . . .
25.7(27) . . .
29.0(28) . . .
26.1(27) . . .
22.8(26) . . .
30.3(31) . . .
37.0(33) . . .
27.2(27) . . .
30.0(30) . . .
32.4(33) . . .
28.2(28) . . .
28.5(28) . . .
32.8(30) . . .
26.2(27) . . .
25.8(28) . . .
25.5(29) . . .
27.3(28) . . .
28.1(27) . . .
27.4(29) . . .
30.3(32) . . .
30.3(33) . . .
17.7(22) . . .
25.6(26) . . .
35.0(33) . . .
26.0(28) . . .
27.8(28) . . .
26.8(27) . . .
27.1(27) . . .
31.2(31) . . .
35.3(32) . . .
31.0(29) . . .
29.1(29) . . .
32.8(30) . . .
49(4) . . .
33.7(32) . . .
30.5(30) . . .
23.0(26) . . .
27.6(27) . . .
34.6(31) . . .
33.5(32) . . .
32.6(32) . . .
30.0(28) . . .
27.5(28) . . .
27.8(28) . . .
32.0(30) . . .
28.2(29) . . .
23.6(25) . . .
26.4(26) . . .
32.8(30) . . .
27.7(28) . . .
31.6(30) . . .
27.5(28) . . .
34.5(31) . . .
34.8(32) . . .
28.7(30) . . .
31.3(30) . . .
24.4(26) . . .
25.7(28) . . .
35.7(32) . . .
29.2(28) . . .
33.9(31) . . .
37.8(32) . . .
31.5(33) . . .
29.4(30) . . .
33.0(30) . . .
34.4(30) . . .
28.7(30) . . .
30.6(31) . . .
27.8(27) . . .
34.7(33) . . .
27.2(27) . . .
37.2(31) . . .
34.2(31) . . .
31.5(31) . . .
27.5(28) . . .
30.9(29) . . .
25.1(27) . . .
24.6(26) . . .
31.2(32) . . .
28.1(29) . . .
26.4(26) . . .
30.2(29) . . .
29.8(29) . . .
29.0(29) . . .
29.8(30) . . .
31.4(30) . . .
30.3(29) . . .
30.8(30) . . .
28.9(29) . . .
29.4(31) . . .
31.5(30) . . .
32.3(31) . . .
39(4) . . .
28.6(31) . . .
23.0(27) . . .
32.5(30) . . .
35.6(31) . . .
33.0(32) . . .
28.4(29) . . .
34.2(31) . . .
25.3(28) . . .
32.3(30) . . .
27.9(28) . . .
28.1(28) . . .
32.9(30) . . .
28.9(28) . . .
33.9(30) . . .
31.3(32) . . .
27.0(31) . . .
26.6(28) . . .
29.6(29) . . .
29.0(28) . . .
29.2(29) . . .
34.9(32) . . .
24.5(25) . . .
34.4(31) . . .
27.4(27) . . .
29.8(30) . . .
28.6(28) . . .
26.4(27) . . .
28.4(28) . . .
34.1(31) . . .
26.7(28) . . .
28.7(31) . . .
31.0(29) . . .
27.5(29) . . .
38.8(33) . . .
29.2(31) . . .
36.2(34) . . .
32.0(31) . . .
35.6(31) . . .
27.5(28) . . .
25.6(28) . . .
24.1(26) . . .
28.7(28) . . .
32.3(30) . . .
34.7(30) . . .
37.2(34) . . .
25.7(27) . . .
29.7(29) . . .
19.0(23) . . .
29.8(29) . . .
29.7(30) . . .
27.7(29) . . .
29.6(28) . . .
31.6(29) . . .
35.1(31) . . .
34.7(31) . . .
34.8(32) . . .
37.7(32) . . .
28.7(28) . . .
30.5(30) . . .
37.1(33) . . .
36.0(31) . . .
25.1(26) . . .
27.1(27) . . .
25.1(28) . . .
32.9(35) . . .
34.2(31) . . .
23.3(25) . . .
25.3(26) . . .
27.1(28) . . .
27.0(28) . . .
24.2(26) . . .
23.9(25) . . .
24.3(28) . . .
38(4) . . .
29.1(28) . . .
37.5(32) . . .
27.6(28) . . .
28.5(28) . . .
29.0(30) . . .
27.1(28) . . .
25.2(27) . . .
32.4(30) . . .
22.0(24) . . .
28.0(29) . . .
27.2(28) . . .
28.8(28) . . .
29.4(28) . . .
28.7(29) . . .
25.3(29) . . .
23.4(25) . . .
35.8(31) . . .
28.6(27) . . .
30.6(31) . . .
26.9(29) . . .
30.3(28) . . .
33.3(30) . . .
35.0(30) . . .
27.3(27) . . .
21.9(25) . . .
25.5(28) . . .
28.2(28) . . .
31.9(29) . . .
31.8(31) . . .
33.1(31) . . .
33.7(31) . . .
31.4(29) . . .
20.6(24) . . .
26.2(28) . . .
33.0(34) . . .
33.3(32) . . .
24.5(26) . . .
24.6(26) . . .
30.6(31) . . .
25.4(27) . . .
25.6(26) . . .
26.5(27) . . .
46(4) . . .
27.9(29) . . .
26.1(29) . . .
24.6(29) . . .
24.4(26) . . .
32.9(30) . . .
23.4(26) . . .
29.0(31) . . .
24.2(26) . . .
27.3(27) . . .
26.8(29) . . .
23.7(27) . . .
33.0(30) . . .
31.8(29) . . .
22.0(25) . . .
26.1(29) . . .
26.9(30) . . .
22.8(26) . . .
34.0(32) . . .
28.8(28) . . .
32.5(29) . . .
30.0(28) . . .
35.2(31) . . .
32.1(29) . . .
29.0(28) . . .
19.8(23) . . .
22.5(26) . . .
23.0(25) . . .
27.1(28) . . .
29.3(28) . . .
24.0(25) . . .
29.9(32) . . .
27.5(28) . . .
42(4) . . .
40(4) . . .
24.9(27) . . .
36.7(33) . . .
30.0(28) . . .
28.3(28) . . .
32.6(33) . . .
26.9(27) . . .
29.1(29) . . .
26.0(30) . . .
27.4(28) . . .
33.1(30) . . .
33.1(30) . . .
28.0(28) . . .
33.4(31) . . .
30.7(29) . . .
28.4(29) . . .
20.3(25) . . .
27.4(29) . . .
24.3(26) . . .
29.1(28) . . .
23.7(28) . . .
28.5(29) . . .
27.6(27) . . .
30.9(29) . . .
31.0(29) . . .
26.8(27) . . .
26.7(28) . . .
29.3(30) . . .
26.6(27) . . .
24.7(26) . . .
36.8(34) . . .
27.8(29) . . .
30.0(29) . . .
34.2(31) . . .
34.3(30) . . .
28.2(28) . . .
26.2(30) . . .
23.6(26) . . .
31.2(29) . . .
29.0(29) . . .
31.6(31) . . .
28.8(29) . . .
34.8(31) . . .
29.3(28) . . .
28.5(28) . . .
32.3(30) . . .
27.0(27) . . .
31.6(30) . . .
34.2(31) . . .
31.6(29) . . .
26.9(28) . . .
29.4(30) . . .
26.6(28) . . .
29.1(28) . . .
36.2(32) . . .
35.8(32) . . .
34.4(32) . . .
23.3(25) . . .
24.2(26) . . .
30.4(29) . . .
34.0(32) . . .
38.0(34) . . .
41(4) . . .
39.1(32) . . .
29.4(29) . . .
27.8(28) . . .
25.9(28) . . .
25.5(28) . . .
35.0(30) . . .
30.9(30) . . .
31.6(32) . . .
33.0(31) . . .
28.8(29) . . .
26.5(27) . . .
30.4(31) . . .
30.4(29) . . .
28.5(28) . . .
32.3(29) . . .
31.9(30) . . .
32.3(32) . . .
24.9(26) . . .
29.4(28) . . .
31.5(29) . . .
34.5(30) . . .
30.0(30) . . .
32.3(32) . . .
24.0(25) . . .
31.6(30) . . .
33.2(30) . . .
34.7(33) . . .
23.4(24) . . .
34.6(31) . . .
34.5(30) . . .
30.3(31) . . .
24.6(26) . . .
32.7(31) . . .
31.3(31) . . .
24.6(26) . . .
29.6(28) . . .
30.8(29) . . .
39.5(34) . . .
40.0(33) . . .
28.8(28) . . .
33.2(30) . . .
35.0(33) . . .
27.7(30) . . .
29.6(29) . . .
33.3(31) . . .
25.7(27) . . .
34.7(34) . . .
27.7(29) . . .
25.7(30) . . .
29.4(29) . . .
31.5(30) . . .
21.8(28) . . .
25.3(29) . . .
24.7(28) . . .
29.0(28) . . .
32.6(32) . . .
29.6(29) . . .
24.8(26) . . .
29.8(28) . . .
42.6(34) . . .
33.0(30) . . .
37.0(33) . . .
34.3(33) . . .
28.9(29) . . .
35.2(31) . . .
32.2(31) . . .
35.8(31) . . .
40(4) . . .
30.5(29) . . .
33.0(31) . . .
23.4(25) . . .
30.0(32) . . .
28.3(28) . . .
26.6(27) . . .
33.3(30) . . .
25.3(27) . . .
26.7(28) . . .
39.7(34) . . .
27.4(27) . . .
33.4(31) . . .
32.6(30) . . .
32.2(32) . . .
32.6(32) . . .
24.5(26) . . .
22.6(25) . . .
24.9(27) . . .
24.4(27) . . .
34.0(34) . . .
31.5(29) . . .
36.1(32) . . .
28.7(28) . . .
26.2(28) . . .
33.8(32) . . .
29.6(29) . . .
28.4(28) . . .
33.5(31) . . .
39(4) . . .
27.2(27) . . .
32.9(30) . . .
28.3(28) . . .
30.4(31) . . .
30.2(27) . . .
36.4(32) . . .
27.1(27) . . .
22.9(26) . . .
23.8(26) . . .
33.9(32) . . .
26.3(27) . . .
21.6(24) . . .
28.8(30) . . .
26.8(28) . . .
31.3(30) . . .
28.5(28) . . .
38.2(32) . . .
34.0(32) . . .
33.6(31) . . .
33.8(30) . . .
25.4(27) . . .
23.7(25) . . .
22.7(24) . . .
30.3(30) . . .
25.3(28) . . .
28.9(29) . . .
33.3(30) . . .
31.3(30) . . .
32.5(34) . . .
25.9(29) . . .
34.2(31) . . .
26.7(26) . . .
31.4(30) . . .
41(4) . . .
29.2(32) . . .
28.7(28) . . .
34.4(31) . . .
26.8(26) . . .
33.2(32) . . .
27.3(27) . . .
26.4(27) . . .
31.3(29) . . .
32.6(31) . . .
34.3(32) . . .
32.6(32) . . .
31.8(30) . . .
26.0(26) . . .
31.5(31) . . .
29.1(29) . . .
27.0(29) . . .
31.3(30) . . .
26.8(27) . . .
30.1(29) . . .
29.7(29) . . .
26.1(27) . . .
30.4(29) . . .
28.0(28) . . .
30.3(30) . . .
29.6(28) . . .
24.3(27) . . .
31.3(30) . . .
31.3(30) . . .
27.4(29) . . .
29.5(31) . . .
35.3(31) . . .
29.9(28) . . .
37.7(35) . . .
30.2(31) . . .
22.7(25) . . .
20.5(24) . . .
21.8(25) . . .
28.0(31) . . .
24.0(28) . . .
28.2(29) . . .
31.4(30) . . .
31.3(29) . . .
34.9(31) . . .
29.9(29) . . .
26.8(27) . . .
27.6(27) . . .
26.7(27) . . .
27.4(29) . . .
34.2(32) . . .
32.0(30) . . .
25.8(26) . . .
29.0(30) . . .
31.2(30) . . .
18.6(23) . . .
30.4(30) . . .
34.4(31) . . .
29.8(30) . . .
24.4(25) . . .
27.9(29) . . .
32.5(31) . . .
31.5(30) . . .
34.9(31) . . .
28.7(29) . . .
30.4(31) . . .
29.5(31) . . .
29.0(28) . . .
32.3(30) . . .
30.8(29) . . .
27.7(28) . . .
23.4(27) . . .
31.0(29) . . .
27.7(28) . . .
27.8(30) . . .
25.6(27) . . .
39.1(34) . . .
29.9(28) . . .
28.0(28) . . .
32.0(30) . . .
37.7(34) . . .
28.3(29) . . .
28.1(28) . . .
31.6(30) . . .
34.8(32) . . .
34.3(32) . . .
34.3(33) . . .
27.3(27) . . .
42(4) . . .
28.4(30) . . .
32.2(33) . . .
33.9(31) . . .
30.9(29) . . .
32.7(31) . . .
29.8(32) . . .
31.8(32) . . .
34.0(30) . . .
31.2(28) . . .
27.6(29) . . .
26.1(30) . . .
26.1(27) . . .
26.4(27) . . .
27.1(27) . . .
29.2(29) . . .
31.6(33) . . .
25.5(26) . . .
29.7(28) . . .
21.0(24) . . .
26.9(29) . . .
30.7(32) . . .
25.5(27) . . .
25.3(26) . . .
24.2(26) . . .
29.0(29) . . .
29.4(31) . . .
27.9(28) . . .
32.3(29) . . .
31.6(29) . . .
27.6(29) . . .
26.9(28) . . .
37.3(32) . . .
36.0(32) . . .
28.9(28) . . .
24.2(27) . . .
30.5(30) . . .
33.2(31) . . .
30.3(28) . . .
29.8(30) . . .
26.3(27) . . .
31.6(29) . . .
30.8(29) . . .
24.0(26) . . .
23.2(26) . . .
31.1(32) . . .
20.7(24) . . .
29.3(28) . . .
32.5(29) . . .
20.5(23) . . .
27.2(30) . . .
34.4(32) . . .
30.4(28) . . .
35.7(31) . . .
30.3(29) . . .
39(4) . . .
32.2(30) . . .
33.2(30) . . .
27.1(27) . . .
32.7(30) . . .
28.8(29) . . .
29.3(29) . . .
33.8(30) . . .
28.2(28) . . .
24.4(26) . . .
30.5(30) . . .
25.3(27) . . .
37.7(32) . . .
21.3(24) . . .
28.6(30) . . .
29.6(31) . . .
29.1(29) . . .
28.1(27) . . .
28.2(28) . . .
27.5(29) . . .
22.4(25) . . .
28.3(31) . . .
32.0(30) . . .
28.1(28) . . .
32.2(30) . . .
30.4(28) . . .
30.0(30) . . .
26.1(27) . . .
26.6(27) . . .
34.9(33) . . .
32.1(30) . . .
39.3(34) . . .
27.3(27) . . .
29.9(29) . . .
26.9(26) . . .
36.0(33) . . .
25.4(26) . . .
24.1(26) . . .
26.4(30) . . .
41(4) . . .
33.8(31) . . .
31.2(30) . . .
34.2(30) . . .
27.7(30) . . .
28.1(31) . . .
33.9(33) . . .
33.8(31) . . .
40.0(33) . . .
27.8(28) . . .
27.8(31) . . .
28.3(29) . . .
25.6(27) . . .
23.0(25) . . .
28.8(29) . . .
27.3(30) . . .
22.0(26) . . .
30.1(29) . . .
26.1(27) . . .
25.1(27) . . .
33.1(32) . . .
30.4(30) . . .
32.8(29) . . .
30.9(30) . . .
35.6(32) . . .
27.7(29) . . .
27.1(27) . . .
34.7(31) . . .
28.1(27) . . .
29.9(30) . . .
27.4(29) . . .
27.0(27) . . .
37.0(32) . . .
27.3(27) . . .
31.2(29) . . .
30.6(30) . . .
33.7(32) . . .
32.5(30) . . .
33.0(31) . . .
26.3(30) . . .
25.6(28) . . .
29.9(29) . . .
29.7(28) . . .
33.3(31) . . .
36.3(33) . . .
39.6(34) . . .
27.1(27) . . .
30.6(29) . . .
29.7(29) . . .
35.4(33) . . .
23.9(27) . . .
28.1(29) . . .
31.5(29) . . .
29.2(30) . . .
21.8(25) . . .
25.8(29) . . .
26.8(27) . . .
33.3(30) . . .
30.4(30) . . .
23.7(26) . . .
31.3(32) . . .
30.9(29) . . .
23.1(25) . . .
22.4(25) . . .
32.9(34) . . .
23.9(26) . . .
29.3(29) . . .
26.3(26) . . .
23.6(28) . . .
28.1(32) . . .
32.8(31) . . .
25.0(27) . . .
30.3(30) . . .
27.8(29) . . .
30.8(31) . . .
31.0(29) . . .
29.2(29) . . .
28.0(28) . . .
26.8(28) . . .
31.3(30) . . .
30.7(30) . . .
22.9(25) . . .
24.7(26) . . .
24.3(26) . . .
25.6(29) . . .
25.2(27) . . .
29.0(28) . . .
26.5(27) . . .
32.9(30) . . .
33.1(33) . . .
31.8(30) . . .
31.3(29) . . .
27.6(27) . . .
28.9(30) . . .
39(4) . . .
46(4) . . .
31.1(29) . . .
27.2(29) . . .
32.4(32) . . .
25.1(27) . . .
29.4(29) . . .
31.3(29) . . .
24.8(28) . . .
33.3(34) . . .
27.1(28) . . .
26.7(27) . . .
26.8(28) . . .
34.2(32) . . .
25.8(27) . . .
26.4(28) . . .
35.7(31) . . .
30.3(29) . . .
29.1(29) . . .
29.5(33) . . .
24.2(30) . . .
26.0(26) . . .
26.3(27) . . .
31.5(30) . . .
21.8(26) . . .
26.4(29) . . .
30.6(29) . . .
27.1(27) . . .
25.7(27) . . .
36.9(35) . . .
27.2(27) . . .
26.6(28) . . .
36.5(31) . . .
30.5(29) . . .
30.6(30) . . .
27.7(28) . . .
35.1(31) . . .
30.6(29) . . .
30.3(30) . . .
30.7(33) . . .
29.6(29) . . .
31.3(29) . . .
29.1(32) . . .
31.5(31) . . .
34.2(32) . . .
28.0(29) . . .
30.5(29) . . .
30.2(29) . . .
33.2(31) . . .
28.4(28) . . .
33.1(31) . . .
23.2(26) . . .
29.5(28) . . .
31.2(29) . . .
35.0(33) . . .
29.4(29) . . .
26.3(27) . . .
35.3(32) . . .
30.2(30) . . .
24.0(26) . . .
25.0(26) . . .
32.2(29) . . .
30.4(29) . . .
34.8(34) . . .
25.4(29) . . .
28.6(28) . . .
24.9(27) . . .
33.4(32) . . .
21.3(23) . . .
29.3(29) . . .
29.0(29) . . .
24.5(26) . . .
31.2(30) . . .
32.3(33) . . .
32.8(32) . . .
28.4(28) . . .
31.3(29) . . .
25.3(27) . . .
25.5(27) . . .
35.3(33) . . .
24.6(26) . . .
30.6(30) . . .
31.4(30) . . .
26.0(27) . . .
26.8(27) . . .
21.2(25) . . .
29.2(30) . . .
31.4(30) . . .
31.0(31) . . .
30.1(29) . . .
30.9(29) . . .
28.3(29) . . .
36.2(33) . . .
31.1(29) . . .
29.8(30) . . .
24.5(26) . . .
33.6(33) . . .
31.3(31) . . .
41(4) . . .
29.9(29) . . .
29.0(28) . . .
31.9(29) . . .
24.5(25) . . .
26.5(28) . . .
29.7(29) . . .
30.6(30) . . .
32.6(33) . . .
22.1(24) . . .
23.6(25) . . .
22.0(25) . . .
21.1(25) . . .
30.6(31) . . .
38(4) . . .
33.6(32) . . .
30.4(29) . . .
35.3(31) . . .
33.2(33) . . .
31.1(32) . . .
26.8(28) . . .
31.2(30) . . .
33.8(30) . . .
31.0(31) . . .
31.6(31) . . .
30.2(29) . . .
23.7(26) . . .
26.9(28) . . .
30.3(29) . . .
29.3(30) . . .
35.8(35) . . .
35.8(32) . . .
27.1(28) . . .
29.1(29) . . .
20.5(22) . . .
40(4) . . .
26.9(27) . . .
31.1(31) . . .
25.6(27) . . .
23.7(26) . . .
24.0(27) . . .
37.5(32) . . .
36.6(33) . . .
23.5(25) . . .
31.6(33) . . .
32.3(31) . . .
29.8(28) . . .
30.4(30) . . .
29.0(30) . . .
31.2(30) . . .
37.6(34) . . .
29.7(28) . . .
29.3(30) . . .
27.1(28) . . .
26.0(27) . . .
29.4(29) . . .
28.3(28) . . .
33.5(30) . . .
30.6(28) . . .
35.9(32) . . .
25.0(26) . . .
31.0(29) . . .
27.8(29) . . .
27.3(28) . . .
33.9(33) . . .
26.5(28) . . .
29.4(28) . . .
30.7(29) . . .
34.8(33) . . .
30.8(30) . . .
28.2(30) . . .
30.3(29) . . .
26.3(28) . . .
26.0(29) . . .
29.5(29) . . .
28.8(29) . . .
33.3(30) . . .
31.6(31) . . .
31.7(34) . . .
28.3(29) . . .
29.2(28) . . .
28.3(28) . . .
22.5(25) . . .
29.6(32) . . .
18.5(22) . . .
23.6(25) . . .
30.5(29) . . .
29.4(29) . . .
33.8(32) . . .
33.0(30) . . .
39.3(33) . . .
30.6(28) . . .
29.1(29) . . .
28.7(28) . . .
29.2(28) . . .
31.0(30) . . .
29.3(28) . . .
23.1(25) . . .
25.2(27) . . .
31.4(30) . . .
30.7(30) . . .
26.1(28) . . .
29.5(33) . . .
29.1(28) . . .
27.2(28) . . .
27.8(27) . . .
23.2(25) . . .
27.4(29) . . .
28.5(27) . . .
29.3(29) . . .
28.7(28) . . .
40.0(35) . . .
30.7(30) . . .
30.9(29) . . .
30.9(29) . . .
28.1(28) . . .
29.0(29) . . .
33(4) . . .
31.1(32) . . .
36.1(32) . . .
30.2(29) . . .
30.6(30) . . .
26.0(28) . . .
26.4(27) . . .
27.3(27) . . .
22.7(25) . . .
29.2(29) . . .
31.2(30) . . .
28.2(28) . . .
28.8(28) . . .
29.1(29) . . .
30.3(29) . . .
30.0(30) . . .
29.1(29) . . .
34.7(31) . . .
30.3(29) . . .
30.8(29) . . .
28.2(28) . . .
29.9(29) . . .
30.5(28) . . .
31.6(29) . . .
29.9(30) . . .
25.5(28) . . .
26.1(28) . . .
30.5(29) . . .
35.2(32) . . .
30.1(29) . . .
29.4(30) . . .
29.7(29) . . .
35.3(31) . . .
25.0(26) . . .
37.4(34) . . .
31.2(32) . . .
28.3(29) . . .
27.1(27) . . .
29.7(28) . . .
27.2(26) . . .
36.0(30) . . .
35.3(31) . . .
24.4(26) . . .
35.1(35) . . .
26.2(28) . . .
28.5(29) . . .
29.6(28) . . .
29.8(29) . . .
30.2(29) . . .
37(4) . . .
28.7(30) . . .
33.5(32) . . .
30.3(29) . . .
25.7(27) . . .
30.8(33) . . .
30.1(30) . . .
27.4(29) . . .
29.9(28) . . .
27.5(30) . . .
13.9(20) . . .
28.0(29) . . .
32.2(30) . . .
27.3(28) . . .
34.2(31) . . .
32.9(35) . . .
25.4(29) . . .
28.2(29) . . .
28.8(27) . . .
25.2(27) . . .
28.2(31) . . .
34.2(33) . . .
31.1(29) . . .
30.8(29) . . .
28.1(27) . . .
30.4(31) . . .
32.7(32) . . .
31.3(29) . . .
33.3(30) . . .
27.4(27) . . .
34.3(32) . . .
22.9(27) . . .
29.0(28) . . .
30.0(29) . . .
30.1(29) . . .
23.9(25) . . .
29.4(31) . . .
22.8(25) . . .
31.7(30) . . .
27.3(29) . . .
26.4(29) . . .
28.1(28) . . .
24.2(26) . . .
34.8(32) . . .
26.1(28) . . .
29.4(31) . . .
35.3(32) . . .
26.2(27) . . .
28.4(28) . . .
24.8(28) . . .
28.4(28) . . .
26.0(26) . . .
27.7(28) . . .
29.3(29) . . .
30.4(29) . . .
35.2(31) . . .
26.5(27) . . .
29.1(28) . . .
27.0(27) . . .
28.1(32) . . .
28.8(31) . . .
34.6(31) . . .
30.8(29) . . .
32.8(32) . . .
22.8(26) . . .
30.8(30) . . .
28.4(29) . . .
23.5(26) . . .
31.5(31) . . .
29.5(29) . . .
34.3(30) . . .
37.6(32) . . .
24.6(26) . . .
30.7(29) . . .
32.1(30) . . .
30.8(29) . . .
32.4(29) . . .
28.9(28) . . .
32.0(30) . . .
32.0(32) . . .
26.1(28) . . .
26.1(27) . . .
35.8(33) . . .
40(4) . . .
26.8(28) . . .
33.0(32) . . .
26.9(27) . . .
35.1(33) . . .
31.6(31) . . .
23.3(25) . . .
28.4(30) . . .
31.0(28) . . .
29.5(29) . . .
32.7(31) . . .
33.5(31) . . .
36.0(32) . . .
29.6(29) . . .
30.9(30) . . .
29.8(29) . . .
27.4(28) . . .
23.2(25) . . .
25.6(26) . . .
26.9(29) . . .
37(4) . . .
25.9(29) . . .
28.2(28) . . .
32.0(31) . . .
29.9(29) . . .
37.7(35) . . .
27.1(30) . . .
21.6(25) . . .
28.0(28) . . .
31.8(31) . . .
21.5(24) . . .
26.7(28) . . .
30.3(28) . . .
27.1(27) . . .
33.3(31) . . .
27.5(29) . . .
32.0(31) . . .
31.9(29) . . .
24.9(26) . . .
22.6(25) . . .
27.6(29) . . .
25.1(27) . . .
35.8(31) . . .
26.5(27) . . .
28.8(29) . . .
29.5(30) . . .
27.6(28) . . .
28.3(28) . . .
40.0(33) . . .
24.5(26) . . .
26.8(27) . . .
29.1(29) . . .
24.9(26) . . .
30.3(29) . . .
20.3(23) . . .
28.7(29) . . .
26.5(27) . . .
24.1(26) . . .
26.5(28) . . .
31.5(33) . . .
22.0(24) . . .
30.3(30) . . .
32.8(30) . . .
27.8(27) . . .
24.2(27) . . .
34.0(34) . . .
25.2(27) . . .
27.4(28) . . .
25.1(26) . . .
30.0(30) . . .
26.0(28) . . .
29.6(29) . . .
28.9(28) . . .
33.5(31) . . .
37(4) . . .
32.4(31) . . .
26.0(26) . . .
40.3(34) . . .
36.2(32) . . .
28.8(29) . . .
32.4(30) . . .
31.0(29) . . .
33.3(30) . . .
28.1(29) . . .
27.4(31) . . .
30.4(29) . . .
27.0(28) . . .
27.7(28) . . .
22.8(26) . . .
32.7(33) . . .
31.9(30) . . .
30.2(29) . . .
31.7(30) . . .
29.0(29) . . .
36(4) . . .
32.3(32) . . .
26.0(26) . . .
27.2(27) . . .
27.4(28) . . .
26.5(28) . . .
34.5(32) . . .
33.9(30) . . .
35.6(32) . . .
32.0(30) . . .
26.1(27) . . .
37.1(32) . . .
26.8(27) . . .
37.2(33) . . .
33.0(32) . . .
30.4(29) . . .
35.8(32) . . .
31.5(29) . . .
27.0(28) . . .
33.1(32) . . .
26.8(27) . . .
27.8(28) . . .
31.6(29) . . .
33.0(32) . . .
25.8(27) . . .
23.1(26) . . .
31.2(30) . . .
26.5(27) . . .
27.2(30) . . .
30.4(32) . . .
30.5(29) . . .
26.3(27) . . .
33.0(30) . . .
27.6(28) . . .
25.8(28) . . .
28.1(28) . . .
25.7(26) . . .
33.4(30) . . .
32.6(30) . . .
31.3(29) . . .
31.6(31) . . .
36.0(31) . . .
28.2(28) . . .
24.5(28) . . .
30.2(32) . . .
28.0(28) . . .
31.8(30) . . .
25.4(26) . . .
33.1(32) . . .
26.5(27) . . .
33.2(31) . . .
25.3(26) . . .
21.7(25) . . .
28.5(28) . . .
24.3(26) . . .
31.4(32) . . .
30.5(29) . . .
30.0(30) . . .
27.6(27) . . .
30.1(29) . . .
32.4(32) . . .
35.9(31) . . .
27.9(28) . . .
22.8(25) . . .
24.0(28) . . .
24.8(26) . . .
30.7(29) . . .
35.6(33) . . .
32.4(30) . . .
26.2(27) . . .
29.6(31) . . .
28.2(28) . . .
19.2(23) . . .
25.0(27) . . .
29.5(31) . . .
28.4(30) . . .
31.4(29) . . .
27.5(28) . . .
28.5(29) . . .
29.8(31) . . .
27.8(28) . . .
27.3(27) . . .
25.6(30) . . .
33.2(32) . . .
26.7(27) . . .
28.6(28) . . .
34.9(30) . . .
31.4(30) . . .
24.0(28) . . .
20.0(24) . . .
29.8(29) . . .
24.4(26) . . .
27.0(29) . . .
23.9(27) . . .
32.6(33) . . .
36.0(31) . . .
33.6(31) . . .
20.3(26) . . .
26.4(29) . . .
29.3(31) . . .
22.8(24) . . .
31.7(29) . . .
37.7(33) . . .
34.0(33) . . .
29.5(30) . . .
31.8(29) . . .
25.9(26) . . .
31.5(31) . . .
32.8(33) . . .
25.3(27) . . .
32.0(30) . . .
24.5(26) . . .
24.0(27) . . .
29.8(31) . . .
36.6(35) . . .
40.8(34) . . .
34.4(30) . . .
25.5(25) . . .
31.4(31) . . .
33.0(31) . . .
32.4(29) . . .
30.7(29) . . .
32.6(31) . . .
34.6(32) . . .
30.9(29) . . .
35.4(31) . . .
28.1(27) . . .
29.0(28) . . .
30.3(29) . . .
31.3(30) . . .
35.0(32) . . .
34.1(33) . . .
29.3(30) . . .
27.0(27) . . .
33.5(30) . . .
27.3(27) . . .
30.2(30) . . .
28.0(27) . . .
29.8(28) . . .
29.5(28) . . .
27.3(27) . . .
27.9(29) . . .
32.0(33) . . .
31.3(29) . . .
26.4(27) . . .
28.7(28) . . .
27.6(29) . . .
22.3(25) . . .
26.1(27) . . .
26.8(27) . . .
23.8(25) . . .
28.2(29) . . .
30.1(31) . . .
35.0(32) . . .
32.7(30) . . .
32.9(30) . . .
32.0(31) . . .
34.8(33) . . .
24.1(26) . . .
29.7(28) . . .
26.9(29) . . .
26.3(30) . . .
24.8(26) . . .
37.1(33) . . .
36.0(31) . . .
29.1(29) . . .
25.1(26) . . .
28.8(28) . . .
19.9(24) . . .
30.1(28) . . .
24.4(27) . . .
28.8(29) . . .
29.8(31) . . .
23.8(27) . . .
25.5(27) . . .
28.6(29) . . .
33.8(32) . . .
28.9(28) . . .
24.5(25) . . .
28.0(27) . . .
26.9(27) . . .
25.6(27) . . .
28.4(28) . . .
32.2(29) . . .
33.3(30) . . .
27.9(29) . . .
34.6(35) . . .
27.8(28) . . .
28.8(27) . . .
32.1(30) . . .
28.6(27) . . .
41(4) . . .
30.8(30) . . .
32.5(30) . . .
30.5(29) . . .
30.6(31) . . .
29.8(31) . . .
28.5(28) . . .
32.3(30) . . .
22.9(25) . . .
28.8(28) . . .
30.7(30) . . .
37.6(34) . . .
27.9(28) . . .
30.4(30) . . .
38.0(35) . . .
31.8(31) . . .
31.0(30) . . .
24.0(25) . . .
35.7(31) . . .
24.7(26) . . .
21.6(26) . . .
25.2(27) . . .
24.6(26) . . .
27.5(28) . . .
30.1(29) . . .
34.1(33) . . .
28.6(30) . . .
34.7(31) . . .
31.6(31) . . .
25.6(27) . . .
30.6(29) . . .
41.2(33) . . .
29.3(30) . . .
23.3(27) . . .
30.3(29) . . .
33.8(32) . . .
21.8(24) . . .
23.6(26) . . .
26.8(27) . . .
33.5(34) . . .
35.3(35) . . .
25.4(27) . . .
26.4(27) . . .
33.4(31) . . .
30.0(30) . . .
28.6(28) . . .
31.7(30) . . .
38.3(32) . . .
34.3(31) . . .
31.9(31) . . .
27.1(30) . . .
32.1(30) . . .
31.4(29) . . .
34.2(32) . . .
28.3(28) . . .
33.6(31) . . .
35.0(31) . . .
26.6(28) . . .
30.3(31) . . .
25.5(28) . . .
20.8(24) . . .
24.8(26) . . .
32.3(30) . . .
33.7(31) . . .
28.7(31) . . .
33.2(31) . . .
28.2(29) . . .
19.4(24) . . .
21.8(28) . . .
32.2(34) . . .
29.3(28) . . .
30.5(29) . . .
31.1(30) . . .
28.9(29) . . .
30.4(30) . . .
26.3(27) . . .
32.7(31) . . .
23.2(27) . . .
24.4(27) . . .
21.8(25) . . .
27.5(28) . . .
31.6(30) . . .
27.3(28) . . .
25.0(29) . . .
24.5(27) . . .
30.9(29) . . .
25.9(28) . . .
28.6(28) . . .
28.2(28) . . .
31.7(30) . . .
25.8(27) . . .
21.1(24) . . .
29.5(30) . . .
31.8(31) . . .
27.0(27) . . .
31.1(29) . . .
26.8(27) . . .
26.9(29) . . .
33(4) . . .
27.6(29) . . .
31.0(28) . . .
28.3(28) . . .
23.1(26) . . .
29.8(32) . . .
31.4(34) . . .
32.4(30) . . .
29.1(28) . . .
24.7(27) . . .
29.6(30) . . .
36.5(34) . . .
29.0(29) . . .
23.9(26) . . .
24.2(26) . . .
27.6(28) . . .
30.9(31) . . .
26.4(27) . . .
28.1(28) . . .
34.8(32) . . .
34.9(32) . . .
31.3(31) . . .
37.2(32) . . .
30.7(29) . . .
29.9(29) . . .
31.1(30) . . .
31.7(30) . . .
30.5(29) . . .
28.6(29) . . .
25.3(30) . . .
27.2(27) . . .
26.6(27) . . .
31.4(29) . . .
27.3(27) . . .
38.0(34) . . .
36.9(34) . . .
30.4(30) . . .
29.3(29) . . .
29.4(29) . . .
23.0(27) . . .
23.3(26) . . .
33.2(31) . . .
34.3(31) . . .
25.1(27) . . .
22.4(26) . . .
27.5(28) . . .
34.0(31) . . .
33.7(31) . . .
31.6(32) . . .
38.5(33) . . .
31.7(29) . . .
34.9(31) . . .
31.3(29) . . .
33.8(32) . . .
25.3(27) . . .
26.8(28) . . .
34.9(31) . . .
36.8(31) . . .
26.8(28) . . .
24.7(27) . . .
30.9(29) . . .
34.9(31) . . .
26.6(26) . . .
29.4(30) . . .
25.8(30) . . .
28.4(30) . . .
26.4(27) . . .
26.3(27) . . .
35.3(33) . . .
27.6(29) . . .
24.3(27) . . .
24.7(26) . . .
36.1(32) . . .
36.4(33) . . .
32.4(31) . . .
26.2(29) . . .
26.5(27) . . .
33.2(30) . . .
37.8(33) . . .
36.0(33) . . .
27.9(28) . . .
29.5(28) . . .
33.7(31) . . .
26.2(26) . . .
24.5(26) . . .
28.9(30) . . .
23.6(25) . . .
32.0(32) . . .
31.2(30) . . .
32.5(30) . . .
20.7(23) . . .
22.8(25) . . .
27.9(28) . . .
31.9(31) . . .
32.9(30) . . .
25.9(27) . . .
28.9(28) . . .
21.9(26) . . .
26.2(30) . . .
33.3(32) . . .
25.9(26) . . .
29.2(28) . . .
21.9(24) . . .
29.2(31) . . .
29.1(30) . . .
29.9(28) . . .
24.9(26) . . .
29.4(28) . . .
34.2(33) . . .
27.1(27) . . .
32.2(30) . . .
27.1(27) . . .
28.5(27) . . .
29.5(28) . . .
25.8(27) . . .
19.3(23) . . .
39.5(34) . . .
34.9(31) . . .
28.8(28) . . .
23.4(26) . . .
33.3(30) . . .
26.4(28) . . .
27.5(30) . . .
26.3(28) . . .
28.5(29) . . .
24.5(26) . . .
33.7(32) . . .
33.5(31) . . .
31.3(30) . . .
27.4(28) . . .
28.3(29) . . .
32.0(31) . . .
27.9(29) . . .
23.7(26) . . .
25.8(27) . . .
27.6(28) . . .
26.0(28) . . .
25.7(28) . . .
24.8(28) . . .
26.6(29) . . .
27.7(27) . . .
32.5(33) . . .
27.2(30) . . .
27.4(31) . . .
26.0(26) . . .
33.6(31) . . .
25.0(29) . . .
27.1(29) . . .
35.7(32) . . .
27.7(27) . . .
26.3(27) . . .
29.4(29) . . .
29.5(29) . . .
32.3(32) . . .
36.1(32) . . .
24.6(26) . . .
26.6(28) . . .
28.9(29) . . .
35.0(32) . . .
37.8(32) . . .
26.9(27) . . .
32.9(31) . . .
32.1(33) . . .
23.5(27) . . .
29.9(29) . . .
31.7(29) . . .
29.6(30) . . .
29.1(29) . . .
27.9(28) . . .
29.0(28) . . .
34.5(31) . . .
31.2(29) . . .
26.6(28) . . .
27.0(28) . . .
31.6(30) . . .
26.7(28) . . .
29.7(30) . . .
41(4) . . .
32.9(30) . . .
24.5(26) . . .
33.4(32) . . .
29.4(27) . . .
35.9(30) . . .
29.8(28) . . .
32.3(30) . . .
29.3(30) . . .
28.1(28) . . .
27.7(29) . . .
29.4(29) . . .
36.6(31) . . .
28.1(28) . . .
31.8(31) . . .
23.5(25) . . .
29.3(29) . . .
30.5(29) . . .
30.4(31) . . .
32.8(31) . . .
30.7(29) . . .
23.7(26) . . .
26.7(27) . . .
27.9(30) . . .
27.4(29) . . .
25.2(26) . . .
20.1(24) . . .
30.4(28) . . .
29.2(28) . . .
32.6(32) . . .
32.0(30) . . .
27.3(27) . . .
38.6(34) . . .
32.2(30) . . .
32.4(32) . . .
26.3(27) . . .
28.1(28) . . .
24.5(28) . . .
33.0(33) . . .
30.9(31) . . .
34.3(33) . . .
28.9(28) . . .
27.4(27) . . .
28.8(29) . . .
17.4(21) . . .
21.1(25) . . .
25.0(27) . . .
26.4(27) . . .
27.5(28) . . .
32.0(29) . . .
33.9(30) . . .
30.9(29) . . .
27.0(28) . . .
29.2(29) . . .
30.4(29) . . .
25.9(28) . . .
26.7(27) . . .
26.9(29) . . .
24.2(25) . . .
30.9(28) . . .
26.3(27) . . .
30.0(29) . . .
26.1(26) . . .
26.8(28) . . .
28.9(29) . . .
22.1(24) . . .
28.6(28) . . .
23.0(25) . . .
31.0(32) . . .
30.5(31) . . .
30.9(29) . . .
26.6(27) . . .
32.7(32) . . .
33.9(32) . . .
29.5(28) . . .
29.5(28) . . .
21.6(24) . . .
29.0(29) . . .
23.5(28) . . .
27.4(29) . . .
26.9(27) . . .
23.2(25) . . .
24.4(26) . . .
27.0(28) . . .
28.3(28) . . .
30.5(29) . . .
32.9(30) . . .
29.0(30) . . .
33.0(32) . . .
32.1(31) . . .
30.4(29) . . .
29.7(31) . . .
22.9(25) . . .
25.6(28) . . .
27.8(29) . . .
30.3(28) . . .
28.4(28) . . .
27.5(29) . . .
20.7(25) . . .
25.4(27) . . .
28.0(28) . . .
38(4) . . .
30.9(32) . . .
30.4(31) . . .
24.3(27) . . .
27.2(27) . . .
29.1(29) . . .
23.7(26) . . .
32.2(31) . . .
28.8(30) . . .
33.8(30) . . .
32.5(32) . . .
28.3(28) . . .
30.4(29) . . .
29.0(29) . . .
25.0(26) . . .
26.1(28) . . .
23.4(27) . . .
29.2(28) . . .
31.4(29) . . .
39.4(33) . . .
27.8(30) . . .
30.1(30) . . .
28.1(28) . . .
26.0(26) . . .
33.3(30) . . .
37.0(33) . . .
23.3(25) . . .
33.0(33) . . .
29.3(28) . . .
25.3(29) . . .
25.5(28) . . .
25.4(28) . . .
35(4) . . .
35.3(31) . . .
33.2(30) . . .
31.6(30) . . .
31.7(31) . . .
28.2(27) . . .
34.1(31) . . .
28.8(30) . . .
29.5(28) . . .
33.3(31) . . .
24.1(26) . . .
21.5(24) . . .
22.4(25) . . .
30.7(32) . . .
32.0(34) . . .
25.4(27) . . .
28.0(28) . . .
27.4(29) . . .
26.0(29) . . .
21.9(25) . . .
28.4(28) . . .
31.4(29) . . .
25.3(26) . . .
30.3(30) . . .
29.9(28) . . .
25.9(26) . . .
34.5(30) . . .
25.2(26) . . .
32.3(33) . . .
26.4(28) . . .
33.2(31) . . .
27.9(27) . . .
29.0(30) . . .
30.0(29) . . .
38.0(33) . . .
34.3(30) . . .
25.2(26) . . .
33.2(33) . . .
25.2(26) . . .
37.1(33) . . .
29.5(28) . . .
31.9(30) . . .
30.8(29) . . .
42(4) . . .
28.4(28) . . .
33.7(31) . . .
27.3(27) . . .
33.6(33) . . .
26.4(27) . . .
31.6(30) . . .
33.3(31) . . .
29.7(28) . . .
35.0(34) . . .
25.1(28) . . .
25.9(26) . . .
21.8(24) . . .
32.6(31) . . .
26.3(28) . . .
26.7(29) . . .
30.8(31) . . .
27.1(27) . . .
38(4) . . .
28.0(30) . . .
29.9(30) . . .
37.9(33) . . .
29.5(28) . . .
27.8(28) . . .
29.9(29) . . .
37.9(32) . . .
31.3(30) . . .
34.4(31) . . .
25.0(25) . . .
23.9(25) . . .
31.3(30) . . .
36.6(32) . . .
31.0(29) . . .
24.9(27) . . .
25.4(27) . . .
29.3(29) . . .
23.4(25) . . .
37.3(32) . . .
26.6(28) . . .
25.6(29) . . .
29.4(28) . . .
38.9(33) . . .
29.0(28) . . .
32.8(31) . . .
23.6(27) . . .
24.9(28) . . .
27.1(27) . . .
35.6(31) . . .
30.3(30) . . .
23.8(26) . . .
23.0(25) . . .
23.0(25) . . .
29.5(28) . . .
27.8(28) . . .
25.0(29) . . .
27.3(28) . . .
28.0(28) . . .
24.6(26) . . .
35.3(34) . . .
24.4(26) . . .
27.6(30) . . .
29.5(29) . . .
33.0(30) . . .
29.0(30) . . .
27.5(29) . . .
30.7(30) . . .
29.8(30) . . .
32.3(31) . . .
24.9(25) . . .
33.3(32) . . .
26.3(27) . . .
20.8(24) . . .
22.4(25) . . .
32.8(33) . . .
33.0(31) . . .
28.4(29) . . .
35.3(31) . . .
29.0(29) . . .
27.6(28) . . .
36.8(34) . . .
41(4) . . .
32.0(30) . . .
33.0(32) . . .
24.0(25) . . .
28.1(32) . . .
23.6(25) . . .
38.4(32) . . .
29.9(30) . . .
26.7(28) . . .
33.3(31) . . .
33.0(30) . . .
31.8(30) . . .
28.7(28) . . .
24.9(27) . . .
31.5(31) . . .
30.0(28) . . .
34.0(30) . . .
33.6(30) . . .
35.2(32) . . .
28.1(27) . . .
32.0(30) . . .
27.1(27) . . .
26.9(27) . . .
26.2(29) . . .
24.1(28) . . .
28.9(28) . . .
31.2(29) . . .
33.5(30) . . .
26.4(26) . . .
24.5(28) . . .
23.5(25) . . .
34.2(31) . . .
28.4(29) . . .
35.2(33) . . .
33.5(32) . . .
35.2(31) . . .
30.6(31) . . .
31.3(30) . . .
25.3(26) . . .
25.9(27) . . .
38.7(33) . . .
28.7(28) . . .
31.2(31) . . .
25.0(26) . . .
29.3(28) . . .
30.1(28) . . .
22.7(25) . . .
26.6(26) . . .
29.7(28) . . .
25.3(26) . . .
24.8(26) . . .
25.1(27) . . .
21.7(25) . . .
30.0(30) . . .
29.9(29) . . .
27.5(29) . . .
22.0(25) . . .
31.6(33) . . .
30.3(31) . . .
32.2(30) . . .
31.0(31) . . .
27.7(28) . . .
25.4(26) . . .
25.8(26) . . .
29.0(28) . . .
37.7(32) . . .
26.0(26) . . .
30.2(31) . . .
32.7(30) . . .
29.6(29) . . .
30.9(29) . . .
26.4(27) . . .
27.9(29) . . .
40.7(35) . . .
30.5(29) . . .
27.8(28) . . .
20.8(25) . . .
22.0(26) . . .
34.3(32) . . .
23.4(25) . . .
31.6(30) . . .
26.6(28) . . .
21.6(25) . . .
27.5(30) . . .
21.1(24) . . .
34.8(33) . . .
33.1(31) . . .
26.4(27) . . .
21.8(26) . . .
31.7(30) . . .
34.2(32) . . .
22.7(26) . . .
26.3(26) . . .
32.2(31) . . .
39.3(33) . . .
39.6(34) . . .
33.8(32) . . .
21.1(25) . . .
30.4(30) . . .
30.4(29) . . .
40.1(33) . . .
34.8(32) . . .
31.9(30) . . .
30.3(29) . . .
21.9(24) . . .
28.6(29) . . .
34.8(32) . . .
27.7(27) . . .
30.6(30) . . .
38.8(33) . . .
25.5(27) . . .
23.9(29) . . .
27.4(30) . . .
22.8(25) . . .
28.4(27) . . .
32.7(31) . . .
33.5(33) . . .
29.1(31) . . .
28.3(28) . . .
33.4(31) . . .
23.3(25) . . .
28.3(30) . . .
30.5(29) . . .
35.8(32) . . .
27.5(27) . . .
28.4(28) . . .
37(4) . . .
25.5(27) . . .
28.1(27) . . .
28.2(28) . . .
24.9(26) . . .
27.2(28) . . .
31.6(31) . . .
30.0(29) . . .
37.3(33) . . .
32.5(32) . . .
25.6(27) . . .
29.4(29) . . .
28.0(27) . . .
25.9(26) . . .
33.7(31) . . .
24.0(25) . . .
31.7(31) . . .
26.6(27) . . .
28.0(29) . . .
27.1(28) . . .
31.4(30) . . .
28.5(29) . . .
30.1(29) . . .
28.4(28) . . .
30.3(29) . . .
28.4(29) . . .
31.8(30) . . .
21.7(24) . . .
28.7(29) . . .
30.0(32) . . .
26.6(27) . . .
32.3(30) . . .
26.4(27) . . .
29.9(30) . . .
34.6(31) . . .
32.8(29) . . .
44(4) . . .
32.1(30) . . .
33.2(32) . . .
29.2(30) . . .
29.3(29) . . .
27.1(27) . . .
28.2(27) . . .
30.7(31) . . .
26.8(30) . . .
25.0(26) . . .
28.0(28) . . .
31.6(29) . . .
30.8(30) . . .
33.3(31) . . .
27.0(26) . . .
29.0(28) . . .
33.2(30) . . .
27.4(27) . . .
35.4(33) . . .
27.3(27) . . .
28.2(28) . . .
29.1(28) . . .
29.8(31) . . .
25.8(27) . . .
30.1(30) . . .
21.0(24) . . .
28.8(29) . . .
28.4(29) . . .
27.6(29) . . .
28.8(29) . . .
34.8(30) . . .
35.8(33) . . .
32.5(31) . . .
29.1(31) . . .
20.3(23) . . .
17.7(23) . . .
27.3(29) . . .
26.4(27) . . .
32.9(31) . . .
24.7(26) . . .
31.1(29) . . .
35.7(34) . . .
27.8(29) . . .
30.7(29) . . .
29.5(30) . . .
30.1(28) . . .
22.4(25) . . .
35.7(34) . . .
29.9(29) . . .
29.6(29) . . .
27.8(27) . . .
29.5(28) . . .
30.9(30) . . .
31.9(30) . . .
38.4(32) . . .
26.1(27) . . .
24.5(27) . . .
32.0(32) . . .
31.5(29) . . .
27.6(27) . . .
32.2(30) . . .
31.3(30) . . .
30.6(32) . . .
33.3(32) . . .
32.2(30) . . .
31.5(31) . . .
34.0(32) . . .
28.6(28) . . .
31.7(30) . . .
26.5(27) . . .
25.7(26) . . .
33.3(34) . . .
31.9(32) . . .
29.0(30) . . .
28.0(28) . . .
29.3(28) . . .
31.6(30) . . .
33.4(32) . . .
26.6(27) . . .
20.3(24) . . .
35.2(31) . . .
24.0(25) . . .
24.3(26) . . .
28.6(29) . . .
26.6(27) . . .
33.5(31) . . .
31.2(30) . . .
31.0(29) . . .
32.5(30) . . .
28.0(27) . . .
29.1(28) . . .
30.9(30) . . .
39.1(34) . . .
30.7(30) . . .
28.8(28) . . .
32.8(32) . . .
28.3(32) . . .
29.1(28) . . .
33.3(30) . . .
23.0(26) . . .
26.8(27) . . .
26.4(29) . . .
29.1(29) . . .
29.6(28) . . .
25.2(26) . . .
25.5(26) . . .
29.9(32) . . .
20.2(26) . . .
26.6(27) . . .
23.7(26) . . .
27.3(28) . . .
34.5(33) . . .
32.5(33) . . .
26.3(27) . . .
28.2(28) . . .
29.3(31) . . .
25.8(28) . . .
31.7(30) . . .
26.7(27) . . .
29.3(28) . . .
34.4(31) . . .
30.1(30) . . .
26.3(28) . . .
26.0(27) . . .
35.3(31) . . .
28.6(28) . . .
31.8(32) . . .
31.6(30) . . .
27.6(27) . . .
25.9(26) . . .
31.6(30) . . .
26.1(28) . . .
33.5(30) . . .
27.0(27) . . .
31.6(30) . . .
33.5(34) . . .
24.7(26) . . .
32.3(31) . . .
31.7(29) . . .
37.3(32) . . .
34.5(33) . . .
30.1(30) . . .
29.5(28) . . .
29.9(29) . . .
31.3(30) . . .
29.6(29) . . .
29.8(32) . . .
28.1(28) . . .
31.1(30) . . .
30.2(29) . . .
19.8(23) . . .
28.8(30) . . .
27.9(27) . . .
32.4(29) . . .
30.3(30) . . .
29.8(30) . . .
29.7(29) . . .
34.1(31) . . .
31.9(30) . . .
25.8(27) . . .
28.6(31) . . .
29.2(30) . . .
29.7(28) . . .
27.6(27) . . .
28.8(30) . . .
27.2(29) . . .
31.9(31) . . .
34.5(30) . . .
27.3(29) . . .
29.7(30) . . .
26.4(30) . . .
23.4(27) . . .
27.8(27) . . .
29.7(29) . . .
29.3(28) . . .
26.8(29) . . .
29.5(30) . . .
32.0(29) . . .
34.8(31) . . .
33.6(31) . . .
35.2(34) . . .
28.4(28) . . .
24.9(26) . . .
32.7(31) . . .
31.1(29) . . .
27.1(29) . . .
24.6(31) . . .
29.4(28) . . .
28.2(28) . . .
32.1(31) . . .
30.0(30) . . .
18.8(22) . . .
23.5(26) . . .
24.4(26) . . .
28.0(29) . . .
22.2(24) . . .
22.7(26) . . .
16.9(22) . . .
23.9(27) . . .
31.4(32) . . .
28.9(29) . . .
29.0(28) . . .
32.6(30) . . .
33.2(32) . . .
28.4(29) . . .
28.9(29) . . .
27.8(27) . . .
23.5(26) . . .
31.6(30) . . .
29.3(29) . . .
26.7(28) . . .
27.5(27) . . .
28.3(28) . . .
34.3(32) . . .
32.0(30) . . .
26.4(27) . . .
32.1(30) . . .
36.9(32) . . .
32.8(32) . . .
27.7(28) . . .
25.5(27) . . .
23.0(25) . . .
21.5(24) . . .
28.0(29) . . .
26.3(26) . . .
28.6(28) . . .
31.5(29) . . .
29.1(28) . . .
31.7(30) . . .
42(4) . . .
33.2(31) . . .
25.9(26) . . .
31.0(32) . . .
31.5(31) . . .
30.8(29) . . .
32.0(31) . . .
27.1(27) . . .
27.1(27) . . .
33.9(35) . . .
31.4(32) . . .
22.6(27) . . .
28.4(29) . . .
31.4(31) . . .
26.6(29) . . .
32.8(33) . . .
35.6(33) . . .
28.1(27) . . .
35.8(34) . . .
22.7(27) . . .
28.6(28) . . .
29.0(28) . . .
36.9(31) . . .
23.5(25) . . .
28.4(29) . . .
28.0(29) . . .
26.3(27) . . .
31.0(29) . . .
28.0(28) . . .
25.5(27) . . .
28.6(28) . . .
31.4(30) . . .
26.2(26) . . .
27.7(28) . . .
28.4(29) . . .
34.9(32) . . .
24.0(25) . . .
33.7(30) . . .
28.9(28) . . .
22.2(24) . . .
37.2(32) . . .
27.7(28) . . .
28.0(28) . . .
31.4(32) . . .
31.7(31) . . .
34.7(32) . . .
23.3(25) . . .
32.4(30) . . .
29.3(28) . . .
26.8(27) . . .
28.3(29) . . .
23.1(25) . . .
30.6(31) . . .
27.3(29) . . .
35.6(31) . . .
37.5(34) . . .
23.1(25) . . .
23.1(25) . . .
25.2(26) . . .
31.8(30) . . .
27.0(27) . . .
26.9(27) . . .
28.4(29) . . .
32.0(32) . . .
31.1(30) . . .
31.9(29) . . .
30.5(29) . . .
25.6(27) . . .
26.4(28) . . .
35.6(35) . . .
27.8(29) . . .
25.1(26) . . .
34.7(32) . . .
26.6(27) . . .
31.5(29) . . .
34.6(30) . . .
28.1(28) . . .
26.8(28) . . .
24.9(29) . . .
28.1(28) . . .
30.0(28) . . .
27.6(28) . . .
25.1(28) . . .
28.2(30) . . .
27.6(28) . . .
33.0(30) . . .
32.6(30) . . .
24.0(26) . . .
27.6(31) . . .
29.2(31) . . .
21.3(25) . . .
26.9(29) . . .
29.6(29) . . .
25.2(27) . . .
38.2(33) . . .
29.3(29) . . .
31.8(30) . . .
33.2(31) . . .
27.4(29) . . .
33.5(32) . . .
24.1(26) . . .
26.0(27) . . .
27.8(33) . . .
24.5(28) . . .
28.1(28) . . .
30.7(29) . . .
33.9(32) . . .
27.9(29) . . .
27.5(30) . . .
23.5(26) . . .
28.6(28) . . .
29.8(29) . . .
35.3(34) . . .
27.5(29) . . .
22.4(25) . . .
39.9(33) . . .
30.7(31) . . .
35.0(33) . . .
28.8(29) . . .
32.7(30) . . .
30.5(30) . . .
30.7(29) . . .
26.3(27) . . .
23.0(25) . . .
27.7(27) . . .
34.8(31) . . .
32.1(30) . . .
23.8(29) . . .
28.1(29) . . .
30.0(29) . . .
32.1(30) . . .
30.6(30) . . .
24.5(29) . . .
27.2(28) . . .
31.1(29) . . .
27.1(27) . . .
35.9(33) . . .
36.2(35) . . .
25.8(27) . . .
30.1(29) . . .
28.4(28) . . .
26.5(28) . . .
27.0(28) . . .
33.9(35) . . .
40.3(33) . . .
35.2(32) . . .
24.1(26) . . .
29.2(31) . . .
32.3(31) . . .
25.4(26) . . .
32.6(31) . . .
34.8(33) . . .
35.5(32) . . .
29.0(28) . . .
33.3(30) . . .
32.0(30) . . .
22.1(24) . . .
28.7(31) . . .
23.5(26) . . .
28.2(28) . . .
20.9(26) . . .
26.9(29) . . .
29.9(29) . . .
27.0(27) . . .
29.0(28) . . .
29.5(32) . . .
32.0(32) . . .
37.5(34) . . .
30.0(31) . . .
33.2(30) . . .
26.9(28) . . .
31.6(30) . . .
34.8(35) . . .
28.2(28) . . .
25.5(26) . . .
29.9(29) . . .
28.1(28) . . .
38.7(35) . . .
26.1(27) . . .
28.7(28) . . .
25.7(27) . . .
32.8(32) . . .
29.4(28) . . .
27.1(27) . . .
33.8(31) . . .
26.7(29) . . .
28.4(31) . . .
28.9(29) . . .
16.0(21) . . .
27.5(27) . . .
32.2(31) . . .
22.6(26) . . .
28.6(30) . . .
24.6(26) . . .
22.6(26) . . .
29.4(29) . . .
31.7(31) . . .
29.9(29) . . .
26.2(27) . . .
24.8(26) . . .
26.8(30) . . .
32.8(31) . . .
30.0(29) . . .
23.6(26) . . .
25.1(26) . . .
32.9(34) . . .
32.4(31) . . .
26.8(28) . . .
21.9(25) . . .
30.4(30) . . .
29.3(30) . . .
30.1(29) . . .
29.6(29) . . .
28.4(28) . . .
26.7(28) . . .
28.2(29) . . .
33.2(32) . . .
26.5(28) . . .
31.7(29) . . .
27.7(28) . . .
27.5(30) . . .
31.3(30) . . .
26.4(28) . . .
24.6(25) . . .
29.1(29) . . .
27.6(29) . . .
32.8(32) . . .
35.6(31) . . .
28.1(28) . . .
29.6(29) . . .
30.5(31) . . .
31.0(29) . . .
34.1(31) . . .
27.9(28) . . .
31.8(30) . . .
30.8(31) . . .
32.9(32) . . .
25.5(27) . . .
27.1(28) . . .
23.9(26) . . .
20.1(24) . . .
27.6(30) . . .
26.6(27) . . .
22.1(26) . . .
23.6(26) . . .
20.2(24) . . .
27.1(28) . . .
31.9(30) . . .
27.3(29) . . .
28.4(30) . . .
28.8(30) . . .
31.0(30) . . .
24.4(26) . . .
29.8(29) . . .
26.0(28) . . .
31.9(34) . . .
25.8(28) . . .
29.0(28) . . .
22.6(27) . . .
25.2(27) . . .
29.5(29) . . .
30.1(29) . . .
32.2(30) . . .
24.4(27) . . .
33.1(32) . . .
31.5(30) . . .
30.9(29) . . .
23.9(25) . . .
30.2(30) . . .
20.9(24) . . .
30.6(32) . . .
29.5(29) . . .
30.4(28) . . .
26.2(26) . . .
29.7(30) . . .
30.9(29) . . .
32.5(30) . . .
28.3(27) . . .
27.3(28) . . .
25.5(27) . . .
28.0(29) . . .
34.6(30) . . .
28.9(29) . . .
28.8(29) . . .
25.0(28) . . .
17.5(22) . . .
31.0(29) . . .
26.8(27) . . .
30.5(30) . . .
27.2(27) . . .
35.7(33) . . .
25.5(27) . . .
32.8(30) . . .
27.9(28) . . .
32.2(31) . . .
33.8(31) . . .
29.6(29) . . .
25.0(26) . . .
27.6(26) . . .
35.4(35) . . .
29.3(30) . . .
27.6(27) . . .
28.0(31) . . .
35.7(34) . . .
29.5(28) . . .
27.0(27) . . .
25.5(27) . . .
25.3(26) . . .
26.0(29) . . .
36.7(34) . . .
30.4(30) . . .
29.9(29) . . .
31.9(33) . . .
32.3(30) . . .
30.0(30) . . .
27.4(27) . . .
32.1(30) . . .
39.3(34) . . .
26.5(28) . . .
30.8(31) . . .
34.1(32) . . .
34.5(30) . . .
31.5(30) . . .
30.0(30) . . .
33.5(31) . . .
35.5(31) . . .
35.4(31) . . .
30.8(29) . . .
25.1(27) . . .
25.1(26) . . .
31.2(29) . . .
25.1(26) . . .
28.9(30) . . .
25.8(29) . . .
27.5(29) . . .
23.7(25) . . .
27.8(27) . . .
31.5(31) . . .
38(4) . . .
27.0(27) . . .
22.4(25) . . .
25.0(26) . . .
18.2(23) . . .
24.5(29) . . .
24.6(26) . . .
30.3(29) . . .
25.8(27) . . .
19.1(22) . . .
30.2(30) . . .
33.3(31) . . .
29.3(28) . . .
29.0(28) . . .
26.3(28) . . .
29.1(31) . . .
24.2(26) . . .
19.3(23) . . .
33.7(31) . . .
29.0(28) . . .
31.9(31) . . .
38.2(33) . . .
25.7(27) . . .
21.8(25) . . .
22.5(25) . . .
28.7(29) . . .
26.9(28) . . .
24.2(26) . . .
27.2(27) . . .
21.5(23) . . .
25.5(31) . . .
27.6(27) . . .
26.1(26) . . .
30.1(30) . . .
33.3(32) . . .
27.1(29) . . .
25.1(27) . . .
29.0(28) . . .
33.8(32) . . .
24.8(27) . . .
28.7(28) . . .
27.8(28) . . .
33.2(30) . . .
25.6(28) . . .
28.7(30) . . .
32.0(30) . . .
26.8(27) . . .
27.2(28) . . .
23.1(29) . . .
33.1(33) . . .
39.1(33) . . .
32.5(30) . . .
35.2(31) . . .
31.4(29) . . .
28.9(30) . . .
26.5(27) . . .
32.9(30) . . .
30.1(28) . . .
26.7(27) . . .
29.9(30) . . .
24.0(27) . . .
24.8(26) . . .
21.4(24) . . .
30.7(30) . . .
31.5(30) . . .
32.4(30) . . .
37.5(32) . . .
34.3(32) . . .
25.0(26) . . .
33.8(33) . . .
33.5(31) . . .
26.7(28) . . .
26.7(27) . . .
29.3(29) . . .
24.9(26) . . .
28.8(29) . . .
30.0(29) . . .
35.0(32) . . .
34.7(32) . . .
35.5(34) . . .
36.9(32) . . .
27.2(27) . . .
23.4(26) . . .
30.5(31) . . .
38.9(33) . . .
37.2(32) . . .
27.9(28) . . .
30.9(32) . . .
36(4) . . .
26.9(28) . . .
26.5(28) . . .
25.6(26) . . .
27.6(28) . . .
31.3(34) . . .
30.9(30) . . .
40.1(33) . . .
20.8(24) . . .
29.3(30) . . .
32.4(33) . . .
28.9(30) . . .
21.6(24) . . .
31.5(32) . . .
37.2(33) . . .
31.3(30) . . .
24.0(25) . . .
27.3(28) . . .
28.7(28) . . .
35.5(32) . . .
27.2(27) . . .
21.3(25) . . .
27.4(27) . . .
31.5(30) . . .
32.7(31) . . .
31.7(30) . . .
32.5(31) . . .
26.4(28) . . .
32.2(29) . . .
29.6(29) . . .
24.8(27) . . .
25.7(28) . . .
32.3(29) . . .
37.8(33) . . .
31.8(31) . . .
28.2(28) . . .
26.1(26) . . .
26.2(27) . . .
25.9(28) . . .
28.1(29) . . .
23.8(28) . . .
28.4(28) . . .
29.2(28) . . .
28.3(28) . . .
37.6(34) . . .
27.7(28) . . .
33.4(31) . . .
25.1(26) . . .
35.2(31) . . .
32.9(32) . . .
30.3(29) . . .
27.8(27) . . .
34.3(32) . . .
30.4(30) . . .
26.9(29) . . .
33.6(32) . . .
33.3(30) . . .
30.8(29) . . .
23.6(27) . . .
36(4) . . .
30.4(28) . . .
36.0(31) . . .
26.8(28) . . .
28.2(28) . . .
24.4(27) . . .
37.4(34) . . .
32.9(30) . . .
32.2(30) . . .
32.1(30) . . .
40(4) . . .
33.9(33) . . .
33.6(30) . . .
27.1(27) . . .
34.1(32) . . .
26.0(27) . . .
27.5(27) . . .
32.7(30) . . .
30.9(30) . . .
37.3(34) . . .
27.0(30) . . .
24.9(27) . . .
32.8(30) . . .
31.7(30) . . .
36.0(34) . . .
27.8(29) . . .
25.9(27) . . .
24.3(27) . . .
33.5(31) . . .
25.1(26) . . .
28.9(28) . . .
28.4(29) . . .
24.4(27) . . .
29.5(32) . . .
23.8(25) . . .
24.6(25) . . .
28.7(28) . . .
26.9(27) . . .
25.4(29) . . .
25.2(27) . . .
32.3(33) . . .
25.7(26) . . .
25.4(26) . . .
22.4(25) . . .
27.0(29) . . .
24.7(26) . . .
30.0(29) . . .
32.6(30) . . .
31.3(31) . . .
26.4(27) . . .
29.2(29) . . .
28.0(28) . . .
31.7(29) . . .
33.1(32) . . .
32.0(31) . . .
32.3(30) . . .
32.2(29) . . .
26.5(27) . . .
39(4) . . .
23.3(26) . . .
34.6(31) . . .
29.8(28) . . .
17.7(22) . . .
27.2(29) . . .
25.4(27) . . .
24.4(26) . . .
29.7(28) . . .
33.0(31) . . .
39(4) . . .
26.7(26) . . .
30.7(29) . . .
26.8(26) . . .
28.1(28) . . .
38.3(33) . . .
30.0(29) . . .
23.9(26) . . .
33.7(30) . . .
28.9(28) . . .
30.9(30) . . .
30.0(32) . . .
23.0(26) . . .
32.2(29) . . .
24.7(27) . . .
28.8(31) . . .
23.6(25) . . .
34.8(31) . . .
30.1(29) . . .
29.2(31) . . .
32.8(32) . . .
34.9(32) . . .
32.5(32) . . .
27.6(27) . . .
42(4) . . .
26.4(28) . . .
31.0(29) . . .
29.3(29) . . .
30.0(29) . . .
33.8(32) . . .
30.1(31) . . .
24.6(26) . . .
36.1(31) . . .
32.0(29) . . .
32.0(30) . . .
27.8(29) . . .
27.8(28) . . .
33.3(30) . . .
25.4(26) . . .
24.9(26) . . .
22.4(25) . . .
28.9(28) . . .
29.4(28) . . .
32.8(32) . . .
23.6(25) . . .
31.6(33) . . .
26.2(29) . . .
26.7(27) . . .
24.1(28) . . .
34.1(32) . . .
24.9(27) . . .
25.6(26) . . .
28.3(28) . . .
27.1(29) . . .
28.2(31) . . .
31.8(31) . . .
31.6(30) . . .
37.4(32) . . .
26.1(26) . . .
32.2(31) . . .
36.4(33) . . .
31.2(29) . . .
23.0(25) . . .
26.7(28) . . .
27.4(31) . . .
22.4(26) . . .
29.8(28) . . .
29.0(28) . . .
22.7(27) . . .
22.2(26) . . .
33.8(32) . . .
27.9(28) . . .
23.2(25) . . .
26.3(27) . . .
33.4(33) . . .
29.4(28) . . .
35.3(31) . . .
31.1(30) . . .
25.4(27) . . .
30.5(33) . . .
26.0(28) . . .
29.4(28) . . .
38.8(33) . . .
27.2(27) . . .
29.8(31) . . .
26.4(27) . . .
31.6(30) . . .
33.0(30) . . .
30.3(29) . . .
29.8(30) . . .
33.6(33) . . .
28.1(28) . . .
26.3(27) . . .
30.8(31) . . .
27.6(29) . . .
33.5(31) . . .
23.3(25) . . .
31.5(29) . . .
27.7(28) . . .
30.4(30) . . .
28.4(27) . . .
31.6(29) . . .
34.4(30) . . .
35.2(31) . . .
29.8(30) . . .
29.8(29) . . .
29.2(28) . . .
13.4(20) . . .
31.6(31) . . .
24.7(27) . . .
29.8(30) . . .
24.1(25) . . .
21.2(25) . . .
27.3(29) . . .
30.9(31) . . .
26.5(27) . . .
34.0(30) . . .
28.5(29) . . .
31.6(29) . . .
34.7(31) . . .
28.0(27) . . .
28.4(28) . . .
32.0(31) . . .
25.4(26) . . .
24.8(27) . . .
27.2(27) . . .
25.9(27) . . .
22.6(29) . . .
23.1(27) . . .
33.4(32) . . .
35.3(31) . . .
32.8(31) . . .
28.2(29) . . .
26.5(29) . . .
27.8(29) . . .
30.9(29) . . .
27.5(28) . . .
30.4(30) . . .
34.7(33) . . .
42(4) . . .
20.9(25) . . .
32.6(31) . . .
26.0(26) . . .
36.6(34) . . .
31.7(30) . . .
24.5(26) . . .
30.9(30) . . .
26.2(28) . . .
23.0(26) . . .
21.2(23) . . .
32.8(31) . . .
24.1(26) . . .
24.3(26) . . .
28.4(30) . . .
24.6(26) . . .
28.4(28) . . .
25.8(26) . . .
27.6(30) . . .
23.0(26) . . .
23.4(25) . . .
36.3(32) . . .
30.4(29) . . .
30.9(31) . . .
30.5(30) . . .
32.6(31) . . .
28.7(29) . . .
20.0(26) . . .
21.6(25) . . .
34.0(33) . . .
28.0(28) . . .
24.9(27) . . .
31.0(29) . . .
25.5(27) . . .
25.2(27) . . .
29.6(28) . . .
22.4(24) . . .
30.6(31) . . .
25.9(28) . . .
28.3(27) . . .
23.9(25) . . .
33.5(31) . . .
25.1(28) . . .
26.4(28) . . .
33.8(33) . . .
43.2(35) . . .
23.3(26) . . .
27.0(30) . . .
23.5(27) . . .
28.9(29) . . .
27.3(27) . . .
24.1(26) . . .
28.1(29) . . .
26.1(28) . . .
29.0(29) . . .
18.8(23) . . .
30.2(29) . . .
34.7(31) . . .
32.0(31) . . .
34.1(34) . . .
31.6(30) . . .
30.4(29) . . .
27.3(28) . . .
36(4) . . .
21.7(25) . . .
29.8(29) . . .
23.7(25) . . .
25.5(26) . . .
28.4(29) . . .
29.3(29) . . .
30.7(28) . . .
32.7(30) . . .
33.5(31) . . .
33.7(33) . . .
29.7(30) . . .
34.3(31) . . .
30.4(29) . . .
28.5(28) . . .
36.6(31) . . .
34.5(31) . . .
20.7(24) . . .
24.0(27) . . .
24.5(26) . . .
28.6(28) . . .
31.5(30) . . .
25.7(26) . . .
27.6(28) . . .
28.2(31) . . .
31.3(30) . . .
30.8(29) . . .
31.5(30) . . .
29.4(30) . . .
32.4(33) . . .
17.8(21) . . .
26.5(27) . . .
28.9(28) . . .
33.6(31) . . .
23.2(26) . . .
32.1(30) . . .
28.2(28) . . .
24.3(26) . . .
30.3(31) . . .
31.6(34) . . .
23.3(26) . . .
26.7(27) . . .
35.9(32) . . .
33.7(32) . . .
30.8(30) . . .
38.8(33) . . .
25.8(27) . . .
28.0(27) . . .
30.8(29) . . .
24.0(25) . . .
24.4(26) . . .
30.2(29) . . .
29.8(28) . . .
28.0(28) . . .
23.8(25) . . .
27.5(27) . . .
34.0(32) . . .
37.6(34) . . .
32.8(31) . . .
38.7(33) . . .
39(4) . . .
28.8(28) . . .
27.5(30) . . .
25.3(29) . . .
32.2(32) . . .
26.5(27) . . .
27.8(28) . . .
28.0(30) . . .
23.1(26) . . .
26.5(27) . . .
35.6(35) . . .
29.4(29) . . .
26.1(28) . . .
27.9(30) . . .
29.5(30) . . .
21.7(24) . . .
28.0(28) . . .
27.4(28) . . .
28.3(30) . . .
32.0(30) . . .
33.8(30) . . .
31.9(30) . . .
26.0(27) . . .
27.9(30) . . .
33.9(33) . . .
26.2(27) . . .
26.8(27) . . .
26.3(26) . . .
31.1(29) . . .
29.5(28) . . .
29.2(28) . . .
27.6(28) . . .
26.0(28) . . .
25.7(27) . . .
30.0(30) . . .
31.8(29) . . .
31.0(30) . . .
30.1(29) . . .
31.2(31) . . .
36.7(31) . . .
33.9(30) . . .
30.7(29) . . .
24.7(25) . . .
28.6(28) . . .
34.5(32) . . .
44.2(34) . . .
27.2(27) . . .
28.8(29) . . .
28.9(29) . . .
31.4(29) . . .
31.9(29) . . .
26.9(28) . . .
28.8(30) . . .
24.8(27) . . .
29.6(28) . . .
31.3(29) . . .
22.8(25) . . .
26.3(28) . . .
33.0(32) . . .
25.5(28) . . .
35.9(31) . . .
32.8(30) . . .
28.7(29) . . .
21.3(26) . . .
30.7(29) . . .
31.7(29) . . .
32.5(34) . . .
24.6(27) . . .
27.7(27) . . .
31.5(29) . . .
28.9(30) . . .
37.4(34) . . .
30.8(31) . . .
34.5(34) . . .
25.0(26) . . .
30.2(29) . . .
25.0(26) . . .
30.7(33) . . .
30.0(30) . . .
33.3(30) . . .
32.3(30) . . .
27.4(31) . . .
24.8(27) . . .
36.4(34) . . .
24.3(26) . . .
23.3(25) . . .
25.0(27) . . .
25.1(29) . . .
18.5(22) . . .
28.1(27) . . .
26.7(28) . . .
33.0(32) . . .
36.2(33) . . .
30.0(30) . . .
35.6(31) . . .
38.2(33) . . .
25.2(27) . . .
30.8(29) . . .
37.0(31) . . .
27.8(28) . . .
30.0(28) . . .
35.3(34) . . .
25.6(28) . . .
26.7(29) . . .
26.2(27) . . .
23.1(25) . . .
33.2(32) . . .
31.8(30) . . .
28.8(28) . . .
31.8(29) . . .
21.9(25) . . .
29.2(30) . . .
33.8(31) . . .
30.5(29) . . .
23.1(25) . . .
28.0(29) . . .
20.5(26) . . .
27.8(28) . . .
32.8(30) . . .
31.9(29) . . .
22.0(24) . . .
29.6(30) . . .
25.9(27) . . .
24.5(26) . . .
28.5(28) . . .
30.2(30) . . .
34.5(32) . . .
30.6(30) . . .
27.4(27) . . .
27.2(27) . . .
28.0(29) . . .
28.4(31) . . .
25.9(27) . . .
28.1(28) . . .
25.5(26) . . .
24.8(26) . . .
32.1(32) . . .
27.5(29) . . .
28.5(28) . . .
30.2(28) . . .
31.9(31) . . .
32.7(33) . . .
24.0(26) . . .
24.1(26) . . .
27.1(28) . . .
25.8(27) . . .
32.2(30) . . .
36.0(31) . . .
31.6(30) . . .
33.4(32) . . .
32.2(29) . . .
34.0(31) . . .
34.0(31) . . .
29.2(29) . . .
26.1(28) . . .
20.9(24) . . .
26.1(27) . . .
27.9(29) . . .
26.4(27) . . .
27.5(27) . . .
28.3(28) . . .
27.4(28) . . .
21.5(24) . . .
35.4(31) . . .
30.1(29) . . .
33.5(32) . . .
29.1(29) . . .
28.2(28) . . .
22.9(25) . . .
33.3(30) . . .
30.6(30) . . .
19.1(23) . . .
31.9(29) . . .
28.6(28) . . .
31.4(30) . . .
30.5(33) . . .
20.0(25) . . .
27.1(27) . . .
35.2(31) . . .
35.7(33) . . .
30.8(33) . . .
17.9(22) . . .
32.3(30) . . .
24.7(26) . . .
24.2(26) . . .
24.5(29) . . .
26.3(27) . . .
32.0(30) . . .
29.5(28) . . .
26.4(28) . . .
28.2(30) . . .
33.2(31) . . .
27.4(28) . . .
29.1(29) . . .
27.5(28) . . .
31.1(31) . . .
23.5(27) . . .
36.2(31) . . .
27.4(27) . . .
28.4(29) . . .
30.1(30) . . .
27.7(28) . . .
34.0(31) . . .
21.6(25) . . .
25.6(29) . . .
20.8(24) . . .
31.7(31) . . .
33.9(30) . . .
33.0(33) . . .
33.0(31) . . .
31.9(31) . . .
26.1(27) . . .
30.7(29) . . .
24.9(26) . . .
24.0(27) . . .
25.4(27) . . .
36.2(33) . . .
29.0(28) . . .
26.0(29) . . .
34.8(33) . . .
29.6(29) . . .
28.2(27) . . .
31.8(30) . . .
27.3(29) . . .
24.0(28) . . .
19.0(22) . . .
26.7(27) . . .
26.0(27) . . .
24.6(26) . . .
26.1(28) . . .
26.7(27) . . .
32.6(31) . . .
40.0(33) . . .
32.8(30) . . .
31.0(32) . . .
25.7(28) . . .
25.7(26) . . .
29.3(29) . . .
27.1(28) . . .
28.1(30) . . .
28.6(29) . . .
25.5(27) . . .
22.5(25) . . .
32(4) . . .
34.1(35) . . .
25.2(27) . . .
29.6(28) . . .
31.8(30) . . .
34.1(32) . . .
30.1(30) . . .
30.5(29) . . .
28.5(28) . . .
28.9(30) . . .
24.2(26) . . .
36.1(32) . . .
37.6(33) . . .
34.6(30) . . .
28.3(29) . . .
25.7(27) . . .
29.8(30) . . .
29.8(30) . . .
22.8(25) . . .
28.8(32) . . .
34.5(33) . . .
30.6(31) . . .
27.2(27) . . .
32.7(31) . . .
24.7(26) . . .
38(4) . . .
29.2(28) . . .
27.2(27) . . .
28.4(28) . . .
21.9(25) . . .
25.7(27) . . .
32.4(31) . . .
29.4(28) . . .
34.8(31) . . .
33.6(31) . . .
25.6(28) . . .
36.1(33) . . .
21.8(26) . . .
27.2(28) . . .
35.1(31) . . .
32.4(32) . . .
37.0(33) . . .
26.5(27) . . .
28.3(29) . . .
28.4(29) . . .
32.0(32) . . .
32.8(31) . . .
28.1(28) . . .
20.8(25) . . .
27.9(29) . . .
30.3(30) . . .
30.2(28) . . .
34.3(30) . . .
30.8(29) . . .
22.8(25) . . .
29.5(30) . . .
37.9(33) . . .
27.7(27) . . .
25.8(26) . . .
25.7(29) . . .
22.6(26) . . .
30.0(28) . . .
30.2(28) . . .
24.5(26) . . .
22.2(25) . . .
37.1(34) . . .
25.4(26) . . .
28.8(29) . . .
27.8(28) . . .
32.2(30) . . .
34.9(30) . . .
29.0(28) . . .
26.4(27) . . .
29.6(30) . . .
31.5(33) . . .
26.8(28) . . .
26.7(27) . . .
31.5(29) . . .
32.3(32) . . .
33.1(33) . . .
32.4(31) . . .
24.0(26) . . .
28.5(28) . . .
28.6(28) . . .
36.2(34) . . .
27.4(28) . . .
25.9(28) . . .
33.9(31) . . .
22.2(25) . . .
28.4(29) . . .
27.7(27) . . .
32.8(30) . . .
31.3(30) . . .
30.6(31) . . .
26.4(28) . . .
25.2(28) . . .
30.3(29) . . .
27.3(27) . . .
29.7(31) . . .
22.4(27) . . .
21.3(25) . . .
29.6(29) . . .
33.7(32) . . .
29.2(31) . . .
24.2(26) . . .
23.0(25) . . .
27.6(27) . . .
30.7(31) . . .
32.0(31) . . .
26.1(27) . . .
25.5(26) . . .
23.6(25) . . .
22.1(25) . . .
29.7(30) . . .
28.4(30) . . .
26.9(27) . . .
31.4(29) . . .
30.8(29) . . .
34.8(35) . . .
33.0(34) . . .
27.9(28) . . .
29.4(28) . . .
34.1(31) . . .
34.4(32) . . .
31.4(29) . . .
30.2(29) . . .
23.0(25) . . .
24.0(25) . . .
33.0(32) . . .
29.3(30) . . .
33.1(31) . . .
30.2(28) . . .
29.6(28) . . .
29.8(32) . . .
30.0(29) . . .
33.0(30) . . .
29.5(29) . . .
31.0(29) . . .
32.9(31) . . .
26.2(28) . . .
30.9(29) . . .
30.1(28) . . .
31.6(30) . . .
31.6(31) . . .
26.5(27) . . .
28.8(28) . . .
26.4(27) . . .
33.7(32) . . .
27.1(27) . . .
25.6(27) . . .
33.8(30) . . .
39.1(34) . . .
32.9(31) . . .
36(4) . . .
27.4(29) . . .
24.7(26) . . .
32.7(31) . . .
28.7(29) . . .
31.5(31) . . .
29.7(29) . . .
22.4(25) . . .
26.3(27) . . .
25.4(27) . . .
30.9(30) . . .
27.8(27) . . .
29.3(29) . . .
32.6(30) . . .
28.4(30) . . .
28.4(30) . . .
29.9(29) . . .
35.3(31) . . .
27.2(29) . . .
23.2(27) . . .
23.0(26) . . .
32.9(31) . . .
31.0(30) . . .
24.4(26) . . .
28.9(30) . . .
23.4(25) . . .
24.1(25) . . .
29.6(28) . . .
26.5(27) . . .
28.5(29) . . .
28.6(30) . . .
23.4(26) . . .
28.1(28) . . .
23.5(25) . . .
28.7(29) . . .
32.2(30) . . .
31.6(29) . . .
34.2(33) . . .
28.8(30) . . .
29.8(31) . . .
26.8(27) . . .
31.1(29) . . .
33.7(30) . . .
31.3(30) . . .
32.1(32) . . .
28.7(29) . . .
33.1(31) . . .
33.3(30) . . .
29.8(31) . . .
29.4(31) . . .
24.2(27) . . .
26.0(26) . . .
28.2(28) . . .
35.7(33) . . .
26.7(29) . . .
27.8(29) . . .
30.9(29) . . .
35.9(32) . . .
37.1(33) . . .
29.5(30) . . .
29.4(28) . . .
32.6(30) . . .
31.0(29) . . .
28.9(28) . . .
21.1(25) . . .
26.9(27) . . .
24.7(26) . . .
27.6(29) . . .
26.7(28) . . .
28.6(28) . . .
22.1(24) . . .
23.9(25) . . .
27.8(28) . . .
26.6(27) . . .
23.3(26) . . .
24.3(26) . . .
24.2(26) . . .
30.6(30) . . .
23.6(28) . . .
27.4(28) . . .
34.5(30) . . .
36.9(31) . . .
29.8(30) . . .
22.7(26) . . .
30.9(31) . . .
28.1(27) . . .
31.0(31) . . .
24.2(26) . . .
25.7(27) . . .
25.9(28) . . .
22.7(26) . . .
28.5(28) . . .
38.4(35) . . .
32.7(32) . . .
32.3(32) . . .
36.5(32) . . .
32.9(29) . . .
30.4(29) . . .
24.2(28) . . .
30.8(32) . . .
30.2(28) . . .
29.9(28) . . .
26.4(28) . . .
26.9(29) . . .
22.2(25) . . .
22.8(25) . . .
28.7(29) . . .
28.2(29) . . .
34.1(33) . . .
32.3(31) . . .
38.7(33) . . .
34.1(32) . . .
35.7(33) . . .
24.0(25) . . .
29.6(28) . . .
34.0(31) . . .
34.8(33) . . .
34.4(32) . . .
27.2(27) . . .
24.5(26) . . .
33.6(31) . . .
26.7(28) . . .
26.8(29) . . .
28.5(29) . . .
25.8(26) . . .
22.9(25) . . .
32.7(31) . . .
23.8(27) . . .
29.8(29) . . .
27.5(28) . . .
23.6(26) . . .
29.9(29) . . .
29.2(30) . . .
32.9(33) . . .
34.4(31) . . .
31.0(29) . . .
23.5(26) . . .
25.2(28) . . .
31.1(31) . . .
40.3(33) . . .
33.2(30) . . .
27.9(28) . . .
28.4(29) . . .
25.9(27) . . .
27.7(28) . . .
29.7(30) . . .
29.5(32) . . .
28.9(29) . . .
27.4(27) . . .
25.5(26) . . .
29.4(30) . . .
23.4(26) . . .
26.1(28) . . .
37(4) . . .
25.6(26) . . .
32.6(31) . . .
27.4(29) . . .
24.2(25) . . .
40.3(34) . . .
27.4(27) . . .
26.8(28) . . .
33.5(31) . . .
33.4(31) . . .
24.7(26) . . .
32.3(29) . . .
33.0(31) . . .
30.6(31) . . .
25.3(26) . . .
23.9(25) . . .
26.2(27) . . .
27.7(28) . . .
18.9(23) . . .
33.2(32) . . .
30.6(29) . . .
24.1(26) . . .
27.2(28) . . .
30.5(35) . . .
31.6(31) . . .
32.2(30) . . .
25.3(26) . . .
27.0(29) . . .
28.5(30) . . .
22.5(24) . . .
29.0(28) . . .
29.9(29) . . .
28.8(29) . . .
32.5(33) . . .
25.7(27) . . .
28.7(28) . . .
37.5(32) . . .
30.3(30) . . .
28.0(31) . . .
23.9(27) . . .
31.2(29) . . .
27.6(28) . . .
25.6(28) . . .
28.0(29) . . .
32.3(32) . . .
27.1(27) . . .
31.5(29) . . .
26.8(26) . . .
32.5(31) . . .
27.3(27) . . .
29.2(29) . . .
23.3(25) . . .
26.7(28) . . .
28.4(30) . . .
29.9(30) . . .
27.5(28) . . .
39(4) . . .
18.4(21) . . .
31.6(30) . . .
25.5(26) . . .
22.9(26) . . .
28.7(29) . . .
28.4(28) . . .
26.9(28) . . .
30.4(29) . . .
27.9(27) . . .
31.9(31) . . .
27.0(27) . . .
37.4(34) . . .
23.2(26) . . .
27.3(27) . . .
26.4(28) . . .
25.7(31) . . .
31.2(30) . . .
38.8(32) . . .
31.1(29) . . .
35.6(34) . . .
31.5(32) . . .
38(4) . . .
21.7(24) . . .
29.8(28) . . .
36.9(31) . . .
32.5(31) . . .
28.4(28) . . .
30.4(29) . . .
32.0(29) . . .
24.4(28) . . .
24.2(28) . . .
32.7(31) . . .
33.0(30) . . .
34.9(31) . . .
25.5(27) . . .
26.6(30) . . .
25.0(27) . . .
28.4(28) . . .
27.8(27) . . .
26.0(27) . . .
28.8(30) . . .
29.9(29) . . .
28.1(27) . . .
29.5(29) . . .
30.4(30) . . .
31.7(32) . . .
26.5(27) . . .
28.2(28) . . .
33.8(30) . . .
27.0(27) . . .
27.2(27) . . .
30.8(30) . . .
25.8(26) . . .
22.8(26) . . .
21.5(24) . . .
32.3(33) . . .
33.7(30) . . .
23.8(26) . . .
26.4(27) . . .
30.9(32) . . .
22.6(25) . . .
26.2(27) . . .
20.5(24) . . .
28.0(29) . . .
31.5(33) . . .
27.8(29) . . .
28.9(29) . . .
32.4(30) . . .
26.4(28) . . .
29.1(31) . . .
31.9(29) . . .
33.5(30) . . .
33.2(30) . . .
34.5(30) . . .
35.2(32) . . .
25.8(28) . . .
25.4(27) . . .
33.4(30) . . .
31.2(33) . . .
27.3(28) . . .
33.4(31) . . .
28.8(28) . . .
29.5(29) . . .
30.8(29) . . .
33.5(30) . . .
29.5(28) . . .
33.3(31) . . .
29.8(28) . . .
25.0(26) . . .
29.5(30) . . .
24.6(26) . . .
30.6(29) . . .
31.2(29) . . .
29.4(29) . . .
28.2(30) . . .
28.1(29) . . .
28.0(28) . . .
27.3(32) . . .
25.9(29) . . .
23.8(26) . . .
25.9(26) . . .
28.8(28) . . .
20.5(23) . . .
27.5(29) . . .
29.2(29) . . .
23.5(25) . . .
38.8(32) . . .
21.9(26) . . .
21.6(26) . . .
28.6(30) . . .
35.0(32) . . .
30.8(29) . . .
28.9(29) . . .
26.8(30) . . .
26.9(28) . . .
27.2(28) . . .
24.2(26) . . .
30.8(29) . . .
34.2(34) . . .
21.0(24) . . .
32.0(30) . . .
28.0(27) . . .
27.1(29) . . .
31.5(33) . . .
27.5(30) . . .
40.4(35) . . .
29.8(29) . . .
25.6(28) . . .
28.3(30) . . .
34.4(32) . . .
25.0(26) . . .
24.1(26) . . .
31.0(31) . . .
27.9(27) . . .
39.0(34) . . .
28.5(28) . . .
30.0(28) . . .
24.6(27) . . .
31.8(31) . . .
29.6(31) . . .
25.0(26) . . .
26.3(27) . . .
29.9(30) . . .
31.5(32) . . .
24.0(26) . . .
22.3(26) . . .
30.8(29) . . .
43(4) . . .
28.8(28) . . .
28.0(28) . . .
38.4(32) . . .
30.8(30) . . .
32.6(31) . . .
28.4(28) . . .
27.2(28) . . .
28.7(28) . . .
34.9(33) . . .
31.0(31) . . .
29.6(28) . . .
31.4(29) . . .
25.0(26) . . .
26.1(27) . . .
24.6(29) . . .
22.6(26) . . .
36.4(32) . . .
29.0(29) . . .
29.4(31) . . .
31.4(31) . . .
22.4(25) . . .
30.4(29) . . .
27.0(27) . . .
31.0(30) . . .
29.3(29) . . .
32.1(31) . . .
23.1(26) . . .
31.6(30) . . .
23.2(25) . . .
26.9(29) . . .
25.4(26) . . .
25.2(26) . . .
31.8(29) . . .
29.2(28) . . .
26.6(27) . . .
29.8(29) . . .
23.5(25) . . .
27.0(27) . . .
30.7(29) . . .
29.4(29) . . .
22.3(26) . . .
31.2(30) . . .
33.3(30) . . .
36.0(31) . . .
29.8(30) . . .
25.3(27) . . .
28.6(28) . . .
28.1(29) . . .
24.5(26) . . .
27.2(28) . . .
26.9(27) . . .
23.3(26) . . .
29.0(30) . . .
23.7(27) . . .
23.8(27) . . .
24.9(28) . . .
34.4(31) . . .
32.5(30) . . .
29.2(29) . . .
22.8(25) . . .
23.2(26) . . .
37.7(33) . . .
25.6(26) . . .
24.7(25) . . .
26.5(28) . . .
22.7(25) . . .
22.5(24) . . .
21.9(25) . . .
27.3(30) . . .
29.0(31) . . .
29.8(28) . . .
25.3(26) . . .
24.9(26) . . .
30.9(32) . . .
29.2(30) . . .
20.1(23) . . .
29.7(28) . . .
29.6(29) . . .
32.0(29) . . .
33.7(31) . . .
37.2(32) . . .
21.8(24) . . .
32.9(32) . . .
28.5(30) . . .
33.3(34) . . .
35.0(31) . . .
25.3(26) . . .
37.8(32) . . .
27.8(28) . . .
19.9(26) . . .
21.3(25) . . .
30.4(29) . . .
28.3(30) . . .
21.9(27) . . .
27.0(28) . . .
35.1(31) . . .
31.9(29) . . .
26.3(28) . . .
31.0(31) . . .
28.6(30) . . .
24.5(25) . . .
32.0(31) . . .
39.0(32) . . .
31.3(30) . . .
26.4(27) . . .
30.8(29) . . .
34.4(33) . . .
24.9(29) . . .
25.5(27) . . .
32.6(30) . . .
30.6(29) . . .
31.3(29) . . .
33.4(32) . . .
35(4) . . .
22.9(25) . . .
31.0(28) . . .
27.8(28) . . .
31.7(31) . . .
25.0(26) . . .
25.9(27) . . .
34.1(30) . . .
33.0(32) . . .
28.7(30) . . .
25.8(27) . . .
27.8(30) . . .
29.0(30) . . .
19.3(23) . . .
26.9(27) . . .
26.6(26) . . .
39.6(33) . . .
23.8(26) . . .
27.3(29) . . .
35.3(34) . . .
33.8(31) . . .
34.0(30) . . .
28.2(27) . . .
33.7(31) . . .
28.5(27) . . .
30.0(28) . . .
38.1(33) . . .
34.9(33) . . .
26.4(29) . . .
27.2(28) . . .
36.0(33) . . .
24.5(26) . . .
28.6(28) . . .
30.9(30) . . .
30.5(29) . . .
30.6(30) . . .
31.5(29) . . .
27.8(29) . . .
26.4(27) . . .
27.7(29) . . .
31.0(30) . . .
28.2(29) . . .
38(4) . . .
30.3(31) . . .
32.5(31) . . .
23.0(25) . . .
27.7(27) . . .
30.4(29) . . .
23.1(26) . . .
24.5(28) . . .
26.0(27) . . .
24.0(25) . . .
34.2(31) . . .
25.3(26) . . .
26.0(27) . . .
25.0(26) . . .
23.0(24) . . .
22.4(25) . . .
32.0(31) . . .
27.5(28) . . .
29.4(28) . . .
32.3(31) . . .
34.3(32) . . .
34.7(34) . . .
22.3(28) . . .
24.5(28) . . .
33.0(30) . . .
31.9(30) . . .
31.0(31) . . .
30.0(29) . . .
31.3(29) . . .
40.6(34) . . .
32.8(32) . . .
27.9(29) . . .
25.8(26) . . .
29.8(28) . . .
31.3(30) . . .
30.9(31) . . .
23.9(27) . . .
38.0(34) . . .
29.3(28) . . .
28.5(30) . . .
26.6(29) . . .
26.2(29) . . .
28.3(29) . . .
27.9(28) . . .
27.3(30) . . .
26.4(29) . . .
23.3(28) . . .
28.1(28) . . .
33.0(29) . . .
28.2(31) . . .
23.7(25) . . .
26.4(27) . . .
30.0(28) . . .
23.6(25) . . .
25.1(27) . . .
30.2(31) . . .
22.8(25) . . .
24.2(27) . . .
28.0(28) . . .
26.9(28) . . .
30.8(31) . . .
29.2(29) . . .
25.5(28) . . .
29.1(28) . . .
32.5(33) . . .
23.3(28) . . .
25.9(27) . . .
26.0(26) . . .
34.0(30) . . .
38.6(35) . . .
27.0(27) . . .
29.7(29) . . .
31.4(30) . . .
27.1(27) . . .
20.0(23) . . .
31.8(32) . . .
27.8(29) . . .
24.1(25) . . .
30.6(29) . . .
25.5(27) . . .
32.2(32) . . .
24.0(25) . . .
27.2(27) . . .
25.9(28) . . .
34.0(35) . . .
28.8(28) . . .
31.6(31) . . .
32.0(29) . . .
24.2(26) . . .
32.7(32) . . .
24.7(25) . . .
26.6(29) . . .
33.2(30) . . .
28.6(29) . . .
29.6(30) . . .
30.3(30) . . .
31.2(31) . . .
26.0(27) . . .
29.6(29) . . .
27.8(29) . . .
32.2(30) . . .
28.3(28) . . .
34.7(31) . . .
26.5(28) . . .
25.2(27) . . .
27.8(29) . . .
27.5(27) . . .
20.7(26) . . .
28.7(30) . . .
26.0(30) . . .
27.9(28) . . .
34.0(30) . . .
31.6(30) . . .
32.5(31) . . .
28.5(30) . . .
23.2(26) . . .
31.7(29) . . .
29.2(29) . . .
25.3(29) . . .
30.8(32) . . .
loop_
_refln_index_h
_refln_index_k
_refln_index_l
_refln_observed_status
_refln_F_squared_meas
_refln_F_squared_calc
_refln_phase_calc
_refln_d_spacing
_gsas_i100_meas
0 0 2 o 190.224 373.671 180.00 6.59148 0.23
0 2 0 o 1121.064 1464.608 180.00 8.20092 2.06
0 1 3 o 72.803 20.431 180.00 4.24462 0.07
0 0 4 o 286.611 289.903 180.00 3.29574 0.09
1 0 1 o 12569.359 12942.849 0.00 5.87878 23.80
0 2 2 o 32673.242 32697.066 0.00 5.13767 47.27
0 3 1 o 1296.841 1459.925 180.00 5.05020 1.81
0 4 0 o 5316.086 1715.854 0.00 4.10046 2.45
1 1 2 o 4863.915 3902.996 0.00 4.47596 10.69
1 0 3 o 345.998 299.390 180.00 3.65227 0.25
1 2 1 o 1767.610 1718.135 0.00 4.77797 4.43
0 2 4 o 1109.688 741.842 0.00 3.05804 0.57
0 1 5 o 1567.808 1663.356 180.00 2.60317 0.59
0 0 6 o 1455.327 2213.054 0.00 2.19716 0.19
1 1 4 o 77.642 50.511 0.00 2.89930 0.07
1 2 3 o 830.407 883.447 0.00 3.33637 1.02
1 0 5 o 142.793 639.375 180.00 2.44681 0.05
0 5 1 o 10.531 10.247 180.00 3.18330 0.01
1 4 1 o 708.743 762.574 180.00 3.36317 0.88
0 3 3 o 13068.505 13096.586 0.00 3.42512 8.42
0 6 0 o 1819.663 2100.064 0.00 2.73364 0.37
1 1 6 o 1153.532 1079.474 180.00 2.06705 0.55
0 1 7 o 111.293 851.601 0.00 1.87099 0.02
1 2 5 o 324.168 449.763 0.00 2.34467 0.20
0 2 6 o 602.259 743.073 180.00 2.12231 0.15
0 4 2 o 10.749 17.840 0.00 3.48174 0.01
1 3 2 o 3362.456 3769.762 0.00 3.54325 4.64
1 0 7 o 1102.810 1217.593 0.00 1.81033 0.20
0 3 5 o 61.482 118.971 0.00 2.37486 0.02
1 3 4 o 29.929 27.921 0.00 2.59325 0.02
0 0 8 o 125.936 258.775 180.00 1.64787 0.01
1 6 1 o 384.924 777.966 0.00 2.47876 0.26
2 0 2 o 158.545 242.341 0.00 2.93939 0.08
2 0 0 o 2161.453 2233.388 180.00 3.28400 0.64
0 7 1 o 163.859 267.678 0.00 2.30696 0.05
2 1 1 o 906.242 825.174 180.00 3.12812 0.98
1 2 7 o 1376.984 1458.692 180.00 1.76777 0.48
0 2 8 o 398.281 1167.913 180.00 1.61558 0.06
2 2 0 o 82.009 50.723 0.00 3.04865 0.04
2 0 4 o 1528.655 1242.945 180.00 2.32628 0.46
1 5 2 o 2645.800 2607.795 180.00 2.68098 2.10
1 3 6 o 1233.861 994.610 0.00 1.94705 0.52
1 1 8 o 512.915 1329.275 0.00 1.59080 0.15
0 1 9 o 1239.717 1494.356 0.00 1.45897 0.15
0 3 7 o 1260.574 1344.961 0.00 1.78060 0.22
0 8 0 o 152.577 130.149 0.00 2.05023 0.02
2 1 3 o 1031.526 900.150 0.00 2.59738 0.77
0 6 2 o 158.364 501.188 0.00 2.52510 0.06
0 4 4 o 10038.687 11553.728 0.00 2.56884 3.65
2 3 1 o 620.951 611.446 0.00 2.75311 0.52
2 4 0 o 1645.865 1885.111 180.00 2.56326 0.60
2 2 2 o 2015.199 1930.710 180.00 2.76702 1.70
2 1 5 o 228.673 172.467 180.00 2.04000 0.11
1 4 3 o 5069.255 5439.531 0.00 2.72729 4.16
0 4 6 o 3887.121 3088.711 180.00 1.93666 0.81
2 0 6 o 16.160 20.426 0.00 1.82614 0.00
2 2 4 o 0.000 19.549 0.00 2.23798 0.00
1 0 9 o 0.000 1272.361 180.00 1.42965 0.00
0 0 10 o 2825.093 6474.279 180.00 1.31830 0.14
1 4 5 o 211.571 184.266 180.00 2.10116 0.10
1 8 1 o 679.592 541.906 180.00 1.93588 0.28
2 5 1 o 0.000 8.833 0.00 2.28570 0.00
1 2 9 o 15.286 34.505 180.00 1.40841 0.00
1 1 10 o 5.040 6.874 0.00 1.28852 0.00
0 5 3 o 356.105 386.472 180.00 2.62870 0.14
1 7 2 o 2589.564 2418.221 0.00 2.09271 1.26
0 9 1 o 3388.680 3663.817 0.00 1.80526 0.61
2 1 7 o 113.592 273.061 0.00 1.62566 0.03
1 3 8 o 29.911 52.094 0.00 1.53412 0.01
0 3 9 o 19.100 73.612 0.00 1.41487 0.00
2 2 6 o 569.951 596.500 180.00 1.78248 0.20
2 6 0 o 3125.690 2684.336 180.00 2.10099 0.76
2 3 3 o 45.317 56.863 180.00 2.37046 0.03
0 8 2 o 2104.889 1788.839 180.00 1.95771 0.45
0 2 10 o 2.900 3.742 180.00 1.30159 0.00
2 4 2 o 34.356 279.939 180.00 2.38899 0.02
2 0 8 o 333.033 420.337 180.00 1.47285 0.04
2 3 5 o 820.344 574.156 0.00 1.92439 0.34
1 4 7 o 91.650 230.586 180.00 1.65611 0.03
0 4 8 o 88.443 174.986 180.00 1.52902 0.01
0 10 0 o 5184.374 8855.901 180.00 1.64018 0.39
0 5 5 o 24970.637 23109.469 0.00 2.05507 5.84
1 3 10 o 0.332 0.413 0.00 1.25785 0.00
2 7 1 o 429.122 664.416 180.00 1.88773 0.17
2 3 7 o 1083.760 1588.003 180.00 1.56532 0.30
2 2 8 o 860.785 1177.058 0.00 1.44965 0.20
1 5 4 o 6100.306 6511.259 0.00 2.19172 3.24
1 6 3 o 4403.333 4540.812 180.00 2.18851 2.33
0 5 7 o 0.616 1.600 180.00 1.63326 0.00
0 7 3 o 7234.695 6933.106 0.00 2.06756 1.71
2 1 9 o 731.412 1106.371 180.00 1.33331 0.15
2 6 2 o 643.622 515.674 180.00 2.00176 0.29
1 5 6 o 833.078 908.748 0.00 1.75884 0.29
2 4 4 o 1189.441 823.377 180.00 2.02335 0.54
1 4 9 o 0.066 0.148 0.00 1.34995 0.00
0 4 10 o 4.168 4.964 180.00 1.25503 0.00
2 8 0 o 11.808 15.414 0.00 1.73913 0.00
2 0 10 o 1736.188 1814.612 0.00 1.22340 0.15
1 9 2 o 17.374 20.731 0.00 1.69689 0.01
1 10 1 o 41.052 378.810 180.00 1.57985 0.01
2 4 6 o 1147.723 1844.531 0.00 1.66818 0.36
0 10 2 o 483.191 986.912 0.00 1.59165 0.07
3 0 1 o 2202.796 2345.522 180.00 2.15975 0.57
0 11 1 o 4424.742 4380.511 180.00 1.48163 0.55
3 1 2 o 2762.732 2724.100 180.00 2.06125 1.30
3 0 3 o 3492.585 3032.591 0.00 1.95959 0.74
2 5 3 o 98.115 91.732 0.00 2.05221 0.05
1 5 8 o 0.004 55.530 180.00 1.43685 0.00
3 1 4 o 3382.387 3307.380 0.00 1.81246 1.24
0 5 9 o 20.611 24.220 180.00 1.33749 0.00
3 2 1 o 47.067 43.580 0.00 2.08854 0.02
2 3 9 o 848.125 1042.457 0.00 1.29941 0.16
2 2 10 o 779.079 765.973 180.00 1.21001 0.13
1 8 3 o 143.831 144.048 0.00 1.78780 0.05
2 9 1 o 1.111 13.774 180.00 1.58199 0.00
3 0 5 o 2076.872 2303.910 180.00 1.68435 0.33
0 9 3 o 41.629 46.620 180.00 1.68340 0.01
2 8 2 o 114.831 139.436 180.00 1.68159 0.04
0 6 4 o 8277.750 7266.212 180.00 2.10406 2.03
3 4 1 o 1058.757 703.388 180.00 1.91089 0.43
0 12 0 o 2381.155 2820.580 0.00 1.36682 0.13
3 0 7 o 0.000 224.788 180.00 1.42773 0.00
3 2 3 o 5113.418 3837.252 180.00 1.90594 2.06
3 2 5 o 140.373 358.784 0.00 1.64991 0.04
0 6 6 o 4701.422 6146.206 0.00 1.71256 0.77
3 1 6 o 84.145 111.896 180.00 1.54397 0.02
2 4 8 o 1293.421 1354.227 180.00 1.38614 0.28
3 3 2 o 1086.270 757.490 0.00 1.94220 0.45
2 10 0 o 14.810 18.611 0.00 1.46735 0.00
2 5 5 o 1828.560 2085.925 180.00 1.74208 0.62
1 6 5 o 547.376 648.785 0.00 1.82316 0.20
1 11 2 o 0.000 123.790 180.00 1.41994 0.00
2 7 3 o 1466.160 1381.367 180.00 1.74967 0.50
0 6 8 o 21.797 45.038 180.00 1.41128 0.00
3 2 7 o 23.846 48.911 0.00 1.40657 0.01
3 3 4 o 181.002 360.237 180.00 1.72993 0.06
2 5 7 o 1831.668 1945.251 0.00 1.46238 0.44
3 6 1 o 1592.185 1891.697 180.00 1.69467 0.51
3 1 8 o 411.965 711.175 180.00 1.31238 0.08
1 6 7 o 0.000 391.982 0.00 1.50936 0.00
1 12 1 o 4.329 7.941 180.00 1.33131 0.00
1 7 4 o 410.171 444.927 180.00 1.83374 0.15
3 5 2 o 252.688 239.478 0.00 1.75526 0.09
1 10 3 o 4.378 5.495 180.00 1.49623 0.00
3 0 9 o 1439.464 1372.863 0.00 1.21742 0.12
3 3 6 o 16.117 22.583 0.00 1.49199 0.00
0 8 4 o 1029.615 1250.028 0.00 1.74087 0.17
0 12 2 o 2983.611 3222.623 180.00 1.33835 0.30
0 13 1 o 2169.270 2466.240 0.00 1.25594 0.19
3 4 3 o 176.308 175.220 180.00 1.76807 0.06
0 11 3 o 397.208 841.721 0.00 1.41200 0.04
2 6 4 o 1017.218 788.829 0.00 1.77162 0.36
2 11 1 o 61.910 192.690 0.00 1.35054 0.01
2 10 2 o 0.000 266.741 180.00 1.43229 0.00
1 6 9 o 39.127 83.961 180.00 1.26686 0.01
2 5 9 o 1884.473 1491.705 180.00 1.23870 0.33
2 9 3 o 5.162 7.684 0.00 1.49805 0.00
3 3 8 o 12.333 16.939 180.00 1.28001 0.00
3 8 1 o 2.781 2.449 0.00 1.48694 0.00
3 4 5 o 28.566 38.315 180.00 1.55803 0.01
3 7 2 o 1263.606 1941.443 180.00 1.55457 0.34
0 7 5 o 1212.249 995.793 180.00 1.75144 0.21
0 7 7 o 3470.042 4541.849 0.00 1.46791 0.42
2 6 6 o 1210.267 2318.056 180.00 1.51849 0.31
2 12 0 o 355.435 505.668 180.00 1.26189 0.03
1 9 4 o 144.701 278.003 0.00 1.54980 0.04
3 4 7 o 127.711 298.424 0.00 1.34833 0.03
0 10 4 o 47.358 63.650 180.00 1.46839 0.01
1 13 2 o 45.220 42.637 180.00 1.21770 0.01
1 7 6 o 447.606 623.260 0.00 1.55706 0.12
3 6 3 o 249.671 323.245 0.00 1.59266 0.07
1 12 3 o 18.449 23.855 180.00 1.28011 0.00
2 6 8 o 2126.092 2426.287 0.00 1.29662 0.41
1 7 8 o 79.613 379.093 0.00 1.32039 0.02
3 5 4 o 240.236 338.887 180.00 1.59389 0.07
0 7 9 o 379.280 336.024 0.00 1.24205 0.03
2 12 2 o 894.442 691.442 0.00 1.23938 0.16
2 8 4 o 1490.188 2156.396 180.00 1.53812 0.40
3 10 1 o 18.046 22.687 0.00 1.30621 0.00
0 13 3 o 486.387 450.573 180.00 1.21269 0.04
4 0 0 o 2113.403 3232.562 0.00 1.64200 0.16
3 9 2 o 33.363 45.567 180.00 1.37007 0.01
2 11 3 o 889.441 1000.875 180.00 1.29718 0.17
4 0 2 o 102.203 131.436 180.00 1.59331 0.01
4 2 0 o 167.845 204.211 180.00 1.61004 0.02
4 1 1 o 1056.325 1185.191 0.00 1.62143 0.31
4 1 3 o 287.990 466.808 180.00 1.53141 0.08
4 0 4 o 628.643 909.868 0.00 1.46969 0.08
3 5 6 o 3.957 327.305 180.00 1.40206 0.00
1 11 4 o 10.128 24.902 180.00 1.33035 0.00
4 3 1 o 627.497 702.954 180.00 1.56154 0.17
4 1 5 o 1085.773 967.844 0.00 1.38880 0.24
4 2 2 o 1682.526 1983.213 0.00 1.56406 0.46
2 7 5 o 1230.370 1311.556 0.00 1.54539 0.33
4 4 0 o 723.217 1490.660 0.00 1.52433 0.09
4 0 6 o 532.708 945.940 180.00 1.31528 0.05
1 8 5 o 278.452 554.095 180.00 1.57148 0.08
3 5 8 o 413.205 437.292 0.00 1.22186 0.07
3 8 3 o 153.539 898.835 180.00 1.41660 0.03
0 12 4 o 6.975 10.539 180.00 1.26255 0.00
4 2 4 o 551.355 591.926 180.00 1.44665 0.13
4 1 7 o 401.960 291.750 180.00 1.23413 0.07
4 2 6 o 242.756 279.688 0.00 1.29869 0.05
0 9 5 o 669.689 1136.842 0.00 1.49916 0.08
2 7 7 o 3247.425 2972.009 180.00 1.34012 0.66
4 5 1 o 1995.312 2055.789 0.00 1.45930 0.48
4 4 2 o 1515.984 1051.166 180.00 1.48513 0.38
0 8 6 o 594.752 988.094 180.00 1.49899 0.07
4 6 0 o 2358.065 2951.173 180.00 1.40759 0.26
0 8 8 o 582.755 749.196 0.00 1.28442 0.05
4 3 3 o 2527.233 2210.402 0.00 1.48065 0.62
2 10 4 o 454.899 406.723 0.00 1.34049 0.09
3 6 5 o 0.000 4.672 180.00 1.43400 0.00
3 11 2 o 317.643 285.712 0.00 1.21141 0.05
4 3 5 o 16.904 101.825 180.00 1.35061 0.00
3 7 4 o 0.000 7.297 0.00 1.43913 0.00
4 7 1 o 2021.141 1935.150 180.00 1.33775 0.41
1 8 7 o 62.739 298.549 0.00 1.35703 0.01
3 6 7 o 233.088 508.589 180.00 1.26552 0.04
4 6 2 o 855.554 1046.295 0.00 1.37655 0.18
4 8 0 o 1237.026 1435.330 0.00 1.28163 0.12
3 10 3 o 332.347 365.587 180.00 1.25775 0.06
4 4 4 o 879.397 948.385 0.00 1.38351 0.19
1 10 5 o 229.619 232.052 0.00 1.36240 0.05
0 11 5 o 478.776 533.137 0.00 1.29790 0.05
4 5 3 o 460.314 359.748 180.00 1.39264 0.10
4 4 6 o 74.469 83.220 180.00 1.25243 0.01
2 9 5 o 3761.296 3444.310 180.00 1.36378 0.79
2 8 6 o 2427.189 2253.557 0.00 1.36365 0.51
4 8 2 o 1433.435 1568.784 180.00 1.25807 0.26
3 9 4 o 156.181 223.118 180.00 1.28908 0.03
4 9 1 o 1382.810 1285.375 0.00 1.21469 0.23
3 7 6 o 58.207 68.856 0.00 1.29324 0.01
4 5 5 o 612.288 711.630 0.00 1.28281 0.11
0 9 7 o 2.282 3.942 0.00 1.30964 0.00
1 9 6 o 354.928 353.545 180.00 1.37177 0.08
4 7 3 o 548.763 764.916 0.00 1.28583 0.10
3 8 5 o 80.137 94.152 180.00 1.30147 0.02
4 6 4 o 234.179 254.497 180.00 1.29447 0.04
0 10 6 o 0.683 0.938 180.00 1.31435 0.00
5 0 1 o 1943.947 2402.478 0.00 1.30713 0.19
5 1 2 o 460.359 544.161 0.00 1.28431 0.09
5 0 3 o 0.259 0.285 0.00 1.25857 0.00
5 2 1 o 442.830 600.308 0.00 1.29083 0.08
5 4 1 o 0.361 0.532 180.00 1.24538 0.00
5 2 3 o 412.434 403.372 0.00 1.24401 0.07
5 1 4 o 10.396 8.662 0.00 1.21688 0.00
2 9 7 o 21.683 17.804 0.00 1.21647 0.00
5 3 2 o 735.105 602.527 0.00 1.25393 0.13
1 11 6 o 142.158 127.233 0.00 1.21258 0.02
2 10 6 o 215.542 222.681 180.00 1.22025 0.04
1 10 7 o 203.054 172.807 180.00 1.21550 0.03
