#------------------------------------------------------------------------------
#$Date: 2016-03-21 01:21:50 +0200 (Mon, 21 Mar 2016) $
#$Revision: 178377 $
#$URL: svn://www.crystallography.net/cod/cif/4/00/21/4002122.cif $
#------------------------------------------------------------------------------
#
# This file is available in the Crystallography Open Database (COD),
# http://www.crystallography.net/
#
# All data on this site have been placed in the public domain by the
# contributors.
#
data_4002122
loop_
_publ_author_name
'Nanthamathee, Chompoonoot'
'Ling, Sanliang'
'Slater, Ben'
'Attfield, Martin P.'
_publ_section_title
;
 Contradistinct Thermoresponsive Behavior of Isostructural MIL-53 Type
 Metal--Organic Frameworks by Modifying the Framework Inorganic Anion
;
_journal_name_full               'Chemistry of Materials'
_journal_page_first              141223143002002
_journal_paper_doi               10.1021/cm503311x
_journal_year                    2014
_chemical_formula_sum            'C8 Al F O4'
_chemical_formula_weight         206.06
_chemical_name_systematic        ' ?'
_space_group_IT_number           15
_symmetry_cell_setting           monoclinic
_symmetry_space_group_name_Hall  '-I 2b'
_symmetry_space_group_name_H-M   'I 1 1 2/b'
_audit_creation_date             2014-08-28T12:42
_audit_creation_method           'from EXP file using GSAS2CIF'
_audit_update_record
' 2014-08-28T12:42  Initial CIF as created by GSAS2CIF'
_cell_angle_alpha                90.0
_cell_angle_beta                 90.0
_cell_angle_gamma                90.5441(14)
_cell_formula_units_Z            4
_cell_length_a                   6.55388(12)
_cell_length_b                   16.4390(4)
_cell_length_c                   13.1379(4)
_cell_volume                     1415.40(6)
_computing_structure_refinement  GSAS
_diffrn_radiation_polarisn_ratio 0.95
_diffrn_radiation_probe          x-ray
_diffrn_radiation_wavelength     0.827154
_exptl_absorpt_correction_T_max  1.00000
_exptl_absorpt_correction_T_min  1.00000
_exptl_absorpt_process_details
;   GSAS Absorption/surface roughness correction: function number 0
 No correction is applied.
;
_pd_block_id                     2014-08-28T12:42|70K|martin_attfield|i_11
_pd_calc_method                  'Rietveld Refinement'
_pd_instr_location               ' ?'
_pd_meas_2theta_range_inc        0.004
_pd_meas_2theta_range_max        150.01401
_pd_meas_2theta_range_min        0.002
_pd_meas_number_of_points        37504
_pd_phase_name                   11K
_pd_proc_2theta_range_inc        0.004
_pd_proc_2theta_range_max        150.06953
_pd_proc_2theta_range_min        0.05754
_pd_proc_info_datetime           2014-08-28T12:42:15
_pd_proc_info_excluded_regions   ' ?'
_pd_proc_ls_background_function
;   GSAS Background function number 1 with  2 terms.
 Shifted Chebyshev function of 1st kind
      1:    0.00000     2:    0.00000    
;
_pd_proc_ls_peak_cutoff          0.00050
_pd_proc_ls_profile_function
;
 CW Profile function number 4 with  21 terms
 Pseudovoigt profile coefficients as parameterized in
 P. Thompson, D.E. Cox & J.B. Hastings (1987). J. Appl. Cryst.,20,79-83.
 Asymmetry correction of L.W. Finger, D.E. Cox & A. P. Jephcoat (1994).
 J. Appl. Cryst.,27,892-900.
 Microstrain broadening by P.W. Stephens,  (1999). J. Appl. Cryst.,32,281-289.
 Peak tails are ignored  where the intensity is below 0.0005 times the peak
   Aniso. broadening axis   0.0   2.0   2.0
;
_pd_proc_ls_prof_R_factor        0.0722
_pd_proc_ls_prof_wR_expected     0.0387
_pd_proc_ls_prof_wR_factor       0.0978
_pd_proc_number_of_points        37504
_pd_spec_mounting                ' ?'
_refine_ls_goodness_of_fit_all   2.53
_refine_ls_matrix_type           full
_refine_ls_number_parameters     40
_refine_ls_number_restraints     0
_refine_ls_R_Fsqd_factor         0.24821
_refine_ls_shift/su_max          0.04
_refine_ls_shift/su_mean         0.01
_reflns_d_resolution_high        1.089
_reflns_d_resolution_low         8.219
_reflns_limit_h_max              6
_reflns_limit_h_min              -6
_reflns_limit_k_max              15
_reflns_limit_k_min              0
_reflns_limit_l_max              12
_reflns_limit_l_min              0
_reflns_number_total             513
_cod_data_source_file            alf70K.cif
_cod_data_source_block           70K_publ
_cod_depositor_comments
;
The following automatic conversions were performed:

'_geom_bond_publ_flag' value 'N' changed to 'n' according to
/home/saulius/struct/COD-crude-data--automatic-downloads/rss-feeds/ACS/lib/dictionaries/cif_core.dic
dictionary named 'cif_core.dic' version 2.4.2 from 2011-04-26 (22
times).

'_geom_angle_publ_flag' value 'N' changed to 'n' according
to
/home/saulius/struct/COD-crude-data--automatic-downloads/rss-feeds/ACS/lib/dictionaries/cif_core.dic
dictionary named 'cif_core.dic' version 2.4.2 from 2011-04-26 (26
times).

Automatic conversion script
Id: cif_fix_values 2935 2014-11-11 08:27:57Z andrius 
;
_cod_database_code               4002122
#BEGIN Tags that were not found in dictionaries:
_gsas_exptl_extinct_corr_t_min   1.00000
_gsas_exptl_extinct_corr_t_max   1.00000
#END Tags that were not found in dictionaries
loop_
_symmetry_equiv_pos_site_id
_symmetry_equiv_pos_as_xyz
1 +x,+y,+z
2 -x,-y+1/2,+z
-1 -x,-y,-z
-2 +x,+y+1/2,-z
101 +x+1/2,+y+1/2,+z+1/2
102 -x+1/2,-y,+z+1/2
-101 -x+1/2,-y+1/2,-z+1/2
-102 +x+1/2,+y,-z+1/2
loop_
_atom_site_type_symbol
_atom_site_label
_atom_site_fract_x
_atom_site_fract_y
_atom_site_fract_z
_atom_site_occupancy
_atom_site_thermal_displace_type
_atom_site_U_iso_or_equiv
_atom_site_symmetry_multiplicity
Al Al1 0.25 0.25 0.75 1.0 Uiso 0.0273(12) 4
F F 0.0 0.25 0.6906(4) 1.0 Uiso 0.0172(8) 4
O O1 0.1587(6) 0.17412(25) 0.8530(4) 1.0 Uiso 0.0172(8) 8
O O2 -0.1813(7) 0.65915(25) -0.8342(4) 1.0 Uiso 0.0172(8) 8
C C3 -0.2031(12) 0.0245(5) -0.0495(6) 1.0 Uiso 0.0147(12) 8
C C2 0.0037(15) 0.0626(4) 0.9458(6) 1.0 Uiso 0.0147(12) 8
C C1 0.0014(12) 0.1363(4) 0.8668(6) 1.0 Uiso 0.0147(12) 8
C C4 0.1933(13) 0.5401(5) -0.9756(7) 1.0 Uiso 0.0147(12) 8
loop_
_atom_type_symbol
_atom_type_number_in_cell
_atom_type_scat_dispersion_real
_atom_type_scat_dispersion_imag
_atom_type_scat_Cromer_Mann_a1
_atom_type_scat_Cromer_Mann_a2
_atom_type_scat_Cromer_Mann_a3
_atom_type_scat_Cromer_Mann_a4
_atom_type_scat_Cromer_Mann_b1
_atom_type_scat_Cromer_Mann_b2
_atom_type_scat_Cromer_Mann_b3
_atom_type_scat_Cromer_Mann_b4
_atom_type_scat_Cromer_Mann_c
_atom_type_scat_source
Al 4.0 0.000 0.000 6.42020 3.03870 1.90020 0.74260 1.59360 31.5472 1.96460
85.0886 1.11510 International_Tables_Vol_C
F 4.0 0.000 0.000 3.53920 10.2825 2.64120 4.29440 1.51700 0.26150 1.02430
26.1476 0.27760 International_Tables_Vol_C
O 16.0 0.000 0.000 3.04850 13.2771 2.28680 5.70110 1.54630 0.32390 0.86700
32.9089 0.25080 International_Tables_Vol_C
C 32.0 0.000 0.000 2.31000 20.8439 1.02000 10.2075 1.58860 0.56870 0.86500
51.6512 0.21560 International_Tables_Vol_C
loop_
_geom_angle_atom_site_label_1
_geom_angle_atom_site_label_2
_geom_angle_atom_site_label_3
_geom_angle
_geom_angle_site_symmetry_1
_geom_angle_site_symmetry_3
_geom_angle_publ_flag
F Al1 F 180.0 1_555 -101_566 n
F Al1 O1 91.54(15) 1_555 1_555 n
F Al1 O1 88.46(15) 1_555 -101_445 n
F Al1 O2 91.68(15) 1_555 -1_565 n
F Al1 O2 88.32(15) 1_555 101_546 n
F Al1 O1 88.46(15) -101_445 1_555 n
F Al1 O1 91.54(15) -101_445 -101_445 n
F Al1 O2 88.32(15) -101_445 -1_565 n
F Al1 O2 91.68(15) -101_445 101_546 n
O1 Al1 O1 180.0 1_555 -101_445 n
O1 Al1 O2 91.46(19) 1_555 -1_565 n
O1 Al1 O2 88.54(19) 1_555 101_546 n
O1 Al1 O2 88.54(19) -101_445 -1_565 n
O1 Al1 O2 91.46(19) -101_445 101_546 n
O2 Al1 O2 180.0 -1_565 101_546 n
Al1 F Al1 129.09(27) 1_555 2_555 n
Al1 O1 C1 133.8(6) 1_555 1_555 n
Al1 O2 C1 128.7(5) -1_565 -2_565 n
C2 C3 C4 107.0(7) 1_554 2_556 n
C3 C2 C1 109.4(8) 1_556 1_555 n
C3 C2 C4 134.8(7) 1_556 -2_555 n
C1 C2 C4 114.3(8) 1_555 -2_555 n
O1 C1 O2 124.8(7) 1_555 -2_444 n
O1 C1 C2 118.2(7) 1_555 1_555 n
O2 C1 C2 116.1(7) -2_555 1_555 n
C3 C4 C2 116.3(7) 2_554 -2_565 n
loop_
_geom_bond_atom_site_label_1
_geom_bond_atom_site_label_2
_geom_bond_distance
_geom_bond_site_symmetry_2
_geom_bond_publ_flag
Al1 F 1.8146(21) 1_555 n
Al1 F 1.8146(21) -101_445 n
Al1 O1 1.932(5) 1_555 n
Al1 O1 1.932(5) -101_445 n
Al1 O2 1.915(4) -1_565 n
Al1 O2 1.915(4) 101_546 n
F Al1 1.8146(21) 1_555 n
F Al1 1.8146(21) 2_555 n
O1 Al1 1.932(5) 1_555 n
O1 C1 1.212(8) 1_555 n
O2 Al1 1.915(4) -1_565 n
O2 C1 1.329(7) -2_555 n
C3 C2 1.490(9) 1_554 n
C3 C4 1.439(7) 2_556 n
C2 C3 1.490(9) 1_556 n
C2 C1 1.595(7) 1_555 n
C2 C4 1.358(9) -2_545 n
C1 O1 1.212(8) 1_555 n
C1 O2 1.329(7) -2_545 n
C1 C2 1.595(7) 1_555 n
C4 C3 1.439(7) 2_554 n
C4 C2 1.358(9) -2_555 n
loop_
_pd_meas_intensity_total
_pd_proc_ls_weight
_pd_proc_intensity_bkg_calc
_pd_calc_intensity_total
8.0(28) 0.0 0.00 .
15(4) 0.0 0.0 .
12.0(35) 0.0 0.00 .
25(5) 0.0 0.0 .
17(4) 0.0 0.0 .
19(4) 0.0 0.0 .
16(4) 0.0 0.0 .
30(5) 0.0 0.0 .
21(5) 0.0 0.0 .
21(5) 0.0 0.0 .
23(5) 0.0 0.0 .
26(5) 0.0 0.0 .
25(5) 0.0 0.0 .
20(4) 0.0 0.0 .
19(4) 0.0 0.0 .
17(4) 0.0 0.0 .
24(5) 0.0 0.0 .
17(4) 0.0 0.0 .
23(5) 0.0 0.0 .
18(4) 0.0 0.0 .
16(4) 0.0 0.0 .
26(5) 0.0 0.0 .
26(5) 0.0 0.0 .
12.0(35) 0.0 0.00 .
20(4) 0.0 0.0 .
25(5) 0.0 0.0 .
23(5) 0.0 0.0 .
19(4) 0.0 0.0 .
22(5) 0.0 0.0 .
22(5) 0.0 0.0 .
27(5) 0.0 0.0 .
25(5) 0.0 0.0 .
22(5) 0.0 0.0 .
25(5) 0.0 0.0 .
18(4) 0.0 0.0 .
28(5) 0.0 0.0 .
23(5) 0.0 0.0 .
23(5) 0.0 0.0 .
20(4) 0.0 0.0 .
24(5) 0.0 0.0 .
24(5) 0.0 0.0 .
18(4) 0.0 0.0 .
25(5) 0.0 0.0 .
29(5) 0.0 0.0 .
19(4) 0.0 0.0 .
19(4) 0.0 0.0 .
26(5) 0.0 0.0 .
18(4) 0.0 0.0 .
20(4) 0.0 0.0 .
24(5) 0.0 0.0 .
18(4) 0.0 0.0 .
17(4) 0.0 0.0 .
15(4) 0.0 0.0 .
23(5) 0.0 0.0 .
18(4) 0.0 0.0 .
22(5) 0.0 0.0 .
19(4) 0.0 0.0 .
18(4) 0.0 0.0 .
17(4) 0.0 0.0 .
17(4) 0.0 0.0 .
15(4) 0.0 0.0 .
21(5) 0.0 0.0 .
17(4) 0.0 0.0 .
16(4) 0.0 0.0 .
26(5) 0.0 0.0 .
18(4) 0.0 0.0 .
33(6) 0.0 0.0 .
23(5) 0.0 0.0 .
25(5) 0.0 0.0 .
13(4) 0.0 0.0 .
29(5) 0.0 0.0 .
19(4) 0.0 0.0 .
23(5) 0.0 0.0 .
24(5) 0.0 0.0 .
20(4) 0.0 0.0 .
26(5) 0.0 0.0 .
24(5) 0.0 0.0 .
23(5) 0.0 0.0 .
20(4) 0.0 0.0 .
7.0(26) 0.0 0.00 .
23(5) 0.0 0.0 .
21(5) 0.0 0.0 .
25(5) 0.0 0.0 .
29(5) 0.0 0.0 .
16(4) 0.0 0.0 .
18(4) 0.0 0.0 .
17(4) 0.0 0.0 .
20(4) 0.0 0.0 .
24(5) 0.0 0.0 .
16(4) 0.0 0.0 .
18(4) 0.0 0.0 .
27(5) 0.0 0.0 .
21(5) 0.0 0.0 .
16(4) 0.0 0.0 .
17(4) 0.0 0.0 .
27(5) 0.0 0.0 .
29(5) 0.0 0.0 .
23(5) 0.0 0.0 .
20(4) 0.0 0.0 .
14(4) 0.0 0.0 .
25(5) 0.0 0.0 .
27(5) 0.0 0.0 .
26(5) 0.0 0.0 .
33(6) 0.0 0.0 .
31(6) 0.0 0.0 .
30(5) 0.0 0.0 .
31(6) 0.0 0.0 .
35(6) 0.0 0.0 .
77(9) 0.0 0.0 .
94(10) 0.0 0.0 .
116(11) 0.0 0.0 .
154(12) 0.0 0.0 .
224(15) 0.0 0.0 .
273(17) 0.0 0.0 .
334(18) 0.0 0.0 .
488(22) 0.0 0.0 .
545(23) 0.0 0.0 .
678(26) 0.0 0.0 .
880(30) 0.0 0.0 .
1110(33) 0.0 0.0 .
1307(36) 0.0 0. .
1474(38) 0.0 0. .
1563(40) 0.0 0. .
1548(39) 0.0 0. .
1518(39) 0.0 0. .
1464(38) 0.0 0. .
1381(37) 0.0 0. .
1384(37) 0.0 0. .
1466(38) 0.0 0. .
1422(38) 0.0 0. .
1435(38) 0.0 0. .
1393(37) 0.0 0. .
1341(37) 0.0 0. .
1279(36) 0.0 0. .
1325(36) 0.0 0. .
1236(35) 0.0 0. .
1277(36) 0.0 0. .
1240(35) 0.0 0. .
1153(34) 0.0 0.0 .
1160(34) 0.0 0.0 .
1086(33) 0.0 0.0 .
1002(32) 0.0 0.0 .
937(31) 0.0 0.0 .
908(30) 0.0 0.0 .
865(29) 0.0 0.0 .
782(28) 0.0 0.0 .
758(28) 0.0 0.0 .
710(27) 0.0 0.0 .
674(26) 0.0 0.0 .
689(26) 0.0 0.0 .
671(26) 0.0 0.0 .
611(25) 0.0 0.0 .
576(24) 0.0 0.0 .
568(24) 0.0 0.0 .
567(24) 0.0 0.0 .
545(23) 0.0 0.0 .
571(24) 0.0 0.0 .
516(23) 0.0 0.0 .
545(23) 0.0 0.0 .
562(24) 0.0 0.0 .
522(23) 0.0 0.0 .
520(23) 0.0 0.0 .
468(22) 0.0 0.0 .
522(23) 0.0 0.0 .
488(22) 0.0 0.0 .
520(23) 0.0 0.0 .
523(23) 0.0 0.0 .
526(23) 0.0 0.0 .
494(22) 0.0 0.0 .
515(23) 0.0 0.0 .
529(23) 0.0 0.0 .
507(23) 0.0 0.0 .
531(23) 0.0 0.0 .
527(23) 0.0 0.0 .
521(23) 0.0 0.0 .
521(23) 0.0 0.0 .
535(23) 0.0 0.0 .
535(23) 0.0 0.0 .
535(23) 0.0 0.0 .
537(23) 0.0 0.0 .
523(23) 0.0 0.0 .
519(23) 0.0 0.0 .
568(24) 0.0 0.0 .
605(25) 0.0 0.0 .
564(24) 0.0 0.0 .
566(24) 0.0 0.0 .
539(23) 0.0 0.0 .
533(23) 0.0 0.0 .
576(24) 0.0 0.0 .
590(24) 0.0 0.0 .
580(24) 0.0 0.0 .
566(24) 0.0 0.0 .
577(24) 0.0 0.0 .
592(24) 0.0 0.0 .
583(24) 0.0 0.0 .
593(24) 0.0 0.0 .
646(25) 0.0 0.0 .
636(25) 0.0 0.0 .
587(24) 0.0 0.0 .
610(25) 0.0 0.0 .
675(26) 0.0 0.0 .
643(25) 0.0 0.0 .
641(25) 0.0 0.0 .
610(25) 0.0 0.0 .
631(25) 0.0 0.0 .
687(26) 0.0 0.0 .
674(26) 0.0 0.0 .
658(26) 0.0 0.0 .
671(26) 0.0 0.0 .
655(26) 0.0 0.0 .
711(27) 0.0 0.0 .
705(27) 0.0 0.0 .
697(26) 0.0 0.0 .
722(27) 0.0 0.0 .
714(27) 0.0 0.0 .
719(27) 0.0 0.0 .
723(27) 0.0 0.0 .
703(27) 0.0 0.0 .
733(27) 0.0 0.0 .
735(27) 0.0 0.0 .
741(27) 0.0 0.0 .
765(28) 0.0 0.0 .
748(27) 0.0 0.0 .
816(29) 0.0 0.0 .
794(28) 0.0 0.0 .
817(29) 0.0 0.0 .
819(29) 0.0 0.0 .
862(29) 0.0 0.0 .
841(29) 0.0 0.0 .
883(30) 0.0 0.0 .
917(30) 0.0 0.0 .
1004(32) 0.0 0.0 .
1058(33) 0.0 0.0 .
1160(34) 0.0 0.0 .
1301(36) 0.0 0. .
1484(39) 0.0 0. .
1735(42) 0.0 0. .
1863(43) 0.0 0. .
2020(45) 0.0 0. .
2364(49) 0.0 0. .
2550(50) 0.0 0. .
2730(52) 0.0 0. .
3120(56) 0.0 0. .
3483(59) 0.0 0. .
3844(62) 0.0 0. .
4106(64) 0.0 0. .
4566(68) 0.0 0. .
4897(70) 0.0 0. .
5444(74) 0.0 0. .
5828(76) 0.0 0. .
6527(81) 0.0 0. .
7242(85) 0.0 0. .
8117(90) 0.0 0. .
8938(95) 0.0 0. .
9960(100) 0.0 0. .
11540(110) 0.0 0. .
12430(110) 0.0 0. .
14060(120) 0.0 0. .
15630(130) 0.0 0. .
16920(130) 0.0 0. .
18290(140) 0.0 0. .
19650(140) 0.0 0. .
20510(140) 0.0 0. .
21630(150) 0.0 0. .
22730(150) 0.0 0. .
23650(150) 0.0 0. .
24090(160) 0.0 0. .
24570(160) 0.0 0. .
25430(160) 0.0 0. .
24520(160) 0.0 0. .
24630(160) 0.0 0. .
24780(160) 0.0 0. .
24530(160) 0.0 0. .
24710(160) 0.0 0. .
24780(160) 0.0 0. .
24820(160) 0.0 0. .
25010(160) 0.0 0. .
25730(160) 0.0 0. .
25150(160) 0.0 0. .
25790(160) 0.0 0. .
25850(160) 0.0 0. .
26350(160) 0.0 0. .
26630(160) 0.0 0. .
26470(160) 0.0 0. .
25980(160) 0.0 0. .
25520(160) 0.0 0. .
25450(160) 0.0 0. .
25790(160) 0.0 0. .
25930(160) 0.0 0. .
25870(160) 0.0 0. .
25930(160) 0.0 0. .
26560(160) 0.0 0. .
26580(160) 0.0 0. .
26390(160) 0.0 0. .
26210(160) 0.0 0. .
25910(160) 0.0 0. .
25820(160) 0.0 0. .
24750(160) 0.0 0. .
25320(160) 0.0 0. .
24680(160) 0.0 0. .
24170(160) 0.0 0. .
23800(150) 0.0 0. .
23550(150) 0.0 0. .
23570(150) 0.0 0. .
22760(150) 0.0 0. .
22930(150) 0.0 0. .
22950(150) 0.0 0. .
22720(150) 0.0 0. .
22250(150) 0.0 0. .
22080(150) 0.0 0. .
22040(150) 0.0 0. .
21600(150) 0.0 0. .
21300(150) 0.0 0. .
20910(150) 0.0 0. .
20890(150) 0.0 0. .
21020(150) 0.0 0. .
20850(140) 0.0 0. .
20890(150) 0.0 0. .
20890(150) 0.0 0. .
20690(140) 0.0 0. .
19850(140) 0.0 0. .
19930(140) 0.0 0. .
19520(140) 0.0 0. .
19430(140) 0.0 0. .
18620(140) 0.0 0. .
18350(140) 0.0 0. .
18570(140) 0.0 0. .
18510(140) 0.0 0. .
18170(140) 0.0 0. .
18110(140) 0.0 0. .
18240(140) 0.0 0. .
17780(130) 0.0 0. .
17740(130) 0.0 0. .
17850(130) 0.0 0. .
18340(140) 0.0 0. .
17830(130) 0.0 0. .
17680(130) 0.0 0. .
17320(130) 0.0 0. .
16790(130) 0.0 0. .
17100(130) 0.0 0. .
16580(130) 0.0 0. .
15880(130) 0.0 0. .
16180(130) 0.0 0. .
16550(130) 0.0 0. .
16330(130) 0.0 0. .
16000(130) 0.0 0. .
15820(130) 0.0 0. .
15570(130) 0.0 0. .
15870(130) 0.0 0. .
15080(120) 0.0 0. .
14890(120) 0.0 0. .
15110(120) 0.0 0. .
14910(120) 0.0 0. .
14950(120) 0.0 0. .
15000(120) 0.0 0. .
15080(120) 0.0 0. .
14570(120) 0.0 0. .
14470(120) 0.0 0. .
14220(120) 0.0 0. .
14300(120) 0.0 0. .
14140(120) 0.0 0. .
14060(120) 0.0 0. .
14040(120) 0.0 0. .
13180(120) 0.0 0. .
13580(120) 0.0 0. .
13360(120) 0.0 0. .
13110(120) 0.0 0. .
13000(110) 0.0 0. .
13000(110) 0.0 0. .
13110(120) 0.0 0. .
13060(110) 0.0 0. .
13170(120) 0.0 0. .
12960(110) 0.0 0. .
12950(110) 0.0 0. .
12950(110) 0.0 0. .
12140(110) 0.0 0. .
12150(110) 0.0 0. .
11950(110) 0.0 0. .
11950(110) 0.0 0. .
11930(110) 0.0 0. .
11800(110) 0.0 0. .
11750(110) 0.0 0. .
11700(110) 0.0 0. .
11670(110) 0.0 0. .
11710(110) 0.0 0. .
11510(110) 0.0 0. .
11380(110) 0.0 0. .
11420(110) 0.0 0. .
11250(110) 0.0 0. .
11330(110) 0.0 0. .
11410(110) 0.0 0. .
11140(110) 0.0 0. .
11210(110) 0.0 0. .
10490(100) 0.0 0. .
10920(110) 0.0 0. .
10810(100) 0.0 0. .
10610(100) 0.0 0. .
10760(100) 0.0 0. .
10490(100) 0.0 0. .
10380(100) 0.0 0. .
10450(100) 0.0 0. .
10160(100) 0.0 0. .
10050(100) 0.0 0. .
10200(100) 0.0 0. .
10130(100) 0.0 0. .
9850(99) 0.0 0. .
10370(100) 0.0 0. .
10230(100) 0.0 0. .
10050(100) 0.0 0. .
10190(100) 0.0 0. .
10430(100) 0.0 0. .
10420(100) 0.0 0. .
10010(100) 0.0 0. .
9828(99) 0.0 0. .
9730(99) 0.0 0. .
9618(98) 0.0 0. .
9348(97) 0.0 0. .
9424(97) 0.0 0. .
9197(96) 0.0 0. .
9138(96) 0.0 0. .
9341(97) 0.0 0. .
9069(95) 0.0 0. .
9148(96) 0.0 0. .
9232(96) 0.0 0. .
9458(97) 0.0 0. .
9369(97) 0.0 0. .
9502(97) 0.0 0. .
9142(96) 0.0 0. .
8965(95) 0.0 0. .
8973(95) 0.0 0. .
8841(94) 0.0 0. .
8897(94) 0.0 0. .
8532(92) 0.0 0. .
8553(92) 0.0 0. .
8592(93) 0.0 0. .
8798(94) 0.0 0. .
8761(94) 0.0 0. .
8900(94) 0.0 0. .
8481(92) 0.0 0. .
8664(93) 0.0 0. .
8703(93) 0.0 0. .
8479(92) 0.0 0. .
8589(93) 0.0 0. .
8458(92) 0.0 0. .
8741(93) 0.0 0. .
8500(92) 0.0 0. .
8566(93) 0.0 0. .
8447(92) 0.0 0. .
8090(90) 0.0 0. .
8128(90) 0.0 0. .
8049(90) 0.0 0. .
8050(90) 0.0 0. .
7792(88) 0.0 0. .
7561(87) 0.0 0. .
7418(86) 0.0 0. .
7695(88) 0.0 0. .
7592(87) 0.0 0. .
7602(87) 0.0 0. .
7588(87) 0.0 0. .
7802(88) 0.0 0. .
7911(89) 0.0 0. .
7824(88) 0.0 0. .
8091(90) 0.0 0. .
7979(89) 0.0 0. .
7710(88) 0.0 0. .
7774(88) 0.0 0. .
7520(87) 0.0 0. .
7237(85) 0.0 0. .
7208(85) 0.0 0. .
7294(85) 0.0 0. .
7299(85) 0.0 0. .
7162(85) 0.0 0. .
7225(85) 0.0 0. .
7181(85) 0.0 0. .
7254(85) 0.0 0. .
7164(85) 0.0 0. .
7020(84) 0.0 0. .
7123(84) 0.0 0. .
7077(84) 0.0 0. .
7025(84) 0.0 0. .
6942(83) 0.0 0. .
6890(83) 0.0 0. .
6775(82) 0.0 0. .
6831(83) 0.0 0. .
6597(81) 0.0 0. .
6634(81) 0.0 0. .
6507(81) 0.0 0. .
6339(80) 0.0 0. .
6538(81) 0.0 0. .
6533(81) 0.0 0. .
6481(81) 0.0 0. .
6426(80) 0.0 0. .
6128(78) 0.0 0. .
6239(79) 0.0 0. .
6485(81) 0.0 0. .
5905(77) 0.0 0. .
6220(79) 0.0 0. .
6262(79) 0.0 0. .
6403(80) 0.0 0. .
6313(79) 0.0 0. .
6091(78) 0.0 0. .
6067(78) 0.0 0. .
5837(76) 0.0 0. .
5983(77) 0.0 0. .
5807(76) 0.0 0. .
5662(75) 0.0 0. .
5399(73) 0.0 0. .
5640(75) 0.0 0. .
5300(73) 0.0 0. .
5695(75) 0.0 0. .
5670(75) 0.0 0. .
5617(75) 0.0 0. .
5540(74) 0.0 0. .
5707(76) 0.0 0. .
5959(77) 0.0 0. .
5896(77) 0.0 0. .
5694(75) 0.0 0. .
5763(76) 0.0 0. .
5575(75) 0.0 0. .
5357(73) 0.0 0. .
5421(74) 0.0 0. .
5168(72) 0.0 0. .
5279(73) 0.0 0. .
5305(73) 0.0 0. .
5143(72) 0.0 0. .
5062(71) 0.0 0. .
5069(71) 0.0 0. .
5171(72) 0.0 0. .
5029(71) 0.0 0. .
5087(71) 0.0 0. .
4788(69) 0.0 0. .
4797(69) 0.0 0. .
4568(68) 0.0 0. .
4572(68) 0.0 0. .
4449(67) 0.0 0. .
4305(66) 0.0 0. .
4115(64) 0.0 0. .
3891(62) 0.0 0. .
3837(62) 0.0 0. .
3842(62) 0.0 0. .
3704(61) 0.0 0. .
3718(61) 0.0 0. .
3550(60) 0.0 0. .
3681(61) 0.0 0. .
3602(60) 0.0 0. .
3506(59) 0.0 0. .
3219(57) 0.0 0. .
3235(57) 0.0 0. .
3437(59) 0.0 0. .
3359(58) 0.0 0. .
3247(57) 0.0 0. .
3336(58) 0.0 0. .
3244(57) 0.0 0. .
3184(56) 0.0 0. .
3067(55) 0.0 0. .
3039(55) 0.0 0. .
3060(55) 0.0 0. .
3008(55) 0.0 0. .
2869(54) 0.0 0. .
2860(53) 0.0 0. .
2846(53) 0.0 0. .
2853(53) 0.0 0. .
2881(54) 0.0 0. .
2927(54) 0.0 0. .
3017(55) 0.0 0. .
2991(55) 0.0 0. .
2924(54) 0.0 0. .
3138(56) 0.0 0. .
3032(55) 0.0 0. .
2845(53) 0.0 0. .
2907(54) 0.0 0. .
2766(53) 0.0 0. .
2728(52) 0.0 0. .
2713(52) 0.0 0. .
2577(51) 0.0 0. .
2617(51) 0.0 0. .
2577(51) 0.0 0. .
2584(51) 0.0 0. .
2522(50) 0.0 0. .
2408(49) 0.0 0. .
2467(50) 0.0 0. .
2467(50) 0.0 0. .
2326(48) 0.0 0. .
2376(49) 0.0 0. .
2233(47) 0.0 0. .
2208(47) 0.0 0. .
2081(46) 0.0 0. .
2044(45) 0.0 0. .
2036(45) 0.0 0. .
1957(44) 0.0 0. .
1946(44) 0.0 0. .
1915(44) 0.0 0. .
1884(43) 0.0 0. .
1847(43) 0.0 0. .
1822(43) 0.0 0. .
1731(42) 0.0 0. .
1832(43) 0.0 0. .
1755(42) 0.0 0. .
1744(42) 0.0 0. .
1724(42) 0.0 0. .
1801(42) 0.0 0. .
1848(43) 0.0 0. .
1841(43) 0.0 0. .
1884(43) 0.0 0. .
1821(43) 0.0 0. .
1730(42) 0.0 0. .
1691(41) 0.0 0. .
1638(40) 0.0 0. .
1679(41) 0.0 0. .
1668(41) 0.0 0. .
1596(40) 0.0 0. .
1624(40) 0.0 0. .
1574(40) 0.0 0. .
1610(40) 0.0 0. .
1580(40) 0.0 0. .
1562(40) 0.0 0. .
1590(40) 0.0 0. .
1690(41) 0.0 0. .
1551(39) 0.0 0. .
1591(40) 0.0 0. .
1634(40) 0.0 0. .
1593(40) 0.0 0. .
1611(40) 0.0 0. .
1481(38) 0.0 0. .
1631(40) 0.0 0. .
1533(39) 0.0 0. .
1387(37) 0.0 0. .
1471(38) 0.0 0. .
1517(39) 0.0 0. .
1510(39) 0.0 0. .
1459(38) 0.0 0. .
1390(37) 0.0 0. .
1290(36) 0.0 0. .
1418(38) 0.0 0. .
1332(36) 0.0 0. .
1311(36) 0.0 0. .
1340(37) 0.0 0. .
1341(37) 0.0 0. .
1291(36) 0.0 0. .
1256(35) 0.0 0. .
1255(35) 0.0 0. .
1320(36) 0.0 0. .
1229(35) 0.0 0.0 .
1165(34) 0.0 0.0 .
1195(35) 0.0 0.0 .
1175(34) 0.0 0.0 .
1203(35) 0.0 0.0 .
1135(34) 0.0 0.0 .
1124(34) 0.0 0.0 .
1136(34) 0.0 0.0 .
1101(33) 0.0 0.0 .
1110(33) 0.0 0.0 .
1180(34) 0.0 0.0 .
1259(35) 0.0 0. .
1204(35) 0.0 0.0 .
1217(35) 0.0 0.0 .
1238(35) 0.0 0. .
1079(33) 0.0 0.0 .
1038(32) 0.0 0.0 .
1100(33) 0.0 0.0 .
1021(32) 0.0 0.0 .
1034(32) 0.0 0.0 .
1060(33) 0.0 0.0 .
957(31) 0.0 0.0 .
978(31) 0.0 0.0 .
978(31) 0.0 0.0 .
965(31) 0.0 0.0 .
936(31) 0.0 0.0 .
976(31) 0.0 0.0 .
955(31) 0.0 0.0 .
928(30) 0.0 0.0 .
902(30) 0.0 0.0 .
854(29) 0.0 0.0 .
816(29) 0.0 0.0 .
756(27) 0.0 0.0 .
730(27) 0.0 0.0 .
712(27) 0.0 0.0 .
662(26) 0.0 0.0 .
630(25) 0.0 0.0 .
621(25) 0.0 0.0 .
607(25) 0.0 0.0 .
589(24) 0.0 0.0 .
583(24) 0.0 0.0 .
572(24) 0.0 0.0 .
548(23) 0.0 0.0 .
585(24) 0.0 0.0 .
608(25) 0.0 0.0 .
610(25) 0.0 0.0 .
607(25) 0.0 0.0 .
615(25) 0.0 0.0 .
681(26) 0.0 0.0 .
661(26) 0.0 0.0 .
656(26) 0.0 0.0 .
642(25) 0.0 0.0 .
647(25) 0.0 0.0 .
643(25) 0.0 0.0 .
633(25) 0.0 0.0 .
643(25) 0.0 0.0 .
615(25) 0.0 0.0 .
620(25) 0.0 0.0 .
627(25) 0.0 0.0 .
666(26) 0.0 0.0 .
620(25) 0.0 0.0 .
586(24) 0.0 0.0 .
610(25) 0.0 0.0 .
623(25) 0.0 0.0 .
653(26) 0.0 0.0 .
686(26) 0.0 0.0 .
590(24) 0.0 0.0 .
632(25) 0.0 0.0 .
578(24) 0.0 0.0 .
600(24) 0.0 0.0 .
583(24) 0.0 0.0 .
508(23) 0.0 0.0 .
512(23) 0.0 0.0 .
504(22) 0.0 0.0 .
462(21) 0.0 0.0 .
493(22) 0.0 0.0 .
460(21) 0.0 0.0 .
476(22) 0.0 0.0 .
483(22) 0.0 0.0 .
437(21) 0.0 0.0 .
436(21) 0.0 0.0 .
457(21) 0.0 0.0 .
449(21) 0.0 0.0 .
433(21) 0.0 0.0 .
418(20) 0.0 0.0 .
421(21) 0.0 0.0 .
386(20) 0.0 0.0 .
388(20) 0.0 0.0 .
384(20) 0.0 0.0 .
392(20) 0.0 0.0 .
371(19) 0.0 0.0 .
352(19) 0.0 0.0 .
351(19) 0.0 0.0 .
362(19) 0.0 0.0 .
361(19) 0.0 0.0 .
344(19) 0.0 0.0 .
372(19) 0.0 0.0 .
326(18) 0.0 0.0 .
366(19) 0.0 0.0 .
363(19) 0.0 0.0 .
374(19) 0.0 0.0 .
410(20) 0.0 0.0 .
369(19) 0.0 0.0 .
374(19) 0.0 0.0 .
399(20) 0.0 0.0 .
409(20) 0.0 0.0 .
376(19) 0.0 0.0 .
380(19) 0.0 0.0 .
375(19) 0.0 0.0 .
364(19) 0.0 0.0 .
358(19) 0.0 0.0 .
351(19) 0.0 0.0 .
323(18) 0.0 0.0 .
365(19) 0.0 0.0 .
353(19) 0.0 0.0 .
369(19) 0.0 0.0 .
338(18) 0.0 0.0 .
335(18) 0.0 0.0 .
319(18) 0.0 0.0 .
351(19) 0.0 0.0 .
325(18) 0.0 0.0 .
310(18) 0.0 0.0 .
310(18) 0.0 0.0 .
321(18) 0.0 0.0 .
317(18) 0.0 0.0 .
326(18) 0.0 0.0 .
302(17) 0.0 0.0 .
279(17) 0.0 0.0 .
274(17) 0.0 0.0 .
253(16) 0.0 0.0 .
290(17) 0.0 0.0 .
281(17) 0.0 0.0 .
279(17) 0.0 0.0 .
275(17) 0.0 0.0 .
259(16) 0.0 0.0 .
283(17) 0.0 0.0 .
256(16) 0.0 0.0 .
242(16) 0.0 0.0 .
252(16) 0.0 0.0 .
244(16) 0.0 0.0 .
270(16) 0.0 0.0 .
252(16) 0.0 0.0 .
256(16) 0.0 0.0 .
240(15) 0.0 0.0 .
232(15) 0.0 0.0 .
240(15) 0.0 0.0 .
230(15) 0.0 0.0 .
250(16) 0.0 0.0 .
247(16) 0.0 0.0 .
226(15) 0.0 0.0 .
269(16) 0.0 0.0 .
232(15) 0.0 0.0 .
230(15) 0.0 0.0 .
258(16) 0.0 0.0 .
221(15) 0.0 0.0 .
240(15) 0.0 0.0 .
253(16) 0.0 0.0 .
246(16) 0.0 0.0 .
252(16) 0.0 0.0 .
213(15) 0.0 0.0 .
225(15) 0.0 0.0 .
247(16) 0.0 0.0 .
245(16) 0.0 0.0 .
220(15) 0.0 0.0 .
236(15) 0.0 0.0 .
225(15) 0.0 0.0 .
237(15) 0.0 0.0 .
256(16) 0.0 0.0 .
258(16) 0.0 0.0 .
226(15) 0.0 0.0 .
248(16) 0.0 0.0 .
234(15) 0.0 0.0 .
236(15) 0.0 0.0 .
207(14) 0.0 0.0 .
225(15) 0.0 0.0 .
207(14) 0.0 0.0 .
215(15) 0.0 0.0 .
269(16) 0.0 0.0 .
233(15) 0.0 0.0 .
224(15) 0.0 0.0 .
246(16) 0.0 0.0 .
244(16) 0.0 0.0 .
228(15) 0.0 0.0 .
223(15) 0.0 0.0 .
229(15) 0.0 0.0 .
215(15) 0.0 0.0 .
242(16) 0.0 0.0 .
254(16) 0.0 0.0 .
206(14) 0.0 0.0 .
237(15) 0.0 0.0 .
247(16) 0.0 0.0 .
247(16) 0.0 0.0 .
253(16) 0.0 0.0 .
216(15) 0.0 0.0 .
226(15) 0.0 0.0 .
229(15) 0.0 0.0 .
217(15) 0.0 0.0 .
221(15) 0.0 0.0 .
217(15) 0.0 0.0 .
236(15) 0.0 0.0 .
244(16) 0.0 0.0 .
254(16) 0.0 0.0 .
211(15) 0.0 0.0 .
212(15) 0.0 0.0 .
212(15) 0.0 0.0 .
225(15) 0.0 0.0 .
251(16) 0.0 0.0 .
256(16) 0.0 0.0 .
237(15) 0.0 0.0 .
210(14) 0.0 0.0 .
219(15) 0.0 0.0 .
236(15) 0.0 0.0 .
220(15) 0.0 0.0 .
203(14) 0.0 0.0 .
219(15) 0.0 0.0 .
220(15) 0.0 0.0 .
250(16) 0.0 0.0 .
228(15) 0.0 0.0 .
249(16) 0.0 0.0 .
239(15) 0.0 0.0 .
219(15) 0.0 0.0 .
216(15) 0.0 0.0 .
227(15) 0.0 0.0 .
216(15) 0.0 0.0 .
226(15) 0.0 0.0 .
205(14) 0.0 0.0 .
252(16) 0.0 0.0 .
212(15) 0.0 0.0 .
236(15) 0.0 0.0 .
232(15) 0.0 0.0 .
221(15) 0.0 0.0 .
217(15) 0.0 0.0 .
235(15) 0.0 0.0 .
225(15) 0.0 0.0 .
232(15) 0.0 0.0 .
225(15) 0.0 0.0 .
218(15) 0.0 0.0 .
234(15) 0.0 0.0 .
200(14) 0.0 0.0 .
218(15) 0.0 0.0 .
249(16) 0.0 0.0 .
216(15) 0.0 0.0 .
210(14) 0.0 0.0 .
225(15) 0.0 0.0 .
230(15) 0.0 0.0 .
207(14) 0.0 0.0 .
207(14) 0.0 0.0 .
217(15) 0.0 0.0 .
205(14) 0.0 0.0 .
224(15) 0.0 0.0 .
241(16) 0.0 0.0 .
235(15) 0.0 0.0 .
216(15) 0.0 0.0 .
234(15) 0.0 0.0 .
241(16) 0.0 0.0 .
220(15) 0.0 0.0 .
218(15) 0.0 0.0 .
243(16) 0.0 0.0 .
242(16) 0.0 0.0 .
234(15) 0.0 0.0 .
216(15) 0.0 0.0 .
219(15) 0.0 0.0 .
226(15) 0.0 0.0 .
225(15) 0.0 0.0 .
215(15) 0.0 0.0 .
217(15) 0.0 0.0 .
218(15) 0.0 0.0 .
221(15) 0.0 0.0 .
216(15) 0.0 0.0 .
190(14) 0.0 0.0 .
221(15) 0.0 0.0 .
219(15) 0.0 0.0 .
211(15) 0.0 0.0 .
210(14) 0.0 0.0 .
217(15) 0.0 0.0 .
225(15) 0.0 0.0 .
201(14) 0.0 0.0 .
221(15) 0.0 0.0 .
215(15) 0.0 0.0 .
213(15) 0.0 0.0 .
204(14) 0.0 0.0 .
200(14) 0.0 0.0 .
214(15) 0.0 0.0 .
225(15) 0.0 0.0 .
224(15) 0.0 0.0 .
220(15) 0.0 0.0 .
198(14) 0.0 0.0 .
209(14) 0.0 0.0 .
214(15) 0.0 0.0 .
198(14) 0.0 0.0 .
203(14) 0.0 0.0 .
218(15) 0.0 0.0 .
201(14) 0.0 0.0 .
225(15) 0.0 0.0 .
232(15) 0.0 0.0 .
187(14) 0.0 0.0 .
198(14) 0.0 0.0 .
192(14) 0.0 0.0 .
213(15) 0.0 0.0 .
223(15) 0.0 0.0 .
219(15) 0.0 0.0 .
195(14) 0.0 0.0 .
195(14) 0.0 0.0 .
197(14) 0.0 0.0 .
216(15) 0.0 0.0 .
230(15) 0.0 0.0 .
221(15) 0.0 0.0 .
212(15) 0.0 0.0 .
212(15) 0.0 0.0 .
218(15) 0.0 0.0 .
219(15) 0.0 0.0 .
215(15) 0.0 0.0 .
192(14) 0.0 0.0 .
248(16) 0.0 0.0 .
223(15) 0.0 0.0 .
214(15) 0.0 0.0 .
213(15) 0.0 0.0 .
215(15) 0.0 0.0 .
220(15) 0.0 0.0 .
209(14) 0.0 0.0 .
206(14) 0.0 0.0 .
214(15) 0.0 0.0 .
234(15) 0.0 0.0 .
207(14) 0.0 0.0 .
210(14) 0.0 0.0 .
234(15) 0.0 0.0 .
226(15) 0.0 0.0 .
222(15) 0.0 0.0 .
225(15) 0.0 0.0 .
216(15) 0.0 0.0 .
217(15) 0.0 0.0 .
209(14) 0.0 0.0 .
208(14) 0.0 0.0 .
213(15) 0.0 0.0 .
231(15) 0.0 0.0 .
256(16) 0.0 0.0 .
215(15) 0.0 0.0 .
226(15) 0.0 0.0 .
215(15) 0.0 0.0 .
205(14) 0.0 0.0 .
240(15) 0.0 0.0 .
250(16) 0.0 0.0 .
237(15) 0.0 0.0 .
240(15) 0.0 0.0 .
247(16) 0.0 0.0 .
237(15) 0.0 0.0 .
212(15) 0.0 0.0 .
231(15) 0.0 0.0 .
238(15) 0.0 0.0 .
236(15) 0.0 0.0 .
256(16) 0.0 0.0 .
242(16) 0.0 0.0 .
261(16) 0.0 0.0 .
246(16) 0.0 0.0 .
221(15) 0.0 0.0 .
243(16) 0.0 0.0 .
252(16) 0.0 0.0 .
256(16) 0.0 0.0 .
252(16) 0.0 0.0 .
251(16) 0.0 0.0 .
247(16) 0.0 0.0 .
232(15) 0.0 0.0 .
270(16) 0.0 0.0 .
259(16) 0.0 0.0 .
247(16) 0.0 0.0 .
284(17) 0.0 0.0 .
285(17) 0.0 0.0 .
259(16) 0.0 0.0 .
249(16) 0.0 0.0 .
263(16) 0.0 0.0 .
266(16) 0.0 0.0 .
265(16) 0.0 0.0 .
270(16) 0.0 0.0 .
280(17) 0.0 0.0 .
273(17) 0.0 0.0 .
273(17) 0.0 0.0 .
289(17) 0.0 0.0 .
296(17) 0.0 0.0 .
280(17) 0.0 0.0 .
276(17) 0.0 0.0 .
277(17) 0.0 0.0 .
289(17) 0.0 0.0 .
310(18) 0.0 0.0 .
300(17) 0.0 0.0 .
289(17) 0.0 0.0 .
316(18) 0.0 0.0 .
302(17) 0.0 0.0 .
310(18) 0.0 0.0 .
283(17) 0.0 0.0 .
301(17) 0.0 0.0 .
322(18) 0.0 0.0 .
347(19) 0.0 0.0 .
327(18) 0.0 0.0 .
325(18) 0.0 0.0 .
357(19) 0.0 0.0 .
365(19) 0.0 0.0 .
340(18) 0.0 0.0 .
346(19) 0.0 0.0 .
359(19) 0.0 0.0 .
366(19) 0.0 0.0 .
377(19) 0.0 0.0 .
370(19) 0.0 0.0 .
397(20) 0.0 0.0 .
390(20) 0.0 0.0 .
394(20) 0.0 0.0 .
424(21) 0.0 0.0 .
396(20) 0.0 0.0 .
412(20) 0.0 0.0 .
436(21) 0.0 0.0 .
423(21) 0.0 0.0 .
428(21) 0.0 0.0 .
459(21) 0.0 0.0 .
415(20) 0.0 0.0 .
452(21) 0.0 0.0 .
468(22) 0.0 0.0 .
502(22) 0.0 0.0 .
489(22) 0.0 0.0 .
501(22) 0.0 0.0 .
491(22) 0.0 0.0 .
500(22) 0.0 0.0 .
481(22) 0.0 0.0 .
520(23) 0.0 0.0 .
519(23) 0.0 0.0 .
558(24) 0.0 0.0 .
588(24) 0.0 0.0 .
557(24) 0.0 0.0 .
580(24) 0.0 0.0 .
589(24) 0.0 0.0 .
625(25) 0.0 0.0 .
613(25) 0.0 0.0 .
634(25) 0.0 0.0 .
615(25) 0.0 0.0 .
659(26) 0.0 0.0 .
629(25) 0.0 0.0 .
690(26) 0.0 0.0 .
682(26) 0.0 0.0 .
700(26) 0.0 0.0 .
715(27) 0.0 0.0 .
729(27) 0.0 0.0 .
828(29) 0.0 0.0 .
804(28) 0.0 0.0 .
805(28) 0.0 0.0 .
789(28) 0.0 0.0 .
878(30) 0.0 0.0 .
891(30) 0.0 0.0 .
872(30) 0.0 0.0 .
955(31) 0.0 0.0 .
1008(32) 0.0 0.0 .
1024(32) 0.0 0.0 .
1064(33) 0.0 0.0 .
1067(33) 0.0 0.0 .
1116(33) 0.0 0.0 .
1160(34) 0.0 0.0 .
1206(35) 0.0 0.0 .
1250(35) 0.0 0. .
1249(35) 0.0 0. .
1391(37) 0.0 0. .
1418(38) 0.0 0. .
1558(39) 0.0 0. .
1593(40) 0.0 0. .
1696(41) 0.0 0. .
1820(43) 0.0 0. .
2043(45) 0.0 0. .
2102(46) 0.0 0. .
2355(49) 0.0 0. .
2608(51) 0.0 0. .
2964(54) 0.0 0. .
3268(57) 0.0 0. .
3628(60) 0.0 0. .
4137(64) 0.0 0. .
4511(67) 0.0 0. .
4931(70) 0.0 0. .
5152(72) 0.0 0. .
5533(74) 0.0 0. .
5847(76) 0.0 0. .
6381(80) 0.0 0. .
6682(82) 0.0 0. .
7123(84) 0.0 0. .
7844(89) 0.0 0. .
8721(93) 0.0 0. .
9480(97) 0.0 0. .
10670(100) 0.0 0. .
12130(110) 0.0 0. .
13770(120) 0.0 0. .
16030(130) 0.0 0. .
18830(140) 0.0 0. .
22340(150) 0.0 0. .
27780(170) 0.0 0. .
34580(190) 0.0 0. .
44680(210) 0.0 0. .
58180(240) 0.0 0. .
76440(280) 0.0 0. .
99540(320) 0.0 0. .
129740(360) 0.0 0. .
165940(410) 0.0 0. .
207190(460) 0.0 0. .
248450(500) 0.0 0. .
290280(540) 0.0 0. .
322570(570) 0.0 0. .
319740(570) 0.0 0. .
265120(520) 0.0 0. .
198170(450) 0.0 0. .
145930(380) 0.0 0. .
108830(330) 0.0 0. .
82130(290) 0.0 0. .
63830(250) 0.0 0. .
49950(220) 0.0 0. .
39970(200) 0.0 0. .
32420(180) 0.0 0. .
26890(160) 0.0 0. .
22490(150) 0.0 0. .
18910(140) 0.0 0. .
16010(130) 0.0 0. .
13910(120) 0.0 0. .
12090(110) 0.0 0. .
10770(100) 0.0 0. .
9300(96) 0.0 0. .
8386(92) 0.0 0. .
7477(86) 0.0 0. .
6796(82) 0.0 0. .
6038(78) 0.0 0. .
5641(75) 0.0 0. .
5068(71) 0.0 0. .
4657(68) 0.0 0. .
4321(66) 0.0 0. .
3959(63) 0.0 0. .
3722(61) 0.0 0. .
3471(59) 0.0 0. .
3308(58) 0.0 0. .
3086(56) 0.0 0. .
2879(54) 0.0 0. .
2697(52) 0.0 0. .
2549(50) 0.0 0. .
2428(49) 0.0 0. .
2335(48) 0.0 0. .
2170(47) 0.0 0. .
2104(46) 0.0 0. .
2015(45) 0.0 0. .
1935(44) 0.0 0. .
1816(43) 0.0 0. .
1767(42) 0.0 0. .
1692(41) 0.0 0. .
1668(41) 0.0 0. .
1531(39) 0.0 0. .
1523(39) 0.0 0. .
1482(38) 0.0 0. .
1363(37) 0.0 0. .
1288(36) 0.0 0. .
1347(37) 0.0 0. .
1289(36) 0.0 0. .
1272(36) 0.0 0. .
1202(35) 0.0 0.0 .
1190(34) 0.0 0.0 .
1180(34) 0.0 0.0 .
1132(34) 0.0 0.0 .
1096(33) 0.0 0.0 .
1078(33) 0.0 0.0 .
1056(32) 0.0 0.0 .
966(31) 0.0 0.0 .
989(31) 0.0 0.0 .
1010(32) 0.0 0.0 .
945(31) 0.0 0.0 .
921(30) 0.0 0.0 .
919(30) 0.0 0.0 .
923(30) 0.0 0.0 .
894(30) 0.0 0.0 .
870(29) 0.0 0.0 .
908(30) 0.0 0.0 .
829(29) 0.0 0.0 .
852(29) 0.0 0.0 .
871(30) 0.0 0.0 .
829(29) 0.0 0.0 .
896(30) 0.0 0.0 .
794(28) 0.0 0.0 .
822(29) 0.0 0.0 .
799(28) 0.0 0.0 .
777(28) 0.0 0.0 .
764(28) 0.0 0.0 .
794(28) 0.0 0.0 .
786(28) 0.0 0.0 .
758(28) 0.0 0.0 .
766(28) 0.0 0.0 .
715(27) 0.0 0.0 .
702(26) 0.0 0.0 .
733(27) 0.0 0.0 .
716(27) 0.0 0.0 .
748(27) 0.0 0.0 .
734(27) 0.0 0.0 .
754(27) 0.0 0.0 .
716(27) 0.0 0.0 .
814(29) 0.0 0.0 .
786(28) 0.0 0.0 .
754(27) 0.0 0.0 .
775(28) 0.0 0.0 .
835(29) 0.0 0.0 .
791(28) 0.0 0.0 .
833(29) 0.0 0.0 .
810(28) 0.0 0.0 .
806(28) 0.0 0.0 .
835(29) 0.0 0.0 .
806(28) 0.0 0.0 .
860(29) 0.0 0.0 .
914(30) 0.0 0.0 .
847(29) 0.0 0.0 .
912(30) 0.0 0.0 .
954(31) 0.0 0.0 .
949(31) 0.0 0.0 .
1014(32) 0.0 0.0 .
998(32) 0.0 0.0 .
1014(32) 0.0 0.0 .
993(32) 0.0 0.0 .
1047(32) 0.0 0.0 .
1029(32) 0.0 0.0 .
1052(32) 0.0 0.0 .
1069(33) 0.0 0.0 .
1021(32) 0.0 0.0 .
1062(33) 0.0 0.0 .
1081(33) 0.0 0.0 .
1054(32) 0.0 0.0 .
999(32) 0.0 0.0 .
1042(32) 0.0 0.0 .
984(31) 0.0 0.0 .
946(31) 0.0 0.0 .
895(30) 0.0 0.0 .
905(30) 0.0 0.0 .
836(29) 0.0 0.0 .
782(28) 0.0 0.0 .
797(28) 0.0 0.0 .
726(27) 0.0 0.0 .
758(28) 0.0 0.0 .
738(27) 0.0 0.0 .
723(27) 0.0 0.0 .
704(27) 0.0 0.0 .
658(26) 0.0 0.0 .
676(26) 0.0 0.0 .
616(25) 0.0 0.0 .
595(24) 0.0 0.0 .
570(24) 0.0 0.0 .
556(24) 0.0 0.0 .
540(23) 0.0 0.0 .
521(23) 0.0 0.0 .
497(22) 0.0 0.0 .
491(22) 0.0 0.0 .
450(21) 0.0 0.0 .
509(23) 0.0 0.0 .
474(22) 0.0 0.0 .
463(22) 0.0 0.0 .
432(21) 0.0 0.0 .
443(21) 0.0 0.0 .
410(20) 0.0 0.0 .
413(20) 0.0 0.0 .
409(20) 0.0 0.0 .
402(20) 0.0 0.0 .
385(20) 0.0 0.0 .
373(19) 0.0 0.0 .
406(20) 0.0 0.0 .
391(20) 0.0 0.0 .
405(20) 0.0 0.0 .
376(19) 0.0 0.0 .
367(19) 0.0 0.0 .
373(19) 0.0 0.0 .
330(18) 0.0 0.0 .
368(19) 0.0 0.0 .
360(19) 0.0 0.0 .
402(20) 0.0 0.0 .
388(20) 0.0 0.0 .
394(20) 0.0 0.0 .
375(19) 0.0 0.0 .
385(20) 0.0 0.0 .
417(20) 0.0 0.0 .
378(19) 0.0 0.0 .
401(20) 0.0 0.0 .
389(20) 0.0 0.0 .
383(20) 0.002611 390.2 4.7
379(19) 0.002639 390.2 4.8
407(20) 0.002457 388.5 4.9
417(20) 0.002398 385.3 5.0
391(20) 0.002558 382.0 5.1
414(20) 0.002415 378.7 5.2
390(20) 0.002564 375.4 5.3
430(21) 0.002326 372.2 5.4
384(20) 0.002604 368.9 5.5
395(20) 0.002532 365.6 5.6
380(19) 0.002632 362.4 5.7
345(19) 0.002899 359.1 5.8
387(20) 0.002584 355.8 5.9
357(19) 0.002801 352.6 6.1
389(20) 0.002571 349.3 6.2
354(19) 0.002825 346.0 6.3
341(18) 0.002933 342.8 6.4
349(19) 0.002865 339.5 6.6
330(18) 0.003030 336.2 6.7
318(18) 0.003145 332.9 6.9
330(18) 0.003030 329.7 7.0
304(17) 0.003289 326.4 7.2
317(18) 0.003155 323.1 7.3
326(18) 0.003067 319.9 7.5
316(18) 0.003165 316.6 7.6
314(18) 0.003185 313.3 7.8
308(18) 0.003247 310.1 8.0
308(18) 0.003247 306.8 8.2
286(17) 0.003497 303.5 8.4
311(18) 0.003215 300.3 8.6
284(17) 0.00352 297.0 8.8
293(17) 0.003413 293.7 9.0
274(17) 0.00365 290.4 9.2
288(17) 0.003472 287.2 9.5
302(17) 0.003311 283.9 9.7
282(17) 0.00355 280.6 9.9
313(18) 0.003195 277.4 10.2
298(17) 0.003356 277.7 10.5
277(17) 0.00361 278.0 10.8
295(17) 0.003390 278.4 11.0
293(17) 0.003413 278.7 11.4
270(16) 0.00370 279.1 11.7
261(16) 0.00383 279.4 12.0
259(16) 0.00386 279.7 12.3
287(17) 0.003484 280.1 12.7
294(17) 0.003401 280.4 13.1
228(15) 0.00439 280.7 13.5
274(17) 0.00365 281.1 13.9
266(16) 0.00376 281.4 14.3
298(17) 0.003356 281.8 14.8
281(17) 0.00356 282.1 15.2
271(16) 0.00369 282.4 15.7
272(16) 0.00368 282.8 16.2
282(17) 0.00355 283.1 16.8
278(17) 0.00360 283.4 17.4
261(16) 0.00383 283.8 18.0
275(17) 0.00364 284.1 18.6
267(16) 0.00375 284.5 19.3
286(17) 0.003497 284.8 20.0
293(17) 0.003413 285.1 20.7
287(17) 0.003484 285.5 21.5
275(17) 0.00364 285.8 22.3
299(17) 0.003344 286.2 23.2
265(16) 0.00377 286.5 24.2
291(17) 0.003436 286.8 25.1
270(16) 0.00370 287.2 26.2
267(16) 0.00375 287.5 27.3
272(16) 0.00368 287.8 28.5
303(17) 0.003300 288.2 29.8
283(17) 0.00353 288.5 31.1
279(17) 0.00358 288.9 32.6
275(17) 0.00364 289.2 34.1
313(18) 0.003195 289.5 35.8
268(16) 0.00373 289.9 37.6
297(17) 0.003367 290.2 39.5
317(18) 0.003155 290.5 41.6
296(17) 0.003378 290.9 43.8
313(18) 0.003195 291.2 46.2
283(17) 0.00353 291.2 48.9
302(17) 0.003311 290.1 51.7
301(17) 0.003322 289.0 54.8
319(18) 0.003135 287.9 58.2
316(18) 0.003165 286.8 62.0
315(18) 0.003175 285.7 66.1
334(18) 0.002994 284.6 70.6
346(19) 0.002890 283.5 75.5
343(19) 0.002915 282.4 81.1
353(19) 0.002833 281.3 87.2
381(20) 0.002625 280.1 94.0
358(19) 0.002793 279.0 101.7
391(20) 0.002558 277.9 110.3
419(20) 0.002387 276.8 120.1
396(20) 0.002525 275.7 131.2
423(21) 0.002364 274.6 143.8
414(20) 0.002415 273.5 158.4
483(22) 0.002070 272.4 175.2
499(22) 0.002004 271.3 195.0
514(23) 0.001946 270.2 218.3
577(24) 0.001733 269.1 246.3
612(25) 0.001634 268.0 280.3
661(26) 0.001513 266.9 322.1
694(26) 0.001441 265.8 374.3
787(28) 0.001271 264.7 439.7
787(28) 0.001271 263.6 522.2
890(30) 0.001124 262.5 626.0
1024(32) 0.000977 261.4 755.8
1130(34) 0.000885 260.3 916.0
1260(35) 0.000794 259. 1110.
1422(38) 0.000703 258. 1338.
1632(40) 0.000613 257. 1592.
1754(42) 0.000570 256. 1855.
1885(43) 0.000531 255. 2089.
2015(45) 0.000496 254. 2244.
1984(45) 0.000504 253. 2275.
1972(44) 0.000507 251. 2172.
1853(43) 0.000540 250. 1968.
1664(41) 0.000601 249. 1712.
1428(38) 0.000700 248. 1450.
1152(34) 0.000868 247.0 1209.0
972(31) 0.001029 245.9 999.5
832(29) 0.001202 244.8 824.3
745(27) 0.001342 243.7 681.3
651(26) 0.001536 242.6 566.3
609(25) 0.001642 241.5 474.7
548(23) 0.001825 240.4 402.0
500(22) 0.002000 239.3 344.3
497(22) 0.002012 238.2 298.2
473(22) 0.002114 237.1 260.9
456(21) 0.002193 236.0 230.4
462(21) 0.002164 234.9 205.0
421(21) 0.002375 233.7 183.8
408(20) 0.002451 232.6 165.7
367(19) 0.002725 231.5 150.1
387(20) 0.002584 230.4 136.7
376(19) 0.002660 229.3 124.9
354(19) 0.002825 228.2 114.6
348(19) 0.002874 227.1 105.5
358(19) 0.002793 226.0 97.4
363(19) 0.002755 224.9 90.2
370(19) 0.002703 223.8 83.8
346(19) 0.002890 222.7 78.0
365(19) 0.002740 221.6 72.8
346(19) 0.002890 220.5 68.1
360(19) 0.002778 219.4 63.8
352(19) 0.002841 218.3 59.9
352(19) 0.002841 217.2 56.4
359(19) 0.002786 216.1 53.1
326(18) 0.003067 215.0 50.1
339(18) 0.002950 213.9 47.4
339(18) 0.002950 212.8 44.9
357(19) 0.002801 211.7 42.6
337(18) 0.002967 210.6 40.4
328(18) 0.003049 209.4 38.4
313(18) 0.003195 208.3 36.6
324(18) 0.003086 207.2 34.9
333(18) 0.003003 206.1 33.3
310(18) 0.003226 205.0 31.8
314(18) 0.003185 203.9 30.4
358(19) 0.002793 202.8 29.1
308(18) 0.003247 201.7 27.9
308(18) 0.003247 200.6 26.7
325(18) 0.003077 199.5 25.6
329(18) 0.003039 198.4 24.6
319(18) 0.003135 197.3 23.7
302(17) 0.003311 196.2 22.8
313(18) 0.003195 195.1 21.9
299(17) 0.003344 194.0 21.1
273(17) 0.00366 192.9 20.4
290(17) 0.003448 191.8 19.6
279(17) 0.00358 190.7 19.0
255(16) 0.00392 189.6 18.3
255(16) 0.00392 188.5 17.7
233(15) 0.00429 187.4 17.1
257(16) 0.00389 186.2 16.6
269(16) 0.00372 185.1 16.0
260(16) 0.00385 184.0 15.5
219(15) 0.00457 182.9 15.0
261(16) 0.00383 181.8 14.6
244(16) 0.00410 180.7 14.1
247(16) 0.00405 179.6 13.7
228(15) 0.00439 178.5 13.3
235(15) 0.00426 177.4 12.9
226(15) 0.00442 176.3 12.6
213(15) 0.00469 175.2 12.2
220(15) 0.00455 174.1 11.9
207(14) 0.00483 173.0 11.6
217(15) 0.00461 171.9 11.3
251(16) 0.00398 170.8 11.0
189(14) 0.00529 169.7 10.7
210(14) 0.00476 168.6 10.4
207(14) 0.00483 167.5 10.1
199(14) 0.00503 166.4 9.9
203(14) 0.00493 165.3 9.6
199(14) 0.00503 164.2 9.4
187(14) 0.00535 163.0 9.2
194(14) 0.00515 161.9 9.0
193(14) 0.00518 160.8 8.8
185(14) 0.00541 159.7 8.6
189(14) 0.00529 158.6 8.4
162(13) 0.00617 157.5 8.2
161(13) 0.00621 156.4 8.0
167(13) 0.00599 155.3 7.8
170(13) 0.00588 154.2 7.6
143(12) 0.00699 153.1 7.5
146(12) 0.00685 152.7 7.3
155(12) 0.00645 152.4 7.2
141(12) 0.00709 152.2 7.0
163(13) 0.00614 152.0 6.9
147(12) 0.00680 151.7 6.7
166(13) 0.00602 151.5 6.6
154(12) 0.00649 151.3 6.5
168(13) 0.00595 151.1 6.3
148(12) 0.00676 150.8 6.2
168(13) 0.00595 150.6 6.1
146(12) 0.00685 150.4 6.0
132(11) 0.00758 150.1 5.9
155(12) 0.00645 149.9 5.7
139(12) 0.00719 149.7 5.6
153(12) 0.00654 149.4 5.5
152(12) 0.00658 149.2 5.4
155(12) 0.00645 149.0 5.3
151(12) 0.00662 148.8 5.2
160(13) 0.00625 148.5 5.1
151(12) 0.00662 148.3 5.1
152(12) 0.00658 148.1 5.0
151(12) 0.00662 147.8 4.9
158(13) 0.00633 147.6 4.8
145(12) 0.00690 147.4 4.7
155(12) 0.00645 147.1 4.6
159(13) 0.00629 146.9 4.6
145(12) 0.00690 146.7 4.5
150(12) 0.00667 146.5 4.4
149(12) 0.00671 146.2 4.3
133(12) 0.00752 146.2 4.3
174(13) 0.00575 146.1 4.2
162(13) 0.00617 146.1 4.1
165(13) 0.00606 146.0 4.1
135(12) 0.00741 146.0 4.0
141(12) 0.00709 145.9 4.0
144(12) 0.00694 145.9 3.9
150(12) 0.00667 145.8 3.8
164(13) 0.00610 145.7 3.8
155(12) 0.00645 145.7 3.7
156(12) 0.00641 145.6 3.7
131(11) 0.00763 145.6 3.6
163(13) 0.00614 145.5 3.6
151(12) 0.00662 145.5 3.5
135(12) 0.00741 145.4 3.5
135(12) 0.00741 145.4 3.4
150(12) 0.00667 145.3 3.4
155(12) 0.00645 145.3 3.3
147(12) 0.00680 145.2 3.3
160(13) 0.00625 145.2 3.2
145(12) 0.00690 145.1 3.2
152(12) 0.00658 145.1 3.2
136(12) 0.00735 145.0 3.1
150(12) 0.00667 144.9 3.1
136(12) 0.00735 144.9 3.0
153(12) 0.00654 144.8 3.0
154(12) 0.00649 144.8 3.0
147(12) 0.00680 144.7 2.9
146(12) 0.00685 144.7 2.9
156(12) 0.00641 144.6 2.9
134(12) 0.00746 144.6 2.8
146(12) 0.00685 144.5 2.8
139(12) 0.00719 144.5 2.8
168(13) 0.00595 144.4 2.7
149(12) 0.00671 144.4 2.7
138(12) 0.00725 144.3 2.7
146(12) 0.00685 144.3 2.6
141(12) 0.00709 144.2 2.6
131(11) 0.00763 144.1 2.6
136(12) 0.00735 144.1 2.5
133(12) 0.00752 144.0 2.5
137(12) 0.00730 144.0 2.5
135(12) 0.00741 143.9 2.5
133(12) 0.00752 143.9 2.4
140(12) 0.00714 143.8 2.4
138(12) 0.00725 143.8 2.4
122(11) 0.00820 143.7 2.4
134(12) 0.00746 143.7 2.3
164(13) 0.00610 143.6 2.3
141(12) 0.00709 143.6 2.3
154(12) 0.00649 143.5 2.3
161(13) 0.00621 143.5 2.2
143(12) 0.00699 143.4 2.2
131(11) 0.00763 143.3 2.2
153(12) 0.00654 143.3 2.2
134(12) 0.00746 143.2 2.2
142(12) 0.00704 143.2 2.1
154(12) 0.00649 143.1 2.1
136(12) 0.00735 143.1 2.1
121(11) 0.00826 143.0 2.1
132(11) 0.00758 143.0 2.1
140(12) 0.00714 142.9 2.0
141(12) 0.00709 142.9 2.0
137(12) 0.00730 142.8 2.0
136(12) 0.00735 142.8 2.0
137(12) 0.00730 142.7 2.0
149(12) 0.00671 142.7 2.0
133(12) 0.00752 142.6 1.9
123(11) 0.00813 142.5 1.9
137(12) 0.00730 142.5 1.9
153(12) 0.00654 142.4 1.9
144(12) 0.00694 142.4 1.9
147(12) 0.00680 142.3 1.9
134(12) 0.00746 142.3 1.8
137(12) 0.00730 142.2 1.8
129(11) 0.00775 142.2 1.8
149(12) 0.00671 142.1 1.8
139(12) 0.00719 142.1 1.8
143(12) 0.00699 142.0 1.8
131(11) 0.00763 142.0 1.8
134(12) 0.00746 141.9 1.8
122(11) 0.00820 141.9 1.7
122(11) 0.00820 141.8 1.7
150(12) 0.00667 141.7 1.7
135(12) 0.00741 141.7 1.7
120(11) 0.00833 141.6 1.7
152(12) 0.00658 141.6 1.7
125(11) 0.00800 141.5 1.7
153(12) 0.00654 141.5 1.7
155(12) 0.00645 141.4 1.7
135(12) 0.00741 141.4 1.7
134(12) 0.00746 141.3 1.6
130(11) 0.00769 141.3 1.6
125(11) 0.00800 141.2 1.6
129(11) 0.00775 141.2 1.6
152(12) 0.00658 141.1 1.6
155(12) 0.00645 141.0 1.6
147(12) 0.00680 141.0 1.6
119(11) 0.00840 140.9 1.6
128(11) 0.00781 140.9 1.6
133(12) 0.00752 140.8 1.6
140(12) 0.00714 140.8 1.6
150(12) 0.00667 140.7 1.6
131(11) 0.00763 140.7 1.6
138(12) 0.00725 140.6 1.5
124(11) 0.00806 140.6 1.5
139(12) 0.00719 140.5 1.5
126(11) 0.00794 140.5 1.5
139(12) 0.00719 140.4 1.5
139(12) 0.00719 140.4 1.5
124(11) 0.00806 140.3 1.5
134(12) 0.00746 140.2 1.5
144(12) 0.00694 140.2 1.5
124(11) 0.00806 140.1 1.5
128(11) 0.00781 140.1 1.5
140(12) 0.00714 140.0 1.5
129(11) 0.00775 140.0 1.5
148(12) 0.00676 139.9 1.5
136(12) 0.00735 139.9 1.5
124(11) 0.00806 139.8 1.5
132(11) 0.00758 139.8 1.5
124(11) 0.00806 139.7 1.5
122(11) 0.00820 139.7 1.5
138(12) 0.00725 139.6 1.5
128(11) 0.00781 139.6 1.5
122(11) 0.00820 139.5 1.5
136(12) 0.00735 139.4 1.5
144(12) 0.00694 139.4 1.5
138(12) 0.00725 139.3 1.5
146(12) 0.00685 139.3 1.5
148(12) 0.00676 139.2 1.5
115(11) 0.00870 139.2 1.5
125(11) 0.00800 139.1 1.5
145(12) 0.00690 139.1 1.5
130(11) 0.00769 139.0 1.5
134(12) 0.00746 139.0 1.5
129(11) 0.00775 138.9 1.5
124(11) 0.00806 138.9 1.5
125(11) 0.00800 138.8 1.5
130(11) 0.00769 138.8 1.5
128(11) 0.00781 138.7 1.5
125(11) 0.00800 138.6 1.5
147(12) 0.00680 138.6 1.5
122(11) 0.00820 138.5 1.5
136(12) 0.00735 138.5 1.5
148(12) 0.00676 138.4 1.6
132(11) 0.00758 138.4 1.6
140(12) 0.00714 138.3 1.6
124(11) 0.00806 138.3 1.6
150(12) 0.00667 138.2 1.6
132(11) 0.00758 138.2 1.6
134(12) 0.00746 138.1 1.6
117(11) 0.00855 138.1 1.6
120(11) 0.00833 138.0 1.6
123(11) 0.00813 138.0 1.6
130(11) 0.00769 137.9 1.7
153(12) 0.00654 137.8 1.7
131(11) 0.00763 137.8 1.7
99(10) 0.01010 137.7 1.7
135(12) 0.00741 137.7 1.7
130(11) 0.00769 137.6 1.7
136(12) 0.00735 137.6 1.8
128(11) 0.00781 137.5 1.0
125(11) 0.00800 137.5 1.0
140(12) 0.00714 137.4 1.1
131(11) 0.00763 137.4 1.1
143(12) 0.00699 137.3 1.1
145(12) 0.00690 137.3 1.2
127(11) 0.00787 137.2 1.2
127(11) 0.00787 137.2 1.2
123(11) 0.00813 137.1 1.2
148(12) 0.00676 137.0 1.3
134(12) 0.00746 137.0 1.3
124(11) 0.00806 136.9 1.4
138(12) 0.00725 136.9 1.4
130(11) 0.00769 136.8 1.4
131(11) 0.00763 136.8 1.5
156(12) 0.00641 136.7 1.5
132(11) 0.00758 136.7 1.6
140(12) 0.00714 136.6 1.6
136(12) 0.00735 136.6 1.7
145(12) 0.00690 136.5 1.7
112(11) 0.00893 136.5 1.8
140(12) 0.00714 136.4 1.8
124(11) 0.00806 136.4 1.9
135(12) 0.00741 136.3 2.0
152(12) 0.00658 136.2 2.0
131(11) 0.00763 136.2 2.1
142(12) 0.00704 136.2 2.2
134(12) 0.00746 136.5 2.3
137(12) 0.00730 136.8 2.3
120(11) 0.00833 137.1 2.4
119(11) 0.00840 137.4 2.5
136(12) 0.00735 137.6 2.6
142(12) 0.00704 137.9 2.7
140(12) 0.00714 138.2 2.8
142(12) 0.00704 138.5 3.0
131(11) 0.00763 138.8 3.1
140(12) 0.00714 139.0 3.2
146(12) 0.00685 139.3 3.4
138(12) 0.00725 139.6 3.5
134(12) 0.00746 139.9 3.7
133(12) 0.00752 140.2 3.9
138(12) 0.00725 140.5 4.1
143(12) 0.00699 140.7 4.3
147(12) 0.00680 141.0 4.5
140(12) 0.00714 141.3 4.7
163(13) 0.00614 141.6 5.0
156(12) 0.00641 141.9 5.2
149(12) 0.00671 142.2 5.5
148(12) 0.00676 142.4 5.8
150(12) 0.00667 142.7 6.2
146(12) 0.00685 143.0 6.6
153(12) 0.00654 143.3 7.0
156(12) 0.00641 143.6 7.5
142(12) 0.00704 143.9 8.0
143(12) 0.00699 144.1 8.5
143(12) 0.00699 144.4 9.2
158(13) 0.00633 144.7 9.9
134(12) 0.00746 145.0 10.7
152(12) 0.00658 145.3 11.6
155(12) 0.00645 145.6 12.6
161(13) 0.00621 145.8 13.8
182(13) 0.00549 146.1 15.1
140(12) 0.00714 146.4 16.7
161(13) 0.00621 146.7 18.5
166(13) 0.00602 147.0 20.5
148(12) 0.00676 147.3 22.9
153(12) 0.00654 147.5 25.6
165(13) 0.00606 147.8 28.6
155(12) 0.00645 148.1 32.1
156(12) 0.00641 148.4 36.1
149(12) 0.00671 148.7 40.5
160(13) 0.00625 149.0 45.4
178(13) 0.00562 149.2 50.7
159(13) 0.00629 149.5 56.5
148(12) 0.00676 149.8 62.6
167(13) 0.00599 150.1 68.8
181(13) 0.00552 150.4 74.9
168(13) 0.00595 150.6 80.5
159(13) 0.00629 150.9 85.3
172(13) 0.00581 151.2 88.7
159(13) 0.00629 151.5 90.5
174(13) 0.00575 151.8 90.4
161(13) 0.00621 152.1 88.4
158(13) 0.00633 152.3 84.8
194(14) 0.00515 152.6 79.9
165(13) 0.00606 152.9 74.2
191(14) 0.00524 153.2 68.1
127(11) 0.00787 153.5 61.9
151(12) 0.00662 153.8 55.9
177(13) 0.00565 154.0 50.1
151(12) 0.00662 154.3 44.8
157(13) 0.00637 154.6 40.0
158(13) 0.00633 154.9 35.6
142(12) 0.00704 155.2 31.7
171(13) 0.00585 155.5 28.3
145(12) 0.00690 155.7 25.3
144(12) 0.00694 156.0 22.6
136(12) 0.00735 156.3 20.3
152(12) 0.00658 156.6 18.2
169(13) 0.00592 156.9 16.5
140(12) 0.00714 157.2 15.0
145(12) 0.00690 157.4 13.6
153(12) 0.00654 157.7 12.5
141(12) 0.00709 158.0 11.5
161(13) 0.00621 158.3 10.6
157(13) 0.00637 158.6 9.8
143(12) 0.00699 158.9 9.1
155(12) 0.00645 159.1 8.5
148(12) 0.00676 159.4 7.9
166(13) 0.00602 159.7 7.4
149(12) 0.00671 160.0 6.9
157(13) 0.00637 160.3 6.5
154(12) 0.00649 160.5 6.2
160(13) 0.00625 160.8 5.8
144(12) 0.00694 161.1 5.5
164(13) 0.00610 161.4 5.2
163(13) 0.00614 161.7 4.9
154(12) 0.00649 162.0 4.7
169(13) 0.00592 162.2 4.4
153(12) 0.00654 162.5 4.2
159(13) 0.00629 162.8 4.0
155(12) 0.00645 163.1 3.8
131(11) 0.00763 163.4 16.1
151(12) 0.00662 163.7 16.1
158(13) 0.00633 163.9 16.1
158(13) 0.00633 164.2 16.1
151(12) 0.00662 164.5 16.1
145(12) 0.00690 164.8 16.2
167(13) 0.00599 165.1 16.2
152(12) 0.00658 165.4 16.2
172(13) 0.00581 165.6 16.3
153(12) 0.00654 165.9 16.4
170(13) 0.00588 166.2 16.4
163(13) 0.00614 166.5 16.5
156(12) 0.00641 166.8 16.6
153(12) 0.00654 167.1 16.7
139(12) 0.00719 167.3 16.8
146(12) 0.00685 167.6 16.9
167(13) 0.00599 167.9 17.0
158(13) 0.00633 168.2 17.2
149(12) 0.00671 168.5 17.3
159(13) 0.00629 168.8 17.4
162(13) 0.00617 169.0 17.6
162(13) 0.00617 169.3 17.7
161(13) 0.00621 169.6 17.9
143(12) 0.00699 169.9 18.1
138(12) 0.00725 170.2 18.2
166(13) 0.00602 170.4 18.4
148(12) 0.00676 170.7 18.6
154(12) 0.00649 171.0 18.8
184(14) 0.00543 171.3 19.0
161(13) 0.00621 171.6 19.2
170(13) 0.00588 171.9 19.4
162(13) 0.00617 172.1 19.6
152(12) 0.00658 172.4 19.8
168(13) 0.00595 172.7 20.1
174(13) 0.00575 173.0 20.3
164(13) 0.00610 173.3 20.6
166(13) 0.00602 173.6 20.8
159(13) 0.00629 173.8 21.1
141(12) 0.00709 174.1 21.3
158(13) 0.00633 174.4 21.6
145(12) 0.00690 174.7 21.9
163(13) 0.00614 175.0 22.2
155(12) 0.00645 175.3 22.5
172(13) 0.00581 175.5 22.8
188(14) 0.00532 175.8 23.1
196(14) 0.00510 176.1 23.4
203(14) 0.00493 176.4 23.7
200(14) 0.00500 176.7 24.1
226(15) 0.00442 177.0 24.4
208(14) 0.00481 177.2 24.8
179(13) 0.00559 177.5 25.1
206(14) 0.00485 177.8 25.5
183(14) 0.00546 178.1 25.9
184(14) 0.00543 178.4 26.3
202(14) 0.00495 178.7 26.7
198(14) 0.00505 178.9 27.1
183(14) 0.00546 179.2 27.5
175(13) 0.00571 179.5 28.0
212(15) 0.00472 179.8 28.4
210(14) 0.00476 180.1 28.9
201(14) 0.00498 180.4 29.4
204(14) 0.00490 180.6 29.9
176(13) 0.00568 180.9 30.4
208(14) 0.00481 181.2 30.9
200(14) 0.00500 181.5 31.4
191(14) 0.00524 181.8 32.0
179(13) 0.00559 182.0 32.5
202(14) 0.00495 182.3 33.1
185(14) 0.00541 182.6 33.7
196(14) 0.00510 182.9 34.3
179(13) 0.00559 183.2 35.0
186(14) 0.00538 183.5 35.6
174(13) 0.00575 183.7 36.3
203(14) 0.00493 184.0 37.0
173(13) 0.00578 184.3 37.7
187(14) 0.00535 184.6 38.4
178(13) 0.00562 184.9 39.2
161(13) 0.00621 185.2 40.0
192(14) 0.00521 185.4 40.8
194(14) 0.00515 185.7 41.6
184(14) 0.00543 186.0 42.4
191(14) 0.00524 186.3 43.3
192(14) 0.00521 186.6 44.2
177(13) 0.00565 186.9 45.2
203(14) 0.00493 187.1 46.2
206(14) 0.00485 187.2 47.2
186(14) 0.00538 187.3 48.2
181(13) 0.00552 187.4 49.3
193(14) 0.00518 187.5 50.4
183(14) 0.00546 187.6 51.6
186(14) 0.00538 187.7 52.7
190(14) 0.00526 187.8 54.0
169(13) 0.00592 187.8 55.3
194(14) 0.00515 187.9 56.6
174(13) 0.00575 188.0 58.0
184(14) 0.00543 188.1 59.4
187(14) 0.00535 188.2 60.9
188(14) 0.00532 188.3 62.4
189(14) 0.00529 188.4 64.0
185(14) 0.00541 188.5 65.7
206(14) 0.00485 188.5 67.4
194(14) 0.00515 188.6 69.2
183(14) 0.00546 188.7 71.1
174(13) 0.00575 188.8 73.1
204(14) 0.00490 188.9 75.1
200(14) 0.00500 189.0 77.2
212(15) 0.00472 189.1 79.4
203(14) 0.00493 189.2 81.8
218(15) 0.00459 189.3 84.2
209(14) 0.00478 189.3 86.7
225(15) 0.00444 189.4 89.3
208(14) 0.00481 189.5 92.1
212(15) 0.00472 189.6 95.0
214(15) 0.00467 189.7 98.0
207(14) 0.00483 189.8 101.2
231(15) 0.00433 189.9 104.6
219(15) 0.00457 190.0 108.1
218(15) 0.00459 190.0 111.8
227(15) 0.00441 190.1 115.7
217(15) 0.00461 190.2 119.8
236(15) 0.00424 190.3 124.1
240(15) 0.00417 190.4 128.6
248(16) 0.00403 190.5 133.4
257(16) 0.00389 190.6 138.5
235(15) 0.00426 190.7 143.9
269(16) 0.00372 190.7 149.6
258(16) 0.00388 190.8 155.7
273(17) 0.00366 190.9 162.1
257(16) 0.00389 191.0 168.9
289(17) 0.003460 191.1 176.2
298(17) 0.003356 191.2 183.9
274(17) 0.00365 191.3 192.2
294(17) 0.003401 191.4 201.1
291(17) 0.003436 191.4 210.5
296(17) 0.003378 191.5 220.7
301(17) 0.003322 191.6 231.6
307(18) 0.003257 191.7 243.3
338(18) 0.002959 191.8 256.0
326(18) 0.003067 191.9 269.6
374(19) 0.002674 192.0 284.4
362(19) 0.002762 192.1 300.4
394(20) 0.002538 192.2 317.9
420(20) 0.002381 192.2 336.8
427(21) 0.002342 192.3 357.6
444(21) 0.002252 192.4 380.2
439(21) 0.002278 192.5 405.1
469(22) 0.002132 192.6 432.6
477(22) 0.002096 192.7 462.9
476(22) 0.002101 192.8 496.4
568(24) 0.001761 192.9 533.8
558(24) 0.001792 192.9 575.5
619(25) 0.001616 193.0 622.2
646(25) 0.001548 193.1 674.8
686(26) 0.001458 193.2 734.4
764(28) 0.001309 193.3 802.1
809(28) 0.001236 193.4 879.5
954(31) 0.001048 193.5 968.6
997(32) 0.001003 193.6 1071.7
1105(33) 0.000905 193.6 1192.0
1282(36) 0.000780 194. 1333.
1391(37) 0.000719 194. 1501.
1614(40) 0.000620 194. 1702.
1927(44) 0.000519 194. 1945.
2154(46) 0.000464 194. 2242.
2545(50) 0.000393 194. 2613.
2993(55) 0.0003341 194. 3082.
3838(62) 0.0002606 194. 3692.
4622(68) 0.0002164 194. 4507.
5868(77) 0.0001704 195. 5630.
7441(86) 0.0001344 195. 7213.
9830(99) 0.0001017 195. 9469.
13090(110) 0.0000764 195. 12659.
17370(130) 0.0000576 195. 17037.
22670(150) 0.0000441 195. 22662.
28140(170) 0.0000355 195. 28887.
32440(180) 0.0000308 195. 33650.
32750(180) 0.0000305 195. 34180.
28730(170) 0.0000348 195. 30100.
22730(150) 0.0000440 195. 23956.
17560(130) 0.0000570 195. 18115.
13570(120) 0.0000737 196. 13468.
10540(100) 0.0000948 196. 10048.
8506(92) 0.0001176 196. 7620.
6817(83) 0.0001467 196. 5916.
5525(74) 0.0001810 196. 4712.
4545(67) 0.0002200 196. 3842.
3761(61) 0.0002659 196. 3196.
3263(57) 0.0003065 196. 2701.
2667(52) 0.000375 196. 2313.
2317(48) 0.000432 196. 2002.
2029(45) 0.000493 196. 1749.
1743(42) 0.000574 197. 1540.
1608(40) 0.000622 197. 1366.
1367(37) 0.000732 197. 1220.
1206(35) 0.000829 196.8 1095.2
1131(34) 0.000884 196.9 988.8
1064(33) 0.000940 197.0 897.0
1012(32) 0.000988 197.1 817.3
877(30) 0.001140 197.2 747.7
789(28) 0.001267 197.3 686.6
796(28) 0.001256 197.3 632.6
740(27) 0.001351 197.4 584.7
704(27) 0.001420 197.5 542.0
643(25) 0.001555 197.6 503.8
573(24) 0.001745 197.7 469.5
597(24) 0.001675 197.8 438.6
571(24) 0.001751 197.9 410.6
552(23) 0.001812 198.0 385.2
513(23) 0.001949 198.0 362.0
493(22) 0.002028 198.1 340.9
477(22) 0.002096 198.2 321.6
468(22) 0.002137 198.3 303.9
440(21) 0.002273 198.4 287.6
405(20) 0.002469 198.5 272.5
441(21) 0.002268 198.6 258.6
441(21) 0.002268 198.7 245.8
388(20) 0.002577 198.7 233.9
400(20) 0.002500 198.8 223.4
381(20) 0.002625 198.9 213.0
368(19) 0.002717 199.0 203.4
372(19) 0.002688 199.1 194.5
368(19) 0.002717 199.2 186.1
346(19) 0.002890 199.3 178.2
382(20) 0.002618 199.4 170.9
354(19) 0.002825 199.5 163.9
309(18) 0.003236 199.5 157.4
347(19) 0.002882 199.6 151.3
323(18) 0.003096 199.7 145.5
303(17) 0.003300 199.8 140.1
325(18) 0.003077 199.9 134.9
303(17) 0.003300 200.0 130.1
328(18) 0.003049 200.1 125.5
320(18) 0.003125 200.2 121.1
299(17) 0.003344 200.2 117.0
326(18) 0.003067 200.3 113.0
321(18) 0.003115 200.4 109.3
304(17) 0.003289 200.5 105.8
311(18) 0.003215 200.6 102.4
332(18) 0.003012 200.7 99.2
326(18) 0.003067 200.8 115.3
312(18) 0.003205 200.9 112.6
285(17) 0.00351 200.9 110.0
310(18) 0.003226 201.0 107.5
305(17) 0.003279 201.1 105.1
314(18) 0.003185 201.2 102.8
300(17) 0.003333 201.3 100.7
292(17) 0.003425 201.4 98.6
285(17) 0.00351 201.5 96.7
312(18) 0.003205 201.6 94.8
284(17) 0.00352 201.7 93.0
284(17) 0.00352 201.7 91.4
293(17) 0.003413 201.8 89.7
307(18) 0.003257 201.9 88.2
304(17) 0.003289 202.0 86.7
302(17) 0.003311 202.1 85.3
286(17) 0.003497 202.2 84.0
320(18) 0.003125 202.3 82.7
293(17) 0.003413 202.4 81.5
317(18) 0.003155 202.4 80.3
275(17) 0.00364 202.5 79.2
283(17) 0.00353 202.6 78.1
308(18) 0.003247 202.7 77.1
318(18) 0.003145 202.8 76.1
306(17) 0.003268 202.9 75.2
314(18) 0.003185 203.0 74.3
287(17) 0.003484 203.1 73.5
294(17) 0.003401 203.1 72.7
293(17) 0.003413 203.2 71.9
273(17) 0.00366 203.3 71.2
282(17) 0.00355 203.4 70.5
288(17) 0.003472 203.5 69.8
301(17) 0.003322 203.6 69.2
283(17) 0.00353 203.7 68.6
283(17) 0.00353 203.8 68.1
279(17) 0.00358 203.9 67.5
271(16) 0.00369 203.9 67.0
260(16) 0.00385 204.0 66.6
281(17) 0.00356 204.1 66.1
280(17) 0.00357 204.2 65.7
252(16) 0.00397 204.3 65.3
284(17) 0.00352 204.4 64.9
276(17) 0.00362 204.5 64.6
272(16) 0.00368 204.6 64.3
249(16) 0.00402 204.6 64.0
256(16) 0.00391 204.7 63.7
213(15) 0.00469 204.8 63.4
245(16) 0.00408 204.9 63.2
238(15) 0.00420 205.0 63.0
229(15) 0.00437 205.1 62.8
213(15) 0.00469 205.2 62.7
224(15) 0.00446 205.3 62.5
249(16) 0.00402 205.3 62.4
221(15) 0.00452 205.4 62.3
267(16) 0.00375 205.5 62.2
231(15) 0.00433 205.6 62.1
244(16) 0.00410 205.7 62.1
222(15) 0.00450 205.8 62.0
239(15) 0.00418 205.9 62.0
225(15) 0.00444 206.0 62.0
236(15) 0.00424 206.0 62.0
219(15) 0.00457 206.1 62.1
222(15) 0.00450 206.2 62.1
206(14) 0.00485 206.3 62.2
213(15) 0.00469 206.4 62.3
220(15) 0.00455 206.5 62.4
242(16) 0.00413 206.6 62.5
236(15) 0.00424 206.7 62.7
237(15) 0.00422 206.8 62.9
240(15) 0.00417 206.8 63.0
245(16) 0.00408 206.9 63.2
239(15) 0.00418 207.0 63.4
222(15) 0.00450 207.1 63.7
239(15) 0.00418 207.2 63.9
207(14) 0.00483 207.3 64.2
218(15) 0.00459 207.4 64.5
227(15) 0.00441 207.5 64.8
228(15) 0.00439 207.5 65.1
240(15) 0.00417 207.6 65.4
218(15) 0.00459 207.7 65.8
224(15) 0.00446 207.8 66.2
198(14) 0.00505 207.9 66.6
234(15) 0.00427 208.0 67.0
215(15) 0.00465 208.1 67.4
224(15) 0.00446 208.1 67.9
229(15) 0.00437 208.2 68.3
208(14) 0.00481 208.3 68.8
228(15) 0.00439 208.3 69.3
264(16) 0.00379 208.4 69.9
227(15) 0.00441 208.5 70.4
229(15) 0.00437 208.5 71.0
194(14) 0.00515 208.6 71.6
221(15) 0.00452 208.7 72.2
234(15) 0.00427 208.7 72.8
226(15) 0.00442 208.8 73.5
248(16) 0.00403 208.9 74.2
243(16) 0.00412 208.9 74.9
234(15) 0.00427 209.0 75.6
240(15) 0.00417 209.1 76.4
237(15) 0.00422 209.1 77.2
237(15) 0.00422 209.2 78.0
253(16) 0.00395 209.3 78.8
221(15) 0.00452 209.3 79.7
218(15) 0.00459 209.4 80.6
230(15) 0.00435 209.5 81.5
231(15) 0.00433 209.5 82.5
245(16) 0.00408 209.6 83.5
257(16) 0.00389 209.7 84.5
239(15) 0.00418 209.7 85.5
244(16) 0.00410 209.8 86.6
247(16) 0.00405 209.9 87.7
254(16) 0.00394 209.9 88.9
265(16) 0.00377 210.0 90.1
236(15) 0.00424 210.1 91.3
252(16) 0.00397 210.1 92.5
251(16) 0.00398 210.2 93.9
261(16) 0.00383 210.3 95.2
243(16) 0.00412 210.4 96.6
259(16) 0.00386 210.4 98.0
284(17) 0.00352 210.5 99.5
267(16) 0.00375 210.6 101.0
255(16) 0.00392 210.6 102.6
258(16) 0.00388 210.7 104.2
259(16) 0.00386 210.8 105.9
268(16) 0.00373 210.8 107.6
284(17) 0.00352 210.9 109.4
278(17) 0.00360 211.0 111.3
273(17) 0.00366 211.0 113.2
292(17) 0.003425 211.1 115.2
300(17) 0.003333 211.2 117.2
289(17) 0.003460 211.2 119.3
296(17) 0.003378 211.3 121.5
291(17) 0.003436 211.4 123.7
294(17) 0.003401 211.4 116.1
285(17) 0.00351 211.5 118.6
318(18) 0.003145 211.6 121.2
310(18) 0.003226 211.6 123.9
306(17) 0.003268 211.7 126.6
302(17) 0.003311 211.8 129.5
311(18) 0.003215 211.8 132.5
321(18) 0.003115 211.9 135.5
333(18) 0.003003 212.0 138.7
351(19) 0.002849 212.0 142.0
340(18) 0.002941 212.1 145.4
340(18) 0.002941 212.2 148.9
355(19) 0.002817 212.2 152.6
357(19) 0.002801 212.3 156.4
341(18) 0.002933 212.4 160.3
370(19) 0.002703 212.4 164.4
390(20) 0.002564 212.5 168.7
401(20) 0.002494 212.6 173.1
379(19) 0.002639 212.6 177.7
361(19) 0.002770 212.7 182.4
423(21) 0.002364 212.8 187.4
383(20) 0.002611 212.8 192.6
390(20) 0.002564 212.9 198.0
429(21) 0.002331 213.0 203.6
426(21) 0.002347 213.0 209.5
457(21) 0.002188 213.1 215.6
460(21) 0.002174 213.2 222.0
499(22) 0.002004 213.2 228.7
474(22) 0.002110 213.3 235.7
478(22) 0.002092 213.4 243.0
532(23) 0.001880 213.4 250.7
554(24) 0.001805 213.5 258.8
541(23) 0.001848 213.6 267.2
575(24) 0.001739 213.6 276.0
572(24) 0.001748 213.7 285.3
662(26) 0.001511 213.8 295.1
654(26) 0.001529 213.8 305.4
706(27) 0.001416 213.9 316.3
730(27) 0.001370 214.0 327.7
756(27) 0.001323 214.0 339.7
711(27) 0.001406 214.1 352.5
748(27) 0.001337 214.2 365.9
709(27) 0.001410 214.2 380.2
713(27) 0.001403 214.3 395.3
729(27) 0.001372 214.4 411.3
747(27) 0.001339 214.5 428.3
767(28) 0.001304 214.5 446.4
757(28) 0.001321 214.6 465.7
715(27) 0.001399 214.7 486.2
719(27) 0.001391 214.7 508.1
757(28) 0.001321 214.8 531.5
762(28) 0.001312 214.9 556.6
801(28) 0.001248 214.9 583.5
858(29) 0.001166 215.0 612.4
879(30) 0.001138 215.1 643.5
808(28) 0.001238 215.1 677.0
847(29) 0.001181 215.2 713.2
897(30) 0.001115 215.3 752.3
905(30) 0.001105 215.3 794.8
954(31) 0.001048 215.4 840.9
951(31) 0.001052 215.5 891.2
1029(32) 0.000972 215.5 946.1
1045(32) 0.000957 215.6 1006.1
1088(33) 0.000919 215.7 1072.1
1059(33) 0.000944 215.7 1144.7
1134(34) 0.000882 215.8 1224.9
1362(37) 0.000734 216. 1314.
1300(36) 0.000769 216. 1413.
1402(37) 0.000713 216. 1523.
1620(40) 0.000617 216. 1646.
1657(41) 0.000603 216. 1785.
1855(43) 0.000539 216. 1942.
2026(45) 0.000494 216. 2121.
2159(46) 0.000463 216. 2325.
2466(50) 0.000406 216. 2559.
2595(51) 0.000385 216. 2829.
2901(54) 0.0003447 217. 3144.
3412(58) 0.0002931 217. 3515.
3837(62) 0.0002606 217. 3955.
4296(66) 0.0002328 217. 4484.
5124(72) 0.0001952 217. 5132.
5967(77) 0.0001676 217. 5934.
6934(83) 0.0001442 217. 6946.
8406(92) 0.0001190 217. 8240.
10090(100) 0.0000991 217. 9913.
12130(110) 0.0000824 217. 12081.
14990(120) 0.0000667 217. 14878.
18920(140) 0.0000529 217. 18443.
23990(160) 0.0000417 217. 22889.
29970(170) 0.0000334 217. 28234.
36750(190) 0.0000272 217. 34257.
43440(210) 0.0000230 218. 40281.
48240(220) 0.0000207 218. 45022.
48940(220) 0.0000204 218. 46957.
45040(210) 0.0000222 218. 45315.
39180(200) 0.0000255 218. 40756.
32590(180) 0.0000307 218. 34787.
27110(170) 0.0000369 218. 28735.
22910(150) 0.0000437 218. 23325.
19100(140) 0.0000524 218. 18808.
15920(130) 0.0000628 218. 15178.
13680(120) 0.0000731 218. 12328.
11660(110) 0.0000858 218. 10120.
9910(100) 0.0001009 218. 8417.
8637(93) 0.0001158 218. 7101.
7642(87) 0.0001309 218. 6077.
6650(82) 0.0001504 219. 5268.
5841(76) 0.0001712 219. 4621.
5092(71) 0.0001964 219. 4094.
4548(67) 0.0002199 219. 3660.
4259(65) 0.0002348 219. 3299.
3759(61) 0.0002660 219. 2996.
3332(58) 0.0003001 219. 2742.
3231(57) 0.0003095 219. 2530.
2885(54) 0.0003466 219. 2353.
2737(52) 0.000365 219. 2209.
2577(51) 0.000388 219. 2095.
2362(49) 0.000423 219. 2010.
2262(48) 0.000442 219. 1955.
2195(47) 0.000456 219. 1929.
2276(48) 0.000439 219. 1934.
2198(47) 0.000455 220. 1969.
2254(47) 0.000444 220. 2034.
2265(48) 0.000442 220. 2124.
2356(49) 0.000424 220. 2228.
2377(49) 0.000421 220. 2325.
2538(50) 0.000394 220. 2385.
2690(52) 0.000372 220. 2380.
2521(50) 0.000397 220. 2295.
2412(49) 0.000415 220. 2142.
2213(47) 0.000452 220. 1948.
1877(43) 0.000533 220. 1742.
1678(41) 0.000596 220. 1545.
1536(39) 0.000651 220. 1367.
1333(37) 0.000750 220. 1212.
1158(34) 0.000864 220.5 1079.5
1062(33) 0.000942 220.6 968.2
1046(32) 0.000956 220.6 875.0
950(31) 0.001053 220.7 797.0
797(28) 0.001255 220.8 731.6
805(28) 0.001242 220.8 676.3
777(28) 0.001287 220.9 629.1
741(27) 0.001350 221.0 588.4
671(26) 0.001490 221.0 552.8
658(26) 0.001520 221.1 521.4
696(26) 0.001437 221.2 493.3
620(25) 0.001613 221.2 468.1
568(24) 0.001761 221.3 445.2
564(24) 0.001773 221.4 424.3
530(23) 0.001887 221.4 405.2
556(24) 0.001799 221.5 387.6
501(22) 0.001996 221.6 371.3
495(22) 0.002020 221.6 358.4
495(22) 0.002020 221.7 344.4
495(22) 0.002020 221.8 331.3
442(21) 0.002262 221.8 319.1
477(22) 0.002096 221.9 307.7
427(21) 0.002342 222.0 297.0
453(21) 0.002208 222.0 287.0
454(21) 0.002203 222.1 277.5
435(21) 0.002299 222.2 268.6
395(20) 0.002532 222.2 260.1
402(20) 0.002488 222.3 252.2
409(20) 0.002445 222.4 244.6
370(19) 0.002703 222.4 237.5
404(20) 0.002475 222.5 230.7
409(20) 0.002445 222.6 224.3
376(19) 0.002660 222.6 218.2
360(19) 0.002778 222.7 212.3
409(20) 0.002445 222.8 206.8
363(19) 0.002755 222.9 201.5
363(19) 0.002755 222.9 196.5
363(19) 0.002755 223.0 191.7
359(19) 0.002786 223.1 187.1
330(18) 0.003030 223.1 182.7
325(18) 0.003077 223.2 178.6
393(20) 0.002545 223.3 174.6
351(19) 0.002849 223.3 170.8
371(19) 0.002695 223.4 167.1
319(18) 0.003135 223.5 163.7
348(19) 0.002874 223.5 160.3
317(18) 0.003155 223.6 157.2
335(18) 0.002985 223.7 154.2
313(18) 0.003195 223.7 151.3
338(18) 0.002959 223.8 148.5
335(18) 0.002985 223.9 145.9
329(18) 0.003039 223.9 143.3
317(18) 0.003155 224.0 140.9
329(18) 0.003039 224.1 138.6
317(18) 0.003155 224.1 136.4
315(18) 0.003175 224.2 134.3
346(19) 0.002890 224.3 132.3
307(18) 0.003257 224.3 130.4
332(18) 0.003012 224.4 128.5
322(18) 0.003106 224.5 126.8
301(17) 0.003322 224.5 125.2
315(18) 0.003175 224.6 123.7
323(18) 0.003096 224.7 122.2
325(18) 0.003077 224.7 120.9
306(17) 0.003268 224.8 119.6
288(17) 0.003472 224.9 118.5
305(17) 0.003279 224.9 117.4
325(18) 0.003077 225.0 116.4
318(18) 0.003145 225.1 115.5
299(17) 0.003344 225.1 114.7
303(17) 0.003300 225.2 113.9
333(18) 0.003003 225.3 113.3
308(18) 0.003247 225.3 112.7
349(19) 0.002865 225.4 112.3
414(20) 0.002415 225.5 112.0
406(20) 0.002463 225.5 111.7
462(21) 0.002164 225.6 111.6
496(22) 0.002016 225.7 111.6
464(22) 0.002155 225.7 111.7
381(20) 0.002625 225.8 111.9
370(19) 0.002703 225.9 112.3
336(18) 0.002976 225.9 112.8
317(18) 0.003155 226.0 113.4
317(18) 0.003155 226.1 114.2
348(19) 0.002874 226.1 115.2
324(18) 0.003086 226.2 116.4
327(18) 0.003058 226.3 117.8
339(18) 0.002950 226.3 119.4
351(19) 0.002849 226.4 121.2
337(18) 0.002967 226.5 123.4
319(18) 0.003135 226.5 125.8
325(18) 0.003077 226.6 128.5
339(18) 0.002950 226.7 131.7
303(17) 0.003300 226.7 135.2
330(18) 0.003030 226.8 139.3
321(18) 0.003115 226.9 143.9
346(19) 0.002890 226.9 149.1
365(19) 0.002740 227.0 155.0
351(19) 0.002849 227.1 161.8
361(19) 0.002770 227.2 169.5
386(20) 0.002591 227.2 178.4
394(20) 0.002538 227.3 188.6
412(20) 0.002427 227.4 200.4
431(21) 0.002320 227.4 214.1
419(20) 0.002387 227.5 230.1
466(22) 0.002146 227.6 249.0
512(23) 0.001953 227.6 271.5
541(23) 0.001848 227.7 298.3
558(24) 0.001792 227.8 330.7
616(25) 0.001623 227.8 370.5
680(26) 0.001471 227.9 419.9
743(27) 0.001346 228.0 482.6
840(29) 0.001190 228.0 564.1
964(31) 0.001037 228.1 672.8
1118(33) 0.000894 228.2 821.1
1364(37) 0.000733 228. 1026.
1663(41) 0.000601 228. 1310.
2041(45) 0.000490 228. 1698.
2553(51) 0.000392 228. 2208.
3081(56) 0.0003246 228. 2835.
3796(62) 0.0002634 229. 3490.
4370(66) 0.0002288 229. 3963.
4357(66) 0.0002295 229. 4002.
3828(62) 0.0002612 229. 3588.
3146(56) 0.0003179 229. 2952.
2503(50) 0.000400 229. 2326.
2049(45) 0.000488 229. 1810.
1708(41) 0.000585 229. 1420.
1463(38) 0.000684 229. 1139.
1324(36) 0.000755 229. 944.
1209(35) 0.000827 229.2 812.5
1155(34) 0.000866 229.3 728.3
1090(33) 0.000917 229.4 681.0
1093(33) 0.000915 229.4 665.5
1086(33) 0.000921 229.5 682.0
1129(34) 0.000886 229.6 735.2
1163(34) 0.000860 229.6 834.0
1351(37) 0.000740 230. 991.
1493(39) 0.000670 230. 1216.
1703(41) 0.000587 230. 1510.
1950(44) 0.000513 230. 1832.
2152(46) 0.000465 230. 2069.
2227(47) 0.000449 230. 2080.
2095(46) 0.000477 230. 1847.
1786(42) 0.000560 230. 1504.
1403(37) 0.000713 230. 1174.
1161(34) 0.000861 230.3 907.0
888(30) 0.001126 230.4 706.6
739(27) 0.001353 230.4 561.1
670(26) 0.001493 230.5 456.7
606(25) 0.001650 230.6 381.3
508(23) 0.001968 230.6 325.7
483(22) 0.002070 230.7 283.6
460(21) 0.002174 230.8 250.7
429(21) 0.002331 230.8 224.5
425(21) 0.002353 230.9 203.1
383(20) 0.002611 231.0 185.4
387(20) 0.002584 231.0 170.6
403(20) 0.002481 231.1 158.0
397(20) 0.002519 231.2 147.2
374(19) 0.002674 231.3 137.8
387(20) 0.002584 231.3 129.7
377(19) 0.002653 231.4 122.6
338(18) 0.002959 231.5 116.3
320(18) 0.003125 231.5 110.7
375(19) 0.002667 231.6 105.7
347(19) 0.002882 231.7 101.3
331(18) 0.003021 231.7 97.3
363(19) 0.002755 231.8 93.6
358(19) 0.002793 231.9 90.4
347(19) 0.002882 231.9 87.4
354(19) 0.002825 232.0 84.7
353(19) 0.002833 232.1 82.2
361(19) 0.002770 232.1 79.9
339(18) 0.002950 232.2 77.8
347(19) 0.002882 232.3 75.9
344(19) 0.002907 232.3 74.2
361(19) 0.002770 232.4 72.5
370(19) 0.002703 232.5 71.0
340(18) 0.002941 232.5 69.6
330(18) 0.003030 232.6 68.4
349(19) 0.002865 232.7 67.2
359(19) 0.002786 232.7 66.1
367(19) 0.002725 232.8 65.1
379(19) 0.002639 232.9 64.2
359(19) 0.002786 232.9 63.3
383(20) 0.002611 233.0 62.5
370(19) 0.002703 233.1 61.8
361(19) 0.002770 233.1 61.1
358(19) 0.002793 233.2 60.5
361(19) 0.002770 233.3 59.9
369(19) 0.002710 233.3 59.4
382(20) 0.002618 233.4 59.0
363(19) 0.002755 233.5 58.5
417(20) 0.002398 233.5 58.2
354(19) 0.002825 233.6 57.8
337(18) 0.002967 233.7 57.5
355(19) 0.002817 233.7 57.3
363(19) 0.002755 233.8 57.1
337(18) 0.002967 233.9 56.9
358(19) 0.002793 233.9 56.7
341(18) 0.002933 234.0 56.6
328(18) 0.003049 234.1 56.6
342(18) 0.002924 234.1 56.5
365(19) 0.002740 234.2 56.5
342(18) 0.002924 234.3 56.6
360(19) 0.002778 234.3 56.6
335(18) 0.002985 234.4 56.7
373(19) 0.002681 234.5 56.8
369(19) 0.002710 234.5 57.0
350(19) 0.002857 234.6 57.2
315(18) 0.003175 234.7 57.4
350(19) 0.002857 234.7 57.7
345(19) 0.002899 234.8 58.0
348(19) 0.002874 234.9 58.3
317(18) 0.003155 234.9 58.7
344(19) 0.002907 235.0 59.1
330(18) 0.003030 235.1 59.5
337(18) 0.002967 235.1 60.0
363(19) 0.002755 235.2 60.5
336(18) 0.002976 235.3 61.1
310(18) 0.003226 235.3 61.7
328(18) 0.003049 235.4 62.3
347(19) 0.002882 235.5 63.0
335(18) 0.002985 235.6 63.7
315(18) 0.003175 235.6 64.5
315(18) 0.003175 235.7 65.3
329(18) 0.003039 235.8 66.2
334(18) 0.002994 235.8 67.1
338(18) 0.002959 235.9 68.1
316(18) 0.003165 236.0 69.1
276(17) 0.00362 236.0 70.2
290(17) 0.003448 236.1 71.4
291(17) 0.003436 236.2 72.6
300(17) 0.003333 236.2 73.9
307(18) 0.003257 236.3 75.3
298(17) 0.003356 236.4 76.7
300(17) 0.003333 236.4 78.3
295(17) 0.003390 236.5 79.9
331(18) 0.003021 236.6 81.6
337(18) 0.002967 236.6 83.4
309(18) 0.003236 236.7 85.3
322(18) 0.003106 236.8 87.4
307(18) 0.003257 236.8 89.5
331(18) 0.003021 236.9 91.8
355(19) 0.002817 237.0 94.2
349(19) 0.002865 237.0 96.7
321(18) 0.003115 237.1 99.4
352(19) 0.002841 237.2 102.3
351(19) 0.002849 237.2 105.3
354(19) 0.002825 237.3 108.5
327(18) 0.003058 237.4 112.0
324(18) 0.003086 237.4 115.6
297(17) 0.003367 237.5 119.5
350(19) 0.002857 237.6 123.7
312(18) 0.003205 237.6 128.1
349(19) 0.002865 237.7 132.8
359(19) 0.002786 237.8 137.9
340(18) 0.002941 237.8 143.3
343(19) 0.002915 237.9 149.1
340(18) 0.002941 238.0 155.4
410(20) 0.002439 238.0 162.1
360(19) 0.002778 238.1 169.3
360(19) 0.002778 238.2 177.2
407(20) 0.002457 238.2 185.6
395(20) 0.002532 238.3 194.8
402(20) 0.002488 238.4 204.7
404(20) 0.002475 238.4 215.5
424(21) 0.002358 238.5 227.3
418(20) 0.002392 238.6 240.1
473(22) 0.002114 238.6 254.2
498(22) 0.002008 238.7 269.7
492(22) 0.002033 238.8 286.7
534(23) 0.001873 238.8 305.5
550(23) 0.001818 238.9 315.9
586(24) 0.001706 239.0 339.2
608(25) 0.001645 239.0 365.1
652(26) 0.001534 239.1 394.2
643(25) 0.001555 239.2 427.0
727(27) 0.001376 239.2 464.1
779(28) 0.001284 239.3 506.5
781(28) 0.001280 239.4 555.3
856(29) 0.001168 239.4 611.9
952(31) 0.001050 239.5 678.4
1031(32) 0.000970 239.6 757.1
1114(33) 0.000898 239.7 851.4
1283(36) 0.000779 240. 965.
1460(38) 0.000685 240. 1103.
1530(39) 0.000654 240. 1272.
1769(42) 0.000565 240. 1477.
1988(45) 0.000503 240. 1727.
2294(48) 0.000436 240. 2027.
2606(51) 0.000384 240. 2385.
3014(55) 0.0003318 240. 2805.
3532(59) 0.0002831 240. 3285.
4119(64) 0.0002428 240. 3814.
4921(70) 0.0002032 240. 4364.
5551(75) 0.0001801 240. 4884.
5801(76) 0.0001724 241. 5306.
6054(78) 0.0001652 241. 5557.
5888(77) 0.0001698 241. 5600.
5630(75) 0.0001776 241. 5451.
5230(72) 0.0001912 241. 5173.
4939(70) 0.0002025 241. 4838.
4611(68) 0.0002169 241. 4505.
4422(66) 0.0002261 241. 4204.
4117(64) 0.0002429 241. 3942.
4081(64) 0.0002450 241. 3705.
3914(63) 0.0002555 241. 3472.
3577(60) 0.0002796 241. 3226.
3331(58) 0.0003002 241. 2959.
3034(55) 0.0003296 241. 2675.
2741(52) 0.000365 241. 2388.
2473(50) 0.000404 242. 2110.
2194(47) 0.000456 242. 1853.
1951(44) 0.000513 242. 1621.
1832(43) 0.000546 242. 1417.
1630(40) 0.000613 242. 1239.
1505(39) 0.000664 242. 1086.
1383(37) 0.000723 242. 956.
1315(36) 0.000760 242. 845.
1154(34) 0.000867 242.1 750.4
1069(33) 0.000935 242.1 670.4
1033(32) 0.000968 242.2 602.3
972(31) 0.001029 242.3 544.2
919(30) 0.001088 242.3 494.5
842(29) 0.001188 242.4 451.6
831(29) 0.001203 242.5 414.4
793(28) 0.001261 242.5 381.8
700(26) 0.001429 242.6 353.2
656(26) 0.001524 242.7 327.8
632(25) 0.001582 242.7 305.1
587(24) 0.001704 242.8 284.8
584(24) 0.001712 242.9 266.5
567(24) 0.001764 242.9 249.9
543(23) 0.001842 243.0 234.9
538(23) 0.001859 243.1 221.2
510(23) 0.001961 243.1 208.7
488(22) 0.002049 243.2 197.2
498(22) 0.002008 243.3 186.6
452(21) 0.002212 243.3 176.9
448(21) 0.002232 243.4 168.0
444(21) 0.002252 243.5 159.7
448(21) 0.002232 243.5 152.0
450(21) 0.002222 243.6 144.8
432(21) 0.002315 243.7 138.2
432(21) 0.002315 243.7 132.0
459(21) 0.002179 243.8 126.2
395(20) 0.002532 243.9 120.8
393(20) 0.002545 244.0 115.8
347(19) 0.002882 244.0 111.0
370(19) 0.002703 244.1 106.6
372(19) 0.002688 244.2 102.4
362(19) 0.002762 244.2 98.5
355(19) 0.002817 244.3 94.8
326(18) 0.003067 244.4 91.3
330(18) 0.003030 244.4 88.0
314(18) 0.003185 244.5 84.8
314(18) 0.003185 244.6 81.9
319(18) 0.003135 244.6 79.1
320(18) 0.003125 244.7 76.4
311(18) 0.003215 244.8 73.9
282(17) 0.00355 244.8 71.5
293(17) 0.003413 244.9 69.3
326(18) 0.003067 245.0 67.1
297(17) 0.003367 245.0 65.0
305(17) 0.003279 245.1 63.1
306(17) 0.003268 245.2 61.2
322(18) 0.003106 245.2 59.4
303(17) 0.003300 245.3 57.7
275(17) 0.00364 245.4 56.1
298(17) 0.003356 245.4 54.5
292(17) 0.003425 245.5 53.0
301(17) 0.003322 245.6 51.6
300(17) 0.003333 245.6 50.2
264(16) 0.00379 245.7 48.9
272(16) 0.00368 245.8 47.6
259(16) 0.00386 245.8 46.4
281(17) 0.00356 245.9 45.3
270(16) 0.00370 246.0 44.1
288(17) 0.003472 246.0 43.1
286(17) 0.003497 246.1 42.0
265(16) 0.00377 246.2 41.0
269(16) 0.00372 246.2 40.1
299(17) 0.003344 246.3 39.2
276(17) 0.00362 246.4 38.3
274(17) 0.00365 246.4 37.4
261(16) 0.00383 246.5 36.6
275(17) 0.00364 246.6 35.8
276(17) 0.00362 246.6 35.0
287(17) 0.003484 246.7 34.3
251(16) 0.00398 246.8 33.6
277(17) 0.00361 246.8 32.9
272(16) 0.00368 246.9 32.2
309(18) 0.003236 247.0 31.6
265(16) 0.00377 247.0 31.0
248(16) 0.00403 247.1 30.4
268(16) 0.00373 247.2 29.8
252(16) 0.00397 247.2 29.2
285(17) 0.00351 247.3 28.7
284(17) 0.00352 247.4 28.2
271(16) 0.00369 247.4 27.7
262(16) 0.00382 247.5 27.2
282(17) 0.00355 247.6 26.7
237(15) 0.00422 247.6 26.2
279(17) 0.00358 247.7 25.8
274(17) 0.00365 247.8 25.3
260(16) 0.00385 247.8 24.9
255(16) 0.00392 247.9 24.5
277(17) 0.00361 248.0 24.1
271(16) 0.00369 248.3 23.7
269(16) 0.00372 248.6 23.4
284(17) 0.00352 248.9 23.0
256(16) 0.00391 249.3 22.6
258(16) 0.00388 249.6 22.3
243(16) 0.00412 250.0 22.0
236(15) 0.00424 250.3 21.7
245(16) 0.00408 250.6 21.3
269(16) 0.00372 251.0 21.0
233(15) 0.00429 251.3 20.8
255(16) 0.00392 251.7 20.5
248(16) 0.00403 252.0 20.2
251(16) 0.00398 252.3 20.0
287(17) 0.003484 252.7 19.7
245(16) 0.00408 253.0 19.5
261(16) 0.00383 253.4 19.2
271(16) 0.00369 253.7 19.0
266(16) 0.00376 254.0 18.8
276(17) 0.00362 254.4 18.6
282(17) 0.00355 254.7 18.4
292(17) 0.003425 255.1 18.2
255(16) 0.00392 255.4 18.0
244(16) 0.00410 255.8 17.8
283(17) 0.00353 256.1 17.6
250(16) 0.00400 256.4 17.4
245(16) 0.00408 256.8 17.3
275(17) 0.00364 257.1 17.1
284(17) 0.00352 257.5 17.0
268(16) 0.00373 257.8 16.8
269(16) 0.00372 258.1 16.7
252(16) 0.00397 258.5 16.6
269(16) 0.00372 258.8 16.4
285(17) 0.00351 259.2 16.3
242(16) 0.00413 259.5 16.2
276(17) 0.00362 259.8 16.1
267(16) 0.00375 260.2 16.0
247(16) 0.0 0.0 .
271(16) 0.0 0.0 .
265(16) 0.0 0.0 .
285(17) 0.0 0.0 .
276(17) 0.0 0.0 .
283(17) 0.0 0.0 .
261(16) 0.0 0.0 .
307(18) 0.0 0.0 .
301(17) 0.0 0.0 .
304(17) 0.0 0.0 .
306(17) 0.0 0.0 .
298(17) 0.0 0.0 .
306(17) 0.0 0.0 .
309(18) 0.0 0.0 .
303(17) 0.0 0.0 .
306(17) 0.0 0.0 .
538(23) 0.0 0.0 .
616(25) 0.0 0.0 .
706(27) 0.0 0.0 .
656(26) 0.0 0.0 .
717(27) 0.0 0.0 .
536(23) 0.0 0.0 .
347(19) 0.0 0.0 .
468(22) 0.0 0.0 .
403(20) 0.0 0.0 .
349(19) 0.0 0.0 .
319(18) 0.0 0.0 .
297(17) 0.0 0.0 .
286(17) 0.0 0.0 .
291(17) 0.003436 270.4 15.3
270(16) 0.00370 270.7 15.4
307(18) 0.003257 271.1 15.5
280(17) 0.00357 271.4 15.6
265(16) 0.00377 271.8 15.8
291(17) 0.003436 272.1 16.0
288(17) 0.003472 272.4 16.1
266(16) 0.00376 272.8 16.3
260(16) 0.00385 273.0 16.5
266(16) 0.00376 273.1 16.8
262(16) 0.00382 273.2 17.0
286(17) 0.003497 273.2 17.3
275(17) 0.00364 273.3 17.6
281(17) 0.00356 273.4 17.9
298(17) 0.003356 273.5 18.2
298(17) 0.003356 273.6 18.6
261(16) 0.00383 273.6 19.0
290(17) 0.003448 273.7 19.5
289(17) 0.003460 273.8 19.9
268(16) 0.00373 273.9 20.5
286(17) 0.003497 274.0 21.0
296(17) 0.003378 274.0 21.6
290(17) 0.003448 274.1 22.3
292(17) 0.003425 274.2 23.0
299(17) 0.003344 274.3 23.8
297(17) 0.003367 274.4 24.6
274(17) 0.00365 274.4 25.5
301(17) 0.003322 274.5 26.5
285(17) 0.00351 274.6 27.6
294(17) 0.003401 274.7 28.8
292(17) 0.003425 274.8 30.2
329(18) 0.003039 274.8 31.7
301(17) 0.003322 274.9 33.3
314(18) 0.003185 275.0 35.2
330(18) 0.003030 275.1 37.3
343(19) 0.002915 275.2 39.6
323(18) 0.003096 275.2 42.3
310(18) 0.003226 275.3 45.3
331(18) 0.003021 275.4 48.7
366(19) 0.002732 275.5 52.6
347(19) 0.002882 275.6 57.0
335(18) 0.002985 275.6 62.1
330(18) 0.003030 275.7 67.9
360(19) 0.002778 275.8 74.4
368(19) 0.002717 275.9 81.9
397(20) 0.002519 275.9 90.3
363(19) 0.002755 276.0 99.8
395(20) 0.002532 276.1 110.4
365(19) 0.002740 276.2 122.2
387(20) 0.002584 276.3 135.3
394(20) 0.002538 276.3 149.5
435(21) 0.002299 276.4 164.8
471(22) 0.002123 276.5 181.0
505(22) 0.001980 276.6 197.9
464(22) 0.002155 276.7 214.8
501(22) 0.001996 276.7 231.3
502(22) 0.001992 276.8 246.3
530(23) 0.001887 276.9 258.8
559(24) 0.001789 277.0 268.0
485(22) 0.002062 277.1 273.0
536(23) 0.001866 277.1 273.2
528(23) 0.001894 277.2 268.6
517(23) 0.001934 277.3 259.7
534(23) 0.001873 277.4 247.3
503(22) 0.001988 277.5 232.4
493(22) 0.002028 277.5 216.0
473(22) 0.002114 277.6 199.0
500(22) 0.002000 277.7 182.1
438(21) 0.002283 277.8 165.7
439(21) 0.002278 277.9 150.2
436(21) 0.002294 277.9 135.8
406(20) 0.002463 278.0 122.5
416(20) 0.002404 278.1 110.5
396(20) 0.002525 278.2 99.7
360(19) 0.002778 278.3 90.0
377(19) 0.002653 278.3 81.4
355(19) 0.002817 278.4 73.7
381(20) 0.002625 278.5 67.0
396(20) 0.002525 278.6 61.1
338(18) 0.002959 278.7 55.9
347(19) 0.002882 278.7 51.3
325(18) 0.003077 278.8 47.2
366(19) 0.002732 278.9 43.7
332(18) 0.003012 279.0 40.6
373(19) 0.002681 279.1 37.8
353(19) 0.002833 279.1 35.3
334(18) 0.002994 279.2 33.1
393(20) 0.002545 279.3 31.2
324(18) 0.003086 279.4 29.4
323(18) 0.003096 279.5 27.8
359(19) 0.002786 279.5 26.4
345(19) 0.002899 279.6 25.0
362(19) 0.002762 279.7 23.8
337(18) 0.002967 279.8 22.7
366(19) 0.002732 279.9 21.7
357(19) 0.002801 279.9 20.8
389(20) 0.002571 280.0 19.9
356(19) 0.002809 280.1 19.1
371(19) 0.002695 280.2 18.3
351(19) 0.002849 280.3 17.6
334(18) 0.002994 280.3 16.9
378(19) 0.002646 280.4 16.3
364(19) 0.002747 280.5 15.7
322(18) 0.003106 280.6 15.2
354(19) 0.002825 280.7 14.7
350(19) 0.002857 280.7 14.2
354(19) 0.002825 280.8 13.8
377(19) 0.002653 280.9 13.3
394(20) 0.002538 281.0 12.9
406(20) 0.002463 281.1 12.5
396(20) 0.002525 281.1 12.2
362(19) 0.002762 281.2 11.8
343(19) 0.002915 281.3 11.5
375(19) 0.002667 281.4 11.2
383(20) 0.002611 281.4 10.9
388(20) 0.002577 281.5 10.6
389(20) 0.002571 281.6 10.4
396(20) 0.002525 281.7 10.1
415(20) 0.002410 281.8 9.9
409(20) 0.002445 281.8 9.6
454(21) 0.002203 281.9 9.4
459(21) 0.002179 282.0 9.2
481(22) 0.002079 282.1 9.0
463(22) 0.002160 282.2 8.8
471(22) 0.002123 282.2 8.6
428(21) 0.002336 282.3 8.4
481(22) 0.002079 282.4 8.3
438(21) 0.002283 282.5 8.1
424(21) 0.002358 282.6 7.9
429(21) 0.002331 282.6 7.8
416(20) 0.002404 282.7 7.6
418(20) 0.002392 282.8 7.5
428(21) 0.002336 282.9 7.4
459(21) 0.002179 283.0 7.2
455(21) 0.002198 283.0 7.1
451(21) 0.002217 283.1 7.0
454(21) 0.002203 283.2 6.9
455(21) 0.002198 283.3 6.7
408(20) 0.002451 283.4 6.6
456(21) 0.002193 283.4 6.5
446(21) 0.002242 283.5 6.4
493(22) 0.002028 283.6 6.3
425(21) 0.002353 283.7 6.2
449(21) 0.002227 283.8 6.1
464(22) 0.002155 283.8 6.0
482(22) 0.002075 283.9 5.9
477(22) 0.002096 284.0 5.9
435(21) 0.002299 284.1 5.8
439(21) 0.002278 284.2 5.7
436(21) 0.002294 284.2 5.6
458(21) 0.002183 284.3 5.5
428(21) 0.002336 284.4 5.5
409(20) 0.002445 284.5 5.4
439(21) 0.002278 284.6 5.3
454(21) 0.002203 284.6 5.3
500(22) 0.002000 284.7 5.2
454(21) 0.002203 284.8 5.1
449(21) 0.002227 284.9 5.1
434(21) 0.002304 285.0 5.0
447(21) 0.002237 285.0 4.9
439(21) 0.002278 285.1 4.9
489(22) 0.002045 285.2 4.8
491(22) 0.002037 285.3 4.8
503(22) 0.001988 285.4 4.7
522(23) 0.001916 285.4 4.7
561(24) 0.001783 285.5 4.6
615(25) 0.001626 285.6 4.6
566(24) 0.001767 285.7 4.5
593(24) 0.001686 285.8 4.5
551(23) 0.001815 285.8 4.4
531(23) 0.001883 285.9 4.4
514(23) 0.001946 286.0 4.3
537(23) 0.001862 286.1 4.3
470(22) 0.002128 286.2 4.2
474(22) 0.002110 286.2 4.2
407(20) 0.002457 286.3 4.1
428(21) 0.002336 286.4 4.1
444(21) 0.002252 286.5 4.1
421(21) 0.002375 286.6 4.0
381(20) 0.002625 286.6 4.0
382(20) 0.002618 286.7 3.9
399(20) 0.002506 286.8 3.9
399(20) 0.002506 286.9 3.9
358(19) 0.002793 286.9 3.8
344(19) 0.002907 287.0 3.8
346(19) 0.002890 287.1 3.8
404(20) 0.002475 287.2 3.7
342(18) 0.002924 287.3 3.7
366(19) 0.002732 287.3 3.7
324(18) 0.003086 287.4 3.6
347(19) 0.002882 287.5 3.6
320(18) 0.003125 287.6 3.6
314(18) 0.003185 287.7 3.5
300(17) 0.003333 287.7 3.5
377(19) 0.002653 287.8 3.5
361(19) 0.002770 287.9 3.5
358(19) 0.002793 288.0 3.4
322(18) 0.003106 288.1 3.4
317(18) 0.003155 288.1 3.4
344(19) 0.002907 288.2 3.4
301(17) 0.003322 288.3 3.3
355(19) 0.002817 288.4 3.3
355(19) 0.002817 288.5 3.3
350(19) 0.002857 288.5 3.3
326(18) 0.003067 288.6 3.2
306(17) 0.003268 288.7 3.2
322(18) 0.003106 288.8 3.2
335(18) 0.002985 288.9 3.2
313(18) 0.003195 288.9 3.1
295(17) 0.003390 289.0 3.1
307(18) 0.003257 289.1 3.1
317(18) 0.003155 289.2 3.1
305(17) 0.003279 289.3 3.0
304(17) 0.003289 289.3 3.0
355(19) 0.002817 289.4 3.0
316(18) 0.003165 289.5 3.0
335(18) 0.002985 289.6 3.0
308(18) 0.003247 289.7 2.9
296(17) 0.003378 289.7 2.9
342(18) 0.002924 289.8 2.9
309(18) 0.003236 289.9 2.9
297(17) 0.003367 290.0 2.9
318(18) 0.003145 290.1 2.9
285(17) 0.00351 290.1 2.8
313(18) 0.003195 290.2 2.8
305(17) 0.003279 290.3 2.8
309(18) 0.003236 290.4 2.8
302(17) 0.003311 290.5 2.8
296(17) 0.003378 290.5 2.8
334(18) 0.002994 290.6 2.7
314(18) 0.003185 290.7 2.7
333(18) 0.003003 290.8 2.7
318(18) 0.003145 290.9 2.7
280(17) 0.00357 290.9 2.7
277(17) 0.00361 291.0 2.7
322(18) 0.003106 291.1 2.6
309(18) 0.003236 291.2 2.6
307(18) 0.003257 291.3 2.6
320(18) 0.003125 291.3 2.6
317(18) 0.003155 291.4 2.6
285(17) 0.00351 291.5 2.6
295(17) 0.003390 291.6 2.6
357(19) 0.002801 291.7 2.5
301(17) 0.003322 291.7 2.5
286(17) 0.003497 291.8 2.5
297(17) 0.003367 291.9 2.5
309(18) 0.003236 292.0 2.5
294(17) 0.003401 292.1 2.5
275(17) 0.00364 292.1 2.5
313(18) 0.003195 292.2 2.5
302(17) 0.003311 292.3 2.5
305(17) 0.003279 292.4 2.4
313(18) 0.003195 292.5 2.4
311(18) 0.003215 292.2 2.4
314(18) 0.003185 291.8 2.4
291(17) 0.003436 291.4 2.4
318(18) 0.003145 291.0 2.4
310(18) 0.003226 290.7 2.4
297(17) 0.003367 290.3 2.4
288(17) 0.003472 289.9 2.4
300(17) 0.003333 289.5 2.3
308(18) 0.003247 289.1 2.3
299(17) 0.003344 288.8 2.3
297(17) 0.003367 288.4 2.3
313(18) 0.003195 288.0 2.3
296(17) 0.003378 287.6 2.3
316(18) 0.003165 287.2 2.3
332(18) 0.003012 286.9 2.3
290(17) 0.003448 286.5 2.3
320(18) 0.003125 286.1 2.3
340(18) 0.002941 285.7 2.3
283(17) 0.00353 285.3 2.2
303(17) 0.003300 285.0 2.2
302(17) 0.003311 284.6 2.3
314(18) 0.003185 284.2 2.3
296(17) 0.003378 283.8 2.3
310(18) 0.003226 283.4 2.3
298(17) 0.003356 283.1 2.3
308(18) 0.003247 282.7 2.3
287(17) 0.003484 282.3 2.3
322(18) 0.003106 281.9 2.3
294(17) 0.003401 281.5 2.3
285(17) 0.00351 281.1 2.3
300(17) 0.003333 280.8 2.3
258(16) 0.00388 280.4 2.3
297(17) 0.003367 280.0 2.3
283(17) 0.00353 279.6 2.3
266(16) 0.00376 279.2 2.3
297(17) 0.003367 278.9 2.3
310(18) 0.003226 278.5 2.3
313(18) 0.003195 278.1 2.3
313(18) 0.003195 277.7 2.3
304(17) 0.003289 277.3 2.2
287(17) 0.003484 277.0 2.2
293(17) 0.003413 276.6 2.2
261(16) 0.00383 276.2 2.2
300(17) 0.003333 275.8 2.2
296(17) 0.003378 275.4 2.2
307(18) 0.003257 275.1 2.2
302(17) 0.003311 274.7 4.1
309(18) 0.003236 274.3 4.2
274(17) 0.00365 273.9 4.2
289(17) 0.003460 273.5 4.2
301(17) 0.003322 273.2 4.2
307(18) 0.003257 272.8 4.2
288(17) 0.003472 272.4 4.2
297(17) 0.003367 272.0 4.2
307(18) 0.003257 271.6 4.2
306(17) 0.003268 271.3 4.2
265(16) 0.00377 270.9 4.2
273(17) 0.00366 270.5 4.3
304(17) 0.003289 270.1 5.0
296(17) 0.003378 269.7 5.0
257(16) 0.00389 269.3 5.0
290(17) 0.003448 269.0 5.0
286(17) 0.003497 268.6 5.1
307(18) 0.003257 268.2 5.1
267(16) 0.00375 267.8 5.1
280(17) 0.00357 267.4 5.1
315(18) 0.003175 267.1 5.4
310(18) 0.003226 266.7 5.4
272(16) 0.00368 266.3 5.5
297(17) 0.003367 265.9 5.5
286(17) 0.003497 265.5 5.5
299(17) 0.003344 265.2 5.5
288(17) 0.003472 264.8 5.6
276(17) 0.00362 264.4 5.6
294(17) 0.003401 264.0 5.6
275(17) 0.00364 263.6 5.7
284(17) 0.00352 263.3 5.7
268(16) 0.00373 262.9 5.7
282(17) 0.00355 262.5 5.8
292(17) 0.003425 262.1 5.8
292(17) 0.003425 261.7 5.8
268(16) 0.00373 261.4 5.9
288(17) 0.003472 261.0 5.9
289(17) 0.003460 260.6 5.9
268(16) 0.00373 260.2 6.0
299(17) 0.003344 259.8 8.1
294(17) 0.003401 259.5 8.2
270(16) 0.00370 259.1 8.3
289(17) 0.003460 258.7 8.3
278(17) 0.00360 258.3 8.4
274(17) 0.00365 257.9 8.5
259(16) 0.00386 257.6 8.5
275(17) 0.00364 257.4 8.6
301(17) 0.003322 257.5 8.7
279(17) 0.00358 257.6 8.7
281(17) 0.00356 257.7 8.8
287(17) 0.003484 257.8 8.9
262(16) 0.00382 257.9 9.0
287(17) 0.003484 257.9 9.1
300(17) 0.003333 258.0 9.1
288(17) 0.003472 258.1 9.2
278(17) 0.00360 258.2 9.3
244(16) 0.00410 258.3 9.4
282(17) 0.00355 258.4 9.5
269(16) 0.00372 258.5 9.6
280(17) 0.00357 258.6 9.7
280(17) 0.00357 258.7 9.8
262(16) 0.00382 258.8 9.9
269(16) 0.00372 258.8 10.0
262(16) 0.00382 258.9 10.1
266(16) 0.00376 259.0 10.2
258(16) 0.00388 259.1 10.3
244(16) 0.00410 259.2 10.4
301(17) 0.003322 259.3 10.5
311(18) 0.003215 259.4 10.6
301(17) 0.003322 259.5 10.8
359(19) 0.002786 259.6 10.9
333(18) 0.003003 259.7 11.2
305(17) 0.003279 259.7 11.3
289(17) 0.003460 259.8 11.5
285(17) 0.00351 259.9 11.6
279(17) 0.00358 260.0 11.8
268(16) 0.00373 260.1 11.9
261(16) 0.00383 260.2 12.1
275(17) 0.00364 260.3 12.3
288(17) 0.003472 260.4 12.4
261(16) 0.00383 260.5 12.6
256(16) 0.00391 260.6 12.8
302(17) 0.003311 260.6 13.0
261(16) 0.00383 260.7 13.2
269(16) 0.00372 260.8 13.4
287(17) 0.003484 260.9 13.6
287(17) 0.003484 261.0 13.8
254(16) 0.00394 261.1 14.0
258(16) 0.00388 261.2 14.3
255(16) 0.00392 261.3 14.5
286(17) 0.003497 261.4 14.8
263(16) 0.00380 261.5 15.0
288(17) 0.003472 261.5 15.3
257(16) 0.00389 261.6 15.6
282(17) 0.00355 261.7 15.9
277(17) 0.00361 261.8 16.3
255(16) 0.00392 261.9 16.6
248(16) 0.00403 262.0 17.0
279(17) 0.00358 262.1 17.4
301(17) 0.003322 262.2 17.8
302(17) 0.003311 262.3 18.2
241(16) 0.00415 262.4 18.7
264(16) 0.00379 262.5 19.2
295(17) 0.003390 262.5 19.7
324(18) 0.003086 262.6 20.3
286(17) 0.003497 262.7 20.9
303(17) 0.003300 262.8 21.6
283(17) 0.00353 262.9 22.4
292(17) 0.003425 263.0 23.2
296(17) 0.003378 263.1 24.1
292(17) 0.003425 263.2 25.1
308(18) 0.003247 263.3 26.2
316(18) 0.003165 263.4 27.5
286(17) 0.003497 263.4 28.8
300(17) 0.003333 263.5 30.3
290(17) 0.003448 263.6 31.9
285(17) 0.00351 263.7 33.6
299(17) 0.003344 263.8 35.6
302(17) 0.003311 263.9 37.7
318(18) 0.003145 264.0 40.0
310(18) 0.003226 264.1 42.5
282(17) 0.00355 264.2 45.3
287(17) 0.003484 264.3 48.2
320(18) 0.003125 264.3 51.3
323(18) 0.003096 264.4 54.6
324(18) 0.003086 264.5 58.1
314(18) 0.003185 264.6 61.6
333(18) 0.003003 264.7 65.1
347(19) 0.002882 264.8 68.6
330(18) 0.003030 264.9 71.9
322(18) 0.003106 265.0 74.8
343(19) 0.002915 265.1 77.3
329(18) 0.003039 265.2 79.2
353(19) 0.002833 265.2 80.4
335(18) 0.002985 265.3 80.8
326(18) 0.003067 265.4 80.4
348(19) 0.002874 265.5 79.4
317(18) 0.003155 265.6 77.7
317(18) 0.003155 265.7 75.5
339(18) 0.002950 265.8 73.0
350(19) 0.002857 265.9 70.3
335(18) 0.002985 266.0 67.5
319(18) 0.003135 266.1 64.7
308(18) 0.003247 266.1 62.0
337(18) 0.002967 266.2 59.5
328(18) 0.003049 266.3 57.1
329(18) 0.003039 266.4 54.9
286(17) 0.003497 266.5 53.0
315(18) 0.003175 266.6 51.2
327(18) 0.003058 266.7 49.7
312(18) 0.003205 266.8 48.4
338(18) 0.002959 266.9 47.3
339(18) 0.002950 267.0 46.4
340(18) 0.002941 267.0 45.7
362(19) 0.002762 267.1 45.2
359(19) 0.002786 267.2 44.8
347(19) 0.002882 267.3 44.6
356(19) 0.002809 267.4 44.5
364(19) 0.002747 267.5 44.6
335(18) 0.002985 267.6 44.8
334(18) 0.002994 267.7 45.1
329(18) 0.003039 267.8 45.6
293(17) 0.003413 267.9 46.1
319(18) 0.003135 267.9 46.8
314(18) 0.003185 268.0 47.6
368(19) 0.002717 268.1 48.4
294(17) 0.003401 268.2 49.4
323(18) 0.003096 268.3 50.5
307(18) 0.003257 268.4 51.7
333(18) 0.003003 268.5 53.0
340(18) 0.002941 268.6 54.4
338(18) 0.002959 268.7 55.9
297(17) 0.003367 268.8 57.6
325(18) 0.003077 268.8 59.4
319(18) 0.003135 268.9 61.4
292(17) 0.003425 269.0 63.5
340(18) 0.002941 269.1 65.8
321(18) 0.003115 269.2 68.3
300(17) 0.003333 269.3 70.9
331(18) 0.003021 269.4 73.9
333(18) 0.003003 269.5 77.0
336(18) 0.002976 269.6 80.4
335(18) 0.002985 269.7 84.2
364(19) 0.002747 269.7 88.2
371(19) 0.002695 269.8 92.7
369(19) 0.002710 269.9 97.6
379(19) 0.002639 270.0 102.9
346(19) 0.002890 270.1 108.8
340(18) 0.002941 270.2 115.4
373(19) 0.002681 270.3 122.6
381(20) 0.002625 270.4 130.6
401(20) 0.002494 270.5 139.6
439(21) 0.002278 270.6 149.7
355(19) 0.002817 270.6 161.1
407(20) 0.002457 270.7 174.0
417(20) 0.002398 270.8 188.7
434(21) 0.002304 270.9 205.6
476(22) 0.002101 271.0 225.0
448(21) 0.002232 271.1 247.6
491(22) 0.002037 271.2 274.1
506(22) 0.001976 271.3 305.4
580(24) 0.001724 271.4 342.8
565(24) 0.001770 271.5 387.9
622(25) 0.001608 271.6 443.1
650(25) 0.001538 271.6 511.9
750(27) 0.001333 271.7 599.5
868(29) 0.001152 271.8 713.9
1052(32) 0.000951 271.9 866.8
1149(34) 0.000870 272.0 1075.8
1358(37) 0.000736 272. 1365.
1733(42) 0.000577 272. 1763.
2168(47) 0.000461 272. 2303.
2915(54) 0.0003431 272. 3002.
3826(62) 0.0002614 272. 3831.
4849(70) 0.0002062 273. 4639.
5436(74) 0.0001840 273. 5113.
5254(72) 0.0001903 273. 4982.
4328(66) 0.0002311 273. 4334.
3438(59) 0.0002909 273. 3501.
2661(52) 0.000376 273. 2730.
2296(48) 0.000436 273. 2115.
1861(43) 0.000537 273. 1656.
1671(41) 0.000598 273. 1326.
1507(39) 0.000664 273. 1096.
1276(36) 0.000784 273. 937.
1159(34) 0.000863 273.5 831.3
1100(33) 0.000909 273.6 764.6
1065(33) 0.000939 273.7 729.5
1066(33) 0.000938 273.8 722.9
1049(32) 0.000953 273.9 745.5
1091(33) 0.000917 274.0 800.9
1143(34) 0.000875 274.1 895.5
1260(35) 0.000794 274. 1037.
1395(37) 0.000717 274. 1233.
1476(38) 0.000678 274. 1487.
1716(41) 0.000583 274. 1786.
2023(45) 0.000494 275. 2083.
2336(48) 0.000428 275. 2287.
2367(49) 0.000422 275. 2302.
2339(48) 0.000428 275. 2115.
2129(46) 0.000470 275. 1809.
1712(41) 0.000584 275. 1481.
1396(37) 0.000716 275. 1189.
1149(34) 0.000870 275.2 950.2
1012(32) 0.000988 275.2 764.3
866(29) 0.001155 275.3 623.0
758(28) 0.001319 275.4 516.1
653(26) 0.001531 275.5 436.1
580(24) 0.001724 275.6 375.3
594(24) 0.001684 275.7 328.2
544(23) 0.001838 275.8 291.1
504(22) 0.001984 275.9 261.2
477(22) 0.002096 276.0 236.8
505(22) 0.001980 276.1 216.4
423(21) 0.002364 276.1 199.3
404(20) 0.002475 276.2 184.8
448(21) 0.002232 276.3 172.4
425(21) 0.002353 276.4 161.7
403(20) 0.002481 276.5 152.5
400(20) 0.002500 276.6 144.5
398(20) 0.002513 276.7 137.5
417(20) 0.002398 276.8 131.4
402(20) 0.002488 276.9 126.1
420(20) 0.002381 277.0 121.4
382(20) 0.002618 277.0 117.3
374(19) 0.002674 277.1 113.8
366(19) 0.002732 277.2 110.6
372(19) 0.002688 277.3 108.0
367(19) 0.002725 277.4 105.6
386(20) 0.002591 277.5 103.7
332(18) 0.003012 277.6 102.1
387(20) 0.002584 277.7 100.8
357(19) 0.002801 277.8 99.8
366(19) 0.002732 277.9 99.2
358(19) 0.002793 277.9 98.9
326(18) 0.003067 278.0 99.0
352(19) 0.002841 278.1 99.5
349(19) 0.002865 278.2 100.4
318(18) 0.003145 278.3 101.8
344(19) 0.002907 278.4 103.5
343(19) 0.002915 278.5 105.1
345(19) 0.002899 278.6 106.4
379(19) 0.002639 278.7 106.9
356(19) 0.002809 278.8 106.6
348(19) 0.002874 278.8 106.0
366(19) 0.002732 278.9 105.5
359(19) 0.002786 279.0 105.3
334(18) 0.002994 279.1 105.5
363(19) 0.002755 279.2 106.2
372(19) 0.002688 279.3 107.2
361(19) 0.002770 279.4 108.6
375(19) 0.002667 279.5 110.3
357(19) 0.002801 279.6 112.3
381(20) 0.002625 279.7 114.5
338(18) 0.002959 279.7 117.1
338(18) 0.002959 279.8 119.9
395(20) 0.002532 279.9 123.0
383(20) 0.002611 280.0 126.3
362(19) 0.002762 280.1 130.0
395(20) 0.002532 280.2 134.0
397(20) 0.002519 280.3 138.3
372(19) 0.002688 280.4 142.9
396(20) 0.002525 280.5 148.0
414(20) 0.002415 280.6 153.4
438(21) 0.002283 280.7 159.3
407(20) 0.002457 280.7 165.7
448(21) 0.002232 280.8 172.6
446(21) 0.002242 280.9 180.1
441(21) 0.002268 281.0 188.3
475(22) 0.002105 281.1 197.1
462(21) 0.002164 281.2 206.7
468(22) 0.002137 281.3 217.2
480(22) 0.002083 281.4 228.7
530(23) 0.001887 281.5 241.2
500(22) 0.002000 281.6 255.0
511(23) 0.001957 281.6 270.0
538(23) 0.001859 281.7 286.7
564(24) 0.001773 281.8 305.0
538(23) 0.001859 281.9 325.4
628(25) 0.001592 282.0 348.0
645(25) 0.001550 282.1 373.2
677(26) 0.001477 282.2 401.4
691(26) 0.001447 282.3 433.2
715(27) 0.001399 282.4 469.1
871(30) 0.001148 282.5 510.1
879(30) 0.001138 282.5 557.2
934(31) 0.001071 282.6 611.6
985(31) 0.001015 282.7 675.2
1078(33) 0.000928 282.8 750.2
1128(34) 0.000887 282.9 839.4
1245(35) 0.000803 283. 946.
1445(38) 0.000692 283. 1075.
1586(40) 0.000631 283. 1231.
1817(43) 0.000550 283. 1419.
2032(45) 0.000492 283. 1646.
2256(47) 0.000443 283. 1918.
2622(51) 0.000381 284. 2242.
2978(55) 0.0003358 284. 2621.
3524(59) 0.0002838 284. 3058.
4189(65) 0.0002387 284. 3550.
4843(70) 0.0002065 284. 4081.
5463(74) 0.0001830 284. 4624.
6274(79) 0.0001594 284. 5129.
6599(81) 0.0001515 284. 5529.
6663(82) 0.0001501 284. 5753.
6433(80) 0.0001554 284. 5754.
6002(77) 0.0001666 284. 5532.
5369(73) 0.0001863 285. 5134.
4734(69) 0.0002112 285. 4630.
4196(65) 0.0002383 285. 4088.
3803(62) 0.0002630 285. 3558.
3256(57) 0.0003071 285. 3067.
2915(54) 0.0003431 285. 2631.
2613(51) 0.000383 285. 2253.
2348(48) 0.000426 285. 1931.
2188(47) 0.000457 285. 1660.
1935(44) 0.000517 285. 1435.
1756(42) 0.000569 285. 1248.
1654(41) 0.000605 286. 1094.
1536(39) 0.000651 286. 967.
1423(38) 0.000703 286. 862.
1291(36) 0.000775 286. 774.
1236(35) 0.000809 286. 702.
1169(34) 0.000855 286.0 640.6
1084(33) 0.000923 286.1 588.9
1005(32) 0.000995 286.1 545.0
985(31) 0.001015 286.2 507.9
911(30) 0.001098 286.3 475.8
877(30) 0.001140 286.4 448.5
842(29) 0.001188 286.5 425.2
774(28) 0.001292 286.6 405.7
764(28) 0.001309 286.7 389.5
746(27) 0.001340 286.8 376.6
710(27) 0.001408 286.9 366.8
674(26) 0.001484 287.0 359.8
722(27) 0.001385 287.0 355.8
672(26) 0.001488 287.1 354.6
677(26) 0.001477 287.2 356.2
671(26) 0.001490 287.3 360.6
675(26) 0.001481 287.4 367.6
675(26) 0.001481 287.5 377.1
673(26) 0.001486 287.6 388.8
635(25) 0.001575 287.7 402.1
698(26) 0.001433 287.8 416.4
696(26) 0.001437 287.9 430.5
658(26) 0.001520 287.9 443.0
708(27) 0.001412 288.0 452.4
720(27) 0.001389 288.1 457.1
718(27) 0.001393 288.2 456.2
726(27) 0.001377 288.3 449.5
713(27) 0.001403 288.4 437.3
681(26) 0.001468 288.5 421.1
602(25) 0.001661 288.6 402.3
597(24) 0.001675 288.7 382.4
587(24) 0.001704 288.8 362.8
575(24) 0.001739 288.8 344.4
573(24) 0.001745 288.9 327.8
564(24) 0.001773 289.0 313.7
587(24) 0.001704 289.1 302.2
605(25) 0.001653 289.2 293.6
575(24) 0.001739 289.3 288.0
567(24) 0.001764 289.4 285.8
576(24) 0.001736 289.5 287.0
599(24) 0.001669 289.6 292.0
610(25) 0.001639 289.7 301.0
633(25) 0.001580 289.8 314.6
630(25) 0.001587 289.8 332.9
638(25) 0.001567 289.9 356.5
623(25) 0.001605 290.0 385.6
664(26) 0.001506 290.1 420.5
732(27) 0.001366 290.2 461.0
803(28) 0.001245 290.3 506.4
813(29) 0.001230 290.4 555.0
875(30) 0.001143 290.5 603.8
891(30) 0.001122 290.6 648.6
929(30) 0.001076 290.7 683.9
979(31) 0.001021 290.7 705.3
1006(32) 0.000994 290.8 710.6
1071(33) 0.000934 290.9 701.6
1060(33) 0.000943 291.0 682.8
1062(33) 0.000942 291.1 660.0
1044(32) 0.000958 291.2 638.6
1017(32) 0.000983 291.3 622.3
972(31) 0.001029 291.4 613.6
965(31) 0.001036 291.5 613.6
985(31) 0.001015 291.6 622.6
987(31) 0.001013 291.6 640.5
981(31) 0.001019 291.7 666.2
997(32) 0.001003 291.8 698.2
1141(34) 0.000876 291.9 734.3
1196(35) 0.000836 292.0 771.0
1196(35) 0.000836 292.1 804.3
1224(35) 0.000817 292.2 829.7
1256(35) 0.000796 292. 843.
1200(35) 0.000833 292.4 840.9
1184(34) 0.000845 292.5 822.9
1179(34) 0.000848 292.5 790.5
1108(33) 0.000903 292.6 746.8
987(31) 0.001013 292.7 696.0
996(32) 0.001004 292.8 641.8
885(30) 0.001130 292.9 587.5
882(30) 0.001134 293.0 535.3
822(29) 0.001217 293.1 486.6
795(28) 0.001258 293.2 442.1
757(28) 0.001321 293.3 401.9
689(26) 0.001451 293.4 366.0
674(26) 0.001484 293.4 334.0
664(26) 0.001506 293.5 305.5
641(25) 0.001560 293.6 280.2
598(24) 0.001672 293.7 257.5
564(24) 0.001773 293.8 237.1
599(24) 0.001669 293.9 218.9
580(24) 0.001724 294.0 202.5
548(23) 0.001825 294.1 187.8
546(23) 0.001832 294.2 174.7
509(23) 0.001965 294.3 163.1
493(22) 0.002028 294.3 152.7
453(21) 0.002208 294.4 143.4
434(21) 0.002304 294.5 135.2
431(21) 0.002320 294.6 127.8
443(21) 0.002257 294.7 121.5
465(22) 0.002151 294.8 115.7
377(19) 0.002653 294.9 110.6
426(21) 0.002347 295.0 106.1
403(20) 0.002481 295.1 102.1
408(20) 0.002451 295.2 98.6
432(21) 0.002315 295.2 95.6
388(20) 0.002577 295.3 92.9
392(20) 0.002551 295.4 90.7
373(19) 0.002681 295.5 88.8
405(20) 0.002469 295.6 87.3
394(20) 0.002538 295.7 86.0
378(19) 0.002646 295.8 85.2
357(19) 0.002801 295.9 84.6
364(19) 0.002747 296.0 84.3
356(19) 0.002809 296.1 84.4
373(19) 0.002681 296.1 84.8
385(20) 0.002597 296.2 85.5
359(19) 0.002786 296.3 86.7
357(19) 0.002801 296.4 88.2
368(19) 0.002717 296.5 90.2
357(19) 0.002801 296.6 92.8
369(19) 0.002710 296.7 96.0
372(19) 0.002688 296.8 100.0
390(20) 0.002564 296.9 104.9
396(20) 0.002525 297.0 111.1
433(21) 0.002309 297.0 118.8
411(20) 0.002433 297.1 128.7
454(21) 0.002203 297.2 141.5
458(21) 0.002183 297.3 158.5
452(21) 0.002212 297.4 181.8
555(24) 0.001802 297.5 215.0
594(24) 0.001684 297.6 264.1
741(27) 0.001350 297.7 338.4
872(30) 0.001147 297.8 451.1
1134(34) 0.000882 297.9 615.9
1256(35) 0.000796 298. 836.
1474(38) 0.000678 298. 1069.
1618(40) 0.000618 298. 1184.
1495(39) 0.000669 298. 1081.
1229(35) 0.000814 298.3 849.9
978(31) 0.001022 298.4 623.5
770(28) 0.001299 298.5 451.6
658(26) 0.001520 298.6 333.0
548(23) 0.001825 298.7 253.8
480(22) 0.002083 298.8 200.9
447(21) 0.002237 298.9 164.7
427(21) 0.002342 298.9 138.8
391(20) 0.002558 299.0 119.5
412(20) 0.002427 299.1 104.7
382(20) 0.002618 299.2 92.9
370(19) 0.002703 299.3 83.5
361(19) 0.002770 299.4 75.7
365(19) 0.002740 299.5 69.3
331(18) 0.003021 299.6 63.9
334(18) 0.002994 299.7 59.2
337(18) 0.002967 299.8 55.2
324(18) 0.003086 299.8 51.8
322(18) 0.003106 299.9 48.7
322(18) 0.003106 300.0 46.0
311(18) 0.003215 300.1 43.6
302(17) 0.003311 300.2 41.5
312(18) 0.003205 300.2 39.6
338(18) 0.002959 300.0 37.9
349(19) 0.002865 299.8 36.3
310(18) 0.003226 299.6 34.9
336(18) 0.002976 299.4 33.6
311(18) 0.003215 299.2 32.4
339(18) 0.002950 299.0 31.3
343(19) 0.002915 298.8 30.2
324(18) 0.003086 298.5 29.3
329(18) 0.003039 298.3 28.4
316(18) 0.003165 298.1 27.6
329(18) 0.003039 297.9 26.9
278(17) 0.00360 297.7 26.1
307(18) 0.003257 297.5 25.5
322(18) 0.003106 297.3 24.9
320(18) 0.003125 297.1 24.3
324(18) 0.003086 296.9 23.7
332(18) 0.003012 296.7 23.2
371(19) 0.002695 296.4 22.7
356(19) 0.002809 296.2 22.3
359(19) 0.002786 296.0 21.8
325(18) 0.003077 295.8 21.4
347(19) 0.002882 295.6 21.0
343(19) 0.002915 295.4 20.6
326(18) 0.003067 295.2 20.3
299(17) 0.003344 295.0 19.9
328(18) 0.003049 294.8 19.6
361(19) 0.002770 294.6 19.3
307(18) 0.003257 294.4 19.0
300(17) 0.003333 294.1 18.7
277(17) 0.00361 293.9 18.4
339(18) 0.002950 293.7 18.2
323(18) 0.003096 293.5 17.9
282(17) 0.00355 293.3 17.7
305(17) 0.003279 293.1 17.5
303(17) 0.003300 292.9 17.3
339(18) 0.002950 292.7 17.1
308(18) 0.003247 292.5 16.9
320(18) 0.003125 292.3 16.7
311(18) 0.003215 292.0 16.5
334(18) 0.002994 291.8 16.4
326(18) 0.003067 291.6 16.2
326(18) 0.003067 291.4 16.1
288(17) 0.003472 291.2 15.9
294(17) 0.003401 291.0 15.8
287(17) 0.003484 290.8 15.7
299(17) 0.003344 290.6 15.6
320(18) 0.003125 290.4 15.5
298(17) 0.003356 290.2 15.4
309(18) 0.003236 290.0 15.3
278(17) 0.00360 289.7 15.2
322(18) 0.003106 289.5 15.2
327(18) 0.003058 289.3 15.1
310(18) 0.003226 289.1 15.1
327(18) 0.003058 288.9 15.1
300(17) 0.003333 288.7 15.1
308(18) 0.003247 288.5 15.1
305(17) 0.003279 288.3 15.1
295(17) 0.003390 288.1 15.2
311(18) 0.003215 287.9 15.3
312(18) 0.003205 287.6 15.4
313(18) 0.003195 287.4 15.5
287(17) 0.003484 287.2 15.6
292(17) 0.003425 287.0 15.8
312(18) 0.003205 286.8 16.0
285(17) 0.00351 286.6 16.3
305(17) 0.003279 286.4 16.6
299(17) 0.003344 286.2 16.9
315(18) 0.003175 286.0 17.2
344(19) 0.002907 285.8 17.5
302(17) 0.003311 285.6 17.8
292(17) 0.003425 285.3 18.2
293(17) 0.003413 285.1 18.5
295(17) 0.003390 284.9 18.7
329(18) 0.003039 284.7 18.9
302(17) 0.003311 284.5 19.0
285(17) 0.00351 284.3 19.1
298(17) 0.003356 284.1 19.0
309(18) 0.003236 283.9 18.8
333(18) 0.003003 283.7 18.6
300(17) 0.003333 283.5 18.3
342(18) 0.002924 283.2 18.0
311(18) 0.003215 283.0 17.6
300(17) 0.003333 282.8 17.2
338(18) 0.002959 282.6 16.8
337(18) 0.002967 282.4 16.5
297(17) 0.003367 282.2 16.2
331(18) 0.003021 282.0 15.8
321(18) 0.003115 281.8 15.6
341(18) 0.002933 281.6 15.3
307(18) 0.003257 281.4 15.1
309(18) 0.003236 281.2 14.9
276(17) 0.00362 280.9 14.7
288(17) 0.003472 280.7 14.6
305(17) 0.003279 280.5 14.5
287(17) 0.003484 280.3 14.4
312(18) 0.003205 280.1 14.3
324(18) 0.003086 279.9 14.3
289(17) 0.003460 279.7 14.3
264(16) 0.00379 279.5 14.3
304(17) 0.003289 279.3 14.3
292(17) 0.003425 279.1 14.3
290(17) 0.003448 278.9 14.4
324(18) 0.003086 278.6 14.5
265(16) 0.00377 278.4 14.6
300(17) 0.003333 278.2 14.7
303(17) 0.003300 278.0 14.8
320(18) 0.003125 277.8 15.0
315(18) 0.003175 277.6 15.1
280(17) 0.00357 277.4 15.3
303(17) 0.003300 277.2 15.5
305(17) 0.003279 277.0 15.8
284(17) 0.00352 276.9 16.0
279(17) 0.00358 276.9 16.3
282(17) 0.00355 277.0 16.6
265(16) 0.00377 277.0 16.9
307(18) 0.003257 277.1 17.3
285(17) 0.00351 277.1 17.7
294(17) 0.003401 277.2 18.1
295(17) 0.003390 277.2 18.6
323(18) 0.003096 277.3 19.1
309(18) 0.003236 277.3 19.7
284(17) 0.00352 277.4 20.4
298(17) 0.003356 277.5 21.1
295(17) 0.003390 277.5 21.8
307(18) 0.003257 277.6 22.7
282(17) 0.00355 277.6 23.6
290(17) 0.003448 277.7 24.6
308(18) 0.003247 277.7 25.8
302(17) 0.003311 277.8 27.1
311(18) 0.003215 277.8 28.6
295(17) 0.003390 277.9 30.2
296(17) 0.003378 277.9 32.1
289(17) 0.003460 278.0 34.3
318(18) 0.003145 278.0 36.8
329(18) 0.003039 278.1 39.7
303(17) 0.003300 278.1 43.1
303(17) 0.003300 278.2 47.2
332(18) 0.003012 278.2 52.1
317(18) 0.003155 278.3 58.0
316(18) 0.003165 278.3 65.3
350(19) 0.002857 278.4 74.5
383(20) 0.002611 278.4 86.5
402(20) 0.002488 278.5 102.6
414(20) 0.002415 278.5 124.8
434(21) 0.002304 278.6 156.2
480(22) 0.002083 278.6 200.9
546(23) 0.001832 278.7 263.7
654(26) 0.001529 278.7 347.4
741(27) 0.001350 278.8 447.0
801(28) 0.001248 278.8 536.1
889(30) 0.001125 278.9 567.7
838(29) 0.001193 278.9 523.3
762(28) 0.001312 279.0 440.4
711(27) 0.001406 279.0 362.4
720(27) 0.001389 279.1 307.5
699(26) 0.001431 279.1 278.2
694(26) 0.001441 279.2 272.6
702(26) 0.001424 279.2 288.5
784(28) 0.001276 279.3 324.7
872(30) 0.001147 279.4 380.1
945(31) 0.001058 279.4 451.3
1080(33) 0.000926 279.5 528.7
1168(34) 0.000856 279.5 591.7
1174(34) 0.000852 279.6 613.1
1106(33) 0.000904 279.6 580.2
992(31) 0.001008 279.7 507.0
875(30) 0.001143 279.7 420.0
794(28) 0.001259 279.8 338.3
634(25) 0.001577 279.8 269.8
557(24) 0.001795 279.9 215.7
516(23) 0.001938 279.9 174.2
477(22) 0.002096 280.0 143.0
455(21) 0.002198 280.0 119.6
421(21) 0.002375 280.1 102.1
423(21) 0.002364 280.1 88.7
395(20) 0.002532 280.2 78.3
358(19) 0.002793 280.2 70.0
358(19) 0.002793 280.3 63.4
339(18) 0.002950 280.3 57.9
322(18) 0.003106 280.4 53.4
344(19) 0.002907 280.4 49.6
337(18) 0.002967 280.5 46.4
323(18) 0.003096 280.5 43.7
347(19) 0.002882 280.6 41.4
341(18) 0.002933 280.6 39.5
341(18) 0.002933 280.7 37.8
330(18) 0.003030 280.7 36.4
345(19) 0.002899 280.8 35.2
330(18) 0.003030 280.8 34.2
298(17) 0.003356 280.9 33.3
348(19) 0.002874 280.9 32.6
326(18) 0.003067 281.0 32.0
341(18) 0.002933 281.0 31.5
304(17) 0.003289 281.1 31.2
317(18) 0.003155 281.1 30.9
326(18) 0.003067 281.2 30.8
319(18) 0.003135 281.3 30.7
337(18) 0.002967 281.3 30.7
322(18) 0.003106 281.4 30.8
326(18) 0.003067 281.4 31.0
312(18) 0.003205 281.5 31.2
306(17) 0.003268 281.5 31.5
303(17) 0.003300 281.6 32.0
329(18) 0.003039 281.6 32.5
338(18) 0.002959 281.7 33.0
323(18) 0.003096 281.7 33.7
321(18) 0.003115 281.8 34.5
319(18) 0.003135 281.8 35.4
346(19) 0.002890 281.9 36.4
338(18) 0.002959 281.9 37.5
335(18) 0.002985 282.0 38.7
327(18) 0.003058 282.0 40.1
307(18) 0.003257 282.1 41.6
341(18) 0.002933 282.1 43.3
314(18) 0.003185 282.2 45.2
345(19) 0.002899 282.2 47.3
319(18) 0.003135 282.3 49.6
318(18) 0.003145 282.3 52.2
345(19) 0.002899 282.4 55.0
311(18) 0.003215 282.4 58.1
333(18) 0.003003 282.5 61.5
375(19) 0.002667 282.5 65.2
348(19) 0.002874 282.6 69.3
341(18) 0.002933 282.6 73.9
347(19) 0.002882 282.7 78.8
370(19) 0.002703 282.7 84.2
411(20) 0.002433 282.8 90.0
369(19) 0.002710 282.8 96.4
355(19) 0.002817 282.9 103.4
389(20) 0.002571 282.9 111.0
370(19) 0.002703 283.0 119.2
426(21) 0.002347 283.0 128.1
433(21) 0.002309 283.1 137.9
403(20) 0.002481 283.2 148.6
439(21) 0.002278 283.2 160.3
429(21) 0.002331 283.3 173.2
507(23) 0.001972 283.3 187.5
513(23) 0.001949 283.4 203.1
502(22) 0.001992 283.4 219.9
508(23) 0.001968 283.5 237.2
537(23) 0.001862 283.5 253.4
572(24) 0.001748 283.6 265.9
546(23) 0.001832 283.6 272.6
537(23) 0.001862 283.7 273.8
540(23) 0.001852 283.7 271.2
559(24) 0.001789 283.8 266.8
596(24) 0.001678 283.8 261.5
593(24) 0.001686 283.9 255.6
538(23) 0.001859 283.9 249.0
534(23) 0.001873 284.0 241.7
513(23) 0.001949 284.0 233.7
525(23) 0.001905 284.1 224.9
503(22) 0.001988 284.1 215.5
490(22) 0.002041 284.2 205.6
471(22) 0.002123 284.2 195.4
487(22) 0.002053 284.3 185.1
475(22) 0.002105 284.3 174.7
457(21) 0.002188 284.4 164.6
455(21) 0.002198 284.4 154.7
453(21) 0.002208 284.5 145.1
474(22) 0.002110 284.5 136.1
473(22) 0.002114 284.6 127.5
420(20) 0.002381 284.6 119.5
440(21) 0.002273 284.7 112.1
390(20) 0.002564 284.7 105.3
397(20) 0.002519 284.8 99.0
403(20) 0.002481 284.8 93.0
427(21) 0.002342 284.9 87.2
423(21) 0.002364 284.9 81.5
419(20) 0.002387 285.0 75.9
388(20) 0.002577 285.1 70.6
376(19) 0.002660 285.1 65.7
411(20) 0.002433 285.2 61.3
387(20) 0.002584 285.2 57.2
384(20) 0.002604 285.3 53.5
362(19) 0.002762 285.3 50.2
396(20) 0.002525 285.4 47.2
348(19) 0.002874 285.4 44.5
371(19) 0.002695 285.5 42.0
356(19) 0.002809 285.5 39.8
378(19) 0.002646 285.6 37.7
351(19) 0.002849 285.6 35.9
351(19) 0.002849 285.7 34.1
363(19) 0.002755 285.7 32.6
334(18) 0.002994 285.8 31.1
324(18) 0.003086 285.8 29.8
317(18) 0.003155 285.9 28.5
320(18) 0.003125 285.9 27.4
343(19) 0.002915 286.0 26.3
346(19) 0.002890 286.0 25.3
319(18) 0.003135 286.1 24.4
368(19) 0.002717 286.1 23.5
355(19) 0.002817 286.2 22.7
319(18) 0.003135 286.2 21.9
364(19) 0.002747 286.3 21.2
330(18) 0.003030 286.3 20.5
336(18) 0.002976 286.4 19.9
348(19) 0.002874 286.4 19.3
339(18) 0.002950 286.5 18.7
312(18) 0.003205 286.5 18.1
341(18) 0.002933 286.6 17.6
321(18) 0.003115 286.6 17.1
318(18) 0.003145 286.7 16.7
324(18) 0.003086 286.7 16.2
359(19) 0.002786 286.8 15.8
337(18) 0.002967 286.8 15.4
348(19) 0.002874 286.9 15.0
325(18) 0.003077 287.0 14.7
335(18) 0.002985 287.0 14.3
364(19) 0.002747 287.1 14.0
311(18) 0.003215 287.1 13.7
315(18) 0.003175 287.2 13.4
294(17) 0.003401 287.2 13.1
321(18) 0.003115 287.3 12.8
334(18) 0.002994 287.3 12.5
320(18) 0.003125 287.4 12.3
330(18) 0.003030 287.4 12.0
318(18) 0.003145 287.5 11.8
294(17) 0.003401 287.5 11.6
288(17) 0.003472 287.6 11.3
342(18) 0.002924 287.6 11.1
317(18) 0.003155 287.7 10.9
307(18) 0.003257 287.7 10.8
314(18) 0.003185 287.8 10.6
301(17) 0.003322 287.8 10.4
282(17) 0.00355 287.9 10.2
323(18) 0.003096 287.9 10.1
298(17) 0.003356 288.0 9.9
315(18) 0.003175 288.2 9.8
319(18) 0.003135 288.3 9.6
266(16) 0.00376 288.5 9.5
297(17) 0.003367 288.6 9.3
303(17) 0.003300 288.8 9.2
315(18) 0.003175 288.9 9.1
311(18) 0.003215 289.0 9.0
322(18) 0.003106 289.2 8.9
326(18) 0.003067 289.3 8.8
317(18) 0.003155 289.5 8.7
289(17) 0.003460 289.6 8.6
301(17) 0.003322 289.7 8.5
319(18) 0.003135 289.9 8.4
300(17) 0.003333 290.0 8.3
333(18) 0.003003 290.2 8.2
286(17) 0.003497 290.3 8.2
320(18) 0.003125 290.4 8.1
296(17) 0.003378 290.6 8.0
291(17) 0.003436 290.7 8.0
291(17) 0.003436 290.9 7.9
306(17) 0.003268 291.0 7.8
317(18) 0.003155 291.1 7.8
336(18) 0.002976 291.3 7.7
318(18) 0.003145 291.4 7.7
316(18) 0.003165 291.6 7.7
326(18) 0.003067 291.7 7.6
336(18) 0.002976 291.8 7.6
305(17) 0.003279 292.0 7.6
325(18) 0.003077 292.1 7.9
312(18) 0.003205 292.3 7.8
313(18) 0.003195 292.4 7.8
311(18) 0.003215 292.6 7.8
291(17) 0.003436 292.7 7.8
309(18) 0.003236 292.8 7.8
310(18) 0.003226 293.0 7.9
300(17) 0.003333 293.1 7.9
297(17) 0.003367 293.3 7.9
326(18) 0.003067 293.4 7.9
307(18) 0.003257 293.5 8.0
300(17) 0.003333 293.7 8.0
303(17) 0.003300 293.8 8.1
298(17) 0.003356 294.0 8.2
334(18) 0.002994 294.1 8.2
344(19) 0.002907 294.2 8.3
308(18) 0.003247 294.4 8.4
335(18) 0.002985 294.5 8.5
325(18) 0.003077 294.7 8.7
318(18) 0.003145 294.8 8.9
335(18) 0.002985 294.9 9.1
348(19) 0.002874 295.1 9.3
335(18) 0.002985 295.2 9.5
290(17) 0.003448 295.4 9.8
353(19) 0.002833 295.5 10.1
314(18) 0.003185 295.7 10.4
337(18) 0.002967 295.8 10.8
343(19) 0.002915 295.9 11.2
349(19) 0.002865 296.1 11.7
323(18) 0.003096 296.2 12.7
319(18) 0.003135 296.4 13.4
307(18) 0.003257 296.5 14.2
314(18) 0.003185 296.6 15.1
323(18) 0.003096 296.8 16.2
340(18) 0.002941 296.9 17.5
356(19) 0.002809 297.1 19.2
343(19) 0.002915 297.2 21.2
342(18) 0.002924 297.3 23.7
347(19) 0.002882 297.5 26.7
353(19) 0.002833 297.6 30.5
348(19) 0.002874 297.8 35.1
381(20) 0.002625 297.9 40.5
378(19) 0.002646 298.0 46.9
392(20) 0.002551 298.2 54.1
376(19) 0.002660 298.3 61.9
455(21) 0.002198 298.5 69.7
461(21) 0.002169 298.6 76.4
457(21) 0.002188 298.8 80.8
444(21) 0.002252 298.9 81.9
440(21) 0.002273 299.0 79.4
438(21) 0.002283 299.2 73.9
433(21) 0.002309 299.3 66.7
409(20) 0.002445 299.5 58.9
414(20) 0.002415 299.6 51.4
406(20) 0.002463 299.7 44.7
345(19) 0.002899 299.9 38.8
390(20) 0.002564 300.0 33.9
404(20) 0.002475 300.2 29.8
375(19) 0.002667 300.3 26.4
341(18) 0.002933 300.4 23.7
370(19) 0.002703 300.6 21.6
344(19) 0.002907 300.7 19.9
364(19) 0.002747 300.9 18.7
339(18) 0.002950 301.0 17.6
341(18) 0.002933 301.1 16.8
373(19) 0.002681 301.3 16.1
327(18) 0.003058 301.4 15.6
366(19) 0.002732 301.6 15.2
344(19) 0.002907 301.7 14.9
352(19) 0.002841 301.9 14.6
353(19) 0.002833 302.0 14.5
353(19) 0.002833 302.1 14.4
362(19) 0.002762 302.3 14.4
360(19) 0.002778 302.4 14.4
313(18) 0.003195 302.6 14.5
314(18) 0.003185 302.7 14.7
321(18) 0.003115 302.8 14.9
359(19) 0.002786 303.0 15.2
334(18) 0.002994 303.1 15.5
371(19) 0.002695 303.3 15.9
366(19) 0.002732 303.4 16.4
338(18) 0.002959 303.5 16.9
349(19) 0.002865 303.7 17.5
319(18) 0.003135 303.8 18.2
315(18) 0.003175 304.0 18.9
334(18) 0.002994 304.1 19.7
334(18) 0.002994 304.2 20.5
351(19) 0.002849 304.4 21.9
351(19) 0.002849 304.5 22.9
372(19) 0.002688 304.7 24.0
363(19) 0.002755 304.8 25.1
337(18) 0.002967 305.0 26.3
369(19) 0.002710 305.1 27.6
345(19) 0.002899 305.2 28.9
373(19) 0.002681 305.4 30.4
353(19) 0.002833 305.5 31.7
379(19) 0.002639 305.7 33.1
371(19) 0.002695 305.8 34.7
374(19) 0.002674 305.9 36.1
411(20) 0.002433 306.1 37.4
387(20) 0.002584 306.2 38.6
380(19) 0.002632 306.4 39.7
355(19) 0.002817 306.5 40.6
384(20) 0.002604 306.6 41.3
395(20) 0.002532 306.8 41.9
403(20) 0.002481 306.9 42.2
344(19) 0.002907 307.1 42.3
394(20) 0.002538 307.2 42.2
381(20) 0.002625 307.3 41.9
359(19) 0.002786 307.5 41.3
352(19) 0.002841 307.6 40.6
327(18) 0.003058 307.8 39.7
332(18) 0.003012 307.9 38.6
358(19) 0.002793 308.1 37.4
372(19) 0.002688 308.2 36.2
347(19) 0.002882 308.3 34.9
357(19) 0.002801 308.5 33.6
317(18) 0.003155 308.6 32.2
363(19) 0.002755 308.8 30.8
341(18) 0.002933 308.9 29.4
334(18) 0.002994 309.0 29.3
356(19) 0.002809 309.2 28.0
354(19) 0.002825 309.3 26.7
342(18) 0.002924 309.5 25.6
319(18) 0.003135 309.6 24.4
349(19) 0.002865 309.7 23.4
349(19) 0.002865 309.9 22.4
344(19) 0.002907 310.0 21.5
323(18) 0.003096 310.2 20.6
300(17) 0.003333 310.3 19.8
326(18) 0.003067 310.4 19.1
348(19) 0.002874 310.6 18.4
351(19) 0.002849 310.7 17.7
348(19) 0.002874 310.9 17.2
343(19) 0.002915 311.0 16.6
301(17) 0.003322 311.2 16.1
303(17) 0.003300 311.3 15.7
318(18) 0.003145 311.4 15.3
326(18) 0.003067 311.6 14.9
324(18) 0.003086 311.7 14.6
321(18) 0.003115 311.9 14.3
326(18) 0.003067 312.0 14.0
333(18) 0.003003 312.1 13.8
323(18) 0.003096 312.3 13.5
334(18) 0.002994 312.4 13.3
331(18) 0.003021 312.6 13.2
331(18) 0.003021 312.7 13.0
306(17) 0.003268 312.8 12.8
323(18) 0.003096 313.0 12.7
336(18) 0.002976 313.1 12.6
341(18) 0.002933 313.3 12.5
336(18) 0.002976 313.4 12.4
346(19) 0.002890 313.5 12.3
314(18) 0.003185 313.7 12.2
349(19) 0.002865 313.8 12.2
331(18) 0.003021 314.0 12.1
323(18) 0.003096 314.1 12.1
331(18) 0.003021 314.2 12.1
339(18) 0.002950 314.4 12.0
342(18) 0.002924 314.5 12.0
342(18) 0.002924 314.7 12.0
308(18) 0.003247 314.8 12.0
337(18) 0.002967 315.0 12.0
316(18) 0.003165 315.1 12.0
330(18) 0.003030 315.2 12.0
323(18) 0.003096 315.4 12.0
315(18) 0.003175 315.5 12.0
316(18) 0.003165 315.7 12.1
306(17) 0.003268 315.8 12.1
317(18) 0.003155 315.9 12.2
342(18) 0.002924 316.1 12.2
310(18) 0.003226 316.2 12.2
316(18) 0.003165 316.3 12.3
326(18) 0.003067 316.4 12.3
336(18) 0.002976 316.5 12.4
365(19) 0.002740 316.7 12.4
326(18) 0.003067 316.8 12.5
329(18) 0.003039 316.9 12.6
332(18) 0.003012 317.0 12.8
329(18) 0.003039 317.2 12.8
301(17) 0.003322 317.3 12.9
308(18) 0.003247 317.4 13.0
320(18) 0.003125 317.5 13.1
298(17) 0.003356 317.7 13.2
314(18) 0.003185 317.8 13.3
349(19) 0.002865 317.9 13.3
310(18) 0.003226 318.0 13.4
312(18) 0.003205 318.2 13.6
307(18) 0.003257 318.3 13.7
311(18) 0.003215 318.4 13.8
333(18) 0.003003 318.5 13.9
313(18) 0.003195 318.6 14.0
349(19) 0.002865 318.8 14.1
318(18) 0.003145 318.9 14.3
317(18) 0.003155 319.0 14.4
297(17) 0.003367 319.1 14.5
328(18) 0.003049 319.3 14.7
343(19) 0.002915 319.4 14.8
333(18) 0.003003 319.5 15.0
357(19) 0.002801 319.6 15.1
305(17) 0.003279 319.8 15.3
314(18) 0.003185 319.9 15.5
311(18) 0.003215 320.0 15.6
358(19) 0.002793 320.1 15.9
314(18) 0.003185 320.3 16.1
303(17) 0.003300 320.4 16.3
343(19) 0.002915 320.5 16.5
335(18) 0.002985 320.6 16.7
327(18) 0.003058 320.7 16.9
320(18) 0.003125 320.9 17.1
337(18) 0.002967 321.0 17.3
321(18) 0.003115 321.1 17.6
340(18) 0.002941 321.2 17.8
311(18) 0.003215 321.4 18.1
362(19) 0.002762 321.5 18.3
332(18) 0.003012 321.6 18.6
315(18) 0.003175 321.7 18.9
306(17) 0.003268 321.9 19.1
325(18) 0.003077 322.0 20.4
334(18) 0.002994 322.1 20.7
320(18) 0.003125 322.2 21.0
311(18) 0.003215 322.4 21.3
347(19) 0.002882 322.5 21.6
363(19) 0.002755 322.6 22.0
327(18) 0.003058 322.7 22.3
365(19) 0.002740 322.8 22.7
340(18) 0.002941 323.0 23.1
354(19) 0.002825 323.1 23.5
342(18) 0.002924 323.2 23.9
330(18) 0.003030 323.3 24.3
347(19) 0.002882 323.5 24.7
338(18) 0.002959 323.6 25.2
349(19) 0.002865 323.7 25.7
324(18) 0.003086 323.8 26.2
385(20) 0.002597 324.0 26.7
370(19) 0.002703 324.1 27.2
359(19) 0.002786 324.2 27.7
381(20) 0.002625 324.3 28.3
317(18) 0.003155 324.5 28.9
403(20) 0.002481 324.6 29.5
377(19) 0.002653 324.7 30.2
388(20) 0.002577 324.8 30.9
345(19) 0.002899 324.9 31.6
378(19) 0.002646 325.1 32.4
377(19) 0.002653 325.2 33.2
381(20) 0.002625 325.3 34.0
373(19) 0.002681 325.4 34.8
381(20) 0.002625 325.6 35.7
337(18) 0.002967 325.7 36.7
372(19) 0.002688 325.8 37.7
356(19) 0.002809 325.9 38.7
371(19) 0.002695 326.1 39.8
372(19) 0.002688 326.2 41.0
339(18) 0.002950 326.3 42.3
359(19) 0.002786 326.4 43.6
359(19) 0.002786 326.6 45.0
338(18) 0.002959 326.7 46.4
341(18) 0.002933 326.8 48.0
359(19) 0.002786 326.9 49.7
342(18) 0.002924 327.0 51.5
353(19) 0.002833 327.2 53.5
362(19) 0.002762 327.3 55.5
346(19) 0.002890 327.4 57.8
346(19) 0.002890 327.5 60.2
372(19) 0.002688 327.7 62.9
341(18) 0.002933 327.8 65.8
347(19) 0.002882 327.9 68.9
379(19) 0.002639 328.0 72.4
376(19) 0.002660 328.2 76.2
371(19) 0.002695 328.3 80.5
347(19) 0.002882 328.4 85.2
407(20) 0.002457 328.5 90.5
404(20) 0.002475 328.7 96.6
402(20) 0.002488 328.8 103.5
419(20) 0.002387 328.9 111.4
461(21) 0.002169 329.0 120.7
435(21) 0.002299 329.1 131.8
463(22) 0.002160 329.3 145.2
513(23) 0.001949 329.4 161.7
521(23) 0.001919 329.5 182.4
530(23) 0.001887 329.6 208.7
586(24) 0.001706 329.8 242.2
637(25) 0.001570 329.9 284.9
713(27) 0.001403 330.0 338.4
787(28) 0.001271 330.1 403.8
916(30) 0.001092 330.3 480.0
1025(32) 0.000976 330.4 560.7
1126(34) 0.000888 330.5 632.2
1197(35) 0.000835 330.6 675.1
1150(34) 0.000870 330.8 676.9
1066(33) 0.000938 330.9 643.6
1020(32) 0.000980 331.0 594.3
962(31) 0.001040 331.1 547.1
949(31) 0.001054 331.2 512.2
956(31) 0.001046 331.4 493.6
940(31) 0.001064 331.5 491.7
927(30) 0.001079 331.6 505.4
992(31) 0.001008 331.7 532.7
1034(32) 0.000967 331.9 570.4
1037(32) 0.000964 332.0 614.1
1117(33) 0.000895 332.1 658.7
1134(34) 0.000882 332.2 699.4
1096(33) 0.000912 332.4 735.1
1113(33) 0.000898 332.5 769.2
1172(34) 0.000853 332.6 807.8
1188(34) 0.000842 332.7 857.3
1242(35) 0.000805 333. 921.
1284(36) 0.000779 333. 1000.
1439(38) 0.000695 333. 1089.
1501(39) 0.000666 333. 1178.
1621(40) 0.000617 333. 1252.
1692(41) 0.000591 333. 1293.
1766(42) 0.000566 334. 1288.
1580(40) 0.000633 334. 1236.
1523(39) 0.000657 334. 1148.
1423(38) 0.000703 334. 1041.
1264(36) 0.000791 334. 930.
1161(34) 0.000861 334.2 825.3
1012(32) 0.000988 334.3 733.0
1010(32) 0.000990 334.5 655.0
952(31) 0.001050 334.6 591.4
880(30) 0.001136 334.7 541.3
871(30) 0.001148 334.8 503.4
793(28) 0.001261 334.9 476.5
796(28) 0.001256 335.1 459.1
809(28) 0.001236 335.2 450.1
783(28) 0.001277 335.3 448.8
814(29) 0.001228 335.4 454.5
821(29) 0.001218 335.6 467.1
778(28) 0.001285 335.7 486.3
868(29) 0.001152 335.8 512.5
928(30) 0.001078 335.9 546.0
950(31) 0.001053 336.1 587.1
972(31) 0.001029 336.2 636.1
1120(33) 0.000893 336.3 693.0
1112(33) 0.000899 336.4 758.4
1235(35) 0.000810 337. 834.
1333(37) 0.000750 337. 927.
1400(37) 0.000714 337. 1047.
1515(39) 0.000660 337. 1210.
1694(41) 0.000590 337. 1435.
1976(44) 0.000506 337. 1741.
2290(48) 0.000437 337. 2146.
2842(53) 0.000352 337. 2653.
3403(58) 0.0002939 338. 3232.
3994(63) 0.0002504 338. 3776.
4312(66) 0.0002319 338. 4097.
4013(63) 0.0002492 338. 4038.
3598(60) 0.0002779 338. 3627.
3094(56) 0.0003232 338. 3049.
2596(51) 0.000385 338. 2474.
2287(48) 0.000437 338. 1984.
1990(45) 0.000503 339. 1597.
1756(42) 0.000569 339. 1306.
1616(40) 0.000619 339. 1093.
1479(38) 0.000676 339. 941.
1425(38) 0.000702 339. 835.
1313(36) 0.000762 339. 766.
1258(35) 0.000795 339. 725.
1178(34) 0.000849 339.4 708.6
1200(35) 0.000833 339.5 715.1
1149(34) 0.000870 339.6 744.0
1228(35) 0.000814 339.8 797.4
1225(35) 0.000816 339.9 876.3
1280(36) 0.000781 340. 982.
1335(37) 0.000749 340. 1112.
1518(39) 0.000659 340. 1262.
1587(40) 0.000630 340. 1414.
1691(41) 0.000591 341. 1540.
1750(42) 0.000571 341. 1607.
1843(43) 0.000543 341. 1588.
1734(42) 0.000577 341. 1487.
1578(40) 0.000634 341. 1333.
1438(38) 0.000695 341. 1158.
1255(35) 0.000797 341. 989.
1127(34) 0.000887 341.4 838.8
1047(32) 0.000955 341.5 711.3
941(31) 0.001063 341.6 606.3
863(29) 0.001159 341.7 521.8
780(28) 0.001282 341.9 454.6
740(27) 0.001351 342.0 401.4
709(27) 0.001410 342.1 359.7
700(26) 0.001429 342.2 326.8
656(26) 0.001524 342.4 300.8
612(25) 0.001634 342.5 280.2
625(25) 0.001600 342.6 263.9
608(25) 0.001645 342.7 251.0
602(25) 0.001661 342.9 241.0
591(24) 0.001692 343.0 233.3
546(23) 0.001832 343.1 227.8
568(24) 0.001761 343.2 224.3
586(24) 0.001706 343.3 222.6
569(24) 0.001757 343.5 222.8
568(24) 0.001761 343.6 224.9
566(24) 0.001767 343.7 228.9
566(24) 0.001767 343.8 235.1
574(24) 0.001742 344.0 243.6
574(24) 0.001742 344.1 254.7
589(24) 0.001698 344.2 268.7
613(25) 0.001631 344.3 286.0
664(26) 0.001506 344.5 306.9
694(26) 0.001441 344.6 331.8
711(27) 0.001406 344.7 361.2
730(27) 0.001370 344.8 395.5
781(28) 0.001280 345.0 434.8
835(29) 0.001198 345.1 479.4
848(29) 0.001179 345.2 529.2
914(30) 0.001094 345.3 583.7
973(31) 0.001028 345.4 641.9
1073(33) 0.000932 345.6 701.9
1101(33) 0.000908 345.7 760.8
1161(34) 0.000861 345.8 814.6
1231(35) 0.000812 346. 859.
1295(36) 0.000772 346. 888.
1298(36) 0.000770 346. 899.
1264(36) 0.000791 346. 890.
1240(35) 0.000806 346. 863.
1193(35) 0.000838 346.6 821.5
1115(33) 0.000897 346.7 769.8
1003(32) 0.000997 346.8 713.2
982(31) 0.001018 346.9 655.6
914(30) 0.001094 347.1 600.0
882(30) 0.001134 347.2 548.5
811(28) 0.001233 347.3 502.2
770(28) 0.001299 347.4 461.9
753(27) 0.001328 347.5 427.7
764(28) 0.001309 347.7 399.8
764(28) 0.001309 347.8 378.3
741(27) 0.001350 347.9 363.0
732(27) 0.001366 348.0 354.3
742(27) 0.001348 348.2 352.1
748(27) 0.001337 348.3 356.7
732(27) 0.001366 348.4 368.4
768(28) 0.001302 348.5 387.6
791(28) 0.001264 348.7 414.5
823(29) 0.001215 348.8 449.5
840(29) 0.001190 348.9 492.2
870(29) 0.001149 349.0 541.9
942(31) 0.001062 349.2 596.5
1016(32) 0.000984 349.3 652.3
1049(32) 0.000953 349.4 703.1
1071(33) 0.000934 349.5 741.2
1087(33) 0.000920 349.6 758.8
1175(34) 0.000851 349.8 751.2
1144(34) 0.000874 349.9 719.3
1116(33) 0.000896 350.0 668.5
1050(32) 0.000952 350.1 606.9
944(31) 0.001059 350.3 541.7
805(28) 0.001242 350.4 478.4
690(26) 0.001449 350.5 419.9
679(26) 0.001473 350.6 367.8
693(26) 0.001443 350.8 322.3
608(25) 0.001645 350.9 283.4
631(25) 0.001585 351.0 250.3
553(24) 0.001808 351.1 222.6
515(23) 0.001942 351.3 199.4
516(23) 0.001938 351.4 180.0
478(22) 0.002092 351.5 163.7
484(22) 0.002066 351.6 150.1
451(21) 0.002217 351.7 138.6
442(21) 0.002262 351.9 128.9
436(21) 0.002294 352.0 120.5
421(21) 0.002375 352.1 113.3
415(20) 0.002410 352.2 107.0
409(20) 0.002445 352.4 101.4
404(20) 0.002475 352.5 96.5
419(20) 0.002387 352.6 92.1
424(21) 0.002358 352.7 88.2
386(20) 0.002591 352.9 84.7
407(20) 0.002457 353.0 81.6
380(19) 0.002632 353.1 78.7
416(20) 0.002404 353.2 76.1
364(19) 0.002747 353.3 73.8
423(21) 0.002364 353.5 71.7
401(20) 0.002494 353.6 69.7
397(20) 0.002519 353.7 68.0
372(19) 0.002688 353.8 66.4
391(20) 0.002558 354.0 64.9
367(19) 0.002725 354.1 63.6
369(19) 0.002710 354.2 62.4
399(20) 0.002506 354.3 61.4
394(20) 0.002538 354.5 60.4
400(20) 0.002500 354.6 59.5
385(20) 0.002597 354.7 58.7
389(20) 0.002571 354.8 58.1
375(19) 0.002667 355.0 57.5
385(20) 0.002597 355.1 57.0
373(19) 0.002681 355.2 56.5
387(20) 0.002584 355.3 56.2
390(20) 0.002564 355.4 55.9
386(20) 0.002591 355.6 55.7
400(20) 0.002500 355.7 55.6
372(19) 0.002688 355.8 55.5
363(19) 0.002755 355.8 55.6
333(18) 0.003003 355.8 55.7
389(20) 0.002571 355.7 55.9
383(20) 0.002611 355.7 56.2
419(20) 0.002387 355.6 56.6
388(20) 0.002577 355.6 57.2
362(19) 0.002762 355.5 57.8
395(20) 0.002532 355.5 58.6
373(19) 0.002681 355.4 59.6
352(19) 0.002841 355.4 60.8
381(20) 0.002625 355.3 62.3
373(19) 0.002681 355.3 64.0
390(20) 0.002564 355.2 66.1
400(20) 0.002500 355.2 68.7
391(20) 0.002558 355.1 71.9
382(20) 0.002618 355.1 75.9
401(20) 0.002494 355.0 80.9
353(19) 0.002833 355.0 87.6
421(21) 0.002375 354.9 96.6
420(20) 0.002381 354.9 109.2
423(21) 0.002364 354.8 127.2
453(21) 0.002208 354.8 153.2
460(21) 0.002174 354.7 190.3
510(23) 0.001961 354.7 240.8
569(24) 0.001757 354.6 301.8
617(25) 0.001621 354.6 355.3
690(26) 0.001449 354.5 369.5
635(25) 0.001575 354.5 333.5
598(24) 0.001672 354.4 274.4
496(22) 0.002016 354.4 219.2
457(21) 0.002188 354.3 177.1
437(21) 0.002288 354.3 147.5
424(21) 0.002358 354.2 127.5
451(21) 0.002217 354.2 114.2
389(20) 0.002571 354.2 105.3
383(20) 0.002611 354.1 99.3
404(20) 0.002475 354.1 95.3
425(21) 0.002353 354.0 92.6
416(20) 0.002404 354.0 91.0
442(21) 0.002262 353.9 90.1
410(20) 0.002439 353.9 89.8
403(20) 0.002481 353.8 90.1
396(20) 0.002525 353.8 90.7
409(20) 0.002445 353.7 91.7
413(20) 0.002421 353.7 93.0
419(20) 0.002387 353.6 94.6
424(21) 0.002358 353.6 96.5
439(21) 0.002278 353.5 98.7
461(21) 0.002169 353.5 101.2
425(21) 0.002353 353.4 103.8
412(20) 0.002427 353.4 106.8
454(21) 0.002203 353.3 110.0
458(21) 0.002183 353.3 113.5
505(22) 0.001980 353.2 117.3
484(22) 0.002066 353.2 121.3
436(21) 0.002294 353.1 125.7
461(21) 0.002169 353.1 130.4
491(22) 0.002037 353.0 135.5
453(21) 0.002208 353.0 140.9
478(22) 0.002092 352.9 146.7
462(21) 0.002164 352.9 152.9
526(23) 0.001901 352.8 159.6
509(23) 0.001965 352.8 166.7
507(23) 0.001972 352.7 174.4
534(23) 0.001873 352.7 182.7
532(23) 0.001880 352.6 191.6
543(23) 0.001842 352.6 201.3
549(23) 0.001822 352.5 211.7
553(24) 0.001808 352.5 222.9
547(23) 0.001828 352.4 235.1
592(24) 0.001689 352.4 248.4
605(25) 0.001653 352.3 262.8
622(25) 0.001608 352.3 278.5
670(26) 0.001493 352.2 295.6
699(26) 0.001431 352.2 314.3
720(27) 0.001389 352.1 334.7
765(28) 0.001307 352.1 356.9
823(29) 0.001215 352.0 381.1
800(28) 0.001250 352.0 407.2
858(29) 0.001166 352.0 435.5
865(29) 0.001156 351.9 465.7
891(30) 0.001122 351.9 497.7
1011(32) 0.000989 351.8 531.2
1000(32) 0.001000 351.8 565.6
1104(33) 0.000906 351.7 600.0
1131(34) 0.000884 351.7 633.4
1165(34) 0.000858 351.6 664.3
1281(36) 0.000781 352. 692.
1261(36) 0.000793 352. 714.
1193(35) 0.000838 351.5 731.0
1244(35) 0.000804 351. 743.
1185(34) 0.000844 351.4 750.3
1232(35) 0.000812 351. 754.
1169(34) 0.000855 351.3 755.3
1116(33) 0.000896 351.2 754.7
1186(34) 0.000843 351.2 752.4
1109(33) 0.000902 351.1 748.6
1180(34) 0.000847 351.1 742.8
1161(34) 0.000861 351.0 734.6
1094(33) 0.000914 351.0 723.6
1053(32) 0.000950 350.9 709.9
1024(32) 0.000977 350.9 693.7
968(31) 0.001033 350.8 675.8
969(31) 0.001032 350.8 657.1
989(31) 0.001011 350.7 638.4
901(30) 0.001110 350.7 620.5
916(30) 0.001092 350.6 604.0
969(31) 0.001032 350.6 589.5
966(31) 0.001035 350.5 577.3
927(30) 0.001079 350.5 568.0
910(30) 0.001099 350.4 561.7
937(31) 0.001067 350.4 558.8
942(31) 0.001062 350.3 559.7
938(31) 0.001066 350.3 564.7
928(30) 0.001078 350.2 574.0
948(31) 0.001055 350.2 588.0
982(31) 0.001018 350.1 606.8
998(32) 0.001002 350.1 630.7
1029(32) 0.000972 350.0 659.8
1072(33) 0.000933 350.0 694.0
1069(33) 0.000935 349.9 733.4
1085(33) 0.000922 349.9 777.6
1165(34) 0.000858 349.8 826.6
1225(35) 0.000816 349.8 880.4
1288(36) 0.000776 350. 940.
1300(36) 0.000769 350. 1005.
1324(36) 0.000755 350. 1079.
1415(38) 0.000707 350. 1163.
1519(39) 0.000658 350. 1259.
1608(40) 0.000622 350. 1369.
1700(41) 0.000588 349. 1495.
1854(43) 0.000539 349. 1636.
1993(45) 0.000502 349. 1790.
2191(47) 0.000456 349. 1955.
2375(49) 0.000421 349. 2124.
2511(50) 0.000398 349. 2286.
2724(52) 0.000367 349. 2429.
2772(53) 0.000361 349. 2539.
2769(53) 0.000361 349. 2601.
2701(52) 0.000370 349. 2606.
2618(51) 0.000382 349. 2552.
2425(49) 0.000412 349. 2446.
2275(48) 0.000440 349. 2299.
2110(46) 0.000474 349. 2127.
1886(43) 0.000530 349. 1942.
1721(41) 0.000581 349. 1756.
1674(41) 0.000597 349. 1577.
1493(39) 0.000670 349. 1410.
1468(38) 0.000681 349. 1258.
1357(37) 0.000737 349. 1121.
1209(35) 0.000827 348.5 999.8
1176(34) 0.000850 348.4 893.6
1119(33) 0.000894 348.4 801.4
1106(33) 0.000904 348.3 722.2
1076(33) 0.000929 348.3 654.8
1021(32) 0.000979 348.2 598.0
949(31) 0.001054 348.2 550.7
906(30) 0.001104 348.1 511.8
872(30) 0.001147 348.1 480.6
840(29) 0.001190 348.0 455.9
818(29) 0.001222 348.0 437.2
802(28) 0.001247 347.9 423.7
850(29) 0.001176 347.9 414.3
761(28) 0.001314 347.8 408.1
769(28) 0.001300 347.8 403.6
809(28) 0.001236 347.7 399.0
769(28) 0.001300 347.7 392.4
724(27) 0.001381 347.6 382.3
732(27) 0.001366 347.6 367.7
712(27) 0.001404 347.6 349.1
680(26) 0.001471 347.5 327.7
678(26) 0.001475 347.5 305.1
637(25) 0.001570 347.4 282.5
604(25) 0.001656 347.4 260.9
612(25) 0.001634 347.3 241.0
569(24) 0.001757 347.3 223.0
565(24) 0.001770 347.2 206.9
519(23) 0.001927 347.2 192.7
526(23) 0.001901 347.1 180.2
504(22) 0.001984 347.1 169.2
503(22) 0.001988 347.0 159.7
503(22) 0.001988 347.0 151.4
512(23) 0.001953 346.9 144.1
463(22) 0.002160 346.9 137.8
466(22) 0.002146 346.8 132.3
478(22) 0.002092 346.8 127.5
464(22) 0.002155 346.7 123.4
468(22) 0.002137 346.7 119.8
420(20) 0.002381 346.6 116.8
460(21) 0.002174 346.6 114.3
392(20) 0.002551 346.5 112.2
420(20) 0.002381 346.5 110.7
407(20) 0.002457 346.4 109.5
394(20) 0.002538 346.4 108.8
424(21) 0.002358 346.3 108.6
384(20) 0.002604 346.3 108.8
409(20) 0.002445 346.2 109.4
411(20) 0.002433 346.2 110.4
399(20) 0.002506 346.1 111.9
402(20) 0.002488 346.1 113.7
421(21) 0.002375 346.0 115.7
411(20) 0.002433 346.0 118.0
366(19) 0.002732 345.9 120.3
415(20) 0.002410 345.9 122.6
373(19) 0.002681 345.8 124.5
407(20) 0.002457 345.8 125.9
403(20) 0.002481 345.7 126.5
437(21) 0.002288 345.7 126.2
430(21) 0.002326 345.6 125.0
406(20) 0.002463 345.6 122.7
398(20) 0.002513 345.5 119.5
396(20) 0.002525 345.5 115.6
399(20) 0.002506 345.5 111.2
402(20) 0.002488 345.4 106.5
378(19) 0.002646 345.4 101.6
415(20) 0.002410 345.3 96.9
376(19) 0.002660 345.3 92.2
369(19) 0.002710 345.2 87.8
373(19) 0.002681 345.2 83.7
397(20) 0.002519 345.1 79.9
365(19) 0.002740 345.1 76.5
393(20) 0.002545 345.0 73.3
380(19) 0.002632 345.0 70.4
411(20) 0.002433 344.9 67.9
385(20) 0.002597 344.9 65.6
360(19) 0.002778 344.8 63.6
367(19) 0.002725 344.8 61.8
376(19) 0.002660 344.7 60.3
382(20) 0.002618 344.7 58.9
343(19) 0.002915 344.6 57.7
406(20) 0.002463 344.6 56.7
375(19) 0.002667 344.5 55.8
347(19) 0.002882 344.5 55.1
400(20) 0.002500 344.4 54.5
358(19) 0.002793 344.4 54.0
361(19) 0.002770 344.3 53.7
322(18) 0.003106 344.3 53.4
362(19) 0.002762 344.2 53.3
387(20) 0.002584 344.2 53.3
413(20) 0.002421 344.1 53.3
388(20) 0.002577 344.1 53.5
409(20) 0.002445 344.0 53.8
364(19) 0.002747 344.0 54.2
367(19) 0.002725 343.9 54.7
386(20) 0.002591 343.9 55.4
386(20) 0.002591 343.8 56.1
374(19) 0.002674 343.8 57.1
381(20) 0.002625 343.7 58.1
383(20) 0.002611 343.7 59.4
385(20) 0.002597 343.6 60.8
406(20) 0.002463 343.6 62.4
379(19) 0.002639 343.5 64.3
398(20) 0.002513 343.5 66.4
425(21) 0.002353 343.4 68.8
409(20) 0.002445 343.4 71.4
393(20) 0.002545 343.3 74.3
418(20) 0.002392 343.3 77.6
390(20) 0.002564 343.3 81.3
405(20) 0.002469 343.2 85.3
395(20) 0.002532 343.2 89.7
457(21) 0.002188 343.1 94.6
426(21) 0.002347 343.1 100.0
395(20) 0.002532 343.0 105.8
445(21) 0.002247 343.0 112.1
453(21) 0.002208 342.9 118.9
460(21) 0.002174 342.9 126.3
427(21) 0.002342 342.8 134.1
470(22) 0.002128 342.8 142.4
477(22) 0.002096 342.7 151.2
434(21) 0.002304 342.7 160.5
517(23) 0.001934 342.6 170.0
529(23) 0.001890 342.6 179.8
529(23) 0.001890 342.5 189.6
500(22) 0.002000 342.5 199.4
555(24) 0.001802 342.4 208.8
543(23) 0.001842 342.4 217.6
523(23) 0.001912 342.3 225.5
554(24) 0.001805 342.3 232.3
528(23) 0.001894 342.2 237.7
588(24) 0.001701 342.2 241.3
578(24) 0.001730 342.1 243.0
559(24) 0.001789 342.1 242.7
563(24) 0.001776 342.0 240.5
574(24) 0.001742 342.0 236.4
524(23) 0.001908 341.9 230.6
512(23) 0.001953 341.9 223.4
527(23) 0.001898 341.8 215.1
515(23) 0.001942 341.8 206.0
526(23) 0.001901 341.7 196.4
495(22) 0.002020 341.7 186.5
479(22) 0.002088 341.6 176.5
453(21) 0.002208 341.6 166.7
463(22) 0.002160 341.5 157.1
447(21) 0.002237 341.5 147.9
406(20) 0.002463 341.4 139.1
463(22) 0.002160 341.4 130.8
429(21) 0.002331 341.3 123.1
421(21) 0.002375 341.3 115.8
425(21) 0.002353 341.2 109.2
420(20) 0.002381 341.2 103.0
423(21) 0.002364 341.1 97.4
428(21) 0.002336 341.1 92.3
409(20) 0.002445 341.1 87.7
405(20) 0.002469 341.0 83.5
406(20) 0.002463 341.0 79.7
401(20) 0.002494 340.9 76.3
409(20) 0.002445 340.9 73.3
397(20) 0.002519 340.8 70.5
397(20) 0.002519 340.8 68.0
379(19) 0.002639 340.7 65.7
357(19) 0.002801 340.7 63.5
402(20) 0.002488 340.6 61.4
397(20) 0.002519 340.6 59.5
383(20) 0.002611 340.5 57.5
363(19) 0.002755 340.5 55.6
370(19) 0.002703 340.4 53.7
393(20) 0.002545 340.4 51.9
409(20) 0.002445 340.3 50.1
384(20) 0.002604 340.3 48.4
387(20) 0.002584 340.2 46.8
390(20) 0.002564 340.2 45.2
388(20) 0.002577 340.1 43.7
395(20) 0.002532 340.1 42.4
388(20) 0.002577 340.0 41.1
351(19) 0.002849 340.0 39.9
354(19) 0.002825 339.9 38.9
371(19) 0.002695 339.9 37.9
336(18) 0.002976 339.8 37.0
359(19) 0.002786 339.8 36.2
362(19) 0.002762 339.7 35.4
348(19) 0.002874 339.7 34.8
373(19) 0.002681 339.6 34.2
373(19) 0.002681 339.6 33.7
361(19) 0.002770 339.5 33.2
384(20) 0.002604 339.5 32.9
357(19) 0.002801 339.4 32.5
354(19) 0.002825 339.4 32.3
370(19) 0.002703 339.3 32.1
393(20) 0.002545 339.3 32.0
382(20) 0.002618 339.2 31.9
392(20) 0.002551 339.2 31.9
375(19) 0.002667 339.1 31.9
377(19) 0.002653 339.1 32.0
399(20) 0.002506 339.0 32.2
401(20) 0.002494 339.0 32.4
414(20) 0.002415 338.9 32.7
395(20) 0.002532 338.9 33.0
382(20) 0.002618 338.9 33.4
397(20) 0.002519 338.8 33.8
371(19) 0.002695 338.8 34.3
360(19) 0.002778 338.7 34.9
379(19) 0.002639 338.7 35.6
378(19) 0.002646 338.6 36.3
388(20) 0.002577 338.6 37.1
399(20) 0.002506 338.5 37.9
352(19) 0.002841 338.5 38.8
411(20) 0.002433 338.4 39.8
395(20) 0.002532 338.4 40.9
400(20) 0.002500 338.3 42.0
423(21) 0.002364 338.3 43.2
374(19) 0.002674 338.2 44.5
383(20) 0.002611 338.2 45.9
410(20) 0.002439 338.1 47.3
395(20) 0.002532 338.1 48.8
374(19) 0.002674 338.0 50.4
382(20) 0.002618 338.0 52.0
384(20) 0.002604 337.9 53.7
375(19) 0.002667 337.9 55.4
375(19) 0.002667 337.8 57.1
365(19) 0.002740 337.8 58.9
390(20) 0.002564 337.7 60.7
420(20) 0.002381 337.7 62.4
417(20) 0.002398 337.6 64.2
445(21) 0.002247 337.6 65.9
396(20) 0.002525 337.5 67.5
402(20) 0.002488 337.5 69.0
432(21) 0.002315 337.4 70.3
448(21) 0.002232 337.4 71.5
455(21) 0.002198 337.3 72.6
452(21) 0.002212 337.3 73.4
424(21) 0.002358 337.2 74.0
403(20) 0.002481 337.2 74.4
412(20) 0.002427 337.1 74.5
431(21) 0.002320 337.1 74.3
405(20) 0.002469 337.0 73.9
439(21) 0.002278 337.0 73.3
421(21) 0.002375 336.9 72.4
407(20) 0.002457 336.9 71.2
422(21) 0.002370 336.8 69.9
415(20) 0.002410 336.8 68.5
419(20) 0.002387 336.7 66.8
407(20) 0.002457 336.7 65.1
397(20) 0.002519 336.7 63.3
419(20) 0.002387 336.6 61.4
382(20) 0.002618 336.6 59.4
416(20) 0.002404 336.5 57.5
370(19) 0.002703 336.5 55.5
398(20) 0.002513 336.4 53.5
407(20) 0.002457 336.4 51.6
409(20) 0.002445 336.3 49.7
353(19) 0.002833 336.3 47.9
397(20) 0.002519 336.2 46.1
371(19) 0.002695 336.2 44.3
403(20) 0.002481 336.1 42.6
412(20) 0.002427 336.1 41.0
378(19) 0.002646 336.0 39.4
387(20) 0.002584 336.0 38.0
352(19) 0.002841 335.9 36.5
353(19) 0.002833 335.9 35.2
379(19) 0.002639 335.8 33.9
402(20) 0.002488 335.8 32.7
380(19) 0.002632 335.7 31.5
381(20) 0.002625 335.7 30.4
391(20) 0.002558 335.6 29.4
368(19) 0.002717 335.6 28.5
361(19) 0.002770 335.5 27.5
350(19) 0.002857 335.5 26.7
356(19) 0.002809 335.4 25.9
357(19) 0.002801 335.4 25.1
398(20) 0.002513 335.5 24.4
405(20) 0.002469 335.6 23.8
408(20) 0.002451 335.7 23.2
390(20) 0.002564 335.8 22.6
343(19) 0.002915 336.0 22.1
331(18) 0.003021 336.1 21.6
344(19) 0.002907 336.2 21.1
359(19) 0.002786 336.3 20.7
353(19) 0.002833 336.4 20.3
360(19) 0.002778 336.5 19.9
353(19) 0.002833 336.7 19.6
380(19) 0.002632 336.8 19.3
360(19) 0.002778 336.9 19.0
335(18) 0.002985 337.0 18.7
345(19) 0.002899 337.1 18.5
369(19) 0.002710 337.2 18.3
372(19) 0.002688 337.4 18.1
371(19) 0.002695 337.5 18.0
385(20) 0.002597 337.6 17.8
385(20) 0.002597 337.7 17.7
356(19) 0.002809 337.8 17.6
321(18) 0.003115 337.9 17.5
346(19) 0.002890 338.1 17.4
373(19) 0.002681 338.2 17.4
375(19) 0.002667 338.3 17.4
362(19) 0.002762 338.4 17.4
357(19) 0.002801 338.5 17.4
340(18) 0.002941 338.6 17.5
371(19) 0.002695 338.7 17.6
375(19) 0.002667 338.9 17.7
343(19) 0.002915 339.0 17.9
368(19) 0.002717 339.1 18.1
349(19) 0.002865 339.2 18.3
333(18) 0.003003 339.3 18.6
363(19) 0.002755 339.4 19.0
369(19) 0.002710 339.6 19.5
353(19) 0.002833 339.7 20.1
331(18) 0.003021 339.8 20.8
347(19) 0.002882 339.9 21.7
365(19) 0.002740 340.0 22.7
369(19) 0.002710 340.1 24.0
364(19) 0.002747 340.3 25.6
341(18) 0.002933 340.4 27.5
366(19) 0.002732 340.5 29.7
369(19) 0.002710 340.6 32.3
378(19) 0.002646 340.7 35.2
389(20) 0.002571 340.8 38.3
348(19) 0.002874 341.0 41.5
385(20) 0.002597 341.1 44.4
370(19) 0.002703 341.2 46.6
353(19) 0.002833 341.3 47.7
384(20) 0.002604 341.4 47.6
405(20) 0.002469 341.5 46.2
399(20) 0.002506 341.6 43.9
352(19) 0.002841 341.8 41.2
374(19) 0.002674 341.9 38.4
355(19) 0.002817 342.0 35.7
362(19) 0.002762 342.1 33.3
339(18) 0.002950 342.2 31.3
399(20) 0.002506 342.3 29.6
363(19) 0.002755 342.5 28.3
374(19) 0.002674 342.6 27.3
368(19) 0.002717 342.7 26.5
390(20) 0.002564 342.8 26.1
335(18) 0.002985 342.9 25.8
366(19) 0.002732 343.0 25.8
376(19) 0.002660 343.2 25.9
351(19) 0.002849 343.3 26.2
348(19) 0.002874 343.4 26.6
364(19) 0.002747 343.5 27.2
360(19) 0.002778 343.6 28.0
394(20) 0.002538 343.7 28.9
371(19) 0.002695 343.9 30.0
385(20) 0.002597 344.0 31.4
390(20) 0.002564 344.1 33.0
374(19) 0.002674 344.2 34.9
401(20) 0.002494 344.3 37.3
373(19) 0.002681 344.4 40.1
405(20) 0.002469 344.6 43.5
410(20) 0.002439 344.7 47.7
366(19) 0.002732 344.8 52.8
388(20) 0.002577 344.9 59.0
395(20) 0.002532 345.0 66.5
402(20) 0.002488 345.1 75.5
401(20) 0.002494 345.2 86.1
460(21) 0.002174 345.4 98.5
424(21) 0.002358 345.5 112.3
482(22) 0.002075 345.6 127.3
484(22) 0.002066 345.7 142.2
483(22) 0.002070 345.8 155.4
440(21) 0.002273 345.9 164.9
456(21) 0.002193 346.1 168.9
488(22) 0.002049 346.2 167.2
496(22) 0.002016 346.3 160.9
492(22) 0.002033 346.4 151.9
531(23) 0.001883 346.5 142.3
470(22) 0.002128 346.6 133.1
489(22) 0.002045 346.8 125.0
456(21) 0.002193 346.9 117.6
473(22) 0.002114 347.0 110.6
438(21) 0.002283 347.1 103.5
486(22) 0.002058 347.2 96.5
436(21) 0.002294 347.3 89.4
445(21) 0.002247 347.5 82.8
435(21) 0.002299 347.6 76.9
429(21) 0.002331 347.7 71.9
417(20) 0.002398 347.8 67.9
411(20) 0.002433 347.9 64.6
404(20) 0.002475 348.0 62.2
418(20) 0.002392 348.1 60.4
425(21) 0.002353 348.3 59.3
431(21) 0.002320 348.4 58.7
434(21) 0.002304 348.5 58.7
423(21) 0.002364 348.6 59.2
455(21) 0.002198 348.7 60.3
426(21) 0.002347 348.8 61.9
446(21) 0.002242 349.0 64.1
432(21) 0.002315 349.1 67.0
426(21) 0.002347 349.2 70.6
441(21) 0.002268 349.3 74.9
424(21) 0.002358 349.4 80.0
500(22) 0.002000 349.5 85.9
483(22) 0.002070 349.7 92.5
491(22) 0.002037 349.8 99.7
503(22) 0.001988 349.9 107.5
487(22) 0.002053 350.0 115.4
486(22) 0.002058 350.1 122.9
520(23) 0.001923 350.2 129.5
515(23) 0.001942 350.4 134.3
551(23) 0.001815 350.5 136.8
582(24) 0.001718 350.6 136.6
537(23) 0.001862 350.7 133.8
551(23) 0.001815 350.8 128.7
560(24) 0.001786 350.9 122.2
521(23) 0.001919 351.1 114.8
560(24) 0.001786 351.2 107.2
557(24) 0.001795 351.3 99.8
528(23) 0.001894 351.4 93.0
525(23) 0.001905 351.5 86.8
508(23) 0.001968 351.6 81.5
509(23) 0.001965 351.7 76.9
513(23) 0.001949 351.9 73.2
532(23) 0.001880 352.0 70.1
535(23) 0.001869 352.1 67.7
555(24) 0.001802 352.2 66.0
546(23) 0.001832 352.3 64.8
575(24) 0.001739 352.4 64.1
568(24) 0.001761 352.6 63.9
533(23) 0.001876 352.7 64.1
549(23) 0.001822 352.8 64.6
564(24) 0.001773 352.9 65.5
556(24) 0.001799 353.0 66.8
587(24) 0.001704 353.1 68.3
605(25) 0.0 0.0 .
620(25) 0.0 0.0 .
592(24) 0.0 0.0 .
620(25) 0.0 0.0 .
638(25) 0.0 0.0 .
670(26) 0.0 0.0 .
640(25) 0.0 0.0 .
664(26) 0.0 0.0 .
728(27) 0.0 0.0 .
698(26) 0.0 0.0 .
685(26) 0.0 0.0 .
790(28) 0.0 0.0 .
801(28) 0.0 0.0 .
867(29) 0.0 0.0 .
858(29) 0.0 0.0 .
866(29) 0.0 0.0 .
918(30) 0.0 0.0 .
998(32) 0.0 0.0 .
969(31) 0.0 0.0 .
1013(32) 0.0 0.0 .
1099(33) 0.0 0.0 .
1146(34) 0.0 0.0 .
1272(36) 0.0 0. .
1294(36) 0.0 0. .
1363(37) 0.0 0. .
1429(38) 0.0 0. .
1673(41) 0.0 0. .
1769(42) 0.0 0. .
1975(44) 0.0 0. .
2230(47) 0.0 0. .
2523(50) 0.0 0. .
2959(54) 0.0 0. .
3573(60) 0.0 0. .
4069(64) 0.0 0. .
5008(71) 0.0 0. .
6166(79) 0.0 0. .
7695(88) 0.0 0. .
10410(100) 0.0 0. .
14090(120) 0.0 0. .
19720(140) 0.0 0. .
29090(170) 0.0 0. .
45510(210) 0.0 0. .
74500(270) 0.0 0. .
126350(360) 0.0 0. .
195090(440) 0.0 0. .
231110(480) 0.0 0. .
191320(440) 0.0 0. .
122930(350) 0.0 0. .
71300(270) 0.0 0. .
42870(210) 0.0 0. .
27380(170) 0.0 0. .
18740(140) 0.0 0. .
13130(120) 0.0 0. .
10130(100) 0.0 0. .
7861(89) 0.0 0. .
6367(80) 0.0 0. .
4970(70) 0.0 0. .
4222(65) 0.0 0. .
3561(60) 0.0 0. .
3116(56) 0.0 0. .
2686(52) 0.0 0. .
2435(49) 0.0 0. .
2143(46) 0.0 0. .
2018(45) 0.0 0. .
1772(42) 0.0 0. .
1663(41) 0.0 0. .
1548(39) 0.0 0. .
1416(38) 0.0 0. .
1398(37) 0.0 0. .
1273(36) 0.0 0. .
1197(35) 0.0 0.0 .
1175(34) 0.0 0.0 .
1144(34) 0.0 0.0 .
1080(33) 0.0 0.0 .
1043(32) 0.0 0.0 .
925(30) 0.0 0.0 .
928(30) 0.0 0.0 .
899(30) 0.0 0.0 .
849(29) 0.0 0.0 .
861(29) 0.0 0.0 .
819(29) 0.0 0.0 .
736(27) 0.0 0.0 .
776(28) 0.0 0.0 .
702(26) 0.0 0.0 .
764(28) 0.0 0.0 .
758(28) 0.0 0.0 .
739(27) 0.0 0.0 .
686(26) 0.0 0.0 .
664(26) 0.0 0.0 .
627(25) 0.0 0.0 .
651(26) 0.0 0.0 .
666(26) 0.0 0.0 .
653(26) 0.0 0.0 .
610(25) 0.0 0.0 .
546(23) 0.0 0.0 .
555(24) 0.001802 364.3 48.7
575(24) 0.001739 364.4 46.6
541(23) 0.001848 364.5 44.6
560(24) 0.001786 364.6 42.8
558(24) 0.001792 364.8 41.2
507(23) 0.001972 364.9 39.7
552(23) 0.001812 365.0 38.3
537(23) 0.001862 365.1 37.0
513(23) 0.001949 365.2 35.8
499(22) 0.002004 365.3 34.8
493(22) 0.002028 365.4 34.1
521(23) 0.001919 365.6 33.3
500(22) 0.002000 365.7 32.5
496(22) 0.002016 365.8 31.8
516(23) 0.001938 365.9 31.1
504(22) 0.001984 366.0 30.5
466(22) 0.002146 366.1 30.0
457(21) 0.002188 366.3 29.5
524(23) 0.001908 366.4 29.0
508(23) 0.001968 366.5 28.5
483(22) 0.002070 366.6 28.1
475(22) 0.002105 366.7 27.6
488(22) 0.002049 366.8 27.1
447(21) 0.002237 367.0 26.6
472(22) 0.002119 367.1 26.1
467(22) 0.002141 367.2 25.5
450(21) 0.002222 367.3 24.9
446(21) 0.002242 367.4 24.4
453(21) 0.002208 367.5 23.8
441(21) 0.002268 367.7 23.3
440(21) 0.002273 367.8 22.7
453(21) 0.002208 367.9 22.3
448(21) 0.002232 368.0 21.8
467(22) 0.002141 368.1 21.4
411(20) 0.002433 368.2 21.0
459(21) 0.002179 368.3 20.6
457(21) 0.002188 368.5 20.3
441(21) 0.002268 368.6 20.0
476(22) 0.002101 368.7 19.7
441(21) 0.002268 368.8 20.6
504(22) 0.001984 368.9 20.4
467(22) 0.002141 369.0 20.2
471(22) 0.002123 369.2 20.1
424(21) 0.002358 369.3 20.0
505(22) 0.001980 369.4 19.9
423(21) 0.002364 369.5 19.9
441(21) 0.002268 369.6 20.0
428(21) 0.002336 369.7 20.1
470(22) 0.002128 369.9 20.2
428(21) 0.002336 370.0 20.3
446(21) 0.002242 370.1 20.5
444(21) 0.002252 370.2 20.8
457(21) 0.002188 370.3 21.2
421(21) 0.002375 370.4 21.6
410(20) 0.002439 370.6 22.2
415(20) 0.002410 370.7 22.8
412(20) 0.002427 370.8 23.7
405(20) 0.002469 370.9 24.6
386(20) 0.002591 371.0 25.8
426(21) 0.002347 371.1 27.1
402(20) 0.002488 371.3 28.7
437(21) 0.002288 371.4 30.5
422(21) 0.002370 371.5 32.5
434(21) 0.002304 371.6 34.8
413(20) 0.002421 371.7 37.3
411(20) 0.002433 371.8 39.8
401(20) 0.002494 371.9 42.5
386(20) 0.002591 372.1 45.0
413(20) 0.002421 372.2 47.2
404(20) 0.002475 372.3 48.9
415(20) 0.002410 372.4 49.8
422(21) 0.002370 372.5 49.8
454(21) 0.002203 372.6 49.0
419(20) 0.002387 372.8 47.4
432(21) 0.002315 372.9 45.1
433(21) 0.002309 373.0 42.6
381(20) 0.002625 373.1 39.8
429(21) 0.002331 373.2 37.1
408(20) 0.002451 373.3 34.5
408(20) 0.002451 373.5 32.1
407(20) 0.002457 373.6 29.9
385(20) 0.002597 373.7 27.9
411(20) 0.002433 373.8 26.2
459(21) 0.002179 373.9 24.7
430(21) 0.002326 374.0 23.4
417(20) 0.002398 374.2 22.2
399(20) 0.002506 374.3 21.2
413(20) 0.002421 374.4 20.4
445(21) 0.002247 374.5 19.7
463(22) 0.002160 374.6 19.1
389(20) 0.002571 374.7 18.5
354(19) 0.002825 374.9 18.1
417(20) 0.002398 375.0 17.7
397(20) 0.002519 375.1 17.4
384(20) 0.002604 375.2 17.1
400(20) 0.002500 375.3 16.8
381(20) 0.002625 375.4 16.6
365(19) 0.002740 375.5 16.4
386(20) 0.002591 375.7 16.3
396(20) 0.002525 375.8 16.1
374(19) 0.002674 375.9 16.0
363(19) 0.002755 376.0 15.9
399(20) 0.002506 376.2 15.8
407(20) 0.002457 376.4 15.7
390(20) 0.002564 376.7 15.7
396(20) 0.002525 376.9 15.6
361(19) 0.002770 377.2 15.6
349(19) 0.002865 377.4 15.5
369(19) 0.002710 377.6 15.5
370(19) 0.002703 377.9 15.5
365(19) 0.002740 378.1 15.5
389(20) 0.002571 378.3 15.5
327(18) 0.003058 378.6 15.5
403(20) 0.002481 378.8 15.5
379(19) 0.002639 379.0 15.6
355(19) 0.002817 379.3 15.6
373(19) 0.002681 379.5 15.6
356(19) 0.002809 379.7 15.7
370(19) 0.002703 380.0 15.7
336(18) 0.002976 380.2 15.8
364(19) 0.002747 380.4 15.8
379(19) 0.002639 380.7 15.9
362(19) 0.002762 380.9 16.0
369(19) 0.002710 381.1 16.1
386(20) 0.002591 381.4 16.1
374(19) 0.002674 381.6 16.2
385(20) 0.002597 381.8 16.3
391(20) 0.002558 382.1 16.4
378(19) 0.002646 382.3 16.5
371(19) 0.002695 382.5 16.6
379(19) 0.002639 382.8 16.8
394(20) 0.002538 383.0 16.9
345(19) 0.002899 383.2 17.0
353(19) 0.002833 383.5 17.1
361(19) 0.002770 383.7 17.3
385(20) 0.002597 383.9 17.4
364(19) 0.002747 384.2 17.6
372(19) 0.002688 384.4 17.7
389(20) 0.002571 384.6 17.9
367(19) 0.002725 384.9 18.1
379(19) 0.002639 385.1 18.5
374(19) 0.002674 385.3 18.7
361(19) 0.002770 385.6 18.9
366(19) 0.002732 385.8 19.1
353(19) 0.002833 386.0 19.4
375(19) 0.002667 386.3 19.6
365(19) 0.002740 386.5 19.9
405(20) 0.002469 386.8 20.1
374(19) 0.002674 387.0 20.4
380(19) 0.002632 387.2 20.7
383(20) 0.002611 387.5 21.0
345(19) 0.002899 387.7 21.3
381(20) 0.002625 387.9 21.6
390(20) 0.002564 388.2 22.0
429(21) 0.002331 388.4 22.4
392(20) 0.002551 388.6 22.7
414(20) 0.002415 388.9 23.2
403(20) 0.002481 389.1 24.6
396(20) 0.002525 389.3 25.0
397(20) 0.002519 389.6 25.5
462(21) 0.002164 389.8 26.0
463(22) 0.002160 390.0 26.6
437(21) 0.002288 390.3 27.1
431(21) 0.002320 390.5 27.7
422(21) 0.002370 390.7 28.3
409(20) 0.002445 391.0 28.9
390(20) 0.002564 391.2 29.6
366(19) 0.002732 391.4 30.3
419(20) 0.002387 391.7 31.0
391(20) 0.002558 391.9 31.8
389(20) 0.002571 392.1 32.7
394(20) 0.002538 392.4 33.5
379(19) 0.002639 392.6 34.4
391(20) 0.002558 392.8 35.2
375(19) 0.002667 393.1 36.1
406(20) 0.002463 393.3 37.0
354(19) 0.002825 393.5 37.9
404(20) 0.002475 393.8 38.7
387(20) 0.002584 394.0 39.5
378(19) 0.002646 394.2 40.2
374(19) 0.002674 394.5 40.9
392(20) 0.002551 394.7 41.4
390(20) 0.002564 394.9 41.9
377(19) 0.002653 395.2 42.3
397(20) 0.002519 395.4 43.0
419(20) 0.002387 395.6 43.3
398(20) 0.002513 395.9 43.5
422(21) 0.002370 396.1 43.7
406(20) 0.002463 396.3 44.0
383(20) 0.002611 396.6 44.2
399(20) 0.002506 396.8 44.4
383(20) 0.002611 397.1 44.7
392(20) 0.002551 397.3 45.0
373(19) 0.002681 397.5 45.4
406(20) 0.002463 397.8 45.8
397(20) 0.002519 398.0 46.3
419(20) 0.002387 398.2 46.9
409(20) 0.002445 398.5 47.5
414(20) 0.002415 398.7 48.2
398(20) 0.002513 398.9 48.9
396(20) 0.002525 399.2 49.7
375(19) 0.002667 399.4 50.6
397(20) 0.002519 399.6 51.6
404(20) 0.002475 399.9 52.6
405(20) 0.002469 400.1 53.8
402(20) 0.002488 400.3 55.0
428(21) 0.002336 400.6 56.2
388(20) 0.002577 400.8 57.6
427(21) 0.002342 401.0 59.0
407(20) 0.002457 401.3 60.6
428(21) 0.002336 401.5 62.2
418(20) 0.002392 401.7 64.0
444(21) 0.002252 402.0 65.8
447(21) 0.002237 402.2 67.8
416(20) 0.002404 402.4 69.8
436(21) 0.002294 402.7 72.0
459(21) 0.002179 402.9 74.4
439(21) 0.002278 403.1 76.8
444(21) 0.002252 403.4 79.5
412(20) 0.002427 403.6 82.2
441(21) 0.002268 403.8 85.2
445(21) 0.002247 404.1 88.4
475(22) 0.002105 404.3 91.8
465(22) 0.002151 404.5 95.4
465(22) 0.002151 404.8 99.2
463(22) 0.002160 405.0 103.3
467(22) 0.002141 405.2 107.7
449(21) 0.002227 405.5 112.4
474(22) 0.002110 405.7 117.5
503(22) 0.001988 405.9 122.9
473(22) 0.002114 406.2 128.8
478(22) 0.002092 406.4 135.2
516(23) 0.001938 406.6 142.0
533(23) 0.001876 406.9 149.5
529(23) 0.001890 407.1 157.6
543(23) 0.001842 407.4 166.4
588(24) 0.001701 407.6 176.0
586(24) 0.001706 407.8 186.6
601(25) 0.001664 408.1 198.2
592(24) 0.001689 408.3 210.9
592(24) 0.001689 408.5 225.1
624(25) 0.001603 408.8 240.9
623(25) 0.001605 409.0 258.5
667(26) 0.001499 409.2 278.3
695(26) 0.001439 409.5 300.6
716(27) 0.001397 409.7 326.1
822(29) 0.001217 409.9 355.3
865(29) 0.001156 410.2 389.0
857(29) 0.001167 410.4 428.2
887(30) 0.001127 410.6 474.1
966(31) 0.001035 410.9 528.3
1069(33) 0.000935 411.1 592.9
1115(33) 0.000897 411.3 670.3
1270(36) 0.000787 412. 764.
1356(37) 0.000737 412. 877.
1543(39) 0.000648 412. 1014.
1679(41) 0.000596 412. 1181.
1877(43) 0.000533 413. 1382.
2129(46) 0.000470 413. 1622.
2467(50) 0.000405 413. 1903.
2728(52) 0.000367 413. 2223.
3132(56) 0.0003193 413. 2571.
3523(59) 0.0002838 414. 2920.
3899(62) 0.0002565 414. 3223.
4123(64) 0.0002425 414. 3417.
3969(63) 0.0002520 414. 3449.
3684(61) 0.0002714 415. 3311.
3382(58) 0.0002957 415. 3045.
3024(55) 0.0003307 415. 2714.
2648(51) 0.000378 415. 2376.
2474(50) 0.000404 416. 2063.
2282(48) 0.000438 416. 1790.
2075(46) 0.000482 416. 1562.
1892(43) 0.000529 416. 1376.
1724(42) 0.000580 416. 1231.
1666(41) 0.000600 417. 1120.
1591(40) 0.000629 417. 1041.
1577(40) 0.000634 417. 988.
1548(39) 0.000646 417. 961.
1596(40) 0.000627 418. 955.
1449(38) 0.000690 418. 971.
1544(39) 0.000648 418. 1007.
1553(39) 0.000644 418. 1062.
1650(41) 0.000606 419. 1136.
1705(41) 0.000587 419. 1225.
1723(42) 0.000580 419. 1324.
1897(44) 0.000527 419. 1425.
1920(44) 0.000521 420. 1518.
1948(44) 0.000513 420. 1594.
2075(46) 0.000482 420. 1645.
2105(46) 0.000475 420. 1665.
2075(46) 0.000482 420. 1650.
1912(44) 0.000523 421. 1597.
1988(45) 0.000503 421. 1506.
1877(43) 0.000533 421. 1383.
1800(42) 0.000556 421. 1242.
1563(40) 0.000640 422. 1097.
1422(38) 0.000703 422. 959.
1273(36) 0.000786 422. 834.
1148(34) 0.000871 422.3 724.6
994(32) 0.001006 422.6 631.2
956(31) 0.001046 422.8 552.4
920(30) 0.001087 423.0 486.6
859(29) 0.001164 423.3 431.8
814(29) 0.001228 423.5 386.3
805(28) 0.001242 423.7 348.3
731(27) 0.001368 424.0 316.5
741(27) 0.001350 424.2 289.6
681(26) 0.001468 424.4 266.7
651(26) 0.001536 424.7 247.0
627(25) 0.001595 424.9 229.8
665(26) 0.001504 425.1 214.7
625(25) 0.001600 425.4 201.4
582(24) 0.001718 425.6 189.4
567(24) 0.001764 425.8 178.8
549(23) 0.001822 426.1 169.2
595(24) 0.001681 426.3 160.5
534(23) 0.001873 426.5 152.6
521(23) 0.001919 426.8 145.4
528(23) 0.001894 427.0 138.9
531(23) 0.001883 427.3 132.9
546(23) 0.001832 427.5 127.4
475(22) 0.002105 427.7 122.3
504(22) 0.001984 428.0 117.7
511(23) 0.001957 428.2 113.5
470(22) 0.002128 428.4 109.6
535(23) 0.001869 428.7 106.0
454(21) 0.002203 428.9 102.7
480(22) 0.002083 429.1 99.7
471(22) 0.002123 429.4 96.9
497(22) 0.002012 429.6 94.4
479(22) 0.002088 429.8 92.1
493(22) 0.002028 430.1 90.0
490(22) 0.002041 430.3 88.2
461(21) 0.002169 430.5 86.5
463(22) 0.002160 430.8 85.1
446(21) 0.002242 431.0 83.8
486(22) 0.002058 431.2 82.8
438(21) 0.002283 431.5 82.0
482(22) 0.002075 431.7 81.3
489(22) 0.002045 431.9 80.9
491(22) 0.002037 432.2 80.7
479(22) 0.002088 432.4 80.8
502(22) 0.001992 432.6 81.2
451(21) 0.002217 432.9 81.8
459(21) 0.002179 433.1 83.1
485(22) 0.002062 433.3 84.5
493(22) 0.002028 433.6 86.4
474(22) 0.002110 433.8 88.8
488(22) 0.002049 434.0 91.7
522(23) 0.001916 434.3 95.5
533(23) 0.001876 434.5 100.2
536(23) 0.001866 434.7 106.1
534(23) 0.001873 435.0 113.5
584(24) 0.001712 435.2 122.9
584(24) 0.001712 435.4 135.2
607(25) 0.001647 435.7 151.2
649(25) 0.001541 435.9 172.5
662(26) 0.001511 436.1 201.0
716(27) 0.001397 436.4 238.8
784(28) 0.001276 436.6 288.3
866(29) 0.001155 436.8 352.0
972(31) 0.001029 437.1 430.7
1060(33) 0.000943 437.3 522.2
1151(34) 0.000869 437.6 616.7
1220(35) 0.000820 437.8 693.2
1211(35) 0.000826 438.0 724.8
1201(35) 0.000833 438.3 697.4
1122(33) 0.000891 438.5 622.9
974(31) 0.001027 438.7 528.1
920(30) 0.001087 439.0 436.5
856(29) 0.001168 439.2 355.5
770(28) 0.001299 439.4 289.7
729(27) 0.001372 439.7 238.1
709(27) 0.001410 439.9 198.5
722(27) 0.001385 440.1 168.5
677(26) 0.001477 440.4 145.7
705(27) 0.001418 440.6 128.2
665(26) 0.001504 440.8 114.7
718(27) 0.001393 441.1 104.1
666(26) 0.001501 441.3 95.5
716(27) 0.001397 441.5 88.5
737(27) 0.001357 441.8 82.6
666(26) 0.001501 442.0 77.7
681(26) 0.001468 442.2 73.6
622(25) 0.001608 442.5 70.0
598(24) 0.001672 442.7 66.9
611(25) 0.001637 442.9 64.2
567(24) 0.001764 443.2 61.8
589(24) 0.001698 443.4 59.8
517(23) 0.001934 443.6 58.0
509(23) 0.001965 443.9 56.4
510(23) 0.001961 444.1 55.0
515(23) 0.001942 444.3 53.7
499(22) 0.002004 444.6 52.6
475(22) 0.002105 444.8 51.7
514(23) 0.001946 445.0 50.8
484(22) 0.002066 445.3 50.0
446(21) 0.002242 445.5 49.4
464(22) 0.002155 445.7 48.8
447(21) 0.002237 446.0 48.2
447(21) 0.002237 446.2 47.8
462(21) 0.002164 446.4 47.4
423(21) 0.002364 446.7 47.0
467(22) 0.002141 446.9 46.8
462(21) 0.002164 447.2 46.5
420(20) 0.002381 447.4 46.3
432(21) 0.002315 447.5 46.2
437(21) 0.002288 447.5 46.1
461(21) 0.002169 447.4 46.0
441(21) 0.002268 447.3 46.0
425(21) 0.002353 447.2 46.0
445(21) 0.002247 447.1 46.1
409(20) 0.002445 447.0 46.1
434(21) 0.002304 446.9 46.3
427(21) 0.002342 446.9 46.4
433(21) 0.002309 446.8 46.6
413(20) 0.002421 446.7 46.8
441(21) 0.002268 446.6 47.0
434(21) 0.002304 446.5 47.3
442(21) 0.002262 446.4 47.6
461(21) 0.002169 446.3 48.0
448(21) 0.002232 446.3 48.3
464(22) 0.002155 446.2 48.7
451(21) 0.002217 446.1 49.2
434(21) 0.002304 446.0 49.6
437(21) 0.002288 445.9 50.2
422(21) 0.002370 445.8 50.7
440(21) 0.002273 445.8 51.3
434(21) 0.002304 445.7 51.9
426(21) 0.002347 445.6 52.6
482(22) 0.002075 445.5 53.3
446(21) 0.002242 445.4 54.0
451(21) 0.002217 445.3 54.8
459(21) 0.002179 445.2 55.6
439(21) 0.002278 445.2 56.5
441(21) 0.002268 445.1 57.4
481(22) 0.002079 445.0 58.4
450(21) 0.002222 444.9 59.4
438(21) 0.002283 444.8 60.5
486(22) 0.002058 444.7 61.7
467(22) 0.002141 444.6 62.8
484(22) 0.002066 444.6 64.1
511(23) 0.001957 444.5 65.4
472(22) 0.002119 444.4 66.8
492(22) 0.002033 444.3 68.3
513(23) 0.001949 444.2 69.8
502(22) 0.001992 444.1 71.4
504(22) 0.001984 444.1 73.2
506(22) 0.001976 444.0 74.9
476(22) 0.002101 443.9 76.8
490(22) 0.002041 443.8 78.8
457(21) 0.002188 443.7 80.9
486(22) 0.002058 443.6 83.1
490(22) 0.002041 443.5 85.4
538(23) 0.001859 443.5 87.9
529(23) 0.001890 443.4 90.4
458(21) 0.002183 443.3 93.1
508(23) 0.001968 443.2 96.0
478(22) 0.002092 443.1 99.0
504(22) 0.001984 443.0 102.1
511(23) 0.001957 442.9 105.4
522(23) 0.001916 442.9 108.9
518(23) 0.001931 442.8 112.6
533(23) 0.001876 442.7 116.5
542(23) 0.001845 442.6 120.6
584(24) 0.001712 442.5 124.9
541(23) 0.001848 442.4 129.4
486(22) 0.002058 442.4 134.2
565(24) 0.001770 442.3 139.3
578(24) 0.001730 442.2 144.7
575(24) 0.001739 442.1 150.3
554(24) 0.001805 442.0 156.3
575(24) 0.001739 441.9 162.6
559(24) 0.001789 441.8 169.3
570(24) 0.001754 441.8 176.4
574(24) 0.001742 441.7 183.9
603(25) 0.001658 441.6 191.9
633(25) 0.001580 441.5 200.3
608(25) 0.001645 441.4 209.4
653(26) 0.001531 441.3 219.1
623(25) 0.001605 441.2 229.7
678(26) 0.001475 441.2 241.3
666(26) 0.001501 441.1 254.0
674(26) 0.001484 441.0 268.3
717(27) 0.001395 440.9 284.3
699(26) 0.001431 440.8 302.6
723(27) 0.001383 440.7 323.7
734(27) 0.001362 440.6 348.2
801(28) 0.001248 440.6 377.0
826(29) 0.001211 440.5 411.3
848(29) 0.001179 440.4 452.8
928(30) 0.001078 440.3 503.6
971(31) 0.001030 440.2 567.3
1101(33) 0.000908 440.1 649.5
1210(35) 0.000826 440.1 759.4
1306(36) 0.000766 440. 912.
1572(40) 0.000636 440. 1132.
1817(43) 0.000550 440. 1454.
2304(48) 0.000434 440. 1917.
2780(53) 0.000360 440. 2539.
3486(59) 0.0002869 440. 3219.
4232(65) 0.0002363 439. 3607.
4173(65) 0.0002396 439. 3391.
3527(59) 0.0002835 439. 2786.
2848(53) 0.000351 439. 2179.
2456(50) 0.000407 439. 1722.
2171(47) 0.000461 439. 1412.
2018(45) 0.000496 439. 1208.
1803(42) 0.000555 439. 1074.
1637(40) 0.000611 439. 983.
1571(40) 0.000637 439. 918.
1468(38) 0.000681 439. 868.
1392(37) 0.000718 439. 828.
1386(37) 0.000722 438. 795.
1293(36) 0.000773 438. 766.
1205(35) 0.000830 438.3 740.3
1226(35) 0.000816 438.2 718.2
1222(35) 0.000818 438.1 698.9
1151(34) 0.000869 438.0 682.5
1107(33) 0.000903 437.9 669.0
1086(33) 0.000921 437.8 658.2
1036(32) 0.000965 437.8 650.3
1038(32) 0.000963 437.7 645.0
1056(32) 0.000947 437.6 642.2
1031(32) 0.000970 437.5 641.6
1028(32) 0.000973 437.4 643.0
1032(32) 0.000969 437.3 645.9
992(31) 0.001008 437.2 649.6
1035(32) 0.000966 437.2 653.7
982(31) 0.001018 437.1 657.4
987(31) 0.001013 437.0 660.1
1093(33) 0.000915 436.9 660.9
1052(32) 0.000951 436.8 659.4
1044(32) 0.000958 436.7 655.0
1049(32) 0.000953 436.7 647.7
1059(33) 0.000944 436.6 637.7
1003(32) 0.000997 436.5 625.5
1016(32) 0.000984 436.4 612.0
944(31) 0.001059 436.3 597.4
985(31) 0.001015 436.2 581.9
950(31) 0.001053 436.1 564.3
997(32) 0.001003 436.1 542.6
934(31) 0.001071 436.0 515.7
913(30) 0.001095 435.9 484.9
931(31) 0.001074 435.8 452.8
896(30) 0.001116 435.7 421.8
858(29) 0.001166 435.6 393.2
838(29) 0.001193 435.5 367.3
835(29) 0.001198 435.5 344.4
788(28) 0.001269 435.4 324.2
751(27) 0.001332 435.3 306.4
713(27) 0.001403 435.2 290.8
685(26) 0.001460 435.1 277.2
760(28) 0.001316 435.0 265.4
719(27) 0.001391 435.0 255.1
688(26) 0.001453 434.9 246.3
732(27) 0.001366 434.8 238.8
730(27) 0.001370 434.7 232.5
717(27) 0.001395 434.6 227.3
728(27) 0.001374 434.5 223.1
718(27) 0.001393 434.4 219.8
733(27) 0.001364 434.4 217.4
740(27) 0.001351 434.3 215.9
742(27) 0.001348 434.2 215.1
795(28) 0.001258 434.1 215.1
1027(32) 0.000974 434.0 215.5
1255(35) 0.000797 434. 217.
1172(34) 0.000853 433.8 219.3
954(31) 0.001048 433.8 222.4
921(30) 0.001086 433.7 226.3
805(28) 0.001242 433.6 231.1
787(28) 0.001271 433.5 236.8
763(28) 0.001311 433.4 243.6
774(28) 0.001292 433.3 251.6
786(28) 0.001272 433.2 260.9
797(28) 0.001255 433.2 271.7
761(28) 0.001314 433.1 284.2
816(29) 0.001225 433.0 298.7
844(29) 0.001185 432.9 315.5
881(30) 0.001135 432.8 334.7
916(30) 0.001092 432.7 356.8
967(31) 0.001034 432.7 382.1
952(31) 0.001050 432.6 411.0
955(31) 0.001047 432.5 443.7
1035(32) 0.000966 432.4 480.7
1098(33) 0.000911 432.3 522.2
1109(33) 0.000902 432.2 568.4
1166(34) 0.000858 432.1 619.4
1186(34) 0.000843 432.1 674.9
1267(36) 0.000789 432. 734.
1288(36) 0.000776 432. 797.
1373(37) 0.000728 432. 861.
1399(37) 0.000715 432. 924.
1476(38) 0.000678 432. 982.
1518(39) 0.000659 432. 1032.
1590(40) 0.000629 431. 1070.
1554(39) 0.000644 431. 1093.
1623(40) 0.000616 431. 1099.
1562(40) 0.000640 431. 1088.
1499(39) 0.000667 431. 1062.
1498(39) 0.000668 431. 1026.
1539(39) 0.000650 431. 982.
1375(37) 0.000727 431. 936.
1262(36) 0.000792 431. 889.
1298(36) 0.000770 431. 844.
1181(34) 0.000847 430.6 803.9
1155(34) 0.000866 430.5 768.5
1107(33) 0.000903 430.4 738.5
1088(33) 0.000919 430.4 714.5
1098(33) 0.000911 430.3 696.6
1022(32) 0.000978 430.2 684.7
1115(33) 0.000897 430.1 679.1
1088(33) 0.000919 430.0 679.9
1122(33) 0.000891 429.9 687.5
1120(33) 0.000893 429.8 702.4
1209(35) 0.000827 429.8 725.6
1222(35) 0.000818 429.7 758.0
1210(35) 0.000826 429.6 801.2
1307(36) 0.000765 430. 857.
1411(38) 0.000709 429. 927.
1498(39) 0.000668 429. 1014.
1578(40) 0.000634 429. 1119.
1639(40) 0.000610 429. 1242.
1802(42) 0.000555 429. 1379.
1937(44) 0.000516 429. 1523.
2009(45) 0.000498 429. 1657.
2153(46) 0.000464 429. 1763.
2177(47) 0.000459 429. 1824.
2246(47) 0.000445 429. 1840.
2263(48) 0.000442 429. 1829.
2248(47) 0.000445 428. 1810.
2265(48) 0.000442 428. 1802.
2193(47) 0.000456 428. 1815.
2425(49) 0.000412 428. 1855.
2408(49) 0.000415 428. 1920.
2608(51) 0.000383 428. 2010.
2693(52) 0.000371 428. 2121.
2820(53) 0.000355 428. 2247.
3135(56) 0.0003190 428. 2381.
3294(57) 0.0003036 428. 2513.
3330(58) 0.0003003 428. 2634.
3470(59) 0.0002882 428. 2736.
3539(59) 0.0002826 427. 2813.
3522(59) 0.0002839 427. 2858.
3529(59) 0.0002834 427. 2868.
3359(58) 0.0002977 427. 2841.
3277(57) 0.0003052 427. 2777.
3064(55) 0.0003264 427. 2680.
2966(54) 0.0003372 427. 2556.
2660(52) 0.000376 427. 2411.
2525(50) 0.000396 427. 2253.
2400(49) 0.000417 427. 2090.
2318(48) 0.000431 427. 1927.
2148(46) 0.000466 427. 1768.
1988(45) 0.000503 426. 1617.
1980(44) 0.000505 426. 1475.
1826(43) 0.000548 426. 1344.
1763(42) 0.000567 426. 1223.
1645(41) 0.000608 426. 1114.
1685(41) 0.000593 426. 1015.
1642(41) 0.000609 426. 927.
1477(38) 0.000677 426. 848.
1471(38) 0.000680 426. 778.
1389(37) 0.000720 426. 716.
1425(38) 0.000702 426. 662.
1296(36) 0.000772 426. 614.
1289(36) 0.000776 425. 573.
1239(35) 0.000807 425. 537.
1284(36) 0.000779 425. 505.
1202(35) 0.000832 425.2 477.7
1237(35) 0.000808 425. 453.
1196(35) 0.000836 425.0 430.4
1167(34) 0.000857 424.9 409.0
1164(34) 0.000859 424.8 388.4
1153(34) 0.000867 424.7 368.5
1126(34) 0.000888 424.7 349.4
1056(32) 0.000947 424.6 331.3
1108(33) 0.000903 424.5 314.5
1055(32) 0.000948 424.4 299.2
1026(32) 0.000975 424.3 285.2
1073(33) 0.000932 424.2 272.5
1005(32) 0.000995 424.1 261.2
1071(33) 0.000934 424.1 250.9
1022(32) 0.000978 424.0 241.7
966(31) 0.001035 423.9 233.4
1016(32) 0.000984 423.8 225.9
987(31) 0.001013 423.7 219.2
1026(32) 0.000975 423.6 213.0
1085(33) 0.000922 423.6 207.5
972(31) 0.001029 423.5 202.4
1035(32) 0.000966 423.4 197.8
1017(32) 0.000983 423.3 193.5
1119(33) 0.0 0.0 .
1098(33) 0.0 0.0 .
1130(34) 0.0 0.0 .
1216(35) 0.0 0.0 .
1178(34) 0.0 0.0 .
1254(35) 0.0 0. .
1308(36) 0.0 0. .
1266(36) 0.0 0. .
1344(37) 0.0 0. .
1495(39) 0.0 0. .
1425(38) 0.0 0. .
1436(38) 0.0 0. .
1484(39) 0.0 0. .
1427(38) 0.0 0. .
1417(38) 0.0 0. .
1399(37) 0.0 0. .
1400(37) 0.0 0. .
1462(38) 0.0 0. .
1419(38) 0.0 0. .
1445(38) 0.0 0. .
1499(39) 0.0 0. .
1477(38) 0.0 0. .
1489(39) 0.0 0. .
1524(39) 0.0 0. .
1547(39) 0.0 0. .
1732(42) 0.0 0. .
1670(41) 0.0 0. .
1766(42) 0.0 0. .
1925(44) 0.0 0. .
1985(45) 0.0 0. .
2113(46) 0.0 0. .
2232(47) 0.0 0. .
2383(49) 0.0 0. .
2472(50) 0.0 0. .
2680(52) 0.0 0. .
2902(54) 0.0 0. .
3150(56) 0.0 0. .
3398(58) 0.0 0. .
3690(61) 0.0 0. .
4061(64) 0.0 0. .
4626(68) 0.0 0. .
5132(72) 0.0 0. .
5649(75) 0.0 0. .
6507(81) 0.0 0. .
7580(87) 0.0 0. .
8605(93) 0.0 0. .
10330(100) 0.0 0. .
12490(110) 0.0 0. .
15470(120) 0.0 0. .
19280(140) 0.0 0. .
24400(160) 0.0 0. .
32720(180) 0.0 0. .
44540(210) 0.0 0. .
62940(250) 0.0 0. .
92280(300) 0.0 0. .
143420(380) 0.0 0. .
232520(480) 0.0 0. .
380830(620) 0.0 0. .
552730(740) 0.0 0. .
639950(800) 0.0 0. .
559110(750) 0.0 0. .
383330(620) 0.0 0. .
229980(480) 0.0 0. .
139580(370) 0.0 0. .
89900(300) 0.0 0. .
60280(250) 0.0 0. .
42740(210) 0.0 0. .
31110(180) 0.0 0. .
23950(160) 0.0 0. .
18280(140) 0.0 0. .
14670(120) 0.0 0. .
12110(110) 0.0 0. .
9777(99) 0.0 0. .
8241(91) 0.0 0. .
7120(84) 0.0 0. .
6234(79) 0.0 0. .
5397(73) 0.0 0. .
4840(70) 0.0 0. .
4264(65) 0.0 0. .
3867(62) 0.0 0. .
3537(59) 0.0 0. .
3142(56) 0.0 0. .
2966(54) 0.0 0. .
2686(52) 0.0 0. .
2511(50) 0.0 0. .
2336(48) 0.0 0. .
2141(46) 0.0 0. .
2039(45) 0.0 0. .
1912(44) 0.0 0. .
1827(43) 0.0 0. .
1670(41) 0.0 0. .
1523(39) 0.0 0. .
1476(38) 0.0 0. .
1474(38) 0.0 0. .
1390(37) 0.0 0. .
1317(36) 0.0 0. .
1265(36) 0.0 0. .
1180(34) 0.0 0.0 .
1126(34) 0.0 0.0 .
1087(33) 0.0 0.0 .
1045(32) 0.0 0.0 .
1036(32) 0.0 0.0 .
1032(32) 0.0 0.0 .
997(32) 0.0 0.0 .
992(31) 0.0 0.0 .
1001(32) 0.0 0.0 .
929(30) 0.0 0.0 .
905(30) 0.0 0.0 .
934(31) 0.0 0.0 .
823(29) 0.0 0.0 .
840(29) 0.0 0.0 .
868(29) 0.0 0.0 .
842(29) 0.0 0.0 .
832(29) 0.0 0.0 .
803(28) 0.0 0.0 .
765(28) 0.0 0.0 .
735(27) 0.0 0.0 .
788(28) 0.0 0.0 .
748(27) 0.0 0.0 .
767(28) 0.0 0.0 .
725(27) 0.001379 413.0 76.2
721(27) 0.001387 412.9 79.9
769(28) 0.001300 412.8 83.8
735(27) 0.001361 412.8 87.7
705(27) 0.001418 412.7 91.5
726(27) 0.001377 412.6 94.7
718(27) 0.001393 412.5 97.1
740(27) 0.001351 412.4 98.3
763(28) 0.001311 412.3 98.2
662(26) 0.001511 412.2 96.8
691(26) 0.001447 412.2 94.2
682(26) 0.001466 412.1 90.6
659(26) 0.001517 412.0 86.4
668(26) 0.001497 411.9 81.9
689(26) 0.001451 411.8 77.4
657(26) 0.001522 411.7 73.0
674(26) 0.001484 411.6 68.8
613(25) 0.001631 411.6 65.0
604(25) 0.001656 411.5 61.5
632(25) 0.001582 411.4 58.4
641(25) 0.001560 411.3 55.7
661(26) 0.001513 411.2 53.3
586(24) 0.001706 411.1 51.2
606(25) 0.001650 411.0 49.3
608(25) 0.001645 411.0 47.8
568(24) 0.001761 410.9 46.4
579(24) 0.001727 410.8 45.3
584(24) 0.001712 410.7 44.3
612(25) 0.001634 410.6 43.4
607(25) 0.001647 410.5 42.7
594(24) 0.001684 410.5 42.1
554(24) 0.001805 410.4 41.7
590(24) 0.001695 410.3 41.2
563(24) 0.001776 410.2 40.9
562(24) 0.001779 410.1 40.6
620(25) 0.001613 410.0 40.4
586(24) 0.001706 409.9 40.3
593(24) 0.001686 409.9 40.1
600(24) 0.001667 409.8 40.1
568(24) 0.001761 409.7 40.1
603(25) 0.001658 409.6 40.1
629(25) 0.001590 409.5 40.1
563(24) 0.001776 409.4 40.2
591(24) 0.001692 409.3 40.3
593(24) 0.001686 409.3 40.5
557(24) 0.001795 409.2 40.7
565(24) 0.001770 409.1 40.9
564(24) 0.001773 409.0 41.2
565(24) 0.001770 408.9 41.4
556(24) 0.001799 408.8 41.8
551(23) 0.001815 408.8 42.1
587(24) 0.001704 408.7 42.5
504(22) 0.001984 408.6 43.0
568(24) 0.001761 408.5 43.4
563(24) 0.001776 408.4 43.9
562(24) 0.001779 408.3 44.5
542(23) 0.001845 408.2 45.1
530(23) 0.001887 408.2 45.7
528(23) 0.001894 408.1 46.4
484(22) 0.002066 408.0 47.1
510(23) 0.001961 407.9 47.9
523(23) 0.001912 407.8 48.8
534(23) 0.001873 407.7 49.7
530(23) 0.001887 407.6 50.7
525(23) 0.001905 407.6 51.7
514(23) 0.001946 407.5 52.8
515(23) 0.001942 407.4 54.0
513(23) 0.001949 407.3 55.3
526(23) 0.001901 407.2 56.7
551(23) 0.001815 407.1 58.3
518(23) 0.001931 407.1 60.0
473(22) 0.002114 407.0 61.7
516(23) 0.001938 406.9 63.6
505(22) 0.001980 406.8 65.7
530(23) 0.001887 406.7 67.9
491(22) 0.002037 406.6 70.3
541(23) 0.001848 406.5 72.9
548(23) 0.001825 406.5 75.7
516(23) 0.001938 406.4 78.7
539(23) 0.001855 406.3 82.0
555(24) 0.001802 406.2 85.5
500(22) 0.002000 406.1 89.3
522(23) 0.001916 406.0 93.5
560(24) 0.001786 405.9 97.9
537(23) 0.001862 405.9 102.7
579(24) 0.001727 405.8 107.9
594(24) 0.001684 405.7 113.4
582(24) 0.001718 405.6 119.3
572(24) 0.001748 405.5 125.6
609(25) 0.001642 405.4 132.4
570(24) 0.001754 405.4 139.6
604(25) 0.001656 405.3 147.2
619(25) 0.001616 405.2 155.2
613(25) 0.001631 405.1 163.7
640(25) 0.001563 405.0 172.6
590(24) 0.001695 404.9 181.8
639(25) 0.001565 404.8 191.4
612(25) 0.001634 404.8 201.3
647(25) 0.001546 404.7 211.4
676(26) 0.001479 404.6 221.6
707(27) 0.001414 404.5 231.7
713(27) 0.001403 404.4 241.8
708(27) 0.001412 404.3 251.5
709(27) 0.001410 404.2 260.8
723(27) 0.001383 404.2 269.6
716(27) 0.001397 404.1 277.6
756(27) 0.001323 404.0 284.7
712(27) 0.001404 403.9 291.0
770(28) 0.001299 403.8 296.5
785(28) 0.001274 403.7 301.1
752(27) 0.001330 403.7 305.1
754(27) 0.001326 403.6 308.6
757(28) 0.001321 403.5 312.0
753(27) 0.001328 403.4 315.5
822(29) 0.001217 403.3 319.6
751(27) 0.001332 403.2 324.6
753(27) 0.001328 403.1 330.7
783(28) 0.001277 403.1 338.4
774(28) 0.001292 403.0 347.9
803(28) 0.001245 402.9 359.3
789(28) 0.001267 402.8 372.7
775(28) 0.001290 402.7 387.9
816(29) 0.001225 402.6 404.4
782(28) 0.001279 402.5 421.6
847(29) 0.001181 402.5 438.2
872(30) 0.001147 402.4 452.7
875(30) 0.001143 402.3 463.3
884(30) 0.001131 402.2 468.2
838(29) 0.001193 402.1 466.5
841(29) 0.001189 402.0 457.7
820(29) 0.001220 401.9 442.8
770(28) 0.001299 401.9 423.0
774(28) 0.001292 401.8 400.3
775(28) 0.001290 401.7 376.4
700(26) 0.001429 401.6 352.6
687(26) 0.001456 401.5 330.1
711(27) 0.001406 401.4 309.4
664(26) 0.001506 401.4 290.9
671(26) 0.001490 401.3 274.9
672(26) 0.001488 401.2 261.3
657(26) 0.001522 401.1 250.0
616(25) 0.001623 401.0 241.1
623(25) 0.001605 400.9 234.3
634(25) 0.001577 400.8 229.6
651(26) 0.001536 400.8 226.9
652(26) 0.001534 400.7 226.1
664(26) 0.001506 400.6 227.2
664(26) 0.001506 400.5 230.3
683(26) 0.001464 400.4 235.4
643(25) 0.001555 400.3 242.8
706(27) 0.001416 400.2 252.9
740(27) 0.001351 400.2 265.8
762(28) 0.001312 400.1 282.2
809(28) 0.001236 400.0 302.5
828(29) 0.001208 399.9 326.9
803(28) 0.001245 399.8 355.8
928(30) 0.001078 399.7 388.6
988(31) 0.001012 399.7 423.8
970(31) 0.001031 399.6 458.1
989(31) 0.001011 399.5 486.1
1023(32) 0.000978 399.4 501.7
995(32) 0.001005 399.3 501.3
952(31) 0.001050 399.2 485.8
947(31) 0.001056 399.1 460.5
871(30) 0.001148 399.1 431.3
817(29) 0.001224 399.0 402.7
807(28) 0.001239 398.9 377.1
793(28) 0.001261 398.8 355.3
791(28) 0.001264 398.7 337.5
746(27) 0.001340 398.6 323.2
717(27) 0.001395 398.5 312.0
702(26) 0.001424 398.5 303.4
719(27) 0.001391 398.4 296.8
685(26) 0.001460 398.3 291.8
668(26) 0.001497 398.2 288.0
650(25) 0.001538 398.1 285.2
674(26) 0.001484 398.0 283.2
630(25) 0.001587 398.0 281.7
645(25) 0.001550 397.9 280.8
687(26) 0.001456 397.8 280.4
649(25) 0.001541 397.7 280.4
610(25) 0.001639 397.6 280.8
638(25) 0.001567 397.5 281.8
667(26) 0.001499 397.4 283.2
638(25) 0.001567 397.4 285.1
651(26) 0.001536 397.3 287.6
697(26) 0.001435 397.2 290.6
669(26) 0.001495 397.1 294.3
723(27) 0.001383 397.0 298.6
669(26) 0.001495 396.9 303.5
699(26) 0.001431 396.8 309.1
750(27) 0.001333 396.8 315.1
785(28) 0.001274 396.7 321.5
795(28) 0.001258 396.6 328.0
761(28) 0.001314 396.5 334.2
838(29) 0.001193 396.4 339.4
823(29) 0.001215 396.3 343.0
776(28) 0.001289 396.3 344.1
833(29) 0.001200 396.2 342.4
836(29) 0.001196 396.1 337.6
747(27) 0.001339 396.0 330.4
783(28) 0.001277 395.9 321.2
762(28) 0.001312 395.8 311.0
810(28) 0.001235 395.7 300.2
710(27) 0.001408 395.7 289.3
716(27) 0.001397 395.6 278.7
713(27) 0.001403 395.5 268.4
685(26) 0.001460 395.4 258.6
661(26) 0.001513 395.3 249.4
665(26) 0.001504 395.2 240.8
634(25) 0.001577 395.1 232.7
589(24) 0.001698 395.1 225.2
617(25) 0.001621 395.0 218.4
591(24) 0.001692 394.9 212.1
627(25) 0.001595 394.8 206.4
583(24) 0.001715 394.7 201.3
607(25) 0.001647 394.6 196.7
581(24) 0.001721 394.5 192.7
572(24) 0.001748 394.5 189.1
504(22) 0.001984 394.4 186.0
574(24) 0.001742 394.3 183.3
565(24) 0.001770 394.2 181.1
580(24) 0.001724 394.1 179.2
582(24) 0.001718 394.0 177.5
599(24) 0.001669 394.0 176.1
587(24) 0.001704 393.9 174.9
598(24) 0.001672 393.8 173.8
617(25) 0.001621 393.7 172.7
606(25) 0.001650 393.6 171.7
599(24) 0.001669 393.5 170.8
554(24) 0.001805 393.4 169.9
630(25) 0.001587 393.4 169.0
612(25) 0.001634 393.3 168.4
600(24) 0.001667 393.2 168.0
609(25) 0.001642 393.1 167.8
558(24) 0.001792 393.0 168.1
593(24) 0.001686 392.9 168.9
604(25) 0.001656 392.8 170.3
626(25) 0.001597 392.8 172.3
598(24) 0.001672 392.7 175.1
591(24) 0.001692 392.6 178.7
620(25) 0.001613 392.5 183.3
652(26) 0.001534 392.4 188.8
644(25) 0.001553 392.3 195.4
695(26) 0.001439 392.3 203.1
690(26) 0.001449 392.2 211.9
701(26) 0.001427 392.1 221.7
690(26) 0.001449 392.0 232.5
720(27) 0.001389 391.9 244.1
752(27) 0.001330 391.8 255.9
742(27) 0.001348 391.7 267.6
740(27) 0.001351 391.7 278.1
780(28) 0.001282 391.6 286.5
738(27) 0.001355 391.5 291.7
742(27) 0.001348 391.4 293.1
718(27) 0.001393 391.3 290.3
732(27) 0.001366 391.2 283.9
731(27) 0.001368 391.1 274.7
675(26) 0.001481 391.1 263.8
706(27) 0.001416 391.0 252.3
675(26) 0.001481 390.9 240.9
613(25) 0.001631 390.8 230.2
592(24) 0.001689 390.7 220.7
649(25) 0.001541 390.6 212.5
578(24) 0.001730 390.6 205.7
611(25) 0.001637 390.5 200.5
612(25) 0.001634 390.4 196.8
592(24) 0.001689 390.3 194.8
601(25) 0.001664 390.2 194.5
632(25) 0.001582 390.1 195.9
606(25) 0.001650 390.0 199.3
615(25) 0.001626 390.0 204.8
610(25) 0.001639 389.9 212.8
669(26) 0.001495 389.8 223.5
694(26) 0.001441 389.7 237.4
703(27) 0.001422 389.6 255.2
757(28) 0.001321 389.5 277.3
804(28) 0.001244 389.4 304.6
795(28) 0.001258 389.4 337.7
865(29) 0.001156 389.3 377.5
961(31) 0.001041 389.2 424.4
1000(32) 0.001000 389.1 479.0
1067(33) 0.000937 389.0 541.2
1165(34) 0.000858 388.9 610.2
1257(35) 0.000796 389. 684.
1384(37) 0.000723 389. 758.
1491(39) 0.000671 389. 828.
1526(39) 0.000655 389. 883.
1539(39) 0.000650 389. 917.
1497(39) 0.000668 388. 923.
1396(37) 0.000716 388. 901.
1374(37) 0.000728 388. 855.
1251(35) 0.000799 388. 794.
1218(35) 0.000821 388.1 726.0
1126(34) 0.000888 388.0 658.1
1088(33) 0.000919 387.9 594.9
996(32) 0.001004 387.8 538.9
1038(32) 0.000963 387.7 491.4
958(31) 0.001044 387.7 452.5
953(31) 0.001049 387.6 421.7
946(31) 0.001057 387.5 398.4
971(31) 0.001030 387.4 381.3
930(30) 0.001075 387.3 369.5
964(31) 0.001037 387.2 361.7
966(31) 0.001035 387.1 357.4
973(31) 0.001028 387.1 355.8
909(30) 0.001100 387.0 356.8
984(31) 0.001016 386.9 360.0
990(31) 0.001010 386.8 364.7
985(31) 0.001015 386.7 370.2
1000(32) 0.001000 386.6 375.1
990(31) 0.001010 386.6 378.2
1011(32) 0.000989 386.5 378.1
1025(32) 0.000976 386.4 373.6
1002(32) 0.000998 386.3 364.2
975(31) 0.001026 386.2 350.3
879(30) 0.001138 386.1 332.5
792(28) 0.001263 386.0 312.1
803(28) 0.001245 386.0 290.3
795(28) 0.001258 385.9 268.1
744(27) 0.001344 385.8 246.5
687(26) 0.001456 385.7 225.9
656(26) 0.001524 385.6 206.7
630(25) 0.001587 385.5 189.1
587(24) 0.001704 385.4 173.2
617(25) 0.001621 385.4 158.9
585(24) 0.001709 385.3 146.2
605(25) 0.001653 385.2 134.9
504(22) 0.001984 385.1 125.0
568(24) 0.001761 385.0 116.2
499(22) 0.002004 384.9 108.6
459(21) 0.002179 384.9 101.9
460(21) 0.002174 384.8 96.0
506(22) 0.001976 384.7 90.9
472(22) 0.002119 384.6 86.5
511(23) 0.001957 384.5 82.6
501(22) 0.001996 384.4 79.2
457(21) 0.002188 384.3 76.3
459(21) 0.002179 384.3 73.7
422(21) 0.002370 384.2 71.5
409(20) 0.002445 384.1 69.5
432(21) 0.002315 384.0 67.9
439(21) 0.002278 383.9 66.6
454(21) 0.002203 383.8 65.4
436(21) 0.002294 383.7 64.6
420(20) 0.002381 383.7 63.9
432(21) 0.002315 383.6 63.5
459(21) 0.002179 383.5 63.4
444(21) 0.002252 383.4 63.5
435(21) 0.002299 383.3 63.8
408(20) 0.002451 383.2 64.3
455(21) 0.002198 383.2 65.1
461(21) 0.002169 383.1 66.2
446(21) 0.002242 383.0 67.6
397(20) 0.002519 382.9 69.2
449(21) 0.002227 382.8 71.2
428(21) 0.002336 382.7 73.4
425(21) 0.002353 382.6 76.0
431(21) 0.002320 382.6 79.0
432(21) 0.002315 382.5 82.2
421(21) 0.002375 382.4 85.8
434(21) 0.002304 382.3 89.7
480(22) 0.002083 382.2 93.8
459(21) 0.002179 382.1 98.2
440(21) 0.002273 382.0 102.8
453(21) 0.002208 382.0 107.4
456(21) 0.002193 381.9 112.0
492(22) 0.002033 381.8 116.4
440(21) 0.002273 381.7 120.4
481(22) 0.002079 381.6 123.9
465(22) 0.002151 381.5 126.6
472(22) 0.002119 381.5 128.5
474(22) 0.002110 381.4 129.3
486(22) 0.002058 381.3 129.0
512(23) 0.001953 381.2 127.6
486(22) 0.002058 381.1 125.1
429(21) 0.002331 381.0 121.8
509(23) 0.001965 380.9 117.8
475(22) 0.002105 380.9 113.2
468(22) 0.002137 380.8 108.2
449(21) 0.002227 380.7 103.1
437(21) 0.002288 380.6 97.9
461(21) 0.002169 380.5 92.8
443(21) 0.002257 380.4 87.9
440(21) 0.002273 380.3 83.2
437(21) 0.002288 380.3 78.7
371(19) 0.002695 380.2 74.6
430(21) 0.002326 380.1 70.7
431(21) 0.002320 380.0 67.2
378(19) 0.002646 379.9 63.9
393(20) 0.002545 379.8 60.9
424(21) 0.002358 379.7 58.2
409(20) 0.002445 379.7 55.8
378(19) 0.002646 379.6 53.6
395(20) 0.002532 379.5 51.6
380(19) 0.002632 379.4 49.9
383(20) 0.002611 379.3 48.4
414(20) 0.002415 379.2 47.0
404(20) 0.002475 379.2 45.9
388(20) 0.002577 379.1 44.8
384(20) 0.002604 379.0 43.9
402(20) 0.002488 378.9 43.1
364(19) 0.002747 378.8 42.4
389(20) 0.002571 378.7 41.8
401(20) 0.002494 378.6 41.4
386(20) 0.002591 378.6 40.9
411(20) 0.002433 378.5 40.6
404(20) 0.002475 378.4 40.3
381(20) 0.002625 378.4 40.1
397(20) 0.002519 378.4 39.9
392(20) 0.002551 378.3 39.7
411(20) 0.002433 378.3 39.6
353(19) 0.002833 378.3 39.5
422(21) 0.002370 378.3 39.5
405(20) 0.002469 378.2 39.4
382(20) 0.002618 378.2 39.4
402(20) 0.002488 378.2 39.4
431(21) 0.002320 378.2 39.3
389(20) 0.002571 378.1 39.3
405(20) 0.002469 378.1 39.3
397(20) 0.002519 378.1 39.3
407(20) 0.002457 378.1 39.3
353(19) 0.002833 378.0 39.2
393(20) 0.002545 378.0 39.1
371(19) 0.002695 378.0 39.1
384(20) 0.002604 378.0 39.0
378(19) 0.002646 377.9 38.8
417(20) 0.002398 377.9 38.7
391(20) 0.002558 377.9 38.5
386(20) 0.002591 377.9 38.3
401(20) 0.002494 377.8 38.1
382(20) 0.002618 377.8 37.8
388(20) 0.002577 377.8 37.6
430(21) 0.002326 377.8 37.3
410(20) 0.002439 377.7 36.9
413(20) 0.002421 377.7 36.6
425(21) 0.002353 377.7 36.2
357(19) 0.002801 377.7 35.8
400(20) 0.002500 377.6 35.4
406(20) 0.002463 377.6 35.0
402(20) 0.002488 377.6 34.6
353(19) 0.002833 377.6 34.2
428(21) 0.002336 377.6 33.7
359(19) 0.002786 377.5 33.3
379(19) 0.002639 377.5 32.9
377(19) 0.002653 377.5 32.4
385(20) 0.002597 377.5 32.0
391(20) 0.002558 377.4 31.7
388(20) 0.002577 377.4 31.3
390(20) 0.002564 377.4 30.9
373(19) 0.002681 377.4 30.5
398(20) 0.002513 377.3 30.1
413(20) 0.002421 377.3 29.7
410(20) 0.002439 377.3 29.3
401(20) 0.002494 377.3 28.9
412(20) 0.002427 377.2 28.6
378(19) 0.002646 377.2 28.3
398(20) 0.002513 377.2 27.9
400(20) 0.002500 377.2 27.6
407(20) 0.002457 377.1 27.3
396(20) 0.002525 377.1 27.0
372(19) 0.002688 377.1 26.7
373(19) 0.002681 377.1 26.4
375(19) 0.002667 377.0 26.2
381(20) 0.002625 377.0 25.9
371(19) 0.002695 377.0 25.7
345(19) 0.002899 377.0 25.5
378(19) 0.002646 376.9 25.3
354(19) 0.002825 376.9 25.1
398(20) 0.002513 376.9 25.0
385(20) 0.002597 376.9 24.9
390(20) 0.002564 376.8 24.8
365(19) 0.002740 376.8 24.7
375(19) 0.002667 376.8 24.5
376(19) 0.002660 376.8 24.4
375(19) 0.002667 376.7 24.4
387(20) 0.002584 376.7 24.3
380(19) 0.002632 376.7 24.2
393(20) 0.002545 376.7 24.2
388(20) 0.002577 376.6 24.2
386(20) 0.002591 376.6 24.2
390(20) 0.002564 376.6 24.2
367(19) 0.002725 376.6 24.2
392(20) 0.002551 376.6 24.2
404(20) 0.002475 376.5 24.3
402(20) 0.002488 376.5 24.4
395(20) 0.002532 376.5 24.5
435(21) 0.002299 376.5 24.6
402(20) 0.002488 376.4 24.7
430(21) 0.002326 376.4 24.8
391(20) 0.002558 376.4 25.0
407(20) 0.002457 376.4 25.2
389(20) 0.002571 376.3 25.4
412(20) 0.002427 376.3 25.6
413(20) 0.002421 376.3 25.9
405(20) 0.002469 376.3 26.2
415(20) 0.002410 376.2 26.5
408(20) 0.002451 376.2 26.9
413(20) 0.002421 376.2 27.3
397(20) 0.002519 376.2 27.7
387(20) 0.002584 376.1 28.2
369(19) 0.002710 376.1 28.8
410(20) 0.002439 376.1 29.4
394(20) 0.002538 376.1 30.1
394(20) 0.002538 376.0 30.9
372(19) 0.002688 376.2 31.9
395(20) 0.002532 376.3 32.9
371(19) 0.002695 376.4 34.2
415(20) 0.002410 376.5 35.7
399(20) 0.002506 376.6 37.4
430(21) 0.002326 376.7 39.5
416(20) 0.002404 376.8 41.9
399(20) 0.002506 377.0 44.9
441(21) 0.002268 377.1 48.5
435(21) 0.002299 377.2 52.8
448(21) 0.002232 377.3 57.9
429(21) 0.002331 377.4 63.8
465(22) 0.002151 377.5 70.7
476(22) 0.002101 377.7 78.4
508(23) 0.001968 377.8 86.7
502(22) 0.001992 377.9 95.2
499(22) 0.002004 378.0 103.1
562(24) 0.001779 378.1 109.1
527(23) 0.001898 378.2 112.2
574(24) 0.001742 378.3 111.9
548(23) 0.001825 378.5 108.3
507(23) 0.001972 378.6 102.2
501(22) 0.001996 378.7 94.9
441(21) 0.002268 378.8 87.3
435(21) 0.002299 378.9 80.1
429(21) 0.002331 379.0 73.7
436(21) 0.002294 379.2 68.2
440(21) 0.002273 379.3 63.6
403(20) 0.002481 379.4 59.9
401(20) 0.002494 379.5 57.1
427(21) 0.002342 379.6 55.0
426(21) 0.002347 379.7 53.5
407(20) 0.002457 379.8 52.6
443(21) 0.002257 380.0 52.3
435(21) 0.002299 380.1 52.4
400(20) 0.002500 380.2 53.0
455(21) 0.002198 380.3 54.1
438(21) 0.002283 380.4 55.7
395(20) 0.002532 380.5 58.0
407(20) 0.002457 380.7 60.8
475(22) 0.002105 380.8 64.3
451(21) 0.002217 380.9 68.5
453(21) 0.002208 381.0 73.3
474(22) 0.002110 381.1 78.5
477(22) 0.002096 381.2 83.5
484(22) 0.002066 381.3 87.7
510(23) 0.001961 381.5 90.3
518(23) 0.001931 381.6 91.2
529(23) 0.001890 381.7 91.0
540(23) 0.001852 381.8 90.4
519(23) 0.001927 381.9 90.3
484(22) 0.002066 382.0 91.2
488(22) 0.002049 382.2 93.4
478(22) 0.002092 382.3 97.2
529(23) 0.001890 382.4 102.6
548(23) 0.001825 382.5 109.9
503(22) 0.001988 382.6 119.1
496(22) 0.002016 382.7 130.4
497(22) 0.002012 382.8 143.7
551(23) 0.001815 383.0 159.1
603(25) 0.001658 383.1 176.3
615(25) 0.001626 383.2 194.5
647(25) 0.001546 383.3 212.6
685(26) 0.001460 383.4 228.8
656(26) 0.001524 383.5 240.7
646(25) 0.001548 383.7 246.5
652(26) 0.001534 383.8 245.0
616(25) 0.001623 383.9 236.8
633(25) 0.001580 384.0 223.7
601(25) 0.001664 384.1 207.9
578(24) 0.001730 384.2 191.4
581(24) 0.001721 384.3 175.7
571(24) 0.001751 384.5 161.5
564(24) 0.001773 384.6 149.1
550(23) 0.001818 384.7 138.8
537(23) 0.001862 384.8 130.3
515(23) 0.001942 384.9 123.6
517(23) 0.001934 385.0 118.5
530(23) 0.001887 385.2 114.8
524(23) 0.001908 385.3 112.2
530(23) 0.001887 385.4 110.8
492(22) 0.002033 385.5 110.1
530(23) 0.001887 385.6 110.3
527(23) 0.001898 385.7 111.1
529(23) 0.001890 385.8 112.5
550(23) 0.001818 386.0 114.5
502(22) 0.001992 386.1 116.8
555(24) 0.001802 386.2 119.6
556(24) 0.001799 386.3 122.8
559(24) 0.001789 386.4 126.3
547(23) 0.001828 386.5 130.2
511(23) 0.001957 386.7 134.5
539(23) 0.001855 386.8 139.2
562(24) 0.001779 386.9 144.4
577(24) 0.001733 387.0 150.0
561(24) 0.001783 387.1 156.2
556(24) 0.001799 387.2 163.0
603(25) 0.001658 387.3 170.4
569(24) 0.001757 387.5 178.5
574(24) 0.001742 387.6 187.3
576(24) 0.001736 387.7 196.8
642(25) 0.001558 387.8 207.2
622(25) 0.001608 387.9 218.5
645(25) 0.001550 388.0 230.8
655(26) 0.001527 388.2 244.0
696(26) 0.001437 388.3 258.3
726(27) 0.001377 388.4 273.8
718(27) 0.001393 388.5 290.4
723(27) 0.001383 388.6 308.2
748(27) 0.001337 388.7 327.2
801(28) 0.001248 388.9 347.5
798(28) 0.001253 389.0 368.9
841(29) 0.001189 389.1 391.5
896(30) 0.001116 389.2 415.0
895(30) 0.001117 389.3 439.4
978(31) 0.001022 389.4 464.3
974(31) 0.001027 389.5 489.3
1026(32) 0.000975 389.7 514.0
1094(33) 0.000914 389.8 537.7
1061(33) 0.000943 389.9 559.9
1089(33) 0.000918 390.0 580.0
1139(34) 0.000878 390.1 597.5
1142(34) 0.000876 390.2 611.9
1125(34) 0.000889 390.4 623.0
1094(33) 0.000914 390.5 631.0
1119(33) 0.000894 390.6 636.0
1147(34) 0.000872 390.7 638.3
1147(34) 0.000872 390.8 638.2
1102(33) 0.000907 390.9 636.0
1082(33) 0.000924 391.0 631.7
1098(33) 0.000911 391.2 625.4
1124(34) 0.000890 391.3 617.0
1092(33) 0.000916 391.4 606.3
1044(32) 0.000958 391.5 593.3
1075(33) 0.000930 391.6 577.9
1039(32) 0.000962 391.7 560.1
990(31) 0.001010 391.9 540.4
978(31) 0.001022 392.0 519.1
956(31) 0.001046 392.1 496.6
876(30) 0.001142 392.2 473.4
881(30) 0.001135 392.3 450.0
833(29) 0.001200 392.4 426.8
838(29) 0.001193 392.5 404.1
767(28) 0.001304 392.7 382.1
813(29) 0.001230 392.8 361.1
788(28) 0.001269 392.9 341.2
764(28) 0.001309 393.0 322.3
791(28) 0.001264 393.1 304.7
782(28) 0.001279 393.2 288.1
878(30) 0.001139 393.4 272.8
843(29) 0.001186 393.5 258.5
1171(34) 0.000854 393.6 245.3
814(29) 0.001228 393.7 233.1
865(29) 0.001156 393.8 221.8
685(26) 0.001460 393.9 211.5
703(27) 0.001422 394.0 202.0
702(26) 0.001424 394.2 193.3
615(25) 0.001626 394.3 185.4
594(24) 0.001684 394.4 178.2
612(25) 0.001634 394.5 171.6
594(24) 0.001684 394.6 165.6
590(24) 0.001695 394.7 160.2
555(24) 0.001802 394.9 155.4
566(24) 0.001767 395.0 151.0
591(24) 0.001692 395.1 147.2
567(24) 0.001764 395.2 143.7
572(24) 0.001748 395.3 140.7
530(23) 0.001887 395.4 138.1
560(24) 0.001786 395.5 135.9
547(23) 0.001828 395.7 134.0
487(22) 0.002053 395.8 132.4
525(23) 0.001905 395.9 131.1
534(23) 0.001873 396.0 130.1
556(24) 0.001799 396.1 129.3
540(23) 0.001852 396.2 128.7
566(24) 0.001767 396.4 128.2
526(23) 0.001901 396.5 127.8
498(22) 0.002008 396.6 127.4
557(24) 0.001795 396.7 126.9
496(22) 0.002016 396.8 126.3
529(23) 0.001890 396.9 125.5
542(23) 0.001845 397.0 124.6
483(22) 0.002070 397.2 123.3
501(22) 0.001996 397.3 121.8
545(23) 0.001835 397.4 120.1
480(22) 0.002083 397.5 118.2
483(22) 0.002070 397.6 116.2
475(22) 0.002105 397.7 114.0
467(22) 0.002141 397.9 111.8
490(22) 0.002041 398.0 109.7
462(21) 0.002164 398.1 107.6
490(22) 0.002041 398.2 105.6
513(23) 0.001949 398.3 103.8
470(22) 0.002128 398.4 102.2
470(22) 0.002128 398.5 100.7
471(22) 0.002123 398.7 99.5
460(21) 0.002174 398.8 98.4
447(21) 0.002237 398.9 97.6
456(21) 0.002193 399.0 97.1
451(21) 0.002217 399.1 96.8
464(22) 0.002155 399.2 96.7
450(21) 0.002222 399.4 96.8
467(22) 0.002141 399.5 97.2
481(22) 0.002079 399.6 97.8
482(22) 0.002075 399.7 98.7
443(21) 0.002257 399.8 99.7
449(21) 0.002227 399.9 101.0
480(22) 0.002083 400.0 102.4
464(22) 0.002155 400.2 104.0
476(22) 0.002101 400.3 105.7
470(22) 0.002128 400.4 107.6
456(21) 0.002193 400.5 109.6
447(21) 0.002237 400.6 111.6
461(21) 0.002169 400.7 113.7
464(22) 0.002155 400.9 115.9
469(22) 0.002132 401.0 118.2
480(22) 0.002083 401.1 120.6
507(23) 0.001972 401.2 123.1
460(21) 0.002174 401.3 125.8
554(24) 0.001805 401.4 128.6
495(22) 0.002020 401.5 131.6
477(22) 0.002096 401.7 134.8
519(23) 0.001927 401.8 138.2
510(23) 0.001961 401.9 141.7
517(23) 0.001934 402.0 145.4
565(24) 0.001770 402.1 149.3
517(23) 0.001934 402.2 153.4
492(22) 0.002033 402.4 157.6
562(24) 0.001779 402.5 162.0
562(24) 0.001779 402.6 166.5
536(23) 0.001866 402.7 171.2
541(23) 0.001848 402.8 176.0
569(24) 0.001757 402.9 181.1
571(24) 0.001751 403.0 186.3
558(24) 0.001792 403.2 191.9
629(25) 0.001590 403.3 197.9
589(24) 0.001698 403.4 204.3
620(25) 0.001613 403.5 211.3
624(25) 0.001603 403.6 219.1
646(25) 0.001548 403.7 227.6
656(26) 0.001524 403.9 237.1
674(26) 0.001484 404.0 247.6
697(26) 0.001435 404.1 259.1
714(27) 0.001401 404.2 271.3
746(27) 0.001340 404.3 283.6
794(28) 0.001259 404.4 295.0
792(28) 0.001263 404.5 304.2
778(28) 0.001285 404.7 309.6
775(28) 0.001290 404.8 310.0
761(28) 0.001314 404.9 305.4
711(27) 0.001406 405.0 296.8
700(26) 0.001429 405.1 285.6
681(26) 0.001468 405.2 273.3
657(26) 0.001522 405.4 261.0
680(26) 0.001471 405.5 249.4
627(25) 0.001595 405.6 238.7
601(25) 0.001664 405.7 229.2
628(25) 0.001592 405.8 220.8
619(25) 0.001616 405.9 213.3
610(25) 0.001639 406.0 206.8
620(25) 0.001613 406.2 201.1
605(25) 0.001653 406.3 196.1
583(24) 0.001715 406.4 191.7
575(24) 0.001739 406.5 187.9
585(24) 0.001709 406.6 184.5
602(25) 0.001661 406.7 181.6
566(24) 0.001767 406.9 179.0
581(24) 0.001721 407.0 176.8
603(25) 0.001658 407.1 174.8
570(24) 0.001754 407.2 173.1
566(24) 0.001767 407.3 171.7
563(24) 0.001776 407.4 170.6
548(23) 0.001825 407.5 169.9
575(24) 0.001739 407.7 169.7
546(23) 0.001832 407.8 169.9
572(24) 0.001748 407.9 170.6
525(23) 0.001905 408.0 171.8
558(24) 0.001792 408.1 173.7
534(23) 0.001873 408.2 176.3
525(23) 0.001905 408.4 179.6
537(23) 0.001862 408.5 183.8
595(24) 0.001681 408.6 188.9
598(24) 0.001672 408.7 195.1
607(25) 0.001647 408.8 202.4
618(25) 0.001618 408.9 211.0
632(25) 0.001582 409.0 220.8
634(25) 0.001577 409.2 232.0
660(26) 0.001515 409.3 244.5
650(25) 0.001538 409.4 258.0
705(27) 0.001418 409.5 272.1
733(27) 0.001364 409.6 286.0
789(28) 0.001267 409.7 298.9
785(28) 0.001274 409.9 309.6
804(28) 0.001244 410.0 317.0
774(28) 0.001292 410.1 320.8
815(29) 0.001227 410.2 321.1
829(29) 0.001206 410.3 318.7
800(28) 0.001250 410.4 314.9
729(27) 0.001372 410.5 310.7
747(27) 0.001339 410.7 307.1
704(27) 0.001420 410.8 304.5
763(28) 0.001311 410.9 303.5
705(27) 0.001418 411.0 304.0
728(27) 0.001374 411.1 306.2
701(26) 0.001427 411.2 310.1
691(26) 0.001447 411.4 315.4
716(27) 0.001397 411.5 322.0
729(27) 0.001372 411.6 329.8
741(27) 0.001350 411.7 338.5
767(28) 0.001304 411.8 347.6
775(28) 0.001290 411.9 357.0
768(28) 0.001302 412.0 366.1
759(28) 0.001318 412.2 374.5
785(28) 0.001274 412.3 381.9
761(28) 0.001314 412.4 387.9
735(27) 0.001361 412.5 392.5
796(28) 0.001256 412.6 395.6
739(27) 0.001353 412.7 397.3
794(28) 0.001259 412.9 397.5
814(29) 0.001228 413.0 396.5
791(28) 0.001264 413.1 394.1
778(28) 0.001285 413.2 390.4
715(27) 0.001399 413.3 385.3
746(27) 0.001340 413.4 378.9
729(27) 0.001372 413.5 371.1
719(27) 0.001391 413.7 362.0
696(26) 0.001437 413.8 351.6
704(27) 0.001420 413.9 340.3
665(26) 0.001504 414.0 328.2
674(26) 0.001484 414.1 315.7
646(25) 0.001548 414.2 303.0
619(25) 0.001616 414.4 290.5
628(25) 0.001592 414.5 278.4
624(25) 0.001603 414.6 266.9
621(25) 0.001610 414.7 256.4
597(24) 0.001675 414.8 246.8
630(25) 0.001587 414.9 238.6
640(25) 0.001563 415.0 231.8
620(25) 0.001613 415.2 227.0
653(26) 0.001531 415.3 224.5
699(26) 0.001431 415.4 224.8
675(26) 0.001481 415.5 228.7
696(26) 0.001437 415.6 236.9
739(27) 0.001353 415.7 249.9
757(28) 0.001321 415.9 267.1
798(28) 0.001253 416.0 286.0
866(29) 0.001155 416.1 300.5
882(30) 0.001134 416.2 302.9
830(29) 0.001205 416.3 290.3
811(28) 0.001233 416.4 267.9
759(28) 0.001318 416.5 243.3
716(27) 0.001397 416.7 221.7
687(26) 0.001456 416.8 204.8
672(26) 0.001488 416.9 192.7
641(25) 0.001560 417.0 184.8
660(26) 0.001515 417.1 180.6
623(25) 0.001605 417.2 179.3
599(24) 0.001669 417.4 180.6
630(25) 0.001587 417.5 184.0
596(24) 0.001678 417.6 189.2
648(25) 0.001543 417.7 196.1
619(25) 0.001616 417.8 204.2
655(26) 0.001527 417.9 213.4
661(26) 0.001513 418.0 223.2
692(26) 0.001445 418.2 233.3
648(25) 0.001543 418.3 243.5
712(27) 0.001404 418.4 253.6
683(26) 0.001464 418.5 263.7
741(27) 0.001350 418.6 274.2
759(28) 0.001318 418.7 285.3
723(27) 0.001383 418.9 297.2
747(27) 0.001339 419.0 309.9
779(28) 0.001284 419.1 323.0
771(28) 0.001297 419.2 336.1
802(28) 0.001247 419.3 348.5
822(29) 0.001217 419.4 359.2
830(29) 0.001205 419.5 367.5
816(29) 0.001225 419.7 372.5
788(28) 0.001269 419.8 373.9
829(29) 0.001206 419.9 371.4
866(29) 0.001155 420.0 365.2
820(29) 0.001220 420.1 355.7
857(29) 0.001167 420.2 343.4
810(28) 0.001235 420.4 328.8
747(27) 0.001339 420.5 312.7
764(28) 0.001309 420.6 295.8
725(27) 0.001379 420.7 279.1
687(26) 0.001456 420.8 263.3
676(26) 0.001479 420.9 248.9
659(26) 0.001517 421.0 236.4
664(26) 0.001506 421.2 226.0
599(24) 0.001669 421.3 217.8
596(24) 0.001678 421.4 211.8
604(25) 0.001656 421.5 208.1
584(24) 0.001712 421.6 206.4
591(24) 0.001692 421.7 206.8
635(25) 0.001575 421.9 209.1
620(25) 0.001613 422.0 213.2
621(25) 0.001610 422.1 219.0
621(25) 0.001610 422.2 226.3
603(25) 0.001658 422.3 235.1
640(25) 0.001563 422.4 245.3
603(25) 0.001658 422.5 256.5
707(27) 0.001414 422.7 268.6
636(25) 0.001572 422.8 281.2
709(27) 0.001410 422.9 294.1
684(26) 0.001462 423.0 306.6
725(27) 0.001379 423.1 318.5
711(27) 0.001406 423.2 328.9
693(26) 0.001443 423.4 337.5
714(27) 0.001401 423.5 343.6
732(27) 0.001366 423.6 346.9
701(26) 0.001427 423.7 347.2
727(27) 0.001376 423.8 344.5
702(26) 0.001424 423.9 339.2
740(27) 0.001351 424.0 331.5
705(27) 0.001418 424.2 322.2
671(26) 0.001490 424.3 311.7
640(25) 0.001563 424.4 300.8
674(26) 0.001484 424.5 289.8
650(25) 0.001538 424.6 279.3
651(26) 0.001536 424.7 269.4
634(25) 0.001577 424.9 260.5
613(25) 0.001631 425.0 252.7
565(24) 0.001770 425.1 245.7
560(24) 0.001786 425.2 239.5
606(25) 0.001650 425.3 233.8
575(24) 0.001739 425.4 228.1
587(24) 0.001704 425.5 222.1
560(24) 0.001786 425.7 215.2
541(23) 0.001848 425.8 207.2
540(23) 0.001852 425.9 198.1
534(23) 0.001873 426.0 188.0
536(23) 0.001866 426.1 177.3
466(22) 0.002146 426.2 166.3
508(23) 0.001968 426.4 155.4
496(22) 0.002016 426.5 144.9
451(21) 0.002217 426.6 135.0
466(22) 0.002146 426.7 125.8
454(21) 0.002203 426.8 117.4
485(22) 0.002062 426.9 109.7
465(22) 0.002151 427.1 102.9
461(21) 0.002169 427.2 96.7
478(22) 0.002092 427.3 91.2
470(22) 0.002128 427.4 86.4
435(21) 0.002299 427.5 82.1
450(21) 0.002222 427.6 78.3
439(21) 0.002278 427.7 75.0
470(22) 0.002128 427.9 72.0
438(21) 0.002283 428.0 69.4
403(20) 0.002481 428.0 67.1
428(21) 0.002336 428.0 65.1
470(22) 0.002128 427.9 63.4
419(20) 0.002387 427.9 61.8
459(21) 0.002179 427.8 60.4
426(21) 0.002347 427.7 59.2
411(20) 0.002433 427.7 58.2
427(21) 0.002342 427.6 57.3
431(21) 0.002320 427.5 56.5
438(21) 0.002283 427.5 55.8
458(21) 0.002183 427.4 55.3
426(21) 0.002347 427.3 54.8
448(21) 0.002232 427.3 54.5
430(21) 0.002326 427.2 54.2
460(21) 0.002174 427.1 54.1
456(21) 0.002193 427.1 54.0
426(21) 0.002347 427.0 54.0
441(21) 0.002268 427.0 54.2
459(21) 0.002179 426.9 54.4
438(21) 0.002283 426.8 54.7
463(22) 0.002160 426.8 55.1
435(21) 0.002299 426.7 55.6
429(21) 0.002331 426.6 56.2
429(21) 0.002331 426.6 56.9
451(21) 0.002217 426.5 57.8
484(22) 0.002066 426.4 58.8
465(22) 0.002151 426.4 59.9
491(22) 0.002037 426.3 61.2
452(21) 0.002212 426.3 62.6
452(21) 0.002212 426.2 64.3
501(22) 0.001996 426.1 66.1
517(23) 0.001934 426.1 68.2
471(22) 0.002123 426.0 70.6
498(22) 0.002008 425.9 73.2
481(22) 0.002079 425.9 76.2
472(22) 0.002119 425.8 79.5
509(23) 0.001965 425.7 83.2
515(23) 0.001942 425.7 87.4
498(22) 0.002008 425.6 92.0
485(22) 0.002062 425.6 97.2
515(23) 0.001942 425.5 103.0
537(23) 0.001862 425.4 109.5
561(24) 0.001783 425.4 116.6
534(23) 0.001873 425.3 124.5
541(23) 0.001848 425.2 133.2
558(24) 0.001792 425.2 142.8
561(24) 0.001783 425.1 153.3
591(24) 0.001692 425.0 164.7
648(25) 0.001543 425.0 177.0
626(25) 0.001597 424.9 190.3
669(26) 0.001495 424.8 204.5
695(26) 0.001439 424.8 219.5
692(26) 0.001445 424.7 235.3
686(26) 0.001458 424.7 251.6
765(28) 0.001307 424.6 268.2
733(27) 0.001364 424.5 284.7
807(28) 0.001239 424.5 300.7
794(28) 0.001259 424.4 315.7
854(29) 0.001171 424.3 329.0
853(29) 0.001172 424.3 340.1
842(29) 0.001188 424.2 348.4
820(29) 0.001220 424.1 353.3
839(29) 0.001192 424.1 354.7
821(29) 0.001218 424.0 352.4
810(28) 0.001235 424.0 346.7
852(29) 0.001174 423.9 337.9
799(28) 0.001252 423.8 326.5
779(28) 0.001284 423.8 313.3
754(27) 0.001326 423.7 298.7
680(26) 0.001471 423.6 283.4
681(26) 0.001468 423.6 268.0
673(26) 0.001486 423.5 252.7
680(26) 0.001471 423.4 237.9
649(25) 0.001541 423.4 223.9
690(26) 0.001449 423.3 210.7
564(24) 0.001773 423.2 198.6
614(25) 0.001629 423.2 187.6
671(26) 0.001490 423.1 177.6
645(25) 0.001550 423.1 168.8
575(24) 0.001739 423.0 161.1
593(24) 0.001686 422.9 154.5
583(24) 0.001715 422.9 149.0
600(24) 0.001667 422.8 144.5
597(24) 0.001675 422.7 141.0
581(24) 0.001721 422.7 138.3
587(24) 0.001704 422.6 136.6
547(23) 0.001828 422.5 135.7
565(24) 0.001770 422.5 135.5
585(24) 0.001709 422.4 136.1
576(24) 0.001736 422.4 137.2
584(24) 0.001712 422.3 139.0
575(24) 0.001739 422.2 141.1
561(24) 0.001783 422.2 143.5
569(24) 0.001757 422.1 146.0
588(24) 0.001701 422.0 148.4
565(24) 0.001770 422.0 150.6
550(23) 0.001818 421.9 152.4
631(25) 0.001585 421.8 153.5
618(25) 0.001618 421.8 153.8
560(24) 0.001786 421.7 153.2
575(24) 0.001739 421.6 151.6
586(24) 0.001706 421.6 149.0
573(24) 0.001745 421.5 145.4
565(24) 0.001770 421.5 141.1
550(23) 0.001818 421.4 136.2
529(23) 0.001890 421.3 130.8
514(23) 0.001946 421.3 125.1
523(23) 0.001912 421.2 119.3
516(23) 0.001938 421.1 113.5
487(22) 0.002053 421.1 107.9
489(22) 0.002045 421.0 102.5
493(22) 0.002028 420.9 97.3
484(22) 0.002066 420.9 92.4
481(22) 0.002079 420.8 87.8
481(22) 0.002079 420.8 83.5
479(22) 0.002088 420.7 79.6
499(22) 0.002004 420.6 76.0
487(22) 0.002053 420.6 72.7
497(22) 0.002012 420.5 69.8
473(22) 0.002114 420.4 67.1
478(22) 0.002092 420.4 64.7
459(21) 0.002179 420.3 62.5
438(21) 0.002283 420.2 60.7
447(21) 0.002237 420.2 59.0
457(21) 0.002188 420.1 57.5
450(21) 0.002222 420.1 56.3
448(21) 0.002232 420.0 55.2
423(21) 0.002364 419.9 54.3
454(21) 0.002203 419.9 53.6
472(22) 0.002119 419.8 53.0
462(21) 0.002164 419.7 52.6
493(22) 0.002028 419.7 52.4
480(22) 0.002083 419.6 52.2
449(21) 0.002227 419.5 52.2
456(21) 0.002193 419.5 52.4
478(22) 0.002092 419.4 52.7
429(21) 0.002331 419.3 53.1
492(22) 0.002033 419.3 53.7
497(22) 0.002012 419.2 54.4
467(22) 0.002141 419.2 55.3
487(22) 0.002053 419.1 56.4
463(22) 0.002160 419.0 57.7
452(21) 0.002212 419.0 59.3
490(22) 0.002041 418.9 61.1
453(21) 0.002208 418.8 63.2
475(22) 0.002105 418.8 65.6
469(22) 0.002132 418.7 68.3
459(21) 0.002179 418.6 71.4
496(22) 0.002016 418.6 75.0
485(22) 0.002062 418.5 79.1
519(23) 0.001927 418.5 83.8
533(23) 0.001876 418.4 88.9
518(23) 0.001931 418.3 94.7
525(23) 0.001905 418.3 101.0
510(23) 0.001961 418.2 108.0
549(23) 0.001822 418.1 115.7
612(25) 0.001634 418.1 123.9
573(24) 0.001745 418.0 132.7
560(24) 0.001786 417.9 142.0
604(25) 0.001656 417.9 151.4
602(25) 0.001661 417.8 160.8
637(25) 0.001570 417.7 169.7
654(26) 0.001529 417.7 177.8
681(26) 0.001468 417.6 184.5
635(25) 0.001575 417.6 189.5
660(26) 0.001515 417.5 192.5
675(26) 0.001481 417.4 193.4
713(27) 0.001403 417.4 192.3
691(26) 0.001447 417.3 189.6
686(26) 0.001458 417.2 185.6
684(26) 0.001462 417.2 180.9
704(27) 0.001420 417.1 176.0
650(25) 0.001538 417.0 171.1
641(25) 0.001560 417.0 166.6
655(26) 0.001527 416.9 162.7
607(25) 0.001647 416.9 159.4
636(25) 0.001572 416.8 156.9
656(26) 0.001524 416.7 155.1
620(25) 0.001613 416.7 154.2
634(25) 0.001577 416.6 153.9
669(26) 0.001495 416.5 154.4
649(25) 0.001541 416.5 155.5
640(25) 0.001563 416.4 157.0
620(25) 0.001613 416.3 159.1
686(26) 0.001458 416.3 161.4
661(26) 0.001513 416.2 163.9
669(26) 0.001495 416.2 166.5
650(25) 0.001538 416.1 169.0
671(26) 0.001490 416.0 171.2
665(26) 0.001504 416.0 173.1
658(26) 0.001520 415.9 174.4
625(25) 0.001600 415.8 175.2
667(26) 0.001499 415.8 175.3
655(26) 0.001527 415.7 174.7
653(26) 0.001531 415.6 173.4
665(26) 0.001504 415.6 171.5
601(25) 0.001664 415.5 169.0
622(25) 0.001608 415.4 166.0
612(25) 0.001634 415.4 162.5
606(25) 0.001650 415.3 158.6
624(25) 0.001603 415.3 154.6
577(24) 0.001733 415.2 150.5
588(24) 0.001701 415.1 146.3
553(24) 0.001808 415.1 142.1
573(24) 0.001745 415.0 138.0
603(25) 0.001658 414.9 134.0
582(24) 0.001718 414.9 130.1
545(23) 0.001835 414.8 126.4
518(23) 0.001931 414.7 122.9
510(23) 0.001961 414.7 119.6
519(23) 0.001927 414.6 116.5
517(23) 0.001934 414.6 113.6
492(22) 0.002033 414.5 110.9
504(22) 0.001984 414.4 108.6
518(23) 0.001931 414.4 106.5
478(22) 0.002092 414.3 104.8
487(22) 0.002053 414.2 103.3
508(23) 0.001968 414.2 102.2
502(22) 0.001992 414.1 101.5
497(22) 0.002012 414.0 101.1
515(23) 0.001942 414.0 101.1
489(22) 0.002045 413.9 101.5
504(22) 0.001984 413.8 102.3
507(23) 0.001972 413.8 103.4
517(23) 0.001934 413.7 104.9
515(23) 0.001942 413.7 106.8
484(22) 0.002066 413.6 109.0
531(23) 0.001883 413.5 111.6
520(23) 0.001923 413.5 114.6
550(23) 0.001818 413.4 117.8
552(23) 0.001812 413.3 121.4
550(23) 0.001818 413.3 125.3
544(23) 0.001838 413.2 129.4
549(23) 0.001822 413.1 133.7
549(23) 0.001822 413.1 138.2
571(24) 0.001751 413.0 142.7
590(24) 0.001695 413.0 147.3
620(25) 0.001613 412.9 151.8
575(24) 0.001739 412.8 156.3
632(25) 0.001582 412.8 160.4
624(25) 0.001603 412.7 164.2
627(25) 0.001595 412.6 167.6
601(25) 0.001664 412.6 170.3
647(25) 0.001546 412.5 172.5
614(25) 0.001629 412.4 174.0
634(25) 0.001577 412.4 174.9
568(24) 0.001761 412.3 175.0
629(25) 0.001590 412.2 174.4
606(25) 0.001650 412.2 173.3
588(24) 0.001701 412.1 171.6
585(24) 0.001709 412.1 169.5
571(24) 0.001751 412.0 167.0
601(25) 0.001664 411.9 164.3
577(24) 0.001733 411.9 161.5
556(24) 0.001799 411.8 158.6
572(24) 0.001748 411.7 155.7
554(24) 0.001805 411.7 153.0
541(23) 0.001848 411.6 150.3
565(24) 0.001770 411.5 147.9
579(24) 0.001727 411.5 145.6
536(23) 0.001866 411.4 143.6
562(24) 0.001779 411.4 141.7
579(24) 0.001727 411.3 140.1
626(25) 0.001597 411.2 138.7
585(24) 0.001709 411.2 137.5
579(24) 0.001727 411.1 136.4
575(24) 0.001739 411.0 135.4
563(24) 0.001776 411.0 134.5
608(25) 0.001645 410.9 133.6
612(25) 0.001634 410.8 132.7
602(25) 0.001661 410.8 131.7
535(23) 0.001869 410.7 130.7
578(24) 0.001730 410.7 129.5
578(24) 0.001730 410.6 128.2
599(24) 0.001669 410.5 126.7
543(23) 0.001842 410.5 125.0
566(24) 0.001767 410.4 123.2
538(23) 0.001859 410.3 121.2
568(24) 0.001761 410.3 119.0
563(24) 0.001776 410.2 116.8
589(24) 0.001698 410.1 114.5
564(24) 0.001773 410.1 112.2
551(23) 0.001815 410.0 109.8
515(23) 0.001942 409.9 107.4
494(22) 0.002024 409.9 105.1
515(23) 0.001942 409.8 102.9
548(23) 0.001825 409.8 100.7
498(22) 0.002008 409.7 98.7
516(23) 0.001938 409.6 96.7
527(23) 0.001898 409.6 94.9
490(22) 0.002041 409.5 93.3
507(23) 0.001972 409.4 91.7
510(23) 0.001961 409.4 90.4
532(23) 0.001880 409.3 89.2
475(22) 0.002105 409.2 88.1
495(22) 0.002020 409.2 87.2
472(22) 0.002119 409.1 86.5
483(22) 0.002070 409.1 85.9
493(22) 0.002028 409.0 85.5
522(23) 0.001916 408.9 85.2
503(22) 0.001988 408.9 85.0
464(22) 0.002155 408.8 85.0
457(21) 0.002188 408.7 85.2
462(21) 0.002164 408.7 85.5
506(22) 0.001976 408.6 85.9
451(21) 0.002217 408.5 86.5
490(22) 0.002041 408.5 87.1
483(22) 0.002070 408.4 88.0
474(22) 0.002110 408.3 88.9
501(22) 0.001996 408.3 90.0
465(22) 0.002151 408.2 91.2
502(22) 0.001992 408.2 92.5
469(22) 0.002132 408.1 94.0
467(22) 0.002141 408.0 95.6
457(21) 0.002188 408.0 97.3
485(22) 0.002062 407.9 99.2
463(22) 0.002160 407.8 101.2
490(22) 0.002041 407.8 103.4
464(22) 0.002155 407.7 105.7
464(22) 0.002155 407.6 108.1
485(22) 0.002062 407.6 110.7
479(22) 0.002088 407.5 113.5
485(22) 0.002062 407.5 116.3
496(22) 0.002016 407.4 119.4
491(22) 0.002037 407.3 122.6
525(23) 0.001905 407.3 125.9
506(22) 0.001976 407.2 129.3
501(22) 0.001996 407.1 132.9
499(22) 0.002004 407.1 136.6
533(23) 0.001876 407.0 140.5
508(23) 0.001968 406.9 144.4
530(23) 0.001887 406.9 148.4
515(23) 0.001942 406.8 152.5
535(23) 0.001869 406.8 156.7
564(24) 0.001773 406.7 160.9
558(24) 0.001792 406.6 165.2
560(24) 0.001786 406.6 169.5
510(23) 0.001961 406.5 173.8
584(24) 0.001712 406.4 178.1
584(24) 0.001712 406.4 182.3
635(25) 0.001575 406.3 186.5
570(24) 0.001754 406.2 190.6
583(24) 0.001715 406.2 194.7
593(24) 0.001686 406.1 198.5
579(24) 0.001727 406.0 202.0
607(25) 0.001647 406.0 205.3
602(25) 0.001661 405.9 208.3
618(25) 0.001618 405.9 211.0
629(25) 0.001590 405.8 213.2
577(24) 0.001733 405.7 215.1
623(25) 0.001605 405.7 216.5
601(25) 0.001664 405.6 217.5
613(25) 0.001631 405.5 218.0
572(24) 0.001748 405.5 218.0
631(25) 0.001585 405.4 217.6
637(25) 0.001570 405.3 216.8
608(25) 0.001645 405.3 215.7
587(24) 0.001704 405.2 214.4
625(25) 0.001600 405.2 212.8
615(25) 0.001626 405.1 211.2
609(25) 0.001642 405.0 209.7
620(25) 0.001613 405.0 208.3
596(24) 0.001678 404.9 207.4
575(24) 0.001739 404.8 207.0
592(24) 0.001689 404.8 207.7
577(24) 0.001733 404.7 209.7
558(24) 0.001792 404.6 213.5
596(24) 0.001678 404.6 219.8
556(24) 0.001799 404.5 229.3
564(24) 0.001773 404.4 242.7
606(25) 0.001650 404.4 260.7
622(25) 0.001608 404.3 283.8
627(25) 0.001595 404.3 311.8
675(26) 0.001481 404.2 343.5
636(25) 0.001572 404.1 374.9
684(26) 0.001462 404.1 399.6
670(26) 0.001493 404.0 409.6
656(26) 0.001524 403.9 400.1
646(25) 0.001548 403.9 373.0
587(24) 0.001704 403.8 335.5
599(24) 0.001669 403.7 295.1
543(23) 0.001842 403.7 257.1
550(23) 0.001818 403.6 223.6
516(23) 0.001938 403.6 195.3
518(23) 0.001931 403.5 172.0
465(22) 0.002151 403.4 153.0
489(22) 0.002045 403.4 137.6
450(21) 0.002222 403.3 125.1
466(22) 0.002146 403.2 114.9
464(22) 0.002155 403.2 106.5
448(21) 0.002232 403.1 99.4
447(21) 0.002237 403.0 93.4
425(21) 0.002353 403.0 88.2
421(21) 0.002375 402.9 83.7
423(21) 0.002364 402.8 79.6
427(21) 0.002342 402.8 76.1
437(21) 0.002288 402.7 72.9
405(20) 0.002469 402.7 70.0
462(21) 0.002164 402.6 67.4
444(21) 0.002252 402.5 65.1
404(20) 0.002475 402.5 62.9
390(20) 0.002564 402.4 61.0
402(20) 0.002488 402.3 59.2
403(20) 0.002481 402.3 57.6
374(19) 0.002674 402.2 56.1
385(20) 0.002597 402.1 54.8
422(21) 0.002370 402.1 53.6
415(20) 0.002410 402.0 52.5
413(20) 0.002421 401.9 51.5
401(20) 0.002494 401.9 50.6
409(20) 0.002445 401.8 49.8
411(20) 0.002433 401.7 49.1
384(20) 0.002604 401.6 48.4
406(20) 0.002463 401.5 47.8
410(20) 0.002439 401.5 47.3
401(20) 0.002494 401.4 46.9
404(20) 0.002475 401.3 46.5
367(19) 0.002725 401.2 46.3
418(20) 0.002392 401.1 46.0
413(20) 0.002421 401.1 45.8
394(20) 0.002538 401.0 45.7
407(20) 0.002457 400.9 45.6
377(19) 0.002653 400.8 45.5
412(20) 0.002427 400.7 45.5
418(20) 0.002392 400.7 45.6
428(21) 0.002336 400.6 45.7
395(20) 0.002532 400.5 45.9
392(20) 0.002551 400.4 46.1
431(21) 0.002320 400.3 46.3
420(20) 0.002381 400.3 46.6
415(20) 0.002410 400.2 47.1
442(21) 0.002262 400.1 47.5
430(21) 0.002326 400.0 48.0
406(20) 0.002463 399.9 48.5
420(20) 0.002381 399.9 49.1
422(21) 0.002370 399.8 49.8
438(21) 0.002283 399.7 50.5
411(20) 0.002433 399.6 51.2
407(20) 0.002457 399.5 52.1
428(21) 0.002336 399.5 53.0
426(21) 0.002347 399.4 54.0
425(21) 0.002353 399.3 55.0
406(20) 0.002463 399.2 56.2
442(21) 0.002262 399.2 57.5
440(21) 0.002273 399.1 58.8
431(21) 0.002320 399.0 60.2
467(22) 0.002141 398.9 61.8
457(21) 0.002188 398.8 63.6
441(21) 0.002268 398.8 65.5
419(20) 0.002387 398.7 67.7
446(21) 0.002242 398.6 70.2
415(20) 0.002410 398.5 73.1
474(22) 0.002110 398.4 76.5
500(22) 0.002000 398.4 80.7
460(21) 0.002174 398.3 85.7
475(22) 0.002105 398.2 91.8
506(22) 0.001976 398.1 99.4
520(23) 0.001923 398.0 108.9
530(23) 0.001887 398.0 120.4
579(24) 0.001727 397.9 134.3
592(24) 0.001689 397.8 150.4
573(24) 0.001745 397.7 168.0
586(24) 0.001706 397.6 185.2
642(25) 0.001558 397.6 199.2
645(25) 0.001550 397.5 206.9
610(25) 0.001639 397.4 207.3
668(26) 0.001497 397.3 202.4
593(24) 0.001686 397.2 195.8
628(25) 0.001592 397.2 190.7
638(25) 0.001567 397.1 189.2
623(25) 0.001605 397.0 192.2
591(24) 0.001692 396.9 200.1
638(25) 0.001567 396.8 212.9
635(25) 0.001575 396.8 229.9
681(26) 0.001468 396.7 250.0
662(26) 0.001511 396.6 271.1
666(26) 0.001501 396.5 289.8
724(27) 0.001381 396.5 302.3
708(27) 0.001412 396.4 304.8
639(25) 0.001565 396.3 296.2
597(24) 0.001675 396.2 278.1
620(25) 0.001613 396.1 254.1
584(24) 0.001712 396.1 228.0
533(23) 0.001876 396.0 202.4
543(23) 0.001842 395.9 178.9
539(23) 0.001855 395.8 158.3
485(22) 0.002062 395.7 140.7
503(22) 0.001988 395.7 126.0
449(21) 0.002227 395.6 113.8
491(22) 0.002037 395.5 103.8
504(22) 0.001984 395.4 95.6
491(22) 0.002037 395.3 89.0
493(22) 0.002028 395.3 83.6
469(22) 0.002132 395.2 79.1
440(21) 0.002273 395.1 75.5
459(21) 0.002179 395.0 72.4
442(21) 0.002262 394.9 69.9
451(21) 0.002217 394.9 67.7
469(22) 0.002132 394.8 65.8
468(22) 0.002137 394.7 64.2
484(22) 0.002066 394.6 62.8
451(21) 0.002217 394.5 61.5
487(22) 0.002053 394.5 60.5
470(22) 0.002128 394.4 59.6
469(22) 0.002132 394.3 58.8
492(22) 0.002033 394.2 58.1
503(22) 0.001988 394.2 57.5
493(22) 0.002028 394.1 57.0
482(22) 0.002075 394.0 56.5
465(22) 0.002151 393.9 56.0
467(22) 0.002141 393.8 55.3
433(21) 0.002309 393.8 54.6
432(21) 0.002315 393.7 53.8
424(21) 0.002358 393.6 53.0
459(21) 0.002179 393.5 52.2
458(21) 0.002183 393.4 51.5
442(21) 0.002262 393.4 50.8
436(21) 0.002294 393.3 50.2
437(21) 0.002288 393.2 49.7
433(21) 0.002309 393.1 49.3
435(21) 0.002299 393.0 48.9
430(21) 0.002326 393.0 48.5
446(21) 0.002242 392.9 48.3
405(20) 0.002469 392.8 48.1
429(21) 0.002331 392.7 48.1
428(21) 0.002336 392.6 48.1
430(21) 0.002326 392.6 48.3
413(20) 0.002421 392.5 48.7
445(21) 0.002247 392.4 49.2
442(21) 0.002262 392.3 49.9
448(21) 0.002232 392.2 50.8
467(22) 0.002141 392.2 51.9
462(21) 0.002164 392.1 53.2
474(22) 0.002110 392.0 54.7
439(21) 0.002278 391.9 56.2
447(21) 0.002237 391.8 57.5
431(21) 0.002320 391.8 58.6
442(21) 0.002262 391.7 59.1
438(21) 0.002283 391.6 58.9
433(21) 0.002309 391.5 58.1
524(23) 0.001908 391.5 56.9
467(22) 0.002141 391.4 55.5
455(21) 0.002198 391.3 54.1
469(22) 0.002132 391.2 52.8
457(21) 0.002188 391.1 51.7
459(21) 0.002179 391.1 50.9
452(21) 0.002212 391.0 50.3
430(21) 0.002326 390.9 50.0
429(21) 0.002331 390.8 50.0
405(20) 0.002469 390.7 50.2
437(21) 0.002288 390.7 50.6
437(21) 0.002288 390.6 51.3
431(21) 0.002320 390.5 52.2
442(21) 0.002262 390.4 53.4
449(21) 0.002227 390.3 54.8
482(22) 0.002075 390.3 56.4
426(21) 0.002347 390.2 58.3
421(21) 0.002375 390.1 60.5
445(21) 0.002247 390.0 63.0
456(21) 0.002193 389.9 65.8
435(21) 0.002299 389.9 68.8
455(21) 0.002198 389.8 72.1
456(21) 0.002193 389.7 75.7
464(22) 0.002155 389.6 79.4
479(22) 0.002088 389.5 83.2
511(23) 0.001957 389.5 86.9
521(23) 0.001919 389.4 90.4
476(22) 0.002101 389.3 93.5
509(23) 0.001965 389.2 96.0
490(22) 0.002041 389.1 97.8
514(23) 0.001946 389.1 98.7
479(22) 0.002088 389.0 98.7
501(22) 0.001996 388.9 97.8
482(22) 0.002075 388.8 96.4
468(22) 0.002137 388.8 94.6
523(23) 0.001912 388.7 92.6
465(22) 0.002151 388.6 90.7
487(22) 0.002053 388.5 88.9
458(21) 0.002183 388.4 87.4
456(21) 0.002193 388.4 86.1
449(21) 0.002227 388.3 85.0
423(21) 0.002364 388.2 84.2
394(20) 0.002538 388.1 83.6
419(20) 0.002387 388.0 83.1
406(20) 0.002463 388.0 82.8
444(21) 0.002252 387.9 82.6
403(20) 0.002481 387.8 82.6
431(21) 0.002320 387.7 82.7
435(21) 0.002299 387.6 82.9
441(21) 0.002268 387.6 83.2
452(21) 0.002212 387.5 83.6
447(21) 0.002237 387.4 84.1
436(21) 0.002294 387.3 84.8
440(21) 0.002273 387.2 85.6
441(21) 0.002268 387.2 86.5
463(22) 0.002160 387.1 87.7
451(21) 0.002217 387.0 89.0
466(22) 0.002146 386.9 90.5
466(22) 0.002146 386.8 92.3
457(21) 0.002188 386.8 94.3
476(22) 0.002101 386.7 96.5
468(22) 0.002137 386.6 98.9
491(22) 0.002037 386.5 101.4
523(23) 0.001912 386.4 103.9
493(22) 0.002028 386.4 106.3
517(23) 0.001934 386.3 108.3
522(23) 0.001916 386.2 109.8
509(23) 0.001965 386.1 110.9
488(22) 0.002049 386.1 111.7
526(23) 0.001901 386.0 112.3
514(23) 0.001946 385.9 113.0
492(22) 0.002033 385.8 113.8
418(20) 0.002392 385.7 114.7
464(22) 0.002155 385.7 115.8
488(22) 0.002049 385.6 117.2
453(21) 0.002208 385.5 118.7
502(22) 0.001992 385.4 120.4
498(22) 0.002008 385.3 122.1
429(21) 0.002331 385.3 124.0
468(22) 0.002137 385.2 125.9
464(22) 0.002155 385.1 127.7
512(23) 0.001953 385.0 129.4
485(22) 0.002062 384.9 131.0
504(22) 0.001984 384.9 132.4
452(21) 0.002212 384.8 133.5
505(22) 0.001980 384.7 134.3
518(23) 0.001931 384.6 134.7
501(22) 0.001996 384.5 134.6
520(23) 0.001923 384.5 133.8
496(22) 0.002016 384.4 132.5
469(22) 0.002132 384.3 130.6
500(22) 0.002000 384.2 128.2
529(23) 0.001890 384.1 125.3
482(22) 0.002075 384.1 122.2
443(21) 0.002257 384.0 118.9
459(21) 0.002179 383.9 115.7
429(21) 0.002331 383.8 112.4
447(21) 0.002237 383.8 109.2
445(21) 0.002247 383.7 106.2
432(21) 0.002315 383.6 103.3
432(21) 0.002315 383.5 100.6
455(21) 0.002198 383.4 98.0
392(20) 0.002551 383.4 95.6
425(21) 0.002353 383.3 93.4
424(21) 0.002358 383.2 91.2
392(20) 0.002551 383.1 89.3
411(20) 0.002433 383.0 87.4
419(20) 0.002387 383.0 85.7
379(19) 0.002639 382.9 84.1
406(20) 0.002463 382.8 82.6
383(20) 0.002611 382.7 81.2
405(20) 0.002469 382.6 79.9
379(19) 0.002639 382.6 78.7
369(19) 0.002710 382.6 77.6
388(20) 0.002577 382.7 76.6
416(20) 0.002404 382.9 75.6
389(20) 0.002571 383.0 74.8
368(19) 0.002717 383.1 74.0
401(20) 0.002494 383.3 73.3
393(20) 0.002545 383.4 72.7
397(20) 0.002519 383.6 72.2
401(20) 0.002494 383.7 71.8
372(19) 0.002688 383.8 71.4
430(21) 0.002326 384.0 71.2
407(20) 0.002457 384.1 71.0
380(19) 0.002632 384.2 71.1
436(21) 0.002294 384.4 71.2
404(20) 0.002475 384.5 71.6
402(20) 0.002488 384.7 72.2
389(20) 0.002571 384.8 73.1
409(20) 0.002445 384.9 74.5
376(19) 0.002660 385.1 76.3
398(20) 0.002513 385.2 78.8
402(20) 0.002488 385.3 82.1
394(20) 0.002538 385.5 86.4
396(20) 0.002525 385.6 91.7
451(21) 0.002217 385.8 98.2
465(22) 0.002151 385.9 106.0
451(21) 0.002217 386.0 114.6
431(21) 0.002320 386.2 123.5
464(22) 0.002155 386.3 131.4
471(22) 0.002123 386.4 136.6
485(22) 0.002062 386.6 137.7
483(22) 0.002070 386.7 134.5
428(21) 0.002336 386.8 127.9
415(20) 0.002410 387.0 119.7
424(21) 0.002358 387.1 111.4
415(20) 0.002410 387.3 103.8
427(21) 0.002342 387.4 97.4
411(20) 0.002433 387.5 92.3
373(19) 0.002681 387.7 88.4
384(20) 0.002604 387.8 85.6
434(21) 0.002304 387.9 83.7
415(20) 0.002410 388.1 82.7
412(20) 0.002427 388.2 82.4
427(21) 0.002342 388.4 82.7
389(20) 0.002571 388.5 83.6
429(21) 0.002331 388.6 85.0
406(20) 0.002463 388.8 87.0
424(21) 0.002358 388.9 89.7
404(20) 0.002475 389.0 93.0
407(20) 0.002457 389.2 97.1
436(21) 0.002294 389.3 102.0
443(21) 0.002257 389.5 108.0
426(21) 0.002347 389.6 115.0
439(21) 0.002278 389.7 123.0
453(21) 0.002208 389.9 131.5
461(21) 0.002169 390.0 140.0
476(22) 0.002101 390.1 147.2
472(22) 0.002119 390.3 151.8
487(22) 0.002053 390.4 153.5
509(23) 0.001965 390.6 152.8
488(22) 0.002049 390.7 151.2
482(22) 0.002075 390.8 149.7
483(22) 0.002070 391.0 149.0
518(23) 0.001931 391.1 149.4
508(23) 0.001968 391.2 151.1
479(22) 0.002088 391.4 154.0
461(21) 0.002169 391.5 158.0
481(22) 0.002079 391.7 163.1
511(23) 0.001957 391.8 169.2
528(23) 0.001894 391.9 176.5
504(22) 0.001984 392.1 185.0
575(24) 0.001739 392.2 194.8
565(24) 0.001770 392.3 206.2
558(24) 0.001792 392.5 219.3
580(24) 0.001724 392.6 234.6
617(25) 0.001621 392.8 252.2
660(26) 0.001515 392.9 272.6
654(26) 0.001529 393.0 295.9
665(26) 0.001504 393.2 322.1
693(26) 0.001443 393.3 350.9
724(27) 0.001381 393.4 381.1
779(28) 0.001284 393.6 410.5
776(28) 0.001289 393.7 435.7
764(28) 0.001309 393.9 453.6
770(28) 0.001299 394.0 462.4
781(28) 0.001280 394.1 462.8
782(28) 0.001279 394.3 457.0
766(28) 0.001305 394.4 447.5
718(27) 0.001393 394.5 436.3
728(27) 0.001374 394.7 425.0
759(28) 0.001318 394.8 414.5
729(27) 0.001372 395.0 405.8
769(28) 0.001300 395.1 399.2
774(28) 0.001292 395.2 394.9
704(27) 0.001420 395.4 392.7
728(27) 0.001374 395.5 392.7
765(28) 0.001307 395.6 394.7
753(27) 0.001328 395.8 398.8
757(28) 0.001321 395.9 405.0
758(28) 0.001319 396.1 413.6
773(28) 0.001294 396.2 424.7
758(28) 0.001319 396.3 438.5
746(27) 0.001340 396.5 455.3
731(27) 0.001368 396.6 474.9
800(28) 0.001250 396.7 497.0
810(28) 0.001235 396.9 520.8
802(28) 0.001247 397.0 545.1
850(29) 0.001176 397.2 567.8
857(29) 0.001167 397.3 586.1
836(29) 0.001196 397.4 597.1
786(28) 0.001272 397.6 598.5
805(28) 0.001242 397.7 589.2
859(29) 0.001164 397.8 570.0
803(28) 0.001245 398.0 543.0
747(27) 0.001339 398.1 511.3
740(27) 0.001351 398.3 477.7
722(27) 0.001385 398.4 444.8
705(27) 0.001418 398.5 414.0
682(26) 0.001466 398.7 386.5
670(26) 0.001493 398.8 362.8
614(25) 0.001629 398.9 343.0
617(25) 0.001621 399.1 327.0
638(25) 0.001567 399.2 314.5
632(25) 0.001582 399.4 305.1
620(25) 0.001613 399.5 298.0
664(26) 0.001506 399.6 292.4
597(24) 0.001675 399.8 287.3
639(25) 0.001565 399.9 281.8
621(25) 0.001610 400.0 275.1
606(25) 0.001650 400.2 266.9
566(24) 0.001767 400.3 257.4
610(25) 0.001639 400.5 246.7
558(24) 0.001792 400.6 235.6
576(24) 0.001736 400.7 224.3
560(24) 0.001786 400.9 213.2
528(23) 0.001894 401.0 202.6
536(23) 0.001866 401.1 192.7
545(23) 0.001835 401.3 183.5
531(23) 0.001883 401.4 175.3
496(22) 0.002016 401.6 167.9
509(23) 0.001965 401.7 161.6
504(22) 0.001984 401.8 156.4
497(22) 0.002012 402.0 152.3
533(23) 0.001876 402.1 149.5
503(22) 0.001988 402.2 147.9
533(23) 0.001876 402.4 147.7
514(23) 0.001946 402.5 149.0
521(23) 0.001919 402.7 151.9
508(23) 0.001968 402.8 156.5
517(23) 0.001934 402.9 162.9
547(23) 0.001828 403.1 171.2
580(24) 0.001724 403.2 181.3
556(24) 0.001799 403.3 193.1
630(25) 0.001587 403.5 206.2
668(26) 0.001497 403.6 219.4
701(26) 0.001427 403.8 231.6
700(26) 0.001429 403.9 241.1
683(26) 0.001464 404.0 246.4
668(26) 0.001497 404.2 246.7
658(26) 0.001520 404.3 242.6
604(25) 0.001656 404.4 235.1
584(24) 0.001712 404.6 225.9
587(24) 0.001704 404.7 216.3
593(24) 0.001686 404.9 207.0
625(25) 0.001600 405.0 198.5
589(24) 0.001698 405.1 190.8
547(23) 0.001828 405.3 183.9
564(24) 0.001773 405.4 177.7
606(25) 0.001650 405.5 172.3
564(24) 0.001773 405.7 167.5
551(23) 0.001815 405.8 163.5
548(23) 0.001825 406.0 160.3
572(24) 0.001748 406.1 158.0
535(23) 0.001869 406.2 156.6
542(23) 0.001845 406.4 156.1
529(23) 0.001890 406.5 156.6
550(23) 0.001818 406.6 158.0
555(24) 0.001802 406.8 160.3
536(23) 0.001866 406.9 163.4
533(23) 0.001876 407.1 167.1
543(23) 0.001842 407.2 171.2
531(23) 0.001883 407.3 175.6
580(24) 0.001724 407.5 179.8
560(24) 0.001786 407.6 183.7
584(24) 0.001712 407.7 186.7
559(24) 0.001789 407.9 188.7
601(25) 0.001664 408.0 189.6
545(23) 0.001835 408.2 189.2
560(24) 0.001786 408.3 187.8
551(23) 0.001815 408.4 185.6
565(24) 0.001770 408.6 183.0
570(24) 0.001754 408.7 180.3
534(23) 0.001873 408.8 178.1
555(24) 0.001802 409.0 176.5
572(24) 0.001748 409.1 175.8
581(24) 0.001721 409.3 176.2
537(23) 0.001862 409.4 177.8
567(24) 0.001764 409.5 180.5
571(24) 0.001751 409.7 184.3
584(24) 0.001712 409.8 188.7
615(25) 0.001626 409.9 193.4
595(24) 0.001681 410.1 197.6
622(25) 0.001608 410.2 200.7
624(25) 0.001603 410.4 201.8
666(26) 0.001501 410.5 200.4
601(25) 0.001664 410.6 196.2
613(25) 0.001631 410.8 189.5
588(24) 0.001701 410.9 180.9
600(24) 0.001667 411.0 170.9
500(22) 0.002000 411.2 160.5
550(23) 0.001818 411.3 150.0
515(23) 0.001942 411.5 140.1
486(22) 0.002058 411.6 131.0
497(22) 0.002012 411.7 122.7
503(22) 0.001988 411.9 115.5
481(22) 0.002079 412.0 109.3
456(21) 0.002193 412.1 104.1
491(22) 0.002037 412.3 99.9
478(22) 0.002092 412.4 96.7
487(22) 0.002053 412.6 94.4
452(21) 0.002212 412.7 93.0
474(22) 0.002110 412.8 92.4
445(21) 0.002247 413.0 92.8
450(21) 0.002222 413.1 94.1
448(21) 0.002232 413.2 96.4
470(22) 0.002128 413.4 99.6
459(21) 0.002179 413.5 103.8
476(22) 0.002101 413.7 109.2
463(22) 0.002160 413.8 115.7
469(22) 0.002132 413.9 123.4
470(22) 0.002128 414.1 132.3
512(23) 0.001953 414.2 142.4
460(21) 0.002174 414.3 153.6
573(24) 0.001745 414.5 165.7
554(24) 0.001805 414.6 178.3
564(24) 0.001773 414.8 190.7
565(24) 0.001770 414.9 202.3
572(24) 0.001748 415.0 211.9
578(24) 0.001730 415.2 218.6
628(25) 0.001592 415.3 221.5
599(24) 0.001669 415.4 220.4
621(25) 0.001610 415.6 215.5
600(24) 0.001667 415.7 207.5
612(25) 0.001634 415.9 197.4
528(23) 0.001894 416.0 186.3
556(24) 0.001799 416.1 175.0
537(23) 0.001862 416.3 164.3
514(23) 0.001946 416.4 154.7
468(22) 0.002137 416.5 146.4
508(23) 0.001968 416.7 139.5
510(23) 0.001961 416.8 134.2
467(22) 0.002141 417.0 130.5
474(22) 0.002110 417.1 128.2
512(23) 0.001953 417.2 127.4
458(21) 0.002183 417.4 127.8
443(21) 0.002257 417.5 129.3
529(23) 0.001890 417.6 131.5
469(22) 0.002132 417.8 133.9
503(22) 0.001988 417.9 136.3
511(23) 0.001957 418.1 138.1
511(23) 0.001957 418.2 139.1
485(22) 0.002062 418.3 139.3
461(21) 0.002169 418.5 138.8
481(22) 0.002079 418.6 138.0
494(22) 0.002024 418.7 137.4
487(22) 0.002053 418.9 137.1
484(22) 0.002066 419.0 137.3
487(22) 0.002053 419.1 138.1
484(22) 0.002066 419.3 139.1
470(22) 0.002128 419.4 140.0
515(23) 0.001942 419.6 140.3
479(22) 0.002088 419.7 139.5
472(22) 0.002119 419.8 137.4
479(22) 0.002088 420.0 133.9
504(22) 0.001984 420.1 129.0
484(22) 0.002066 420.2 123.3
478(22) 0.002092 420.4 116.9
462(21) 0.002164 420.5 110.4
442(21) 0.002262 420.7 104.0
475(22) 0.002105 420.8 98.1
430(21) 0.002326 420.9 92.6
464(22) 0.002155 421.1 87.7
433(21) 0.002309 421.2 83.4
432(21) 0.002315 421.3 79.8
435(21) 0.002299 421.5 76.7
439(21) 0.002278 421.6 74.2
438(21) 0.002283 421.8 72.3
420(20) 0.002381 421.9 70.8
401(20) 0.002494 422.0 69.8
414(20) 0.002415 422.2 69.3
423(21) 0.002364 422.3 69.2
412(20) 0.002427 422.4 69.4
408(20) 0.002451 422.6 70.0
417(20) 0.002398 422.7 71.0
431(21) 0.002320 422.9 72.4
413(20) 0.002421 423.0 74.0
430(21) 0.002326 423.1 76.0
426(21) 0.002347 423.3 78.4
452(21) 0.002212 423.4 81.0
418(20) 0.002392 423.5 83.9
442(21) 0.002262 423.7 87.0
454(21) 0.002203 423.8 90.3
448(21) 0.002232 424.0 93.8
470(22) 0.002128 424.1 97.3
454(21) 0.002203 424.2 100.7
466(22) 0.002146 424.4 104.0
478(22) 0.002092 424.5 107.1
478(22) 0.002092 424.6 109.8
469(22) 0.002132 424.8 112.1
467(22) 0.002141 424.9 114.2
469(22) 0.002132 425.1 115.9
479(22) 0.002088 425.2 117.6
490(22) 0.002041 425.3 119.2
497(22) 0.002012 425.5 121.1
459(21) 0.002179 425.6 123.4
504(22) 0.001984 425.7 126.2
483(22) 0.002070 425.9 129.5
493(22) 0.002028 426.0 133.6
505(22) 0.001980 426.2 138.3
513(23) 0.001949 426.3 143.6
557(24) 0.001795 426.4 149.3
522(23) 0.001916 426.6 155.0
494(22) 0.002024 426.7 160.3
531(23) 0.001883 426.8 164.9
543(23) 0.001842 427.0 168.3
506(22) 0.001976 427.1 170.5
497(22) 0.002012 427.3 171.4
547(23) 0.001828 427.4 171.5
504(22) 0.001984 427.5 171.1
532(23) 0.001880 427.7 170.7
547(23) 0.001828 427.8 170.7
528(23) 0.001894 427.9 171.4
543(23) 0.001842 428.1 173.0
500(22) 0.002000 428.2 175.5
538(23) 0.001859 428.4 179.0
520(23) 0.001923 428.5 183.4
549(23) 0.001822 428.6 188.8
556(24) 0.001799 428.8 194.9
558(24) 0.001792 428.9 201.6
589(24) 0.001698 429.0 208.9
595(24) 0.001681 429.2 216.4
595(24) 0.001681 429.3 224.0
599(24) 0.001669 429.5 231.4
619(25) 0.001616 429.6 238.3
649(25) 0.001541 429.7 244.4
630(25) 0.001587 429.9 249.6
650(25) 0.001538 430.0 253.6
600(24) 0.001667 430.1 256.1
689(26) 0.001451 430.3 257.2
634(25) 0.001577 430.4 256.9
618(25) 0.001618 430.6 255.1
569(24) 0.001757 430.7 252.1
622(25) 0.001608 430.8 248.0
629(25) 0.001590 431.0 243.2
570(24) 0.001754 431.1 237.8
597(24) 0.001675 431.2 232.1
619(25) 0.001616 431.4 226.3
606(25) 0.001650 431.5 220.5
580(24) 0.001724 431.7 214.8
616(25) 0.001623 431.8 209.3
575(24) 0.001739 431.9 204.1
599(24) 0.001669 432.1 199.1
566(24) 0.001767 432.2 194.4
584(24) 0.001712 432.3 189.9
589(24) 0.001698 432.5 185.7
565(24) 0.001770 432.6 181.5
625(25) 0.001600 432.8 177.4
583(24) 0.001715 432.9 173.4
584(24) 0.001712 433.0 169.3
520(23) 0.001923 433.2 165.1
524(23) 0.001908 433.3 160.9
538(23) 0.001859 433.4 156.5
556(24) 0.001799 433.6 152.1
541(23) 0.001848 433.7 147.6
526(23) 0.001901 433.9 143.0
527(23) 0.001898 434.0 138.5
539(23) 0.001855 434.1 133.9
524(23) 0.001908 434.3 129.5
495(22) 0.002020 434.4 125.1
497(22) 0.002012 434.5 120.9
507(23) 0.001972 434.7 116.9
500(22) 0.002000 434.8 113.0
505(22) 0.001980 435.0 109.4
483(22) 0.002070 435.1 105.9
505(22) 0.001980 435.2 102.6
478(22) 0.002092 435.4 99.5
479(22) 0.002088 435.5 96.6
506(22) 0.001976 435.6 93.9
457(21) 0.002188 435.8 91.3
473(22) 0.002114 435.9 88.9
441(21) 0.002268 436.1 86.6
470(22) 0.002128 436.2 84.5
457(21) 0.002188 436.3 82.3
495(22) 0.002020 436.5 80.4
463(22) 0.002160 436.6 78.6
482(22) 0.002075 436.7 76.9
507(23) 0.001972 436.9 75.3
477(22) 0.002096 437.0 73.9
458(21) 0.002183 437.2 72.6
473(22) 0.002114 437.3 71.4
452(21) 0.002212 437.4 70.5
463(22) 0.002160 437.6 69.8
441(21) 0.002268 437.7 69.3
450(21) 0.002222 437.8 69.2
482(22) 0.002075 438.0 69.4
479(22) 0.002088 438.1 70.0
433(21) 0.002309 438.3 71.1
464(22) 0.002155 438.4 72.7
458(21) 0.002183 438.5 75.0
477(22) 0.002096 438.7 78.0
473(22) 0.002114 438.8 81.8
490(22) 0.002041 438.9 86.5
564(24) 0.001773 439.1 92.0
512(23) 0.001953 439.2 98.4
526(23) 0.001901 439.4 105.3
530(23) 0.001887 439.5 112.5
542(23) 0.001845 439.6 119.3
532(23) 0.001880 439.8 125.2
597(24) 0.001675 439.9 129.9
592(24) 0.001689 440.0 133.3
582(24) 0.001718 440.2 136.1
572(24) 0.001748 440.3 138.7
620(25) 0.001613 440.5 141.2
600(24) 0.001667 440.6 143.2
599(24) 0.001669 440.7 143.6
617(25) 0.001621 440.9 141.3
559(24) 0.001789 441.0 135.9
580(24) 0.001724 441.1 127.8
588(24) 0.001701 441.3 118.2
535(23) 0.001869 441.4 108.4
542(23) 0.001845 441.6 99.1
529(23) 0.001890 441.7 91.0
487(22) 0.002053 441.8 84.1
503(22) 0.001988 442.0 78.5
516(23) 0.001938 442.1 73.9
460(21) 0.002174 442.2 70.3
484(22) 0.002066 442.4 67.4
481(22) 0.002079 442.5 65.3
533(23) 0.001876 442.7 63.6
482(22) 0.002075 442.8 62.4
440(21) 0.002273 442.9 61.5
474(22) 0.002110 443.1 60.8
436(21) 0.002294 443.2 60.4
448(21) 0.002232 443.3 60.1
476(22) 0.002101 443.5 60.0
477(22) 0.002096 443.6 60.0
492(22) 0.002033 443.8 60.0
465(22) 0.002151 443.9 60.2
501(22) 0.001996 444.0 60.4
465(22) 0.002151 444.2 60.7
441(21) 0.002268 444.3 61.0
470(22) 0.002128 444.4 61.4
470(22) 0.002128 444.5 61.9
491(22) 0.002037 444.6 62.5
477(22) 0.002096 444.7 63.1
434(21) 0.002304 444.8 63.8
454(21) 0.002203 444.9 64.6
472(22) 0.002119 445.0 65.5
474(22) 0.002110 445.1 66.5
483(22) 0.002070 445.2 67.6
497(22) 0.002012 445.3 68.9
466(22) 0.002146 445.4 70.2
477(22) 0.002096 445.5 71.7
480(22) 0.002083 445.6 73.4
492(22) 0.002033 445.7 75.2
485(22) 0.002062 445.8 77.1
533(23) 0.001876 445.9 79.3
506(22) 0.001976 446.0 81.7
532(23) 0.001880 446.1 84.3
515(23) 0.001942 446.2 87.1
559(24) 0.001789 446.3 90.3
544(23) 0.001838 446.5 93.8
582(24) 0.001718 446.6 97.6
553(24) 0.001808 446.7 102.0
554(24) 0.001805 446.8 106.8
566(24) 0.001767 446.9 112.2
596(24) 0.001678 447.0 118.2
619(25) 0.001616 447.1 125.0
642(25) 0.001558 447.2 132.5
682(26) 0.001466 447.3 140.7
691(26) 0.001447 447.4 149.7
711(27) 0.001406 447.5 159.3
691(26) 0.001447 447.6 169.3
696(26) 0.001437 447.7 179.3
740(27) 0.001351 447.8 188.6
743(27) 0.001346 447.9 196.4
696(26) 0.001437 448.0 202.1
722(27) 0.001385 448.1 205.1
721(27) 0.001387 448.2 205.5
717(27) 0.001395 448.3 203.7
713(27) 0.001403 448.4 200.4
697(26) 0.001435 448.5 196.4
685(26) 0.001460 448.6 192.2
692(26) 0.001445 448.7 188.1
693(26) 0.001443 448.8 184.5
694(26) 0.001441 448.9 181.4
628(25) 0.001592 449.0 178.8
685(26) 0.001460 449.1 176.6
665(26) 0.001504 449.2 174.9
617(25) 0.001621 449.4 173.6
635(25) 0.001575 449.5 172.5
673(26) 0.001486 449.6 171.7
694(26) 0.001441 449.7 171.2
680(26) 0.001471 449.8 170.8
621(25) 0.001610 449.9 170.8
618(25) 0.001618 450.0 171.0
644(25) 0.001553 450.1 171.5
689(26) 0.001451 450.2 172.5
671(26) 0.001490 450.3 174.1
649(25) 0.001541 450.4 176.2
669(26) 0.001495 450.5 179.2
662(26) 0.001511 450.6 183.2
674(26) 0.001484 450.7 188.2
651(26) 0.001536 450.8 194.5
656(26) 0.001524 450.9 202.0
731(27) 0.001368 451.0 210.8
693(26) 0.001443 451.1 220.6
727(27) 0.001376 451.2 230.9
733(27) 0.001364 451.3 240.9
768(28) 0.001302 451.4 249.4
701(26) 0.001427 451.5 255.0
678(26) 0.001475 451.6 256.4
690(26) 0.001449 451.7 253.4
686(26) 0.001458 451.8 246.4
699(26) 0.001431 451.9 236.7
715(27) 0.001399 452.0 225.8
672(26) 0.001488 452.1 214.9
642(25) 0.001558 452.2 204.9
676(26) 0.001479 452.4 196.5
673(26) 0.001486 452.5 189.7
672(26) 0.001488 452.6 184.7
634(25) 0.001577 452.7 181.4
680(26) 0.001471 452.8 179.7
724(27) 0.001381 452.9 179.2
681(26) 0.001468 453.0 179.8
751(27) 0.001332 453.1 181.0
720(27) 0.001389 453.2 182.4
710(27) 0.001408 453.3 183.5
752(27) 0.001330 453.4 184.2
707(27) 0.001414 453.5 184.3
730(27) 0.001370 453.6 183.8
730(27) 0.001370 453.7 183.0
710(27) 0.001408 453.8 182.3
704(27) 0.001420 453.9 182.2
714(27) 0.001401 454.0 182.9
680(26) 0.001471 454.1 184.7
679(26) 0.001473 454.2 187.9
685(26) 0.001460 454.3 192.7
685(26) 0.001460 454.4 199.1
665(26) 0.001504 454.5 207.2
731(27) 0.001368 454.6 217.0
740(27) 0.001351 454.7 228.3
719(27) 0.001391 454.8 241.0
715(27) 0.001399 454.9 254.8
780(28) 0.001282 455.0 269.2
803(28) 0.001245 455.1 283.5
803(28) 0.001245 455.3 296.8
821(29) 0.001218 455.4 308.2
853(29) 0.001172 455.5 316.5
805(28) 0.001242 455.6 321.0
889(30) 0.001125 455.7 321.0
781(28) 0.001280 455.8 316.6
752(27) 0.001330 455.9 308.2
755(27) 0.001324 456.0 296.6
751(27) 0.001332 456.1 282.9
723(27) 0.001383 456.2 267.9
747(27) 0.001339 456.3 252.6
717(27) 0.001395 456.4 237.7
618(25) 0.001618 456.5 223.5
626(25) 0.001597 456.6 210.4
623(25) 0.001605 456.7 198.6
637(25) 0.001570 456.8 188.2
622(25) 0.001608 456.9 179.1
638(25) 0.001567 457.0 171.3
611(25) 0.001637 457.1 164.9
635(25) 0.001575 457.2 159.6
601(25) 0.001664 457.3 155.5
608(25) 0.001645 457.4 152.4
613(25) 0.001631 457.5 150.3
619(25) 0.001616 457.6 149.1
609(25) 0.001642 457.7 148.7
584(24) 0.001712 457.8 149.1
640(25) 0.001563 457.9 150.2
604(25) 0.001656 458.0 151.9
625(25) 0.001600 458.1 154.3
673(26) 0.001486 458.3 157.3
616(25) 0.001623 458.4 160.8
621(25) 0.001610 458.5 165.0
668(26) 0.001497 458.6 169.7
603(25) 0.001658 458.7 175.1
632(25) 0.001582 458.8 181.1
683(26) 0.001464 458.9 187.7
667(26) 0.001499 459.0 194.9
676(26) 0.001479 459.1 202.8
666(26) 0.001501 459.2 211.4
671(26) 0.001490 459.3 220.4
663(26) 0.001508 459.4 230.1
717(27) 0.001395 459.5 240.1
731(27) 0.001368 459.6 250.5
729(27) 0.001372 459.7 261.1
753(27) 0.001328 459.8 271.6
803(28) 0.001245 459.9 281.9
766(28) 0.001305 460.0 291.7
794(28) 0.001259 460.1 300.7
807(28) 0.001239 460.2 308.7
785(28) 0.001274 460.3 315.4
814(29) 0.001228 460.4 320.8
816(29) 0.001225 460.5 324.8
797(28) 0.001255 460.6 327.5
784(28) 0.001276 460.7 329.0
768(28) 0.001302 460.8 329.7
819(29) 0.001221 460.9 329.9
801(28) 0.001248 461.0 329.9
829(29) 0.001206 461.2 330.1
765(28) 0.001307 461.3 330.6
816(29) 0.001225 461.4 331.7
807(28) 0.001239 461.5 333.5
807(28) 0.001239 461.6 336.1
846(29) 0.001182 461.7 339.5
863(29) 0.001159 461.8 343.4
855(29) 0.001170 461.9 347.6
886(30) 0.001129 462.0 351.7
853(29) 0.001172 462.1 355.1
857(29) 0.001167 462.2 357.3
892(30) 0.001121 462.3 357.7
880(30) 0.001136 462.4 355.9
858(29) 0.001166 462.5 351.7
828(29) 0.001208 462.6 345.1
832(29) 0.001202 462.7 336.6
818(29) 0.001222 462.8 326.4
775(28) 0.001290 462.9 315.2
787(28) 0.001271 463.0 303.4
744(27) 0.001344 463.1 291.4
728(27) 0.001374 463.2 279.6
723(27) 0.001383 463.3 268.2
727(27) 0.001376 463.4 257.3
744(27) 0.001344 463.5 247.0
706(27) 0.001416 463.6 237.4
696(26) 0.001437 463.7 228.5
707(27) 0.001414 463.8 220.3
717(27) 0.001395 463.9 212.8
671(26) 0.001490 464.0 206.1
694(26) 0.001441 464.2 200.0
667(26) 0.001499 464.3 194.5
647(25) 0.001546 464.4 189.7
677(26) 0.001477 464.5 185.3
669(26) 0.001495 464.6 181.5
700(26) 0.001429 464.7 178.2
662(26) 0.001511 464.8 175.3
670(26) 0.001493 464.9 172.8
648(25) 0.001543 465.0 170.6
658(26) 0.001520 465.1 168.7
657(26) 0.001522 465.2 167.1
677(26) 0.001477 465.3 165.7
625(25) 0.001600 465.4 164.5
657(26) 0.001522 465.5 163.4
660(26) 0.001515 465.6 162.5
663(26) 0.001508 465.7 161.6
642(25) 0.001558 465.8 160.8
669(26) 0.001495 465.9 160.0
634(25) 0.001577 466.0 159.2
707(27) 0.001414 466.1 158.5
665(26) 0.001504 466.2 157.7
707(27) 0.001414 466.3 157.0
710(27) 0.001408 466.4 156.2
656(26) 0.001524 466.5 155.6
662(26) 0.001511 466.6 155.0
672(26) 0.001488 466.7 154.5
674(26) 0.001484 466.8 154.1
656(26) 0.001524 466.9 153.9
638(25) 0.001567 467.1 154.0
678(26) 0.001475 467.2 154.4
694(26) 0.001441 467.3 155.1
694(26) 0.001441 467.4 156.2
688(26) 0.001453 467.5 157.8
685(26) 0.001460 467.6 159.9
643(25) 0.001555 467.7 162.5
630(25) 0.001587 467.8 165.8
700(26) 0.001429 467.9 169.7
701(26) 0.001427 468.0 174.3
737(27) 0.001357 468.1 179.5
728(27) 0.001374 468.2 185.2
686(26) 0.001458 468.3 191.4
704(27) 0.001420 468.4 197.8
738(27) 0.001355 468.5 204.2
737(27) 0.001357 468.6 210.0
692(26) 0.001445 468.7 214.8
773(28) 0.001294 468.8 218.1
783(28) 0.001277 468.9 219.4
708(27) 0.001412 469.0 218.6
784(28) 0.001276 469.1 215.5
745(27) 0.001342 469.2 210.5
748(27) 0.001337 469.3 204.0
750(27) 0.001333 469.4 196.4
720(27) 0.001389 469.5 188.4
719(27) 0.001391 469.6 180.2
679(26) 0.001473 469.7 172.3
690(26) 0.001449 469.8 164.8
689(26) 0.001451 470.0 157.9
671(26) 0.001490 470.1 151.6
685(26) 0.001460 470.2 146.0
642(25) 0.001558 470.3 141.0
638(25) 0.001567 470.4 136.8
648(25) 0.001543 470.5 133.1
615(25) 0.001626 470.6 130.0
667(26) 0.001499 470.7 127.5
645(25) 0.001550 470.8 125.5
666(26) 0.001501 470.9 123.9
701(26) 0.001427 471.0 122.8
655(26) 0.001527 471.1 122.0
659(26) 0.001517 471.2 121.7
684(26) 0.001462 471.3 121.7
655(26) 0.001527 471.4 122.0
658(26) 0.001520 471.5 122.6
659(26) 0.001517 471.6 123.5
650(25) 0.001538 471.7 124.7
658(26) 0.001520 471.8 126.2
681(26) 0.001468 471.9 127.9
662(26) 0.001511 472.0 129.8
712(27) 0.001404 472.1 131.9
730(27) 0.001370 472.2 134.1
719(27) 0.001391 472.3 136.3
760(28) 0.001316 472.4 138.4
633(25) 0.001580 472.5 140.3
681(26) 0.001468 472.6 141.7
694(26) 0.001441 472.7 142.5
736(27) 0.001359 472.8 142.5
739(27) 0.001353 473.0 141.8
753(27) 0.001328 473.1 140.1
741(27) 0.001350 473.2 137.7
710(27) 0.001408 473.3 134.6
688(26) 0.001453 473.4 131.1
687(26) 0.001456 473.5 127.4
729(27) 0.001372 473.6 123.5
739(27) 0.001353 473.7 119.7
696(26) 0.001437 473.8 116.1
713(27) 0.001403 473.9 112.7
693(26) 0.001443 474.0 109.5
691(26) 0.001447 474.1 106.6
655(26) 0.0 0.0 .
723(27) 0.0 0.0 .
704(27) 0.0 0.0 .
749(27) 0.0 0.0 .
762(28) 0.0 0.0 .
730(27) 0.0 0.0 .
771(28) 0.0 0.0 .
775(28) 0.0 0.0 .
758(28) 0.0 0.0 .
765(28) 0.0 0.0 .
759(28) 0.0 0.0 .
747(27) 0.0 0.0 .
809(28) 0.0 0.0 .
804(28) 0.0 0.0 .
809(28) 0.0 0.0 .
817(29) 0.0 0.0 .
782(28) 0.0 0.0 .
781(28) 0.0 0.0 .
815(29) 0.0 0.0 .
838(29) 0.0 0.0 .
766(28) 0.0 0.0 .
762(28) 0.0 0.0 .
820(29) 0.0 0.0 .
788(28) 0.0 0.0 .
833(29) 0.0 0.0 .
842(29) 0.0 0.0 .
823(29) 0.0 0.0 .
839(29) 0.0 0.0 .
865(29) 0.0 0.0 .
874(30) 0.0 0.0 .
854(29) 0.0 0.0 .
909(30) 0.0 0.0 .
911(30) 0.0 0.0 .
923(30) 0.0 0.0 .
898(30) 0.0 0.0 .
1007(32) 0.0 0.0 .
986(31) 0.0 0.0 .
1001(32) 0.0 0.0 .
1027(32) 0.0 0.0 .
1029(32) 0.0 0.0 .
1028(32) 0.0 0.0 .
1046(32) 0.0 0.0 .
1067(33) 0.0 0.0 .
1129(34) 0.0 0.0 .
1121(33) 0.0 0.0 .
1101(33) 0.0 0.0 .
1175(34) 0.0 0.0 .
1221(35) 0.0 0.0 .
1263(36) 0.0 0. .
1257(35) 0.0 0. .
1310(36) 0.0 0. .
1362(37) 0.0 0. .
1356(37) 0.0 0. .
1428(38) 0.0 0. .
1451(38) 0.0 0. .
1477(38) 0.0 0. .
1559(39) 0.0 0. .
1530(39) 0.0 0. .
1583(40) 0.0 0. .
1688(41) 0.0 0. .
1700(41) 0.0 0. .
1774(42) 0.0 0. .
1894(44) 0.0 0. .
1946(44) 0.0 0. .
1967(44) 0.0 0. .
2176(47) 0.0 0. .
2274(48) 0.0 0. .
2351(48) 0.0 0. .
2520(50) 0.0 0. .
2579(51) 0.0 0. .
2728(52) 0.0 0. .
2837(53) 0.0 0. .
3073(55) 0.0 0. .
3303(57) 0.0 0. .
3432(59) 0.0 0. .
3687(61) 0.0 0. .
3916(63) 0.0 0. .
4215(65) 0.0 0. .
4598(68) 0.0 0. .
4902(70) 0.0 0. .
5331(73) 0.0 0. .
5847(76) 0.0 0. .
6635(81) 0.0 0. .
7250(85) 0.0 0. .
8115(90) 0.0 0. .
9107(95) 0.0 0. .
10370(100) 0.0 0. .
11650(110) 0.0 0. .
13080(110) 0.0 0. .
14850(120) 0.0 0. .
17200(130) 0.0 0. .
20170(140) 0.0 0. .
24000(160) 0.0 0. .
28810(170) 0.0 0. .
34500(190) 0.0 0. .
42420(210) 0.0 0. .
52720(230) 0.0 0. .
67160(260) 0.0 0. .
87900(300) 0.0 0. .
117380(340) 0.0 0. .
162120(400) 0.0 0. .
226900(480) 0.0 0. .
327570(570) 0.0 0. .
459320(680) 0.0 0. .
597880(770) 0.0 0. .
688090(830) 0.0 0. .
683630(830) 0.0 0. .
601000(780) 0.0 0. .
479310(690) 0.0 0. .
351210(590) 0.0 0. .
248630(500) 0.0 0. .
177560(420) 0.0 0. .
128180(360) 0.0 0. .
94560(310) 0.0 0. .
72370(270) 0.0 0. .
56470(240) 0.0 0. .
45180(210) 0.0 0. .
36610(190) 0.0 0. .
30490(180) 0.0 0. .
25090(160) 0.0 0. .
21430(150) 0.0 0. .
18160(140) 0.0 0. .
15410(120) 0.0 0. .
13390(120) 0.0 0. .
11650(110) 0.0 0. .
10290(100) 0.0 0. .
9237(96) 0.0 0. .
8102(90) 0.0 0. .
7346(86) 0.0 0. .
6576(81) 0.0 0. .
6126(78) 0.0 0. .
5578(75) 0.0 0. .
5071(71) 0.0 0. .
4656(68) 0.0 0. .
4343(66) 0.0 0. .
4072(64) 0.0 0. .
3790(62) 0.0 0. .
3524(59) 0.0 0. .
3313(58) 0.0 0. .
3145(56) 0.0 0. .
3004(55) 0.0 0. .
2845(53) 0.0 0. .
2656(52) 0.0 0. .
2502(50) 0.0 0. .
2413(49) 0.0 0. .
2309(48) 0.0 0. .
2179(47) 0.0 0. .
2088(46) 0.0 0. .
2075(46) 0.0 0. .
2024(45) 0.0 0. .
1824(43) 0.0 0. .
1839(43) 0.0 0. .
1784(42) 0.0 0. .
1710(41) 0.0 0. .
1675(41) 0.0 0. .
1604(40) 0.0 0. .
1601(40) 0.0 0. .
1506(39) 0.0 0. .
1519(39) 0.0 0. .
1453(38) 0.0 0. .
1400(37) 0.0 0. .
1322(36) 0.0 0. .
1344(37) 0.0 0. .
1350(37) 0.0 0. .
1291(36) 0.0 0. .
1349(37) 0.0 0. .
1290(36) 0.0 0. .
1260(35) 0.0 0. .
1280(36) 0.0 0. .
1225(35) 0.0 0.0 .
1152(34) 0.0 0.0 .
1174(34) 0.0 0.0 .
1237(35) 0.0 0. .
1192(35) 0.0 0.0 .
1189(34) 0.0 0.0 .
1143(34) 0.0 0.0 .
1130(34) 0.0 0.0 .
1141(34) 0.0 0.0 .
1143(34) 0.0 0.0 .
1108(33) 0.0 0.0 .
1110(33) 0.0 0.0 .
1068(33) 0.0 0.0 .
1093(33) 0.0 0.0 .
1072(33) 0.0 0.0 .
1159(34) 0.0 0.0 .
1104(33) 0.0 0.0 .
1038(32) 0.0 0.0 .
1035(32) 0.0 0.0 .
1076(33) 0.0 0.0 .
1043(32) 0.0 0.0 .
1066(33) 0.0 0.0 .
1064(33) 0.0 0.0 .
1000(32) 0.0 0.0 .
1020(32) 0.0 0.0 .
1025(32) 0.0 0.0 .
925(30) 0.0 0.0 .
972(31) 0.0 0.0 .
954(31) 0.0 0.0 .
905(30) 0.001105 494.7 121.7
891(30) 0.001122 494.8 116.1
894(30) 0.001119 494.9 110.5
872(30) 0.001147 495.0 105.0
898(30) 0.001114 495.1 99.6
848(29) 0.001179 495.2 94.5
922(30) 0.001085 495.3 89.5
864(29) 0.001157 495.4 84.9
820(29) 0.001220 495.5 80.5
800(28) 0.001250 495.6 76.4
730(27) 0.001370 495.7 72.6
866(29) 0.001155 495.8 69.1
809(28) 0.001236 495.9 66.0
787(28) 0.001271 496.0 63.1
769(28) 0.001300 496.1 60.6
743(27) 0.001346 496.2 58.2
740(27) 0.001351 496.3 56.2
695(26) 0.001439 496.5 54.4
697(26) 0.001435 496.6 52.7
707(27) 0.001414 496.7 51.3
722(27) 0.001385 496.8 50.1
664(26) 0.001506 496.9 49.1
720(27) 0.001389 497.0 48.2
711(27) 0.001406 497.1 47.5
727(27) 0.001376 497.2 46.9
724(27) 0.001381 497.3 46.4
694(26) 0.001441 497.4 46.0
700(26) 0.001429 497.5 45.8
680(26) 0.001471 497.6 45.7
722(27) 0.001385 497.7 45.6
663(26) 0.001508 497.8 45.7
685(26) 0.001460 497.9 45.8
698(26) 0.001433 498.0 46.0
624(25) 0.001603 498.1 46.4
617(25) 0.001621 498.2 46.8
658(26) 0.001520 498.3 47.2
656(26) 0.001524 498.4 47.8
638(25) 0.001567 498.5 48.4
611(25) 0.001637 498.6 49.1
618(25) 0.001618 498.7 49.9
643(25) 0.001555 498.8 50.8
655(26) 0.001527 498.9 51.7
661(26) 0.001513 499.0 52.6
645(25) 0.001550 499.1 53.6
630(25) 0.001587 499.2 54.6
606(25) 0.001650 499.4 55.6
641(25) 0.001560 499.5 56.5
664(26) 0.001506 499.6 57.5
647(25) 0.001546 499.7 58.5
618(25) 0.001618 499.8 59.4
590(24) 0.001695 499.9 60.4
650(25) 0.001538 500.0 61.3
619(25) 0.001616 500.1 62.3
620(25) 0.001613 500.2 63.3
627(25) 0.001595 500.3 64.5
615(25) 0.001626 500.4 65.7
638(25) 0.001567 500.5 67.1
646(25) 0.001548 500.6 68.6
588(24) 0.001701 500.7 70.3
650(25) 0.001538 500.8 72.0
647(25) 0.001546 500.9 73.8
611(25) 0.001637 501.0 75.4
664(26) 0.001506 501.1 77.0
620(25) 0.001613 501.2 78.2
610(25) 0.001639 501.3 79.1
628(25) 0.001592 501.4 79.4
639(25) 0.001565 501.5 79.2
630(25) 0.001587 501.6 78.3
617(25) 0.001621 501.7 76.8
610(25) 0.001639 501.8 74.9
662(26) 0.001511 501.9 72.6
620(25) 0.001613 502.0 70.1
582(24) 0.001718 502.1 67.4
564(24) 0.001773 502.2 64.8
615(25) 0.001626 502.4 62.2
555(24) 0.001802 502.5 59.7
557(24) 0.001795 502.6 57.5
559(24) 0.001789 502.7 55.4
554(24) 0.001805 502.8 53.6
554(24) 0.001805 502.9 52.0
571(24) 0.001751 503.0 50.7
582(24) 0.001718 503.1 49.6
559(24) 0.001789 503.2 48.7
548(23) 0.001825 503.3 48.1
525(23) 0.001905 503.4 47.7
542(23) 0.001845 503.5 47.5
551(23) 0.001815 503.6 47.6
571(24) 0.001751 503.7 47.9
571(24) 0.001751 503.8 48.4
548(23) 0.001825 503.9 49.2
572(24) 0.001748 504.0 50.1
581(24) 0.001721 504.1 51.2
593(24) 0.001686 504.2 52.5
596(24) 0.001678 504.3 53.8
536(23) 0.001866 504.4 55.1
547(23) 0.001828 504.5 56.2
567(24) 0.001764 504.6 57.1
530(23) 0.001887 504.7 57.6
538(23) 0.001859 504.8 57.6
576(24) 0.001736 504.9 57.0
561(24) 0.001783 505.0 56.1
559(24) 0.001789 505.1 54.8
545(23) 0.001835 505.3 53.2
516(23) 0.001938 505.4 51.7
475(22) 0.002105 505.5 50.1
513(23) 0.001949 505.6 48.6
506(22) 0.001976 505.7 47.3
547(23) 0.001828 505.8 46.2
531(23) 0.001883 505.9 45.2
531(23) 0.001883 506.0 44.4
505(22) 0.001980 506.1 43.7
516(23) 0.001938 506.2 43.3
491(22) 0.002037 506.3 42.9
482(22) 0.002075 506.4 42.7
506(22) 0.001976 506.5 42.7
474(22) 0.002110 506.6 42.8
508(23) 0.001968 506.7 43.0
494(22) 0.002024 506.8 43.3
494(22) 0.002024 506.9 43.7
506(22) 0.001976 507.0 44.2
490(22) 0.002041 507.1 44.8
507(23) 0.001972 507.0 45.5
477(22) 0.002096 506.7 46.3
509(23) 0.001965 506.5 47.2
485(22) 0.002062 506.2 48.2
496(22) 0.002016 506.0 49.3
513(23) 0.001949 505.8 50.5
498(22) 0.002008 505.5 51.8
524(23) 0.001908 505.3 53.2
522(23) 0.001916 505.0 54.8
535(23) 0.001869 504.8 56.4
533(23) 0.001876 504.6 58.2
496(22) 0.002016 504.3 60.2
514(23) 0.001946 504.1 62.3
519(23) 0.001927 503.8 64.5
549(23) 0.001822 503.6 67.0
540(23) 0.001852 503.4 69.6
558(24) 0.001792 503.1 72.3
517(23) 0.001934 502.9 75.3
534(23) 0.001873 502.6 78.5
532(23) 0.001880 502.4 81.9
554(24) 0.001805 502.2 85.5
525(23) 0.001905 501.9 89.4
572(24) 0.001748 501.7 93.5
581(24) 0.001721 501.4 97.8
568(24) 0.001761 501.2 102.3
586(24) 0.001706 501.0 107.1
529(23) 0.001890 500.7 112.2
573(24) 0.001745 500.5 117.4
585(24) 0.001709 500.2 122.8
624(25) 0.001603 500.0 128.4
648(25) 0.001543 499.8 134.1
652(26) 0.001534 499.5 139.9
646(25) 0.001548 499.3 145.7
655(26) 0.001527 499.0 151.4
644(25) 0.001553 498.8 157.0
671(26) 0.001490 498.6 162.5
670(26) 0.001493 498.3 167.7
675(26) 0.001481 498.1 172.7
708(27) 0.001412 497.9 177.3
688(26) 0.001453 497.6 181.6
690(26) 0.001449 497.4 185.5
656(26) 0.001524 497.1 189.0
708(27) 0.001412 496.9 191.9
725(27) 0.001379 496.7 194.1
661(26) 0.001513 496.4 195.5
702(26) 0.001424 496.2 195.9
668(26) 0.001497 495.9 195.3
702(26) 0.001424 495.7 193.8
645(25) 0.001550 495.5 191.4
658(26) 0.001520 495.2 188.3
660(26) 0.001515 495.0 184.9
659(26) 0.001517 494.7 181.2
663(26) 0.001508 494.5 177.5
617(25) 0.001621 494.3 173.9
584(24) 0.001712 494.0 170.4
641(25) 0.001560 493.8 167.3
631(25) 0.001585 493.5 164.5
649(25) 0.001541 493.3 162.1
603(25) 0.001658 493.1 160.0
635(25) 0.001575 492.8 158.4
585(24) 0.001709 492.6 157.1
619(25) 0.001616 492.3 156.3
645(25) 0.001550 492.1 155.8
606(25) 0.001650 491.9 155.8
651(26) 0.001536 491.6 156.0
614(25) 0.001629 491.4 156.5
622(25) 0.001608 491.1 157.2
636(25) 0.001572 490.9 158.0
600(24) 0.001667 490.7 158.7
624(25) 0.001603 490.4 159.3
582(24) 0.001718 490.2 159.7
626(25) 0.001597 489.9 159.6
636(25) 0.001572 489.7 159.2
564(24) 0.001773 489.5 158.3
599(24) 0.001669 489.2 157.0
598(24) 0.001672 489.0 155.5
617(25) 0.001621 488.7 153.8
573(24) 0.001745 488.5 152.2
581(24) 0.001721 488.3 150.6
605(25) 0.001653 488.0 149.4
601(25) 0.001664 487.8 148.5
600(24) 0.001667 487.5 148.0
599(24) 0.001669 487.3 148.0
584(24) 0.001712 487.1 148.5
605(25) 0.001653 486.8 149.5
552(23) 0.001812 486.6 150.9
588(24) 0.001701 486.3 152.7
587(24) 0.001704 486.1 154.7
593(24) 0.001686 485.9 156.9
633(25) 0.001580 485.6 159.0
590(24) 0.001695 485.4 160.8
639(25) 0.001565 485.1 162.2
613(25) 0.001631 484.9 162.8
597(24) 0.001675 484.7 162.6
570(24) 0.001754 484.4 161.4
609(25) 0.001642 484.2 159.1
576(24) 0.001736 483.9 155.9
592(24) 0.001689 483.7 151.9
569(24) 0.001757 483.5 147.3
532(23) 0.001880 483.2 142.3
579(24) 0.001727 483.0 137.0
549(23) 0.001822 482.7 131.7
564(24) 0.001773 482.5 126.6
525(23) 0.001905 482.3 121.7
526(23) 0.001901 482.0 117.3
577(24) 0.001733 481.8 113.3
525(23) 0.001905 481.5 109.9
538(23) 0.001859 481.3 107.2
499(22) 0.002004 481.1 105.1
518(23) 0.001931 480.8 103.9
505(22) 0.001980 480.6 103.6
499(22) 0.002004 480.4 104.4
516(23) 0.001938 480.1 106.2
515(23) 0.001942 479.9 109.0
518(23) 0.001931 479.6 112.7
561(24) 0.001783 479.4 116.8
524(23) 0.001908 479.2 120.3
562(24) 0.001779 478.9 122.2
566(24) 0.001767 478.7 121.5
540(23) 0.001852 478.4 118.4
545(23) 0.001835 478.2 114.0
525(23) 0.001905 478.0 109.3
538(23) 0.001859 477.7 105.2
505(22) 0.001980 477.5 101.9
530(23) 0.001887 477.2 99.6
486(22) 0.002058 477.0 98.4
523(23) 0.001912 476.8 98.1
531(23) 0.001883 476.5 98.6
517(23) 0.001934 476.3 100.0
519(23) 0.001927 476.0 102.0
544(23) 0.001838 475.8 104.8
563(24) 0.001776 475.6 108.3
539(23) 0.001855 475.3 112.5
595(24) 0.001681 475.1 117.4
568(24) 0.001761 474.8 123.1
574(24) 0.001742 474.6 129.7
598(24) 0.001672 474.4 137.2
619(25) 0.001616 474.1 145.6
618(25) 0.001618 473.9 155.0
637(25) 0.001570 473.6 165.3
640(25) 0.001563 473.4 176.5
688(26) 0.001453 473.2 188.2
675(26) 0.001481 472.9 200.1
689(26) 0.001451 472.7 211.7
669(26) 0.001495 472.4 222.2
714(27) 0.001401 472.2 231.4
724(27) 0.001381 472.0 239.4
730(27) 0.001370 471.7 246.7
765(28) 0.001307 471.5 254.1
750(27) 0.001333 471.2 261.9
804(28) 0.001244 471.0 270.6
780(28) 0.001282 470.8 280.1
874(30) 0.001144 470.5 290.1
844(29) 0.001185 470.3 300.3
890(30) 0.001124 470.0 310.0
864(29) 0.001157 469.8 318.9
872(30) 0.001147 469.6 326.7
839(29) 0.001192 469.3 333.3
861(29) 0.001161 469.1 338.9
842(29) 0.001188 468.8 344.0
846(29) 0.001182 468.6 348.8
880(30) 0.001136 468.4 353.8
878(30) 0.001139 468.1 358.6
902(30) 0.001109 467.9 362.6
882(30) 0.001134 467.6 364.5
914(30) 0.001094 467.4 362.9
842(29) 0.001188 467.2 356.5
820(29) 0.001220 466.9 345.0
809(28) 0.001236 466.7 329.0
745(27) 0.001342 466.4 309.7
771(28) 0.001297 466.2 288.8
708(27) 0.001412 466.0 267.7
726(27) 0.001377 465.7 247.3
685(26) 0.001460 465.5 228.2
624(25) 0.001603 465.2 210.8
630(25) 0.001587 465.0 195.1
630(25) 0.001587 464.8 181.2
614(25) 0.001629 464.5 168.9
568(24) 0.001761 464.3 158.2
571(24) 0.001751 464.0 149.0
541(23) 0.001848 463.8 141.1
555(24) 0.001802 463.6 134.3
553(24) 0.001808 463.3 128.7
572(24) 0.001748 463.1 124.0
538(23) 0.001859 462.9 120.3
567(24) 0.001764 462.6 117.4
582(24) 0.001718 462.4 115.3
550(23) 0.001818 462.1 114.0
544(23) 0.001838 461.9 113.4
563(24) 0.001776 461.7 113.7
577(24) 0.001733 461.4 114.8
580(24) 0.001724 461.2 116.8
553(24) 0.001808 460.9 119.7
542(23) 0.001845 460.7 123.8
609(25) 0.001642 460.5 129.0
589(24) 0.001698 460.2 135.6
618(25) 0.001618 460.0 143.7
626(25) 0.001597 459.7 153.4
597(24) 0.001675 459.5 165.0
609(25) 0.001642 459.3 178.5
643(25) 0.001555 459.0 194.1
641(25) 0.001560 458.8 211.9
711(27) 0.001406 458.5 231.9
694(26) 0.001441 458.3 254.0
790(28) 0.001266 458.1 277.8
742(27) 0.001348 457.8 302.8
780(28) 0.001282 457.6 327.9
865(29) 0.001156 457.3 351.7
894(30) 0.001119 457.1 372.6
938(31) 0.001066 456.9 389.0
951(31) 0.001052 456.6 399.3
976(31) 0.001025 456.4 403.0
970(31) 0.001031 456.1 400.0
1007(32) 0.000993 455.9 391.2
943(31) 0.001060 455.7 377.7
931(31) 0.001074 455.4 360.8
889(30) 0.001125 455.2 341.8
831(29) 0.001203 454.9 321.8
778(28) 0.001285 454.7 301.6
731(27) 0.001368 454.5 281.9
748(27) 0.001337 454.2 263.1
694(26) 0.001441 454.0 245.5
649(25) 0.001541 453.7 229.1
650(25) 0.001538 453.5 213.9
653(26) 0.001531 453.3 199.6
607(25) 0.001647 453.0 186.3
622(25) 0.001608 452.8 173.8
573(24) 0.001745 452.5 162.0
551(23) 0.001815 452.3 151.1
546(23) 0.001832 452.1 140.9
563(24) 0.001776 451.8 131.4
551(23) 0.001815 451.6 122.8
503(22) 0.001988 451.3 114.9
482(22) 0.002075 451.1 107.8
513(23) 0.001949 450.9 101.3
511(23) 0.001957 450.6 95.6
508(23) 0.001968 450.4 90.4
477(22) 0.002096 450.1 85.9
520(23) 0.001923 449.9 81.8
505(22) 0.001980 449.7 78.2
476(22) 0.002101 449.4 75.0
473(22) 0.002114 449.2 72.1
479(22) 0.002088 448.9 69.7
500(22) 0.002000 448.7 67.5
476(22) 0.002101 448.5 65.6
479(22) 0.002088 448.2 64.0
464(22) 0.002155 448.0 62.6
448(21) 0.002232 447.7 61.4
474(22) 0.002110 447.5 60.3
496(22) 0.002016 447.3 59.5
407(20) 0.002457 447.0 58.8
440(21) 0.002273 446.8 58.3
482(22) 0.002075 446.5 57.9
463(22) 0.002160 446.5 57.7
460(21) 0.002174 446.5 57.6
475(22) 0.002105 446.5 57.6
465(22) 0.002151 446.5 57.8
497(22) 0.002012 446.5 58.1
481(22) 0.002079 446.5 58.5
432(21) 0.002315 446.5 59.0
469(22) 0.002132 446.5 59.6
501(22) 0.001996 446.5 60.4
489(22) 0.002045 446.5 61.3
460(21) 0.002174 446.5 62.3
485(22) 0.002062 446.5 63.5
440(21) 0.002273 446.5 64.7
500(22) 0.002000 446.5 66.1
462(21) 0.002164 446.5 67.5
539(23) 0.001855 446.5 69.0
538(23) 0.001859 446.5 70.6
486(22) 0.002058 446.5 72.3
512(23) 0.001953 446.5 73.9
505(22) 0.001980 446.5 75.6
479(22) 0.002088 446.5 77.2
504(22) 0.001984 446.5 78.8
505(22) 0.001980 446.5 80.4
535(23) 0.001869 446.5 81.9
557(24) 0.001795 446.5 83.4
523(23) 0.001912 446.5 84.9
521(23) 0.001919 446.5 86.4
556(24) 0.001799 446.5 87.9
504(22) 0.001984 446.5 89.6
544(23) 0.001838 446.5 91.3
547(23) 0.001828 446.5 93.2
496(22) 0.002016 446.5 95.2
552(23) 0.001812 446.5 97.4
517(23) 0.001934 446.5 99.7
517(23) 0.001934 446.5 102.2
535(23) 0.001869 446.5 104.8
535(23) 0.001869 446.5 107.6
537(23) 0.001862 446.5 110.6
529(23) 0.001890 446.5 113.8
539(23) 0.001855 446.5 117.1
556(24) 0.001799 446.5 120.6
572(24) 0.001748 446.5 124.3
598(24) 0.001672 446.5 128.2
593(24) 0.001686 446.5 132.2
580(24) 0.001724 446.5 136.4
593(24) 0.001686 446.5 140.8
591(24) 0.001692 446.5 145.2
633(25) 0.001580 446.5 149.8
607(25) 0.001647 446.5 154.5
667(26) 0.001499 446.5 159.2
628(25) 0.001592 446.5 164.0
604(25) 0.001656 446.5 168.8
654(26) 0.001529 446.5 173.7
615(25) 0.001626 446.5 178.6
663(26) 0.001508 446.5 183.5
670(26) 0.001493 446.5 188.4
650(25) 0.001538 446.5 193.5
644(25) 0.001553 446.5 198.6
658(26) 0.001520 446.5 203.9
718(27) 0.001393 446.5 209.3
713(27) 0.001403 446.5 215.0
667(26) 0.001499 446.5 220.9
679(26) 0.001473 446.5 227.1
659(26) 0.001517 446.5 233.4
700(26) 0.001429 446.5 240.1
723(27) 0.001383 446.5 246.8
707(27) 0.001414 446.5 253.5
737(27) 0.001357 446.5 260.2
759(28) 0.001318 446.5 266.7
708(27) 0.001412 446.5 272.8
770(28) 0.001299 446.5 278.5
748(27) 0.001337 446.5 283.5
761(28) 0.001314 446.5 287.8
750(27) 0.001333 446.5 291.2
744(27) 0.001344 446.5 293.7
718(27) 0.001393 446.5 295.3
746(27) 0.001340 446.5 295.9
726(27) 0.001377 446.5 295.5
775(28) 0.001290 446.5 294.3
709(27) 0.001410 446.5 292.2
766(28) 0.001305 446.5 289.3
772(28) 0.001295 446.5 285.6
686(26) 0.001458 446.5 281.2
757(28) 0.001321 446.5 276.1
688(26) 0.001453 446.5 270.5
714(27) 0.001401 446.5 264.4
714(27) 0.001401 446.5 257.9
694(26) 0.001441 446.5 251.2
674(26) 0.001484 446.5 244.4
643(25) 0.001555 446.5 237.5
684(26) 0.001462 446.5 230.8
666(26) 0.001501 446.5 224.4
612(25) 0.001634 446.5 218.2
638(25) 0.001567 446.5 212.4
626(25) 0.001597 446.5 207.0
644(25) 0.001553 446.5 202.1
590(24) 0.001695 446.5 197.7
628(25) 0.001592 446.5 193.8
634(25) 0.001577 446.5 190.4
605(25) 0.001653 446.5 187.6
632(25) 0.001582 446.5 185.3
631(25) 0.001585 446.5 183.6
626(25) 0.001597 446.5 182.5
600(24) 0.001667 446.5 181.9
602(25) 0.001661 446.5 181.8
613(25) 0.001631 446.5 182.2
608(25) 0.001645 446.5 183.1
610(25) 0.001639 446.5 184.5
582(24) 0.001718 446.5 186.4
616(25) 0.001623 446.5 188.5
638(25) 0.001567 446.5 191.0
628(25) 0.001592 446.5 193.9
665(26) 0.001504 446.5 197.0
650(25) 0.001538 446.5 200.3
638(25) 0.001567 446.5 203.7
676(26) 0.001479 446.5 207.2
646(25) 0.001548 446.5 210.6
619(25) 0.001616 446.5 213.8
655(26) 0.001527 446.5 216.8
669(26) 0.001495 446.5 219.5
679(26) 0.001473 446.5 221.6
663(26) 0.001508 446.5 223.1
676(26) 0.001479 446.5 224.0
620(25) 0.001613 446.5 224.1
648(25) 0.001543 446.5 223.5
649(25) 0.001541 446.5 222.0
623(25) 0.001605 446.5 219.7
671(26) 0.001490 446.5 216.7
598(24) 0.001672 446.5 213.1
597(24) 0.001675 446.5 209.0
651(26) 0.001536 446.5 204.5
585(24) 0.001709 446.5 199.7
594(24) 0.001684 446.5 194.7
588(24) 0.001701 446.5 189.7
607(25) 0.001647 446.5 184.7
588(24) 0.001701 446.5 179.9
590(24) 0.001695 446.5 175.3
568(24) 0.001761 446.5 171.0
594(24) 0.001684 446.5 167.0
606(25) 0.001650 446.5 163.4
624(25) 0.001603 446.5 160.2
519(23) 0.001927 446.5 157.4
616(25) 0.001623 446.5 155.0
503(22) 0.001988 446.5 153.1
565(24) 0.001770 446.5 151.6
600(24) 0.001667 446.5 150.5
567(24) 0.001764 446.5 149.8
558(24) 0.001792 446.5 149.4
566(24) 0.001767 446.5 149.3
571(24) 0.001751 446.5 149.4
552(23) 0.001812 446.5 149.7
586(24) 0.001706 446.5 149.9
586(24) 0.001706 446.5 150.1
593(24) 0.001686 446.5 150.2
607(25) 0.001647 446.5 149.9
603(25) 0.001658 446.5 149.2
594(24) 0.001684 446.5 148.2
566(24) 0.001767 446.5 146.7
530(23) 0.001887 446.5 144.8
608(25) 0.001645 446.5 142.6
587(24) 0.001704 446.5 140.0
549(23) 0.001822 446.5 137.2
560(24) 0.001786 446.5 134.3
572(24) 0.001748 446.5 131.3
547(23) 0.001828 446.5 128.2
566(24) 0.001767 446.5 125.0
503(22) 0.001988 446.5 121.9
539(23) 0.001855 446.5 118.8
528(23) 0.001894 446.5 115.7
486(22) 0.002058 446.5 112.7
487(22) 0.002053 446.5 109.7
505(22) 0.001980 446.5 106.8
522(23) 0.001916 446.5 104.0
540(23) 0.001852 446.5 101.3
512(23) 0.001953 446.5 98.6
472(22) 0.002119 446.5 96.1
502(22) 0.001992 446.5 93.7
503(22) 0.001988 446.5 91.4
532(23) 0.001880 446.5 89.2
507(23) 0.001972 446.5 87.1
496(22) 0.002016 446.5 85.1
527(23) 0.001898 446.5 83.2
451(21) 0.002217 446.5 81.3
483(22) 0.002070 446.5 79.6
496(22) 0.002016 446.5 78.0
517(23) 0.001934 446.5 76.4
485(22) 0.002062 446.5 74.9
520(23) 0.001923 446.5 73.5
463(22) 0.002160 446.5 72.2
469(22) 0.002132 446.5 71.0
509(23) 0.001965 446.5 69.8
502(22) 0.001992 446.5 68.7
472(22) 0.002119 446.5 67.7
440(21) 0.002273 446.5 66.8
496(22) 0.002016 446.4 65.9
522(23) 0.001916 446.3 65.1
481(22) 0.002079 446.2 64.3
453(21) 0.002208 446.1 63.7
431(21) 0.002320 446.0 63.1
495(22) 0.002020 445.9 62.5
431(21) 0.002320 445.8 62.1
489(22) 0.002045 445.7 61.7
467(22) 0.002141 445.6 61.3
474(22) 0.002110 445.5 61.1
471(22) 0.002123 445.4 60.9
505(22) 0.001980 445.3 60.8
439(21) 0.002278 445.2 60.7
481(22) 0.002079 445.1 60.8
510(23) 0.001961 444.9 60.9
484(22) 0.002066 444.8 61.0
455(21) 0.002198 444.7 61.3
500(22) 0.002000 444.6 61.6
494(22) 0.002024 444.5 62.0
483(22) 0.002070 444.4 62.5
492(22) 0.002033 444.3 63.0
475(22) 0.002105 444.2 63.6
504(22) 0.001984 444.1 64.3
499(22) 0.002004 444.0 65.0
490(22) 0.002041 443.9 65.8
468(22) 0.002137 443.8 66.7
529(23) 0.001890 443.7 67.6
468(22) 0.002137 443.6 68.6
447(21) 0.002237 443.5 69.6
487(22) 0.002053 443.3 70.6
482(22) 0.002075 443.2 71.6
556(24) 0.001799 443.1 72.7
530(23) 0.001887 443.0 73.7
464(22) 0.002155 442.9 74.7
477(22) 0.002096 442.8 75.7
526(23) 0.001901 442.7 76.6
546(23) 0.001832 442.6 77.4
488(22) 0.002049 442.5 78.1
466(22) 0.002146 442.4 78.7
493(22) 0.002028 442.3 79.2
516(23) 0.001938 442.2 79.6
536(23) 0.001866 442.1 79.8
483(22) 0.002070 442.0 79.9
491(22) 0.002037 441.9 79.9
492(22) 0.002033 441.7 79.7
518(23) 0.001931 441.6 79.5
520(23) 0.001923 441.5 79.1
488(22) 0.002049 441.4 78.7
480(22) 0.002083 441.3 78.2
492(22) 0.002033 441.2 77.7
493(22) 0.002028 441.1 77.2
471(22) 0.002123 441.0 76.6
507(23) 0.001972 440.9 76.1
502(22) 0.001992 440.8 75.6
484(22) 0.002066 440.7 75.1
459(21) 0.002179 440.6 74.6
504(22) 0.001984 440.5 74.2
482(22) 0.002075 440.4 73.9
485(22) 0.002062 440.3 73.6
496(22) 0.002016 440.1 73.4
513(23) 0.001949 440.0 73.3
502(22) 0.001992 439.9 73.2
503(22) 0.001988 439.8 73.2
508(23) 0.001968 439.7 73.3
480(22) 0.002083 439.6 73.5
511(23) 0.001957 439.5 73.8
496(22) 0.002016 439.4 74.2
503(22) 0.001988 439.3 74.8
483(22) 0.002070 439.2 75.5
511(23) 0.001957 439.1 76.4
473(22) 0.002114 439.0 77.5
507(23) 0.001972 438.9 78.8
513(23) 0.001949 438.8 80.4
498(22) 0.002008 438.7 82.1
491(22) 0.002037 438.5 84.0
535(23) 0.001869 438.4 85.8
516(23) 0.001938 438.3 87.3
529(23) 0.001890 438.2 88.4
499(22) 0.002004 438.1 88.8
519(23) 0.001927 438.0 88.7
478(22) 0.002092 437.9 88.4
495(22) 0.002020 437.8 87.9
527(23) 0.001898 437.7 87.6
521(23) 0.001919 437.6 87.4
527(23) 0.001898 437.5 87.4
500(22) 0.002000 437.4 87.6
501(22) 0.001996 437.3 87.9
523(23) 0.001912 437.2 88.3
525(23) 0.001905 437.0 88.8
551(23) 0.001815 436.9 89.4
525(23) 0.001905 436.8 90.0
513(23) 0.001949 436.7 90.6
532(23) 0.001880 436.6 91.2
534(23) 0.001873 436.5 91.7
533(23) 0.001876 436.4 92.2
526(23) 0.001901 436.3 92.7
517(23) 0.001934 436.2 93.0
532(23) 0.001880 436.1 93.3
532(23) 0.001880 436.0 93.5
506(22) 0.001976 435.9 93.6
475(22) 0.002105 435.8 93.7
505(22) 0.001980 435.7 93.6
532(23) 0.001880 435.6 93.6
520(23) 0.001923 435.4 93.4
506(22) 0.001976 435.3 93.2
532(23) 0.001880 435.2 93.1
544(23) 0.001838 435.1 92.8
499(22) 0.002004 435.0 92.6
541(23) 0.001848 434.9 92.5
512(23) 0.001953 434.8 92.3
544(23) 0.001838 434.7 92.2
510(23) 0.001961 434.6 92.1
520(23) 0.001923 434.5 92.0
516(23) 0.001938 434.4 92.0
509(23) 0.001965 434.3 92.0
504(22) 0.001984 434.2 92.0
523(23) 0.001912 434.1 92.0
520(23) 0.001923 434.0 92.0
510(23) 0.001961 433.8 91.9
525(23) 0.001905 433.7 91.7
520(23) 0.001923 433.6 91.6
503(22) 0.001988 433.5 91.4
547(23) 0.001828 433.4 91.2
492(22) 0.002033 433.3 91.1
523(23) 0.001912 433.2 91.0
528(23) 0.001894 433.1 91.1
522(23) 0.001916 433.0 91.4
531(23) 0.001883 432.9 91.8
554(24) 0.001805 432.8 92.3
513(23) 0.001949 432.7 93.1
494(22) 0.002024 432.6 94.1
532(23) 0.001880 432.5 95.3
508(23) 0.001968 432.4 96.8
583(24) 0.001715 432.2 98.7
554(24) 0.001805 432.1 101.0
586(24) 0.001706 432.0 103.7
524(23) 0.001908 431.9 106.9
541(23) 0.001848 431.8 110.8
560(24) 0.001786 431.7 115.5
587(24) 0.001704 431.6 121.2
544(23) 0.001838 431.5 127.9
608(25) 0.001645 431.4 136.0
593(24) 0.001686 431.3 145.5
636(25) 0.001572 431.2 156.8
644(25) 0.001553 431.1 170.0
582(24) 0.001718 431.0 185.2
594(24) 0.001684 430.9 202.6
602(25) 0.001661 430.8 221.9
665(26) 0.001504 430.6 242.7
670(26) 0.001493 430.5 263.8
643(25) 0.001555 430.4 283.3
683(26) 0.001464 430.3 298.6
682(26) 0.001466 430.2 307.1
725(27) 0.001379 430.1 306.9
663(26) 0.001508 430.0 298.2
660(26) 0.001515 429.9 282.8
603(25) 0.001658 429.8 263.4
591(24) 0.001692 429.7 242.8
599(24) 0.001669 429.6 222.7
622(25) 0.001608 429.5 204.2
610(25) 0.001639 429.4 187.9
560(24) 0.001786 429.3 173.9
579(24) 0.001727 429.2 162.1
611(25) 0.001637 429.0 152.3
521(23) 0.001919 428.9 144.3
563(24) 0.001776 428.8 137.8
549(23) 0.001822 428.7 132.5
547(23) 0.001828 428.6 128.3
498(22) 0.002008 428.5 125.0
524(23) 0.001908 428.4 122.4
532(23) 0.001880 428.3 120.4
532(23) 0.001880 428.2 118.8
517(23) 0.001934 428.1 117.7
495(22) 0.002020 428.0 116.9
555(24) 0.001802 427.9 116.5
498(22) 0.002008 427.8 116.3
550(23) 0.001818 427.7 116.4
540(23) 0.001852 427.5 116.8
509(23) 0.001965 427.4 117.5
533(23) 0.001876 427.3 118.3
548(23) 0.001825 427.2 119.4
538(23) 0.001859 427.1 120.8
539(23) 0.001855 427.0 122.4
528(23) 0.001894 426.9 124.2
540(23) 0.001852 426.8 126.2
511(23) 0.001957 426.7 128.5
527(23) 0.001898 426.6 130.9
558(24) 0.001792 426.5 133.5
619(25) 0.001616 426.4 136.3
573(24) 0.001745 426.3 139.3
577(24) 0.001733 426.2 142.4
556(24) 0.001799 426.1 145.7
598(24) 0.001672 425.9 149.1
587(24) 0.001704 425.8 152.6
580(24) 0.001724 425.7 156.3
601(25) 0.001664 425.6 160.1
559(24) 0.001789 425.5 164.1
647(25) 0.001546 425.4 168.1
592(24) 0.001689 425.3 172.3
598(24) 0.001672 425.2 176.5
630(25) 0.001587 425.1 180.8
667(26) 0.001499 425.0 185.0
658(26) 0.001520 424.9 189.0
668(26) 0.001497 424.8 192.8
643(25) 0.001555 424.7 196.2
729(27) 0.001372 424.6 199.3
652(26) 0.001534 424.5 202.0
623(25) 0.001605 424.3 204.3
638(25) 0.001567 424.2 206.3
666(26) 0.001501 424.1 207.9
629(25) 0.001590 424.0 209.1
643(25) 0.001555 423.9 210.1
605(25) 0.001653 423.8 210.7
646(25) 0.001548 423.7 211.0
630(25) 0.001587 423.6 211.0
621(25) 0.001610 423.5 210.6
612(25) 0.001634 423.4 209.9
678(26) 0.001475 423.3 208.9
662(26) 0.001511 423.2 207.5
593(24) 0.001686 423.1 206.0
613(25) 0.001631 423.0 204.2
607(25) 0.001647 422.9 202.2
633(25) 0.001580 422.7 200.2
634(25) 0.001577 422.6 198.0
625(25) 0.001600 422.5 195.8
611(25) 0.001637 422.4 193.5
594(24) 0.001684 422.3 191.1
613(25) 0.001631 422.2 188.7
622(25) 0.001608 422.1 186.3
626(25) 0.001597 422.0 183.8
575(24) 0.001739 421.9 181.3
644(25) 0.001553 421.8 178.8
612(25) 0.001634 421.7 176.3
605(25) 0.001653 421.6 173.8
651(26) 0.001536 421.5 171.4
587(24) 0.001704 421.4 169.1
598(24) 0.001672 421.3 166.8
577(24) 0.001733 421.1 164.7
611(25) 0.001637 421.0 162.7
589(24) 0.001698 420.9 160.9
602(25) 0.001661 420.8 159.2
580(24) 0.001724 420.7 157.8
573(24) 0.001745 420.6 156.5
601(25) 0.001664 420.5 155.5
601(25) 0.001664 420.4 154.7
597(24) 0.001675 420.3 154.3
594(24) 0.001684 420.2 154.3
550(23) 0.001818 420.1 154.6
591(24) 0.001692 420.0 155.5
564(24) 0.001773 419.9 156.9
584(24) 0.001712 419.8 158.9
569(24) 0.001757 419.6 161.7
568(24) 0.001761 419.5 165.1
593(24) 0.001686 419.4 169.3
547(23) 0.001828 419.3 173.9
592(24) 0.001689 419.2 178.8
564(24) 0.001773 419.1 183.3
617(25) 0.001621 419.0 186.7
562(24) 0.001779 418.9 188.1
537(23) 0.001862 418.8 187.3
543(23) 0.001842 418.7 184.4
546(23) 0.001832 418.6 180.0
548(23) 0.001825 418.5 174.9
542(23) 0.001845 418.4 169.9
550(23) 0.001818 418.3 165.2
523(23) 0.001912 418.2 161.2
553(24) 0.001808 418.0 157.9
561(24) 0.001783 417.9 155.4
565(24) 0.001770 417.8 153.7
573(24) 0.001745 417.7 152.6
555(24) 0.001802 417.6 152.2
515(23) 0.001942 417.5 152.3
553(24) 0.001808 417.4 152.9
555(24) 0.001802 417.3 153.9
517(23) 0.001934 417.2 155.4
573(24) 0.001745 417.1 157.3
551(23) 0.001815 417.0 159.5
579(24) 0.001727 416.9 162.2
548(23) 0.001825 416.8 165.3
626(25) 0.001597 416.7 168.7
584(24) 0.001712 416.6 172.6
561(24) 0.001783 416.4 176.6
559(24) 0.001789 416.3 180.8
572(24) 0.001748 416.2 184.7
586(24) 0.001706 416.1 188.0
565(24) 0.001770 416.0 190.2
586(24) 0.001706 415.9 190.9
580(24) 0.001724 415.8 189.7
548(23) 0.001825 415.7 186.8
535(23) 0.001869 415.6 182.3
569(24) 0.001757 415.5 176.8
553(24) 0.001808 415.4 170.7
514(23) 0.001946 415.3 164.6
572(24) 0.001748 415.2 158.8
524(23) 0.001908 415.1 153.5
542(23) 0.001845 415.0 148.8
516(23) 0.001938 414.8 144.7
550(23) 0.001818 414.7 141.3
545(23) 0.001835 414.6 138.5
541(23) 0.001848 414.5 136.2
554(24) 0.001805 414.4 134.3
524(23) 0.001908 414.3 132.8
540(23) 0.001852 414.2 131.5
518(23) 0.001931 414.1 130.4
517(23) 0.001934 414.0 129.6
511(23) 0.001957 413.9 129.1
495(22) 0.002020 413.8 129.0
534(23) 0.001873 413.7 129.4
519(23) 0.001927 413.6 130.2
524(23) 0.001908 413.5 131.7
511(23) 0.001957 413.4 133.8
520(23) 0.001923 413.2 136.4
500(22) 0.002000 413.1 139.3
528(23) 0.001894 413.0 142.1
523(23) 0.001912 412.9 144.5
546(23) 0.001832 412.8 145.8
527(23) 0.001898 412.7 145.7
544(23) 0.001838 412.6 144.1
545(23) 0.001835 412.5 141.2
483(22) 0.002070 412.4 137.5
523(23) 0.001912 412.3 133.7
518(23) 0.001931 412.2 130.2
527(23) 0.001898 412.1 127.2
485(22) 0.002062 412.0 125.0
512(23) 0.001953 411.9 123.6
480(22) 0.002083 411.8 122.9
521(23) 0.001919 411.6 123.0
546(23) 0.001832 411.5 123.5
497(22) 0.002012 411.4 124.3
494(22) 0.002024 411.3 125.1
527(23) 0.001898 411.2 125.9
484(22) 0.002066 411.1 126.4
486(22) 0.002058 411.0 126.7
484(22) 0.002066 410.9 126.8
484(22) 0.002066 410.8 126.7
474(22) 0.002110 410.7 126.5
503(22) 0.001988 410.6 126.1
509(23) 0.001965 410.5 125.6
517(23) 0.001934 410.4 124.9
508(23) 0.001968 410.3 124.0
484(22) 0.002066 410.1 122.9
478(22) 0.002092 410.0 121.6
516(23) 0.001938 409.9 120.1
480(22) 0.002083 409.8 118.6
474(22) 0.002110 409.7 117.1
501(22) 0.001996 409.6 115.7
495(22) 0.002020 409.5 114.6
512(23) 0.001953 409.4 113.7
469(22) 0.002132 409.3 113.0
483(22) 0.002070 409.2 112.7
506(22) 0.001976 409.1 112.6
499(22) 0.002004 409.0 112.8
516(23) 0.001938 408.9 113.1
519(23) 0.001927 408.8 113.5
510(23) 0.001961 408.7 113.9
536(23) 0.001866 408.5 114.2
470(22) 0.002128 408.4 114.4
494(22) 0.002024 408.3 114.3
475(22) 0.002105 408.2 113.9
518(23) 0.001931 408.1 113.1
481(22) 0.002079 408.0 111.9
512(23) 0.001953 407.9 110.4
485(22) 0.002062 407.8 108.5
475(22) 0.002105 407.7 106.3
516(23) 0.001938 407.6 103.9
482(22) 0.002075 407.5 101.3
495(22) 0.002020 407.4 98.5
500(22) 0.002000 407.3 95.7
508(23) 0.001968 407.2 92.8
493(22) 0.002028 407.1 89.9
506(22) 0.001976 406.9 86.9
514(23) 0.001946 406.8 84.0
489(22) 0.002045 406.7 81.0
486(22) 0.002058 406.6 78.1
458(21) 0.002183 406.5 75.1
494(22) 0.002024 406.4 72.2
476(22) 0.002101 406.3 69.4
525(23) 0.001905 406.2 66.6
489(22) 0.002045 406.1 63.9
559(24) 0.001789 406.0 61.3
530(23) 0.001887 405.9 58.9
512(23) 0.001953 405.8 56.5
537(23) 0.001862 405.7 54.4
527(23) 0.001898 405.6 52.3
488(22) 0.002049 405.5 50.4
484(22) 0.002066 405.3 48.6
477(22) 0.002096 405.2 47.0
463(22) 0.002160 405.1 45.5
444(21) 0.002252 405.0 44.1
462(21) 0.002164 404.9 42.8
449(21) 0.002227 404.8 41.6
417(20) 0.002398 404.7 40.6
430(21) 0.002326 404.6 39.6
426(21) 0.002347 404.5 38.7
415(20) 0.002410 404.4 38.0
433(21) 0.002309 404.3 37.2
440(21) 0.002273 404.2 36.6
419(20) 0.002387 404.1 36.1
418(20) 0.002392 404.0 35.6
438(21) 0.002283 403.9 35.1
441(21) 0.002268 403.7 34.8
400(20) 0.002500 403.6 34.4
423(21) 0.002364 403.5 34.2
409(20) 0.002445 403.4 34.0
429(21) 0.002331 403.3 33.8
400(20) 0.002500 403.2 33.8
398(20) 0.002513 403.1 33.7
416(20) 0.002404 403.0 33.7
425(21) 0.002353 402.9 33.8
442(21) 0.002262 402.8 33.9
425(21) 0.002353 402.7 34.0
412(20) 0.002427 402.6 34.3
397(20) 0.002519 402.5 34.5
414(20) 0.002415 402.4 34.9
408(20) 0.002451 402.3 35.3
439(21) 0.002278 402.2 35.7
409(20) 0.002445 402.2 36.2
389(20) 0.002571 402.3 36.8
415(20) 0.002410 402.4 37.4
422(21) 0.002370 402.4 38.1
428(21) 0.002336 402.5 38.9
438(21) 0.002283 402.6 39.8
436(21) 0.002294 402.6 40.7
434(21) 0.002304 402.7 41.7
416(20) 0.002404 402.7 42.8
455(21) 0.002198 402.8 43.9
448(21) 0.002232 402.9 45.2
445(21) 0.002247 402.9 46.5
426(21) 0.002347 403.0 47.8
459(21) 0.002179 403.0 49.3
479(22) 0.002088 403.1 50.8
464(22) 0.002155 403.2 52.3
473(22) 0.002114 403.2 53.9
447(21) 0.002237 403.3 55.5
470(22) 0.002128 403.3 57.1
493(22) 0.002028 403.4 58.7
515(23) 0.001942 403.5 60.2
523(23) 0.001912 403.5 61.7
509(23) 0.001965 403.6 63.2
513(23) 0.001949 403.7 64.6
499(22) 0.002004 403.7 66.0
546(23) 0.001832 403.8 67.3
537(23) 0.001862 403.8 68.6
525(23) 0.001905 403.9 70.0
554(24) 0.001805 404.0 71.3
542(23) 0.001845 404.0 72.7
516(23) 0.001938 404.1 74.1
507(23) 0.001972 404.1 75.7
527(23) 0.001898 404.2 77.3
548(23) 0.001825 404.3 79.1
530(23) 0.001887 404.3 81.0
513(23) 0.001949 404.4 83.1
504(22) 0.001984 404.5 85.3
538(23) 0.001859 404.5 87.7
541(23) 0.001848 404.6 90.1
575(24) 0.001739 404.6 92.7
521(23) 0.001919 404.7 95.3
522(23) 0.001916 404.8 98.0
583(24) 0.001715 404.8 100.6
538(23) 0.001859 404.9 103.2
547(23) 0.001828 404.9 105.7
532(23) 0.001880 405.0 108.0
556(24) 0.001799 405.1 110.0
508(23) 0.001968 405.1 111.7
513(23) 0.001949 405.2 113.1
530(23) 0.001887 405.2 114.0
525(23) 0.001905 405.3 114.6
559(24) 0.001789 405.4 114.6
537(23) 0.001862 405.4 114.3
536(23) 0.001866 405.5 113.5
470(22) 0.002128 405.6 112.3
507(23) 0.001972 405.6 110.9
503(22) 0.001988 405.7 109.1
495(22) 0.002020 405.7 107.2
471(22) 0.002123 405.8 105.2
510(23) 0.001961 405.9 103.0
525(23) 0.001905 405.9 100.8
491(22) 0.002037 406.0 98.7
483(22) 0.002070 406.0 96.5
498(22) 0.002008 406.1 94.5
478(22) 0.002092 406.2 92.5
497(22) 0.002012 406.2 90.6
461(21) 0.002169 406.3 88.8
495(22) 0.002020 406.4 87.1
494(22) 0.002024 406.4 85.6
457(21) 0.002188 406.5 84.1
457(21) 0.002188 406.5 82.7
469(22) 0.002132 406.6 81.5
463(22) 0.002160 406.7 80.3
486(22) 0.002058 406.7 79.1
478(22) 0.002092 406.8 78.1
491(22) 0.002037 406.8 77.1
474(22) 0.002110 406.9 76.2
463(22) 0.002160 407.0 75.3
475(22) 0.002105 407.0 74.4
471(22) 0.002123 407.1 73.5
504(22) 0.001984 407.1 72.7
474(22) 0.002110 407.2 71.9
493(22) 0.002028 407.3 71.1
472(22) 0.002119 407.3 70.3
446(21) 0.002242 407.4 69.6
443(21) 0.002257 407.5 68.8
453(21) 0.002208 407.5 68.1
444(21) 0.002252 407.6 67.3
461(21) 0.002169 407.6 66.6
446(21) 0.002242 407.7 65.9
442(21) 0.002262 407.8 65.2
434(21) 0.002304 407.8 64.5
450(21) 0.002222 407.9 63.9
447(21) 0.002237 407.9 63.3
429(21) 0.002331 408.0 62.8
462(21) 0.002164 408.1 62.2
434(21) 0.002304 408.1 61.8
465(22) 0.002151 408.2 61.4
446(21) 0.002242 408.3 61.0
436(21) 0.002294 408.3 60.8
437(21) 0.002288 408.4 60.6
449(21) 0.002227 408.4 60.5
440(21) 0.002273 408.5 60.6
406(20) 0.002463 408.6 60.8
421(21) 0.002375 408.6 61.0
418(20) 0.002392 408.7 61.5
451(21) 0.002217 408.7 62.1
456(21) 0.002193 408.8 62.9
433(21) 0.002309 408.9 63.9
462(21) 0.002164 408.9 65.2
446(21) 0.002242 409.0 66.8
451(21) 0.002217 409.0 68.7
435(21) 0.002299 409.1 71.0
435(21) 0.002299 409.2 73.7
452(21) 0.002212 409.2 76.8
473(22) 0.002114 409.3 80.4
418(20) 0.002392 409.4 84.4
467(22) 0.002141 409.4 88.7
458(21) 0.002183 409.5 93.1
489(22) 0.002045 409.5 97.2
498(22) 0.002008 409.6 100.7
475(22) 0.002105 409.7 103.4
466(22) 0.002146 409.7 104.9
498(22) 0.002008 409.8 105.6
505(22) 0.001980 409.8 105.5
485(22) 0.002062 409.9 105.0
518(23) 0.001931 410.0 104.5
503(22) 0.001988 410.0 104.1
502(22) 0.001992 410.1 103.9
496(22) 0.002016 410.2 103.8
470(22) 0.002128 410.2 104.0
505(22) 0.001980 410.3 104.3
536(23) 0.001866 410.3 104.6
542(23) 0.001845 410.4 104.8
479(22) 0.002088 410.5 105.0
511(23) 0.001957 410.5 105.0
494(22) 0.002024 410.6 104.7
501(22) 0.001996 410.6 104.1
541(23) 0.001848 410.7 103.2
523(23) 0.001912 410.8 102.0
545(23) 0.001835 410.8 100.5
489(22) 0.002045 410.9 98.7
532(23) 0.001880 410.9 96.7
507(23) 0.001972 411.0 94.6
531(23) 0.001883 411.1 92.5
503(22) 0.001988 411.1 90.5
483(22) 0.002070 411.2 88.6
511(23) 0.001957 411.3 87.0
477(22) 0.002096 411.3 85.7
481(22) 0.002079 411.4 84.8
493(22) 0.002028 411.4 84.3
475(22) 0.002105 411.5 84.3
454(21) 0.002203 411.6 84.8
495(22) 0.002020 411.6 85.8
450(21) 0.002222 411.7 87.3
516(23) 0.001938 411.7 89.2
474(22) 0.002110 411.8 91.6
490(22) 0.002041 411.9 94.1
480(22) 0.002083 411.9 96.8
506(22) 0.001976 412.0 99.3
554(24) 0.001805 412.1 101.4
499(22) 0.002004 412.1 102.7
474(22) 0.002110 412.2 103.1
487(22) 0.002053 412.2 102.3
496(22) 0.002016 412.3 100.4
487(22) 0.002053 412.4 97.4
487(22) 0.002053 412.4 93.6
512(23) 0.001953 412.5 89.2
509(23) 0.001965 412.5 84.6
456(21) 0.002193 412.6 79.9
426(21) 0.002347 412.7 75.3
475(22) 0.002105 412.7 71.0
470(22) 0.002128 412.8 67.1
430(21) 0.002326 412.8 63.5
414(20) 0.002415 412.9 60.2
443(21) 0.002257 413.0 57.4
451(21) 0.002217 413.0 54.8
440(21) 0.002273 413.1 52.7
425(21) 0.002353 413.2 50.8
470(22) 0.002128 413.2 49.2
455(21) 0.002198 413.3 47.8
427(21) 0.002342 413.3 46.7
432(21) 0.002315 413.4 45.8
393(20) 0.002545 413.5 45.0
419(20) 0.002387 413.5 44.4
415(20) 0.002410 413.6 43.9
410(20) 0.002439 413.6 43.6
425(21) 0.002353 413.6 43.4
408(20) 0.002451 413.6 43.4
426(21) 0.002347 413.5 43.4
427(21) 0.002342 413.5 43.6
423(21) 0.002364 413.5 43.8
436(21) 0.002294 413.4 44.2
447(21) 0.002237 413.4 44.8
410(20) 0.002439 413.3 45.5
443(21) 0.002257 413.3 46.3
472(22) 0.002119 413.2 47.4
414(20) 0.002415 413.2 48.6
446(21) 0.002242 413.1 50.1
474(22) 0.002110 413.1 51.8
422(21) 0.002370 413.1 53.7
415(20) 0.002410 413.0 56.0
427(21) 0.002342 413.0 58.5
461(21) 0.002169 412.9 61.4
490(22) 0.002041 412.9 64.4
464(22) 0.002155 412.8 67.6
481(22) 0.002079 412.8 70.9
428(21) 0.002336 412.7 74.0
449(21) 0.002227 412.7 76.7
464(22) 0.002155 412.7 78.8
474(22) 0.002110 412.6 80.0
509(23) 0.001965 412.6 80.4
483(22) 0.002070 412.5 79.9
442(21) 0.002262 412.5 78.8
457(21) 0.002188 412.4 77.4
466(22) 0.002146 412.4 75.8
441(21) 0.002268 412.3 74.3
458(21) 0.002183 412.3 73.0
432(21) 0.002315 412.3 72.0
454(21) 0.002203 412.2 71.3
436(21) 0.002294 412.2 71.0
495(22) 0.002020 412.1 71.0
466(22) 0.002146 412.1 71.3
480(22) 0.002083 412.0 72.0
531(23) 0.001883 412.0 72.9
445(21) 0.002247 411.9 74.2
470(22) 0.002128 411.9 75.7
478(22) 0.002092 411.9 77.5
492(22) 0.002033 411.8 79.5
468(22) 0.002137 411.8 81.7
505(22) 0.001980 411.7 84.0
502(22) 0.001992 411.7 86.5
494(22) 0.002024 411.6 89.0
486(22) 0.002058 411.6 91.6
478(22) 0.002092 411.6 94.1
482(22) 0.002075 411.5 96.5
491(22) 0.002037 411.5 98.7
506(22) 0.001976 411.4 100.6
518(23) 0.001931 411.4 102.3
529(23) 0.001890 411.3 103.7
497(22) 0.002012 411.3 104.9
546(23) 0.001832 411.2 105.9
505(22) 0.001980 411.2 106.7
526(23) 0.001901 411.2 107.4
547(23) 0.001828 411.1 108.0
514(23) 0.001946 411.1 108.6
546(23) 0.001832 411.0 109.2
538(23) 0.001859 411.0 109.8
553(24) 0.001808 410.9 110.3
558(24) 0.001792 410.9 110.9
569(24) 0.001757 410.8 111.4
570(24) 0.001754 410.8 111.9
594(24) 0.001684 410.8 112.3
523(23) 0.001912 410.7 112.6
573(24) 0.001745 410.7 112.9
547(23) 0.001828 410.6 113.0
560(24) 0.001786 410.6 113.0
556(24) 0.001799 410.5 112.9
557(24) 0.001795 410.5 112.6
573(24) 0.001745 410.4 112.2
596(24) 0.001678 410.4 111.6
575(24) 0.001739 410.4 110.9
534(23) 0.001873 410.3 110.0
523(23) 0.001912 410.3 109.0
535(23) 0.001869 410.2 107.9
566(24) 0.001767 410.2 106.7
549(23) 0.001822 410.1 105.4
515(23) 0.001942 410.1 103.9
547(23) 0.001828 410.0 102.4
550(23) 0.001818 410.0 100.9
528(23) 0.001894 410.0 99.3
529(23) 0.001890 409.9 97.6
531(23) 0.001883 409.9 96.0
532(23) 0.001880 409.8 94.3
503(22) 0.001988 409.8 92.6
509(23) 0.001965 409.7 90.9
562(24) 0.001779 409.7 89.2
526(23) 0.001901 409.7 87.5
525(23) 0.001905 409.6 85.8
514(23) 0.001946 409.6 84.2
504(22) 0.001984 409.5 82.5
489(22) 0.002045 409.5 80.9
522(23) 0.001916 409.4 79.3
494(22) 0.002024 409.4 77.8
503(22) 0.001988 409.3 76.3
496(22) 0.002016 409.3 74.8
482(22) 0.002075 409.3 73.3
516(23) 0.001938 409.2 71.9
503(22) 0.001988 409.2 70.5
496(22) 0.002016 409.1 69.1
504(22) 0.001984 409.1 67.8
525(23) 0.001905 409.0 66.5
477(22) 0.002096 409.0 65.2
495(22) 0.002020 408.9 64.0
489(22) 0.002045 408.9 62.8
503(22) 0.001988 408.9 61.6
502(22) 0.001992 408.8 60.5
495(22) 0.002020 408.8 59.3
499(22) 0.002004 408.7 58.2
510(23) 0.001961 408.7 57.2
474(22) 0.002110 408.6 56.1
504(22) 0.001984 408.6 55.1
518(23) 0.001931 408.5 54.1
489(22) 0.002045 408.5 53.1
500(22) 0.002000 408.5 52.1
482(22) 0.002075 408.4 51.1
503(22) 0.001988 408.4 50.1
495(22) 0.002020 408.3 49.2
467(22) 0.002141 408.3 48.2
494(22) 0.002024 408.2 47.3
443(21) 0.002257 408.2 46.4
460(21) 0.002174 408.2 45.5
500(22) 0.002000 408.1 44.6
477(22) 0.002096 408.1 43.7
468(22) 0.002137 408.0 42.9
461(21) 0.002169 408.0 42.1
450(21) 0.002222 407.9 41.3
462(21) 0.002164 407.9 40.5
482(22) 0.002075 407.8 39.8
476(22) 0.002101 407.8 39.1
494(22) 0.002024 407.8 38.4
492(22) 0.002033 407.7 37.8
467(22) 0.002141 407.7 37.1
497(22) 0.002012 407.6 36.5
454(21) 0.002203 407.6 36.0
480(22) 0.002083 407.5 35.4
480(22) 0.002083 407.5 34.9
451(21) 0.002217 407.4 34.5
475(22) 0.002105 407.4 34.0
491(22) 0.002037 407.4 33.6
483(22) 0.002070 407.3 33.2
456(21) 0.002193 407.3 32.9
498(22) 0.002008 407.2 32.5
479(22) 0.002088 407.2 32.2
448(21) 0.002232 407.1 32.0
460(21) 0.002174 407.1 31.7
494(22) 0.002024 407.0 31.5
474(22) 0.002110 407.0 31.3
462(21) 0.002164 407.0 31.2
514(23) 0.001946 406.9 31.1
490(22) 0.002041 406.9 31.0
493(22) 0.002028 406.8 30.9
485(22) 0.002062 406.8 30.9
460(21) 0.002174 406.7 30.9
496(22) 0.002016 406.7 30.9
490(22) 0.002041 406.6 30.9
496(22) 0.002016 406.6 31.0
484(22) 0.002066 406.6 31.1
484(22) 0.002066 406.5 31.3
512(23) 0.001953 406.5 31.5
547(23) 0.001828 406.4 31.7
523(23) 0.001912 406.4 31.9
501(22) 0.001996 406.3 32.2
505(22) 0.001980 406.3 32.5
514(23) 0.001946 406.3 32.9
498(22) 0.002008 406.2 33.3
507(23) 0.001972 406.2 33.7
521(23) 0.001919 406.1 34.2
556(24) 0.001799 406.1 34.8
518(23) 0.001931 406.0 35.4
506(22) 0.001976 406.0 36.0
553(24) 0.001808 405.9 36.8
560(24) 0.0 0.0 .
578(24) 0.0 0.0 .
610(25) 0.0 0.0 .
569(24) 0.0 0.0 .
581(24) 0.0 0.0 .
602(25) 0.0 0.0 .
621(25) 0.0 0.0 .
552(23) 0.0 0.0 .
650(25) 0.0 0.0 .
645(25) 0.0 0.0 .
668(26) 0.0 0.0 .
652(26) 0.0 0.0 .
657(26) 0.0 0.0 .
683(26) 0.0 0.0 .
674(26) 0.0 0.0 .
706(27) 0.0 0.0 .
666(26) 0.0 0.0 .
669(26) 0.0 0.0 .
736(27) 0.0 0.0 .
697(26) 0.0 0.0 .
778(28) 0.0 0.0 .
775(28) 0.0 0.0 .
737(27) 0.0 0.0 .
768(28) 0.0 0.0 .
734(27) 0.0 0.0 .
760(28) 0.0 0.0 .
822(29) 0.0 0.0 .
827(29) 0.0 0.0 .
844(29) 0.0 0.0 .
889(30) 0.0 0.0 .
863(29) 0.0 0.0 .
936(31) 0.0 0.0 .
978(31) 0.0 0.0 .
962(31) 0.0 0.0 .
1080(33) 0.0 0.0 .
1035(32) 0.0 0.0 .
1061(33) 0.0 0.0 .
1125(34) 0.0 0.0 .
1198(35) 0.0 0.0 .
1188(34) 0.0 0.0 .
1272(36) 0.0 0. .
1361(37) 0.0 0. .
1415(38) 0.0 0. .
1553(39) 0.0 0. .
1595(40) 0.0 0. .
1678(41) 0.0 0. .
1798(42) 0.0 0. .
1849(43) 0.0 0. .
2032(45) 0.0 0. .
2171(47) 0.0 0. .
2406(49) 0.0 0. .
2580(51) 0.0 0. .
2774(53) 0.0 0. .
3189(56) 0.0 0. .
3488(59) 0.0 0. .
3944(63) 0.0 0. .
4421(66) 0.0 0. .
5152(72) 0.0 0. .
6062(78) 0.0 0. .
6790(82) 0.0 0. .
7880(89) 0.0 0. .
9511(98) 0.0 0. .
11720(110) 0.0 0. .
14090(120) 0.0 0. .
17030(130) 0.0 0. .
21550(150) 0.0 0. .
27590(170) 0.0 0. .
34600(190) 0.0 0. .
45490(210) 0.0 0. .
61180(250) 0.0 0. .
80590(280) 0.0 0. .
102980(320) 0.0 0. .
124700(350) 0.0 0. .
134610(370) 0.0 0. .
134080(370) 0.0 0. .
118330(340) 0.0 0. .
95070(310) 0.0 0. .
72100(270) 0.0 0. .
53700(230) 0.0 0. .
40380(200) 0.0 0. .
30840(180) 0.0 0. .
23880(160) 0.0 0. .
18920(140) 0.0 0. .
14970(120) 0.0 0. .
12480(110) 0.0 0. .
10100(100) 0.0 0. .
8468(92) 0.0 0. .
7157(85) 0.0 0. .
6175(79) 0.0 0. .
5258(73) 0.0 0. .
4607(68) 0.0 0. .
4023(63) 0.0 0. .
3637(60) 0.0 0. .
3310(58) 0.0 0. .
2990(55) 0.0 0. .
2634(51) 0.0 0. .
2421(49) 0.0 0. .
2298(48) 0.0 0. .
2064(45) 0.0 0. .
1957(44) 0.0 0. .
1848(43) 0.0 0. .
1570(40) 0.0 0. .
1609(40) 0.0 0. .
1532(39) 0.0 0. .
1344(37) 0.0 0. .
1316(36) 0.0 0. .
1151(34) 0.0 0.0 .
1163(34) 0.0 0.0 .
1219(35) 0.0 0.0 .
1115(33) 0.0 0.0 .
1062(33) 0.0 0.0 .
1029(32) 0.0 0.0 .
1047(32) 0.0 0.0 .
972(31) 0.0 0.0 .
934(31) 0.0 0.0 .
965(31) 0.0 0.0 .
949(31) 0.0 0.0 .
855(29) 0.0 0.0 .
864(29) 0.0 0.0 .
830(29) 0.0 0.0 .
813(29) 0.0 0.0 .
803(28) 0.0 0.0 .
814(29) 0.0 0.0 .
777(28) 0.0 0.0 .
780(28) 0.0 0.0 .
761(28) 0.0 0.0 .
741(27) 0.0 0.0 .
750(27) 0.0 0.0 .
706(27) 0.0 0.0 .
737(27) 0.0 0.0 .
745(27) 0.0 0.0 .
752(27) 0.0 0.0 .
674(26) 0.0 0.0 .
725(27) 0.0 0.0 .
732(27) 0.0 0.0 .
737(27) 0.0 0.0 .
677(26) 0.0 0.0 .
669(26) 0.0 0.0 .
702(26) 0.0 0.0 .
712(27) 0.0 0.0 .
635(25) 0.0 0.0 .
667(26) 0.0 0.0 .
643(25) 0.0 0.0 .
690(26) 0.0 0.0 .
620(25) 0.0 0.0 .
649(25) 0.001541 399.5 100.1
622(25) 0.001608 399.5 99.8
633(25) 0.001580 399.4 99.6
639(25) 0.001565 399.4 99.4
646(25) 0.001548 399.3 99.3
642(25) 0.001558 399.3 99.3
582(24) 0.001718 399.2 99.4
610(25) 0.001639 399.2 99.6
615(25) 0.001626 399.1 99.9
603(25) 0.001658 399.1 100.3
587(24) 0.001704 399.1 100.9
575(24) 0.001739 399.0 101.6
614(25) 0.001629 399.0 102.5
578(24) 0.001730 398.9 103.6
576(24) 0.001736 398.9 105.0
553(24) 0.001808 398.8 106.6
585(24) 0.001709 398.8 108.5
572(24) 0.001748 398.7 110.7
586(24) 0.001706 398.7 113.3
571(24) 0.001751 398.7 116.3
585(24) 0.001709 398.6 119.7
542(23) 0.001845 398.6 123.5
579(24) 0.001727 398.5 127.8
580(24) 0.001724 398.5 132.5
559(24) 0.001789 398.4 137.5
535(23) 0.001869 398.4 142.7
606(25) 0.001650 398.3 148.0
596(24) 0.001678 398.3 153.0
568(24) 0.001761 398.3 157.4
607(25) 0.001647 398.2 160.9
561(24) 0.001783 398.2 162.9
583(24) 0.001715 398.1 163.1
603(25) 0.001658 398.1 161.4
572(24) 0.001748 398.0 157.8
568(24) 0.001761 398.0 152.6
561(24) 0.001783 398.0 146.5
595(24) 0.001681 397.9 139.8
546(23) 0.001832 397.9 133.0
532(23) 0.001880 397.8 126.4
555(24) 0.001802 397.8 120.2
527(23) 0.001898 397.7 114.5
513(23) 0.001949 397.7 109.4
509(23) 0.001965 397.6 104.9
524(23) 0.001908 397.6 100.9
534(23) 0.001873 397.6 97.5
486(22) 0.002058 397.5 94.6
508(23) 0.001968 397.5 92.1
496(22) 0.002016 397.4 90.0
523(23) 0.001912 397.4 88.2
528(23) 0.001894 397.3 86.8
519(23) 0.001927 397.3 85.5
513(23) 0.001949 397.2 84.5
471(22) 0.002123 397.2 83.7
519(23) 0.001927 397.2 83.1
471(22) 0.002123 397.1 82.6
509(23) 0.001965 397.1 82.3
500(22) 0.002000 397.0 82.0
473(22) 0.002114 397.0 81.8
496(22) 0.002016 396.9 81.7
492(22) 0.002033 396.9 81.5
516(23) 0.001938 396.8 81.4
485(22) 0.002062 396.8 81.2
465(22) 0.002151 396.8 81.1
486(22) 0.002058 396.7 81.0
493(22) 0.002028 396.7 81.1
470(22) 0.002128 396.6 81.4
544(23) 0.001838 396.6 81.9
521(23) 0.001919 396.5 82.8
493(22) 0.002028 396.5 84.1
515(23) 0.001942 396.4 85.8
528(23) 0.001894 396.4 87.9
488(22) 0.002049 396.4 90.6
534(23) 0.001873 396.3 93.7
519(23) 0.001927 396.3 97.2
505(22) 0.001980 396.2 101.3
529(23) 0.001890 396.2 105.8
515(23) 0.001942 396.1 110.7
488(22) 0.002049 396.1 115.9
557(24) 0.001795 396.1 121.3
523(23) 0.001912 396.0 126.6
543(23) 0.001842 396.0 131.8
567(24) 0.001764 395.9 136.5
535(23) 0.001869 395.9 140.5
557(24) 0.001795 395.8 143.4
563(24) 0.001776 395.8 145.0
569(24) 0.001757 395.7 145.2
573(24) 0.001745 395.7 143.9
589(24) 0.001698 395.7 141.3
542(23) 0.001845 395.6 137.5
549(23) 0.001822 395.6 132.7
577(24) 0.001733 395.5 127.3
542(23) 0.001845 395.5 121.5
507(23) 0.001972 395.4 115.6
497(22) 0.002012 395.4 109.6
473(22) 0.002114 395.3 103.9
502(22) 0.001992 395.3 98.4
490(22) 0.002041 395.3 93.2
471(22) 0.002123 395.2 88.5
495(22) 0.002020 395.2 84.1
487(22) 0.002053 395.1 80.1
463(22) 0.002160 395.1 76.5
513(23) 0.001949 395.0 73.4
452(21) 0.002212 395.0 70.6
473(22) 0.002114 394.9 68.3
468(22) 0.002137 394.9 66.3
492(22) 0.002033 394.9 64.7
483(22) 0.002070 394.8 63.4
482(22) 0.002075 394.8 62.5
492(22) 0.002033 394.7 61.8
456(21) 0.002193 394.7 61.5
450(21) 0.002222 394.6 61.5
436(21) 0.002294 394.6 61.8
455(21) 0.002198 394.6 62.4
456(21) 0.002193 394.5 63.2
400(20) 0.002500 394.5 64.3
491(22) 0.002037 394.4 65.6
469(22) 0.002132 394.4 67.1
447(21) 0.002237 394.3 68.7
481(22) 0.002079 394.3 70.5
464(22) 0.002155 394.2 72.3
446(21) 0.002242 394.2 74.1
482(22) 0.002075 394.2 75.7
476(22) 0.002101 394.1 77.0
478(22) 0.002092 394.1 78.0
483(22) 0.002070 394.0 78.6
459(21) 0.002179 394.0 78.7
472(22) 0.002119 393.9 78.3
479(22) 0.002088 393.9 77.5
462(21) 0.002164 393.8 76.4
520(23) 0.001923 393.8 75.0
459(21) 0.002179 393.8 73.4
449(21) 0.002227 393.7 71.7
466(22) 0.002146 393.7 70.0
437(21) 0.002288 393.6 68.2
408(20) 0.002451 393.6 66.4
462(21) 0.002164 393.5 64.7
441(21) 0.002268 393.5 63.1
450(21) 0.002222 393.4 61.5
429(21) 0.002331 393.4 60.0
421(21) 0.002375 393.4 58.6
436(21) 0.002294 393.3 57.2
441(21) 0.002268 393.3 56.0
437(21) 0.002288 393.2 54.8
444(21) 0.002252 393.2 53.7
409(20) 0.002445 393.1 52.7
427(21) 0.002342 393.1 51.8
422(21) 0.002370 393.0 50.9
408(20) 0.002451 393.0 50.1
425(21) 0.002353 393.0 49.2
397(20) 0.002519 392.9 48.4
417(20) 0.002398 392.9 47.5
426(21) 0.002347 392.8 46.7
426(21) 0.002347 392.8 45.9
402(20) 0.002488 392.7 45.2
427(21) 0.002342 392.7 44.4
373(19) 0.002681 392.7 43.8
415(20) 0.002410 392.6 43.2
372(19) 0.002688 392.6 42.6
413(20) 0.002421 392.5 42.1
421(21) 0.002375 392.5 41.7
392(20) 0.002551 392.4 41.4
393(20) 0.002545 392.4 41.1
411(20) 0.002433 392.3 40.9
405(20) 0.002469 392.3 40.8
389(20) 0.002571 392.3 40.7
435(21) 0.002299 392.2 40.6
425(21) 0.002353 392.2 40.7
429(21) 0.002331 392.1 40.7
412(20) 0.002427 392.1 40.8
400(20) 0.002500 392.0 41.0
402(20) 0.002488 392.0 41.3
424(21) 0.002358 391.9 41.6
391(20) 0.002558 391.8 42.0
417(20) 0.002398 391.8 42.4
411(20) 0.002433 391.7 42.9
414(20) 0.002415 391.6 43.5
422(21) 0.002370 391.6 44.2
426(21) 0.002347 391.5 44.9
418(20) 0.002392 391.4 45.7
430(21) 0.002326 391.4 46.6
394(20) 0.002538 391.3 47.5
415(20) 0.002410 391.2 48.5
411(20) 0.002433 391.2 49.5
427(21) 0.002342 391.1 50.6
411(20) 0.002433 391.0 51.8
411(20) 0.002433 391.0 53.0
408(20) 0.002451 390.9 54.4
430(21) 0.002326 390.8 55.9
430(21) 0.002326 390.8 57.6
415(20) 0.002410 390.7 59.6
445(21) 0.002247 390.6 61.9
399(20) 0.002506 390.6 64.4
397(20) 0.002519 390.5 67.4
418(20) 0.002392 390.4 70.9
427(21) 0.002342 390.3 74.8
479(22) 0.002088 390.3 79.2
486(22) 0.002058 390.2 84.1
466(22) 0.002146 390.1 89.6
479(22) 0.002088 390.1 95.5
493(22) 0.002028 390.0 101.9
517(23) 0.001934 389.9 108.6
515(23) 0.001942 389.9 115.4
552(23) 0.001812 389.8 122.1
599(24) 0.001669 389.7 128.1
575(24) 0.001739 389.7 133.2
538(23) 0.001859 389.6 136.9
556(24) 0.001799 389.5 138.8
561(24) 0.001783 389.5 138.8
545(23) 0.001835 389.4 136.9
529(23) 0.001890 389.3 133.4
527(23) 0.001898 389.3 128.5
505(22) 0.001980 389.2 122.8
510(23) 0.001961 389.1 116.7
503(22) 0.001988 389.1 110.5
470(22) 0.002128 389.0 104.4
476(22) 0.002101 388.9 98.7
514(23) 0.001946 388.8 93.5
459(21) 0.002179 388.8 88.8
509(23) 0.001965 388.7 84.7
459(21) 0.002179 388.6 81.1
437(21) 0.002288 388.6 78.1
438(21) 0.002283 388.5 75.6
500(22) 0.002000 388.4 73.5
476(22) 0.002101 388.4 71.9
438(21) 0.002283 388.3 70.6
452(21) 0.002212 388.2 69.7
447(21) 0.002237 388.2 69.1
448(21) 0.002232 388.1 68.8
491(22) 0.002037 388.0 68.7
477(22) 0.002096 388.0 68.8
503(22) 0.001988 387.9 69.2
498(22) 0.002008 387.8 69.7
453(21) 0.002208 387.8 70.4
463(22) 0.002160 387.7 71.3
491(22) 0.002037 387.6 72.3
491(22) 0.002037 387.6 73.4
455(21) 0.002198 387.5 74.7
525(23) 0.001905 387.4 76.1
503(22) 0.001988 387.4 77.6
473(22) 0.002114 387.3 79.1
496(22) 0.002016 387.2 80.7
455(21) 0.002198 387.1 82.3
475(22) 0.002105 387.1 83.9
502(22) 0.001992 387.0 85.5
515(23) 0.001942 386.9 87.0
510(23) 0.001961 386.9 88.5
516(23) 0.001938 386.8 89.8
477(22) 0.002096 386.7 91.0
518(23) 0.001931 386.7 92.0
523(23) 0.001912 386.6 92.9
537(23) 0.001862 386.5 93.6
487(22) 0.002053 386.5 94.1
500(22) 0.002000 386.4 94.6
523(23) 0.001912 386.3 94.8
526(23) 0.001901 386.3 95.1
511(23) 0.001957 386.2 95.2
480(22) 0.002083 386.1 95.4
474(22) 0.002110 386.1 95.6
489(22) 0.002045 386.0 95.9
493(22) 0.002028 385.9 96.3
504(22) 0.001984 385.9 97.0
463(22) 0.002160 385.8 97.8
484(22) 0.002066 385.7 98.9
468(22) 0.002137 385.6 100.3
519(23) 0.001927 385.6 101.9
467(22) 0.002141 385.5 103.9
520(23) 0.001923 385.4 106.2
478(22) 0.002092 385.4 108.8
525(23) 0.001905 385.3 111.7
509(23) 0.001965 385.2 114.9
500(22) 0.002000 385.2 118.3
507(23) 0.001972 385.1 121.8
537(23) 0.001862 385.0 125.4
524(23) 0.001908 385.0 129.0
543(23) 0.001842 384.9 132.3
524(23) 0.001908 384.8 135.3
590(24) 0.001695 384.8 137.9
610(25) 0.001639 384.7 139.8
603(25) 0.001658 384.6 141.1
528(23) 0.001894 384.6 141.9
529(23) 0.001890 384.5 142.0
512(23) 0.001953 384.4 141.7
552(23) 0.001812 384.4 141.2
532(23) 0.001880 384.3 140.5
517(23) 0.001934 384.2 139.9
514(23) 0.001946 384.2 139.4
566(24) 0.001767 384.1 139.2
541(23) 0.001848 384.0 139.3
552(23) 0.001812 383.9 139.9
553(24) 0.001808 383.9 140.9
555(24) 0.001802 383.8 142.4
541(23) 0.001848 383.7 144.4
527(23) 0.001898 383.7 146.9
559(24) 0.001789 383.6 149.9
523(23) 0.001912 383.5 153.3
575(24) 0.001739 383.5 157.2
603(25) 0.001658 383.4 161.3
609(25) 0.001642 383.3 165.7
615(25) 0.001626 383.3 170.1
596(24) 0.001678 383.2 174.5
616(25) 0.001623 383.1 178.6
619(25) 0.001616 383.1 182.2
614(25) 0.001629 383.0 185.2
574(24) 0.001742 382.9 187.4
616(25) 0.001623 382.9 188.8
624(25) 0.001603 382.8 189.4
592(24) 0.001689 382.7 189.1
565(24) 0.001770 382.7 188.2
567(24) 0.001764 382.6 186.8
548(23) 0.001825 382.5 185.0
619(25) 0.001616 382.4 183.0
577(24) 0.001733 382.4 181.0
603(25) 0.001658 382.3 178.9
526(23) 0.001901 382.2 177.0
598(24) 0.001672 382.2 175.2
556(24) 0.001799 382.1 173.7
581(24) 0.001721 382.0 172.3
580(24) 0.001724 382.0 171.2
587(24) 0.001704 381.9 170.2
567(24) 0.001764 381.8 169.5
583(24) 0.001715 381.8 168.9
589(24) 0.001698 381.7 168.5
613(25) 0.001631 381.6 168.2
617(25) 0.001621 381.6 168.0
622(25) 0.001608 381.5 167.8
584(24) 0.001712 381.4 167.6
558(24) 0.001792 381.4 167.4
584(24) 0.001712 381.3 166.9
623(25) 0.001605 381.2 166.1
639(25) 0.001565 381.2 165.1
627(25) 0.001595 381.1 163.6
562(24) 0.001779 381.0 161.7
607(25) 0.001647 380.9 159.4
636(25) 0.001572 380.9 156.8
584(24) 0.001712 380.8 153.8
626(25) 0.001597 380.7 150.7
577(24) 0.001733 380.7 147.5
578(24) 0.001730 380.6 144.2
570(24) 0.001754 380.5 141.1
587(24) 0.001704 380.5 138.0
569(24) 0.001757 380.4 135.1
540(23) 0.001852 380.3 132.4
570(24) 0.001754 380.3 129.9
556(24) 0.001799 380.2 127.6
562(24) 0.001779 380.1 125.6
552(23) 0.001812 380.1 123.7
555(24) 0.001802 380.0 122.1
555(24) 0.001802 379.9 120.8
537(23) 0.001862 379.9 119.7
575(24) 0.001739 379.8 118.8
596(24) 0.001678 379.7 118.1
593(24) 0.001686 379.7 117.7
569(24) 0.001757 379.6 117.5
596(24) 0.001678 379.5 117.6
607(25) 0.001647 379.5 117.8
572(24) 0.001748 379.4 118.1
629(25) 0.001590 379.3 118.6
621(25) 0.001610 379.2 119.1
600(24) 0.0 0.0 .
587(24) 0.0 0.0 .
635(25) 0.0 0.0 .
635(25) 0.0 0.0 .
644(25) 0.0 0.0 .
711(27) 0.0 0.0 .
663(26) 0.0 0.0 .
680(26) 0.0 0.0 .
685(26) 0.0 0.0 .
744(27) 0.0 0.0 .
753(27) 0.0 0.0 .
785(28) 0.0 0.0 .
831(29) 0.0 0.0 .
820(29) 0.0 0.0 .
942(31) 0.0 0.0 .
1005(32) 0.0 0.0 .
1062(33) 0.0 0.0 .
1142(34) 0.0 0.0 .
1233(35) 0.0 0. .
1373(37) 0.0 0. .
1526(39) 0.0 0. .
1896(44) 0.0 0. .
2238(47) 0.0 0. .
2541(50) 0.0 0. .
3051(55) 0.0 0. .
3886(62) 0.0 0. .
4928(70) 0.0 0. .
6240(79) 0.0 0. .
8230(91) 0.0 0. .
10710(100) 0.0 0. .
13480(120) 0.0 0. .
16340(130) 0.0 0. .
18100(140) 0.0 0. .
17580(130) 0.0 0. .
15620(130) 0.0 0. .
12980(110) 0.0 0. .
10180(100) 0.0 0. .
7549(87) 0.0 0. .
5652(75) 0.0 0. .
4443(67) 0.0 0. .
3493(59) 0.0 0. .
2742(52) 0.0 0. .
2256(47) 0.0 0. .
1946(44) 0.0 0. .
1607(40) 0.0 0. .
1449(38) 0.0 0. .
1358(37) 0.0 0. .
1178(34) 0.0 0.0 .
1049(32) 0.0 0.0 .
951(31) 0.0 0.0 .
910(30) 0.0 0.0 .
851(29) 0.0 0.0 .
858(29) 0.0 0.0 .
768(28) 0.0 0.0 .
730(27) 0.0 0.0 .
667(26) 0.0 0.0 .
628(25) 0.0 0.0 .
644(25) 0.0 0.0 .
604(25) 0.0 0.0 .
586(24) 0.0 0.0 .
599(24) 0.0 0.0 .
560(24) 0.0 0.0 .
552(23) 0.0 0.0 .
555(24) 0.0 0.0 .
519(23) 0.0 0.0 .
553(24) 0.0 0.0 .
536(23) 0.0 0.0 .
495(22) 0.0 0.0 .
533(23) 0.0 0.0 .
539(23) 0.0 0.0 .
509(23) 0.0 0.0 .
504(22) 0.0 0.0 .
492(22) 0.0 0.0 .
481(22) 0.002079 374.2 87.3
510(23) 0.001961 374.1 88.2
542(23) 0.001845 374.1 88.9
534(23) 0.001873 374.0 89.4
538(23) 0.001859 373.9 89.7
522(23) 0.001916 373.9 89.9
479(22) 0.002088 373.8 89.9
494(22) 0.002024 373.7 89.7
529(23) 0.001890 373.7 89.2
493(22) 0.002028 373.6 88.6
491(22) 0.002037 373.5 87.9
480(22) 0.002083 373.5 87.0
481(22) 0.002079 373.4 85.9
491(22) 0.002037 373.3 84.8
480(22) 0.002083 373.3 83.6
460(21) 0.002174 373.2 82.3
472(22) 0.002119 373.1 81.0
457(21) 0.002188 373.0 79.7
492(22) 0.002033 373.0 78.4
470(22) 0.002128 372.9 77.2
423(21) 0.002364 372.8 76.0
447(21) 0.002237 372.8 74.8
440(21) 0.002273 372.7 73.8
452(21) 0.002212 372.6 72.8
457(21) 0.002188 372.6 71.9
427(21) 0.002342 372.5 71.1
464(22) 0.002155 372.4 70.4
458(21) 0.002183 372.4 69.9
455(21) 0.002198 372.3 69.4
467(22) 0.002141 372.2 69.1
452(21) 0.002212 372.2 68.9
426(21) 0.002347 372.1 68.7
442(21) 0.002262 372.0 68.7
417(20) 0.002398 372.0 68.8
455(21) 0.002198 371.9 68.9
428(21) 0.002336 371.8 69.2
438(21) 0.002283 371.8 69.5
442(21) 0.002262 371.7 69.9
426(21) 0.002347 371.6 70.3
438(21) 0.002283 371.6 70.7
455(21) 0.002198 371.5 71.1
450(21) 0.002222 371.4 71.6
412(20) 0.002427 371.3 72.0
464(22) 0.002155 371.3 72.3
437(21) 0.002288 371.2 72.6
464(22) 0.002155 371.1 72.8
451(21) 0.002217 371.1 72.9
415(20) 0.002410 371.0 73.0
441(21) 0.002268 370.9 73.0
428(21) 0.002336 370.9 72.9
500(22) 0.002000 370.8 72.7
465(22) 0.002151 370.7 72.5
444(21) 0.002252 370.7 72.3
452(21) 0.002212 370.6 72.0
441(21) 0.002268 370.5 71.8
445(21) 0.002247 370.5 71.6
441(21) 0.002268 370.4 71.5
422(21) 0.002370 370.3 71.4
461(21) 0.002169 370.3 71.3
434(21) 0.002304 370.2 71.4
455(21) 0.002198 370.1 71.6
447(21) 0.002237 370.1 71.8
423(21) 0.002364 370.0 72.2
439(21) 0.002278 369.9 72.7
425(21) 0.002353 369.8 73.4
448(21) 0.002232 369.8 74.2
441(21) 0.002268 369.7 75.1
450(21) 0.002222 369.6 76.2
422(21) 0.002370 369.6 77.4
421(21) 0.002375 369.5 78.8
460(21) 0.002174 369.4 80.4
435(21) 0.002299 369.4 82.1
431(21) 0.002320 369.3 84.1
479(22) 0.002088 369.2 86.2
467(22) 0.002141 369.2 88.5
459(21) 0.002179 369.1 90.9
478(22) 0.002092 369.0 93.6
471(22) 0.002123 369.0 96.5
496(22) 0.002016 368.9 99.5
480(22) 0.002083 368.8 102.7
505(22) 0.001980 368.8 106.0
489(22) 0.002045 368.7 109.4
478(22) 0.002092 368.6 113.0
485(22) 0.002062 368.6 116.6
460(21) 0.002174 368.5 120.2
509(23) 0.001965 368.4 123.7
472(22) 0.002119 368.3 127.2
499(22) 0.002004 368.3 130.5
516(23) 0.001938 368.2 133.5
522(23) 0.001916 368.1 136.3
536(23) 0.001866 368.1 138.7
525(23) 0.001905 368.0 140.7
551(23) 0.001815 367.9 142.3
507(23) 0.001972 367.9 143.5
512(23) 0.001953 367.8 144.3
554(24) 0.001805 367.7 144.7
546(23) 0.001832 367.7 144.7
520(23) 0.001923 367.6 144.5
579(24) 0.001727 367.5 144.0
572(24) 0.001748 367.5 143.2
512(23) 0.001953 367.4 142.3
537(23) 0.001862 367.3 141.2
520(23) 0.001923 367.3 139.9
520(23) 0.001923 367.2 138.4
552(23) 0.001812 367.1 136.8
512(23) 0.001953 367.1 135.0
493(22) 0.002028 367.0 133.1
506(22) 0.001976 366.9 131.0
545(23) 0.001835 366.9 128.8
519(23) 0.001927 366.8 126.4
507(23) 0.001972 366.7 124.0
492(22) 0.002033 366.6 121.4
491(22) 0.002037 366.6 118.9
494(22) 0.002024 366.5 116.3
456(21) 0.002193 366.4 113.8
497(22) 0.002012 366.4 111.3
465(22) 0.002151 366.3 108.9
452(21) 0.002212 366.2 106.7
476(22) 0.002101 366.2 104.7
461(21) 0.002169 366.1 103.0
496(22) 0.002016 366.0 101.5
478(22) 0.002092 366.0 100.3
455(21) 0.002198 365.9 99.4
460(21) 0.002174 365.8 99.0
462(21) 0.002164 365.8 98.9
473(22) 0.002114 365.7 99.4
474(22) 0.002110 365.6 100.3
448(21) 0.002232 365.6 101.8
462(21) 0.002164 365.5 103.9
459(21) 0.002179 365.4 106.6
487(22) 0.002053 365.4 109.9
501(22) 0.001996 365.3 113.8
503(22) 0.001988 365.2 118.4
474(22) 0.002110 365.1 123.5
458(21) 0.002183 365.1 129.0
461(21) 0.002169 365.0 134.9
484(22) 0.002066 364.9 140.9
488(22) 0.002049 364.9 146.9
479(22) 0.002088 364.8 152.6
520(23) 0.001923 364.7 157.5
517(23) 0.001934 364.7 161.3
482(22) 0.002075 364.6 163.6
480(22) 0.002083 364.5 164.1
473(22) 0.002114 364.5 162.7
482(22) 0.002075 364.4 159.2
451(21) 0.002217 364.3 154.1
475(22) 0.002105 364.3 147.7
443(21) 0.002257 364.2 140.5
405(20) 0.002469 364.1 133.0
437(21) 0.002288 364.1 125.4
456(21) 0.002193 364.0 118.1
448(21) 0.002232 363.9 111.3
396(20) 0.002525 363.9 105.0
420(20) 0.002381 363.8 99.3
432(21) 0.002315 363.7 94.3
441(21) 0.002268 363.6 89.7
443(21) 0.002257 363.6 85.8
395(20) 0.002532 363.5 82.3
445(21) 0.002247 363.4 79.2
442(21) 0.002262 363.4 76.5
441(21) 0.002268 363.3 74.2
417(20) 0.002398 363.2 72.2
419(20) 0.002387 363.2 70.4
432(21) 0.002315 363.1 68.9
416(20) 0.002404 363.0 67.5
411(20) 0.002433 363.0 66.3
455(21) 0.002198 362.9 65.3
427(21) 0.002342 362.8 64.3
423(21) 0.002364 362.8 63.5
391(20) 0.002558 362.7 62.8
407(20) 0.002457 362.6 62.2
420(20) 0.002381 362.6 61.7
423(21) 0.002364 362.5 61.3
399(20) 0.002506 362.4 61.0
409(20) 0.002445 362.4 60.8
409(20) 0.002445 362.3 60.7
444(21) 0.002252 362.2 60.8
411(20) 0.002433 362.2 60.9
429(21) 0.002331 362.1 61.2
396(20) 0.002525 362.0 61.5
426(21) 0.002347 361.9 62.0
405(20) 0.002469 361.9 62.7
407(20) 0.002457 361.8 63.5
415(20) 0.002410 361.7 64.4
444(21) 0.002252 361.7 65.5
429(21) 0.002331 361.6 66.7
432(21) 0.002315 361.5 68.1
405(20) 0.002469 361.5 69.7
410(20) 0.002439 361.4 71.5
444(21) 0.002252 361.3 73.6
453(21) 0.002208 361.3 75.9
443(21) 0.002257 361.2 78.4
443(21) 0.002257 361.1 81.2
424(21) 0.002358 361.1 84.3
420(20) 0.002381 361.0 87.6
444(21) 0.002252 360.9 91.3
475(22) 0.002105 360.9 95.2
422(21) 0.002370 360.8 99.4
444(21) 0.002252 360.7 103.9
479(22) 0.002088 360.7 108.5
484(22) 0.002066 360.6 113.2
435(21) 0.002299 360.5 117.9
467(22) 0.002141 360.4 122.4
451(21) 0.002217 360.4 126.7
474(22) 0.002110 360.3 130.5
489(22) 0.002045 360.2 133.7
519(23) 0.001927 360.2 136.2
514(23) 0.001946 360.1 137.9
510(23) 0.001961 360.0 138.8
494(22) 0.002024 360.0 138.7
488(22) 0.002049 359.9 137.9
462(21) 0.002164 359.8 136.2
488(22) 0.002049 359.8 133.7
484(22) 0.002066 359.7 130.5
477(22) 0.002096 359.6 126.7
466(22) 0.002146 359.6 122.4
472(22) 0.002119 359.5 117.7
482(22) 0.002075 359.4 112.6
463(22) 0.002160 359.4 107.4
417(20) 0.002398 359.3 102.0
415(20) 0.002410 359.2 96.7
442(21) 0.002262 359.2 91.6
443(21) 0.002257 359.1 86.6
411(20) 0.002433 359.0 81.8
416(20) 0.002404 359.0 77.3
426(21) 0.002347 358.9 73.1
407(20) 0.002457 358.8 69.3
416(20) 0.002404 358.7 65.7
414(20) 0.002415 358.7 62.4
406(20) 0.002463 358.6 59.4
405(20) 0.002469 358.5 56.7
391(20) 0.002558 358.5 54.2
409(20) 0.002445 358.4 52.0
385(20) 0.002597 358.3 50.0
403(20) 0.002481 358.3 48.2
367(19) 0.002725 358.2 46.6
374(19) 0.002674 358.1 45.2
381(20) 0.002625 358.1 43.9
403(20) 0.002481 358.0 42.8
411(20) 0.002433 357.9 41.8
385(20) 0.002597 357.9 40.9
381(20) 0.002625 357.8 40.2
369(19) 0.002710 357.7 39.6
354(19) 0.002825 357.7 39.0
376(19) 0.002660 357.6 38.6
372(19) 0.002688 357.5 38.2
351(19) 0.002849 357.5 38.0
383(20) 0.002611 357.4 37.8
364(19) 0.002747 357.3 37.7
397(20) 0.002519 357.2 37.7
372(19) 0.002688 357.2 37.8
352(19) 0.002841 357.1 38.0
369(19) 0.002710 357.0 38.2
355(19) 0.002817 357.0 38.5
367(19) 0.002725 356.9 38.9
383(20) 0.002611 356.9 39.4
368(19) 0.002717 357.0 40.0
396(20) 0.002525 357.1 40.6
354(19) 0.002825 357.2 41.3
364(19) 0.002747 357.3 42.0
399(20) 0.002506 357.3 42.8
393(20) 0.002545 357.4 43.7
368(19) 0.002717 357.5 44.6
386(20) 0.002591 357.6 45.5
378(19) 0.002646 357.7 46.4
362(19) 0.002762 357.7 47.2
393(20) 0.002545 357.8 48.0
369(19) 0.002710 357.9 48.7
373(19) 0.002681 358.0 49.3
400(20) 0.002500 358.1 49.7
390(20) 0.002564 358.1 50.1
375(19) 0.002667 358.2 50.2
383(20) 0.002611 358.3 50.3
399(20) 0.002506 358.4 50.3
380(19) 0.002632 358.4 50.2
390(20) 0.002564 358.5 50.0
357(19) 0.002801 358.6 49.8
365(19) 0.002740 358.7 49.5
353(19) 0.002833 358.8 49.3
361(19) 0.002770 358.8 49.1
379(19) 0.002639 358.9 48.9
405(20) 0.002469 359.0 48.8
400(20) 0.002500 359.1 48.6
396(20) 0.002525 359.2 48.5
357(19) 0.002801 359.2 48.5
422(21) 0.002370 359.3 48.4
389(20) 0.002571 359.4 48.4
370(19) 0.002703 359.5 48.4
363(19) 0.002755 359.6 48.4
407(20) 0.002457 359.6 48.4
385(20) 0.002597 359.7 48.5
350(19) 0.002857 359.8 48.6
393(20) 0.002545 359.9 48.7
370(19) 0.002703 359.9 49.0
362(19) 0.002762 360.0 49.2
391(20) 0.002558 360.1 49.6
372(19) 0.002688 360.2 50.0
419(20) 0.002387 360.3 50.4
361(19) 0.002770 360.3 51.0
370(19) 0.002703 360.4 51.6
379(19) 0.002639 360.5 52.2
368(19) 0.002717 360.6 52.9
388(20) 0.002577 360.7 53.6
373(19) 0.002681 360.7 54.4
416(20) 0.002404 360.8 55.3
411(20) 0.002433 360.9 56.2
410(20) 0.002439 361.0 57.1
369(19) 0.002710 361.0 58.1
371(19) 0.002695 361.1 59.1
401(20) 0.002494 361.2 60.1
374(19) 0.002674 361.3 61.1
360(19) 0.002778 361.4 62.2
375(19) 0.002667 361.4 63.2
390(20) 0.002564 361.5 64.3
389(20) 0.002571 361.6 65.3
409(20) 0.002445 361.7 66.4
423(21) 0.002364 361.8 67.4
443(21) 0.002257 361.8 68.3
380(19) 0.002632 361.9 69.3
396(20) 0.002525 362.0 70.1
389(20) 0.002571 362.1 70.9
419(20) 0.002387 362.2 71.7
425(21) 0.002353 362.2 72.3
471(22) 0.002123 362.3 72.9
437(21) 0.002288 362.4 73.4
418(20) 0.002392 362.5 73.8
429(21) 0.002331 362.5 74.2
414(20) 0.002415 362.6 74.4
450(21) 0.002222 362.7 74.6
414(20) 0.002415 362.8 74.7
426(21) 0.002347 362.9 74.7
417(20) 0.002398 362.9 74.6
419(20) 0.002387 363.0 74.5
402(20) 0.002488 363.1 74.4
391(20) 0.002558 363.2 74.2
426(21) 0.002347 363.3 74.0
422(21) 0.002370 363.3 73.9
396(20) 0.002525 363.4 73.7
426(21) 0.002347 363.5 73.5
423(21) 0.002364 363.6 73.4
417(20) 0.002398 363.6 73.3
412(20) 0.002427 363.7 73.3
416(20) 0.002404 363.8 73.4
420(20) 0.002381 363.9 73.5
394(20) 0.002538 364.0 73.8
411(20) 0.002433 364.0 74.1
396(20) 0.002525 364.1 74.5
402(20) 0.002488 364.2 75.0
387(20) 0.002584 364.3 75.6
386(20) 0.002591 364.4 76.2
420(20) 0.002381 364.4 77.0
432(21) 0.002315 364.5 77.7
422(21) 0.002370 364.6 78.5
407(20) 0.002457 364.7 79.2
416(20) 0.002404 364.8 79.8
376(19) 0.002660 364.8 80.3
436(21) 0.002294 364.9 80.6
426(21) 0.002347 365.0 80.7
429(21) 0.002331 365.1 80.5
423(21) 0.002364 365.1 80.0
398(20) 0.002513 365.2 79.3
437(21) 0.002288 365.3 78.4
388(20) 0.002577 365.4 77.3
444(21) 0.002252 365.5 76.0
431(21) 0.002320 365.5 74.5
425(21) 0.002353 365.6 73.0
406(20) 0.002463 365.7 71.5
404(20) 0.002475 365.8 70.0
431(21) 0.002320 365.9 68.5
401(20) 0.002494 365.9 67.1
415(20) 0.002410 366.0 65.8
405(20) 0.002469 366.1 64.5
380(19) 0.002632 366.2 63.3
356(19) 0.002809 366.2 62.2
386(20) 0.002591 366.3 61.2
415(20) 0.002410 366.4 60.3
405(20) 0.002469 366.5 59.5
381(20) 0.002625 366.6 58.8
395(20) 0.002532 366.6 58.2
366(19) 0.002732 366.7 57.6
367(19) 0.002725 366.8 57.2
369(19) 0.002710 366.9 56.8
430(21) 0.002326 367.0 56.5
384(20) 0.002604 367.0 56.3
354(19) 0.002825 367.1 56.2
375(19) 0.002667 367.2 56.1
427(21) 0.002342 367.3 56.2
410(20) 0.002439 367.4 56.3
392(20) 0.002551 367.4 56.4
382(20) 0.002618 367.5 56.6
409(20) 0.002445 367.6 56.9
396(20) 0.002525 367.7 57.3
398(20) 0.002513 367.7 57.7
397(20) 0.002519 367.8 58.2
401(20) 0.002494 367.9 58.7
377(19) 0.002653 368.0 59.3
382(20) 0.002618 368.1 59.9
431(21) 0.002320 368.1 60.6
382(20) 0.002618 368.2 61.3
423(21) 0.002364 368.3 62.1
392(20) 0.002551 368.4 62.9
438(21) 0.002283 368.5 63.7
399(20) 0.002506 368.5 64.6
425(21) 0.002353 368.6 65.5
411(20) 0.002433 368.7 66.4
416(20) 0.002404 368.8 67.2
433(21) 0.002309 368.9 68.1
415(20) 0.002410 368.9 69.0
396(20) 0.002525 369.0 69.8
410(20) 0.002439 369.1 70.5
413(20) 0.002421 369.2 71.2
438(21) 0.002283 369.2 71.8
430(21) 0.002326 369.3 72.2
445(21) 0.002247 369.4 72.6
407(20) 0.002457 369.5 72.8
414(20) 0.002415 369.6 72.8
443(21) 0.002257 369.6 72.7
410(20) 0.002439 369.7 72.5
401(20) 0.002494 369.8 72.0
424(21) 0.002358 369.9 71.4
423(21) 0.002364 370.0 70.7
419(20) 0.002387 370.0 69.8
406(20) 0.002463 370.1 68.8
426(21) 0.002347 370.2 67.7
460(21) 0.002174 370.3 66.6
429(21) 0.002331 370.3 65.3
373(19) 0.002681 370.4 64.0
411(20) 0.002433 370.5 62.6
409(20) 0.002445 370.6 61.3
382(20) 0.002618 370.7 59.9
440(21) 0.002273 370.7 58.5
374(19) 0.002674 370.8 57.2
419(20) 0.002387 370.9 55.8
399(20) 0.002506 371.0 54.5
401(20) 0.002494 371.1 53.3
412(20) 0.002427 371.1 52.1
366(19) 0.002732 371.2 50.9
409(20) 0.002445 371.3 49.8
402(20) 0.002488 371.4 48.7
404(20) 0.002475 371.5 47.7
405(20) 0.002469 371.5 46.8
357(19) 0.002801 371.6 45.9
406(20) 0.002463 371.7 45.0
366(19) 0.002732 371.8 44.3
407(20) 0.002457 371.8 43.5
373(19) 0.002681 371.9 42.9
373(19) 0.002681 372.0 42.2
355(19) 0.002817 372.1 41.7
387(20) 0.002584 372.2 41.2
390(20) 0.002564 372.2 40.7
398(20) 0.002513 372.3 40.3
384(20) 0.002604 372.4 39.9
404(20) 0.002475 372.5 39.6
354(19) 0.002825 372.6 39.3
386(20) 0.002591 372.6 39.1
374(19) 0.002674 372.7 38.9
373(19) 0.002681 372.8 38.8
385(20) 0.002597 372.8 38.7
389(20) 0.002571 372.8 38.6
376(19) 0.002660 372.7 38.5
390(20) 0.002564 372.7 38.5
354(19) 0.002825 372.6 38.5
385(20) 0.002597 372.6 38.6
383(20) 0.002611 372.5 38.6
362(19) 0.002762 372.5 38.7
409(20) 0.002445 372.4 38.8
382(20) 0.002618 372.4 38.9
376(19) 0.002660 372.3 39.0
402(20) 0.002488 372.3 39.2
419(20) 0.002387 372.2 39.3
393(20) 0.002545 372.2 39.5
392(20) 0.002551 372.1 39.6
384(20) 0.002604 372.1 39.7
370(19) 0.002703 372.0 39.9
399(20) 0.002506 372.0 40.0
395(20) 0.002532 371.9 40.2
372(19) 0.002688 371.9 40.3
408(20) 0.002451 371.8 40.5
371(19) 0.002695 371.8 40.6
412(20) 0.002427 371.7 40.8
380(19) 0.002632 371.6 40.9
388(20) 0.002577 371.6 41.1
344(19) 0.002907 371.5 41.3
384(20) 0.002604 371.5 41.4
388(20) 0.002577 371.4 41.6
390(20) 0.002564 371.4 41.8
411(20) 0.002433 371.3 42.0
418(20) 0.002392 371.3 42.2
378(19) 0.002646 371.2 42.4
396(20) 0.002525 371.2 42.6
390(20) 0.002564 371.1 42.9
417(20) 0.002398 371.1 43.1
401(20) 0.002494 371.0 43.4
357(19) 0.002801 371.0 43.7
396(20) 0.002525 370.9 44.0
401(20) 0.002494 370.9 44.3
378(19) 0.002646 370.8 44.6
394(20) 0.002538 370.8 45.0
384(20) 0.002604 370.7 45.4
385(20) 0.002597 370.7 45.8
403(20) 0.002481 370.6 46.2
370(19) 0.002703 370.6 46.6
395(20) 0.002532 370.5 47.0
395(20) 0.002532 370.5 47.5
390(20) 0.002564 370.4 47.9
393(20) 0.002545 370.4 48.4
384(20) 0.002604 370.3 48.9
387(20) 0.002584 370.3 49.5
412(20) 0.002427 370.2 50.0
392(20) 0.002551 370.1 50.6
421(21) 0.002375 370.1 51.1
400(20) 0.002500 370.0 51.7
418(20) 0.002392 370.0 52.3
395(20) 0.002532 369.9 52.9
411(20) 0.002433 369.9 53.4
403(20) 0.002481 369.8 54.0
404(20) 0.002475 369.8 54.6
384(20) 0.002604 369.7 55.2
404(20) 0.002475 369.7 55.7
419(20) 0.002387 369.6 56.3
405(20) 0.002469 369.6 56.9
365(19) 0.002740 369.5 57.4
377(19) 0.002653 369.5 58.0
412(20) 0.002427 369.4 58.6
396(20) 0.002525 369.4 59.1
378(19) 0.002646 369.3 59.7
394(20) 0.002538 369.3 60.2
373(19) 0.002681 369.2 60.8
380(19) 0.002632 369.2 61.4
425(21) 0.002353 369.1 61.9
389(20) 0.002571 369.1 62.5
409(20) 0.002445 369.0 63.1
397(20) 0.002519 369.0 63.7
403(20) 0.002481 368.9 64.3
408(20) 0.002451 368.9 64.9
411(20) 0.002433 368.8 65.5
446(21) 0.002242 368.8 66.2
430(21) 0.002326 368.7 66.9
442(21) 0.002262 368.6 67.7
422(21) 0.002370 368.6 68.5
439(21) 0.002278 368.5 69.4
366(19) 0.002732 368.5 70.5
408(20) 0.002451 368.4 71.6
427(21) 0.002342 368.4 73.0
408(20) 0.002451 368.3 74.5
446(21) 0.002242 368.3 76.2
441(21) 0.002268 368.2 78.1
394(20) 0.002538 368.2 80.3
429(21) 0.002331 368.1 82.7
407(20) 0.002457 368.1 85.4
445(21) 0.002247 368.0 88.4
449(21) 0.002227 368.0 91.6
428(21) 0.002336 367.9 94.9
448(21) 0.002232 367.9 98.4
424(21) 0.002358 367.8 101.8
442(21) 0.002262 367.8 104.9
505(22) 0.001980 367.7 107.7
465(22) 0.002151 367.7 109.7
455(21) 0.002198 367.6 111.0
448(21) 0.002232 367.6 111.2
440(21) 0.002273 367.5 110.6
436(21) 0.002294 367.5 109.1
428(21) 0.002336 367.4 107.0
439(21) 0.002278 367.4 104.4
412(20) 0.002427 367.3 101.7
430(21) 0.002326 367.3 98.8
400(20) 0.002500 367.2 95.9
391(20) 0.002558 367.1 93.1
390(20) 0.002564 367.1 90.5
425(21) 0.002353 367.0 88.0
406(20) 0.002463 367.0 85.7
466(22) 0.002146 366.9 83.6
394(20) 0.002538 366.9 81.6
421(21) 0.002375 366.8 79.8
403(20) 0.002481 366.8 78.2
432(21) 0.002315 366.7 76.7
433(21) 0.002309 366.7 75.4
422(21) 0.002370 366.6 74.1
420(20) 0.002381 366.6 73.0
391(20) 0.002558 366.5 72.0
408(20) 0.002451 366.5 71.0
424(21) 0.002358 366.4 70.2
433(21) 0.002309 366.4 69.4
393(20) 0.002545 366.3 68.8
396(20) 0.002525 366.3 68.2
405(20) 0.002469 366.2 67.7
392(20) 0.002551 366.2 67.3
417(20) 0.002398 366.1 67.0
419(20) 0.002387 366.1 66.9
409(20) 0.002445 366.0 66.8
399(20) 0.002506 366.0 66.8
414(20) 0.002415 365.9 67.0
402(20) 0.002488 365.9 67.2
443(21) 0.002257 365.8 67.7
416(20) 0.002404 365.8 68.2
415(20) 0.002410 365.7 69.0
420(20) 0.002381 365.6 69.9
404(20) 0.002475 365.6 71.1
385(20) 0.002597 365.5 72.5
451(21) 0.002217 365.5 74.1
389(20) 0.002571 365.4 76.0
404(20) 0.002475 365.4 78.2
408(20) 0.002451 365.3 80.8
459(21) 0.002179 365.3 83.6
431(21) 0.002320 365.2 86.9
426(21) 0.002347 365.2 90.4
466(22) 0.002146 365.1 94.2
457(21) 0.002188 365.1 98.3
440(21) 0.002273 365.0 102.5
422(21) 0.002370 365.0 106.5
434(21) 0.002304 364.9 110.3
487(22) 0.002053 364.9 113.4
460(21) 0.002174 364.8 115.6
467(22) 0.002141 364.8 116.7
467(22) 0.002141 364.7 116.8
447(21) 0.002237 364.7 115.8
423(21) 0.002364 364.6 114.1
479(22) 0.002088 364.6 111.9
447(21) 0.002237 364.5 109.4
424(21) 0.002358 364.5 106.9
443(21) 0.002257 364.4 104.4
448(21) 0.002232 364.4 102.1
469(22) 0.002132 364.3 99.9
409(20) 0.002445 364.3 97.7
463(22) 0.002160 364.2 95.5
457(21) 0.002188 364.2 93.3
418(20) 0.002392 364.1 91.0
422(21) 0.002370 364.0 88.5
422(21) 0.002370 364.0 86.0
413(20) 0.002421 363.9 83.3
409(20) 0.002445 363.9 80.7
422(21) 0.002370 363.8 78.1
414(20) 0.002415 363.8 75.7
414(20) 0.002415 363.7 73.3
454(21) 0.002203 363.7 71.1
445(21) 0.002247 363.6 69.1
413(20) 0.002421 363.6 67.2
402(20) 0.002488 363.5 65.5
402(20) 0.002488 363.5 64.0
378(19) 0.002646 363.4 62.7
380(19) 0.002632 363.4 61.5
372(19) 0.002688 363.3 60.4
397(20) 0.002519 363.3 59.5
413(20) 0.002421 363.2 58.7
435(21) 0.002299 363.2 58.0
394(20) 0.002538 363.1 57.4
383(20) 0.002611 363.1 56.9
399(20) 0.002506 363.0 56.5
409(20) 0.002445 363.0 56.1
408(20) 0.002451 362.9 55.8
393(20) 0.002545 362.9 55.6
369(19) 0.002710 362.8 55.5
380(19) 0.002632 363.1 55.4
378(19) 0.002646 363.8 55.4
369(19) 0.002710 364.4 55.5
362(19) 0.002762 365.1 55.7
413(20) 0.002421 365.8 56.1
393(20) 0.002545 366.4 56.5
410(20) 0.002439 367.1 57.1
409(20) 0.002445 367.8 57.9
418(20) 0.002392 368.4 59.0
416(20) 0.002404 369.1 60.2
421(21) 0.002375 369.8 61.7
443(21) 0.002257 370.4 63.6
432(21) 0.002315 371.1 65.8
412(20) 0.002427 371.7 68.4
424(21) 0.002358 372.4 71.4
465(22) 0.002151 373.1 74.9
446(21) 0.002242 373.7 79.0
473(22) 0.002114 374.4 83.5
459(21) 0.002179 375.1 88.7
448(21) 0.002232 375.7 94.3
486(22) 0.002058 376.4 100.4
466(22) 0.002146 377.1 106.9
505(22) 0.001980 377.7 113.5
490(22) 0.002041 378.4 119.9
478(22) 0.002092 379.1 125.8
516(23) 0.001938 379.7 130.5
509(23) 0.001965 380.4 133.6
511(23) 0.001957 381.0 134.4
479(22) 0.002088 381.7 133.0
477(22) 0.002096 382.4 129.3
431(21) 0.002320 383.0 124.0
454(21) 0.002203 383.7 117.5
509(23) 0.001965 384.4 110.7
435(21) 0.002299 385.0 104.0
422(21) 0.002370 385.7 97.7
405(20) 0.002469 386.4 92.0
435(21) 0.002299 387.0 87.0
421(21) 0.002375 387.7 82.7
443(21) 0.002257 388.3 78.8
430(21) 0.002326 389.0 75.3
401(20) 0.002494 389.7 72.1
450(21) 0.002222 390.3 69.1
427(21) 0.002342 391.0 66.4
428(21) 0.002336 391.7 63.9
422(21) 0.002370 391.9 61.7
413(20) 0.002421 391.8 59.9
417(20) 0.002398 391.6 58.4
428(21) 0.002336 391.4 57.4
386(20) 0.002591 391.3 56.6
402(20) 0.002488 391.1 56.1
392(20) 0.002551 390.9 55.8
382(20) 0.002618 390.8 55.8
396(20) 0.002525 390.6 55.9
395(20) 0.002532 390.4 56.1
402(20) 0.002488 390.3 56.3
392(20) 0.002551 390.1 56.4
394(20) 0.002538 389.9 56.4
426(21) 0.002347 389.8 56.3
440(21) 0.002273 389.6 56.1
432(21) 0.002315 389.4 55.8
403(20) 0.002481 389.3 55.6
391(20) 0.002558 389.1 55.3
423(21) 0.002364 388.9 55.1
418(20) 0.002392 388.8 54.8
415(20) 0.002410 388.6 54.6
400(20) 0.002500 388.4 54.4
391(20) 0.002558 388.3 54.1
427(21) . . .
421(21) . . .
385(20) . . .
404(20) . . .
424(21) . . .
393(20) . . .
443(21) . . .
411(20) . . .
441(21) . . .
436(21) . . .
424(21) . . .
406(20) . . .
414(20) . . .
443(21) . . .
453(21) . . .
472(22) . . .
493(22) . . .
491(22) . . .
488(22) . . .
685(26) . . .
464(22) . . .
504(22) . . .
1360(37) . . .
1290(36) . . .
815(29) . . .
585(24) . . .
546(23) . . .
453(21) . . .
494(22) . . .
458(21) . . .
495(22) . . .
446(21) . . .
420(20) . . .
422(21) . . .
432(21) . . .
417(20) . . .
395(20) . . .
383(20) . . .
412(20) . . .
406(20) . . .
417(20) . . .
434(21) . . .
489(22) . . .
440(21) . . .
430(21) . . .
398(20) . . .
411(20) . . .
373(19) . . .
412(20) . . .
420(20) . . .
456(21) . . .
440(21) . . .
422(21) . . .
423(21) . . .
418(20) . . .
393(20) . . .
405(20) . . .
427(21) . . .
399(20) . . .
401(20) . . .
377(19) . . .
434(21) . . .
410(20) . . .
400(20) . . .
406(20) . . .
379(19) . . .
427(21) . . .
413(20) . . .
388(20) . . .
434(21) . . .
399(20) . . .
400(20) . . .
379(19) . . .
386(20) . . .
420(20) . . .
387(20) . . .
399(20) . . .
372(19) . . .
400(20) . . .
394(20) . . .
426(21) . . .
420(20) . . .
369(19) . . .
386(20) . . .
385(20) . . .
385(20) . . .
373(19) . . .
372(19) . . .
387(20) . . .
378(19) . . .
387(20) . . .
370(19) . . .
382(20) . . .
382(20) . . .
371(19) . . .
375(19) . . .
374(19) . . .
376(19) . . .
389(20) . . .
401(20) . . .
378(19) . . .
400(20) . . .
375(19) . . .
352(19) . . .
426(21) . . .
403(20) . . .
377(19) . . .
407(20) . . .
369(19) . . .
402(20) . . .
396(20) . . .
380(19) . . .
416(20) . . .
398(20) . . .
418(20) . . .
424(21) . . .
402(20) . . .
450(21) . . .
360(19) . . .
439(21) . . .
406(20) . . .
414(20) . . .
430(21) . . .
407(20) . . .
395(20) . . .
433(21) . . .
396(20) . . .
418(20) . . .
405(20) . . .
393(20) . . .
391(20) . . .
387(20) . . .
392(20) . . .
400(20) . . .
391(20) . . .
441(21) . . .
421(21) . . .
422(21) . . .
397(20) . . .
393(20) . . .
411(20) . . .
409(20) . . .
438(21) . . .
407(20) . . .
443(21) . . .
436(21) . . .
447(21) . . .
419(20) . . .
439(21) . . .
415(20) . . .
431(21) . . .
416(20) . . .
418(20) . . .
423(21) . . .
452(21) . . .
417(20) . . .
431(21) . . .
390(20) . . .
400(20) . . .
423(21) . . .
393(20) . . .
446(21) . . .
465(22) . . .
396(20) . . .
372(19) . . .
390(20) . . .
366(19) . . .
376(19) . . .
377(19) . . .
393(20) . . .
410(20) . . .
386(20) . . .
350(19) . . .
372(19) . . .
393(20) . . .
356(19) . . .
399(20) . . .
408(20) . . .
370(19) . . .
408(20) . . .
347(19) . . .
373(19) . . .
396(20) . . .
354(19) . . .
374(19) . . .
364(19) . . .
383(20) . . .
368(19) . . .
363(19) . . .
373(19) . . .
364(19) . . .
384(20) . . .
402(20) . . .
405(20) . . .
379(19) . . .
354(19) . . .
349(19) . . .
375(19) . . .
408(20) . . .
381(20) . . .
376(19) . . .
370(19) . . .
364(19) . . .
378(19) . . .
380(19) . . .
394(20) . . .
372(19) . . .
372(19) . . .
366(19) . . .
396(20) . . .
379(19) . . .
358(19) . . .
385(20) . . .
371(19) . . .
361(19) . . .
350(19) . . .
371(19) . . .
332(18) . . .
354(19) . . .
378(19) . . .
365(19) . . .
333(18) . . .
375(19) . . .
395(20) . . .
348(19) . . .
383(20) . . .
375(19) . . .
361(19) . . .
371(19) . . .
399(20) . . .
391(20) . . .
406(20) . . .
380(19) . . .
389(20) . . .
400(20) . . .
401(20) . . .
369(19) . . .
376(19) . . .
413(20) . . .
369(19) . . .
384(20) . . .
422(21) . . .
414(20) . . .
405(20) . . .
412(20) . . .
351(19) . . .
400(20) . . .
420(20) . . .
430(21) . . .
421(21) . . .
394(20) . . .
404(20) . . .
391(20) . . .
401(20) . . .
403(20) . . .
394(20) . . .
387(20) . . .
382(20) . . .
418(20) . . .
401(20) . . .
386(20) . . .
377(19) . . .
357(19) . . .
397(20) . . .
357(19) . . .
367(19) . . .
357(19) . . .
395(20) . . .
384(20) . . .
340(18) . . .
359(19) . . .
387(20) . . .
385(20) . . .
369(19) . . .
339(18) . . .
351(19) . . .
385(20) . . .
393(20) . . .
361(19) . . .
333(18) . . .
362(19) . . .
372(19) . . .
350(19) . . .
354(19) . . .
354(19) . . .
351(19) . . .
379(19) . . .
377(19) . . .
370(19) . . .
369(19) . . .
319(18) . . .
344(19) . . .
387(20) . . .
367(19) . . .
402(20) . . .
365(19) . . .
360(19) . . .
373(19) . . .
367(19) . . .
330(18) . . .
362(19) . . .
349(19) . . .
346(19) . . .
347(19) . . .
373(19) . . .
367(19) . . .
347(19) . . .
349(19) . . .
367(19) . . .
343(19) . . .
343(19) . . .
362(19) . . .
346(19) . . .
372(19) . . .
335(18) . . .
372(19) . . .
368(19) . . .
369(19) . . .
394(20) . . .
364(19) . . .
377(19) . . .
365(19) . . .
387(20) . . .
360(19) . . .
378(19) . . .
393(20) . . .
391(20) . . .
375(19) . . .
391(20) . . .
347(19) . . .
383(20) . . .
397(20) . . .
410(20) . . .
412(20) . . .
402(20) . . .
430(21) . . .
386(20) . . .
416(20) . . .
407(20) . . .
401(20) . . .
382(20) . . .
411(20) . . .
411(20) . . .
408(20) . . .
399(20) . . .
397(20) . . .
378(19) . . .
391(20) . . .
392(20) . . .
363(19) . . .
386(20) . . .
386(20) . . .
354(19) . . .
387(20) . . .
371(19) . . .
385(20) . . .
362(19) . . .
357(19) . . .
357(19) . . .
341(18) . . .
345(19) . . .
360(19) . . .
343(19) . . .
361(19) . . .
334(18) . . .
350(19) . . .
346(19) . . .
327(18) . . .
357(19) . . .
346(19) . . .
365(19) . . .
346(19) . . .
325(18) . . .
343(19) . . .
350(19) . . .
366(19) . . .
345(19) . . .
362(19) . . .
346(19) . . .
353(19) . . .
355(19) . . .
351(19) . . .
341(18) . . .
353(19) . . .
339(18) . . .
333(18) . . .
363(19) . . .
356(19) . . .
355(19) . . .
343(19) . . .
337(18) . . .
334(18) . . .
351(19) . . .
366(19) . . .
380(19) . . .
343(19) . . .
343(19) . . .
385(20) . . .
355(19) . . .
332(18) . . .
339(18) . . .
330(18) . . .
359(19) . . .
331(18) . . .
350(19) . . .
329(18) . . .
364(19) . . .
370(19) . . .
367(19) . . .
351(19) . . .
362(19) . . .
329(18) . . .
344(19) . . .
339(18) . . .
322(18) . . .
373(19) . . .
346(19) . . .
348(19) . . .
344(19) . . .
355(19) . . .
335(18) . . .
359(19) . . .
335(18) . . .
324(18) . . .
346(19) . . .
309(18) . . .
317(18) . . .
369(19) . . .
340(18) . . .
321(18) . . .
330(18) . . .
328(18) . . .
348(19) . . .
341(18) . . .
325(18) . . .
340(18) . . .
353(19) . . .
357(19) . . .
335(18) . . .
339(18) . . .
351(19) . . .
355(19) . . .
339(18) . . .
316(18) . . .
327(18) . . .
342(18) . . .
363(19) . . .
372(19) . . .
343(19) . . .
351(19) . . .
340(18) . . .
328(18) . . .
327(18) . . .
355(19) . . .
355(19) . . .
370(19) . . .
341(18) . . .
359(19) . . .
366(19) . . .
327(18) . . .
356(19) . . .
328(18) . . .
332(18) . . .
340(18) . . .
356(19) . . .
344(19) . . .
349(19) . . .
344(19) . . .
308(18) . . .
313(18) . . .
351(19) . . .
342(18) . . .
352(19) . . .
320(18) . . .
331(18) . . .
345(19) . . .
332(18) . . .
334(18) . . .
337(18) . . .
323(18) . . .
321(18) . . .
349(19) . . .
333(18) . . .
324(18) . . .
338(18) . . .
362(19) . . .
367(19) . . .
350(19) . . .
347(19) . . .
373(19) . . .
371(19) . . .
325(18) . . .
380(19) . . .
353(19) . . .
373(19) . . .
335(18) . . .
362(19) . . .
379(19) . . .
361(19) . . .
357(19) . . .
354(19) . . .
371(19) . . .
350(19) . . .
330(18) . . .
346(19) . . .
360(19) . . .
342(18) . . .
346(19) . . .
340(18) . . .
344(19) . . .
347(19) . . .
319(18) . . .
364(19) . . .
333(18) . . .
394(20) . . .
367(19) . . .
370(19) . . .
336(18) . . .
347(19) . . .
351(19) . . .
345(19) . . .
344(19) . . .
321(18) . . .
352(19) . . .
371(19) . . .
366(19) . . .
363(19) . . .
351(19) . . .
323(18) . . .
353(19) . . .
358(19) . . .
337(18) . . .
341(18) . . .
379(19) . . .
340(18) . . .
336(18) . . .
343(19) . . .
378(19) . . .
372(19) . . .
373(19) . . .
380(19) . . .
360(19) . . .
358(19) . . .
356(19) . . .
392(20) . . .
361(19) . . .
411(20) . . .
411(20) . . .
423(21) . . .
423(21) . . .
408(20) . . .
427(21) . . .
404(20) . . .
407(20) . . .
410(20) . . .
365(19) . . .
394(20) . . .
392(20) . . .
384(20) . . .
383(20) . . .
383(20) . . .
383(20) . . .
404(20) . . .
389(20) . . .
383(20) . . .
380(19) . . .
395(20) . . .
386(20) . . .
374(19) . . .
385(20) . . .
413(20) . . .
350(19) . . .
386(20) . . .
393(20) . . .
372(19) . . .
381(20) . . .
390(20) . . .
384(20) . . .
411(20) . . .
393(20) . . .
408(20) . . .
392(20) . . .
415(20) . . .
420(20) . . .
409(20) . . .
403(20) . . .
411(20) . . .
428(21) . . .
426(21) . . .
442(21) . . .
408(20) . . .
434(21) . . .
426(21) . . .
412(20) . . .
428(21) . . .
423(21) . . .
406(20) . . .
402(20) . . .
407(20) . . .
410(20) . . .
414(20) . . .
415(20) . . .
399(20) . . .
422(21) . . .
423(21) . . .
365(19) . . .
380(19) . . .
410(20) . . .
398(20) . . .
395(20) . . .
390(20) . . .
384(20) . . .
382(20) . . .
408(20) . . .
413(20) . . .
409(20) . . .
393(20) . . .
397(20) . . .
382(20) . . .
400(20) . . .
358(19) . . .
414(20) . . .
368(19) . . .
377(19) . . .
370(19) . . .
357(19) . . .
384(20) . . .
356(19) . . .
343(19) . . .
405(20) . . .
400(20) . . .
380(19) . . .
400(20) . . .
382(20) . . .
366(19) . . .
373(19) . . .
379(19) . . .
403(20) . . .
377(19) . . .
388(20) . . .
383(20) . . .
350(19) . . .
398(20) . . .
394(20) . . .
393(20) . . .
414(20) . . .
393(20) . . .
391(20) . . .
360(19) . . .
381(20) . . .
379(19) . . .
402(20) . . .
356(19) . . .
412(20) . . .
396(20) . . .
386(20) . . .
413(20) . . .
413(20) . . .
409(20) . . .
418(20) . . .
372(19) . . .
467(22) . . .
428(21) . . .
434(21) . . .
474(22) . . .
435(21) . . .
442(21) . . .
478(22) . . .
460(21) . . .
474(22) . . .
445(21) . . .
458(21) . . .
485(22) . . .
503(22) . . .
502(22) . . .
460(21) . . .
428(21) . . .
467(22) . . .
489(22) . . .
445(21) . . .
462(21) . . .
439(21) . . .
478(22) . . .
486(22) . . .
402(20) . . .
419(20) . . .
434(21) . . .
420(20) . . .
386(20) . . .
384(20) . . .
400(20) . . .
423(21) . . .
413(20) . . .
403(20) . . .
428(21) . . .
431(21) . . .
420(20) . . .
395(20) . . .
409(20) . . .
388(20) . . .
392(20) . . .
410(20) . . .
385(20) . . .
391(20) . . .
429(21) . . .
400(20) . . .
397(20) . . .
397(20) . . .
403(20) . . .
405(20) . . .
418(20) . . .
422(21) . . .
401(20) . . .
362(19) . . .
401(20) . . .
398(20) . . .
405(20) . . .
409(20) . . .
376(19) . . .
377(19) . . .
378(19) . . .
414(20) . . .
372(19) . . .
358(19) . . .
388(20) . . .
403(20) . . .
372(19) . . .
378(19) . . .
353(19) . . .
369(19) . . .
316(18) . . .
371(19) . . .
374(19) . . .
368(19) . . .
378(19) . . .
331(18) . . .
347(19) . . .
342(18) . . .
357(19) . . .
336(18) . . .
371(19) . . .
351(19) . . .
359(19) . . .
371(19) . . .
389(20) . . .
363(19) . . .
349(19) . . .
375(19) . . .
347(19) . . .
362(19) . . .
420(20) . . .
409(20) . . .
397(20) . . .
393(20) . . .
361(19) . . .
378(19) . . .
424(21) . . .
409(20) . . .
386(20) . . .
388(20) . . .
426(21) . . .
377(19) . . .
419(20) . . .
399(20) . . .
390(20) . . .
422(21) . . .
411(20) . . .
386(20) . . .
431(21) . . .
436(21) . . .
400(20) . . .
395(20) . . .
386(20) . . .
382(20) . . .
397(20) . . .
386(20) . . .
397(20) . . .
404(20) . . .
416(20) . . .
367(19) . . .
396(20) . . .
382(20) . . .
400(20) . . .
378(19) . . .
400(20) . . .
397(20) . . .
380(19) . . .
366(19) . . .
389(20) . . .
350(19) . . .
359(19) . . .
368(19) . . .
369(19) . . .
372(19) . . .
352(19) . . .
366(19) . . .
375(19) . . .
372(19) . . .
362(19) . . .
363(19) . . .
365(19) . . .
402(20) . . .
355(19) . . .
366(19) . . .
368(19) . . .
391(20) . . .
391(20) . . .
370(19) . . .
380(19) . . .
384(20) . . .
369(19) . . .
413(20) . . .
393(20) . . .
369(19) . . .
398(20) . . .
373(19) . . .
377(19) . . .
386(20) . . .
378(19) . . .
400(20) . . .
417(20) . . .
386(20) . . .
389(20) . . .
364(19) . . .
401(20) . . .
375(19) . . .
405(20) . . .
376(19) . . .
390(20) . . .
380(19) . . .
385(20) . . .
425(21) . . .
370(19) . . .
385(20) . . .
362(19) . . .
380(19) . . .
367(19) . . .
372(19) . . .
362(19) . . .
366(19) . . .
399(20) . . .
391(20) . . .
376(19) . . .
398(20) . . .
373(19) . . .
371(19) . . .
365(19) . . .
372(19) . . .
346(19) . . .
390(20) . . .
400(20) . . .
389(20) . . .
381(20) . . .
384(20) . . .
364(19) . . .
393(20) . . .
372(19) . . .
371(19) . . .
363(19) . . .
411(20) . . .
377(19) . . .
385(20) . . .
407(20) . . .
375(19) . . .
385(20) . . .
418(20) . . .
408(20) . . .
392(20) . . .
410(20) . . .
421(21) . . .
396(20) . . .
421(21) . . .
409(20) . . .
432(21) . . .
401(20) . . .
400(20) . . .
396(20) . . .
450(21) . . .
432(21) . . .
407(20) . . .
430(21) . . .
459(21) . . .
416(20) . . .
457(21) . . .
467(22) . . .
473(22) . . .
442(21) . . .
477(22) . . .
501(22) . . .
468(22) . . .
459(21) . . .
476(22) . . .
504(22) . . .
501(22) . . .
486(22) . . .
533(23) . . .
484(22) . . .
513(23) . . .
571(24) . . .
530(23) . . .
548(23) . . .
536(23) . . .
587(24) . . .
572(24) . . .
553(24) . . .
623(25) . . .
609(25) . . .
655(26) . . .
687(26) . . .
683(26) . . .
708(27) . . .
729(27) . . .
730(27) . . .
712(27) . . .
809(28) . . .
877(30) . . .
823(29) . . .
860(29) . . .
975(31) . . .
983(31) . . .
1121(33) . . .
1188(34) . . .
1210(35) . . .
1315(36) . . .
1405(37) . . .
1589(40) . . .
1718(41) . . .
1971(44) . . .
2096(46) . . .
2379(49) . . .
2752(52) . . .
3163(56) . . .
3654(60) . . .
4351(66) . . .
5203(72) . . .
6262(79) . . .
7515(87) . . .
9410(97) . . .
11860(110) . . .
14910(120) . . .
19130(140) . . .
23830(150) . . .
28720(170) . . .
33850(180) . . .
36920(190) . . .
37920(200) . . .
36300(190) . . .
31950(180) . . .
27010(160) . . .
21920(150) . . .
17090(130) . . .
13320(120) . . .
10570(100) . . .
8362(91) . . .
6766(82) . . .
5560(75) . . .
4671(68) . . .
3950(63) . . .
3457(59) . . .
2859(53) . . .
2627(51) . . .
2381(49) . . .
2022(45) . . .
1865(43) . . .
1724(42) . . .
1541(39) . . .
1508(39) . . .
1353(37) . . .
1290(36) . . .
1232(35) . . .
1097(33) . . .
1085(33) . . .
997(32) . . .
944(31) . . .
881(30) . . .
854(29) . . .
854(29) . . .
790(28) . . .
760(28) . . .
765(28) . . .
707(27) . . .
701(26) . . .
669(26) . . .
659(26) . . .
645(25) . . .
641(25) . . .
661(26) . . .
573(24) . . .
551(23) . . .
574(24) . . .
582(24) . . .
509(23) . . .
591(24) . . .
530(23) . . .
546(23) . . .
546(23) . . .
508(23) . . .
496(22) . . .
515(23) . . .
499(22) . . .
503(22) . . .
523(23) . . .
482(22) . . .
479(22) . . .
471(22) . . .
476(22) . . .
501(22) . . .
436(21) . . .
430(21) . . .
464(22) . . .
455(21) . . .
439(21) . . .
417(20) . . .
435(21) . . .
420(20) . . .
448(21) . . .
415(20) . . .
436(21) . . .
409(20) . . .
428(21) . . .
409(20) . . .
399(20) . . .
437(21) . . .
412(20) . . .
386(20) . . .
421(21) . . .
399(20) . . .
396(20) . . .
422(21) . . .
397(20) . . .
416(20) . . .
401(20) . . .
421(21) . . .
437(21) . . .
423(21) . . .
427(21) . . .
402(20) . . .
414(20) . . .
412(20) . . .
427(21) . . .
382(20) . . .
425(21) . . .
397(20) . . .
425(21) . . .
412(20) . . .
370(19) . . .
405(20) . . .
402(20) . . .
383(20) . . .
427(21) . . .
408(20) . . .
444(21) . . .
427(21) . . .
403(20) . . .
410(20) . . .
421(21) . . .
441(21) . . .
414(20) . . .
397(20) . . .
417(20) . . .
421(21) . . .
414(20) . . .
395(20) . . .
411(20) . . .
390(20) . . .
406(20) . . .
391(20) . . .
394(20) . . .
402(20) . . .
370(19) . . .
380(19) . . .
379(19) . . .
366(19) . . .
376(19) . . .
381(20) . . .
409(20) . . .
346(19) . . .
365(19) . . .
383(20) . . .
360(19) . . .
368(19) . . .
409(20) . . .
385(20) . . .
406(20) . . .
373(19) . . .
386(20) . . .
406(20) . . .
353(19) . . .
356(19) . . .
373(19) . . .
361(19) . . .
402(20) . . .
382(20) . . .
366(19) . . .
394(20) . . .
383(20) . . .
381(20) . . .
391(20) . . .
378(19) . . .
359(19) . . .
396(20) . . .
385(20) . . .
379(19) . . .
385(20) . . .
347(19) . . .
369(19) . . .
354(19) . . .
365(19) . . .
353(19) . . .
392(20) . . .
402(20) . . .
341(18) . . .
352(19) . . .
341(18) . . .
369(19) . . .
326(18) . . .
399(20) . . .
413(20) . . .
380(19) . . .
391(20) . . .
413(20) . . .
387(20) . . .
386(20) . . .
391(20) . . .
364(19) . . .
407(20) . . .
397(20) . . .
398(20) . . .
412(20) . . .
408(20) . . .
428(21) . . .
415(20) . . .
387(20) . . .
438(21) . . .
399(20) . . .
447(21) . . .
434(21) . . .
432(21) . . .
434(21) . . .
434(21) . . .
431(21) . . .
380(19) . . .
467(22) . . .
424(21) . . .
420(20) . . .
430(21) . . .
402(20) . . .
418(20) . . .
403(20) . . .
390(20) . . .
417(20) . . .
388(20) . . .
375(19) . . .
426(21) . . .
430(21) . . .
402(20) . . .
371(19) . . .
428(21) . . .
398(20) . . .
434(21) . . .
414(20) . . .
448(21) . . .
448(21) . . .
450(21) . . .
418(20) . . .
425(21) . . .
418(20) . . .
403(20) . . .
386(20) . . .
392(20) . . .
401(20) . . .
407(20) . . .
422(21) . . .
409(20) . . .
385(20) . . .
398(20) . . .
415(20) . . .
360(19) . . .
385(20) . . .
427(21) . . .
371(19) . . .
398(20) . . .
359(19) . . .
361(19) . . .
364(19) . . .
392(20) . . .
349(19) . . .
369(19) . . .
369(19) . . .
376(19) . . .
360(19) . . .
337(18) . . .
343(19) . . .
355(19) . . .
357(19) . . .
365(19) . . .
358(19) . . .
379(19) . . .
383(20) . . .
334(18) . . .
336(18) . . .
333(18) . . .
352(19) . . .
370(19) . . .
384(20) . . .
352(19) . . .
360(19) . . .
354(19) . . .
376(19) . . .
344(19) . . .
376(19) . . .
320(18) . . .
344(19) . . .
348(19) . . .
343(19) . . .
340(18) . . .
358(19) . . .
375(19) . . .
344(19) . . .
335(18) . . .
352(19) . . .
321(18) . . .
335(18) . . .
330(18) . . .
333(18) . . .
332(18) . . .
359(19) . . .
345(19) . . .
347(19) . . .
346(19) . . .
329(18) . . .
349(19) . . .
362(19) . . .
357(19) . . .
370(19) . . .
325(18) . . .
356(19) . . .
324(18) . . .
343(19) . . .
324(18) . . .
347(19) . . .
349(19) . . .
330(18) . . .
341(18) . . .
332(18) . . .
334(18) . . .
336(18) . . .
344(19) . . .
308(18) . . .
352(19) . . .
371(19) . . .
395(20) . . .
354(19) . . .
319(18) . . .
348(19) . . .
350(19) . . .
378(19) . . .
343(19) . . .
380(19) . . .
362(19) . . .
319(18) . . .
369(19) . . .
357(19) . . .
343(19) . . .
359(19) . . .
369(19) . . .
337(18) . . .
365(19) . . .
359(19) . . .
354(19) . . .
359(19) . . .
341(18) . . .
338(18) . . .
358(19) . . .
333(18) . . .
337(18) . . .
328(18) . . .
350(19) . . .
344(19) . . .
328(18) . . .
328(18) . . .
348(19) . . .
345(19) . . .
332(18) . . .
329(18) . . .
352(19) . . .
341(18) . . .
322(18) . . .
335(18) . . .
309(18) . . .
350(19) . . .
353(19) . . .
378(19) . . .
345(19) . . .
323(18) . . .
320(18) . . .
325(18) . . .
333(18) . . .
356(19) . . .
335(18) . . .
346(19) . . .
330(18) . . .
337(18) . . .
350(19) . . .
362(19) . . .
371(19) . . .
389(20) . . .
350(19) . . .
366(19) . . .
350(19) . . .
340(18) . . .
343(19) . . .
357(19) . . .
324(18) . . .
348(19) . . .
372(19) . . .
347(19) . . .
360(19) . . .
347(19) . . .
385(20) . . .
347(19) . . .
347(19) . . .
353(19) . . .
338(18) . . .
356(19) . . .
377(19) . . .
359(19) . . .
371(19) . . .
371(19) . . .
365(19) . . .
372(19) . . .
356(19) . . .
349(19) . . .
390(20) . . .
365(19) . . .
404(20) . . .
358(19) . . .
355(19) . . .
359(19) . . .
427(21) . . .
372(19) . . .
343(19) . . .
402(20) . . .
387(20) . . .
395(20) . . .
409(20) . . .
380(19) . . .
407(20) . . .
381(20) . . .
367(19) . . .
385(20) . . .
400(20) . . .
389(20) . . .
369(19) . . .
395(20) . . .
371(19) . . .
376(19) . . .
375(19) . . .
370(19) . . .
379(19) . . .
380(19) . . .
418(20) . . .
394(20) . . .
367(19) . . .
360(19) . . .
372(19) . . .
354(19) . . .
360(19) . . .
346(19) . . .
343(19) . . .
358(19) . . .
355(19) . . .
353(19) . . .
323(18) . . .
355(19) . . .
353(19) . . .
365(19) . . .
375(19) . . .
358(19) . . .
324(18) . . .
356(19) . . .
348(19) . . .
354(19) . . .
376(19) . . .
355(19) . . .
339(18) . . .
313(18) . . .
338(18) . . .
333(18) . . .
340(18) . . .
342(18) . . .
372(19) . . .
350(19) . . .
382(20) . . .
349(19) . . .
327(18) . . .
338(18) . . .
336(18) . . .
359(19) . . .
367(19) . . .
344(19) . . .
363(19) . . .
367(19) . . .
356(19) . . .
340(18) . . .
368(19) . . .
355(19) . . .
359(19) . . .
352(19) . . .
356(19) . . .
353(19) . . .
326(18) . . .
375(19) . . .
373(19) . . .
366(19) . . .
357(19) . . .
376(19) . . .
391(20) . . .
371(19) . . .
360(19) . . .
352(19) . . .
386(20) . . .
383(20) . . .
385(20) . . .
385(20) . . .
373(19) . . .
366(19) . . .
391(20) . . .
392(20) . . .
362(19) . . .
390(20) . . .
408(20) . . .
406(20) . . .
412(20) . . .
354(19) . . .
385(20) . . .
419(20) . . .
411(20) . . .
417(20) . . .
384(20) . . .
382(20) . . .
408(20) . . .
398(20) . . .
362(19) . . .
391(20) . . .
406(20) . . .
414(20) . . .
391(20) . . .
381(20) . . .
341(18) . . .
352(19) . . .
369(19) . . .
369(19) . . .
356(19) . . .
401(20) . . .
373(19) . . .
367(19) . . .
362(19) . . .
366(19) . . .
350(19) . . .
385(20) . . .
372(19) . . .
348(19) . . .
366(19) . . .
384(20) . . .
351(19) . . .
359(19) . . .
374(19) . . .
369(19) . . .
372(19) . . .
377(19) . . .
378(19) . . .
365(19) . . .
375(19) . . .
377(19) . . .
373(19) . . .
359(19) . . .
348(19) . . .
351(19) . . .
368(19) . . .
351(19) . . .
358(19) . . .
343(19) . . .
344(19) . . .
343(19) . . .
331(18) . . .
408(20) . . .
344(19) . . .
375(19) . . .
369(19) . . .
327(18) . . .
386(20) . . .
339(18) . . .
370(19) . . .
352(19) . . .
334(18) . . .
382(20) . . .
348(19) . . .
358(19) . . .
381(20) . . .
326(18) . . .
360(19) . . .
372(19) . . .
368(19) . . .
336(18) . . .
344(19) . . .
365(19) . . .
353(19) . . .
380(19) . . .
389(20) . . .
356(19) . . .
357(19) . . .
332(18) . . .
370(19) . . .
347(19) . . .
377(19) . . .
325(18) . . .
350(19) . . .
357(19) . . .
389(20) . . .
351(19) . . .
363(19) . . .
335(18) . . .
358(19) . . .
309(18) . . .
323(18) . . .
375(19) . . .
356(19) . . .
330(18) . . .
363(19) . . .
331(18) . . .
344(19) . . .
345(19) . . .
343(19) . . .
360(19) . . .
333(18) . . .
339(18) . . .
335(18) . . .
333(18) . . .
372(19) . . .
350(19) . . .
341(18) . . .
341(18) . . .
339(18) . . .
339(18) . . .
360(19) . . .
355(19) . . .
360(19) . . .
362(19) . . .
354(19) . . .
344(19) . . .
322(18) . . .
333(18) . . .
337(18) . . .
358(19) . . .
360(19) . . .
356(19) . . .
362(19) . . .
353(19) . . .
340(18) . . .
346(19) . . .
378(19) . . .
348(19) . . .
364(19) . . .
386(20) . . .
372(19) . . .
347(19) . . .
368(19) . . .
339(18) . . .
368(19) . . .
326(18) . . .
343(19) . . .
349(19) . . .
378(19) . . .
377(19) . . .
358(19) . . .
335(18) . . .
350(19) . . .
396(20) . . .
333(18) . . .
379(19) . . .
353(19) . . .
335(18) . . .
359(19) . . .
370(19) . . .
360(19) . . .
360(19) . . .
342(18) . . .
359(19) . . .
332(18) . . .
350(19) . . .
355(19) . . .
347(19) . . .
351(19) . . .
375(19) . . .
348(19) . . .
355(19) . . .
340(18) . . .
355(19) . . .
364(19) . . .
337(18) . . .
318(18) . . .
345(19) . . .
337(18) . . .
348(19) . . .
381(20) . . .
387(20) . . .
355(19) . . .
372(19) . . .
322(18) . . .
339(18) . . .
379(19) . . .
388(20) . . .
371(19) . . .
350(19) . . .
342(18) . . .
331(18) . . .
368(19) . . .
368(19) . . .
399(20) . . .
384(20) . . .
351(19) . . .
368(19) . . .
352(19) . . .
346(19) . . .
377(19) . . .
361(19) . . .
414(20) . . .
357(19) . . .
335(18) . . .
344(19) . . .
377(19) . . .
365(19) . . .
374(19) . . .
372(19) . . .
375(19) . . .
399(20) . . .
329(18) . . .
365(19) . . .
364(19) . . .
382(20) . . .
342(18) . . .
387(20) . . .
374(19) . . .
376(19) . . .
374(19) . . .
358(19) . . .
358(19) . . .
347(19) . . .
374(19) . . .
369(19) . . .
369(19) . . .
390(20) . . .
367(19) . . .
358(19) . . .
363(19) . . .
380(19) . . .
355(19) . . .
372(19) . . .
380(19) . . .
378(19) . . .
353(19) . . .
376(19) . . .
374(19) . . .
365(19) . . .
362(19) . . .
375(19) . . .
349(19) . . .
314(18) . . .
353(19) . . .
389(20) . . .
379(19) . . .
409(20) . . .
363(19) . . .
344(19) . . .
382(20) . . .
334(18) . . .
364(19) . . .
385(20) . . .
343(19) . . .
374(19) . . .
343(19) . . .
370(19) . . .
351(19) . . .
341(18) . . .
352(19) . . .
355(19) . . .
352(19) . . .
358(19) . . .
375(19) . . .
341(18) . . .
383(20) . . .
366(19) . . .
374(19) . . .
390(20) . . .
379(19) . . .
379(19) . . .
362(19) . . .
358(19) . . .
349(19) . . .
359(19) . . .
352(19) . . .
391(20) . . .
370(19) . . .
367(19) . . .
358(19) . . .
353(19) . . .
383(20) . . .
388(20) . . .
354(19) . . .
348(19) . . .
361(19) . . .
372(19) . . .
368(19) . . .
388(20) . . .
377(19) . . .
389(20) . . .
365(19) . . .
361(19) . . .
371(19) . . .
384(20) . . .
376(19) . . .
389(20) . . .
351(19) . . .
397(20) . . .
388(20) . . .
356(19) . . .
401(20) . . .
403(20) . . .
374(19) . . .
374(19) . . .
357(19) . . .
385(20) . . .
359(19) . . .
355(19) . . .
352(19) . . .
357(19) . . .
368(19) . . .
377(19) . . .
383(20) . . .
363(19) . . .
349(19) . . .
359(19) . . .
349(19) . . .
354(19) . . .
369(19) . . .
380(19) . . .
369(19) . . .
376(19) . . .
365(19) . . .
353(19) . . .
360(19) . . .
353(19) . . .
383(20) . . .
384(20) . . .
374(19) . . .
368(19) . . .
374(19) . . .
384(20) . . .
366(19) . . .
414(20) . . .
381(20) . . .
403(20) . . .
402(20) . . .
389(20) . . .
389(20) . . .
416(20) . . .
373(19) . . .
377(19) . . .
397(20) . . .
397(20) . . .
390(20) . . .
376(19) . . .
381(20) . . .
386(20) . . .
425(21) . . .
364(19) . . .
382(20) . . .
385(20) . . .
391(20) . . .
366(19) . . .
326(18) . . .
347(19) . . .
382(20) . . .
375(19) . . .
391(20) . . .
355(19) . . .
376(19) . . .
333(18) . . .
374(19) . . .
345(19) . . .
349(19) . . .
362(19) . . .
373(19) . . .
403(20) . . .
374(19) . . .
363(19) . . .
364(19) . . .
357(19) . . .
364(19) . . .
367(19) . . .
342(18) . . .
357(19) . . .
376(19) . . .
350(19) . . .
383(20) . . .
382(20) . . .
373(19) . . .
381(20) . . .
365(19) . . .
363(19) . . .
373(19) . . .
388(20) . . .
339(18) . . .
368(19) . . .
387(20) . . .
364(19) . . .
386(20) . . .
370(19) . . .
391(20) . . .
373(19) . . .
392(20) . . .
369(19) . . .
378(19) . . .
367(19) . . .
355(19) . . .
371(19) . . .
357(19) . . .
382(20) . . .
369(19) . . .
370(19) . . .
370(19) . . .
363(19) . . .
379(19) . . .
411(20) . . .
378(19) . . .
371(19) . . .
379(19) . . .
403(20) . . .
409(20) . . .
389(20) . . .
383(20) . . .
404(20) . . .
399(20) . . .
376(19) . . .
406(20) . . .
389(20) . . .
377(19) . . .
383(20) . . .
412(20) . . .
368(19) . . .
388(20) . . .
385(20) . . .
372(19) . . .
383(20) . . .
415(20) . . .
362(19) . . .
394(20) . . .
398(20) . . .
381(20) . . .
367(19) . . .
397(20) . . .
385(20) . . .
384(20) . . .
360(19) . . .
366(19) . . .
358(19) . . .
402(20) . . .
399(20) . . .
396(20) . . .
361(19) . . .
383(20) . . .
362(19) . . .
365(19) . . .
416(20) . . .
390(20) . . .
389(20) . . .
357(19) . . .
374(19) . . .
374(19) . . .
413(20) . . .
381(20) . . .
408(20) . . .
362(19) . . .
380(19) . . .
397(20) . . .
378(19) . . .
385(20) . . .
366(19) . . .
355(19) . . .
399(20) . . .
405(20) . . .
382(20) . . .
395(20) . . .
374(19) . . .
386(20) . . .
377(19) . . .
386(20) . . .
376(19) . . .
362(19) . . .
381(20) . . .
373(19) . . .
374(19) . . .
368(19) . . .
380(19) . . .
404(20) . . .
373(19) . . .
392(20) . . .
401(20) . . .
389(20) . . .
375(19) . . .
387(20) . . .
404(20) . . .
373(19) . . .
386(20) . . .
362(19) . . .
389(20) . . .
384(20) . . .
397(20) . . .
387(20) . . .
371(19) . . .
379(19) . . .
399(20) . . .
393(20) . . .
397(20) . . .
362(19) . . .
373(19) . . .
406(20) . . .
400(20) . . .
355(19) . . .
397(20) . . .
371(19) . . .
360(19) . . .
370(19) . . .
349(19) . . .
400(20) . . .
365(19) . . .
378(19) . . .
380(19) . . .
363(19) . . .
377(19) . . .
387(20) . . .
405(20) . . .
372(19) . . .
401(20) . . .
375(19) . . .
389(20) . . .
373(19) . . .
383(20) . . .
371(19) . . .
390(20) . . .
367(19) . . .
369(19) . . .
364(19) . . .
375(19) . . .
380(19) . . .
373(19) . . .
404(20) . . .
384(20) . . .
377(19) . . .
393(20) . . .
376(19) . . .
404(20) . . .
422(21) . . .
436(21) . . .
372(19) . . .
389(20) . . .
389(20) . . .
391(20) . . .
365(19) . . .
368(19) . . .
376(19) . . .
380(19) . . .
397(20) . . .
422(21) . . .
420(20) . . .
393(20) . . .
403(20) . . .
370(19) . . .
410(20) . . .
407(20) . . .
430(21) . . .
393(20) . . .
424(21) . . .
428(21) . . .
400(20) . . .
442(21) . . .
407(20) . . .
417(20) . . .
431(21) . . .
449(21) . . .
426(21) . . .
431(21) . . .
446(21) . . .
408(20) . . .
443(21) . . .
441(21) . . .
416(20) . . .
447(21) . . .
425(21) . . .
444(21) . . .
454(21) . . .
397(20) . . .
420(20) . . .
425(21) . . .
430(21) . . .
423(21) . . .
440(21) . . .
427(21) . . .
429(21) . . .
470(22) . . .
469(22) . . .
458(21) . . .
437(21) . . .
442(21) . . .
406(20) . . .
430(21) . . .
424(21) . . .
436(21) . . .
451(21) . . .
399(20) . . .
437(21) . . .
436(21) . . .
425(21) . . .
440(21) . . .
441(21) . . .
459(21) . . .
423(21) . . .
458(21) . . .
464(22) . . .
442(21) . . .
513(23) . . .
462(21) . . .
460(21) . . .
458(21) . . .
481(22) . . .
468(22) . . .
472(22) . . .
492(22) . . .
485(22) . . .
475(22) . . .
525(23) . . .
485(22) . . .
529(23) . . .
489(22) . . .
519(23) . . .
558(24) . . .
517(23) . . .
520(23) . . .
544(23) . . .
526(23) . . .
541(23) . . .
533(23) . . .
558(24) . . .
569(24) . . .
549(23) . . .
587(24) . . .
577(24) . . .
579(24) . . .
589(24) . . .
594(24) . . .
632(25) . . .
601(25) . . .
648(25) . . .
670(26) . . .
703(27) . . .
693(26) . . .
741(27) . . .
766(28) . . .
775(28) . . .
827(29) . . .
853(29) . . .
813(29) . . .
913(30) . . .
936(31) . . .
919(30) . . .
988(31) . . .
997(32) . . .
1064(33) . . .
1129(34) . . .
1199(35) . . .
1202(35) . . .
1343(37) . . .
1450(38) . . .
1498(39) . . .
1670(41) . . .
1756(42) . . .
1901(44) . . .
2143(46) . . .
2381(49) . . .
2582(51) . . .
2787(53) . . .
3122(56) . . .
3487(59) . . .
3839(62) . . .
4439(67) . . .
4924(70) . . .
5652(75) . . .
6555(81) . . .
7760(88) . . .
9098(95) . . .
10590(100) . . .
12780(110) . . .
15350(120) . . .
18700(140) . . .
22760(150) . . .
27470(170) . . .
33230(180) . . .
39790(200) . . .
45980(210) . . .
50350(220) . . .
52650(230) . . .
52860(230) . . .
50410(230) . . .
46220(220) . . .
40310(200) . . .
34090(190) . . .
28400(170) . . .
23090(150) . . .
18890(140) . . .
15670(130) . . .
12830(110) . . .
10540(100) . . .
8944(95) . . .
7500(87) . . .
6542(81) . . .
5708(76) . . .
4843(70) . . .
4231(65) . . .
3725(61) . . .
3262(57) . . .
2822(53) . . .
2662(52) . . .
2431(49) . . .
2189(47) . . .
2011(45) . . .
1834(43) . . .
1681(41) . . .
1546(39) . . .
1486(39) . . .
1443(38) . . .
1378(37) . . .
1264(36) . . .
1158(34) . . .
1090(33) . . .
1105(33) . . .
1005(32) . . .
991(31) . . .
902(30) . . .
916(30) . . .
872(30) . . .
829(29) . . .
796(28) . . .
806(28) . . .
766(28) . . .
726(27) . . .
760(28) . . .
705(27) . . .
690(26) . . .
675(26) . . .
644(25) . . .
672(26) . . .
663(26) . . .
625(25) . . .
651(26) . . .
643(25) . . .
588(24) . . .
550(23) . . .
608(25) . . .
617(25) . . .
575(24) . . .
559(24) . . .
574(24) . . .
574(24) . . .
566(24) . . .
555(24) . . .
572(24) . . .
577(24) . . .
540(23) . . .
531(23) . . .
548(23) . . .
527(23) . . .
553(24) . . .
541(23) . . .
527(23) . . .
491(22) . . .
498(22) . . .
534(23) . . .
500(22) . . .
485(22) . . .
485(22) . . .
508(23) . . .
522(23) . . .
522(23) . . .
484(22) . . .
537(23) . . .
537(23) . . .
544(23) . . .
515(23) . . .
518(23) . . .
501(22) . . .
545(23) . . .
501(22) . . .
527(23) . . .
536(23) . . .
514(23) . . .
514(23) . . .
511(23) . . .
493(22) . . .
492(22) . . .
489(22) . . .
490(22) . . .
446(21) . . .
477(22) . . .
444(21) . . .
474(22) . . .
484(22) . . .
473(22) . . .
493(22) . . .
468(22) . . .
417(20) . . .
435(21) . . .
416(20) . . .
416(20) . . .
438(21) . . .
466(22) . . .
414(20) . . .
437(21) . . .
433(21) . . .
485(22) . . .
412(20) . . .
424(21) . . .
435(21) . . .
459(21) . . .
448(21) . . .
451(21) . . .
446(21) . . .
426(21) . . .
415(20) . . .
435(21) . . .
464(22) . . .
435(21) . . .
444(21) . . .
448(21) . . .
436(21) . . .
416(20) . . .
421(21) . . .
436(21) . . .
423(21) . . .
464(22) . . .
450(21) . . .
475(22) . . .
440(21) . . .
436(21) . . .
496(22) . . .
463(22) . . .
434(21) . . .
441(21) . . .
467(22) . . .
444(21) . . .
469(22) . . .
451(21) . . .
456(21) . . .
486(22) . . .
474(22) . . .
437(21) . . .
464(22) . . .
437(21) . . .
470(22) . . .
423(21) . . .
409(20) . . .
445(21) . . .
418(20) . . .
468(22) . . .
450(21) . . .
431(21) . . .
479(22) . . .
426(21) . . .
409(20) . . .
428(21) . . .
445(21) . . .
460(21) . . .
424(21) . . .
443(21) . . .
403(20) . . .
451(21) . . .
430(21) . . .
414(20) . . .
445(21) . . .
438(21) . . .
445(21) . . .
415(20) . . .
445(21) . . .
453(21) . . .
449(21) . . .
422(21) . . .
457(21) . . .
467(22) . . .
445(21) . . .
447(21) . . .
485(22) . . .
416(20) . . .
457(21) . . .
452(21) . . .
421(21) . . .
450(21) . . .
459(21) . . .
472(22) . . .
466(22) . . .
471(22) . . .
482(22) . . .
458(21) . . .
444(21) . . .
442(21) . . .
417(20) . . .
443(21) . . .
455(21) . . .
441(21) . . .
453(21) . . .
444(21) . . .
427(21) . . .
464(22) . . .
488(22) . . .
397(20) . . .
421(21) . . .
412(20) . . .
441(21) . . .
424(21) . . .
419(20) . . .
456(21) . . .
478(22) . . .
424(21) . . .
449(21) . . .
409(20) . . .
472(22) . . .
459(21) . . .
441(21) . . .
467(22) . . .
448(21) . . .
456(21) . . .
413(20) . . .
413(20) . . .
437(21) . . .
429(21) . . .
427(21) . . .
428(21) . . .
442(21) . . .
484(22) . . .
446(21) . . .
452(21) . . .
433(21) . . .
467(22) . . .
446(21) . . .
465(22) . . .
469(22) . . .
483(22) . . .
445(21) . . .
439(21) . . .
491(22) . . .
456(21) . . .
476(22) . . .
474(22) . . .
446(21) . . .
480(22) . . .
442(21) . . .
508(23) . . .
495(22) . . .
477(22) . . .
504(22) . . .
466(22) . . .
506(22) . . .
423(21) . . .
448(21) . . .
464(22) . . .
459(21) . . .
503(22) . . .
455(21) . . .
496(22) . . .
492(22) . . .
496(22) . . .
484(22) . . .
456(21) . . .
500(22) . . .
477(22) . . .
479(22) . . .
489(22) . . .
469(22) . . .
439(21) . . .
470(22) . . .
451(21) . . .
484(22) . . .
444(21) . . .
496(22) . . .
502(22) . . .
511(23) . . .
477(22) . . .
462(21) . . .
481(22) . . .
505(22) . . .
459(21) . . .
466(22) . . .
501(22) . . .
513(23) . . .
459(21) . . .
556(24) . . .
523(23) . . .
528(23) . . .
543(23) . . .
536(23) . . .
523(23) . . .
506(22) . . .
476(22) . . .
547(23) . . .
532(23) . . .
546(23) . . .
560(24) . . .
567(24) . . .
566(24) . . .
575(24) . . .
579(24) . . .
592(24) . . .
557(24) . . .
602(25) . . .
556(24) . . .
616(25) . . .
567(24) . . .
597(24) . . .
587(24) . . .
614(25) . . .
598(24) . . .
667(26) . . .
669(26) . . .
657(26) . . .
704(27) . . .
750(27) . . .
695(26) . . .
758(28) . . .
732(27) . . .
748(27) . . .
722(27) . . .
785(28) . . .
750(27) . . .
807(28) . . .
823(29) . . .
883(30) . . .
897(30) . . .
983(31) . . .
1006(32) . . .
998(32) . . .
1071(33) . . .
1095(33) . . .
1188(34) . . .
1218(35) . . .
1263(36) . . .
1343(37) . . .
1494(39) . . .
1551(39) . . .
1614(40) . . .
1757(42) . . .
1949(44) . . .
2095(46) . . .
2232(47) . . .
2418(49) . . .
2582(51) . . .
3006(55) . . .
3297(57) . . .
3699(61) . . .
4056(64) . . .
4721(69) . . .
5111(71) . . .
6042(78) . . .
6857(83) . . .
8017(90) . . .
9558(98) . . .
11370(110) . . .
13770(120) . . .
16530(130) . . .
20410(140) . . .
25230(160) . . .
31590(180) . . .
39010(200) . . .
47270(220) . . .
56230(240) . . .
62170(250) . . .
65460(260) . . .
65680(260) . . .
62600(250) . . .
57090(240) . . .
49840(220) . . .
42070(210) . . .
34110(190) . . .
27520(170) . . .
22150(150) . . .
17930(130) . . .
14410(120) . . .
12020(110) . . .
10020(100) . . .
8475(92) . . .
7055(84) . . .
6179(79) . . .
5311(73) . . .
4848(70) . . .
4142(64) . . .
3628(60) . . .
3298(57) . . .
2910(54) . . .
2738(52) . . .
2434(49) . . .
2206(47) . . .
2005(45) . . .
1842(43) . . .
1776(42) . . .
1697(41) . . .
1542(39) . . .
1416(38) . . .
1395(37) . . .
1297(36) . . .
1171(34) . . .
1097(33) . . .
1029(32) . . .
1051(32) . . .
1033(32) . . .
946(31) . . .
952(31) . . .
924(30) . . .
875(30) . . .
856(29) . . .
790(28) . . .
791(28) . . .
749(27) . . .
754(27) . . .
698(26) . . .
727(27) . . .
652(26) . . .
690(26) . . .
647(25) . . .
672(26) . . .
610(25) . . .
598(24) . . .
638(25) . . .
581(24) . . .
605(25) . . .
593(24) . . .
591(24) . . .
566(24) . . .
574(24) . . .
534(23) . . .
529(23) . . .
563(24) . . .
515(23) . . .
521(23) . . .
523(23) . . .
525(23) . . .
563(24) . . .
478(22) . . .
507(23) . . .
512(23) . . .
506(22) . . .
527(23) . . .
527(23) . . .
503(22) . . .
500(22) . . .
502(22) . . .
487(22) . . .
484(22) . . .
486(22) . . .
494(22) . . .
499(22) . . .
470(22) . . .
494(22) . . .
460(21) . . .
496(22) . . .
479(22) . . .
477(22) . . .
458(21) . . .
499(22) . . .
474(22) . . .
432(21) . . .
466(22) . . .
468(22) . . .
443(21) . . .
467(22) . . .
463(22) . . .
455(21) . . .
436(21) . . .
461(21) . . .
455(21) . . .
462(21) . . .
458(21) . . .
457(21) . . .
467(22) . . .
463(22) . . .
433(21) . . .
426(21) . . .
469(22) . . .
414(20) . . .
428(21) . . .
461(21) . . .
492(22) . . .
425(21) . . .
420(20) . . .
419(20) . . .
422(21) . . .
480(22) . . .
431(21) . . .
460(21) . . .
399(20) . . .
429(21) . . .
439(21) . . .
408(20) . . .
425(21) . . .
420(20) . . .
411(20) . . .
402(20) . . .
407(20) . . .
416(20) . . .
399(20) . . .
383(20) . . .
408(20) . . .
391(20) . . .
386(20) . . .
386(20) . . .
375(19) . . .
390(20) . . .
398(20) . . .
383(20) . . .
388(20) . . .
384(20) . . .
442(21) . . .
381(20) . . .
373(19) . . .
356(19) . . .
370(19) . . .
392(20) . . .
369(19) . . .
372(19) . . .
388(20) . . .
380(19) . . .
400(20) . . .
379(19) . . .
383(20) . . .
393(20) . . .
380(19) . . .
396(20) . . .
383(20) . . .
375(19) . . .
383(20) . . .
407(20) . . .
376(19) . . .
366(19) . . .
367(19) . . .
380(19) . . .
396(20) . . .
410(20) . . .
386(20) . . .
370(19) . . .
417(20) . . .
364(19) . . .
391(20) . . .
376(19) . . .
405(20) . . .
381(20) . . .
370(19) . . .
372(19) . . .
378(19) . . .
333(18) . . .
380(19) . . .
369(19) . . .
385(20) . . .
388(20) . . .
358(19) . . .
346(19) . . .
369(19) . . .
387(20) . . .
385(20) . . .
375(19) . . .
340(18) . . .
389(20) . . .
392(20) . . .
377(19) . . .
415(20) . . .
393(20) . . .
364(19) . . .
389(20) . . .
388(20) . . .
377(19) . . .
396(20) . . .
375(19) . . .
385(20) . . .
362(19) . . .
365(19) . . .
387(20) . . .
348(19) . . .
357(19) . . .
351(19) . . .
381(20) . . .
380(19) . . .
336(18) . . .
350(19) . . .
362(19) . . .
348(19) . . .
389(20) . . .
400(20) . . .
364(19) . . .
388(20) . . .
383(20) . . .
378(19) . . .
399(20) . . .
337(18) . . .
382(20) . . .
357(19) . . .
347(19) . . .
384(20) . . .
365(19) . . .
354(19) . . .
377(19) . . .
378(19) . . .
369(19) . . .
368(19) . . .
381(20) . . .
352(19) . . .
351(19) . . .
362(19) . . .
361(19) . . .
351(19) . . .
349(19) . . .
401(20) . . .
406(20) . . .
363(19) . . .
370(19) . . .
382(20) . . .
363(19) . . .
343(19) . . .
380(19) . . .
389(20) . . .
353(19) . . .
397(20) . . .
376(19) . . .
365(19) . . .
377(19) . . .
371(19) . . .
374(19) . . .
384(20) . . .
399(20) . . .
381(20) . . .
356(19) . . .
362(19) . . .
330(18) . . .
393(20) . . .
351(19) . . .
401(20) . . .
342(18) . . .
362(19) . . .
368(19) . . .
363(19) . . .
382(20) . . .
350(19) . . .
382(20) . . .
359(19) . . .
351(19) . . .
345(19) . . .
352(19) . . .
358(19) . . .
329(18) . . .
330(18) . . .
353(19) . . .
368(19) . . .
348(19) . . .
359(19) . . .
359(19) . . .
316(18) . . .
318(18) . . .
348(19) . . .
367(19) . . .
339(18) . . .
309(18) . . .
334(18) . . .
352(19) . . .
342(18) . . .
317(18) . . .
331(18) . . .
337(18) . . .
347(19) . . .
334(18) . . .
348(19) . . .
363(19) . . .
380(19) . . .
317(18) . . .
348(19) . . .
311(18) . . .
352(19) . . .
323(18) . . .
329(18) . . .
346(19) . . .
344(19) . . .
351(19) . . .
359(19) . . .
356(19) . . .
343(19) . . .
316(18) . . .
345(19) . . .
369(19) . . .
381(20) . . .
348(19) . . .
361(19) . . .
362(19) . . .
351(19) . . .
328(18) . . .
343(19) . . .
359(19) . . .
359(19) . . .
345(19) . . .
354(19) . . .
343(19) . . .
318(18) . . .
323(18) . . .
356(19) . . .
368(19) . . .
322(18) . . .
345(19) . . .
358(19) . . .
354(19) . . .
365(19) . . .
356(19) . . .
332(18) . . .
352(19) . . .
349(19) . . .
347(19) . . .
349(19) . . .
324(18) . . .
337(18) . . .
329(18) . . .
374(19) . . .
348(19) . . .
346(19) . . .
383(20) . . .
389(20) . . .
350(19) . . .
315(18) . . .
384(20) . . .
375(19) . . .
357(19) . . .
357(19) . . .
358(19) . . .
350(19) . . .
353(19) . . .
353(19) . . .
376(19) . . .
384(20) . . .
348(19) . . .
360(19) . . .
377(19) . . .
375(19) . . .
367(19) . . .
355(19) . . .
371(19) . . .
397(20) . . .
369(19) . . .
354(19) . . .
335(18) . . .
354(19) . . .
377(19) . . .
367(19) . . .
365(19) . . .
371(19) . . .
333(18) . . .
365(19) . . .
378(19) . . .
354(19) . . .
333(18) . . .
345(19) . . .
309(18) . . .
373(19) . . .
372(19) . . .
352(19) . . .
358(19) . . .
333(18) . . .
341(18) . . .
328(18) . . .
343(19) . . .
346(19) . . .
354(19) . . .
338(18) . . .
355(19) . . .
370(19) . . .
333(18) . . .
365(19) . . .
317(18) . . .
321(18) . . .
349(19) . . .
330(18) . . .
363(19) . . .
335(18) . . .
338(18) . . .
335(18) . . .
330(18) . . .
351(19) . . .
384(20) . . .
324(18) . . .
351(19) . . .
343(19) . . .
344(19) . . .
346(19) . . .
327(18) . . .
347(19) . . .
358(19) . . .
346(19) . . .
359(19) . . .
336(18) . . .
328(18) . . .
347(19) . . .
342(18) . . .
387(20) . . .
350(19) . . .
345(19) . . .
342(18) . . .
349(19) . . .
338(18) . . .
334(18) . . .
347(19) . . .
337(18) . . .
359(19) . . .
371(19) . . .
314(18) . . .
318(18) . . .
353(19) . . .
339(18) . . .
335(18) . . .
367(19) . . .
310(18) . . .
345(19) . . .
336(18) . . .
352(19) . . .
331(18) . . .
319(18) . . .
359(19) . . .
327(18) . . .
346(19) . . .
324(18) . . .
344(19) . . .
355(19) . . .
349(19) . . .
361(19) . . .
357(19) . . .
330(18) . . .
367(19) . . .
349(19) . . .
344(19) . . .
354(19) . . .
341(18) . . .
347(19) . . .
322(18) . . .
318(18) . . .
343(19) . . .
327(18) . . .
320(18) . . .
326(18) . . .
332(18) . . .
362(19) . . .
321(18) . . .
335(18) . . .
354(19) . . .
341(18) . . .
338(18) . . .
333(18) . . .
343(19) . . .
354(19) . . .
310(18) . . .
304(17) . . .
323(18) . . .
344(19) . . .
372(19) . . .
335(18) . . .
329(18) . . .
375(19) . . .
359(19) . . .
368(19) . . .
354(19) . . .
338(18) . . .
364(19) . . .
329(18) . . .
334(18) . . .
316(18) . . .
358(19) . . .
373(19) . . .
358(19) . . .
366(19) . . .
323(18) . . .
309(18) . . .
332(18) . . .
341(18) . . .
326(18) . . .
337(18) . . .
325(18) . . .
324(18) . . .
334(18) . . .
316(18) . . .
357(19) . . .
351(19) . . .
351(19) . . .
355(19) . . .
339(18) . . .
344(19) . . .
360(19) . . .
327(18) . . .
358(19) . . .
327(18) . . .
371(19) . . .
322(18) . . .
328(18) . . .
362(19) . . .
347(19) . . .
336(18) . . .
316(18) . . .
345(19) . . .
337(18) . . .
358(19) . . .
349(19) . . .
347(19) . . .
324(18) . . .
354(19) . . .
332(18) . . .
341(18) . . .
327(18) . . .
297(17) . . .
338(18) . . .
312(18) . . .
341(18) . . .
303(17) . . .
329(18) . . .
310(18) . . .
348(19) . . .
328(18) . . .
338(18) . . .
323(18) . . .
314(18) . . .
350(19) . . .
307(18) . . .
342(18) . . .
357(19) . . .
326(18) . . .
300(17) . . .
299(17) . . .
352(19) . . .
301(17) . . .
348(19) . . .
330(18) . . .
293(17) . . .
346(19) . . .
318(18) . . .
343(19) . . .
333(18) . . .
346(19) . . .
321(18) . . .
344(19) . . .
341(18) . . .
356(19) . . .
312(18) . . .
320(18) . . .
312(18) . . .
302(17) . . .
329(18) . . .
336(18) . . .
334(18) . . .
344(19) . . .
347(19) . . .
341(18) . . .
326(18) . . .
317(18) . . .
332(18) . . .
297(17) . . .
326(18) . . .
361(19) . . .
361(19) . . .
353(19) . . .
314(18) . . .
314(18) . . .
368(19) . . .
314(18) . . .
320(18) . . .
348(19) . . .
346(19) . . .
328(18) . . .
331(18) . . .
315(18) . . .
322(18) . . .
332(18) . . .
374(19) . . .
343(19) . . .
337(18) . . .
354(19) . . .
339(18) . . .
327(18) . . .
342(18) . . .
309(18) . . .
320(18) . . .
343(19) . . .
352(19) . . .
337(18) . . .
373(19) . . .
345(19) . . .
370(19) . . .
359(19) . . .
333(18) . . .
333(18) . . .
371(19) . . .
337(18) . . .
365(19) . . .
354(19) . . .
349(19) . . .
380(19) . . .
358(19) . . .
360(19) . . .
384(20) . . .
338(18) . . .
346(19) . . .
341(18) . . .
384(20) . . .
379(19) . . .
347(19) . . .
367(19) . . .
350(19) . . .
364(19) . . .
351(19) . . .
342(18) . . .
344(19) . . .
369(19) . . .
355(19) . . .
383(20) . . .
333(18) . . .
344(19) . . .
343(19) . . .
326(18) . . .
321(18) . . .
314(18) . . .
323(18) . . .
331(18) . . .
322(18) . . .
316(18) . . .
298(17) . . .
336(18) . . .
306(17) . . .
323(18) . . .
346(19) . . .
328(18) . . .
333(18) . . .
350(19) . . .
354(19) . . .
321(18) . . .
322(18) . . .
311(18) . . .
298(17) . . .
342(18) . . .
355(19) . . .
346(19) . . .
322(18) . . .
363(19) . . .
342(18) . . .
329(18) . . .
336(18) . . .
331(18) . . .
322(18) . . .
330(18) . . .
332(18) . . .
367(19) . . .
336(18) . . .
328(18) . . .
358(19) . . .
316(18) . . .
327(18) . . .
338(18) . . .
306(17) . . .
331(18) . . .
319(18) . . .
305(17) . . .
353(19) . . .
323(18) . . .
316(18) . . .
289(17) . . .
330(18) . . .
351(19) . . .
334(18) . . .
336(18) . . .
343(19) . . .
330(18) . . .
347(19) . . .
324(18) . . .
337(18) . . .
376(19) . . .
356(19) . . .
356(19) . . .
355(19) . . .
346(19) . . .
318(18) . . .
329(18) . . .
325(18) . . .
310(18) . . .
351(19) . . .
334(18) . . .
317(18) . . .
361(19) . . .
338(18) . . .
353(19) . . .
303(17) . . .
310(18) . . .
359(19) . . .
331(18) . . .
321(18) . . .
342(18) . . .
342(18) . . .
338(18) . . .
310(18) . . .
354(19) . . .
323(18) . . .
319(18) . . .
331(18) . . .
323(18) . . .
309(18) . . .
305(17) . . .
315(18) . . .
295(17) . . .
326(18) . . .
355(19) . . .
326(18) . . .
351(19) . . .
302(17) . . .
314(18) . . .
337(18) . . .
312(18) . . .
293(17) . . .
317(18) . . .
348(19) . . .
331(18) . . .
335(18) . . .
308(18) . . .
326(18) . . .
330(18) . . .
312(18) . . .
323(18) . . .
307(18) . . .
320(18) . . .
325(18) . . .
335(18) . . .
286(17) . . .
313(18) . . .
315(18) . . .
292(17) . . .
326(18) . . .
336(18) . . .
316(18) . . .
307(18) . . .
323(18) . . .
300(17) . . .
342(18) . . .
324(18) . . .
328(18) . . .
319(18) . . .
303(17) . . .
311(18) . . .
299(17) . . .
311(18) . . .
314(18) . . .
300(17) . . .
289(17) . . .
319(18) . . .
295(17) . . .
315(18) . . .
286(17) . . .
297(17) . . .
310(18) . . .
318(18) . . .
345(19) . . .
296(17) . . .
310(18) . . .
334(18) . . .
339(18) . . .
319(18) . . .
315(18) . . .
301(17) . . .
322(18) . . .
317(18) . . .
318(18) . . .
290(17) . . .
325(18) . . .
313(18) . . .
310(18) . . .
346(19) . . .
331(18) . . .
335(18) . . .
307(18) . . .
283(17) . . .
327(18) . . .
308(18) . . .
325(18) . . .
311(18) . . .
323(18) . . .
326(18) . . .
330(18) . . .
309(18) . . .
309(18) . . .
321(18) . . .
326(18) . . .
297(17) . . .
311(18) . . .
316(18) . . .
296(17) . . .
292(17) . . .
315(18) . . .
277(17) . . .
318(18) . . .
322(18) . . .
324(18) . . .
307(18) . . .
309(18) . . .
320(18) . . .
331(18) . . .
297(17) . . .
331(18) . . .
308(18) . . .
302(17) . . .
303(17) . . .
315(18) . . .
325(18) . . .
306(17) . . .
289(17) . . .
320(18) . . .
323(18) . . .
323(18) . . .
323(18) . . .
304(17) . . .
314(18) . . .
334(18) . . .
358(19) . . .
335(18) . . .
296(17) . . .
327(18) . . .
303(17) . . .
316(18) . . .
299(17) . . .
301(17) . . .
289(17) . . .
378(19) . . .
309(18) . . .
293(17) . . .
291(17) . . .
271(16) . . .
297(17) . . .
304(17) . . .
306(17) . . .
294(17) . . .
317(18) . . .
317(18) . . .
309(18) . . .
304(17) . . .
314(18) . . .
287(17) . . .
304(17) . . .
314(18) . . .
317(18) . . .
307(18) . . .
301(17) . . .
335(18) . . .
355(19) . . .
324(18) . . .
315(18) . . .
339(18) . . .
289(17) . . .
310(18) . . .
309(18) . . .
302(17) . . .
303(17) . . .
307(18) . . .
309(18) . . .
297(17) . . .
312(18) . . .
298(17) . . .
305(17) . . .
338(18) . . .
294(17) . . .
324(18) . . .
328(18) . . .
304(17) . . .
307(18) . . .
301(17) . . .
306(17) . . .
304(17) . . .
304(17) . . .
309(18) . . .
307(18) . . .
317(18) . . .
306(17) . . .
310(18) . . .
305(17) . . .
323(18) . . .
318(18) . . .
332(18) . . .
325(18) . . .
329(18) . . .
299(17) . . .
296(17) . . .
326(18) . . .
322(18) . . .
309(18) . . .
308(18) . . .
319(18) . . .
329(18) . . .
354(19) . . .
325(18) . . .
329(18) . . .
328(18) . . .
300(17) . . .
334(18) . . .
313(18) . . .
349(19) . . .
341(18) . . .
356(19) . . .
349(19) . . .
363(19) . . .
348(19) . . .
323(18) . . .
370(19) . . .
336(18) . . .
344(19) . . .
394(20) . . .
353(19) . . .
405(20) . . .
334(18) . . .
362(19) . . .
322(18) . . .
375(19) . . .
396(20) . . .
376(19) . . .
333(18) . . .
366(19) . . .
361(19) . . .
346(19) . . .
369(19) . . .
327(18) . . .
356(19) . . .
383(20) . . .
353(19) . . .
348(19) . . .
370(19) . . .
357(19) . . .
342(18) . . .
370(19) . . .
365(19) . . .
355(19) . . .
353(19) . . .
377(19) . . .
350(19) . . .
313(18) . . .
341(18) . . .
330(18) . . .
330(18) . . .
320(18) . . .
324(18) . . .
350(19) . . .
356(19) . . .
340(18) . . .
343(19) . . .
330(18) . . .
329(18) . . .
334(18) . . .
329(18) . . .
328(18) . . .
353(19) . . .
344(19) . . .
338(18) . . .
345(19) . . .
326(18) . . .
372(19) . . .
329(18) . . .
341(18) . . .
357(19) . . .
337(18) . . .
333(18) . . .
353(19) . . .
351(19) . . .
351(19) . . .
347(19) . . .
337(18) . . .
330(18) . . .
339(18) . . .
363(19) . . .
359(19) . . .
382(20) . . .
352(19) . . .
337(18) . . .
345(19) . . .
368(19) . . .
361(19) . . .
356(19) . . .
371(19) . . .
391(20) . . .
398(20) . . .
345(19) . . .
367(19) . . .
403(20) . . .
348(19) . . .
359(19) . . .
395(20) . . .
332(18) . . .
384(20) . . .
404(20) . . .
384(20) . . .
348(19) . . .
387(20) . . .
356(19) . . .
366(19) . . .
360(19) . . .
373(19) . . .
377(19) . . .
377(19) . . .
352(19) . . .
386(20) . . .
413(20) . . .
335(18) . . .
358(19) . . .
363(19) . . .
383(20) . . .
365(19) . . .
369(19) . . .
341(18) . . .
366(19) . . .
341(18) . . .
333(18) . . .
354(19) . . .
351(19) . . .
333(18) . . .
344(19) . . .
340(18) . . .
335(18) . . .
371(19) . . .
351(19) . . .
315(18) . . .
317(18) . . .
328(18) . . .
335(18) . . .
329(18) . . .
347(19) . . .
350(19) . . .
311(18) . . .
356(19) . . .
360(19) . . .
355(19) . . .
328(18) . . .
340(18) . . .
315(18) . . .
338(18) . . .
330(18) . . .
333(18) . . .
296(17) . . .
336(18) . . .
328(18) . . .
329(18) . . .
360(19) . . .
327(18) . . .
336(18) . . .
329(18) . . .
329(18) . . .
336(18) . . .
319(18) . . .
340(18) . . .
316(18) . . .
342(18) . . .
342(18) . . .
341(18) . . .
348(19) . . .
340(18) . . .
352(19) . . .
320(18) . . .
363(19) . . .
351(19) . . .
351(19) . . .
354(19) . . .
371(19) . . .
364(19) . . .
374(19) . . .
323(18) . . .
352(19) . . .
363(19) . . .
331(18) . . .
321(18) . . .
331(18) . . .
331(18) . . .
359(19) . . .
378(19) . . .
318(18) . . .
347(19) . . .
349(19) . . .
346(19) . . .
356(19) . . .
365(19) . . .
344(19) . . .
338(18) . . .
337(18) . . .
347(19) . . .
305(17) . . .
326(18) . . .
323(18) . . .
328(18) . . .
323(18) . . .
356(19) . . .
322(18) . . .
327(18) . . .
349(19) . . .
312(18) . . .
324(18) . . .
317(18) . . .
293(17) . . .
357(19) . . .
334(18) . . .
341(18) . . .
308(18) . . .
324(18) . . .
305(17) . . .
302(17) . . .
347(19) . . .
345(19) . . .
343(19) . . .
319(18) . . .
336(18) . . .
351(19) . . .
317(18) . . .
332(18) . . .
335(18) . . .
345(19) . . .
360(19) . . .
334(18) . . .
347(19) . . .
345(19) . . .
336(18) . . .
349(19) . . .
324(18) . . .
338(18) . . .
330(18) . . .
310(18) . . .
356(19) . . .
360(19) . . .
333(18) . . .
372(19) . . .
360(19) . . .
350(19) . . .
347(19) . . .
326(18) . . .
354(19) . . .
321(18) . . .
378(19) . . .
342(18) . . .
353(19) . . .
343(19) . . .
359(19) . . .
320(18) . . .
337(18) . . .
331(18) . . .
311(18) . . .
313(18) . . .
355(19) . . .
338(18) . . .
320(18) . . .
350(19) . . .
346(19) . . .
316(18) . . .
355(19) . . .
337(18) . . .
345(19) . . .
341(18) . . .
314(18) . . .
341(18) . . .
312(18) . . .
315(18) . . .
348(19) . . .
313(18) . . .
345(19) . . .
313(18) . . .
334(18) . . .
346(19) . . .
315(18) . . .
305(17) . . .
297(17) . . .
340(18) . . .
311(18) . . .
307(18) . . .
312(18) . . .
330(18) . . .
343(19) . . .
341(18) . . .
343(19) . . .
323(18) . . .
346(19) . . .
318(18) . . .
349(19) . . .
345(19) . . .
362(19) . . .
305(17) . . .
312(18) . . .
318(18) . . .
333(18) . . .
322(18) . . .
328(18) . . .
355(19) . . .
343(19) . . .
315(18) . . .
324(18) . . .
320(18) . . .
319(18) . . .
319(18) . . .
317(18) . . .
330(18) . . .
313(18) . . .
343(19) . . .
330(18) . . .
330(18) . . .
344(19) . . .
359(19) . . .
330(18) . . .
331(18) . . .
352(19) . . .
341(18) . . .
340(18) . . .
332(18) . . .
338(18) . . .
311(18) . . .
348(19) . . .
325(18) . . .
354(19) . . .
329(18) . . .
340(18) . . .
318(18) . . .
339(18) . . .
340(18) . . .
330(18) . . .
341(18) . . .
354(19) . . .
303(17) . . .
304(17) . . .
357(19) . . .
329(18) . . .
328(18) . . .
308(18) . . .
326(18) . . .
312(18) . . .
296(17) . . .
358(19) . . .
285(17) . . .
302(17) . . .
312(18) . . .
320(18) . . .
337(18) . . .
337(18) . . .
341(18) . . .
328(18) . . .
343(19) . . .
334(18) . . .
331(18) . . .
342(18) . . .
321(18) . . .
329(18) . . .
317(18) . . .
354(19) . . .
330(18) . . .
332(18) . . .
347(19) . . .
359(19) . . .
314(18) . . .
331(18) . . .
296(17) . . .
315(18) . . .
342(18) . . .
360(19) . . .
351(19) . . .
344(19) . . .
336(18) . . .
338(18) . . .
314(18) . . .
315(18) . . .
356(19) . . .
371(19) . . .
331(18) . . .
342(18) . . .
322(18) . . .
356(19) . . .
314(18) . . .
336(18) . . .
346(19) . . .
311(18) . . .
338(18) . . .
333(18) . . .
346(19) . . .
385(20) . . .
336(18) . . .
345(19) . . .
367(19) . . .
342(18) . . .
347(19) . . .
354(19) . . .
336(18) . . .
368(19) . . .
373(19) . . .
354(19) . . .
356(19) . . .
331(18) . . .
347(19) . . .
341(18) . . .
346(19) . . .
370(19) . . .
368(19) . . .
322(18) . . .
341(18) . . .
336(18) . . .
334(18) . . .
392(20) . . .
372(19) . . .
387(20) . . .
347(19) . . .
344(19) . . .
346(19) . . .
358(19) . . .
349(19) . . .
358(19) . . .
367(19) . . .
351(19) . . .
338(18) . . .
335(18) . . .
331(18) . . .
377(19) . . .
369(19) . . .
340(18) . . .
369(19) . . .
379(19) . . .
374(19) . . .
383(20) . . .
383(20) . . .
449(21) . . .
391(20) . . .
380(19) . . .
393(20) . . .
378(19) . . .
413(20) . . .
430(21) . . .
393(20) . . .
411(20) . . .
692(26) . . .
621(25) . . .
703(27) . . .
542(23) . . .
477(22) . . .
451(21) . . .
500(22) . . .
495(22) . . .
533(23) . . .
501(22) . . .
467(22) . . .
463(22) . . .
475(22) . . .
492(22) . . .
506(22) . . .
519(23) . . .
543(23) . . .
467(22) . . .
474(22) . . .
539(23) . . .
508(23) . . .
587(24) . . .
532(23) . . .
563(24) . . .
545(23) . . .
594(24) . . .
604(25) . . .
599(24) . . .
641(25) . . .
658(26) . . .
643(25) . . .
680(26) . . .
706(27) . . .
728(27) . . .
778(28) . . .
785(28) . . .
786(28) . . .
871(30) . . .
897(30) . . .
956(31) . . .
987(31) . . .
1045(32) . . .
1095(33) . . .
1154(34) . . .
1264(36) . . .
1348(37) . . .
1430(38) . . .
1552(39) . . .
1694(41) . . .
1762(42) . . .
1958(44) . . .
2261(48) . . .
2482(50) . . .
2698(52) . . .
3041(55) . . .
3293(57) . . .
3705(61) . . .
4269(65) . . .
4780(69) . . .
5581(75) . . .
6474(80) . . .
7492(87) . . .
8787(94) . . .
10260(100) . . .
11970(110) . . .
14100(120) . . .
16760(130) . . .
19600(140) . . .
22670(150) . . .
25240(160) . . .
27320(170) . . .
28640(170) . . .
29430(170) . . .
29020(170) . . .
27610(170) . . .
24790(160) . . .
22150(150) . . .
18780(140) . . .
16310(130) . . .
13460(120) . . .
11210(110) . . .
9381(97) . . .
7876(89) . . .
6760(82) . . .
5710(76) . . .
4877(70) . . .
4304(66) . . .
3818(62) . . .
3466(59) . . .
2989(55) . . .
2660(52) . . .
2437(49) . . .
2227(47) . . .
1952(44) . . .
1785(42) . . .
1709(41) . . .
1593(40) . . .
1457(38) . . .
1342(37) . . .
1256(35) . . .
1197(35) . . .
1109(33) . . .
1029(32) . . .
980(31) . . .
956(31) . . .
942(31) . . .
887(30) . . .
840(29) . . .
812(28) . . .
777(28) . . .
734(27) . . .
691(26) . . .
690(26) . . .
654(26) . . .
667(26) . . .
606(25) . . .
605(25) . . .
618(25) . . .
589(24) . . .
565(24) . . .
528(23) . . .
525(23) . . .
589(24) . . .
507(23) . . .
500(22) . . .
547(23) . . .
459(21) . . .
458(21) . . .
456(21) . . .
487(22) . . .
473(22) . . .
519(23) . . .
470(22) . . .
453(21) . . .
452(21) . . .
482(22) . . .
439(21) . . .
445(21) . . .
440(21) . . .
419(20) . . .
415(20) . . .
407(20) . . .
446(21) . . .
403(20) . . .
397(20) . . .
371(19) . . .
407(20) . . .
414(20) . . .
434(21) . . .
388(20) . . .
402(20) . . .
420(20) . . .
367(19) . . .
374(19) . . .
410(20) . . .
396(20) . . .
396(20) . . .
384(20) . . .
373(19) . . .
369(19) . . .
375(19) . . .
399(20) . . .
352(19) . . .
387(20) . . .
336(18) . . .
376(19) . . .
363(19) . . .
363(19) . . .
362(19) . . .
383(20) . . .
361(19) . . .
373(19) . . .
357(19) . . .
353(19) . . .
392(20) . . .
391(20) . . .
370(19) . . .
364(19) . . .
339(18) . . .
381(20) . . .
362(19) . . .
380(19) . . .
393(20) . . .
354(19) . . .
369(19) . . .
340(18) . . .
379(19) . . .
365(19) . . .
350(19) . . .
352(19) . . .
326(18) . . .
325(18) . . .
351(19) . . .
361(19) . . .
349(19) . . .
362(19) . . .
356(19) . . .
375(19) . . .
384(20) . . .
375(19) . . .
368(19) . . .
366(19) . . .
361(19) . . .
359(19) . . .
336(18) . . .
368(19) . . .
377(19) . . .
370(19) . . .
376(19) . . .
363(19) . . .
338(18) . . .
344(19) . . .
338(18) . . .
326(18) . . .
347(19) . . .
384(20) . . .
338(18) . . .
334(18) . . .
345(19) . . .
326(18) . . .
357(19) . . .
352(19) . . .
383(20) . . .
325(18) . . .
358(19) . . .
316(18) . . .
356(19) . . .
349(19) . . .
362(19) . . .
315(18) . . .
357(19) . . .
346(19) . . .
310(18) . . .
349(19) . . .
352(19) . . .
331(18) . . .
320(18) . . .
350(19) . . .
338(18) . . .
334(18) . . .
370(19) . . .
334(18) . . .
344(19) . . .
349(19) . . .
348(19) . . .
328(18) . . .
357(19) . . .
363(19) . . .
376(19) . . .
371(19) . . .
322(18) . . .
333(18) . . .
353(19) . . .
347(19) . . .
331(18) . . .
350(19) . . .
352(19) . . .
353(19) . . .
355(19) . . .
348(19) . . .
348(19) . . .
348(19) . . .
337(18) . . .
331(18) . . .
343(19) . . .
330(18) . . .
321(18) . . .
358(19) . . .
355(19) . . .
328(18) . . .
326(18) . . .
349(19) . . .
345(19) . . .
362(19) . . .
321(18) . . .
347(19) . . .
339(18) . . .
343(19) . . .
337(18) . . .
347(19) . . .
336(18) . . .
330(18) . . .
327(18) . . .
292(17) . . .
326(18) . . .
351(19) . . .
312(18) . . .
343(19) . . .
341(18) . . .
332(18) . . .
347(19) . . .
321(18) . . .
317(18) . . .
335(18) . . .
323(18) . . .
301(17) . . .
338(18) . . .
316(18) . . .
307(18) . . .
334(18) . . .
303(17) . . .
321(18) . . .
326(18) . . .
334(18) . . .
321(18) . . .
333(18) . . .
337(18) . . .
311(18) . . .
334(18) . . .
331(18) . . .
326(18) . . .
314(18) . . .
326(18) . . .
338(18) . . .
331(18) . . .
332(18) . . .
341(18) . . .
320(18) . . .
336(18) . . .
339(18) . . .
304(17) . . .
304(17) . . .
316(18) . . .
308(18) . . .
318(18) . . .
329(18) . . .
316(18) . . .
298(17) . . .
297(17) . . .
320(18) . . .
341(18) . . .
318(18) . . .
360(19) . . .
358(19) . . .
341(18) . . .
303(17) . . .
315(18) . . .
307(18) . . .
314(18) . . .
333(18) . . .
332(18) . . .
311(18) . . .
328(18) . . .
338(18) . . .
304(17) . . .
316(18) . . .
308(18) . . .
306(17) . . .
290(17) . . .
307(18) . . .
295(17) . . .
304(17) . . .
286(17) . . .
312(18) . . .
298(17) . . .
320(18) . . .
331(18) . . .
314(18) . . .
313(18) . . .
306(17) . . .
328(18) . . .
277(17) . . .
334(18) . . .
309(18) . . .
301(17) . . .
299(17) . . .
299(17) . . .
295(17) . . .
313(18) . . .
312(18) . . .
317(18) . . .
303(17) . . .
307(18) . . .
306(17) . . .
313(18) . . .
314(18) . . .
319(18) . . .
327(18) . . .
332(18) . . .
340(18) . . .
316(18) . . .
357(19) . . .
325(18) . . .
333(18) . . .
302(17) . . .
322(18) . . .
332(18) . . .
326(18) . . .
330(18) . . .
340(18) . . .
311(18) . . .
323(18) . . .
300(17) . . .
300(17) . . .
310(18) . . .
324(18) . . .
320(18) . . .
335(18) . . .
330(18) . . .
296(17) . . .
314(18) . . .
316(18) . . .
289(17) . . .
342(18) . . .
320(18) . . .
301(17) . . .
302(17) . . .
325(18) . . .
327(18) . . .
307(18) . . .
302(17) . . .
334(18) . . .
277(17) . . .
306(17) . . .
306(17) . . .
315(18) . . .
303(17) . . .
303(17) . . .
294(17) . . .
316(18) . . .
312(18) . . .
314(18) . . .
350(19) . . .
348(19) . . .
295(17) . . .
289(17) . . .
302(17) . . .
326(18) . . .
322(18) . . .
328(18) . . .
338(18) . . .
322(18) . . .
309(18) . . .
382(20) . . .
323(18) . . .
336(18) . . .
349(19) . . .
345(19) . . .
333(18) . . .
339(18) . . .
324(18) . . .
331(18) . . .
346(19) . . .
312(18) . . .
306(17) . . .
338(18) . . .
309(18) . . .
297(17) . . .
333(18) . . .
315(18) . . .
336(18) . . .
300(17) . . .
305(17) . . .
321(18) . . .
316(18) . . .
315(18) . . .
304(17) . . .
292(17) . . .
315(18) . . .
307(18) . . .
308(18) . . .
302(17) . . .
323(18) . . .
320(18) . . .
331(18) . . .
312(18) . . .
334(18) . . .
355(19) . . .
333(18) . . .
363(19) . . .
311(18) . . .
303(17) . . .
335(18) . . .
336(18) . . .
322(18) . . .
319(18) . . .
314(18) . . .
321(18) . . .
320(18) . . .
294(17) . . .
296(17) . . .
322(18) . . .
310(18) . . .
311(18) . . .
292(17) . . .
320(18) . . .
313(18) . . .
314(18) . . .
342(18) . . .
317(18) . . .
311(18) . . .
314(18) . . .
323(18) . . .
337(18) . . .
290(17) . . .
300(17) . . .
312(18) . . .
293(17) . . .
301(17) . . .
305(17) . . .
339(18) . . .
311(18) . . .
307(18) . . .
296(17) . . .
298(17) . . .
294(17) . . .
312(18) . . .
307(18) . . .
289(17) . . .
335(18) . . .
319(18) . . .
299(17) . . .
298(17) . . .
303(17) . . .
310(18) . . .
298(17) . . .
318(18) . . .
299(17) . . .
316(18) . . .
324(18) . . .
307(18) . . .
316(18) . . .
315(18) . . .
326(18) . . .
313(18) . . .
327(18) . . .
315(18) . . .
307(18) . . .
348(19) . . .
321(18) . . .
311(18) . . .
341(18) . . .
326(18) . . .
316(18) . . .
340(18) . . .
325(18) . . .
358(19) . . .
312(18) . . .
322(18) . . .
299(17) . . .
308(18) . . .
324(18) . . .
306(17) . . .
281(17) . . .
315(18) . . .
312(18) . . .
324(18) . . .
335(18) . . .
321(18) . . .
362(19) . . .
320(18) . . .
306(17) . . .
292(17) . . .
302(17) . . .
304(17) . . .
285(17) . . .
317(18) . . .
317(18) . . .
318(18) . . .
322(18) . . .
328(18) . . .
323(18) . . .
312(18) . . .
343(19) . . .
317(18) . . .
304(17) . . .
322(18) . . .
294(17) . . .
343(19) . . .
297(17) . . .
350(19) . . .
356(19) . . .
322(18) . . .
357(19) . . .
335(18) . . .
347(19) . . .
321(18) . . .
330(18) . . .
308(18) . . .
347(19) . . .
345(19) . . .
345(19) . . .
344(19) . . .
314(18) . . .
341(18) . . .
359(19) . . .
348(19) . . .
350(19) . . .
349(19) . . .
321(18) . . .
342(18) . . .
359(19) . . .
334(18) . . .
351(19) . . .
367(19) . . .
340(18) . . .
332(18) . . .
307(18) . . .
346(19) . . .
328(18) . . .
338(18) . . .
367(19) . . .
324(18) . . .
321(18) . . .
349(19) . . .
326(18) . . .
347(19) . . .
345(19) . . .
358(19) . . .
325(18) . . .
315(18) . . .
347(19) . . .
345(19) . . .
337(18) . . .
343(19) . . .
356(19) . . .
354(19) . . .
327(18) . . .
331(18) . . .
352(19) . . .
305(17) . . .
316(18) . . .
303(17) . . .
331(18) . . .
304(17) . . .
361(19) . . .
328(18) . . .
347(19) . . .
361(19) . . .
331(18) . . .
347(19) . . .
317(18) . . .
319(18) . . .
345(19) . . .
351(19) . . .
317(18) . . .
334(18) . . .
332(18) . . .
349(19) . . .
379(19) . . .
354(19) . . .
343(19) . . .
354(19) . . .
371(19) . . .
345(19) . . .
315(18) . . .
368(19) . . .
332(18) . . .
354(19) . . .
358(19) . . .
353(19) . . .
345(19) . . .
377(19) . . .
341(18) . . .
376(19) . . .
346(19) . . .
366(19) . . .
351(19) . . .
352(19) . . .
364(19) . . .
359(19) . . .
351(19) . . .
338(18) . . .
334(18) . . .
345(19) . . .
332(18) . . .
337(18) . . .
318(18) . . .
343(19) . . .
322(18) . . .
335(18) . . .
342(18) . . .
348(19) . . .
332(18) . . .
317(18) . . .
326(18) . . .
319(18) . . .
310(18) . . .
312(18) . . .
313(18) . . .
321(18) . . .
300(17) . . .
330(18) . . .
346(19) . . .
320(18) . . .
311(18) . . .
298(17) . . .
295(17) . . .
311(18) . . .
336(18) . . .
334(18) . . .
317(18) . . .
299(17) . . .
320(18) . . .
306(17) . . .
306(17) . . .
303(17) . . .
354(19) . . .
330(18) . . .
352(19) . . .
299(17) . . .
328(18) . . .
327(18) . . .
301(17) . . .
326(18) . . .
309(18) . . .
317(18) . . .
301(17) . . .
333(18) . . .
355(19) . . .
317(18) . . .
312(18) . . .
361(19) . . .
327(18) . . .
343(19) . . .
337(18) . . .
326(18) . . .
298(17) . . .
316(18) . . .
331(18) . . .
314(18) . . .
336(18) . . .
320(18) . . .
339(18) . . .
316(18) . . .
345(19) . . .
331(18) . . .
364(19) . . .
352(19) . . .
306(17) . . .
322(18) . . .
326(18) . . .
329(18) . . .
311(18) . . .
385(20) . . .
327(18) . . .
322(18) . . .
340(18) . . .
326(18) . . .
317(18) . . .
329(18) . . .
330(18) . . .
356(19) . . .
357(19) . . .
372(19) . . .
346(19) . . .
326(18) . . .
328(18) . . .
322(18) . . .
302(17) . . .
299(17) . . .
306(17) . . .
301(17) . . .
318(18) . . .
305(17) . . .
302(17) . . .
320(18) . . .
319(18) . . .
299(17) . . .
315(18) . . .
318(18) . . .
282(17) . . .
305(17) . . .
306(17) . . .
331(18) . . .
300(17) . . .
328(18) . . .
288(17) . . .
295(17) . . .
315(18) . . .
303(17) . . .
319(18) . . .
325(18) . . .
336(18) . . .
302(17) . . .
307(18) . . .
277(17) . . .
295(17) . . .
299(17) . . .
294(17) . . .
284(17) . . .
304(17) . . .
319(18) . . .
294(17) . . .
291(17) . . .
289(17) . . .
302(17) . . .
292(17) . . .
305(17) . . .
306(17) . . .
281(17) . . .
298(17) . . .
270(16) . . .
299(17) . . .
283(17) . . .
292(17) . . .
285(17) . . .
290(17) . . .
281(17) . . .
303(17) . . .
307(18) . . .
284(17) . . .
276(17) . . .
279(17) . . .
295(17) . . .
298(17) . . .
298(17) . . .
293(17) . . .
285(17) . . .
300(17) . . .
285(17) . . .
309(18) . . .
282(17) . . .
285(17) . . .
259(16) . . .
294(17) . . .
283(17) . . .
286(17) . . .
286(17) . . .
299(17) . . .
283(17) . . .
296(17) . . .
328(18) . . .
307(18) . . .
286(17) . . .
273(17) . . .
285(17) . . .
299(17) . . .
274(17) . . .
290(17) . . .
281(17) . . .
311(18) . . .
282(17) . . .
307(18) . . .
319(18) . . .
315(18) . . .
292(17) . . .
304(17) . . .
280(17) . . .
308(18) . . .
293(17) . . .
326(18) . . .
338(18) . . .
349(19) . . .
283(17) . . .
299(17) . . .
305(17) . . .
346(19) . . .
297(17) . . .
308(18) . . .
293(17) . . .
272(16) . . .
292(17) . . .
288(17) . . .
337(18) . . .
307(18) . . .
286(17) . . .
305(17) . . .
296(17) . . .
318(18) . . .
288(17) . . .
310(18) . . .
333(18) . . .
330(18) . . .
306(17) . . .
301(17) . . .
305(17) . . .
288(17) . . .
309(18) . . .
297(17) . . .
292(17) . . .
286(17) . . .
301(17) . . .
296(17) . . .
331(18) . . .
272(16) . . .
311(18) . . .
265(16) . . .
333(18) . . .
301(17) . . .
281(17) . . .
292(17) . . .
293(17) . . .
324(18) . . .
302(17) . . .
291(17) . . .
297(17) . . .
309(18) . . .
308(18) . . .
291(17) . . .
283(17) . . .
292(17) . . .
289(17) . . .
279(17) . . .
326(18) . . .
301(17) . . .
304(17) . . .
299(17) . . .
291(17) . . .
304(17) . . .
294(17) . . .
323(18) . . .
290(17) . . .
313(18) . . .
303(17) . . .
337(18) . . .
309(18) . . .
295(17) . . .
334(18) . . .
304(17) . . .
286(17) . . .
333(18) . . .
339(18) . . .
323(18) . . .
304(17) . . .
279(17) . . .
313(18) . . .
310(18) . . .
310(18) . . .
286(17) . . .
309(18) . . .
323(18) . . .
340(18) . . .
326(18) . . .
293(17) . . .
315(18) . . .
327(18) . . .
318(18) . . .
314(18) . . .
308(18) . . .
331(18) . . .
316(18) . . .
311(18) . . .
308(18) . . .
310(18) . . .
302(17) . . .
283(17) . . .
319(18) . . .
320(18) . . .
324(18) . . .
378(19) . . .
338(18) . . .
303(17) . . .
313(18) . . .
314(18) . . .
337(18) . . .
324(18) . . .
325(18) . . .
368(19) . . .
321(18) . . .
313(18) . . .
334(18) . . .
333(18) . . .
332(18) . . .
335(18) . . .
340(18) . . .
331(18) . . .
339(18) . . .
324(18) . . .
305(17) . . .
329(18) . . .
318(18) . . .
322(18) . . .
328(18) . . .
330(18) . . .
346(19) . . .
338(18) . . .
338(18) . . .
317(18) . . .
314(18) . . .
300(17) . . .
352(19) . . .
350(19) . . .
352(19) . . .
376(19) . . .
343(19) . . .
291(17) . . .
311(18) . . .
339(18) . . .
284(17) . . .
329(18) . . .
326(18) . . .
315(18) . . .
318(18) . . .
340(18) . . .
345(19) . . .
334(18) . . .
340(18) . . .
320(18) . . .
362(19) . . .
346(19) . . .
327(18) . . .
321(18) . . .
365(19) . . .
339(18) . . .
305(17) . . .
357(19) . . .
379(19) . . .
365(19) . . .
333(18) . . .
337(18) . . .
336(18) . . .
343(19) . . .
349(19) . . .
355(19) . . .
358(19) . . .
328(18) . . .
326(18) . . .
358(19) . . .
335(18) . . .
355(19) . . .
327(18) . . .
319(18) . . .
327(18) . . .
345(19) . . .
333(18) . . .
355(19) . . .
315(18) . . .
323(18) . . .
336(18) . . .
320(18) . . .
338(18) . . .
348(19) . . .
368(19) . . .
367(19) . . .
324(18) . . .
341(18) . . .
362(19) . . .
362(19) . . .
356(19) . . .
369(19) . . .
364(19) . . .
392(20) . . .
352(19) . . .
362(19) . . .
359(19) . . .
378(19) . . .
413(20) . . .
397(20) . . .
379(19) . . .
419(20) . . .
410(20) . . .
385(20) . . .
398(20) . . .
382(20) . . .
413(20) . . .
405(20) . . .
462(21) . . .
427(21) . . .
477(22) . . .
500(22) . . .
478(22) . . .
505(22) . . .
508(23) . . .
551(23) . . .
552(23) . . .
570(24) . . .
637(25) . . .
632(25) . . .
650(25) . . .
640(25) . . .
712(27) . . .
722(27) . . .
765(28) . . .
796(28) . . .
874(30) . . .
933(31) . . .
978(31) . . .
1013(32) . . .
1080(33) . . .
1190(34) . . .
1299(36) . . .
1402(37) . . .
1582(40) . . .
1782(42) . . .
1900(44) . . .
2140(46) . . .
2364(49) . . .
2738(52) . . .
2963(54) . . .
3432(59) . . .
3914(63) . . .
4615(68) . . .
5328(73) . . .
6409(80) . . .
7438(86) . . .
8980(95) . . .
10250(100) . . .
11950(110) . . .
13360(120) . . .
14740(120) . . .
16010(130) . . .
16550(130) . . .
16550(130) . . .
15430(120) . . .
14320(120) . . .
12900(110) . . .
11360(110) . . .
9604(98) . . .
8148(90) . . .
6812(83) . . .
5717(76) . . .
4939(70) . . .
4181(65) . . .
3691(61) . . .
3066(55) . . .
2739(52) . . .
2456(50) . . .
2175(47) . . .
1972(44) . . .
1750(42) . . .
1604(40) . . .
1442(38) . . .
1250(35) . . .
1157(34) . . .
1116(33) . . .
1028(32) . . .
992(31) . . .
869(29) . . .
818(29) . . .
857(29) . . .
743(27) . . .
729(27) . . .
658(26) . . .
657(26) . . .
627(25) . . .
640(25) . . .
640(25) . . .
580(24) . . .
551(23) . . .
544(23) . . .
557(24) . . .
520(23) . . .
502(22) . . .
460(21) . . .
435(21) . . .
440(21) . . .
454(21) . . .
421(21) . . .
430(21) . . .
403(20) . . .
394(20) . . .
385(20) . . .
410(20) . . .
401(20) . . .
393(20) . . .
344(19) . . .
370(19) . . .
374(19) . . .
343(19) . . .
385(20) . . .
343(19) . . .
364(19) . . .
376(19) . . .
343(19) . . .
335(18) . . .
351(19) . . .
356(19) . . .
375(19) . . .
349(19) . . .
342(18) . . .
343(19) . . .
349(19) . . .
339(18) . . .
350(19) . . .
349(19) . . .
337(18) . . .
343(19) . . .
330(18) . . .
348(19) . . .
366(19) . . .
311(18) . . .
368(19) . . .
357(19) . . .
330(18) . . .
326(18) . . .
350(19) . . .
346(19) . . .
341(18) . . .
307(18) . . .
324(18) . . .
302(17) . . .
307(18) . . .
331(18) . . .
348(19) . . .
296(17) . . .
292(17) . . .
304(17) . . .
309(18) . . .
293(17) . . .
309(18) . . .
310(18) . . .
296(17) . . .
303(17) . . .
295(17) . . .
304(17) . . .
302(17) . . .
327(18) . . .
320(18) . . .
298(17) . . .
333(18) . . .
326(18) . . .
293(17) . . .
291(17) . . .
327(18) . . .
302(17) . . .
332(18) . . .
311(18) . . .
279(17) . . .
301(17) . . .
303(17) . . .
286(17) . . .
331(18) . . .
305(17) . . .
292(17) . . .
304(17) . . .
302(17) . . .
282(17) . . .
295(17) . . .
304(17) . . .
301(17) . . .
300(17) . . .
304(17) . . .
321(18) . . .
294(17) . . .
307(18) . . .
308(18) . . .
307(18) . . .
285(17) . . .
323(18) . . .
292(17) . . .
308(18) . . .
308(18) . . .
302(17) . . .
303(17) . . .
311(18) . . .
309(18) . . .
297(17) . . .
306(17) . . .
300(17) . . .
287(17) . . .
326(18) . . .
288(17) . . .
299(17) . . .
308(18) . . .
303(17) . . .
311(18) . . .
306(17) . . .
322(18) . . .
308(18) . . .
286(17) . . .
306(17) . . .
309(18) . . .
329(18) . . .
300(17) . . .
286(17) . . .
284(17) . . .
286(17) . . .
301(17) . . .
316(18) . . .
297(17) . . .
319(18) . . .
294(17) . . .
284(17) . . .
312(18) . . .
288(17) . . .
304(17) . . .
293(17) . . .
286(17) . . .
297(17) . . .
267(16) . . .
314(18) . . .
295(17) . . .
269(16) . . .
294(17) . . .
294(17) . . .
295(17) . . .
273(17) . . .
305(17) . . .
316(18) . . .
309(18) . . .
284(17) . . .
294(17) . . .
303(17) . . .
300(17) . . .
293(17) . . .
280(17) . . .
296(17) . . .
286(17) . . .
298(17) . . .
280(17) . . .
279(17) . . .
286(17) . . .
312(18) . . .
285(17) . . .
276(17) . . .
251(16) . . .
303(17) . . .
286(17) . . .
279(17) . . .
261(16) . . .
288(17) . . .
285(17) . . .
320(18) . . .
283(17) . . .
285(17) . . .
291(17) . . .
301(17) . . .
284(17) . . .
287(17) . . .
310(18) . . .
307(18) . . .
296(17) . . .
283(17) . . .
280(17) . . .
295(17) . . .
251(16) . . .
268(16) . . .
276(17) . . .
281(17) . . .
293(17) . . .
273(17) . . .
287(17) . . .
278(17) . . .
288(17) . . .
300(17) . . .
262(16) . . .
296(17) . . .
270(16) . . .
305(17) . . .
289(17) . . .
295(17) . . .
276(17) . . .
285(17) . . .
295(17) . . .
261(16) . . .
324(18) . . .
269(16) . . .
286(17) . . .
292(17) . . .
279(17) . . .
285(17) . . .
276(17) . . .
281(17) . . .
269(16) . . .
265(16) . . .
270(16) . . .
294(17) . . .
275(17) . . .
280(17) . . .
283(17) . . .
279(17) . . .
279(17) . . .
290(17) . . .
299(17) . . .
295(17) . . .
276(17) . . .
302(17) . . .
260(16) . . .
281(17) . . .
254(16) . . .
283(17) . . .
279(17) . . .
262(16) . . .
259(16) . . .
291(17) . . .
283(17) . . .
275(17) . . .
280(17) . . .
256(16) . . .
261(16) . . .
306(17) . . .
263(16) . . .
260(16) . . .
273(17) . . .
277(17) . . .
299(17) . . .
310(18) . . .
290(17) . . .
260(16) . . .
299(17) . . .
254(16) . . .
281(17) . . .
281(17) . . .
275(17) . . .
274(17) . . .
288(17) . . .
228(15) . . .
266(16) . . .
279(17) . . .
260(16) . . .
264(16) . . .
295(17) . . .
269(16) . . .
281(17) . . .
263(16) . . .
265(16) . . .
275(17) . . .
272(16) . . .
266(16) . . .
313(18) . . .
267(16) . . .
275(17) . . .
278(17) . . .
279(17) . . .
300(17) . . .
266(16) . . .
254(16) . . .
261(16) . . .
296(17) . . .
278(17) . . .
271(16) . . .
277(17) . . .
260(16) . . .
282(17) . . .
300(17) . . .
282(17) . . .
272(16) . . .
294(17) . . .
277(17) . . .
293(17) . . .
279(17) . . .
256(16) . . .
281(17) . . .
256(16) . . .
278(17) . . .
317(18) . . .
274(17) . . .
250(16) . . .
296(17) . . .
271(16) . . .
262(16) . . .
283(17) . . .
270(16) . . .
284(17) . . .
281(17) . . .
266(16) . . .
257(16) . . .
285(17) . . .
300(17) . . .
289(17) . . .
265(16) . . .
272(16) . . .
280(17) . . .
272(16) . . .
279(17) . . .
263(16) . . .
289(17) . . .
262(16) . . .
289(17) . . .
272(16) . . .
271(16) . . .
287(17) . . .
281(17) . . .
287(17) . . .
303(17) . . .
297(17) . . .
277(17) . . .
284(17) . . .
310(18) . . .
295(17) . . .
321(18) . . .
273(17) . . .
287(17) . . .
271(16) . . .
315(18) . . .
272(16) . . .
275(17) . . .
279(17) . . .
258(16) . . .
273(17) . . .
295(17) . . .
261(16) . . .
274(17) . . .
278(17) . . .
277(17) . . .
259(16) . . .
294(17) . . .
302(17) . . .
267(16) . . .
290(17) . . .
304(17) . . .
298(17) . . .
312(18) . . .
291(17) . . .
308(18) . . .
295(17) . . .
292(17) . . .
304(17) . . .
276(17) . . .
302(17) . . .
286(17) . . .
319(18) . . .
285(17) . . .
284(17) . . .
282(17) . . .
279(17) . . .
302(17) . . .
273(17) . . .
298(17) . . .
286(17) . . .
293(17) . . .
283(17) . . .
265(16) . . .
284(17) . . .
269(16) . . .
270(16) . . .
291(17) . . .
273(17) . . .
290(17) . . .
263(16) . . .
296(17) . . .
284(17) . . .
300(17) . . .
293(17) . . .
277(17) . . .
267(16) . . .
278(17) . . .
262(16) . . .
305(17) . . .
278(17) . . .
251(16) . . .
298(17) . . .
295(17) . . .
264(16) . . .
256(16) . . .
266(16) . . .
276(17) . . .
284(17) . . .
276(17) . . .
268(16) . . .
265(16) . . .
292(17) . . .
253(16) . . .
271(16) . . .
275(17) . . .
280(17) . . .
270(16) . . .
291(17) . . .
254(16) . . .
280(17) . . .
295(17) . . .
259(16) . . .
277(17) . . .
300(17) . . .
284(17) . . .
282(17) . . .
260(16) . . .
259(16) . . .
275(17) . . .
264(16) . . .
285(17) . . .
257(16) . . .
289(17) . . .
290(17) . . .
262(16) . . .
276(17) . . .
275(17) . . .
265(16) . . .
294(17) . . .
238(15) . . .
260(16) . . .
283(17) . . .
266(16) . . .
269(16) . . .
267(16) . . .
262(16) . . .
258(16) . . .
283(17) . . .
288(17) . . .
278(17) . . .
266(16) . . .
236(15) . . .
254(16) . . .
272(16) . . .
286(17) . . .
285(17) . . .
244(16) . . .
265(16) . . .
260(16) . . .
266(16) . . .
285(17) . . .
279(17) . . .
275(17) . . .
270(16) . . .
263(16) . . .
278(17) . . .
280(17) . . .
270(16) . . .
286(17) . . .
258(16) . . .
282(17) . . .
254(16) . . .
277(17) . . .
296(17) . . .
281(17) . . .
281(17) . . .
284(17) . . .
293(17) . . .
275(17) . . .
291(17) . . .
272(16) . . .
302(17) . . .
275(17) . . .
297(17) . . .
289(17) . . .
303(17) . . .
286(17) . . .
288(17) . . .
271(16) . . .
276(17) . . .
277(17) . . .
292(17) . . .
292(17) . . .
262(16) . . .
276(17) . . .
277(17) . . .
268(16) . . .
297(17) . . .
280(17) . . .
288(17) . . .
281(17) . . .
273(17) . . .
289(17) . . .
285(17) . . .
255(16) . . .
287(17) . . .
291(17) . . .
280(17) . . .
291(17) . . .
279(17) . . .
261(16) . . .
274(17) . . .
289(17) . . .
289(17) . . .
272(16) . . .
267(16) . . .
300(17) . . .
265(16) . . .
277(17) . . .
317(18) . . .
289(17) . . .
278(17) . . .
276(17) . . .
278(17) . . .
276(17) . . .
282(17) . . .
269(16) . . .
281(17) . . .
293(17) . . .
266(16) . . .
262(16) . . .
245(16) . . .
261(16) . . .
282(17) . . .
270(16) . . .
271(16) . . .
306(17) . . .
267(16) . . .
267(16) . . .
276(17) . . .
279(17) . . .
272(16) . . .
264(16) . . .
273(17) . . .
252(16) . . .
276(17) . . .
261(16) . . .
266(16) . . .
264(16) . . .
255(16) . . .
263(16) . . .
267(16) . . .
247(16) . . .
276(17) . . .
269(16) . . .
257(16) . . .
255(16) . . .
268(16) . . .
272(16) . . .
248(16) . . .
243(16) . . .
260(16) . . .
257(16) . . .
264(16) . . .
270(16) . . .
245(16) . . .
282(17) . . .
281(17) . . .
266(16) . . .
294(17) . . .
270(16) . . .
275(17) . . .
287(17) . . .
286(17) . . .
264(16) . . .
236(15) . . .
255(16) . . .
283(17) . . .
261(16) . . .
257(16) . . .
253(16) . . .
282(17) . . .
254(16) . . .
274(17) . . .
268(16) . . .
280(17) . . .
266(16) . . .
254(16) . . .
252(16) . . .
242(16) . . .
273(17) . . .
278(17) . . .
263(16) . . .
258(16) . . .
268(16) . . .
278(17) . . .
245(16) . . .
261(16) . . .
279(17) . . .
264(16) . . .
269(16) . . .
243(16) . . .
270(16) . . .
268(16) . . .
273(17) . . .
266(16) . . .
288(17) . . .
283(17) . . .
288(17) . . .
279(17) . . .
264(16) . . .
265(16) . . .
259(16) . . .
250(16) . . .
285(17) . . .
255(16) . . .
277(17) . . .
271(16) . . .
263(16) . . .
272(16) . . .
260(16) . . .
269(16) . . .
297(17) . . .
281(17) . . .
270(16) . . .
255(16) . . .
274(17) . . .
295(17) . . .
247(16) . . .
265(16) . . .
261(16) . . .
275(17) . . .
258(16) . . .
272(16) . . .
291(17) . . .
283(17) . . .
278(17) . . .
286(17) . . .
286(17) . . .
273(17) . . .
269(16) . . .
251(16) . . .
272(16) . . .
274(17) . . .
259(16) . . .
232(15) . . .
260(16) . . .
257(16) . . .
281(17) . . .
277(17) . . .
262(16) . . .
255(16) . . .
280(17) . . .
254(16) . . .
269(16) . . .
270(16) . . .
253(16) . . .
278(17) . . .
256(16) . . .
270(16) . . .
270(16) . . .
261(16) . . .
261(16) . . .
263(16) . . .
274(17) . . .
267(16) . . .
264(16) . . .
259(16) . . .
269(16) . . .
277(17) . . .
268(16) . . .
261(16) . . .
250(16) . . .
258(16) . . .
280(17) . . .
272(16) . . .
244(16) . . .
274(17) . . .
289(17) . . .
267(16) . . .
239(15) . . .
242(16) . . .
264(16) . . .
262(16) . . .
256(16) . . .
257(16) . . .
257(16) . . .
258(16) . . .
284(17) . . .
277(17) . . .
277(17) . . .
250(16) . . .
256(16) . . .
262(16) . . .
248(16) . . .
245(16) . . .
270(16) . . .
273(17) . . .
256(16) . . .
256(16) . . .
284(17) . . .
270(16) . . .
245(16) . . .
253(16) . . .
256(16) . . .
279(17) . . .
252(16) . . .
250(16) . . .
257(16) . . .
262(16) . . .
257(16) . . .
256(16) . . .
273(17) . . .
267(16) . . .
269(16) . . .
263(16) . . .
237(15) . . .
250(16) . . .
259(16) . . .
273(17) . . .
270(16) . . .
254(16) . . .
267(16) . . .
277(17) . . .
282(17) . . .
275(17) . . .
280(17) . . .
235(15) . . .
247(16) . . .
250(16) . . .
260(16) . . .
259(16) . . .
278(17) . . .
271(16) . . .
256(16) . . .
259(16) . . .
241(16) . . .
245(16) . . .
287(17) . . .
256(16) . . .
272(16) . . .
298(17) . . .
249(16) . . .
268(16) . . .
271(16) . . .
281(17) . . .
274(17) . . .
261(16) . . .
260(16) . . .
268(16) . . .
274(17) . . .
246(16) . . .
284(17) . . .
261(16) . . .
263(16) . . .
275(17) . . .
246(16) . . .
264(16) . . .
273(17) . . .
243(16) . . .
241(16) . . .
269(16) . . .
275(17) . . .
248(16) . . .
258(16) . . .
271(16) . . .
255(16) . . .
241(16) . . .
257(16) . . .
271(16) . . .
258(16) . . .
249(16) . . .
256(16) . . .
267(16) . . .
277(17) . . .
264(16) . . .
242(16) . . .
272(16) . . .
255(16) . . .
255(16) . . .
258(16) . . .
239(15) . . .
265(16) . . .
254(16) . . .
253(16) . . .
274(17) . . .
264(16) . . .
247(16) . . .
216(15) . . .
250(16) . . .
277(17) . . .
251(16) . . .
253(16) . . .
275(17) . . .
258(16) . . .
252(16) . . .
266(16) . . .
278(17) . . .
250(16) . . .
260(16) . . .
244(16) . . .
276(17) . . .
255(16) . . .
252(16) . . .
266(16) . . .
260(16) . . .
235(15) . . .
250(16) . . .
238(15) . . .
269(16) . . .
234(15) . . .
224(15) . . .
291(17) . . .
265(16) . . .
251(16) . . .
237(15) . . .
263(16) . . .
255(16) . . .
258(16) . . .
226(15) . . .
246(16) . . .
267(16) . . .
268(16) . . .
232(15) . . .
240(15) . . .
234(15) . . .
257(16) . . .
243(16) . . .
259(16) . . .
256(16) . . .
254(16) . . .
249(16) . . .
252(16) . . .
234(15) . . .
244(16) . . .
267(16) . . .
268(16) . . .
243(16) . . .
243(16) . . .
251(16) . . .
260(16) . . .
260(16) . . .
276(17) . . .
240(15) . . .
268(16) . . .
238(15) . . .
251(16) . . .
259(16) . . .
269(16) . . .
251(16) . . .
258(16) . . .
251(16) . . .
266(16) . . .
249(16) . . .
272(16) . . .
282(17) . . .
251(16) . . .
269(16) . . .
250(16) . . .
270(16) . . .
276(17) . . .
245(16) . . .
264(16) . . .
239(15) . . .
259(16) . . .
258(16) . . .
262(16) . . .
263(16) . . .
287(17) . . .
279(17) . . .
266(16) . . .
285(17) . . .
234(15) . . .
283(17) . . .
290(17) . . .
274(17) . . .
261(16) . . .
259(16) . . .
255(16) . . .
261(16) . . .
264(16) . . .
241(16) . . .
273(17) . . .
258(16) . . .
241(16) . . .
249(16) . . .
255(16) . . .
257(16) . . .
265(16) . . .
246(16) . . .
248(16) . . .
287(17) . . .
263(16) . . .
257(16) . . .
275(17) . . .
251(16) . . .
246(16) . . .
271(16) . . .
256(16) . . .
269(16) . . .
258(16) . . .
277(17) . . .
255(16) . . .
267(16) . . .
260(16) . . .
266(16) . . .
246(16) . . .
249(16) . . .
286(17) . . .
258(16) . . .
271(16) . . .
270(16) . . .
251(16) . . .
248(16) . . .
252(16) . . .
282(17) . . .
261(16) . . .
261(16) . . .
246(16) . . .
247(16) . . .
266(16) . . .
266(16) . . .
243(16) . . .
266(16) . . .
256(16) . . .
249(16) . . .
253(16) . . .
299(17) . . .
250(16) . . .
265(16) . . .
283(17) . . .
255(16) . . .
273(17) . . .
255(16) . . .
251(16) . . .
253(16) . . .
266(16) . . .
272(16) . . .
245(16) . . .
260(16) . . .
277(17) . . .
296(17) . . .
256(16) . . .
258(16) . . .
288(17) . . .
283(17) . . .
234(15) . . .
277(17) . . .
281(17) . . .
292(17) . . .
263(16) . . .
277(17) . . .
250(16) . . .
250(16) . . .
276(17) . . .
276(17) . . .
268(16) . . .
269(16) . . .
275(17) . . .
283(17) . . .
253(16) . . .
278(17) . . .
292(17) . . .
270(16) . . .
250(16) . . .
284(17) . . .
292(17) . . .
311(18) . . .
303(17) . . .
268(16) . . .
287(17) . . .
291(17) . . .
285(17) . . .
287(17) . . .
291(17) . . .
301(17) . . .
309(18) . . .
286(17) . . .
276(17) . . .
278(17) . . .
260(16) . . .
259(16) . . .
286(17) . . .
270(16) . . .
265(16) . . .
280(17) . . .
276(17) . . .
268(16) . . .
259(16) . . .
267(16) . . .
276(17) . . .
289(17) . . .
265(16) . . .
281(17) . . .
290(17) . . .
288(17) . . .
289(17) . . .
267(16) . . .
313(18) . . .
282(17) . . .
275(17) . . .
270(16) . . .
275(17) . . .
286(17) . . .
263(16) . . .
297(17) . . .
269(16) . . .
279(17) . . .
306(17) . . .
276(17) . . .
277(17) . . .
267(16) . . .
261(16) . . .
265(16) . . .
258(16) . . .
283(17) . . .
284(17) . . .
259(16) . . .
264(16) . . .
244(16) . . .
264(16) . . .
277(17) . . .
304(17) . . .
276(17) . . .
269(16) . . .
257(16) . . .
243(16) . . .
257(16) . . .
265(16) . . .
279(17) . . .
283(17) . . .
281(17) . . .
316(18) . . .
264(16) . . .
255(16) . . .
278(17) . . .
278(17) . . .
264(16) . . .
276(17) . . .
257(16) . . .
250(16) . . .
274(17) . . .
297(17) . . .
258(16) . . .
262(16) . . .
266(16) . . .
279(17) . . .
260(16) . . .
253(16) . . .
265(16) . . .
245(16) . . .
284(17) . . .
262(16) . . .
255(16) . . .
248(16) . . .
275(17) . . .
282(17) . . .
270(16) . . .
278(17) . . .
287(17) . . .
258(16) . . .
273(17) . . .
277(17) . . .
258(16) . . .
235(15) . . .
266(16) . . .
301(17) . . .
271(16) . . .
274(17) . . .
276(17) . . .
248(16) . . .
247(16) . . .
244(16) . . .
254(16) . . .
266(16) . . .
273(17) . . .
275(17) . . .
264(16) . . .
278(17) . . .
254(16) . . .
273(17) . . .
241(16) . . .
277(17) . . .
259(16) . . .
283(17) . . .
283(17) . . .
280(17) . . .
276(17) . . .
277(17) . . .
278(17) . . .
278(17) . . .
273(17) . . .
278(17) . . .
289(17) . . .
284(17) . . .
264(16) . . .
275(17) . . .
278(17) . . .
258(16) . . .
268(16) . . .
270(16) . . .
236(15) . . .
257(16) . . .
265(16) . . .
261(16) . . .
248(16) . . .
255(16) . . .
304(17) . . .
242(16) . . .
250(16) . . .
259(16) . . .
277(17) . . .
263(16) . . .
265(16) . . .
246(16) . . .
262(16) . . .
249(16) . . .
264(16) . . .
228(15) . . .
260(16) . . .
295(17) . . .
288(17) . . .
249(16) . . .
260(16) . . .
285(17) . . .
240(15) . . .
282(17) . . .
280(17) . . .
274(17) . . .
281(17) . . .
269(16) . . .
257(16) . . .
264(16) . . .
257(16) . . .
279(17) . . .
254(16) . . .
273(17) . . .
267(16) . . .
225(15) . . .
275(17) . . .
255(16) . . .
269(16) . . .
258(16) . . .
254(16) . . .
248(16) . . .
279(17) . . .
285(17) . . .
273(17) . . .
252(16) . . .
275(17) . . .
259(16) . . .
258(16) . . .
276(17) . . .
252(16) . . .
247(16) . . .
246(16) . . .
253(16) . . .
280(17) . . .
239(15) . . .
275(17) . . .
226(15) . . .
245(16) . . .
251(16) . . .
269(16) . . .
257(16) . . .
252(16) . . .
242(16) . . .
255(16) . . .
257(16) . . .
264(16) . . .
261(16) . . .
267(16) . . .
229(15) . . .
250(16) . . .
264(16) . . .
265(16) . . .
265(16) . . .
260(16) . . .
273(17) . . .
266(16) . . .
256(16) . . .
285(17) . . .
227(15) . . .
257(16) . . .
293(17) . . .
260(16) . . .
268(16) . . .
266(16) . . .
245(16) . . .
261(16) . . .
240(15) . . .
264(16) . . .
266(16) . . .
268(16) . . .
240(15) . . .
271(16) . . .
259(16) . . .
277(17) . . .
240(15) . . .
249(16) . . .
266(16) . . .
241(16) . . .
269(16) . . .
248(16) . . .
272(16) . . .
261(16) . . .
229(15) . . .
258(16) . . .
258(16) . . .
249(16) . . .
231(15) . . .
251(16) . . .
271(16) . . .
284(17) . . .
262(16) . . .
281(17) . . .
248(16) . . .
282(17) . . .
275(17) . . .
268(16) . . .
278(17) . . .
240(15) . . .
268(16) . . .
240(15) . . .
243(16) . . .
248(16) . . .
264(16) . . .
284(17) . . .
270(16) . . .
281(17) . . .
276(17) . . .
273(17) . . .
261(16) . . .
282(17) . . .
282(17) . . .
248(16) . . .
282(17) . . .
267(16) . . .
230(15) . . .
270(16) . . .
274(17) . . .
266(16) . . .
261(16) . . .
266(16) . . .
248(16) . . .
255(16) . . .
252(16) . . .
264(16) . . .
245(16) . . .
258(16) . . .
275(17) . . .
273(17) . . .
270(16) . . .
273(17) . . .
262(16) . . .
264(16) . . .
254(16) . . .
245(16) . . .
265(16) . . .
264(16) . . .
272(16) . . .
291(17) . . .
270(16) . . .
287(17) . . .
272(16) . . .
255(16) . . .
277(17) . . .
281(17) . . .
269(16) . . .
267(16) . . .
225(15) . . .
251(16) . . .
265(16) . . .
265(16) . . .
261(16) . . .
247(16) . . .
253(16) . . .
258(16) . . .
250(16) . . .
263(16) . . .
257(16) . . .
259(16) . . .
257(16) . . .
259(16) . . .
237(15) . . .
264(16) . . .
258(16) . . .
257(16) . . .
264(16) . . .
293(17) . . .
257(16) . . .
272(16) . . .
258(16) . . .
251(16) . . .
255(16) . . .
247(16) . . .
257(16) . . .
278(17) . . .
245(16) . . .
266(16) . . .
255(16) . . .
280(17) . . .
280(17) . . .
256(16) . . .
254(16) . . .
258(16) . . .
258(16) . . .
252(16) . . .
263(16) . . .
272(16) . . .
249(16) . . .
274(17) . . .
268(16) . . .
255(16) . . .
279(17) . . .
292(17) . . .
275(17) . . .
269(16) . . .
277(17) . . .
278(17) . . .
261(16) . . .
256(16) . . .
251(16) . . .
285(17) . . .
250(16) . . .
276(17) . . .
283(17) . . .
292(17) . . .
289(17) . . .
277(17) . . .
245(16) . . .
259(16) . . .
285(17) . . .
256(16) . . .
276(17) . . .
278(17) . . .
272(16) . . .
271(16) . . .
278(17) . . .
272(16) . . .
296(17) . . .
274(17) . . .
251(16) . . .
301(17) . . .
260(16) . . .
275(17) . . .
261(16) . . .
262(16) . . .
251(16) . . .
286(17) . . .
249(16) . . .
278(17) . . .
271(16) . . .
246(16) . . .
283(17) . . .
266(16) . . .
290(17) . . .
276(17) . . .
282(17) . . .
257(16) . . .
278(17) . . .
274(17) . . .
278(17) . . .
303(17) . . .
266(16) . . .
233(15) . . .
256(16) . . .
295(17) . . .
272(16) . . .
290(17) . . .
288(17) . . .
279(17) . . .
282(17) . . .
263(16) . . .
287(17) . . .
268(16) . . .
281(17) . . .
276(17) . . .
276(17) . . .
284(17) . . .
269(16) . . .
278(17) . . .
265(16) . . .
271(16) . . .
270(16) . . .
267(16) . . .
310(18) . . .
279(17) . . .
275(17) . . .
261(16) . . .
254(16) . . .
289(17) . . .
246(16) . . .
263(16) . . .
291(17) . . .
278(17) . . .
273(17) . . .
289(17) . . .
290(17) . . .
266(16) . . .
286(17) . . .
252(16) . . .
308(18) . . .
305(17) . . .
279(17) . . .
289(17) . . .
275(17) . . .
291(17) . . .
299(17) . . .
281(17) . . .
271(16) . . .
286(17) . . .
279(17) . . .
273(17) . . .
290(17) . . .
282(17) . . .
279(17) . . .
268(16) . . .
288(17) . . .
286(17) . . .
273(17) . . .
296(17) . . .
283(17) . . .
292(17) . . .
298(17) . . .
282(17) . . .
294(17) . . .
286(17) . . .
269(16) . . .
255(16) . . .
302(17) . . .
249(16) . . .
259(16) . . .
289(17) . . .
282(17) . . .
254(16) . . .
283(17) . . .
294(17) . . .
290(17) . . .
281(17) . . .
293(17) . . .
304(17) . . .
315(18) . . .
276(17) . . .
271(16) . . .
292(17) . . .
265(16) . . .
291(17) . . .
287(17) . . .
280(17) . . .
290(17) . . .
270(16) . . .
280(17) . . .
292(17) . . .
280(17) . . .
293(17) . . .
278(17) . . .
283(17) . . .
283(17) . . .
287(17) . . .
269(16) . . .
279(17) . . .
283(17) . . .
275(17) . . .
283(17) . . .
295(17) . . .
299(17) . . .
296(17) . . .
281(17) . . .
294(17) . . .
300(17) . . .
296(17) . . .
289(17) . . .
314(18) . . .
317(18) . . .
308(18) . . .
291(17) . . .
325(18) . . .
308(18) . . .
323(18) . . .
325(18) . . .
287(17) . . .
287(17) . . .
304(17) . . .
307(18) . . .
311(18) . . .
286(17) . . .
303(17) . . .
314(18) . . .
300(17) . . .
307(18) . . .
298(17) . . .
330(18) . . .
298(17) . . .
298(17) . . .
305(17) . . .
324(18) . . .
329(18) . . .
321(18) . . .
299(17) . . .
302(17) . . .
328(18) . . .
300(17) . . .
310(18) . . .
304(17) . . .
297(17) . . .
325(18) . . .
357(19) . . .
343(19) . . .
309(18) . . .
320(18) . . .
343(19) . . .
358(19) . . .
323(18) . . .
324(18) . . .
336(18) . . .
346(19) . . .
355(19) . . .
341(18) . . .
340(18) . . .
340(18) . . .
327(18) . . .
353(19) . . .
369(19) . . .
358(19) . . .
349(19) . . .
357(19) . . .
383(20) . . .
335(18) . . .
361(19) . . .
404(20) . . .
362(19) . . .
340(18) . . .
380(19) . . .
388(20) . . .
396(20) . . .
361(19) . . .
364(19) . . .
375(19) . . .
379(19) . . .
389(20) . . .
387(20) . . .
382(20) . . .
423(21) . . .
393(20) . . .
432(21) . . .
424(21) . . .
437(21) . . .
445(21) . . .
470(22) . . .
461(21) . . .
495(22) . . .
484(22) . . .
495(22) . . .
509(23) . . .
576(24) . . .
551(23) . . .
557(24) . . .
577(24) . . .
574(24) . . .
582(24) . . .
668(26) . . .
691(26) . . .
732(27) . . .
782(28) . . .
780(28) . . .
805(28) . . .
850(29) . . .
882(30) . . .
948(31) . . .
961(31) . . .
1057(33) . . .
1108(33) . . .
1167(34) . . .
1303(36) . . .
1370(37) . . .
1477(38) . . .
1599(40) . . .
1714(41) . . .
1880(43) . . .
2193(47) . . .
2335(48) . . .
2471(50) . . .
2800(53) . . .
3004(55) . . .
3488(59) . . .
3782(61) . . .
4372(66) . . .
4874(70) . . .
5613(75) . . .
6460(80) . . .
7443(86) . . .
8623(93) . . .
9681(98) . . .
11390(110) . . .
12980(110) . . .
14470(120) . . .
15600(130) . . .
16840(130) . . .
17440(130) . . .
18070(130) . . .
18020(130) . . .
18060(130) . . .
17280(130) . . .
16160(130) . . .
14700(120) . . .
13460(120) . . .
11840(110) . . .
10170(100) . . .
8988(95) . . .
7633(87) . . .
6754(82) . . .
5752(76) . . .
5048(71) . . .
4329(66) . . .
3793(62) . . .
3417(58) . . .
3034(55) . . .
2650(51) . . .
2448(49) . . .
2205(47) . . .
2033(45) . . .
1768(42) . . .
1635(40) . . .
1447(38) . . .
1362(37) . . .
1337(37) . . .
1230(35) . . .
1172(34) . . .
1106(33) . . .
997(32) . . .
921(30) . . .
915(30) . . .
882(30) . . .
772(28) . . .
797(28) . . .
720(27) . . .
696(26) . . .
670(26) . . .
619(25) . . .
590(24) . . .
595(24) . . .
553(24) . . .
541(23) . . .
512(23) . . .
483(22) . . .
506(22) . . .
524(23) . . .
490(22) . . .
512(23) . . .
476(22) . . .
462(21) . . .
424(21) . . .
419(20) . . .
439(21) . . .
443(21) . . .
429(21) . . .
414(20) . . .
439(21) . . .
421(21) . . .
421(21) . . .
373(19) . . .
431(21) . . .
395(20) . . .
384(20) . . .
402(20) . . .
381(20) . . .
385(20) . . .
346(19) . . .
386(20) . . .
367(19) . . .
392(20) . . .
377(19) . . .
355(19) . . .
346(19) . . .
356(19) . . .
375(19) . . .
370(19) . . .
308(18) . . .
368(19) . . .
393(20) . . .
357(19) . . .
315(18) . . .
332(18) . . .
329(18) . . .
354(19) . . .
341(18) . . .
291(17) . . .
311(18) . . .
307(18) . . .
329(18) . . .
343(19) . . .
333(18) . . .
304(17) . . .
330(18) . . .
299(17) . . .
301(17) . . .
321(18) . . .
331(18) . . .
320(18) . . .
310(18) . . .
317(18) . . .
291(17) . . .
302(17) . . .
300(17) . . .
298(17) . . .
289(17) . . .
309(18) . . .
286(17) . . .
309(18) . . .
292(17) . . .
305(17) . . .
300(17) . . .
297(17) . . .
321(18) . . .
297(17) . . .
292(17) . . .
312(18) . . .
312(18) . . .
279(17) . . .
293(17) . . .
302(17) . . .
254(16) . . .
320(18) . . .
281(17) . . .
256(16) . . .
311(18) . . .
294(17) . . .
274(17) . . .
297(17) . . .
302(17) . . .
261(16) . . .
297(17) . . .
290(17) . . .
279(17) . . .
322(18) . . .
290(17) . . .
311(18) . . .
303(17) . . .
293(17) . . .
278(17) . . .
289(17) . . .
267(16) . . .
257(16) . . .
281(17) . . .
297(17) . . .
281(17) . . .
268(16) . . .
274(17) . . .
286(17) . . .
280(17) . . .
268(16) . . .
283(17) . . .
300(17) . . .
285(17) . . .
303(17) . . .
286(17) . . .
275(17) . . .
282(17) . . .
286(17) . . .
307(18) . . .
256(16) . . .
259(16) . . .
263(16) . . .
272(16) . . .
292(17) . . .
280(17) . . .
279(17) . . .
305(17) . . .
258(16) . . .
273(17) . . .
262(16) . . .
271(16) . . .
292(17) . . .
292(17) . . .
300(17) . . .
250(16) . . .
290(17) . . .
291(17) . . .
278(17) . . .
270(16) . . .
296(17) . . .
294(17) . . .
279(17) . . .
278(17) . . .
313(18) . . .
261(16) . . .
261(16) . . .
278(17) . . .
265(16) . . .
289(17) . . .
291(17) . . .
272(16) . . .
267(16) . . .
254(16) . . .
274(17) . . .
266(16) . . .
278(17) . . .
308(18) . . .
281(17) . . .
267(16) . . .
261(16) . . .
273(17) . . .
293(17) . . .
247(16) . . .
269(16) . . .
261(16) . . .
275(17) . . .
258(16) . . .
310(18) . . .
262(16) . . .
252(16) . . .
270(16) . . .
271(16) . . .
268(16) . . .
284(17) . . .
284(17) . . .
271(16) . . .
281(17) . . .
297(17) . . .
266(16) . . .
240(15) . . .
266(16) . . .
247(16) . . .
263(16) . . .
246(16) . . .
260(16) . . .
238(15) . . .
264(16) . . .
280(17) . . .
274(17) . . .
273(17) . . .
281(17) . . .
269(16) . . .
268(16) . . .
250(16) . . .
271(16) . . .
250(16) . . .
256(16) . . .
279(17) . . .
296(17) . . .
281(17) . . .
268(16) . . .
263(16) . . .
270(16) . . .
242(16) . . .
263(16) . . .
258(16) . . .
253(16) . . .
256(16) . . .
262(16) . . .
264(16) . . .
250(16) . . .
288(17) . . .
266(16) . . .
263(16) . . .
264(16) . . .
283(17) . . .
276(17) . . .
263(16) . . .
239(15) . . .
258(16) . . .
256(16) . . .
240(15) . . .
262(16) . . .
241(16) . . .
284(17) . . .
260(16) . . .
249(16) . . .
253(16) . . .
266(16) . . .
282(17) . . .
268(16) . . .
284(17) . . .
262(16) . . .
257(16) . . .
251(16) . . .
264(16) . . .
266(16) . . .
274(17) . . .
274(17) . . .
252(16) . . .
281(17) . . .
242(16) . . .
252(16) . . .
257(16) . . .
270(16) . . .
281(17) . . .
288(17) . . .
262(16) . . .
292(17) . . .
251(16) . . .
247(16) . . .
259(16) . . .
240(15) . . .
283(17) . . .
270(16) . . .
249(16) . . .
288(17) . . .
256(16) . . .
258(16) . . .
248(16) . . .
258(16) . . .
267(16) . . .
287(17) . . .
287(17) . . .
268(16) . . .
282(17) . . .
282(17) . . .
273(17) . . .
274(17) . . .
273(17) . . .
271(16) . . .
269(16) . . .
257(16) . . .
278(17) . . .
259(16) . . .
286(17) . . .
239(15) . . .
267(16) . . .
280(17) . . .
292(17) . . .
293(17) . . .
267(16) . . .
262(16) . . .
258(16) . . .
274(17) . . .
280(17) . . .
241(16) . . .
266(16) . . .
284(17) . . .
280(17) . . .
291(17) . . .
241(16) . . .
300(17) . . .
283(17) . . .
264(16) . . .
278(17) . . .
240(15) . . .
280(17) . . .
269(16) . . .
258(16) . . .
267(16) . . .
285(17) . . .
278(17) . . .
267(16) . . .
292(17) . . .
282(17) . . .
250(16) . . .
260(16) . . .
297(17) . . .
276(17) . . .
261(16) . . .
260(16) . . .
279(17) . . .
264(16) . . .
258(16) . . .
279(17) . . .
274(17) . . .
273(17) . . .
257(16) . . .
250(16) . . .
278(17) . . .
271(16) . . .
286(17) . . .
265(16) . . .
277(17) . . .
275(17) . . .
252(16) . . .
272(16) . . .
267(16) . . .
267(16) . . .
280(17) . . .
278(17) . . .
270(16) . . .
250(16) . . .
246(16) . . .
284(17) . . .
273(17) . . .
269(16) . . .
272(16) . . .
242(16) . . .
279(17) . . .
271(16) . . .
287(17) . . .
281(17) . . .
256(16) . . .
276(17) . . .
278(17) . . .
261(16) . . .
289(17) . . .
254(16) . . .
269(16) . . .
294(17) . . .
238(15) . . .
256(16) . . .
250(16) . . .
256(16) . . .
245(16) . . .
257(16) . . .
279(17) . . .
255(16) . . .
234(15) . . .
284(17) . . .
270(16) . . .
274(17) . . .
267(16) . . .
256(16) . . .
249(16) . . .
245(16) . . .
265(16) . . .
257(16) . . .
269(16) . . .
220(15) . . .
241(16) . . .
257(16) . . .
243(16) . . .
246(16) . . .
250(16) . . .
265(16) . . .
271(16) . . .
258(16) . . .
250(16) . . .
268(16) . . .
245(16) . . .
257(16) . . .
230(15) . . .
268(16) . . .
249(16) . . .
267(16) . . .
277(17) . . .
271(16) . . .
277(17) . . .
243(16) . . .
263(16) . . .
266(16) . . .
257(16) . . .
245(16) . . .
241(16) . . .
255(16) . . .
261(16) . . .
264(16) . . .
262(16) . . .
259(16) . . .
237(15) . . .
268(16) . . .
259(16) . . .
261(16) . . .
252(16) . . .
264(16) . . .
245(16) . . .
254(16) . . .
267(16) . . .
250(16) . . .
273(17) . . .
256(16) . . .
277(17) . . .
272(16) . . .
260(16) . . .
274(17) . . .
258(16) . . .
261(16) . . .
281(17) . . .
240(15) . . .
270(16) . . .
271(16) . . .
251(16) . . .
265(16) . . .
257(16) . . .
256(16) . . .
290(17) . . .
269(16) . . .
256(16) . . .
264(16) . . .
259(16) . . .
236(15) . . .
256(16) . . .
272(16) . . .
269(16) . . .
277(17) . . .
269(16) . . .
275(17) . . .
262(16) . . .
278(17) . . .
276(17) . . .
247(16) . . .
239(15) . . .
269(16) . . .
249(16) . . .
280(17) . . .
252(16) . . .
221(15) . . .
246(16) . . .
271(16) . . .
258(16) . . .
241(16) . . .
274(17) . . .
261(16) . . .
266(16) . . .
265(16) . . .
268(16) . . .
268(16) . . .
264(16) . . .
260(16) . . .
275(17) . . .
279(17) . . .
261(16) . . .
257(16) . . .
259(16) . . .
259(16) . . .
261(16) . . .
269(16) . . .
259(16) . . .
290(17) . . .
249(16) . . .
273(17) . . .
274(17) . . .
284(17) . . .
268(16) . . .
265(16) . . .
281(17) . . .
280(17) . . .
261(16) . . .
266(16) . . .
278(17) . . .
264(16) . . .
254(16) . . .
265(16) . . .
255(16) . . .
275(17) . . .
247(16) . . .
263(16) . . .
270(16) . . .
285(17) . . .
271(16) . . .
274(17) . . .
285(17) . . .
273(17) . . .
282(17) . . .
267(16) . . .
253(16) . . .
262(16) . . .
272(16) . . .
278(17) . . .
272(16) . . .
275(17) . . .
242(16) . . .
224(15) . . .
253(16) . . .
248(16) . . .
241(16) . . .
263(16) . . .
252(16) . . .
256(16) . . .
274(17) . . .
270(16) . . .
249(16) . . .
238(15) . . .
258(16) . . .
266(16) . . .
279(17) . . .
249(16) . . .
257(16) . . .
267(16) . . .
286(17) . . .
277(17) . . .
278(17) . . .
255(16) . . .
280(17) . . .
297(17) . . .
288(17) . . .
289(17) . . .
277(17) . . .
327(18) . . .
286(17) . . .
300(17) . . .
337(18) . . .
349(19) . . .
312(18) . . .
297(17) . . .
300(17) . . .
305(17) . . .
300(17) . . .
295(17) . . .
298(17) . . .
301(17) . . .
272(16) . . .
259(16) . . .
291(17) . . .
254(16) . . .
286(17) . . .
292(17) . . .
304(17) . . .
280(17) . . .
276(17) . . .
284(17) . . .
268(16) . . .
263(16) . . .
280(17) . . .
275(17) . . .
267(16) . . .
260(16) . . .
283(17) . . .
273(17) . . .
279(17) . . .
301(17) . . .
282(17) . . .
283(17) . . .
284(17) . . .
284(17) . . .
298(17) . . .
292(17) . . .
279(17) . . .
276(17) . . .
274(17) . . .
299(17) . . .
289(17) . . .
280(17) . . .
280(17) . . .
246(16) . . .
282(17) . . .
275(17) . . .
276(17) . . .
286(17) . . .
280(17) . . .
302(17) . . .
249(16) . . .
283(17) . . .
286(17) . . .
273(17) . . .
277(17) . . .
272(16) . . .
274(17) . . .
289(17) . . .
265(16) . . .
300(17) . . .
258(16) . . .
287(17) . . .
253(16) . . .
294(17) . . .
271(16) . . .
264(16) . . .
290(17) . . .
287(17) . . .
273(17) . . .
292(17) . . .
291(17) . . .
274(17) . . .
276(17) . . .
294(17) . . .
261(16) . . .
275(17) . . .
254(16) . . .
267(16) . . .
302(17) . . .
287(17) . . .
291(17) . . .
272(16) . . .
258(16) . . .
260(16) . . .
288(17) . . .
280(17) . . .
315(18) . . .
290(17) . . .
265(16) . . .
268(16) . . .
258(16) . . .
318(18) . . .
292(17) . . .
284(17) . . .
303(17) . . .
280(17) . . .
311(18) . . .
283(17) . . .
282(17) . . .
280(17) . . .
278(17) . . .
277(17) . . .
274(17) . . .
258(16) . . .
286(17) . . .
294(17) . . .
276(17) . . .
292(17) . . .
274(17) . . .
307(18) . . .
297(17) . . .
310(18) . . .
252(16) . . .
284(17) . . .
308(18) . . .
293(17) . . .
273(17) . . .
294(17) . . .
302(17) . . .
271(16) . . .
287(17) . . .
275(17) . . .
263(16) . . .
258(16) . . .
275(17) . . .
246(16) . . .
252(16) . . .
282(17) . . .
278(17) . . .
286(17) . . .
283(17) . . .
257(16) . . .
271(16) . . .
265(16) . . .
261(16) . . .
268(16) . . .
262(16) . . .
257(16) . . .
257(16) . . .
256(16) . . .
254(16) . . .
293(17) . . .
242(16) . . .
267(16) . . .
274(17) . . .
284(17) . . .
254(16) . . .
295(17) . . .
264(16) . . .
263(16) . . .
271(16) . . .
258(16) . . .
255(16) . . .
265(16) . . .
251(16) . . .
275(17) . . .
269(16) . . .
272(16) . . .
273(17) . . .
278(17) . . .
271(16) . . .
278(17) . . .
298(17) . . .
282(17) . . .
314(18) . . .
317(18) . . .
277(17) . . .
284(17) . . .
263(16) . . .
268(16) . . .
292(17) . . .
295(17) . . .
298(17) . . .
244(16) . . .
272(16) . . .
294(17) . . .
269(16) . . .
298(17) . . .
291(17) . . .
290(17) . . .
286(17) . . .
264(16) . . .
298(17) . . .
266(16) . . .
273(17) . . .
280(17) . . .
277(17) . . .
277(17) . . .
292(17) . . .
296(17) . . .
294(17) . . .
297(17) . . .
266(16) . . .
281(17) . . .
271(16) . . .
268(16) . . .
277(17) . . .
273(17) . . .
288(17) . . .
293(17) . . .
299(17) . . .
297(17) . . .
278(17) . . .
255(16) . . .
284(17) . . .
281(17) . . .
340(18) . . .
287(17) . . .
274(17) . . .
284(17) . . .
295(17) . . .
311(18) . . .
310(18) . . .
274(17) . . .
278(17) . . .
268(16) . . .
297(17) . . .
308(18) . . .
299(17) . . .
281(17) . . .
288(17) . . .
302(17) . . .
279(17) . . .
300(17) . . .
306(17) . . .
280(17) . . .
263(16) . . .
264(16) . . .
289(17) . . .
315(18) . . .
326(18) . . .
284(17) . . .
295(17) . . .
290(17) . . .
261(16) . . .
289(17) . . .
289(17) . . .
326(18) . . .
307(18) . . .
274(17) . . .
326(18) . . .
279(17) . . .
301(17) . . .
298(17) . . .
301(17) . . .
306(17) . . .
294(17) . . .
309(18) . . .
320(18) . . .
316(18) . . .
343(19) . . .
303(17) . . .
323(18) . . .
309(18) . . .
318(18) . . .
310(18) . . .
304(17) . . .
318(18) . . .
322(18) . . .
308(18) . . .
304(17) . . .
327(18) . . .
306(17) . . .
306(17) . . .
348(19) . . .
318(18) . . .
349(19) . . .
334(18) . . .
308(18) . . .
338(18) . . .
334(18) . . .
349(19) . . .
327(18) . . .
368(19) . . .
358(19) . . .
340(18) . . .
345(19) . . .
323(18) . . .
321(18) . . .
314(18) . . .
381(20) . . .
342(18) . . .
325(18) . . .
347(19) . . .
347(19) . . .
380(19) . . .
353(19) . . .
382(20) . . .
349(19) . . .
359(19) . . .
358(19) . . .
383(20) . . .
336(18) . . .
377(19) . . .
377(19) . . .
353(19) . . .
353(19) . . .
360(19) . . .
393(20) . . .
419(20) . . .
380(19) . . .
389(20) . . .
404(20) . . .
403(20) . . .
413(20) . . .
466(22) . . .
409(20) . . .
450(21) . . .
407(20) . . .
444(21) . . .
429(21) . . .
457(21) . . .
459(21) . . .
447(21) . . .
498(22) . . .
442(21) . . .
503(22) . . .
486(22) . . .
550(23) . . .
560(24) . . .
564(24) . . .
560(24) . . .
575(24) . . .
584(24) . . .
569(24) . . .
632(25) . . .
646(25) . . .
649(25) . . .
697(26) . . .
756(27) . . .
746(27) . . .
790(28) . . .
791(28) . . .
820(29) . . .
917(30) . . .
923(30) . . .
968(31) . . .
973(31) . . .
1051(32) . . .
1188(34) . . .
1179(34) . . .
1299(36) . . .
1386(37) . . .
1499(39) . . .
1546(39) . . .
1629(40) . . .
1783(42) . . .
1849(43) . . .
2115(46) . . .
2249(47) . . .
2477(50) . . .
2624(51) . . .
2928(54) . . .
3234(57) . . .
3665(61) . . .
4220(65) . . .
4627(68) . . .
5207(72) . . .
5938(77) . . .
6878(83) . . .
7723(88) . . .
9096(95) . . .
10120(100) . . .
11850(110) . . .
13330(120) . . .
15160(120) . . .
16380(130) . . .
18210(140) . . .
19340(140) . . .
20200(140) . . .
20830(140) . . .
20770(140) . . .
20280(140) . . .
19610(140) . . .
18460(140) . . .
17000(130) . . .
15150(120) . . .
13460(120) . . .
11810(110) . . .
10560(100) . . .
9119(95) . . .
8019(90) . . .
6828(83) . . .
6033(78) . . .
5327(73) . . .
4741(69) . . .
4261(65) . . .
3826(62) . . .
3292(57) . . .
2996(55) . . .
2716(52) . . .
2542(50) . . .
2316(48) . . .
2018(45) . . .
1911(44) . . .
1757(42) . . .
1637(40) . . .
1517(39) . . .
1345(37) . . .
1304(36) . . .
1197(35) . . .
1201(35) . . .
1043(32) . . .
1117(33) . . .
973(31) . . .
921(30) . . .
859(29) . . .
873(30) . . .
799(28) . . .
785(28) . . .
789(28) . . .
712(27) . . .
663(26) . . .
678(26) . . .
619(25) . . .
637(25) . . .
620(25) . . .
603(25) . . .
569(24) . . .
528(23) . . .
516(23) . . .
497(22) . . .
521(23) . . .
502(22) . . .
526(23) . . .
475(22) . . .
447(21) . . .
463(22) . . .
484(22) . . .
428(21) . . .
459(21) . . .
443(21) . . .
467(22) . . .
437(21) . . .
441(21) . . .
432(21) . . .
422(21) . . .
396(20) . . .
395(20) . . .
376(19) . . .
402(20) . . .
361(19) . . .
364(19) . . .
380(19) . . .
375(19) . . .
394(20) . . .
362(19) . . .
369(19) . . .
349(19) . . .
352(19) . . .
337(18) . . .
354(19) . . .
345(19) . . .
321(18) . . .
357(19) . . .
372(19) . . .
345(19) . . .
337(18) . . .
328(18) . . .
337(18) . . .
325(18) . . .
365(19) . . .
342(18) . . .
310(18) . . .
318(18) . . .
332(18) . . .
343(19) . . .
318(18) . . .
334(18) . . .
328(18) . . .
322(18) . . .
335(18) . . .
308(18) . . .
336(18) . . .
324(18) . . .
326(18) . . .
321(18) . . .
326(18) . . .
315(18) . . .
287(17) . . .
294(17) . . .
300(17) . . .
307(18) . . .
307(18) . . .
313(18) . . .
305(17) . . .
286(17) . . .
304(17) . . .
295(17) . . .
279(17) . . .
282(17) . . .
275(17) . . .
305(17) . . .
291(17) . . .
297(17) . . .
287(17) . . .
277(17) . . .
315(18) . . .
296(17) . . .
274(17) . . .
310(18) . . .
283(17) . . .
283(17) . . .
264(16) . . .
285(17) . . .
257(16) . . .
276(17) . . .
298(17) . . .
276(17) . . .
273(17) . . .
273(17) . . .
293(17) . . .
303(17) . . .
291(17) . . .
275(17) . . .
297(17) . . .
283(17) . . .
303(17) . . .
285(17) . . .
287(17) . . .
286(17) . . .
303(17) . . .
314(18) . . .
281(17) . . .
254(16) . . .
309(18) . . .
270(16) . . .
307(18) . . .
281(17) . . .
291(17) . . .
294(17) . . .
275(17) . . .
272(16) . . .
303(17) . . .
284(17) . . .
294(17) . . .
312(18) . . .
291(17) . . .
280(17) . . .
263(16) . . .
275(17) . . .
292(17) . . .
291(17) . . .
288(17) . . .
286(17) . . .
278(17) . . .
285(17) . . .
290(17) . . .
299(17) . . .
288(17) . . .
267(16) . . .
294(17) . . .
297(17) . . .
274(17) . . .
295(17) . . .
303(17) . . .
279(17) . . .
278(17) . . .
277(17) . . .
288(17) . . .
269(16) . . .
276(17) . . .
268(16) . . .
280(17) . . .
278(17) . . .
304(17) . . .
304(17) . . .
276(17) . . .
267(16) . . .
283(17) . . .
289(17) . . .
282(17) . . .
279(17) . . .
273(17) . . .
277(17) . . .
301(17) . . .
277(17) . . .
266(16) . . .
273(17) . . .
291(17) . . .
296(17) . . .
270(16) . . .
290(17) . . .
277(17) . . .
301(17) . . .
302(17) . . .
263(16) . . .
291(17) . . .
279(17) . . .
254(16) . . .
280(17) . . .
300(17) . . .
319(18) . . .
271(16) . . .
289(17) . . .
273(17) . . .
316(18) . . .
306(17) . . .
307(18) . . .
269(16) . . .
299(17) . . .
305(17) . . .
307(18) . . .
321(18) . . .
303(17) . . .
292(17) . . .
316(18) . . .
302(17) . . .
287(17) . . .
295(17) . . .
321(18) . . .
338(18) . . .
313(18) . . .
321(18) . . .
289(17) . . .
337(18) . . .
322(18) . . .
321(18) . . .
301(17) . . .
303(17) . . .
329(18) . . .
317(18) . . .
311(18) . . .
314(18) . . .
379(19) . . .
342(18) . . .
350(19) . . .
329(18) . . .
348(19) . . .
362(19) . . .
341(18) . . .
361(19) . . .
387(20) . . .
364(19) . . .
375(19) . . .
394(20) . . .
389(20) . . .
426(21) . . .
405(20) . . .
434(21) . . .
437(21) . . .
456(21) . . .
422(21) . . .
472(22) . . .
522(23) . . .
443(21) . . .
519(23) . . .
551(23) . . .
544(23) . . .
575(24) . . .
575(24) . . .
597(24) . . .
648(25) . . .
673(26) . . .
734(27) . . .
781(28) . . .
805(28) . . .
861(29) . . .
953(31) . . .
961(31) . . .
1052(32) . . .
1131(34) . . .
1186(34) . . .
1323(36) . . .
1436(38) . . .
1664(41) . . .
1741(42) . . .
1926(44) . . .
2114(46) . . .
2460(50) . . .
2656(52) . . .
2998(55) . . .
3458(59) . . .
3860(62) . . .
4327(66) . . .
5121(72) . . .
5561(75) . . .
6305(79) . . .
7049(84) . . .
7678(88) . . .
8022(90) . . .
8473(92) . . .
8695(93) . . .
8982(95) . . .
8789(94) . . .
8524(92) . . .
8143(90) . . .
7482(86) . . .
6852(83) . . .
6071(78) . . .
5360(73) . . .
4742(69) . . .
4152(64) . . .
3673(61) . . .
3181(56) . . .
2756(52) . . .
2548(50) . . .
2267(48) . . .
2035(45) . . .
1753(42) . . .
1626(40) . . .
1462(38) . . .
1297(36) . . .
1157(34) . . .
1141(34) . . .
1037(32) . . .
980(31) . . .
869(29) . . .
834(29) . . .
804(28) . . .
795(28) . . .
705(27) . . .
655(26) . . .
666(26) . . .
631(25) . . .
586(24) . . .
584(24) . . .
502(22) . . .
522(23) . . .
474(22) . . .
448(21) . . .
463(22) . . .
435(21) . . .
438(21) . . .
454(21) . . .
413(20) . . .
390(20) . . .
435(21) . . .
409(20) . . .
381(20) . . .
364(19) . . .
362(19) . . .
361(19) . . .
358(19) . . .
335(18) . . .
352(19) . . .
346(19) . . .
373(19) . . .
341(18) . . .
342(18) . . .
306(17) . . .
345(19) . . .
336(18) . . .
353(19) . . .
320(18) . . .
314(18) . . .
308(18) . . .
282(17) . . .
320(18) . . .
318(18) . . .
317(18) . . .
293(17) . . .
315(18) . . .
304(17) . . .
304(17) . . .
287(17) . . .
281(17) . . .
312(18) . . .
290(17) . . .
289(17) . . .
259(16) . . .
287(17) . . .
303(17) . . .
311(18) . . .
287(17) . . .
273(17) . . .
301(17) . . .
275(17) . . .
280(17) . . .
289(17) . . .
276(17) . . .
287(17) . . .
287(17) . . .
270(16) . . .
294(17) . . .
281(17) . . .
283(17) . . .
283(17) . . .
266(16) . . .
274(17) . . .
240(15) . . .
242(16) . . .
246(16) . . .
295(17) . . .
270(16) . . .
257(16) . . .
265(16) . . .
286(17) . . .
271(16) . . .
285(17) . . .
259(16) . . .
275(17) . . .
259(16) . . .
264(16) . . .
278(17) . . .
256(16) . . .
275(17) . . .
279(17) . . .
263(16) . . .
247(16) . . .
254(16) . . .
256(16) . . .
246(16) . . .
249(16) . . .
260(16) . . .
279(17) . . .
246(16) . . .
252(16) . . .
270(16) . . .
240(15) . . .
247(16) . . .
275(17) . . .
261(16) . . .
238(15) . . .
257(16) . . .
248(16) . . .
265(16) . . .
252(16) . . .
235(15) . . .
274(17) . . .
241(16) . . .
232(15) . . .
236(15) . . .
268(16) . . .
239(15) . . .
278(17) . . .
248(16) . . .
253(16) . . .
256(16) . . .
223(15) . . .
253(16) . . .
253(16) . . .
252(16) . . .
261(16) . . .
261(16) . . .
252(16) . . .
258(16) . . .
223(15) . . .
263(16) . . .
278(17) . . .
234(15) . . .
250(16) . . .
250(16) . . .
256(16) . . .
260(16) . . .
268(16) . . .
244(16) . . .
255(16) . . .
246(16) . . .
237(15) . . .
231(15) . . .
228(15) . . .
261(16) . . .
244(16) . . .
261(16) . . .
233(15) . . .
238(15) . . .
259(16) . . .
225(15) . . .
231(15) . . .
234(15) . . .
244(16) . . .
270(16) . . .
231(15) . . .
236(15) . . .
247(16) . . .
231(15) . . .
241(16) . . .
238(15) . . .
232(15) . . .
230(15) . . .
242(16) . . .
267(16) . . .
243(16) . . .
235(15) . . .
261(16) . . .
265(16) . . .
242(16) . . .
262(16) . . .
245(16) . . .
233(15) . . .
233(15) . . .
236(15) . . .
224(15) . . .
233(15) . . .
237(15) . . .
264(16) . . .
248(16) . . .
228(15) . . .
223(15) . . .
243(16) . . .
253(16) . . .
242(16) . . .
267(16) . . .
252(16) . . .
236(15) . . .
267(16) . . .
237(15) . . .
230(15) . . .
254(16) . . .
220(15) . . .
271(16) . . .
250(16) . . .
210(14) . . .
239(15) . . .
244(16) . . .
248(16) . . .
235(15) . . .
248(16) . . .
230(15) . . .
235(15) . . .
233(15) . . .
236(15) . . .
229(15) . . .
233(15) . . .
215(15) . . .
233(15) . . .
242(16) . . .
250(16) . . .
240(15) . . .
250(16) . . .
231(15) . . .
238(15) . . .
233(15) . . .
251(16) . . .
259(16) . . .
238(15) . . .
213(15) . . .
264(16) . . .
228(15) . . .
230(15) . . .
244(16) . . .
224(15) . . .
239(15) . . .
234(15) . . .
228(15) . . .
257(16) . . .
230(15) . . .
231(15) . . .
247(16) . . .
212(15) . . .
229(15) . . .
228(15) . . .
217(15) . . .
244(16) . . .
251(16) . . .
221(15) . . .
250(16) . . .
233(15) . . .
213(15) . . .
257(16) . . .
233(15) . . .
228(15) . . .
216(15) . . .
213(15) . . .
238(15) . . .
235(15) . . .
222(15) . . .
240(15) . . .
234(15) . . .
228(15) . . .
237(15) . . .
232(15) . . .
210(14) . . .
217(15) . . .
241(16) . . .
268(16) . . .
264(16) . . .
216(15) . . .
243(16) . . .
253(16) . . .
228(15) . . .
235(15) . . .
224(15) . . .
254(16) . . .
240(15) . . .
228(15) . . .
233(15) . . .
204(14) . . .
241(16) . . .
226(15) . . .
236(15) . . .
231(15) . . .
235(15) . . .
236(15) . . .
219(15) . . .
226(15) . . .
232(15) . . .
228(15) . . .
231(15) . . .
232(15) . . .
226(15) . . .
226(15) . . .
236(15) . . .
229(15) . . .
232(15) . . .
239(15) . . .
240(15) . . .
232(15) . . .
243(16) . . .
256(16) . . .
208(14) . . .
215(15) . . .
236(15) . . .
236(15) . . .
245(16) . . .
233(15) . . .
246(16) . . .
235(15) . . .
242(16) . . .
232(15) . . .
242(16) . . .
214(15) . . .
221(15) . . .
234(15) . . .
229(15) . . .
234(15) . . .
227(15) . . .
227(15) . . .
241(16) . . .
244(16) . . .
232(15) . . .
231(15) . . .
261(16) . . .
202(14) . . .
233(15) . . .
226(15) . . .
249(16) . . .
218(15) . . .
218(15) . . .
204(14) . . .
242(16) . . .
233(15) . . .
225(15) . . .
221(15) . . .
238(15) . . .
218(15) . . .
228(15) . . .
204(14) . . .
234(15) . . .
220(15) . . .
228(15) . . .
231(15) . . .
233(15) . . .
222(15) . . .
223(15) . . .
232(15) . . .
223(15) . . .
230(15) . . .
239(15) . . .
229(15) . . .
216(15) . . .
217(15) . . .
233(15) . . .
237(15) . . .
236(15) . . .
234(15) . . .
226(15) . . .
223(15) . . .
211(15) . . .
226(15) . . .
247(16) . . .
239(15) . . .
207(14) . . .
216(15) . . .
256(16) . . .
255(16) . . .
214(15) . . .
230(15) . . .
226(15) . . .
227(15) . . .
237(15) . . .
238(15) . . .
216(15) . . .
233(15) . . .
245(16) . . .
220(15) . . .
226(15) . . .
222(15) . . .
238(15) . . .
220(15) . . .
239(15) . . .
203(14) . . .
222(15) . . .
229(15) . . .
226(15) . . .
227(15) . . .
207(14) . . .
211(15) . . .
231(15) . . .
236(15) . . .
215(15) . . .
214(15) . . .
257(16) . . .
228(15) . . .
222(15) . . .
224(15) . . .
250(16) . . .
235(15) . . .
204(14) . . .
224(15) . . .
207(14) . . .
225(15) . . .
227(15) . . .
231(15) . . .
243(16) . . .
219(15) . . .
217(15) . . .
232(15) . . .
221(15) . . .
227(15) . . .
221(15) . . .
226(15) . . .
195(14) . . .
220(15) . . .
246(16) . . .
237(15) . . .
229(15) . . .
233(15) . . .
239(15) . . .
222(15) . . .
233(15) . . .
230(15) . . .
213(15) . . .
234(15) . . .
213(15) . . .
206(14) . . .
234(15) . . .
216(15) . . .
246(16) . . .
232(15) . . .
198(14) . . .
238(15) . . .
208(14) . . .
234(15) . . .
223(15) . . .
193(14) . . .
212(15) . . .
212(15) . . .
220(15) . . .
221(15) . . .
218(15) . . .
229(15) . . .
198(14) . . .
221(15) . . .
210(14) . . .
197(14) . . .
202(14) . . .
231(15) . . .
206(14) . . .
242(16) . . .
212(15) . . .
231(15) . . .
214(15) . . .
221(15) . . .
206(14) . . .
203(14) . . .
231(15) . . .
212(15) . . .
235(15) . . .
229(15) . . .
213(15) . . .
204(14) . . .
200(14) . . .
220(15) . . .
232(15) . . .
215(15) . . .
217(15) . . .
205(14) . . .
213(15) . . .
219(15) . . .
223(15) . . .
214(15) . . .
208(14) . . .
247(16) . . .
221(15) . . .
225(15) . . .
220(15) . . .
193(14) . . .
227(15) . . .
240(15) . . .
226(15) . . .
217(15) . . .
235(15) . . .
221(15) . . .
233(15) . . .
224(15) . . .
216(15) . . .
205(14) . . .
209(14) . . .
204(14) . . .
236(15) . . .
229(15) . . .
204(14) . . .
199(14) . . .
222(15) . . .
235(15) . . .
213(15) . . .
214(15) . . .
224(15) . . .
197(14) . . .
204(14) . . .
232(15) . . .
212(15) . . .
187(14) . . .
228(15) . . .
207(14) . . .
198(14) . . .
203(14) . . .
249(16) . . .
217(15) . . .
213(15) . . .
215(15) . . .
206(14) . . .
204(14) . . .
214(15) . . .
223(15) . . .
200(14) . . .
218(15) . . .
213(15) . . .
215(15) . . .
225(15) . . .
234(15) . . .
224(15) . . .
215(15) . . .
212(15) . . .
239(15) . . .
209(14) . . .
207(14) . . .
217(15) . . .
220(15) . . .
221(15) . . .
209(14) . . .
238(15) . . .
221(15) . . .
226(15) . . .
237(15) . . .
223(15) . . .
217(15) . . .
211(15) . . .
206(14) . . .
224(15) . . .
203(14) . . .
231(15) . . .
201(14) . . .
206(14) . . .
206(14) . . .
224(15) . . .
215(15) . . .
204(14) . . .
233(15) . . .
238(15) . . .
218(15) . . .
206(14) . . .
229(15) . . .
207(14) . . .
201(14) . . .
210(14) . . .
219(15) . . .
228(15) . . .
231(15) . . .
205(14) . . .
239(15) . . .
215(15) . . .
196(14) . . .
205(14) . . .
228(15) . . .
205(14) . . .
242(16) . . .
224(15) . . .
219(15) . . .
210(14) . . .
213(15) . . .
221(15) . . .
190(14) . . .
207(14) . . .
228(15) . . .
210(14) . . .
219(15) . . .
214(15) . . .
234(15) . . .
244(16) . . .
238(15) . . .
236(15) . . .
227(15) . . .
235(15) . . .
221(15) . . .
224(15) . . .
213(15) . . .
220(15) . . .
203(14) . . .
197(14) . . .
241(16) . . .
223(15) . . .
201(14) . . .
224(15) . . .
234(15) . . .
224(15) . . .
211(15) . . .
218(15) . . .
210(14) . . .
235(15) . . .
238(15) . . .
222(15) . . .
210(14) . . .
199(14) . . .
210(14) . . .
220(15) . . .
229(15) . . .
227(15) . . .
191(14) . . .
216(15) . . .
220(15) . . .
212(15) . . .
204(14) . . .
202(14) . . .
221(15) . . .
217(15) . . .
232(15) . . .
232(15) . . .
224(15) . . .
232(15) . . .
207(14) . . .
216(15) . . .
226(15) . . .
234(15) . . .
216(15) . . .
201(14) . . .
231(15) . . .
239(15) . . .
236(15) . . .
205(14) . . .
263(16) . . .
217(15) . . .
191(14) . . .
212(15) . . .
224(15) . . .
214(15) . . .
239(15) . . .
241(16) . . .
231(15) . . .
218(15) . . .
232(15) . . .
203(14) . . .
220(15) . . .
224(15) . . .
228(15) . . .
212(15) . . .
217(15) . . .
205(14) . . .
217(15) . . .
231(15) . . .
221(15) . . .
218(15) . . .
224(15) . . .
231(15) . . .
232(15) . . .
209(14) . . .
213(15) . . .
223(15) . . .
243(16) . . .
234(15) . . .
255(16) . . .
217(15) . . .
246(16) . . .
215(15) . . .
244(16) . . .
210(14) . . .
234(15) . . .
222(15) . . .
217(15) . . .
218(15) . . .
198(14) . . .
230(15) . . .
228(15) . . .
216(15) . . .
244(16) . . .
225(15) . . .
221(15) . . .
215(15) . . .
245(16) . . .
224(15) . . .
235(15) . . .
236(15) . . .
229(15) . . .
226(15) . . .
252(16) . . .
227(15) . . .
231(15) . . .
211(15) . . .
234(15) . . .
249(16) . . .
201(14) . . .
228(15) . . .
240(15) . . .
208(14) . . .
230(15) . . .
224(15) . . .
234(15) . . .
237(15) . . .
228(15) . . .
234(15) . . .
219(15) . . .
234(15) . . .
180(13) . . .
233(15) . . .
220(15) . . .
226(15) . . .
228(15) . . .
215(15) . . .
237(15) . . .
239(15) . . .
237(15) . . .
239(15) . . .
258(16) . . .
239(15) . . .
195(14) . . .
221(15) . . .
201(14) . . .
217(15) . . .
246(16) . . .
235(15) . . .
233(15) . . .
229(15) . . .
226(15) . . .
211(15) . . .
209(14) . . .
211(15) . . .
203(14) . . .
205(14) . . .
201(14) . . .
211(15) . . .
235(15) . . .
223(15) . . .
207(14) . . .
211(15) . . .
218(15) . . .
253(16) . . .
216(15) . . .
228(15) . . .
219(15) . . .
238(15) . . .
234(15) . . .
233(15) . . .
203(14) . . .
233(15) . . .
222(15) . . .
232(15) . . .
237(15) . . .
228(15) . . .
199(14) . . .
204(14) . . .
204(14) . . .
215(15) . . .
189(14) . . .
242(16) . . .
211(15) . . .
216(15) . . .
221(15) . . .
241(16) . . .
218(15) . . .
231(15) . . .
217(15) . . .
227(15) . . .
223(15) . . .
211(15) . . .
208(14) . . .
213(15) . . .
214(15) . . .
216(15) . . .
234(15) . . .
233(15) . . .
217(15) . . .
216(15) . . .
216(15) . . .
216(15) . . .
247(16) . . .
210(14) . . .
222(15) . . .
201(14) . . .
229(15) . . .
231(15) . . .
226(15) . . .
216(15) . . .
222(15) . . .
236(15) . . .
195(14) . . .
222(15) . . .
216(15) . . .
222(15) . . .
213(15) . . .
234(15) . . .
231(15) . . .
211(15) . . .
239(15) . . .
208(14) . . .
235(15) . . .
246(16) . . .
238(15) . . .
233(15) . . .
251(16) . . .
238(15) . . .
228(15) . . .
230(15) . . .
229(15) . . .
235(15) . . .
248(16) . . .
247(16) . . .
231(15) . . .
237(15) . . .
215(15) . . .
218(15) . . .
235(15) . . .
248(16) . . .
239(15) . . .
216(15) . . .
229(15) . . .
222(15) . . .
241(16) . . .
241(16) . . .
247(16) . . .
233(15) . . .
240(15) . . .
226(15) . . .
231(15) . . .
231(15) . . .
247(16) . . .
214(15) . . .
217(15) . . .
217(15) . . .
222(15) . . .
237(15) . . .
232(15) . . .
240(15) . . .
237(15) . . .
219(15) . . .
225(15) . . .
238(15) . . .
206(14) . . .
235(15) . . .
206(14) . . .
208(14) . . .
243(16) . . .
234(15) . . .
185(14) . . .
221(15) . . .
224(15) . . .
229(15) . . .
236(15) . . .
222(15) . . .
212(15) . . .
244(16) . . .
210(14) . . .
228(15) . . .
202(14) . . .
209(14) . . .
229(15) . . .
233(15) . . .
242(16) . . .
243(16) . . .
217(15) . . .
240(15) . . .
224(15) . . .
209(14) . . .
250(16) . . .
237(15) . . .
242(16) . . .
219(15) . . .
219(15) . . .
215(15) . . .
213(15) . . .
214(15) . . .
225(15) . . .
226(15) . . .
230(15) . . .
216(15) . . .
235(15) . . .
237(15) . . .
225(15) . . .
220(15) . . .
225(15) . . .
235(15) . . .
230(15) . . .
219(15) . . .
221(15) . . .
215(15) . . .
219(15) . . .
213(15) . . .
209(14) . . .
238(15) . . .
237(15) . . .
220(15) . . .
217(15) . . .
232(15) . . .
219(15) . . .
267(16) . . .
232(15) . . .
223(15) . . .
237(15) . . .
215(15) . . .
217(15) . . .
223(15) . . .
236(15) . . .
205(14) . . .
224(15) . . .
231(15) . . .
211(15) . . .
221(15) . . .
231(15) . . .
213(15) . . .
221(15) . . .
221(15) . . .
195(14) . . .
222(15) . . .
228(15) . . .
221(15) . . .
208(14) . . .
210(14) . . .
221(15) . . .
232(15) . . .
244(16) . . .
217(15) . . .
231(15) . . .
197(14) . . .
212(15) . . .
227(15) . . .
229(15) . . .
214(15) . . .
211(15) . . .
233(15) . . .
221(15) . . .
214(15) . . .
222(15) . . .
212(15) . . .
219(15) . . .
195(14) . . .
207(14) . . .
220(15) . . .
234(15) . . .
236(15) . . .
251(16) . . .
219(15) . . .
232(15) . . .
236(15) . . .
186(14) . . .
207(14) . . .
214(15) . . .
239(15) . . .
254(16) . . .
242(16) . . .
220(15) . . .
205(14) . . .
226(15) . . .
210(14) . . .
214(15) . . .
218(15) . . .
235(15) . . .
225(15) . . .
212(15) . . .
240(15) . . .
240(15) . . .
201(14) . . .
214(15) . . .
237(15) . . .
228(15) . . .
237(15) . . .
207(14) . . .
254(16) . . .
247(16) . . .
213(15) . . .
228(15) . . .
213(15) . . .
222(15) . . .
217(15) . . .
202(14) . . .
234(15) . . .
205(14) . . .
220(15) . . .
233(15) . . .
217(15) . . .
247(16) . . .
247(16) . . .
213(15) . . .
226(15) . . .
225(15) . . .
208(14) . . .
248(16) . . .
221(15) . . .
217(15) . . .
228(15) . . .
222(15) . . .
235(15) . . .
215(15) . . .
228(15) . . .
235(15) . . .
229(15) . . .
237(15) . . .
229(15) . . .
215(15) . . .
234(15) . . .
229(15) . . .
208(14) . . .
206(14) . . .
207(14) . . .
234(15) . . .
227(15) . . .
237(15) . . .
223(15) . . .
233(15) . . .
244(16) . . .
186(14) . . .
192(14) . . .
228(15) . . .
236(15) . . .
244(16) . . .
243(16) . . .
236(15) . . .
220(15) . . .
219(15) . . .
236(15) . . .
233(15) . . .
226(15) . . .
205(14) . . .
208(14) . . .
223(15) . . .
222(15) . . .
223(15) . . .
211(15) . . .
216(15) . . .
230(15) . . .
213(15) . . .
212(15) . . .
234(15) . . .
228(15) . . .
233(15) . . .
206(14) . . .
221(15) . . .
219(15) . . .
242(16) . . .
221(15) . . .
215(15) . . .
226(15) . . .
231(15) . . .
218(15) . . .
234(15) . . .
223(15) . . .
191(14) . . .
226(15) . . .
241(16) . . .
228(15) . . .
238(15) . . .
234(15) . . .
190(14) . . .
197(14) . . .
214(15) . . .
247(16) . . .
206(14) . . .
232(15) . . .
213(15) . . .
218(15) . . .
207(14) . . .
237(15) . . .
207(14) . . .
226(15) . . .
210(14) . . .
229(15) . . .
222(15) . . .
225(15) . . .
238(15) . . .
218(15) . . .
231(15) . . .
229(15) . . .
223(15) . . .
236(15) . . .
208(14) . . .
203(14) . . .
241(16) . . .
235(15) . . .
217(15) . . .
232(15) . . .
237(15) . . .
226(15) . . .
254(16) . . .
204(14) . . .
232(15) . . .
221(15) . . .
204(14) . . .
205(14) . . .
228(15) . . .
234(15) . . .
243(16) . . .
258(16) . . .
235(15) . . .
246(16) . . .
209(14) . . .
212(15) . . .
227(15) . . .
225(15) . . .
213(15) . . .
247(16) . . .
224(15) . . .
237(15) . . .
223(15) . . .
249(16) . . .
223(15) . . .
227(15) . . .
231(15) . . .
244(16) . . .
236(15) . . .
250(16) . . .
243(16) . . .
246(16) . . .
237(15) . . .
253(16) . . .
238(15) . . .
226(15) . . .
250(16) . . .
254(16) . . .
258(16) . . .
241(16) . . .
251(16) . . .
224(15) . . .
240(15) . . .
268(16) . . .
274(17) . . .
278(17) . . .
251(16) . . .
239(15) . . .
273(17) . . .
264(16) . . .
243(16) . . .
260(16) . . .
236(15) . . .
247(16) . . .
262(16) . . .
265(16) . . .
258(16) . . .
245(16) . . .
232(15) . . .
251(16) . . .
249(16) . . .
248(16) . . .
277(17) . . .
275(17) . . .
285(17) . . .
270(16) . . .
283(17) . . .
265(16) . . .
285(17) . . .
279(17) . . .
294(17) . . .
293(17) . . .
294(17) . . .
318(18) . . .
303(17) . . .
280(17) . . .
283(17) . . .
286(17) . . .
319(18) . . .
335(18) . . .
303(17) . . .
315(18) . . .
356(19) . . .
339(18) . . .
334(18) . . .
374(19) . . .
352(19) . . .
350(19) . . .
391(20) . . .
373(19) . . .
380(19) . . .
393(20) . . .
413(20) . . .
398(20) . . .
403(20) . . .
433(21) . . .
478(22) . . .
472(22) . . .
467(22) . . .
492(22) . . .
487(22) . . .
540(23) . . .
567(24) . . .
609(25) . . .
633(25) . . .
696(26) . . .
713(27) . . .
760(28) . . .
800(28) . . .
901(30) . . .
933(31) . . .
1023(32) . . .
1109(33) . . .
1248(35) . . .
1253(35) . . .
1425(38) . . .
1628(40) . . .
1675(41) . . .
1923(44) . . .
2178(47) . . .
2400(49) . . .
2796(53) . . .
3047(55) . . .
3613(60) . . .
4008(63) . . .
4608(68) . . .
5057(71) . . .
5656(75) . . .
6190(79) . . .
6511(81) . . .
6812(83) . . .
7069(84) . . .
7255(85) . . .
7151(85) . . .
7065(84) . . .
6830(83) . . .
6441(80) . . .
5909(77) . . .
5385(73) . . .
5047(71) . . .
4562(68) . . .
3873(62) . . .
3439(59) . . .
3002(55) . . .
2698(52) . . .
2322(48) . . .
2070(45) . . .
1805(42) . . .
1629(40) . . .
1490(39) . . .
1379(37) . . .
1255(35) . . .
1162(34) . . .
1077(33) . . .
985(31) . . .
941(31) . . .
811(28) . . .
806(28) . . .
742(27) . . .
687(26) . . .
623(25) . . .
623(25) . . .
605(25) . . .
520(23) . . .
533(23) . . .
553(24) . . .
497(22) . . .
491(22) . . .
438(21) . . .
445(21) . . .
440(21) . . .
409(20) . . .
412(20) . . .
398(20) . . .
374(19) . . .
360(19) . . .
382(20) . . .
349(19) . . .
323(18) . . .
342(18) . . .
319(18) . . .
320(18) . . .
345(19) . . .
310(18) . . .
308(18) . . .
332(18) . . .
311(18) . . .
290(17) . . .
303(17) . . .
305(17) . . .
272(16) . . .
278(17) . . .
282(17) . . .
280(17) . . .
268(16) . . .
268(16) . . .
267(16) . . .
296(17) . . .
265(16) . . .
266(16) . . .
262(16) . . .
246(16) . . .
262(16) . . .
233(15) . . .
291(17) . . .
276(17) . . .
249(16) . . .
244(16) . . .
250(16) . . .
242(16) . . .
260(16) . . .
245(16) . . .
268(16) . . .
275(17) . . .
263(16) . . .
245(16) . . .
259(16) . . .
247(16) . . .
243(16) . . .
244(16) . . .
230(15) . . .
237(15) . . .
230(15) . . .
215(15) . . .
259(16) . . .
238(15) . . .
232(15) . . .
252(16) . . .
240(15) . . .
218(15) . . .
226(15) . . .
232(15) . . .
249(16) . . .
258(16) . . .
208(14) . . .
201(14) . . .
240(15) . . .
239(15) . . .
234(15) . . .
209(14) . . .
220(15) . . .
225(15) . . .
237(15) . . .
228(15) . . .
217(15) . . .
220(15) . . .
211(15) . . .
240(15) . . .
254(16) . . .
214(15) . . .
229(15) . . .
200(14) . . .
224(15) . . .
212(15) . . .
211(15) . . .
220(15) . . .
248(16) . . .
193(14) . . .
231(15) . . .
221(15) . . .
215(15) . . .
232(15) . . .
249(16) . . .
215(15) . . .
230(15) . . .
228(15) . . .
206(14) . . .
209(14) . . .
231(15) . . .
231(15) . . .
216(15) . . .
244(16) . . .
250(16) . . .
231(15) . . .
235(15) . . .
213(15) . . .
228(15) . . .
248(16) . . .
206(14) . . .
211(15) . . .
232(15) . . .
209(14) . . .
213(15) . . .
226(15) . . .
224(15) . . .
199(14) . . .
219(15) . . .
199(14) . . .
228(15) . . .
215(15) . . .
214(15) . . .
231(15) . . .
226(15) . . .
210(14) . . .
221(15) . . .
221(15) . . .
232(15) . . .
208(14) . . .
208(14) . . .
223(15) . . .
222(15) . . .
203(14) . . .
227(15) . . .
194(14) . . .
208(14) . . .
220(15) . . .
192(14) . . .
210(14) . . .
210(14) . . .
217(15) . . .
227(15) . . .
219(15) . . .
187(14) . . .
231(15) . . .
213(15) . . .
240(15) . . .
240(15) . . .
231(15) . . .
202(14) . . .
214(15) . . .
212(15) . . .
244(16) . . .
204(14) . . .
204(14) . . .
235(15) . . .
215(15) . . .
221(15) . . .
225(15) . . .
213(15) . . .
210(14) . . .
213(15) . . .
201(14) . . .
223(15) . . .
201(14) . . .
219(15) . . .
241(16) . . .
198(14) . . .
220(15) . . .
222(15) . . .
224(15) . . .
212(15) . . .
201(14) . . .
188(14) . . .
240(15) . . .
215(15) . . .
207(14) . . .
216(15) . . .
209(14) . . .
233(15) . . .
221(15) . . .
214(15) . . .
204(14) . . .
203(14) . . .
214(15) . . .
220(15) . . .
232(15) . . .
220(15) . . .
232(15) . . .
248(16) . . .
218(15) . . .
202(14) . . .
204(14) . . .
237(15) . . .
216(15) . . .
222(15) . . .
204(14) . . .
213(15) . . .
210(14) . . .
206(14) . . .
211(15) . . .
201(14) . . .
205(14) . . .
210(14) . . .
234(15) . . .
214(15) . . .
200(14) . . .
205(14) . . .
188(14) . . .
198(14) . . .
194(14) . . .
201(14) . . .
204(14) . . .
224(15) . . .
207(14) . . .
218(15) . . .
222(15) . . .
235(15) . . .
202(14) . . .
220(15) . . .
224(15) . . .
221(15) . . .
203(14) . . .
212(15) . . .
215(15) . . .
205(14) . . .
207(14) . . .
209(14) . . .
212(15) . . .
213(15) . . .
192(14) . . .
212(15) . . .
217(15) . . .
207(14) . . .
226(15) . . .
213(15) . . .
210(14) . . .
211(15) . . .
209(14) . . .
222(15) . . .
219(15) . . .
212(15) . . .
206(14) . . .
183(14) . . .
210(14) . . .
203(14) . . .
212(15) . . .
202(14) . . .
195(14) . . .
223(15) . . .
182(13) . . .
198(14) . . .
224(15) . . .
195(14) . . .
212(15) . . .
222(15) . . .
190(14) . . .
202(14) . . .
176(13) . . .
210(14) . . .
221(15) . . .
219(15) . . .
197(14) . . .
202(14) . . .
213(15) . . .
203(14) . . .
207(14) . . .
193(14) . . .
208(14) . . .
212(15) . . .
191(14) . . .
204(14) . . .
197(14) . . .
205(14) . . .
203(14) . . .
212(15) . . .
183(14) . . .
195(14) . . .
191(14) . . .
209(14) . . .
182(13) . . .
205(14) . . .
191(14) . . .
196(14) . . .
222(15) . . .
200(14) . . .
212(15) . . .
218(15) . . .
206(14) . . .
205(14) . . .
200(14) . . .
198(14) . . .
200(14) . . .
202(14) . . .
216(15) . . .
207(14) . . .
188(14) . . .
235(15) . . .
220(15) . . .
200(14) . . .
200(14) . . .
201(14) . . .
208(14) . . .
214(15) . . .
196(14) . . .
190(14) . . .
193(14) . . .
190(14) . . .
201(14) . . .
202(14) . . .
209(14) . . .
190(14) . . .
179(13) . . .
195(14) . . .
214(15) . . .
199(14) . . .
208(14) . . .
180(13) . . .
192(14) . . .
233(15) . . .
180(13) . . .
198(14) . . .
176(13) . . .
200(14) . . .
182(13) . . .
190(14) . . .
189(14) . . .
203(14) . . .
223(15) . . .
191(14) . . .
193(14) . . .
185(14) . . .
190(14) . . .
208(14) . . .
196(14) . . .
198(14) . . .
189(14) . . .
206(14) . . .
195(14) . . .
188(14) . . .
187(14) . . .
192(14) . . .
180(13) . . .
214(15) . . .
204(14) . . .
196(14) . . .
197(14) . . .
218(15) . . .
195(14) . . .
187(14) . . .
209(14) . . .
196(14) . . .
193(14) . . .
214(15) . . .
197(14) . . .
190(14) . . .
194(14) . . .
198(14) . . .
190(14) . . .
185(14) . . .
174(13) . . .
174(13) . . .
205(14) . . .
206(14) . . .
200(14) . . .
199(14) . . .
200(14) . . .
196(14) . . .
193(14) . . .
195(14) . . .
193(14) . . .
225(15) . . .
195(14) . . .
177(13) . . .
185(14) . . .
193(14) . . .
190(14) . . .
199(14) . . .
209(14) . . .
201(14) . . .
205(14) . . .
200(14) . . .
200(14) . . .
219(15) . . .
195(14) . . .
209(14) . . .
197(14) . . .
194(14) . . .
202(14) . . .
194(14) . . .
195(14) . . .
211(15) . . .
203(14) . . .
208(14) . . .
212(15) . . .
219(15) . . .
191(14) . . .
203(14) . . .
173(13) . . .
187(14) . . .
195(14) . . .
210(14) . . .
209(14) . . .
227(15) . . .
184(14) . . .
215(15) . . .
200(14) . . .
213(15) . . .
208(14) . . .
201(14) . . .
205(14) . . .
193(14) . . .
212(15) . . .
183(14) . . .
205(14) . . .
206(14) . . .
194(14) . . .
200(14) . . .
204(14) . . .
192(14) . . .
214(15) . . .
207(14) . . .
240(15) . . .
218(15) . . .
198(14) . . .
204(14) . . .
206(14) . . .
201(14) . . .
188(14) . . .
219(15) . . .
208(14) . . .
186(14) . . .
200(14) . . .
206(14) . . .
187(14) . . .
191(14) . . .
197(14) . . .
227(15) . . .
201(14) . . .
167(13) . . .
208(14) . . .
198(14) . . .
190(14) . . .
188(14) . . .
199(14) . . .
216(15) . . .
189(14) . . .
203(14) . . .
202(14) . . .
190(14) . . .
199(14) . . .
191(14) . . .
212(15) . . .
202(14) . . .
173(13) . . .
194(14) . . .
204(14) . . .
183(14) . . .
209(14) . . .
195(14) . . .
192(14) . . .
190(14) . . .
189(14) . . .
211(15) . . .
178(13) . . .
183(14) . . .
193(14) . . .
187(14) . . .
210(14) . . .
198(14) . . .
206(14) . . .
199(14) . . .
187(14) . . .
190(14) . . .
211(15) . . .
194(14) . . .
162(13) . . .
194(14) . . .
191(14) . . .
188(14) . . .
217(15) . . .
191(14) . . .
182(13) . . .
197(14) . . .
184(14) . . .
208(14) . . .
189(14) . . .
165(13) . . .
186(14) . . .
202(14) . . .
181(13) . . .
206(14) . . .
180(13) . . .
193(14) . . .
202(14) . . .
189(14) . . .
183(14) . . .
181(13) . . .
210(14) . . .
209(14) . . .
189(14) . . .
186(14) . . .
180(13) . . .
191(14) . . .
186(14) . . .
197(14) . . .
181(13) . . .
194(14) . . .
191(14) . . .
179(13) . . .
188(14) . . .
196(14) . . .
173(13) . . .
190(14) . . .
198(14) . . .
209(14) . . .
191(14) . . .
211(15) . . .
198(14) . . .
196(14) . . .
204(14) . . .
209(14) . . .
201(14) . . .
192(14) . . .
183(14) . . .
186(14) . . .
177(13) . . .
178(13) . . .
178(13) . . .
187(14) . . .
195(14) . . .
192(14) . . .
180(13) . . .
184(14) . . .
187(14) . . .
177(13) . . .
194(14) . . .
184(14) . . .
194(14) . . .
183(14) . . .
192(14) . . .
188(14) . . .
174(13) . . .
194(14) . . .
195(14) . . .
174(13) . . .
190(14) . . .
179(13) . . .
177(13) . . .
199(14) . . .
190(14) . . .
181(13) . . .
189(14) . . .
209(14) . . .
168(13) . . .
163(13) . . .
170(13) . . .
201(14) . . .
184(14) . . .
194(14) . . .
176(13) . . .
169(13) . . .
174(13) . . .
182(13) . . .
176(13) . . .
190(14) . . .
186(14) . . .
177(13) . . .
197(14) . . .
229(15) . . .
155(12) . . .
177(13) . . .
175(13) . . .
198(14) . . .
190(14) . . .
193(14) . . .
198(14) . . .
178(13) . . .
182(13) . . .
178(13) . . .
187(14) . . .
192(14) . . .
180(13) . . .
193(14) . . .
202(14) . . .
207(14) . . .
185(14) . . .
188(14) . . .
205(14) . . .
197(14) . . .
204(14) . . .
198(14) . . .
211(15) . . .
197(14) . . .
195(14) . . .
191(14) . . .
190(14) . . .
200(14) . . .
204(14) . . .
186(14) . . .
212(15) . . .
195(14) . . .
183(14) . . .
201(14) . . .
185(14) . . .
179(13) . . .
195(14) . . .
179(13) . . .
174(13) . . .
193(14) . . .
224(15) . . .
204(14) . . .
212(15) . . .
168(13) . . .
198(14) . . .
213(15) . . .
195(14) . . .
214(15) . . .
195(14) . . .
213(15) . . .
209(14) . . .
207(14) . . .
208(14) . . .
210(14) . . .
183(14) . . .
184(14) . . .
215(15) . . .
194(14) . . .
216(15) . . .
182(13) . . .
188(14) . . .
183(14) . . .
196(14) . . .
197(14) . . .
211(15) . . .
176(13) . . .
180(13) . . .
191(14) . . .
203(14) . . .
192(14) . . .
192(14) . . .
199(14) . . .
200(14) . . .
207(14) . . .
197(14) . . .
201(14) . . .
170(13) . . .
193(14) . . .
172(13) . . .
187(14) . . .
201(14) . . .
199(14) . . .
198(14) . . .
202(14) . . .
197(14) . . .
211(15) . . .
219(15) . . .
204(14) . . .
192(14) . . .
188(14) . . .
185(14) . . .
200(14) . . .
197(14) . . .
187(14) . . .
188(14) . . .
194(14) . . .
187(14) . . .
195(14) . . .
180(13) . . .
179(13) . . .
190(14) . . .
199(14) . . .
175(13) . . .
190(14) . . .
174(13) . . .
186(14) . . .
206(14) . . .
193(14) . . .
196(14) . . .
209(14) . . .
209(14) . . .
192(14) . . .
185(14) . . .
191(14) . . .
197(14) . . .
225(15) . . .
178(13) . . .
181(13) . . .
199(14) . . .
181(13) . . .
217(15) . . .
196(14) . . .
212(15) . . .
201(14) . . .
203(14) . . .
196(14) . . .
184(14) . . .
210(14) . . .
211(15) . . .
202(14) . . .
202(14) . . .
199(14) . . .
193(14) . . .
200(14) . . .
210(14) . . .
186(14) . . .
174(13) . . .
189(14) . . .
192(14) . . .
194(14) . . .
192(14) . . .
191(14) . . .
161(13) . . .
200(14) . . .
196(14) . . .
205(14) . . .
208(14) . . .
197(14) . . .
189(14) . . .
187(14) . . .
201(14) . . .
212(15) . . .
207(14) . . .
221(15) . . .
181(13) . . .
196(14) . . .
184(14) . . .
181(13) . . .
212(15) . . .
185(14) . . .
185(14) . . .
194(14) . . .
194(14) . . .
205(14) . . .
194(14) . . .
181(13) . . .
193(14) . . .
185(14) . . .
202(14) . . .
218(15) . . .
204(14) . . .
186(14) . . .
216(15) . . .
221(15) . . .
181(13) . . .
179(13) . . .
191(14) . . .
213(15) . . .
215(15) . . .
200(14) . . .
205(14) . . .
189(14) . . .
207(14) . . .
213(15) . . .
180(13) . . .
204(14) . . .
204(14) . . .
178(13) . . .
209(14) . . .
191(14) . . .
180(13) . . .
221(15) . . .
193(14) . . .
193(14) . . .
187(14) . . .
203(14) . . .
222(15) . . .
191(14) . . .
214(15) . . .
204(14) . . .
181(13) . . .
184(14) . . .
191(14) . . .
198(14) . . .
206(14) . . .
211(15) . . .
169(13) . . .
202(14) . . .
199(14) . . .
217(15) . . .
221(15) . . .
227(15) . . .
200(14) . . .
192(14) . . .
225(15) . . .
195(14) . . .
206(14) . . .
173(13) . . .
213(15) . . .
202(14) . . .
220(15) . . .
232(15) . . .
215(15) . . .
225(15) . . .
217(15) . . .
231(15) . . .
209(14) . . .
216(15) . . .
231(15) . . .
208(14) . . .
198(14) . . .
222(15) . . .
224(15) . . .
208(14) . . .
215(15) . . .
225(15) . . .
224(15) . . .
217(15) . . .
230(15) . . .
201(14) . . .
235(15) . . .
247(16) . . .
224(15) . . .
228(15) . . .
233(15) . . .
234(15) . . .
241(16) . . .
230(15) . . .
238(15) . . .
250(16) . . .
239(15) . . .
265(16) . . .
234(15) . . .
264(16) . . .
286(17) . . .
270(16) . . .
255(16) . . .
277(17) . . .
242(16) . . .
287(17) . . .
278(17) . . .
306(17) . . .
307(18) . . .
285(17) . . .
308(18) . . .
291(17) . . .
317(18) . . .
324(18) . . .
334(18) . . .
340(18) . . .
344(19) . . .
375(19) . . .
384(20) . . .
413(20) . . .
416(20) . . .
439(21) . . .
440(21) . . .
481(22) . . .
512(23) . . .
519(23) . . .
568(24) . . .
597(24) . . .
657(26) . . .
695(26) . . .
726(27) . . .
784(28) . . .
846(29) . . .
928(30) . . .
954(31) . . .
1035(32) . . .
1204(35) . . .
1270(36) . . .
1388(37) . . .
1550(39) . . .
1742(42) . . .
1875(43) . . .
2127(46) . . .
2352(48) . . .
2591(51) . . .
2757(53) . . .
2913(54) . . .
3117(56) . . .
3429(59) . . .
3392(58) . . .
3436(59) . . .
3449(59) . . .
3503(59) . . .
3430(59) . . .
3263(57) . . .
3106(56) . . .
2874(54) . . .
2605(51) . . .
2447(49) . . .
2209(47) . . .
1998(45) . . .
1800(42) . . .
1620(40) . . .
1463(38) . . .
1272(36) . . .
1178(34) . . .
1101(33) . . .
979(31) . . .
899(30) . . .
888(30) . . .
809(28) . . .
714(27) . . .
653(26) . . .
611(25) . . .
600(24) . . .
564(24) . . .
533(23) . . .
487(22) . . .
441(21) . . .
407(20) . . .
428(21) . . .
420(20) . . .
385(20) . . .
357(19) . . .
334(18) . . .
356(19) . . .
335(18) . . .
356(19) . . .
340(18) . . .
309(18) . . .
313(18) . . .
296(17) . . .
286(17) . . .
280(17) . . .
280(17) . . .
292(17) . . .
279(17) . . .
272(16) . . .
264(16) . . .
279(17) . . .
262(16) . . .
263(16) . . .
250(16) . . .
269(16) . . .
236(15) . . .
246(16) . . .
251(16) . . .
254(16) . . .
226(15) . . .
225(15) . . .
228(15) . . .
247(16) . . .
218(15) . . .
233(15) . . .
257(16) . . .
230(15) . . .
223(15) . . .
246(16) . . .
203(14) . . .
237(15) . . .
226(15) . . .
222(15) . . .
206(14) . . .
231(15) . . .
209(14) . . .
204(14) . . .
225(15) . . .
221(15) . . .
219(15) . . .
214(15) . . .
214(15) . . .
224(15) . . .
209(14) . . .
209(14) . . .
211(15) . . .
205(14) . . .
200(14) . . .
194(14) . . .
191(14) . . .
177(13) . . .
220(15) . . .
185(14) . . .
191(14) . . .
206(14) . . .
222(15) . . .
206(14) . . .
199(14) . . .
213(15) . . .
198(14) . . .
220(15) . . .
219(15) . . .
238(15) . . .
194(14) . . .
217(15) . . .
201(14) . . .
207(14) . . .
233(15) . . .
192(14) . . .
202(14) . . .
207(14) . . .
206(14) . . .
205(14) . . .
206(14) . . .
203(14) . . .
178(13) . . .
213(15) . . .
183(14) . . .
200(14) . . .
196(14) . . .
210(14) . . .
195(14) . . .
210(14) . . .
196(14) . . .
190(14) . . .
204(14) . . .
198(14) . . .
186(14) . . .
200(14) . . .
194(14) . . .
204(14) . . .
201(14) . . .
185(14) . . .
191(14) . . .
196(14) . . .
199(14) . . .
206(14) . . .
194(14) . . .
206(14) . . .
209(14) . . .
207(14) . . .
195(14) . . .
177(13) . . .
183(14) . . .
197(14) . . .
210(14) . . .
201(14) . . .
213(15) . . .
208(14) . . .
191(14) . . .
213(15) . . .
197(14) . . .
203(14) . . .
206(14) . . .
182(13) . . .
198(14) . . .
181(13) . . .
206(14) . . .
192(14) . . .
179(13) . . .
192(14) . . .
176(13) . . .
187(14) . . .
176(13) . . .
190(14) . . .
184(14) . . .
193(14) . . .
188(14) . . .
183(14) . . .
192(14) . . .
188(14) . . .
194(14) . . .
177(13) . . .
194(14) . . .
209(14) . . .
175(13) . . .
201(14) . . .
188(14) . . .
197(14) . . .
221(15) . . .
188(14) . . .
196(14) . . .
195(14) . . .
190(14) . . .
194(14) . . .
187(14) . . .
206(14) . . .
208(14) . . .
202(14) . . .
216(15) . . .
188(14) . . .
193(14) . . .
185(14) . . .
218(15) . . .
197(14) . . .
206(14) . . .
198(14) . . .
200(14) . . .
196(14) . . .
197(14) . . .
210(14) . . .
197(14) . . .
212(15) . . .
227(15) . . .
214(15) . . .
215(15) . . .
189(14) . . .
218(15) . . .
205(14) . . .
203(14) . . .
203(14) . . .
202(14) . . .
216(15) . . .
222(15) . . .
217(15) . . .
203(14) . . .
190(14) . . .
214(15) . . .
206(14) . . .
204(14) . . .
203(14) . . .
217(15) . . .
207(14) . . .
219(15) . . .
201(14) . . .
227(15) . . .
207(14) . . .
175(13) . . .
208(14) . . .
189(14) . . .
210(14) . . .
203(14) . . .
220(15) . . .
207(14) . . .
214(15) . . .
213(15) . . .
229(15) . . .
203(14) . . .
251(16) . . .
270(16) . . .
223(15) . . .
210(14) . . .
239(15) . . .
236(15) . . .
248(16) . . .
247(16) . . .
234(15) . . .
243(16) . . .
255(16) . . .
239(15) . . .
272(16) . . .
296(17) . . .
276(17) . . .
258(16) . . .
278(17) . . .
281(17) . . .
291(17) . . .
302(17) . . .
265(16) . . .
297(17) . . .
284(17) . . .
301(17) . . .
339(18) . . .
310(18) . . .
324(18) . . .
317(18) . . .
310(18) . . .
306(17) . . .
316(18) . . .
317(18) . . .
349(19) . . .
368(19) . . .
382(20) . . .
374(19) . . .
393(20) . . .
415(20) . . .
427(21) . . .
423(21) . . .
452(21) . . .
495(22) . . .
489(22) . . .
589(24) . . .
573(24) . . .
563(24) . . .
648(25) . . .
697(26) . . .
823(29) . . .
855(29) . . .
897(30) . . .
982(31) . . .
1072(33) . . .
1183(34) . . .
1244(35) . . .
1423(38) . . .
1563(40) . . .
1775(42) . . .
2002(45) . . .
2093(46) . . .
2297(48) . . .
2440(49) . . .
2541(50) . . .
2724(52) . . .
2861(53) . . .
2914(54) . . .
2875(54) . . .
2990(55) . . .
2810(53) . . .
2715(52) . . .
2653(52) . . .
2535(50) . . .
2323(48) . . .
2124(46) . . .
1873(43) . . .
1797(42) . . .
1590(40) . . .
1404(37) . . .
1273(36) . . .
1137(34) . . .
1012(32) . . .
966(31) . . .
841(29) . . .
750(27) . . .
727(27) . . .
651(26) . . .
611(25) . . .
608(25) . . .
536(23) . . .
515(23) . . .
464(22) . . .
459(21) . . .
404(20) . . .
384(20) . . .
369(19) . . .
345(19) . . .
383(20) . . .
346(19) . . .
325(18) . . .
311(18) . . .
326(18) . . .
347(19) . . .
304(17) . . .
292(17) . . .
282(17) . . .
287(17) . . .
287(17) . . .
307(18) . . .
256(16) . . .
270(16) . . .
277(17) . . .
279(17) . . .
237(15) . . .
234(15) . . .
251(16) . . .
249(16) . . .
247(16) . . .
231(15) . . .
256(16) . . .
222(15) . . .
236(15) . . .
246(16) . . .
199(14) . . .
221(15) . . .
217(15) . . .
222(15) . . .
218(15) . . .
226(15) . . .
202(14) . . .
228(15) . . .
221(15) . . .
228(15) . . .
208(14) . . .
206(14) . . .
197(14) . . .
201(14) . . .
220(15) . . .
210(14) . . .
222(15) . . .
237(15) . . .
190(14) . . .
257(16) . . .
209(14) . . .
218(15) . . .
222(15) . . .
210(14) . . .
200(14) . . .
191(14) . . .
201(14) . . .
181(13) . . .
207(14) . . .
193(14) . . .
202(14) . . .
189(14) . . .
207(14) . . .
193(14) . . .
191(14) . . .
209(14) . . .
203(14) . . .
184(14) . . .
211(15) . . .
193(14) . . .
186(14) . . .
182(13) . . .
203(14) . . .
195(14) . . .
196(14) . . .
172(13) . . .
182(13) . . .
193(14) . . .
185(14) . . .
181(13) . . .
199(14) . . .
181(13) . . .
178(13) . . .
183(14) . . .
200(14) . . .
197(14) . . .
174(13) . . .
161(13) . . .
186(14) . . .
180(13) . . .
190(14) . . .
192(14) . . .
193(14) . . .
202(14) . . .
185(14) . . .
174(13) . . .
184(14) . . .
191(14) . . .
190(14) . . .
180(13) . . .
197(14) . . .
169(13) . . .
165(13) . . .
174(13) . . .
169(13) . . .
192(14) . . .
169(13) . . .
169(13) . . .
169(13) . . .
193(14) . . .
188(14) . . .
200(14) . . .
173(13) . . .
181(13) . . .
182(13) . . .
186(14) . . .
197(14) . . .
164(13) . . .
203(14) . . .
182(13) . . .
186(14) . . .
179(13) . . .
180(13) . . .
162(13) . . .
196(14) . . .
192(14) . . .
176(13) . . .
173(13) . . .
185(14) . . .
179(13) . . .
202(14) . . .
193(14) . . .
170(13) . . .
177(13) . . .
203(14) . . .
201(14) . . .
183(14) . . .
177(13) . . .
158(13) . . .
229(15) . . .
181(13) . . .
198(14) . . .
193(14) . . .
195(14) . . .
180(13) . . .
173(13) . . .
165(13) . . .
172(13) . . .
190(14) . . .
182(13) . . .
192(14) . . .
188(14) . . .
184(14) . . .
181(13) . . .
192(14) . . .
178(13) . . .
174(13) . . .
176(13) . . .
188(14) . . .
166(13) . . .
177(13) . . .
172(13) . . .
201(14) . . .
176(13) . . .
158(13) . . .
192(14) . . .
179(13) . . .
167(13) . . .
190(14) . . .
164(13) . . .
178(13) . . .
166(13) . . .
174(13) . . .
166(13) . . .
187(14) . . .
172(13) . . .
175(13) . . .
186(14) . . .
165(13) . . .
180(13) . . .
168(13) . . .
192(14) . . .
188(14) . . .
180(13) . . .
182(13) . . .
174(13) . . .
187(14) . . .
176(13) . . .
185(14) . . .
179(13) . . .
182(13) . . .
165(13) . . .
205(14) . . .
189(14) . . .
164(13) . . .
162(13) . . .
196(14) . . .
169(13) . . .
166(13) . . .
188(14) . . .
215(15) . . .
158(13) . . .
173(13) . . .
182(13) . . .
189(14) . . .
175(13) . . .
189(14) . . .
167(13) . . .
178(13) . . .
167(13) . . .
195(14) . . .
195(14) . . .
172(13) . . .
184(14) . . .
188(14) . . .
191(14) . . .
177(13) . . .
179(13) . . .
192(14) . . .
194(14) . . .
181(13) . . .
197(14) . . .
181(13) . . .
170(13) . . .
191(14) . . .
195(14) . . .
179(13) . . .
185(14) . . .
170(13) . . .
192(14) . . .
177(13) . . .
192(14) . . .
184(14) . . .
180(13) . . .
179(13) . . .
167(13) . . .
180(13) . . .
167(13) . . .
192(14) . . .
171(13) . . .
188(14) . . .
175(13) . . .
181(13) . . .
182(13) . . .
175(13) . . .
191(14) . . .
205(14) . . .
204(14) . . .
184(14) . . .
198(14) . . .
168(13) . . .
166(13) . . .
190(14) . . .
198(14) . . .
175(13) . . .
182(13) . . .
182(13) . . .
173(13) . . .
171(13) . . .
162(13) . . .
184(14) . . .
182(13) . . .
183(14) . . .
183(14) . . .
181(13) . . .
172(13) . . .
194(14) . . .
161(13) . . .
190(14) . . .
155(12) . . .
179(13) . . .
168(13) . . .
188(14) . . .
176(13) . . .
192(14) . . .
178(13) . . .
179(13) . . .
178(13) . . .
168(13) . . .
158(13) . . .
178(13) . . .
172(13) . . .
175(13) . . .
192(14) . . .
179(13) . . .
183(14) . . .
166(13) . . .
174(13) . . .
189(14) . . .
186(14) . . .
193(14) . . .
197(14) . . .
187(14) . . .
184(14) . . .
189(14) . . .
199(14) . . .
165(13) . . .
165(13) . . .
191(14) . . .
184(14) . . .
190(14) . . .
194(14) . . .
214(15) . . .
210(14) . . .
194(14) . . .
183(14) . . .
187(14) . . .
210(14) . . .
161(13) . . .
182(13) . . .
188(14) . . .
174(13) . . .
188(14) . . .
189(14) . . .
181(13) . . .
193(14) . . .
191(14) . . .
175(13) . . .
195(14) . . .
193(14) . . .
176(13) . . .
174(13) . . .
188(14) . . .
178(13) . . .
153(12) . . .
203(14) . . .
201(14) . . .
192(14) . . .
185(14) . . .
177(13) . . .
157(13) . . .
174(13) . . .
177(13) . . .
186(14) . . .
180(13) . . .
168(13) . . .
185(14) . . .
221(15) . . .
194(14) . . .
158(13) . . .
187(14) . . .
177(13) . . .
184(14) . . .
179(13) . . .
208(14) . . .
194(14) . . .
194(14) . . .
189(14) . . .
168(13) . . .
140(12) . . .
190(14) . . .
178(13) . . .
181(13) . . .
185(14) . . .
195(14) . . .
176(13) . . .
169(13) . . .
197(14) . . .
183(14) . . .
176(13) . . .
174(13) . . .
211(15) . . .
164(13) . . .
192(14) . . .
196(14) . . .
170(13) . . .
167(13) . . .
174(13) . . .
163(13) . . .
156(12) . . .
168(13) . . .
171(13) . . .
150(12) . . .
164(13) . . .
170(13) . . .
203(14) . . .
182(13) . . .
159(13) . . .
180(13) . . .
181(13) . . .
178(13) . . .
164(13) . . .
173(13) . . .
157(13) . . .
168(13) . . .
152(12) . . .
169(13) . . .
148(12) . . .
184(14) . . .
171(13) . . .
190(14) . . .
203(14) . . .
169(13) . . .
161(13) . . .
148(12) . . .
184(14) . . .
198(14) . . .
182(13) . . .
199(14) . . .
193(14) . . .
194(14) . . .
185(14) . . .
190(14) . . .
178(13) . . .
165(13) . . .
168(13) . . .
170(13) . . .
198(14) . . .
188(14) . . .
173(13) . . .
174(13) . . .
200(14) . . .
177(13) . . .
164(13) . . .
185(14) . . .
175(13) . . .
172(13) . . .
180(13) . . .
200(14) . . .
175(13) . . .
163(13) . . .
183(14) . . .
188(14) . . .
167(13) . . .
201(14) . . .
172(13) . . .
181(13) . . .
184(14) . . .
180(13) . . .
165(13) . . .
172(13) . . .
174(13) . . .
181(13) . . .
171(13) . . .
182(13) . . .
197(14) . . .
162(13) . . .
171(13) . . .
178(13) . . .
167(13) . . .
194(14) . . .
170(13) . . .
166(13) . . .
182(13) . . .
153(12) . . .
159(13) . . .
165(13) . . .
186(14) . . .
166(13) . . .
169(13) . . .
169(13) . . .
169(13) . . .
184(14) . . .
182(13) . . .
171(13) . . .
168(13) . . .
196(14) . . .
176(13) . . .
181(13) . . .
166(13) . . .
177(13) . . .
172(13) . . .
181(13) . . .
200(14) . . .
191(14) . . .
195(14) . . .
175(13) . . .
151(12) . . .
174(13) . . .
177(13) . . .
184(14) . . .
160(13) . . .
170(13) . . .
180(13) . . .
184(14) . . .
158(13) . . .
171(13) . . .
171(13) . . .
166(13) . . .
165(13) . . .
163(13) . . .
176(13) . . .
181(13) . . .
180(13) . . .
190(14) . . .
173(13) . . .
164(13) . . .
185(14) . . .
176(13) . . .
166(13) . . .
181(13) . . .
180(13) . . .
182(13) . . .
173(13) . . .
165(13) . . .
192(14) . . .
186(14) . . .
192(14) . . .
193(14) . . .
192(14) . . .
192(14) . . .
170(13) . . .
176(13) . . .
180(13) . . .
187(14) . . .
186(14) . . .
192(14) . . .
182(13) . . .
181(13) . . .
179(13) . . .
206(14) . . .
185(14) . . .
176(13) . . .
166(13) . . .
188(14) . . .
177(13) . . .
186(14) . . .
172(13) . . .
187(14) . . .
178(13) . . .
179(13) . . .
192(14) . . .
172(13) . . .
193(14) . . .
168(13) . . .
149(12) . . .
185(14) . . .
159(13) . . .
180(13) . . .
186(14) . . .
165(13) . . .
179(13) . . .
196(14) . . .
177(13) . . .
173(13) . . .
175(13) . . .
168(13) . . .
174(13) . . .
153(12) . . .
176(13) . . .
193(14) . . .
167(13) . . .
174(13) . . .
170(13) . . .
169(13) . . .
182(13) . . .
185(14) . . .
177(13) . . .
162(13) . . .
191(14) . . .
174(13) . . .
186(14) . . .
190(14) . . .
173(13) . . .
169(13) . . .
167(13) . . .
160(13) . . .
209(14) . . .
196(14) . . .
177(13) . . .
178(13) . . .
175(13) . . .
186(14) . . .
165(13) . . .
167(13) . . .
176(13) . . .
166(13) . . .
168(13) . . .
180(13) . . .
192(14) . . .
185(14) . . .
191(14) . . .
146(12) . . .
171(13) . . .
165(13) . . .
198(14) . . .
184(14) . . .
174(13) . . .
160(13) . . .
174(13) . . .
189(14) . . .
173(13) . . .
176(13) . . .
167(13) . . .
170(13) . . .
175(13) . . .
188(14) . . .
158(13) . . .
196(14) . . .
179(13) . . .
172(13) . . .
185(14) . . .
183(14) . . .
161(13) . . .
177(13) . . .
191(14) . . .
166(13) . . .
204(14) . . .
167(13) . . .
156(12) . . .
158(13) . . .
169(13) . . .
167(13) . . .
178(13) . . .
192(14) . . .
169(13) . . .
171(13) . . .
183(14) . . .
151(12) . . .
155(12) . . .
182(13) . . .
188(14) . . .
187(14) . . .
179(13) . . .
171(13) . . .
171(13) . . .
158(13) . . .
180(13) . . .
183(14) . . .
185(14) . . .
175(13) . . .
208(14) . . .
177(13) . . .
148(12) . . .
167(13) . . .
176(13) . . .
172(13) . . .
170(13) . . .
177(13) . . .
187(14) . . .
190(14) . . .
181(13) . . .
162(13) . . .
178(13) . . .
196(14) . . .
182(13) . . .
184(14) . . .
194(14) . . .
149(12) . . .
177(13) . . .
178(13) . . .
191(14) . . .
149(12) . . .
179(13) . . .
182(13) . . .
177(13) . . .
176(13) . . .
163(13) . . .
173(13) . . .
196(14) . . .
172(13) . . .
157(13) . . .
182(13) . . .
166(13) . . .
181(13) . . .
181(13) . . .
172(13) . . .
189(14) . . .
192(14) . . .
182(13) . . .
186(14) . . .
186(14) . . .
197(14) . . .
171(13) . . .
183(14) . . .
174(13) . . .
179(13) . . .
173(13) . . .
161(13) . . .
161(13) . . .
171(13) . . .
195(14) . . .
169(13) . . .
189(14) . . .
177(13) . . .
183(14) . . .
175(13) . . .
167(13) . . .
196(14) . . .
192(14) . . .
180(13) . . .
163(13) . . .
196(14) . . .
184(14) . . .
166(13) . . .
167(13) . . .
185(14) . . .
180(13) . . .
173(13) . . .
194(14) . . .
185(14) . . .
185(14) . . .
192(14) . . .
170(13) . . .
187(14) . . .
175(13) . . .
197(14) . . .
182(13) . . .
181(13) . . .
186(14) . . .
176(13) . . .
192(14) . . .
173(13) . . .
192(14) . . .
177(13) . . .
173(13) . . .
183(14) . . .
193(14) . . .
181(13) . . .
183(14) . . .
188(14) . . .
180(13) . . .
173(13) . . .
177(13) . . .
191(14) . . .
194(14) . . .
198(14) . . .
179(13) . . .
182(13) . . .
185(14) . . .
181(13) . . .
184(14) . . .
166(13) . . .
189(14) . . .
170(13) . . .
186(14) . . .
184(14) . . .
167(13) . . .
156(12) . . .
163(13) . . .
186(14) . . .
166(13) . . .
193(14) . . .
184(14) . . .
191(14) . . .
164(13) . . .
146(12) . . .
177(13) . . .
176(13) . . .
199(14) . . .
185(14) . . .
167(13) . . .
185(14) . . .
188(14) . . .
166(13) . . .
165(13) . . .
178(13) . . .
155(12) . . .
158(13) . . .
185(14) . . .
163(13) . . .
188(14) . . .
194(14) . . .
187(14) . . .
169(13) . . .
172(13) . . .
184(14) . . .
169(13) . . .
175(13) . . .
195(14) . . .
161(13) . . .
159(13) . . .
194(14) . . .
177(13) . . .
177(13) . . .
182(13) . . .
179(13) . . .
179(13) . . .
191(14) . . .
197(14) . . .
168(13) . . .
191(14) . . .
173(13) . . .
164(13) . . .
173(13) . . .
163(13) . . .
161(13) . . .
164(13) . . .
159(13) . . .
175(13) . . .
193(14) . . .
165(13) . . .
211(15) . . .
166(13) . . .
186(14) . . .
190(14) . . .
177(13) . . .
185(14) . . .
177(13) . . .
200(14) . . .
168(13) . . .
186(14) . . .
173(13) . . .
188(14) . . .
172(13) . . .
171(13) . . .
187(14) . . .
202(14) . . .
184(14) . . .
154(12) . . .
174(13) . . .
188(14) . . .
185(14) . . .
163(13) . . .
191(14) . . .
168(13) . . .
191(14) . . .
188(14) . . .
181(13) . . .
167(13) . . .
176(13) . . .
157(13) . . .
159(13) . . .
181(13) . . .
176(13) . . .
182(13) . . .
178(13) . . .
186(14) . . .
188(14) . . .
192(14) . . .
194(14) . . .
187(14) . . .
167(13) . . .
175(13) . . .
179(13) . . .
204(14) . . .
171(13) . . .
198(14) . . .
178(13) . . .
191(14) . . .
168(13) . . .
166(13) . . .
160(13) . . .
183(14) . . .
165(13) . . .
171(13) . . .
186(14) . . .
181(13) . . .
152(12) . . .
173(13) . . .
180(13) . . .
165(13) . . .
158(13) . . .
187(14) . . .
168(13) . . .
164(13) . . .
193(14) . . .
206(14) . . .
177(13) . . .
155(12) . . .
179(13) . . .
178(13) . . .
192(14) . . .
189(14) . . .
186(14) . . .
160(13) . . .
168(13) . . .
171(13) . . .
164(13) . . .
167(13) . . .
168(13) . . .
192(14) . . .
184(14) . . .
176(13) . . .
179(13) . . .
177(13) . . .
174(13) . . .
165(13) . . .
149(12) . . .
173(13) . . .
182(13) . . .
163(13) . . .
188(14) . . .
189(14) . . .
181(13) . . .
190(14) . . .
158(13) . . .
165(13) . . .
184(14) . . .
177(13) . . .
193(14) . . .
176(13) . . .
170(13) . . .
197(14) . . .
188(14) . . .
178(13) . . .
176(13) . . .
164(13) . . .
170(13) . . .
160(13) . . .
171(13) . . .
170(13) . . .
173(13) . . .
167(13) . . .
185(14) . . .
180(13) . . .
178(13) . . .
154(12) . . .
183(14) . . .
173(13) . . .
165(13) . . .
162(13) . . .
165(13) . . .
168(13) . . .
161(13) . . .
175(13) . . .
197(14) . . .
167(13) . . .
188(14) . . .
175(13) . . .
173(13) . . .
202(14) . . .
174(13) . . .
168(13) . . .
175(13) . . .
192(14) . . .
187(14) . . .
174(13) . . .
173(13) . . .
187(14) . . .
184(14) . . .
184(14) . . .
191(14) . . .
176(13) . . .
172(13) . . .
181(13) . . .
162(13) . . .
173(13) . . .
178(13) . . .
175(13) . . .
178(13) . . .
188(14) . . .
164(13) . . .
167(13) . . .
155(12) . . .
170(13) . . .
198(14) . . .
173(13) . . .
178(13) . . .
161(13) . . .
175(13) . . .
176(13) . . .
182(13) . . .
160(13) . . .
184(14) . . .
175(13) . . .
185(14) . . .
201(14) . . .
174(13) . . .
175(13) . . .
178(13) . . .
171(13) . . .
196(14) . . .
166(13) . . .
148(12) . . .
183(14) . . .
168(13) . . .
170(13) . . .
187(14) . . .
168(13) . . .
178(13) . . .
189(14) . . .
168(13) . . .
182(13) . . .
170(13) . . .
167(13) . . .
175(13) . . .
169(13) . . .
172(13) . . .
170(13) . . .
179(13) . . .
177(13) . . .
174(13) . . .
188(14) . . .
165(13) . . .
184(14) . . .
163(13) . . .
163(13) . . .
173(13) . . .
189(14) . . .
174(13) . . .
175(13) . . .
151(12) . . .
156(12) . . .
170(13) . . .
196(14) . . .
190(14) . . .
172(13) . . .
174(13) . . .
192(14) . . .
179(13) . . .
181(13) . . .
207(14) . . .
201(14) . . .
176(13) . . .
166(13) . . .
173(13) . . .
184(14) . . .
164(13) . . .
195(14) . . .
174(13) . . .
184(14) . . .
181(13) . . .
186(14) . . .
178(13) . . .
187(14) . . .
179(13) . . .
173(13) . . .
182(13) . . .
177(13) . . .
175(13) . . .
181(13) . . .
190(14) . . .
179(13) . . .
175(13) . . .
192(14) . . .
196(14) . . .
181(13) . . .
180(13) . . .
191(14) . . .
177(13) . . .
183(14) . . .
176(13) . . .
171(13) . . .
185(14) . . .
183(14) . . .
181(13) . . .
189(14) . . .
193(14) . . .
167(13) . . .
168(13) . . .
186(14) . . .
177(13) . . .
182(13) . . .
187(14) . . .
158(13) . . .
193(14) . . .
179(13) . . .
179(13) . . .
176(13) . . .
184(14) . . .
174(13) . . .
176(13) . . .
192(14) . . .
173(13) . . .
170(13) . . .
184(14) . . .
180(13) . . .
175(13) . . .
190(14) . . .
173(13) . . .
171(13) . . .
187(14) . . .
183(14) . . .
202(14) . . .
192(14) . . .
183(14) . . .
187(14) . . .
189(14) . . .
171(13) . . .
194(14) . . .
187(14) . . .
163(13) . . .
170(13) . . .
163(13) . . .
179(13) . . .
186(14) . . .
195(14) . . .
171(13) . . .
166(13) . . .
194(14) . . .
175(13) . . .
189(14) . . .
174(13) . . .
172(13) . . .
157(13) . . .
151(12) . . .
169(13) . . .
169(13) . . .
188(14) . . .
176(13) . . .
156(12) . . .
177(13) . . .
199(14) . . .
201(14) . . .
196(14) . . .
185(14) . . .
171(13) . . .
180(13) . . .
167(13) . . .
171(13) . . .
189(14) . . .
174(13) . . .
173(13) . . .
172(13) . . .
196(14) . . .
188(14) . . .
187(14) . . .
179(13) . . .
183(14) . . .
187(14) . . .
180(13) . . .
192(14) . . .
173(13) . . .
178(13) . . .
160(13) . . .
180(13) . . .
170(13) . . .
171(13) . . .
187(14) . . .
164(13) . . .
181(13) . . .
201(14) . . .
190(14) . . .
181(13) . . .
186(14) . . .
166(13) . . .
174(13) . . .
177(13) . . .
171(13) . . .
187(14) . . .
179(13) . . .
204(14) . . .
176(13) . . .
169(13) . . .
160(13) . . .
181(13) . . .
182(13) . . .
167(13) . . .
189(14) . . .
171(13) . . .
152(12) . . .
162(13) . . .
184(14) . . .
186(14) . . .
189(14) . . .
186(14) . . .
191(14) . . .
178(13) . . .
167(13) . . .
163(13) . . .
184(14) . . .
203(14) . . .
184(14) . . .
161(13) . . .
184(14) . . .
200(14) . . .
177(13) . . .
187(14) . . .
182(13) . . .
193(14) . . .
205(14) . . .
209(14) . . .
194(14) . . .
171(13) . . .
193(14) . . .
201(14) . . .
201(14) . . .
196(14) . . .
186(14) . . .
194(14) . . .
199(14) . . .
231(15) . . .
214(15) . . .
249(16) . . .
232(15) . . .
260(16) . . .
292(17) . . .
281(17) . . .
264(16) . . .
269(16) . . .
320(18) . . .
311(18) . . .
333(18) . . .
341(18) . . .
381(20) . . .
379(19) . . .
384(20) . . .
411(20) . . .
401(20) . . .
386(20) . . .
418(20) . . .
365(19) . . .
345(19) . . .
362(19) . . .
329(18) . . .
336(18) . . .
298(17) . . .
288(17) . . .
284(17) . . .
285(17) . . .
249(16) . . .
266(16) . . .
254(16) . . .
230(15) . . .
252(16) . . .
228(15) . . .
244(16) . . .
215(15) . . .
228(15) . . .
213(15) . . .
190(14) . . .
186(14) . . .
178(13) . . .
192(14) . . .
186(14) . . .
177(13) . . .
180(13) . . .
207(14) . . .
185(14) . . .
187(14) . . .
189(14) . . .
174(13) . . .
172(13) . . .
171(13) . . .
182(13) . . .
197(14) . . .
182(13) . . .
181(13) . . .
187(14) . . .
196(14) . . .
184(14) . . .
163(13) . . .
192(14) . . .
153(12) . . .
171(13) . . .
173(13) . . .
195(14) . . .
156(12) . . .
184(14) . . .
171(13) . . .
188(14) . . .
176(13) . . .
182(13) . . .
186(14) . . .
188(14) . . .
171(13) . . .
168(13) . . .
176(13) . . .
171(13) . . .
177(13) . . .
187(14) . . .
197(14) . . .
180(13) . . .
176(13) . . .
176(13) . . .
167(13) . . .
181(13) . . .
199(14) . . .
173(13) . . .
187(14) . . .
179(13) . . .
168(13) . . .
188(14) . . .
197(14) . . .
193(14) . . .
189(14) . . .
184(14) . . .
205(14) . . .
179(13) . . .
182(13) . . .
182(13) . . .
161(13) . . .
181(13) . . .
193(14) . . .
159(13) . . .
183(14) . . .
165(13) . . .
163(13) . . .
177(13) . . .
160(13) . . .
176(13) . . .
182(13) . . .
188(14) . . .
175(13) . . .
180(13) . . .
161(13) . . .
174(13) . . .
171(13) . . .
160(13) . . .
173(13) . . .
182(13) . . .
176(13) . . .
180(13) . . .
177(13) . . .
164(13) . . .
161(13) . . .
181(13) . . .
175(13) . . .
178(13) . . .
159(13) . . .
180(13) . . .
149(12) . . .
168(13) . . .
181(13) . . .
172(13) . . .
172(13) . . .
190(14) . . .
177(13) . . .
146(12) . . .
182(13) . . .
174(13) . . .
157(13) . . .
176(13) . . .
174(13) . . .
177(13) . . .
185(14) . . .
180(13) . . .
158(13) . . .
170(13) . . .
170(13) . . .
168(13) . . .
158(13) . . .
146(12) . . .
168(13) . . .
154(12) . . .
176(13) . . .
168(13) . . .
158(13) . . .
180(13) . . .
175(13) . . .
186(14) . . .
173(13) . . .
167(13) . . .
154(12) . . .
176(13) . . .
185(14) . . .
162(13) . . .
162(13) . . .
178(13) . . .
140(12) . . .
173(13) . . .
162(13) . . .
169(13) . . .
176(13) . . .
168(13) . . .
176(13) . . .
160(13) . . .
170(13) . . .
179(13) . . .
182(13) . . .
178(13) . . .
188(14) . . .
174(13) . . .
167(13) . . .
163(13) . . .
164(13) . . .
171(13) . . .
190(14) . . .
180(13) . . .
199(14) . . .
186(14) . . .
167(13) . . .
184(14) . . .
191(14) . . .
174(13) . . .
156(12) . . .
150(12) . . .
179(13) . . .
162(13) . . .
176(13) . . .
166(13) . . .
163(13) . . .
180(13) . . .
149(12) . . .
188(14) . . .
180(13) . . .
169(13) . . .
164(13) . . .
162(13) . . .
173(13) . . .
166(13) . . .
187(14) . . .
171(13) . . .
175(13) . . .
173(13) . . .
171(13) . . .
181(13) . . .
179(13) . . .
163(13) . . .
163(13) . . .
171(13) . . .
174(13) . . .
162(13) . . .
177(13) . . .
160(13) . . .
175(13) . . .
174(13) . . .
172(13) . . .
180(13) . . .
152(12) . . .
168(13) . . .
172(13) . . .
188(14) . . .
159(13) . . .
171(13) . . .
176(13) . . .
184(14) . . .
184(14) . . .
189(14) . . .
173(13) . . .
193(14) . . .
170(13) . . .
174(13) . . .
169(13) . . .
164(13) . . .
179(13) . . .
180(13) . . .
183(14) . . .
175(13) . . .
159(13) . . .
179(13) . . .
181(13) . . .
174(13) . . .
160(13) . . .
152(12) . . .
166(13) . . .
178(13) . . .
196(14) . . .
160(13) . . .
167(13) . . .
179(13) . . .
153(12) . . .
149(12) . . .
163(13) . . .
160(13) . . .
159(13) . . .
198(14) . . .
194(14) . . .
162(13) . . .
189(14) . . .
172(13) . . .
171(13) . . .
190(14) . . .
175(13) . . .
170(13) . . .
187(14) . . .
154(12) . . .
164(13) . . .
202(14) . . .
172(13) . . .
162(13) . . .
162(13) . . .
162(13) . . .
182(13) . . .
168(13) . . .
183(14) . . .
165(13) . . .
163(13) . . .
185(14) . . .
180(13) . . .
163(13) . . .
169(13) . . .
164(13) . . .
182(13) . . .
169(13) . . .
185(14) . . .
184(14) . . .
187(14) . . .
187(14) . . .
194(14) . . .
187(14) . . .
157(13) . . .
189(14) . . .
169(13) . . .
184(14) . . .
162(13) . . .
174(13) . . .
191(14) . . .
168(13) . . .
187(14) . . .
187(14) . . .
177(13) . . .
170(13) . . .
179(13) . . .
154(12) . . .
210(14) . . .
170(13) . . .
166(13) . . .
188(14) . . .
185(14) . . .
198(14) . . .
171(13) . . .
175(13) . . .
161(13) . . .
194(14) . . .
161(13) . . .
176(13) . . .
175(13) . . .
157(13) . . .
164(13) . . .
179(13) . . .
179(13) . . .
188(14) . . .
183(14) . . .
166(13) . . .
191(14) . . .
169(13) . . .
179(13) . . .
183(14) . . .
195(14) . . .
171(13) . . .
171(13) . . .
165(13) . . .
192(14) . . .
191(14) . . .
168(13) . . .
182(13) . . .
157(13) . . .
185(14) . . .
168(13) . . .
183(14) . . .
171(13) . . .
191(14) . . .
177(13) . . .
175(13) . . .
177(13) . . .
189(14) . . .
181(13) . . .
183(14) . . .
166(13) . . .
166(13) . . .
178(13) . . .
192(14) . . .
179(13) . . .
160(13) . . .
189(14) . . .
205(14) . . .
209(14) . . .
194(14) . . .
183(14) . . .
165(13) . . .
170(13) . . .
201(14) . . .
185(14) . . .
194(14) . . .
192(14) . . .
178(13) . . .
178(13) . . .
183(14) . . .
170(13) . . .
175(13) . . .
193(14) . . .
157(13) . . .
170(13) . . .
174(13) . . .
184(14) . . .
168(13) . . .
171(13) . . .
171(13) . . .
183(14) . . .
174(13) . . .
192(14) . . .
170(13) . . .
182(13) . . .
199(14) . . .
182(13) . . .
195(14) . . .
216(15) . . .
199(14) . . .
177(13) . . .
197(14) . . .
192(14) . . .
196(14) . . .
191(14) . . .
187(14) . . .
178(13) . . .
179(13) . . .
205(14) . . .
184(14) . . .
189(14) . . .
179(13) . . .
175(13) . . .
184(14) . . .
167(13) . . .
189(14) . . .
197(14) . . .
182(13) . . .
161(13) . . .
172(13) . . .
171(13) . . .
189(14) . . .
180(13) . . .
172(13) . . .
195(14) . . .
171(13) . . .
169(13) . . .
186(14) . . .
170(13) . . .
159(13) . . .
133(12) . . .
168(13) . . .
178(13) . . .
175(13) . . .
166(13) . . .
195(14) . . .
160(13) . . .
173(13) . . .
187(14) . . .
198(14) . . .
181(13) . . .
161(13) . . .
171(13) . . .
174(13) . . .
181(13) . . .
187(14) . . .
174(13) . . .
190(14) . . .
172(13) . . .
179(13) . . .
176(13) . . .
192(14) . . .
166(13) . . .
157(13) . . .
183(14) . . .
168(13) . . .
180(13) . . .
181(13) . . .
165(13) . . .
180(13) . . .
181(13) . . .
173(13) . . .
178(13) . . .
158(13) . . .
182(13) . . .
181(13) . . .
178(13) . . .
185(14) . . .
176(13) . . .
175(13) . . .
178(13) . . .
167(13) . . .
179(13) . . .
191(14) . . .
167(13) . . .
180(13) . . .
163(13) . . .
162(13) . . .
177(13) . . .
203(14) . . .
176(13) . . .
179(13) . . .
186(14) . . .
173(13) . . .
160(13) . . .
183(14) . . .
166(13) . . .
172(13) . . .
179(13) . . .
179(13) . . .
179(13) . . .
171(13) . . .
170(13) . . .
167(13) . . .
172(13) . . .
190(14) . . .
167(13) . . .
159(13) . . .
185(14) . . .
173(13) . . .
184(14) . . .
161(13) . . .
188(14) . . .
169(13) . . .
190(14) . . .
175(13) . . .
162(13) . . .
168(13) . . .
168(13) . . .
177(13) . . .
187(14) . . .
196(14) . . .
195(14) . . .
174(13) . . .
189(14) . . .
194(14) . . .
167(13) . . .
181(13) . . .
183(14) . . .
180(13) . . .
181(13) . . .
167(13) . . .
190(14) . . .
164(13) . . .
179(13) . . .
187(14) . . .
174(13) . . .
161(13) . . .
212(15) . . .
191(14) . . .
191(14) . . .
198(14) . . .
189(14) . . .
179(13) . . .
190(14) . . .
179(13) . . .
187(14) . . .
175(13) . . .
161(13) . . .
153(12) . . .
166(13) . . .
171(13) . . .
191(14) . . .
172(13) . . .
182(13) . . .
168(13) . . .
178(13) . . .
154(12) . . .
182(13) . . .
172(13) . . .
179(13) . . .
166(13) . . .
162(13) . . .
171(13) . . .
175(13) . . .
202(14) . . .
200(14) . . .
184(14) . . .
165(13) . . .
175(13) . . .
180(13) . . .
181(13) . . .
178(13) . . .
204(14) . . .
199(14) . . .
185(14) . . .
204(14) . . .
177(13) . . .
169(13) . . .
189(14) . . .
208(14) . . .
199(14) . . .
179(13) . . .
178(13) . . .
180(13) . . .
202(14) . . .
202(14) . . .
182(13) . . .
178(13) . . .
182(13) . . .
196(14) . . .
200(14) . . .
182(13) . . .
184(14) . . .
190(14) . . .
180(13) . . .
172(13) . . .
181(13) . . .
189(14) . . .
171(13) . . .
164(13) . . .
183(14) . . .
182(13) . . .
193(14) . . .
187(14) . . .
182(13) . . .
187(14) . . .
171(13) . . .
194(14) . . .
191(14) . . .
200(14) . . .
187(14) . . .
181(13) . . .
179(13) . . .
160(13) . . .
189(14) . . .
169(13) . . .
178(13) . . .
161(13) . . .
184(14) . . .
166(13) . . .
185(14) . . .
189(14) . . .
189(14) . . .
178(13) . . .
168(13) . . .
181(13) . . .
193(14) . . .
203(14) . . .
195(14) . . .
186(14) . . .
176(13) . . .
191(14) . . .
169(13) . . .
201(14) . . .
178(13) . . .
182(13) . . .
195(14) . . .
187(14) . . .
181(13) . . .
204(14) . . .
194(14) . . .
171(13) . . .
191(14) . . .
156(12) . . .
193(14) . . .
200(14) . . .
185(14) . . .
172(13) . . .
179(13) . . .
165(13) . . .
191(14) . . .
178(13) . . .
172(13) . . .
180(13) . . .
178(13) . . .
184(14) . . .
181(13) . . .
205(14) . . .
200(14) . . .
180(13) . . .
173(13) . . .
188(14) . . .
175(13) . . .
195(14) . . .
179(13) . . .
176(13) . . .
195(14) . . .
170(13) . . .
186(14) . . .
214(15) . . .
195(14) . . .
185(14) . . .
199(14) . . .
198(14) . . .
178(13) . . .
204(14) . . .
203(14) . . .
204(14) . . .
181(13) . . .
197(14) . . .
175(13) . . .
182(13) . . .
164(13) . . .
199(14) . . .
190(14) . . .
208(14) . . .
199(14) . . .
189(14) . . .
180(13) . . .
182(13) . . .
196(14) . . .
200(14) . . .
184(14) . . .
200(14) . . .
189(14) . . .
191(14) . . .
172(13) . . .
162(13) . . .
198(14) . . .
193(14) . . .
190(14) . . .
186(14) . . .
172(13) . . .
209(14) . . .
176(13) . . .
194(14) . . .
186(14) . . .
190(14) . . .
213(15) . . .
200(14) . . .
188(14) . . .
194(14) . . .
202(14) . . .
184(14) . . .
173(13) . . .
174(13) . . .
187(14) . . .
196(14) . . .
177(13) . . .
195(14) . . .
188(14) . . .
204(14) . . .
172(13) . . .
173(13) . . .
177(13) . . .
201(14) . . .
180(13) . . .
186(14) . . .
178(13) . . .
182(13) . . .
193(14) . . .
202(14) . . .
194(14) . . .
190(14) . . .
199(14) . . .
201(14) . . .
207(14) . . .
191(14) . . .
196(14) . . .
203(14) . . .
179(13) . . .
170(13) . . .
191(14) . . .
208(14) . . .
214(15) . . .
201(14) . . .
201(14) . . .
203(14) . . .
193(14) . . .
188(14) . . .
230(15) . . .
199(14) . . .
201(14) . . .
198(14) . . .
210(14) . . .
190(14) . . .
194(14) . . .
200(14) . . .
195(14) . . .
197(14) . . .
203(14) . . .
172(13) . . .
180(13) . . .
173(13) . . .
193(14) . . .
190(14) . . .
174(13) . . .
177(13) . . .
199(14) . . .
200(14) . . .
185(14) . . .
185(14) . . .
194(14) . . .
203(14) . . .
162(13) . . .
209(14) . . .
175(13) . . .
188(14) . . .
203(14) . . .
207(14) . . .
184(14) . . .
197(14) . . .
206(14) . . .
194(14) . . .
192(14) . . .
199(14) . . .
191(14) . . .
208(14) . . .
195(14) . . .
189(14) . . .
190(14) . . .
214(15) . . .
193(14) . . .
229(15) . . .
216(15) . . .
193(14) . . .
211(15) . . .
189(14) . . .
188(14) . . .
196(14) . . .
201(14) . . .
196(14) . . .
215(15) . . .
207(14) . . .
192(14) . . .
209(14) . . .
204(14) . . .
214(15) . . .
187(14) . . .
210(14) . . .
213(15) . . .
194(14) . . .
207(14) . . .
191(14) . . .
212(15) . . .
215(15) . . .
206(14) . . .
241(16) . . .
200(14) . . .
249(16) . . .
233(15) . . .
201(14) . . .
206(14) . . .
200(14) . . .
225(15) . . .
224(15) . . .
206(14) . . .
238(15) . . .
217(15) . . .
216(15) . . .
225(15) . . .
209(14) . . .
223(15) . . .
254(16) . . .
229(15) . . .
263(16) . . .
232(15) . . .
255(16) . . .
236(15) . . .
252(16) . . .
227(15) . . .
223(15) . . .
234(15) . . .
260(16) . . .
240(15) . . .
232(15) . . .
277(17) . . .
256(16) . . .
226(15) . . .
258(16) . . .
289(17) . . .
262(16) . . .
256(16) . . .
265(16) . . .
273(17) . . .
286(17) . . .
274(17) . . .
282(17) . . .
262(16) . . .
289(17) . . .
313(18) . . .
255(16) . . .
267(16) . . .
283(17) . . .
307(18) . . .
277(17) . . .
328(18) . . .
315(18) . . .
313(18) . . .
326(18) . . .
332(18) . . .
317(18) . . .
319(18) . . .
328(18) . . .
301(17) . . .
354(19) . . .
341(18) . . .
355(19) . . .
391(20) . . .
355(19) . . .
399(20) . . .
393(20) . . .
401(20) . . .
420(20) . . .
456(21) . . .
443(21) . . .
443(21) . . .
481(22) . . .
520(23) . . .
529(23) . . .
587(24) . . .
588(24) . . .
583(24) . . .
629(25) . . .
646(25) . . .
679(26) . . .
706(27) . . .
732(27) . . .
777(28) . . .
806(28) . . .
783(28) . . .
919(30) . . .
964(31) . . .
977(31) . . .
1017(32) . . .
1123(34) . . .
1194(35) . . .
1267(36) . . .
1320(36) . . .
1443(38) . . .
1528(39) . . .
1619(40) . . .
1739(42) . . .
1863(43) . . .
2056(45) . . .
2256(47) . . .
2342(48) . . .
2612(51) . . .
2772(53) . . .
3080(55) . . .
3319(58) . . .
3723(61) . . .
4055(64) . . .
4467(67) . . .
4894(70) . . .
5307(73) . . .
5755(76) . . .
6182(79) . . .
6733(82) . . .
7355(86) . . .
7766(88) . . .
7830(88) . . .
8308(91) . . .
8519(92) . . .
8578(93) . . .
8769(94) . . .
8627(93) . . .
8527(92) . . .
8225(91) . . .
7914(89) . . .
7505(87) . . .
7008(84) . . .
6399(80) . . .
6149(78) . . .
5600(75) . . .
5015(71) . . .
4587(68) . . .
4183(65) . . .
3788(62) . . .
3441(59) . . .
3127(56) . . .
2960(54) . . .
2677(52) . . .
2333(48) . . .
2111(46) . . .
1985(45) . . .
1806(42) . . .
1701(41) . . .
1551(39) . . .
1433(38) . . .
1350(37) . . .
1254(35) . . .
1198(35) . . .
1072(33) . . .
1048(32) . . .
994(32) . . .
917(30) . . .
854(29) . . .
823(29) . . .
785(28) . . .
732(27) . . .
715(27) . . .
664(26) . . .
670(26) . . .
589(24) . . .
553(24) . . .
544(23) . . .
542(23) . . .
522(23) . . .
507(23) . . .
483(22) . . .
492(22) . . .
474(22) . . .
466(22) . . .
442(21) . . .
420(20) . . .
422(21) . . .
404(20) . . .
381(20) . . .
377(19) . . .
363(19) . . .
358(19) . . .
335(18) . . .
356(19) . . .
337(18) . . .
336(18) . . .
340(18) . . .
349(19) . . .
315(18) . . .
331(18) . . .
310(18) . . .
315(18) . . .
278(17) . . .
299(17) . . .
301(17) . . .
312(18) . . .
316(18) . . .
278(17) . . .
281(17) . . .
277(17) . . .
264(16) . . .
283(17) . . .
283(17) . . .
291(17) . . .
257(16) . . .
283(17) . . .
272(16) . . .
267(16) . . .
240(15) . . .
272(16) . . .
231(15) . . .
272(16) . . .
237(15) . . .
254(16) . . .
263(16) . . .
235(15) . . .
244(16) . . .
227(15) . . .
227(15) . . .
247(16) . . .
221(15) . . .
235(15) . . .
225(15) . . .
231(15) . . .
227(15) . . .
237(15) . . .
236(15) . . .
223(15) . . .
228(15) . . .
245(16) . . .
240(15) . . .
218(15) . . .
231(15) . . .
260(16) . . .
231(15) . . .
216(15) . . .
202(14) . . .
228(15) . . .
227(15) . . .
236(15) . . .
210(14) . . .
223(15) . . .
221(15) . . .
217(15) . . .
238(15) . . .
208(14) . . .
215(15) . . .
192(14) . . .
212(15) . . .
212(15) . . .
215(15) . . .
208(14) . . .
197(14) . . .
235(15) . . .
208(14) . . .
211(15) . . .
214(15) . . .
206(14) . . .
230(15) . . .
217(15) . . .
192(14) . . .
226(15) . . .
221(15) . . .
252(16) . . .
205(14) . . .
223(15) . . .
210(14) . . .
199(14) . . .
219(15) . . .
197(14) . . .
208(14) . . .
211(15) . . .
205(14) . . .
190(14) . . .
224(15) . . .
203(14) . . .
196(14) . . .
211(15) . . .
187(14) . . .
195(14) . . .
185(14) . . .
200(14) . . .
217(15) . . .
196(14) . . .
196(14) . . .
201(14) . . .
197(14) . . .
193(14) . . .
216(15) . . .
207(14) . . .
208(14) . . .
225(15) . . .
198(14) . . .
206(14) . . .
204(14) . . .
200(14) . . .
184(14) . . .
212(15) . . .
203(14) . . .
197(14) . . .
188(14) . . .
191(14) . . .
207(14) . . .
194(14) . . .
214(15) . . .
197(14) . . .
194(14) . . .
211(15) . . .
208(14) . . .
202(14) . . .
207(14) . . .
215(15) . . .
216(15) . . .
194(14) . . .
211(15) . . .
190(14) . . .
220(15) . . .
233(15) . . .
216(15) . . .
194(14) . . .
205(14) . . .
187(14) . . .
213(15) . . .
195(14) . . .
207(14) . . .
193(14) . . .
202(14) . . .
203(14) . . .
180(13) . . .
208(14) . . .
205(14) . . .
190(14) . . .
218(15) . . .
217(15) . . .
214(15) . . .
207(14) . . .
229(15) . . .
209(14) . . .
210(14) . . .
204(14) . . .
229(15) . . .
206(14) . . .
206(14) . . .
216(15) . . .
205(14) . . .
209(14) . . .
202(14) . . .
236(15) . . .
233(15) . . .
225(15) . . .
206(14) . . .
234(15) . . .
218(15) . . .
230(15) . . .
213(15) . . .
237(15) . . .
253(16) . . .
262(16) . . .
233(15) . . .
248(16) . . .
229(15) . . .
263(16) . . .
235(15) . . .
245(16) . . .
265(16) . . .
238(15) . . .
286(17) . . .
280(17) . . .
271(16) . . .
259(16) . . .
265(16) . . .
306(17) . . .
301(17) . . .
291(17) . . .
315(18) . . .
295(17) . . .
324(18) . . .
325(18) . . .
327(18) . . .
350(19) . . .
339(18) . . .
326(18) . . .
375(19) . . .
386(20) . . .
398(20) . . .
375(19) . . .
390(20) . . .
431(21) . . .
453(21) . . .
441(21) . . .
431(21) . . .
467(22) . . .
526(23) . . .
518(23) . . .
538(23) . . .
575(24) . . .
557(24) . . .
627(25) . . .
619(25) . . .
682(26) . . .
749(27) . . .
773(28) . . .
827(29) . . .
911(30) . . .
943(31) . . .
999(32) . . .
1097(33) . . .
1183(34) . . .
1311(36) . . .
1353(37) . . .
1489(39) . . .
1712(41) . . .
1857(43) . . .
1989(45) . . .
2173(47) . . .
2439(49) . . .
2624(51) . . .
2768(53) . . .
3067(55) . . .
3344(58) . . .
3603(60) . . .
3844(62) . . .
4049(64) . . .
4101(64) . . .
4237(65) . . .
4368(66) . . .
4294(66) . . .
4365(66) . . .
4381(66) . . .
4197(65) . . .
4058(64) . . .
3886(62) . . .
3809(62) . . .
3499(59) . . .
3288(57) . . .
3057(55) . . .
2757(53) . . .
2540(50) . . .
2265(48) . . .
2078(46) . . .
2003(45) . . .
1773(42) . . .
1564(40) . . .
1457(38) . . .
1335(37) . . .
1274(36) . . .
1164(34) . . .
1014(32) . . .
913(30) . . .
906(30) . . .
859(29) . . .
769(28) . . .
707(27) . . .
692(26) . . .
671(26) . . .
612(25) . . .
579(24) . . .
590(24) . . .
532(23) . . .
510(23) . . .
479(22) . . .
469(22) . . .
448(21) . . .
434(21) . . .
403(20) . . .
406(20) . . .
364(19) . . .
385(20) . . .
363(19) . . .
326(18) . . .
341(18) . . .
363(19) . . .
311(18) . . .
313(18) . . .
310(18) . . .
296(17) . . .
312(18) . . .
290(17) . . .
271(16) . . .
303(17) . . .
263(16) . . .
262(16) . . .
277(17) . . .
281(17) . . .
268(16) . . .
253(16) . . .
257(16) . . .
269(16) . . .
248(16) . . .
215(15) . . .
234(15) . . .
224(15) . . .
235(15) . . .
254(16) . . .
237(15) . . .
226(15) . . .
225(15) . . .
206(14) . . .
226(15) . . .
234(15) . . .
223(15) . . .
196(14) . . .
225(15) . . .
217(15) . . .
200(14) . . .
220(15) . . .
244(16) . . .
207(14) . . .
210(14) . . .
223(15) . . .
224(15) . . .
207(14) . . .
197(14) . . .
196(14) . . .
191(14) . . .
204(14) . . .
213(15) . . .
199(14) . . .
204(14) . . .
220(15) . . .
208(14) . . .
215(15) . . .
191(14) . . .
175(13) . . .
219(15) . . .
188(14) . . .
206(14) . . .
202(14) . . .
198(14) . . .
200(14) . . .
212(15) . . .
210(14) . . .
214(15) . . .
175(13) . . .
178(13) . . .
209(14) . . .
183(14) . . .
193(14) . . .
200(14) . . .
198(14) . . .
181(13) . . .
183(14) . . .
178(13) . . .
178(13) . . .
184(14) . . .
175(13) . . .
180(13) . . .
176(13) . . .
170(13) . . .
176(13) . . .
181(13) . . .
171(13) . . .
194(14) . . .
182(13) . . .
173(13) . . .
178(13) . . .
171(13) . . .
175(13) . . .
169(13) . . .
173(13) . . .
188(14) . . .
181(13) . . .
171(13) . . .
185(14) . . .
203(14) . . .
182(13) . . .
176(13) . . .
179(13) . . .
171(13) . . .
180(13) . . .
180(13) . . .
184(14) . . .
137(12) . . .
160(13) . . .
201(14) . . .
181(13) . . .
190(14) . . .
188(14) . . .
156(12) . . .
169(13) . . .
188(14) . . .
175(13) . . .
176(13) . . .
181(13) . . .
177(13) . . .
170(13) . . .
161(13) . . .
188(14) . . .
160(13) . . .
188(14) . . .
172(13) . . .
197(14) . . .
171(13) . . .
169(13) . . .
175(13) . . .
157(13) . . .
187(14) . . .
180(13) . . .
165(13) . . .
174(13) . . .
162(13) . . .
180(13) . . .
175(13) . . .
174(13) . . .
153(12) . . .
186(14) . . .
169(13) . . .
149(12) . . .
171(13) . . .
173(13) . . .
180(13) . . .
188(14) . . .
171(13) . . .
166(13) . . .
156(12) . . .
151(12) . . .
160(13) . . .
181(13) . . .
189(14) . . .
174(13) . . .
172(13) . . .
178(13) . . .
170(13) . . .
179(13) . . .
170(13) . . .
184(14) . . .
172(13) . . .
174(13) . . .
172(13) . . .
166(13) . . .
154(12) . . .
173(13) . . .
164(13) . . .
158(13) . . .
161(13) . . .
144(12) . . .
175(13) . . .
173(13) . . .
170(13) . . .
176(13) . . .
177(13) . . .
171(13) . . .
154(12) . . .
183(14) . . .
171(13) . . .
166(13) . . .
167(13) . . .
174(13) . . .
170(13) . . .
185(14) . . .
170(13) . . .
169(13) . . .
165(13) . . .
171(13) . . .
177(13) . . .
165(13) . . .
182(13) . . .
158(13) . . .
168(13) . . .
177(13) . . .
166(13) . . .
168(13) . . .
183(14) . . .
185(14) . . .
171(13) . . .
153(12) . . .
166(13) . . .
174(13) . . .
159(13) . . .
165(13) . . .
170(13) . . .
186(14) . . .
146(12) . . .
172(13) . . .
168(13) . . .
154(12) . . .
158(13) . . .
167(13) . . .
186(14) . . .
152(12) . . .
176(13) . . .
177(13) . . .
182(13) . . .
162(13) . . .
159(13) . . .
149(12) . . .
156(12) . . .
172(13) . . .
146(12) . . .
162(13) . . .
155(12) . . .
151(12) . . .
175(13) . . .
176(13) . . .
161(13) . . .
137(12) . . .
172(13) . . .
178(13) . . .
163(13) . . .
162(13) . . .
175(13) . . .
153(12) . . .
183(14) . . .
157(13) . . .
156(12) . . .
155(12) . . .
164(13) . . .
156(12) . . .
153(12) . . .
166(13) . . .
160(13) . . .
175(13) . . .
174(13) . . .
160(13) . . .
174(13) . . .
160(13) . . .
166(13) . . .
179(13) . . .
171(13) . . .
181(13) . . .
171(13) . . .
198(14) . . .
173(13) . . .
172(13) . . .
173(13) . . .
182(13) . . .
168(13) . . .
157(13) . . .
160(13) . . .
182(13) . . .
141(12) . . .
168(13) . . .
160(13) . . .
163(13) . . .
176(13) . . .
180(13) . . .
165(13) . . .
161(13) . . .
174(13) . . .
175(13) . . .
184(14) . . .
162(13) . . .
160(13) . . .
160(13) . . .
173(13) . . .
173(13) . . .
164(13) . . .
160(13) . . .
172(13) . . .
163(13) . . .
168(13) . . .
151(12) . . .
168(13) . . .
190(14) . . .
176(13) . . .
167(13) . . .
150(12) . . .
165(13) . . .
174(13) . . .
158(13) . . .
157(13) . . .
165(13) . . .
163(13) . . .
177(13) . . .
181(13) . . .
164(13) . . .
150(12) . . .
174(13) . . .
173(13) . . .
178(13) . . .
171(13) . . .
186(14) . . .
177(13) . . .
180(13) . . .
169(13) . . .
192(14) . . .
169(13) . . .
150(12) . . .
171(13) . . .
170(13) . . .
173(13) . . .
178(13) . . .
164(13) . . .
171(13) . . .
154(12) . . .
174(13) . . .
162(13) . . .
144(12) . . .
167(13) . . .
166(13) . . .
156(12) . . .
164(13) . . .
155(12) . . .
162(13) . . .
178(13) . . .
155(12) . . .
156(12) . . .
175(13) . . .
160(13) . . .
163(13) . . .
168(13) . . .
166(13) . . .
164(13) . . .
160(13) . . .
159(13) . . .
168(13) . . .
177(13) . . .
168(13) . . .
168(13) . . .
161(13) . . .
160(13) . . .
180(13) . . .
154(12) . . .
174(13) . . .
170(13) . . .
160(13) . . .
169(13) . . .
165(13) . . .
171(13) . . .
148(12) . . .
169(13) . . .
180(13) . . .
188(14) . . .
162(13) . . .
170(13) . . .
170(13) . . .
176(13) . . .
153(12) . . .
180(13) . . .
161(13) . . .
172(13) . . .
151(12) . . .
165(13) . . .
157(13) . . .
175(13) . . .
133(12) . . .
152(12) . . .
170(13) . . .
176(13) . . .
151(12) . . .
152(12) . . .
168(13) . . .
164(13) . . .
160(13) . . .
190(14) . . .
165(13) . . .
151(12) . . .
148(12) . . .
175(13) . . .
154(12) . . .
157(13) . . .
187(14) . . .
154(12) . . .
161(13) . . .
158(13) . . .
185(14) . . .
158(13) . . .
167(13) . . .
184(14) . . .
147(12) . . .
166(13) . . .
158(13) . . .
174(13) . . .
154(12) . . .
157(13) . . .
139(12) . . .
150(12) . . .
167(13) . . .
164(13) . . .
166(13) . . .
158(13) . . .
159(13) . . .
166(13) . . .
165(13) . . .
174(13) . . .
156(12) . . .
180(13) . . .
169(13) . . .
138(12) . . .
159(13) . . .
163(13) . . .
143(12) . . .
153(12) . . .
161(13) . . .
165(13) . . .
169(13) . . .
175(13) . . .
182(13) . . .
162(13) . . .
169(13) . . .
173(13) . . .
161(13) . . .
194(14) . . .
171(13) . . .
157(13) . . .
164(13) . . .
175(13) . . .
157(13) . . .
149(12) . . .
156(12) . . .
169(13) . . .
166(13) . . .
159(13) . . .
144(12) . . .
143(12) . . .
168(13) . . .
154(12) . . .
154(12) . . .
155(12) . . .
147(12) . . .
175(13) . . .
170(13) . . .
157(13) . . .
142(12) . . .
152(12) . . .
133(12) . . .
143(12) . . .
158(13) . . .
160(13) . . .
157(13) . . .
149(12) . . .
156(12) . . .
161(13) . . .
158(13) . . .
170(13) . . .
171(13) . . .
140(12) . . .
160(13) . . .
152(12) . . .
183(14) . . .
164(13) . . .
160(13) . . .
155(12) . . .
155(12) . . .
148(12) . . .
153(12) . . .
151(12) . . .
179(13) . . .
173(13) . . .
169(13) . . .
151(12) . . .
171(13) . . .
158(13) . . .
178(13) . . .
190(14) . . .
167(13) . . .
154(12) . . .
167(13) . . .
156(12) . . .
143(12) . . .
160(13) . . .
173(13) . . .
146(12) . . .
169(13) . . .
163(13) . . .
161(13) . . .
154(12) . . .
170(13) . . .
171(13) . . .
144(12) . . .
153(12) . . .
170(13) . . .
160(13) . . .
165(13) . . .
142(12) . . .
156(12) . . .
165(13) . . .
170(13) . . .
149(12) . . .
174(13) . . .
172(13) . . .
149(12) . . .
162(13) . . .
169(13) . . .
180(13) . . .
159(13) . . .
158(13) . . .
151(12) . . .
160(13) . . .
153(12) . . .
139(12) . . .
166(13) . . .
153(12) . . .
162(13) . . .
168(13) . . .
149(12) . . .
177(13) . . .
163(13) . . .
168(13) . . .
152(12) . . .
165(13) . . .
166(13) . . .
174(13) . . .
171(13) . . .
172(13) . . .
179(13) . . .
171(13) . . .
163(13) . . .
157(13) . . .
160(13) . . .
156(12) . . .
156(12) . . .
161(13) . . .
161(13) . . .
147(12) . . .
161(13) . . .
160(13) . . .
160(13) . . .
142(12) . . .
146(12) . . .
167(13) . . .
156(12) . . .
164(13) . . .
182(13) . . .
136(12) . . .
128(11) . . .
159(13) . . .
170(13) . . .
147(12) . . .
140(12) . . .
166(13) . . .
154(12) . . .
159(13) . . .
160(13) . . .
158(13) . . .
157(13) . . .
147(12) . . .
172(13) . . .
173(13) . . .
164(13) . . .
151(12) . . .
173(13) . . .
149(12) . . .
164(13) . . .
156(12) . . .
152(12) . . .
161(13) . . .
165(13) . . .
147(12) . . .
172(13) . . .
135(12) . . .
165(13) . . .
153(12) . . .
140(12) . . .
153(12) . . .
142(12) . . .
173(13) . . .
158(13) . . .
149(12) . . .
161(13) . . .
156(12) . . .
166(13) . . .
163(13) . . .
173(13) . . .
160(13) . . .
155(12) . . .
166(13) . . .
189(14) . . .
175(13) . . .
171(13) . . .
147(12) . . .
169(13) . . .
153(12) . . .
155(12) . . .
155(12) . . .
180(13) . . .
175(13) . . .
155(12) . . .
173(13) . . .
165(13) . . .
158(13) . . .
148(12) . . .
132(11) . . .
173(13) . . .
162(13) . . .
138(12) . . .
147(12) . . .
161(13) . . .
159(13) . . .
162(13) . . .
173(13) . . .
172(13) . . .
165(13) . . .
160(13) . . .
169(13) . . .
153(12) . . .
150(12) . . .
165(13) . . .
155(12) . . .
153(12) . . .
164(13) . . .
164(13) . . .
149(12) . . .
150(12) . . .
144(12) . . .
177(13) . . .
162(13) . . .
157(13) . . .
152(12) . . .
150(12) . . .
149(12) . . .
156(12) . . .
184(14) . . .
169(13) . . .
157(13) . . .
168(13) . . .
152(12) . . .
138(12) . . .
171(13) . . .
163(13) . . .
174(13) . . .
162(13) . . .
162(13) . . .
166(13) . . .
155(12) . . .
158(13) . . .
157(13) . . .
165(13) . . .
158(13) . . .
146(12) . . .
165(13) . . .
165(13) . . .
184(14) . . .
148(12) . . .
186(14) . . .
153(12) . . .
155(12) . . .
152(12) . . .
159(13) . . .
158(13) . . .
178(13) . . .
151(12) . . .
173(13) . . .
173(13) . . .
156(12) . . .
165(13) . . .
173(13) . . .
156(12) . . .
132(11) . . .
150(12) . . .
137(12) . . .
165(13) . . .
158(13) . . .
147(12) . . .
158(13) . . .
149(12) . . .
169(13) . . .
177(13) . . .
145(12) . . .
145(12) . . .
148(12) . . .
161(13) . . .
159(13) . . .
168(13) . . .
168(13) . . .
159(13) . . .
152(12) . . .
151(12) . . .
173(13) . . .
169(13) . . .
168(13) . . .
166(13) . . .
159(13) . . .
177(13) . . .
152(12) . . .
144(12) . . .
175(13) . . .
179(13) . . .
164(13) . . .
157(13) . . .
142(12) . . .
165(13) . . .
157(13) . . .
151(12) . . .
160(13) . . .
165(13) . . .
176(13) . . .
160(13) . . .
163(13) . . .
154(12) . . .
163(13) . . .
170(13) . . .
156(12) . . .
161(13) . . .
163(13) . . .
158(13) . . .
159(13) . . .
171(13) . . .
164(13) . . .
174(13) . . .
166(13) . . .
179(13) . . .
162(13) . . .
152(12) . . .
182(13) . . .
167(13) . . .
166(13) . . .
171(13) . . .
168(13) . . .
170(13) . . .
183(14) . . .
166(13) . . .
162(13) . . .
168(13) . . .
154(12) . . .
161(13) . . .
162(13) . . .
164(13) . . .
165(13) . . .
177(13) . . .
166(13) . . .
171(13) . . .
178(13) . . .
166(13) . . .
155(12) . . .
162(13) . . .
164(13) . . .
153(12) . . .
151(12) . . .
164(13) . . .
177(13) . . .
157(13) . . .
158(13) . . .
140(12) . . .
161(13) . . .
176(13) . . .
173(13) . . .
157(13) . . .
170(13) . . .
160(13) . . .
146(12) . . .
170(13) . . .
155(12) . . .
155(12) . . .
181(13) . . .
168(13) . . .
178(13) . . .
166(13) . . .
154(12) . . .
169(13) . . .
181(13) . . .
155(12) . . .
170(13) . . .
170(13) . . .
165(13) . . .
163(13) . . .
167(13) . . .
173(13) . . .
167(13) . . .
143(12) . . .
154(12) . . .
171(13) . . .
140(12) . . .
164(13) . . .
161(13) . . .
161(13) . . .
153(12) . . .
176(13) . . .
157(13) . . .
142(12) . . .
139(12) . . .
172(13) . . .
159(13) . . .
164(13) . . .
165(13) . . .
144(12) . . .
168(13) . . .
155(12) . . .
165(13) . . .
151(12) . . .
173(13) . . .
165(13) . . .
172(13) . . .
159(13) . . .
141(12) . . .
156(12) . . .
161(13) . . .
160(13) . . .
143(12) . . .
163(13) . . .
145(12) . . .
162(13) . . .
166(13) . . .
145(12) . . .
148(12) . . .
136(12) . . .
142(12) . . .
162(13) . . .
173(13) . . .
168(13) . . .
145(12) . . .
148(12) . . .
156(12) . . .
176(13) . . .
168(13) . . .
168(13) . . .
173(13) . . .
153(12) . . .
159(13) . . .
176(13) . . .
173(13) . . .
151(12) . . .
174(13) . . .
158(13) . . .
159(13) . . .
160(13) . . .
145(12) . . .
165(13) . . .
165(13) . . .
166(13) . . .
153(12) . . .
151(12) . . .
145(12) . . .
165(13) . . .
164(13) . . .
169(13) . . .
172(13) . . .
164(13) . . .
151(12) . . .
188(14) . . .
159(13) . . .
151(12) . . .
148(12) . . .
154(12) . . .
165(13) . . .
162(13) . . .
153(12) . . .
178(13) . . .
152(12) . . .
166(13) . . .
155(12) . . .
147(12) . . .
141(12) . . .
153(12) . . .
171(13) . . .
153(12) . . .
171(13) . . .
180(13) . . .
140(12) . . .
160(13) . . .
152(12) . . .
138(12) . . .
157(13) . . .
175(13) . . .
161(13) . . .
159(13) . . .
186(14) . . .
155(12) . . .
168(13) . . .
151(12) . . .
174(13) . . .
176(13) . . .
150(12) . . .
146(12) . . .
151(12) . . .
171(13) . . .
176(13) . . .
169(13) . . .
154(12) . . .
169(13) . . .
157(13) . . .
172(13) . . .
170(13) . . .
157(13) . . .
170(13) . . .
158(13) . . .
154(12) . . .
185(14) . . .
172(13) . . .
168(13) . . .
161(13) . . .
175(13) . . .
160(13) . . .
155(12) . . .
144(12) . . .
165(13) . . .
175(13) . . .
182(13) . . .
167(13) . . .
169(13) . . .
169(13) . . .
175(13) . . .
164(13) . . .
166(13) . . .
154(12) . . .
159(13) . . .
156(12) . . .
179(13) . . .
146(12) . . .
164(13) . . .
164(13) . . .
173(13) . . .
166(13) . . .
179(13) . . .
152(12) . . .
177(13) . . .
170(13) . . .
149(12) . . .
154(12) . . .
149(12) . . .
156(12) . . .
183(14) . . .
169(13) . . .
161(13) . . .
169(13) . . .
180(13) . . .
161(13) . . .
170(13) . . .
180(13) . . .
149(12) . . .
139(12) . . .
150(12) . . .
172(13) . . .
172(13) . . .
182(13) . . .
165(13) . . .
154(12) . . .
148(12) . . .
173(13) . . .
150(12) . . .
154(12) . . .
171(13) . . .
168(13) . . .
162(13) . . .
152(12) . . .
174(13) . . .
163(13) . . .
156(12) . . .
175(13) . . .
168(13) . . .
185(14) . . .
149(12) . . .
163(13) . . .
165(13) . . .
166(13) . . .
159(13) . . .
160(13) . . .
166(13) . . .
155(12) . . .
166(13) . . .
164(13) . . .
163(13) . . .
160(13) . . .
157(13) . . .
170(13) . . .
165(13) . . .
150(12) . . .
130(11) . . .
173(13) . . .
179(13) . . .
193(14) . . .
176(13) . . .
157(13) . . .
163(13) . . .
154(12) . . .
183(14) . . .
174(13) . . .
156(12) . . .
145(12) . . .
163(13) . . .
154(12) . . .
154(12) . . .
164(13) . . .
160(13) . . .
155(12) . . .
163(13) . . .
161(13) . . .
163(13) . . .
169(13) . . .
159(13) . . .
176(13) . . .
174(13) . . .
162(13) . . .
152(12) . . .
160(13) . . .
162(13) . . .
182(13) . . .
182(13) . . .
185(14) . . .
166(13) . . .
175(13) . . .
185(14) . . .
166(13) . . .
173(13) . . .
163(13) . . .
188(14) . . .
181(13) . . .
155(12) . . .
160(13) . . .
173(13) . . .
158(13) . . .
150(12) . . .
169(13) . . .
181(13) . . .
166(13) . . .
165(13) . . .
188(14) . . .
152(12) . . .
169(13) . . .
167(13) . . .
192(14) . . .
179(13) . . .
169(13) . . .
160(13) . . .
150(12) . . .
160(13) . . .
166(13) . . .
166(13) . . .
152(12) . . .
171(13) . . .
163(13) . . .
175(13) . . .
172(13) . . .
178(13) . . .
172(13) . . .
180(13) . . .
160(13) . . .
181(13) . . .
174(13) . . .
157(13) . . .
171(13) . . .
171(13) . . .
162(13) . . .
173(13) . . .
181(13) . . .
159(13) . . .
162(13) . . .
165(13) . . .
156(12) . . .
183(14) . . .
154(12) . . .
176(13) . . .
180(13) . . .
162(13) . . .
174(13) . . .
185(14) . . .
176(13) . . .
168(13) . . .
195(14) . . .
165(13) . . .
202(14) . . .
197(14) . . .
181(13) . . .
194(14) . . .
184(14) . . .
183(14) . . .
189(14) . . .
191(14) . . .
195(14) . . .
197(14) . . .
194(14) . . .
205(14) . . .
189(14) . . .
200(14) . . .
197(14) . . .
195(14) . . .
192(14) . . .
185(14) . . .
212(15) . . .
188(14) . . .
212(15) . . .
199(14) . . .
211(15) . . .
218(15) . . .
216(15) . . .
222(15) . . .
230(15) . . .
209(14) . . .
224(15) . . .
235(15) . . .
234(15) . . .
230(15) . . .
221(15) . . .
253(16) . . .
253(16) . . .
238(15) . . .
232(15) . . .
244(16) . . .
255(16) . . .
256(16) . . .
273(17) . . .
282(17) . . .
276(17) . . .
288(17) . . .
291(17) . . .
307(18) . . .
305(17) . . .
296(17) . . .
316(18) . . .
300(17) . . .
306(17) . . .
310(18) . . .
334(18) . . .
353(19) . . .
349(19) . . .
370(19) . . .
374(19) . . .
353(19) . . .
414(20) . . .
414(20) . . .
408(20) . . .
440(21) . . .
475(22) . . .
459(21) . . .
511(23) . . .
550(23) . . .
508(23) . . .
562(24) . . .
557(24) . . .
594(24) . . .
632(25) . . .
657(26) . . .
731(27) . . .
684(26) . . .
809(28) . . .
790(28) . . .
853(29) . . .
917(30) . . .
1015(32) . . .
1053(32) . . .
1100(33) . . .
1247(35) . . .
1285(36) . . .
1461(38) . . .
1538(39) . . .
1675(41) . . .
1772(42) . . .
1884(43) . . .
2072(46) . . .
2223(47) . . .
2478(50) . . .
2624(51) . . .
2847(53) . . .
3002(55) . . .
3167(56) . . .
3471(59) . . .
3710(61) . . .
3809(62) . . .
3973(63) . . .
4085(64) . . .
4165(65) . . .
4339(66) . . .
4341(66) . . .
4431(67) . . .
4397(66) . . .
4238(65) . . .
4235(65) . . .
4016(63) . . .
3938(63) . . .
3726(61) . . .
3636(60) . . .
3318(58) . . .
3123(56) . . .
2926(54) . . .
2686(52) . . .
2485(50) . . .
2274(48) . . .
2135(46) . . .
1974(44) . . .
1868(43) . . .
1634(40) . . .
1477(38) . . .
1439(38) . . .
1304(36) . . .
1182(34) . . .
1073(33) . . .
1015(32) . . .
968(31) . . .
923(30) . . .
861(29) . . .
821(29) . . .
758(28) . . .
748(27) . . .
682(26) . . .
609(25) . . .
620(25) . . .
611(25) . . .
542(23) . . .
544(23) . . .
494(22) . . .
508(23) . . .
487(22) . . .
459(21) . . .
439(21) . . .
417(20) . . .
437(21) . . .
387(20) . . .
410(20) . . .
409(20) . . .
367(19) . . .
351(19) . . .
353(19) . . .
335(18) . . .
325(18) . . .
305(17) . . .
315(18) . . .
306(17) . . .
281(17) . . .
296(17) . . .
271(16) . . .
251(16) . . .
284(17) . . .
269(16) . . .
271(16) . . .
265(16) . . .
251(16) . . .
259(16) . . .
255(16) . . .
242(16) . . .
229(15) . . .
245(16) . . .
223(15) . . .
220(15) . . .
215(15) . . .
229(15) . . .
215(15) . . .
218(15) . . .
217(15) . . .
200(14) . . .
209(14) . . .
200(14) . . .
221(15) . . .
212(15) . . .
201(14) . . .
193(14) . . .
218(15) . . .
208(14) . . .
199(14) . . .
236(15) . . .
182(13) . . .
190(14) . . .
208(14) . . .
209(14) . . .
197(14) . . .
203(14) . . .
217(15) . . .
186(14) . . .
197(14) . . .
202(14) . . .
173(13) . . .
197(14) . . .
171(13) . . .
177(13) . . .
172(13) . . .
197(14) . . .
185(14) . . .
172(13) . . .
162(13) . . .
169(13) . . .
170(13) . . .
178(13) . . .
167(13) . . .
206(14) . . .
182(13) . . .
169(13) . . .
182(13) . . .
170(13) . . .
159(13) . . .
157(13) . . .
161(13) . . .
183(14) . . .
177(13) . . .
173(13) . . .
162(13) . . .
181(13) . . .
178(13) . . .
177(13) . . .
181(13) . . .
187(14) . . .
163(13) . . .
180(13) . . .
189(14) . . .
158(13) . . .
184(14) . . .
164(13) . . .
167(13) . . .
186(14) . . .
169(13) . . .
150(12) . . .
169(13) . . .
171(13) . . .
173(13) . . .
186(14) . . .
170(13) . . .
165(13) . . .
168(13) . . .
164(13) . . .
145(12) . . .
168(13) . . .
156(12) . . .
158(13) . . .
152(12) . . .
171(13) . . .
151(12) . . .
147(12) . . .
147(12) . . .
167(13) . . .
145(12) . . .
155(12) . . .
155(12) . . .
155(12) . . .
171(13) . . .
146(12) . . .
184(14) . . .
150(12) . . .
165(13) . . .
170(13) . . .
181(13) . . .
154(12) . . .
144(12) . . .
169(13) . . .
133(12) . . .
167(13) . . .
161(13) . . .
167(13) . . .
150(12) . . .
150(12) . . .
152(12) . . .
144(12) . . .
155(12) . . .
153(12) . . .
160(13) . . .
164(13) . . .
178(13) . . .
153(12) . . .
154(12) . . .
160(13) . . .
150(12) . . .
153(12) . . .
142(12) . . .
157(13) . . .
153(12) . . .
161(13) . . .
168(13) . . .
146(12) . . .
159(13) . . .
152(12) . . .
166(13) . . .
152(12) . . .
154(12) . . .
152(12) . . .
150(12) . . .
162(13) . . .
144(12) . . .
139(12) . . .
162(13) . . .
131(11) . . .
146(12) . . .
164(13) . . .
160(13) . . .
135(12) . . .
143(12) . . .
144(12) . . .
149(12) . . .
155(12) . . .
144(12) . . .
153(12) . . .
142(12) . . .
146(12) . . .
148(12) . . .
154(12) . . .
172(13) . . .
162(13) . . .
140(12) . . .
156(12) . . .
159(13) . . .
155(12) . . .
173(13) . . .
142(12) . . .
119(11) . . .
167(13) . . .
147(12) . . .
139(12) . . .
158(13) . . .
153(12) . . .
155(12) . . .
150(12) . . .
132(11) . . .
150(12) . . .
160(13) . . .
170(13) . . .
142(12) . . .
159(13) . . .
165(13) . . .
143(12) . . .
146(12) . . .
157(13) . . .
140(12) . . .
151(12) . . .
146(12) . . .
149(12) . . .
170(13) . . .
162(13) . . .
146(12) . . .
172(13) . . .
166(13) . . .
157(13) . . .
150(12) . . .
134(12) . . .
157(13) . . .
134(12) . . .
145(12) . . .
157(13) . . .
148(12) . . .
159(13) . . .
134(12) . . .
134(12) . . .
154(12) . . .
156(12) . . .
151(12) . . .
157(13) . . .
151(12) . . .
143(12) . . .
152(12) . . .
147(12) . . .
143(12) . . .
173(13) . . .
154(12) . . .
158(13) . . .
159(13) . . .
139(12) . . .
154(12) . . .
156(12) . . .
160(13) . . .
157(13) . . .
153(12) . . .
136(12) . . .
152(12) . . .
170(13) . . .
152(12) . . .
164(13) . . .
152(12) . . .
153(12) . . .
155(12) . . .
167(13) . . .
150(12) . . .
139(12) . . .
144(12) . . .
155(12) . . .
146(12) . . .
186(14) . . .
141(12) . . .
171(13) . . .
140(12) . . .
163(13) . . .
149(12) . . .
146(12) . . .
157(13) . . .
154(12) . . .
161(13) . . .
145(12) . . .
142(12) . . .
148(12) . . .
139(12) . . .
134(12) . . .
157(13) . . .
162(13) . . .
133(12) . . .
154(12) . . .
142(12) . . .
132(11) . . .
142(12) . . .
163(13) . . .
155(12) . . .
145(12) . . .
133(12) . . .
140(12) . . .
129(11) . . .
167(13) . . .
146(12) . . .
152(12) . . .
148(12) . . .
141(12) . . .
128(11) . . .
139(12) . . .
152(12) . . .
137(12) . . .
141(12) . . .
143(12) . . .
140(12) . . .
168(13) . . .
144(12) . . .
147(12) . . .
149(12) . . .
153(12) . . .
161(13) . . .
140(12) . . .
165(13) . . .
164(13) . . .
133(12) . . .
149(12) . . .
159(13) . . .
145(12) . . .
150(12) . . .
166(13) . . .
152(12) . . .
132(11) . . .
132(11) . . .
147(12) . . .
154(12) . . .
140(12) . . .
153(12) . . .
155(12) . . .
151(12) . . .
146(12) . . .
139(12) . . .
159(13) . . .
152(12) . . .
138(12) . . .
140(12) . . .
144(12) . . .
161(13) . . .
148(12) . . .
161(13) . . .
143(12) . . .
126(11) . . .
143(12) . . .
143(12) . . .
150(12) . . .
130(11) . . .
138(12) . . .
147(12) . . .
144(12) . . .
147(12) . . .
142(12) . . .
140(12) . . .
144(12) . . .
169(13) . . .
136(12) . . .
157(13) . . .
134(12) . . .
157(13) . . .
144(12) . . .
156(12) . . .
131(11) . . .
147(12) . . .
147(12) . . .
156(12) . . .
154(12) . . .
166(13) . . .
141(12) . . .
162(13) . . .
143(12) . . .
155(12) . . .
143(12) . . .
143(12) . . .
153(12) . . .
160(13) . . .
160(13) . . .
133(12) . . .
156(12) . . .
160(13) . . .
147(12) . . .
152(12) . . .
133(12) . . .
158(13) . . .
138(12) . . .
162(13) . . .
155(12) . . .
134(12) . . .
147(12) . . .
135(12) . . .
153(12) . . .
152(12) . . .
167(13) . . .
132(11) . . .
133(12) . . .
128(11) . . .
154(12) . . .
145(12) . . .
141(12) . . .
143(12) . . .
147(12) . . .
142(12) . . .
149(12) . . .
129(11) . . .
138(12) . . .
134(12) . . .
158(13) . . .
156(12) . . .
124(11) . . .
124(11) . . .
117(11) . . .
140(12) . . .
151(12) . . .
140(12) . . .
140(12) . . .
130(11) . . .
134(12) . . .
146(12) . . .
104(10) . . .
152(12) . . .
163(13) . . .
127(11) . . .
152(12) . . .
144(12) . . .
130(11) . . .
131(11) . . .
130(11) . . .
139(12) . . .
137(12) . . .
157(13) . . .
142(12) . . .
154(12) . . .
152(12) . . .
151(12) . . .
144(12) . . .
147(12) . . .
130(11) . . .
135(12) . . .
151(12) . . .
147(12) . . .
146(12) . . .
153(12) . . .
141(12) . . .
126(11) . . .
142(12) . . .
132(11) . . .
164(13) . . .
144(12) . . .
158(13) . . .
136(12) . . .
139(12) . . .
149(12) . . .
154(12) . . .
147(12) . . .
149(12) . . .
126(11) . . .
123(11) . . .
142(12) . . .
136(12) . . .
124(11) . . .
152(12) . . .
156(12) . . .
158(13) . . .
151(12) . . .
154(12) . . .
141(12) . . .
146(12) . . .
141(12) . . .
148(12) . . .
163(13) . . .
138(12) . . .
142(12) . . .
159(13) . . .
157(13) . . .
131(11) . . .
159(13) . . .
139(12) . . .
139(12) . . .
149(12) . . .
155(12) . . .
134(12) . . .
155(12) . . .
145(12) . . .
150(12) . . .
138(12) . . .
160(13) . . .
152(12) . . .
151(12) . . .
142(12) . . .
122(11) . . .
147(12) . . .
147(12) . . .
139(12) . . .
154(12) . . .
143(12) . . .
159(13) . . .
149(12) . . .
152(12) . . .
131(11) . . .
140(12) . . .
135(12) . . .
156(12) . . .
145(12) . . .
134(12) . . .
141(12) . . .
149(12) . . .
167(13) . . .
157(13) . . .
147(12) . . .
158(13) . . .
171(13) . . .
159(13) . . .
149(12) . . .
157(13) . . .
135(12) . . .
153(12) . . .
164(13) . . .
149(12) . . .
146(12) . . .
150(12) . . .
156(12) . . .
156(12) . . .
153(12) . . .
143(12) . . .
145(12) . . .
150(12) . . .
144(12) . . .
154(12) . . .
175(13) . . .
148(12) . . .
143(12) . . .
162(13) . . .
136(12) . . .
149(12) . . .
133(12) . . .
130(11) . . .
139(12) . . .
146(12) . . .
156(12) . . .
137(12) . . .
138(12) . . .
138(12) . . .
172(13) . . .
148(12) . . .
146(12) . . .
147(12) . . .
147(12) . . .
136(12) . . .
138(12) . . .
142(12) . . .
151(12) . . .
150(12) . . .
133(12) . . .
126(11) . . .
134(12) . . .
145(12) . . .
153(12) . . .
161(13) . . .
142(12) . . .
155(12) . . .
169(13) . . .
141(12) . . .
139(12) . . .
134(12) . . .
148(12) . . .
157(13) . . .
132(11) . . .
159(13) . . .
132(11) . . .
135(12) . . .
151(12) . . .
144(12) . . .
138(12) . . .
155(12) . . .
147(12) . . .
129(11) . . .
136(12) . . .
154(12) . . .
148(12) . . .
156(12) . . .
140(12) . . .
139(12) . . .
163(13) . . .
144(12) . . .
135(12) . . .
176(13) . . .
153(12) . . .
152(12) . . .
142(12) . . .
171(13) . . .
168(13) . . .
152(12) . . .
133(12) . . .
156(12) . . .
151(12) . . .
137(12) . . .
144(12) . . .
147(12) . . .
147(12) . . .
141(12) . . .
151(12) . . .
150(12) . . .
150(12) . . .
151(12) . . .
142(12) . . .
152(12) . . .
160(13) . . .
156(12) . . .
137(12) . . .
152(12) . . .
178(13) . . .
146(12) . . .
162(13) . . .
141(12) . . .
153(12) . . .
146(12) . . .
137(12) . . .
136(12) . . .
154(12) . . .
151(12) . . .
159(13) . . .
151(12) . . .
155(12) . . .
136(12) . . .
131(11) . . .
156(12) . . .
142(12) . . .
154(12) . . .
154(12) . . .
148(12) . . .
141(12) . . .
141(12) . . .
179(13) . . .
154(12) . . .
160(13) . . .
158(13) . . .
150(12) . . .
134(12) . . .
140(12) . . .
156(12) . . .
163(13) . . .
158(13) . . .
153(12) . . .
153(12) . . .
151(12) . . .
169(13) . . .
129(11) . . .
146(12) . . .
153(12) . . .
155(12) . . .
152(12) . . .
163(13) . . .
142(12) . . .
115(11) . . .
140(12) . . .
131(11) . . .
161(13) . . .
155(12) . . .
159(13) . . .
156(12) . . .
125(11) . . .
132(11) . . .
132(11) . . .
138(12) . . .
137(12) . . .
157(13) . . .
158(13) . . .
150(12) . . .
135(12) . . .
165(13) . . .
149(12) . . .
135(12) . . .
137(12) . . .
141(12) . . .
138(12) . . .
137(12) . . .
154(12) . . .
158(13) . . .
148(12) . . .
123(11) . . .
150(12) . . .
175(13) . . .
182(13) . . .
142(12) . . .
161(13) . . .
152(12) . . .
149(12) . . .
165(13) . . .
143(12) . . .
148(12) . . .
139(12) . . .
152(12) . . .
127(11) . . .
171(13) . . .
141(12) . . .
162(13) . . .
143(12) . . .
152(12) . . .
152(12) . . .
151(12) . . .
146(12) . . .
152(12) . . .
130(11) . . .
165(13) . . .
155(12) . . .
154(12) . . .
128(11) . . .
144(12) . . .
153(12) . . .
160(13) . . .
149(12) . . .
144(12) . . .
134(12) . . .
161(13) . . .
174(13) . . .
152(12) . . .
160(13) . . .
156(12) . . .
149(12) . . .
153(12) . . .
148(12) . . .
142(12) . . .
129(11) . . .
158(13) . . .
154(12) . . .
138(12) . . .
140(12) . . .
146(12) . . .
131(11) . . .
162(13) . . .
141(12) . . .
159(13) . . .
172(13) . . .
142(12) . . .
142(12) . . .
158(13) . . .
153(12) . . .
157(13) . . .
160(13) . . .
167(13) . . .
161(13) . . .
151(12) . . .
147(12) . . .
170(13) . . .
158(13) . . .
160(13) . . .
141(12) . . .
156(12) . . .
150(12) . . .
165(13) . . .
151(12) . . .
159(13) . . .
163(13) . . .
154(12) . . .
163(13) . . .
152(12) . . .
155(12) . . .
134(12) . . .
159(13) . . .
145(12) . . .
171(13) . . .
172(13) . . .
160(13) . . .
137(12) . . .
163(13) . . .
166(13) . . .
144(12) . . .
175(13) . . .
171(13) . . .
145(12) . . .
154(12) . . .
166(13) . . .
169(13) . . .
163(13) . . .
164(13) . . .
165(13) . . .
176(13) . . .
160(13) . . .
172(13) . . .
154(12) . . .
151(12) . . .
159(13) . . .
189(14) . . .
149(12) . . .
157(13) . . .
151(12) . . .
169(13) . . .
183(14) . . .
162(13) . . .
149(12) . . .
174(13) . . .
174(13) . . .
184(14) . . .
180(13) . . .
178(13) . . .
200(14) . . .
170(13) . . .
178(13) . . .
176(13) . . .
162(13) . . .
180(13) . . .
184(14) . . .
197(14) . . .
189(14) . . .
190(14) . . .
174(13) . . .
173(13) . . .
178(13) . . .
195(14) . . .
177(13) . . .
175(13) . . .
190(14) . . .
190(14) . . .
194(14) . . .
206(14) . . .
190(14) . . .
176(13) . . .
208(14) . . .
184(14) . . .
206(14) . . .
211(15) . . .
208(14) . . .
188(14) . . .
184(14) . . .
199(14) . . .
186(14) . . .
219(15) . . .
208(14) . . .
213(15) . . .
212(15) . . .
214(15) . . .
219(15) . . .
236(15) . . .
214(15) . . .
245(16) . . .
243(16) . . .
232(15) . . .
251(16) . . .
257(16) . . .
245(16) . . .
298(17) . . .
290(17) . . .
267(16) . . .
279(17) . . .
268(16) . . .
315(18) . . .
296(17) . . .
311(18) . . .
317(18) . . .
318(18) . . .
312(18) . . .
320(18) . . .
358(19) . . .
386(20) . . .
388(20) . . .
394(20) . . .
394(20) . . .
425(21) . . .
406(20) . . .
442(21) . . .
448(21) . . .
472(22) . . .
502(22) . . .
537(23) . . .
587(24) . . .
590(24) . . .
616(25) . . .
682(26) . . .
674(26) . . .
727(27) . . .
745(27) . . .
860(29) . . .
863(29) . . .
980(31) . . .
1084(33) . . .
1071(33) . . .
1170(34) . . .
1254(35) . . .
1267(36) . . .
1417(38) . . .
1567(40) . . .
1627(40) . . .
1769(42) . . .
1916(44) . . .
2093(46) . . .
2254(47) . . .
2432(49) . . .
2617(51) . . .
2774(53) . . .
2932(54) . . .
3073(55) . . .
3277(57) . . .
3286(57) . . .
3382(58) . . .
3503(59) . . .
3535(59) . . .
3417(58) . . .
3485(59) . . .
3414(58) . . .
3278(57) . . .
3146(56) . . .
3111(56) . . .
2930(54) . . .
2753(52) . . .
2606(51) . . .
2434(49) . . .
2303(48) . . .
2103(46) . . .
1996(45) . . .
1808(43) . . .
1616(40) . . .
1513(39) . . .
1402(37) . . .
1251(35) . . .
1174(34) . . .
1081(33) . . .
1050(32) . . .
981(31) . . .
928(30) . . .
782(28) . . .
796(28) . . .
733(27) . . .
629(25) . . .
669(26) . . .
583(24) . . .
582(24) . . .
556(24) . . .
521(23) . . .
452(21) . . .
466(22) . . .
441(21) . . .
437(21) . . .
430(21) . . .
403(20) . . .
384(20) . . .
360(19) . . .
357(19) . . .
369(19) . . .
351(19) . . .
320(18) . . .
323(18) . . .
310(18) . . .
278(17) . . .
292(17) . . .
279(17) . . .
279(17) . . .
287(17) . . .
283(17) . . .
270(16) . . .
247(16) . . .
254(16) . . .
261(16) . . .
261(16) . . .
231(15) . . .
241(16) . . .
228(15) . . .
226(15) . . .
206(14) . . .
223(15) . . .
212(15) . . .
247(16) . . .
214(15) . . .
234(15) . . .
213(15) . . .
196(14) . . .
215(15) . . .
206(14) . . .
201(14) . . .
203(14) . . .
187(14) . . .
225(15) . . .
184(14) . . .
189(14) . . .
179(13) . . .
172(13) . . .
175(13) . . .
193(14) . . .
173(13) . . .
210(14) . . .
188(14) . . .
172(13) . . .
155(12) . . .
184(14) . . .
163(13) . . .
180(13) . . .
166(13) . . .
175(13) . . .
169(13) . . .
164(13) . . .
182(13) . . .
146(12) . . .
174(13) . . .
177(13) . . .
165(13) . . .
166(13) . . .
189(14) . . .
181(13) . . .
152(12) . . .
183(14) . . .
145(12) . . .
154(12) . . .
148(12) . . .
156(12) . . .
168(13) . . .
144(12) . . .
162(13) . . .
163(13) . . .
163(13) . . .
172(13) . . .
167(13) . . .
170(13) . . .
163(13) . . .
152(12) . . .
157(13) . . .
158(13) . . .
173(13) . . .
161(13) . . .
166(13) . . .
143(12) . . .
152(12) . . .
154(12) . . .
164(13) . . .
142(12) . . .
163(13) . . .
148(12) . . .
141(12) . . .
156(12) . . .
159(13) . . .
159(13) . . .
140(12) . . .
142(12) . . .
163(13) . . .
163(13) . . .
162(13) . . .
140(12) . . .
141(12) . . .
144(12) . . .
144(12) . . .
165(13) . . .
145(12) . . .
160(13) . . .
159(13) . . .
155(12) . . .
149(12) . . .
138(12) . . .
152(12) . . .
139(12) . . .
153(12) . . .
154(12) . . .
140(12) . . .
151(12) . . .
154(12) . . .
145(12) . . .
142(12) . . .
173(13) . . .
145(12) . . .
148(12) . . .
150(12) . . .
162(13) . . .
173(13) . . .
164(13) . . .
146(12) . . .
156(12) . . .
140(12) . . .
150(12) . . .
159(13) . . .
152(12) . . .
146(12) . . .
149(12) . . .
160(13) . . .
134(12) . . .
161(13) . . .
163(13) . . .
123(11) . . .
144(12) . . .
143(12) . . .
158(13) . . .
163(13) . . .
156(12) . . .
150(12) . . .
124(11) . . .
132(11) . . .
165(13) . . .
155(12) . . .
144(12) . . .
143(12) . . .
148(12) . . .
150(12) . . .
144(12) . . .
134(12) . . .
141(12) . . .
129(11) . . .
132(11) . . .
129(11) . . .
126(11) . . .
141(12) . . .
153(12) . . .
142(12) . . .
146(12) . . .
148(12) . . .
144(12) . . .
144(12) . . .
140(12) . . .
142(12) . . .
128(11) . . .
139(12) . . .
135(12) . . .
145(12) . . .
137(12) . . .
143(12) . . .
133(12) . . .
142(12) . . .
145(12) . . .
132(11) . . .
137(12) . . .
135(12) . . .
135(12) . . .
144(12) . . .
154(12) . . .
140(12) . . .
148(12) . . .
154(12) . . .
157(13) . . .
125(11) . . .
136(12) . . .
138(12) . . .
124(11) . . .
136(12) . . .
146(12) . . .
145(12) . . .
149(12) . . .
144(12) . . .
136(12) . . .
137(12) . . .
145(12) . . .
143(12) . . .
134(12) . . .
148(12) . . .
155(12) . . .
147(12) . . .
144(12) . . .
162(13) . . .
156(12) . . .
138(12) . . .
141(12) . . .
126(11) . . .
151(12) . . .
134(12) . . .
146(12) . . .
128(11) . . .
137(12) . . .
130(11) . . .
130(11) . . .
135(12) . . .
150(12) . . .
137(12) . . .
139(12) . . .
156(12) . . .
146(12) . . .
135(12) . . .
123(11) . . .
150(12) . . .
129(11) . . .
138(12) . . .
127(11) . . .
143(12) . . .
137(12) . . .
128(11) . . .
160(13) . . .
140(12) . . .
159(13) . . .
151(12) . . .
157(13) . . .
132(11) . . .
149(12) . . .
134(12) . . .
130(11) . . .
159(13) . . .
165(13) . . .
143(12) . . .
133(12) . . .
153(12) . . .
131(11) . . .
114(11) . . .
144(12) . . .
142(12) . . .
125(11) . . .
118(11) . . .
147(12) . . .
119(11) . . .
132(11) . . .
160(13) . . .
145(12) . . .
143(12) . . .
133(12) . . .
143(12) . . .
145(12) . . .
138(12) . . .
131(11) . . .
153(12) . . .
149(12) . . .
125(11) . . .
135(12) . . .
146(12) . . .
139(12) . . .
123(11) . . .
137(12) . . .
122(11) . . .
144(12) . . .
156(12) . . .
146(12) . . .
141(12) . . .
117(11) . . .
137(12) . . .
131(11) . . .
146(12) . . .
131(11) . . .
140(12) . . .
134(12) . . .
137(12) . . .
138(12) . . .
116(11) . . .
121(11) . . .
160(13) . . .
145(12) . . .
142(12) . . .
130(11) . . .
127(11) . . .
128(11) . . .
133(12) . . .
152(12) . . .
131(11) . . .
141(12) . . .
126(11) . . .
132(11) . . .
136(12) . . .
121(11) . . .
123(11) . . .
143(12) . . .
142(12) . . .
139(12) . . .
130(11) . . .
139(12) . . .
148(12) . . .
143(12) . . .
131(11) . . .
119(11) . . .
138(12) . . .
158(13) . . .
148(12) . . .
127(11) . . .
143(12) . . .
141(12) . . .
105(10) . . .
153(12) . . .
132(11) . . .
144(12) . . .
137(12) . . .
130(11) . . .
140(12) . . .
135(12) . . .
132(11) . . .
119(11) . . .
133(12) . . .
126(11) . . .
140(12) . . .
125(11) . . .
149(12) . . .
130(11) . . .
142(12) . . .
143(12) . . .
141(12) . . .
124(11) . . .
135(12) . . .
136(12) . . .
153(12) . . .
151(12) . . .
146(12) . . .
148(12) . . .
136(12) . . .
131(11) . . .
138(12) . . .
131(11) . . .
136(12) . . .
121(11) . . .
141(12) . . .
130(11) . . .
125(11) . . .
131(11) . . .
132(11) . . .
136(12) . . .
126(11) . . .
136(12) . . .
140(12) . . .
119(11) . . .
145(12) . . .
126(11) . . .
134(12) . . .
136(12) . . .
140(12) . . .
131(11) . . .
143(12) . . .
125(11) . . .
144(12) . . .
138(12) . . .
136(12) . . .
126(11) . . .
142(12) . . .
119(11) . . .
130(11) . . .
142(12) . . .
126(11) . . .
149(12) . . .
124(11) . . .
140(12) . . .
140(12) . . .
118(11) . . .
123(11) . . .
137(12) . . .
123(11) . . .
119(11) . . .
115(11) . . .
140(12) . . .
136(12) . . .
148(12) . . .
135(12) . . .
127(11) . . .
118(11) . . .
119(11) . . .
138(12) . . .
138(12) . . .
142(12) . . .
132(11) . . .
130(11) . . .
122(11) . . .
132(11) . . .
139(12) . . .
133(12) . . .
129(11) . . .
136(12) . . .
131(11) . . .
119(11) . . .
129(11) . . .
133(12) . . .
132(11) . . .
125(11) . . .
131(11) . . .
137(12) . . .
128(11) . . .
141(12) . . .
132(11) . . .
124(11) . . .
123(11) . . .
134(12) . . .
131(11) . . .
148(12) . . .
138(12) . . .
146(12) . . .
140(12) . . .
114(11) . . .
111(11) . . .
127(11) . . .
132(11) . . .
126(11) . . .
127(11) . . .
119(11) . . .
143(12) . . .
134(12) . . .
111(11) . . .
136(12) . . .
132(11) . . .
123(11) . . .
119(11) . . .
127(11) . . .
130(11) . . .
129(11) . . .
129(11) . . .
137(12) . . .
126(11) . . .
118(11) . . .
135(12) . . .
132(11) . . .
133(12) . . .
123(11) . . .
110(10) . . .
131(11) . . .
111(11) . . .
142(12) . . .
111(11) . . .
120(11) . . .
121(11) . . .
122(11) . . .
158(13) . . .
148(12) . . .
144(12) . . .
150(12) . . .
121(11) . . .
144(12) . . .
135(12) . . .
148(12) . . .
128(11) . . .
127(11) . . .
112(11) . . .
138(12) . . .
128(11) . . .
128(11) . . .
146(12) . . .
136(12) . . .
113(11) . . .
101(10) . . .
132(11) . . .
124(11) . . .
132(11) . . .
137(12) . . .
129(11) . . .
144(12) . . .
127(11) . . .
134(12) . . .
130(11) . . .
129(11) . . .
134(12) . . .
122(11) . . .
124(11) . . .
138(12) . . .
113(11) . . .
138(12) . . .
113(11) . . .
127(11) . . .
135(12) . . .
113(11) . . .
125(11) . . .
135(12) . . .
114(11) . . .
126(11) . . .
124(11) . . .
135(12) . . .
133(12) . . .
118(11) . . .
127(11) . . .
134(12) . . .
131(11) . . .
123(11) . . .
144(12) . . .
121(11) . . .
139(12) . . .
131(11) . . .
120(11) . . .
124(11) . . .
129(11) . . .
125(11) . . .
139(12) . . .
131(11) . . .
106(10) . . .
128(11) . . .
129(11) . . .
147(12) . . .
119(11) . . .
134(12) . . .
121(11) . . .
122(11) . . .
127(11) . . .
114(11) . . .
143(12) . . .
135(12) . . .
109(10) . . .
127(11) . . .
115(11) . . .
124(11) . . .
126(11) . . .
144(12) . . .
121(11) . . .
103(10) . . .
127(11) . . .
149(12) . . .
128(11) . . .
127(11) . . .
128(11) . . .
132(11) . . .
148(12) . . .
117(11) . . .
123(11) . . .
143(12) . . .
123(11) . . .
115(11) . . .
134(12) . . .
135(12) . . .
119(11) . . .
126(11) . . .
116(11) . . .
115(11) . . .
140(12) . . .
133(12) . . .
132(11) . . .
135(12) . . .
119(11) . . .
111(11) . . .
127(11) . . .
130(11) . . .
126(11) . . .
120(11) . . .
121(11) . . .
133(12) . . .
118(11) . . .
126(11) . . .
118(11) . . .
132(11) . . .
116(11) . . .
123(11) . . .
120(11) . . .
127(11) . . .
140(12) . . .
144(12) . . .
144(12) . . .
137(12) . . .
134(12) . . .
127(11) . . .
117(11) . . .
136(12) . . .
128(11) . . .
126(11) . . .
131(11) . . .
119(11) . . .
124(11) . . .
135(12) . . .
126(11) . . .
127(11) . . .
111(11) . . .
120(11) . . .
124(11) . . .
122(11) . . .
113(11) . . .
115(11) . . .
134(12) . . .
123(11) . . .
109(10) . . .
138(12) . . .
132(11) . . .
129(11) . . .
123(11) . . .
116(11) . . .
127(11) . . .
126(11) . . .
134(12) . . .
125(11) . . .
139(12) . . .
142(12) . . .
119(11) . . .
122(11) . . .
136(12) . . .
126(11) . . .
121(11) . . .
125(11) . . .
125(11) . . .
134(12) . . .
140(12) . . .
134(12) . . .
136(12) . . .
126(11) . . .
126(11) . . .
128(11) . . .
130(11) . . .
125(11) . . .
142(12) . . .
142(12) . . .
132(11) . . .
131(11) . . .
117(11) . . .
131(11) . . .
117(11) . . .
130(11) . . .
115(11) . . .
124(11) . . .
104(10) . . .
124(11) . . .
139(12) . . .
114(11) . . .
111(11) . . .
110(10) . . .
122(11) . . .
125(11) . . .
127(11) . . .
142(12) . . .
142(12) . . .
132(11) . . .
120(11) . . .
119(11) . . .
129(11) . . .
117(11) . . .
138(12) . . .
123(11) . . .
113(11) . . .
144(12) . . .
135(12) . . .
117(11) . . .
126(11) . . .
123(11) . . .
125(11) . . .
111(11) . . .
120(11) . . .
141(12) . . .
127(11) . . .
109(10) . . .
107(10) . . .
118(11) . . .
125(11) . . .
123(11) . . .
125(11) . . .
127(11) . . .
134(12) . . .
131(11) . . .
123(11) . . .
134(12) . . .
116(11) . . .
140(12) . . .
132(11) . . .
135(12) . . .
127(11) . . .
127(11) . . .
136(12) . . .
148(12) . . .
125(11) . . .
126(11) . . .
117(11) . . .
133(12) . . .
135(12) . . .
124(11) . . .
133(12) . . .
132(11) . . .
134(12) . . .
123(11) . . .
127(11) . . .
132(11) . . .
130(11) . . .
123(11) . . .
138(12) . . .
135(12) . . .
127(11) . . .
130(11) . . .
125(11) . . .
137(12) . . .
121(11) . . .
123(11) . . .
136(12) . . .
133(12) . . .
117(11) . . .
111(11) . . .
127(11) . . .
131(11) . . .
134(12) . . .
114(11) . . .
127(11) . . .
121(11) . . .
134(12) . . .
130(11) . . .
117(11) . . .
134(12) . . .
133(12) . . .
119(11) . . .
130(11) . . .
144(12) . . .
142(12) . . .
131(11) . . .
131(11) . . .
138(12) . . .
131(11) . . .
134(12) . . .
112(11) . . .
127(11) . . .
138(12) . . .
121(11) . . .
128(11) . . .
131(11) . . .
117(11) . . .
116(11) . . .
122(11) . . .
134(12) . . .
141(12) . . .
129(11) . . .
129(11) . . .
118(11) . . .
121(11) . . .
113(11) . . .
129(11) . . .
134(12) . . .
126(11) . . .
133(12) . . .
123(11) . . .
124(11) . . .
128(11) . . .
131(11) . . .
124(11) . . .
117(11) . . .
128(11) . . .
119(11) . . .
125(11) . . .
120(11) . . .
122(11) . . .
128(11) . . .
113(11) . . .
125(11) . . .
130(11) . . .
127(11) . . .
124(11) . . .
125(11) . . .
127(11) . . .
150(12) . . .
133(12) . . .
113(11) . . .
106(10) . . .
139(12) . . .
132(11) . . .
135(12) . . .
113(11) . . .
113(11) . . .
126(11) . . .
131(11) . . .
115(11) . . .
118(11) . . .
110(10) . . .
131(11) . . .
108(10) . . .
111(11) . . .
117(11) . . .
135(12) . . .
136(12) . . .
134(12) . . .
117(11) . . .
104(10) . . .
129(11) . . .
114(11) . . .
115(11) . . .
114(11) . . .
119(11) . . .
127(11) . . .
113(11) . . .
133(12) . . .
126(11) . . .
127(11) . . .
112(11) . . .
120(11) . . .
132(11) . . .
114(11) . . .
105(10) . . .
130(11) . . .
126(11) . . .
116(11) . . .
123(11) . . .
124(11) . . .
126(11) . . .
121(11) . . .
124(11) . . .
134(12) . . .
123(11) . . .
119(11) . . .
118(11) . . .
124(11) . . .
121(11) . . .
126(11) . . .
138(12) . . .
128(11) . . .
120(11) . . .
115(11) . . .
112(11) . . .
131(11) . . .
110(10) . . .
138(12) . . .
133(12) . . .
141(12) . . .
131(11) . . .
113(11) . . .
123(11) . . .
124(11) . . .
129(11) . . .
114(11) . . .
125(11) . . .
126(11) . . .
131(11) . . .
126(11) . . .
109(10) . . .
123(11) . . .
137(12) . . .
139(12) . . .
131(11) . . .
118(11) . . .
122(11) . . .
112(11) . . .
116(11) . . .
114(11) . . .
132(11) . . .
110(10) . . .
114(11) . . .
121(11) . . .
130(11) . . .
134(12) . . .
111(11) . . .
112(11) . . .
112(11) . . .
120(11) . . .
124(11) . . .
124(11) . . .
112(11) . . .
130(11) . . .
117(11) . . .
121(11) . . .
111(11) . . .
118(11) . . .
123(11) . . .
137(12) . . .
122(11) . . .
127(11) . . .
129(11) . . .
108(10) . . .
125(11) . . .
132(11) . . .
109(10) . . .
115(11) . . .
123(11) . . .
106(10) . . .
122(11) . . .
134(12) . . .
97(10) . . .
136(12) . . .
123(11) . . .
125(11) . . .
116(11) . . .
119(11) . . .
134(12) . . .
126(11) . . .
112(11) . . .
116(11) . . .
137(12) . . .
128(11) . . .
120(11) . . .
137(12) . . .
125(11) . . .
117(11) . . .
116(11) . . .
113(11) . . .
135(12) . . .
123(11) . . .
121(11) . . .
107(10) . . .
147(12) . . .
121(11) . . .
132(11) . . .
123(11) . . .
123(11) . . .
115(11) . . .
121(11) . . .
110(10) . . .
129(11) . . .
116(11) . . .
125(11) . . .
128(11) . . .
129(11) . . .
111(11) . . .
126(11) . . .
132(11) . . .
131(11) . . .
151(12) . . .
133(12) . . .
127(11) . . .
121(11) . . .
128(11) . . .
125(11) . . .
127(11) . . .
128(11) . . .
125(11) . . .
141(12) . . .
122(11) . . .
136(12) . . .
126(11) . . .
127(11) . . .
129(11) . . .
113(11) . . .
111(11) . . .
123(11) . . .
125(11) . . .
136(12) . . .
125(11) . . .
120(11) . . .
132(11) . . .
142(12) . . .
128(11) . . .
125(11) . . .
123(11) . . .
122(11) . . .
118(11) . . .
127(11) . . .
123(11) . . .
127(11) . . .
118(11) . . .
118(11) . . .
119(11) . . .
134(12) . . .
113(11) . . .
106(10) . . .
101(10) . . .
113(11) . . .
106(10) . . .
114(11) . . .
99(10) . . .
127(11) . . .
130(11) . . .
138(12) . . .
121(11) . . .
113(11) . . .
111(11) . . .
122(11) . . .
130(11) . . .
130(11) . . .
129(11) . . .
130(11) . . .
106(10) . . .
108(10) . . .
126(11) . . .
138(12) . . .
122(11) . . .
134(12) . . .
121(11) . . .
132(11) . . .
113(11) . . .
139(12) . . .
118(11) . . .
125(11) . . .
125(11) . . .
126(11) . . .
113(11) . . .
137(12) . . .
128(11) . . .
123(11) . . .
138(12) . . .
115(11) . . .
127(11) . . .
130(11) . . .
130(11) . . .
143(12) . . .
134(12) . . .
128(11) . . .
121(11) . . .
140(12) . . .
114(11) . . .
120(11) . . .
127(11) . . .
125(11) . . .
128(11) . . .
127(11) . . .
118(11) . . .
133(12) . . .
125(11) . . .
121(11) . . .
114(11) . . .
110(10) . . .
135(12) . . .
126(11) . . .
123(11) . . .
132(11) . . .
129(11) . . .
117(11) . . .
135(12) . . .
126(11) . . .
114(11) . . .
135(12) . . .
118(11) . . .
136(12) . . .
139(12) . . .
114(11) . . .
133(12) . . .
119(11) . . .
132(11) . . .
108(10) . . .
126(11) . . .
127(11) . . .
122(11) . . .
121(11) . . .
119(11) . . .
120(11) . . .
123(11) . . .
113(11) . . .
118(11) . . .
115(11) . . .
112(11) . . .
124(11) . . .
107(10) . . .
122(11) . . .
101(10) . . .
121(11) . . .
109(10) . . .
121(11) . . .
118(11) . . .
128(11) . . .
122(11) . . .
125(11) . . .
118(11) . . .
108(10) . . .
119(11) . . .
115(11) . . .
131(11) . . .
126(11) . . .
125(11) . . .
110(10) . . .
120(11) . . .
116(11) . . .
139(12) . . .
125(11) . . .
133(12) . . .
123(11) . . .
125(11) . . .
130(11) . . .
127(11) . . .
109(10) . . .
116(11) . . .
117(11) . . .
118(11) . . .
117(11) . . .
109(10) . . .
107(10) . . .
118(11) . . .
118(11) . . .
119(11) . . .
114(11) . . .
117(11) . . .
136(12) . . .
124(11) . . .
101(10) . . .
121(11) . . .
114(11) . . .
121(11) . . .
126(11) . . .
127(11) . . .
124(11) . . .
136(12) . . .
119(11) . . .
113(11) . . .
127(11) . . .
116(11) . . .
123(11) . . .
137(12) . . .
129(11) . . .
120(11) . . .
130(11) . . .
133(12) . . .
134(12) . . .
127(11) . . .
128(11) . . .
128(11) . . .
117(11) . . .
108(10) . . .
140(12) . . .
116(11) . . .
126(11) . . .
134(12) . . .
115(11) . . .
131(11) . . .
126(11) . . .
118(11) . . .
120(11) . . .
116(11) . . .
115(11) . . .
117(11) . . .
116(11) . . .
113(11) . . .
110(10) . . .
126(11) . . .
121(11) . . .
114(11) . . .
121(11) . . .
117(11) . . .
130(11) . . .
127(11) . . .
111(11) . . .
126(11) . . .
127(11) . . .
123(11) . . .
127(11) . . .
120(11) . . .
117(11) . . .
115(11) . . .
134(12) . . .
134(12) . . .
120(11) . . .
132(11) . . .
106(10) . . .
113(11) . . .
131(11) . . .
117(11) . . .
120(11) . . .
123(11) . . .
117(11) . . .
121(11) . . .
103(10) . . .
118(11) . . .
117(11) . . .
125(11) . . .
119(11) . . .
103(10) . . .
142(12) . . .
120(11) . . .
128(11) . . .
138(12) . . .
132(11) . . .
103(10) . . .
123(11) . . .
129(11) . . .
140(12) . . .
125(11) . . .
114(11) . . .
133(12) . . .
133(12) . . .
113(11) . . .
131(11) . . .
135(12) . . .
129(11) . . .
130(11) . . .
128(11) . . .
121(11) . . .
123(11) . . .
116(11) . . .
121(11) . . .
119(11) . . .
109(10) . . .
127(11) . . .
111(11) . . .
112(11) . . .
120(11) . . .
120(11) . . .
122(11) . . .
110(10) . . .
132(11) . . .
135(12) . . .
121(11) . . .
114(11) . . .
126(11) . . .
110(10) . . .
113(11) . . .
99(10) . . .
124(11) . . .
118(11) . . .
120(11) . . .
124(11) . . .
138(12) . . .
131(11) . . .
137(12) . . .
120(11) . . .
107(10) . . .
124(11) . . .
124(11) . . .
112(11) . . .
105(10) . . .
115(11) . . .
120(11) . . .
128(11) . . .
117(11) . . .
150(12) . . .
121(11) . . .
109(10) . . .
111(11) . . .
124(11) . . .
108(10) . . .
128(11) . . .
118(11) . . .
121(11) . . .
135(12) . . .
117(11) . . .
117(11) . . .
109(10) . . .
110(10) . . .
116(11) . . .
120(11) . . .
129(11) . . .
113(11) . . .
119(11) . . .
119(11) . . .
126(11) . . .
113(11) . . .
118(11) . . .
127(11) . . .
116(11) . . .
108(10) . . .
121(11) . . .
113(11) . . .
116(11) . . .
121(11) . . .
101(10) . . .
117(11) . . .
131(11) . . .
119(11) . . .
115(11) . . .
115(11) . . .
119(11) . . .
102(10) . . .
146(12) . . .
111(11) . . .
113(11) . . .
115(11) . . .
108(10) . . .
126(11) . . .
138(12) . . .
129(11) . . .
118(11) . . .
122(11) . . .
115(11) . . .
108(10) . . .
113(11) . . .
115(11) . . .
111(11) . . .
135(12) . . .
130(11) . . .
114(11) . . .
116(11) . . .
128(11) . . .
114(11) . . .
99(10) . . .
113(11) . . .
120(11) . . .
119(11) . . .
130(11) . . .
122(11) . . .
115(11) . . .
109(10) . . .
126(11) . . .
130(11) . . .
128(11) . . .
122(11) . . .
121(11) . . .
127(11) . . .
107(10) . . .
118(11) . . .
113(11) . . .
103(10) . . .
112(11) . . .
110(10) . . .
126(11) . . .
127(11) . . .
115(11) . . .
143(12) . . .
126(11) . . .
115(11) . . .
122(11) . . .
124(11) . . .
137(12) . . .
110(10) . . .
122(11) . . .
124(11) . . .
125(11) . . .
119(11) . . .
103(10) . . .
125(11) . . .
122(11) . . .
117(11) . . .
111(11) . . .
127(11) . . .
121(11) . . .
115(11) . . .
107(10) . . .
106(10) . . .
117(11) . . .
114(11) . . .
120(11) . . .
113(11) . . .
111(11) . . .
107(10) . . .
126(11) . . .
111(11) . . .
126(11) . . .
126(11) . . .
118(11) . . .
124(11) . . .
120(11) . . .
116(11) . . .
122(11) . . .
110(10) . . .
122(11) . . .
111(11) . . .
109(10) . . .
131(11) . . .
124(11) . . .
115(11) . . .
107(10) . . .
114(11) . . .
132(11) . . .
129(11) . . .
109(10) . . .
131(11) . . .
116(11) . . .
122(11) . . .
125(11) . . .
107(10) . . .
124(11) . . .
114(11) . . .
125(11) . . .
113(11) . . .
125(11) . . .
127(11) . . .
135(12) . . .
118(11) . . .
117(11) . . .
130(11) . . .
137(12) . . .
126(11) . . .
124(11) . . .
122(11) . . .
110(10) . . .
126(11) . . .
124(11) . . .
120(11) . . .
126(11) . . .
122(11) . . .
129(11) . . .
110(10) . . .
118(11) . . .
106(10) . . .
116(11) . . .
119(11) . . .
127(11) . . .
127(11) . . .
112(11) . . .
130(11) . . .
117(11) . . .
133(12) . . .
123(11) . . .
128(11) . . .
130(11) . . .
110(10) . . .
128(11) . . .
129(11) . . .
122(11) . . .
129(11) . . .
138(12) . . .
126(11) . . .
119(11) . . .
115(11) . . .
127(11) . . .
131(11) . . .
139(12) . . .
113(11) . . .
141(12) . . .
125(11) . . .
115(11) . . .
134(12) . . .
131(11) . . .
118(11) . . .
110(10) . . .
121(11) . . .
115(11) . . .
113(11) . . .
121(11) . . .
119(11) . . .
121(11) . . .
130(11) . . .
113(11) . . .
123(11) . . .
129(11) . . .
118(11) . . .
111(11) . . .
134(12) . . .
112(11) . . .
128(11) . . .
127(11) . . .
106(10) . . .
109(10) . . .
139(12) . . .
139(12) . . .
121(11) . . .
134(12) . . .
129(11) . . .
122(11) . . .
130(11) . . .
107(10) . . .
124(11) . . .
123(11) . . .
136(12) . . .
122(11) . . .
119(11) . . .
123(11) . . .
114(11) . . .
132(11) . . .
109(10) . . .
122(11) . . .
124(11) . . .
128(11) . . .
119(11) . . .
145(12) . . .
127(11) . . .
134(12) . . .
130(11) . . .
114(11) . . .
132(11) . . .
136(12) . . .
142(12) . . .
134(12) . . .
131(11) . . .
134(12) . . .
120(11) . . .
134(12) . . .
135(12) . . .
134(12) . . .
137(12) . . .
129(11) . . .
141(12) . . .
136(12) . . .
130(11) . . .
117(11) . . .
129(11) . . .
144(12) . . .
129(11) . . .
132(11) . . .
141(12) . . .
138(12) . . .
144(12) . . .
135(12) . . .
136(12) . . .
133(12) . . .
143(12) . . .
144(12) . . .
156(12) . . .
126(11) . . .
131(11) . . .
144(12) . . .
146(12) . . .
141(12) . . .
168(13) . . .
163(13) . . .
143(12) . . .
147(12) . . .
150(12) . . .
149(12) . . .
169(13) . . .
160(13) . . .
168(13) . . .
177(13) . . .
175(13) . . .
179(13) . . .
191(14) . . .
176(13) . . .
174(13) . . .
173(13) . . .
212(15) . . .
180(13) . . .
205(14) . . .
218(15) . . .
205(14) . . .
207(14) . . .
222(15) . . .
248(16) . . .
243(16) . . .
251(16) . . .
247(16) . . .
282(17) . . .
287(17) . . .
295(17) . . .
302(17) . . .
304(17) . . .
337(18) . . .
345(19) . . .
317(18) . . .
392(20) . . .
452(21) . . .
415(20) . . .
406(20) . . .
453(21) . . .
486(22) . . .
515(23) . . .
547(23) . . .
518(23) . . .
599(24) . . .
578(24) . . .
606(25) . . .
638(25) . . .
615(25) . . .
642(25) . . .
607(25) . . .
606(25) . . .
609(25) . . .
655(26) . . .
611(25) . . .
589(24) . . .
584(24) . . .
563(24) . . .
550(23) . . .
535(23) . . .
530(23) . . .
514(23) . . .
491(22) . . .
460(21) . . .
464(22) . . .
385(20) . . .
413(20) . . .
353(19) . . .
357(19) . . .
371(19) . . .
314(18) . . .
282(17) . . .
278(17) . . .
268(16) . . .
267(16) . . .
238(15) . . .
240(15) . . .
233(15) . . .
230(15) . . .
232(15) . . .
186(14) . . .
200(14) . . .
220(15) . . .
206(14) . . .
201(14) . . .
176(13) . . .
209(14) . . .
196(14) . . .
168(13) . . .
152(12) . . .
182(13) . . .
169(13) . . .
158(13) . . .
169(13) . . .
144(12) . . .
161(13) . . .
150(12) . . .
153(12) . . .
161(13) . . .
150(12) . . .
154(12) . . .
159(13) . . .
148(12) . . .
153(12) . . .
158(13) . . .
135(12) . . .
139(12) . . .
119(11) . . .
144(12) . . .
169(13) . . .
144(12) . . .
152(12) . . .
149(12) . . .
118(11) . . .
139(12) . . .
124(11) . . .
147(12) . . .
123(11) . . .
135(12) . . .
138(12) . . .
139(12) . . .
116(11) . . .
133(12) . . .
126(11) . . .
114(11) . . .
122(11) . . .
138(12) . . .
125(11) . . .
133(12) . . .
118(11) . . .
121(11) . . .
124(11) . . .
134(12) . . .
124(11) . . .
126(11) . . .
134(12) . . .
139(12) . . .
130(11) . . .
131(11) . . .
130(11) . . .
116(11) . . .
121(11) . . .
139(12) . . .
132(11) . . .
123(11) . . .
143(12) . . .
126(11) . . .
124(11) . . .
121(11) . . .
133(12) . . .
138(12) . . .
114(11) . . .
120(11) . . .
130(11) . . .
117(11) . . .
123(11) . . .
123(11) . . .
120(11) . . .
138(12) . . .
131(11) . . .
110(10) . . .
120(11) . . .
122(11) . . .
121(11) . . .
109(10) . . .
119(11) . . .
125(11) . . .
112(11) . . .
124(11) . . .
114(11) . . .
120(11) . . .
129(11) . . .
121(11) . . .
120(11) . . .
124(11) . . .
118(11) . . .
111(11) . . .
128(11) . . .
128(11) . . .
116(11) . . .
124(11) . . .
136(12) . . .
123(11) . . .
143(12) . . .
111(11) . . .
127(11) . . .
107(10) . . .
118(11) . . .
115(11) . . .
124(11) . . .
120(11) . . .
125(11) . . .
129(11) . . .
130(11) . . .
114(11) . . .
117(11) . . .
117(11) . . .
97(10) . . .
117(11) . . .
118(11) . . .
125(11) . . .
110(10) . . .
138(12) . . .
120(11) . . .
128(11) . . .
113(11) . . .
122(11) . . .
116(11) . . .
121(11) . . .
110(10) . . .
129(11) . . .
108(10) . . .
114(11) . . .
105(10) . . .
113(11) . . .
131(11) . . .
108(10) . . .
105(10) . . .
112(11) . . .
137(12) . . .
121(11) . . .
116(11) . . .
114(11) . . .
110(10) . . .
107(10) . . .
112(11) . . .
125(11) . . .
122(11) . . .
104(10) . . .
112(11) . . .
131(11) . . .
120(11) . . .
121(11) . . .
125(11) . . .
109(10) . . .
123(11) . . .
117(11) . . .
141(12) . . .
119(11) . . .
122(11) . . .
113(11) . . .
116(11) . . .
123(11) . . .
131(11) . . .
141(12) . . .
118(11) . . .
126(11) . . .
124(11) . . .
113(11) . . .
117(11) . . .
101(10) . . .
129(11) . . .
121(11) . . .
123(11) . . .
114(11) . . .
115(11) . . .
102(10) . . .
133(12) . . .
129(11) . . .
115(11) . . .
100(10) . . .
124(11) . . .
107(10) . . .
122(11) . . .
100(10) . . .
114(11) . . .
112(11) . . .
114(11) . . .
121(11) . . .
117(11) . . .
120(11) . . .
111(11) . . .
90(9) . . .
133(12) . . .
124(11) . . .
136(12) . . .
117(11) . . .
116(11) . . .
117(11) . . .
112(11) . . .
114(11) . . .
106(10) . . .
122(11) . . .
126(11) . . .
117(11) . . .
120(11) . . .
123(11) . . .
114(11) . . .
117(11) . . .
106(10) . . .
128(11) . . .
129(11) . . .
118(11) . . .
111(11) . . .
116(11) . . .
119(11) . . .
118(11) . . .
126(11) . . .
129(11) . . .
118(11) . . .
105(10) . . .
114(11) . . .
118(11) . . .
120(11) . . .
114(11) . . .
126(11) . . .
113(11) . . .
128(11) . . .
118(11) . . .
124(11) . . .
127(11) . . .
126(11) . . .
105(10) . . .
131(11) . . .
118(11) . . .
123(11) . . .
120(11) . . .
131(11) . . .
110(10) . . .
113(11) . . .
126(11) . . .
110(10) . . .
114(11) . . .
123(11) . . .
126(11) . . .
128(11) . . .
131(11) . . .
127(11) . . .
131(11) . . .
126(11) . . .
98(10) . . .
130(11) . . .
127(11) . . .
132(11) . . .
132(11) . . .
118(11) . . .
116(11) . . .
108(10) . . .
104(10) . . .
131(11) . . .
114(11) . . .
110(10) . . .
121(11) . . .
105(10) . . .
125(11) . . .
108(10) . . .
107(10) . . .
135(12) . . .
121(11) . . .
122(11) . . .
107(10) . . .
115(11) . . .
130(11) . . .
101(10) . . .
109(10) . . .
104(10) . . .
124(11) . . .
125(11) . . .
122(11) . . .
113(11) . . .
113(11) . . .
117(11) . . .
121(11) . . .
130(11) . . .
127(11) . . .
117(11) . . .
127(11) . . .
103(10) . . .
115(11) . . .
119(11) . . .
108(10) . . .
116(11) . . .
116(11) . . .
120(11) . . .
116(11) . . .
122(11) . . .
121(11) . . .
120(11) . . .
130(11) . . .
109(10) . . .
116(11) . . .
93(10) . . .
128(11) . . .
112(11) . . .
126(11) . . .
112(11) . . .
122(11) . . .
114(11) . . .
128(11) . . .
135(12) . . .
127(11) . . .
132(11) . . .
138(12) . . .
135(12) . . .
126(11) . . .
103(10) . . .
141(12) . . .
123(11) . . .
126(11) . . .
119(11) . . .
116(11) . . .
153(12) . . .
131(11) . . .
132(11) . . .
118(11) . . .
119(11) . . .
123(11) . . .
118(11) . . .
139(12) . . .
113(11) . . .
123(11) . . .
136(12) . . .
138(12) . . .
127(11) . . .
127(11) . . .
114(11) . . .
99(10) . . .
117(11) . . .
118(11) . . .
124(11) . . .
133(12) . . .
128(11) . . .
116(11) . . .
124(11) . . .
120(11) . . .
114(11) . . .
122(11) . . .
110(10) . . .
118(11) . . .
120(11) . . .
125(11) . . .
111(11) . . .
124(11) . . .
121(11) . . .
105(10) . . .
124(11) . . .
111(11) . . .
128(11) . . .
115(11) . . .
141(12) . . .
116(11) . . .
104(10) . . .
107(10) . . .
126(11) . . .
101(10) . . .
116(11) . . .
114(11) . . .
135(12) . . .
141(12) . . .
129(11) . . .
126(11) . . .
114(11) . . .
108(10) . . .
105(10) . . .
112(11) . . .
130(11) . . .
131(11) . . .
125(11) . . .
123(11) . . .
113(11) . . .
119(11) . . .
129(11) . . .
114(11) . . .
111(11) . . .
119(11) . . .
115(11) . . .
121(11) . . .
107(10) . . .
125(11) . . .
117(11) . . .
104(10) . . .
125(11) . . .
114(11) . . .
115(11) . . .
117(11) . . .
115(11) . . .
106(10) . . .
130(11) . . .
112(11) . . .
112(11) . . .
117(11) . . .
102(10) . . .
121(11) . . .
116(11) . . .
113(11) . . .
118(11) . . .
117(11) . . .
110(10) . . .
126(11) . . .
103(10) . . .
117(11) . . .
134(12) . . .
113(11) . . .
125(11) . . .
136(12) . . .
112(11) . . .
110(10) . . .
135(12) . . .
124(11) . . .
122(11) . . .
113(11) . . .
106(10) . . .
119(11) . . .
117(11) . . .
124(11) . . .
125(11) . . .
113(11) . . .
119(11) . . .
113(11) . . .
124(11) . . .
113(11) . . .
115(11) . . .
114(11) . . .
116(11) . . .
128(11) . . .
104(10) . . .
130(11) . . .
122(11) . . .
121(11) . . .
117(11) . . .
120(11) . . .
114(11) . . .
104(10) . . .
125(11) . . .
120(11) . . .
108(10) . . .
96(10) . . .
129(11) . . .
111(11) . . .
100(10) . . .
111(11) . . .
102(10) . . .
119(11) . . .
127(11) . . .
119(11) . . .
121(11) . . .
114(11) . . .
125(11) . . .
113(11) . . .
121(11) . . .
131(11) . . .
123(11) . . .
108(10) . . .
110(10) . . .
110(10) . . .
105(10) . . .
109(10) . . .
120(11) . . .
122(11) . . .
137(12) . . .
125(11) . . .
124(11) . . .
104(10) . . .
113(11) . . .
138(12) . . .
118(11) . . .
118(11) . . .
114(11) . . .
123(11) . . .
126(11) . . .
115(11) . . .
114(11) . . .
110(10) . . .
110(10) . . .
106(10) . . .
131(11) . . .
115(11) . . .
112(11) . . .
118(11) . . .
114(11) . . .
121(11) . . .
119(11) . . .
119(11) . . .
127(11) . . .
129(11) . . .
106(10) . . .
117(11) . . .
130(11) . . .
125(11) . . .
113(11) . . .
124(11) . . .
114(11) . . .
115(11) . . .
121(11) . . .
129(11) . . .
118(11) . . .
119(11) . . .
108(10) . . .
111(11) . . .
120(11) . . .
112(11) . . .
123(11) . . .
108(10) . . .
103(10) . . .
111(11) . . .
112(11) . . .
113(11) . . .
96(10) . . .
125(11) . . .
115(11) . . .
110(10) . . .
109(10) . . .
104(10) . . .
137(12) . . .
112(11) . . .
108(10) . . .
96(10) . . .
96(10) . . .
98(10) . . .
110(10) . . .
107(10) . . .
112(11) . . .
127(11) . . .
132(11) . . .
103(10) . . .
102(10) . . .
113(11) . . .
105(10) . . .
134(12) . . .
111(11) . . .
105(10) . . .
113(11) . . .
120(11) . . .
107(10) . . .
132(11) . . .
125(11) . . .
123(11) . . .
119(11) . . .
118(11) . . .
112(11) . . .
127(11) . . .
135(12) . . .
108(10) . . .
111(11) . . .
107(10) . . .
120(11) . . .
104(10) . . .
121(11) . . .
112(11) . . .
120(11) . . .
107(10) . . .
110(10) . . .
113(11) . . .
116(11) . . .
124(11) . . .
124(11) . . .
124(11) . . .
104(10) . . .
133(12) . . .
104(10) . . .
127(11) . . .
117(11) . . .
112(11) . . .
114(11) . . .
123(11) . . .
118(11) . . .
114(11) . . .
113(11) . . .
102(10) . . .
133(12) . . .
119(11) . . .
123(11) . . .
104(10) . . .
121(11) . . .
117(11) . . .
112(11) . . .
107(10) . . .
107(10) . . .
100(10) . . .
130(11) . . .
118(11) . . .
125(11) . . .
123(11) . . .
130(11) . . .
117(11) . . .
119(11) . . .
111(11) . . .
117(11) . . .
111(11) . . .
119(11) . . .
112(11) . . .
103(10) . . .
106(10) . . .
138(12) . . .
141(12) . . .
124(11) . . .
128(11) . . .
105(10) . . .
116(11) . . .
132(11) . . .
109(10) . . .
110(10) . . .
112(11) . . .
118(11) . . .
110(10) . . .
115(11) . . .
111(11) . . .
133(12) . . .
105(10) . . .
123(11) . . .
103(10) . . .
117(11) . . .
114(11) . . .
129(11) . . .
126(11) . . .
114(11) . . .
98(10) . . .
106(10) . . .
109(10) . . .
107(10) . . .
123(11) . . .
114(11) . . .
117(11) . . .
127(11) . . .
113(11) . . .
106(10) . . .
117(11) . . .
110(10) . . .
126(11) . . .
122(11) . . .
125(11) . . .
117(11) . . .
113(11) . . .
116(11) . . .
130(11) . . .
121(11) . . .
117(11) . . .
104(10) . . .
128(11) . . .
114(11) . . .
123(11) . . .
123(11) . . .
118(11) . . .
120(11) . . .
127(11) . . .
110(10) . . .
108(10) . . .
130(11) . . .
128(11) . . .
128(11) . . .
109(10) . . .
111(11) . . .
122(11) . . .
122(11) . . .
117(11) . . .
143(12) . . .
101(10) . . .
118(11) . . .
109(10) . . .
115(11) . . .
117(11) . . .
113(11) . . .
116(11) . . .
113(11) . . .
126(11) . . .
104(10) . . .
131(11) . . .
112(11) . . .
119(11) . . .
103(10) . . .
118(11) . . .
123(11) . . .
112(11) . . .
112(11) . . .
132(11) . . .
131(11) . . .
118(11) . . .
117(11) . . .
129(11) . . .
125(11) . . .
104(10) . . .
110(10) . . .
120(11) . . .
128(11) . . .
120(11) . . .
115(11) . . .
133(12) . . .
110(10) . . .
122(11) . . .
106(10) . . .
119(11) . . .
106(10) . . .
124(11) . . .
128(11) . . .
119(11) . . .
121(11) . . .
123(11) . . .
106(10) . . .
106(10) . . .
119(11) . . .
114(11) . . .
124(11) . . .
112(11) . . .
131(11) . . .
120(11) . . .
116(11) . . .
140(12) . . .
120(11) . . .
110(10) . . .
99(10) . . .
123(11) . . .
115(11) . . .
106(10) . . .
123(11) . . .
114(11) . . .
115(11) . . .
110(10) . . .
127(11) . . .
123(11) . . .
121(11) . . .
121(11) . . .
113(11) . . .
107(10) . . .
120(11) . . .
139(12) . . .
126(11) . . .
120(11) . . .
122(11) . . .
101(10) . . .
118(11) . . .
105(10) . . .
118(11) . . .
108(10) . . .
110(10) . . .
132(11) . . .
116(11) . . .
123(11) . . .
118(11) . . .
111(11) . . .
113(11) . . .
118(11) . . .
125(11) . . .
131(11) . . .
127(11) . . .
125(11) . . .
109(10) . . .
124(11) . . .
119(11) . . .
128(11) . . .
114(11) . . .
113(11) . . .
116(11) . . .
111(11) . . .
112(11) . . .
135(12) . . .
125(11) . . .
126(11) . . .
113(11) . . .
121(11) . . .
103(10) . . .
118(11) . . .
120(11) . . .
110(10) . . .
128(11) . . .
109(10) . . .
126(11) . . .
119(11) . . .
126(11) . . .
111(11) . . .
138(12) . . .
113(11) . . .
105(10) . . .
97(10) . . .
118(11) . . .
122(11) . . .
123(11) . . .
119(11) . . .
122(11) . . .
113(11) . . .
127(11) . . .
135(12) . . .
132(11) . . .
109(10) . . .
130(11) . . .
123(11) . . .
133(12) . . .
116(11) . . .
120(11) . . .
125(11) . . .
118(11) . . .
120(11) . . .
130(11) . . .
115(11) . . .
105(10) . . .
112(11) . . .
109(10) . . .
125(11) . . .
132(11) . . .
108(10) . . .
116(11) . . .
119(11) . . .
111(11) . . .
120(11) . . .
123(11) . . .
115(11) . . .
124(11) . . .
118(11) . . .
126(11) . . .
108(10) . . .
125(11) . . .
123(11) . . .
135(12) . . .
122(11) . . .
126(11) . . .
112(11) . . .
127(11) . . .
113(11) . . .
130(11) . . .
131(11) . . .
117(11) . . .
124(11) . . .
113(11) . . .
136(12) . . .
115(11) . . .
119(11) . . .
131(11) . . .
128(11) . . .
127(11) . . .
137(12) . . .
119(11) . . .
131(11) . . .
134(12) . . .
139(12) . . .
127(11) . . .
123(11) . . .
123(11) . . .
125(11) . . .
135(12) . . .
129(11) . . .
132(11) . . .
126(11) . . .
123(11) . . .
120(11) . . .
139(12) . . .
125(11) . . .
130(11) . . .
125(11) . . .
123(11) . . .
115(11) . . .
130(11) . . .
121(11) . . .
133(12) . . .
132(11) . . .
120(11) . . .
122(11) . . .
133(12) . . .
159(13) . . .
134(12) . . .
134(12) . . .
149(12) . . .
138(12) . . .
130(11) . . .
146(12) . . .
136(12) . . .
129(11) . . .
145(12) . . .
154(12) . . .
136(12) . . .
143(12) . . .
159(13) . . .
156(12) . . .
173(13) . . .
161(13) . . .
156(12) . . .
156(12) . . .
146(12) . . .
143(12) . . .
160(13) . . .
166(13) . . .
172(13) . . .
157(13) . . .
179(13) . . .
165(13) . . .
160(13) . . .
183(14) . . .
175(13) . . .
177(13) . . .
200(14) . . .
198(14) . . .
192(14) . . .
182(13) . . .
182(13) . . .
185(14) . . .
195(14) . . .
202(14) . . .
196(14) . . .
211(15) . . .
225(15) . . .
240(15) . . .
267(16) . . .
251(16) . . .
269(16) . . .
232(15) . . .
255(16) . . .
261(16) . . .
270(16) . . .
295(17) . . .
315(18) . . .
317(18) . . .
345(19) . . .
348(19) . . .
359(19) . . .
362(19) . . .
347(19) . . .
393(20) . . .
461(21) . . .
478(22) . . .
495(22) . . .
490(22) . . .
545(23) . . .
552(23) . . .
545(23) . . .
642(25) . . .
647(25) . . .
682(26) . . .
724(27) . . .
752(27) . . .
753(27) . . .
853(29) . . .
852(29) . . .
883(30) . . .
909(30) . . .
932(31) . . .
952(31) . . .
1001(32) . . .
971(31) . . .
985(31) . . .
981(31) . . .
925(30) . . .
946(31) . . .
907(30) . . .
853(29) . . .
871(30) . . .
821(29) . . .
786(28) . . .
770(28) . . .
756(27) . . .
759(28) . . .
740(27) . . .
626(25) . . .
654(26) . . .
570(24) . . .
574(24) . . .
552(23) . . .
551(23) . . .
479(22) . . .
455(21) . . .
488(22) . . .
431(21) . . .
396(20) . . .
385(20) . . .
386(20) . . .
353(19) . . .
358(19) . . .
340(18) . . .
287(17) . . .
295(17) . . .
292(17) . . .
284(17) . . .
250(16) . . .
261(16) . . .
253(16) . . .
241(16) . . .
258(16) . . .
221(15) . . .
246(16) . . .
240(15) . . .
201(14) . . .
213(15) . . .
220(15) . . .
217(15) . . .
216(15) . . .
206(14) . . .
166(13) . . .
184(14) . . .
196(14) . . .
164(13) . . .
179(13) . . .
181(13) . . .
174(13) . . .
184(14) . . .
179(13) . . .
194(14) . . .
182(13) . . .
139(12) . . .
175(13) . . .
165(13) . . .
163(13) . . .
163(13) . . .
142(12) . . .
146(12) . . .
162(13) . . .
145(12) . . .
159(13) . . .
141(12) . . .
155(12) . . .
150(12) . . .
160(13) . . .
145(12) . . .
169(13) . . .
167(13) . . .
153(12) . . .
147(12) . . .
127(11) . . .
148(12) . . .
138(12) . . .
135(12) . . .
137(12) . . .
136(12) . . .
148(12) . . .
151(12) . . .
151(12) . . .
139(12) . . .
139(12) . . .
151(12) . . .
141(12) . . .
141(12) . . .
133(12) . . .
121(11) . . .
143(12) . . .
124(11) . . .
138(12) . . .
116(11) . . .
148(12) . . .
118(11) . . .
122(11) . . .
158(13) . . .
122(11) . . .
117(11) . . .
138(12) . . .
125(11) . . .
125(11) . . .
150(12) . . .
154(12) . . .
145(12) . . .
134(12) . . .
115(11) . . .
139(12) . . .
122(11) . . .
105(10) . . .
122(11) . . .
123(11) . . .
123(11) . . .
134(12) . . .
124(11) . . .
114(11) . . .
132(11) . . .
131(11) . . .
127(11) . . .
127(11) . . .
123(11) . . .
120(11) . . .
132(11) . . .
147(12) . . .
127(11) . . .
127(11) . . .
135(12) . . .
127(11) . . .
121(11) . . .
126(11) . . .
121(11) . . .
131(11) . . .
141(12) . . .
133(12) . . .
134(12) . . .
119(11) . . .
130(11) . . .
136(12) . . .
128(11) . . .
125(11) . . .
119(11) . . .
123(11) . . .
125(11) . . .
123(11) . . .
140(12) . . .
121(11) . . .
117(11) . . .
116(11) . . .
117(11) . . .
119(11) . . .
118(11) . . .
123(11) . . .
131(11) . . .
125(11) . . .
140(12) . . .
117(11) . . .
138(12) . . .
119(11) . . .
134(12) . . .
141(12) . . .
133(12) . . .
120(11) . . .
121(11) . . .
112(11) . . .
138(12) . . .
130(11) . . .
126(11) . . .
121(11) . . .
134(12) . . .
130(11) . . .
129(11) . . .
135(12) . . .
116(11) . . .
119(11) . . .
126(11) . . .
124(11) . . .
121(11) . . .
121(11) . . .
128(11) . . .
140(12) . . .
109(10) . . .
123(11) . . .
123(11) . . .
133(12) . . .
133(12) . . .
129(11) . . .
115(11) . . .
144(12) . . .
125(11) . . .
109(10) . . .
142(12) . . .
134(12) . . .
127(11) . . .
129(11) . . .
111(11) . . .
129(11) . . .
131(11) . . .
130(11) . . .
128(11) . . .
130(11) . . .
125(11) . . .
117(11) . . .
136(12) . . .
130(11) . . .
149(12) . . .
134(12) . . .
121(11) . . .
137(12) . . .
126(11) . . .
160(13) . . .
133(12) . . .
145(12) . . .
134(12) . . .
131(11) . . .
152(12) . . .
124(11) . . .
159(13) . . .
124(11) . . .
127(11) . . .
137(12) . . .
132(11) . . .
145(12) . . .
145(12) . . .
138(12) . . .
129(11) . . .
134(12) . . .
117(11) . . .
152(12) . . .
141(12) . . .
142(12) . . .
129(11) . . .
148(12) . . .
146(12) . . .
148(12) . . .
133(12) . . .
158(13) . . .
140(12) . . .
157(13) . . .
144(12) . . .
149(12) . . .
146(12) . . .
160(13) . . .
156(12) . . .
145(12) . . .
142(12) . . .
155(12) . . .
176(13) . . .
142(12) . . .
138(12) . . .
176(13) . . .
159(13) . . .
187(14) . . .
157(13) . . .
169(13) . . .
166(13) . . .
185(14) . . .
171(13) . . .
185(14) . . .
171(13) . . .
170(13) . . .
179(13) . . .
169(13) . . .
169(13) . . .
157(13) . . .
165(13) . . .
200(14) . . .
195(14) . . .
174(13) . . .
201(14) . . .
192(14) . . .
209(14) . . .
169(13) . . .
213(15) . . .
182(13) . . .
225(15) . . .
205(14) . . .
220(15) . . .
261(16) . . .
258(16) . . .
239(15) . . .
258(16) . . .
234(15) . . .
235(15) . . .
247(16) . . .
264(16) . . .
278(17) . . .
263(16) . . .
265(16) . . .
307(18) . . .
328(18) . . .
331(18) . . .
317(18) . . .
357(19) . . .
347(19) . . .
342(18) . . .
399(20) . . .
375(19) . . .
401(20) . . .
426(21) . . .
449(21) . . .
522(23) . . .
524(23) . . .
522(23) . . .
550(23) . . .
567(24) . . .
649(25) . . .
684(26) . . .
676(26) . . .
729(27) . . .
783(28) . . .
828(29) . . .
923(30) . . .
983(31) . . .
987(31) . . .
1014(32) . . .
1139(34) . . .
1190(34) . . .
1222(35) . . .
1227(35) . . .
1375(37) . . .
1362(37) . . .
1466(38) . . .
1507(39) . . .
1585(40) . . .
1613(40) . . .
1621(40) . . .
1671(41) . . .
1631(40) . . .
1659(41) . . .
1670(41) . . .
1661(41) . . .
1702(41) . . .
1655(41) . . .
1604(40) . . .
1603(40) . . .
1556(39) . . .
1509(39) . . .
1442(38) . . .
1400(37) . . .
1393(37) . . .
1322(36) . . .
1169(34) . . .
1082(33) . . .
1118(33) . . .
1018(32) . . .
963(31) . . .
913(30) . . .
880(30) . . .
813(29) . . .
791(28) . . .
708(27) . . .
676(26) . . .
675(26) . . .
595(24) . . .
566(24) . . .
555(24) . . .
488(22) . . .
522(23) . . .
465(22) . . .
423(21) . . .
407(20) . . .
399(20) . . .
407(20) . . .
385(20) . . .
350(19) . . .
338(18) . . .
305(17) . . .
331(18) . . .
331(18) . . .
291(17) . . .
305(17) . . .
305(17) . . .
245(16) . . .
256(16) . . .
278(17) . . .
231(15) . . .
243(16) . . .
219(15) . . .
235(15) . . .
223(15) . . .
228(15) . . .
210(14) . . .
223(15) . . .
192(14) . . .
201(14) . . .
196(14) . . .
184(14) . . .
217(15) . . .
182(13) . . .
176(13) . . .
166(13) . . .
175(13) . . .
169(13) . . .
185(14) . . .
186(14) . . .
169(13) . . .
177(13) . . .
169(13) . . .
179(13) . . .
166(13) . . .
174(13) . . .
174(13) . . .
153(12) . . .
148(12) . . .
154(12) . . .
158(13) . . .
153(12) . . .
175(13) . . .
172(13) . . .
145(12) . . .
166(13) . . .
140(12) . . .
137(12) . . .
139(12) . . .
159(13) . . .
165(13) . . .
149(12) . . .
155(12) . . .
130(11) . . .
129(11) . . .
140(12) . . .
129(11) . . .
140(12) . . .
128(11) . . .
151(12) . . .
123(11) . . .
143(12) . . .
138(12) . . .
135(12) . . .
142(12) . . .
137(12) . . .
138(12) . . .
142(12) . . .
141(12) . . .
153(12) . . .
110(10) . . .
129(11) . . .
140(12) . . .
130(11) . . .
129(11) . . .
122(11) . . .
128(11) . . .
125(11) . . .
142(12) . . .
125(11) . . .
125(11) . . .
125(11) . . .
134(12) . . .
137(12) . . .
130(11) . . .
138(12) . . .
123(11) . . .
108(10) . . .
120(11) . . .
134(12) . . .
125(11) . . .
134(12) . . .
136(12) . . .
130(11) . . .
127(11) . . .
132(11) . . .
121(11) . . .
128(11) . . .
128(11) . . .
141(12) . . .
127(11) . . .
98(10) . . .
127(11) . . .
130(11) . . .
125(11) . . .
123(11) . . .
129(11) . . .
147(12) . . .
124(11) . . .
120(11) . . .
99(10) . . .
118(11) . . .
122(11) . . .
118(11) . . .
118(11) . . .
116(11) . . .
121(11) . . .
126(11) . . .
108(10) . . .
117(11) . . .
124(11) . . .
137(12) . . .
115(11) . . .
125(11) . . .
105(10) . . .
132(11) . . .
140(12) . . .
126(11) . . .
139(12) . . .
132(11) . . .
108(10) . . .
124(11) . . .
126(11) . . .
133(12) . . .
136(12) . . .
134(12) . . .
95(10) . . .
114(11) . . .
124(11) . . .
129(11) . . .
111(11) . . .
114(11) . . .
129(11) . . .
114(11) . . .
110(10) . . .
111(11) . . .
117(11) . . .
117(11) . . .
118(11) . . .
129(11) . . .
117(11) . . .
108(10) . . .
97(10) . . .
123(11) . . .
120(11) . . .
96(10) . . .
104(10) . . .
100(10) . . .
119(11) . . .
117(11) . . .
127(11) . . .
128(11) . . .
106(10) . . .
110(10) . . .
123(11) . . .
115(11) . . .
120(11) . . .
102(10) . . .
127(11) . . .
124(11) . . .
104(10) . . .
112(11) . . .
130(11) . . .
113(11) . . .
123(11) . . .
122(11) . . .
115(11) . . .
137(12) . . .
116(11) . . .
101(10) . . .
114(11) . . .
118(11) . . .
123(11) . . .
112(11) . . .
109(10) . . .
131(11) . . .
120(11) . . .
106(10) . . .
104(10) . . .
122(11) . . .
109(10) . . .
117(11) . . .
115(11) . . .
109(10) . . .
132(11) . . .
93(10) . . .
105(10) . . .
93(10) . . .
124(11) . . .
108(10) . . .
113(11) . . .
95(10) . . .
112(11) . . .
120(11) . . .
117(11) . . .
108(10) . . .
115(11) . . .
113(11) . . .
116(11) . . .
107(10) . . .
106(10) . . .
119(11) . . .
101(10) . . .
111(11) . . .
120(11) . . .
128(11) . . .
106(10) . . .
128(11) . . .
111(11) . . .
112(11) . . .
128(11) . . .
113(11) . . .
113(11) . . .
103(10) . . .
109(10) . . .
121(11) . . .
116(11) . . .
121(11) . . .
109(10) . . .
118(11) . . .
118(11) . . .
109(10) . . .
102(10) . . .
109(10) . . .
122(11) . . .
112(11) . . .
123(11) . . .
107(10) . . .
120(11) . . .
106(10) . . .
134(12) . . .
131(11) . . .
121(11) . . .
118(11) . . .
113(11) . . .
109(10) . . .
125(11) . . .
116(11) . . .
117(11) . . .
107(10) . . .
114(11) . . .
116(11) . . .
115(11) . . .
128(11) . . .
110(10) . . .
106(10) . . .
97(10) . . .
114(11) . . .
110(10) . . .
112(11) . . .
95(10) . . .
112(11) . . .
116(11) . . .
115(11) . . .
122(11) . . .
107(10) . . .
111(11) . . .
115(11) . . .
122(11) . . .
103(10) . . .
109(10) . . .
103(10) . . .
110(10) . . .
126(11) . . .
116(11) . . .
96(10) . . .
122(11) . . .
105(10) . . .
117(11) . . .
105(10) . . .
102(10) . . .
112(11) . . .
113(11) . . .
121(11) . . .
105(10) . . .
114(11) . . .
113(11) . . .
109(10) . . .
108(10) . . .
117(11) . . .
122(11) . . .
99(10) . . .
119(11) . . .
125(11) . . .
107(10) . . .
101(10) . . .
130(11) . . .
128(11) . . .
117(11) . . .
92(10) . . .
106(10) . . .
91(10) . . .
118(11) . . .
128(11) . . .
122(11) . . .
141(12) . . .
114(11) . . .
104(10) . . .
114(11) . . .
127(11) . . .
106(10) . . .
104(10) . . .
119(11) . . .
107(10) . . .
120(11) . . .
100(10) . . .
131(11) . . .
112(11) . . .
116(11) . . .
94(10) . . .
115(11) . . .
107(10) . . .
115(11) . . .
100(10) . . .
108(10) . . .
101(10) . . .
128(11) . . .
117(11) . . .
109(10) . . .
114(11) . . .
105(10) . . .
110(10) . . .
104(10) . . .
98(10) . . .
118(11) . . .
116(11) . . .
120(11) . . .
111(11) . . .
118(11) . . .
97(10) . . .
121(11) . . .
113(11) . . .
118(11) . . .
120(11) . . .
114(11) . . .
115(11) . . .
123(11) . . .
137(12) . . .
127(11) . . .
114(11) . . .
127(11) . . .
114(11) . . .
114(11) . . .
116(11) . . .
115(11) . . .
94(10) . . .
103(10) . . .
113(11) . . .
93(10) . . .
120(11) . . .
125(11) . . .
127(11) . . .
124(11) . . .
100(10) . . .
107(10) . . .
106(10) . . .
106(10) . . .
118(11) . . .
110(10) . . .
111(11) . . .
107(10) . . .
119(11) . . .
108(10) . . .
114(11) . . .
116(11) . . .
116(11) . . .
110(10) . . .
109(10) . . .
106(10) . . .
114(11) . . .
118(11) . . .
106(10) . . .
113(11) . . .
127(11) . . .
102(10) . . .
128(11) . . .
116(11) . . .
117(11) . . .
96(10) . . .
115(11) . . .
110(10) . . .
121(11) . . .
93(10) . . .
109(10) . . .
120(11) . . .
118(11) . . .
108(10) . . .
119(11) . . .
127(11) . . .
106(10) . . .
114(11) . . .
111(11) . . .
116(11) . . .
121(11) . . .
114(11) . . .
121(11) . . .
126(11) . . .
123(11) . . .
99(10) . . .
104(10) . . .
128(11) . . .
89(9) . . .
122(11) . . .
107(10) . . .
107(10) . . .
117(11) . . .
104(10) . . .
116(11) . . .
100(10) . . .
111(11) . . .
117(11) . . .
108(10) . . .
108(10) . . .
109(10) . . .
113(11) . . .
118(11) . . .
121(11) . . .
91(10) . . .
97(10) . . .
106(10) . . .
109(10) . . .
114(11) . . .
106(10) . . .
103(10) . . .
99(10) . . .
124(11) . . .
109(10) . . .
103(10) . . .
109(10) . . .
103(10) . . .
105(10) . . .
112(11) . . .
123(11) . . .
110(10) . . .
105(10) . . .
113(11) . . .
141(12) . . .
106(10) . . .
99(10) . . .
119(11) . . .
110(10) . . .
122(11) . . .
104(10) . . .
114(11) . . .
113(11) . . .
111(11) . . .
89(9) . . .
116(11) . . .
110(10) . . .
102(10) . . .
125(11) . . .
107(10) . . .
110(10) . . .
120(11) . . .
117(11) . . .
108(10) . . .
109(10) . . .
112(11) . . .
106(10) . . .
99(10) . . .
114(11) . . .
106(10) . . .
108(10) . . .
125(11) . . .
101(10) . . .
120(11) . . .
118(11) . . .
110(10) . . .
125(11) . . .
119(11) . . .
113(11) . . .
134(12) . . .
119(11) . . .
115(11) . . .
113(11) . . .
104(10) . . .
100(10) . . .
113(11) . . .
115(11) . . .
118(11) . . .
121(11) . . .
112(11) . . .
113(11) . . .
128(11) . . .
125(11) . . .
113(11) . . .
108(10) . . .
99(10) . . .
104(10) . . .
109(10) . . .
110(10) . . .
96(10) . . .
114(11) . . .
115(11) . . .
123(11) . . .
117(11) . . .
114(11) . . .
118(11) . . .
117(11) . . .
122(11) . . .
102(10) . . .
116(11) . . .
123(11) . . .
112(11) . . .
97(10) . . .
126(11) . . .
106(10) . . .
111(11) . . .
113(11) . . .
103(10) . . .
113(11) . . .
94(10) . . .
106(10) . . .
118(11) . . .
122(11) . . .
124(11) . . .
123(11) . . .
117(11) . . .
112(11) . . .
105(10) . . .
117(11) . . .
106(10) . . .
113(11) . . .
109(10) . . .
106(10) . . .
115(11) . . .
120(11) . . .
119(11) . . .
128(11) . . .
98(10) . . .
115(11) . . .
110(10) . . .
103(10) . . .
122(11) . . .
122(11) . . .
106(10) . . .
109(10) . . .
134(12) . . .
101(10) . . .
116(11) . . .
117(11) . . .
100(10) . . .
107(10) . . .
117(11) . . .
115(11) . . .
120(11) . . .
121(11) . . .
119(11) . . .
111(11) . . .
103(10) . . .
118(11) . . .
116(11) . . .
97(10) . . .
119(11) . . .
112(11) . . .
108(10) . . .
118(11) . . .
102(10) . . .
89(9) . . .
110(10) . . .
96(10) . . .
111(11) . . .
118(11) . . .
104(10) . . .
95(10) . . .
113(11) . . .
120(11) . . .
104(10) . . .
112(11) . . .
110(10) . . .
98(10) . . .
105(10) . . .
112(11) . . .
103(10) . . .
108(10) . . .
127(11) . . .
121(11) . . .
112(11) . . .
104(10) . . .
128(11) . . .
121(11) . . .
106(10) . . .
126(11) . . .
116(11) . . .
120(11) . . .
112(11) . . .
111(11) . . .
109(10) . . .
98(10) . . .
107(10) . . .
121(11) . . .
108(10) . . .
99(10) . . .
102(10) . . .
102(10) . . .
91(10) . . .
122(11) . . .
130(11) . . .
130(11) . . .
117(11) . . .
116(11) . . .
103(10) . . .
117(11) . . .
113(11) . . .
107(10) . . .
121(11) . . .
105(10) . . .
117(11) . . .
109(10) . . .
114(11) . . .
114(11) . . .
128(11) . . .
114(11) . . .
113(11) . . .
120(11) . . .
107(10) . . .
111(11) . . .
121(11) . . .
115(11) . . .
121(11) . . .
118(11) . . .
112(11) . . .
134(12) . . .
109(10) . . .
100(10) . . .
106(10) . . .
112(11) . . .
113(11) . . .
121(11) . . .
120(11) . . .
101(10) . . .
106(10) . . .
116(11) . . .
122(11) . . .
100(10) . . .
104(10) . . .
113(11) . . .
120(11) . . .
118(11) . . .
129(11) . . .
114(11) . . .
96(10) . . .
120(11) . . .
108(10) . . .
113(11) . . .
129(11) . . .
120(11) . . .
108(10) . . .
113(11) . . .
112(11) . . .
123(11) . . .
124(11) . . .
128(11) . . .
110(10) . . .
114(11) . . .
101(10) . . .
115(11) . . .
106(10) . . .
100(10) . . .
118(11) . . .
119(11) . . .
110(10) . . .
121(11) . . .
110(10) . . .
108(10) . . .
116(11) . . .
110(10) . . .
124(11) . . .
115(11) . . .
119(11) . . .
106(10) . . .
118(11) . . .
110(10) . . .
105(10) . . .
107(10) . . .
116(11) . . .
107(10) . . .
102(10) . . .
133(12) . . .
112(11) . . .
125(11) . . .
123(11) . . .
137(12) . . .
127(11) . . .
110(10) . . .
121(11) . . .
131(11) . . .
108(10) . . .
114(11) . . .
114(11) . . .
115(11) . . .
118(11) . . .
128(11) . . .
118(11) . . .
110(10) . . .
107(10) . . .
132(11) . . .
102(10) . . .
108(10) . . .
109(10) . . .
128(11) . . .
116(11) . . .
107(10) . . .
107(10) . . .
125(11) . . .
122(11) . . .
128(11) . . .
130(11) . . .
125(11) . . .
111(11) . . .
123(11) . . .
109(10) . . .
103(10) . . .
108(10) . . .
128(11) . . .
110(10) . . .
94(10) . . .
122(11) . . .
113(11) . . .
116(11) . . .
123(11) . . .
107(10) . . .
106(10) . . .
124(11) . . .
99(10) . . .
95(10) . . .
107(10) . . .
103(10) . . .
128(11) . . .
96(10) . . .
117(11) . . .
108(10) . . .
109(10) . . .
118(11) . . .
121(11) . . .
117(11) . . .
102(10) . . .
124(11) . . .
121(11) . . .
107(10) . . .
125(11) . . .
127(11) . . .
87(9) . . .
119(11) . . .
108(10) . . .
122(11) . . .
110(10) . . .
109(10) . . .
111(11) . . .
113(11) . . .
101(10) . . .
103(10) . . .
118(11) . . .
117(11) . . .
115(11) . . .
134(12) . . .
105(10) . . .
115(11) . . .
114(11) . . .
93(10) . . .
117(11) . . .
126(11) . . .
116(11) . . .
120(11) . . .
115(11) . . .
103(10) . . .
99(10) . . .
101(10) . . .
114(11) . . .
111(11) . . .
135(12) . . .
126(11) . . .
114(11) . . .
111(11) . . .
111(11) . . .
103(10) . . .
125(11) . . .
109(10) . . .
126(11) . . .
120(11) . . .
111(11) . . .
123(11) . . .
113(11) . . .
119(11) . . .
115(11) . . .
115(11) . . .
122(11) . . .
112(11) . . .
111(11) . . .
103(10) . . .
112(11) . . .
97(10) . . .
107(10) . . .
132(11) . . .
104(10) . . .
126(11) . . .
119(11) . . .
123(11) . . .
118(11) . . .
126(11) . . .
111(11) . . .
117(11) . . .
125(11) . . .
114(11) . . .
121(11) . . .
116(11) . . .
113(11) . . .
119(11) . . .
108(10) . . .
118(11) . . .
118(11) . . .
122(11) . . .
117(11) . . .
112(11) . . .
117(11) . . .
127(11) . . .
113(11) . . .
107(10) . . .
128(11) . . .
107(10) . . .
109(10) . . .
100(10) . . .
112(11) . . .
116(11) . . .
127(11) . . .
104(10) . . .
118(11) . . .
108(10) . . .
118(11) . . .
111(11) . . .
122(11) . . .
115(11) . . .
118(11) . . .
115(11) . . .
133(12) . . .
122(11) . . .
127(11) . . .
122(11) . . .
109(10) . . .
133(12) . . .
103(10) . . .
115(11) . . .
105(10) . . .
104(10) . . .
94(10) . . .
113(11) . . .
126(11) . . .
92(10) . . .
117(11) . . .
115(11) . . .
112(11) . . .
108(10) . . .
107(10) . . .
130(11) . . .
120(11) . . .
113(11) . . .
115(11) . . .
131(11) . . .
112(11) . . .
118(11) . . .
99(10) . . .
119(11) . . .
111(11) . . .
122(11) . . .
110(10) . . .
109(10) . . .
109(10) . . .
120(11) . . .
128(11) . . .
113(11) . . .
108(10) . . .
118(11) . . .
101(10) . . .
100(10) . . .
109(10) . . .
110(10) . . .
110(10) . . .
96(10) . . .
120(11) . . .
117(11) . . .
110(10) . . .
114(11) . . .
111(11) . . .
108(10) . . .
104(10) . . .
113(11) . . .
108(10) . . .
99(10) . . .
118(11) . . .
125(11) . . .
137(12) . . .
112(11) . . .
130(11) . . .
111(11) . . .
114(11) . . .
123(11) . . .
127(11) . . .
122(11) . . .
108(10) . . .
109(10) . . .
126(11) . . .
121(11) . . .
122(11) . . .
116(11) . . .
115(11) . . .
104(10) . . .
111(11) . . .
130(11) . . .
121(11) . . .
116(11) . . .
110(10) . . .
128(11) . . .
123(11) . . .
110(10) . . .
112(11) . . .
121(11) . . .
117(11) . . .
96(10) . . .
127(11) . . .
107(10) . . .
114(11) . . .
97(10) . . .
122(11) . . .
124(11) . . .
115(11) . . .
110(10) . . .
114(11) . . .
121(11) . . .
104(10) . . .
103(10) . . .
116(11) . . .
92(10) . . .
117(11) . . .
110(10) . . .
128(11) . . .
115(11) . . .
115(11) . . .
117(11) . . .
119(11) . . .
120(11) . . .
127(11) . . .
117(11) . . .
111(11) . . .
111(11) . . .
111(11) . . .
122(11) . . .
123(11) . . .
124(11) . . .
104(10) . . .
120(11) . . .
99(10) . . .
103(10) . . .
115(11) . . .
111(11) . . .
120(11) . . .
112(11) . . .
112(11) . . .
100(10) . . .
111(11) . . .
121(11) . . .
113(11) . . .
114(11) . . .
125(11) . . .
128(11) . . .
107(10) . . .
107(10) . . .
114(11) . . .
128(11) . . .
122(11) . . .
108(10) . . .
121(11) . . .
112(11) . . .
113(11) . . .
99(10) . . .
110(10) . . .
149(12) . . .
108(10) . . .
107(10) . . .
120(11) . . .
109(10) . . .
116(11) . . .
112(11) . . .
112(11) . . .
116(11) . . .
103(10) . . .
115(11) . . .
120(11) . . .
126(11) . . .
107(10) . . .
108(10) . . .
106(10) . . .
119(11) . . .
117(11) . . .
122(11) . . .
114(11) . . .
124(11) . . .
112(11) . . .
109(10) . . .
117(11) . . .
117(11) . . .
117(11) . . .
130(11) . . .
124(11) . . .
128(11) . . .
108(10) . . .
115(11) . . .
120(11) . . .
122(11) . . .
119(11) . . .
128(11) . . .
117(11) . . .
108(10) . . .
113(11) . . .
107(10) . . .
122(11) . . .
132(11) . . .
107(10) . . .
115(11) . . .
124(11) . . .
116(11) . . .
111(11) . . .
110(10) . . .
128(11) . . .
101(10) . . .
114(11) . . .
117(11) . . .
122(11) . . .
119(11) . . .
110(10) . . .
126(11) . . .
110(10) . . .
124(11) . . .
135(12) . . .
130(11) . . .
119(11) . . .
124(11) . . .
106(10) . . .
115(11) . . .
114(11) . . .
117(11) . . .
112(11) . . .
112(11) . . .
113(11) . . .
121(11) . . .
107(10) . . .
121(11) . . .
127(11) . . .
112(11) . . .
122(11) . . .
124(11) . . .
122(11) . . .
114(11) . . .
115(11) . . .
104(10) . . .
108(10) . . .
111(11) . . .
131(11) . . .
105(10) . . .
132(11) . . .
118(11) . . .
107(10) . . .
123(11) . . .
126(11) . . .
111(11) . . .
126(11) . . .
124(11) . . .
131(11) . . .
130(11) . . .
113(11) . . .
114(11) . . .
137(12) . . .
104(10) . . .
122(11) . . .
128(11) . . .
117(11) . . .
126(11) . . .
111(11) . . .
135(12) . . .
118(11) . . .
119(11) . . .
123(11) . . .
110(10) . . .
109(10) . . .
122(11) . . .
145(12) . . .
116(11) . . .
125(11) . . .
112(11) . . .
99(10) . . .
117(11) . . .
115(11) . . .
118(11) . . .
124(11) . . .
103(10) . . .
122(11) . . .
128(11) . . .
128(11) . . .
123(11) . . .
128(11) . . .
110(10) . . .
125(11) . . .
120(11) . . .
120(11) . . .
136(12) . . .
123(11) . . .
99(10) . . .
137(12) . . .
103(10) . . .
110(10) . . .
133(12) . . .
118(11) . . .
106(10) . . .
112(11) . . .
115(11) . . .
108(10) . . .
115(11) . . .
126(11) . . .
122(11) . . .
115(11) . . .
127(11) . . .
109(10) . . .
116(11) . . .
136(12) . . .
131(11) . . .
110(10) . . .
114(11) . . .
122(11) . . .
119(11) . . .
138(12) . . .
102(10) . . .
113(11) . . .
127(11) . . .
111(11) . . .
128(11) . . .
131(11) . . .
124(11) . . .
126(11) . . .
122(11) . . .
122(11) . . .
126(11) . . .
132(11) . . .
134(12) . . .
104(10) . . .
128(11) . . .
131(11) . . .
135(12) . . .
132(11) . . .
133(12) . . .
135(12) . . .
124(11) . . .
102(10) . . .
127(11) . . .
124(11) . . .
122(11) . . .
111(11) . . .
132(11) . . .
122(11) . . .
118(11) . . .
113(11) . . .
140(12) . . .
116(11) . . .
113(11) . . .
125(11) . . .
115(11) . . .
123(11) . . .
123(11) . . .
117(11) . . .
125(11) . . .
120(11) . . .
123(11) . . .
125(11) . . .
133(12) . . .
148(12) . . .
127(11) . . .
112(11) . . .
134(12) . . .
120(11) . . .
127(11) . . .
120(11) . . .
138(12) . . .
140(12) . . .
125(11) . . .
128(11) . . .
131(11) . . .
146(12) . . .
127(11) . . .
110(10) . . .
122(11) . . .
141(12) . . .
123(11) . . .
135(12) . . .
119(11) . . .
113(11) . . .
121(11) . . .
131(11) . . .
126(11) . . .
116(11) . . .
152(12) . . .
130(11) . . .
122(11) . . .
146(12) . . .
139(12) . . .
143(12) . . .
144(12) . . .
135(12) . . .
130(11) . . .
124(11) . . .
138(12) . . .
148(12) . . .
137(12) . . .
142(12) . . .
118(11) . . .
141(12) . . .
133(12) . . .
130(11) . . .
128(11) . . .
139(12) . . .
153(12) . . .
136(12) . . .
153(12) . . .
147(12) . . .
141(12) . . .
143(12) . . .
126(11) . . .
132(11) . . .
126(11) . . .
126(11) . . .
146(12) . . .
134(12) . . .
156(12) . . .
155(12) . . .
144(12) . . .
151(12) . . .
139(12) . . .
145(12) . . .
165(13) . . .
162(13) . . .
141(12) . . .
161(13) . . .
150(12) . . .
158(13) . . .
169(13) . . .
165(13) . . .
182(13) . . .
162(13) . . .
153(12) . . .
169(13) . . .
169(13) . . .
156(12) . . .
173(13) . . .
196(14) . . .
168(13) . . .
171(13) . . .
185(14) . . .
187(14) . . .
186(14) . . .
207(14) . . .
176(13) . . .
203(14) . . .
213(15) . . .
198(14) . . .
224(15) . . .
223(15) . . .
206(14) . . .
245(16) . . .
225(15) . . .
213(15) . . .
226(15) . . .
236(15) . . .
219(15) . . .
240(15) . . .
267(16) . . .
237(15) . . .
259(16) . . .
274(17) . . .
275(17) . . .
263(16) . . .
295(17) . . .
298(17) . . .
318(18) . . .
295(17) . . .
341(18) . . .
327(18) . . .
334(18) . . .
360(19) . . .
369(19) . . .
351(19) . . .
400(20) . . .
399(20) . . .
404(20) . . .
457(21) . . .
484(22) . . .
458(21) . . .
511(23) . . .
522(23) . . .
536(23) . . .
589(24) . . .
607(25) . . .
599(24) . . .
672(26) . . .
659(26) . . .
674(26) . . .
754(27) . . .
747(27) . . .
875(30) . . .
880(30) . . .
967(31) . . .
1002(32) . . .
1029(32) . . .
1062(33) . . .
1171(34) . . .
1211(35) . . .
1242(35) . . .
1271(36) . . .
1287(36) . . .
1358(37) . . .
1432(38) . . .
1446(38) . . .
1477(38) . . .
1583(40) . . .
1544(39) . . .
1596(40) . . .
1514(39) . . .
1549(39) . . .
1594(40) . . .
1586(40) . . .
1550(39) . . .
1563(40) . . .
1501(39) . . .
1542(39) . . .
1465(38) . . .
1362(37) . . .
1344(37) . . .
1274(36) . . .
1219(35) . . .
1211(35) . . .
1121(33) . . .
1036(32) . . .
1044(32) . . .
1022(32) . . .
940(31) . . .
870(29) . . .
828(29) . . .
782(28) . . .
721(27) . . .
720(27) . . .
662(26) . . .
597(24) . . .
616(25) . . .
579(24) . . .
563(24) . . .
555(24) . . .
527(23) . . .
478(22) . . .
469(22) . . .
443(21) . . .
450(21) . . .
411(20) . . .
395(20) . . .
347(19) . . .
345(19) . . .
373(19) . . .
379(19) . . .
328(18) . . .
331(18) . . .
328(18) . . .
296(17) . . .
290(17) . . .
301(17) . . .
300(17) . . .
284(17) . . .
256(16) . . .
271(16) . . .
253(16) . . .
239(15) . . .
237(15) . . .
230(15) . . .
224(15) . . .
224(15) . . .
238(15) . . .
227(15) . . .
211(15) . . .
213(15) . . .
230(15) . . .
196(14) . . .
196(14) . . .
200(14) . . .
190(14) . . .
173(13) . . .
196(14) . . .
167(13) . . .
176(13) . . .
173(13) . . .
204(14) . . .
183(14) . . .
173(13) . . .
182(13) . . .
184(14) . . .
171(13) . . .
184(14) . . .
162(13) . . .
184(14) . . .
161(13) . . .
180(13) . . .
153(12) . . .
145(12) . . .
159(13) . . .
150(12) . . .
152(12) . . .
164(13) . . .
162(13) . . .
154(12) . . .
147(12) . . .
146(12) . . .
146(12) . . .
158(13) . . .
145(12) . . .
144(12) . . .
137(12) . . .
161(13) . . .
162(13) . . .
152(12) . . .
178(13) . . .
161(13) . . .
142(12) . . .
145(12) . . .
152(12) . . .
130(11) . . .
131(11) . . .
166(13) . . .
143(12) . . .
140(12) . . .
148(12) . . .
133(12) . . .
135(12) . . .
139(12) . . .
139(12) . . .
140(12) . . .
132(11) . . .
115(11) . . .
126(11) . . .
106(10) . . .
142(12) . . .
146(12) . . .
142(12) . . .
146(12) . . .
158(13) . . .
135(12) . . .
126(11) . . .
139(12) . . .
140(12) . . .
134(12) . . .
124(11) . . .
135(12) . . .
132(11) . . .
127(11) . . .
145(12) . . .
125(11) . . .
128(11) . . .
153(12) . . .
147(12) . . .
135(12) . . .
126(11) . . .
114(11) . . .
142(12) . . .
126(11) . . .
131(11) . . .
132(11) . . .
131(11) . . .
128(11) . . .
140(12) . . .
116(11) . . .
113(11) . . .
128(11) . . .
130(11) . . .
127(11) . . .
137(12) . . .
109(10) . . .
136(12) . . .
108(10) . . .
121(11) . . .
137(12) . . .
126(11) . . .
148(12) . . .
127(11) . . .
123(11) . . .
119(11) . . .
143(12) . . .
131(11) . . .
114(11) . . .
134(12) . . .
131(11) . . .
124(11) . . .
132(11) . . .
123(11) . . .
127(11) . . .
115(11) . . .
152(12) . . .
116(11) . . .
143(12) . . .
116(11) . . .
116(11) . . .
127(11) . . .
113(11) . . .
138(12) . . .
141(12) . . .
129(11) . . .
111(11) . . .
131(11) . . .
119(11) . . .
122(11) . . .
128(11) . . .
127(11) . . .
118(11) . . .
120(11) . . .
116(11) . . .
133(12) . . .
128(11) . . .
110(10) . . .
102(10) . . .
145(12) . . .
132(11) . . .
127(11) . . .
110(10) . . .
138(12) . . .
130(11) . . .
112(11) . . .
117(11) . . .
121(11) . . .
126(11) . . .
116(11) . . .
132(11) . . .
123(11) . . .
116(11) . . .
137(12) . . .
138(12) . . .
123(11) . . .
123(11) . . .
119(11) . . .
115(11) . . .
126(11) . . .
134(12) . . .
119(11) . . .
135(12) . . .
125(11) . . .
118(11) . . .
124(11) . . .
122(11) . . .
114(11) . . .
130(11) . . .
108(10) . . .
120(11) . . .
120(11) . . .
130(11) . . .
109(10) . . .
126(11) . . .
121(11) . . .
115(11) . . .
132(11) . . .
134(12) . . .
128(11) . . .
150(12) . . .
127(11) . . .
125(11) . . .
121(11) . . .
125(11) . . .
115(11) . . .
126(11) . . .
124(11) . . .
133(12) . . .
117(11) . . .
130(11) . . .
121(11) . . .
126(11) . . .
129(11) . . .
107(10) . . .
102(10) . . .
120(11) . . .
120(11) . . .
125(11) . . .
104(10) . . .
118(11) . . .
121(11) . . .
104(10) . . .
110(10) . . .
123(11) . . .
110(10) . . .
127(11) . . .
127(11) . . .
116(11) . . .
124(11) . . .
121(11) . . .
118(11) . . .
124(11) . . .
118(11) . . .
105(10) . . .
119(11) . . .
125(11) . . .
115(11) . . .
122(11) . . .
134(12) . . .
112(11) . . .
127(11) . . .
119(11) . . .
119(11) . . .
133(12) . . .
127(11) . . .
119(11) . . .
125(11) . . .
133(12) . . .
116(11) . . .
131(11) . . .
119(11) . . .
126(11) . . .
129(11) . . .
124(11) . . .
124(11) . . .
130(11) . . .
133(12) . . .
115(11) . . .
135(12) . . .
127(11) . . .
125(11) . . .
117(11) . . .
116(11) . . .
100(10) . . .
110(10) . . .
129(11) . . .
128(11) . . .
101(10) . . .
115(11) . . .
121(11) . . .
109(10) . . .
102(10) . . .
109(10) . . .
118(11) . . .
112(11) . . .
122(11) . . .
120(11) . . .
123(11) . . .
122(11) . . .
118(11) . . .
129(11) . . .
126(11) . . .
113(11) . . .
129(11) . . .
128(11) . . .
137(12) . . .
109(10) . . .
103(10) . . .
103(10) . . .
122(11) . . .
113(11) . . .
130(11) . . .
126(11) . . .
128(11) . . .
128(11) . . .
135(12) . . .
143(12) . . .
125(11) . . .
117(11) . . .
121(11) . . .
122(11) . . .
111(11) . . .
124(11) . . .
127(11) . . .
120(11) . . .
131(11) . . .
130(11) . . .
119(11) . . .
111(11) . . .
134(12) . . .
121(11) . . .
118(11) . . .
125(11) . . .
119(11) . . .
101(10) . . .
117(11) . . .
109(10) . . .
111(11) . . .
119(11) . . .
131(11) . . .
128(11) . . .
108(10) . . .
118(11) . . .
111(11) . . .
112(11) . . .
128(11) . . .
116(11) . . .
115(11) . . .
124(11) . . .
130(11) . . .
124(11) . . .
103(10) . . .
130(11) . . .
124(11) . . .
122(11) . . .
124(11) . . .
113(11) . . .
101(10) . . .
120(11) . . .
140(12) . . .
111(11) . . .
117(11) . . .
129(11) . . .
119(11) . . .
109(10) . . .
113(11) . . .
115(11) . . .
112(11) . . .
129(11) . . .
106(10) . . .
117(11) . . .
128(11) . . .
125(11) . . .
130(11) . . .
113(11) . . .
125(11) . . .
122(11) . . .
137(12) . . .
111(11) . . .
142(12) . . .
120(11) . . .
114(11) . . .
118(11) . . .
144(12) . . .
137(12) . . .
136(12) . . .
121(11) . . .
118(11) . . .
131(11) . . .
121(11) . . .
111(11) . . .
104(10) . . .
112(11) . . .
109(10) . . .
105(10) . . .
129(11) . . .
107(10) . . .
135(12) . . .
119(11) . . .
107(10) . . .
116(11) . . .
121(11) . . .
128(11) . . .
125(11) . . .
122(11) . . .
116(11) . . .
123(11) . . .
99(10) . . .
119(11) . . .
120(11) . . .
130(11) . . .
121(11) . . .
121(11) . . .
122(11) . . .
124(11) . . .
131(11) . . .
125(11) . . .
114(11) . . .
136(12) . . .
128(11) . . .
113(11) . . .
129(11) . . .
111(11) . . .
112(11) . . .
123(11) . . .
115(11) . . .
117(11) . . .
120(11) . . .
143(12) . . .
105(10) . . .
122(11) . . .
121(11) . . .
121(11) . . .
105(10) . . .
130(11) . . .
119(11) . . .
117(11) . . .
110(10) . . .
113(11) . . .
117(11) . . .
147(12) . . .
113(11) . . .
119(11) . . .
121(11) . . .
129(11) . . .
128(11) . . .
105(10) . . .
119(11) . . .
128(11) . . .
117(11) . . .
108(10) . . .
106(10) . . .
123(11) . . .
111(11) . . .
117(11) . . .
112(11) . . .
136(12) . . .
107(10) . . .
130(11) . . .
120(11) . . .
120(11) . . .
109(10) . . .
110(10) . . .
122(11) . . .
123(11) . . .
139(12) . . .
110(10) . . .
112(11) . . .
126(11) . . .
125(11) . . .
121(11) . . .
101(10) . . .
117(11) . . .
143(12) . . .
114(11) . . .
127(11) . . .
129(11) . . .
104(10) . . .
122(11) . . .
124(11) . . .
105(10) . . .
112(11) . . .
117(11) . . .
125(11) . . .
122(11) . . .
118(11) . . .
104(10) . . .
127(11) . . .
113(11) . . .
128(11) . . .
118(11) . . .
95(10) . . .
108(10) . . .
105(10) . . .
125(11) . . .
98(10) . . .
120(11) . . .
117(11) . . .
128(11) . . .
113(11) . . .
123(11) . . .
121(11) . . .
117(11) . . .
111(11) . . .
114(11) . . .
124(11) . . .
110(10) . . .
124(11) . . .
129(11) . . .
123(11) . . .
123(11) . . .
128(11) . . .
128(11) . . .
131(11) . . .
125(11) . . .
129(11) . . .
102(10) . . .
124(11) . . .
118(11) . . .
133(12) . . .
122(11) . . .
114(11) . . .
112(11) . . .
142(12) . . .
121(11) . . .
111(11) . . .
140(12) . . .
132(11) . . .
107(10) . . .
106(10) . . .
120(11) . . .
120(11) . . .
108(10) . . .
136(12) . . .
126(11) . . .
112(11) . . .
118(11) . . .
101(10) . . .
122(11) . . .
116(11) . . .
129(11) . . .
113(11) . . .
120(11) . . .
121(11) . . .
106(10) . . .
114(11) . . .
129(11) . . .
119(11) . . .
123(11) . . .
123(11) . . .
116(11) . . .
108(10) . . .
113(11) . . .
109(10) . . .
115(11) . . .
126(11) . . .
109(10) . . .
111(11) . . .
112(11) . . .
114(11) . . .
117(11) . . .
121(11) . . .
120(11) . . .
118(11) . . .
110(10) . . .
130(11) . . .
131(11) . . .
116(11) . . .
113(11) . . .
140(12) . . .
139(12) . . .
123(11) . . .
120(11) . . .
124(11) . . .
129(11) . . .
109(10) . . .
119(11) . . .
118(11) . . .
124(11) . . .
105(10) . . .
133(12) . . .
112(11) . . .
118(11) . . .
125(11) . . .
121(11) . . .
121(11) . . .
129(11) . . .
121(11) . . .
128(11) . . .
133(12) . . .
137(12) . . .
108(10) . . .
121(11) . . .
126(11) . . .
135(12) . . .
120(11) . . .
124(11) . . .
142(12) . . .
132(11) . . .
130(11) . . .
118(11) . . .
118(11) . . .
134(12) . . .
118(11) . . .
112(11) . . .
127(11) . . .
133(12) . . .
106(10) . . .
136(12) . . .
118(11) . . .
107(10) . . .
123(11) . . .
126(11) . . .
135(12) . . .
117(11) . . .
134(12) . . .
120(11) . . .
132(11) . . .
124(11) . . .
109(10) . . .
121(11) . . .
112(11) . . .
110(10) . . .
126(11) . . .
130(11) . . .
131(11) . . .
131(11) . . .
123(11) . . .
123(11) . . .
123(11) . . .
118(11) . . .
115(11) . . .
115(11) . . .
139(12) . . .
130(11) . . .
113(11) . . .
134(12) . . .
136(12) . . .
139(12) . . .
133(12) . . .
125(11) . . .
138(12) . . .
126(11) . . .
109(10) . . .
136(12) . . .
123(11) . . .
133(12) . . .
134(12) . . .
132(11) . . .
115(11) . . .
137(12) . . .
97(10) . . .
128(11) . . .
127(11) . . .
148(12) . . .
141(12) . . .
128(11) . . .
141(12) . . .
137(12) . . .
126(11) . . .
110(10) . . .
124(11) . . .
119(11) . . .
134(12) . . .
142(12) . . .
145(12) . . .
123(11) . . .
144(12) . . .
130(11) . . .
134(12) . . .
140(12) . . .
118(11) . . .
131(11) . . .
126(11) . . .
138(12) . . .
127(11) . . .
112(11) . . .
139(12) . . .
120(11) . . .
130(11) . . .
134(12) . . .
112(11) . . .
130(11) . . .
132(11) . . .
124(11) . . .
129(11) . . .
123(11) . . .
141(12) . . .
128(11) . . .
141(12) . . .
123(11) . . .
121(11) . . .
104(10) . . .
134(12) . . .
117(11) . . .
126(11) . . .
147(12) . . .
116(11) . . .
128(11) . . .
118(11) . . .
108(10) . . .
123(11) . . .
134(12) . . .
119(11) . . .
131(11) . . .
114(11) . . .
107(10) . . .
132(11) . . .
117(11) . . .
115(11) . . .
131(11) . . .
104(10) . . .
126(11) . . .
132(11) . . .
106(10) . . .
119(11) . . .
122(11) . . .
122(11) . . .
104(10) . . .
125(11) . . .
134(12) . . .
155(12) . . .
125(11) . . .
120(11) . . .
114(11) . . .
121(11) . . .
130(11) . . .
135(12) . . .
121(11) . . .
121(11) . . .
122(11) . . .
105(10) . . .
119(11) . . .
120(11) . . .
141(12) . . .
116(11) . . .
116(11) . . .
120(11) . . .
135(12) . . .
116(11) . . .
140(12) . . .
132(11) . . .
122(11) . . .
135(12) . . .
127(11) . . .
133(12) . . .
120(11) . . .
132(11) . . .
124(11) . . .
136(12) . . .
127(11) . . .
123(11) . . .
123(11) . . .
116(11) . . .
118(11) . . .
116(11) . . .
117(11) . . .
135(12) . . .
136(12) . . .
129(11) . . .
114(11) . . .
112(11) . . .
127(11) . . .
119(11) . . .
113(11) . . .
114(11) . . .
118(11) . . .
110(10) . . .
132(11) . . .
129(11) . . .
129(11) . . .
127(11) . . .
116(11) . . .
116(11) . . .
133(12) . . .
120(11) . . .
125(11) . . .
117(11) . . .
117(11) . . .
116(11) . . .
134(12) . . .
118(11) . . .
123(11) . . .
132(11) . . .
127(11) . . .
138(12) . . .
123(11) . . .
131(11) . . .
140(12) . . .
143(12) . . .
137(12) . . .
123(11) . . .
127(11) . . .
129(11) . . .
111(11) . . .
108(10) . . .
110(10) . . .
142(12) . . .
140(12) . . .
114(11) . . .
128(11) . . .
127(11) . . .
115(11) . . .
122(11) . . .
125(11) . . .
131(11) . . .
119(11) . . .
132(11) . . .
131(11) . . .
126(11) . . .
122(11) . . .
122(11) . . .
112(11) . . .
121(11) . . .
118(11) . . .
112(11) . . .
131(11) . . .
143(12) . . .
120(11) . . .
120(11) . . .
107(10) . . .
119(11) . . .
125(11) . . .
128(11) . . .
112(11) . . .
131(11) . . .
120(11) . . .
125(11) . . .
108(10) . . .
122(11) . . .
125(11) . . .
108(10) . . .
110(10) . . .
133(12) . . .
122(11) . . .
120(11) . . .
128(11) . . .
119(11) . . .
121(11) . . .
129(11) . . .
121(11) . . .
122(11) . . .
126(11) . . .
133(12) . . .
126(11) . . .
140(12) . . .
120(11) . . .
113(11) . . .
116(11) . . .
139(12) . . .
126(11) . . .
139(12) . . .
128(11) . . .
141(12) . . .
132(11) . . .
127(11) . . .
112(11) . . .
126(11) . . .
139(12) . . .
156(12) . . .
140(12) . . .
152(12) . . .
136(12) . . .
124(11) . . .
136(12) . . .
129(11) . . .
123(11) . . .
115(11) . . .
149(12) . . .
140(12) . . .
111(11) . . .
132(11) . . .
133(12) . . .
138(12) . . .
125(11) . . .
138(12) . . .
129(11) . . .
132(11) . . .
116(11) . . .
152(12) . . .
130(11) . . .
127(11) . . .
134(12) . . .
143(12) . . .
111(11) . . .
128(11) . . .
131(11) . . .
130(11) . . .
134(12) . . .
153(12) . . .
141(12) . . .
142(12) . . .
137(12) . . .
149(12) . . .
146(12) . . .
139(12) . . .
149(12) . . .
134(12) . . .
155(12) . . .
138(12) . . .
168(13) . . .
126(11) . . .
136(12) . . .
136(12) . . .
135(12) . . .
146(12) . . .
126(11) . . .
142(12) . . .
130(11) . . .
132(11) . . .
136(12) . . .
133(12) . . .
137(12) . . .
126(11) . . .
147(12) . . .
132(11) . . .
142(12) . . .
133(12) . . .
146(12) . . .
150(12) . . .
146(12) . . .
135(12) . . .
150(12) . . .
150(12) . . .
144(12) . . .
151(12) . . .
136(12) . . .
153(12) . . .
134(12) . . .
142(12) . . .
150(12) . . .
153(12) . . .
138(12) . . .
142(12) . . .
161(13) . . .
139(12) . . .
139(12) . . .
152(12) . . .
147(12) . . .
161(13) . . .
160(13) . . .
150(12) . . .
146(12) . . .
168(13) . . .
162(13) . . .
157(13) . . .
156(12) . . .
175(13) . . .
161(13) . . .
152(12) . . .
167(13) . . .
153(12) . . .
187(14) . . .
185(14) . . .
161(13) . . .
167(13) . . .
154(12) . . .
160(13) . . .
182(13) . . .
171(13) . . .
185(14) . . .
161(13) . . .
168(13) . . .
187(14) . . .
181(13) . . .
194(14) . . .
190(14) . . .
195(14) . . .
197(14) . . .
187(14) . . .
183(14) . . .
187(14) . . .
181(13) . . .
196(14) . . .
180(13) . . .
197(14) . . .
199(14) . . .
203(14) . . .
215(15) . . .
187(14) . . .
203(14) . . .
200(14) . . .
232(15) . . .
210(14) . . .
211(15) . . .
218(15) . . .
211(15) . . .
215(15) . . .
235(15) . . .
232(15) . . .
256(16) . . .
248(16) . . .
268(16) . . .
282(17) . . .
304(17) . . .
295(17) . . .
284(17) . . .
270(16) . . .
357(19) . . .
319(18) . . .
300(17) . . .
331(18) . . .
340(18) . . .
312(18) . . .
366(19) . . .
369(19) . . .
366(19) . . .
381(20) . . .
389(20) . . .
409(20) . . .
403(20) . . .
465(22) . . .
434(21) . . .
462(21) . . .
467(22) . . .
488(22) . . .
488(22) . . .
494(22) . . .
535(23) . . .
511(23) . . .
558(24) . . .
546(23) . . .
596(24) . . .
622(25) . . .
619(25) . . .
644(25) . . .
669(26) . . .
681(26) . . .
742(27) . . .
806(28) . . .
772(28) . . .
805(28) . . .
847(29) . . .
845(29) . . .
941(31) . . .
998(32) . . .
1019(32) . . .
1078(33) . . .
1217(35) . . .
1215(35) . . .
1279(36) . . .
1374(37) . . .
1439(38) . . .
1498(39) . . .
1536(39) . . .
1628(40) . . .
1745(42) . . .
1849(43) . . .
1905(44) . . .
2048(45) . . .
1999(45) . . .
2054(45) . . .
2161(46) . . .
2276(48) . . .
2379(49) . . .
2343(48) . . .
2478(50) . . .
2532(50) . . .
2538(50) . . .
2500(50) . . .
2539(50) . . .
2521(50) . . .
2544(50) . . .
2530(50) . . .
2470(50) . . .
2527(50) . . .
2404(49) . . .
2341(48) . . .
2225(47) . . .
2262(48) . . .
2077(46) . . .
2057(45) . . .
1984(45) . . .
1845(43) . . .
1803(42) . . .
1649(41) . . .
1620(40) . . .
1530(39) . . .
1411(38) . . .
1349(37) . . .
1240(35) . . .
1260(35) . . .
1144(34) . . .
1107(33) . . .
1072(33) . . .
1032(32) . . .
1026(32) . . .
886(30) . . .
864(29) . . .
847(29) . . .
824(29) . . .
794(28) . . .
681(26) . . .
737(27) . . .
711(27) . . .
642(25) . . .
641(25) . . .
617(25) . . .
582(24) . . .
584(24) . . .
493(22) . . .
536(23) . . .
491(22) . . .
487(22) . . .
475(22) . . .
486(22) . . .
468(22) . . .
419(20) . . .
382(20) . . .
400(20) . . .
406(20) . . .
377(19) . . .
401(20) . . .
340(18) . . .
336(18) . . .
351(19) . . .
369(19) . . .
329(18) . . .
320(18) . . .
308(18) . . .
311(18) . . .
297(17) . . .
285(17) . . .
332(18) . . .
290(17) . . .
240(15) . . .
271(16) . . .
266(16) . . .
266(16) . . .
237(15) . . .
235(15) . . .
248(16) . . .
252(16) . . .
216(15) . . .
204(14) . . .
221(15) . . .
233(15) . . .
250(16) . . .
204(14) . . .
224(15) . . .
211(15) . . .
213(15) . . .
206(14) . . .
201(14) . . .
199(14) . . .
197(14) . . .
181(13) . . .
196(14) . . .
219(15) . . .
200(14) . . .
197(14) . . .
200(14) . . .
192(14) . . .
177(13) . . .
199(14) . . .
180(13) . . .
183(14) . . .
172(13) . . .
162(13) . . .
189(14) . . .
168(13) . . .
180(13) . . .
166(13) . . .
178(13) . . .
169(13) . . .
169(13) . . .
174(13) . . .
155(12) . . .
167(13) . . .
175(13) . . .
163(13) . . .
167(13) . . .
158(13) . . .
184(14) . . .
161(13) . . .
156(12) . . .
160(13) . . .
163(13) . . .
159(13) . . .
166(13) . . .
145(12) . . .
151(12) . . .
149(12) . . .
134(12) . . .
165(13) . . .
134(12) . . .
159(13) . . .
174(13) . . .
151(12) . . .
138(12) . . .
140(12) . . .
141(12) . . .
151(12) . . .
153(12) . . .
143(12) . . .
135(12) . . .
146(12) . . .
160(13) . . .
146(12) . . .
159(13) . . .
148(12) . . .
136(12) . . .
155(12) . . .
133(12) . . .
144(12) . . .
152(12) . . .
152(12) . . .
145(12) . . .
155(12) . . .
149(12) . . .
154(12) . . .
139(12) . . .
148(12) . . .
118(11) . . .
148(12) . . .
144(12) . . .
131(11) . . .
136(12) . . .
147(12) . . .
149(12) . . .
128(11) . . .
146(12) . . .
138(12) . . .
147(12) . . .
157(13) . . .
172(13) . . .
145(12) . . .
143(12) . . .
134(12) . . .
137(12) . . .
138(12) . . .
147(12) . . .
144(12) . . .
132(11) . . .
152(12) . . .
149(12) . . .
137(12) . . .
117(11) . . .
112(11) . . .
124(11) . . .
122(11) . . .
135(12) . . .
130(11) . . .
128(11) . . .
136(12) . . .
125(11) . . .
133(12) . . .
130(11) . . .
134(12) . . .
127(11) . . .
125(11) . . .
134(12) . . .
120(11) . . .
138(12) . . .
129(11) . . .
140(12) . . .
142(12) . . .
129(11) . . .
142(12) . . .
127(11) . . .
142(12) . . .
131(11) . . .
133(12) . . .
149(12) . . .
139(12) . . .
121(11) . . .
143(12) . . .
130(11) . . .
122(11) . . .
141(12) . . .
129(11) . . .
142(12) . . .
140(12) . . .
135(12) . . .
145(12) . . .
141(12) . . .
139(12) . . .
136(12) . . .
148(12) . . .
139(12) . . .
130(11) . . .
123(11) . . .
119(11) . . .
113(11) . . .
130(11) . . .
135(12) . . .
124(11) . . .
120(11) . . .
118(11) . . .
131(11) . . .
135(12) . . .
119(11) . . .
119(11) . . .
131(11) . . .
119(11) . . .
137(12) . . .
137(12) . . .
159(13) . . .
120(11) . . .
128(11) . . .
145(12) . . .
134(12) . . .
123(11) . . .
134(12) . . .
128(11) . . .
147(12) . . .
136(12) . . .
127(11) . . .
133(12) . . .
149(12) . . .
151(12) . . .
123(11) . . .
129(11) . . .
127(11) . . .
152(12) . . .
135(12) . . .
118(11) . . .
138(12) . . .
150(12) . . .
136(12) . . .
129(11) . . .
111(11) . . .
138(12) . . .
132(11) . . .
153(12) . . .
150(12) . . .
134(12) . . .
142(12) . . .
140(12) . . .
135(12) . . .
128(11) . . .
141(12) . . .
117(11) . . .
151(12) . . .
136(12) . . .
128(11) . . .
125(11) . . .
142(12) . . .
140(12) . . .
140(12) . . .
153(12) . . .
161(13) . . .
135(12) . . .
161(13) . . .
154(12) . . .
144(12) . . .
136(12) . . .
173(13) . . .
172(13) . . .
155(12) . . .
163(13) . . .
156(12) . . .
164(13) . . .
141(12) . . .
172(13) . . .
138(12) . . .
155(12) . . .
160(13) . . .
149(12) . . .
161(13) . . .
151(12) . . .
172(13) . . .
175(13) . . .
163(13) . . .
165(13) . . .
158(13) . . .
143(12) . . .
167(13) . . .
166(13) . . .
182(13) . . .
165(13) . . .
193(14) . . .
194(14) . . .
168(13) . . .
194(14) . . .
191(14) . . .
169(13) . . .
201(14) . . .
208(14) . . .
215(15) . . .
216(15) . . .
193(14) . . .
218(15) . . .
212(15) . . .
224(15) . . .
226(15) . . .
214(15) . . .
245(16) . . .
240(15) . . .
203(14) . . .
236(15) . . .
248(16) . . .
261(16) . . .
270(16) . . .
255(16) . . .
265(16) . . .
287(17) . . .
297(17) . . .
307(18) . . .
319(18) . . .
322(18) . . .
368(19) . . .
323(18) . . .
328(18) . . .
360(19) . . .
352(19) . . .
360(19) . . .
413(20) . . .
416(20) . . .
405(20) . . .
459(21) . . .
459(21) . . .
491(22) . . .
490(22) . . .
527(23) . . .
542(23) . . .
572(24) . . .
576(24) . . .
636(25) . . .
623(25) . . .
665(26) . . .
662(26) . . .
702(26) . . .
756(27) . . .
736(27) . . .
764(28) . . .
772(28) . . .
826(29) . . .
807(28) . . .
765(28) . . .
802(28) . . .
855(29) . . .
798(28) . . .
780(28) . . .
774(28) . . .
796(28) . . .
762(28) . . .
782(28) . . .
753(27) . . .
688(26) . . .
695(26) . . .
744(27) . . .
779(28) . . .
693(26) . . .
643(25) . . .
677(26) . . .
688(26) . . .
630(25) . . .
589(24) . . .
594(24) . . .
554(24) . . .
563(24) . . .
540(23) . . .
512(23) . . .
452(21) . . .
456(21) . . .
414(20) . . .
407(20) . . .
380(19) . . .
366(19) . . .
390(20) . . .
349(19) . . .
312(18) . . .
316(18) . . .
304(17) . . .
296(17) . . .
282(17) . . .
298(17) . . .
286(17) . . .
288(17) . . .
273(17) . . .
246(16) . . .
277(17) . . .
247(16) . . .
218(15) . . .
228(15) . . .
251(16) . . .
250(16) . . .
216(15) . . .
217(15) . . .
232(15) . . .
222(15) . . .
207(14) . . .
212(15) . . .
193(14) . . .
207(14) . . .
194(14) . . .
197(14) . . .
195(14) . . .
173(13) . . .
188(14) . . .
165(13) . . .
159(13) . . .
177(13) . . .
180(13) . . .
162(13) . . .
166(13) . . .
164(13) . . .
148(12) . . .
175(13) . . .
148(12) . . .
144(12) . . .
154(12) . . .
162(13) . . .
158(13) . . .
137(12) . . .
159(13) . . .
164(13) . . .
147(12) . . .
169(13) . . .
137(12) . . .
140(12) . . .
148(12) . . .
145(12) . . .
137(12) . . .
152(12) . . .
149(12) . . .
121(11) . . .
150(12) . . .
125(11) . . .
133(12) . . .
138(12) . . .
131(11) . . .
137(12) . . .
141(12) . . .
148(12) . . .
131(11) . . .
152(12) . . .
141(12) . . .
133(12) . . .
130(11) . . .
150(12) . . .
127(11) . . .
122(11) . . .
149(12) . . .
120(11) . . .
141(12) . . .
146(12) . . .
139(12) . . .
140(12) . . .
136(12) . . .
128(11) . . .
156(12) . . .
125(11) . . .
140(12) . . .
126(11) . . .
161(13) . . .
138(12) . . .
118(11) . . .
153(12) . . .
116(11) . . .
128(11) . . .
126(11) . . .
142(12) . . .
118(11) . . .
133(12) . . .
145(12) . . .
130(11) . . .
129(11) . . .
135(12) . . .
134(12) . . .
117(11) . . .
126(11) . . .
134(12) . . .
122(11) . . .
131(11) . . .
100(10) . . .
140(12) . . .
139(12) . . .
131(11) . . .
115(11) . . .
127(11) . . .
132(11) . . .
125(11) . . .
128(11) . . .
132(11) . . .
122(11) . . .
126(11) . . .
121(11) . . .
137(12) . . .
123(11) . . .
136(12) . . .
133(12) . . .
136(12) . . .
131(11) . . .
112(11) . . .
122(11) . . .
121(11) . . .
129(11) . . .
121(11) . . .
138(12) . . .
127(11) . . .
122(11) . . .
128(11) . . .
117(11) . . .
122(11) . . .
140(12) . . .
150(12) . . .
144(12) . . .
123(11) . . .
138(12) . . .
124(11) . . .
107(10) . . .
125(11) . . .
127(11) . . .
118(11) . . .
130(11) . . .
127(11) . . .
128(11) . . .
119(11) . . .
139(12) . . .
117(11) . . .
101(10) . . .
107(10) . . .
123(11) . . .
118(11) . . .
125(11) . . .
104(10) . . .
125(11) . . .
124(11) . . .
128(11) . . .
116(11) . . .
112(11) . . .
124(11) . . .
123(11) . . .
97(10) . . .
113(11) . . .
114(11) . . .
140(12) . . .
106(10) . . .
109(10) . . .
112(11) . . .
122(11) . . .
109(10) . . .
123(11) . . .
124(11) . . .
124(11) . . .
117(11) . . .
117(11) . . .
133(12) . . .
135(12) . . .
111(11) . . .
116(11) . . .
119(11) . . .
122(11) . . .
116(11) . . .
129(11) . . .
131(11) . . .
115(11) . . .
106(10) . . .
104(10) . . .
120(11) . . .
137(12) . . .
120(11) . . .
111(11) . . .
123(11) . . .
121(11) . . .
114(11) . . .
99(10) . . .
126(11) . . .
125(11) . . .
122(11) . . .
127(11) . . .
113(11) . . .
123(11) . . .
120(11) . . .
115(11) . . .
142(12) . . .
117(11) . . .
126(11) . . .
108(10) . . .
118(11) . . .
119(11) . . .
131(11) . . .
132(11) . . .
110(10) . . .
123(11) . . .
127(11) . . .
116(11) . . .
111(11) . . .
117(11) . . .
131(11) . . .
109(10) . . .
121(11) . . .
139(12) . . .
119(11) . . .
110(10) . . .
126(11) . . .
108(10) . . .
112(11) . . .
123(11) . . .
123(11) . . .
113(11) . . .
118(11) . . .
142(12) . . .
115(11) . . .
130(11) . . .
119(11) . . .
113(11) . . .
123(11) . . .
120(11) . . .
131(11) . . .
147(12) . . .
129(11) . . .
128(11) . . .
151(12) . . .
114(11) . . .
129(11) . . .
117(11) . . .
121(11) . . .
105(10) . . .
110(10) . . .
96(10) . . .
116(11) . . .
119(11) . . .
103(10) . . .
115(11) . . .
115(11) . . .
125(11) . . .
138(12) . . .
111(11) . . .
108(10) . . .
130(11) . . .
131(11) . . .
123(11) . . .
134(12) . . .
118(11) . . .
129(11) . . .
120(11) . . .
98(10) . . .
113(11) . . .
135(12) . . .
124(11) . . .
131(11) . . .
115(11) . . .
122(11) . . .
113(11) . . .
100(10) . . .
106(10) . . .
123(11) . . .
113(11) . . .
104(10) . . .
123(11) . . .
125(11) . . .
118(11) . . .
124(11) . . .
116(11) . . .
123(11) . . .
109(10) . . .
123(11) . . .
113(11) . . .
123(11) . . .
128(11) . . .
110(10) . . .
123(11) . . .
112(11) . . .
120(11) . . .
102(10) . . .
134(12) . . .
116(11) . . .
106(10) . . .
125(11) . . .
120(11) . . .
115(11) . . .
109(10) . . .
127(11) . . .
125(11) . . .
105(10) . . .
103(10) . . .
130(11) . . .
137(12) . . .
123(11) . . .
100(10) . . .
105(10) . . .
112(11) . . .
116(11) . . .
113(11) . . .
111(11) . . .
119(11) . . .
127(11) . . .
105(10) . . .
116(11) . . .
126(11) . . .
111(11) . . .
123(11) . . .
118(11) . . .
114(11) . . .
128(11) . . .
136(12) . . .
128(11) . . .
118(11) . . .
123(11) . . .
118(11) . . .
108(10) . . .
132(11) . . .
123(11) . . .
128(11) . . .
112(11) . . .
129(11) . . .
110(10) . . .
133(12) . . .
135(12) . . .
116(11) . . .
122(11) . . .
134(12) . . .
122(11) . . .
107(10) . . .
135(12) . . .
108(10) . . .
123(11) . . .
126(11) . . .
114(11) . . .
116(11) . . .
139(12) . . .
129(11) . . .
108(10) . . .
113(11) . . .
99(10) . . .
121(11) . . .
109(10) . . .
117(11) . . .
106(10) . . .
125(11) . . .
117(11) . . .
114(11) . . .
108(10) . . .
133(12) . . .
102(10) . . .
107(10) . . .
111(11) . . .
108(10) . . .
126(11) . . .
124(11) . . .
119(11) . . .
124(11) . . .
121(11) . . .
118(11) . . .
99(10) . . .
109(10) . . .
105(10) . . .
111(11) . . .
112(11) . . .
121(11) . . .
99(10) . . .
119(11) . . .
109(10) . . .
102(10) . . .
112(11) . . .
102(10) . . .
110(10) . . .
111(11) . . .
96(10) . . .
114(11) . . .
117(11) . . .
118(11) . . .
125(11) . . .
106(10) . . .
126(11) . . .
133(12) . . .
119(11) . . .
125(11) . . .
120(11) . . .
112(11) . . .
117(11) . . .
127(11) . . .
130(11) . . .
118(11) . . .
111(11) . . .
121(11) . . .
108(10) . . .
108(10) . . .
120(11) . . .
125(11) . . .
116(11) . . .
119(11) . . .
137(12) . . .
120(11) . . .
110(10) . . .
108(10) . . .
126(11) . . .
102(10) . . .
114(11) . . .
110(10) . . .
101(10) . . .
105(10) . . .
114(11) . . .
121(11) . . .
107(10) . . .
117(11) . . .
108(10) . . .
114(11) . . .
108(10) . . .
113(11) . . .
109(10) . . .
113(11) . . .
113(11) . . .
111(11) . . .
112(11) . . .
102(10) . . .
108(10) . . .
98(10) . . .
97(10) . . .
123(11) . . .
113(11) . . .
123(11) . . .
117(11) . . .
126(11) . . .
117(11) . . .
92(10) . . .
116(11) . . .
126(11) . . .
119(11) . . .
121(11) . . .
126(11) . . .
112(11) . . .
126(11) . . .
121(11) . . .
108(10) . . .
112(11) . . .
107(10) . . .
105(10) . . .
117(11) . . .
108(10) . . .
118(11) . . .
113(11) . . .
115(11) . . .
108(10) . . .
115(11) . . .
112(11) . . .
110(10) . . .
98(10) . . .
99(10) . . .
106(10) . . .
103(10) . . .
99(10) . . .
108(10) . . .
128(11) . . .
100(10) . . .
92(10) . . .
109(10) . . .
111(11) . . .
97(10) . . .
109(10) . . .
116(11) . . .
117(11) . . .
97(10) . . .
104(10) . . .
111(11) . . .
124(11) . . .
91(10) . . .
103(10) . . .
108(10) . . .
101(10) . . .
123(11) . . .
113(11) . . .
113(11) . . .
112(11) . . .
123(11) . . .
117(11) . . .
119(11) . . .
131(11) . . .
113(11) . . .
130(11) . . .
117(11) . . .
121(11) . . .
125(11) . . .
117(11) . . .
107(10) . . .
92(10) . . .
124(11) . . .
115(11) . . .
125(11) . . .
119(11) . . .
113(11) . . .
112(11) . . .
107(10) . . .
109(10) . . .
113(11) . . .
116(11) . . .
109(10) . . .
114(11) . . .
104(10) . . .
102(10) . . .
117(11) . . .
114(11) . . .
118(11) . . .
126(11) . . .
96(10) . . .
106(10) . . .
100(10) . . .
112(11) . . .
119(11) . . .
112(11) . . .
118(11) . . .
115(11) . . .
115(11) . . .
123(11) . . .
103(10) . . .
123(11) . . .
124(11) . . .
115(11) . . .
110(10) . . .
110(10) . . .
111(11) . . .
120(11) . . .
96(10) . . .
122(11) . . .
105(10) . . .
109(10) . . .
120(11) . . .
138(12) . . .
112(11) . . .
112(11) . . .
122(11) . . .
122(11) . . .
125(11) . . .
115(11) . . .
109(10) . . .
112(11) . . .
118(11) . . .
114(11) . . .
123(11) . . .
112(11) . . .
124(11) . . .
119(11) . . .
117(11) . . .
148(12) . . .
115(11) . . .
105(10) . . .
116(11) . . .
104(10) . . .
109(10) . . .
121(11) . . .
108(10) . . .
122(11) . . .
119(11) . . .
120(11) . . .
104(10) . . .
120(11) . . .
107(10) . . .
115(11) . . .
125(11) . . .
122(11) . . .
118(11) . . .
108(10) . . .
111(11) . . .
98(10) . . .
130(11) . . .
124(11) . . .
107(10) . . .
126(11) . . .
122(11) . . .
110(10) . . .
122(11) . . .
110(10) . . .
116(11) . . .
120(11) . . .
119(11) . . .
128(11) . . .
116(11) . . .
122(11) . . .
113(11) . . .
129(11) . . .
133(12) . . .
124(11) . . .
110(10) . . .
124(11) . . .
115(11) . . .
127(11) . . .
103(10) . . .
124(11) . . .
115(11) . . .
125(11) . . .
121(11) . . .
118(11) . . .
121(11) . . .
121(11) . . .
122(11) . . .
130(11) . . .
115(11) . . .
111(11) . . .
107(10) . . .
120(11) . . .
119(11) . . .
101(10) . . .
105(10) . . .
95(10) . . .
115(11) . . .
114(11) . . .
119(11) . . .
110(10) . . .
119(11) . . .
117(11) . . .
124(11) . . .
112(11) . . .
109(10) . . .
114(11) . . .
115(11) . . .
108(10) . . .
112(11) . . .
105(10) . . .
112(11) . . .
123(11) . . .
109(10) . . .
125(11) . . .
117(11) . . .
105(10) . . .
103(10) . . .
108(10) . . .
119(11) . . .
105(10) . . .
113(11) . . .
111(11) . . .
124(11) . . .
134(12) . . .
106(10) . . .
109(10) . . .
111(11) . . .
119(11) . . .
112(11) . . .
125(11) . . .
126(11) . . .
105(10) . . .
120(11) . . .
108(10) . . .
128(11) . . .
109(10) . . .
126(11) . . .
109(10) . . .
115(11) . . .
115(11) . . .
128(11) . . .
111(11) . . .
111(11) . . .
119(11) . . .
121(11) . . .
120(11) . . .
107(10) . . .
122(11) . . .
113(11) . . .
110(10) . . .
105(10) . . .
111(11) . . .
110(10) . . .
101(10) . . .
99(10) . . .
108(10) . . .
114(11) . . .
132(11) . . .
114(11) . . .
112(11) . . .
122(11) . . .
127(11) . . .
127(11) . . .
113(11) . . .
112(11) . . .
98(10) . . .
111(11) . . .
116(11) . . .
111(11) . . .
104(10) . . .
100(10) . . .
110(10) . . .
109(10) . . .
105(10) . . .
103(10) . . .
123(11) . . .
117(11) . . .
117(11) . . .
109(10) . . .
117(11) . . .
115(11) . . .
104(10) . . .
113(11) . . .
111(11) . . .
102(10) . . .
123(11) . . .
135(12) . . .
107(10) . . .
116(11) . . .
102(10) . . .
110(10) . . .
115(11) . . .
109(10) . . .
121(11) . . .
110(10) . . .
101(10) . . .
118(11) . . .
115(11) . . .
127(11) . . .
115(11) . . .
110(10) . . .
104(10) . . .
119(11) . . .
116(11) . . .
115(11) . . .
110(10) . . .
119(11) . . .
94(10) . . .
111(11) . . .
130(11) . . .
131(11) . . .
127(11) . . .
99(10) . . .
122(11) . . .
112(11) . . .
110(10) . . .
102(10) . . .
113(11) . . .
114(11) . . .
101(10) . . .
108(10) . . .
110(10) . . .
100(10) . . .
128(11) . . .
115(11) . . .
126(11) . . .
110(10) . . .
98(10) . . .
123(11) . . .
108(10) . . .
112(11) . . .
100(10) . . .
107(10) . . .
124(11) . . .
105(10) . . .
101(10) . . .
107(10) . . .
116(11) . . .
116(11) . . .
124(11) . . .
119(11) . . .
112(11) . . .
111(11) . . .
113(11) . . .
120(11) . . .
111(11) . . .
120(11) . . .
117(11) . . .
122(11) . . .
123(11) . . .
123(11) . . .
114(11) . . .
118(11) . . .
111(11) . . .
114(11) . . .
118(11) . . .
112(11) . . .
117(11) . . .
116(11) . . .
112(11) . . .
126(11) . . .
114(11) . . .
113(11) . . .
107(10) . . .
101(10) . . .
126(11) . . .
110(10) . . .
117(11) . . .
112(11) . . .
94(10) . . .
108(10) . . .
104(10) . . .
109(10) . . .
123(11) . . .
104(10) . . .
113(11) . . .
124(11) . . .
110(10) . . .
110(10) . . .
124(11) . . .
115(11) . . .
117(11) . . .
101(10) . . .
116(11) . . .
121(11) . . .
104(10) . . .
116(11) . . .
104(10) . . .
116(11) . . .
126(11) . . .
104(10) . . .
114(11) . . .
117(11) . . .
100(10) . . .
122(11) . . .
127(11) . . .
125(11) . . .
118(11) . . .
99(10) . . .
119(11) . . .
111(11) . . .
109(10) . . .
126(11) . . .
115(11) . . .
126(11) . . .
111(11) . . .
106(10) . . .
99(10) . . .
114(11) . . .
134(12) . . .
115(11) . . .
106(10) . . .
128(11) . . .
113(11) . . .
116(11) . . .
123(11) . . .
108(10) . . .
100(10) . . .
127(11) . . .
122(11) . . .
116(11) . . .
116(11) . . .
120(11) . . .
109(10) . . .
102(10) . . .
124(11) . . .
123(11) . . .
99(10) . . .
102(10) . . .
114(11) . . .
118(11) . . .
119(11) . . .
121(11) . . .
121(11) . . .
115(11) . . .
124(11) . . .
102(10) . . .
119(11) . . .
119(11) . . .
122(11) . . .
111(11) . . .
119(11) . . .
129(11) . . .
110(10) . . .
108(10) . . .
101(10) . . .
124(11) . . .
119(11) . . .
123(11) . . .
121(11) . . .
119(11) . . .
105(10) . . .
130(11) . . .
113(11) . . .
101(10) . . .
96(10) . . .
120(11) . . .
100(10) . . .
110(10) . . .
119(11) . . .
103(10) . . .
133(12) . . .
122(11) . . .
108(10) . . .
115(11) . . .
112(11) . . .
123(11) . . .
123(11) . . .
122(11) . . .
112(11) . . .
113(11) . . .
125(11) . . .
115(11) . . .
116(11) . . .
107(10) . . .
105(10) . . .
133(12) . . .
119(11) . . .
120(11) . . .
104(10) . . .
125(11) . . .
112(11) . . .
103(10) . . .
119(11) . . .
119(11) . . .
115(11) . . .
100(10) . . .
111(11) . . .
107(10) . . .
116(11) . . .
119(11) . . .
112(11) . . .
107(10) . . .
103(10) . . .
108(10) . . .
107(10) . . .
105(10) . . .
105(10) . . .
101(10) . . .
109(10) . . .
100(10) . . .
109(10) . . .
97(10) . . .
101(10) . . .
108(10) . . .
112(11) . . .
122(11) . . .
117(11) . . .
100(10) . . .
111(11) . . .
113(11) . . .
116(11) . . .
124(11) . . .
128(11) . . .
119(11) . . .
111(11) . . .
112(11) . . .
101(10) . . .
114(11) . . .
121(11) . . .
103(10) . . .
108(10) . . .
102(10) . . .
123(11) . . .
112(11) . . .
104(10) . . .
99(10) . . .
100(10) . . .
110(10) . . .
103(10) . . .
94(10) . . .
103(10) . . .
102(10) . . .
103(10) . . .
125(11) . . .
118(11) . . .
118(11) . . .
110(10) . . .
109(10) . . .
101(10) . . .
93(10) . . .
118(11) . . .
102(10) . . .
101(10) . . .
106(10) . . .
111(11) . . .
108(10) . . .
113(11) . . .
109(10) . . .
109(10) . . .
115(11) . . .
111(11) . . .
112(11) . . .
104(10) . . .
101(10) . . .
116(11) . . .
120(11) . . .
107(10) . . .
113(11) . . .
110(10) . . .
113(11) . . .
101(10) . . .
121(11) . . .
106(10) . . .
113(11) . . .
116(11) . . .
108(10) . . .
120(11) . . .
108(10) . . .
122(11) . . .
120(11) . . .
108(10) . . .
119(11) . . .
102(10) . . .
107(10) . . .
119(11) . . .
113(11) . . .
121(11) . . .
118(11) . . .
100(10) . . .
118(11) . . .
106(10) . . .
108(10) . . .
105(10) . . .
120(11) . . .
115(11) . . .
109(10) . . .
111(11) . . .
105(10) . . .
104(10) . . .
100(10) . . .
112(11) . . .
105(10) . . .
111(11) . . .
110(10) . . .
112(11) . . .
114(11) . . .
113(11) . . .
108(10) . . .
101(10) . . .
111(11) . . .
105(10) . . .
122(11) . . .
118(11) . . .
101(10) . . .
129(11) . . .
105(10) . . .
120(11) . . .
108(10) . . .
115(11) . . .
109(10) . . .
103(10) . . .
106(10) . . .
115(11) . . .
129(11) . . .
106(10) . . .
125(11) . . .
104(10) . . .
117(11) . . .
96(10) . . .
129(11) . . .
114(11) . . .
99(10) . . .
124(11) . . .
116(11) . . .
123(11) . . .
120(11) . . .
106(10) . . .
109(10) . . .
102(10) . . .
104(10) . . .
104(10) . . .
113(11) . . .
113(11) . . .
102(10) . . .
111(11) . . .
115(11) . . .
87(9) . . .
115(11) . . .
127(11) . . .
123(11) . . .
98(10) . . .
102(10) . . .
107(10) . . .
120(11) . . .
102(10) . . .
104(10) . . .
104(10) . . .
123(11) . . .
102(10) . . .
92(10) . . .
106(10) . . .
110(10) . . .
109(10) . . .
127(11) . . .
101(10) . . .
121(11) . . .
116(11) . . .
97(10) . . .
107(10) . . .
104(10) . . .
115(11) . . .
89(9) . . .
101(10) . . .
103(10) . . .
118(11) . . .
112(11) . . .
119(11) . . .
113(11) . . .
104(10) . . .
111(11) . . .
116(11) . . .
123(11) . . .
115(11) . . .
120(11) . . .
120(11) . . .
111(11) . . .
111(11) . . .
101(10) . . .
108(10) . . .
116(11) . . .
114(11) . . .
106(10) . . .
96(10) . . .
115(11) . . .
105(10) . . .
125(11) . . .
118(11) . . .
118(11) . . .
112(11) . . .
115(11) . . .
92(10) . . .
113(11) . . .
112(11) . . .
98(10) . . .
102(10) . . .
120(11) . . .
109(10) . . .
101(10) . . .
122(11) . . .
113(11) . . .
130(11) . . .
116(11) . . .
128(11) . . .
123(11) . . .
117(11) . . .
101(10) . . .
110(10) . . .
96(10) . . .
103(10) . . .
94(10) . . .
111(11) . . .
125(11) . . .
113(11) . . .
106(10) . . .
120(11) . . .
118(11) . . .
101(10) . . .
116(11) . . .
104(10) . . .
104(10) . . .
108(10) . . .
88(9) . . .
103(10) . . .
104(10) . . .
115(11) . . .
106(10) . . .
101(10) . . .
105(10) . . .
124(11) . . .
115(11) . . .
110(10) . . .
104(10) . . .
136(12) . . .
118(11) . . .
118(11) . . .
98(10) . . .
103(10) . . .
116(11) . . .
105(10) . . .
107(10) . . .
105(10) . . .
111(11) . . .
118(11) . . .
133(12) . . .
123(11) . . .
93(10) . . .
109(10) . . .
103(10) . . .
107(10) . . .
114(11) . . .
109(10) . . .
93(10) . . .
106(10) . . .
112(11) . . .
111(11) . . .
103(10) . . .
104(10) . . .
109(10) . . .
104(10) . . .
115(11) . . .
116(11) . . .
96(10) . . .
115(11) . . .
101(10) . . .
109(10) . . .
115(11) . . .
97(10) . . .
117(11) . . .
119(11) . . .
112(11) . . .
125(11) . . .
115(11) . . .
109(10) . . .
134(12) . . .
128(11) . . .
109(10) . . .
130(11) . . .
119(11) . . .
116(11) . . .
97(10) . . .
110(10) . . .
101(10) . . .
108(10) . . .
108(10) . . .
127(11) . . .
132(11) . . .
108(10) . . .
113(11) . . .
109(10) . . .
122(11) . . .
113(11) . . .
120(11) . . .
115(11) . . .
107(10) . . .
112(11) . . .
109(10) . . .
111(11) . . .
101(10) . . .
119(11) . . .
114(11) . . .
122(11) . . .
116(11) . . .
121(11) . . .
102(10) . . .
91(10) . . .
101(10) . . .
110(10) . . .
98(10) . . .
103(10) . . .
108(10) . . .
121(11) . . .
114(11) . . .
110(10) . . .
105(10) . . .
118(11) . . .
102(10) . . .
135(12) . . .
118(11) . . .
101(10) . . .
110(10) . . .
106(10) . . .
107(10) . . .
102(10) . . .
104(10) . . .
110(10) . . .
106(10) . . .
109(10) . . .
116(11) . . .
114(11) . . .
107(10) . . .
111(11) . . .
103(10) . . .
103(10) . . .
108(10) . . .
118(11) . . .
115(11) . . .
105(10) . . .
108(10) . . .
115(11) . . .
100(10) . . .
121(11) . . .
107(10) . . .
115(11) . . .
103(10) . . .
102(10) . . .
117(11) . . .
105(10) . . .
113(11) . . .
119(11) . . .
113(11) . . .
116(11) . . .
115(11) . . .
120(11) . . .
101(10) . . .
112(11) . . .
102(10) . . .
104(10) . . .
112(11) . . .
90(9) . . .
116(11) . . .
116(11) . . .
107(10) . . .
112(11) . . .
128(11) . . .
111(11) . . .
113(11) . . .
102(10) . . .
116(11) . . .
102(10) . . .
109(10) . . .
109(10) . . .
111(11) . . .
117(11) . . .
128(11) . . .
130(11) . . .
102(10) . . .
114(11) . . .
102(10) . . .
106(10) . . .
110(10) . . .
107(10) . . .
101(10) . . .
118(11) . . .
102(10) . . .
118(11) . . .
112(11) . . .
126(11) . . .
113(11) . . .
102(10) . . .
119(11) . . .
116(11) . . .
116(11) . . .
106(10) . . .
105(10) . . .
116(11) . . .
120(11) . . .
110(10) . . .
126(11) . . .
122(11) . . .
119(11) . . .
121(11) . . .
111(11) . . .
114(11) . . .
121(11) . . .
122(11) . . .
115(11) . . .
108(10) . . .
112(11) . . .
116(11) . . .
121(11) . . .
102(10) . . .
118(11) . . .
96(10) . . .
101(10) . . .
108(10) . . .
98(10) . . .
105(10) . . .
112(11) . . .
106(10) . . .
122(11) . . .
121(11) . . .
120(11) . . .
119(11) . . .
114(11) . . .
117(11) . . .
119(11) . . .
111(11) . . .
111(11) . . .
112(11) . . .
123(11) . . .
141(12) . . .
133(12) . . .
103(10) . . .
115(11) . . .
119(11) . . .
113(11) . . .
100(10) . . .
110(10) . . .
112(11) . . .
105(10) . . .
125(11) . . .
112(11) . . .
113(11) . . .
111(11) . . .
129(11) . . .
132(11) . . .
116(11) . . .
123(11) . . .
121(11) . . .
117(11) . . .
116(11) . . .
130(11) . . .
125(11) . . .
114(11) . . .
116(11) . . .
123(11) . . .
111(11) . . .
107(10) . . .
108(10) . . .
100(10) . . .
107(10) . . .
118(11) . . .
116(11) . . .
110(10) . . .
120(11) . . .
116(11) . . .
129(11) . . .
120(11) . . .
121(11) . . .
118(11) . . .
110(10) . . .
104(10) . . .
132(11) . . .
119(11) . . .
130(11) . . .
131(11) . . .
108(10) . . .
123(11) . . .
131(11) . . .
120(11) . . .
121(11) . . .
127(11) . . .
128(11) . . .
122(11) . . .
116(11) . . .
135(12) . . .
120(11) . . .
121(11) . . .
124(11) . . .
128(11) . . .
120(11) . . .
138(12) . . .
139(12) . . .
112(11) . . .
115(11) . . .
118(11) . . .
135(12) . . .
139(12) . . .
119(11) . . .
127(11) . . .
112(11) . . .
121(11) . . .
138(12) . . .
133(12) . . .
135(12) . . .
138(12) . . .
133(12) . . .
109(10) . . .
129(11) . . .
124(11) . . .
142(12) . . .
120(11) . . .
135(12) . . .
120(11) . . .
134(12) . . .
136(12) . . .
127(11) . . .
134(12) . . .
139(12) . . .
119(11) . . .
125(11) . . .
124(11) . . .
130(11) . . .
127(11) . . .
130(11) . . .
144(12) . . .
142(12) . . .
150(12) . . .
147(12) . . .
140(12) . . .
147(12) . . .
139(12) . . .
149(12) . . .
152(12) . . .
149(12) . . .
140(12) . . .
150(12) . . .
131(11) . . .
144(12) . . .
150(12) . . .
156(12) . . .
155(12) . . .
168(13) . . .
145(12) . . .
160(13) . . .
158(13) . . .
171(13) . . .
170(13) . . .
178(13) . . .
172(13) . . .
162(13) . . .
159(13) . . .
161(13) . . .
161(13) . . .
192(14) . . .
191(14) . . .
175(13) . . .
197(14) . . .
205(14) . . .
201(14) . . .
177(13) . . .
210(14) . . .
200(14) . . .
204(14) . . .
195(14) . . .
219(15) . . .
208(14) . . .
230(15) . . .
221(15) . . .
255(16) . . .
219(15) . . .
250(16) . . .
261(16) . . .
247(16) . . .
240(15) . . .
265(16) . . .
292(17) . . .
290(17) . . .
306(17) . . .
308(18) . . .
300(17) . . .
346(19) . . .
337(18) . . .
354(19) . . .
388(20) . . .
376(19) . . .
390(20) . . .
408(20) . . .
403(20) . . .
430(21) . . .
464(22) . . .
462(21) . . .
487(22) . . .
490(22) . . .
520(23) . . .
551(23) . . .
586(24) . . .
606(25) . . .
590(24) . . .
615(25) . . .
650(25) . . .
638(25) . . .
642(25) . . .
705(27) . . .
705(27) . . .
718(27) . . .
757(28) . . .
701(26) . . .
780(28) . . .
733(27) . . .
670(26) . . .
749(27) . . .
788(28) . . .
723(27) . . .
713(27) . . .
720(27) . . .
715(27) . . .
694(26) . . .
751(27) . . .
733(27) . . .
698(26) . . .
682(26) . . .
738(27) . . .
640(25) . . .
638(25) . . .
612(25) . . .
589(24) . . .
615(25) . . .
568(24) . . .
558(24) . . .
490(22) . . .
501(22) . . .
491(22) . . .
447(21) . . .
449(21) . . .
469(22) . . .
431(21) . . .
428(21) . . .
391(20) . . .
376(19) . . .
383(20) . . .
373(19) . . .
340(18) . . .
375(19) . . .
306(17) . . .
303(17) . . .
297(17) . . .
296(17) . . .
302(17) . . .
265(16) . . .
290(17) . . .
263(16) . . .
247(16) . . .
276(17) . . .
256(16) . . .
229(15) . . .
243(16) . . .
235(15) . . .
230(15) . . .
215(15) . . .
222(15) . . .
226(15) . . .
213(15) . . .
203(14) . . .
216(15) . . .
186(14) . . .
178(13) . . .
173(13) . . .
204(14) . . .
179(13) . . .
178(13) . . .
157(13) . . .
140(12) . . .
166(13) . . .
158(13) . . .
162(13) . . .
177(13) . . .
184(14) . . .
164(13) . . .
150(12) . . .
155(12) . . .
163(13) . . .
167(13) . . .
165(13) . . .
159(13) . . .
140(12) . . .
155(12) . . .
157(13) . . .
146(12) . . .
152(12) . . .
146(12) . . .
141(12) . . .
135(12) . . .
144(12) . . .
149(12) . . .
140(12) . . .
161(13) . . .
154(12) . . .
155(12) . . .
150(12) . . .
122(11) . . .
130(11) . . .
121(11) . . .
148(12) . . .
147(12) . . .
150(12) . . .
117(11) . . .
135(12) . . .
133(12) . . .
160(13) . . .
128(11) . . .
127(11) . . .
118(11) . . .
129(11) . . .
114(11) . . .
125(11) . . .
117(11) . . .
129(11) . . .
105(10) . . .
126(11) . . .
115(11) . . .
115(11) . . .
116(11) . . .
114(11) . . .
133(12) . . .
124(11) . . .
118(11) . . .
111(11) . . .
135(12) . . .
128(11) . . .
134(12) . . .
126(11) . . .
123(11) . . .
137(12) . . .
122(11) . . .
118(11) . . .
124(11) . . .
131(11) . . .
124(11) . . .
122(11) . . .
98(10) . . .
132(11) . . .
119(11) . . .
114(11) . . .
117(11) . . .
127(11) . . .
110(10) . . .
135(12) . . .
103(10) . . .
102(10) . . .
126(11) . . .
124(11) . . .
123(11) . . .
134(12) . . .
119(11) . . .
121(11) . . .
123(11) . . .
115(11) . . .
103(10) . . .
114(11) . . .
123(11) . . .
114(11) . . .
118(11) . . .
111(11) . . .
110(10) . . .
110(10) . . .
122(11) . . .
139(12) . . .
117(11) . . .
120(11) . . .
120(11) . . .
125(11) . . .
111(11) . . .
114(11) . . .
136(12) . . .
111(11) . . .
119(11) . . .
121(11) . . .
116(11) . . .
116(11) . . .
116(11) . . .
119(11) . . .
109(10) . . .
120(11) . . .
107(10) . . .
113(11) . . .
103(10) . . .
132(11) . . .
101(10) . . .
119(11) . . .
96(10) . . .
109(10) . . .
110(10) . . .
111(11) . . .
116(11) . . .
102(10) . . .
106(10) . . .
114(11) . . .
120(11) . . .
143(12) . . .
99(10) . . .
109(10) . . .
131(11) . . .
112(11) . . .
121(11) . . .
121(11) . . .
113(11) . . .
112(11) . . .
115(11) . . .
112(11) . . .
114(11) . . .
125(11) . . .
116(11) . . .
105(10) . . .
120(11) . . .
125(11) . . .
132(11) . . .
110(10) . . .
120(11) . . .
121(11) . . .
110(10) . . .
111(11) . . .
101(10) . . .
110(10) . . .
104(10) . . .
119(11) . . .
108(10) . . .
126(11) . . .
109(10) . . .
105(10) . . .
107(10) . . .
110(10) . . .
94(10) . . .
98(10) . . .
117(11) . . .
101(10) . . .
132(11) . . .
116(11) . . .
123(11) . . .
110(10) . . .
109(10) . . .
108(10) . . .
111(11) . . .
111(11) . . .
111(11) . . .
108(10) . . .
106(10) . . .
102(10) . . .
130(11) . . .
113(11) . . .
118(11) . . .
123(11) . . .
113(11) . . .
117(11) . . .
117(11) . . .
110(10) . . .
109(10) . . .
111(11) . . .
119(11) . . .
119(11) . . .
105(10) . . .
94(10) . . .
119(11) . . .
135(12) . . .
120(11) . . .
121(11) . . .
101(10) . . .
127(11) . . .
123(11) . . .
113(11) . . .
104(10) . . .
119(11) . . .
106(10) . . .
111(11) . . .
112(11) . . .
116(11) . . .
103(10) . . .
105(10) . . .
113(11) . . .
94(10) . . .
101(10) . . .
123(11) . . .
117(11) . . .
111(11) . . .
104(10) . . .
102(10) . . .
110(10) . . .
102(10) . . .
114(11) . . .
106(10) . . .
104(10) . . .
107(10) . . .
114(11) . . .
114(11) . . .
101(10) . . .
120(11) . . .
117(11) . . .
98(10) . . .
89(9) . . .
104(10) . . .
114(11) . . .
112(11) . . .
114(11) . . .
101(10) . . .
122(11) . . .
122(11) . . .
104(10) . . .
110(10) . . .
109(10) . . .
141(12) . . .
119(11) . . .
103(10) . . .
119(11) . . .
123(11) . . .
117(11) . . .
105(10) . . .
103(10) . . .
105(10) . . .
107(10) . . .
133(12) . . .
101(10) . . .
112(11) . . .
111(11) . . .
111(11) . . .
104(10) . . .
128(11) . . .
117(11) . . .
97(10) . . .
126(11) . . .
109(10) . . .
95(10) . . .
121(11) . . .
120(11) . . .
123(11) . . .
109(10) . . .
100(10) . . .
101(10) . . .
109(10) . . .
111(11) . . .
112(11) . . .
112(11) . . .
130(11) . . .
104(10) . . .
113(11) . . .
99(10) . . .
114(11) . . .
99(10) . . .
129(11) . . .
103(10) . . .
115(11) . . .
110(10) . . .
101(10) . . .
110(10) . . .
98(10) . . .
99(10) . . .
137(12) . . .
121(11) . . .
122(11) . . .
113(11) . . .
126(11) . . .
93(10) . . .
90(9) . . .
108(10) . . .
106(10) . . .
101(10) . . .
123(11) . . .
110(10) . . .
114(11) . . .
110(10) . . .
105(10) . . .
121(11) . . .
119(11) . . .
85(9) . . .
110(10) . . .
131(11) . . .
142(12) . . .
96(10) . . .
112(11) . . .
111(11) . . .
99(10) . . .
112(11) . . .
130(11) . . .
101(10) . . .
104(10) . . .
109(10) . . .
117(11) . . .
95(10) . . .
123(11) . . .
128(11) . . .
101(10) . . .
116(11) . . .
119(11) . . .
118(11) . . .
119(11) . . .
116(11) . . .
115(11) . . .
114(11) . . .
104(10) . . .
121(11) . . .
93(10) . . .
106(10) . . .
97(10) . . .
115(11) . . .
130(11) . . .
110(10) . . .
108(10) . . .
115(11) . . .
109(10) . . .
103(10) . . .
129(11) . . .
117(11) . . .
101(10) . . .
130(11) . . .
125(11) . . .
119(11) . . .
118(11) . . .
122(11) . . .
108(10) . . .
112(11) . . .
98(10) . . .
115(11) . . .
109(10) . . .
112(11) . . .
113(11) . . .
103(10) . . .
119(11) . . .
121(11) . . .
116(11) . . .
119(11) . . .
113(11) . . .
101(10) . . .
120(11) . . .
100(10) . . .
126(11) . . .
102(10) . . .
96(10) . . .
107(10) . . .
116(11) . . .
107(10) . . .
111(11) . . .
111(11) . . .
105(10) . . .
118(11) . . .
115(11) . . .
100(10) . . .
108(10) . . .
105(10) . . .
109(10) . . .
108(10) . . .
100(10) . . .
114(11) . . .
111(11) . . .
109(10) . . .
109(10) . . .
105(10) . . .
104(10) . . .
90(9) . . .
104(10) . . .
112(11) . . .
109(10) . . .
107(10) . . .
101(10) . . .
120(11) . . .
127(11) . . .
129(11) . . .
108(10) . . .
119(11) . . .
108(10) . . .
113(11) . . .
120(11) . . .
103(10) . . .
124(11) . . .
109(10) . . .
110(10) . . .
105(10) . . .
120(11) . . .
113(11) . . .
93(10) . . .
103(10) . . .
108(10) . . .
125(11) . . .
105(10) . . .
95(10) . . .
104(10) . . .
118(11) . . .
120(11) . . .
113(11) . . .
104(10) . . .
111(11) . . .
99(10) . . .
118(11) . . .
118(11) . . .
99(10) . . .
100(10) . . .
119(11) . . .
99(10) . . .
117(11) . . .
117(11) . . .
105(10) . . .
115(11) . . .
123(11) . . .
105(10) . . .
118(11) . . .
109(10) . . .
116(11) . . .
111(11) . . .
108(10) . . .
108(10) . . .
100(10) . . .
92(10) . . .
108(10) . . .
103(10) . . .
125(11) . . .
97(10) . . .
112(11) . . .
122(11) . . .
129(11) . . .
111(11) . . .
109(10) . . .
103(10) . . .
122(11) . . .
115(11) . . .
96(10) . . .
116(11) . . .
113(11) . . .
115(11) . . .
112(11) . . .
121(11) . . .
112(11) . . .
94(10) . . .
100(10) . . .
92(10) . . .
121(11) . . .
107(10) . . .
99(10) . . .
110(10) . . .
108(10) . . .
110(10) . . .
121(11) . . .
117(11) . . .
115(11) . . .
105(10) . . .
114(11) . . .
113(11) . . .
103(10) . . .
105(10) . . .
129(11) . . .
108(10) . . .
115(11) . . .
115(11) . . .
101(10) . . .
105(10) . . .
120(11) . . .
97(10) . . .
123(11) . . .
100(10) . . .
92(10) . . .
101(10) . . .
120(11) . . .
105(10) . . .
117(11) . . .
108(10) . . .
117(11) . . .
129(11) . . .
116(11) . . .
123(11) . . .
113(11) . . .
119(11) . . .
104(10) . . .
109(10) . . .
116(11) . . .
105(10) . . .
117(11) . . .
116(11) . . .
107(10) . . .
115(11) . . .
113(11) . . .
110(10) . . .
101(10) . . .
110(10) . . .
107(10) . . .
103(10) . . .
108(10) . . .
98(10) . . .
106(10) . . .
116(11) . . .
137(12) . . .
106(10) . . .
114(11) . . .
111(11) . . .
104(10) . . .
105(10) . . .
93(10) . . .
126(11) . . .
127(11) . . .
120(11) . . .
118(11) . . .
100(10) . . .
109(10) . . .
104(10) . . .
116(11) . . .
113(11) . . .
116(11) . . .
114(11) . . .
96(10) . . .
94(10) . . .
113(11) . . .
114(11) . . .
99(10) . . .
120(11) . . .
102(10) . . .
103(10) . . .
123(11) . . .
99(10) . . .
114(11) . . .
108(10) . . .
95(10) . . .
107(10) . . .
107(10) . . .
108(10) . . .
112(11) . . .
119(11) . . .
113(11) . . .
101(10) . . .
116(11) . . .
123(11) . . .
107(10) . . .
100(10) . . .
98(10) . . .
113(11) . . .
108(10) . . .
101(10) . . .
97(10) . . .
117(11) . . .
107(10) . . .
120(11) . . .
108(10) . . .
118(11) . . .
113(11) . . .
103(10) . . .
113(11) . . .
121(11) . . .
98(10) . . .
100(10) . . .
111(11) . . .
116(11) . . .
105(10) . . .
121(11) . . .
114(11) . . .
107(10) . . .
103(10) . . .
104(10) . . .
132(11) . . .
99(10) . . .
116(11) . . .
92(10) . . .
110(10) . . .
98(10) . . .
115(11) . . .
109(10) . . .
118(11) . . .
95(10) . . .
117(11) . . .
125(11) . . .
118(11) . . .
109(10) . . .
126(11) . . .
106(10) . . .
112(11) . . .
110(10) . . .
109(10) . . .
120(11) . . .
116(11) . . .
90(9) . . .
120(11) . . .
100(10) . . .
102(10) . . .
117(11) . . .
96(10) . . .
106(10) . . .
113(11) . . .
103(10) . . .
100(10) . . .
119(11) . . .
109(10) . . .
110(10) . . .
94(10) . . .
128(11) . . .
120(11) . . .
115(11) . . .
109(10) . . .
120(11) . . .
122(11) . . .
114(11) . . .
101(10) . . .
114(11) . . .
111(11) . . .
105(10) . . .
110(10) . . .
113(11) . . .
110(10) . . .
118(11) . . .
108(10) . . .
111(11) . . .
119(11) . . .
103(10) . . .
127(11) . . .
104(10) . . .
107(10) . . .
117(11) . . .
102(10) . . .
100(10) . . .
128(11) . . .
100(10) . . .
100(10) . . .
120(11) . . .
108(10) . . .
112(11) . . .
120(11) . . .
120(11) . . .
110(10) . . .
117(11) . . .
95(10) . . .
124(11) . . .
104(10) . . .
100(10) . . .
110(10) . . .
118(11) . . .
111(11) . . .
122(11) . . .
102(10) . . .
120(11) . . .
95(10) . . .
103(10) . . .
111(11) . . .
126(11) . . .
107(10) . . .
109(10) . . .
106(10) . . .
111(11) . . .
109(10) . . .
120(11) . . .
114(11) . . .
105(10) . . .
98(10) . . .
101(10) . . .
101(10) . . .
107(10) . . .
114(11) . . .
117(11) . . .
95(10) . . .
92(10) . . .
127(11) . . .
107(10) . . .
116(11) . . .
111(11) . . .
105(10) . . .
106(10) . . .
115(11) . . .
103(10) . . .
105(10) . . .
109(10) . . .
133(12) . . .
135(12) . . .
100(10) . . .
110(10) . . .
116(11) . . .
87(9) . . .
105(10) . . .
98(10) . . .
114(11) . . .
102(10) . . .
96(10) . . .
130(11) . . .
107(10) . . .
112(11) . . .
110(10) . . .
101(10) . . .
101(10) . . .
111(11) . . .
108(10) . . .
109(10) . . .
126(11) . . .
107(10) . . .
114(11) . . .
111(11) . . .
121(11) . . .
142(12) . . .
111(11) . . .
128(11) . . .
107(10) . . .
124(11) . . .
106(10) . . .
114(11) . . .
121(11) . . .
116(11) . . .
110(10) . . .
100(10) . . .
118(11) . . .
105(10) . . .
102(10) . . .
96(10) . . .
118(11) . . .
111(11) . . .
113(11) . . .
114(11) . . .
123(11) . . .
110(10) . . .
102(10) . . .
119(11) . . .
99(10) . . .
123(11) . . .
125(11) . . .
110(10) . . .
109(10) . . .
95(10) . . .
119(11) . . .
116(11) . . .
116(11) . . .
103(10) . . .
114(11) . . .
108(10) . . .
109(10) . . .
99(10) . . .
103(10) . . .
118(11) . . .
109(10) . . .
113(11) . . .
100(10) . . .
124(11) . . .
102(10) . . .
113(11) . . .
119(11) . . .
123(11) . . .
99(10) . . .
120(11) . . .
103(10) . . .
118(11) . . .
112(11) . . .
116(11) . . .
109(10) . . .
101(10) . . .
93(10) . . .
112(11) . . .
123(11) . . .
110(10) . . .
123(11) . . .
108(10) . . .
93(10) . . .
104(10) . . .
100(10) . . .
131(11) . . .
116(11) . . .
108(10) . . .
126(11) . . .
121(11) . . .
112(11) . . .
115(11) . . .
125(11) . . .
117(11) . . .
107(10) . . .
111(11) . . .
134(12) . . .
114(11) . . .
116(11) . . .
100(10) . . .
99(10) . . .
94(10) . . .
119(11) . . .
105(10) . . .
125(11) . . .
124(11) . . .
114(11) . . .
102(10) . . .
114(11) . . .
117(11) . . .
131(11) . . .
116(11) . . .
125(11) . . .
111(11) . . .
97(10) . . .
107(10) . . .
111(11) . . .
113(11) . . .
118(11) . . .
111(11) . . .
123(11) . . .
99(10) . . .
123(11) . . .
104(10) . . .
124(11) . . .
105(10) . . .
117(11) . . .
110(10) . . .
108(10) . . .
115(11) . . .
121(11) . . .
119(11) . . .
127(11) . . .
101(10) . . .
107(10) . . .
132(11) . . .
119(11) . . .
116(11) . . .
124(11) . . .
107(10) . . .
106(10) . . .
91(10) . . .
130(11) . . .
110(10) . . .
119(11) . . .
107(10) . . .
117(11) . . .
118(11) . . .
112(11) . . .
122(11) . . .
119(11) . . .
115(11) . . .
114(11) . . .
111(11) . . .
88(9) . . .
114(11) . . .
111(11) . . .
109(10) . . .
109(10) . . .
106(10) . . .
107(10) . . .
106(10) . . .
91(10) . . .
115(11) . . .
119(11) . . .
114(11) . . .
105(10) . . .
111(11) . . .
113(11) . . .
106(10) . . .
107(10) . . .
111(11) . . .
97(10) . . .
109(10) . . .
121(11) . . .
100(10) . . .
118(11) . . .
119(11) . . .
119(11) . . .
100(10) . . .
107(10) . . .
109(10) . . .
110(10) . . .
111(11) . . .
134(12) . . .
107(10) . . .
109(10) . . .
109(10) . . .
107(10) . . .
100(10) . . .
117(11) . . .
111(11) . . .
119(11) . . .
132(11) . . .
99(10) . . .
113(11) . . .
111(11) . . .
101(10) . . .
131(11) . . .
109(10) . . .
122(11) . . .
103(10) . . .
129(11) . . .
124(11) . . .
117(11) . . .
115(11) . . .
100(10) . . .
119(11) . . .
110(10) . . .
128(11) . . .
126(11) . . .
106(10) . . .
103(10) . . .
111(11) . . .
98(10) . . .
134(12) . . .
111(11) . . .
116(11) . . .
89(9) . . .
124(11) . . .
107(10) . . .
120(11) . . .
119(11) . . .
117(11) . . .
95(10) . . .
104(10) . . .
96(10) . . .
100(10) . . .
107(10) . . .
113(11) . . .
92(10) . . .
104(10) . . .
107(10) . . .
103(10) . . .
112(11) . . .
111(11) . . .
110(10) . . .
107(10) . . .
109(10) . . .
111(11) . . .
113(11) . . .
110(10) . . .
121(11) . . .
118(11) . . .
96(10) . . .
105(10) . . .
125(11) . . .
111(11) . . .
115(11) . . .
120(11) . . .
111(11) . . .
106(10) . . .
118(11) . . .
123(11) . . .
107(10) . . .
128(11) . . .
99(10) . . .
105(10) . . .
106(10) . . .
122(11) . . .
117(11) . . .
104(10) . . .
120(11) . . .
112(11) . . .
108(10) . . .
111(11) . . .
108(10) . . .
124(11) . . .
117(11) . . .
127(11) . . .
111(11) . . .
126(11) . . .
115(11) . . .
124(11) . . .
112(11) . . .
122(11) . . .
112(11) . . .
97(10) . . .
119(11) . . .
107(10) . . .
126(11) . . .
109(10) . . .
119(11) . . .
109(10) . . .
117(11) . . .
118(11) . . .
119(11) . . .
98(10) . . .
114(11) . . .
117(11) . . .
126(11) . . .
112(11) . . .
140(12) . . .
96(10) . . .
122(11) . . .
103(10) . . .
115(11) . . .
116(11) . . .
119(11) . . .
121(11) . . .
128(11) . . .
130(11) . . .
117(11) . . .
110(10) . . .
128(11) . . .
111(11) . . .
107(10) . . .
125(11) . . .
126(11) . . .
132(11) . . .
123(11) . . .
114(11) . . .
123(11) . . .
121(11) . . .
114(11) . . .
115(11) . . .
118(11) . . .
123(11) . . .
133(12) . . .
122(11) . . .
129(11) . . .
95(10) . . .
117(11) . . .
121(11) . . .
123(11) . . .
121(11) . . .
123(11) . . .
127(11) . . .
127(11) . . .
130(11) . . .
122(11) . . .
125(11) . . .
127(11) . . .
125(11) . . .
113(11) . . .
135(12) . . .
113(11) . . .
123(11) . . .
114(11) . . .
120(11) . . .
114(11) . . .
125(11) . . .
102(10) . . .
114(11) . . .
116(11) . . .
112(11) . . .
107(10) . . .
128(11) . . .
134(12) . . .
131(11) . . .
123(11) . . .
118(11) . . .
137(12) . . .
116(11) . . .
136(12) . . .
124(11) . . .
147(12) . . .
139(12) . . .
128(11) . . .
146(12) . . .
125(11) . . .
125(11) . . .
129(11) . . .
115(11) . . .
131(11) . . .
132(11) . . .
121(11) . . .
132(11) . . .
128(11) . . .
133(12) . . .
132(11) . . .
144(12) . . .
133(12) . . .
133(12) . . .
124(11) . . .
124(11) . . .
143(12) . . .
131(11) . . .
125(11) . . .
125(11) . . .
134(12) . . .
123(11) . . .
122(11) . . .
132(11) . . .
128(11) . . .
127(11) . . .
123(11) . . .
126(11) . . .
134(12) . . .
141(12) . . .
124(11) . . .
138(12) . . .
132(11) . . .
149(12) . . .
140(12) . . .
154(12) . . .
144(12) . . .
127(11) . . .
135(12) . . .
126(11) . . .
129(11) . . .
133(12) . . .
139(12) . . .
121(11) . . .
154(12) . . .
147(12) . . .
148(12) . . .
146(12) . . .
151(12) . . .
148(12) . . .
148(12) . . .
130(11) . . .
155(12) . . .
153(12) . . .
167(13) . . .
162(13) . . .
154(12) . . .
147(12) . . .
169(13) . . .
188(14) . . .
146(12) . . .
162(13) . . .
152(12) . . .
171(13) . . .
164(13) . . .
167(13) . . .
156(12) . . .
154(12) . . .
173(13) . . .
172(13) . . .
152(12) . . .
153(12) . . .
190(14) . . .
192(14) . . .
166(13) . . .
177(13) . . .
170(13) . . .
151(12) . . .
192(14) . . .
185(14) . . .
170(13) . . .
174(13) . . .
203(14) . . .
188(14) . . .
197(14) . . .
197(14) . . .
218(15) . . .
205(14) . . .
201(14) . . .
236(15) . . .
222(15) . . .
221(15) . . .
207(14) . . .
206(14) . . .
206(14) . . .
196(14) . . .
220(15) . . .
211(15) . . .
223(15) . . .
234(15) . . .
248(16) . . .
248(16) . . .
251(16) . . .
238(15) . . .
245(16) . . .
257(16) . . .
244(16) . . .
272(16) . . .
289(17) . . .
253(16) . . .
274(17) . . .
286(17) . . .
302(17) . . .
303(17) . . .
317(18) . . .
313(18) . . .
303(17) . . .
325(18) . . .
336(18) . . .
320(18) . . .
378(19) . . .
371(19) . . .
361(19) . . .
380(19) . . .
392(20) . . .
404(20) . . .
404(20) . . .
387(20) . . .
443(21) . . .
443(21) . . .
441(21) . . .
456(21) . . .
448(21) . . .
480(22) . . .
502(22) . . .
543(23) . . .
533(23) . . .
556(24) . . .
587(24) . . .
589(24) . . .
598(24) . . .
636(25) . . .
647(25) . . .
674(26) . . .
691(26) . . .
722(27) . . .
748(27) . . .
797(28) . . .
785(28) . . .
826(29) . . .
838(29) . . .
890(30) . . .
890(30) . . .
936(31) . . .
991(31) . . .
1003(32) . . .
1035(32) . . .
1104(33) . . .
1075(33) . . .
1179(34) . . .
1224(35) . . .
1266(36) . . .
1211(35) . . .
1323(36) . . .
1298(36) . . .
1337(37) . . .
1351(37) . . .
1420(38) . . .
1442(38) . . .
1399(37) . . .
1441(38) . . .
1535(39) . . .
1489(39) . . .
1549(39) . . .
1519(39) . . .
1596(40) . . .
1559(39) . . .
1612(40) . . .
1580(40) . . .
1576(40) . . .
1644(41) . . .
1528(39) . . .
1532(39) . . .
1594(40) . . .
1565(40) . . .
1538(39) . . .
1549(39) . . .
1482(38) . . .
1461(38) . . .
1423(38) . . .
1379(37) . . .
1382(37) . . .
1291(36) . . .
1256(35) . . .
1265(36) . . .
1233(35) . . .
1166(34) . . .
1157(34) . . .
1124(34) . . .
1075(33) . . .
1086(33) . . .
1055(32) . . .
1006(32) . . .
969(31) . . .
950(31) . . .
872(30) . . .
818(29) . . .
797(28) . . .
809(28) . . .
732(27) . . .
776(28) . . .
703(27) . . .
731(27) . . .
688(26) . . .
649(25) . . .
652(26) . . .
596(24) . . .
620(25) . . .
572(24) . . .
536(23) . . .
550(23) . . .
516(23) . . .
489(22) . . .
519(23) . . .
450(21) . . .
463(22) . . .
469(22) . . .
418(20) . . .
400(20) . . .
406(20) . . .
395(20) . . .
384(20) . . .
363(19) . . .
356(19) . . .
357(19) . . .
349(19) . . .
333(18) . . .
328(18) . . .
313(18) . . .
304(17) . . .
295(17) . . .
324(18) . . .
322(18) . . .
292(17) . . .
308(18) . . .
272(16) . . .
282(17) . . .
274(17) . . .
247(16) . . .
245(16) . . .
274(17) . . .
229(15) . . .
267(16) . . .
233(15) . . .
239(15) . . .
238(15) . . .
225(15) . . .
250(16) . . .
211(15) . . .
236(15) . . .
226(15) . . .
224(15) . . .
201(14) . . .
212(15) . . .
240(15) . . .
212(15) . . .
206(14) . . .
204(14) . . .
211(15) . . .
188(14) . . .
211(15) . . .
187(14) . . .
199(14) . . .
217(15) . . .
183(14) . . .
189(14) . . .
181(13) . . .
171(13) . . .
167(13) . . .
201(14) . . .
185(14) . . .
183(14) . . .
182(13) . . .
180(13) . . .
186(14) . . .
180(13) . . .
163(13) . . .
181(13) . . .
169(13) . . .
148(12) . . .
149(12) . . .
164(13) . . .
176(13) . . .
168(13) . . .
162(13) . . .
142(12) . . .
171(13) . . .
145(12) . . .
170(13) . . .
171(13) . . .
153(12) . . .
157(13) . . .
172(13) . . .
151(12) . . .
168(13) . . .
149(12) . . .
140(12) . . .
155(12) . . .
161(13) . . .
153(12) . . .
159(13) . . .
148(12) . . .
134(12) . . .
168(13) . . .
141(12) . . .
144(12) . . .
147(12) . . .
151(12) . . .
144(12) . . .
149(12) . . .
149(12) . . .
126(11) . . .
153(12) . . .
135(12) . . .
143(12) . . .
141(12) . . .
149(12) . . .
141(12) . . .
152(12) . . .
113(11) . . .
152(12) . . .
116(11) . . .
131(11) . . .
136(12) . . .
126(11) . . .
126(11) . . .
139(12) . . .
130(11) . . .
150(12) . . .
139(12) . . .
119(11) . . .
111(11) . . .
125(11) . . .
113(11) . . .
131(11) . . .
141(12) . . .
133(12) . . .
149(12) . . .
144(12) . . .
134(12) . . .
127(11) . . .
115(11) . . .
140(12) . . .
150(12) . . .
130(11) . . .
128(11) . . .
139(12) . . .
143(12) . . .
127(11) . . .
126(11) . . .
133(12) . . .
124(11) . . .
135(12) . . .
141(12) . . .
115(11) . . .
120(11) . . .
135(12) . . .
125(11) . . .
134(12) . . .
127(11) . . .
140(12) . . .
127(11) . . .
128(11) . . .
133(12) . . .
118(11) . . .
117(11) . . .
135(12) . . .
119(11) . . .
139(12) . . .
135(12) . . .
119(11) . . .
125(11) . . .
135(12) . . .
123(11) . . .
120(11) . . .
132(11) . . .
122(11) . . .
124(11) . . .
133(12) . . .
141(12) . . .
128(11) . . .
128(11) . . .
117(11) . . .
129(11) . . .
129(11) . . .
112(11) . . .
105(10) . . .
134(12) . . .
115(11) . . .
129(11) . . .
124(11) . . .
129(11) . . .
120(11) . . .
124(11) . . .
127(11) . . .
137(12) . . .
116(11) . . .
124(11) . . .
125(11) . . .
121(11) . . .
119(11) . . .
125(11) . . .
116(11) . . .
140(12) . . .
130(11) . . .
140(12) . . .
107(10) . . .
128(11) . . .
123(11) . . .
135(12) . . .
116(11) . . .
122(11) . . .
134(12) . . .
112(11) . . .
122(11) . . .
116(11) . . .
116(11) . . .
125(11) . . .
122(11) . . .
136(12) . . .
117(11) . . .
134(12) . . .
127(11) . . .
139(12) . . .
126(11) . . .
145(12) . . .
124(11) . . .
114(11) . . .
125(11) . . .
125(11) . . .
152(12) . . .
130(11) . . .
144(12) . . .
125(11) . . .
127(11) . . .
115(11) . . .
125(11) . . .
108(10) . . .
120(11) . . .
118(11) . . .
110(10) . . .
122(11) . . .
109(10) . . .
117(11) . . .
117(11) . . .
110(10) . . .
135(12) . . .
136(12) . . .
121(11) . . .
124(11) . . .
128(11) . . .
126(11) . . .
128(11) . . .
103(10) . . .
116(11) . . .
122(11) . . .
107(10) . . .
120(11) . . .
125(11) . . .
124(11) . . .
149(12) . . .
122(11) . . .
135(12) . . .
108(10) . . .
121(11) . . .
144(12) . . .
133(12) . . .
138(12) . . .
113(11) . . .
135(12) . . .
128(11) . . .
142(12) . . .
144(12) . . .
116(11) . . .
131(11) . . .
131(11) . . .
125(11) . . .
133(12) . . .
144(12) . . .
120(11) . . .
118(11) . . .
141(12) . . .
142(12) . . .
144(12) . . .
155(12) . . .
149(12) . . .
129(11) . . .
144(12) . . .
141(12) . . .
131(11) . . .
147(12) . . .
135(12) . . .
127(11) . . .
140(12) . . .
135(12) . . .
132(11) . . .
118(11) . . .
126(11) . . .
140(12) . . .
165(13) . . .
147(12) . . .
149(12) . . .
130(11) . . .
142(12) . . .
123(11) . . .
142(12) . . .
136(12) . . .
151(12) . . .
140(12) . . .
133(12) . . .
137(12) . . .
123(11) . . .
143(12) . . .
134(12) . . .
136(12) . . .
141(12) . . .
156(12) . . .
156(12) . . .
146(12) . . .
150(12) . . .
160(13) . . .
166(13) . . .
171(13) . . .
171(13) . . .
166(13) . . .
148(12) . . .
189(14) . . .
175(13) . . .
152(12) . . .
166(13) . . .
154(12) . . .
170(13) . . .
170(13) . . .
169(13) . . .
167(13) . . .
177(13) . . .
173(13) . . .
160(13) . . .
184(14) . . .
162(13) . . .
190(14) . . .
189(14) . . .
174(13) . . .
187(14) . . .
187(14) . . .
177(13) . . .
196(14) . . .
176(13) . . .
166(13) . . .
173(13) . . .
179(13) . . .
194(14) . . .
195(14) . . .
202(14) . . .
187(14) . . .
208(14) . . .
214(15) . . .
223(15) . . .
240(15) . . .
216(15) . . .
220(15) . . .
216(15) . . .
214(15) . . .
231(15) . . .
217(15) . . .
235(15) . . .
247(16) . . .
211(15) . . .
229(15) . . .
269(16) . . .
247(16) . . .
277(17) . . .
268(16) . . .
270(16) . . .
267(16) . . .
272(16) . . .
297(17) . . .
294(17) . . .
291(17) . . .
329(18) . . .
315(18) . . .
280(17) . . .
313(18) . . .
326(18) . . .
349(19) . . .
364(19) . . .
347(19) . . .
377(19) . . .
363(19) . . .
408(20) . . .
388(20) . . .
393(20) . . .
390(20) . . .
414(20) . . .
424(21) . . .
443(21) . . .
428(21) . . .
485(22) . . .
504(22) . . .
518(23) . . .
520(23) . . .
539(23) . . .
560(24) . . .
567(24) . . .
585(24) . . .
582(24) . . .
634(25) . . .
611(25) . . .
631(25) . . .
656(26) . . .
674(26) . . .
664(26) . . .
715(27) . . .
709(27) . . .
761(28) . . .
777(28) . . .
842(29) . . .
840(29) . . .
813(29) . . .
857(29) . . .
860(29) . . .
855(29) . . .
925(30) . . .
962(31) . . .
972(31) . . .
1008(32) . . .
998(32) . . .
931(31) . . .
945(31) . . .
893(30) . . .
1004(32) . . .
968(31) . . .
977(31) . . .
998(32) . . .
957(31) . . .
979(31) . . .
968(31) . . .
987(31) . . .
974(31) . . .
936(31) . . .
957(31) . . .
931(31) . . .
890(30) . . .
831(29) . . .
874(30) . . .
828(29) . . .
813(29) . . .
809(28) . . .
763(28) . . .
727(27) . . .
704(27) . . .
669(26) . . .
679(26) . . .
652(26) . . .
654(26) . . .
616(25) . . .
629(25) . . .
587(24) . . .
564(24) . . .
542(23) . . .
513(23) . . .
517(23) . . .
509(23) . . .
485(22) . . .
450(21) . . .
456(21) . . .
471(22) . . .
411(20) . . .
425(21) . . .
397(20) . . .
404(20) . . .
369(19) . . .
344(19) . . .
362(19) . . .
354(19) . . .
378(19) . . .
352(19) . . .
355(19) . . .
315(18) . . .
318(18) . . .
303(17) . . .
311(18) . . .
295(17) . . .
302(17) . . .
272(16) . . .
279(17) . . .
275(17) . . .
255(16) . . .
254(16) . . .
281(17) . . .
268(16) . . .
241(16) . . .
241(16) . . .
232(15) . . .
233(15) . . .
226(15) . . .
251(16) . . .
196(14) . . .
207(14) . . .
207(14) . . .
214(15) . . .
194(14) . . .
185(14) . . .
191(14) . . .
207(14) . . .
196(14) . . .
205(14) . . .
183(14) . . .
188(14) . . .
181(13) . . .
187(14) . . .
193(14) . . .
189(14) . . .
176(13) . . .
173(13) . . .
174(13) . . .
194(14) . . .
152(12) . . .
169(13) . . .
187(14) . . .
167(13) . . .
167(13) . . .
175(13) . . .
162(13) . . .
173(13) . . .
171(13) . . .
183(14) . . .
148(12) . . .
161(13) . . .
163(13) . . .
148(12) . . .
159(13) . . .
162(13) . . .
140(12) . . .
147(12) . . .
155(12) . . .
137(12) . . .
156(12) . . .
151(12) . . .
148(12) . . .
164(13) . . .
141(12) . . .
149(12) . . .
146(12) . . .
155(12) . . .
133(12) . . .
142(12) . . .
140(12) . . .
132(11) . . .
147(12) . . .
144(12) . . .
157(13) . . .
152(12) . . .
140(12) . . .
133(12) . . .
132(11) . . .
129(11) . . .
133(12) . . .
166(13) . . .
150(12) . . .
131(11) . . .
116(11) . . .
116(11) . . .
144(12) . . .
116(11) . . .
136(12) . . .
135(12) . . .
131(11) . . .
110(10) . . .
115(11) . . .
110(10) . . .
149(12) . . .
132(11) . . .
133(12) . . .
110(10) . . .
125(11) . . .
125(11) . . .
131(11) . . .
150(12) . . .
132(11) . . .
125(11) . . .
110(10) . . .
124(11) . . .
106(10) . . .
115(11) . . .
128(11) . . .
125(11) . . .
130(11) . . .
119(11) . . .
134(12) . . .
131(11) . . .
111(11) . . .
126(11) . . .
110(10) . . .
134(12) . . .
122(11) . . .
130(11) . . .
120(11) . . .
132(11) . . .
122(11) . . .
107(10) . . .
115(11) . . .
118(11) . . .
126(11) . . .
123(11) . . .
123(11) . . .
117(11) . . .
125(11) . . .
116(11) . . .
140(12) . . .
130(11) . . .
113(11) . . .
105(10) . . .
102(10) . . .
115(11) . . .
123(11) . . .
96(10) . . .
98(10) . . .
113(11) . . .
116(11) . . .
110(10) . . .
105(10) . . .
131(11) . . .
124(11) . . .
118(11) . . .
115(11) . . .
125(11) . . .
119(11) . . .
116(11) . . .
115(11) . . .
115(11) . . .
110(10) . . .
107(10) . . .
116(11) . . .
116(11) . . .
108(10) . . .
115(11) . . .
121(11) . . .
124(11) . . .
112(11) . . .
100(10) . . .
111(11) . . .
107(10) . . .
124(11) . . .
107(10) . . .
119(11) . . .
115(11) . . .
118(11) . . .
118(11) . . .
116(11) . . .
111(11) . . .
114(11) . . .
135(12) . . .
115(11) . . .
113(11) . . .
121(11) . . .
110(10) . . .
114(11) . . .
112(11) . . .
124(11) . . .
135(12) . . .
131(11) . . .
110(10) . . .
104(10) . . .
116(11) . . .
105(10) . . .
111(11) . . .
99(10) . . .
111(11) . . .
103(10) . . .
110(10) . . .
112(11) . . .
119(11) . . .
105(10) . . .
134(12) . . .
109(10) . . .
108(10) . . .
111(11) . . .
125(11) . . .
108(10) . . .
102(10) . . .
111(11) . . .
116(11) . . .
110(10) . . .
116(11) . . .
99(10) . . .
133(12) . . .
108(10) . . .
97(10) . . .
105(10) . . .
107(10) . . .
116(11) . . .
110(10) . . .
102(10) . . .
103(10) . . .
116(11) . . .
115(11) . . .
104(10) . . .
117(11) . . .
103(10) . . .
107(10) . . .
111(11) . . .
112(11) . . .
115(11) . . .
94(10) . . .
126(11) . . .
115(11) . . .
115(11) . . .
114(11) . . .
97(10) . . .
101(10) . . .
114(11) . . .
107(10) . . .
104(10) . . .
102(10) . . .
100(10) . . .
95(10) . . .
93(10) . . .
123(11) . . .
123(11) . . .
116(11) . . .
100(10) . . .
120(11) . . .
106(10) . . .
102(10) . . .
118(11) . . .
109(10) . . .
104(10) . . .
115(11) . . .
117(11) . . .
113(11) . . .
120(11) . . .
91(10) . . .
122(11) . . .
113(11) . . .
103(10) . . .
99(10) . . .
113(11) . . .
117(11) . . .
105(10) . . .
110(10) . . .
113(11) . . .
114(11) . . .
107(10) . . .
110(10) . . .
109(10) . . .
94(10) . . .
106(10) . . .
113(11) . . .
122(11) . . .
101(10) . . .
105(10) . . .
98(10) . . .
86(9) . . .
112(11) . . .
104(10) . . .
99(10) . . .
107(10) . . .
93(10) . . .
98(10) . . .
97(10) . . .
115(11) . . .
122(11) . . .
123(11) . . .
99(10) . . .
99(10) . . .
107(10) . . .
127(11) . . .
104(10) . . .
108(10) . . .
106(10) . . .
91(10) . . .
105(10) . . .
96(10) . . .
116(11) . . .
98(10) . . .
93(10) . . .
116(11) . . .
122(11) . . .
108(10) . . .
116(11) . . .
108(10) . . .
104(10) . . .
109(10) . . .
98(10) . . .
95(10) . . .
92(10) . . .
115(11) . . .
87(9) . . .
112(11) . . .
107(10) . . .
99(10) . . .
101(10) . . .
97(10) . . .
104(10) . . .
98(10) . . .
97(10) . . .
112(11) . . .
109(10) . . .
106(10) . . .
113(11) . . .
118(11) . . .
130(11) . . .
92(10) . . .
114(11) . . .
88(9) . . .
101(10) . . .
90(9) . . .
88(9) . . .
114(11) . . .
100(10) . . .
114(11) . . .
104(10) . . .
128(11) . . .
93(10) . . .
99(10) . . .
106(10) . . .
122(11) . . .
115(11) . . .
96(10) . . .
109(10) . . .
99(10) . . .
110(10) . . .
89(9) . . .
111(11) . . .
110(10) . . .
93(10) . . .
96(10) . . .
82(9) . . .
103(10) . . .
121(11) . . .
93(10) . . .
120(11) . . .
97(10) . . .
107(10) . . .
115(11) . . .
99(10) . . .
102(10) . . .
96(10) . . .
90(9) . . .
100(10) . . .
110(10) . . .
108(10) . . .
107(10) . . .
108(10) . . .
114(11) . . .
110(10) . . .
113(11) . . .
106(10) . . .
128(11) . . .
114(11) . . .
119(11) . . .
134(12) . . .
113(11) . . .
103(10) . . .
104(10) . . .
112(11) . . .
103(10) . . .
113(11) . . .
97(10) . . .
108(10) . . .
114(11) . . .
107(10) . . .
109(10) . . .
101(10) . . .
105(10) . . .
103(10) . . .
100(10) . . .
107(10) . . .
111(11) . . .
114(11) . . .
106(10) . . .
106(10) . . .
102(10) . . .
103(10) . . .
114(11) . . .
126(11) . . .
107(10) . . .
121(11) . . .
115(11) . . .
100(10) . . .
110(10) . . .
107(10) . . .
113(11) . . .
97(10) . . .
99(10) . . .
107(10) . . .
112(11) . . .
105(10) . . .
96(10) . . .
84(9) . . .
103(10) . . .
107(10) . . .
87(9) . . .
106(10) . . .
111(11) . . .
103(10) . . .
92(10) . . .
102(10) . . .
109(10) . . .
122(11) . . .
113(11) . . .
115(11) . . .
93(10) . . .
115(11) . . .
101(10) . . .
104(10) . . .
104(10) . . .
99(10) . . .
98(10) . . .
101(10) . . .
100(10) . . .
114(11) . . .
93(10) . . .
106(10) . . .
118(11) . . .
109(10) . . .
98(10) . . .
103(10) . . .
114(11) . . .
125(11) . . .
102(10) . . .
113(11) . . .
108(10) . . .
113(11) . . .
103(10) . . .
93(10) . . .
113(11) . . .
110(10) . . .
116(11) . . .
105(10) . . .
95(10) . . .
105(10) . . .
114(11) . . .
98(10) . . .
106(10) . . .
113(11) . . .
92(10) . . .
110(10) . . .
93(10) . . .
104(10) . . .
119(11) . . .
94(10) . . .
96(10) . . .
118(11) . . .
103(10) . . .
114(11) . . .
114(11) . . .
102(10) . . .
111(11) . . .
108(10) . . .
109(10) . . .
104(10) . . .
93(10) . . .
99(10) . . .
113(11) . . .
112(11) . . .
115(11) . . .
114(11) . . .
130(11) . . .
119(11) . . .
110(10) . . .
103(10) . . .
96(10) . . .
115(11) . . .
99(10) . . .
124(11) . . .
121(11) . . .
130(11) . . .
121(11) . . .
125(11) . . .
111(11) . . .
117(11) . . .
103(10) . . .
106(10) . . .
129(11) . . .
116(11) . . .
129(11) . . .
109(10) . . .
128(11) . . .
114(11) . . .
131(11) . . .
111(11) . . .
105(10) . . .
113(11) . . .
123(11) . . .
117(11) . . .
120(11) . . .
92(10) . . .
108(10) . . .
95(10) . . .
129(11) . . .
114(11) . . .
104(10) . . .
124(11) . . .
109(10) . . .
114(11) . . .
117(11) . . .
96(10) . . .
117(11) . . .
95(10) . . .
119(11) . . .
100(10) . . .
108(10) . . .
105(10) . . .
100(10) . . .
103(10) . . .
94(10) . . .
124(11) . . .
109(10) . . .
115(11) . . .
116(11) . . .
110(10) . . .
116(11) . . .
110(10) . . .
136(12) . . .
118(11) . . .
110(10) . . .
124(11) . . .
129(11) . . .
114(11) . . .
105(10) . . .
119(11) . . .
104(10) . . .
104(10) . . .
108(10) . . .
129(11) . . .
115(11) . . .
128(11) . . .
102(10) . . .
111(11) . . .
117(11) . . .
96(10) . . .
111(11) . . .
82(9) . . .
102(10) . . .
97(10) . . .
93(10) . . .
122(11) . . .
101(10) . . .
99(10) . . .
95(10) . . .
94(10) . . .
92(10) . . .
111(11) . . .
89(9) . . .
98(10) . . .
98(10) . . .
105(10) . . .
102(10) . . .
112(11) . . .
98(10) . . .
121(11) . . .
110(10) . . .
106(10) . . .
98(10) . . .
98(10) . . .
100(10) . . .
109(10) . . .
101(10) . . .
100(10) . . .
96(10) . . .
114(11) . . .
120(11) . . .
115(11) . . .
114(11) . . .
107(10) . . .
101(10) . . .
118(11) . . .
117(11) . . .
118(11) . . .
126(11) . . .
111(11) . . .
105(10) . . .
90(9) . . .
104(10) . . .
114(11) . . .
116(11) . . .
110(10) . . .
102(10) . . .
106(10) . . .
112(11) . . .
102(10) . . .
114(11) . . .
112(11) . . .
120(11) . . .
107(10) . . .
92(10) . . .
111(11) . . .
89(9) . . .
86(9) . . .
96(10) . . .
103(10) . . .
124(11) . . .
101(10) . . .
104(10) . . .
99(10) . . .
101(10) . . .
91(10) . . .
98(10) . . .
101(10) . . .
102(10) . . .
95(10) . . .
95(10) . . .
101(10) . . .
95(10) . . .
108(10) . . .
121(11) . . .
102(10) . . .
95(10) . . .
99(10) . . .
110(10) . . .
123(11) . . .
103(10) . . .
98(10) . . .
114(11) . . .
102(10) . . .
97(10) . . .
101(10) . . .
101(10) . . .
108(10) . . .
113(11) . . .
105(10) . . .
101(10) . . .
101(10) . . .
104(10) . . .
99(10) . . .
94(10) . . .
108(10) . . .
110(10) . . .
94(10) . . .
104(10) . . .
109(10) . . .
91(10) . . .
90(9) . . .
106(10) . . .
97(10) . . .
97(10) . . .
107(10) . . .
95(10) . . .
96(10) . . .
103(10) . . .
113(11) . . .
101(10) . . .
110(10) . . .
110(10) . . .
96(10) . . .
109(10) . . .
105(10) . . .
115(11) . . .
98(10) . . .
87(9) . . .
109(10) . . .
91(10) . . .
99(10) . . .
111(11) . . .
105(10) . . .
117(11) . . .
98(10) . . .
95(10) . . .
108(10) . . .
115(11) . . .
99(10) . . .
109(10) . . .
100(10) . . .
109(10) . . .
102(10) . . .
95(10) . . .
102(10) . . .
116(11) . . .
98(10) . . .
113(11) . . .
90(9) . . .
112(11) . . .
93(10) . . .
92(10) . . .
98(10) . . .
103(10) . . .
106(10) . . .
109(10) . . .
115(11) . . .
105(10) . . .
102(10) . . .
99(10) . . .
93(10) . . .
120(11) . . .
103(10) . . .
113(11) . . .
110(10) . . .
108(10) . . .
107(10) . . .
93(10) . . .
112(11) . . .
117(11) . . .
96(10) . . .
94(10) . . .
120(11) . . .
110(10) . . .
96(10) . . .
108(10) . . .
110(10) . . .
110(10) . . .
107(10) . . .
80(9) . . .
110(10) . . .
97(10) . . .
105(10) . . .
87(9) . . .
102(10) . . .
102(10) . . .
92(10) . . .
96(10) . . .
103(10) . . .
106(10) . . .
100(10) . . .
84(9) . . .
102(10) . . .
106(10) . . .
106(10) . . .
98(10) . . .
89(9) . . .
99(10) . . .
90(9) . . .
99(10) . . .
108(10) . . .
101(10) . . .
96(10) . . .
84(9) . . .
119(11) . . .
97(10) . . .
93(10) . . .
104(10) . . .
102(10) . . .
113(11) . . .
109(10) . . .
107(10) . . .
106(10) . . .
97(10) . . .
115(11) . . .
119(11) . . .
97(10) . . .
101(10) . . .
102(10) . . .
94(10) . . .
81(9) . . .
108(10) . . .
102(10) . . .
104(10) . . .
100(10) . . .
112(11) . . .
107(10) . . .
106(10) . . .
93(10) . . .
94(10) . . .
99(10) . . .
99(10) . . .
121(11) . . .
124(11) . . .
110(10) . . .
96(10) . . .
85(9) . . .
88(9) . . .
98(10) . . .
93(10) . . .
104(10) . . .
110(10) . . .
97(10) . . .
91(10) . . .
108(10) . . .
77(9) . . .
91(10) . . .
96(10) . . .
99(10) . . .
95(10) . . .
97(10) . . .
102(10) . . .
94(10) . . .
99(10) . . .
115(11) . . .
96(10) . . .
105(10) . . .
106(10) . . .
90(9) . . .
104(10) . . .
97(10) . . .
111(11) . . .
109(10) . . .
104(10) . . .
123(11) . . .
114(11) . . .
113(11) . . .
112(11) . . .
94(10) . . .
110(10) . . .
93(10) . . .
102(10) . . .
116(11) . . .
96(10) . . .
81(9) . . .
97(10) . . .
104(10) . . .
102(10) . . .
111(11) . . .
98(10) . . .
89(9) . . .
97(10) . . .
106(10) . . .
99(10) . . .
94(10) . . .
95(10) . . .
101(10) . . .
90(9) . . .
91(10) . . .
104(10) . . .
97(10) . . .
104(10) . . .
114(11) . . .
93(10) . . .
98(10) . . .
91(10) . . .
92(10) . . .
102(10) . . .
100(10) . . .
83(9) . . .
88(9) . . .
100(10) . . .
91(10) . . .
101(10) . . .
94(10) . . .
102(10) . . .
103(10) . . .
105(10) . . .
100(10) . . .
88(9) . . .
96(10) . . .
108(10) . . .
96(10) . . .
115(11) . . .
89(9) . . .
94(10) . . .
93(10) . . .
102(10) . . .
110(10) . . .
115(11) . . .
94(10) . . .
94(10) . . .
97(10) . . .
96(10) . . .
98(10) . . .
103(10) . . .
107(10) . . .
97(10) . . .
117(11) . . .
106(10) . . .
107(10) . . .
90(9) . . .
106(10) . . .
109(10) . . .
109(10) . . .
108(10) . . .
107(10) . . .
109(10) . . .
98(10) . . .
100(10) . . .
108(10) . . .
105(10) . . .
114(11) . . .
96(10) . . .
91(10) . . .
106(10) . . .
96(10) . . .
118(11) . . .
93(10) . . .
103(10) . . .
107(10) . . .
110(10) . . .
107(10) . . .
101(10) . . .
82(9) . . .
103(10) . . .
108(10) . . .
91(10) . . .
82(9) . . .
99(10) . . .
92(10) . . .
96(10) . . .
115(11) . . .
95(10) . . .
97(10) . . .
108(10) . . .
114(11) . . .
106(10) . . .
99(10) . . .
93(10) . . .
101(10) . . .
107(10) . . .
109(10) . . .
109(10) . . .
113(11) . . .
102(10) . . .
105(10) . . .
93(10) . . .
98(10) . . .
92(10) . . .
100(10) . . .
109(10) . . .
98(10) . . .
108(10) . . .
97(10) . . .
96(10) . . .
110(10) . . .
108(10) . . .
95(10) . . .
104(10) . . .
95(10) . . .
105(10) . . .
102(10) . . .
107(10) . . .
84(9) . . .
100(10) . . .
92(10) . . .
103(10) . . .
100(10) . . .
92(10) . . .
99(10) . . .
89(9) . . .
112(11) . . .
98(10) . . .
104(10) . . .
97(10) . . .
103(10) . . .
97(10) . . .
104(10) . . .
103(10) . . .
98(10) . . .
94(10) . . .
99(10) . . .
96(10) . . .
117(11) . . .
107(10) . . .
99(10) . . .
96(10) . . .
111(11) . . .
109(10) . . .
111(11) . . .
104(10) . . .
102(10) . . .
104(10) . . .
116(11) . . .
108(10) . . .
106(10) . . .
100(10) . . .
99(10) . . .
98(10) . . .
113(11) . . .
94(10) . . .
115(11) . . .
95(10) . . .
92(10) . . .
97(10) . . .
99(10) . . .
129(11) . . .
103(10) . . .
91(10) . . .
97(10) . . .
111(11) . . .
115(11) . . .
90(9) . . .
100(10) . . .
87(9) . . .
96(10) . . .
120(11) . . .
101(10) . . .
98(10) . . .
106(10) . . .
99(10) . . .
98(10) . . .
107(10) . . .
108(10) . . .
107(10) . . .
95(10) . . .
102(10) . . .
103(10) . . .
92(10) . . .
90(9) . . .
114(11) . . .
99(10) . . .
72(8) . . .
91(10) . . .
111(11) . . .
103(10) . . .
100(10) . . .
99(10) . . .
97(10) . . .
101(10) . . .
91(10) . . .
103(10) . . .
109(10) . . .
116(11) . . .
98(10) . . .
102(10) . . .
90(9) . . .
97(10) . . .
93(10) . . .
95(10) . . .
108(10) . . .
99(10) . . .
103(10) . . .
98(10) . . .
108(10) . . .
97(10) . . .
99(10) . . .
99(10) . . .
92(10) . . .
100(10) . . .
88(9) . . .
112(11) . . .
100(10) . . .
105(10) . . .
120(11) . . .
80(9) . . .
93(10) . . .
106(10) . . .
108(10) . . .
95(10) . . .
94(10) . . .
113(11) . . .
101(10) . . .
111(11) . . .
99(10) . . .
107(10) . . .
88(9) . . .
110(10) . . .
91(10) . . .
114(11) . . .
104(10) . . .
91(10) . . .
112(11) . . .
120(11) . . .
120(11) . . .
92(10) . . .
106(10) . . .
113(11) . . .
97(10) . . .
102(10) . . .
87(9) . . .
102(10) . . .
111(11) . . .
112(11) . . .
112(11) . . .
85(9) . . .
116(11) . . .
86(9) . . .
82(9) . . .
106(10) . . .
110(10) . . .
112(11) . . .
98(10) . . .
109(10) . . .
91(10) . . .
105(10) . . .
103(10) . . .
87(9) . . .
108(10) . . .
103(10) . . .
90(9) . . .
97(10) . . .
92(10) . . .
89(9) . . .
113(11) . . .
104(10) . . .
93(10) . . .
104(10) . . .
90(9) . . .
117(11) . . .
93(10) . . .
102(10) . . .
99(10) . . .
104(10) . . .
99(10) . . .
100(10) . . .
95(10) . . .
105(10) . . .
100(10) . . .
105(10) . . .
95(10) . . .
85(9) . . .
97(10) . . .
84(9) . . .
101(10) . . .
81(9) . . .
91(10) . . .
88(9) . . .
95(10) . . .
104(10) . . .
86(9) . . .
97(10) . . .
95(10) . . .
106(10) . . .
91(10) . . .
109(10) . . .
90(9) . . .
120(11) . . .
101(10) . . .
111(11) . . .
107(10) . . .
100(10) . . .
104(10) . . .
99(10) . . .
110(10) . . .
96(10) . . .
102(10) . . .
102(10) . . .
98(10) . . .
98(10) . . .
107(10) . . .
110(10) . . .
113(11) . . .
117(11) . . .
101(10) . . .
97(10) . . .
83(9) . . .
106(10) . . .
109(10) . . .
91(10) . . .
98(10) . . .
89(9) . . .
97(10) . . .
93(10) . . .
111(11) . . .
97(10) . . .
105(10) . . .
95(10) . . .
88(9) . . .
99(10) . . .
106(10) . . .
88(9) . . .
114(11) . . .
81(9) . . .
103(10) . . .
92(10) . . .
103(10) . . .
97(10) . . .
99(10) . . .
87(9) . . .
92(10) . . .
91(10) . . .
111(11) . . .
80(9) . . .
100(10) . . .
110(10) . . .
97(10) . . .
89(9) . . .
85(9) . . .
91(10) . . .
88(9) . . .
92(10) . . .
91(10) . . .
99(10) . . .
103(10) . . .
107(10) . . .
110(10) . . .
94(10) . . .
100(10) . . .
85(9) . . .
111(11) . . .
93(10) . . .
99(10) . . .
102(10) . . .
102(10) . . .
103(10) . . .
95(10) . . .
78(9) . . .
106(10) . . .
103(10) . . .
110(10) . . .
101(10) . . .
104(10) . . .
107(10) . . .
100(10) . . .
103(10) . . .
100(10) . . .
89(9) . . .
96(10) . . .
87(9) . . .
99(10) . . .
115(11) . . .
104(10) . . .
100(10) . . .
85(9) . . .
94(10) . . .
98(10) . . .
108(10) . . .
112(11) . . .
99(10) . . .
111(11) . . .
88(9) . . .
87(9) . . .
87(9) . . .
99(10) . . .
99(10) . . .
91(10) . . .
106(10) . . .
108(10) . . .
90(9) . . .
99(10) . . .
115(11) . . .
98(10) . . .
90(9) . . .
118(11) . . .
103(10) . . .
87(9) . . .
102(10) . . .
113(11) . . .
93(10) . . .
78(9) . . .
112(11) . . .
95(10) . . .
109(10) . . .
116(11) . . .
114(11) . . .
104(10) . . .
98(10) . . .
108(10) . . .
83(9) . . .
100(10) . . .
93(10) . . .
95(10) . . .
82(9) . . .
97(10) . . .
97(10) . . .
107(10) . . .
114(11) . . .
106(10) . . .
93(10) . . .
103(10) . . .
89(9) . . .
104(10) . . .
113(11) . . .
94(10) . . .
92(10) . . .
90(9) . . .
94(10) . . .
91(10) . . .
90(9) . . .
86(9) . . .
84(9) . . .
104(10) . . .
101(10) . . .
81(9) . . .
103(10) . . .
99(10) . . .
105(10) . . .
91(10) . . .
93(10) . . .
98(10) . . .
92(10) . . .
96(10) . . .
96(10) . . .
98(10) . . .
86(9) . . .
81(9) . . .
112(11) . . .
104(10) . . .
98(10) . . .
91(10) . . .
95(10) . . .
104(10) . . .
93(10) . . .
104(10) . . .
94(10) . . .
97(10) . . .
111(11) . . .
115(11) . . .
98(10) . . .
95(10) . . .
102(10) . . .
105(10) . . .
102(10) . . .
97(10) . . .
105(10) . . .
112(11) . . .
91(10) . . .
91(10) . . .
98(10) . . .
89(9) . . .
101(10) . . .
101(10) . . .
102(10) . . .
101(10) . . .
81(9) . . .
99(10) . . .
102(10) . . .
104(10) . . .
102(10) . . .
110(10) . . .
91(10) . . .
101(10) . . .
95(10) . . .
116(11) . . .
103(10) . . .
92(10) . . .
90(9) . . .
104(10) . . .
112(11) . . .
95(10) . . .
103(10) . . .
101(10) . . .
112(11) . . .
95(10) . . .
108(10) . . .
118(11) . . .
99(10) . . .
104(10) . . .
103(10) . . .
102(10) . . .
109(10) . . .
96(10) . . .
98(10) . . .
96(10) . . .
104(10) . . .
110(10) . . .
93(10) . . .
105(10) . . .
77(9) . . .
100(10) . . .
90(9) . . .
105(10) . . .
115(11) . . .
93(10) . . .
92(10) . . .
86(9) . . .
101(10) . . .
94(10) . . .
104(10) . . .
102(10) . . .
95(10) . . .
88(9) . . .
96(10) . . .
121(11) . . .
96(10) . . .
99(10) . . .
103(10) . . .
87(9) . . .
97(10) . . .
110(10) . . .
89(9) . . .
104(10) . . .
91(10) . . .
102(10) . . .
105(10) . . .
104(10) . . .
108(10) . . .
98(10) . . .
108(10) . . .
96(10) . . .
100(10) . . .
96(10) . . .
87(9) . . .
89(9) . . .
97(10) . . .
95(10) . . .
102(10) . . .
98(10) . . .
88(9) . . .
115(11) . . .
95(10) . . .
85(9) . . .
100(10) . . .
109(10) . . .
91(10) . . .
94(10) . . .
108(10) . . .
93(10) . . .
99(10) . . .
103(10) . . .
95(10) . . .
91(10) . . .
93(10) . . .
104(10) . . .
94(10) . . .
97(10) . . .
82(9) . . .
97(10) . . .
98(10) . . .
91(10) . . .
96(10) . . .
93(10) . . .
125(11) . . .
102(10) . . .
104(10) . . .
107(10) . . .
95(10) . . .
109(10) . . .
104(10) . . .
98(10) . . .
94(10) . . .
97(10) . . .
89(9) . . .
115(11) . . .
97(10) . . .
78(9) . . .
108(10) . . .
96(10) . . .
92(10) . . .
100(10) . . .
110(10) . . .
102(10) . . .
100(10) . . .
110(10) . . .
106(10) . . .
108(10) . . .
112(11) . . .
93(10) . . .
101(10) . . .
103(10) . . .
97(10) . . .
90(9) . . .
84(9) . . .
78(9) . . .
109(10) . . .
98(10) . . .
92(10) . . .
99(10) . . .
103(10) . . .
90(9) . . .
119(11) . . .
112(11) . . .
103(10) . . .
105(10) . . .
103(10) . . .
88(9) . . .
100(10) . . .
100(10) . . .
109(10) . . .
103(10) . . .
94(10) . . .
115(11) . . .
107(10) . . .
104(10) . . .
101(10) . . .
92(10) . . .
82(9) . . .
97(10) . . .
107(10) . . .
100(10) . . .
95(10) . . .
77(9) . . .
113(11) . . .
93(10) . . .
94(10) . . .
80(9) . . .
99(10) . . .
100(10) . . .
96(10) . . .
95(10) . . .
107(10) . . .
93(10) . . .
96(10) . . .
108(10) . . .
92(10) . . .
104(10) . . .
106(10) . . .
107(10) . . .
92(10) . . .
90(9) . . .
91(10) . . .
87(9) . . .
93(10) . . .
93(10) . . .
96(10) . . .
106(10) . . .
98(10) . . .
90(9) . . .
114(11) . . .
89(9) . . .
95(10) . . .
103(10) . . .
97(10) . . .
93(10) . . .
111(11) . . .
99(10) . . .
86(9) . . .
95(10) . . .
79(9) . . .
98(10) . . .
88(9) . . .
114(11) . . .
82(9) . . .
95(10) . . .
99(10) . . .
96(10) . . .
89(9) . . .
92(10) . . .
94(10) . . .
97(10) . . .
95(10) . . .
102(10) . . .
95(10) . . .
99(10) . . .
99(10) . . .
97(10) . . .
103(10) . . .
94(10) . . .
99(10) . . .
114(11) . . .
93(10) . . .
86(9) . . .
97(10) . . .
104(10) . . .
92(10) . . .
100(10) . . .
98(10) . . .
104(10) . . .
108(10) . . .
92(10) . . .
97(10) . . .
84(9) . . .
92(10) . . .
85(9) . . .
98(10) . . .
92(10) . . .
129(11) . . .
101(10) . . .
108(10) . . .
84(9) . . .
99(10) . . .
95(10) . . .
93(10) . . .
94(10) . . .
90(9) . . .
97(10) . . .
93(10) . . .
84(9) . . .
88(9) . . .
97(10) . . .
91(10) . . .
102(10) . . .
98(10) . . .
90(9) . . .
115(11) . . .
99(10) . . .
94(10) . . .
88(9) . . .
87(9) . . .
101(10) . . .
91(10) . . .
91(10) . . .
92(10) . . .
90(9) . . .
109(10) . . .
115(11) . . .
97(10) . . .
102(10) . . .
101(10) . . .
103(10) . . .
89(9) . . .
101(10) . . .
99(10) . . .
108(10) . . .
86(9) . . .
99(10) . . .
93(10) . . .
91(10) . . .
87(9) . . .
98(10) . . .
100(10) . . .
96(10) . . .
97(10) . . .
94(10) . . .
88(9) . . .
99(10) . . .
91(10) . . .
87(9) . . .
93(10) . . .
98(10) . . .
85(9) . . .
103(10) . . .
97(10) . . .
113(11) . . .
105(10) . . .
88(9) . . .
92(10) . . .
87(9) . . .
93(10) . . .
83(9) . . .
93(10) . . .
95(10) . . .
109(10) . . .
91(10) . . .
94(10) . . .
90(9) . . .
84(9) . . .
95(10) . . .
96(10) . . .
106(10) . . .
105(10) . . .
98(10) . . .
80(9) . . .
99(10) . . .
93(10) . . .
98(10) . . .
93(10) . . .
107(10) . . .
109(10) . . .
105(10) . . .
99(10) . . .
115(11) . . .
98(10) . . .
82(9) . . .
88(9) . . .
91(10) . . .
93(10) . . .
96(10) . . .
93(10) . . .
91(10) . . .
100(10) . . .
95(10) . . .
90(9) . . .
91(10) . . .
96(10) . . .
105(10) . . .
115(11) . . .
94(10) . . .
120(11) . . .
97(10) . . .
112(11) . . .
79(9) . . .
105(10) . . .
95(10) . . .
101(10) . . .
91(10) . . .
95(10) . . .
87(9) . . .
90(9) . . .
90(9) . . .
115(11) . . .
92(10) . . .
86(9) . . .
101(10) . . .
89(9) . . .
98(10) . . .
93(10) . . .
97(10) . . .
90(9) . . .
107(10) . . .
101(10) . . .
95(10) . . .
82(9) . . .
90(9) . . .
106(10) . . .
97(10) . . .
89(9) . . .
94(10) . . .
99(10) . . .
80(9) . . .
99(10) . . .
110(10) . . .
101(10) . . .
92(10) . . .
117(11) . . .
100(10) . . .
90(9) . . .
103(10) . . .
101(10) . . .
91(10) . . .
106(10) . . .
99(10) . . .
96(10) . . .
85(9) . . .
80(9) . . .
97(10) . . .
104(10) . . .
119(11) . . .
96(10) . . .
109(10) . . .
102(10) . . .
84(9) . . .
107(10) . . .
107(10) . . .
95(10) . . .
101(10) . . .
78(9) . . .
100(10) . . .
96(10) . . .
90(9) . . .
105(10) . . .
94(10) . . .
117(11) . . .
98(10) . . .
85(9) . . .
105(10) . . .
94(10) . . .
92(10) . . .
95(10) . . .
87(9) . . .
108(10) . . .
108(10) . . .
98(10) . . .
108(10) . . .
90(9) . . .
104(10) . . .
97(10) . . .
90(9) . . .
96(10) . . .
102(10) . . .
95(10) . . .
92(10) . . .
101(10) . . .
94(10) . . .
116(11) . . .
97(10) . . .
110(10) . . .
109(10) . . .
102(10) . . .
88(9) . . .
96(10) . . .
79(9) . . .
108(10) . . .
95(10) . . .
91(10) . . .
104(10) . . .
100(10) . . .
114(11) . . .
101(10) . . .
94(10) . . .
80(9) . . .
89(9) . . .
96(10) . . .
89(9) . . .
89(9) . . .
92(10) . . .
87(9) . . .
86(9) . . .
103(10) . . .
78(9) . . .
90(9) . . .
91(10) . . .
102(10) . . .
93(10) . . .
98(10) . . .
92(10) . . .
102(10) . . .
78(9) . . .
108(10) . . .
98(10) . . .
106(10) . . .
106(10) . . .
94(10) . . .
104(10) . . .
103(10) . . .
101(10) . . .
86(9) . . .
97(10) . . .
87(9) . . .
108(10) . . .
106(10) . . .
89(9) . . .
91(10) . . .
92(10) . . .
111(11) . . .
95(10) . . .
86(9) . . .
98(10) . . .
89(9) . . .
97(10) . . .
111(11) . . .
96(10) . . .
91(10) . . .
126(11) . . .
91(10) . . .
115(11) . . .
93(10) . . .
86(9) . . .
93(10) . . .
93(10) . . .
87(9) . . .
99(10) . . .
102(10) . . .
91(10) . . .
96(10) . . .
103(10) . . .
103(10) . . .
104(10) . . .
94(10) . . .
94(10) . . .
84(9) . . .
87(9) . . .
108(10) . . .
98(10) . . .
95(10) . . .
100(10) . . .
113(11) . . .
93(10) . . .
105(10) . . .
74(9) . . .
99(10) . . .
105(10) . . .
98(10) . . .
89(9) . . .
103(10) . . .
105(10) . . .
111(11) . . .
106(10) . . .
92(10) . . .
92(10) . . .
87(9) . . .
78(9) . . .
98(10) . . .
90(9) . . .
101(10) . . .
92(10) . . .
94(10) . . .
99(10) . . .
100(10) . . .
94(10) . . .
88(9) . . .
104(10) . . .
106(10) . . .
101(10) . . .
99(10) . . .
102(10) . . .
112(11) . . .
99(10) . . .
99(10) . . .
104(10) . . .
108(10) . . .
103(10) . . .
95(10) . . .
101(10) . . .
97(10) . . .
113(11) . . .
104(10) . . .
92(10) . . .
104(10) . . .
89(9) . . .
100(10) . . .
111(11) . . .
93(10) . . .
94(10) . . .
95(10) . . .
97(10) . . .
121(11) . . .
111(11) . . .
112(11) . . .
93(10) . . .
95(10) . . .
104(10) . . .
109(10) . . .
103(10) . . .
118(11) . . .
99(10) . . .
116(11) . . .
111(11) . . .
102(10) . . .
100(10) . . .
105(10) . . .
85(9) . . .
78(9) . . .
103(10) . . .
112(11) . . .
91(10) . . .
88(9) . . .
108(10) . . .
113(11) . . .
102(10) . . .
110(10) . . .
94(10) . . .
105(10) . . .
103(10) . . .
104(10) . . .
100(10) . . .
101(10) . . .
108(10) . . .
108(10) . . .
92(10) . . .
109(10) . . .
112(11) . . .
97(10) . . .
103(10) . . .
106(10) . . .
92(10) . . .
113(11) . . .
104(10) . . .
114(11) . . .
104(10) . . .
115(11) . . .
110(10) . . .
116(11) . . .
105(10) . . .
109(10) . . .
125(11) . . .
101(10) . . .
116(11) . . .
86(9) . . .
111(11) . . .
111(11) . . .
110(10) . . .
100(10) . . .
115(11) . . .
113(11) . . .
103(10) . . .
104(10) . . .
88(9) . . .
121(11) . . .
113(11) . . .
119(11) . . .
122(11) . . .
105(10) . . .
101(10) . . .
120(11) . . .
126(11) . . .
105(10) . . .
119(11) . . .
111(11) . . .
129(11) . . .
110(10) . . .
129(11) . . .
120(11) . . .
117(11) . . .
123(11) . . .
128(11) . . .
118(11) . . .
119(11) . . .
128(11) . . .
125(11) . . .
125(11) . . .
124(11) . . .
141(12) . . .
117(11) . . .
121(11) . . .
119(11) . . .
128(11) . . .
122(11) . . .
151(12) . . .
146(12) . . .
129(11) . . .
119(11) . . .
128(11) . . .
124(11) . . .
137(12) . . .
145(12) . . .
144(12) . . .
130(11) . . .
109(10) . . .
137(12) . . .
124(11) . . .
142(12) . . .
129(11) . . .
140(12) . . .
159(13) . . .
140(12) . . .
133(12) . . .
159(13) . . .
166(13) . . .
164(13) . . .
180(13) . . .
150(12) . . .
187(14) . . .
177(13) . . .
176(13) . . .
174(13) . . .
174(13) . . .
170(13) . . .
181(13) . . .
188(14) . . .
191(14) . . .
194(14) . . .
197(14) . . .
197(14) . . .
192(14) . . .
176(13) . . .
177(13) . . .
190(14) . . .
185(14) . . .
192(14) . . .
182(13) . . .
192(14) . . .
207(14) . . .
201(14) . . .
194(14) . . .
201(14) . . .
192(14) . . .
203(14) . . .
180(13) . . .
210(14) . . .
212(15) . . .
200(14) . . .
215(15) . . .
212(15) . . .
208(14) . . .
206(14) . . .
216(15) . . .
219(15) . . .
199(14) . . .
196(14) . . .
202(14) . . .
189(14) . . .
197(14) . . .
203(14) . . .
191(14) . . .
179(13) . . .
186(14) . . .
197(14) . . .
184(14) . . .
198(14) . . .
165(13) . . .
166(13) . . .
186(14) . . .
186(14) . . .
179(13) . . .
179(13) . . .
168(13) . . .
154(12) . . .
169(13) . . .
152(12) . . .
175(13) . . .
179(13) . . .
140(12) . . .
146(12) . . .
156(12) . . .
160(13) . . .
140(12) . . .
149(12) . . .
151(12) . . .
149(12) . . .
159(13) . . .
140(12) . . .
160(13) . . .
136(12) . . .
141(12) . . .
146(12) . . .
154(12) . . .
118(11) . . .
123(11) . . .
145(12) . . .
141(12) . . .
133(12) . . .
124(11) . . .
144(12) . . .
144(12) . . .
123(11) . . .
117(11) . . .
129(11) . . .
140(12) . . .
127(11) . . .
126(11) . . .
114(11) . . .
123(11) . . .
120(11) . . .
109(10) . . .
113(11) . . .
103(10) . . .
121(11) . . .
124(11) . . .
113(11) . . .
119(11) . . .
123(11) . . .
118(11) . . .
114(11) . . .
125(11) . . .
112(11) . . .
111(11) . . .
124(11) . . .
102(10) . . .
114(11) . . .
110(10) . . .
124(11) . . .
97(10) . . .
115(11) . . .
107(10) . . .
112(11) . . .
105(10) . . .
83(9) . . .
105(10) . . .
110(10) . . .
110(10) . . .
106(10) . . .
138(12) . . .
112(11) . . .
116(11) . . .
103(10) . . .
101(10) . . .
101(10) . . .
106(10) . . .
91(10) . . .
102(10) . . .
110(10) . . .
103(10) . . .
118(11) . . .
112(11) . . .
116(11) . . .
105(10) . . .
104(10) . . .
109(10) . . .
108(10) . . .
107(10) . . .
114(11) . . .
96(10) . . .
97(10) . . .
111(11) . . .
126(11) . . .
107(10) . . .
119(11) . . .
112(11) . . .
106(10) . . .
93(10) . . .
108(10) . . .
115(11) . . .
106(10) . . .
103(10) . . .
100(10) . . .
101(10) . . .
106(10) . . .
95(10) . . .
92(10) . . .
100(10) . . .
82(9) . . .
103(10) . . .
110(10) . . .
99(10) . . .
97(10) . . .
108(10) . . .
115(11) . . .
118(11) . . .
97(10) . . .
112(11) . . .
101(10) . . .
95(10) . . .
101(10) . . .
105(10) . . .
97(10) . . .
121(11) . . .
102(10) . . .
91(10) . . .
91(10) . . .
93(10) . . .
102(10) . . .
102(10) . . .
89(9) . . .
86(9) . . .
94(10) . . .
102(10) . . .
104(10) . . .
98(10) . . .
92(10) . . .
113(11) . . .
109(10) . . .
94(10) . . .
106(10) . . .
94(10) . . .
114(11) . . .
105(10) . . .
92(10) . . .
103(10) . . .
112(11) . . .
90(9) . . .
83(9) . . .
80(9) . . .
94(10) . . .
89(9) . . .
80(9) . . .
96(10) . . .
97(10) . . .
89(9) . . .
99(10) . . .
88(9) . . .
95(10) . . .
94(10) . . .
93(10) . . .
103(10) . . .
95(10) . . .
81(9) . . .
89(9) . . .
89(9) . . .
90(9) . . .
96(10) . . .
97(10) . . .
97(10) . . .
108(10) . . .
96(10) . . .
97(10) . . .
110(10) . . .
88(9) . . .
112(11) . . .
96(10) . . .
84(9) . . .
113(11) . . .
108(10) . . .
104(10) . . .
94(10) . . .
102(10) . . .
92(10) . . .
84(9) . . .
93(10) . . .
81(9) . . .
94(10) . . .
122(11) . . .
111(11) . . .
100(10) . . .
108(10) . . .
105(10) . . .
84(9) . . .
65(8) . . .
101(10) . . .
91(10) . . .
104(10) . . .
84(9) . . .
87(9) . . .
101(10) . . .
86(9) . . .
91(10) . . .
101(10) . . .
108(10) . . .
94(10) . . .
101(10) . . .
92(10) . . .
85(9) . . .
99(10) . . .
81(9) . . .
96(10) . . .
100(10) . . .
99(10) . . .
101(10) . . .
88(9) . . .
112(11) . . .
93(10) . . .
82(9) . . .
86(9) . . .
96(10) . . .
85(9) . . .
90(9) . . .
101(10) . . .
99(10) . . .
98(10) . . .
108(10) . . .
107(10) . . .
88(9) . . .
96(10) . . .
83(9) . . .
92(10) . . .
98(10) . . .
91(10) . . .
92(10) . . .
100(10) . . .
105(10) . . .
103(10) . . .
93(10) . . .
85(9) . . .
97(10) . . .
97(10) . . .
96(10) . . .
98(10) . . .
89(9) . . .
80(9) . . .
88(9) . . .
100(10) . . .
94(10) . . .
87(9) . . .
94(10) . . .
99(10) . . .
76(9) . . .
96(10) . . .
91(10) . . .
79(9) . . .
93(10) . . .
75(9) . . .
94(10) . . .
98(10) . . .
95(10) . . .
95(10) . . .
87(9) . . .
98(10) . . .
103(10) . . .
97(10) . . .
94(10) . . .
109(10) . . .
98(10) . . .
87(9) . . .
101(10) . . .
86(9) . . .
103(10) . . .
97(10) . . .
93(10) . . .
91(10) . . .
99(10) . . .
99(10) . . .
94(10) . . .
93(10) . . .
94(10) . . .
109(10) . . .
91(10) . . .
96(10) . . .
87(9) . . .
104(10) . . .
79(9) . . .
100(10) . . .
85(9) . . .
100(10) . . .
93(10) . . .
93(10) . . .
96(10) . . .
103(10) . . .
80(9) . . .
92(10) . . .
86(9) . . .
89(9) . . .
90(9) . . .
107(10) . . .
86(9) . . .
102(10) . . .
93(10) . . .
90(9) . . .
102(10) . . .
88(9) . . .
101(10) . . .
95(10) . . .
110(10) . . .
93(10) . . .
99(10) . . .
103(10) . . .
104(10) . . .
95(10) . . .
100(10) . . .
94(10) . . .
88(9) . . .
100(10) . . .
104(10) . . .
109(10) . . .
84(9) . . .
86(9) . . .
97(10) . . .
91(10) . . .
96(10) . . .
85(9) . . .
85(9) . . .
96(10) . . .
82(9) . . .
95(10) . . .
96(10) . . .
84(9) . . .
68(8) . . .
94(10) . . .
114(11) . . .
93(10) . . .
116(11) . . .
96(10) . . .
100(10) . . .
112(11) . . .
113(11) . . .
88(9) . . .
93(10) . . .
110(10) . . .
88(9) . . .
95(10) . . .
93(10) . . .
100(10) . . .
83(9) . . .
91(10) . . .
93(10) . . .
93(10) . . .
94(10) . . .
91(10) . . .
101(10) . . .
99(10) . . .
97(10) . . .
92(10) . . .
104(10) . . .
101(10) . . .
95(10) . . .
113(11) . . .
93(10) . . .
83(9) . . .
91(10) . . .
91(10) . . .
115(11) . . .
93(10) . . .
89(9) . . .
88(9) . . .
105(10) . . .
105(10) . . .
103(10) . . .
102(10) . . .
107(10) . . .
78(9) . . .
97(10) . . .
105(10) . . .
84(9) . . .
87(9) . . .
99(10) . . .
100(10) . . .
86(9) . . .
106(10) . . .
94(10) . . .
97(10) . . .
91(10) . . .
112(11) . . .
105(10) . . .
90(9) . . .
96(10) . . .
106(10) . . .
102(10) . . .
86(9) . . .
95(10) . . .
83(9) . . .
95(10) . . .
96(10) . . .
109(10) . . .
101(10) . . .
82(9) . . .
85(9) . . .
101(10) . . .
89(9) . . .
101(10) . . .
90(9) . . .
81(9) . . .
105(10) . . .
100(10) . . .
90(9) . . .
92(10) . . .
99(10) . . .
106(10) . . .
95(10) . . .
101(10) . . .
82(9) . . .
91(10) . . .
84(9) . . .
110(10) . . .
20(4) . . .
0.00(10) . . .
0.00(10) . . .
0.00(10) . . .
0.0(10) . . .
loop_
_refln_index_h
_refln_index_k
_refln_index_l
_refln_observed_status
_refln_F_squared_meas
_refln_F_squared_calc
_refln_phase_calc
_refln_d_spacing
_gsas_i100_meas
0 2 0 o 1234.518 1352.641 180.00 8.21912 4.94
0 0 2 o 1.982 141.217 180.00 6.56893 0.01
1 0 1 o 12333.299 12946.487 0.00 5.86444 50.33
0 3 1 o 1233.154 1262.616 180.00 5.05720 3.74
0 2 2 o 31988.338 31594.879 0.00 5.13141 100.00
-1 2 1 o 2524.573 2383.197 0.00 4.79313 6.89
1 1 2 o 2632.000 2351.265 0.00 4.45724 6.21
1 2 1 o 1193.104 1142.666 0.00 4.75478 3.20
-1 1 2 o 6076.256 5614.467 0.00 4.47293 14.44
0 4 0 o 2320.643 1150.858 0.00 4.10956 2.33
1 0 3 o 236.895 192.146 180.00 3.64116 0.37
0 0 4 o 261.782 246.378 180.00 3.28447 0.17
-1 4 1 o 802.235 803.607 180.00 3.37900 1.09
0 3 3 o 12803.363 12000.461 0.00 3.42094 17.83
1 3 2 o 2529.729 2718.496 0.00 3.52907 3.75
-1 2 3 o 2257.361 2055.505 0.00 3.33563 2.99
1 2 3 o 129.648 113.604 0.00 3.32262 0.17
-1 3 2 o 5216.543 5563.792 0.00 3.55255 7.83
0 4 2 o 11.509 15.426 0.00 3.48395 0.02
1 4 1 o 1186.997 1142.408 180.00 3.35213 1.59
0 5 1 o 35.428 25.896 180.00 3.18931 0.04
0 2 4 o 1637.618 1326.423 0.00 3.04996 1.82
-1 1 4 o 229.053 138.671 0.00 2.89272 0.23
1 1 4 o 167.526 109.815 0.00 2.88846 0.17
2 0 0 o 2521.884 2316.896 180.00 3.27679 1.61
2 1 1 o 1287.253 924.274 180.00 3.11619 1.49
-2 1 1 o 725.469 638.515 180.00 3.12692 0.85
0 1 5 o 1820.627 1830.496 180.00 2.59464 1.46
-2 2 0 o 198.218 184.484 0.00 3.05380 0.11
0 6 0 o 1299.263 1281.973 0.00 2.73971 0.58
2 2 0 o 23.142 15.439 180.00 3.03392 0.01
2 0 2 o 397.300 191.913 0.00 2.93222 0.41
-1 5 2 o 3467.065 3500.451 180.00 2.69098 3.00
-2 3 1 o 952.326 881.449 0.00 2.76105 0.87
1 0 5 o 876.250 776.401 180.00 2.43885 0.62
2 2 2 o 3361.736 3274.718 180.00 2.75434 3.04
1 3 4 o 517.280 519.446 180.00 2.58357 0.41
2 3 1 o 335.740 331.070 0.00 2.73905 0.30
-2 2 2 o 1288.646 1148.041 180.00 2.76919 1.18
1 4 3 o 3659.724 3782.036 0.00 2.71821 3.23
-1 3 4 o 896.216 851.862 0.00 2.59274 0.72
1 5 2 o 2248.174 2306.755 180.00 2.67397 1.92
-1 6 1 o 1547.697 1829.275 0.00 2.49032 1.15
-1 4 3 o 7837.524 8015.670 0.00 2.73248 6.98
-2 1 3 o 977.179 909.186 0.00 2.59392 0.79
2 1 3 o 1337.741 1310.577 0.00 2.58779 1.07
-2 4 0 o 2003.839 2086.073 180.00 2.57398 0.79
0 6 2 o 234.169 394.433 0.00 2.52860 0.18
0 4 4 o 10835.161 11774.843 0.00 2.56571 8.52
0 0 6 o 2684.707 2880.464 0.00 2.18964 0.77
0 3 5 o 138.195 110.776 0.00 2.36925 0.09
2 4 0 o 1275.842 1282.632 180.00 2.55027 0.50
1 6 1 o 62.794 73.783 0.00 2.47415 0.05
0 5 3 o 377.718 542.160 180.00 2.62920 0.31
0 2 6 o 235.076 296.923 180.00 2.11585 0.13
-2 4 2 o 110.872 131.510 180.00 2.39657 0.08
-2 5 1 o 97.116 26.846 180.00 2.29608 0.06
2 3 3 o 895.262 563.343 180.00 2.35939 0.60
-1 1 6 o 598.767 523.834 180.00 2.06118 0.31
1 1 6 o 2693.927 2338.478 180.00 2.05964 1.37
2 4 2 o 525.006 538.031 180.00 2.37739 0.35
-2 3 3 o 145.216 132.734 0.00 2.37340 0.10
2 2 4 o 16.202 96.236 0.00 2.22862 0.01
2 5 1 o 290.757 212.190 0.00 2.27503 0.18
-2 2 4 o 1.590 4.540 180.00 2.23647 0.00
0 8 0 o 192.107 163.671 0.00 2.05478 0.05
-2 6 0 o 616.274 715.121 180.00 2.11173 0.16
-1 7 2 o 5303.983 5128.757 0.00 2.10091 2.81
1 4 5 o 1566.587 1523.409 180.00 2.09408 0.82
-1 6 3 o 6009.910 6012.412 180.00 2.19478 3.47
0 1 7 o 332.068 569.919 0.00 1.86472 0.14
-1 4 5 o 285.136 274.004 0.00 2.10059 0.15
1 5 4 o 4144.130 4145.661 0.00 2.18540 2.37
1 7 2 o 616.415 575.666 0.00 2.08956 0.32
1 6 3 o 3605.207 3634.670 180.00 2.18369 2.06
-1 3 6 o 401.741 348.340 0.00 1.94392 0.18
1 3 6 o 2183.275 1936.492 0.00 1.94005 0.99
-1 5 4 o 9048.655 8994.238 0.00 2.19466 5.22
2 6 0 o 5165.384 5065.745 180.00 2.09209 1.36
-1 8 1 o 1171.285 1015.551 180.00 1.94435 0.53
3 0 1 o 2822.271 2411.603 180.00 2.15494 1.57
1 0 7 o 1593.009 1406.095 0.00 1.80431 0.63
0 5 5 o 25535.490 22287.000 0.00 2.05257 12.91
0 4 6 o 2917.382 2597.427 180.00 1.93245 1.31
0 8 2 o 4167.343 3178.600 180.00 1.96108 1.93
0 7 3 o 7654.549 6852.781 0.00 2.06955 3.93
1 8 1 o 513.748 460.906 180.00 1.93407 0.23
3 2 1 o 0.027 0.016 0.00 2.07971 0.00
2 3 5 o 1452.549 1212.849 0.00 1.91622 0.64
-3 2 1 o 246.959 240.413 0.00 2.08929 0.13
2 5 3 o 407.136 229.793 0.00 2.04313 0.20
-3 1 2 o 4445.360 4266.558 180.00 2.05893 2.26
-2 5 3 o 112.689 106.633 0.00 2.05833 0.06
3 1 2 o 1630.992 1472.374 180.00 2.05433 0.83
0 6 4 o 8085.998 7781.599 180.00 2.10387 4.29
-2 7 1 o 88.283 70.079 180.00 1.89731 0.04
0 3 7 o 1559.931 1621.861 0.00 1.77557 0.59
-2 3 5 o 698.797 605.155 0.00 1.92371 0.31
2 6 2 o 1645.602 497.073 180.00 1.99344 0.79
-1 2 7 o 396.656 404.133 180.00 1.76331 0.15
1 2 7 o 2353.926 2400.929 180.00 1.76138 0.88
2 0 6 o 4.613 4.132 0.00 1.82058 0.00
0 9 1 o 5126.784 4479.076 0.00 1.80907 2.02
3 0 3 o 2849.737 2616.555 0.00 1.95481 1.31
-2 2 6 o 1185.882 1271.826 180.00 1.77948 0.45
2 2 6 o 1229.917 1268.097 180.00 1.77552 0.47
2 7 1 o 930.499 1286.708 180.00 1.88067 0.40
3 3 2 o 552.521 485.552 0.00 1.93305 0.25
0 0 8 o 0.018 0.024 180.00 1.64223 0.00
-3 3 2 o 1761.761 1500.688 0.00 1.94462 0.80
3 2 3 o 3330.128 2416.108 180.00 1.89814 1.44
-3 4 1 o 1256.603 1039.940 180.00 1.91587 0.55
-3 2 3 o 7416.983 5990.108 180.00 1.90541 3.24
3 4 1 o 527.119 382.209 180.00 1.90116 0.23
-2 8 0 o 2.879 2.725 180.00 1.74832 0.00
0 2 8 o 912.243 987.021 180.00 1.61040 0.29
3 1 4 o 3947.702 3386.173 0.00 1.80635 1.55
1 5 6 o 213.094 210.064 0.00 1.75343 0.08
-1 8 3 o 554.726 581.660 0.00 1.79356 0.22
-1 1 8 o 612.499 901.286 0.00 1.58590 0.19
1 1 8 o 807.429 1217.263 0.00 1.58520 0.25
-3 1 4 o 3303.186 2856.574 0.00 1.80947 1.30
-1 5 6 o 2866.293 2990.790 0.00 1.75820 1.07
1 6 5 o 30.379 26.080 0.00 1.81846 0.01
-1 9 2 o 94.630 96.247 0.00 1.70342 0.03
1 4 7 o 235.207 278.407 180.00 1.65050 0.08
-2 1 7 o 487.785 638.608 0.00 1.62143 0.16
-1 6 5 o 1609.719 1437.375 0.00 1.82485 0.65
2 1 7 o 171.257 210.943 0.00 1.61993 0.05
1 8 3 o 81.029 105.121 180.00 1.78548 0.03
0 10 0 o 9123.219 11333.769 180.00 1.64382 1.49
-1 7 4 o 642.113 582.762 180.00 1.83778 0.26
2 8 0 o 33.613 43.754 0.00 1.73344 0.01
1 7 4 o 229.397 195.694 180.00 1.83017 0.09
-1 4 7 o 240.461 270.885 180.00 1.65368 0.08
1 9 2 o 3.914 4.434 180.00 1.69564 0.00
-2 7 3 o 1089.446 1159.840 180.00 1.75643 0.41
2 5 5 o 3395.531 4158.010 180.00 1.73486 1.23
-2 8 2 o 12.801 12.303 0.00 1.68950 0.00
2 4 6 o 1758.930 1634.304 0.00 1.66131 0.59
3 0 5 o 3121.573 2621.341 180.00 1.67981 1.06
-3 5 2 o 53.943 55.174 0.00 1.76064 0.02
3 4 3 o 405.265 423.280 180.00 1.75949 0.15
0 5 7 o 12.209 28.308 0.00 1.62994 0.00
0 6 6 o 5174.402 4992.978 0.00 1.71047 1.83
-2 4 6 o 2865.331 2673.156 0.00 1.66781 0.96
2 6 4 o 1203.097 1142.870 0.00 1.76454 0.45
3 5 2 o 666.897 618.291 0.00 1.74638 0.25
0 9 3 o 204.248 171.522 180.00 1.68573 0.07
-2 5 5 o 822.844 781.705 180.00 1.74414 0.30
2 7 3 o 1811.998 1731.501 180.00 1.74321 0.66
-2 6 4 o 925.370 879.860 0.00 1.77627 0.35
3 3 4 o 0.687 1.475 0.00 1.72225 0.00
-3 6 1 o 1556.155 1615.009 180.00 1.70154 0.54
-3 4 3 o 13.447 14.053 180.00 1.77112 0.01
-1 10 1 o 899.056 1288.021 180.00 1.58633 0.27
-3 3 4 o 607.407 975.190 180.00 1.73041 0.22
0 8 4 o 745.104 723.264 0.00 1.74198 0.27
-1 3 8 o 40.743 67.957 0.00 1.53060 0.01
1 3 8 o 125.878 223.489 0.00 1.52870 0.04
0 1 9 o 2489.800 1970.255 0.00 1.45404 0.64
3 2 5 o 92.417 111.510 0.00 1.64344 0.03
0 4 8 o 46.473 94.401 180.00 1.52498 0.01
0 10 2 o 648.683 796.519 0.00 1.59465 0.20
2 8 2 o 203.065 191.824 180.00 1.67606 0.07
-2 9 1 o 10.136 13.063 180.00 1.59008 0.00
-2 3 7 o 2598.136 3546.719 180.00 1.56313 0.77
0 7 5 o 970.019 772.432 180.00 1.75095 0.36
-3 2 5 o 85.849 103.572 0.00 1.64815 0.03
3 6 1 o 1986.245 1624.814 180.00 1.68612 0.68
2 3 7 o 837.426 1108.151 180.00 1.55911 0.25
1 10 1 o 36.568 79.872 180.00 1.57934 0.01
2 0 8 o 915.412 843.779 180.00 1.46817 0.24
3 1 6 o 14.595 19.413 180.00 1.53874 0.00
2 9 1 o 47.763 117.946 180.00 1.57748 0.01
-3 1 6 o 89.723 113.058 180.00 1.54067 0.03
0 3 9 o 275.163 101.713 0.00 1.41056 0.07
-1 2 9 o 117.336 52.451 0.00 1.40439 0.03
1 2 9 o 1529.108 730.651 180.00 1.40342 0.37
-2 2 8 o 3747.758 2558.245 0.00 1.44636 0.95
2 2 8 o 223.711 149.706 0.00 1.44423 0.06
0 11 1 o 5175.686 4713.429 180.00 1.48481 1.39
-3 7 2 o 1844.775 2362.439 180.00 1.56106 0.55
3 5 4 o 90.325 121.888 180.00 1.58628 0.03
-2 10 0 o 33.637 30.167 180.00 1.47493 0.00
3 4 5 o 0.480 0.591 0.00 1.55096 0.00
4 0 0 o 2721.078 4151.177 0.00 1.63840 0.44
-3 6 3 o 250.117 265.578 0.00 1.59771 0.08
1 6 7 o 0.042 0.068 0.00 1.50507 0.00
4 1 1 o 1959.104 2096.837 0.00 1.61642 0.62
-1 10 3 o 0.016 0.023 180.00 1.50119 0.00
-1 9 4 o 682.094 896.953 0.00 1.55388 0.20
3 6 3 o 202.549 288.280 0.00 1.58493 0.06
-3 5 4 o 229.503 242.995 180.00 1.59694 0.07
-4 1 1 o 887.992 854.515 0.00 1.61940 0.28
4 2 0 o 334.801 323.004 180.00 1.60387 0.05
-3 4 5 o 141.045 183.336 180.00 1.55892 0.04
-1 6 7 o 1468.386 2162.889 0.00 1.50869 0.41
-4 2 0 o 33.915 30.011 180.00 1.60972 0.01
-2 9 3 o 240.657 395.434 0.00 1.50438 0.07
3 3 6 o 104.730 93.409 0.00 1.48575 0.03
1 7 6 o 67.077 88.372 0.00 1.55338 0.02
4 0 2 o 112.682 126.533 180.00 1.58970 0.03
1 9 4 o 14.238 16.020 180.00 1.54797 0.00
3 7 2 o 844.379 959.659 180.00 1.54716 0.25
2 6 6 o 3022.842 4384.015 180.00 1.51264 0.84
1 10 3 o 96.830 136.573 180.00 1.49527 0.03
-1 7 6 o 888.308 1173.948 0.00 1.55803 0.26
-2 8 4 o 1538.486 1840.901 180.00 1.54329 0.44
-3 8 1 o 86.873 120.845 0.00 1.49410 0.02
2 5 7 o 2410.797 1970.405 0.00 1.45663 0.62
0 0 10 o 4728.877 5551.880 180.00 1.31379 0.50
-3 3 6 o 26.445 30.352 180.00 1.49098 0.01
-1 8 5 o 278.054 639.966 180.00 1.57415 0.08
4 2 2 o 2683.240 3545.576 0.00 1.55810 0.79
2 10 0 o 684.222 622.074 0.00 1.46375 0.09
-2 5 7 o 3125.305 2807.880 0.00 1.46211 0.81
4 3 1 o 673.530 891.924 180.00 1.55465 0.20
2 7 5 o 1407.147 1665.494 0.00 1.53978 0.40
-4 2 2 o 1237.256 1528.189 0.00 1.56346 0.37
-4 3 1 o 357.629 441.614 180.00 1.56266 0.11
-2 7 5 o 1288.818 1391.077 0.00 1.54887 0.38
-2 6 6 o 383.406 884.126 180.00 1.52002 0.11
2 8 4 o 1551.074 2274.868 180.00 1.53303 0.44
1 8 5 o 211.538 377.849 180.00 1.56868 0.06
0 2 10 o 24.957 26.157 0.00 1.29732 0.01
4 1 3 o 169.974 384.524 180.00 1.52662 0.05
3 8 1 o 12.851 11.146 180.00 1.48019 0.00
2 9 3 o 13.584 20.374 180.00 1.49369 0.00
0 6 8 o 0.294 0.094 0.00 1.40856 0.00
0 12 0 o 1772.260 2071.597 0.00 1.36985 0.20
-2 1 9 o 1783.596 2290.067 180.00 1.32948 0.39
2 1 9 o 313.349 408.923 180.00 1.32865 0.07
-1 4 9 o 26.754 30.136 0.00 1.34709 0.01
-3 2 7 o 43.925 17.928 0.00 1.40417 0.01
4 4 0 o 1072.560 1881.566 0.00 1.51696 0.15
-4 1 3 o 373.388 702.395 180.00 1.52914 0.11
-2 4 8 o 2424.820 2984.239 180.00 1.38445 0.57
1 4 9 o 2.971 3.252 0.00 1.34537 0.00
-4 4 0 o 540.793 1187.834 0.00 1.52690 0.08
0 10 4 o 236.676 223.338 180.00 1.47000 0.06
3 2 7 o 0.421 0.229 180.00 1.40125 0.00
-1 1 10 o 86.793 99.206 180.00 1.28441 0.02
1 1 10 o 946.673 1083.549 0.00 1.28403 0.19
2 4 8 o 1051.328 1332.747 180.00 1.38073 0.24
0 7 7 o 3664.988 3400.612 0.00 1.46612 0.96
0 9 5 o 500.003 602.075 0.00 1.49974 0.14
-2 11 1 o 9.749 11.877 0.00 1.35727 0.00
-1 12 1 o 42.914 48.551 180.00 1.33646 0.01
4 0 4 o 1087.736 1011.860 0.00 1.46611 0.28
4 4 2 o 1155.146 924.593 180.00 1.47806 0.31
0 5 9 o 3.252 3.817 180.00 1.33416 0.00
-4 4 2 o 1202.504 966.889 180.00 1.48725 0.32
0 8 6 o 632.155 699.386 180.00 1.49836 0.17
4 3 3 o 4360.676 3929.145 0.00 1.47427 1.15
2 3 9 o 417.986 433.925 0.00 1.29447 0.09
-4 3 3 o 1712.842 1531.175 0.00 1.48109 0.46
0 12 2 o 3365.744 3603.158 180.00 1.34101 0.74
-4 5 1 o 2491.650 2268.197 0.00 1.46283 0.65
-2 3 9 o 1948.375 2012.089 0.00 1.29677 0.40
1 12 1 o 38.804 47.921 180.00 1.33144 0.01
4 5 1 o 2464.996 1862.349 0.00 1.45192 0.63
3 5 6 o 154.104 160.993 180.00 1.39580 0.04
-3 9 2 o 0.918 1.329 180.00 1.37656 0.00
-3 1 8 o 846.438 924.586 180.00 1.30911 0.18
-1 3 10 o 45.678 55.559 0.00 1.25449 0.01
-4 2 4 o 1352.601 806.826 180.00 1.44545 0.34
3 1 8 o 491.605 531.803 180.00 1.30792 0.10
1 3 10 o 103.265 125.351 180.00 1.25345 0.02
-3 7 4 o 0.019 0.011 180.00 1.44355 0.00
0 4 10 o 0.004 0.005 180.00 1.25139 0.00
2 11 1 o 699.005 782.885 0.00 1.34767 0.16
-3 5 6 o 776.061 341.479 180.00 1.40304 0.19
3 4 7 o 483.452 505.307 0.00 1.34260 0.11
-4 1 5 o 683.416 840.191 0.00 1.38626 0.16
4 1 5 o 885.330 1049.130 0.00 1.38439 0.21
3 8 3 o 619.209 170.803 180.00 1.41031 0.15
-3 4 7 o 1.246 1.393 180.00 1.34775 0.00
4 6 0 o 2739.658 1666.262 180.00 1.40030 0.33
-3 10 1 o 66.368 76.247 0.00 1.31292 0.01
0 1 11 o 1019.311 1141.890 180.00 1.19121 0.18
3 9 2 o 152.704 168.163 180.00 1.36432 0.03
4 4 4 o 1378.114 2031.380 0.00 1.37717 0.32
-1 11 4 o 8.954 10.476 0.00 1.33413 0.00
4 5 3 o 200.085 230.406 180.00 1.38580 0.05
1 7 8 o 14.331 18.206 0.00 1.31688 0.00
-2 10 4 o 1642.593 1686.916 0.00 1.34549 0.36
-2 12 0 o 91.401 93.593 180.00 1.26815 0.01
-4 6 2 o 779.357 1018.521 0.00 1.38052 0.18
1 6 9 o 116.327 113.776 180.00 1.26304 0.02
-3 3 8 o 7.035 8.057 0.00 1.27821 0.00
2 6 8 o 2047.833 2154.193 0.00 1.29178 0.42
2 7 7 o 4137.955 4717.919 180.00 1.33532 0.90
1 0 11 o 1673.616 1464.487 180.00 1.17500 0.29
3 3 8 o 126.611 133.228 180.00 1.27491 0.03
-4 4 4 o 410.526 465.037 0.00 1.38459 0.10
-4 5 3 o 256.138 307.773 180.00 1.39527 0.06
0 13 1 o 1577.160 1861.186 0.00 1.25866 0.31
-1 7 8 o 967.349 1301.634 0.00 1.31970 0.21
-2 2 10 o 1947.171 1409.685 180.00 1.20684 0.35
4 3 5 o 0.882 0.892 180.00 1.34499 0.00
-2 11 3 o 1238.890 1350.280 180.00 1.30279 0.26
4 6 2 o 925.067 980.769 0.00 1.36953 0.21
2 2 10 o 1054.431 786.878 180.00 1.20560 0.19
1 11 4 o 436.311 572.943 180.00 1.32955 0.09
-2 9 5 o 3432.986 3333.212 180.00 1.36773 0.79
-4 7 1 o 3489.989 3555.727 180.00 1.34264 0.77
-1 12 3 o 593.157 696.351 180.00 1.28436 0.12
1 8 7 o 3.813 6.563 0.00 1.35404 0.00
-1 10 5 o 589.557 630.134 0.00 1.36534 0.13
4 0 6 o 703.025 788.620 180.00 1.31182 0.15
-2 6 8 o 3765.696 3783.064 0.00 1.29637 0.78
0 3 11 o 188.214 154.405 0.00 1.16695 0.03
-4 3 5 o 233.366 295.596 180.00 1.35017 0.05
-1 6 9 o 3.110 2.883 180.00 1.26518 0.00
2 8 6 o 2610.019 2614.513 0.00 1.35910 0.59
-1 2 11 o 118.090 101.277 180.00 1.16345 0.02
-1 8 7 o 793.710 925.081 0.00 1.35755 0.18
1 2 11 o 271.448 234.723 0.00 1.16290 0.05
-2 7 7 o 1487.921 1550.034 180.00 1.34124 0.33
1 10 5 o 0.118 0.122 0.00 1.36088 0.00
2 10 4 o 165.734 182.421 0.00 1.33699 0.04
2 9 5 o 3725.496 3617.202 180.00 1.35969 0.84
-2 5 9 o 3890.340 3336.937 180.00 1.23733 0.73
-2 8 6 o 2661.704 2645.349 0.00 1.36624 0.61
2 11 3 o 975.878 981.686 180.00 1.29430 0.20
1 12 3 o 409.119 492.308 0.00 1.27990 0.08
4 2 6 o 100.420 101.421 0.00 1.29389 0.02
2 5 9 o 1678.021 1243.005 180.00 1.23401 0.31
4 7 1 o 837.845 1027.845 180.00 1.33086 0.18
-1 5 10 o 52.792 45.131 180.00 1.20014 0.01
1 9 6 o 314.805 319.783 180.00 1.36948 0.07
1 5 10 o 150.084 133.344 0.00 1.19862 0.03
-2 12 2 o 246.077 333.656 0.00 1.24516 0.05
2 12 0 o 841.808 969.297 180.00 1.25961 0.08
3 10 1 o 52.186 56.643 0.00 1.30111 0.01
-1 9 6 o 233.608 426.274 180.00 1.37357 0.05
-4 2 6 o 321.786 319.713 0.00 1.29696 0.07
0 12 4 o 37.026 32.792 180.00 1.26430 0.01
-3 2 9 o 793.768 654.037 180.00 1.20162 0.14
-4 8 0 o 2397.922 2766.445 0.00 1.28699 0.24
3 2 9 o 73.758 63.542 180.00 1.19979 0.01
2 4 10 o 547.750 436.265 0.00 1.16792 0.09
0 8 8 o 286.851 347.631 0.00 1.28285 0.06
-3 9 4 o 263.315 263.090 180.00 1.29397 0.05
0 7 9 o 542.666 537.706 0.00 1.23976 0.10
2 12 2 o 1992.987 1674.572 0.00 1.23707 0.38
-3 10 3 o 129.297 119.102 180.00 1.26342 0.03
0 11 5 o 264.415 269.029 0.00 1.29900 0.05
3 6 7 o 122.723 139.801 180.00 1.26005 0.02
0 0 12 o 4.087 6.312 0.00 1.09482 0.00
4 1 7 o 49.577 29.483 180.00 1.23015 0.01
-2 4 10 o 2700.837 2178.608 0.00 1.17017 0.46
0 6 10 o 333.796 359.431 180.00 1.18462 0.06
-4 7 3 o 468.412 526.938 0.00 1.28984 0.10
4 5 5 o 1601.730 1779.833 0.00 1.27680 0.32
3 7 6 o 254.182 292.238 0.00 1.28761 0.05
-2 1 11 o 267.155 462.511 0.00 1.11978 0.04
4 8 0 o 1038.358 1000.524 0.00 1.27513 0.10
-4 8 2 o 2779.526 2598.592 180.00 1.26298 0.55
2 1 11 o 994.682 1730.783 0.00 1.11928 0.16
3 8 5 o 122.343 120.399 180.00 1.29590 0.03
-3 8 5 o 203.164 212.730 180.00 1.30520 0.04
-2 13 1 o 481.165 429.899 180.00 1.17870 0.08
-4 1 7 o 567.338 367.293 180.00 1.23146 0.11
-1 4 11 o 222.639 376.625 0.00 1.13024 0.04
0 9 7 o 53.664 57.718 0.00 1.30895 0.01
1 4 11 o 233.982 394.959 180.00 1.12922 0.04
0 14 0 o 1985.238 1705.256 180.00 1.17416 0.17
-3 6 7 o 867.811 731.708 180.00 1.26644 0.17
4 6 4 o 172.747 198.607 180.00 1.28811 0.04
-4 6 4 o 247.141 235.419 180.00 1.29725 0.05
0 10 6 o 105.775 127.158 180.00 1.31460 0.02
-3 7 6 o 117.621 116.268 0.00 1.29559 0.02
-4 5 5 o 341.681 408.593 0.00 1.28420 0.07
3 9 4 o 1.592 1.917 0.00 1.28378 0.00
0 5 11 o 79.939 134.540 0.00 1.12257 0.01
4 4 6 o 4.496 6.787 0.00 1.24695 0.00
4 7 3 o 761.303 973.678 0.00 1.27938 0.15
5 0 1 o 2695.752 3037.716 0.00 1.30424 0.56
3 10 3 o 478.202 580.070 180.00 1.25289 0.09
-4 4 6 o 507.726 600.350 180.00 1.25246 0.10
5 2 1 o 1028.707 1213.986 0.00 1.28625 0.21
0 14 2 o 338.700 319.800 0.00 1.15584 0.06
-5 1 2 o 600.746 747.748 0.00 1.28240 0.12
-1 14 1 o 92.539 90.383 180.00 1.15320 0.02
-5 2 1 o 558.927 648.485 0.00 1.29001 0.11
-3 1 10 o 369.277 614.251 0.00 1.12361 0.06
5 1 2 o 309.667 404.514 0.00 1.28054 0.06
4 8 2 o 944.497 1081.847 180.00 1.25177 0.18
3 1 10 o 70.302 118.040 0.00 1.12286 0.01
1 14 1 o 671.776 671.554 0.00 1.14943 0.11
4 3 7 o 26.466 21.425 0.00 1.20226 0.00
2 13 1 o 2399.353 1935.630 180.00 1.17127 0.41
-2 3 11 o 834.389 1268.204 180.00 1.10002 0.13
3 11 2 o 696.566 434.733 0.00 1.20707 0.13
-4 3 7 o 1165.547 778.637 0.00 1.20595 0.21
2 3 11 o 391.196 589.671 180.00 1.09862 0.06
5 0 3 o 16.902 26.989 0.00 1.25568 0.00
4 0 8 o 0.034 0.029 180.00 1.15988 0.00
5 3 2 o 1061.953 1369.947 0.00 1.24883 0.20
5 2 3 o 354.957 352.934 0.00 1.23960 0.07
-2 12 4 o 7.751 7.585 180.00 1.18303 0.00
2 7 9 o 47.387 42.565 0.00 1.15762 0.01
-5 3 2 o 381.880 519.513 0.00 1.25401 0.07
3 3 10 o 45.932 71.047 180.00 1.10176 0.01
-2 13 3 o 107.284 126.432 180.00 1.14249 0.02
2 8 8 o 363.316 438.456 180.00 1.19217 0.06
5 4 1 o 50.767 51.520 180.00 1.23977 0.01
-5 4 1 o 3.149 6.216 0.00 1.24654 0.00
-4 2 8 o 1089.333 1071.364 180.00 1.14957 0.18
-1 12 5 o 11.236 10.499 180.00 1.19616 0.00
-2 14 0 o 375.738 702.834 0.00 1.10869 0.03
-5 2 3 o 443.106 629.577 0.00 1.24297 0.08
-1 8 9 o 2389.561 1958.680 0.00 1.17201 0.41
4 2 8 o 0.117 0.122 0.00 1.14743 0.00
1 8 9 o 15.025 11.456 180.00 1.16975 0.00
-1 7 10 o 135.287 243.872 180.00 1.13029 0.02
-3 3 10 o 27.839 44.549 180.00 1.10389 0.00
1 9 8 o 3.038 2.598 0.00 1.19916 0.00
1 7 10 o 0.004 0.007 0.00 1.12851 0.00
-2 6 10 o 3.052 5.894 180.00 1.11552 0.00
2 12 4 o 542.535 474.274 0.00 1.17609 0.09
-2 8 8 o 284.305 258.451 0.00 1.19698 0.05
2 6 10 o 0.351 0.729 180.00 1.11260 0.00
2 11 5 o 1636.120 1249.972 180.00 1.20417 0.29
1 12 5 o 119.958 139.752 180.00 1.19255 0.02
1 13 4 o 87.107 72.657 0.00 1.15958 0.01
-1 9 8 o 341.940 280.322 0.00 1.20190 0.06
-4 9 3 o 548.489 474.554 180.00 1.18008 0.09
4 6 6 o 592.578 509.435 0.00 1.17969 0.10
-4 8 4 o 110.141 96.269 180.00 1.19828 0.02
-1 14 3 o 53.954 94.432 180.00 1.11922 0.01
0 15 1 o 283.490 459.699 180.00 1.09209 0.04
4 5 7 o 298.752 293.124 0.00 1.15281 0.05
3 12 1 o 288.300 280.648 180.00 1.15118 0.05
4 7 5 o 50.420 62.117 0.00 1.19213 0.01
-3 12 3 o 1941.258 3162.647 0.00 1.12633 0.31
-4 10 2 o 372.811 374.500 0.00 1.14804 0.06
-3 11 4 o 3207.488 2666.951 180.00 1.15918 0.53
2 13 3 o 143.234 209.259 180.00 1.13572 0.02
-3 10 5 o 740.698 635.029 0.00 1.17919 0.13
4 8 4 o 18.378 31.855 0.00 1.18869 0.00
5 4 3 o 3062.025 2705.707 0.00 1.19783 0.54
5 3 4 o 17.645 24.074 0.00 1.18617 0.00
3 7 8 o 914.088 1084.682 180.00 1.14304 0.15
3 6 9 o 871.419 1575.889 0.00 1.10754 0.13
5 5 2 o 812.116 864.773 180.00 1.19337 0.14
-5 5 2 o 96.535 80.118 180.00 1.20093 0.02
-4 7 5 o 275.607 229.250 0.00 1.20058 0.05
5 0 5 o 9.945 8.395 180.00 1.17289 0.00
-2 14 2 o 12.871 20.008 0.00 1.09323 0.00
-5 6 1 o 108.090 97.977 0.00 1.18195 0.02
1 14 3 o 61.670 118.144 180.00 1.11578 0.01
-5 4 3 o 1436.412 1141.124 0.00 1.20394 0.26
4 4 8 o 22.307 47.482 180.00 1.11431 0.00
2 14 0 o 2026.274 3133.044 0.00 1.10202 0.15
-4 5 7 o 43.280 36.899 0.00 1.15825 0.01
-4 6 6 o 120.499 179.139 180.00 1.18670 0.02
4 10 0 o 2526.808 2438.637 180.00 1.15497 0.21
-5 3 4 o 48.453 80.117 0.00 1.19061 0.01
0 9 9 o 498.739 581.634 0.00 1.14031 0.08
0 8 10 o 35.534 62.495 0.00 1.10688 0.01
4 9 3 o 33.670 24.736 180.00 1.16979 0.01
-4 4 8 o 8.469 14.580 180.00 1.11823 0.00
5 2 5 o 147.799 116.548 0.00 1.15975 0.02
0 13 5 o 0.001 0.001 180.00 1.13941 0.00
0 14 4 o 334.550 556.197 180.00 1.10563 0.05
-3 7 8 o 2191.676 2131.909 180.00 1.14861 0.36
3 9 6 o 1709.510 1493.440 180.00 1.17636 0.29
-3 9 6 o 2504.520 2477.937 180.00 1.18418 0.43
-3 8 7 o 1851.911 1577.971 0.00 1.17359 0.32
5 6 1 o 654.091 557.303 0.00 1.17332 0.11
-3 6 9 o 347.737 760.078 0.00 1.11188 0.05
3 10 5 o 1314.947 998.996 0.00 1.17061 0.22
3 11 4 o 2579.730 2449.804 180.00 1.15022 0.42
4 10 2 o 150.412 186.739 0.00 1.13752 0.02
-4 11 1 o 111.215 183.208 180.00 1.10542 0.02
5 1 6 o 42.249 77.151 180.00 1.12138 0.01
3 12 3 o 1267.711 2172.177 0.00 1.11738 0.20
-5 1 6 o 114.861 196.408 180.00 1.12263 0.02
5 5 4 o 2290.048 2678.625 0.00 1.13835 0.37
5 6 3 o 1007.442 1214.996 180.00 1.13759 0.16
-5 6 3 o 554.205 645.713 180.00 1.14545 0.09
5 4 5 o 3.943 6.121 0.00 1.12533 0.00
0 11 7 o 7.276 5.037 180.00 1.16907 0.00
-5 7 2 o 317.293 636.758 0.00 1.13197 0.05
-5 5 4 o 1883.422 2340.511 0.00 1.14490 0.31
5 3 6 o 79.931 117.228 0.00 1.09990 0.01
-5 8 1 o 156.660 260.751 180.00 1.10589 0.02
5 7 2 o 541.651 895.093 0.00 1.12313 0.09
-5 4 5 o 49.858 102.013 180.00 1.13039 0.01
4 11 1 o 502.880 767.496 180.00 1.09509 0.08
-4 10 4 o 327.971 466.683 180.00 1.09880 0.05
4 7 7 o 332.210 737.846 0.00 1.08935 0.05
-5 3 6 o 726.894 1127.871 0.00 1.10343 0.11
-4 9 5 o 21.274 46.129 180.00 1.11057 0.00
4 8 6 o 4.335 6.751 0.00 1.10191 0.00
-2 12 6 o 466.013 662.822 0.00 1.09739 0.07
5 8 1 o 38.114 56.485 180.00 1.09647 0.01
4 9 5 o 45.806 71.575 0.00 1.10198 0.01
-4 8 6 o 11.216 23.470 0.00 1.10953 0.00
4 10 4 o 12.536 29.806 180.00 1.08956 0.00
-4 7 7 o 1.711 2.646 180.00 1.09578 0.00
2 10 8 o 516.787 726.094 0.00 1.09270 0.08
-2 10 8 o 349.730 488.548 0.00 1.09733 0.05
-2 11 7 o 573.441 861.174 180.00 1.10369 0.09
2 12 6 o 6.086 9.671 180.00 1.09184 0.00
2 11 7 o 939.262 1270.570 180.00 1.09851 0.14
-1 12 7 o 425.586 582.706 0.00 1.09241 0.06
6 0 0 o 1965.288 2735.370 0.00 1.09226 0.15
-1 11 8 o 93.253 181.119 180.00 1.09114 0.01
1 12 7 o 40.463 113.659 180.00 1.08967 0.01
