#------------------------------------------------------------------------------
#$Date: 2017-09-04 10:53:04 +0300 (Mon, 04 Sep 2017) $
#$Revision: 200150 $
#$URL: file:///home/coder/svn-repositories/cod/cif/4/00/28/4002840.cif $
#------------------------------------------------------------------------------
#
# This file is available in the Crystallography Open Database (COD),
# http://www.crystallography.net/
#
# All data on this site have been placed in the public domain by the
# contributors.
#
data_4002840
loop_
_publ_author_name
'Nuss, J\"urgen'
'Wedig, Ulrich'
'Xie, Wenjie'
'Yordanov, Petar'
'Bruin, Jan'
'H\"ubner, Ralph'
'Weidenkaff, Anke'
'Takagi, Hidenori'
_publ_section_title
;
 Phosphide--Tetrahedrite Ag6Ge10P12: Thermoelectric Performance of a
 Long-Forgotten Silver-Cluster Compound
;
_journal_issue                   16
_journal_name_full               'Chemistry of Materials'
_journal_page_first              6956
_journal_paper_doi               10.1021/acs.chemmater.7b02474
_journal_volume                  29
_journal_year                    2017
_chemical_absolute_configuration ad
_chemical_formula_moiety         'Ag6 Ge10 P12'
_chemical_formula_sum            'Ag6 Ge10 P12'
_chemical_formula_weight         1744.76
_space_group_crystal_system      cubic
_space_group_IT_number           217
_space_group_name_Hall           'I -4 2 3'
_space_group_name_H-M_alt        'I -4 3 m'
_symmetry_cell_setting           cubic
_symmetry_Int_Tables_number      217
_symmetry_space_group_name_Hall  'I -4 2 3'
_symmetry_space_group_name_H-M   'I -4 3 m'
_atom_sites_solution_primary     direct
_atom_sites_solution_secondary   difmap
_audit_creation_method           SHELXL-2014
_cell_angle_alpha                90
_cell_angle_beta                 90
_cell_angle_gamma                90
_cell_formula_units_Z            2
_cell_length_a                   10.3004(15)
_cell_length_b                   10.3004(15)
_cell_length_c                   10.3004(15)
_cell_measurement_reflns_used    3644
_cell_measurement_temperature    100.0(2)
_cell_measurement_theta_max      34.83
_cell_measurement_theta_min      2.79
_cell_volume                     1092.9(3)
_computing_cell_refinement       'SAINT32 (Bruker AXS)'
_computing_data_collection       'Bruker Suite (Bruker AXS)'
_computing_data_reduction        'SAINT32 (Bruker AXS)'
_computing_structure_refinement  'SHELXL-2014 (Sheldrick, 2014)'
_computing_structure_solution    'SHELXL-2014 (Sheldrick, 2014)'
_diffrn_ambient_temperature      100.0(2)
_diffrn_measured_fraction_theta_full 1.000
_diffrn_measured_fraction_theta_max 0.989
_diffrn_measurement_device_type  'SMART APEX, Bruker AXS'
_diffrn_measurement_method       \wscan
_diffrn_radiation_monochromator  graphite
_diffrn_radiation_probe          x-ray
_diffrn_radiation_type           MoK\a
_diffrn_radiation_wavelength     0.71073
_diffrn_reflns_av_R_equivalents  0.0414
_diffrn_reflns_av_unetI/netI     0.0167
_diffrn_reflns_Laue_measured_fraction_full 1.000
_diffrn_reflns_Laue_measured_fraction_max 0.989
_diffrn_reflns_limit_h_max       16
_diffrn_reflns_limit_h_min       -16
_diffrn_reflns_limit_k_max       16
_diffrn_reflns_limit_k_min       -16
_diffrn_reflns_limit_l_max       16
_diffrn_reflns_limit_l_min       -16
_diffrn_reflns_number            8545
_diffrn_reflns_point_group_measured_fraction_full 0.995
_diffrn_reflns_point_group_measured_fraction_max 0.986
_diffrn_reflns_theta_full        25.242
_diffrn_reflns_theta_max         35.261
_diffrn_reflns_theta_min         2.797
_diffrn_source                   'fine-focus sealed tube'
_exptl_absorpt_coefficient_mu    19.633
_exptl_absorpt_correction_T_max  0.273
_exptl_absorpt_correction_T_min  0.173
_exptl_absorpt_correction_type   multi-scan
_exptl_absorpt_process_details
;
semi empirical absorption correction with SADABS,
G.M. Sheldrick, SADABS, Version 2012/1, University of G\"ottingen. Germany. 
;
_exptl_crystal_colour            'silver grey'
_exptl_crystal_density_diffrn    5.302
_exptl_crystal_description       block
_exptl_crystal_F_000             1564
_exptl_crystal_size_max          0.120
_exptl_crystal_size_mid          0.060
_exptl_crystal_size_min          0.030
_refine_diff_density_max         1.551
_refine_diff_density_min         -0.907
_refine_diff_density_rms         0.210
_refine_ls_abs_structure_details
;
 Flack x determined using 200 quotients [(I+)-(I-)]/[(I+)+(I-)]
 (Parsons and Flack (2004), Acta Cryst. A60, s61).
;
_refine_ls_abs_structure_Flack   0.013(12)
_refine_ls_extinction_method     none
_refine_ls_goodness_of_fit_ref   1.213
_refine_ls_hydrogen_treatment    undef
_refine_ls_matrix_type           full
_refine_ls_number_parameters     16
_refine_ls_number_reflns         489
_refine_ls_number_restraints     0
_refine_ls_restrained_S_all      1.213
_refine_ls_R_factor_all          0.0235
_refine_ls_R_factor_gt           0.0217
_refine_ls_shift/su_max          0.000
_refine_ls_shift/su_mean         0.000
_refine_ls_structure_factor_coef Fsqd
_refine_ls_weighting_details
'w=1/[\s^2^(Fo^2^)+(0.0166P)^2^+8.7517P] where P=(Fo^2^+2Fc^2^)/3'
_refine_ls_weighting_scheme      calc
_refine_ls_wR_factor_gt          0.0463
_refine_ls_wR_factor_ref         0.0493
_reflns_Friedel_coverage         0.765
_reflns_Friedel_fraction_full    0.989
_reflns_Friedel_fraction_max     0.981
_reflns_number_gt                467
_reflns_number_total             489
_reflns_threshold_expression     'I > 2\s(I)'
_cod_data_source_file            cm7b02474_si_004.cif
_cod_data_source_block           Ag6ge10P12_100K
_cod_original_cell_volume        1092.9(5)
_cod_database_code               4002840
_shelx_space_group_comment
;
The symmetry employed for this shelxl refinement is uniquely defined
by the following loop, which should always be used as a source of
symmetry information in preference to the above space-group names.
They are only intended as comments.
;
_shelx_estimated_absorpt_t_min   0.202
_shelx_estimated_absorpt_t_max   0.590
_shelxl_version_number           2013-4
_shelx_res_file
;
TITL nus273_0m in I-43m
CELL 0.71073  10.30040  10.30040  10.30040  90.0000  90.0000  90.0000
ZERR    2.00   0.00150   0.00150   0.00150   0.0000   0.0000   0.0000
LATT -2
SYMM -X, -Y, Z
SYMM -X, Y, -Z
SYMM X, -Y, -Z
SYMM Z, X, Y
SYMM Z, -X, -Y
SYMM -Z, -X, Y
SYMM -Z, X, -Y
SYMM Y, Z, X
SYMM -Y, Z, -X
SYMM Y, -Z, -X
SYMM -Y, -Z, X
SYMM Y, X, Z
SYMM -Y, -X, Z
SYMM Y, -X, -Z
SYMM -Y, X, -Z
SYMM X, Z, Y
SYMM -X, Z, -Y
SYMM -X, -Z, Y
SYMM X, -Z, -Y
SYMM Z, Y, X
SYMM Z, -Y, -X
SYMM -Z, Y, -X
SYMM -Z, -Y, X
SFAC P GE AG
UNIT 24 20 12
TEMP -173.000
SIZE 0.03 0.06 0.12

ACTA
L.S. 4
BOND
FMAP 2
PLAN 20
WGHT    0.016600    8.751700
FVAR       0.11096
AG    3    0.195056    0.000000    0.000000    10.25000    0.00880    0.01517 =
         0.01517   -0.00638    0.00000    0.00000
GE1   2    0.288950    0.288950    0.288950    10.16667    0.00800    0.00800 =
         0.00800    0.00010    0.00010    0.00010
GE2   2    0.250000    0.500000    0.000000    10.25000    0.00731    0.00662 =
         0.00662    0.00000    0.00000    0.00000
P     1    0.128582    0.128582    0.359606    10.50000    0.00627    0.00627 =
         0.00774   -0.00047   -0.00047    0.00027
HKLF 4

REM  nus273_0m in I-43m
REM R1 =  0.0217 for     467 Fo > 4sig(Fo)  and  0.0235 for all     489 data
REM     16 parameters refined using      0 restraints

END

WGHT      0.0175      9.1096

REM Highest difference peak  1.551,  deepest hole -0.907,  1-sigma level  0.210
Q1    1   0.2002  0.2002  0.2002  10.16667  0.05    1.55
Q2    1   0.2170  0.2868  0.2478  11.00000  0.05    1.22
Q3    1   0.2731  0.2731  0.2117  10.50000  0.05    0.96
Q4    1   0.2018  0.4922  0.0564  11.00000  0.05    0.84
Q5    1   0.2827 -0.0009  0.0463  11.00000  0.05    0.72
Q6    1   0.2038  0.6020  0.0039  11.00000  0.05    0.70
Q7    1   0.0000  0.0000  0.5000  10.12500  0.05    0.69
Q8    1   0.0528  0.0528  0.0528  10.16667  0.05    0.68
Q9    1   0.0697  0.0697  0.5009  10.50000  0.05    0.65
Q10   1   0.3575  0.3575  0.3575  10.16667  0.05    0.63
Q11   1   0.1529  0.2891  0.2891  10.50000  0.05    0.62
Q12   1   0.0602 -0.0602  0.0602  10.16667  0.05    0.56
Q13   1   0.1241  0.3714  0.3714  10.50000  0.05    0.55
Q14   1   0.1364 -0.1364  0.0552  10.50000  0.05    0.54
Q15   1   0.0976  0.0975  0.3636  10.50000  0.05    0.54
Q16   1   0.0494  0.0494  0.5040  10.50000  0.05    0.52
Q17   1   0.1182  0.1182  0.5016  10.50000  0.05    0.49
Q18   1   0.0874  0.0874  0.0149  10.50000  0.05    0.49
Q19   1   0.3156  0.1369  0.2919  11.00000  0.05    0.49
Q20   1   0.2996  0.1346  0.3565  11.00000  0.05    0.49
;
_shelx_res_checksum              77280
_shelx_hkl_file
;
  -1  -1   0 268.401 10.8284   1
  -1   0  -1 269.332 8.67073   1
  -1   0   1 269.765 8.58493   3
   0  -1  -1 263.775 8.96143   1
   0  -1  -1 257.802 7.82762   2
   0  -1   1 257.200 8.87146   3
   0   1  -1 278.321 8.68366   2
   0   1   1 263.273 9.17713   3
   1  -1   0 273.194 8.92558   1
   1  -1   0 260.722 8.33824   2
   1  -1   0 252.853 9.00011   3
   1   0  -1 253.740 8.40788   1
   1   0  -1 252.936 8.85599   2
   1   0   1 263.155 8.71786   2
   1   0   1 286.501 8.79465   3
  -2   0   0 101.113 5.47091   1
   0  -2   0 99.2127 5.39226   1
   0  -2   0 90.2275 5.81920   3
   0   0  -2 99.7957 5.16406   2
   0   0   2 104.550 5.70252   3
   2   0   0 95.8711 6.06110   2
  -2  -1  -1 111.091 6.73963   1
  -2  -1   1 99.6387 5.81771   1
  -2  -1   1 93.0292 4.30117   3
  -2   1   1 116.722 5.06043   3
  -1  -2  -1 112.164 6.90879   1
  -1  -2   1 98.2199 6.53626   1
  -1  -1  -2 114.377 6.30378   1
  -1  -1   2 93.2090 5.46733   3
  -1   1   2 107.227 5.82261   3
  -1   2   1 112.291 6.41968   3
   1  -2  -1 99.3238 5.55191   1
   1  -2   1 109.744 5.10151   1
   1  -2   1 114.642 4.72625   2
   1  -2   1 107.628 5.56574   3
   1  -1  -2 92.1995 4.86271   1
   1  -1  -2 94.4256 5.04062   2
   1  -1   2 111.530 5.27903   2
   1  -1   2 117.648 5.98798   3
   1   1  -2 111.415 5.80558   2
   1   1   2 97.6148 4.88905   2
   1   1   2 101.498 5.82999   3
   1   2  -1 105.407 5.22717   2
   1   2   1 88.7212 4.40143   2
   1   2   1 97.3717 5.93192   3
   2  -1  -1 97.0163 5.37204   1
   2  -1  -1 105.596 6.63191   2
   2  -1   1 112.922 5.18290   1
   2  -1   1 108.065 5.51213   2
   2  -1   1 109.866 4.82828   3
   2   1  -1 109.354 6.44937   2
   2   1   1 93.7197 5.68130   2
   2   1   1 100.415 4.79619   3
  -2  -2   0 0.70266 3.60789   1
  -2   0  -2 2.69893 2.37301   1
  -2   0   2 -0.5879 1.97601   3
   0  -2  -2 -1.4530 2.12937   1
   0  -2   2 -2.7468 2.00065   3
   0   2  -2 -2.8200 1.83518   2
   0   2   2 0.04339 2.46539   3
   2  -2   0 1.11360 2.25619   1
   2  -2   0 1.53501 2.06480   2
   2   0  -2 -0.7714 2.31175   2
   2   0   2 -1.1060 2.08266   2
   2   0   2 1.39881 2.26524   3
   2   2   0 -1.1222 2.59378   2
   2   2   0 -1.5222 2.22581   3
  -2  -2  -2 9419.56 254.364   1
  -2  -2   2 9999.99 251.541   1
  -2  -2   2 9281.21 243.203   3
  -2   2   2 9314.58 244.202   3
   2  -2  -2 9367.73 249.268   1
   2  -2  -2 8840.50 241.750   2
   2  -2   2 9773.30 247.762   1
   2  -2   2 8786.13 240.980   2
   2  -2   2 9005.47 243.610   3
   2   2  -2 9505.82 242.393   2
   2   2   2 9334.22 241.107   2
   2   2   2 9452.95 244.315   3
  -3   0  -1 4.29603 1.91285   1
  -3   0   1 4.90680 1.90230   1
  -1  -3   0 7.13064 2.52335   1
   0  -1  -3 1.93598 1.19460   1
   0  -1  -3 5.42618 1.74680   2
   0  -1   3 4.82822 2.31226   3
   0   1  -3 4.60040 1.78353   2
   0   1   3 3.91531 1.91727   3
   1  -3   0 7.83260 2.16854   1
   1   3   0 3.11513 2.42967   3
   3   0  -1 4.49451 2.71151   2
   3   0   1 3.33587 1.77057   2
  -3  -1   0 5.88209 2.38846   1
  -1   0   3 6.28129 2.30605   3
   0  -3  -1 4.59360 1.94089   1
   0  -3   1 5.37442 1.92032   1
   0  -3   1 3.91687 1.90664   3
   0   3  -1 5.92846 1.45694   2
   0   3   1 3.90533 2.26963   3
   1   0  -3 5.83001 1.90711   2
   1   0   3 7.13894 2.32506   3
   3  -1   0 4.33313 1.63062   1
   3  -1   0 8.05665 2.64024   2
   3   1   0 4.39055 2.53803   2
  -3  -1  -2 174.344 9.61353   1
   2   1   3 155.948 8.62634   3
   3  -2  -1 153.183 8.32645   1
   3  -2  -1 163.982 8.93815   2
  -3   1   2 184.146 7.65906   3
  -2  -3  -1 161.442 10.9045   1
  -2  -1   3 141.443 7.96284   3
   1   3   2 156.012 9.22302   3
  -2   3   1 188.243 9.93130   3
  -1  -2  -3 170.122 8.46735   1
  -1  -3   2 138.951 7.90460   3
  -1   3  -2 154.007 7.60437   2
  -1   2   3 169.869 9.08370   3
   2   1   3 149.210 7.74169   2
   3  -1   2 167.826 8.40470   2
   1  -2   3 161.914 8.60492   3
   1   2  -3 180.577 8.65564   2
  -1  -3   2 148.866 8.28402   1
   2  -1  -3 144.197 7.29763   1
   2  -1  -3 149.930 8.07810   2
   2  -3   1 173.032 7.98321   1
   2  -3   1 176.214 7.09454   2
   2  -3   1 183.500 9.08365   3
   2   3  -1 180.551 8.47692   2
  -2  -1   3 150.816 7.20521   1
   3   2   1 137.052 8.75780   2
  -3  -2   1 134.788 9.04560   1
   1  -3  -2 146.144 8.27995   1
   3   2   1 147.653 7.25281   3
   3  -1   2 179.522 7.57261   3
   3   1  -2 178.338 9.68445   2
  -3  -2   1 142.675 6.57094   3
   1  -2  -3 149.936 7.15184   2
  -3  -2  -1 175.100 11.1251   1
   3  -1  -2 140.747 7.80742   1
   2   3   1 147.289 8.78666   3
  -3   2   1 173.441 7.78370   3
  -2  -1  -3 167.342 10.2029   1
   2   3   1 134.494 7.47993   2
  -2  -3   1 134.652 10.1767   1
  -2   1   3 175.763 8.74634   3
  -1  -3  -2 177.639 9.57284   1
   1   2   3 149.465 6.95278   2
  -1  -2   3 145.188 8.35447   3
  -1   2  -3 147.042 8.22450   2
  -1   3   2 175.696 9.71688   3
   3  -1  -2 157.088 9.44137   2
   1  -3   2 178.820 7.50518   1
   1  -3   2 168.256 8.56190   3
   1   3  -2 172.315 7.91126   2
  -2  -3   1 141.686 7.83917   3
   1   2   3 143.294 8.60261   3
   2  -3  -1 148.144 8.15832   1
   2  -1   3 169.984 8.09120   2
   2  -1   3 182.525 8.82390   3
   2   1  -3 175.836 8.92016   2
   1  -2  -3 136.940 7.36783   1
  -3  -1   2 149.486 8.38228   1
  -3  -1   2 147.204 6.72643   3
  -3   1  -2 149.053 7.82812   1
   3  -2   1 174.612 8.05019   1
   3  -2   1 179.643 8.30114   2
   3  -2   1 182.273 7.88474   3
   3   2  -1 175.819 10.0870   2
   3   1   2 138.783 8.21847   2
   3   1   2 154.512 7.46755   3
  -3  -3   0 393.100 20.1040   1
  -3   0  -3 374.994 15.0168   1
  -3   0   3 368.533 14.8133   1
  -3   0   3 374.962 14.5152   3
   0  -3  -3 386.053 15.6439   1
   0   3  -3 397.246 15.0600   2
   0   3   3 385.142 16.6769   3
   3  -3   0 408.443 15.5987   1
   3  -3   0 379.092 13.9454   2
   3   0  -3 401.169 16.3153   2
   3   0   3 387.533 15.3642   2
   3   0   3 379.894 14.8114   3
   3   3   0 380.848 16.5247   2
   3   3   0 392.911 15.6543   3
  -3  -3  -2 1311.40 46.5614   1
  -3  -3   2 1336.05 44.7662   1
  -3  -3   2 1263.53 38.1462   3
  -3  -2  -3 1269.82 45.2864   1
  -3  -2   3 1323.36 40.6470   1
  -3  -2   3 1276.80 38.3601   3
  -3   2   3 1276.77 39.4372   3
  -3   3   2 1216.31 39.5127   3
  -2  -3  -3 1316.45 43.8283   1
  -2  -3   3 1304.26 42.1581   1
  -2  -3   3 1289.43 39.4503   3
  -2   3   3 1240.94 40.4633   3
   2  -3  -3 1288.08 40.0901   1
   2  -3  -3 1338.88 38.3482   2
   2  -3   3 1263.02 37.4883   1
   2  -3   3 1295.68 38.2814   2
   2  -3   3 1242.63 39.6259   3
   2   3  -3 1275.25 39.6402   2
   2   3   3 1259.01 37.2334   2
   2   3   3 1265.52 40.7659   3
   3  -3  -2 1306.38 40.5429   1
   3  -3  -2 1321.12 40.1380   2
   3  -3   2 1288.99 39.0781   1
   3  -3   2 1277.18 38.0708   2
   3  -3   2 1238.78 38.9628   3
   3  -2  -3 1282.27 39.8508   1
   3  -2  -3 1396.13 40.8557   2
   3  -2   3 1295.70 38.0508   1
   3  -2   3 1265.07 38.9823   2
   3  -2   3 1267.34 39.0419   3
   3   2  -3 1293.88 40.6852   2
   3   2   3 1314.29 39.2245   2
   3   2   3 1343.82 39.9399   3
   3   3  -2 1257.27 40.2909   2
   3   3   2 1265.78 39.1027   2
   3   3   2 1327.83 40.1283   3
  -4   0   0 3108.60 88.1888   1
   0  -4   0 3148.71 87.9037   1
   0   0  -4 2949.32 84.5474   2
   0   0   4 3117.38 86.8555   3
   0   4   0 3166.23 90.5588   3
   4   0   0 3045.71 87.8156   2
   4  -1  -1 374.380 14.9202   1
   4  -1  -1 393.234 17.5722   2
   4  -1   1 362.107 15.6307   2
   4   1  -1 350.937 17.5012   2
   4   1   1 382.270 16.7859   2
   1   1   4 374.510 15.9676   3
   1   4  -1 332.350 12.7329   2
   1   4   1 363.976 17.1997   3
   1  -1  -4 381.022 14.7024   2
   1  -1   4 370.568 15.9789   3
   1   1  -4 355.573 15.1902   2
   1  -4   1 357.521 14.6700   1
   1  -4   1 336.311 15.7404   3
   1  -4  -1 410.594 16.0178   1
  -4  -1  -1 340.093 16.0129   1
  -4  -1   1 375.956 16.0801   1
  -4   1  -1 397.937 15.7155   1
  -1  -4  -1 354.633 16.5697   1
  -1  -4   1 402.684 16.2960   1
  -1  -1  -4 350.963 14.6295   2
  -1  -1   4 389.753 16.0034   3
  -1   1  -4 383.720 15.3961   2
  -1   1   4 352.894 15.9894   3
  -1   4   1 335.802 17.3515   3
   4   0   2 81.4840 6.63059   2
   2   4   0 75.3728 6.99850   3
   4   0  -2 83.7546 7.70025   2
   0   2   4 77.3352 6.70730   3
   2  -4   0 74.7868 5.86896   1
   2   4   0 73.1560 5.52612   2
   0  -2  -4 78.7841 5.21316   2
   0  -2   4 80.9278 6.65015   3
   0   2  -4 74.3859 6.05706   2
  -4   0  -2 74.2875 6.12692   1
  -4   0   2 70.0519 5.88102   1
  -2  -4   0 67.9330 7.42617   1
  -2   4   0 77.5924 8.09445   3
   0  -2  -4 79.1439 5.32583   1
   2   0  -4 81.0416 6.32445   2
   2   0   4 75.9213 5.56541   2
   2   0   4 78.0277 6.35092   3
   4  -2   0 74.2151 5.79411   1
   4  -2   0 86.3312 6.43134   2
   4   2   0 78.9470 7.49580   2
   0  -4   2 75.6309 6.14109   3
   0   4  -2 73.0176 4.86193   2
   0   4   2 72.2714 7.02930   3
   2   0  -4 77.6756 4.46678   1
  -4   2   0 80.0699 5.59306   3
  -2   0   4 75.0093 6.19789   3
   0  -4  -2 75.3961 6.38019   1
   0  -4   2 77.2340 5.54568   1
  -4  -2   0 73.9472 7.02840   1
   2   4  -2 508.710 18.7838   2
   4  -2  -2 504.106 19.6935   1
   4  -2  -2 518.226 21.9075   2
   2  -4   2 522.079 18.6050   1
  -4   2   2 520.382 17.9324   3
  -2  -4  -2 520.765 23.4246   1
  -2  -4   2 501.451 21.6747   1
  -2  -4   2 492.216 19.1355   3
  -2  -2  -4 520.982 20.8906   1
  -2  -2   4 505.114 19.6843   3
  -2   2   4 514.055 20.3981   3
  -2   4   2 502.955 21.1416   3
   2  -4  -2 501.543 19.8336   1
   4   2   2 511.029 20.6240   2
   4   2   2 544.070 18.1185   3
  -4  -2  -2 510.467 22.8816   1
  -4  -2   2 503.887 20.9749   1
  -4  -2   2 516.038 16.8188   3
   4  -2   2 498.223 19.1981   2
   2   4   2 495.069 21.2398   3
   2  -2   4 516.498 20.0114   3
   2   2  -4 505.842 20.1030   2
   2   2   4 504.875 18.1549   2
   2   2   4 512.500 20.5098   3
   2  -4   2 538.840 17.4301   2
   2  -4   2 477.241 19.4953   3
   2  -2  -4 502.782 18.3128   1
   2  -2  -4 516.517 18.8611   2
   4  -2   2 521.172 18.6597   1
   4   2  -2 541.122 22.1484   2
   4  -2   2 506.784 17.9583   3
  -1  -4   3 668.456 22.9301   1
   4   3   1 639.792 21.8587   3
   4  -1   3 594.999 22.6361   2
   4  -1   3 598.931 21.2052   3
   4   1  -3 606.144 24.4022   2
   4  -3  -1 655.682 23.0381   2
   1  -4  -3 635.834 23.4718   1
   3  -1  -4 636.963 23.4207   2
   3  -4   1 609.781 22.3604   1
   3  -4   1 643.916 20.7718   2
   3  -4   1 632.489 24.4446   3
   3   4  -1 612.367 23.2942   2
  -4  -3   1 594.794 26.2484   1
  -4  -3   1 621.758 20.9560   3
   4   3   1 620.376 24.5481   2
  -4  -1  -3 625.534 24.6119   1
   3   1   4 641.563 22.6003   2
   3   1   4 667.362 23.5607   3
  -3   4   1 624.096 24.9021   3
  -1  -3  -4 630.726 23.2020   1
  -1  -3  -4 601.880 21.1610   2
  -3  -1   4 633.711 21.7397   1
  -3  -1   4 654.814 22.8923   3
  -1   3   4 592.164 23.8695   3
  -4   1   3 618.475 21.3837   3
  -1  -4   3 628.666 23.2255   3
   1  -3   4 634.232 23.6425   3
   1   3  -4 621.834 22.8189   2
   4  -3  -1 645.392 23.6109   1
   3  -1  -4 641.059 21.8272   1
  -3  -4  -1 621.754 27.9827   1
  -1   4  -3 647.871 22.0589   2
   1   4   3 642.740 25.3062   3
   3  -4  -1 618.666 20.1036   2
   4  -1  -3 633.263 22.5824   1
   3   4   1 602.694 22.6147   2
   3   4   1 612.310 23.8283   3
   1   3   4 616.800 24.4971   3
  -3  -1  -4 619.822 25.9364   1
  -1  -3   4 630.923 23.4916   3
  -1   3  -4 644.136 23.0202   2
  -3   1   4 621.024 22.9346   3
  -1  -4  -3 625.427 24.5117   1
   4   1   3 673.339 22.1006   3
   4  -1  -3 653.195 25.1822   2
  -4   1  -3 645.933 22.8367   1
  -1   4   3 606.660 24.6941   3
   3  -4  -1 647.466 23.4651   1
   1  -4   3 620.457 20.8689   1
   1  -4   3 580.773 22.8448   3
   1   4  -3 602.648 21.8584   2
  -4   3   1 603.744 22.1248   3
  -4  -1   3 622.352 23.1083   1
  -4  -1   3 621.489 20.6300   3
   3  -1   4 601.023 22.2986   2
   3  -1   4 625.937 22.9316   3
   3   1  -4 617.174 23.7098   2
  -3  -4   1 646.329 27.9891   1
  -3  -4   1 630.989 22.8777   3
  -4  -3  -1 624.874 28.4668   1
   4   1   3 658.484 23.5983   2
   4  -3   1 631.735 22.7286   1
   4  -3   1 608.351 21.8624   2
   4  -3   1 601.755 22.8391   3
   4   3  -1 622.493 25.2729   2
   1  -3  -4 625.055 22.4009   1
   1  -3  -4 652.851 20.9486   2
  -4  -3  -3 498.174 24.8411   1
  -4  -3   3 467.261 21.1149   1
  -4  -3   3 442.405 17.1250   3
  -4   3   3 473.716 18.6806   3
  -3  -4  -3 427.108 22.9891   1
  -3  -4   3 479.535 22.1458   1
  -3  -4   3 447.848 18.3080   3
  -3  -3  -4 399.961 21.6316   1
  -3  -3   4 468.183 20.6331   1
  -3  -3   4 463.483 18.5020   3
  -3   3   4 479.374 19.8732   3
  -3   4   3 478.131 20.1405   3
   3  -4  -3 438.760 19.0317   1
   3  -4  -3 460.571 18.6254   2
   3  -4   3 467.870 17.3505   1
   3  -4   3 486.916 17.7938   2
   3  -4   3 458.815 18.9404   3
   3  -3  -4 457.235 18.6594   1
   3  -3  -4 491.809 19.3283   2
   3  -3   4 463.957 16.3331   1
   3  -3   4 464.827 18.0861   2
   3  -3   4 475.685 19.2105   3
   3   3  -4 474.650 20.1149   2
   3   3   4 477.397 18.0941   2
   3   3   4 469.018 20.1072   3
   3   4  -3 482.117 19.7801   2
   3   4   3 464.761 17.7251   2
   3   4   3 465.243 20.4281   3
   4  -3  -3 459.839 19.2729   1
   4  -3  -3 480.501 21.0148   2
   4  -3   3 459.603 17.5201   1
   4  -3   3 468.188 18.3398   2
   4  -3   3 458.410 18.1914   3
   4   3   3 480.714 19.7372   2
   4   3   3 497.235 19.2375   3
  -4  -4   0 6221.58 176.279   1
  -4   0  -4 6042.65 167.386   1
  -4   0   4 6113.40 167.071   1
  -4   0   4 6102.75 163.058   3
  -4   4   0 5597.96 167.467   3
   0  -4  -4 6148.16 168.070   1
   0  -4   4 6147.52 165.531   3
   0   4  -4 6139.11 162.660   2
   0   4   4 6035.73 167.274   3
   4  -4   0 6140.19 167.679   1
   4  -4   0 5844.39 160.401   2
   4   0  -4 6153.34 165.506   2
   4   0   4 5962.59 162.861   2
   4   0   4 6210.04 163.900   3
   4   4   0 6203.10 165.166   2
   4   4   0 6346.08 164.686   3
  -4  -4  -2 51.2251 9.29429   1
  -4  -4   2 50.8581 9.25330   1
  -4  -4   2 49.9714 4.85792   3
  -4  -2  -4 52.4154 8.89626   1
  -4  -2   4 50.3954 5.28098   1
  -4  -2   4 44.0180 4.51737   3
  -4   2  -4 52.4069 4.71835   1
  -4   2   4 42.3607 4.87742   3
  -4   4   2 45.2807 5.11036   3
  -2  -4  -4 40.4086 6.93537   1
  -2  -4   4 52.2162 4.97008   1
  -2  -4   4 52.5540 5.69593   3
  -2   4  -4 48.7860 5.34917   2
  -2   4   4 41.5797 6.72776   3
   2  -4  -4 42.7075 5.07746   1
   2  -4   4 42.8032 5.16174   3
   2   4  -4 42.0014 5.13389   2
   2   4   4 51.2798 3.97957   2
   2   4   4 51.4793 7.96666   3
   4  -4  -2 46.1845 5.34919   1
   4  -4  -2 51.4068 4.80049   2
   4  -4   2 38.0983 4.27559   1
   4  -4   2 48.2216 4.57399   2
   4  -4   2 42.2344 4.98730   3
   4  -2  -4 43.7003 4.94066   1
   4  -2  -4 52.4308 5.93334   2
   4  -2   4 44.6253 4.97846   2
   4  -2   4 41.9786 4.55860   3
   4   2  -4 38.2351 6.51622   2
   4   2   4 52.8910 5.79072   2
   4   2   4 51.2431 5.38571   3
   4   4  -2 42.6776 7.13611   2
   4   4   2 41.2226 6.15674   2
   4   4   2 46.0243 5.04091   3
  -4  -4  -4 470.086 24.6490   1
  -4  -4   4 419.784 21.9302   1
  -4  -4   4 393.131 17.6648   3
  -4   4   4 452.215 19.8015   3
   4  -4  -4 389.910 18.6715   1
   4  -4  -4 402.623 19.5063   2
   4  -4   4 460.049 17.2823   1
   4  -4   4 478.199 18.5796   2
   4  -4   4 452.803 19.2113   3
   4   4  -4 465.342 20.9789   2
   4   4   4 414.750 18.4466   2
   4   4   4 393.949 19.5984   3
  -5   0  -1 841.679 30.6293   1
  -5   0   1 816.132 30.3880   1
  -1  -5   0 885.402 31.8594   1
  -1   5   0 877.742 34.4086   3
   0  -1  -5 819.602 28.4971   2
   0  -1   5 862.002 30.7470   3
   0   1  -5 880.899 29.7914   2
   0   1   5 883.153 31.1126   3
   1  -5   0 881.381 30.2601   1
   1   5   0 853.477 33.1046   3
   5   0  -1 838.889 32.7462   2
   5   0   1 880.391 31.6488   2
   5  -1   0 870.367 31.7380   2
   5   1   0 885.755 32.9941   2
   0  -5   1 840.464 31.1527   3
   0   5   1 827.223 33.1561   3
   1   0  -5 870.467 29.4998   2
   1   0   5 864.982 30.9004   3
   0  -5   1 869.440 30.0185   1
  -1   0   5 888.006 30.9654   3
   0  -5  -1 866.984 30.7974   1
  -1   0  -5 830.199 29.2660   2
  -5   1   0 877.555 30.6665   1
  -5  -1   0 860.141 31.5232   1
  -1  -5   2 286.147 14.3294   3
  -5  -2   1 300.774 16.0169   1
   5   2   1 284.965 16.0854   2
  -1  -5   2 311.967 14.6982   1
   5  -2  -1 312.365 15.8661   2
   5  -2  -1 287.292 13.9168   1
   5  -1   2 286.226 14.4363   2
   2   1   5 302.865 15.0619   3
  -2   5   1 284.363 16.7568   3
   2  -5   1 294.152 13.6143   1
   1   5   2 285.937 16.1622   3
   2  -1  -5 297.727 11.7184   1
   2  -1  -5 286.319 13.7769   2
  -1   5  -2 294.332 11.7577   2
  -1  -2  -5 286.067 12.3533   1
  -5  -1  -2 287.367 15.3398   1
   2   5  -1 286.069 12.5529   2
   1  -5  -2 291.276 14.5123   1
  -2  -5  -1 303.334 17.3251   1
  -2   1  -5 297.746 14.4304   2
  -2  -1   5 294.417 14.5252   3
   1  -2   5 301.505 14.8900   3
   1   2  -5 283.022 14.2896   2
  -1  -2  -5 282.041 13.0903   2
   2  -5   1 310.722 15.9954   3
   5   1  -2 292.268 16.7336   2
  -1   2   5 286.042 14.9637   3
   1  -2  -5 278.390 11.7824   1
   2  -1   5 284.240 14.7147   3
   1  -5   2 304.130 13.4159   1
   1  -5   2 291.994 14.7038   3
   1   2   5 298.040 15.2324   3
   2  -5  -1 307.191 14.6122   1
   1   5  -2 280.733 11.9645   2
  -5   1  -2 311.207 14.6599   1
  -5  -1   2 298.721 15.0634   1
   2   5   1 297.892 15.8783   3
   5  -1  -2 289.148 16.5177   2
   2   1  -5 269.484 13.7778   2
   5  -2   1 299.818 14.3976   2
   5   1   2 281.949 15.1682   2
   1  -2  -5 293.586 13.0627   2
   5   2  -1 311.805 16.9903   2
  -2  -5   1 306.421 15.1143   3
  -2  -5   1 310.115 16.8742   1
  -2   1   5 287.677 14.6617   3
  -1  -5  -2 297.605 15.7521   1
  -1  -2   5 299.006 14.8061   3
  -1   2  -5 286.154 14.2577   2
   5  -2   1 285.440 13.5065   1
  -1   5   2 269.162 15.9929   3
  -5  -2  -1 273.166 15.8328   1
   3   5   0 80.4323 6.38928   2
   3   5   0 86.4121 7.61794   3
   5   0  -3 75.2600 8.15678   2
   3  -5   0 84.2845 6.89790   1
   5   0   3 86.7299 5.54955   3
  -5  -3   0 87.9350 9.23139   1
  -5   3   0 81.9927 6.39919   3
  -3   0   5 79.7320 5.54479   1
  -3   0   5 79.6796 7.03265   3
   0  -5  -3 78.3687 7.37555   1
   0  -5   3 85.0995 6.16025   1
   0  -5   3 82.6294 7.39107   3
   0  -3  -5 77.0952 6.09353   1
   0  -3  -5 84.1976 5.81118   2
   0  -3   5 83.4894 7.48485   3
  -5   0   3 84.5845 7.25393   1
  -3  -5   0 84.3655 9.32067   1
  -3   5   0 77.3811 8.75249   3
   0   5  -3 81.8229 6.00857   2
  -5   0  -3 84.1868 7.36825   1
   0   3   5 82.8274 7.90729   3
   5   3   0 78.9113 8.26833   2
   5   0   3 75.1569 7.20824   2
   0   5   3 83.0480 8.49171   3
   3   0  -5 85.2227 7.39816   2
   3   0   5 79.6296 6.69932   2
   3   0   5 84.7411 7.21328   3
   5  -3   0 86.1188 7.00953   1
   5  -3   0 74.3176 6.47530   2
   0   3  -5 87.1265 7.27679   2
  -2   3   5 125.742 9.77880   3
   2   3  -5 126.535 9.33570   2
   3   2   5 140.927 8.64282   2
   5   3   2 127.336 10.2150   2
  -5  -2  -3 111.096 10.4227   1
  -5  -3   2 127.071 10.4918   1
  -3   5   2 124.776 10.0517   3
   2   5   3 136.520 10.7795   3
   3  -2  -5 135.800 8.13209   1
   3  -2  -5 144.994 9.28285   2
   5   3   2 145.438 7.96764   3
   3  -5   2 119.714 8.03510   1
   3  -5   2 132.375 7.13453   2
   5  -2   3 124.193 8.80502   2
  -3  -2   5 131.643 9.00109   3
   5   2  -3 122.266 10.5849   2
  -2  -5   3 129.500 9.22859   3
  -2  -5   3 144.026 9.99759   1
   2  -3   5 117.271 8.98224   3
   2  -5  -3 142.282 9.59624   1
   5  -2   3 121.802 7.47446   3
  -5   2   3 115.087 7.27399   3
  -3  -5  -2 109.984 11.6274   1
   3   2   5 128.104 9.54126   3
   5  -3  -2 142.189 9.46146   1
   5  -3  -2 151.870 10.4003   2
  -2  -3  -5 136.157 9.37449   1
   3  -5   2 131.818 9.64588   3
   3   5  -2 127.104 8.72575   2
  -2   5  -3 144.757 8.28368   2
   5   2   3 140.789 10.1355   2
  -2  -5  -3 121.324 10.7521   1
   3  -2   5 115.513 8.19641   2
  -5  -3  -2 126.098 12.1569   1
   2   3   5 139.584 10.2716   3
   3  -5  -2 148.476 9.82539   1
   3  -2   5 135.936 9.28666   3
   3   2  -5 124.848 9.60534   2
  -2  -3   5 142.107 9.56671   3
  -2   3  -5 129.709 9.24576   2
   3   5   2 125.982 7.49984   2
   3   5   2 116.999 9.65140   3
   5  -2  -3 130.501 9.07993   1
   5  -2  -3 149.914 11.4999   2
  -3  -2  -5 95.4999 8.84897   1
  -5   2  -3 144.921 9.16481   1
  -3   2   5 131.144 9.42775   3
   5  -3   2 127.746 8.12967   3
   5   2   3 137.071 7.74659   3
   2  -3  -5 131.313 8.07358   1
   2  -3  -5 139.104 8.34630   2
  -2   5   3 121.262 10.2415   3
  -5  -2   3 141.622 9.97005   1
   2  -5   3 122.725 7.53045   1
   2  -5   3 117.207 8.92312   3
   2   5  -3 126.434 8.43960   2
  -3  -5   2 147.485 11.4875   1
  -3  -5   2 143.602 9.45040   3
  -5   3   2 120.212 7.41504   3
   5  -3   2 116.738 8.01694   1
   5  -3   2 121.893 8.50022   2
   5   3  -2 119.508 10.5063   2
  -1  -4  -5 107.893 6.79640   2
   5   1  -4 121.818 10.2562   2
   4   1   5 127.858 9.04727   3
   5  -4  -1 133.374 9.34745   1
  -4  -1   5 126.304 8.60566   3
  -5  -4   1 143.827 12.8433   1
  -1   4   5 102.964 9.52846   3
  -1  -5   4 126.371 7.59051   1
  -1  -5   4 130.528 9.53285   3
   1  -4   5 108.734 8.91677   3
   1   4  -5 109.091 8.43358   2
   1  -5  -4 131.620 9.47628   1
   4  -1  -5 130.708 9.67152   2
  -1  -4  -5 112.242 8.56135   1
   4  -5   1 107.974 8.05904   1
   4  -5   1 111.654 6.82888   2
   4  -5   1 104.699 9.36283   3
   4   5  -1 101.417 8.78240   2
   4   5  -1 113.002 9.06499   3
   5  -4  -1 125.383 8.19830   2
  -1   5  -4 122.113 8.17719   2
   4   1   5 110.159 8.46819   2
   5  -1   4 99.2437 8.26953   2
   5  -1   4 112.388 7.38423   3
  -5  -1  -4 118.261 9.71231   1
   5   4   1 132.784 10.3170   2
   5   4   1 125.499 7.86106   3
   1   5   4 107.528 9.87226   3
  -5   1   4 106.917 7.32977   3
  -4  -5  -1 105.195 11.0714   1
   4  -1  -5 122.837 7.72226   1
  -4   5   1 122.659 9.90954   3
  -4  -1   5 125.967 7.84859   1
   4  -5  -1 129.876 6.90206   2
  -1   4  -5 131.797 9.13675   2
   5   1   4 126.307 9.47489   2
   5   1   4 124.578 7.94994   3
   4   5   1 121.726 8.82861   2
   5  -4   1 112.110 8.23484   1
   4   1  -5 116.291 9.54287   2
   5  -4   1 93.9180 8.26015   3
  -5   1  -4 119.793 8.36290   1
   5  -1  -4 127.775 10.4293   2
  -5  -1   4 113.488 8.42637   1
  -5  -1   4 127.721 7.32206   3
   4   5   1 113.415 8.76253   3
  -1   5   4 115.822 10.1860   3
   1   4   5 129.538 10.3794   3
   1  -5   4 108.354 6.49690   1
   1  -5   4 101.735 8.49443   3
   1   5  -4 108.941 8.00611   2
   5   4  -1 105.100 9.62480   2
   5   4  -1 109.998 7.48967   3
   4  -5  -1 114.264 8.73697   1
   4  -1   5 103.528 8.11878   2
  -4   1   5 105.830 8.27790   3
  -1  -5  -4 104.443 8.99332   1
   1  -4  -5 128.249 8.63279   1
   1  -4  -5 123.699 6.94644   2
   4  -1   5 117.232 8.58098   3
  -4  -1  -5 113.567 10.0499   1
   5  -4   1 111.453 7.79904   2
  -1  -4   5 124.722 9.46484   3
  -4  -5   1 110.640 10.9914   1
  -5   4   1 115.856 8.40724   3
  -5  -4  -1 109.795 11.9563   1
   4   3   5 82.8156 7.83178   3
  -3  -5   4 71.3117 7.87882   1
   5   3  -4 91.7811 9.13321   2
   5  -3   4 90.6258 7.55128   2
   5  -3   4 89.0828 7.08235   3
   5   4   3 85.3800 7.03908   3
  -4  -5  -3 95.6923 11.2909   1
   5  -4  -3 87.3098 7.97665   2
   4  -5   3 90.3031 6.71027   1
   4  -5   3 85.2509 6.33122   2
   4  -5   3 91.7915 7.84364   3
   4   5  -3 84.3005 8.16491   2
  -5  -4   3 83.9849 9.61971   1
  -3   4   5 77.2374 8.32066   3
   4  -3  -5 85.3761 7.63821   2
  -4  -3   5 84.3316 7.18227   1
   3  -4   5 83.0557 7.62548   3
   3   4  -5 83.4553 8.25019   2
   4   3   5 85.4026 7.54972   2
   3  -5  -4 78.1642 7.57912   1
   5  -4  -3 79.7711 7.71469   1
  -3   5  -4 84.0135 7.24482   2
   3   5   4 82.2723 8.78786   3
  -5  -3  -4 87.7531 10.8076   1
  -3  -4  -5 109.930 10.4708   1
  -4   5   3 84.0843 8.04513   3
   5   4   3 74.1974 7.87003   2
  -5   3   4 88.4033 7.18512   3
   3   5   4 78.2370 5.80316   2
   4  -3  -5 83.1336 7.21324   1
  -4  -3   5 76.8984 6.90680   3
  -5  -4   3 70.7056 5.85353   3
  -3  -5   4 72.7361 7.20667   3
  -3  -4   5 79.2908 7.27168   1
   5  -3  -4 88.1236 7.82934   1
  -5  -3   4 75.5173 7.74398   1
   4   5   3 82.0078 6.71069   2
  -5  -3   4 79.1470 5.97058   3
  -5   4   3 81.5373 6.92431   3
  -5  -4  -3 92.5171 11.2360   1
   3  -4  -5 83.4133 6.71364   2
   5   3   4 88.3945 8.26356   2
  -4   3   5 90.1598 8.02328   3
  -3  -5  -4 94.3133 10.8183   1
   5   3   4 89.7289 7.41776   3
  -4  -3  -5 77.5599 9.31555   1
   5  -3  -4 74.8877 8.34360   2
  -3   5   4 77.1667 8.32279   3
  -4  -5   3 75.3791 6.98819   3
   3  -5   4 89.3094 6.00219   1
   3  -5   4 79.2694 7.40571   3
   3   5  -4 82.8300 7.80781   2
  -3  -4   5 70.2493 7.24546   3
  -3   4  -5 79.9646 7.72928   2
  -4  -5   3 83.9399 9.13787   1
   3  -4  -5 80.9027 7.21140   1
   4  -3   5 90.7825 7.41499   2
   4  -3   5 86.7202 7.49538   3
   4   3  -5 90.1546 8.84570   2
   3   4   5 76.3736 6.13911   2
   3   4   5 83.5643 8.45972   3
   4  -5  -3 87.4581 7.95259   1
   4  -5  -3 82.7028 6.09789   2
   5  -4   3 85.4983 6.72951   1
   5  -4   3 91.6224 7.11280   2
   5  -4   3 83.2571 7.07044   3
   5   4  -3 108.319 10.1807   2
  -5   3  -4 83.2688 6.75612   1
   4   5   3 73.3920 7.68089   3
  -5  -5   0 1739.68 63.4622   1
  -5   0  -5 1756.40 56.3339   1
  -5   0   5 1757.67 55.2906   1
  -5   0   5 1770.65 53.5618   3
  -5   5   0 1753.16 58.6626   3
   0  -5  -5 1769.76 56.3969   1
   0  -5   5 1764.08 56.3309   3
   0   5  -5 1767.63 54.3456   2
   0   5   5 1758.66 59.1216   3
   5  -5   0 1757.69 55.9502   1
   5  -5   0 1775.93 52.2034   2
   5   0  -5 1734.55 57.6986   2
   5   0   5 1723.50 54.9221   2
   5   0   5 1734.82 54.5062   3
   5   5   0 1811.40 56.6524   2
   5   5   0 1711.20 53.8813   3
  -5  -5  -2 101.617 11.9698   1
  -5  -5   2 94.2734 10.7711   1
  -5  -5   2 97.8701 7.51337   3
  -5  -2  -5 95.5504 10.8232   1
  -5  -2   5 93.5084 7.87253   1
  -5  -2   5 84.2377 6.78720   3
  -5   2  -5 94.9059 7.14879   1
  -5   2   5 94.9924 8.01073   3
  -5   5   2 97.9274 8.38411   3
  -2  -5  -5 101.105 9.78105   1
  -2  -5  -5 95.7645 6.56121   2
  -2  -5   5 95.6180 8.50527   3
  -2   5  -5 95.1465 8.10899   2
  -2   5   5 103.301 9.81921   3
   2  -5  -5 92.2946 8.07376   1
   2  -5   5 96.2628 8.52351   3
   2   5  -5 96.0055 8.39384   2
   2   5   5 99.4063 9.91846   3
   5  -5  -2 91.1238 8.26317   1
   5  -5  -2 100.848 7.20909   2
   5  -5   2 99.6926 7.86859   1
   5  -5   2 105.810 7.26378   2
   5  -5   2 97.3447 8.78638   3
   5  -2  -5 91.0124 7.60387   1
   5  -2  -5 97.3711 9.29010   2
   5  -2   5 95.5717 8.10445   2
   5  -2   5 101.361 7.67742   3
   5   2  -5 92.4226 9.30624   2
   5   2   5 93.5333 8.51252   2
   5   2   5 89.7291 7.74884   3
   5   5  -2 101.892 9.82505   2
   5   5   2 97.4487 8.43897   2
   5   5   2 87.5294 7.48685   3
  -5  -5  -4 499.951 27.8003   1
  -5  -5   4 486.572 25.3420   1
  -5  -5   4 479.123 20.5224   3
  -5  -4  -5 526.307 27.4998   1
  -5  -4   5 498.534 24.8214   1
  -5  -4   5 460.705 19.9189   3
  -5   4  -5 502.568 20.4580   1
  -5   4   5 452.918 21.7040   3
  -5   5   4 458.915 21.7971   3
  -4  -5  -5 441.843 26.4932   1
  -4  -5   5 507.740 23.6394   1
  -4  -5   5 483.416 21.4413   3
  -4   5   5 500.566 23.5548   3
   4  -5  -5 499.057 22.1332   1
   4  -5  -5 480.570 21.9246   2
   4  -5   5 491.651 19.1124   1
   4  -5   5 479.673 22.1445   3
   4   5  -5 480.418 23.1575   2
   4   5   5 501.679 20.4211   2
   4   5   5 509.419 24.5940   3
   5  -5  -4 469.272 22.1051   1
   5  -5  -4 497.146 22.0366   2
   5  -5   4 476.760 20.0221   1
   5  -5   4 484.824 20.2860   2
   5  -5   4 478.492 21.8853   3
   5  -4  -5 494.107 22.0578   1
   5  -4  -5 499.878 24.1162   2
   5  -4   5 499.757 21.3098   2
   5  -4   5 502.454 21.6044   3
   5   4  -5 484.544 24.1726   2
   5   4   5 489.300 21.8151   2
   5   4   5 502.130 23.1819   3
   5   5  -4 491.730 24.2352   2
   5   5   4 466.673 21.5741   2
   5   5   4 494.370 23.2316   3
  -6   0   0 2158.58 67.8349   1
   0  -6   0 2226.36 67.5839   1
   0   0  -6 2165.36 64.9143   2
   0   0   6 2218.04 67.2397   3
   0   6   0 2193.05 70.8613   3
   6   0   0 2129.44 68.8687   2
   1  -1   6 1241.98 41.9769   3
   1   1  -6 1236.31 40.6864   2
   1   1   6 1207.17 41.9681   3
   1   6   1 1232.96 44.6148   3
   6  -1  -1 1183.31 43.6361   2
   6  -1   1 1265.78 42.6366   2
   6   1  -1 1295.07 44.9314   2
   6   1   1 1141.95 42.6643   2
   1  -6   1 1198.40 42.8732   3
   1  -1  -6 1202.23 39.6165   2
  -1  -1   6 1194.75 41.4025   3
  -1   1  -6 1184.49 40.4622   2
  -1   1   6 1222.54 41.9322   3
  -1   6   1 1253.61 45.7825   3
   1  -6  -1 1168.20 41.1026   1
   1  -6   1 1240.00 40.5582   1
  -6   1   1 1192.86 41.8416   1
  -1  -6  -1 1188.73 42.6223   1
  -1  -6   1 1191.30 41.7958   1
  -1  -6   1 1155.42 42.0066   3
  -1  -1  -6 1237.61 39.9197   2
  -6   1  -1 1180.15 41.4384   1
  -6  -1   1 1182.69 42.1639   1
  -6  -1  -1 1239.58 43.4010   1
   2   0  -6 0.77362 1.48214   2
   2   0   6 -1.1492 1.44029   3
   6  -2   0 1.66816 1.36781   2
   0   6   2 2.18738 2.92226   3
   0   6  -2 -0.7718 0.62714   2
   0  -6   2 0.08607 2.22792   3
  -6  -2   0 2.81175 2.72288   1
  -2   0  -6 -1.0634 1.41041   2
  -2   0   6 -0.2439 1.86060   3
   0  -6  -2 1.39072 2.30606   1
   0  -6   2 0.98668 1.49716   1
   6   0  -2 2.70207 2.99887   2
   6   0   2 -2.8427 1.90020   2
  -2  -6   0 -0.2930 2.24359   1
  -2   6   0 1.08955 2.74114   3
   0  -2  -6 -0.4836 1.09635   2
   0  -2   6 2.15294 2.52049   3
   2  -6   0 0.01693 1.26225   1
   2   6   0 -0.7689 2.10703   3
  -6   0  -2 1.88467 2.19635   1
  -6   0   2 -0.3488 1.51971   1
   0   2  -6 -1.1617 1.67220   2
   6   2   0 -0.4553 2.76417   2
   0   2   6 -0.7073 1.93248   3
   2  -2  -6 2089.15 60.7919   2
   2  -6   2 1949.10 60.8154   1
   2  -2  -6 1995.91 58.4150   1
  -6  -2  -2 1907.74 65.8951   1
  -6  -2   2 2092.54 65.3368   1
  -6   2  -2 2087.89 63.1131   1
   2  -6   2 1967.46 63.5470   3
  -2  -6   2 2048.46 64.7401   1
  -2  -6   2 2039.84 62.9020   3
  -2  -2  -6 1914.74 59.6647   1
  -2  -2  -6 1938.02 60.5940   2
  -2  -2   6 2070.00 62.5708   3
  -2   2  -6 2103.65 62.2065   2
  -2   2   6 1936.38 63.2294   3
  -2   6  -2 2078.24 57.0690   2
  -2   6   2 1840.63 65.3917   3
   2  -6  -2 2156.48 63.7537   1
   6   2  -2 1944.01 65.4728   2
   6   2   2 2057.17 64.9309   2
   6  -2  -2 2062.01 62.4980   1
  -2  -6  -2 1982.28 67.3569   1
   6  -2   2 1966.92 61.5992   2
   2  -2   6 1887.96 62.0416   3
   2   2  -6 1906.14 61.3750   2
   2   2   6 2053.30 63.4739   3
   2   6  -2 1929.69 58.2481   2
   2   6   2 2041.40 65.5573   3
   6  -2  -2 2092.01 65.5331   2
   1  -6  -3 136.918 10.3297   1
   3  -6   1 139.849 9.56135   1
   6  -3  -1 147.215 10.1713   1
   6  -3  -1 160.177 11.1170   2
  -1   3   6 138.074 11.0004   3
   3  -6   1 146.877 11.8019   3
  -6  -1  -3 144.518 11.2578   1
   6   3   1 133.547 11.7785   2
  -3  -1   6 140.833 10.3322   3
  -6   1   3 137.375 10.2757   1
  -3  -6  -1 119.213 12.3732   1
   6   1  -3 145.128 12.3311   2
   1  -3   6 129.008 10.2868   3
  -1  -3  -6 138.628 8.65488   1
  -1  -3  -6 141.493 8.97169   2
  -6  -3   1 155.303 12.5778   1
   3   1   6 150.493 9.65896   2
  -3   6   1 133.678 12.1877   3
   6  -1   3 127.548 10.0184   2
  -1  -6   3 150.470 9.74123   1
  -1  -6   3 145.714 10.6649   3
   1   3  -6 131.144 10.0129   2
  -1   6  -3 145.549 8.26708   2
   3  -6   1 133.039 6.57556   2
   3   6  -1 139.188 9.17672   2
   1   6   3 137.833 12.0198   3
   3  -1  -6 142.621 7.78710   1
   3  -1  -6 148.298 10.3229   2
   3   1   6 138.856 10.4606   3
   3   6  -1 129.044 11.0124   3
   3   6   1 141.239 10.9170   3
   1   6  -3 136.346 8.34023   2
   6   1   3 146.377 11.2398   2
  -1   6   3 129.054 11.9163   3
  -1   3  -6 135.059 10.0232   2
   6  -3   1 136.181 9.46152   1
   1  -3  -6 139.713 8.25357   1
   1  -6   3 137.389 10.3604   3
   6  -3   1 148.676 9.98198   2
   3  -1   6 136.754 10.1914   3
   3   1  -6 134.800 10.3096   2
  -6   1  -3 148.128 10.3290   1
  -3   1   6 132.848 10.2773   3
  -1  -6  -3 151.584 11.4288   1
  -3  -6   1 134.320 12.1318   1
   6  -1  -3 131.199 11.9662   2
   1   3   6 140.545 11.0773   3
   1  -6   3 140.302 8.75391   1
   3  -6  -1 146.482 10.3309   1
   6   3  -1 146.986 12.0409   2
  -6  -1   3 143.771 10.6712   1
   1  -3  -6 125.090 8.31197   2
  -1  -3   6 144.768 10.6886   3
  -6  -3  -1 110.715 11.6082   1
  -6   3   3 117.660 7.82716   3
  -3  -6  -3 123.497 12.7647   1
  -3  -6   3 144.480 11.6368   1
  -6   3  -3 133.159 9.73284   1
  -6  -3   3 129.244 11.1793   1
   3   3   6 152.969 11.7104   3
   6  -3  -3 140.994 10.4560   1
   6  -3  -3 148.984 11.9192   2
  -6  -3  -3 122.811 12.9361   1
   3  -3  -6 156.602 10.0057   2
   3  -3   6 107.032 9.34318   3
   3   3  -6 122.288 10.3428   2
   3   3   6 139.897 9.16326   2
   6  -3   3 116.553 9.24263   2
   3   6  -3 113.483 8.95540   2
   3   6   3 139.171 11.6225   3
  -3  -6   3 158.640 10.9530   3
  -3  -3  -6 126.301 10.5021   1
  -3  -3   6 135.839 10.0949   3
  -3   3  -6 141.885 10.8933   2
  -3   3   6 110.168 10.0122   3
  -3   6  -3 141.954 8.81301   2
   3  -6   3 124.200 8.38209   1
   3  -6   3 134.250 10.4890   3
   3  -3  -6 145.668 8.93475   1
   6  -3   3 123.895 8.42237   3
   6   3  -3 122.896 11.7802   2
   6   3   3 131.405 11.1743   2
   6   3   3 149.522 8.56525   3
   3  -6  -3 146.297 10.8829   1
  -3   6   3 125.440 11.2729   3
   4   0   6 445.552 20.4296   3
  -6   4   0 466.869 19.6468   3
   4  -6   0 438.978 19.9497   1
   4   6   0 448.200 19.1828   2
   4   6   0 412.573 20.2499   3
   6   0  -4 452.093 23.4371   2
   6   0   4 429.037 20.6067   2
  -4   6   0 399.792 23.1460   3
   0  -4  -6 431.919 18.6291   1
   0  -4  -6 434.049 17.5326   2
   0  -4   6 439.281 20.9461   3
   0   4  -6 429.842 20.1196   2
  -6   0  -4 431.601 20.7611   1
  -6   0   4 441.843 20.3879   1
  -4  -6   0 442.076 24.8166   1
  -6  -4   0 448.140 25.5756   1
   0  -6   4 461.285 18.2484   1
   0  -6   4 439.783 20.8789   3
   6  -4   0 440.184 20.2097   1
   0   4   6 452.118 22.4764   3
   6   0   4 422.767 17.3318   3
   0  -6  -4 438.126 21.0100   1
   6  -4   0 445.516 19.2446   2
   4   0  -6 428.439 20.7371   2
  -4   0   6 428.771 17.7300   1
  -4   0   6 426.924 19.6829   3
   6   4   0 448.245 22.2842   2
   0   6  -4 431.826 18.2632   2
   0   6   4 442.110 23.3079   3
   4   0   6 439.308 19.5696   2
  -6   2   4 76.0201 6.18659   3
   6  -2   4 69.9074 5.90585   3
  -2  -4  -6 78.9805 7.38609   1
  -6  -2  -4 62.2372 10.3438   1
   6   4   2 64.3640 5.57827   3
  -2  -6   4 63.3219 7.22332   3
  -2   6  -4 62.1961 6.05060   2
   4  -6   2 70.3157 5.22773   2
   4  -6   2 83.8751 8.53634   3
   4   6  -2 67.1700 7.22042   2
   2  -4   6 76.7206 7.73554   3
   2   4  -6 67.5773 7.52104   2
   6  -4  -2 57.6085 6.50215   2
   4   2   6 59.0136 6.54213   2
   4  -6   2 67.8292 6.44528   1
  -4  -2   6 62.4647 6.66457   3
   6   2  -4 77.4651 9.50960   2
  -4  -2   6 65.6721 5.89408   1
  -2  -6   4 76.4809 7.13063   1
   4   2   6 51.7882 6.63433   3
  -4   6   2 62.4420 9.64983   3
   6   4   2 57.7763 8.92957   2
   2  -6  -4 58.0000 7.07923   1
  -2   4   6 65.8771 8.18293   3
  -2  -4  -6 71.5350 6.23713   2
  -6  -4   2 55.4830 10.0844   1
   2   6   4 58.3079 9.62898   3
   4  -2  -6 67.8102 6.03654   1
   4  -2  -6 78.4827 7.85121   2
  -4  -6  -2 80.9399 12.9894   1
   6  -4  -2 59.0777 7.01435   1
   6  -2   4 76.0016 7.51467   2
   6  -2  -4 74.3770 8.85956   2
   2   6  -4 72.1937 6.94678   2
  -4   2   6 65.6236 7.20443   3
   2   4   6 60.0176 9.28372   3
   6   2   4 59.8491 5.50209   3
   4  -2   6 75.2499 7.06170   2
   6  -4   2 74.5582 6.90053   3
   6   4  -2 77.1447 11.4325   2
  -2   6   4 71.7843 8.96247   3
   4   6   2 57.9968 5.74252   2
   2  -6   4 72.2990 7.56661   3
  -6  -4  -2 79.7730 13.7698   1
  -2   4  -6 70.7217 7.41958   2
   4   2  -6 77.0576 8.28481   2
  -2  -4   6 55.5382 6.87762   3
   4   6   2 62.9813 9.42583   3
   4  -6  -2 69.4177 7.33044   1
   2  -4  -6 62.9009 6.23448   1
  -2  -6  -4 67.5630 10.4828   1
  -4  -6   2 69.5097 11.0219   1
  -4  -6   2 57.9051 6.88985   3
   6  -2  -4 57.1943 6.67771   1
   2  -6   4 75.9729 5.73086   1
   4  -2   6 80.0250 7.47609   3
   6   2   4 63.1486 7.57907   2
  -6  -2   4 65.5474 7.22668   1
  -6   4   2 70.7438 5.90287   3
  -4  -2  -6 55.7647 7.18284   1
   2  -4  -6 66.3370 5.91760   2
   6  -4   2 74.2072 6.73580   1
   6  -4   2 65.2362 6.43567   2
  -6   2  -4 59.9683 6.47523   1
   6   4   4 487.920 23.9873   2
   6   4   4 522.124 22.6841   3
   6   4  -4 533.468 26.7367   2
   6  -4   4 549.585 22.8645   2
   6  -4   4 549.668 22.6541   3
  -4   6   4 542.596 25.2829   3
   4  -6  -4 504.293 23.6599   1
   4  -6   4 572.348 21.7404   1
   4  -6   4 554.704 24.0767   3
   4  -4  -6 503.802 22.1725   1
  -6  -4   4 514.810 26.5068   1
  -6  -4   4 515.043 20.2774   3
   4   6   4 515.734 25.5970   3
   6  -4  -4 494.954 23.2533   1
   6  -4  -4 522.981 25.4330   2
  -6  -4  -4 557.722 29.6846   1
   4  -4  -6 548.373 23.8855   2
   4  -4   6 561.246 24.0384   3
  -4  -4  -6 474.581 26.3444   1
  -4  -4   6 508.824 23.5265   1
  -6   4   4 556.311 22.5649   3
  -4  -6  -4 489.984 29.1268   1
  -4  -6   4 561.054 26.3431   1
  -4  -6   4 514.409 22.9815   3
   4   4   6 530.522 25.3104   3
   4   6  -4 568.525 24.8314   2
   4   6   4 490.992 20.3839   2
  -4  -4   6 516.223 22.6136   3
  -4   4  -6 488.127 23.6130   2
  -4   4   6 533.946 24.6659   3
   4   4   6 507.165 21.8443   2
   4   4  -6 558.825 25.2917   2
   6  -5  -1 655.891 25.2742   2
   6  -5  -1 686.052 28.0735   1
   6   1  -5 696.674 30.6908   2
   1  -6  -5 637.132 27.2998   1
  -1   5   6 701.930 30.6920   3
  -6   1   5 696.781 25.2403   3
  -1  -6   5 658.746 24.3794   1
  -1  -6   5 648.212 27.7098   3
  -6  -1  -5 644.630 29.3737   1
  -5   1  -6 657.928 25.7172   1
   5   1   6 672.487 27.2999   3
   5  -6   1 673.447 27.0024   1
  -6   1   5 695.507 27.8554   1
  -6   5  -1 609.285 29.4441   3
  -5  -6  -1 700.341 33.6092   1
  -1   6  -5 635.798 25.6519   2
  -5  -1   6 664.699 25.8754   1
  -5   6   1 691.875 29.9311   3
  -1  -5  -6 707.692 28.0264   1
  -1  -5  -6 712.260 24.2418   2
   1   6   5 684.200 31.3239   3
   5  -1  -6 611.232 28.2941   2
   5   6  -1 701.814 27.7455   3
   5   1   6 633.344 26.8184   2
   6  -1   5 706.983 25.8393   3
   1  -5   6 679.686 28.4833   3
   1   5  -6 682.034 27.4393   2
  -6  -5   1 612.676 33.0149   1
  -5  -1   6 658.344 25.9103   3
   6  -1   5 698.797 27.5369   2
   6   5   1 653.546 25.2115   3
   5  -6   1 691.620 23.9583   2
   5   6  -1 654.687 27.8301   2
   6   5   1 656.980 28.7416   2
  -6   1  -5 635.490 26.7969   1
  -1   6   5 709.837 31.4431   3
   5   1  -6 686.733 29.5936   2
  -5   1   6 674.306 26.6813   3
   1  -5  -6 654.445 23.8196   2
  -5  -6   1 676.298 32.6064   1
   6   1   5 650.625 27.8845   2
   6   1   5 665.660 25.7446   3
   1  -5  -6 652.338 26.5864   1
  -6  -1   5 643.151 23.9102   3
   6   5  -1 694.590 25.1806   3
   5  -6  -1 649.830 23.1495   2
  -1  -6  -5 637.291 28.3662   1
  -6   5   1 707.281 27.2670   3
  -5  -1  -6 723.950 31.2760   1
  -5   6  -1 598.038 31.0803   3
   6  -1  -5 633.099 30.1174   2
  -6  -1   5 648.983 27.2566   1
  -5   1   6 693.220 26.5955   1
   1  -6   5 721.925 28.6541   3
   1   6  -5 655.408 26.0980   2
  -1  -5   6 666.521 28.1929   3
  -1   5  -6 661.897 27.0294   2
   5  -1   6 644.003 26.3801   2
   5  -1   6 676.796 26.9546   3
  -6  -5  -1 681.263 34.1849   1
   5   6   1 668.237 27.0726   3
   5   6   1 670.671 27.0313   2
   1   5   6 678.777 30.5520   3
   5  -6  -1 644.753 27.4270   1
   6  -5   1 672.823 27.0136   1
   6  -5   1 701.854 25.6727   2
   6   5  -1 698.318 29.5033   2
   6   3  -5 315.105 19.6297   2
   3  -6  -5 296.573 16.8431   1
   3   6   5 301.300 13.2752   2
   6  -5  -3 310.682 17.4278   1
  -6  -5   3 285.029 20.5367   1
   5  -6   3 311.922 15.7607   1
   5  -6   3 302.996 14.3329   2
   5  -6   3 337.309 18.4414   3
   5   6  -3 307.831 18.4156   2
  -5  -3   6 282.304 15.1375   3
   6   5   3 312.130 16.1727   3
  -3   6  -5 311.604 16.2830   2
  -3  -6   5 307.011 16.9665   1
   6  -3   5 319.740 16.8128   2
   6  -3   5 319.312 16.0012   3
  -6  -3  -5 318.048 21.3307   1
  -6  -5   3 318.528 15.1148   3
   3   5  -6 310.220 17.7490   2
   5   3   6 321.845 17.0921   2
  -6   3   5 313.138 15.8321   3
  -5  -6  -3 329.475 22.4712   1
   6  -5  -3 320.176 16.3883   2
   5  -3  -6 317.804 16.2269   1
  -5   6   3 307.830 17.6881   3
  -3  -5  -6 309.751 19.3578   1
   5   3   6 317.105 17.7172   3
   6   5   3 288.831 17.2273   2
  -3   5   6 306.326 18.3844   3
   5  -3  -6 332.660 18.8340   2
  -3  -6   5 318.534 17.1564   3
   3  -5   6 317.535 17.5897   3
  -5  -3   6 299.149 16.3880   1
   3   6   5 309.855 19.6524   3
  -5  -6   3 306.745 16.2777   3
  -6  -3   5 293.222 13.9155   3
  -6  -3   5 297.414 17.5626   1
  -6   5   3 301.510 15.8093   3
  -5  -3  -6 327.051 19.9171   1
   5  -6  -3 288.021 13.6810   2
   5   6   3 286.586 15.7127   2
  -5   3   6 301.114 16.8125   3
  -3  -6  -5 314.672 20.8562   1
   6  -3  -5 334.747 20.0007   2
   3  -5  -6 311.643 15.6204   2
   6  -3  -5 305.071 16.6560   1
  -3   6   5 329.278 19.3395   3
   6   3   5 317.126 18.1015   2
   3  -6   5 318.721 13.9272   1
   3  -6   5 309.509 17.2641   3
   3   6  -5 297.551 16.8597   2
   6   3   5 302.660 16.0445   3
   3   5   6 320.203 19.6335   3
  -6  -5  -3 314.291 22.0105   1
   3  -5  -6 316.101 16.5069   1
   5  -3   6 313.889 16.2562   2
   5  -3   6 323.623 16.8202   3
   5   3  -6 326.813 19.2957   2
  -6   3  -5 332.369 16.2964   1
  -3  -5   6 291.914 16.7434   3
   5  -6  -3 288.807 16.8855   1
  -5  -6   3 332.566 20.5163   1
   6  -5   3 307.559 15.6487   1
   6  -5   3 321.143 15.6952   2
   6  -5   3 328.304 17.6257   3
   6   5  -3 316.405 19.6437   2
  -3   5  -6 300.092 16.8768   2
   5   6   3 296.721 17.1865   3
  -6  -5  -5 977.848 42.8688   1
  -6  -5   5 940.061 40.8270   1
  -6  -5   5 892.219 32.8687   3
  -6   5   5 924.207 35.7165   3
  -5  -6  -5 950.083 44.0541   1
  -5  -6   5 960.847 38.6278   1
  -5  -6   5 914.761 34.4800   3
  -5  -5  -6 849.344 41.3111   1
  -5  -5   6 986.629 38.3834   1
  -5  -5   6 916.805 34.1617   3
  -5   5   6 883.009 36.3864   3
  -5   6   5 920.617 36.9407   3
   5  -6  -5 923.415 36.1617   1
   5  -6  -5 925.459 34.0987   2
   5  -6   5 916.911 32.8647   1
   5  -6   5 960.192 36.7015   3
   5  -5  -6 918.887 35.4201   1
   5  -5  -6 888.441 36.8093   2
   5  -5   6 908.441 35.6911   3
   5   5  -6 936.409 38.3348   2
   5   5   6 965.670 35.1375   2
   5   5   6 959.729 38.7673   3
   5   6  -5 923.214 37.6584   2
   5   6   5 902.818 33.7570   2
   5   6   5 951.459 38.6978   3
   6  -5  -5 918.892 36.2016   1
   6  -5  -5 914.149 37.1561   2
   6  -5   5 890.384 33.7551   2
   6  -5   5 942.621 35.6259   3
   6   5  -5 912.436 38.8867   2
   6   5   5 917.470 36.2372   2
   6   5   5 964.253 37.2390   3
  -6  -6   0 144.974 14.5841   1
  -6   0  -6 142.687 11.2571   1
  -6   0   6 160.226 10.7866   1
  -6   0   6 152.147 10.0872   3
  -6   6   0 159.389 12.7887   3
   0  -6  -6 139.598 11.0127   1
   0  -6   6 152.471 12.1622   3
   0   6  -6 146.401 11.0602   2
   0   6   6 135.766 12.9405   3
   6  -6   0 158.364 11.5943   1
   6  -6   0 161.418 9.74120   2
   6   0  -6 165.104 13.6764   2
   6   0   6 153.617 11.9448   2
   6   0   6 154.382 10.6231   3
   6   6   0 149.805 11.5338   2
   6   6   0 147.124 9.90328   3
  -6  -6  -2 1118.17 46.2851   1
  -6  -6   2 962.929 43.7058   1
  -6  -2  -6 1110.24 43.9388   1
  -6  -2   6 970.689 37.4240   1
  -6  -2   6 953.348 34.6576   3
  -6   2  -6 978.203 36.1918   1
  -6   2   6 1054.89 36.8840   3
  -6   6   2 1086.07 38.6955   3
  -2  -6  -6 1107.79 41.1481   1
  -2  -6   6 1003.18 38.4248   3
  -2   6  -6 945.591 36.3686   2
  -2   6   6 1152.04 42.7661   3
   2  -6  -6 975.014 37.5739   1
   2  -6   6 1044.22 39.0967   3
   2   6  -6 1078.49 38.3481   2
   2   6   6 968.870 41.9051   3
   6  -6  -2 867.163 37.2512   1
   6  -6  -2 921.516 33.6415   2
   6  -6   2 1073.93 37.7093   1
   6  -6   2 1073.94 34.8781   2
   6  -6   2 1096.72 42.0028   3
   6  -2  -6 957.232 36.2507   1
   6  -2  -6 964.112 40.5786   2
   6  -2   6 1074.97 38.0930   2
   6  -2   6 1072.88 37.0176   3
   6   2   6 976.839 38.2751   2
   6   2   6 975.162 37.2332   3
   6   6  -2 1051.94 40.4785   2
   6   6  -2 1117.95 38.5131   3
   6   6   2 937.343 37.3130   2
   6   6   2 942.363 36.5518   3
  -6  -6  -4 173.657 17.1627   1
  -6  -6   4 206.855 16.4599   1
  -6  -6   4 219.109 12.9781   3
  -6  -4  -6 198.044 16.6457   1
  -6  -4   6 204.993 14.8520   1
  -6  -4   6 205.441 12.0023   3
  -6   4  -6 243.353 13.1828   1
  -6   4   6 203.949 13.6130   3
  -6   6   4 197.279 13.5671   3
  -4  -6  -6 139.983 15.0479   1
  -4  -6   6 203.008 13.5657   1
  -4  -6   6 204.838 13.6131   3
  -4   6  -6 216.295 14.0954   2
  -4   6   6 188.865 14.6416   3
   4  -6  -6 214.589 14.0316   1
   4  -6  -6 225.601 12.9912   2
   4  -6   6 189.470 13.6768   3
   4   6  -6 196.448 14.4066   2
   4   6   6 205.313 11.5801   2
   4   6   6 200.901 15.8981   3
   6  -6  -4 207.956 14.3764   1
   6  -6  -4 200.843 12.0314   2
   6  -6   4 181.557 11.7913   1
   6  -6   4 188.993 11.8368   2
   6  -6   4 193.450 13.7592   3
   6  -4  -6 214.748 13.9507   1
   6  -4  -6 217.379 16.0594   2
   6  -4   6 184.829 12.8143   2
   6  -4   6 200.518 13.1939   3
   6   4  -6 182.870 15.1344   2
   6   4   6 235.892 15.3205   2
   6   4   6 216.795 14.3179   3
   6   6  -4 190.590 15.6777   2
   6   6   4 184.992 12.9210   2
   6   6   4 216.482 14.4222   3
  -6  -6  -6 42.1353 10.2209   1
  -6  -6   6 67.1059 8.17192   1
  -6  -6   6 57.9719 6.53182   3
  -6   6   6 42.8443 8.02592   3
   6  -6  -6 62.3702 9.87220   1
   6  -6  -6 69.2131 7.22458   2
   6  -6   6 39.0177 7.76491   3
   6   6  -6 58.3381 11.0297   2
   6   6   6 67.3825 7.28700   2
   6   6   6 67.6927 8.11985   3
  -7   0  -1 100.568 9.57236   1
  -7   0   1 93.1334 9.04226   1
  -1  -7   0 99.1494 9.43867   1
  -1   7   0 109.830 11.4523   3
   0  -1  -7 100.865 8.37078   2
   0  -1   7 108.047 9.83873   3
   0   1  -7 99.6537 8.80820   2
   0   1   7 100.379 9.74830   3
   1  -7   0 102.753 8.76961   1
   1   7   0 90.4347 9.83901   3
   7   0  -1 86.6950 9.93196   2
   7   0   1 91.6756 9.70929   2
   0  -7   1 102.452 8.87184   1
   0   7   1 98.7084 10.7354   3
   1   0  -7 101.380 8.69589   2
   1   0   7 86.5972 8.86575   3
   7  -1   0 99.6809 10.1116   2
   7   1   0 106.170 10.9176   2
  -1   0   7 102.928 9.67691   3
   0  -7  -1 104.603 9.56590   1
  -1   0  -7 89.4942 8.32203   2
  -7  -1   0 104.650 9.81317   1
  -7   1   0 103.548 9.48485   1
  -7  -2   1 9.53520 3.98986   1
   7  -1   2 4.81668 3.42827   2
   1   7   2 5.47807 3.81376   3
   2  -1  -7 9.27396 3.33324   2
   2   7  -1 1.59946 3.20543   3
  -2  -1   7 7.65762 3.47141   3
   2   1   7 11.6524 4.41667   3
   7  -2  -1 5.74956 3.60217   2
   1  -2   7 1.51622 2.42530   3
  -7  -1  -2 3.23957 3.32588   1
   7   2   1 7.26380 3.78283   2
  -1  -2  -7 5.00126 2.04292   2
  -7   1   2 1.86221 2.11479   1
  -2  -7  -1 1.27089 2.27331   1
  -1   2   7 4.05854 3.46744   3
  -1  -7   2 6.12311 3.67327   3
  -7   2  -1 6.93858 3.33384   1
   1  -7  -2 4.80985 2.82190   1
   1   2  -7 1.69154 2.08763   2
  -2   1  -7 8.12864 3.18903   2
  -1  -7   2 11.5594 3.69315   1
   7   1  -2 2.14876 3.19221   2
   2  -7   1 2.38938 2.32934   1
  -2   7   1 3.39395 3.52395   3
   2  -1   7 4.18194 3.19513   3
   1  -7   2 6.43083 3.37224   3
   1   7  -2 3.26872 1.37732   2
   1  -2  -7 6.84782 2.70745   2
   7   2  -1 7.35035 4.23377   2
  -7  -1   2 8.96184 3.88589   1
  -7   1  -2 6.30880 3.14856   1
  -7   2   1 3.55650 2.69251   1
  -2  -1  -7 -0.7198 1.87948   2
  -2  -7   1 10.4202 4.56900   1
  -2   7  -1 5.75577 4.21137   3
   2   1  -7 2.26417 2.40318   2
   2  -7  -1 9.52445 3.57003   1
  -1  -2   7 8.51962 3.78339   3
  -1   2  -7 3.63495 2.36140   2
   2   7   1 6.88651 3.95424   3
  -1   7   2 3.75860 3.75915   3
   7  -2   1 4.75920 3.12690   2
   1  -7   2 2.87028 1.88849   1
   1   2   7 16.0360 4.85175   3
  -1  -7  -2 1.28340 2.37168   1
  -7  -2  -1 3.19010 3.41248   1
  -2   1   7 2.20834 2.98886   3
   7   1   2 8.99170 4.58914   2
   7  -1  -2 10.1066 4.46315   2
   3   0  -7 3.26473 2.26210   2
   7   0   3 2.75697 2.81816   2
   3   0   7 2.30735 2.69656   3
   3   7   0 5.05084 3.11968   3
   7   0  -3 2.60650 2.88395   2
  -3   0   7 5.16341 2.88383   3
   0  -7  -3 2.24425 2.77129   1
   7  -3   0 5.05226 2.70978   1
   7  -3   0 1.16754 1.93525   2
  -7  -3   0 2.91917 2.97297   1
   0   7   3 4.73873 3.80259   3
  -7   0  -3 4.42846 2.86268   1
  -7   0   3 0.62381 1.69171   1
  -3  -7   0 4.51220 2.92852   1
  -3   7   0 4.27505 3.26134   3
   0  -3  -7 3.27243 1.33967   1
   0  -3  -7 6.02402 2.50399   2
   0  -3   7 3.15204 2.68657   3
   0   3  -7 2.61161 2.54568   2
   0   3   7 4.94624 3.12190   3
   3  -7   0 2.99041 2.30438   1
   0  -7   3 6.64167 3.61142   3
   0   7  -3 2.99033 1.45203   2
  -3   0  -7 1.69165 2.05234   2
   7   3   0 5.52665 3.67849   2
   0  -7   3 4.04843 2.04778   1
  -2  -7   3 653.469 27.9745   1
   7   3   2 592.031 29.2975   2
  -7  -2  -3 628.780 30.2378   1
   2   7   3 640.322 30.2932   3
   3  -2  -7 622.856 22.9520   1
   3  -2  -7 633.292 26.3674   2
  -3  -2   7 628.690 26.8229   3
   2  -3   7 672.981 28.2100   3
  -3  -7  -2 591.957 31.2314   1
   3  -7   2 662.447 25.9655   1
  -7  -3   2 631.782 29.9021   1
  -7   3  -2 607.243 26.6514   1
  -7   2   3 649.282 28.4926   1
  -3   7   2 608.794 30.3577   3
   7  -2   3 639.567 27.0859   2
  -3   2  -7 645.336 27.5890   2
  -2  -3  -7 632.838 24.2316   1
  -2  -3  -7 617.660 25.2916   2
   3  -7   2 636.235 28.9301   3
   3   7  -2 656.982 25.2257   2
  -2   3   7 640.189 28.6736   3
  -2   7  -3 661.092 23.1959   2
   7   2  -3 643.959 30.9659   2
   3   2   7 634.502 28.2035   3
  -2  -7   3 625.615 27.7150   3
   7  -3  -2 638.062 28.6496   2
   7  -3  -2 668.026 27.5256   1
   2  -7  -3 641.976 27.4924   1
   2   3  -7 634.995 27.1515   2
  -3  -2  -7 631.835 24.4669   1
   7  -3   2 556.344 23.4875   3
  -3  -2  -7 637.140 26.5178   2
   3  -2   7 636.925 27.2719   3
  -7   2  -3 627.934 26.8513   1
  -2   7   3 622.583 30.5499   3
   7   3  -2 645.707 30.1703   2
  -3  -7   2 655.181 28.1114   3
  -3   7  -2 612.320 22.0357   2
   2  -3  -7 609.968 23.0390   1
   7  -3   2 646.235 26.7856   2
  -7  -2   3 627.012 28.4597   1
   3  -7  -2 658.915 27.4993   1
  -7  -3  -2 613.363 31.3448   1
   2  -7   3 634.509 24.9834   1
   2  -7   3 626.527 27.8060   3
   3   7   2 643.356 28.9437   3
   7  -2  -3 650.464 30.3355   2
   2  -3  -7 611.398 25.1121   2
   7   2   3 605.468 28.6850   2
  -2  -7  -3 659.832 30.9044   1
  -3  -7   2 618.238 29.8743   1
  -2  -3   7 614.035 26.9576   3
  -2   3  -7 632.170 27.1734   2
   2   7  -3 645.505 24.1758   2
  -3   2   7 607.743 27.4193   3
   2   3   7 642.338 28.9173   3
   3   2  -7 638.284 27.5602   2
   7  -4  -1 51.5816 6.59343   1
   4   1   7 57.5398 8.75743   3
   7   1  -4 55.1338 10.1625   2
   4  -7   1 55.1774 6.51207   1
  -1  -7   4 49.8530 8.32735   3
  -1   7  -4 47.5716 5.11188   2
  -7   4  -1 54.9667 6.11983   3
   1  -7  -4 46.6680 8.13454   1
  -4  -7  -1 47.3125 10.4175   1
   1   4  -7 57.5927 7.19891   2
  -1   4   7 47.0025 8.98181   3
   1   7   4 45.2364 8.80887   3
   7   4   1 61.7569 9.68955   2
   4   7  -1 55.0649 9.19262   3
   7  -4  -1 64.5939 6.96783   2
   4   1   7 49.2739 7.35310   2
  -1  -7   4 52.9931 5.72013   1
  -7  -1  -4 53.1138 8.93570   1
   7  -1   4 50.8817 4.53541   3
  -7  -4   1 46.6939 9.94205   1
  -7   1   4 56.0266 7.18921   1
   1  -4   7 62.2628 9.36495   3
  -4  -1   7 42.7704 7.52978   3
   4  -1  -7 57.2804 7.04521   2
  -4   7   1 45.1209 9.44042   3
  -1  -4  -7 50.5545 5.56276   1
  -1  -4  -7 52.6223 5.35489   2
   4   7  -1 49.5207 5.70839   2
   7  -1   4 54.5026 8.46980   2
   1   7  -4 46.5626 5.40506   2
   1  -4  -7 50.3498 5.38840   1
   1  -7   4 52.6260 5.42996   1
  -7  -1   4 46.1801 7.90069   1
  -1  -7  -4 48.6983 8.80072   1
   4  -1   7 56.8178 8.50938   3
   4   1  -7 53.6859 8.75160   2
   4   7   1 41.9370 4.44217   2
  -7  -4  -1 48.3612 10.8344   1
  -7   1  -4 50.7277 8.29001   1
   1  -7   4 48.4976 8.24226   3
  -7   4   1 50.9301 4.84835   3
  -4  -7   1 52.2127 10.0719   1
  -4   1   7 43.7328 7.56479   3
   7  -4   1 49.5538 6.31057   1
   7  -4   1 50.2342 6.17889   2
  -1  -4   7 56.7859 8.82202   3
  -1   4  -7 48.8360 7.92258   2
   1   4   7 51.2131 9.39342   3
   4  -7  -1 54.7566 6.86833   1
   7   4  -1 43.8189 8.90430   2
   1  -4  -7 48.5097 5.45313   2
   4   7   1 62.2924 7.12450   3
   7  -1  -4 51.1026 10.4066   2
  -1   7   4 65.0713 11.0725   3
   7   1   4 46.8640 8.61048   2
  -4   7  -1 48.2017 10.3926   3
   3  -7  -4 424.030 21.5272   1
  -3  -7   4 397.601 21.0447   1
  -3  -7   4 404.399 21.2187   3
   7   4   3 406.876 22.7064   2
   3   7   4 405.733 23.3659   3
   4  -3  -7 416.990 18.6727   1
   7   3  -4 406.608 24.1322   2
   3  -4   7 431.991 21.6120   3
  -3  -4  -7 443.240 21.5603   1
  -3   4   7 418.463 22.4274   3
  -7  -4   3 429.231 24.7248   1
  -7  -3  -4 394.956 25.6845   1
  -4  -3   7 411.514 20.3652   3
  -4   3  -7 406.492 21.5153   2
   3   4  -7 412.538 21.8099   2
   4   3   7 428.270 19.9594   2
   4   3   7 417.836 22.1825   3
   7  -4  -3 430.296 21.5105   1
   7  -4  -3 452.686 22.7963   2
   4   7  -3 424.883 20.7256   2
  -4  -7  -3 382.126 26.0527   1
  -4   7   3 439.054 23.9694   3
  -7   3   4 429.199 18.0819   3
  -3  -4  -7 426.528 20.1621   2
   7  -3   4 450.434 21.1773   2
   7  -3   4 423.667 18.6240   3
   4  -7   3 416.090 22.3073   3
  -7   4  -3 429.637 20.8964   1
  -3   7  -4 415.082 18.4578   2
   4  -7   3 422.021 19.2461   1
   4  -3  -7 406.838 20.7458   2
  -4   7  -3 424.688 18.2313   2
   7  -4   3 405.673 19.6989   3
   7  -3  -4 406.539 20.9124   1
   7  -3  -4 418.109 23.7770   2
   7   4  -3 418.344 24.2328   2
  -3   4  -7 396.308 21.0088   2
   3   4   7 443.161 23.5758   3
   4   7   3 394.955 22.1749   3
  -3   7   4 414.639 23.6452   3
  -7   3  -4 411.598 20.4569   1
   3  -4  -7 415.066 18.6806   1
   3  -4  -7 437.147 19.9123   2
   4  -3   7 410.701 20.7970   3
   3  -7   4 427.056 18.4433   1
   3  -7   4 447.035 22.2044   3
   3   7  -4 407.292 19.6637   2
  -4   3   7 422.659 22.2098   3
  -3  -7  -4 394.935 25.1821   1
   4  -7  -3 430.074 21.7105   1
   7   3   4 397.781 22.4538   2
  -7  -4  -3 398.750 26.5667   1
  -4  -3  -7 401.038 21.8104   1
  -7  -3   4 430.914 23.0459   1
  -7   4   3 440.987 18.4567   3
   4   3  -7 407.033 22.1547   2
   7  -4   3 411.546 19.9019   2
  -4  -7   3 436.192 24.1369   1
  -4  -7   3 433.543 21.8907   3
  -3  -4   7 429.139 21.1601   3
   0  -7   5 46.9561 8.40045   3
   0   7  -5 43.1672 5.33209   2
   5   7   0 41.4176 6.72422   2
   0  -7   5 51.5541 4.87587   1
   7  -5   0 47.3896 7.75327   1
  -7  -5   0 35.2565 9.44559   1
   5   7   0 39.7512 6.65683   3
   7   0  -5 53.0789 10.2124   2
   0  -5  -7 50.1602 4.76494   2
   0  -5   7 47.4740 8.46455   3
   0   5  -7 55.0607 8.51266   2
   0   5   7 30.9276 7.49309   3
   5  -7   0 51.6040 8.16444   1
  -7   0  -5 51.5353 8.42618   1
  -7   0   5 50.2593 6.46371   1
  -5  -7   0 43.7906 10.0359   1
  -5   7   0 34.9557 8.13485   3
   0  -5  -7 46.9177 5.61711   1
   7   0   5 49.4298 8.37448   2
   7  -5   0 55.5926 7.81119   2
   5   0  -7 48.4569 8.72623   2
  -7   5   0 43.8825 5.51710   3
  -5   0   7 46.1740 4.88337   1
  -5   0   7 50.1303 6.30179   3
   0  -7  -5 44.0584 7.98794   1
   7   0   5 57.7354 5.27408   3
   5   0   7 42.8203 7.40052   2
   0   7   5 46.2301 9.36135   3
   5   0   7 51.4314 8.20283   3
   7   5   0 54.5247 9.61864   2
   7  -2   5 230.425 14.5848   2
  -5  -2   7 237.189 13.1748   1
   5   7  -2 231.971 15.3946   2
   5   7  -2 260.475 16.4815   3
  -5  -2   7 249.515 14.5250   3
  -5   7   2 248.208 17.0313   3
  -2  -5  -7 248.041 15.0877   1
  -2  -5  -7 229.946 13.1122   2
   2  -7  -5 254.604 15.7407   1
   7  -2   5 225.647 12.7045   3
  -2  -7   5 245.693 13.8294   1
  -2   7  -5 233.886 13.4901   2
  -5  -7  -2 251.271 20.1943   1
  -2  -7   5 243.781 15.8037   3
   5  -7   2 254.745 14.5410   1
   2   7   5 226.431 17.5228   3
   5  -2  -7 234.751 12.9812   1
   5  -2  -7 246.517 16.1905   2
  -7  -5   2 221.211 19.0076   1
  -2   5   7 226.783 16.6744   3
   5  -7   2 267.793 17.9486   3
   5   2   7 256.590 15.3630   2
   5   2   7 238.494 15.3873   3
   7  -5  -2 251.361 15.7647   1
   7  -5  -2 248.146 14.3309   2
  -7   2   5 242.427 12.8010   3
   2  -5   7 238.883 15.7213   3
   5  -7   2 238.200 11.6398   2
   7   5   2 244.153 16.2704   2
   7   5   2 236.885 12.6350   3
   2   5  -7 248.700 15.9503   2
  -7  -2  -5 235.466 18.1307   1
  -7   2   5 240.525 15.7352   1
   7   2  -5 235.405 17.8553   2
   2  -7   5 243.770 12.1730   1
   5  -2   7 240.143 14.6152   2
   5   7   2 237.552 17.0506   3
   2   7  -5 234.823 14.0808   2
   7   5  -2 239.283 17.1254   2
   5   2  -7 253.589 17.1361   2
   7  -5   2 236.423 13.7933   2
  -5  -7   2 251.430 18.2999   1
   5  -2   7 236.894 14.8454   3
   2  -5  -7 246.576 13.9706   1
   2  -5  -7 249.229 13.4370   2
  -7   2  -5 253.470 14.9574   1
   2  -7   5 227.129 15.2559   3
  -5  -2  -7 225.760 15.7104   1
   7  -2  -5 248.239 18.3720   2
  -7  -5  -2 242.382 20.1527   1
   2   5   7 240.104 17.2859   3
  -2  -5   7 241.099 15.7562   3
  -2   5  -7 237.721 15.1522   2
   7   2   5 236.646 12.9929   3
   5   7   2 223.649 13.0694   2
  -7  -2   5 248.541 15.6483   1
  -2  -7  -5 266.797 18.1026   1
  -7   5   2 243.748 13.2624   3
   7  -5   2 239.863 14.4334   1
   7   2   5 254.967 16.8773   2
  -2   7   5 250.593 18.1183   3
  -5   2   7 236.988 15.0085   3
   5  -7  -2 229.853 15.1647   1
   4   5  -7 137.830 12.5349   2
  -7   4   5 138.242 10.1885   3
  -7  -5   4 133.756 13.9984   1
  -4  -7   5 152.642 12.0046   3
  -5  -7  -4 134.765 15.4980   1
   7  -4   5 138.172 10.9156   2
   4  -7  -5 132.657 11.7429   1
   7   5   4 150.514 10.6179   3
   5  -4  -7 130.168 10.1823   1
   4  -5   7 144.779 12.0166   3
   5   4   7 145.553 12.4428   3
   7  -5  -4 148.862 12.1419   1
   7  -5  -4 148.135 11.7874   2
  -4  -5  -7 146.671 13.6499   1
   5  -7   4 135.242 9.86363   1
   5  -7   4 129.103 11.6898   3
   7   5   4 144.134 12.4143   2
  -7  -4  -5 146.534 15.1291   1
  -5   4  -7 154.842 12.7945   2
   5   4   7 159.302 11.6051   2
   7  -4   5 159.647 10.9746   3
  -4  -7   5 157.153 12.5476   1
   5  -4  -7 137.616 12.0948   2
  -4   7  -5 146.874 10.6865   2
  -7  -5   4 142.326 9.35220   3
  -5   7   4 162.450 13.2909   3
   5   7  -4 136.377 12.0233   2
  -5  -4   7 149.073 10.9604   3
   4   7   5 115.218 11.9480   3
   7   4  -5 154.312 14.5155   2
  -4   5   7 143.653 12.6008   3
   4  -7   5 138.396 9.23165   1
  -4   5  -7 137.890 11.6585   2
   5   7   4 136.026 12.0151   3
   7  -5   4 145.938 10.9236   2
   4   7  -5 124.342 11.0104   2
   7  -5   4 153.733 11.6202   3
   7   5  -4 137.384 13.7714   2
   4  -5  -7 143.355 10.6421   1
   5   7   4 109.544 8.42028   2
   4  -7   5 131.215 11.3849   3
  -5  -7   4 144.070 12.8071   1
  -7  -4   5 150.306 13.2760   1
  -5   4   7 138.633 11.8493   3
   4  -5  -7 135.162 10.6921   2
   7  -4  -5 145.993 11.7898   1
   7  -4  -5 133.626 12.5488   2
   4   5   7 150.172 13.4456   3
   5  -7  -4 149.453 12.2975   1
   5   4  -7 129.893 12.7320   2
  -7  -4   5 132.726 8.47845   3
  -7  -5  -4 153.369 15.7018   1
  -4  -7  -5 120.439 14.2695   1
  -7   4  -5 149.888 11.0403   1
   5  -4   7 145.800 11.4678   3
   7   4   5 144.123 12.6502   2
   7   4   5 149.189 10.7420   3
  -5  -7   4 142.721 11.5094   3
  -7   5   4 146.479 10.5987   3
  -5  -4  -7 111.715 12.0078   1
  -4  -5   7 144.835 11.5233   3
  -4   7   5 137.236 12.8418   3
   6   7  -1 75.2501 8.44343   2
   7  -6  -1 84.2020 8.72391   1
   6  -7   1 93.1108 6.72767   2
   1   7   6 69.7374 11.6166   3
   6  -7   1 91.3685 8.96159   1
  -7  -1  -6 89.6177 10.2246   1
  -7  -6   1 94.9912 12.1173   1
  -7   6  -1 90.4374 9.80446   3
   6  -1  -7 76.8984 11.5210   2
  -7   1   6 90.5827 8.75141   1
  -6  -1   7 78.1697 7.34871   1
  -6  -1   7 98.6294 8.46830   3
   7   1  -6 84.4936 12.9556   2
   6   1   7 81.8070 8.22392   3
  -6   7   1 85.8037 9.56172   3
  -1  -7   6 84.0340 9.37248   3
  -1   7  -6 82.3887 8.01583   2
   1   6  -7 84.1059 8.94967   2
   1  -7  -6 86.4135 9.18551   1
   7  -6  -1 82.9030 7.08690   2
   1  -6   7 86.0176 9.22925   3
  -1  -6  -7 88.6313 8.93597   1
   7  -1   6 86.0786 7.71956   3
  -6  -7  -1 74.1381 12.5742   1
   7   6   1 94.6606 9.46972   2
   6   7  -1 84.8481 7.87782   3
  -1   6   7 93.5206 11.3317   3
   7   6   1 81.2751 6.53180   3
   6   1   7 77.1241 8.66404   2
   7  -1   6 95.3054 9.58924   2
  -7   1   6 93.4549 7.55489   3
   6  -1   7 100.560 9.40997   2
  -6   1   7 94.7405 8.72169   3
   7   6  -1 90.2150 6.67558   3
   6  -1   7 94.7944 8.71442   3
   6   7   1 93.7147 8.06437   3
   1   6   7 84.6248 10.6539   3
   6  -7  -1 82.2761 8.67710   1
  -7   6   1 88.6847 8.15145   3
   7  -6   1 86.3558 7.41990   2
   6   1  -7 72.0081 11.4033   2
   7  -1  -6 88.2943 10.8504   2
   7   1   6 95.0035 10.0389   2
   7   1   6 84.6786 7.74592   3
   1  -7   6 82.2971 9.12825   3
  -7  -1   6 89.7195 8.51724   1
  -7  -1   6 89.5094 7.12121   3
  -7   1  -6 83.8501 8.49360   1
  -6  -1  -7 97.7483 10.4076   1
   7  -6   1 87.4701 8.74502   1
  -6   1   7 84.4372 7.74180   1
  -6  -7   1 77.9966 10.1057   1
  -6   7  -1 77.6327 12.6985   3
  -1  -7  -6 85.6145 9.54262   1
   6  -7  -1 93.5869 6.55742   2
  -1  -6   7 99.4282 10.0554   3
  -1   6  -7 95.5320 9.31123   2
   6   7   1 100.877 8.43388   2
   1  -6  -7 96.6124 8.77520   1
   1   7  -6 78.7599 7.90646   2
  -1   7   6 66.8912 11.3680   3
  -7  -6  -1 82.6948 14.0831   1
   7   6  -1 79.3760 9.29992   2
  -6  -7  -3 13.5970 6.99441   1
   7   6   3 10.6246 4.31246   2
  -7   3   6 12.0704 3.41710   3
  -7  -3  -6 13.7108 5.02957   1
   7  -6  -3 10.3315 3.05970   2
   7  -3   6 12.9345 4.35266   2
   6  -7   3 12.3296 3.12550   2
  -7  -6   3 8.72884 4.63085   1
  -6   7   3 17.2660 4.66516   3
   6   3   7 11.5800 4.87476   2
   6   3   7 9.85754 4.36050   3
   7  -6  -3 12.7157 4.83322   1
  -3  -7   6 21.7376 4.26405   1
   3  -7  -6 13.7586 4.76468   1
   7  -3   6 16.2319 3.90168   3
  -3  -7   6 9.67754 4.29444   3
  -3   7  -6 10.6311 3.55142   2
   6  -3  -7 13.9588 4.10400   1
   7   6   3 11.9769 3.27879   3
  -3  -6  -7 16.4828 5.39040   1
  -3  -6  -7 15.3459 2.52776   2
   3   7   6 6.37758 3.98644   3
   6   7  -3 16.9834 5.75977   2
  -6  -3   7 12.5814 3.25975   1
  -6  -3   7 13.8540 3.78294   3
   7   3  -6 10.7454 5.31567   2
   6  -7   3 16.9798 5.54305   3
   6  -7   3 20.9757 5.25056   1
   6  -3  -7 12.5474 3.96500   2
  -3   6   7 14.3582 5.88995   3
   3  -6   7 14.7311 4.80865   3
   3   6  -7 14.2806 4.96024   2
  -6   3   7 17.6802 5.18573   3
   3  -6  -7 12.1133 4.12739   1
  -3   7   6 13.4284 5.57677   3
  -3   6  -7 11.0196 3.99537   2
   3   6   7 4.52434 5.09409   3
   6  -7  -3 8.60347 3.93805   1
  -7   3  -6 10.5496 3.71656   1
   6  -3   7 11.7309 3.89455   2
  -3  -7  -6 10.5211 5.14330   1
  -6  -3  -7 12.2469 4.59977   1
   6   7   3 8.12388 3.28632   2
   6   7   3 8.92537 2.92473   3
   7  -3  -6 16.5557 4.49971   1
   7  -3  -6 12.4938 5.07289   2
  -7  -3   6 6.71941 2.67165   3
   7  -6   3 13.0798 3.64798   2
   7   6  -3 25.7847 7.31706   2
   7   3   6 15.7928 5.08721   2
   7   3   6 10.3784 3.18119   3
   6   3  -7 12.7098 5.30951   2
  -7  -6  -3 9.41649 5.79383   1
   6  -3   7 9.53157 3.60688   3
  -7   6   3 13.9807 4.01999   3
  -7  -3   6 8.52999 3.90496   1
   7  -6   3 13.2485 3.80999   1
   3  -7   6 14.9903 4.72016   3
   3   7  -6 6.90540 3.92703   2
  -3  -6   7 9.57967 4.10603   3
  -6  -7   3 9.29652 5.05154   1
   7  -6   3 12.9694 4.21931   3
   6  -7   5 165.968 11.2134   1
   6  -7   5 164.920 13.3547   3
   6   7  -5 160.638 14.2277   2
  -7   5   6 157.250 12.0928   3
  -6  -7  -5 183.273 18.2868   1
  -5  -7   6 170.450 12.5238   3
   7   6   5 163.100 12.9309   2
   7  -5   6 165.200 12.4054   2
   7  -5   6 172.395 12.5871   3
   7   5  -6 152.799 15.1795   2
   6   5   7 177.170 14.0653   3
  -5   6   7 162.881 13.9187   3
  -7  -5  -6 160.240 15.5002   1
  -6  -5   7 169.347 12.5186   1
  -6  -5   7 172.375 11.7970   3
  -5  -7   6 179.604 13.4330   1
   6  -5  -7 169.247 12.3650   1
   6  -5  -7 164.453 13.9341   2
   7   6   5 148.527 11.7892   3
  -5   7  -6 186.649 13.1662   2
  -6   7   5 170.827 13.3948   3
  -5  -6  -7 120.160 13.7586   1
   7  -6  -5 155.681 12.9333   1
   7  -6  -5 193.496 12.9475   2
  -7  -6   5 165.861 14.4999   1
   5   7   6 165.457 14.3394   3
   5  -6   7 146.364 12.4526   3
   5   6  -7 142.889 13.7630   2
   5   7   6 150.009 10.1911   2
  -7  -6   5 159.676 10.8361   3
   6   5   7 167.894 12.4618   2
   5  -7  -6 183.174 13.7891   1
  -7  -6  -5 171.329 16.9609   1
   7   5   6 158.520 13.0071   2
  -7   6   5 162.628 12.2500   3
  -6  -5  -7 170.062 16.0246   1
   7   5   6 168.504 12.9739   3
  -7  -5   6 156.456 10.2399   3
  -6   5   7 153.664 12.8506   3
  -5  -7  -6 148.337 16.4469   1
  -7   5  -6 171.591 11.9723   1
  -6  -7   5 182.112 14.4339   1
  -6  -7   5 177.460 12.4721   3
  -5   7   6 159.659 13.9702   3
  -7  -5   6 172.080 14.7748   1
   5  -7   6 166.486 13.3540   3
   5   7  -6 159.379 13.8338   2
   5   6   7 183.581 11.9652   2
   5  -6  -7 172.061 12.7026   1
   6   7   5 151.912 10.9154   2
   6   7   5 157.076 12.8473   3
   6  -5   7 170.730 12.9118   3
   6   5  -7 170.933 15.4565   2
   6  -7  -5 173.435 13.6443   1
   5   6   7 149.700 13.6473   3
  -5  -6   7 162.065 11.9825   3
  -5   6  -7 160.418 13.2561   2
   7  -6   5 151.631 11.3477   2
   7  -6   5 172.880 13.2525   3
   7   6  -5 164.158 15.6980   2
   7  -5  -6 161.543 13.9289   2
   7  -5  -6 186.175 13.7011   1
  -7  -7   0 4.32617 3.90328   1
  -7   0  -7 4.18351 3.08094   1
  -7   0   7 4.37215 2.59061   1
  -7   0   7 3.65449 2.37854   3
  -7   7   0 5.14417 2.99821   3
   0  -7  -7 3.23668 2.79043   1
   0  -7   7 2.52665 3.12252   3
   0   7  -7 2.73855 2.50836   2
   0   7   7 2.36973 3.21272   3
   7  -7   0 0.18315 1.82551   1
   7  -7   0 4.84823 1.64066   2
   7   0  -7 3.35439 3.40088   2
   7   0   7 5.79844 3.31620   2
   7   0   7 3.28210 2.29652   3
   7   7   0 4.47162 2.74911   2
   7   7   0 4.97539 1.91130   3
  -7  -7  -2 473.852 29.4266   1
  -7  -7   2 480.701 28.6502   1
  -7  -2  -7 510.430 27.7300   1
  -7  -2   7 492.985 23.9074   1
  -7  -2   7 469.270 20.9125   3
  -7   2  -7 499.521 22.9000   1
  -7   2   7 487.426 23.7783   1
  -7   2   7 476.731 22.2867   3
  -7   7  -2 443.593 27.4808   3
  -7   7   2 502.049 24.5223   3
  -2  -7  -7 488.957 26.0778   1
  -2  -7   7 452.209 24.1521   3
  -2   7  -7 500.318 23.6472   2
  -2   7   7 506.626 28.4761   3
   2  -7  -7 467.254 23.5262   1
   2  -7   7 489.429 25.0904   3
   2   7  -7 472.916 23.8726   2
   2   7   7 484.014 28.5070   3
   7  -7  -2 497.852 25.1009   1
   7  -7  -2 474.016 19.9745   2
   7  -7   2 479.985 23.5240   1
   7  -7   2 507.069 21.3256   2
   7  -2  -7 493.909 28.0000   2
   7  -2   7 474.182 23.5923   2
   7  -2   7 530.499 23.8497   3
   7   2  -7 470.548 27.3971   2
   7   2   7 488.335 25.1991   2
   7   2   7 467.640 23.2538   3
   7   7  -2 491.383 25.5846   2
   7   7  -2 506.462 22.3286   3
   7   7   2 492.727 23.5816   2
   7   7   2 483.337 22.1583   3
  -7  -7  -4 15.4193 6.96965   1
  -7  -7   4 13.9799 5.14386   1
  -7  -7   4 9.39313 2.86224   3
  -7  -4  -7 8.79014 4.43485   1
  -7  -4   7 14.9925 3.93273   1
  -7  -4   7 8.18810 2.82412   3
  -7   4   7 9.76551 3.45881   3
  -7   7   4 12.1932 3.38898   3
  -4  -7  -7 4.55789 3.97691   1
  -4  -7   7 11.6546 4.29479   3
  -4   7  -7 12.7502 4.44676   2
  -4   7   7 11.0751 4.76880   3
   4  -7  -7 12.4780 4.72499   1
   4  -7   7 12.0088 4.36009   3
   4   7  -7 11.8105 5.02014   2
   4   7   7 11.8378 5.50239   3
   7  -7  -4 14.0753 5.25572   1
   7  -7   4 18.2077 4.69748   1
   7  -7   4 11.6154 3.03498   2
   7  -7   4 8.09923 3.08714   3
   7  -4  -7 9.88394 3.53104   1
   7  -4  -7 9.27359 3.03223   2
   7  -4   7 10.9730 4.04251   2
   7  -4   7 13.3934 3.99807   3
   7   4  -7 12.0392 5.93581   2
   7   4   7 4.71912 3.43388   2
   7   4   7 8.53804 3.37847   3
   7   7  -4 14.3864 6.08400   2
   7   7   4 10.1916 3.83342   2
   7   7   4 11.2235 2.94134   3
  -7  -7  -6 2.79981 4.03719   1
  -7  -7   6 1.69965 2.51586   1
  -7  -7   6 1.71950 2.15399   3
  -7  -6  -7 -1.0068 3.46568   1
  -7  -6   7 7.28950 2.74297   1
  -7  -6   7 5.11628 2.09684   3
  -7   6   7 2.30193 2.12825   3
  -7   7   6 2.47248 2.41766   3
  -6  -7  -7 -2.1000 3.79741   1
  -6  -7   7 -0.1603 2.02368   3
  -6   7  -7 2.74320 2.19898   2
  -6   7   7 3.48561 2.65919   3
   6  -7  -7 -0.5216 2.20568   1
   6  -7   7 0.98684 1.60834   3
   6   7  -7 4.17898 3.78650   2
   6   7   7 -1.6506 3.02265   3
   7  -7  -6 1.30849 2.83871   1
   7  -7   6 0.98985 1.86635   3
   7  -6  -7 2.53764 2.89439   1
   7  -6   7 2.06280 2.10055   3
   7   6  -7 4.66936 3.88412   2
   7   6   7 0.31264 2.58026   2
   7   6   7 3.47115 2.52985   3
   7   7  -6 -3.6401 2.61511   2
   7   7   6 4.38044 2.23356   2
   7   7   6 3.74036 2.64440   3
  -8   0   0 2105.06 70.1108   1
   0  -8   0 2151.48 69.2295   1
   0   0  -8 2109.35 66.5238   2
   0   0   8 2102.77 68.9281   3
   0   8   0 2140.98 72.7322   3
   8   0   0 2090.23 71.7637   2
   1   1   8 372.588 20.8540   3
   1   8  -1 376.263 22.7521   3
   1   8   1 376.507 22.1245   3
   8  -1  -1 353.142 21.6414   2
   8  -1   1 392.493 21.8335   2
   8   1  -1 378.721 22.5382   2
   8   1   1 352.006 21.7918   2
  -1   8   1 409.205 24.0249   3
   1  -8  -1 365.857 19.6109   1
   1  -8   1 387.393 19.3404   1
   1  -1  -8 324.544 17.9748   2
   1  -1   8 376.017 20.7800   3
   1   1  -8 378.382 19.6205   2
  -1  -1   8 349.085 20.0497   3
  -1   1  -8 356.074 19.0329   2
  -1   1   8 354.407 20.2701   3
  -1   8  -1 361.320 23.1439   3
  -8   1   1 379.185 20.6218   1
  -1  -8  -1 392.322 21.6401   1
  -1  -8   1 355.504 20.0090   1
  -1  -1  -8 381.815 18.8690   2
  -8  -1   1 350.805 20.5974   1
  -8   1  -1 352.056 19.9503   1
  -8  -1  -1 382.678 21.6934   1
   0   8   2 20.1184 6.31505   3
   0  -8   2 10.7256 4.45922   3
   2   0   8 16.8707 5.24739   3
   8  -2   0 12.6732 4.59869   2
   8   2   0 8.01213 4.52009   2
   0   2  -8 11.7527 4.10759   2
  -2   8   0 9.67052 5.00579   3
   0   2   8 12.2351 4.85266   3
   2  -8   0 9.40330 3.77259   1
   2   8   0 8.48721 4.24798   3
   8   0  -2 11.3829 4.85891   2
   0  -2  -8 9.50820 3.81670   2
   0  -2   8 13.3990 4.62765   3
  -2  -8   0 11.4899 4.62656   1
  -8   0  -2 15.4008 5.38020   1
   2   0  -8 11.2961 3.78532   2
   0  -8  -2 13.3992 4.63487   1
   0  -8   2 7.86453 3.35937   1
  -8  -2   0 11.8868 4.97993   1
  -8   2   0 8.70583 3.99034   1
  -2   0  -8 6.91061 2.87041   2
  -2   0   8 8.15181 4.08187   3
   8   0   2 9.67670 4.24551   2
  -8   0   2 15.6524 4.77779   1
  -2  -2   8 1346.51 48.9859   3
  -8  -2   2 1377.39 51.8239   1
  -8   2  -2 1281.85 48.6862   1
  -8   2   2 1425.28 51.3167   1
  -2  -8  -2 1379.69 53.3699   1
  -2  -8   2 1354.11 50.5800   1
  -2   2  -8 1325.25 48.4867   2
   8   2  -2 1405.50 52.6817   2
   8   2   2 1332.68 51.8485   2
  -2   8   2 1432.58 54.9683   3
   2  -8  -2 1327.21 48.9377   1
   2  -8   2 1426.82 47.5940   1
  -2  -8   2 1393.83 50.8092   3
  -2  -2  -8 1415.51 47.7545   2
  -8  -2  -2 1453.81 53.9591   1
   2   2   8 1352.43 50.3689   3
   2   8   2 1364.81 51.7142   3
   8  -2  -2 1362.49 51.9896   2
   8  -2   2 1492.24 50.5957   2
   2  -2   8 1449.22 50.1730   3
   2   2  -8 1332.80 48.3976   2
  -2   2   8 1410.45 50.4919   3
   2  -2  -8 1358.51 46.8807   2
   2  -8   2 1433.57 51.8445   3
  -8  -3   1 394.656 23.9725   1
  -3  -1   8 412.943 21.8471   3
   3  -8   1 427.281 20.9423   1
  -3  -8  -1 414.128 25.7195   1
   3  -1  -8 435.509 21.4646   2
  -8  -1  -3 413.588 23.4730   1
  -1   3   8 430.595 23.0882   3
   1   8   3 383.890 23.9554   3
  -8   1   3 436.474 22.9012   1
   3   8  -1 398.221 23.0622   3
  -1  -8   3 425.401 20.9449   1
  -1  -8   3 422.666 22.9557   3
   8  -1   3 417.190 22.6199   2
   8   1  -3 405.807 24.2346   2
   1  -8  -3 451.767 22.5661   1
  -8   3  -1 413.687 21.8180   1
  -1   8  -3 410.980 16.5599   2
   1   3  -8 424.795 21.6358   2
  -3   1  -8 427.522 21.7268   2
   3   1   8 445.677 22.8246   3
   8  -3  -1 439.971 22.8568   2
  -3   8   1 422.025 25.4032   3
  -1  -3  -8 421.808 19.9521   2
   8   3   1 419.794 23.5939   2
   1  -3   8 415.917 21.9548   3
  -8  -1   3 393.632 21.9710   1
   1  -3  -8 429.863 19.8906   2
  -8   1  -3 441.159 22.4399   1
   1   8  -3 397.927 17.1998   2
   1   3   8 395.995 22.4832   3
   1  -8   3 381.735 21.8129   3
  -1  -3   8 419.119 21.9815   3
   8   1   3 419.309 23.7175   2
   3   1  -8 406.605 21.6352   2
   1  -8   3 395.159 19.2929   1
  -8   3   1 379.618 21.9282   1
  -3  -1  -8 399.636 20.7606   2
  -3  -8   1 393.662 24.2397   1
   3  -1   8 415.026 21.8470   3
   8  -3   1 397.578 21.2110   2
   8   3  -1 401.070 23.5668   2
   3   8   1 431.448 22.9689   3
   8  -1  -3 447.903 25.1887   2
   3  -8  -1 384.537 20.8131   1
  -1   8   3 394.041 24.8717   3
  -8  -3  -1 438.420 25.7279   1
  -1  -8  -3 435.185 23.8015   1
  -1   3  -8 436.333 21.9436   2
  -3   8  -1 429.069 26.0513   3
  -3   1   8 436.888 22.5574   3
   3   8   3 1656.39 60.3417   3
   3  -8   3 1708.76 54.8181   1
   3  -3   8 1724.06 58.1133   3
   3   3  -8 1733.00 58.1219   2
   3   3   8 1561.83 58.3776   3
  -8  -3  -3 1634.00 64.0134   1
   3   8  -3 1756.48 54.2356   2
  -8   3  -3 1606.72 56.8736   1
  -3  -8  -3 1617.02 64.0207   1
  -3  -8   3 1591.26 59.7575   1
  -3  -8   3 1703.79 58.6151   3
  -3  -3  -8 1742.46 54.0430   1
  -3  -3  -8 1714.32 55.8481   2
  -3  -3   8 1676.82 56.6909   3
   8   3   3 1618.03 59.5801   2
   3  -8   3 1664.19 59.1814   3
   3  -3  -8 1596.95 51.7706   1
   3  -3  -8 1655.20 55.4407   2
   3  -8  -3 1660.46 57.7260   1
   8  -3  -3 1615.37 59.7479   2
   8  -3   3 1664.10 55.9357   2
   8   3  -3 1666.67 61.0668   2
  -3   8  -3 1633.04 50.7066   2
  -3   8   3 1705.85 62.6351   3
  -3   3   8 1664.00 58.0919   3
  -8  -3   3 1695.61 61.1605   1
  -3   3  -8 1686.17 57.3569   2
   0   4  -8 19.3421 5.50987   2
   0  -4  -8 22.2534 4.38249   2
   0  -4   8 29.6947 6.76032   3
   8  -4   0 21.9492 5.55029   2
   8   4   0 29.7249 7.74793   2
   8   0   4 29.3255 7.15806   2
   0   8  -4 21.9481 3.93859   2
   0   8   4 28.6452 8.02834   3
  -4  -8   0 27.6407 7.79339   1
  -4   8   0 20.6309 6.93171   3
   0  -4  -8 22.6614 4.28855   1
   0  -8   4 24.7774 6.68335   3
  -4   0   8 19.1098 5.44129   3
   0   4   8 20.1794 5.81417   3
   4   0  -8 37.0182 7.74173   2
   4   0   8 22.3607 6.22785   3
   8  -4   0 26.1452 5.81484   1
  -8   0   4 24.6007 6.12802   1
   4  -8   0 30.1147 6.37168   1
   4   8   0 18.5744 5.10070   3
   8   0  -4 25.8189 7.54823   2
  -8   0  -4 24.4763 6.70660   1
   0  -8   4 31.3697 5.54358   1
   0  -8  -4 26.7735 6.86667   1
  -8  -4   0 23.1865 7.08788   1
  -4   0  -8 19.4826 5.56619   2
  -2  -8   4 32.0623 6.41487   1
   8   2  -4 13.6971 5.81029   2
  -2   8  -4 26.2790 4.27577   2
   4   8  -2 18.9202 6.42169   3
  -8   4  -2 38.3534 6.79933   3
  -8  -2  -4 16.0864 5.73344   1
  -4  -2   8 28.5421 6.23201   3
   4  -8   2 19.4745 5.05699   1
   4   8  -2 13.0112 3.97141   2
  -4  -8  -2 16.0445 6.32977   1
   2   8   4 36.8732 8.95892   3
   8   4   2 31.1744 7.51917   2
  -4   8   2 13.3266 5.62656   3
  -2  -4  -8 19.5282 4.22820   1
  -2  -4  -8 19.1842 4.29644   2
   8  -2   4 14.4017 4.75170   2
  -8   4  -2 18.9026 5.59153   1
  -2   4   8 18.5219 5.81459   3
   8  -4  -2 30.9120 6.56784   1
  -8  -4   2 28.7960 8.16253   1
   2  -4   8 16.2261 5.05450   3
   2   4  -8 17.0625 5.37067   2
  -2  -8   4 20.5605 6.27567   3
   8  -4  -2 32.6379 7.44299   2
   4   2   8 20.4196 5.98056   3
  -8   2   4 19.5247 5.79826   1
   2  -8  -4 30.2185 6.92336   1
  -4   2  -8 19.6666 5.76854   2
   4  -2  -8 32.3907 6.94492   2
   4  -2  -8 21.8868 4.12307   1
  -2   8   4 21.1173 7.03229   3
  -2  -4   8 25.4149 6.79693   3
  -4   8  -2 29.8025 4.50488   2
   4  -2   8 18.2112 5.18690   3
   4   2  -8 16.1845 5.59255   2
  -4  -8   2 24.0859 6.97037   1
   2  -4  -8 25.6091 4.72328   1
   2   8  -4 17.3059 3.98179   2
   8  -4   2 23.5254 5.69952   2
   2  -4  -8 33.1485 5.83537   2
   2  -8   4 18.6340 4.29285   1
   2  -8   4 16.8605 5.05091   3
   8  -2  -4 28.2078 7.24469   2
  -8  -2   4 24.9689 6.18162   1
   8   2   4 19.2237 5.82384   2
   8   4  -2 20.4102 6.88563   2
  -4  -2  -8 13.3463 4.33365   2
   4  -8  -2 32.1241 6.94802   1
   2   4   8 25.0428 6.70673   3
  -4   2   8 15.4442 5.31953   3
  -2  -8  -4 17.9221 6.16373   1
  -8  -4  -2 17.8076 7.40125   1
  -8   2  -4 34.0432 6.82011   1
  -2   4  -8 30.1889 6.54054   2
   4   8   2 34.6385 7.19049   3
   4   8  -4 838.024 34.8516   2
   4   8   4 915.713 39.3970   3
  -8   4   4 867.590 31.5369   3
   4   4  -8 905.852 38.0674   2
  -8   4  -4 870.176 35.6104   1
   8  -4  -4 931.658 37.0491   1
   4  -4  -8 926.767 36.0080   2
   4  -4   8 842.515 35.8018   3
  -8  -4   4 887.786 40.6379   1
   8  -4  -4 928.076 38.9117   2
  -8  -4  -4 832.126 43.0323   1
  -4  -8  -4 823.989 42.8343   1
  -4  -8   4 921.397 38.6831   1
  -4  -8   4 949.397 37.5103   3
  -4  -4  -8 942.849 37.5677   1
  -4  -4  -8 863.174 35.6315   2
   8  -4   4 833.432 34.3194   2
   8  -4   4 778.262 32.9012   3
   8   4  -4 898.803 41.0362   2
   8   4   4 876.149 38.5113   2
  -4   8   4 893.832 40.0500   3
   4  -8  -4 922.932 37.2476   1
   4  -8   4 890.307 33.2390   1
   4  -8   4 868.017 37.6436   3
   4  -4  -8 865.689 32.7675   1
  -4   8  -4 881.291 32.2008   2
  -4  -4   8 891.800 35.4663   3
   4   4   8 865.921 38.2969   3
  -4   4   8 842.886 37.6394   3
  -4   4  -8 906.098 37.0006   2
  -1   5   8 18.3352 6.04073   3
  -8  -5   1 28.4816 8.87022   1
   8  -5  -1 27.7878 6.38159   1
   5  -1  -8 26.7740 6.74675   2
  -8   5  -1 40.1737 6.87041   3
   8  -5  -1 38.8036 7.38116   2
  -1  -5  -8 28.1417 5.13373   1
  -1  -5  -8 28.4210 4.90720   2
   8  -1   5 28.3958 3.09085   3
  -8  -1  -5 30.9160 7.62843   1
  -1  -8   5 33.0585 7.59359   3
   5   1   8 26.3759 6.64566   3
   5  -8   1 27.6424 6.38317   1
   1  -5   8 31.1650 7.23449   3
   1   5  -8 23.2732 6.04782   2
   8   5   1 31.1728 7.30847   2
   5   8  -1 16.6773 4.19684   3
   5   1   8 32.4821 6.80522   2
   8  -1   5 24.6612 6.13385   2
  -5   8   1 20.0718 7.17882   3
   8   1  -5 30.5438 9.28884   2
  -1   8  -5 37.5923 5.88580   2
  -5  -1   8 29.6582 6.48911   3
  -8   1   5 29.5399 6.85573   1
   1  -8  -5 31.5640 7.28377   1
   1   8   5 19.9813 6.45157   3
  -5  -8  -1 34.8515 10.9322   1
   5   8  -1 21.2432 4.56092   2
  -1  -8   5 36.9283 4.39517   1
  -5   1   8 26.3060 4.89311   1
   5  -1   8 18.4996 5.21373   3
   8  -1  -5 38.1367 9.46255   2
  -8  -1   5 19.0638 5.39631   1
   5  -8  -1 51.4332 9.04782   1
   1  -5  -8 32.5087 5.49941   1
   5   1  -8 25.5332 6.66795   2
  -5  -8   1 37.8592 9.02075   1
  -5   8  -1 26.9187 8.08817   3
  -1  -5   8 30.6753 7.20659   3
   5   8   1 42.6575 4.81861   2
  -5   1   8 26.3615 6.32616   3
   8   5  -1 25.7396 6.46546   2
   1   5   8 27.8187 7.20710   3
   8  -5   1 27.0789 6.38442   1
   8  -5   1 34.3899 6.64068   2
  -8  -5  -1 22.4626 8.42007   1
  -1   5  -8 37.8713 7.63476   2
  -8   1  -5 40.7100 7.82177   1
  -1   8   5 23.0591 7.31834   3
  -1  -8  -5 27.9308 7.14259   1
   1  -8   5 23.5158 4.32015   1
   1  -8   5 30.0310 6.96028   3
   1   8  -5 32.3209 5.83532   2
   1  -5  -8 33.5495 5.53577   2
   8   1   5 25.3232 7.13940   2
   5   8   1 26.1189 5.97964   3
  -8   5   1 29.5533 5.29168   3
   3   5  -8 144.500 13.0135   2
   8   5   3 163.172 13.7482   2
   3  -5   8 157.190 13.0424   3
   5   3   8 154.238 12.2219   2
  -5   8   3 168.248 14.9890   3
   5  -8   3 162.855 14.1882   3
   5   8  -3 172.821 13.2496   2
  -5  -3   8 171.884 12.3565   3
  -5   3  -8 192.444 14.6734   2
   8  -3   5 152.080 12.1473   2
   8  -3   5 160.094 10.6852   3
  -8  -3  -5 146.990 16.1984   1
   5  -3  -8 167.162 10.8882   1
   5  -3  -8 176.202 13.7717   2
  -8   3   5 163.024 10.3275   3
  -5  -8  -3 134.144 16.1296   1
   3   8   5 171.233 15.4438   3
   5   3   8 159.397 13.3990   3
  -3  -8   5 173.740 12.8224   1
  -3  -5  -8 163.308 12.4150   1
  -3  -5  -8 149.004 11.2366   2
   8  -5  -3 171.676 12.8599   2
   5  -8   3 145.587 11.0085   1
  -3   5   8 130.136 13.1351   3
   8   3  -5 144.258 15.2191   2
   8  -5  -3 165.055 13.2332   1
   3  -8  -5 162.638 13.4642   1
  -3  -8   5 163.250 13.5359   3
  -3   8  -5 168.352 11.2401   2
  -8  -5   3 147.248 15.9402   1
  -5  -8   3 184.096 15.5554   1
   3  -8   5 157.614 13.2482   3
   3   5   8 171.339 14.9269   3
   3  -5  -8 165.869 11.5429   2
   8  -3  -5 151.029 14.5723   2
   3  -5  -8 161.993 11.0531   1
  -8  -5  -3 136.757 16.1322   1
   3  -8   5 151.183 9.93213   1
  -3   8   5 144.395 14.5727   3
  -3  -5   8 157.541 12.8997   3
   8  -5   3 157.736 11.8157   2
   5   8   3 151.769 12.9268   3
   5  -8  -3 160.252 13.2637   1
   8  -5   3 144.311 11.5359   3
   8   5  -3 167.821 15.3705   2
  -8  -3   5 152.244 13.4018   1
  -8   3  -5 169.359 12.5922   1
  -3   5  -8 158.049 13.1645   2
  -8   5   3 156.058 10.1924   3
  -5  -3  -8 144.291 12.6386   1
  -5   8  -3 163.556 10.4946   2
  -3  -8  -5 136.152 14.9303   1
   5   3  -8 147.557 13.9369   2
   3   8  -5 157.257 11.8199   2
  -5   3   8 169.702 13.3504   3
   8   3   5 192.777 15.4910   2
   5  -3   8 146.923 12.0615   3
   8  -5  -5 12.1919 4.62501   1
  -8  -5   5 8.15078 4.33431   1
  -8  -5  -5 1.51037 4.28577   1
   5   8   5 2.25635 2.85680   3
  -5  -8  -5 3.80313 5.74778   1
   5  -8  -5 8.54168 3.94137   1
   5  -8   5 4.71717 1.46644   1
  -8   5  -5 11.5827 3.67848   1
   5  -5  -8 11.0051 3.61774   1
   5  -5  -8 7.30131 2.52394   2
   5  -5   8 6.67647 3.61637   3
  -8   5   5 5.52589 2.30679   3
   5   5  -8 9.65659 4.55569   2
   5   5   8 11.2370 4.33442   3
   5   8  -5 10.9339 3.99312   2
   8  -5   5 8.76686 3.04321   3
   5  -8   5 8.08113 3.67975   3
  -5   5   8 7.96785 3.85362   3
   8  -5  -5 10.0482 4.61698   2
   8  -5   5 6.58339 3.28172   2
  -5  -5   8 6.13203 3.47091   3
   8   5  -5 1.96129 4.26416   2
  -5   8   5 7.62888 4.51582   3
  -5  -8   5 12.5184 4.07340   1
  -5  -8   5 9.46843 4.35699   3
  -5  -5  -8 5.88991 3.70158   1
   8   5   5 6.05951 6.96589   2
  -5   5  -8 11.2715 4.53128   2
  -5   8  -5 10.9457 3.35431   2
  -8   0   6 214.228 14.7797   1
   8   0   6 224.428 12.7276   3
   6   8   0 224.295 14.5013   3
   0  -6  -8 217.799 13.9934   1
  -6   8   0 226.648 18.0894   3
   8   0  -6 220.878 18.4382   2
   8   0   6 225.086 16.2000   2
   8  -6   0 215.429 15.1079   1
   8  -6   0 233.391 13.8815   2
   8   6   0 212.728 15.7654   2
   0  -8  -6 226.127 16.0290   1
  -6  -8   0 235.036 19.5260   1
   6   8   0 210.211 13.2201   2
  -8   0  -6 250.957 17.0934   1
   0   8  -6 217.579 13.8651   2
   0   8   6 221.901 18.6934   3
   6   0  -8 201.546 16.4519   2
   6  -8   0 233.242 15.6359   1
   6   0   8 207.304 14.5238   3
   6   0   8 237.035 15.5435   2
  -6   0   8 227.380 13.1702   1
  -8  -6   0 212.465 19.6077   1
   0  -6   8 211.447 16.0795   3
   0   6  -8 239.377 15.8900   2
   0   6   8 220.496 18.1772   3
  -6   0   8 220.732 14.4546   3
   0  -8   6 241.618 16.9991   3
  -8   6   0 243.591 14.4721   3
  -8   6  -2 409.907 23.6133   3
   8  -6  -2 403.122 22.4392   1
   2   6  -8 389.239 22.1799   2
  -6   8   2 424.323 24.0978   3
   6   8  -2 399.800 21.7939   2
   8  -2   6 409.367 19.4738   3
   8   2  -6 364.692 24.7851   2
  -8  -6   2 365.425 26.5844   1
   6   2   8 414.837 22.1357   3
   2   8   6 358.854 24.8168   3
  -2   6   8 410.752 24.8058   3
   8  -2   6 401.915 22.0025   2
   6   8  -2 402.962 21.6774   3
   6  -2  -8 385.061 23.1624   2
  -2  -6  -8 405.973 21.3531   1
   8  -6  -2 399.165 19.7875   2
  -2   8  -6 410.075 19.9918   2
   2  -8  -6 420.025 22.3828   1
  -6  -2   8 405.904 20.2687   3
   6  -8   2 398.706 21.0063   1
  -8  -2  -6 409.547 26.1038   1
   8   6   2 411.406 22.5538   2
  -2  -8   6 419.641 19.0587   1
  -2  -8   6 397.677 22.3700   3
   6  -8   2 379.563 16.7551   2
  -2  -6  -8 385.538 18.4125   2
   6   2   8 413.518 21.7206   2
   2  -6   8 397.704 22.5730   3
  -8   2   6 392.415 22.0806   1
  -6  -8  -2 412.123 27.4076   1
   6  -8  -2 407.954 22.3228   1
   8  -2  -6 423.347 26.2539   2
   8  -6   2 412.896 21.2555   1
   6  -2   8 370.943 20.5506   2
   6  -2   8 380.093 20.8574   3
  -2   8   6 397.693 25.5914   3
   6   8   2 399.840 18.9843   2
  -8  -6  -2 362.300 26.7055   1
  -8  -2   6 391.840 21.8992   1
  -6   2   8 393.149 20.9603   3
  -2  -8  -6 435.765 25.2598   1
  -8   2  -6 408.068 21.7038   1
  -2   6  -8 371.958 21.0891   2
   6   2  -8 423.965 24.7866   2
   2  -8   6 402.282 22.5517   3
   2   8  -6 387.213 20.3906   2
   8   6  -2 381.757 23.1218   2
   2   6   8 412.883 25.4498   3
   8   2   6 381.863 22.8294   2
  -2  -6   8 365.587 21.6559   3
   8  -6   2 400.861 19.6588   2
   2  -6  -8 398.515 20.1502   1
  -8   6   2 398.191 19.2305   3
  -6   2   8 397.185 19.6973   1
  -6   8  -2 413.997 26.6730   3
   6   8   2 415.426 21.5740   3
  -6  -2  -8 367.218 21.8986   1
  -6  -8   2 414.363 25.6817   1
  -4   6   8 82.9479 10.4701   3
   6  -8   4 74.8828 7.70340   1
  -4  -8   6 89.5192 9.91996   3
  -4   8  -6 87.8430 8.37744   2
  -6   8   4 83.2184 9.81134   3
   8  -4   6 80.4956 8.88600   2
   8  -4   6 70.1334 7.42841   3
   8   4  -6 65.6509 12.7359   2
   6   4   8 91.0421 10.0914   2
  -4  -6  -8 74.2951 7.06096   2
  -6  -4   8 97.4062 8.74423   3
  -8   4   6 80.4928 7.87427   3
  -4  -6  -8 84.3370 9.45018   1
  -6  -8  -4 71.2664 14.3896   1
   8  -6  -4 85.6161 8.41327   2
   4   6  -8 73.1313 12.0555   2
   4   8   6 93.4684 11.7009   3
   6  -4  -8 94.0652 8.53115   1
   6  -4  -8 86.1216 9.90781   2
   6   8  -4 78.2475 9.29242   2
   4  -6   8 72.1497 8.74757   3
   6   4   8 93.0689 10.0751   3
  -8  -4  -6 66.7943 12.5180   1
  -6   4  -8 89.9648 10.6922   2
   8  -6  -4 89.4199 10.1321   1
   8   6   4 84.5543 9.51692   2
  -4  -8   6 93.1450 8.81708   1
   6  -8   4 80.2949 12.7640   3
  -8  -6   4 87.7350 14.6707   1
   4  -8  -6 92.5159 10.3588   1
  -4  -8  -6 54.1190 11.2970   1
  -8  -4   6 88.5268 10.3753   1
  -8   4  -6 96.9066 9.07062   1
   8   4   6 80.8833 9.95280   2
   6  -8  -4 103.496 10.9301   1
  -4  -6   8 85.1468 9.31355   3
  -4   6  -8 96.2273 10.1729   2
  -8   6   4 70.2422 7.39961   3
  -6   4   8 65.0704 8.14493   3
   6   4  -8 74.7225 12.6018   2
  -8  -6  -4 68.3812 12.8243   1
  -6  -8   4 96.7546 10.6197   1
  -4   8   6 75.0041 12.5907   3
   6   8   4 99.6966 9.89718   3
   8  -4  -6 93.1542 10.0128   1
   8  -4  -6 90.7528 11.0669   2
   4  -8   6 73.2633 9.06669   3
  -6  -8   4 104.817 9.45235   3
   4   8  -6 68.0094 10.3757   2
   4   6   8 83.8137 13.1000   3
   6  -4   8 69.9473 8.31184   3
   8  -6   4 79.4725 8.26538   2
   8  -6   4 72.8148 8.57630   3
   8   6  -4 77.4359 13.4337   2
   4  -6  -8 96.9024 8.88211   1
  -6  -4  -8 68.6687 11.5535   1
   6  -8   6 43.8580 8.75615   3
   6  -6  -8 36.8203 6.85796   1
   6  -6   8 51.1360 9.00255   3
   6   6  -8 51.3456 10.5804   2
   6   6   8 35.3079 6.30960   2
   6   6   8 35.7176 8.10752   3
   6   8  -6 41.7798 8.85889   2
   8   6   6 30.1577 5.91979   2
  -8   6   6 48.4255 7.87727   3
  -6  -8   6 23.3688 4.40785   1
   6   8   6 34.1855 6.94144   3
   8  -6  -6 28.8496 6.82552   1
  -6   8   6 39.8165 8.74231   3
   6  -8  -6 32.7858 7.74101   1
  -6   6  -8 37.0516 7.99824   2
  -6   6   8 40.9887 8.24711   3
  -6   8  -6 47.6161 8.32637   2
  -6  -8   6 38.0632 7.30477   3
  -6  -6  -8 54.2791 10.7394   1
  -6  -6   8 39.9748 7.36639   3
  -8  -6  -6 43.6250 9.79127   1
  -8  -6   6 18.7091 5.41804   1
  -8   6  -6 35.9512 6.90589   1
  -6  -8  -6 36.5493 10.3535   1
   8  -6   6 44.8095 8.15868   3
   8   6  -6 34.8125 9.42537   2
   8  -6   6 46.3271 8.05705   2
  -8   1   7 334.639 19.7051   1
  -1  -8   7 372.364 22.5092   3
   8  -1   7 385.529 19.1841   3
   8   1  -7 363.989 24.7748   2
  -7  -1   8 359.899 19.0724   1
  -7  -1   8 367.630 18.9218   3
  -7   8   1 373.863 22.3397   3
  -1  -7  -8 370.254 20.4283   1
  -1   7   8 373.805 24.9534   3
  -8  -7   1 350.205 25.5412   1
   8  -1   7 366.274 21.4788   2
   7   8  -1 364.636 20.4103   2
   7   8  -1 342.122 17.9052   3
   8  -7  -1 376.102 17.9462   2
   7  -1  -8 390.541 24.1920   2
   1  -7   8 392.266 22.5900   3
   1   7  -8 366.900 20.5700   2
  -1   8  -7 352.278 19.4484   2
   7   1   8 366.785 21.3898   2
   7  -8   1 369.205 20.8169   1
  -8  -1  -7 372.591 23.8987   1
   8   7   1 343.567 20.0666   2
   8  -7  -1 362.734 21.2686   1
   1  -8  -7 362.434 20.9987   1
  -7  -8  -1 371.686 25.7522   1
  -8   7  -1 396.931 22.5897   3
   1   8   7 351.005 24.9530   3
   7   1   8 354.662 20.2798   3
  -8  -7  -1 376.517 26.1962   1
  -7  -8   1 353.440 24.7866   1
   7   1  -8 344.678 23.3827   2
   1   7   8 374.001 25.2450   3
  -1   7  -8 378.089 20.8877   2
  -8   1  -7 364.314 20.9261   1
  -8  -1   7 328.874 19.4629   1
   8  -7   1 354.214 20.5507   1
   8  -7   1 380.491 18.3395   2
  -1  -7   8 389.082 22.4824   3
   7  -1   8 350.845 20.4302   2
  -7   8  -1 331.828 22.8724   3
  -1   8   7 372.555 25.4385   3
   7   8   1 376.380 19.0023   3
   1  -8   7 375.118 22.5281   3
   1   8  -7 367.959 20.2552   2
   8   7  -1 358.532 21.2941   2
   1  -7  -8 371.196 19.9675   1
  -7   1   8 365.662 19.3027   1
   7  -1   8 339.762 19.4627   3
  -1  -8  -7 366.296 22.0330   1
   8  -1  -7 335.043 23.8643   2
   7  -8  -1 360.068 21.2783   1
   8   1   7 369.419 18.7489   3
   8   1   7 382.048 22.8454   2
  -7   1   8 378.485 19.7290   3
  -7  -1  -8 385.193 22.4509   1
   7   8   1 376.582 19.3225   2
  -8   7   1 387.626 20.1853   3
   8   7   3 504.854 24.9046   2
   8  -3   7 468.326 23.5696   3
   8  -3   7 457.607 23.9857   2
   7   8  -3 498.135 26.8252   2
   8   3  -7 483.901 29.7123   2
   7   3   8 521.026 26.6395   2
   3  -8  -7 506.824 25.5680   1
  -7  -3   8 495.666 22.6509   3
   3  -7   8 477.727 25.9856   3
   3   7  -8 515.716 26.7085   2
   7  -3  -8 500.849 28.6712   2
   3   8   7 533.921 31.0398   3
   7  -8   3 488.646 24.0632   1
   7  -8   3 506.670 21.6507   2
  -3   7   8 481.821 28.4516   3
   7   8  -3 501.785 24.4451   3
  -8   3   7 483.265 23.1003   3
  -7  -8  -3 463.124 30.6909   1
  -8   7  -3 430.052 27.8170   3
  -3  -8   7 528.825 26.6632   3
  -7   8   3 510.771 26.1811   3
  -3  -7  -8 500.244 27.1274   1
  -3   8  -7 501.116 24.1516   2
   8  -7  -3 492.474 25.9303   1
  -8  -3  -7 480.259 28.5335   1
   7   3   8 477.219 25.1201   3
  -8   3   7 490.128 25.4838   1
  -8  -7   3 505.355 30.5781   1
  -8  -3   7 502.234 25.9903   1
   3  -7  -8 483.434 24.2266   1
   7  -8  -3 493.385 26.4090   1
   3   7   8 478.131 29.5128   3
   8  -3  -7 514.569 29.9488   2
   7  -3   8 454.834 23.7754   3
   7   8   3 513.116 23.5261   2
   3   8  -7 453.103 24.1914   2
  -3   7  -8 498.186 25.0981   2
   8  -7   3 487.572 24.2740   1
  -7   8  -3 497.184 30.8411   3
   8   7  -3 484.807 27.4128   2
   8   3   7 531.499 28.1222   2
   7   8   3 516.590 24.7461   3
   3  -8   7 477.988 26.2586   3
  -3  -8  -7 463.565 28.2013   1
   8  -7   3 504.662 22.9044   2
  -3  -7   8 486.545 25.5378   3
  -3   8   7 466.343 28.5130   3
  -7   3   8 501.572 24.6011   3
  -7  -3  -8 523.907 28.1837   1
  -7  -8   3 510.106 29.1870   1
  -8   7   3 480.556 23.4173   3
   7  -3   8 489.168 24.7923   2
  -8   3  -7 521.133 24.5993   1
  -8  -7  -3 453.531 29.7972   1
  -8  -5  -7 15.4210 6.01735   1
   8   5  -7 24.8532 8.46129   2
   8  -5   7 18.5002 4.56911   3
   8  -5   7 12.7338 4.49870   2
  -5   8  -7 16.6226 4.45395   2
   5  -8  -7 11.9561 4.76653   1
  -5  -8   7 13.2137 4.38607   3
   7   8  -5 14.7222 5.38103   2
   7   5   8 12.8399 4.32962   2
   7   5   8 8.34009 3.43064   3
   7  -8   5 15.4119 3.69815   1
   7  -8   5 11.3061 4.67048   3
   5  -7   8 16.4569 5.18716   3
   5   7  -8 14.6665 5.66319   2
   8  -7  -5 13.6813 5.01267   1
   5   8   7 16.5443 4.75602   3
  -8   5   7 10.6842 3.05066   3
  -7  -8  -5 11.3646 5.79857   1
   8   7   5 11.8891 3.82474   2
  -7  -5   8 10.7529 3.11648   3
  -7   8   5 13.8827 4.65094   3
  -5  -7  -8 14.4483 6.03642   1
   7  -5  -8 20.3827 5.18835   1
   7  -5  -8 15.5608 4.65449   2
  -5   7   8 12.8770 4.96421   3
  -7   5  -8 12.3945 4.96701   2
  -8  -7   5 14.6217 4.60089   1
  -8  -7  -5 10.8875 6.53942   1
  -8   7   5 20.3267 4.66989   3
  -7  -5  -8 9.74817 5.12058   1
   8   5   7 15.4481 5.06762   2
   5  -7  -8 18.6111 5.07119   1
  -7   5   8 14.5268 4.08612   3
  -5  -8  -7 15.4765 6.70868   1
   8  -5  -7 7.38736 3.78928   1
   8  -5  -7 6.78269 3.31430   2
  -5   8   7 20.1075 6.59881   3
   7   8   5 10.5516 3.52431   3
   5  -8   7 20.1031 6.03729   3
   5   8  -7 16.4735 4.67475   2
  -8  -5   7 5.08095 3.57231   1
  -7  -8   5 20.3255 3.89293   3
  -5   7  -8 12.7718 4.35324   2
   7  -5   8 16.2775 4.72552   3
   7   5  -8 19.3418 7.53827   2
   5   7   8 10.2327 4.25550   3
   7  -8  -5 20.0121 6.76911   1
  -5  -7   8 16.0341 4.57359   3
   8  -7   5 13.8060 3.76434   2
   8  -7   5 18.0174 4.89789   3
   8   7  -5 13.8810 5.30495   2
  -7  -8   5 9.40079 3.68076   1
  -8  -7  -7 866.499 43.1988   1
  -8   7   7 786.966 35.2178   3
  -7  -8  -7 828.537 42.6241   1
  -7  -8   7 798.696 33.7040   3
  -7  -7  -8 816.204 41.4472   1
  -7  -7   8 738.938 32.1955   3
  -7   7  -8 822.128 36.9886   2
  -7   7   8 800.753 36.7009   3
  -7   8  -7 803.318 35.4898   2
  -7   8   7 758.172 36.0991   3
   7  -8  -7 801.955 36.6004   1
   7  -8   7 760.140 36.8079   3
   7  -7  -8 773.796 34.7856   1
   7  -7   8 795.110 36.6974   3
   7   7  -8 766.083 39.2119   2
   7   7   8 745.636 37.4654   3
   7   8  -7 771.277 38.8719   2
   7   8   7 784.820 37.3951   3
   8  -7  -7 774.321 35.9963   1
   8  -7   7 802.764 37.2816   3
   8   7  -7 811.700 41.2189   2
   8   7   7 728.094 35.2247   2
  -8  -8   0 522.002 32.3698   1
  -8   0   8 539.373 26.3474   1
  -8   8   0 601.972 29.4775   3
   0  -8  -8 569.714 27.8133   1
   0  -8   8 574.721 29.6474   3
   0   8  -8 552.597 27.0691   2
   0   8   8 550.164 33.0578   3
   8  -8   0 553.346 27.8391   1
   8   0  -8 567.203 32.3322   2
   8   0   8 575.565 28.6869   2
   8   0   8 586.222 26.5067   3
   8   8   0 563.511 27.1992   2
  -8  -8  -2 239.857 21.7471   1
  -8  -8   2 251.705 20.5098   1
  -8  -2  -8 281.117 19.4489   1
  -8  -2   8 275.651 16.7687   1
  -8   2   8 260.205 17.0828   1
  -8   8  -2 261.029 20.1199   3
  -8   8   2 287.237 17.8539   3
  -2  -8  -8 263.135 18.9010   1
  -2  -8   8 284.327 19.1736   3
  -2   8  -8 286.963 17.6799   2
  -2   8   8 257.256 21.3377   3
   2  -8  -8 288.883 18.1824   1
   2  -8   8 272.095 19.0200   3
   2   8  -8 248.137 17.2529   2
   2   8   8 273.648 22.4534   3
   8  -8  -2 265.736 18.4178   1
   8  -8   2 275.305 17.7102   1
   8  -8   2 277.921 14.8796   2
   8  -2  -8 272.526 20.9230   2
   8  -2   8 243.960 17.2920   2
   8  -2   8 242.554 15.9241   3
   8   2  -8 254.791 20.9030   2
   8   2   8 296.090 19.7305   2
   8   2   8 279.273 16.7190   3
   8   8  -2 257.590 17.8514   2
   8   8   2 293.081 16.7176   2
  -8  -8  -4 138.811 16.7434   1
  -8  -4  -8 142.252 13.4236   1
  -8   4   8 126.209 10.6430   3
  -8   8   4 134.353 11.5909   3
  -4  -8  -8 142.317 14.4599   1
  -4   8   8 158.637 15.4855   3
   4  -8   8 142.869 13.4791   3
   4   8  -8 136.095 12.8382   2
   8  -8   4 128.131 11.3625   1
   8  -8   4 132.386 10.1761   2
   8  -4   8 130.223 11.9545   2
   8  -4   8 139.498 11.5585   3
   8   4  -8 167.077 17.0116   2
   8   8  -4 133.104 13.2267   2
  -8  -8  -6 35.3062 9.37213   1
  -8  -8   6 47.0514 8.94329   1
  -8  -6  -8 51.1888 9.92386   1
  -8   6  -8 66.8073 11.5585   2
  -8   6   8 37.9006 7.04349   3
  -8   8   6 50.4230 9.06865   3
  -6  -8  -8 46.7564 10.6291   1
  -6  -8   8 53.9898 6.74162   3
  -6   8  -8 54.7935 9.54467   2
  -6   8   8 42.3235 8.61415   3
   6  -8  -8 63.5434 10.4166   1
   6  -8   8 37.3079 8.05389   3
   6   8  -8 46.7585 9.06730   2
   6   8   8 52.2483 9.72358   3
   8  -8  -6 58.4725 10.4870   1
   8  -8   6 49.4657 10.1475   3
   8  -6  -8 49.5972 8.46529   1
   8  -6   8 49.5444 9.06916   3
   8   6  -8 39.9579 10.4811   2
   8   6   8 59.0527 7.28065   2
   8   8  -6 39.3660 8.52325   2
  -8  -8  -8 79.7633 10.0627   1
  -8   8  -8 77.6244 9.15110   2
  -8   8   8 82.9765 8.82283   3
   8  -8  -8 70.8332 8.29808   1
   8  -8   8 108.004 11.2700   3
   8   8  -8 76.3981 12.7205   2
  -9   0  -1 65.0842 10.5373   1
  -9   0   1 46.3261 8.96469   1
  -1  -9   0 70.3795 11.1376   1
  -1   9   0 65.1396 11.9354   3
   0  -1  -9 66.4292 7.87438   2
   0  -1   9 61.0665 10.2174   3
   0   1  -9 51.1446 8.63895   2
   0   1   9 63.2648 10.4124   3
   1  -9   0 63.1951 7.89690   1
   1   9   0 56.6311 10.5981   3
   9   0  -1 57.3451 10.7972   2
   9   0   1 58.9109 10.7760   2
   0   9  -1 66.1583 12.6086   3
   0   9   1 59.5006 10.9212   3
   1   0  -9 56.2844 8.91128   2
   1   0   9 67.2646 10.5813   3
   9  -1   0 54.0241 10.0494   2
   9   1   0 57.2383 10.9630   2
  -1   0  -9 51.7558 8.52245   2
  -1   0   9 52.4754 9.29998   3
   0  -9  -1 59.4477 9.89737   1
   0  -9   1 60.6188 9.76594   1
  -9   1   0 53.4241 9.34200   1
  -9  -1   0 73.4001 11.7039   1
   2   9  -1 66.6876 11.6788   3
   2  -9   1 59.6059 7.34941   1
   9  -1   2 62.6563 10.3879   2
   9   1  -2 42.4460 9.15331   2
  -9  -1  -2 58.1779 10.5150   1
  -9   1   2 48.0276 8.72833   1
  -2   9   1 66.2761 12.1802   3
  -1  -2  -9 58.6034 8.89759   2
  -9  -2   1 50.7079 9.76216   1
  -9   2  -1 47.4891 8.89907   1
  -1   2   9 62.7173 10.9425   3
   9  -2  -1 51.2351 10.2030   2
  -2  -1   9 52.0894 9.40775   3
  -2   1  -9 51.2848 8.72454   2
   9   2   1 44.9650 9.47124   2
   1   9   2 52.4838 10.2082   3
  -1  -9   2 61.8627 10.0578   1
   1   2  -9 66.8430 8.24564   2
   1  -9  -2 43.6629 8.54912   1
   1  -2   9 75.6961 11.2401   3
   2   1   9 32.1682 7.26278   3
  -2  -9  -1 59.0823 10.6933   1
   2  -1  -9 54.6325 8.72016   2
   2  -1   9 68.8917 10.7202   3
  -1  -9  -2 59.2362 10.8222   1
  -2  -1  -9 54.9772 8.93935   2
   9  -1  -2 50.4953 10.0625   2
   1  -9   2 66.6357 7.57772   1
  -1   9   2 65.1814 12.0089   3
   1   2   9 42.6899 8.26087   3
   2   1  -9 55.9269 9.06839   2
  -9   1  -2 52.5871 9.37303   1
  -9  -2  -1 48.9447 10.1135   1
  -2   1   9 55.8329 9.64856   3
  -1   2  -9 44.7280 8.14700   2
  -9   2   1 68.2724 8.57717   1
   1  -2  -9 49.5267 8.12549   2
   9   1   2 52.4563 10.1827   2
  -1  -2   9 65.3996 10.7913   3
   9   2  -1 66.7222 11.4909   2
   2  -9  -1 55.4725 9.27050   1
  -9  -1   2 44.8108 8.86454   1
  -2  -9   1 54.7021 10.0567   1
  -2   9  -1 44.3659 9.81957   3
   9  -2   1 65.6373 10.7885   2
   1   9  -2 48.2386 10.8981   3
   2   9   1 42.6824 8.71596   3
  -3   9   0 147.855 15.2089   3
  -9   0   3 146.245 12.9997   1
  -3  -9   0 137.022 14.2711   1
   0   3  -9 159.229 13.0962   2
   0   3   9 182.139 15.1259   3
   3  -9   0 162.586 12.6570   1
   0  -3   9 186.233 14.4283   3
   0  -3  -9 163.071 11.7215   2
   9   0   3 151.671 14.0832   2
   0  -9   3 159.746 11.7952   1
   3   0  -9 154.268 12.8696   2
   3   0   9 158.207 13.2946   3
   9  -3   0 177.661 14.2583   2
   9   3   0 148.170 14.4379   2
  -9   0  -3 145.555 13.6065   1
   0  -9   3 163.910 14.6040   3
   0   9   3 161.828 15.5929   3
   3   9   0 143.984 13.4328   3
   9   0  -3 147.467 14.5128   2
   0  -9  -3 163.729 14.0657   1
  -3   0   9 180.826 14.0748   3
  -3   0  -9 170.932 13.4126   2
  -9   3   0 163.346 13.7799   1
  -9  -3   0 145.848 14.8044   1
  -2   3   9 1.80280 3.45729   3
  -2  -3  -9 1.70802 1.94994   2
  -3   9   2 2.91069 3.65949   3
   9   2  -3 2.50670 3.48651   2
   3   2   9 -0.9304 2.22045   3
   3   9  -2 -0.6840 3.18424   3
  -9   2   3 -0.0718 2.62763   1
  -3  -9  -2 2.04236 3.34305   1
   9  -2   3 2.36397 2.47432   2
   3  -9   2 3.62460 2.37347   1
   2   3  -9 1.44438 2.52874   2
   9   3   2 3.03660 4.55042   2
  -9  -2  -3 -2.3221 3.19981   1
  -3  -2   9 3.41007 3.27131   3
  -3   2  -9 0.86989 2.10853   2
   9  -3  -2 3.38375 2.41713   2
  -9   3  -2 -1.2207 1.27102   1
  -2  -9   3 1.83128 2.16736   1
  -2  -9   3 1.07709 3.45094   3
   2  -3   9 1.79603 2.25151   3
   2  -9  -3 0.75693 2.51048   1
  -9  -3   2 -2.0082 2.68422   1
   3  -2  -9 1.05278 2.05369   2
   2   9   3 2.68541 3.32556   3
  -3   2   9 -2.5572 2.44270   3
   2  -9   3 2.12400 2.80425   3
   3  -2   9 1.06211 1.67637   3
   2  -9   3 1.47249 1.56494   1
  -2  -3   9 1.36492 2.73528   3
   2  -3  -9 0.30343 1.72161   2
   9  -3   2 3.57677 1.97987   2
  -9  -2   3 0.80059 2.81110   1
   2   3   9 1.62467 2.80528   3
   3   9   2 4.55540 3.30525   3
   9  -2  -3 1.62761 3.06609   2
  -2   3  -9 1.33986 2.47205   2
   2   9  -3 2.53862 1.69333   2
   9   3  -2 0.45136 3.30390   2
  -2   9   3 4.52951 4.85347   3
  -9  -3  -2 1.59640 3.88561   1
   3   2  -9 -1.7520 2.18987   2
  -2  -9  -3 0.38309 3.37014   1
  -9   3   2 0.25989 2.14837   1
  -3  -2  -9 5.45261 2.67625   2
  -3   9  -2 0.32553 3.42849   3
   9   2   3 2.11012 3.40670   2
  -9   2  -3 3.03688 2.67188   1
  -3  -9   2 2.56502 3.06695   1
   3  -9  -2 -1.3168 2.11354   1
   4  -1  -9 34.0390 7.73936   2
   4   1   9 27.3210 6.72130   3
   9  -4  -1 26.0484 6.42342   2
   4  -9   1 43.9696 8.18336   1
   9   1  -4 42.8855 10.0419   2
  -9  -1  -4 34.9413 9.12701   1
  -9  -4   1 25.5587 7.97715   1
  -4   9   1 28.2408 7.95713   3
  -1   4   9 32.3968 8.14779   3
  -1  -9   4 29.6440 5.98085   1
  -4  -9  -1 29.9756 8.95117   1
  -4  -1   9 23.3023 6.30941   3
  -4   1  -9 29.8014 7.10431   2
  -1  -4  -9 46.7264 7.19550   2
   9  -1   4 31.2827 7.56414   2
  -1  -4  -9 32.5907 4.11770   1
   1   9   4 15.9342 6.27355   3
  -9   4  -1 29.8589 7.27190   1
  -9   1   4 26.6074 6.77322   1
   4   9  -1 35.0971 7.62291   3
   1  -4   9 47.3473 9.04404   3
   1   4  -9 29.8721 7.11741   2
   9   4   1 41.2448 9.29569   2
  -1   9  -4 29.2151 4.63946   2
   1  -9  -4 30.8191 7.45057   1
  -1  -9   4 28.4315 7.67900   3
   9  -4   1 46.6223 8.35304   2
  -9   1  -4 22.7202 6.23188   1
  -4   1   9 32.0238 7.57584   3
  -4  -1  -9 23.7466 6.00496   2
  -4  -9   1 29.3270 8.08435   1
  -4   9  -1 28.4488 8.08271   3
  -9  -1   4 19.0634 6.04334   1
  -1  -9  -4 50.2919 9.94064   1
  -9   4   1 33.6766 7.90369   1
  -1  -4   9 37.1548 8.11331   3
  -1   4  -9 21.7591 5.97871   2
   1  -4  -9 26.7338 5.40513   2
   9   1   4 34.2089 8.37438   2
  -9  -4  -1 29.9216 9.02087   1
   1   4   9 30.1996 7.89394   3
   4  -9  -1 35.8362 7.63795   1
   4  -1   9 34.0091 7.36165   3
   4   1  -9 45.1622 9.08474   2
   4   9   1 36.0431 8.06916   3
   1  -9   4 41.5750 6.79348   1
   9   4  -1 41.5587 9.04067   2
   9  -1  -4 28.1117 7.73288   2
   1  -9   4 40.3690 8.78634   3
  -1   9   4 29.8316 8.11136   3
   1  -4  -9 34.9661 4.24176   1
   1   9  -4 32.8921 5.24887   2
  -3   4   9 258.945 18.6148   3
   3  -4   9 256.277 17.7108   3
   4  -9   3 242.591 18.4019   3
   4   9  -3 255.478 15.9198   2
  -3  -9   4 241.258 16.8612   1
  -3  -9   4 284.326 19.3796   3
  -3   9  -4 290.731 14.4694   2
   4  -3  -9 282.180 14.2387   1
   9   3  -4 263.061 20.4878   2
  -3  -4  -9 283.151 17.1459   2
   3   9   4 260.664 19.5717   3
  -4  -9  -3 253.552 22.1458   1
  -4   9   3 277.281 21.4760   3
  -3  -4  -9 276.950 15.1594   1
   9   4   3 264.940 19.4531   2
   9  -4  -3 285.695 19.2242   2
  -9  -4   3 251.575 20.1023   1
  -9   4  -3 279.840 18.0213   1
   4  -3  -9 243.455 16.6307   2
  -4  -3   9 263.892 17.3918   3
  -4   3  -9 272.792 18.5027   2
  -9  -3  -4 262.705 22.2236   1
   9  -3   4 247.891 16.9308   2
   3  -9  -4 284.390 18.4142   1
  -9   3   4 271.216 18.7751   1
   3   4  -9 289.720 19.1242   2
   4   3   9 272.060 19.1326   3
   4  -9   3 283.215 16.3176   1
   3  -9   4 244.478 18.2160   3
   4   3  -9 281.681 19.3665   2
   9  -4   3 257.307 16.7475   2
   3  -9   4 285.190 15.7502   1
   3   4   9 263.084 19.1913   3
   4  -9  -3 252.201 17.4161   1
  -9   3  -4 264.998 17.4520   1
  -4   3   9 261.596 18.4134   3
  -3  -9  -4 245.486 20.9304   1
   4   9   3 281.462 19.0846   3
  -9  -3   4 253.394 18.8037   1
  -4  -9   3 267.449 19.2875   1
  -4  -3  -9 265.909 17.2240   2
   9   4  -3 257.304 19.6774   2
   3   9  -4 276.739 15.8419   2
  -3  -4   9 276.612 17.8165   3
  -3   4  -9 277.713 18.4639   2
  -9  -4  -3 255.437 22.8514   1
   9  -3  -4 257.276 19.2103   2
   3  -4  -9 261.613 13.9276   1
  -3   9   4 260.657 21.0211   3
   9   3   4 265.206 19.8852   2
   3  -4  -9 277.378 16.8386   2
   4  -3   9 258.300 17.3103   3
   9   0  -5 327.813 22.8016   2
   9   0   5 294.343 20.1160   2
   9  -5   0 303.259 17.9338   2
   0  -9   5 293.254 20.0875   3
  -9  -5   0 289.607 24.5836   1
  -5   0  -9 291.503 19.3917   2
  -5   0   9 296.296 18.3570   3
   0  -9  -5 314.637 20.0238   1
   0  -9   5 325.777 16.5263   1
   0  -5  -9 289.907 15.4607   1
   5   0  -9 284.725 19.5974   2
   0   9  -5 292.085 15.6942   2
   0   9   5 298.940 22.6812   3
   0  -5  -9 312.159 16.6755   2
   9   5   0 315.504 20.8859   2
   0  -5   9 314.323 19.7967   3
   0   5  -9 314.430 19.4526   2
   0   5   9 273.077 20.5167   3
   5  -9   0 301.916 18.6842   1
  -9   0  -5 310.443 20.3761   1
  -9   0   5 309.278 19.5008   1
   5   0   9 298.552 18.7226   3
   9  -5   0 295.024 18.5666   1
   5   9   0 286.564 18.2689   3
  -5   9   0 316.229 23.2377   3
  -5  -9   0 313.438 23.0739   1
  -2  -5  -9 12.4047 3.83473   1
  -5  -9  -2 14.5692 6.25718   1
  -9   2   5 16.4817 5.33165   1
   5   2   9 18.2122 5.63230   3
   2  -9  -5 12.1642 4.58539   1
  -9  -2  -5 19.3719 7.17221   1
   9  -5  -2 10.9420 3.64863   2
  -2  -5  -9 13.8987 4.46679   2
   5   9  -2 11.0721 4.60029   3
   5  -9   2 17.6474 4.84194   1
   2   9   5 6.51093 3.77726   3
   5   9  -2 22.3552 4.77380   2
   9   2  -5 19.7521 7.52662   2
  -9  -5   2 17.5478 6.96114   1
   9  -2   5 14.7672 5.05771   2
  -2  -9   5 17.1223 4.33769   1
  -2  -9   5 14.2128 5.60101   3
  -2   9  -5 18.7534 4.15909   2
   9   5   2 20.2318 6.41154   2
   2  -5   9 16.9877 5.37131   3
  -2   5   9 14.1420 6.57244   3
  -5   2  -9 12.0749 4.94749   2
  -5   9   2 14.8730 5.88185   3
  -5  -2   9 18.4322 5.33344   3
   5  -2  -9 14.4731 5.19920   2
   2   5  -9 12.9893 5.41754   2
  -9   5  -2 16.4889 5.52413   1
   9  -5  -2 11.0982 4.36279   1
   9  -5   2 15.5955 4.46351   2
  -9  -2   5 15.1763 4.75163   1
  -2  -9  -5 18.3071 6.18301   1
   5   2  -9 11.3256 5.22648   2
  -2   9   5 15.9075 7.12096   3
  -5  -2  -9 10.3498 4.91838   2
  -9  -5  -2 11.8454 7.01552   1
   2  -5  -9 13.6339 3.61066   1
  -5   2   9 10.5189 4.74408   3
   2  -5  -9 9.65861 2.82428   2
  -2   5  -9 15.6179 5.49126   2
   5  -2   9 10.2600 4.21854   3
   2   5   9 14.2764 6.47237   3
   5  -9  -2 9.51678 4.18574   1
   2   9  -5 12.5336 3.97994   2
   2  -9   5 14.5461 3.40426   1
   2  -9   5 9.75671 4.56484   3
   5   9   2 18.9510 5.24632   3
   9  -2  -5 13.8200 5.84215   2
  -2  -5   9 7.58775 4.38381   3
   9   5  -2 8.97542 4.80226   2
   9   2   5 11.3561 5.26831   2
  -9   2  -5 13.5638 4.92338   1
  -5  -9   2 12.0813 5.89790   1
  -5   9  -2 13.8370 6.60410   3
  -4  -9   5 66.1091 8.24967   1
   4  -9  -5 78.1558 12.0561   1
  -4  -5  -9 79.9985 8.54436   1
  -4  -5  -9 78.1786 8.65345   2
   9  -4   5 74.2785 8.74921   2
   5   4   9 81.1347 12.4832   3
  -5  -4   9 71.1721 8.57397   3
  -5   4  -9 72.5845 11.3696   2
   5  -9   4 63.1170 11.0792   3
  -4  -9   5 66.7330 11.4216   3
   5  -4  -9 58.9853 9.58437   2
  -5   9   4 81.5759 13.9571   3
  -9  -4  -5 73.1317 14.1097   1
   4   9   5 72.5973 11.9973   3
   9  -5  -4 71.7038 11.1540   1
   9   5   4 76.4459 12.1807   2
  -4   5   9 88.7603 13.8150   3
  -4   9  -5 70.9556 6.86996   2
   5  -9   4 82.2369 7.89055   1
   9   4  -5 80.5515 14.9747   2
  -9  -5   4 69.1840 12.5128   1
  -9   5  -4 66.9488 8.35699   1
   9  -5  -4 79.4115 8.82867   2
   4   5  -9 83.2675 12.8826   2
   5   9  -4 75.3963 8.60592   2
  -5  -9  -4 82.1343 15.3723   1
   4  -5   9 74.8173 9.33980   3
   5  -4  -9 77.7831 7.15318   1
   4   9  -5 72.7360 8.09478   2
  -5  -9   4 72.2986 11.5552   1
  -4  -9  -5 52.8503 12.1162   1
  -5   9  -4 71.7814 6.60098   2
   9   5  -4 68.1488 12.5229   2
   4  -9   5 72.3960 12.0189   3
  -5   4   9 76.4326 9.64645   3
  -9  -5  -4 90.3685 15.8550   1
   9  -4  -5 64.9810 11.4134   2
  -4   9   5 76.0763 13.5155   3
   9  -5   4 73.2714 8.15995   2
   4  -5  -9 69.5575 6.86422   1
   4  -5  -9 65.8727 10.0901   2
  -5  -9   4 86.6351 9.70553   3
   4  -9   5 76.6424 7.34305   1
   4   5   9 83.9238 13.7275   3
   5  -9  -4 79.2251 9.96797   1
  -9  -4   5 67.4176 11.6420   1
   5  -4   9 75.7978 11.3992   3
   5   4  -9 83.2803 12.6126   2
  -4   5  -9 83.2329 10.1848   2
   5   9   4 74.6563 8.84481   3
  -5  -4  -9 74.4704 8.95674   2
  -4  -5   9 70.6148 10.6755   3
  -9   4  -5 65.1191 8.19264   1
   9   4   5 70.4725 12.2382   2
  -5  -4  -9 74.1462 8.31554   1
  -6   9   1 152.937 15.1927   3
  -1  -6  -9 146.399 11.2917   1
   9  -1   6 150.561 13.4395   2
  -1   6   9 141.044 14.8407   3
  -6  -1   9 177.660 12.8711   3
  -6   1  -9 163.588 14.6853   2
   1  -9  -6 176.208 14.6459   1
   1   6  -9 152.094 13.6267   2
   9   1  -6 164.353 16.5673   2
  -9  -6   1 167.329 18.4849   1
   6   1   9 161.868 13.3509   3
  -9  -1  -6 177.500 15.9413   1
   6  -9   1 143.443 12.4374   1
  -1  -9   6 168.264 15.0095   3
  -9   1   6 164.561 13.7191   1
  -6  -9  -1 155.569 16.7665   1
   6  -1  -9 173.090 15.1861   2
   9   6   1 167.725 14.0399   2
   9  -6  -1 165.967 13.8727   1
   9  -6  -1 184.654 12.5824   2
   6   9  -1 151.388 12.3514   3
   1   9   6 173.770 17.2994   3
   6   9  -1 146.212 11.2597   2
  -1   9  -6 171.155 11.8119   2
   1  -6   9 151.120 13.8241   3
   6   9   1 158.477 12.3430   3
  -1   9   6 156.199 16.9250   3
  -6  -9   1 180.850 17.1828   1
  -9   1  -6 198.777 15.0469   1
   9  -6   1 152.095 11.6662   2
   9   6  -1 154.651 13.8818   2
   9  -6   1 139.816 12.3568   1
   1   9  -6 151.022 11.4066   2
  -9  -6  -1 148.016 17.2719   1
   9   1   6 197.619 16.2150   2
   6   1  -9 170.548 15.4866   2
  -1   6  -9 179.428 14.2431   2
  -6   1   9 149.177 12.4682   3
  -1  -9  -6 154.851 14.8900   1
   1  -6  -9 183.881 12.1847   1
  -6   9  -1 155.300 15.8589   3
   1   6   9 189.973 17.0207   3
   6  -9  -1 173.368 14.0750   1
  -9  -1   6 161.432 13.3732   1
   6  -1   9 129.899 11.7473   3
  -1  -6   9 182.266 14.9797   3
   1  -9   6 155.554 14.2260   3
   9  -1  -6 188.788 17.4981   2
   6   9  -3 59.7297 9.89174   3
   6   9  -3 51.4300 9.51757   2
   3  -9  -6 63.6795 10.7986   1
   9  -6  -3 75.5764 12.9753   1
   9   6   3 62.6349 10.4506   2
   3   9   6 55.3119 12.3148   3
   9  -3   6 64.5411 10.5056   2
  -6   9   3 54.8297 10.3998   3
  -3  -6  -9 59.8672 7.29986   1
  -3  -9   6 63.5056 11.1455   3
   9   3  -6 42.0604 10.4411   2
   6  -3  -9 69.5153 6.71619   1
   6  -3  -9 58.8428 10.4153   2
  -6  -3   9 67.4164 7.69358   3
   6  -9   3 58.2566 9.17874   1
   9  -6  -3 69.1150 7.28058   2
  -6  -9  -3 52.1979 13.3687   1
   3  -6   9 56.8127 10.2825   3
  -3   9  -6 65.3476 6.87772   2
   6   3   9 70.9399 10.7378   3
  -9   6  -3 68.8172 10.5942   1
  -9   3   6 57.9179 10.0845   1
  -9  -6   3 70.7583 13.7805   1
  -9  -3  -6 46.1591 11.1954   1
  -3   6   9 47.8325 10.0712   3
   3   6  -9 63.0563 11.2376   2
  -6   3  -9 65.6575 11.1732   2
   3  -6  -9 54.5567 6.46026   1
  -9   3  -6 61.4373 7.68273   1
   3  -9   6 65.0562 11.3010   3
  -3  -9  -6 53.5197 11.3814   1
  -6  -9   3 58.5761 11.0725   1
  -6   9  -3 80.7588 15.5150   3
   3   9  -6 69.4913 7.90537   2
   6   9   3 76.7968 8.39105   3
   9  -6   3 66.8870 7.30844   2
  -9  -6  -3 56.4496 12.9487   1
   6   3  -9 52.7960 10.0621   2
  -3   9   6 63.5108 12.3428   3
   9   3   6 56.0520 10.9117   2
   3   6   9 70.5878 12.8879   3
   6  -9  -3 72.5892 11.5764   1
  -3   6  -9 62.3805 10.1964   2
   6  -3   9 59.3426 9.69161   3
   9   6  -3 63.1225 11.6105   2
  -6   3   9 52.3721 9.10249   3
  -3  -6   9 80.0987 9.61606   3
  -9  -3   6 65.8158 10.5516   1
   9  -3  -6 67.4925 12.8513   2
   6  -5  -9 222.310 14.4323   1
   6  -9   5 226.234 18.0052   3
  -6  -5   9 247.235 15.7633   3
  -6   5  -9 214.174 17.0924   2
  -5   9  -6 227.180 14.7691   2
  -5  -6  -9 199.888 14.5492   2
  -5  -9   6 234.226 16.6995   1
  -9  -6   5 212.417 19.2668   1
   9   5  -6 217.528 19.8032   2
   9  -6  -5 216.767 15.3697   2
   5  -9  -6 234.327 17.2975   1
  -9  -5  -6 209.096 18.9089   1
   9  -5   6 210.924 15.3919   2
   5   9   6 211.326 17.8892   3
  -9   6  -5 243.966 16.6041   1
  -6  -9  -5 261.213 22.7563   1
   6   5   9 242.930 18.4018   3
   5   6  -9 231.391 18.5421   2
   6  -9   5 240.109 14.6053   1
   9   6   5 230.772 16.9467   2
  -5  -9   6 246.951 17.3547   3
   5  -6   9 240.124 17.1036   3
  -6   9   5 237.803 18.3445   3
  -5  -6  -9 244.181 17.8670   1
   6  -5  -9 228.847 17.2241   2
   6   9  -5 236.002 17.6391   2
   9  -6  -5 239.162 17.3759   1
  -5   6   9 229.267 17.8744   3
  -6  -5  -9 194.575 16.0994   1
  -6   9  -5 240.594 14.6468   2
   9   6  -5 239.025 20.3080   2
  -6  -9   5 217.334 15.7183   3
   9   5   6 215.128 16.9276   2
  -9  -5   6 220.718 19.1638   1
  -5   9   6 253.596 19.6536   3
  -5  -9  -6 202.939 20.3464   1
   9  -5  -6 208.136 17.0404   2
   5   9  -6 257.666 17.5112   2
  -5  -6   9 217.086 15.3174   3
   6  -9  -5 220.239 17.3294   1
  -6  -9   5 234.807 18.3003   1
   6  -5   9 234.182 16.7798   3
  -6  -5  -9 224.122 16.9693   2
  -9   5  -6 244.337 16.3470   1
   5  -9   6 216.550 17.2175   3
  -9  -6  -5 230.419 20.6524   1
   5  -6  -9 224.414 14.9411   1
  -6   5   9 246.328 17.5302   3
   9  -6   5 223.894 15.3586   2
   9  -5  -6 241.861 16.9842   1
   5   6   9 217.127 17.9504   3
  -5   6  -9 252.136 18.3224   2
   6   5  -9 231.813 19.3295   2
   6   9   5 218.553 17.0734   3
   9   0  -7 138.512 15.4890   2
   9   0   7 145.424 14.1440   2
   0   9  -7 155.216 11.5921   2
   0   9   7 140.490 16.0387   3
   0  -9  -7 149.370 13.6983   1
   9  -7   0 145.094 10.7060   2
  -7  -9   0 154.213 16.3702   1
  -9   0  -7 144.206 13.6765   1
  -9   0   7 153.329 12.6365   1
   7   0   9 156.344 12.7628   3
   9  -7   0 148.114 13.0800   1
   0  -7   9 171.498 14.9579   3
   9   7   0 161.587 13.3995   2
  -7   0   9 151.267 11.7226   3
   7   0  -9 138.641 14.6120   2
   7   0   9 147.566 13.3063   2
  -9  -7   0 134.449 16.0235   1
   0   7   9 139.513 15.3699   3
   7  -9   0 140.160 12.9439   1
   0   7  -9 152.316 13.1523   2
  -7   9   0 152.309 14.6412   3
   0  -7  -9 152.999 11.8269   1
   0  -9   7 158.317 14.7895   3
   7   9   0 144.690 10.3282   3
   7   9  -2 14.4270 3.36068   3
   2   7  -9 11.2447 4.25718   2
   9   7   2 18.3662 5.61776   2
  -7   9   2 12.1181 4.54745   3
   2  -7   9 14.4854 5.30283   3
   7   2   9 15.1030 4.81334   3
   9  -7  -2 14.8118 5.61440   1
  -9   2   7 11.3692 3.74341   1
  -9  -2  -7 10.2342 6.33101   1
  -9  -7   2 15.4635 6.66345   1
   9   2  -7 0.94828 3.96559   2
  -7  -9  -2 9.98952 5.86006   1
  -2   7   9 14.5218 5.88846   3
  -7  -2   9 14.4444 3.76779   3
  -2  -9   7 24.5874 6.54539   3
   7   9  -2 14.8189 4.26806   2
  -2  -7  -9 6.57377 3.04924   1
   2  -9  -7 18.9228 5.39337   1
   2   9   7 12.4391 8.50313   3
  -2   9  -7 19.9545 4.57514   2
   7  -9   2 8.56258 3.50261   1
   9  -2   7 7.76813 3.80268   2
   7   2   9 18.6438 6.13076   2
   7  -2  -9 17.5231 5.85256   2
  -9  -2   7 19.7142 4.93206   1
  -9   2  -7 15.7750 3.68700   1
  -7  -9   2 21.5498 6.78334   1
   2  -7  -9 14.1138 4.11930   1
   7   2  -9 4.54624 4.12492   2
  -2   9   7 8.86858 5.30646   3
  -7   9  -2 14.0928 5.60611   3
   9  -7   2 8.00951 3.32314   1
   7  -2   9 9.53702 3.39417   3
   9   7  -2 8.52460 3.97231   2
   2   7   9 18.8298 6.16306   3
   9   2   7 10.0724 4.94693   2
  -7   2   9 14.8305 4.05559   3
  -2  -9  -7 7.57199 5.14263   1
   9  -2  -7 23.1491 7.20937   2
   7   9   2 14.2673 3.43402   3
  -9  -7  -2 7.59940 6.52040   1
  -2  -7   9 11.4707 5.06426   3
   7  -9  -2 13.2148 5.11658   1
   9  -7   2 11.4756 3.22701   2
   2  -9   7 11.9217 5.04529   3
   2   9  -7 10.7563 4.58977   2
  -2   7  -9 16.1554 5.04069   2
  -9  -7   4 130.695 14.3014   1
   7  -9   4 149.166 12.0528   1
  -9   7  -4 165.527 13.6175   1
   7  -4  -9 144.603 11.0436   1
   4   7  -9 166.113 14.7425   2
   9   7   4 164.404 12.6916   2
   7   9  -4 178.028 14.5847   2
   7   9  -4 151.361 12.4358   3
   4  -7   9 146.042 13.6964   3
   9  -4   7 140.453 12.5735   2
  -4   7   9 154.010 15.3704   3
   9  -7  -4 149.869 13.8782   1
  -7   9   4 142.446 13.0650   3
  -4  -7  -9 172.434 14.4803   1
   7  -4  -9 152.155 14.5398   2
  -7  -9  -4 160.684 18.0117   1
  -9  -4  -7 133.009 14.1835   1
   7   4   9 146.546 13.0359   3
  -9   4   7 143.121 12.9865   1
  -4  -9   7 150.205 13.4737   3
   4   9   7 140.773 14.8881   3
   9   4  -7 164.564 17.6126   2
   4  -9  -7 157.676 13.9054   1
   7   4   9 170.387 13.9359   2
  -7   4  -9 151.196 14.3898   2
  -7  -4   9 147.346 11.3922   3
  -4   9  -7 160.229 12.1644   2
  -4  -7   9 134.641 12.4078   3
   7  -4   9 156.447 12.8939   3
  -9  -4   7 137.779 13.5283   1
   7  -9  -4 150.882 14.3489   1
  -7   4   9 142.238 12.7119   3
  -4  -9  -7 122.819 15.2199   1
   9  -7   4 160.963 12.2048   2
   7   9   4 151.430 12.0133   3
  -4   9   7 158.499 15.9584   3
   9   4   7 136.795 13.6447   2
   4  -9   7 160.449 14.4581   3
   4   9  -7 146.186 12.4965   2
   9   7  -4 176.386 15.9018   2
  -7  -9   4 159.950 14.6389   1
  -4   7  -9 162.443 13.8822   2
  -7  -4  -9 156.965 14.5893   1
  -9  -7  -4 151.686 16.7258   1
   4   7   9 141.214 15.1240   3
   4  -7  -9 162.506 12.3668   1
   9  -4  -7 146.161 14.9352   2
   7   4  -9 168.653 16.7298   2
   7   6   9 18.2790 4.85312   3
   9  -7  -6 25.8340 6.69589   1
   7   9  -6 33.8419 7.51289   2
   9   7   6 22.3397 4.11269   2
  -9  -6  -7 30.9944 7.97181   1
   7  -6  -9 21.1609 4.99226   1
  -9  -7   6 21.5646 5.74761   1
  -7  -9  -6 32.1180 9.42301   1
  -6   9  -7 34.9958 6.47785   2
  -7   6  -9 25.0991 7.25330   2
  -7   9   6 27.4561 5.72052   3
  -6  -7  -9 22.0055 6.40347   1
  -6  -9   7 19.3852 4.68751   3
  -7  -6   9 31.7494 5.96401   3
  -6   7   9 36.5330 7.79724   3
   6  -9  -7 40.9439 8.77130   1
   6  -7   9 30.0506 7.02960   3
   6   7  -9 33.1124 8.54297   2
   9  -6   7 39.6006 7.65123   2
   6   9   7 31.9179 6.36319   3
   7  -9   6 35.6836 8.36774   3
   9   6  -7 30.3338 8.32027   2
  -7  -9   6 37.3664 6.46425   1
   9  -6  -7 22.8205 6.16313   1
   6   7   9 19.7595 5.90985   3
   6   9  -7 27.8788 6.34081   2
   9   6   7 24.3528 6.17817   2
  -6  -9  -7 29.3590 8.69248   1
   9  -7   6 31.0556 6.98655   2
   6  -7  -9 41.3153 7.54064   1
  -9  -6   7 19.5007 4.67320   1
   9   7  -6 34.6671 8.62254   2
  -6   7  -9 26.4710 6.81915   2
  -7  -9   6 26.4597 5.22655   3
  -7   9  -6 25.6757 5.47446   2
  -7   6   9 33.3958 7.18484   3
  -6  -7   9 30.0785 5.58467   3
   7   6  -9 35.6256 9.46506   2
  -7  -6  -9 31.6612 7.46713   1
   7   9   6 24.9266 5.21287   3
  -9  -7  -6 30.4212 8.36283   1
   7  -6   9 34.5028 7.52462   3
   6  -9   7 30.5215 7.31951   3
  -6   9   7 34.2548 8.42657   3
   7  -9  -6 30.8704 7.60718   1
   9   8   1 149.097 12.1210   2
  -8   9   1 159.805 13.7528   3
   1  -9  -8 153.575 13.1362   1
  -1  -8  -9 138.584 11.9893   1
   1   8  -9 124.750 12.2178   2
   8   9  -1 153.547 11.7698   2
   1  -8   9 161.182 14.8885   3
   9  -1   8 147.052 13.6552   2
   9   1  -8 130.112 15.3326   2
  -1  -9   8 162.370 15.0115   3
   9  -8  -1 154.422 13.8755   1
  -1   9  -8 142.213 11.7485   2
  -9  -8   1 134.954 15.5792   1
   8   1   9 143.486 11.5327   3
   8  -9   1 151.374 13.2046   1
  -9  -1  -8 159.334 14.5665   1
   8  -1  -9 143.427 15.5024   2
  -9   1   8 132.533 11.9658   1
  -8  -9  -1 128.485 14.9019   1
  -1   8   9 135.697 15.6625   3
   8   1   9 164.156 14.4517   2
   1   9   8 140.243 16.3804   3
  -8  -9   1 143.754 15.3743   1
   9  -8   1 129.164 12.3894   1
   9   8  -1 140.352 12.4004   2
  -1   8  -9 148.902 12.6930   2
   1   8   9 154.646 16.7436   3
   1  -8  -9 143.942 11.9484   1
  -8   9  -1 152.055 14.4805   3
   8  -1   9 146.323 11.7229   3
   8   1  -9 141.829 15.3332   2
   9  -1  -8 134.260 15.2960   2
   8  -9  -1 148.745 13.8218   1
  -9  -1   8 145.650 11.8542   1
   9   1   8 162.503 15.2286   2
  -9  -8  -1 154.860 16.6780   1
  -1   9   8 144.291 16.4004   3
  -1  -9  -8 138.441 13.0238   1
   1  -9   8 170.393 15.6207   3
   1   9  -8 141.723 12.1176   2
  -1  -8   9 145.365 14.0254   3
   8  -1   9 142.686 13.2436   2
  -8  -9  -3 214.178 20.4170   1
   8   9  -3 202.930 15.7294   2
   8   3   9 171.557 14.1184   3
   9  -3   8 206.291 15.9036   2
   9   3  -8 195.167 19.0719   2
   9  -8  -3 193.296 16.2388   1
   9   8   3 205.075 14.2156   2
   3  -8   9 235.149 17.6359   3
   3   8  -9 214.816 16.5129   2
  -9  -8   3 201.442 18.2868   1
  -3  -9   8 183.990 15.6440   3
   8  -9   3 196.516 14.7139   1
   8   3   9 185.569 16.1111   2
  -3   8   9 180.889 17.8653   3
  -9  -3  -8 233.357 17.9334   1
  -9   3   8 181.829 14.3603   1
  -3  -8  -9 234.761 17.2433   1
  -3   9  -8 176.696 13.5485   2
   3   9   8 181.882 18.0043   3
  -8   9   3 228.570 16.4242   3
   3  -9  -8 184.641 14.7879   1
   8  -3  -9 181.226 17.1002   2
   9  -8   3 212.691 13.4890   2
   8  -9  -3 186.857 15.9634   1
   3  -8  -9 205.651 15.1593   1
   3   8   9 184.251 17.9412   3
  -8   9  -3 199.413 18.4326   3
  -3  -9  -8 238.003 18.7127   1
   8  -3   9 197.661 15.4717   2
   8  -3   9 214.604 15.0831   3
   9   3   8 193.997 17.1375   2
  -3   8  -9 192.770 14.8257   2
  -3  -8   9 181.362 15.3993   3
   9  -3  -8 166.055 16.6270   2
   9  -8   3 189.547 14.5177   1
  -8  -9   3 174.639 16.6061   1
  -8   3   9 177.852 13.4317   1
  -9  -8  -3 213.176 20.3834   1
   8   3  -9 199.096 18.5298   2
   3   9  -8 210.668 15.9362   2
  -3   9   8 201.323 19.1431   3
   9   8  -3 220.236 17.6151   2
   3  -9   8 192.883 16.3055   3
  -5  -8  -9 43.0285 8.94163   1
   5   9   8 40.8078 9.42075   3
  -9   8  -5 62.9402 7.75833   1
  -5   8   9 54.5143 11.1427   3
  -8   5  -9 68.5473 11.8616   2
   5  -8   9 64.0612 11.3187   3
   5   8  -9 44.5582 8.89346   2
  -5  -9   8 47.2494 9.25338   3
  -5   9  -8 65.2257 7.37497   2
   8  -9   5 54.0244 6.53123   1
   8  -9   5 68.3905 12.1760   3
   8   9  -5 44.7220 8.59302   2
  -9  -8   5 52.5799 9.23178   1
   9  -5   8 54.8069 9.64787   2
   9   5  -8 61.0118 13.1668   2
  -8  -9  -5 55.8440 12.2493   1
   8  -5  -9 59.4716 10.3348   2
   5  -9  -8 59.4030 10.3725   1
   9  -8  -5 57.5912 10.7066   1
  -9  -5  -8 61.2470 10.9557   1
  -8   9   5 61.7517 7.59252   3
   8  -5  -9 51.6076 6.40469   1
   8   5   9 43.4364 7.80371   2
  -8   9  -5 63.9024 7.51819   2
   9  -5  -8 51.5998 9.05488   2
  -8  -9   5 60.2150 10.1402   1
   5  -9   8 63.6118 11.0265   3
   9   5   8 54.2046 9.11314   2
   9   8  -5 71.3184 12.3010   2
   5  -8  -9 45.8841 7.65923   1
  -8   5   9 61.5947 7.38124   3
  -5  -9  -8 48.2318 9.96069   1
   5   8   9 51.4363 10.4776   3
   8  -9  -5 57.7910 10.7873   1
  -5   9   8 61.7771 11.8114   3
  -5   8  -9 57.8811 10.1979   2
   8  -5   9 55.5266 9.55022   3
   8   5  -9 62.7118 12.9189   2
  -9  -8  -5 54.6178 11.7524   1
  -5  -8   9 56.5807 9.58367   3
   9  -8   5 52.9931 8.29761   2
  -8  -5  -9 56.3792 10.5830   1
   5   9  -8 64.0258 7.72938   2
  -9   8  -7 137.277 12.5040   2
  -7   8   9 122.531 11.9418   3
   7   8  -9 128.528 13.1925   2
   7   9   8 124.058 11.0794   3
   8  -7  -9 104.084 9.99363   1
   8  -9   7 122.633 12.4398   3
   8   9  -7 127.730 12.4989   2
   7  -9  -8 120.567 11.7537   1
   9   7  -8 116.476 13.9584   2
   7  -8   9 114.579 11.7991   3
  -9  -7  -8 146.078 14.2585   1
  -7  -8  -9 111.724 12.0586   1
  -8  -9  -7 114.703 13.3852   1
   9  -8  -7 121.092 12.2308   1
  -8   9   7 123.756 11.7682   3
  -7   9  -8 124.431 11.4798   2
  -8   7  -9 113.558 12.0342   2
  -9   7  -8 100.803 11.1562   2
   7  -8  -9 113.938 10.5946   1
  -8  -7  -9 134.596 13.5352   1
  -7   8  -9 102.672 11.2366   2
  -8   7   9 131.176 12.1271   3
  -7  -9  -8 121.113 14.3069   1
  -9  -8  -7 108.184 12.6909   1
  -7   9   8 120.602 11.9564   3
   9  -7  -8 107.783 10.7104   1
   7  -9   8 130.117 13.0552   3
   7   9  -8 122.097 12.3405   2
   7   8   9 102.063 10.5947   3
   8  -9  -7 126.438 12.3189   1
   8  -7   9 116.754 11.3140   3
   8   7  -9 111.999 13.5502   2
  -8   9  -7 140.686 12.0095   2
   9   8  -7 119.727 12.6444   2
  -9  -9   0 85.2583 14.9334   1
   0  -9  -9 79.0339 8.89047   1
   0  -9   9 88.3672 14.5054   3
   0   9  -9 85.4608 9.05184   2
   0   9   9 75.4700 14.2505   3
   9  -9   0 77.1489 9.78893   1
   9   0  -9 68.4253 12.6423   2
   9   0   9 88.6497 13.2898   2
  -9  -9  -2 15.4953 7.14756   1
  -9  -9   2 25.6423 6.49519   1
  -9   2   9 21.7137 4.60859   1
  -2  -9  -9 25.4146 5.11636   1
  -2  -9   9 35.1111 8.41559   3
  -2   9  -9 29.8182 6.00545   2
  -2   9   9 25.2865 8.22589   3
   2  -9  -9 31.3191 6.19151   1
   2  -9   9 34.0591 8.46751   3
   2   9  -9 25.4167 5.56202   2
   2   9   9 31.7993 9.03544   3
   9  -9  -2 32.5161 8.15960   1
   9  -9   2 28.1206 6.96685   1
   9  -2  -9 28.1500 7.33226   2
   9  -2   9 21.4767 6.06568   2
   9   2  -9 21.7531 6.55424   2
   9   2   9 40.4569 9.00028   2
   9   9  -2 21.0721 5.02480   2
  -9  -9  -4 28.4603 9.03070   1
  -9  -9   4 26.3398 7.90058   1
  -9   4   9 22.2714 4.87842   1
  -4  -9  -9 20.8020 5.67752   1
  -4  -9   9 23.4939 5.88039   3
  -4   9  -9 18.4795 4.77593   2
  -4   9   9 23.5143 7.07640   3
   4  -9  -9 23.5069 5.16211   1
   4  -9   9 28.4269 7.29612   3
   4   9  -9 27.3178 5.85735   2
   4   9   9 15.2691 6.52877   3
   9  -9  -4 19.7826 6.66486   1
   9  -9   4 23.5323 6.14740   1
   9  -4  -9 16.7152 6.27319   2
   9  -4   9 23.7114 6.25227   2
   9   4  -9 21.2637 8.08383   2
   9   4   9 19.8254 6.08843   2
   9   9  -4 30.5394 5.58547   2
  -9  -9  -6 92.6095 15.8301   1
  -9  -9   6 88.7054 8.83247   1
  -9  -6  -9 86.0730 10.1283   1
  -9   6  -9 94.6698 11.1128   2
  -9   9  -6 108.477 10.3805   2
  -6  -9  -9 94.5572 11.2261   1
  -6  -9   9 91.6348 9.34315   3
  -6   9  -9 82.4511 9.28202   2
  -6   9   9 94.7924 11.0304   3
   6  -9  -9 86.8884 9.70249   1
   6  -9   9 95.3848 10.9408   3
   6   9  -9 104.384 11.0412   2
   6   9   9 88.6287 10.7914   3
   9  -9  -6 89.5105 10.7784   1
   9  -6  -9 80.1922 8.57762   1
   9   6  -9 97.4356 17.4379   2
   9   6   9 84.9872 8.52497   2
   9   9  -6 106.734 11.2437   2
  -9  -9  -8 89.6789 15.2529   1
  -9  -8  -9 95.6529 10.6596   1
  -9   8  -9 82.7855 9.63963   2
  -9   9  -8 81.6851 9.43708   2
  -8  -9  -9 95.5787 10.2957   1
  -8   9  -9 98.8777 10.2931   2
  -8   9   9 79.1665 9.54768   3
   8  -9  -9 93.8061 9.65083   1
   8  -9   9 97.0759 10.1302   3
   8   9  -9 91.8259 10.8446   2
   9  -9  -8 93.5037 10.2311   1
   9  -8  -9 100.119 9.88484   1
   9   8  -9 109.667 11.5573   2
   9   9  -8 98.5666 10.6472   2
 -10   0   0 1189.15 48.4113   1
   0 -10   0 1229.21 47.4911   1
   0   0 -10 1174.56 45.0625   2
   0   0  10 1196.18 47.4862   3
   0  10   0 1191.63 49.9332   3
  10   0   0 1136.51 48.9239   2
  -1  10  -1 372.897 25.0365   3
  -1  10   1 403.617 25.7889   3
   1 -10  -1 378.932 22.4247   1
   1 -10   1 410.204 22.1384   1
   1  -1 -10 352.632 20.7434   2
   1  -1  10 421.493 23.7278   3
   1   1 -10 401.791 22.3258   2
   1   1  10 364.656 22.6477   3
   1  10  -1 400.545 25.2445   3
   1  10   1 377.029 24.2804   3
  10  -1  -1 382.492 24.9271   2
  10  -1   1 407.197 25.1352   2
  10   1  -1 401.316 25.4730   2
  10   1   1 384.458 24.9531   2
 -10  -1   1 366.001 23.7315   1
 -10   1  -1 361.891 22.9423   1
 -10   1   1 395.379 23.6337   1
  -1 -10  -1 451.477 25.4921   1
  -1 -10   1 372.593 22.6740   1
  -1  -1 -10 389.820 21.5987   2
  -1  -1  10 374.417 22.8357   3
  -1   1 -10 368.476 21.5322   2
  -1   1  10 437.549 24.6288   3
 -10  -1  -1 426.221 25.5213   1
  10   0   2 22.2464 7.32459   2
   0  -2 -10 17.4823 5.04427   2
   0  -2  10 17.9054 6.34598   3
  10   0  -2 21.7168 7.02384   2
   0   2  10 21.0756 6.41514   3
   2 -10   0 14.1432 4.85041   1
   2  10   0 11.2102 5.40948   3
 -10  -2   0 10.9856 5.21461   1
 -10   2   0 17.4611 6.15368   1
  -2   0 -10 17.8574 5.41718   2
  -2   0  10 16.2971 5.66356   3
   0 -10  -2 19.7483 6.32304   1
   0 -10   2 15.1254 4.74288   1
   0  10  -2 16.8648 6.39949   3
   0  10   2 19.8922 6.59236   3
   2   0 -10 16.3664 4.97010   2
   2   0  10 18.6610 5.88281   3
  10  -2   0 18.9305 6.25430   2
  10   2   0 31.4727 8.56940   2
  -2  10   0 34.4954 9.86809   3
  -2 -10   0 12.9401 5.24094   1
 -10   0  -2 14.7421 5.72131   1
   0   2 -10 14.0797 4.86326   2
 -10   0   2 15.3804 5.53386   1
 -10  -2   2 411.208 26.1569   1
 -10  -2  -2 506.284 29.4810   1
  10  -2   2 497.699 27.0136   2
  10   2  -2 479.880 27.8361   2
  10   2   2 431.161 26.7324   2
   2  -2 -10 432.109 23.1704   2
   2  -2  10 477.016 25.5890   3
   2   2 -10 513.322 25.7333   2
 -10   2  -2 417.542 24.3582   1
  -2  10  -2 421.437 28.0236   3
  -2  10   2 535.371 30.7120   3
   2 -10  -2 401.283 23.7780   1
   2 -10   2 472.492 23.4191   1
  -2  -2  10 405.984 24.1205   3
 -10   2   2 508.895 27.4166   1
  -2 -10  -2 499.041 29.0114   1
   2   2  10 396.304 24.8157   3
   2  10  -2 476.528 28.4087   3
   2  10   2 405.591 25.5869   3
  10  -2  -2 412.883 26.3134   2
  -2   2 -10 431.975 24.3645   2
  -2   2  10 485.491 26.7561   3
  -2 -10   2 426.821 25.2472   1
  -2  -2 -10 482.348 24.3890   2
  10  -3  -1 149.831 14.2058   2
 -10   3  -1 158.846 14.1409   1
  -3 -10  -1 139.257 15.0445   1
  10   3   1 165.471 15.6792   2
   3 -10   1 153.574 12.7348   1
 -10   1   3 150.070 14.2489   1
 -10  -1  -3 132.460 14.3096   1
   3   1  10 141.208 13.6004   3
  -3   1 -10 150.647 13.6402   2
  -1   3  10 170.824 15.3969   3
   1 -10  -3 160.087 14.1498   1
   1  -3  10 155.239 13.8250   3
   1   3 -10 160.300 13.9048   2
   1  10   3 159.379 16.0093   3
  -1  -3 -10 148.326 12.0512   2
  -3  -1  10 155.370 13.8718   3
   3  10  -1 140.747 14.0200   3
  -3  10   1 158.610 16.5017   3
  -1 -10   3 157.764 12.8339   1
  10  -1   3 135.081 13.6956   2
  10   1  -3 151.353 15.2287   2
 -10  -3   1 154.747 15.8532   1
   3  -1 -10 159.799 13.7029   2
 -10  -1   3 146.612 13.7260   1
  10  -1  -3 148.540 14.7316   2
  10   1   3 166.906 16.0048   2
  -1 -10  -3 161.801 15.2889   1
 -10   3   1 169.263 15.0489   1
 -10  -3  -1 151.769 16.4457   1
  -3   1  10 157.464 14.0639   3
  -1  -3  10 163.151 14.3044   3
  -1   3 -10 149.403 13.4933   2
  -3 -10   1 157.919 14.9363   1
   3 -10  -1 145.875 13.1164   1
  -1  10   3 159.601 16.6312   3
   1  -3 -10 160.466 12.4712   2
   1 -10   3 153.068 11.8605   1
   1 -10   3 145.647 14.4942   3
   1   3  10 159.688 15.0194   3
   3  10   1 159.636 14.5711   3
   3  -1  10 156.069 13.5611   3
   3   1 -10 142.697 13.5048   2
  -3  -1 -10 161.191 13.5618   2
 -10   1  -3 157.226 14.3261   1
  10  -3   1 159.785 14.0500   2
  10   3  -1 170.879 15.9002   2
  -3  10  -1 177.004 17.2235   3
  -3   3 -10 18.4660 5.82612   2
  10   3   3 21.3562 7.02122   2
 -10   3  -3 19.9733 5.99475   1
 -10   3   3 24.5288 7.03776   1
  -3 -10  -3 9.52333 6.28354   1
  -3 -10   3 18.8462 5.86368   1
   3 -10  -3 20.0749 6.13452   1
   3 -10   3 21.8337 5.40804   1
   3  -3 -10 14.8718 4.40445   2
   3  -3  10 25.0002 7.15791   3
   3   3 -10 22.2763 6.66834   2
  10   3  -3 21.4944 6.92020   2
 -10  -3   3 17.9829 6.38081   1
   3  10   3 21.2015 6.82338   3
  10  -3  -3 27.6202 8.51165   2
  10  -3   3 21.8205 6.37099   2
  -3  -3 -10 22.8697 6.07332   2
  -3   3  10 25.2032 6.96526   3
  -3  10   3 30.5300 9.16251   3
  -3  -3  10 12.1492 5.45778   3
 -10  -3  -3 16.4496 7.65440   1
   3   3  10 18.3515 6.48754   3
   3  10  -3 26.8434 7.63487   3
  10  -4   0 1287.23 48.7175   2
   4 -10   0 1192.21 46.7396   1
  10   0   4 1178.15 49.9211   2
   0  -4  10 1203.83 48.0914   3
   0   4 -10 1223.53 47.9020   2
   0   4  10 1134.81 49.6903   3
   0 -10  -4 1166.43 48.8384   1
   0 -10   4 1203.61 45.0623   1
 -10   0  -4 1283.94 51.5138   1
  -4  10   0 1329.77 55.4756   3
  -4   0  10 1217.19 47.5685   3
  -4   0 -10 1201.19 47.7536   2
   4  10   0 1192.76 48.2915   3
  10   0  -4 1156.73 50.9116   2
 -10  -4   0 1181.95 54.9114   1
 -10   4   0 1207.54 49.1341   1
   0  -4 -10 1210.32 44.6094   2
  10   4   0 1277.06 50.7623   2
 -10   0   4 1235.66 50.0931   1
  -4 -10   0 1147.37 53.0684   1
   4   0  10 1236.50 48.8667   3
   4   0 -10 1215.74 48.2490   2
   0  10   4 1213.74 53.7423   3
   0 -10   4 1246.75 50.6439   3
  10  -4  -2 76.4865 9.25259   2
   4   2  10 86.4274 13.2102   3
  -4  10   2 61.7049 13.0781   3
   2   4 -10 66.6380 11.2079   2
  -4  -2  10 83.8482 9.78611   3
  10  -2   4 84.5041 12.9062   2
   4 -10   2 77.2479 8.72169   1
   2  10   4 83.0947 14.1935   3
   4  -2 -10 91.8424 10.1142   2
 -10  -2  -4 66.4537 13.5919   1
  -2 -10   4 76.7665 8.49606   1
 -10   2   4 72.3635 12.1814   1
 -10   4  -2 86.6809 10.3805   1
  -4 -10  -2 47.4570 11.0249   1
  10   2  -4 65.1754 12.0713   2
   2 -10  -4 76.6732 12.0358   1
  -4   2 -10 89.5226 10.6353   2
  -2 -10   4 78.3381 12.6536   3
   2  -4  10 68.1382 11.3542   3
 -10  -4   2 90.3013 15.2418   1
  10   4   2 88.6020 13.5226   2
   4  10  -2 71.8453 12.6666   3
  -2   4  10 83.2773 13.3020   3
  -2  -4 -10 71.6498 8.06070   2
   4 -10  -2 81.0579 9.79579   1
 -10   2  -4 80.8511 9.83287   1
  10   4  -2 71.1770 12.3434   2
   2  -4 -10 82.1891 8.43683   2
   4  10   2 72.2190 11.7563   3
 -10  -2   4 78.4180 12.7224   1
   2 -10   4 65.5910 6.83107   1
  -2   4 -10 87.6881 10.4487   2
   2 -10   4 67.9084 12.2664   3
  -4 -10   2 70.4726 12.8394   1
  -4  10  -2 77.9455 14.5727   3
   4   2 -10 68.1507 11.3439   2
   4  -2  10 74.8183 11.5939   3
  -2  -4  10 85.9137 10.3973   3
 -10   4   2 73.1243 12.3106   1
  -2 -10  -4 59.3165 12.1500   1
  10  -4   2 70.7893 8.77632   2
  -4  -2 -10 68.6356 11.0588   2
   2   4  10 65.6027 12.2002   3
  -2  10   4 62.9511 12.8452   3
  -4   2  10 86.6139 13.3174   3
  10   2   4 66.7882 12.4603   2
 -10  -4  -2 75.3189 15.5378   1
  10  -2  -4 86.6216 14.1854   2
 -10  -4  -4 162.424 19.2362   1
  10   4  -4 151.669 15.5265   2
 -10   4   4 158.984 14.8874   1
  10   4   4 150.924 15.3590   2
  10  -4   4 140.406 12.8899   2
 -10   4  -4 167.023 13.9985   1
   4  10   4 158.381 14.3830   3
  10  -4  -4 172.096 15.2768   2
   4  -4  10 163.363 14.2657   3
  -4 -10   4 138.366 13.0079   1
  -4 -10   4 169.143 15.2120   3
 -10  -4   4 151.362 15.7105   1
  -4  -4  10 154.270 13.4765   3
  -4   4 -10 174.043 15.2200   2
  -4   4  10 190.414 16.1597   3
  -4  10   4 156.270 17.0561   3
   4 -10  -4 153.911 14.0359   1
   4 -10   4 167.651 12.2752   1
   4 -10   4 128.974 13.6941   3
   4  -4 -10 148.187 13.0924   2
  -4 -10  -4 165.781 18.2538   1
  -4  -4 -10 155.700 13.3963   2
   4   4  10 131.353 13.9035   3
   4   4 -10 158.354 15.3156   2
   1  -5  10 721.689 34.3980   3
  -1   5  10 727.398 36.7521   3
  -5   1 -10 706.930 34.1933   2
   1   5 -10 756.577 34.8008   2
   1 -10  -5 737.970 35.1511   1
  -1 -10   5 727.396 31.0427   1
   5  10  -1 715.326 34.4223   3
   1  10   5 689.139 38.2719   3
   5  -1 -10 743.034 35.0078   2
   5 -10   1 755.068 33.4549   1
 -10  -1  -5 754.037 38.1543   1
   5   1  10 678.523 33.6351   3
  -1 -10   5 767.146 36.8210   3
 -10   1   5 746.025 35.7361   1
  -5 -10  -1 748.101 40.4597   1
  10   1  -5 747.918 38.5192   2
  10   5   1 741.951 35.4810   2
  -5  10   1 703.022 38.6790   3
  -1  -5 -10 725.901 31.4331   2
  -5  -1  10 749.212 33.3887   3
 -10  -5   1 707.234 41.7659   1
  10  -5  -1 709.064 32.5814   2
  10  -1   5 699.433 34.7599   2
 -10   5  -1 712.933 34.0840   1
  10   1   5 727.454 36.3990   2
   1 -10   5 740.268 36.0140   3
   1  -5 -10 757.040 31.8254   2
  10  -1  -5 712.320 37.5785   2
 -10   5   1 715.660 35.3460   1
   5  -1  10 709.449 33.5636   3
   5   1 -10 686.576 34.6440   2
  -1  -5  10 772.635 35.1141   3
   1   5  10 734.236 36.8787   3
 -10  -5  -1 734.003 43.4261   1
  -5 -10   1 753.286 39.4357   1
  -5  10  -1 762.374 39.8100   3
 -10  -1   5 740.714 35.5417   1
  -5  -1 -10 723.441 34.5710   2
   5 -10  -1 740.841 34.0447   1
  -5   1  10 704.561 33.2480   3
  -1 -10  -5 770.690 37.8200   1
  -1   5 -10 725.628 33.8283   2
  10  -5   1 705.479 32.4180   2
  10   5  -1 727.737 35.6545   2
   5  10   1 722.842 33.7326   3
 -10   1  -5 744.005 35.8566   1
  -1  10   5 737.993 40.3022   3
   1 -10   5 716.360 29.6711   1
   3   5 -10 37.6466 8.35779   2
  -5   3 -10 58.5585 10.9896   2
   5   3  10 57.8388 10.5335   3
   5 -10   3 60.4716 9.50074   1
 -10  -3  -5 31.8680 10.4827   1
   3  10   5 44.8352 9.43441   3
   5  -3 -10 54.8059 9.68550   2
 -10   3   5 47.2290 9.70440   1
  -3   5  10 55.0531 10.8610   3
  10  -5  -3 61.2448 10.3213   2
  -3  -5 -10 57.3353 6.44125   2
 -10   5  -3 47.2517 9.17980   1
   3  -5  10 40.1067 8.50347   3
  -5  -3  10 57.5926 9.74920   3
  -5  10   3 44.6549 10.2334   3
   5  10  -3 51.2931 10.2678   3
  10  -3   5 62.5693 10.6663   2
  -3 -10   5 53.0747 6.58365   1
  -3 -10   5 66.5396 12.0975   3
  10   5   3 55.9604 10.6185   2
   3 -10  -5 57.1609 10.3559   1
  10   3  -5 44.7583 11.6951   2
  -5 -10  -3 40.8450 11.1982   1
 -10  -5   3 37.6325 10.5477   1
  -3  10   5 41.4489 10.4693   3
  -3 -10  -5 43.1155 11.4650   1
   5   3 -10 50.9259 10.4983   2
  -5   3  10 65.3186 11.2471   3
   3  -5 -10 56.8878 6.64535   2
  10  -5   3 49.6435 8.81873   2
  10   5  -3 43.1384 9.22250   2
 -10  -3   5 44.8872 9.09656   1
 -10  -5  -3 53.7246 12.2533   1
  -3  -5  10 57.2544 10.3288   3
  -5  10  -3 49.0211 12.4538   3
  -5  -3 -10 41.4842 7.98220   2
  -3   5 -10 50.0724 9.56061   2
   3   5  10 45.7576 9.86090   3
   5 -10  -3 57.4759 10.4730   1
  -5 -10   3 43.0070 9.81842   1
   3 -10   5 46.5380 9.74237   3
   5  10   3 52.7927 9.60408   3
  10  -3  -5 54.4630 11.2497   2
 -10   3  -5 62.3530 10.5276   1
   3 -10   5 53.9115 5.65208   1
  10   3   5 56.5313 11.0786   2
   5  -3  10 49.2422 9.06022   3
  -5 -10   5 965.422 42.3377   3
   5 -10  -5 974.210 42.4481   1
  10   5  -5 946.624 46.0791   2
 -10  -5  -5 1013.41 49.8921   1
 -10  -5   5 923.977 47.4382   1
  -5  -5  10 953.389 40.0605   3
  -5   5 -10 948.179 42.4175   2
  -5   5  10 990.690 43.4260   3
   5  -5 -10 923.079 36.9512   1
   5  -5 -10 900.712 40.9758   2
   5  -5  10 974.609 41.7785   3
   5   5 -10 1023.30 44.9399   2
   5 -10   5 1001.23 38.0194   1
   5   5  10 968.972 45.0774   3
   5  10  -5 986.805 41.0181   2
   5  10   5 888.421 42.3814   3
  10  -5  -5 934.319 42.7569   2
  10  -5   5 939.021 39.7942   2
  -5  -5 -10 1007.77 42.8432   2
  -5  10   5 1077.27 48.2815   3
  10   5   5 969.777 43.0353   2
  -5 -10   5 949.251 43.0620   1
  -5 -10  -5 1003.60 50.0822   1
   5 -10   5 926.561 43.7280   3
 -10   5  -5 943.875 40.8236   1
   0  10  -6 72.1843 7.11220   2
   0 -10  -6 93.0665 11.1338   1
   0 -10   6 86.7437 14.0018   3
   6   0 -10 73.0821 12.3027   2
   0  10   6 54.8153 12.3619   3
   0   6 -10 85.6316 10.1315   2
   0  -6  10 88.0891 11.0555   3
 -10  -6   0 66.5412 14.8849   1
  -6   0 -10 82.3153 12.9658   2
  -6   0  10 73.4593 8.74074   3
   6  10   0 62.3296 7.84370   3
  10   0  -6 70.4867 12.9599   2
  10   0   6 81.4125 12.7955   2
  -6 -10   0 68.0333 12.4472   1
  -6  10   0 61.4993 12.0043   3
   0  -6 -10 93.7637 8.22394   1
 -10   0  -6 66.6371 11.4815   1
   0   6  10 84.5811 15.0281   3
   6   0  10 76.9835 9.16642   3
  10  -6   0 70.9039 8.02795   2
 -10   0   6 64.4643 8.24803   1
   6 -10   0 75.6254 9.34091   1
  10   6   0 81.5512 9.99889   2
  10   6   2 184.995 14.9677   2
 -10   6  -2 168.248 14.5414   1
 -10  -2  -6 128.745 15.3504   1
  10  -6  -2 169.154 12.8827   2
   2  10   6 191.185 18.0780   3
  -6  -2  10 176.187 13.2809   3
  10   2  -6 122.453 18.6648   2
  -2 -10   6 195.668 16.5894   3
  10  -2   6 118.345 12.4877   2
  -6   2 -10 181.169 15.7700   2
   6  10  -2 101.911 10.8011   3
   6  -2 -10 157.684 14.5495   2
 -10  -6   2 183.868 19.4690   1
  -2   6  10 118.665 14.8066   3
   2 -10  -6 180.118 14.9887   1
   2  -6  10 119.459 12.7857   3
   2   6 -10 111.796 12.4330   2
   6 -10   2 109.704 10.7012   1
  10  -6  -2 170.649 14.5385   1
  -6  10   2 116.056 13.6020   3
  -6 -10  -2 135.949 15.8090   1
   6   2  10 183.380 14.7981   3
 -10   2   6 124.378 12.5179   1
  10   6  -2 117.830 13.1997   2
  -2   6 -10 178.465 14.9087   2
  10   2   6 149.792 15.4492   2
  -6  10  -2 169.779 17.0789   3
  -2  -6  10 161.307 14.3957   3
   6  10   2 177.899 13.3781   3
  10  -6   2 129.375 11.4125   2
  -2 -10  -6 127.071 14.4843   1
  -6  -2 -10 123.931 13.2971   2
  10  -2  -6 198.964 17.8972   2
  -6   2  10 128.940 12.0364   3
 -10  -2   6 163.989 14.3264   1
   6  -2  10 124.432 12.1671   3
  -2  10   6 126.602 15.4984   3
   2  -6 -10 168.059 11.1113   1
   2 -10   6 107.221 12.6259   3
 -10   2  -6 192.863 15.4738   1
   6   2 -10 121.820 13.9969   2
 -10  -6  -2 110.014 18.9511   1
  -6 -10   2 166.909 15.8577   1
   6 -10  -2 183.509 15.2172   1
   2   6  10 170.695 16.9220   3
   2  10  -6 127.396 10.1231   2
 -10  -4  -6 44.7172 10.5088   1
  -6  -4  10 66.0708 7.50411   3
  10   6   4 64.9479 10.8244   2
   4 -10  -6 65.2327 11.4288   1
  10  -6  -4 64.0762 11.1178   1
   6  -4 -10 56.9779 10.4790   2
 -10  -6   4 52.2489 11.7549   1
 -10   4   6 35.4503 8.34522   1
   4  -6  10 40.7593 8.77903   3
  -6   4 -10 64.4661 11.3708   2
  -6  10   4 53.2753 10.5591   3
  -6 -10  -4 55.5319 13.2459   1
   4  10   6 49.6555 10.5726   3
 -10   6  -4 57.1009 10.1517   1
  10  -6  -4 39.9843 7.48384   2
  -4 -10   6 50.2861 9.72554   3
   4   6 -10 41.3622 9.59418   2
   6   4  10 50.9223 8.93231   3
   6  10  -4 46.5883 10.1323   3
   6 -10   4 43.1751 7.67796   1
  -4   6  10 45.7520 10.6163   3
  10   4  -6 38.8452 10.7272   2
  10  -4   6 43.4935 8.53755   2
  10  -4  -6 49.1326 10.1773   2
   6  10   4 44.0161 8.03204   3
  10   4   6 41.0187 10.2955   2
 -10   4  -6 64.2506 7.93813   1
   4  -6 -10 56.8086 6.64499   1
  -6  -4 -10 47.4823 9.14070   2
  10  -6   4 49.3364 8.47688   2
  10   6  -4 38.6298 9.36920   2
   4  10  -6 51.0633 6.35562   2
  -6 -10   4 63.2977 10.7487   1
   6  -4  10 41.7486 8.47416   3
  -6   4  10 45.6932 8.93101   3
  -4  10   6 34.4036 9.62213   3
   4   6  10 55.6168 10.2549   3
   4 -10   6 33.6821 8.49581   3
 -10  -4   6 49.0988 10.0554   1
  -4 -10  -6 47.6751 11.1873   1
  -4  -6  10 71.0370 11.5524   3
   6   4 -10 37.0641 9.51512   2
 -10  -6  -4 30.9948 9.48368   1
   6 -10  -4 72.4236 12.1213   1
  -4   6 -10 54.2271 10.2339   2
   6  10   6 221.126 17.7682   3
  10  -6   6 283.947 17.9331   2
  10   6  -6 276.215 22.2539   2
   6   6 -10 307.226 22.6537   2
  10  -6  -6 236.207 18.1084   1
  -6   6  10 302.656 20.2854   3
  -6  10   6 293.974 21.3915   3
  -6   6 -10 221.815 18.2912   2
   6 -10  -6 222.178 17.8783   1
   6 -10   6 292.483 21.4318   3
   6  -6 -10 223.518 15.1039   1
   6  -6  10 258.751 18.5685   3
 -10  -6  -6 282.150 22.1993   1
 -10  -6   6 203.048 19.3736   1
 -10   6  -6 233.846 16.8522   1
  -6 -10  -6 318.625 25.4519   1
  -6 -10   6 225.608 16.8753   3
  -6  -6  10 228.746 16.0858   3
   6  10  -6 300.702 19.4721   2
  10   6   6 238.201 17.0601   2
   6   6  10 226.718 18.9734   3
   7   1  10 59.7249 7.37079   3
 -10  -1  -7 62.7112 11.8826   1
  -1 -10   7 62.7947 12.1560   3
  -7 -10  -1 53.2961 11.8021   1
  -1   7  10 47.8454 11.1643   3
  10   7   1 58.9328 9.85364   2
   1 -10  -7 52.6264 10.0693   1
  -1  10  -7 62.9745 6.82819   2
   1  -7  10 60.4975 11.0909   3
  10  -7  -1 49.7915 5.99825   2
   1  10   7 38.5866 10.0409   3
  -7  10   1 65.7613 12.2961   3
  -1  -7 -10 52.0118 6.52412   1
   7  -1 -10 48.2576 10.2198   2
   7  10  -1 36.0182 5.30281   3
  -7   1 -10 35.6763 8.64881   2
   1   7 -10 60.6881 10.9901   2
  10  -7  -1 56.7580 10.2959   1
 -10   1   7 47.3415 9.08728   1
  10   1  -7 57.9005 12.0057   2
 -10  -7   1 38.6079 10.0738   1
   7 -10   1 59.0150 10.4308   1
  -7  -1  10 56.1660 6.59895   3
  10  -1   7 53.8419 10.7467   2
  -7   1  10 50.7905 8.34698   3
 -10   1  -7 47.6849 9.05021   1
   7   1 -10 57.7604 10.9984   2
  -1   7 -10 44.6259 8.64879   2
 -10  -1   7 52.5194 9.30690   1
   1  -7 -10 49.9809 7.56279   1
  -1  10   7 33.3423 9.76857   3
   1   7  10 67.9924 12.9931   3
  -7  -1 -10 44.9523 9.39531   2
   7  -1  10 66.4849 10.4615   3
  10   7  -1 43.6415 8.97052   2
  -7  10  -1 43.4843 9.79705   3
  10  -1  -7 40.8725 9.74390   2
  -1  -7  10 59.2795 10.6924   3
 -10  -7  -1 48.2520 11.3872   1
  10   1   7 52.3016 10.6602   2
  -7 -10   1 57.2520 12.0190   1
   1  10  -7 53.8876 8.97048   2
  10  -7   1 66.4761 10.7230   1
  10  -7   1 54.3011 8.58947   2
   1 -10   7 45.3512 9.74263   3
   7 -10  -1 58.2565 10.2761   1
  -1 -10  -7 57.9688 11.2807   1
   7  10   1 50.5125 5.78835   3
 -10  -7   3 51.1074 11.1331   1
  -3  10  -7 61.5753 6.72040   2
  -3   7  10 45.8476 10.6569   3
   3 -10  -7 61.5074 10.7727   1
   7 -10   3 56.3264 7.09760   1
  -3  -7 -10 63.7862 7.76495   1
   3  -7  10 69.3416 12.0491   3
   7  -3 -10 62.2526 11.1245   2
  10  -3   7 51.7364 9.88823   2
  -7  -3  10 53.6504 6.54053   3
  -7  10   3 62.0026 11.4570   3
  10  -7  -3 53.5789 10.5166   1
   3   7 -10 67.9606 11.8723   2
   3  10   7 55.4556 11.0813   3
 -10   3   7 44.1434 8.90142   1
  10   7   3 58.8111 9.33610   2
  -7   3 -10 71.9305 12.7889   2
   7   3  10 51.4091 8.93386   3
  -7 -10  -3 50.7512 11.3745   1
 -10  -3  -7 59.5814 11.5702   1
  10   3  -7 43.2130 9.75778   2
 -10   7  -3 66.0884 11.0563   1
  -3 -10   7 46.0032 9.79235   3
  -7   3  10 67.7117 8.12065   3
   3  -7 -10 56.0820 6.31321   1
   7 -10  -3 52.1069 10.2685   1
  10  -7   3 57.0273 6.86801   2
  -3  -7  10 51.2871 9.77052   3
  -7  -3 -10 65.2778 12.0197   2
 -10  -7  -3 54.8386 12.8513   1
  10   3   7 64.8626 11.8326   2
   7  -3  10 57.9552 9.56656   3
   3  10  -7 64.6511 7.05196   2
  -7 -10   3 55.8047 10.6486   1
  10  -3  -7 53.7342 11.5104   2
   7   3 -10 44.2437 10.1060   2
 -10  -3   7 60.5669 9.61391   1
  -7  10  -3 64.2258 12.5903   3
  10   7  -3 64.2990 11.6328   2
   3 -10   7 54.2289 10.5716   3
   7  10   3 61.0950 6.84195   3
  -3  10   7 71.5281 14.1318   3
  -3 -10  -7 55.7158 12.2231   1
   3   7  10 60.6785 12.0146   3
  -3   7 -10 63.6724 10.9716   2
  10   5  -7 43.6912 10.6801   2
   5  10   7 39.8564 6.93929   3
   7  -5 -10 42.1623 7.03836   1
   7   5  10 36.9072 6.76280   3
 -10  -7   5 45.0563 8.61265   1
 -10   7  -5 39.4927 7.67517   1
 -10  -5  -7 53.3805 10.8806   1
  -7  -5  10 37.9956 6.52072   3
  -7   5 -10 47.9835 9.89089   2
  -5   7  10 46.3465 9.62213   3
   5   7 -10 35.8235 8.99247   2
  10  -5   7 39.7113 7.96803   2
 -10   5   7 45.2071 8.77572   1
  -5 -10   7 42.8874 8.16843   3
  -7  10   5 57.4579 10.4413   3
   5 -10  -7 45.7324 8.90939   1
   7 -10   5 50.2776 9.89881   3
  10  -7  -5 44.1890 8.86569   1
  -7 -10  -5 39.8806 10.5168   1
   7  10  -5 41.4218 8.19290   2
   5  -7  10 41.0524 8.64530   3
  10   7   5 38.7643 7.22932   2
   7  10   5 60.0010 6.11297   3
  -7   5  10 44.5839 8.48082   3
   5 -10   7 55.1581 11.0066   3
   7  -5  10 50.0687 8.94142   3
   7 -10  -5 36.0000 8.77726   1
   5  10  -7 65.8743 7.65789   2
 -10  -7  -5 41.0986 9.99694   1
  10  -7   5 45.9887 8.00718   2
  -5 -10  -7 26.8228 7.96950   1
   5  -7 -10 43.5179 5.35460   1
  -7 -10   5 41.6695 7.20369   1
  -5  10   7 37.6418 9.22024   3
 -10  -5   7 38.1579 7.74670   1
  10   7  -5 41.3224 9.05206   2
  -5  -7  10 48.1247 9.12433   3
   5   7  10 32.5805 7.24806   3
  -7  -5 -10 35.4901 7.63912   2
  10   5   7 42.5171 7.59362   2
  10  -5  -7 46.9826 9.03461   2
  -5   7 -10 39.9164 8.43764   2
   7   5 -10 50.4960 11.3040   2
   7   7 -10 53.0144 11.0643   2
  10  -7  -7 59.8281 10.0275   1
  10  -7   7 66.7306 7.77896   2
  -7   7  10 72.3287 11.5219   3
 -10  -7  -7 61.1422 11.4789   1
   7  -7  10 79.2982 11.8303   3
  -7 -10  -7 62.0817 11.8714   1
   7 -10   7 72.9112 12.7903   3
  -7  10   7 68.2018 11.3929   3
   7 -10  -7 85.9024 13.9821   1
   7  10  -7 65.9398 10.6980   2
   7  -7 -10 69.5938 7.93329   1
  -7   7 -10 69.4726 11.6389   2
  10   7  -7 74.6205 12.7846   2
   7  10   7 57.0761 7.14530   3
   7   7  10 71.6134 8.32314   3
   0  -8  10 11.1990 5.42274   3
   8   0 -10 9.33217 4.17593   2
   0  -8 -10 17.1780 3.82700   1
   0 -10  -8 10.2813 4.49668   1
  10  -8   0 10.4061 4.56122   1
  10   8   0 9.27209 3.46888   2
   8   0  10 6.36506 4.02377   3
  10   0   8 9.61882 4.71182   2
   0  10   8 12.8272 5.98852   3
  10   0  -8 5.99643 4.77685   2
   0   8  10 11.6708 5.12928   3
 -10   0   8 7.82465 3.06680   1
  -8 -10   0 4.56360 5.30784   1
  -8  10   0 7.23893 3.29213   3
 -10  -8   0 15.1635 6.45412   1
   0 -10   8 9.34296 5.25812   3
   0  10  -8 8.19471 3.44092   2
   0   8 -10 18.3706 5.58691   2
   8 -10   0 8.70619 3.90587   1
   8 -10   2 57.3105 9.90595   1
   8  -2 -10 33.5341 8.26050   2
   8   2  10 28.6002 4.84982   3
  10  -2   8 45.7797 9.44699   2
 -10  -8   2 35.4122 8.93405   1
  -8  10   2 58.2288 10.8542   3
  10  -8  -2 39.0320 9.04151   1
  10   2  -8 43.5953 11.2498   2
  -8 -10  -2 38.7097 10.0893   1
  10   8   2 40.4354 6.69209   2
   2   8 -10 41.6408 8.50952   2
   2 -10  -8 26.6493 6.81878   1
 -10  -2  -8 34.3910 6.58253   1
  -2 -10   8 29.8061 8.51822   3
 -10   2   8 39.7119 7.81086   1
  -2  10  -8 24.4082 5.03109   2
  -2  -8 -10 45.9406 7.74611   1
   2  -8  10 36.7080 8.73509   3
   8   2  10 33.1457 8.28303   2
   2  10   8 37.5277 9.45811   3
  -8   2 -10 30.8427 8.09301   2
  -2   8  10 56.5535 12.3644   3
  -2   8 -10 32.5574 7.09119   2
  10   2   8 35.9137 8.21361   2
   2 -10   8 37.2276 8.48811   3
 -10  -8  -2 49.7652 12.5643   1
  10  -8   2 50.5308 8.90689   1
  10   8  -2 47.5264 8.38828   2
  -8 -10   2 36.8041 8.72098   1
   2  10  -8 31.6203 6.28472   2
   2  -8 -10 31.9085 5.58721   1
  -2 -10  -8 52.3176 9.16033   1
 -10  -2   8 32.4379 6.84317   1
   8  -2  10 38.6772 6.96459   3
   8   2 -10 34.5590 9.13637   2
  -8  10  -2 22.4435 5.96549   3
  -2  -8  10 31.8807 8.09883   3
  10  -2  -8 30.4232 6.69197   2
   8 -10  -2 28.9775 7.52420   1
  -2  10   8 21.7549 8.26649   3
  -8   4 -10 60.7460 11.8213   2
   8 -10   4 97.6806 9.65622   1
  -8  10   4 92.0142 10.0091   3
 -10   4   8 104.898 10.4245   1
  -8 -10  -4 97.6199 17.0766   1
   4 -10  -8 72.5159 8.63567   1
  10   4  -8 96.4430 17.4434   2
  -4   8  10 82.9953 13.3514   3
  -4 -10   8 79.3952 12.7053   3
  -4  10  -8 78.2350 8.35161   2
   4  -8  10 93.1482 13.9848   3
   4   8 -10 114.442 11.6009   2
  10  -8  -4 79.6274 13.2113   1
 -10   8  -4 85.0690 9.81365   1
   4  10   8 71.3053 15.8529   3
   8  -4 -10 78.5058 12.8274   2
 -10  -4  -8 90.4984 10.2983   1
 -10  -8   4 81.0691 10.4423   1
  10  -4   8 92.2590 10.2907   2
  -4  -8 -10 106.566 10.7975   1
  10   8  -4 75.6415 9.47568   2
   8  -4  10 93.6288 9.91520   3
   8   4 -10 92.2946 15.6378   2
  10  -4  -8 75.5263 12.7665   2
   8 -10  -4 83.9561 14.0762   1
  -4   8 -10 67.5183 10.8549   2
  -4 -10  -8 52.1734 9.55828   1
  -8  10  -4 76.2288 14.2859   3
  10   4   8 84.0805 10.0127   2
  -4  10   8 105.642 17.4367   3
  -4  -8  10 71.1078 8.74165   3
   4 -10   8 87.3761 10.9268   3
   4  10  -8 103.692 9.96040   2
  -8 -10   4 65.1801 11.3180   1
  10  -8   4 93.8147 8.55659   2
   4  -8 -10 74.2626 7.80870   1
 -10  -8  -4 102.688 17.4471   1
   4   8  10 73.4107 13.7245   3
   8  -6 -10 71.4655 7.40548   1
  -6 -10   8 61.7673 7.55946   3
  10  -8  -6 68.0854 8.61391   1
   8  10  -6 48.1097 9.50304   2
  -8   6 -10 60.9745 10.7963   2
  10  -6   8 63.4668 10.4327   2
 -10  -8   6 62.7665 7.98339   1
  -6   8  10 69.4256 11.9293   3
   6  10   8 45.4295 6.78825   3
   6  -8  10 50.1492 9.33352   3
   6   8 -10 61.6426 10.2368   2
   8 -10   6 69.9485 13.3100   3
   6 -10  -8 67.3259 8.40037   1
 -10  -6  -8 56.9122 9.67860   1
  -8 -10  -6 66.0085 12.8029   1
  -8  10   6 68.0920 8.57280   3
  10   6  -8 73.9594 15.6158   2
  -6  -8  10 79.4130 8.01904   3
   8  -6  10 67.0455 8.12069   3
   8   6 -10 58.5374 12.7771   2
  10  -8   6 56.7091 6.95096   2
   6 -10   8 48.0776 9.43791   3
  -6  10   8 61.4988 10.2731   3
  -6 -10  -8 67.3127 12.5469   1
   6  -8 -10 65.8007 7.23308   1
   8 -10  -6 80.5049 9.96770   1
  -6   8 -10 84.5212 9.37845   2
   6  10  -8 57.0868 9.96249   2
   6   8  10 69.0849 8.43679   3
 -10  -8  -6 47.3946 9.92913   1
  10   6   8 54.6208 6.63822   2
  10   8  -6 66.3796 11.1543   2
  10  -8  -8 35.2592 6.93041   1
   8  -8 -10 32.6409 5.06811   1
  -8 -10  -8 14.6838 4.98534   1
   8  -8  10 21.9167 5.32390   3
  -8  10   8 15.4793 3.95387   3
   8  10  -8 18.8842 5.78811   2
  -8   8 -10 39.1907 7.46120   2
  10   8  -8 18.2162 4.92835   2
   8 -10   8 20.7035 5.14032   3
   8 -10  -8 28.5110 5.81814   1
 -10  -8  -8 18.2099 4.86537   1
 -10   8  -8 32.1294 6.89744   2
   8   8 -10 13.3326 6.84893   2
  -1  -9 -10 187.318 14.2509   1
   1 -10  -9 204.465 15.3696   1
   9  -1 -10 210.043 19.1491   2
  -1 -10   9 185.628 17.0640   3
   1  10   9 172.350 18.3854   3
  10   1  -9 179.250 18.7237   2
   1  -9  10 214.242 18.1420   3
   1   9 -10 215.089 16.0845   2
   9   1  10 192.390 17.3342   2
  10  -9  -1 191.072 16.1682   1
  -9 -10  -1 203.231 20.0076   1
   9 -10   1 193.177 15.9648   1
  10  -1   9 208.100 17.8261   2
  -1  10  -9 228.576 15.1812   2
  -1   9  10 233.149 22.0451   3
 -10  -9   1 204.564 19.5472   1
  -1 -10  -9 212.724 16.4582   1
  10   1   9 182.576 16.6292   2
  -1  -9  10 212.472 17.8088   3
  -9 -10   1 188.952 18.4158   1
 -10  -9  -1 207.375 20.1402   1
   1   9  10 174.358 18.4322   3
  10  -1  -9 178.435 18.3411   2
   1  10  -9 204.092 15.0478   2
   1  -9 -10 193.898 14.3718   1
   9  -1  10 216.238 17.5488   2
   9   1 -10 191.792 19.3411   2
   1 -10   9 200.944 17.9478   3
  10  -9   1 202.166 16.5394   1
   9 -10  -1 182.061 16.1194   1
  10   9  -1 228.702 15.7010   2
  -1   9 -10 205.184 15.5074   2
  -1  10   9 222.414 21.9612   3
   3  -9  10 6.97083 4.21948   3
   3 -10  -9 8.20695 3.30885   1
   3  10   9 8.03762 5.83859   3
   9 -10   3 11.9134 3.98075   1
 -10  -9   3 2.21246 3.27704   1
  -9   3 -10 3.81474 3.49703   2
  10   3  -9 6.27778 5.36598   2
  10  -9  -3 10.2538 4.68777   1
  -3   9  10 10.7995 5.82506   3
 -10   3   9 12.5548 3.58514   1
  -9 -10  -3 13.7014 6.74968   1
   9  -3 -10 12.9369 4.29230   2
  -3  -9 -10 9.55475 3.78579   1
  10  -3   9 16.0682 4.83220   2
   9   3  10 8.80647 4.29406   2
  -3 -10   9 8.04372 3.57429   3
  -3  10  -9 7.89539 2.33079   2
   3   9 -10 11.3545 4.20316   2
   9   3 -10 11.3399 5.77104   2
   3   9  10 3.88635 4.18043   3
   9 -10  -3 3.32299 3.44908   1
 -10  -9  -3 22.4447 6.98453   1
  -9 -10   3 5.67950 3.77656   1
  10   9  -3 17.4442 3.84400   2
  -3 -10  -9 8.16144 3.53728   1
  10   3   9 8.63700 3.93097   2
  -3  -9  10 12.0176 4.72512   3
   3 -10   9 9.01771 4.62921   3
   3  10  -9 9.62169 4.01209   2
  -3   9 -10 7.43265 3.18073   2
  10  -3  -9 6.00071 3.90994   2
  -3  10   9 13.2937 5.91234   3
  10  -9   3 15.3808 4.36559   1
   3  -9 -10 8.40556 3.15442   1
   9  10  -5 399.654 24.3055   2
  -5   9  10 436.737 27.5050   3
 -10   9  -5 414.518 24.5650   1
 -10  -9   5 429.413 26.8921   1
  -5  10  -9 434.428 23.5079   2
  10   5  -9 432.560 30.8676   2
   5 -10  -9 416.884 23.8279   1
  -9 -10  -5 396.988 28.7463   1
   5  10   9 396.320 26.6113   3
  -5  -9 -10 362.822 24.6502   1
   9   5  10 378.354 23.6986   2
  10  -9  -5 444.337 26.7588   1
  -9   5 -10 464.146 28.3442   2
 -10   5   9 356.851 22.6995   1
   5  -9  10 422.511 26.4589   3
   5   9 -10 404.022 25.2921   2
  -5 -10   9 409.190 24.2815   3
 -10  -9  -5 410.041 29.8408   1
  10   9  -5 386.405 25.3000   2
  -9 -10   5 461.641 27.2271   1
   9   5 -10 417.557 29.6010   2
   5   9  10 414.918 27.7837   3
   5  10  -9 381.956 24.0766   2
  -5  10   9 423.671 28.1033   3
   5  -9 -10 448.326 24.2743   1
  10   5   9 391.612 24.4365   2
   5 -10   9 374.141 25.4507   3
  -5 -10  -9 337.231 25.7921   1
   9 -10  -5 431.074 26.5367   1
  -5  -9  10 431.282 24.6770   3
  -5   9 -10 401.967 23.9587   2
  10   7  -9 -1.8324 4.21833   2
 -10  -7  -9 0.05329 3.98237   1
   9  -7 -10 0.31975 2.34229   1
  -9 -10  -7 9.19625 4.17581   1
  10  -9  -7 3.83305 2.96150   1
  -7   9  10 4.74067 4.33539   3
   7  10   9 1.60757 4.66542   3
   7  -9  10 -3.2211 3.33332   3
   7   9 -10 -1.5271 3.63243   2
   7 -10  -9 -0.2780 2.62077   1
  -9   7 -10 1.49908 2.26679   2
   9  10  -7 -1.3095 3.84625   2
 -10   9  -7 1.51558 2.36154   2
 -10  -9  -7 0.87935 4.35014   1
   9 -10  -7 0.33912 2.59005   1
  -7 -10  -9 -3.2091 4.34640   1
  -7  10   9 -2.2161 3.60170   3
   7   9  10 7.57304 4.33932   3
   7 -10   9 9.03565 4.16658   3
   7  10  -9 -2.1108 3.75958   2
   7  -9 -10 0.75712 2.61324   1
 -10   7  -9 2.19829 2.31654   2
   9   7 -10 -3.3997 4.02036   2
  -7   9 -10 -1.4178 2.43528   2
  10   9  -7 6.04029 4.09542   2
 -10  -9  -9 132.987 11.5959   1
 -10   9  -9 125.255 11.4603   2
  -9 -10  -9 145.529 13.0530   1
  -9   9 -10 119.923 11.3181   2
   9 -10  -9 105.699 10.5763   1
   9  -9 -10 118.367 10.4095   1
   9   9 -10 141.626 13.1237   2
   9  10  -9 132.840 12.0643   2
  10  -9  -9 131.328 12.2242   1
  10   9  -9 142.133 13.6660   2
 -10 -10   0 306.324 25.0232   1
   0 -10 -10 330.977 20.5211   1
   0 -10  10 340.822 23.9425   3
   0  10 -10 330.284 20.5074   2
   0  10  10 333.627 26.9785   3
  10 -10   0 306.335 21.4722   1
  10   0 -10 294.838 24.5998   2
  10   0  10 325.335 22.8850   2
 -10 -10  -2 205.770 20.6376   1
 -10 -10   2 150.091 16.2942   1
  -2 -10 -10 224.433 15.9066   1
  -2 -10  10 173.383 15.9208   3
  -2  10 -10 163.334 13.1190   2
  -2  10  10 209.288 20.2781   3
   2 -10 -10 161.909 13.1677   1
   2 -10  10 231.147 18.8531   3
   2  10 -10 253.924 17.1881   2
   2  10  10 161.632 17.6875   3
  10 -10  -2 167.757 15.6830   1
  10 -10   2 219.551 16.8912   1
  10  -2 -10 156.364 15.8903   2
  10  -2  10 198.130 16.8532   2
  10   2 -10 220.887 21.5459   2
  10   2  10 176.479 16.3251   2
 -10 -10  -4 86.3063 15.3430   1
 -10 -10   4 88.7218 9.89146   1
 -10   4 -10 90.4297 14.1079   2
  -4 -10 -10 87.8689 13.6388   1
  -4 -10  10 92.7086 9.79133   3
  -4  10 -10 86.6096 9.08935   2
  -4  10  10 80.8344 14.0695   3
   4 -10 -10 97.4556 9.31728   1
   4 -10  10 87.4927 14.6353   3
   4  10 -10 80.5796 8.97903   2
   4  10  10 88.7063 13.8349   3
  10 -10  -4 95.1930 11.5314   1
  10  -4 -10 96.7284 10.4748   2
  10   4 -10 103.879 16.9804   2
  10   4  10 72.5296 11.2536   2
 -10 -10  -6 -5.7462 3.90720   1
 -10   6 -10 10.4757 4.19923   2
  -6 -10 -10 -0.5079 4.70777   1
  -6 -10  10 20.3011 3.71675   3
  -6  10 -10 18.0634 4.27120   2
  -6  10  10 4.50059 5.68226   3
   6 -10  10 4.78856 3.12074   3
   6  10 -10 2.09501 3.64598   2
   6  10  10 7.64323 5.66790   3
  10 -10  -6 16.8639 5.30957   1
  10   6 -10 11.3217 5.90693   2
  10  10  -6 -1.5610 3.93329   2
 -10 -10  -8 0.57522 4.37042   1
 -10   8 -10 2.49225 2.70242   2
   8 -10 -10 -3.6234 3.05931   1
   8 -10  10 4.98432 3.20452   3
   8  10 -10 -2.8754 4.43796   2
  10 -10  -8 9.51280 3.19474   1
  10   8 -10 -3.8286 4.89684   2
  10  10  -8 1.60579 4.54264   2
 -11   0  -1 97.1509 12.0751   1
 -11   0   1 86.9775 13.9876   1
  -1 -11   0 95.5059 11.3725   1
  -1  11   0 87.5566 14.5919   3
   0  -1 -11 91.4980 10.3015   2
   0  -1  11 95.3564 11.5831   3
   0   1 -11 102.994 11.4890   2
   0   1  11 105.177 12.3757   3
   1 -11   0 111.826 11.4183   1
   1  11   0 108.915 12.8690   3
  11   0  -1 92.0734 14.4139   2
  11   0   1 85.3364 14.3272   2
  -1   0 -11 95.8009 10.8979   2
  -1   0  11 93.9089 11.5705   3
   0 -11  -1 93.4032 11.1102   1
   0 -11   1 95.7686 10.4156   1
   0  11  -1 96.4150 12.1674   3
   0  11   1 99.0330 11.9887   3
   1   0 -11 95.0800 10.8308   2
   1   0  11 92.4300 11.3303   3
  11  -1   0 103.355 15.5524   2
  11   1   0 95.0700 15.1962   2
 -11  -1   0 96.4472 14.9516   1
 -11   1   0 83.2999 13.3226   1
  11   2   1 131.546 14.5083   2
 -11   1   2 106.364 12.2789   1
   2 -11   1 106.516 10.7830   1
   2  11  -1 115.551 13.4846   3
   1  -2  11 99.5899 11.4277   3
   1   2 -11 117.005 12.3271   2
  -1  -2 -11 95.1886 10.4352   2
  11   1  -2 113.606 13.4394   2
 -11  -1  -2 106.618 13.5675   1
  -1   2  11 102.799 12.4354   3
   1  11   2 117.294 13.4679   3
   2  -1 -11 105.403 11.3275   2
  -2 -11  -1 113.434 13.5007   1
   1 -11  -2 82.5022 10.5151   1
   2   1  11 94.0673 11.7036   3
  11  -2  -1 105.514 12.7915   2
  -2  11   1 130.349 15.1627   3
 -11  -2   1 102.437 12.7831   1
 -11   2  -1 112.950 12.5501   1
  -1 -11   2 112.856 11.6517   1
  11  -1   2 110.213 12.8352   2
  -2  -1  11 108.154 12.2214   3
  -2   1 -11 100.070 11.3108   2
  -1  11  -2 118.863 14.0299   3
  -1 -11  -2 103.552 12.5403   1
 -11   2   1 98.0515 11.9893   1
  -2   1  11 111.927 12.8393   3
  -2 -11   1 112.626 12.8847   1
 -11  -1   2 97.3157 12.2962   1
   2  11   1 100.737 12.4159   3
 -11  -2  -1 111.656 14.3140   1
  -2  -1 -11 118.608 12.0360   2
   1   2  11 111.176 12.5820   3
   1 -11   2 105.164 10.5332   1
   1  11  -2 117.460 13.9990   3
   1  -2 -11 117.536 11.3711   2
  11  -2   1 114.496 12.5685   2
   2  -1  11 101.725 11.7699   3
   2   1 -11 114.308 12.0191   2
  -2  11  -1 120.919 14.7732   3
  11  -1  -2 105.299 12.9871   2
  11   1   2 129.491 18.4771   2
  -1  -2  11 126.508 13.2295   3
 -11   1  -2 99.8216 11.8976   1
   2 -11  -1 113.604 11.7111   1
  11   2  -1 101.547 15.6112   2
  -1  11   2 129.274 14.8354   3
  -1   2 -11 105.205 11.6327   2
   0 -11  -3 0.14992 2.98691   1
 -11   0  -3 2.39211 3.28198   1
 -11   0   3 0.18984 2.22305   1
  -3   0  11 -0.6731 2.94725   3
   3 -11   0 -0.8208 2.78350   1
   3  11   0 0.93428 2.75842   3
 -11  -3   0 2.63550 4.58865   1
 -11   3   0 0.22143 2.54928   1
  -3   0 -11 -3.3286 1.91988   2
   0 -11   3 2.97359 2.59708   1
   0  11  -3 -1.6243 3.07955   3
   0  11   3 1.27302 3.85220   3
   3   0 -11 1.65503 3.62003   2
   3   0  11 0.63088 2.57624   3
  11  -3   0 -3.2141 2.20326   2
  11   3   0 1.82347 3.66509   2
  -3  11   0 5.18934 4.41273   3
   0  -3 -11 1.04176 1.90570   2
   0  -3  11 2.37324 2.87379   3
  11   0  -3 0.15399 3.15788   2
  11   0   3 0.08969 2.79061   2
   0   3  11 -1.3162 3.44040   3
   0   3 -11 -1.1668 1.92108   2
  -3 -11   0 0.82176 3.08049   1
 -11  -2  -3 16.3701 6.70557   1
   2  11   3 4.17769 3.81501   3
  -3 -11  -2 14.4753 6.42910   1
  11  -2   3 21.4140 6.52987   2
  11   2  -3 12.5015 6.21847   2
  -2 -11   3 16.6369 4.70325   1
  -3  -2  11 12.2664 5.52027   3
  -2   3  11 8.13364 4.90309   3
   3  -2 -11 8.89258 3.45884   2
  -3   2 -11 13.4458 5.13421   2
   3 -11   2 24.1506 6.00358   1
  -3  11   2 13.4848 5.55929   3
  -2  -3 -11 10.1396 3.67796   2
  -2  11  -3 15.3175 7.59237   3
   3  11  -2 21.1025 7.21651   3
 -11  -3   2 8.08815 4.29059   1
   2  -3  11 10.8652 4.69000   3
   2   3 -11 16.4179 6.36075   2
   3   2  11 14.8473 5.30888   3
  11  -3  -2 14.8503 5.20510   2
   2 -11  -3 10.7732 4.70192   1
 -11   2   3 20.9601 6.17538   1
  11   3   2 9.90420 4.99617   2
 -11   3  -2 11.1732 4.58334   1
   2  11  -3 23.0998 7.01388   3
 -11  -3  -2 22.6301 7.76648   1
  11   3  -2 20.3135 6.55428   2
  11   2   3 13.9024 5.55916   2
 -11   3   2 12.8536 5.02939   1
  -3  -2 -11 10.5218 4.15570   2
  11  -3   2 15.5028 5.23429   2
  -3 -11   2 8.26720 3.88819   1
   3   2 -11 12.8375 5.39666   2
  -2 -11  -3 17.1743 6.62606   1
  -3  11  -2 16.6775 6.09632   3
  -2  -3  11 8.60902 4.74041   3
  -2  11   3 17.2725 7.26379   3
   3  -2  11 16.7462 6.83907   3
   2 -11   3 19.6597 4.88141   1
   3 -11  -2 16.0225 5.69168   1
 -11  -2   3 7.01225 4.39118   1
 -11   2  -3 8.84042 4.76440   1
   3  11   2 5.95049 4.33443   3
  11  -2  -3 11.7200 5.24634   2
  -2   3 -11 9.74374 4.44375   2
  -3   2  11 14.9861 5.60125   3
   2  -3 -11 20.6482 5.54162   2
   2   3  11 5.47350 4.12141   3
  -4  -1  11 65.5896 11.1170   3
   1 -11  -4 59.8313 11.0526   1
 -11   1   4 51.5097 10.3941   1
  -4 -11  -1 53.6593 11.7890   1
 -11   4  -1 59.8705 10.6783   1
  11  -1   4 54.1767 10.9993   2
  11   1  -4 48.3312 10.1379   2
  -1  -4 -11 51.1938 8.72851   2
   4   1  11 69.9218 11.8743   3
  11  -4  -1 69.3545 11.8543   2
   1  -4  11 63.5659 11.5909   3
   4 -11   1 57.8046 10.1123   1
  11   4   1 72.6842 13.1544   2
   4  -1 -11 66.9250 11.0530   2
 -11  -4   1 55.9554 12.6248   1
  -4   1 -11 72.1173 12.1346   2
  -4  11   1 54.6133 11.4136   3
 -11  -1  -4 70.4879 13.2207   1
   4  11  -1 41.2150 8.14640   3
  -1   4  11 60.3263 11.5512   3
  -1 -11   4 57.5894 6.79989   1
   1  11   4 73.7946 14.5347   3
  -1 -11   4 50.4508 11.1612   3
   1   4 -11 56.2365 10.8370   2
  11  -4   1 58.2609 10.8250   2
  -4  11  -1 57.5633 12.0192   3
   1   4  11 64.3204 12.0604   3
   1  -4 -11 60.7734 7.44629   2
   4 -11  -1 59.9910 10.7079   1
  -1   4 -11 61.3783 10.9885   2
   4  -1  11 51.4987 10.3131   3
   4   1 -11 47.7563 9.65854   2
  -1  -4  11 55.2703 10.6952   3
  -4   1  11 49.1066 10.1038   3
  -1 -11  -4 66.0076 12.8820   1
 -11  -4  -1 51.1705 12.5105   1
  11   4  -1 58.9073 11.8206   2
   4  11   1 64.7821 8.01033   3
  -1  11   4 48.5090 11.3843   3
 -11  -1   4 53.3492 10.8212   1
 -11   4   1 51.6625 10.5915   1
  -4  -1 -11 50.6968 9.96614   2
  11  -1  -4 63.7942 12.5626   2
  -4 -11   1 65.6737 12.5041   1
 -11   1  -4 71.2745 12.2101   1
   1 -11   4 55.3243 6.62453   1
   1 -11   4 58.5522 11.0330   3
  11   1   4 57.7156 11.6721   2
   3   4 -11 18.6556 6.41087   2
   4  -3 -11 13.9432 5.03633   2
   3  -4  11 25.4836 6.96071   3
 -11   4  -3 12.8180 5.07059   1
  -4   3 -11 9.48231 4.39272   2
  11  -3   4 22.0114 6.62777   2
  -4  -3  11 17.9601 5.79727   3
  -3  -4 -11 18.2732 5.49260   2
   4 -11   3 26.5641 6.29076   1
 -11  -3  -4 31.2995 10.0541   1
   3  11   4 15.6266 5.65774   3
   4  11  -3 14.7319 4.72320   3
  -4  11   3 15.3072 6.86662   3
 -11   3   4 15.2124 5.81548   1
  -4 -11  -3 31.6769 9.98773   1
   4   3  11 16.6763 5.49860   3
  -3 -11   4 15.9602 4.58500   1
  11   3  -4 21.2612 8.06952   2
  11   4   3 13.2258 5.90748   2
  11  -4  -3 14.6779 5.70280   2
  -3   4  11 26.2670 7.98760   3
   3 -11  -4 9.99377 5.19120   1
 -11  -4   3 13.0189 7.11862   1
 -11  -3   4 15.0276 5.82533   1
  11   4  -3 25.1157 7.64268   2
   4  -3  11 19.7496 6.20420   3
   4   3 -11 23.4173 7.68075   2
 -11  -4  -3 28.3162 9.77827   1
  -4 -11   3 13.2890 5.04359   1
  -4  11  -3 14.5469 7.23759   3
  -3   4 -11 15.5395 5.85970   2
   4 -11  -3 17.6875 5.86966   1
   4  11   3 19.9836 6.75219   3
  11  -3  -4 17.2994 6.59491   2
  -4  -3 -11 22.5664 5.29640   2
   3  -4 -11 16.0738 4.87087   2
  11   3   4 17.2911 7.47692   2
   3 -11   4 25.1177 5.62021   1
 -11   4   3 22.0756 6.94580   1
  -4   3  11 34.8776 8.52076   3
  -3 -11  -4 13.4610 7.25136   1
  11  -4   3 26.4257 6.76887   2
  -3  11   4 12.7818 7.18097   3
 -11   3  -4 11.3935 3.75415   1
   3   4  11 14.8853 5.50969   3
   3  11  -4 27.0350 9.15918   3
  -3  -4  11 9.89233 4.62658   3
 -11   5   0 34.4942 8.45831   1
   5   0  11 29.0227 6.86898   3
  -5   0  11 26.2626 6.55233   3
   0 -11  -5 45.4543 10.0838   1
   0 -11   5 29.7215 5.30569   1
   0 -11   5 38.6319 10.2875   3
   0  11   5 36.7287 9.78034   3
 -11  -5   0 33.8450 10.4647   1
 -11   0  -5 45.1641 9.82133   1
 -11   0   5 35.9181 8.67193   1
  -5 -11   0 23.0625 7.90521   1
  -5  11   0 29.9976 8.88652   3
   5   0 -11 33.5219 8.56397   2
  11   0  -5 23.1083 7.63209   2
  11  -5   0 26.6427 6.75825   2
  -5   0 -11 26.3034 6.96689   2
   5  11   0 26.8526 6.57584   3
   0  -5 -11 33.8237 5.34820   2
   0  -5  11 28.8257 8.16014   3
   0   5 -11 29.1154 7.54258   2
   0   5  11 38.6552 9.96829   3
  11   5   0 26.6767 7.51620   2
  11   0   5 23.6114 7.22441   2
   5 -11   0 39.3217 8.77996   1
  -2  -5 -11 212.082 14.8956   2
   5  -2 -11 177.064 15.7165   2
  -2   5  11 204.132 18.5444   3
  11   2  -5 182.196 17.7762   2
  -5  11   2 188.281 18.7917   3
  11   5   2 222.582 18.4367   2
   2  -5  11 210.784 16.9969   3
   5  11  -2 206.883 16.9465   3
  -2 -11   5 227.612 15.1083   1
 -11   2   5 221.466 18.1772   1
   5 -11   2 207.642 15.3725   1
   2 -11  -5 200.362 16.7283   1
 -11  -5   2 183.261 19.9754   1
 -11   5  -2 180.999 15.9389   1
   2  11   5 223.830 19.5708   3
  11  -2   5 195.770 16.8790   2
  -5  -2  11 203.864 15.5572   3
   2   5 -11 244.583 18.7674   2
  -2 -11   5 211.823 18.5950   3
   5   2  11 205.396 16.9851   3
  11  -5  -2 210.468 16.5733   2
  -5 -11  -2 208.352 20.1568   1
  -5   2 -11 177.198 16.2010   2
 -11  -2  -5 217.134 20.1625   1
  11   5  -2 211.819 18.2045   2
  -5   2  11 230.275 17.2438   3
  -2 -11  -5 203.819 19.5254   1
   2   5  11 186.589 17.7097   3
   2  -5 -11 179.853 14.6948   2
  -2  11   5 187.817 19.9540   3
  11  -5   2 191.976 14.9494   2
  -5 -11   2 210.150 18.3875   1
 -11  -2   5 193.731 16.8845   1
 -11   2  -5 208.894 17.3426   1
   5 -11  -2 213.528 16.9223   1
   5  -2  11 197.274 16.1307   3
   2 -11   5 191.903 12.9233   1
   2 -11   5 213.744 18.2000   3
 -11   5   2 207.319 17.5551   1
  11   2   5 219.323 18.7939   2
  -5  -2 -11 211.490 17.2849   2
  -5  11  -2 239.932 20.8751   3
  -2  -5  11 203.810 16.8074   3
 -11  -5  -2 219.741 23.6564   1
   5   2 -11 212.078 17.9697   2
   5  11   2 188.085 15.6748   3
  11  -2  -5 195.339 18.0174   2
  -2   5 -11 194.758 16.6328   2
  11  -5  -4 29.4105 5.79346   2
   5   4  11 34.7322 7.62532   3
 -11   5  -4 30.4853 7.05226   1
   5  11  -4 27.9910 6.66975   3
   4 -11  -5 38.7931 8.76959   1
   4  11   5 41.0834 7.31034   3
  -4   5  11 27.6895 7.81170   3
  11   5   4 38.5825 8.30252   2
  -5  11   4 24.2309 8.56373   3
  -5 -11  -4 25.8474 8.98813   1
 -11  -4  -5 32.8755 9.88455   1
   4   5 -11 33.4019 8.40516   2
  -5  -4  11 39.6449 7.88469   3
 -11   4   5 24.3971 6.52677   1
  11  -4   5 27.9146 7.45992   2
  -4 -11   5 47.6295 9.93197   3
  -4 -11   5 35.2198 6.10983   1
  -5   4 -11 42.1965 9.34029   2
  -4  -5 -11 20.3070 4.67540   2
   5 -11   4 19.0449 4.07868   1
 -11  -5   4 28.1308 8.45285   1
   4  -5  11 30.9535 7.18801   3
   5  -4 -11 44.3481 8.61873   2
  11   4  -5 21.8570 7.55666   2
  11  -5   4 22.7872 5.79407   2
   5  -4  11 30.9805 7.08748   3
   5   4 -11 20.3049 7.15903   2
   5  11   4 36.2152 7.06612   3
  -4  -5  11 34.9468 8.21020   3
   5 -11  -4 41.6098 9.61910   1
 -11  -5  -4 20.4370 9.41578   1
  -4 -11  -5 29.6149 9.43155   1
  -5  11  -4 38.9979 10.7274   3
 -11   5   4 17.3749 5.51039   1
  -5  -4 -11 26.5412 5.49883   2
 -11   4  -5 27.6245 6.57988   1
   4   5  11 31.2496 7.76786   3
  -5   4  11 31.4036 7.62662   3
  -4   5 -11 34.1101 8.73955   2
  -5 -11   4 25.5331 5.53931   1
  11  -4  -5 35.9526 8.41269   2
 -11  -4   5 37.0464 9.12253   1
   4 -11   5 30.4691 7.95936   3
  11   4   5 41.2775 8.67830   2
  11   5  -4 19.9998 7.15172   2
  -4  11   5 32.0315 9.37150   3
   1  11   6 249.153 22.3545   3
  11   1  -6 253.415 21.2819   2
   6  -1 -11 252.432 20.2093   2
  11  -1   6 271.395 20.3272   2
  -1   6  11 274.690 22.0750   3
   1  -6  11 263.815 19.7669   3
   1   6 -11 282.898 19.7965   2
  -6  -1  11 245.797 17.3171   3
  -1 -11   6 238.178 20.4209   3
  -6  11   1 249.014 21.5684   3
   6   1  11 257.368 18.5224   3
  11  -6  -1 247.686 16.9995   2
 -11   1   6 280.546 20.0352   1
   1 -11  -6 254.607 19.8154   1
 -11   6  -1 252.222 19.2644   1
   6 -11   1 264.832 18.7628   1
  -6 -11  -1 265.616 22.7295   1
 -11  -6   1 245.837 24.4005   1
 -11  -1  -6 312.941 23.4138   1
  -6   1 -11 238.807 19.0169   2
   6  11  -1 257.719 17.4516   3
  11   6   1 268.275 19.2914   2
  11  -1  -6 241.472 20.7432   2
  -6   1  11 279.821 18.7009   3
   1 -11   6 276.105 21.3908   3
  -6 -11   1 258.723 21.5846   1
  11   1   6 273.241 21.4590   2
  -6  -1 -11 287.117 20.5101   2
 -11  -6  -1 288.999 26.3038   1
   1   6  11 212.231 19.9267   3
   6 -11  -1 264.370 19.0767   1
 -11   6   1 260.393 20.3447   1
  -1   6 -11 272.755 19.8166   2
  -1 -11  -6 304.991 22.6970   1
  -1  11   6 258.587 23.6390   3
   6  11   1 254.712 17.5581   3
   6   1 -11 259.481 20.7282   2
  -6  11  -1 274.124 22.7011   3
 -11  -1   6 263.723 19.7023   1
 -11   1  -6 259.267 19.9872   1
  11   6  -1 259.001 19.5914   2
   6  -1  11 248.980 18.2311   3
  11  -6   1 303.866 18.6514   2
  -1  -6  11 250.795 19.3526   3
   3   6 -11 113.899 12.7126   2
 -11  -3  -6 79.6389 14.4483   1
  -6 -11  -3 104.564 17.8564   1
 -11  -6   3 79.1859 15.8168   1
   6  -3 -11 104.268 11.9866   2
   3 -11  -6 90.5145 11.2005   1
   3  -6  11 102.503 11.5129   3
   3  11   6 94.1764 15.0764   3
  11   6   3 87.0293 10.3235   2
 -11   3   6 97.6452 11.3334   1
 -11   6  -3 78.7010 9.94785   1
  -3 -11   6 96.8144 15.1838   3
  -3   6  11 115.572 17.2636   3
   6 -11   3 96.6545 9.88102   1
   6   3  11 92.3008 10.8746   3
  11  -6  -3 105.137 10.1394   2
   6  11  -3 95.1350 9.89182   3
  11  -3   6 95.5870 10.8729   2
  11   3  -6 95.0768 16.2292   2
  -6   3 -11 104.423 12.5374   2
  -6  11   3 87.5954 14.5738   3
  -6  -3  11 83.1881 9.09898   3
  11  -6   3 94.4535 9.93466   2
  -6   3  11 90.2076 10.2750   3
  -3  -6  11 102.086 11.6682   3
  -3   6 -11 102.111 11.8247   2
   6 -11  -3 86.2825 10.4921   1
 -11  -6  -3 76.9120 15.9224   1
  -6 -11   3 101.671 12.0032   1
   3 -11   6 95.7287 12.0131   3
 -11   6   3 89.0951 11.3692   1
  -6  -3 -11 84.5554 13.8456   2
   6   3 -11 74.3435 13.2579   2
  11   3   6 89.5657 14.7487   2
   6  11   3 105.290 10.3051   3
  -3 -11  -6 79.5976 15.1074   1
   3   6  11 100.751 16.0623   3
 -11   3  -6 97.9014 10.9849   1
  11  -3  -6 133.407 13.6545   2
  11   6  -3 101.469 12.0454   2
 -11  -3   6 98.7082 11.7861   1
  -3  11   6 96.3758 17.4210   3
   6  -3  11 90.3869 10.3004   3
  -6  11  -3 113.666 14.0567   3
 -11   5   6 345.208 23.3345   1
  -5   6  11 344.461 23.2356   3
 -11   6  -5 318.554 20.9837   1
   5   6 -11 303.695 22.8600   2
 -11  -6   5 288.560 24.5583   1
  11   6   5 322.561 20.9871   2
   6  11  -5 349.339 23.3234   3
   5 -11  -6 284.921 20.8870   1
 -11  -5  -6 327.609 25.2764   1
  -6   5 -11 324.661 22.9281   2
  11   5  -6 340.578 25.6090   2
  -6  11   5 334.510 24.3499   3
  -5 -11   6 336.779 22.2852   3
   5  11   6 319.254 22.5623   3
  11  -5   6 331.742 21.2265   2
  -6 -11  -5 359.117 27.3918   1
   6   5  11 277.333 20.9562   3
   5  -6  11 328.884 21.9606   3
  -6  -5  11 334.306 20.1219   3
 -11  -5   6 309.715 24.5042   1
   6 -11  -5 323.582 22.3794   1
 -11  -6  -5 339.094 26.9512   1
   5 -11   6 318.907 23.5808   3
  -5  11   6 345.696 26.1012   3
 -11   6   5 322.011 23.1374   1
 -11   5  -6 353.519 22.0377   1
   6  11   5 309.792 20.7763   3
  11  -5  -6 297.007 21.4342   2
   5   6  11 272.737 22.1792   3
  -6   5  11 329.440 22.1572   3
  11   5   6 309.275 21.5946   2
  11   6  -5 326.925 24.4459   2
  -5   6 -11 326.559 22.6442   2
  -6 -11   5 345.835 22.1237   1
  11  -6   5 338.207 20.6109   2
  -5 -11  -6 312.957 26.1676   1
  -6  -5 -11 330.241 21.6538   2
   6  -5  11 326.965 21.5852   3
   6   5 -11 339.075 24.5783   2
  -5  -6  11 330.544 20.6427   3
   0 -11  -7 86.0482 14.0826   1
 -11   7   0 57.6902 11.1601   1
  -7   0 -11 67.1330 12.5119   2
  -7   0  11 68.2876 8.00508   3
 -11   0   7 65.9449 10.9340   1
   7   0 -11 62.4671 12.4625   2
   7   0  11 67.4748 8.48144   3
   0  -7  11 79.4754 13.7013   3
   0   7 -11 66.3111 11.9045   2
  11   0  -7 81.0655 14.3134   2
   0  11   7 75.7229 14.4879   3
  11   0   7 72.2417 13.1661   2
  11  -7   0 66.4314 7.48493   2
  11   7   0 84.5092 9.74455   2
   0 -11   7 82.9117 14.6890   3
   0   7  11 86.7170 15.8252   3
   7 -11   0 72.7451 11.9749   1
 -11   0  -7 88.4989 14.4538   1
 -11  -7   0 66.8377 13.8152   1
  -7 -11   0 59.9971 11.2652   1
  -7  11   0 52.5859 10.2995   3
   2   7 -11 10.2428 4.15360   2
   7  -2 -11 3.09488 3.64626   2
  11   7   2 7.19843 3.59144   2
  -7  11   2 8.66465 3.50059   3
   2  11   7 6.18563 4.36723   3
 -11   2   7 7.84332 2.30002   1
  -2   7  11 14.8240 5.58351   3
 -11  -7   2 8.05594 5.49629   1
 -11   7  -2 7.54029 3.53397   1
  -7  -2  11 8.22551 3.36084   3
  -7   2 -11 7.19846 3.56003   2
   2  -7  11 5.31763 3.67079   3
  -7 -11  -2 7.67961 4.94628   1
   7   2  11 6.14047 3.69192   3
  11   2  -7 2.56064 4.32328   2
  -2 -11   7 6.38704 4.08272   3
   7 -11   2 12.0747 4.33761   1
   2 -11  -7 5.44366 3.49076   1
 -11  -2  -7 9.31721 4.19500   1
  11  -2   7 11.7167 4.95807   2
  -7  11  -2 7.54831 4.40894   3
  -7   2  11 4.24398 2.88993   3
  -2  -7  11 4.19714 4.51939   3
   7  -2  11 6.63146 2.49580   3
  -2  11   7 3.00144 5.12558   3
  11   2   7 10.3162 5.40763   2
  -7  -2 -11 4.78750 4.04282   2
   2   7  11 4.40517 4.36192   3
   7 -11  -2 9.46243 4.26566   1
   7   2 -11 5.74543 4.43660   2
   7  11   2 10.6215 3.44920   3
  11  -2  -7 11.7390 5.66223   2
 -11  -2   7 9.96362 3.88284   1
 -11  -7  -2 5.71074 5.74796   1
  11   7  -2 6.66234 3.57350   2
  11  -7   2 3.04601 1.83210   2
  -7 -11   2 14.8254 4.64486   1
  -2 -11  -7 5.31515 4.25981   1
   2 -11   7 2.99112 3.02525   3
 -11   2  -7 3.10781 2.51827   1
  -2   7 -11 5.62894 3.37902   2
  -7   4 -11 28.5196 7.22089   2
   7  -4 -11 19.5744 3.82306   2
   4   7 -11 28.4518 7.98983   2
 -11   4   7 20.9115 4.67702   1
 -11   7  -4 32.6115 6.98822   1
  11   4  -7 30.2250 9.62611   2
  -4 -11   7 35.1678 7.64022   3
 -11  -7   4 23.2106 6.01700   1
   4  11   7 28.8166 6.29694   3
 -11  -4  -7 14.7803 5.20977   1
   4  -7  11 26.8323 6.48540   3
  11  -7  -4 27.5445 7.20425   1
  -7 -11  -4 23.2387 7.94113   1
  -7  11   4 31.5114 7.04511   3
  11   7   4 18.4773 5.78902   2
   7   4  11 24.2082 5.13743   3
  -7  -4  11 23.2271 4.83463   3
  11  -4   7 19.1228 5.22878   2
  -4   7  11 30.1969 7.50953   3
   7 -11   4 28.3801 5.85216   1
   4 -11  -7 24.0924 6.98313   1
   4   7  11 15.6215 5.68338   3
   7 -11  -4 19.2348 6.21888   1
  -7 -11   4 23.3635 5.72971   1
  11   4   7 18.0862 4.94656   2
  11  -4  -7 15.9179 4.66390   2
   7   4 -11 19.6525 7.25283   2
   4 -11   7 18.3984 5.67290   3
   7  11   4 19.7689 4.12609   3
 -11  -4   7 24.0566 5.46686   1
  -4 -11  -7 24.8173 7.55832   1
  -7  11  -4 23.0167 6.83871   3
  -4  11   7 16.8484 6.29824   3
   7  -4  11 23.9466 5.79483   3
  -4  -7  11 29.4312 6.22946   3
  -4   7 -11 18.2550 5.09611   2
  -7  -4 -11 18.3784 4.56334   2
  11  -7   4 21.2650 4.83089   2
  11   7  -4 34.4891 7.64387   2
 -11  -7  -4 34.2261 10.7098   1
  -7   4  11 22.7078 5.43222   3
  -7  11   6 39.5965 7.95320   3
   7   6  11 35.3813 6.27622   3
   7 -11   6 40.8482 9.12579   3
  11  -6   7 48.3690 9.17943   2
  -6 -11   7 47.3780 7.47533   3
  -7   6 -11 45.0104 9.36328   2
   6 -11  -7 45.7727 9.86731   1
 -11   6   7 46.7553 9.40688   1
  -6   7  11 41.6825 7.36333   3
   6  -7  11 54.5778 9.68910   3
  -7 -11  -6 36.8525 9.70971   1
   6   7 -11 48.6765 9.94024   2
  11   7   6 45.2393 6.94778   2
 -11  -7   6 35.4126 6.85087   1
   6  11   7 28.8828 5.36259   3
  11   6  -7 44.7529 11.2878   2
 -11  -6  -7 43.7723 8.96136   1
  -6 -11  -7 47.4522 9.41200   1
  -6   7 -11 55.1803 10.0020   2
  11   6   7 46.7966 7.05571   2
   7   6 -11 40.6705 9.28694   2
   7  -6  11 47.8078 9.04025   3
   6   7  11 37.7360 8.94856   3
   7 -11  -6 53.2039 10.1870   1
  -6  11   7 45.4863 10.1519   3
  11   7  -6 48.8275 9.78201   2
 -11  -7  -6 29.4862 7.25327   1
  -7   6  11 47.5401 8.03506   3
  11  -7   6 41.5263 7.77635   2
  -6  -7  11 48.2094 7.77205   3
   6 -11   7 34.8523 7.72877   3
  11   8   1 30.9625 6.42289   2
  -8  11   1 28.7400 6.22221   3
  11  -8  -1 29.3322 7.64187   1
   8   1  11 28.8120 4.60326   3
   8  -1 -11 32.1603 7.64490   2
   8 -11   1 27.6761 6.98912   1
   1  11   8 35.5054 9.58382   3
  11  -1   8 28.6444 7.84882   2
  11   1  -8 26.7781 7.57546   2
 -11   1   8 28.3434 6.29508   1
  -8 -11  -1 29.1510 8.35906   1
  -1   8  11 32.4211 8.90038   3
   1  -8  11 22.3348 7.09254   3
   1   8 -11 18.5690 4.45556   2
 -11  -8   1 31.2015 8.92681   1
  -1 -11   8 27.8005 7.64031   3
  -8   1 -11 26.7426 7.92378   2
   1 -11  -8 36.8929 7.23391   1
  -8  -1 -11 20.9185 6.80493   2
  -1  11   8 14.0044 8.59702   3
  -1 -11  -8 26.0248 5.46835   1
   1 -11   8 19.5402 7.03346   3
   8   1 -11 28.0605 8.86168   2
   8 -11  -1 29.0208 7.73376   1
 -11  -1   8 29.0315 5.33474   1
  -8 -11   1 32.3867 8.42281   1
  11  -1  -8 27.5620 7.51858   2
 -11  -8  -1 22.0795 7.93532   1
   1   8  11 24.9641 7.57346   3
  -8  11  -1 22.2117 5.88468   3
  11   8  -1 19.8913 5.10140   2
  11   1   8 23.0732 7.18048   2
  -1   8 -11 31.9365 7.12489   2
   8  -1  11 33.7763 5.74122   3
  -1  -8  11 31.2011 8.45014   3
  11  -3   8 222.894 17.7143   2
  -8 -11  -3 236.582 21.5836   1
   3 -11  -8 254.415 18.2922   1
  -3   8  11 244.764 21.2867   3
 -11   8  -3 274.776 19.6230   1
   8 -11   3 238.314 17.0951   1
   3  11   8 251.692 21.7417   3
  -8  11   3 264.027 20.1239   3
  11   3  -8 217.048 21.0998   2
  11  -8  -3 251.705 19.5494   1
  -8   3 -11 262.127 20.4494   2
  11   8   3 283.976 17.5828   2
   3  -8  11 243.312 19.0136   3
  -3 -11   8 268.438 20.1297   3
 -11  -3  -8 257.398 19.8328   1
 -11   3   8 222.648 17.4928   1
   3   8 -11 242.487 18.7794   2
 -11  -8   3 243.636 21.2048   1
   8  -3 -11 257.746 21.0245   2
   8   3 -11 221.653 20.5922   2
  11   3   8 251.910 19.8586   2
  11  -3  -8 259.099 20.4899   2
  -8  11  -3 235.671 19.9391   3
  -8  -3 -11 228.898 19.5013   2
   3 -11   8 240.359 19.9350   3
  -3 -11  -8 255.201 20.6323   1
  -3   8 -11 263.185 18.6427   2
  11   8  -3 233.914 17.7535   2
  11  -8   3 224.131 16.3086   2
  -8 -11   3 229.624 18.7382   1
 -11  -8  -3 274.954 23.8074   1
  -3  11   8 263.360 23.6159   3
  -3  -8  11 275.549 19.5662   3
   3   8  11 226.505 21.4246   3
   8 -11  -3 246.429 19.5662   1
   8  -3  11 243.078 17.5714   3
  -5 -11   8 5.89206 3.47281   3
   5 -11  -8 9.92430 5.02959   1
  11  -8  -5 7.02309 4.47630   1
   5   8 -11 10.0780 4.50030   2
 -11  -8   5 16.3840 4.95605   1
   5  -8  11 6.09282 2.74013   3
  -8  11   5 13.2998 3.95563   3
 -11   8  -5 13.3010 4.21325   1
  -5   8  11 5.10065 3.68013   3
 -11  -5  -8 20.9128 5.13017   1
 -11   5   8 6.62128 3.39824   1
  -8 -11  -5 11.1918 4.72657   1
  -8   5 -11 15.1536 5.15830   2
  11   5  -8 13.4482 6.35215   2
   5  11   8 2.30923 4.36419   3
  11  -5   8 10.0874 3.45158   2
   5   8  11 -0.4830 4.46176   3
  11   5   8 13.8396 4.22615   2
  -5 -11  -8 10.8573 4.66746   1
   8   5 -11 7.82751 5.59821   2
  -8 -11   5 -1.7627 4.65344   1
  -8  11  -5 16.0927 4.78052   3
  -8  -5 -11 10.0581 3.73792   2
  -5  11   8 3.84347 3.90516   3
   8  -5  11 4.06494 2.27923   3
  -5  -8  11 9.87320 3.25280   3
  -5   8 -11 10.3952 3.57910   2
  11   8  -5 18.3564 5.48283   2
 -11  -8  -5 16.8646 6.04686   1
  11  -8   5 7.49580 2.23468   2
   8 -11  -5 13.0994 5.13843   1
   5 -11   8 10.7061 3.82617   3
 -11   7   8 38.3867 7.92233   1
  -8   7 -11 42.0728 8.96313   2
   8 -11   7 38.3921 6.50282   3
   7   8 -11 35.7947 9.01166   2
  11   7  -8 38.8434 9.60791   2
   7  -8  11 51.1302 8.33802   3
 -11  -7  -8 36.2450 6.16877   1
  -8 -11  -7 37.1320 8.76878   1
  11  -8  -7 40.9830 8.50384   1
  -8  11   7 43.1330 7.29026   3
  -7   8  11 22.2394 5.20858   3
   7 -11  -8 36.7868 6.37150   1
  -7  11   8 34.2734 7.20257   3
   8 -11  -7 41.0597 9.04933   1
  11   8  -7 39.7834 7.70509   2
   7 -11   8 32.9685 5.95493   3
   8  -7  11 38.1641 6.20312   3
   7   8  11 48.7046 7.40761   3
   8   7 -11 27.5886 9.79545   2
 -11  -8  -7 33.6473 7.02830   1
  -7   8 -11 33.7431 6.21131   2
  -7 -11  -8 35.3810 6.77371   1
   0  -9  11 -1.4235 2.69931   3
   0 -11   9 0.91884 4.06575   3
   0  11   9 3.63805 5.48724   3
   0   9  11 3.37308 4.83530   3
   9 -11   0 6.36531 2.84830   1
  11  -9   0 3.97769 2.87376   1
   0   9 -11 -1.0740 2.95903   2
  -9   0 -11 3.83236 3.58385   2
   9   0 -11 -1.4865 3.51287   2
  11   0   9 2.97862 3.23585   2
   0 -11  -9 -0.4737 3.62915   1
 -11  -9   0 9.33241 4.92148   1
  11   0  -9 -1.5054 4.14122   2
  -9 -11   0 -0.4216 3.48651   1
   9  -2 -11 46.2688 9.10074   2
 -11   2   9 49.2753 6.07884   1
  -2   9  11 49.5981 9.69240   3
   2   9 -11 54.4191 9.53991   2
   2  -9  11 38.1494 8.93864   3
  -2 -11   9 64.6163 12.3843   3
  11   2  -9 47.6655 10.5821   2
 -11  -9   2 40.7078 9.63443   1
   2  11   9 46.5961 12.5810   3
   2 -11  -9 39.1677 6.50842   1
  -9 -11  -2 44.0085 10.3800   1
  11  -9  -2 39.6028 9.34357   1
   9 -11   2 42.0167 8.10899   1
  -9   2 -11 39.6704 9.24990   2
  11  -2   9 29.5216 7.02556   2
  -9  -2 -11 26.2114 7.84687   2
   2   9  11 44.6553 10.7941   3
  -2  11   9 37.7492 7.79463   3
  -9 -11   2 36.9399 6.78020   1
   9   2 -11 36.7674 9.19713   2
  11  -2  -9 28.5889 6.06450   2
 -11  -9  -2 47.8639 11.9142   1
  11   9  -2 48.7249 7.41563   2
  11   2   9 39.7758 8.91133   2
   2 -11   9 53.8917 11.0074   3
  -2  -9  11 41.3133 9.22223   3
  -2   9 -11 38.2460 7.09324   2
   9 -11  -2 46.4666 9.40798   1
  -2 -11  -9 64.6632 10.5933   1
   4 -11  -9 1.91797 2.52162   1
  11  -9  -4 5.95346 2.83185   1
   9 -11   4 10.7268 3.60742   1
 -11  -9   4 7.58472 4.06733   1
 -11   9  -4 4.31058 2.47529   1
  -4 -11   9 3.44712 2.86117   3
   4  -9  11 2.60282 2.73986   3
   4   9 -11 1.02577 3.46934   2
  -9   4 -11 4.06686 3.01491   2
  -9 -11  -4 2.52483 4.37020   1
 -11   4   9 3.60306 2.61430   1
   9  -4 -11 -5.4259 3.88459   2
  11  -4   9 3.22129 2.37007   2
  11   4  -9 6.32582 4.97760   2
  -4   9  11 -0.3368 5.13280   3
   4  11   9 4.50345 4.28861   3
  -9 -11   4 2.92870 4.14275   1
  11   9  -4 11.8912 4.19662   2
  -9  -4 -11 2.33318 4.09718   2
  11  -4  -9 1.16365 3.70695   2
  -4  -9  11 3.44006 2.75905   3
   9 -11  -4 6.71761 2.95475   1
  -4  11   9 7.72303 4.39353   3
  -4   9 -11 7.36142 2.39246   2
   4 -11   9 11.0853 3.72160   3
  11   4   9 -0.4984 3.52930   2
 -11  -9  -4 6.49278 4.89050   1
   9   4 -11 0.29502 4.55388   2
   4   9  11 12.2883 5.69350   3
  -4 -11  -9 11.8561 5.20557   1
  11  -9  -6 79.6889 9.98710   1
  11   6  -9 91.7153 14.9659   2
  -9   6 -11 102.425 15.5423   2
   6 -11  -9 94.2768 9.94636   1
   6  11   9 86.1744 11.1566   3
  -9 -11  -6 86.2527 15.0849   1
   6  -9  11 86.5668 9.90200   3
   6   9 -11 96.6949 10.2997   2
  -6 -11   9 83.8563 8.78118   3
  -6   9  11 75.1750 11.9437   3
 -11   6   9 88.6371 10.1021   1
  -6 -11  -9 67.4770 11.3903   1
  -6   9 -11 78.5896 8.79301   2
  -6  -9  11 88.1208 8.60538   3
  11   9  -6 69.6554 8.61157   2
 -11  -9  -6 82.6184 14.9831   1
   6   9  11 95.6368 10.9339   3
   9   6 -11 74.5832 14.4794   2
  11   6   9 81.6548 8.25861   2
   9 -11  -6 94.6705 11.0201   1
  -6  11   9 84.9239 14.0013   3
   6 -11   9 81.9299 9.75476   3
   8   9 -11 24.9697 5.17149   2
  -9   8 -11 20.6760 5.05541   2
  -9 -11  -8 17.6544 4.85915   1
   8  -9  11 24.2706 3.90434   3
 -11  -8  -9 22.5288 6.13057   1
  11  -9  -8 26.3118 5.46965   1
 -11   8   9 23.9282 4.36889   1
   8 -11  -9 16.3045 3.70181   1
  11   8  -9 23.0478 5.22788   2
 -11  -9  -8 26.6483 5.27550   1
   9   8 -11 17.7294 6.26427   2
 -11   8  -9 23.2264 4.82565   2
  -8   9 -11 16.7408 4.10302   2
  11   9  -8 15.0361 5.67721   2
  -8 -11  -9 11.1425 5.73281   1
   8 -11   9 29.4378 4.32904   3
   9 -11  -8 21.7626 5.78885   1
 -10 -11  -1 210.378 20.5276   1
   1 -10  11 228.007 19.1345   3
 -10   1 -11 214.113 19.8404   2
   1 -11 -10 201.896 15.4044   1
  10  -1 -11 187.525 18.1364   2
   1  11  10 177.909 19.9679   3
   1  10 -11 228.718 16.5185   2
  11  -1  10 218.576 17.9929   2
  10 -11   1 204.220 16.7388   1
  -1  10  11 242.936 21.8631   3
  11 -10  -1 197.596 17.5349   1
  -1 -11  10 222.219 18.8258   3
 -11 -10   1 197.388 19.4994   1
  11   1 -10 184.996 19.2198   2
  11  -1 -10 214.117 19.3141   2
 -11 -10  -1 231.193 22.2617   1
  -1 -11 -10 229.705 16.4782   1
  -1 -10  11 195.400 17.5082   3
  10 -11  -1 202.502 17.5966   1
   1  10  11 198.437 20.5902   3
  11 -10   1 231.065 17.6097   1
  10   1 -11 194.479 20.1667   2
 -10 -11   1 184.298 18.9357   1
  -1  10 -11 200.223 15.0796   2
   1 -11  10 250.992 20.3012   3
  11   1  10 217.587 18.0779   2
  -1  11  10 227.741 21.5637   3
  11   3 -10 72.4329 12.9386   2
  10  -3 -11 83.8156 10.2446   2
   3  11  10 77.6220 14.7488   3
  11  -3  10 88.1679 10.4977   2
 -10   3 -11 96.0260 11.1502   2
  -3 -11  10 92.0665 10.9401   3
  -3  10  11 84.8344 14.2911   3
   3  10 -11 75.2714 8.54938   2
   3 -11 -10 75.8733 8.51591   1
 -11 -10   3 83.4972 10.7689   1
 -10 -11  -3 78.7626 13.6142   1
  11 -10  -3 98.8171 16.1063   1
  10 -11   3 73.8750 8.79105   1
   3 -10  11 70.1942 13.0535   3
   3  10  11 71.1885 13.7792   3
 -11 -10  -3 84.7897 14.9679   1
  -3  10 -11 88.8133 8.57181   2
  11   3  10 64.6183 10.0744   2
  -3 -10  11 88.1990 10.7840   3
 -10 -11   3 83.7638 11.5261   1
  -3  11  10 110.503 13.4236   3
  11  -3 -10 85.5705 12.5081   2
  10 -11  -3 94.1906 15.2969   1
  10   3 -11 68.2438 14.2294   2
  -3 -11 -10 83.1805 9.65413   1
   3 -11  10 86.5157 14.7452   3
   5  10 -11 153.808 12.5735   2
  -5  10  11 143.838 15.1373   3
 -11 -10   5 155.058 13.2885   1
  11 -10  -5 147.738 14.6548   1
   5 -10  11 132.821 13.5998   3
 -10 -11  -5 135.155 15.6326   1
  11   5 -10 141.204 16.6287   2
 -10   5 -11 179.174 16.5594   2
  -5 -11  10 133.978 11.9322   3
   5  11  10 116.298 10.6222   3
   5 -11 -10 157.170 12.3400   1
   5 -11  10 127.566 13.8950   3
   5  10  11 137.335 13.0931   3
  -5  11  10 158.242 16.3162   3
 -10 -11   5 124.326 10.1058   1
  11   5  10 139.191 12.0450   2
 -11   5 -10 132.140 14.4163   2
 -11 -10  -5 154.422 16.8928   1
  10 -11  -5 153.406 15.1771   1
 -10  -5 -11 128.474 12.2396   2
  -5 -10  11 143.277 12.3648   3
  -5 -11 -10 123.070 13.3017   1
  -5  10 -11 133.354 11.9704   2
  10   5 -11 167.236 17.8753   2
  -7  10  11 95.3751 10.8063   3
   7 -10  11 93.3753 9.52677   3
   7  10 -11 98.2453 8.93005   2
   7 -11 -10 99.2341 8.74602   1
  -7  10 -11 100.374 11.3267   2
 -11 -10  -7 89.4298 9.97376   1
  -7 -11 -10 103.924 10.4615   1
  -7  11  10 96.3612 10.1329   3
 -11   7 -10 92.7316 15.2608   2
   7 -11  10 97.7321 10.6416   3
  11  10  -7 91.2203 9.09128   2
 -11 -11   0 19.5013 8.75668   1
   0 -11  11 26.5510 7.49409   3
   0  11  11 18.5781 6.16649   3
  11 -11   0 21.3258 6.23414   1
  11   0 -11 19.5024 7.34546   2
 -11 -11  -2 58.5612 12.7331   1
 -11 -11   2 49.2041 9.35156   1
 -11   2 -11 45.3745 10.1166   2
  -2 -11  11 39.9450 8.87677   3
  -2  11  11 51.3623 11.9826   3
   2 -11  11 48.2322 11.0633   3
   2  11  11 29.7726 7.76879   3
  11 -11  -2 56.5320 11.7894   1
  11 -11   2 55.0464 9.11112   1
  11  -2 -11 49.6673 7.76944   2
  11   2 -11 37.1117 7.64715   2
  11   2  11 45.1118 7.29870   2
 -11 -11  -4 58.9082 10.0623   1
 -11 -11   4 52.6467 11.3293   1
 -11   4 -11 77.2488 9.38604   2
  -4 -11  11 71.0788 8.68560   3
  -4  11  11 36.2441 7.75679   3
   4 -11  11 60.8643 10.9687   3
   4  11  11 66.5701 10.1954   3
  11 -11  -4 91.5583 9.98077   1
  11   4 -11 55.3438 11.6039   2
 -12   0   0 9.80125 4.96084   1
   0 -12   0 10.1264 4.40119   1
   0   0 -12 14.3261 4.83288   2
   0   0  12 19.3349 6.71279   3
   0  12   0 19.7166 6.84268   3
  12   0   0 14.8737 5.83053   2
  12   1   1 9.02999 5.60603   2
  -1  -1 -12 7.38693 3.96734   2
  -1  -1  12 17.0532 6.95602   3
  -1   1 -12 14.4713 5.51427   2
  -1   1  12 11.4867 5.51834   3
  -1  12  -1 5.53317 4.83392   3
  -1  12   1 14.8115 6.81468   3
   1 -12  -1 19.1919 6.02874   1
   1 -12   1 11.8218 4.32475   1
   1  -1 -12 9.96351 4.20264   2
   1  -1  12 10.6916 5.21873   3
   1   1 -12 10.4190 4.69537   2
   1   1  12 15.9220 6.05964   3
   1  12  -1 6.82423 3.94496   3
   1  12   1 14.6017 6.23599   3
  12  -1  -1 13.0971 5.57055   2
  12  -1   1 9.78578 4.92166   2
  12   1  -1 7.57288 5.75818   2
 -12  -1  -1 11.3224 6.04751   1
 -12  -1   1 10.1127 5.81140   1
 -12   1  -1 15.0677 5.87337   1
 -12   1   1 11.5582 5.42764   1
  -1 -12  -1 17.8302 6.28146   1
  -1 -12   1 8.26081 4.02887   1
  12   0   2 142.092 15.4258   2
  -2 -12   0 145.395 15.0260   1
  -2  12   0 159.815 17.0018   3
   0  -2 -12 149.681 13.1134   2
   0  -2  12 160.291 15.2231   3
   2 -12   0 159.054 14.2974   1
   2  12   0 136.984 14.4529   3
 -12  -2   0 169.559 17.5689   1
 -12   2   0 155.211 15.6822   1
  -2   0 -12 154.627 14.1651   2
  -2   0  12 154.768 15.2880   3
   0 -12  -2 145.141 14.7375   1
   0 -12   2 153.196 13.5609   1
   0  12  -2 134.881 15.1679   3
   0  12   2 163.300 16.3757   3
   2   0 -12 146.222 14.0816   2
   2   0  12 173.555 15.7373   3
  12  -2   0 146.825 15.4538   2
  12   2   0 162.387 16.7573   2
 -12   0   2 141.845 15.2638   1
   0   2 -12 136.736 13.7137   2
  12   0  -2 151.350 16.0591   2
 -12   0  -2 168.362 16.7550   1
   0   2  12 170.689 16.5124   3
 -12   2   2 716.567 37.9114   1
  -2  -2 -12 694.609 34.2750   2
  -2  -2  12 783.390 37.0129   3
  -2 -12   2 771.082 37.7149   1
 -12  -2   2 732.087 39.4509   1
  -2 -12  -2 668.633 38.5413   1
   2 -12  -2 731.108 35.9849   1
   2 -12   2 691.901 33.5930   1
 -12   2  -2 762.742 37.7457   1
 -12  -2  -2 732.966 40.9976   1
  12  -2   2 740.665 38.1312   2
  12   2  -2 728.848 38.3917   2
  12   2   2 810.395 39.9358   2
  -2  12   2 723.276 40.2510   3
   2  -2  12 696.136 35.8692   3
   2   2 -12 705.807 35.9836   2
   2   2  12 774.798 38.1610   3
   2  12  -2 721.109 38.6239   3
   2  12   2 726.418 37.8040   3
  12  -2  -2 740.931 38.5556   2
  -2   2 -12 750.765 36.2635   2
  -2   2  12 729.615 37.0266   3
  -2  12  -2 738.421 40.1194   3
   2  -2 -12 783.541 35.8352   2
  -1 -12   3 194.562 15.4032   1
  -1   3  12 191.150 17.9050   3
   3   1  12 199.484 17.1975   3
 -12  -1  -3 194.584 18.7834   1
  12  -3  -1 193.164 17.1594   2
  12  -1   3 179.945 17.1932   2
 -12   1   3 202.988 18.1546   1
  -3 -12  -1 173.147 17.7641   1
  -1  12  -3 182.698 18.4122   3
  12   3   1 189.023 17.8917   2
  -3  12   1 204.044 19.7325   3
  -1  -3 -12 176.479 15.0332   2
   3 -12   1 195.218 16.0068   1
   1 -12  -3 196.337 17.1093   1
  -3  -1  12 175.801 16.0272   3
  -3   1 -12 180.294 16.0553   2
   1  -3  12 178.462 16.1781   3
   1   3 -12 169.398 15.8980   2
 -12  -3   1 202.840 19.4892   1
   1  12   3 189.965 18.3418   3
   3  -1 -12 182.678 16.2883   2
   3  12  -1 183.090 16.5154   3
 -12   3  -1 195.595 17.2450   1
  12   1  -3 179.274 17.6515   2
   1   3  12 199.263 17.7958   3
  -1  -3  12 217.174 17.6541   3
  12   1   3 194.205 18.4977   2
   3   1 -12 192.937 16.9571   2
  -1 -12  -3 201.108 18.3351   1
   1  12  -3 192.775 18.7724   3
  -3 -12   1 192.330 17.1733   1
  12  -1  -3 200.164 18.4149   2
  12  -3   1 182.219 16.5694   2
  12   3  -1 193.888 17.6814   2
  -3  12  -1 201.092 19.1732   3
 -12   1  -3 184.210 17.1458   1
   3  12   1 196.203 16.7172   3
 -12   3   1 179.675 17.1446   1
  -3  -1 -12 189.854 15.9043   2
   1 -12   3 196.010 14.6882   1
   1  -3 -12 184.840 14.9344   2
  -3   1  12 189.853 16.6966   3
  -1   3 -12 192.651 16.6350   2
 -12  -1   3 199.373 18.1889   1
   3 -12  -1 199.267 16.4286   1
  -1  12   3 216.499 20.1981   3
 -12  -3  -1 203.650 20.4372   1
   3  -1  12 188.321 16.4812   3
  -3   3 -12 339.750 23.1424   2
   3   3 -12 326.990 23.3151   2
   3   3  12 307.015 23.2693   3
   3  -3  12 351.900 23.3187   3
  -3  -3  12 370.277 23.5471   3
   3 -12   3 327.619 20.0967   1
  -3   3  12 330.737 23.5355   3
 -12   3  -3 356.703 23.6242   1
 -12   3   3 352.350 24.6597   1
  -3 -12  -3 315.259 26.2957   1
  -3 -12   3 327.971 22.8653   1
  -3  -3 -12 325.960 21.5384   2
  12   3   3 359.636 24.9787   2
   3 -12  -3 316.209 22.2670   1
  12   3  -3 369.674 25.3257   2
  -3  12  -3 367.595 27.0441   3
  -3  12   3 306.780 25.9665   3
   3  -3 -12 346.085 22.4879   2
 -12  -3  -3 381.965 29.5703   1
 -12  -3   3 368.774 26.5751   1
  12  -3   3 362.681 23.6739   2
   3  12  -3 348.078 25.2417   3
   3  12   3 350.800 23.9695   3
  12  -3  -3 316.033 23.4796   2
 -12   0  -4 532.596 31.8663   1
  -4   0  12 548.617 29.6423   3
   4   0  12 489.909 28.6522   3
  -4   0 -12 483.875 28.4225   2
   4 -12   0 513.487 28.1322   1
   4  12   0 488.243 28.8719   3
  12   0  -4 514.459 31.4459   2
 -12   4   0 488.250 29.4988   1
   0  -4 -12 502.486 26.8381   2
   0  12  -4 501.671 33.8294   3
   0  12   4 481.756 31.9061   3
   0  -4  12 529.722 29.6346   3
   0   4 -12 514.851 29.1441   2
 -12  -4   0 495.530 34.5059   1
   0 -12  -4 518.501 31.1598   1
   0 -12   4 492.568 25.9037   1
 -12   0   4 583.471 32.4826   1
  -4 -12   0 474.935 31.2991   1
  -4  12   0 550.016 33.8949   3
   0   4  12 528.579 31.4769   3
   4   0 -12 496.119 28.7263   2
  12   4   0 517.224 30.5936   2
  12  -4   0 524.092 29.2516   2
  12   0   4 490.167 30.5376   2
   2  -4  12 4.61083 3.73571   3
   2   4 -12 1.78484 3.41481   2
 -12  -4   2 2.79342 3.80367   1
   2 -12  -4 5.44833 4.09776   1
  12  -4  -2 5.68431 3.17554   2
   4  12  -2 7.08944 4.12117   3
  -2  12  -4 8.62793 6.04233   3
  12   4   2 8.17377 4.64937   2
  12  -2   4 2.62698 2.90552   2
  12   2  -4 -0.2907 3.60969   2
  -4   2 -12 11.5629 5.05258   2
 -12   2   4 4.03617 3.07545   1
  -2   4  12 3.81313 4.68254   3
   2  12   4 5.97994 4.33407   3
   4  -2 -12 8.70778 4.23734   2
  -4  -2  12 8.82112 4.34444   3
  -4 -12  -2 7.81996 5.03925   1
 -12   4  -2 10.6536 4.40515   1
 -12  -2  -4 4.73971 4.13588   1
  -4  12   2 1.67361 3.91878   3
   4 -12   2 5.19683 2.60869   1
  -2 -12   4 5.76061 2.93216   1
   4   2  12 15.4460 5.23611   3
  -2  -4 -12 0.34072 2.77388   2
  12  -4   2 4.85869 2.95990   2
  12   4  -2 -5.9226 3.41361   2
   2 -12   4 4.06366 2.33563   1
 -12  -2   4 4.22807 3.84916   1
 -12   2  -4 13.7260 5.24526   1
   4 -12  -2 6.96062 4.08300   1
   4   2 -12 1.55201 3.48875   2
 -12   4   2 0.19106 2.66948   1
  -4  12  -2 11.1296 4.89966   3
  -4  -2 -12 2.73365 2.83339   2
  -2 -12  -4 0.64731 4.50492   1
  -2  -4  12 9.01339 4.69515   3
  -2   4 -12 3.72386 3.28277   2
   2  12  -4 1.50562 4.14634   3
   2  -4 -12 2.67773 2.69317   2
  -2  12   4 11.0201 5.87842   3
   4  -2  12 0.58623 3.30826   3
   2   4  12 8.49063 4.66506   3
  -4   2  12 0.22914 3.50925   3
   4  12   2 2.59899 3.57832   3
 -12  -4  -2 6.08740 6.35044   1
  -4 -12   2 9.89394 3.64402   1
  12  -2  -4 3.48402 3.49228   2
  12   2   4 3.35858 5.58111   2
  12   4  -4 11.3773 5.66574   2
 -12  -4  -4 9.78606 6.64495   1
  12  -4  -4 3.11683 3.41516   2
  12   4   4 3.48738 3.61773   2
   4   4  12 10.0758 3.99410   3
   4  12  -4 18.5978 6.10567   3
   4  12   4 4.94523 3.32344   3
  -4  12   4 20.5752 7.94441   3
   4 -12  -4 3.98281 3.41216   1
   4 -12   4 8.36978 2.79561   1
   4  -4 -12 2.84595 2.96646   2
  12  -4   4 15.8912 4.82229   2
 -12   4  -4 6.16255 4.00178   1
 -12   4   4 18.2665 6.32787   1
   4   4 -12 14.1559 5.63292   2
  -4 -12   4 -2.6458 3.72752   1
  -4  -4 -12 16.8876 6.10888   2
  -4  -4  12 0.59850 2.49301   3
  -4   4 -12 5.76702 3.77081   2
  -4   4  12 13.9646 4.72400   3
  -4  12  -4 5.00318 3.97130   3
  -4 -12  -4 21.9676 8.29924   1
   4  -4  12 13.2276 5.70947   3
 -12  -4   4 3.60659 3.58421   1
   5   1  12 14.1002 5.18799   3
   5 -12   1 18.5975 5.15488   1
  12   1  -5 29.9792 7.87976   2
  -1 -12   5 14.0603 6.49115   3
  -5  12   1 24.4993 7.82068   3
   1  12   5 24.9137 8.72833   3
   1  -5  12 15.9108 4.80788   3
   1 -12  -5 26.3463 8.44983   1
   5  -1 -12 14.7833 5.63344   2
 -12   5  -1 11.5697 4.29531   1
  -1   5  12 20.1572 8.29349   3
  12  -1   5 32.9646 8.26840   2
  12  -5  -1 15.8913 3.98029   2
 -12  -1  -5 19.8696 7.43835   1
 -12  -5   1 12.1621 7.03353   1
  -5 -12  -1 25.1643 6.90064   1
 -12   1   5 20.1967 6.17091   1
  -5   1 -12 19.7795 6.80809   2
   1   5 -12 22.6686 7.12684   2
   5  12  -1 14.6804 4.85878   3
  -5  -1  12 16.4672 4.96342   3
  12   5   1 27.9879 7.03051   2
 -12   5   1 14.8593 6.64721   1
   5 -12  -1 15.1001 5.12452   1
  -5   1  12 16.2278 4.79302   3
  12   5  -1 23.1703 7.62428   2
  12   1   5 15.0757 7.06459   2
   5  12   1 20.5872 5.40603   3
   1 -12   5 13.1508 6.29032   3
   1   5  12 14.1971 5.75992   3
  12  -5   1 15.1426 5.41435   2
  -5 -12   1 20.2182 6.33616   1
   5  -1  12 26.0700 5.63142   3
 -12  -1   5 11.1616 4.71877   1
 -12   1  -5 22.7904 5.72887   1
  12  -1  -5 13.4379 5.10219   2
 -12  -5  -1 19.3768 9.46532   1
   5   1 -12 19.3396 6.43799   2
  -1  -5  12 19.6563 7.10703   3
  -1   5 -12 20.1939 6.51263   2
  -1  12   5 16.1030 7.82016   3
  -5  -1 -12 27.6418 7.16681   2
  -5  12  -1 17.6410 6.04038   3
  -1 -12  -5 22.8853 7.78197   1
   3 -12  -5 6.79938 3.30817   1
  -5   3 -12 1.11940 2.84063   2
   3   5 -12 2.90209 3.04689   2
   5  12  -3 5.35944 3.48698   3
 -12  -5   3 -2.8926 3.78501   1
 -12   5  -3 -0.8821 1.90729   1
  -3   5  12 0.79123 3.46961   3
   3  -5  12 -0.8603 2.36361   3
  -5  -3  12 3.53107 2.67698   3
  12   5   3 7.48945 3.46782   2
  12  -3   5 2.35289 3.32213   2
  12   3  -5 2.46147 6.41466   2
  -5 -12  -3 -1.0796 3.96091   1
 -12  -3  -5 1.05446 4.45432   1
   5 -12   3 2.27675 1.85411   1
  -5  12   3 0.62857 4.02335   3
   5  -3 -12 -2.4966 2.52421   2
   3  12   5 1.83235 3.51617   3
 -12   3   5 2.92915 2.58285   1
   5   3  12 0.30362 3.03936   3
  12  -5  -3 -2.9771 2.29912   2
  -3  -5 -12 1.13197 2.60892   2
  -5 -12   3 0.47885 3.56679   1
  12   3   5 -2.3916 5.34431   2
  12  -3  -5 3.49771 3.17607   2
 -12  -5  -3 -7.8971 4.96236   1
  -3 -12  -5 -2.9611 4.09985   1
   3   5  12 5.01438 4.04714   3
   5 -12  -3 -1.6101 2.12013   1
  -5  12  -3 4.92478 4.28056   3
  -5  -3 -12 7.57017 4.63324   2
   5  -3  12 -0.0421 2.36793   3
  -3   5 -12 -0.1051 2.95287   2
  -5   3  12 3.84556 3.20147   3
 -12   5   3 4.58061 3.01904   1
  -3  12   5 -3.6438 4.04294   3
   5  12   3 0.81795 3.19533   3
 -12  -3   5 5.16393 3.30471   1
 -12   3  -5 -2.1646 2.38427   1
  12  -5   3 -2.4566 1.79979   2
  12   5  -3 1.25173 4.41646   2
   3  12  -5 -0.3731 4.86215   3
  -3  -5  12 0.32396 3.06753   3
   5   3 -12 0.81017 3.26359   2
  -5   5  12 14.3301 4.55742   3
  12  -5  -5 17.2657 5.29373   2
  -5   5 -12 22.6860 6.52117   2
  -5 -12   5 18.1025 4.09626   1
  -5  -5 -12 10.0442 3.67172   2
   5   5 -12 23.3515 7.25991   2
 -12   5  -5 14.0956 4.34592   1
 -12   5   5 11.6244 4.99820   1
  -5  12  -5 21.8619 6.94172   3
  -5  12   5 16.0463 5.52818   3
  12  -5   5 18.2811 5.32120   2
   5  12   5 12.6432 3.95295   3
  -5  -5  12 17.5169 5.82510   3
   5   5  12 20.9838 5.22373   3
   5  12  -5 7.18905 4.05273   3
   5  -5  12 12.9993 4.23286   3
  12   5  -5 7.55595 4.39212   2
  12   5   5 17.9784 4.74801   2
 -12  -5  -5 12.0079 6.38295   1
 -12  -5   5 25.9399 7.41008   1
   5 -12  -5 18.5894 6.16469   1
  -5 -12  -5 17.1950 7.18509   1
   6   0  12 63.7821 10.3286   3
  12   0   6 54.1662 13.7603   2
   0 -12  -6 63.8816 11.5446   1
   0 -12   6 44.4036 10.7123   3
  -6  12   0 45.7857 10.0709   3
   0  -6  12 67.4611 12.4858   3
   6   0 -12 40.2617 8.89365   2
  -6 -12   0 41.6731 9.23619   1
   0  12   6 46.7323 12.0401   3
 -12   0  -6 49.2329 10.8042   1
 -12   0   6 43.2336 8.74962   1
  -6   0  12 48.2672 8.86233   3
   6 -12   0 43.1605 8.76356   1
   6  12   0 47.9831 7.34526   3
  12   0  -6 42.0173 9.61577   2
 -12   6   0 48.0384 10.2105   1
  -6   0 -12 35.1932 8.08912   2
 -12  -6   0 40.8112 12.0289   1
  12   6   0 53.7610 9.35364   2
   0   6  12 49.6239 10.9209   3
  12  -6   0 43.9687 7.61403   2
   0   6 -12 58.5906 11.1582   2
  -6 -12  -2 121.164 14.8683   1
   2  12   6 107.220 13.6115   3
   6   2  12 93.4860 10.6018   3
  -6  12   2 129.255 15.1778   3
   6  -2 -12 98.3768 11.8537   2
   2   6 -12 137.128 14.1043   2
  12   6   2 126.234 11.7555   2
 -12   2   6 142.887 14.4444   1
  -2   6  12 144.528 15.7678   3
  12  -6  -2 131.964 11.7699   2
  -6   2 -12 102.533 12.4932   2
 -12   6  -2 109.566 12.4239   1
   2 -12  -6 111.305 12.8147   1
  -2 -12   6 126.560 14.4749   3
  -6  -2  12 109.863 10.6530   3
   2  -6  12 146.573 14.1305   3
 -12  -6   2 109.224 19.1715   1
   6  12  -2 143.112 12.6712   3
  12  -2   6 123.463 13.3102   2
  12   2  -6 134.147 14.9462   2
   6 -12   2 133.515 12.2689   1
 -12  -2  -6 151.291 16.6322   1
 -12  -2   6 99.4395 11.9851   1
  -6 -12   2 108.411 13.1696   1
  -2   6 -12 106.599 12.3243   2
   2 -12   6 145.900 15.0409   3
  -2 -12  -6 125.366 14.8213   1
   2   6  12 127.953 14.8295   3
  -6   2  12 115.833 11.7437   3
  -2  -6  12 103.553 12.3678   3
 -12   6   2 135.321 14.8832   1
  -6  -2 -12 140.996 14.3432   2
 -12   2  -6 117.109 12.5434   1
   6  12   2 107.659 10.6083   3
  12  -6   2 128.535 11.9410   2
  12   6  -2 136.426 13.8634   2
 -12  -6  -2 134.720 22.5071   1
  12   2   6 125.247 14.4305   2
   6 -12  -2 116.977 12.5651   1
   6  -2  12 132.520 12.7683   3
  12  -2  -6 109.519 12.8389   2
  -6  12  -2 109.310 13.3843   3
  -2  12   6 116.799 18.7490   3
   6   2 -12 129.628 14.0715   2
   6  -4 -12 57.5668 9.04048   2
   4 -12  -6 58.3928 11.1824   1
  -6 -12  -4 62.0188 12.8020   1
 -12   4   6 48.0480 9.97737   1
   6  12  -4 46.4469 8.44228   3
 -12  -6   4 46.0680 10.1404   1
   4   6 -12 42.5995 9.40275   2
   6   4  12 47.8833 6.82310   3
  12  -6  -4 48.3108 8.54102   2
 -12   6  -4 48.9334 8.96669   1
   4  12   6 67.8390 12.1097   3
   6 -12   4 52.3251 6.58380   1
  12   4  -6 63.5372 13.1026   2
  12   6   4 59.4872 10.2882   2
  12  -4   6 59.7662 10.6982   2
   4  -6  12 76.6207 13.1050   3
  -6   4 -12 48.8324 10.7541   2
  -4   6  12 59.8443 11.4157   3
  -6  -4  12 56.1693 9.91444   3
  -6  12   4 42.8864 8.82834   3
 -12  -4  -6 73.6408 13.9556   1
  12   6  -4 56.8460 10.8798   2
   6   4 -12 38.0253 9.82619   2
  -4  12   6 53.7432 11.5418   3
 -12  -4   6 64.6371 10.2927   1
  -4 -12  -6 42.7291 11.8639   1
  -4  -6  12 76.3872 11.9037   3
  -4   6 -12 59.7263 11.7469   2
  12   4   6 62.9222 10.6913   2
 -12   6   4 57.6003 11.7895   1
  -6   4  12 66.7935 10.4149   3
   6  12   4 46.4980 6.64988   3
  12  -4  -6 41.3376 8.85256   2
   6 -12  -4 68.5150 12.3069   1
 -12  -6  -4 60.7754 12.8336   1
  -6  -4 -12 55.0553 9.16307   2
  12  -6   4 53.5794 9.03714   2
 -12   4  -6 58.1298 9.96783   1
   4   6  12 48.4781 9.19539   3
  -6  12  -4 61.6234 12.6721   3
   6  -4  12 59.0710 10.2357   3
   4 -12   6 54.0694 11.1501   3
  -6 -12   4 51.3462 8.63200   1
  12  -6   6 22.7869 4.50861   2
  12   6  -6 15.5706 5.48049   2
  12   6   6 25.7769 6.06219   2
   6  12   6 28.5611 6.16777   3
 -12   6   6 22.0657 6.09044   1
  -6  -6  12 24.4890 5.42235   3
  -6  12   6 30.9359 7.06372   3
   6 -12  -6 26.3913 6.34268   1
   6  -6  12 31.0023 7.18495   3
  -6   6 -12 26.0563 6.54320   2
  -6   6  12 17.0976 4.80012   3
 -12  -6  -6 18.5829 5.40804   1
   6   6  12 25.2971 5.70798   3
   6  12  -6 20.4391 5.45838   3
 -12  -6   6 37.7315 7.32383   1
   6   6 -12 18.2958 6.49669   2
  -6 -12  -6 14.7195 6.30621   1
   1 -12  -7 24.2675 6.09441   1
 -12   1   7 22.5604 5.53522   1
 -12  -1  -7 22.6655 6.85633   1
   7   1  12 18.7411 4.26113   3
  12   1  -7 16.8940 5.98306   2
  12   7   1 12.1112 3.98321   2
  -1 -12   7 11.5584 5.89212   3
  -7  12   1 17.0446 4.89926   3
   7 -12   1 18.5376 4.59464   1
  12  -1   7 16.0004 5.32234   2
 -12   7  -1 10.1698 4.11282   1
  -1   7  12 26.9869 7.33301   3
   1  -7  12 17.4385 5.27760   3
   1   7 -12 17.8531 6.00554   2
  -7  -1  12 17.0467 4.55756   3
   1  12   7 9.44160 4.98784   3
  -7 -12  -1 18.1018 5.89059   1
  -7   1 -12 7.26016 4.14502   2
 -12  -7   1 7.86836 7.68274   1
  -7  12  -1 15.3444 5.26511   3
 -12   1  -7 16.0044 4.70677   1
  12  -7   1 19.8100 4.71250   2
   1   7  12 16.7353 6.69263   3
 -12  -1   7 14.0984 5.41993   1
  12   1   7 14.3935 5.88107   2
 -12  -7  -1 14.1102 6.73572   1
  -1 -12  -7 24.5479 7.26350   1
  12  -1  -7 12.8639 5.22882   2
 -12   7   1 17.1873 6.03948   1
  -7  -1 -12 22.3241 6.05503   2
   7 -12  -1 17.3696 5.21990   1
  -7 -12   1 20.9239 5.68006   1
   1 -12   7 12.0950 6.39212   3
  -7   1  12 15.3371 4.65490   3
  -1  12   7 22.8912 7.91738   3
   7   1 -12 19.9236 6.38477   2
  12   7  -1 14.0293 4.44987   2
   7  -1  12 21.6009 4.54211   3
  -1   7 -12 23.2252 6.65864   2
  -1  -7  12 16.9911 5.92730   3
 -12   3   7 647.277 34.4383   1
   3   7 -12 627.862 34.6292   2
   7   3  12 607.583 33.2183   3
   7  -3 -12 607.605 34.6978   2
  -7  12   3 675.923 37.7574   3
 -12  -7   3 575.120 38.1725   1
  12   3  -7 605.912 37.0989   2
  -7   3 -12 593.954 33.9047   2
 -12   7  -3 627.409 33.5004   1
   3 -12  -7 611.879 33.1660   1
  -3 -12   7 639.062 35.5023   3
   3  -7  12 611.478 33.4281   3
 -12  -3  -7 658.348 38.5693   1
   7 -12   3 632.228 31.2917   1
  -7  -3  12 644.548 30.7684   3
  -7 -12  -3 661.574 39.3760   1
  12   7   3 600.836 31.2485   2
  -3   7  12 623.760 36.5342   3
  12  -3   7 641.691 33.8897   2
   3  12   7 636.266 37.0897   3
  -7  -3 -12 635.451 35.4837   2
 -12  -3   7 606.166 34.2302   1
  12  -3  -7 604.469 35.3714   2
  -3 -12  -7 555.598 36.3681   1
  -7  12  -3 667.274 38.1902   3
   7 -12  -3 621.982 33.6463   1
 -12   7   3 592.795 34.6742   1
  -7   3  12 656.998 32.6171   3
  -3   7 -12 652.171 33.7596   2
 -12  -7  -3 690.354 41.9331   1
  -3  12   7 611.841 39.5913   3
  12   3   7 640.230 35.3284   2
   7   3 -12 607.795 36.5949   2
   7  -3  12 616.651 32.2793   3
  12   7  -3 605.221 33.5543   2
  -7 -12   3 624.430 35.1044   1
  -3  -7  12 654.532 33.2894   3
   3   7  12 607.004 37.4819   3
   3 -12   7 602.443 35.4607   3
  12  -7   3 629.630 29.9687   2
   5 -12  -7 5.20809 2.93699   1
  -7   5 -12 -4.2330 2.39147   2
 -12  -5  -7 1.40208 4.02290   1
  12  -5   7 -0.0288 2.05068   2
   5  -7  12 1.31996 2.49595   3
  -7  12   5 7.77939 3.79663   3
   7   5  12 2.18053 3.78141   3
   5  12   7 2.39778 5.48169   3
 -12  -7   5 12.9061 4.67319   1
  12   7   5 2.32714 4.09584   2
 -12   5   7 3.98447 2.51546   1
  -5 -12   7 0.46301 3.27271   3
  12   5  -7 1.76085 4.52410   2
 -12   7  -5 0.28917 3.25835   1
  -7 -12  -5 4.86109 4.14362   1
  -5   7  12 3.94329 3.78998   3
  -5  -7  12 -4.9871 2.49202   3
   7  -5  12 -0.8337 2.35787   3
   7   5 -12 -0.4137 3.87278   2
  -7  -5 -12 4.12695 3.57656   2
  12   7  -5 -6.0295 3.61306   2
 -12  -5   7 3.84568 4.65505   1
   5 -12   7 2.00920 2.72435   3
 -12  -7  -5 2.66786 5.06326   1
  12  -5  -7 7.77979 3.57400   2
  12  -7   5 0.13194 1.78854   2
  -7  12  -5 -2.0412 3.25488   3
   5   7  12 -5.8790 3.98721   3
   7 -12  -5 -1.9818 2.50432   1
  -5   7 -12 -3.3738 2.23251   2
  -5  12   7 9.33608 4.90899   3
  12   5   7 4.26347 3.58464   2
  -7   5  12 0.81923 2.94615   3
  -5 -12  -7 -4.1346 4.72317   1
 -12   7   5 -0.7504 2.52795   1
  -7  12   7 236.995 18.6637   3
 -12  -7  -7 223.059 18.8272   1
   7   7 -12 208.590 18.6779   2
  -7   7  12 211.878 16.7622   3
   7  -7  12 252.429 18.2488   3
  12  -7   7 207.455 15.5405   2
  -7 -12  -7 204.809 19.9807   1
 -12   7   7 212.277 18.8073   1
   7 -12  -7 236.103 18.5812   1
   7   7  12 195.271 14.8112   3
  -7   7 -12 236.566 19.5969   2
  12   7  -7 279.716 22.1228   2
   0  12   8 28.7314 8.29214   3
  12   8   0 35.7825 6.60456   2
   0   8 -12 32.1793 7.51127   2
   8   0  12 40.7727 6.65766   3
  12   0   8 29.4694 8.66607   2
   0 -12  -8 26.3949 7.24643   1
   0 -12   8 25.2018 8.70829   3
   8 -12   0 25.5537 6.61002   1
   0  -8  12 33.3383 9.32338   3
 -12   8   0 19.3364 6.31203   1
  -8 -12   0 24.5391 7.11112   1
  -8  12   0 26.0393 5.44493   3
  -8   0 -12 19.3867 5.71854   2
  12   0  -8 31.2334 7.96050   2
 -12  -8   0 20.3197 9.01573   1
 -12   0   8 26.5722 5.81164   1
   8   0 -12 20.4428 6.36749   2
   0   8  12 31.7301 8.02780   3
  -2   8  12 75.2589 13.9486   3
 -12  -8   2 52.9938 11.2440   1
  12   8   2 69.0910 8.15349   2
   2  12   8 62.4126 12.1359   3
  -2 -12   8 89.1917 10.8091   3
  12   2  -8 61.9287 12.4734   2
 -12   2   8 67.4654 8.51582   1
  -8 -12  -2 59.8691 11.9972   1
 -12   8  -2 92.7377 11.1292   1
   8  -2 -12 75.9686 12.3241   2
  12  -2   8 71.3602 12.3624   2
   2 -12  -8 74.6645 9.59146   1
   8 -12   2 85.0830 9.15960   1
  -8   2 -12 72.7402 13.2040   2
   2  -8  12 78.7392 13.7804   3
  -8  12   2 69.5349 11.4375   3
   2   8 -12 74.0724 12.9666   2
   8   2 -12 65.5834 12.6140   2
  -8  12  -2 64.7839 11.5449   3
  12   8  -2 75.0166 8.64641   2
  -8 -12   2 82.2712 13.3689   1
   8 -12  -2 89.0337 14.4874   1
   8  -2  12 75.3752 7.80802   3
 -12  -8  -2 59.3340 13.8286   1
   2 -12   8 69.7836 12.7591   3
  -2  -8  12 100.430 11.6156   3
  12   2   8 84.4651 14.0004   2
   2   8  12 70.1024 12.0999   3
  -2 -12  -8 58.2317 10.4750   1
  -8  -2 -12 69.2110 12.4107   2
  -2  12   8 71.2740 13.5995   3
  -2   8 -12 75.4069 9.01487   2
 -12   8   2 71.5782 13.3013   1
 -12  -2   8 81.8441 8.56116   1
  12  -2  -8 60.1366 10.9613   2
  -8  12   4 207.055 17.1150   3
   4  -8  12 168.866 15.8786   3
  12   4  -8 168.305 18.0006   2
  -8 -12  -4 182.680 18.2969   1
   4  12   8 197.769 17.7480   3
  12  -4   8 189.443 16.1889   2
   8 -12   4 195.197 15.0442   1
  -8   4 -12 191.305 17.4105   2
 -12  -4  -8 172.399 15.1658   1
 -12   4   8 184.517 15.4299   1
  -4   8  12 174.183 16.6799   3
   4   8 -12 202.361 17.8199   2
   4 -12  -8 187.272 16.3661   1
 -12  -8   4 169.219 17.4602   1
 -12   8  -4 188.781 16.1006   1
  -4 -12   8 171.519 15.2169   3
  12  -4  -8 184.423 15.9287   2
  12   8  -4 203.070 16.0538   2
 -12   8   4 191.375 18.0937   1
  12  -8   4 204.248 15.7745   2
   4 -12   8 193.408 17.9968   3
  -4  -8  12 194.882 15.8117   3
  12   4   8 177.306 15.6874   2
   8  -4  12 179.363 14.7688   3
  -8  12  -4 178.683 17.3343   3
  -8  -4 -12 150.512 14.2229   2
   4   8  12 190.193 18.4970   3
   8 -12  -4 172.992 16.3425   1
  -8 -12   4 203.624 15.8532   1
  -4 -12  -8 143.494 15.5674   1
 -12  -8  -4 184.270 19.2109   1
  -4   8 -12 202.005 16.3257   2
   8   4 -12 158.307 17.4733   2
  -4  12   8 194.089 19.8097   3
  12  -6   8 11.3320 3.39143   2
  -8 -12  -6 14.4572 5.97373   1
  -8   6 -12 20.6480 6.08083   2
   6   8 -12 29.5956 7.17633   2
  12   6  -8 20.8380 5.94978   2
   6  12   8 12.9994 4.73696   3
 -12  -6  -8 11.1530 4.80245   1
  -6   8  12 22.6397 4.27279   3
  -6 -12   8 26.4920 5.38147   3
 -12   6   8 22.3063 5.37635   1
   6  -8  12 17.5095 4.30786   3
 -12  -8   6 14.3885 4.45259   1
  -8  12   6 31.6409 7.46242   3
   6 -12  -8 24.4168 5.83069   1
   8  -6  12 20.9837 3.75043   3
  -6   8 -12 31.2758 6.03977   2
  -6 -12  -8 24.6517 6.05027   1
 -12  -8  -6 32.6001 7.82767   1
  12   8  -6 18.1057 5.30062   2
  -6  12   8 16.7282 5.08200   3
   6 -12   8 24.6411 6.30333   3
   8 -12  -6 24.4383 7.39131   1
  -8  12  -6 32.4897 7.91306   3
   8   6 -12 7.43301 4.99924   2
  12   6   8 32.7507 6.12452   2
 -12   8   6 16.6508 6.21167   1
  -6  -8  12 29.3705 6.20769   3
  12  -8   6 18.8733 3.22719   2
   6   8  12 29.1775 5.39570   3
 -12   8  -8 20.2646 4.29682   2
   8  -8  12 36.7467 4.62497   3
 -12  -8  -8 32.7026 5.33695   1
  12   1  -9 34.8224 8.98239   2
   1  12   9 31.8473 8.24526   3
  12  -1   9 43.7880 9.35258   2
   1 -12  -9 32.3354 6.88834   1
 -12  -9   1 24.7679 6.70823   1
   9 -12   1 49.3146 9.87602   1
  -1 -12   9 31.0494 8.63565   3
   9  -1 -12 29.3643 7.24085   2
   1   9 -12 36.6092 6.68740   2
  -9 -12  -1 35.8982 8.88789   1
 -12   9  -1 38.6669 9.00258   1
  -1   9  12 51.7264 10.9857   3
  -9   1 -12 23.6401 6.71621   2
   1  -9  12 22.8765 7.28932   3
  -1 -12  -9 33.2706 6.49756   1
   1   9  12 38.6695 10.3086   3
  -9 -12   1 36.1465 8.02043   1
   1 -12   9 33.5888 7.83271   3
   9 -12  -1 36.2813 8.16410   1
  12   9  -1 29.1761 5.15020   2
  -1   9 -12 30.4862 6.87570   2
   9   1 -12 48.3924 10.8669   2
  12   1   9 37.7403 8.20615   2
  12  -1  -9 42.2646 8.66799   2
  -1  -9  12 40.5013 8.68178   3
  -9  -1 -12 27.0843 7.30481   2
  -1  12   9 31.0291 7.87810   3
 -12  -9  -1 29.3666 9.44112   1
   3  12   9 31.6918 8.74278   3
  -3   9  12 67.7055 11.9267   3
   9  -3 -12 46.6133 7.50092   2
  -3 -12   9 43.3565 8.28193   3
 -12  -9   3 43.8038 8.81198   1
   3   9 -12 61.4328 6.88540   2
   9 -12   3 53.6738 8.86613   1
 -12   9  -3 47.3519 9.10267   1
  12  -3   9 50.5631 9.63702   2
  -9 -12  -3 45.7505 9.30303   1
   3 -12  -9 44.1947 7.66331   1
  -9   3 -12 49.6341 10.5226   2
   3  -9  12 64.2350 12.1088   3
  12   3  -9 41.5219 9.21453   2
 -12   3   9 46.6828 5.43303   1
  -9  -3 -12 38.7068 7.18863   2
  -3  -9  12 55.4874 10.7747   3
   3 -12   9 60.2324 11.5763   3
  12  -3  -9 34.4333 7.21086   2
  -3  12   9 58.0988 12.1681   3
  12   3   9 40.3592 7.62247   2
   9 -12  -3 47.3494 9.76501   1
   9   3 -12 45.2937 10.4861   2
  -3   9 -12 48.9388 6.02663   2
  -9 -12   3 37.4999 6.72708   1
   3   9  12 40.4213 8.15009   3
  -3 -12  -9 45.0395 7.07798   1
  12   9  -3 59.7847 9.15418   2
 -12  -9  -3 36.9696 9.38327   1
   5   9 -12 46.7484 8.94338   2
  -9   5 -12 46.8100 10.0269   2
  12   5  -9 36.1583 7.73345   2
 -12   5   9 39.1864 6.03662   1
   5 -12  -9 52.1329 6.18729   1
  12  -5   9 59.3201 10.2291   2
 -12  -9   5 37.7146 6.50569   1
  -5   9  12 47.8990 9.04673   3
  -9 -12  -5 44.8804 9.40296   1
  -5 -12   9 56.0267 8.16011   3
   5  12   9 42.4712 6.93868   3
   5  -9  12 49.1477 9.77423   3
 -12  -9  -5 34.4541 8.44481   1
  12   9  -5 38.6548 7.09710   2
  -5   9 -12 43.9528 7.15844   2
  -5  -9  12 40.3792 6.19473   3
  -5  12   9 46.4003 8.50318   3
  -5 -12  -9 37.9281 6.68723   1
   9 -12  -5 51.0652 9.53078   1
   9   5 -12 53.2971 11.7981   2
   5 -12   9 49.5639 10.1445   3
  12   5   9 50.4661 7.03120   2
   5   9  12 33.2116 6.96148   3
  -7   9  12 2.29698 5.03930   3
 -12   7   9 4.54482 3.25084   1
  -7   9 -12 9.63754 4.52292   2
  12   9  -7 -7.0182 5.98513   2
  -7 -12  -9 10.7107 6.08547   1
  -7  12   9 6.06808 4.42819   3
  10 -12   0 51.9892 9.11418   1
 -12 -10   0 60.3731 12.8596   1
 -10 -12   0 44.5381 10.2205   1
  10   0 -12 43.5571 10.0444   2
  12   0  10 58.5583 11.2552   2
 -10   0 -12 58.9465 12.1481   2
   0 -12 -10 72.3209 7.67818   1
   0 -10  12 49.3983 9.42851   3
  12   0 -10 61.0751 9.57252   2
   0  10  12 52.7484 11.5992   3
   0  12  10 43.0869 10.6984   3
   0  10 -12 62.5907 7.61972   2
   0 -12  10 74.5256 13.8823   3
  12  -2  10 7.80310 3.41815   2
  -2  10  12 16.9632 7.95533   3
  10 -12   2 7.66037 2.70105   1
 -12 -10   2 16.4022 6.11108   1
 -12  10  -2 6.24871 3.26267   1
  12 -10  -2 8.79997 3.97412   1
   2  12  10 19.7648 6.75325   3
 -10 -12  -2 5.90401 5.48314   1
   2 -10  12 8.34135 5.32483   3
   2 -12 -10 19.0086 3.66992   1
 -10   2 -12 12.8825 5.12525   2
   2  10 -12 17.7797 3.31495   2
  10  -2 -12 3.43454 4.41323   2
  12   2 -10 8.47753 5.24646   2
  -2 -12  10 7.17910 3.78907   3
  -2 -12 -10 3.66988 5.05858   1
   2  10  12 12.2899 6.10050   3
  10 -12  -2 14.6050 4.49780   1
 -10 -12   2 9.76771 4.21459   1
  12  -2 -10 0.47060 4.39871   2
  -2  10 -12 5.52033 3.55757   2
  -2  12  10 13.5141 7.66110   3
  12   2  10 11.7428 4.17949   2
 -12 -10  -2 8.52189 5.60748   1
 -10  -2 -12 8.66878 4.26203   2
  10   2 -12 3.67811 4.44409   2
   2 -12  10 18.1193 5.16706   3
  -2 -10  12 13.0767 5.17626   3
  12 -10  -4 3.17125 2.94944   1
 -10 -12  -4 6.88515 4.61120   1
   4  12  10 -0.7130 5.06994   3
  -4  10  12 -3.4446 5.01993   3
 -12 -10   4 13.7550 4.64725   1
 -12  10  -4 -0.2191 2.55328   1
   4 -10  12 3.01444 2.93078   3
  -4 -12  10 -2.4743 3.71794   3
   4  10 -12 -1.8164 3.68542   2
 -10   4 -12 0.49336 2.72927   2
   4 -12 -10 -1.2080 3.14417   1
  12   4 -10 -2.4663 4.38695   2
  -4  10 -12 -5.4817 3.01360   2
  -4  12  10 5.43647 4.82800   3
 -10 -12   4 -0.2724 4.13723   1
  10 -12  -4 3.18169 2.99622   1
  -4 -10  12 2.65099 3.04712   3
 -12 -10  -4 -3.5530 4.51495   1
  10   4 -12 1.19049 5.13451   2
  12   4  10 9.20183 4.04897   2
 -10  -4 -12 4.51605 4.51270   2
  -4 -12 -10 -4.0777 5.23485   1
   4 -12  10 -0.7988 3.05359   3
   4  10  12 -8.3623 7.18983   3
  -6 -12 -10 22.9956 6.61761   1
  -6  10 -12 14.8579 3.52917   2
  11 -12   1 12.4059 3.65678   1
  11  -1 -12 13.4399 4.66717   2
  12  -1 -11 22.6770 5.10069   2
 -11 -12   1 16.9392 6.14273   1
  11  -3 -12 31.1026 5.08097   2
  11 -12   3 19.2717 3.31534   1
 -12  11  -3 19.7054 4.97884   1
  12  -3 -11 16.9528 4.78115   2
 -13   0  -1 26.8684 8.24407   1
 -13   0   1 27.9131 7.95395   1
  -1 -13   0 30.5244 8.57142   1
  -1  13   0 25.7074 7.98417   3
   0  -1 -13 27.5273 6.16949   2
   0  -1  13 30.5928 8.60610   3
   0   1 -13 23.9640 6.62694   2
   0   1  13 27.4856 8.18015   3
   1 -13   0 28.2620 7.47855   1
   1  13   0 28.8895 8.03956   3
  13   0  -1 32.1763 8.32290   2
  13   0   1 24.6765 6.88585   2
  -1   0  13 24.0066 8.08604   3
   0 -13  -1 25.4521 6.58410   1
   0 -13   1 25.2803 6.20518   1
   0  13  -1 24.1264 7.38350   3
   0  13   1 24.8497 6.55443   3
   1   0 -13 30.8464 7.61968   2
   1   0  13 29.3297 7.89457   3
  13  -1   0 25.6646 7.77164   2
  13   1   0 43.3881 10.1257   2
  -1   0 -13 22.6980 6.98750   2
 -13   1   0 18.0514 7.32201   1
 -13  -1   0 29.2806 8.40032   1
 -13   1   2 15.2386 6.31792   1
   2 -13   1 18.2327 3.89390   1
   2  13  -1 8.02727 6.16179   3
  13  -2  -1 11.6865 5.92180   2
   1   2 -13 12.6033 5.18061   2
 -13  -2   1 12.2299 5.29596   1
 -13   2  -1 10.9535 5.23933   1
 -13  -1  -2 17.5830 6.37723   1
   1  13   2 5.95622 4.52416   3
  -2  -1  13 5.83567 4.56057   3
  -2   1 -13 3.89444 3.00494   2
  -2 -13  -1 26.2821 6.62039   1
  13   2   1 22.5519 7.62166   2
  -1 -13   2 14.0104 4.53002   1
  -1  13  -2 7.82569 4.63711   3
  -2  13   1 17.2743 7.39177   3
   1 -13  -2 9.37857 3.98138   1
   2   1  13 15.8183 5.89186   3
  13  -1   2 19.8486 6.27840   2
   1  -2  13 20.1030 6.85619   3
   2  -1 -13 14.9868 4.73243   2
  -1  -2 -13 16.3121 4.99648   2
  13   1  -2 8.03423 4.83915   2
  -1   2  13 17.8448 7.20279   3
   1 -13   2 21.4278 5.72137   1
  13  -2   1 10.0861 4.34812   2
   2   1 -13 14.0032 4.94999   2
  13  -1  -2 8.95951 4.91786   2
   2  13   1 18.4820 9.73713   3
 -13  -2  -1 10.0401 6.05650   1
  -2  -1 -13 15.3143 5.23147   2
  -1 -13  -2 18.8418 5.46323   1
  13   1   2 13.7467 5.82633   2
  -2  13  -1 17.6509 6.76083   3
  -1  13   2 15.8523 6.21258   3
   2  -1  13 22.6064 6.84952   3
  -1  -2  13 12.3149 5.77947   3
  13   2  -1 18.8482 6.78309   2
   1   2  13 4.06753 3.82212   3
   1  -2 -13 14.1700 4.06022   2
 -13   2   1 16.8971 6.31726   1
 -13  -1   2 13.1332 5.71780   1
 -13   1  -2 5.47909 5.28417   1
   2 -13  -1 3.21876 3.04269   1
  -2   1  13 15.9977 5.93762   3
  -2 -13   1 12.7978 5.63255   1
  -1   2 -13 9.84213 4.70737   2
   1  13  -2 18.3703 5.82873   3
  -3 -13   0 66.4824 12.9543   1
   0  -3  13 59.0486 12.3739   3
   0   3 -13 80.0008 13.5025   2
   0   3  13 74.9743 13.6584   3
   3 -13   0 86.2293 10.0314   1
   3  13   0 64.4091 11.8466   3
  13   0  -3 73.8521 12.7244   2
  13   0   3 96.6933 15.9365   2
   0 -13  -3 92.4150 11.8093   1
   0 -13   3 75.4291 8.66382   1
   0  13  -3 79.1663 14.5402   3
  13  -3   0 86.6637 13.9561   2
   3   0  13 70.4569 11.9559   3
  -3  13   0 78.5594 14.0863   3
   0  -3 -13 88.0348 9.84471   2
 -13   0   3 77.1413 14.3633   1
   3   0 -13 91.4846 14.1738   2
  13   3   0 84.9593 13.9726   2
 -13   0  -3 78.5275 13.9715   1
  -3   0 -13 82.3962 13.2894   2
  -3   0  13 76.2984 13.0713   3
   0  13   3 74.2271 14.3721   3
 -13   3   0 72.1073 12.9377   1
 -13  -3   0 69.8948 14.7437   1
  13   3   2 145.337 15.3884   2
   2 -13  -3 123.154 13.2009   1
 -13  -2  -3 144.954 17.8550   1
  -2   3  13 110.557 13.4113   3
  13  -3  -2 151.169 15.0851   2
  13  -2   3 111.896 13.4227   2
   2   3 -13 123.312 13.6586   2
  -3  13   2 138.343 16.4540   3
  -2  -3 -13 120.092 12.0794   2
 -13  -3   2 138.372 16.2406   1
 -13   3  -2 150.377 15.0564   1
  -3 -13  -2 119.654 14.9459   1
 -13   2   3 142.250 15.2976   1
  -3  -2  13 152.588 14.6721   3
  -3   2 -13 135.632 14.3201   2
   2  13   3 137.267 15.2962   3
   3   2  13 162.269 15.7926   3
  -2 -13   3 129.340 12.2586   1
  -2  13  -3 158.498 17.3798   3
   3  13  -2 120.960 13.4872   3
   3 -13   2 122.413 11.5450   1
  13   2  -3 130.246 15.4154   2
   3  -2 -13 129.835 13.4122   2
   2  -3  13 141.359 14.3450   3
  -2   3 -13 123.495 13.4223   2
   2 -13   3 126.812 11.7135   1
  13   3  -2 131.987 14.9195   2
  -2 -13  -3 120.287 14.6856   1
  -2  -3  13 161.625 15.5163   3
  13  -3   2 119.957 13.9590   2
   3  13   2 133.969 14.2994   3
  13  -2  -3 142.462 14.9302   2
  -3 -13   2 136.376 13.7899   1
  -3  13  -2 163.725 17.8005   3
  13   2   3 156.069 16.7819   2
   3 -13  -2 136.387 13.7188   1
   2  -3 -13 147.026 13.6629   2
   3   2 -13 121.230 13.4397   2
   3  -2  13 123.003 13.5406   3
 -13  -3  -2 112.290 20.1365   1
  -3   2  13 149.834 15.3161   3
 -13  -2   3 133.407 15.3494   1
 -13   2  -3 135.069 14.8482   1
  -3  -2 -13 147.952 13.7139   2
 -13   3   2 137.083 15.0371   1
   2   3  13 127.667 13.9327   3
   2  13  -3 127.064 15.0479   3
  -2  13   3 129.479 20.2925   3
  -4 -13  -1 105.828 17.4240   1
 -13   4  -1 117.005 13.2855   1
  13   1  -4 101.959 16.2407   2
  13  -4  -1 97.7735 11.1862   2
  -4  -1  13 106.756 11.6823   3
  -4   1 -13 107.884 12.6002   2
   1  -4  13 109.292 12.6809   3
  -1  -4 -13 119.482 11.2271   2
  -1 -13   4 102.974 9.65733   1
  -1  13  -4 132.466 16.3419   3
   4 -13   1 101.377 11.2819   1
   1   4 -13 107.336 12.4800   2
   1 -13  -4 110.688 13.9249   1
 -13   1   4 97.4686 15.7621   1
 -13  -4   1 86.1447 16.6599   1
   1  13   4 98.0773 16.1282   3
   4  -1 -13 120.866 12.7692   2
   4  13  -1 93.4433 10.6373   3
 -13  -1  -4 112.767 17.9696   1
  13   4   1 106.207 12.5199   2
  13  -1   4 104.140 12.4273   2
  -1   4  13 86.2674 14.8549   3
  -4  13   1 94.0999 15.8136   3
   4   1  13 105.496 12.3386   3
  -1  13   4 92.6583 16.4974   3
   4  13   1 105.932 11.4423   3
  -1 -13  -4 101.215 16.7733   1
  13  -1  -4 114.546 13.2620   2
  -4  -1 -13 92.6157 11.5149   2
   1   4  13 97.3645 12.3435   3
   1  -4 -13 111.089 10.2917   2
  -4   1  13 102.057 11.9710   3
 -13  -4  -1 76.6320 15.5613   1
  -4 -13   1 100.189 11.8678   1
  -4  13  -1 93.1722 15.5460   3
   4  -1  13 103.134 12.2690   3
   4   1 -13 85.7107 13.9003   2
  -1  -4  13 121.651 13.1426   3
  -1   4 -13 108.601 12.9200   2
  13  -4   1 92.6755 11.1723   2
  13   1   4 114.316 17.4440   2
   4 -13  -1 102.237 11.8371   1
  13   4  -1 113.012 13.5266   2
 -13   1  -4 111.414 12.7320   1
   1 -13   4 115.238 10.1321   1
   1  13  -4 110.716 19.2446   3
 -13   4   1 111.820 13.4055   1
 -13  -1   4 89.3589 15.3079   1
  -3 -13   4 216.051 16.7469   1
  -3  13  -4 244.891 22.3833   3
 -13   4  -3 232.267 18.7690   1
   3 -13  -4 238.672 19.6854   1
 -13  -4   3 243.766 22.4036   1
  13  -4  -3 238.748 19.1467   2
  13  -3   4 260.560 20.3643   2
  -4  -3  13 227.833 17.4762   3
  13   4   3 240.253 19.5654   2
   4   3  13 212.957 18.7998   3
   3  -4  13 246.135 19.6512   3
 -13  -3  -4 254.296 24.3237   1
   3  13   4 245.222 20.2615   3
 -13   3   4 264.243 21.5176   1
  -4 -13  -3 210.871 21.0298   1
  13   3  -4 265.996 21.3242   2
   4 -13   3 234.712 16.5775   1
  -4  13   3 267.394 23.2273   3
  -3  -4 -13 255.104 18.2291   2
   4  -3 -13 225.406 17.7847   2
  -4   3 -13 247.900 20.0331   2
   3   4 -13 263.346 21.1657   2
   4  13  -3 259.947 19.9584   3
  -3   4  13 257.061 20.7631   3
  -3 -13  -4 219.694 21.6822   1
   4 -13  -3 199.481 17.8160   1
 -13  -3   4 218.628 20.1717   1
 -13   3  -4 229.301 18.9405   1
  -4  13  -3 207.473 19.7590   3
  -4  -3 -13 239.328 18.8452   2
  13   4  -3 258.501 21.2265   2
  -3   4 -13 226.368 19.0698   2
  13   3   4 246.457 20.3911   2
  -3  13   4 248.128 23.1003   3
  -4   3  13 260.424 19.8907   3
   3  -4 -13 253.989 18.0418   2
  -3  -4  13 241.974 18.9303   3
   3 -13   4 249.914 16.4059   1
 -13  -4  -3 279.145 26.7025   1
  13  -4   3 273.341 20.1265   2
  -4 -13   3 209.856 17.9395   1
 -13   4   3 262.951 21.7675   1
   4   3 -13 270.800 22.0026   2
   3   4  13 210.277 19.3674   3
  13  -3  -4 247.413 20.1439   2
   4  -3  13 265.511 19.8497   3
   3  13  -4 225.489 20.4321   3
   4  13   3 216.243 17.8492   3
  -5   0  13 -0.5709 2.76478   3
  -5  13   0 -0.0521 3.36364   3
  -5   0 -13 3.71069 2.78041   2
 -13   0  -5 2.53142 3.48283   1
   0  13  -5 -4.0589 4.83482   3
   0  13   5 2.91978 9.11975   3
   5   0 -13 0.87792 3.27248   2
   5   0  13 6.64587 3.14325   3
  13  -5   0 -1.6683 2.32471   2
  13   5   0 0.62579 3.69937   2
  -5 -13   0 3.88671 3.40308   1
   5  13   0 3.68873 3.76672   3
  13   0  -5 7.05990 4.28409   2
  13   0   5 1.19134 3.39395   2
   0  -5  13 1.47499 2.58206   3
   0   5 -13 -2.0181 2.49458   2
   0   5  13 5.30420 5.28921   3
 -13  -5   0 3.06160 4.84439   1
 -13   5   0 5.28232 3.51483   1
   5 -13   0 6.07848 3.07679   1
 -13   0   5 -0.3477 2.69000   1
   0 -13  -5 5.95268 4.30563   1
  13   2  -5 22.2667 6.76975   2
 -13  -2  -5 13.0899 5.39046   1
   5  13  -2 21.7269 3.83469   3
 -13   2   5 25.1036 6.72280   1
  13  -2   5 13.4036 5.06745   2
  -5   2 -13 12.8861 5.59976   2
  -5 -13  -2 18.5858 7.48570   1
   5   2  13 19.5815 5.51122   3
 -13  -5   2 9.89743 6.34433   1
 -13   5  -2 7.66369 3.31933   1
   2  -5  13 20.1215 5.62946   3
   2 -13  -5 21.3108 6.56479   1
  13   5   2 21.8776 6.05973   2
  -2   5  13 23.9468 7.29192   3
  13  -5  -2 12.8024 4.60935   2
  -5  13   2 13.0522 5.03190   3
   2  13   5 6.91042 4.25664   3
   2   5 -13 11.8874 5.80378   2
  -5  -2  13 14.0422 5.03350   3
   5  -2 -13 14.9942 3.92890   2
  -2  13  -5 15.7292 7.86820   3
   5 -13   2 14.9731 3.83313   1
   2  13  -5 18.6361 7.48836   3
  -5   2  13 26.9921 5.50092   3
  -5  -2 -13 14.0133 4.02448   2
   5   2 -13 17.2261 6.88515   2
 -13  -2   5 12.7090 4.19195   1
 -13  -5  -2 31.2289 10.3168   1
  13   2   5 14.5725 5.77936   2
   5 -13  -2 8.07057 4.04015   1
   5  -2  13 14.1824 4.06359   3
  -2   5 -13 14.7855 4.98549   2
  -2 -13  -5 38.8775 9.15254   1
   5  13   2 14.5872 4.13031   3
  13  -2  -5 6.71900 4.25215   2
 -13   2  -5 4.40781 3.66209   1
   2   5  13 16.0155 7.97509   3
  13   5  -2 22.4923 6.61023   2
  -5 -13   2 16.0879 4.12304   1
  -5  13  -2 16.4448 6.00496   3
  13  -5   2 13.8771 4.20385   2
  -2  -5  13 10.2063 4.37752   3
  -2  13   5 27.8620 9.43691   3
 -13   5   2 22.4653 7.43135   1
   4 -13  -5 34.4305 8.50208   1
  -5  13   4 41.8976 9.58899   3
  -5  -4  13 37.9671 7.72369   3
  13  -5  -4 46.0994 7.99941   2
  -4   5  13 18.1633 5.81210   3
 -13  -4  -5 40.1683 9.70876   1
 -13  -5   4 19.3493 7.61203   1
  -5   4 -13 31.5162 7.70434   2
  -4  13  -5 34.3615 9.91743   3
   5  13  -4 35.4891 5.14214   3
  13   4  -5 20.1978 6.32221   2
   4   5 -13 23.4609 6.96594   2
  13  -4   5 38.0344 8.07239   2
   4  13   5 37.2604 6.95221   3
 -13   5  -4 31.8030 6.72145   1
   4  -5  13 28.5360 7.00640   3
   5   4  13 44.6790 8.48602   3
  13   5   4 32.1631 7.17559   2
 -13   4   5 24.0698 6.38086   1
   5 -13   4 28.0676 5.43306   1
  -5 -13  -4 16.1326 7.23033   1
  -4  -5  13 34.4419 8.17232   3
  -4   5 -13 38.1830 8.94706   2
  -4  13   5 32.0343 9.18580   3
 -13  -5  -4 27.3729 8.91891   1
   5  -4  13 35.9118 7.88022   3
 -13   5   4 23.5284 7.31727   1
  -5 -13   4 30.9038 5.31153   1
  -5  13  -4 42.7075 9.00117   3
  -5  -4 -13 23.1978 5.90688   2
  -5   4  13 24.7651 6.55394   3
  13  -5   4 35.0963 6.46017   2
  13   5  -4 34.5517 7.92207   2
  -4 -13  -5 44.8308 10.7651   1
   5  13   4 29.0368 6.09807   3
  13  -4  -5 42.2433 9.81891   2
   4  13  -5 31.0022 6.29996   3
   5 -13  -4 38.3026 9.07054   1
   5   4 -13 32.2323 8.41269   2
 -13   4  -5 34.9843 7.38952   1
  13   4   5 36.6675 7.52392   2
 -13  -4   5 38.4344 8.76886   1
   4   5  13 29.6563 8.09042   3
  13  -6  -1 88.7275 9.48670   2
  -1   6  13 81.7845 13.2146   3
 -13  -1  -6 123.340 13.8109   1
  13  -1   6 89.4738 14.8431   2
 -13   6  -1 77.9585 13.2140   1
 -13   1   6 91.5966 10.4263   1
  -6 -13  -1 110.850 13.4403   1
  -6   1 -13 71.4613 13.0812   2
   6  -1 -13 65.4711 11.4202   2
  13   1  -6 92.2517 14.6136   2
   6 -13   1 110.788 11.0439   1
 -13  -6   1 49.6842 12.6218   1
   6   1  13 72.9824 9.23980   3
   1  13   6 77.4261 14.9555   3
  -6  -1  13 100.453 10.6179   3
   1  -6  13 104.115 12.6643   3
   1   6 -13 111.320 12.8833   2
   1 -13  -6 107.837 12.1128   1
   6  13  -1 94.4357 8.77491   3
  13   6   1 85.6709 9.77148   2
  -6  13   1 103.265 12.4219   3
  -6  -1 -13 111.090 12.5097   2
   6  13   1 75.7185 8.75735   3
 -13   1  -6 90.5473 10.9208   1
 -13   6   1 88.2841 14.9588   1
  -6  13  -1 102.825 16.0852   3
  13  -1  -6 77.5930 13.4007   2
  -1  -6  13 89.7222 14.5645   3
 -13  -1   6 83.5701 10.3427   1
   1   6  13 100.842 16.6791   3
  -1  13   6 93.5507 16.6611   3
 -13  -6  -1 69.0808 14.7080   1
  -1   6 -13 91.2159 11.2595   2
   6 -13  -1 86.9731 13.6926   1
   6  -1  13 90.8469 9.96283   3
   6   1 -13 99.3213 15.8982   2
  -6   1  13 90.7957 10.1163   3
  -1 -13  -6 108.997 17.6620   1
  13  -6   1 94.2478 9.80560   2
  13   6  -1 85.1460 9.48746   2
  -6 -13   1 75.5991 13.3179   1
  13   1   6 98.5172 12.0184   2
   3 -13  -6 20.1512 5.47583   1
   3  -6  13 14.9535 4.70929   3
   3   6 -13 18.4937 6.33548   2
  13   3  -6 22.5507 7.12597   2
 -13  -3  -6 0.18120 5.20160   1
   6 -13   3 16.6177 3.77143   1
   3  13   6 22.9289 6.61672   3
 -13   3   6 16.2260 3.99897   1
   6   3  13 37.5245 6.07161   3
 -13   6  -3 22.8012 5.52478   1
  13  -3   6 7.34491 4.13307   2
  -6 -13  -3 3.58780 5.43729   1
  13   6   3 28.7829 5.56765   2
  13  -6  -3 34.8918 4.93507   2
  -6  -3  13 39.3844 7.90127   3
  -6   3 -13 30.0303 7.60845   2
  -3   6  13 16.5918 4.95169   3
 -13  -6   3 18.5589 7.08394   1
   6  13  -3 14.6924 5.03039   3
   6  -3 -13 28.2374 5.03976   2
  -6  13   3 13.5369 4.29247   3
  -6   3  13 14.2722 4.32075   3
  -6  13  -3 30.2935 7.87858   3
 -13  -6  -3 17.2492 7.34506   1
  -3  13   6 10.6071 5.87439   3
  -3   6 -13 39.0701 8.64975   2
   6  -3  13 15.1310 4.74344   3
  -6 -13   3 31.8271 6.07245   1
  -3 -13  -6 11.4086 5.22781   1
   6   3 -13 16.8598 6.33959   2
  -3  -6  13 31.4149 7.36996   3
 -13   6   3 8.17846 4.60449   1
  -6  -3 -13 17.6068 4.89638   2
   6  13   3 17.1185 4.56453   3
  13  -3  -6 27.4954 4.95852   2
   3  13  -6 6.03690 5.75453   3
   3   6  13 24.9803 5.60967   3
  13  -6   3 12.1925 3.40334   2
 -13  -3   6 38.2966 6.88480   1
 -13   3  -6 36.7635 7.50635   1
  13   3   6 16.7263 5.70522   2
   6 -13  -3 28.8030 7.01596   1
  13   6  -3 18.1901 4.42626   2
   6   5  13 17.5016 6.10448   3
 -13  -5  -6 46.3095 8.85996   1
  -6  -5  13 35.1350 5.76943   3
   5  13   6 32.4958 7.82816   3
  -5   6  13 36.2721 7.52976   3
 -13  -6   5 34.3739 6.07818   1
  13  -5   6 28.0370 5.85014   2
  13   6   5 39.4853 7.27848   2
  -6 -13  -5 34.3304 8.80653   1
 -13   6  -5 40.9959 7.50074   1
  -6  13   5 17.0934 5.41623   3
  13   5  -6 29.3195 6.92730   2
   5 -13  -6 42.0189 7.89717   1
  -5  13  -6 28.9002 8.37985   3
 -13   5   6 25.7212 7.72741   1
   5  -6  13 36.7945 7.78901   3
  -6   5 -13 40.4336 8.92483   2
   5   6 -13 20.1204 5.34069   2
  13   5   6 33.8609 6.18907   2
  -5  13   6 15.5328 6.67812   3
  -6   5  13 42.2357 7.01324   3
  13   6  -5 25.3666 5.58961   2
  -6  13  -5 43.8406 8.34989   3
  13  -5  -6 35.6759 5.95133   2
   6 -13  -5 38.9020 8.57733   1
   6  -5  13 42.4098 7.85760   3
   5  13  -6 29.2681 6.91264   3
   6   5 -13 21.2205 7.86528   2
 -13  -5   6 44.7344 6.86925   1
  -5 -13  -6 37.1176 8.07605   1
  13  -6   5 31.7101 5.65001   2
  -5   6 -13 30.4397 7.60512   2
 -13   6   5 24.3819 6.70572   1
   6  13   5 34.2822 4.79549   3
  -5  -6  13 42.5791 7.47776   3
 -13  -6  -5 28.4030 8.04967   1
   5   6  13 41.8704 6.98600   3
  13   0   7 76.1897 12.9325   2
 -13   0   7 76.8816 9.20273   1
   7   0 -13 59.7197 10.8077   2
   0  -7  13 79.7125 13.7228   3
  -7 -13   0 73.4401 12.6491   1
  -7   0  13 70.8633 7.79895   3
   0 -13  -7 62.8103 11.5920   1
   7   0  13 72.2175 8.75622   3
   0   7  13 87.5590 15.4880   3
  13   7   0 85.1659 9.51482   2
   7 -13   0 73.2127 12.0002   1
  13   0  -7 70.4791 12.3303   2
   0   7 -13 67.0998 11.2863   2
  -7  13   0 86.2131 13.9029   3
  -7   0 -13 64.3928 12.9154   2
   0 -13   7 88.8224 15.0195   3
   0  13   7 91.4559 17.7970   3
 -13   0  -7 64.1376 11.5738   1
 -13  -7   0 61.3081 12.8056   1
 -13   7   0 70.4895 13.0222   1
  -7   2 -13 67.2041 13.5582   2
  13   2  -7 52.1914 11.5989   2
   7  -2 -13 67.9605 10.6966   2
   2 -13  -7 61.7978 10.7547   1
   7   2  13 61.9074 9.21895   3
 -13  -2  -7 71.0397 11.6555   1
  -2   7  13 75.8398 13.1681   3
 -13   2   7 68.4533 11.6383   1
 -13  -7   2 49.5647 11.9053   1
   7 -13   2 57.6581 9.38411   1
  -7  13   2 54.8240 9.78806   3
  13  -2   7 70.5076 13.0099   2
  -7  -2  13 65.8601 7.51738   3
  -2 -13   7 66.8326 12.1937   3
  -7 -13  -2 62.0105 12.1711   1
  13   7   2 71.5418 7.96278   2
 -13   7  -2 71.1997 8.92828   1
   2  -7  13 68.7755 12.4229   3
   2   7 -13 57.8319 10.5281   2
   2  13   7 68.8826 13.7168   3
  -2   7 -13 47.9981 9.53053   2
  13  -7   2 67.9081 7.75183   2
  -2  -7  13 66.4064 11.6153   3
   2 -13   7 55.0137 11.5701   3
   2   7  13 61.1591 11.9743   3
  -7   2  13 57.4451 8.95871   3
 -13  -7  -2 75.5745 15.8833   1
  -2  13   7 68.2151 12.6551   3
  -7  -2 -13 68.3277 12.2910   2
  -7 -13   2 45.0305 9.00158   1
  -7  13  -2 61.6541 10.5553   3
   7   2 -13 50.7074 10.7277   2
 -13   7   2 60.0000 11.7919   1
  13   2   7 47.3123 9.36747   2
  13   7  -2 63.7848 10.9117   2
  13  -2  -7 61.4956 10.3783   2
  -2 -13  -7 66.2941 11.8915   1
   7 -13  -2 60.7695 11.1266   1
   7  -2  13 49.7940 8.23815   3
 -13  -2   7 60.2779 7.22014   1
   4   7 -13 77.5449 13.2537   2
  13   4  -7 96.4974 15.3284   2
 -13   7  -4 99.7162 10.7886   1
  -7 -13  -4 100.197 16.8112   1
  -4   7  13 91.2204 14.5072   3
  -7  13   4 92.7673 11.6202   3
  13  -4   7 80.7562 13.2991   2
   4 -13  -7 96.3717 11.7465   1
  -7   4 -13 84.4959 14.7848   2
   4  -7  13 94.5840 14.7023   3
 -13   4   7 91.0988 10.7345   1
   7   4  13 98.4420 10.1339   3
  13   7   4 125.102 9.98929   2
   4  13   7 86.7395 10.9722   3
 -13  -4  -7 79.2581 9.91403   1
 -13  -7   4 70.7999 12.3442   1
  13  -4  -7 108.273 10.9538   2
  13   7  -4 91.5441 13.8000   2
 -13  -7  -4 92.7248 15.6452   1
   4 -13   7 83.5738 15.0680   3
   7 -13  -4 99.0328 11.4413   1
  -7  -4 -13 100.920 9.68159   2
   7   4 -13 79.3819 13.9670   2
  13  -7   4 98.9915 9.14753   2
   7  -4  13 90.6750 10.3221   3
 -13  -4   7 93.6762 9.73976   1
  13   4   7 118.241 13.2640   2
  -4  -7  13 110.028 10.7334   3
   4   7  13 93.7665 14.3928   3
  -4  13   7 92.8778 15.6623   3
  -7 -13   4 87.3947 8.61899   1
  -7  13  -4 93.1894 11.1240   3
  -7   4  13 99.4005 9.63405   3
  -4   7 -13 110.248 12.0350   2
 -13   7   4 112.244 17.5375   1
  -4 -13  -7 58.6856 12.2372   1
   6   7 -13 4.92085 5.21049   2
  -6  13  -7 16.0197 5.01367   3
   7   6  13 -0.5974 4.45917   3
   6  -7  13 -1.2261 4.18721   3
  13   6  -7 16.0487 5.06743   2
  13  -6   7 8.92062 2.29119   2
 -13  -6  -7 5.88546 4.76407   1
 -13   6   7 -0.7385 2.86387   1
  -7   6 -13 4.50304 3.86982   2
 -13  -7   6 4.29513 4.91456   1
   6 -13  -7 8.96486 4.20282   1
  -7 -13  -6 11.4927 5.50376   1
  -6   7  13 8.70664 3.90393   3
   6  13   7 13.9739 4.57909   3
  -7  13   6 6.89782 5.04339   3
  13   6   7 12.6985 4.53850   2
  13   7  -6 -4.0487 5.00767   2
  -6 -13  -7 4.98754 5.84699   1
   6   7  13 7.57222 5.46295   3
   7   6 -13 14.5950 4.79925   2
  -7  13  -6 9.52355 3.91699   3
   7  -6  13 9.77730 2.93636   3
  13  -7   6 4.29929 2.44532   2
   7 -13  -6 3.80818 3.29883   1
  -6   7 -13 3.92062 3.68601   2
 -13   7   6 5.64572 3.31237   1
 -13  -7  -6 1.48552 4.48119   1
  -6  13   7 8.46456 4.96410   3
  -6  -7  13 9.54581 3.36064   3
  -7   6  13 7.23261 3.79005   3
   1 -13  -8 221.574 17.8813   1
  -1 -13   8 221.379 19.5064   3
 -13  -8   1 209.165 21.1039   1
  -1   8  13 166.620 18.3705   3
   1  -8  13 201.114 17.9419   3
 -13   1   8 194.415 15.5432   1
 -13   8  -1 212.001 18.4779   1
  -8   1 -13 207.992 18.6772   2
   1  13   8 185.895 19.7853   3
  13   8   1 199.411 14.5141   2
  -8 -13  -1 161.448 17.1010   1
   1   8 -13 188.615 16.4874   2
   8 -13   1 167.772 15.1282   1
   8  -1 -13 226.402 18.4501   2
  13   1  -8 165.462 17.0151   2
  13  -1   8 203.502 18.2313   2
  -8  13   1 185.675 17.3361   3
  -8  -1 -13 202.298 18.8475   2
  -1  -8  13 241.526 18.9738   3
  13   1   8 207.733 18.6553   2
   8   1 -13 173.257 17.7679   2
  -1  13   8 219.151 21.0134   3
  13  -1  -8 231.319 19.9764   2
   1   8  13 189.117 19.5273   3
 -13   8   1 182.463 17.6549   1
  -8 -13   1 228.980 20.1144   1
  -8  13  -1 189.562 17.3004   3
   8 -13  -1 202.692 17.6914   1
 -13  -1   8 186.560 14.4439   1
   1 -13   8 198.823 18.7315   3
  -1 -13  -8 173.813 16.0102   1
  -1   8 -13 230.264 17.5709   2
 -13  -8  -1 183.511 19.0465   1
   8  -1  13 172.311 16.5644   3
  13   8  -1 199.114 14.3050   2
   3   8 -13 281.166 21.8032   2
  -8   3 -13 262.342 21.8316   2
  13  -3   8 332.437 22.7051   2
  -3 -13   8 290.296 21.5166   3
   8  -3 -13 274.935 21.8125   2
  -8  13   3 295.628 22.4201   3
 -13   8  -3 268.929 20.5885   1
  -3   8  13 330.143 24.8632   3
 -13   3   8 299.228 20.8661   1
   3  -8  13 349.613 23.4703   3
  -8 -13  -3 274.489 23.6006   1
   3  13   8 265.546 22.6940   3
  13   3  -8 273.644 23.4475   2
 -13  -8   3 277.633 24.9710   1
   3 -13  -8 268.371 20.3891   1
   8 -13   3 306.485 19.5252   1
  -3  -8  13 306.400 21.6452   3
  -3  13   8 295.790 26.7940   3
   3 -13   8 305.948 24.0341   3
  -8  13  -3 276.462 22.1548   3
  13   8  -3 315.659 20.8622   2
   8  -3  13 328.441 20.2808   3
   8   3 -13 246.199 23.4310   2
   3   8  13 263.357 23.0600   3
   8 -13  -3 269.859 21.2940   1
  -8  -3 -13 319.072 22.4280   2
  13  -3  -8 280.088 21.7338   2
  -8 -13   3 293.582 20.4734   1
  13   3   8 302.668 22.6944   2
 -13   8   3 289.835 23.1437   1
  -3   8 -13 256.900 19.8104   2
 -13  -5  -8 38.5293 6.42810   1
  -8  13   5 50.7946 8.52656   3
 -13  -8   5 39.4645 7.53921   1
   5   8 -13 32.9983 7.78566   2
  -5   8  13 52.1911 8.62983   3
  -8 -13  -5 42.2293 9.60797   1
  13  -5   8 44.8965 8.24979   2
  13   5  -8 35.7876 6.73610   2
   5  13   8 45.7765 8.16696   3
 -13   5   8 67.2908 12.1972   1
  -8   5 -13 63.0766 11.2357   2
   5 -13  -8 50.9862 8.72702   1
   5  -8  13 55.5962 9.56161   3
 -13  -8  -5 34.6442 8.35399   1
  13   5   8 43.1873 8.10165   2
   8   5 -13 38.2515 9.14123   2
   5 -13   8 28.6307 6.64231   3
  -5 -13  -8 64.8093 10.0501   1
  -5  13   8 50.7148 8.73359   3
   8 -13  -5 56.8476 10.9561   1
 -13   8   5 40.8336 9.21500   1
  -5  -8  13 60.5770 7.05385   3
  -5   8 -13 72.8214 8.59169   2
  -8  13  -5 60.0224 10.0499   3
   8  -5  13 52.4085 6.13676   3
   5   8  13 40.1129 6.50857   3
  13   8  -5 52.4329 9.25488   2
 -13  -9   0 31.2798 8.17762   1
 -13   9   0 37.4325 9.06214   1
   9 -13   0 33.5450 6.56078   1
   0   9 -13 29.8415 5.17719   2
  -9   0 -13 31.4086 7.08464   2
   0   9  13 28.4782 8.12255   3
   0 -13   9 40.4188 9.26399   3
  13   0  -9 22.8033 5.78859   2
  -9 -13   0 21.4997 5.50864   1
   0  -9  13 30.0596 7.51779   3
  13   0   9 34.9705 6.70568   2
   9   0 -13 25.7629 6.08651   2
   0  13   9 50.7556 11.3479   3
   0 -13  -9 41.0150 5.39234   1
   2  -9  13 46.3786 9.45891   3
  -9   2 -13 40.6012 8.37820   2
 -13   9  -2 53.4199 10.1826   1
  -2 -13   9 47.4012 9.10483   3
  13  -2   9 31.3613 7.14388   2
   2 -13  -9 31.2990 5.88931   1
  13   2  -9 16.8493 4.97732   2
  -9 -13  -2 27.9732 7.43954   1
  -2   9  13 27.7760 7.56235   3
   9  -2 -13 42.7048 6.19640   2
   9 -13   2 29.0085 5.68249   1
 -13  -9   2 50.4527 10.2553   1
   2   9 -13 30.6691 5.84787   2
   2  13   9 29.5386 6.65766   3
  13   2   9 33.4745 6.35034   2
  -2   9 -13 42.4528 7.99769   2
  -9 -13   2 23.0765 5.19869   1
  -2  -9  13 37.2771 8.25124   3
   2 -13   9 27.5349 7.47572   3
   2   9  13 41.4348 8.12119   3
 -13   9   2 33.5223 8.32817   1
   9   2 -13 23.9423 6.99012   2
 -13  -9  -2 28.0619 7.64109   1
  13  -2  -9 34.5121 5.69540   2
  -2  13   9 33.3495 8.06745   3
  -2 -13  -9 28.4025 6.47822   1
   9 -13  -2 35.5635 8.21475   1
  -9  -2 -13 35.0738 6.80997   2
   4   9 -13 44.2381 7.49900   2
  -4 -13   9 42.4604 8.23648   3
 -13  -9   4 39.6112 7.07781   1
  -4   9  13 60.8252 11.3826   3
   4 -13  -9 57.7985 7.04219   1
   4  13   9 59.9731 8.84157   3
 -13   4   9 43.5192 5.26471   1
 -13   9  -4 49.5143 6.29001   1
   4   9  13 39.3028 7.14666   3
  -9  -4 -13 49.2188 6.61393   2
  -9 -13   4 42.5206 5.29009   1
  -4  -9  13 40.2103 6.49252   3
  -4   9 -13 60.2464 7.07159   2
  13   4   9 33.7182 5.72609   2
  -4 -13  -9 33.6513 6.61691   1
  13   9  -4 45.5942 7.63325   2
  10  -1 -13 31.2404 5.66623   2
   1 -13 -10 29.3402 5.10248   1
   1  10 -13 14.6369 4.18370   2
  10 -13   1 23.7864 4.64431   1
  -1  10 -13 16.9391 4.53492   2
  -1 -13 -10 10.9892 4.75485   1
  10 -13   3 10.7150 2.48984   1
  -3  10 -13 19.2943 4.17611   2
  -3 -13 -10 12.5267 5.89139   1
 -14   0   0 780.678 42.8917   1
   0 -14   0 742.718 39.1490   1
   0   0 -14 733.244 37.5161   2
   0   0  14 736.588 38.8896   3
   0  14   0 726.084 40.3998   3
  14   0   0 769.138 41.2195   2
   1 -14  -1 71.3095 9.09749   1
   1 -14   1 54.9429 10.1262   1
   1  -1 -14 74.7080 9.07430   2
   1  -1  14 56.2705 11.6791   3
   1   1 -14 46.3914 8.98512   2
   1   1  14 74.6985 13.6941   3
   1  14  -1 41.0008 9.01746   3
   1  14   1 66.7733 12.3422   3
  14  -1  -1 56.5836 10.9917   2
  14  -1   1 49.4966 10.3047   2
  14   1  -1 51.1472 10.0832   2
  14   1   1 73.1893 13.5749   2
  -1  14   1 56.4348 11.2054   3
 -14   1  -1 63.3584 12.7097   1
 -14   1   1 62.6245 12.8127   1
  -1 -14  -1 50.1600 9.71780   1
  -1 -14   1 66.2710 11.1841   1
  -1  -1 -14 62.0738 10.6657   2
  -1  -1  14 52.5855 11.2436   3
  -1   1 -14 57.6646 10.7746   2
  -1   1  14 63.1538 12.4797   3
  -1  14  -1 47.2362 10.3023   3
 -14  -1   1 59.6634 12.3471   1
 -14  -1  -1 54.2942 11.8213   1
  14   0   2 117.919 14.4223   2
  14   0  -2 134.236 14.7662   2
   2  14   0 93.0899 11.9182   3
   0   2 -14 124.049 13.3622   2
   0   2  14 117.791 14.0436   3
   2 -14   0 120.719 12.4729   1
   2   0 -14 115.378 12.6908   2
 -14   0  -2 141.788 15.5089   1
 -14   0   2 115.199 14.0842   1
  14  -2   0 137.268 14.0554   2
 -14  -2   0 130.478 16.2341   1
 -14   2   0 139.412 15.5199   1
  -2   0 -14 123.377 12.7502   2
  -2   0  14 119.753 13.5306   3
   0 -14  -2 120.256 14.0080   1
   0 -14   2 127.740 12.0457   1
   0  14  -2 113.262 13.4386   3
   0  14   2 122.204 14.1913   3
   0  -2 -14 137.110 12.6990   2
  -2  14   0 130.133 14.9569   3
  -2 -14   0 109.850 13.1307   1
   0  -2  14 111.388 13.3337   3
   2   0  14 102.008 12.7238   3
  14   2   0 118.245 13.9274   2
   2   2  14 260.829 21.4232   3
   2  14   2 293.804 22.4366   3
   2  14  -2 243.925 21.0525   3
  -2  14  -2 269.406 23.0407   3
  -2  14   2 268.499 22.8331   3
   2 -14  -2 278.229 21.2416   1
   2 -14   2 241.366 18.2601   1
   2  -2 -14 270.428 20.1684   2
   2  -2  14 251.166 20.1968   3
   2   2 -14 243.286 19.9707   2
  -2   2  14 267.722 21.2691   3
 -14  -2  -2 270.415 24.4683   1
 -14  -2   2 276.003 23.9028   1
 -14   2  -2 301.196 23.2673   1
 -14   2   2 248.093 21.9243   1
  -2 -14  -2 252.060 22.1347   1
  -2 -14   2 249.274 19.4760   1
  -2  -2 -14 274.708 20.3375   2
  -2  -2  14 273.339 20.7482   3
  -2   2 -14 278.827 21.4828   2
  14   2  -2 263.359 21.3404   2
  14   2   2 311.458 23.2222   2
  14  -2   2 254.180 21.5939   2
  14  -2  -2 272.637 22.1745   2
  -3 -14  -1 13.1691 5.15298   1
  -1   3  14 10.3388 7.32504   3
   1  14   3 22.2437 6.55941   3
  -3   1 -14 23.1899 6.42070   2
   3  14  -1 9.13314 5.00428   3
 -14   1   3 13.8803 5.04512   1
  14  -1   3 12.6945 4.89718   2
 -14  -1  -3 14.2275 5.59147   1
  -1  14  -3 15.3255 6.90241   3
   1  -3  14 10.3872 5.17615   3
   1   3 -14 14.7948 6.02969   2
   1 -14  -3 17.5671 5.14057   1
  14   1  -3 14.4951 6.66844   2
   3 -14   1 21.9406 5.09797   1
  -3  -1  14 23.0563 6.49352   3
   3  -1 -14 22.0689 5.47965   2
  -3  14   1 17.5897 5.95000   3
 -14   3  -1 28.1073 8.31233   1
 -14  -3   1 18.7422 6.33346   1
   3   1  14 16.5002 5.60529   3
  14  -3  -1 19.9828 5.32571   2
  -1 -14   3 16.6997 5.22742   1
  14   3   1 20.8805 5.37526   2
  -1  -3 -14 17.2150 5.32124   2
  -3 -14   1 10.4746 3.91530   1
 -14  -3  -1 13.4354 6.55858   1
 -14   3   1 19.6141 6.52618   1
   3  14   1 18.9500 5.37330   3
  -3   1  14 14.6887 5.51864   3
 -14   1  -3 19.7999 6.09626   1
   3 -14  -1 25.5697 5.77476   1
   1 -14   3 12.1525 3.53390   1
   1  14  -3 8.69186 4.92605   3
  -1 -14  -3 19.7784 6.00593   1
  14  -1  -3 25.5159 7.28157   2
  -1  14   3 18.0706 7.65914   3
   3   1 -14 9.58663 5.22370   2
  -1   3 -14 11.4267 4.57664   2
   1   3  14 20.1737 6.10045   3
  14  -3   1 17.9920 4.91838   2
  14   3  -1 11.7156 4.85114   2
   3  -1  14 16.6467 5.05979   3
  -1  -3  14 26.0659 6.96932   3
  14   1   3 6.03917 4.30852   2
   1  -3 -14 25.3820 4.95552   2
  -3  -1 -14 23.7003 6.52779   2
 -14  -1   3 18.7540 5.85868   1
  -3  14  -1 14.5908 5.45408   3
  14   3  -3 -2.1431 3.87205   2
  -3   3 -14 4.99286 3.46929   2
  -3 -14  -3 6.08859 4.61361   1
  -3   3  14 -7.1779 3.00084   3
  -3  -3  14 -0.7738 4.92443   3
   3  -3  14 9.05323 4.03996   3
   3   3 -14 -0.4389 3.27977   2
   3   3  14 5.25597 3.52377   3
   3  14  -3 1.04573 4.22861   3
   3  14   3 -0.9655 3.71544   3
  14  -3  -3 -0.0317 3.60390   2
  -3 -14   3 -3.5510 4.76240   1
  -3  -3 -14 -1.7266 4.42293   2
 -14  -3  -3 -4.8043 4.28272   1
 -14  -3   3 3.10526 3.74243   1
  14   3   3 9.49114 4.23594   2
 -14   3   3 -0.8195 2.86241   1
  -3  14  -3 0.42911 3.46076   3
  -3  14   3 6.28605 4.30365   3
   3 -14  -3 4.17078 3.28691   1
   3 -14   3 -5.5883 2.53579   1
 -14   3  -3 1.39553 2.59700   1
   3  -3 -14 -0.8911 3.74961   2
  14  -3   3 1.48689 2.77192   2
   0 -14   4 50.1247 5.90831   1
 -14   4   0 59.2266 11.7521   1
  -4   0 -14 58.5067 11.8214   2
  -4   0  14 55.5763 9.92521   3
   0 -14  -4 74.2264 13.4045   1
  -4 -14   0 62.9325 11.4977   1
  -4  14   0 59.0531 11.8834   3
   0  -4 -14 52.3312 8.18672   2
 -14  -4   0 50.5299 13.1428   1
   4  14   0 55.2759 9.03260   3
  14   0  -4 67.1404 11.8583   2
  14   0   4 52.8295 9.77433   2
  14  -4   0 67.6608 11.2677   2
  14   4   0 55.3382 11.4342   2
 -14   0  -4 52.8208 10.5575   1
 -14   0   4 58.1841 11.6657   1
   4   0 -14 56.4094 10.6498   2
   4   0  14 55.8781 10.6440   3
   0  -4  14 61.2669 11.9215   3
   0   4 -14 49.3063 10.6247   2
   0   4  14 40.0997 9.00933   3
   4 -14   0 60.4804 11.1538   1
   0  14  -4 34.6790 9.38377   3
   0  14   4 55.3209 11.5560   3
  -2  14  -4 126.507 15.2436   3
  -4  14   2 118.194 14.1114   3
  -4   2 -14 109.356 13.0696   2
  14   2  -4 123.097 14.1450   2
  -4 -14  -2 126.602 14.8787   1
  -2 -14   4 88.3825 8.14507   1
 -14  -4   2 120.287 20.5884   1
  -2  -4 -14 127.986 10.4048   2
 -14  -2  -4 121.596 15.6437   1
   4   2  14 96.9953 11.0547   3
  -2   4  14 128.214 14.1388   3
   2  -4  14 113.417 13.0220   3
   2   4 -14 93.8022 15.9844   2
  -4  -2  14 129.506 12.8440   3
  14   4   2 116.554 12.3282   2
   4 -14   2 103.807 10.3076   1
   4  14  -2 122.897 12.2654   3
   2 -14  -4 132.795 14.1270   1
  14  -4  -2 102.166 11.0821   2
  14  -2   4 120.209 13.1807   2
   2  14   4 111.950 17.4338   3
 -14   4  -2 104.683 12.4319   1
 -14   2   4 119.403 13.8731   1
   4  -2 -14 113.909 11.8227   2
  -4   2  14 120.578 13.0578   3
   2  14  -4 124.560 15.1667   3
   4  -2  14 124.095 13.8453   3
   4   2 -14 108.058 12.9533   2
  -2   4 -14 120.138 13.1169   2
  14  -2  -4 100.238 12.0357   2
  14  -4   2 128.586 13.2343   2
  14   4  -2 123.802 12.6989   2
   4 -14  -2 98.5961 11.9129   1
  -2  -4  14 112.335 12.6554   3
  -2 -14  -4 96.0968 16.2711   1
  14   2   4 122.631 13.2493   2
 -14   4   2 115.829 13.7573   1
  -4  -2 -14 128.461 12.5783   2
   2   4  14 109.669 12.8816   3
 -14  -2   4 102.813 12.9730   1
 -14  -4  -2 88.5494 16.9322   1
   4  14   2 137.721 13.2807   3
  -4  14  -2 101.750 12.8010   3
  -2  14   4 144.247 16.5614   3
  -4 -14   2 113.530 10.9557   1
 -14   2  -4 103.913 12.2110   1
   4   4 -14 145.233 16.2728   2
  -4 -14   4 143.787 12.1064   1
  -4  -4 -14 153.590 13.5348   2
  -4  14  -4 131.101 14.9677   3
  -4  14   4 180.048 18.1151   3
 -14   4   4 155.056 16.2561   1
 -14  -4   4 153.333 17.1357   1
 -14   4  -4 136.813 13.7158   1
   4   4  14 149.367 16.0423   3
  14  -4   4 147.905 14.9327   2
  14   4  -4 143.824 14.2996   2
 -14  -4  -4 165.630 19.7331   1
  14   4   4 164.790 15.4346   2
  -4   4  14 150.120 15.2741   3
   4  14  -4 142.590 13.6697   3
   4  14   4 158.089 14.3243   3
  14  -4  -4 147.570 15.0855   2
   4  -4  14 145.112 14.7810   3
  -4  -4  14 142.832 13.2260   3
  -4 -14  -4 142.957 15.6354   1
   4 -14  -4 148.743 15.1636   1
  -4   4 -14 167.706 15.6427   2
  -5 -14  -1 107.879 13.5923   1
  -1  14  -5 111.305 19.0765   3
 -14   1   5 117.649 13.3588   1
   1   5 -14 136.662 14.1488   2
 -14  -1  -5 150.334 16.2320   1
 -14  -5   1 81.9153 16.5423   1
  14  -5  -1 105.370 10.8490   2
   5   1  14 90.4446 10.9097   3
   1  14   5 115.615 14.4252   3
  -5  -1  14 88.7781 10.0567   3
  14   5   1 108.888 11.7816   2
 -14   5  -1 113.227 13.0269   1
   1  -5  14 122.153 13.5517   3
   5  -1 -14 93.7444 14.2087   2
   5 -14   1 109.441 11.2144   1
   5  14  -1 125.372 11.2179   3
  -5  14   1 128.305 14.3631   3
   1 -14  -5 122.962 13.0479   1
  14  -1   5 97.7292 15.6719   2
  -1   5  14 131.768 14.7209   3
  14   1  -5 118.914 14.2736   2
  -5   1 -14 100.001 15.8744   2
 -14  -5  -1 118.392 20.9004   1
  14   5  -1 123.835 12.7595   2
  -1   5 -14 108.244 12.3162   2
  -5 -14   1 108.022 12.0883   1
  -5  -1 -14 105.897 12.4608   2
  -1 -14  -5 99.5171 16.2555   1
   5  -1  14 113.379 11.9846   3
   5   1 -14 139.166 14.5899   2
   5 -14  -1 100.137 11.4523   1
  -5  14  -1 104.299 12.8037   3
  14  -5   1 109.135 10.6790   2
   5  14   1 97.3183 9.62952   3
  14  -1  -5 114.189 13.2503   2
  -1  -5  14 101.322 12.0696   3
   1  14  -5 122.669 15.1309   3
  -5   1  14 121.013 11.9159   3
 -14   1  -5 118.830 13.1916   1
   1   5  14 99.7948 16.8799   3
 -14   5   1 135.964 14.3902   1
  14   1   5 107.332 16.7771   2
  -1  14   5 124.126 15.1385   3
 -14  -1   5 107.299 12.8844   1
  -5 -14  -3 13.2651 6.37486   1
 -14   3   5 0.97601 3.32532   1
   5   3  14 13.7435 4.20829   3
 -14  -3  -5 3.31239 4.86603   1
  -3  14  -5 13.8324 5.08453   3
  -3   5  14 4.24700 4.00924   3
  -5   3 -14 4.75458 4.26710   2
   3   5 -14 5.94005 3.97207   2
   3  14   5 7.85299 8.00509   3
  14  -3   5 2.68892 3.45520   2
  14   3  -5 8.00063 3.72276   2
   5  14  -3 0.57231 3.88104   3
  14  -5  -3 5.09131 3.26522   2
  -5  -3  14 6.66074 3.01172   3
   3 -14  -5 5.64894 3.86802   1
  14   5   3 8.81063 4.60985   2
  -5  14   3 9.43692 5.15388   3
   5  -3 -14 10.1172 3.43350   2
   5 -14   3 13.0994 2.71887   1
   3  -5  14 5.23471 3.57677   3
 -14   5  -3 3.00376 2.88568   1
 -14  -5   3 5.06071 5.79310   1
 -14  -3   5 8.07875 5.10692   1
 -14   3  -5 6.60923 3.43628   1
   5   3 -14 -0.2556 4.10200   2
  14   3   5 4.67317 5.12813   2
 -14  -5  -3 11.2804 6.09027   1
   3   5  14 7.06842 4.14275   3
   3  14  -5 15.7471 5.54899   3
 -14   5   3 6.40709 3.84105   1
  14  -3  -5 7.85080 4.45942   2
  -5  -3 -14 9.00377 3.56391   2
  14  -5   3 4.01557 2.64774   2
  14   5  -3 16.2669 5.82679   2
  -5   3  14 -0.9879 3.15089   3
  -3  -5  14 9.99050 5.03153   3
  -3 -14  -5 4.91445 4.90860   1
   5 -14  -3 8.43118 3.73413   1
   5  -3  14 2.78767 2.72986   3
  -5  14  -3 8.09349 4.32573   3
   5  14   3 -0.4699 4.65348   3
  -5 -14   3 10.6713 3.97541   1
  -3   5 -14 5.19712 3.22842   2
  -3  14   5 7.48516 4.63775   3
  -5   5 -14 349.573 24.8135   2
  14   5   5 365.245 22.8114   2
  -5   5  14 313.374 22.5500   3
 -14  -5  -5 320.674 26.1682   1
 -14  -5   5 312.389 24.5836   1
 -14   5  -5 377.348 25.0560   1
 -14   5   5 342.854 25.4801   1
   5  14  -5 341.017 22.7354   3
   5  14   5 345.419 22.0840   3
  14  -5  -5 314.269 21.1451   2
  14  -5   5 348.724 22.9994   2
  14   5  -5 322.683 24.3208   2
  -5  14   5 359.879 28.6309   3
   5 -14  -5 356.166 24.0506   1
   5  -5  14 348.747 23.3066   3
   5   5 -14 350.948 25.6112   2
  -5  14  -5 312.245 25.6255   3
  -5 -14  -5 309.411 25.7584   1
  -5  -5  14 367.968 23.0330   3
   5   5  14 336.306 24.4323   3
   0  14   6 9.36940 5.65293   3
   0   6 -14 13.0323 4.72060   2
   6   0  14 13.6100 3.35468   3
  14  -6   0 5.91545 2.75096   2
 -14   0  -6 7.19462 4.89469   1
   6   0 -14 9.91895 4.18861   2
 -14   0   6 -1.5335 3.40227   1
 -14  -6   0 0.00008 5.35161   1
 -14   6   0 6.43189 3.24094   1
  14   0   6 1.09018 3.81296   2
  -6   0  14 4.01762 2.96978   3
   0 -14  -6 2.03681 4.40378   1
   0  14  -6 6.60387 5.24551   3
   6  14   0 -0.6741 4.53715   3
  14   0  -6 2.41620 4.88715   2
  -6  14   0 4.08323 4.73835   3
  14   6   0 8.18694 4.76495   2
   6 -14   0 2.18934 2.44948   1
  -6   0 -14 8.64044 4.12799   2
   0   6  14 3.63781 4.16069   3
  -6 -14   0 5.78863 4.15228   1
   0  -6  14 3.78198 3.10296   3
 -14   6  -2 177.481 15.9412   1
 -14  -2  -6 244.769 21.4634   1
   2   6 -14 230.070 18.9148   2
   6  14  -2 237.491 15.1890   3
 -14   2   6 221.256 18.7345   1
   2 -14  -6 163.974 16.1717   1
   6   2  14 159.031 14.8681   3
  14  -6  -2 173.620 14.9544   2
  -6   2 -14 151.864 15.7917   2
   2  -6  14 192.037 17.2714   3
  -6  14   2 185.609 19.2323   3
 -14  -6   2 183.654 20.7010   1
  14   6   2 152.337 13.4947   2
  -6 -14  -2 186.530 18.5734   1
  -6  -2  14 171.697 13.9266   3
   2  14   6 178.282 17.2379   3
  14  -2   6 195.184 17.3814   2
  14   2  -6 191.727 18.3570   2
   6  -2 -14 156.388 15.5968   2
  -2  14  -6 199.268 20.1112   3
  -2   6  14 192.276 18.0988   3
   6 -14   2 217.082 15.9677   1
 -14  -2   6 168.628 16.2658   1
  -6  -2 -14 212.789 17.4376   2
   6 -14  -2 152.761 15.2349   1
   6   2 -14 208.035 19.0892   2
   2   6  14 148.821 16.1742   3
   6  -2  14 188.104 15.9025   3
  -6  14  -2 200.157 18.8361   3
  -2 -14  -6 169.974 17.5564   1
 -14  -6  -2 224.461 22.4188   1
  14  -6   2 233.168 16.9742   2
 -14   6   2 240.503 20.5358   1
   2  14  -6 216.528 20.6574   3
 -14   2  -6 196.450 16.5174   1
  14   6  -2 210.833 16.7057   2
  14   2   6 191.940 17.4313   2
  -6 -14   2 150.028 14.0362   1
   6  14   2 168.735 12.3723   3
  14  -2  -6 175.681 16.7309   2
  -6   2  14 233.980 17.1791   3
  -2   6 -14 156.681 15.1234   2
  -2  14   6 246.631 22.0055   3
  -2  -6  14 170.356 15.7866   3
   4  -6  14 11.0830 3.62642   3
 -14   6  -4 5.38335 2.88648   1
  -6  -4  14 9.94784 3.84726   3
 -14   4   6 2.33658 4.46354   1
 -14  -6   4 1.48429 5.44466   1
  -4  14  -6 15.3884 6.21848   3
   4 -14  -6 4.86315 4.51278   1
  14   6   4 8.55702 4.32663   2
  14   4  -6 5.23823 4.66836   2
   4  14   6 11.5584 5.39838   3
   4   6 -14 13.3188 6.38086   2
   6   4  14 12.2073 4.42483   3
  -6 -14  -4 -1.4474 4.88551   1
  -6   4 -14 6.68874 3.97587   2
 -14  -4  -6 15.7974 5.46395   1
  -4   6  14 5.32700 4.49072   3
  14  -4   6 11.8477 3.47868   2
  -6  14   4 -8.9649 4.98689   3
  -4   6 -14 14.9949 4.72680   2
   6  14   4 -1.8507 5.46630   3
   6 -14  -4 6.31447 4.28220   1
   4   6  14 0.96961 4.82536   3
   6   4 -14 -3.1573 3.95395   2
  -6  -4 -14 -4.4829 3.96125   2
  14  -6   4 5.92696 2.65995   2
  14   6  -4 3.47372 4.42820   2
  -6   4  14 2.50016 3.88143   3
  -4 -14  -6 17.8404 6.48240   1
  -4  -6  14 9.45405 3.36764   3
  14  -4  -6 -4.8793 4.13034   2
 -14  -4   6 1.80643 4.86210   1
 -14  -6  -4 9.90411 6.38488   1
  14   4   6 1.52255 5.00736   2
 -14   6   4 7.95975 3.96592   1
   6  -4  14 3.99624 2.98993   3
   4  14  -6 11.8616 4.61723   3
  -6 -14   4 13.0506 3.95988   1
  -6  14  -4 5.65741 4.18462   3
  -4  14   6 -2.0880 4.63387   3
  -6   6  14 60.9313 9.42441   3
 -14  -6  -6 59.6920 7.90792   1
 -14  -6   6 108.511 11.9494   1
  -6  -6  14 86.5251 8.09658   3
   6   6  14 88.0064 9.38151   3
   6  14   6 79.9348 8.02351   3
  14   6   6 83.8702 8.83269   2
   6  -6  14 72.7596 7.25232   3
  -6  14  -6 65.4230 11.9507   3
  14  -6   6 71.5718 7.18063   2
 -14  -7   1 0.30163 4.73617   1
  14   1  -7 -7.4752 3.85697   2
   1  14   7 -8.6328 4.79735   3
   1   7 -14 0.79878 2.97323   2
   1 -14  -7 3.69110 3.86248   1
 -14   7  -1 -2.5711 2.35835   1
   7   1  14 1.68812 5.20394   3
   7  -1 -14 -2.2841 3.78891   2
  14   7   1 7.63539 3.86940   2
  -7  14   1 -3.6718 4.24024   3
  -7   1 -14 -5.3333 2.98417   2
 -14   1   7 -0.6584 3.47938   1
  -7 -14  -1 4.21855 4.09931   1
  14  -1   7 8.56633 3.87955   2
 -14  -1  -7 -0.1550 5.10298   1
   1  -7  14 5.05325 3.48452   3
  -1   7  14 0.62619 4.81196   3
  -1  -7  14 -1.5721 2.92055   3
   7   1 -14 1.75117 4.23936   2
 -14   7   1 -1.8233 2.82983   1
  -7  -1 -14 -3.9700 3.45186   2
  14   7  -1 6.30532 3.92041   2
  14  -1  -7 12.5763 4.44336   2
  -1 -14  -7 -3.2946 4.83328   1
  -7 -14   1 3.93676 4.86672   1
   1  14  -7 -0.9240 5.47891   3
  14   1   7 9.64910 4.87391   2
  -1   7 -14 2.42172 3.22319   2
   7  -1  14 6.64076 3.03144   3
 -14  -7  -1 -1.7358 5.18625   1
  -7   1  14 4.96402 3.19232   3
   1   7  14 1.55798 4.91590   3
   7 -14  -1 3.22313 2.60139   1
  -1  14   7 1.47301 5.25986   3
 -14  -1   7 -5.2431 3.55146   1
   3 -14  -7 -5.3357 4.03795   1
  14   7   3 -4.3182 4.21094   2
   7   3  14 -1.7851 3.80363   3
  -3  14  -7 2.15483 5.46328   3
   3  -7  14 3.11181 3.45783   3
   7  -3 -14 6.44214 4.27699   2
 -14  -7   3 4.82803 5.94726   1
 -14   7  -3 -0.8845 2.42611   1
   7 -14   3 3.64344 2.46399   1
  -3   7  14 1.03918 4.36872   3
   3  14   7 5.88132 4.65588   3
  -7  14   3 2.92839 5.21469   3
   3   7 -14 -0.1128 4.09002   2
 -14  -3  -7 7.88304 5.26572   1
  -7   3 -14 -1.9663 2.91827   2
 -14   3   7 2.67337 3.20770   1
  14   3  -7 1.45811 3.99075   2
  -7 -14  -3 2.10319 4.39029   1
  14  -3   7 -4.6569 2.96938   2
  -7  -3 -14 0.13872 4.47092   2
   3  14  -7 10.4586 5.23366   3
   7   3 -14 10.4070 4.52978   2
  14  -7   3 6.48581 2.63738   2
  14   7  -3 -4.1544 4.05650   2
  -3  -7  14 -1.2958 3.07424   3
   3   7  14 1.94892 4.42213   3
   7 -14  -3 -0.1418 3.19107   1
  -3   7 -14 2.97350 2.84548   2
  14  -3  -7 -5.4705 4.63358   2
 -14   7   3 2.33743 2.86575   1
  -7   3  14 5.17072 3.54341   3
  14   3   7 -8.2577 4.84527   2
  -3 -14  -7 -8.4562 4.83313   1
 -14  -3   7 -3.5479 4.80848   1
  -3  14   7 0.99231 5.25146   3
   7  -3  14 8.32389 3.00507   3
  -7  14  -3 -1.8289 3.71885   3
  -7 -14   3 1.76545 4.00572   1
 -14  -7  -3 -1.0991 5.39126   1
  -7  14   5 24.6518 7.24348   3
  -5   7  14 8.50057 4.25526   3
 -14  -7   5 7.15668 5.60802   1
   7   5  14 2.46052 4.75539   3
 -14  -5  -7 5.09514 4.92959   1
  14   7   5 4.60098 4.40980   2
   5  14   7 9.61755 5.24415   3
   5  14  -7 8.38557 4.81792   3
  -5  -7  14 9.24742 3.70347   3
   5   7  14 6.94228 5.29624   3
  14   5   7 15.4910 4.20136   2
  -7   5  14 6.10900 4.24980   3
  -7  14  -5 15.0622 4.21141   3
  14  -7   5 10.0572 2.35007   2
   7  -5  14 12.7442 3.25970   3
   0   8 -14 22.1044 5.91941   2
  -8   0 -14 31.2766 7.49783   2
   0  -8  14 21.4561 5.13304   3
  -8  14   0 22.9088 5.86859   3
  14   8   0 29.0772 5.54090   2
 -14  -8   0 6.56604 5.35075   1
 -14   8   0 30.5681 7.71688   1
   0 -14  -8 25.5127 6.47019   1
   0 -14   8 16.6352 4.48747   3
   0  14   8 9.65294 5.31274   3
   0   8  14 22.0816 5.68361   3
   8 -14   0 24.9698 4.67274   1
  14   0  -8 32.2151 7.38467   2
  14   0   8 20.4140 5.97157   2
 -14   0   8 22.8683 4.05565   1
  -8 -14   0 22.8560 4.97367   1
   8   0 -14 17.2227 7.36172   2
   2   8 -14 66.9516 11.1649   2
 -14   2   8 94.2947 8.20492   1
 -14  -8   2 83.6434 10.6942   1
 -14   8  -2 97.8551 10.9475   1
   8  -2 -14 69.4774 9.80346   2
   2 -14  -8 85.2379 10.0555   1
   2  14   8 67.4277 11.4168   3
   8 -14   2 75.3802 7.85913   1
  14   8   2 84.2766 8.71836   2
  14  -2  -8 89.5585 9.07733   2
  -8  14  -2 84.2844 10.2988   3
  14   8  -2 85.1876 9.15376   2
  -8 -14   2 76.0061 8.40807   1
  14   2   8 79.5741 12.2647   2
  -8  -2 -14 78.2852 11.6729   2
  -2 -14  -8 64.1092 11.3073   1
  -2   8 -14 105.920 10.9712   2
  -2  -8  14 104.218 11.1661   3
 -14   8  -4 31.1385 5.33043   1
  -8  14   4 23.7466 6.22609   3
  -8  14  -4 21.4199 5.56527   3
  14  -4  -8 34.6547 5.00494   2
  -8  -4 -14 23.1197 5.82164   2
 -15   0  -1 42.2946 9.78347   1
 -15   0   1 30.0176 8.38106   1
  -1 -15   0 36.9771 6.93401   1
  -1  15   0 34.4188 10.2325   3
   0  -1 -15 33.1640 7.96198   2
   0  -1  15 30.6626 8.32422   3
   0   1 -15 30.0730 7.14872   2
   0   1  15 44.2559 10.2244   3
   1 -15   0 37.2098 8.83175   1
   1  15   0 39.0285 8.64778   3
  15   0  -1 30.2036 9.20893   2
  15   0   1 45.1350 10.1343   2
   1   0 -15 32.0885 6.69735   2
   1   0  15 30.2035 8.00475   3
  15  -1   0 20.1818 5.99107   2
  15   1   0 29.5661 7.64921   2
   0 -15  -1 30.1943 6.26558   1
   0 -15   1 37.6677 6.76481   1
   0  15  -1 30.0654 7.29809   3
   0  15   1 25.5090 6.67827   3
  -1   0 -15 29.9111 7.25988   2
  -1   0  15 31.7797 8.14200   3
 -15   1   0 36.0877 8.33177   1
 -15  -1   0 31.5970 8.74591   1
  -1 -15   2 25.8197 5.84879   1
   1 -15  -2 31.9358 8.04600   1
  -2  15   1 63.7440 11.6724   3
  15  -1   2 38.7685 8.84889   2
   1  15   2 36.3561 8.25749   3
   2  -1 -15 38.3067 7.76329   2
  -2   1 -15 38.2154 8.96393   2
  -1   2  15 47.1697 10.5735   3
   2   1  15 24.3556 6.23375   3
  15  -2  -1 30.9377 7.15745   2
  -2 -15  -1 29.8974 6.64563   1
  15   1  -2 41.8267 10.3886   2
  15   2   1 35.4085 8.00515   2
  -1  15  -2 30.4801 7.93569   3
   2  15  -1 41.8360 9.26561   3
   1   2 -15 34.5104 7.98762   2
 -15   2  -1 40.1655 8.84498   1
 -15  -1  -2 31.1194 8.14964   1
  -1  -2 -15 36.1375 6.68879   2
  -2  -1  15 36.3698 8.12013   3
 -15   1   2 32.1514 9.78673   1
   1  -2  15 37.5197 9.16925   3
   2 -15   1 37.5562 7.90820   1
 -15  -2   1 29.7593 7.85542   1
   1 -15   2 37.7070 7.87860   1
   2   1 -15 30.1292 7.72910   2
 -15  -1   2 28.4842 8.95788   1
   2  15   1 37.0731 9.26917   3
   2  -1  15 64.6590 12.9425   3
  15  -2   1 36.9809 8.20630   2
  -2 -15   1 23.9916 6.73887   1
 -15   2   1 40.8266 9.34476   1
 -15  -2  -1 28.2626 8.05172   1
  15   2  -1 39.8283 7.95162   2
  -1  -2  15 38.7091 8.67302   3
  -1   2 -15 28.0454 7.42075   2
  -2  -1 -15 33.7228 8.12516   2
   1  -2 -15 35.1474 7.68803   2
 -15   1  -2 35.9476 8.74592   1
  -2   1  15 47.0897 9.47777   3
   1   2  15 30.2524 7.52658   3
   2 -15  -1 28.3366 6.95990   1
  -2  15  -1 37.6962 9.20245   3
  -1  15   2 31.1294 7.89583   3
  15   1   2 34.7922 8.31889   2
  15  -1  -2 35.5983 8.02803   2
   1  15  -2 29.3310 6.53824   3
  -1 -15  -2 36.6242 9.08188   1
 -15   0  -3 7.66552 4.14780   1
   0   3  15 5.15499 4.98458   3
   3 -15   0 4.61298 3.45711   1
   3  15   0 10.4293 3.87558   3
  15   0  -3 -0.1915 3.57002   2
  15   0   3 2.82040 4.04138   2
   3   0  15 6.13113 5.77386   3
  15  -3   0 1.90833 3.44843   2
  15   3   0 6.20291 4.07952   2
   0  -3  15 1.02361 4.88830   3
   0   3 -15 -4.2956 2.60446   2
   0  -3 -15 -3.6646 3.28625   2
 -15  -3   0 -5.9489 4.27256   1
 -15   3   0 -2.4871 2.79644   1
  -3   0 -15 0.71609 4.30513   2
  -3   0  15 -1.8004 2.95601   3
   0 -15  -3 4.00838 4.13031   1
   0 -15   3 -0.0660 3.06631   1
   0  15  -3 0.08949 4.07269   3
   0  15   3 1.10925 4.20040   3
   3   0 -15 -2.4464 3.02241   2
  -3  15   0 -4.1154 3.54341   3
  -3 -15   0 5.40301 5.46822   1
 -15   0   3 6.71151 3.78170   1
  -3 -15  -2 28.8259 8.14635   1
 -15   3  -2 18.5581 6.04344   1
  -3  15   2 22.9296 6.44298   3
  15  -2   3 30.6585 8.34917   2
  -2 -15   3 27.8020 4.58991   1
 -15  -2  -3 22.1790 7.14104   1
  -2   3  15 37.4328 8.39933   3
   2   3 -15 27.2294 8.02883   2
  -3  -2  15 14.6442 5.19544   3
  -2  15  -3 43.2823 9.94711   3
 -15  -3   2 18.5459 7.19623   1
   3   2  15 21.7787 5.97987   3
  15  -3  -2 10.9001 5.88987   2
  -2  -3 -15 31.9625 6.26578   2
   3  15  -2 30.0008 7.40651   3
  -3   2 -15 33.6317 8.38190   2
   2  15   3 35.2030 8.02693   3
 -15   2   3 33.4122 9.02731   1
   3  -2 -15 29.1185 5.28595   2
  15   2  -3 31.4375 7.92801   2
   2  -3  15 32.1632 7.58971   3
   2 -15  -3 21.4347 6.86694   1
   3 -15   2 23.6123 5.74584   1
  15   3   2 24.2247 7.02005   2
   2   3  15 22.5255 5.92339   3
   2  -3 -15 25.3114 5.00690   2
   2  15  -3 20.8048 6.01157   3
 -15   2  -3 22.1364 5.97513   1
 -15  -3  -2 38.7589 10.6119   1
  -3 -15   2 24.9156 6.04310   1
   3   2 -15 28.1240 6.66320   2
  -2  15   3 33.0344 7.36165   3
  -3  -2 -15 44.6930 7.71857   2
   3 -15  -2 29.4218 7.06992   1
   3  15   2 21.8851 5.45687   3
  -3   2  15 31.4210 7.70850   3
  -2 -15  -3 12.8047 6.39214   1
   3  -2  15 22.1485 6.37717   3
  15   2   3 33.0394 7.12678   2
 -15  -2   3 24.8537 7.79220   1
  -2   3 -15 25.4117 6.55920   2
  15   3  -2 42.0016 8.45990   2
 -15   3   2 22.0283 6.18143   1
  -2  -3  15 25.2573 6.39339   3
  -3  15  -2 24.6024 7.55047   3
  15  -2  -3 25.0322 6.07257   2
  15  -3   2 30.1897 6.39556   2
 -15   1   4 32.2251 8.33391   1
  15   1  -4 23.1889 7.62433   2
  -4   1 -15 54.4282 11.1113   2
  15  -1   4 17.3026 6.23769   2
   1 -15  -4 35.6096 8.70448   1
  -4 -15  -1 21.6085 7.39569   1
  -1  15  -4 40.6466 10.1213   3
   4   1  15 44.7518 8.68221   3
 -15  -1  -4 27.4503 6.46441   1
  -4  -1  15 49.0800 8.73210   3
 -15  -4   1 39.2763 11.4658   1
  15   4   1 56.7068 8.73918   2
   1  -4  15 30.0319 6.94193   3
   1   4 -15 36.7971 9.04071   2
  15  -4  -1 48.7116 7.94370   2
  -4  15   1 44.7688 9.21971   3
   4 -15   1 52.8862 6.59145   1
 -15   4  -1 56.6356 10.6172   1
   4  15  -1 38.0814 5.92129   3
   1  15   4 32.7573 7.66341   3
   4  -1 -15 49.1855 8.75437   2
  -1   4  15 44.4175 9.83707   3
 -15   1  -4 63.9888 11.7278   1
  -1   4 -15 40.4923 9.80390   2
   1  15  -4 36.1157 8.39543   3
 -15   4   1 38.2806 9.30438   1
  -4  -1 -15 33.3635 7.02311   2
   1   4  15 50.8643 10.7892   3
   4 -15  -1 48.3831 8.94417   1
   4  15   1 54.4961 7.92622   3
   4   1 -15 24.8461 5.19041   2
 -15  -4  -1 26.7721 11.2125   1
  15   4  -1 36.4847 8.07952   2
  15  -4   1 45.8133 7.57912   2
  15   1   4 41.5773 8.56815   2
  -4   1  15 36.9914 7.95380   3
  -1  15   4 24.8560 6.48133   3
  -1 -15  -4 30.7522 7.10451   1
 -15  -1   4 56.7536 10.9436   1
  -4 -15   1 52.2778 9.19227   1
  -4  15  -1 66.6290 11.9758   3
  -1  -4  15 52.0892 10.2577   3
  15  -1  -4 52.2852 9.16043   2
   4  -1  15 37.4071 7.39289   3
 -15  -3  -4 20.6693 7.69754   1
  -4  15   3 43.3595 9.65886   3
 -15  -4   3 32.9858 9.03916   1
   4  -3 -15 29.6442 4.54423   2
  -3  15  -4 39.3529 9.26439   3
  15  -3   4 37.9456 8.59784   2
  -4 -15  -3 25.2738 8.12907   1
   4 -15   3 17.8060 3.46612   1
   4  15  -3 25.8168 4.93181   3
  -3   4  15 30.2488 7.55803   3
  15  -4  -3 29.8737 5.37595   2
 -15   4  -3 45.9994 8.13889   1
   4   3  15 43.2197 9.11981   3
  15   4   3 42.2705 8.30914   2
  -4  -3  15 35.2107 6.56294   3
  -4   3 -15 49.2220 11.7143   2
   3  -4  15 22.7534 6.17570   3
   3  15   4 42.2119 8.14950   3
 -15   3   4 39.1404 8.49909   1
  15   3  -4 20.0251 5.51952   2
   3   4 -15 29.1937 7.08525   2
   3 -15  -4 39.7917 8.44002   1
  15  -3  -4 35.9415 7.30591   2
   4  15   3 27.7981 5.81250   3
  -3  -4  15 31.5732 6.35335   3
  -3   4 -15 35.2575 7.54062   2
 -15  -4  -3 36.4348 10.0489   1
  -4   3  15 29.1566 6.18745   3
 -15   4   3 32.1033 7.74205   1
   3   4  15 36.9210 6.74467   3
 -15  -3   4 31.2201 8.50589   1
 -15   3  -4 26.6158 6.45212   1
   4  -3  15 25.6779 5.67442   3
  -4  15  -3 46.5628 9.44686   3
   3  15  -4 23.0955 5.41525   3
  -3 -15  -4 37.3506 7.51036   1
  -4  -3 -15 26.9242 4.67877   2
  15   4  -3 26.5324 6.30817   2
   4   3 -15 31.2691 7.28450   2
   4 -15  -3 36.0370 7.73697   1
  -4 -15   3 27.6392 4.40100   1
  15  -4   3 27.9438 5.12557   2
  15   3   4 22.4359 6.46025   2
  -3  15   4 45.0337 8.46793   3
   0 -15  -5 181.697 17.0751   1
   0  15  -5 159.404 17.3878   3
   0  15   5 165.302 16.9640   3
   5   0 -15 161.652 15.1836   2
  -5 -15   0 154.313 15.8296   1
 -15   0   5 146.626 15.5584   1
  -5   0 -15 159.628 15.4645   2
  -5  15   0 192.524 17.9226   3
   0  -5  15 180.261 16.2850   3
 -15  -5   0 118.000 20.2975   1
 -15   5   0 175.192 17.2088   1
 -15   0  -5 174.631 16.6826   1
  15  -5   0 161.263 14.1359   2
  -5   0  15 149.537 13.2275   3
   0   5 -15 188.133 17.1221   2
   0   5  15 178.991 17.0397   3
   5 -15   0 157.651 14.1899   1
   5  15   0 133.685 12.0681   3
  15   0  -5 158.577 15.4403   2
  15   0   5 183.741 16.6584   2
   5   0  15 160.283 15.1230   3
  15   5   0 193.656 15.9014   2
  15   5   2 56.2379 8.54825   2
   2  -5  15 55.7992 10.4942   3
   2   5 -15 56.7739 11.0470   2
 -15  -2  -5 42.8553 7.91685   1
   5   2  15 38.2099 6.75154   3
 -15   2   5 39.8103 9.21968   1
  -5 -15  -2 38.5315 7.96267   1
  -5  -2  15 53.5059 8.62505   3
 -15   5  -2 43.7853 9.08080   1
  15   2  -5 48.8313 9.05475   2
  -5  15   2 61.1114 11.9700   3
   5 -15   2 33.9078 5.92814   1
  -5   2 -15 38.1614 8.10794   2
  -2   5  15 52.7852 9.34537   3
 -15  -5   2 30.4379 10.0136   1
   5  -2 -15 33.1841 6.26980   2
   2 -15  -5 45.4461 10.1377   1
  15  -5  -2 57.0640 6.72598   2
   2  15   5 46.9852 8.47483   3
   5  15  -2 39.5167 6.67208   3
  15  -2   5 55.5976 11.2146   2
  -2   5 -15 38.8413 7.78703   2
  -2  15   5 47.8615 9.09415   3
  -5  -2 -15 37.5236 9.18408   2
  -2  -5  15 56.9043 11.1855   3
  -5 -15   2 49.9384 9.72917   1
 -15  -5  -2 46.2819 11.2177   1
  15   2   5 34.0403 7.60590   2
  -5   2  15 49.6554 9.07047   3
 -15   2  -5 39.4987 7.21045   1
   2  15  -5 42.6557 10.1085   3
   5  -2  15 38.5966 7.60466   3
 -15  -2   5 31.8460 8.06089   1
  -5  15  -2 41.1759 8.21179   3
   5  15   2 46.8842 7.14931   3
  -2 -15  -5 34.1604 8.25343   1
   2   5  15 46.3365 10.2745   3
 -15   5   2 48.6790 9.91318   1
  15  -2  -5 34.7542 6.86563   2
   5 -15  -2 42.5544 8.51063   1
   5   2 -15 34.7013 7.72621   2
  15  -5   2 46.4874 7.12562   2
  15   5  -2 35.3920 7.54798   2
 -15  -4  -5 33.9767 7.12721   1
   5   4  15 48.5661 8.06882   3
  15  -5  -4 46.5963 6.24522   2
  -5  15   4 32.3012 7.16582   3
 -15  -5   4 60.2269 10.9238   1
  -4   5  15 44.2115 6.77400   3
  -5  -4  15 55.9529 6.50182   3
 -15   5  -4 62.7449 7.55511   1
   5  -4  15 49.9027 8.57206   3
  -5  15  -4 28.4359 8.45570   3
  -4  -5  15 61.4012 6.40270   3
  -5   4  15 39.0750 6.24376   3
  15  -4  -5 60.1303 6.82530   2
  15   4   5 59.0068 8.68675   2
 -15   4  -5 43.8885 7.85261   1
   4  15  -5 37.7567 6.30289   3
  15  -5   4 49.9643 6.04656   2
   4   5  15 38.6694 8.93786   3
   5  15   4 51.9478 6.06993   3
   1  15   6 199.369 18.4664   3
  -6  15   1 198.116 18.1259   3
  -6   1 -15 183.836 17.4268   2
   6   1  15 175.881 14.4718   3
   1   6 -15 174.462 17.8295   2
   1 -15  -6 215.123 18.8617   1
   6 -15   1 182.498 14.2931   1
  15   6   1 179.722 14.4400   2
 -15   1   6 215.339 17.4978   1
  -6 -15  -1 155.221 15.9700   1
   6  -1 -15 153.054 14.4423   2
 -15  -6   1 155.932 25.4038   1
 -15   6  -1 191.168 17.9108   1
 -15  -1  -6 209.379 19.0128   1
  15  -6  -1 169.943 12.8547   2
  -6  -1  15 172.703 13.8603   3
  15   1   6 191.948 18.0972   2
  -1 -15  -6 164.803 17.3470   1
 -15  -1   6 179.121 16.0079   1
  15  -6   1 195.985 15.4628   2
  15   6  -1 181.602 14.4621   2
  15  -1  -6 162.444 16.1326   2
  -1   6 -15 187.786 17.2190   2
  -6 -15   1 211.352 16.5936   1
  -6  15  -1 193.852 17.5956   3
  -6  -1 -15 185.352 16.3947   2
 -15   1  -6 215.238 17.3856   1
  -1  -6  15 182.072 17.3051   3
  -6   1  15 197.642 15.3150   3
   6   1 -15 174.844 16.6660   2
   6 -15  -1 168.720 14.5366   1
   1  15  -6 189.825 19.7341   3
   6  -1  15 174.629 14.8765   3
  -6  -3  15 46.7826 7.00754   3
   6   3  15 47.8488 6.35577   3
  15   6   3 49.5886 6.72415   2
 -15   6  -3 46.2369 10.0737   1
 -15  -3  -6 40.5549 9.37593   1
  -6  15   3 28.3630 6.41175   3
  -6 -15   3 35.0301 5.99599   1
 -15  -3   6 35.7012 7.46037   1
  15  -3  -6 42.5567 5.00013   2
  -6  -3 -15 53.5372 9.31191   2
  15  -6   3 30.7570 4.14349   2
  -6   3  15 33.2274 5.81912   3
   6  -3  15 49.1591 8.24862   3
 -15   0   7 9.65793 4.48863   1
  -7  15   0 14.6883 4.78521   3
  15   7   0 9.20231 4.84474   2
   7   0  15 21.0194 3.94082   3
 -15  -2  -7 32.1272 7.36073   1
 -16   0   0 536.463 35.7629   1
   0 -16   0 471.690 30.3244   1
   0   0 -16 525.117 31.5966   2
   0   0  16 538.859 32.3669   3
   0  16   0 527.895 32.9567   3
  16   0   0 526.985 33.0969   2
  16   1  -1 38.5467 7.85604   2
  16   1   1 23.3406 6.81569   2
   1  -1  16 20.9502 6.26763   3
   1   1 -16 26.0525 6.04199   2
   1   1  16 21.7218 6.17462   3
   1  16  -1 19.4964 5.55603   3
  16  -1  -1 34.1466 7.46654   2
  16  -1   1 40.5794 7.09572   2
  -1  16  -1 27.4071 9.00857   3
  -1  16   1 25.2499 8.71854   3
   1 -16  -1 14.7728 4.35745   1
   1 -16   1 26.7606 4.61117   1
 -16  -1  -1 26.1783 6.59723   1
 -16  -1   1 9.33019 7.51628   1
 -16   1  -1 33.6349 8.83981   1
 -16   1   1 17.6766 5.84033   1
  -1 -16  -1 29.3344 5.18183   1
  -1 -16   1 33.0186 5.18805   1
  -1  -1 -16 19.7305 4.73639   2
  -1  -1  16 16.4831 5.42090   3
  -1   1 -16 14.9419 4.63164   2
  -1   1  16 26.7725 6.35646   3
   1  -1 -16 27.1464 6.71502   2
   2  16   0 127.441 12.3346   3
  16   0  -2 138.683 13.9788   2
  16   0   2 157.237 15.6789   2
   2 -16   0 118.242 11.9525   1
  -2 -16   0 139.749 12.1017   1
  -2  16   0 134.355 14.7658   3
   0  -2 -16 143.351 13.2702   2
   0  -2  16 121.316 13.5850   3
   0   2 -16 134.915 14.0376   2
   0   2  16 134.135 14.5410   3
 -16   0  -2 156.490 15.5439   1
 -16   0   2 126.092 15.1909   1
  16   2   0 123.038 13.1746   2
   0  16   2 122.420 13.6264   3
   2   0 -16 108.731 12.2585   2
   2   0  16 127.974 14.0602   3
  16  -2   0 134.796 14.1815   2
   0 -16   2 113.231 11.3224   1
   0  16  -2 156.517 15.7057   3
  -2   0  16 145.551 13.9156   3
 -16  -2   0 170.523 18.7849   1
 -16   2   0 133.297 14.9078   1
  -2   0 -16 123.501 12.3136   2
   0 -16  -2 143.295 13.8460   1
   2 -16   2 130.503 9.74128   1
 -16   2  -2 100.324 16.0745   1
   2  16  -2 145.510 13.2538   3
   2  16   2 119.708 11.9635   3
  16  -2  -2 100.279 11.2286   2
  -2  -2  16 120.785 13.7849   3
   2  -2 -16 107.083 10.0814   2
  -2  -2 -16 116.303 11.4776   2
  -1 -16   3 15.3161 3.86769   1
   3  16  -1 4.06904 4.32496   3
  -3  -1  16 17.5472 4.62820   3
   3 -16   1 6.86099 3.34247   1
 -16  -1  -3 12.0775 4.98190   1
  16  -3  -1 10.8208 3.95901   2
   3  -1 -16 12.8735 3.83807   2
  -1  -3 -16 5.55851 4.04109   2
  16  -3   1 6.25422 6.49030   2
  -3  -1 -16 17.9204 3.60941   2
   3 -16  -1 25.5796 4.78817   1
   3  16   1 25.4474 4.94675   3
  -3 -16   1 20.0959 4.60414   1
 -16   1  -3 14.0145 4.59559   1
  -3  -3 -16 143.159 9.96144   2
  -3 -16   3 101.798 7.61696   1
   4 -16   2 44.6764 5.04273   1
   4  -2 -16 71.1156 7.68283   2
   0   0   0    0.00    0.00   0
;
_shelx_hkl_checksum              56283
loop_
_space_group_symop_operation_xyz
'x, y, z'
'-x, -y, z'
'-x, y, -z'
'x, -y, -z'
'z, x, y'
'z, -x, -y'
'-z, -x, y'
'-z, x, -y'
'y, z, x'
'-y, z, -x'
'y, -z, -x'
'-y, -z, x'
'y, x, z'
'-y, -x, z'
'y, -x, -z'
'-y, x, -z'
'x, z, y'
'-x, z, -y'
'-x, -z, y'
'x, -z, -y'
'z, y, x'
'z, -y, -x'
'-z, y, -x'
'-z, -y, x'
'x+1/2, y+1/2, z+1/2'
'-x+1/2, -y+1/2, z+1/2'
'-x+1/2, y+1/2, -z+1/2'
'x+1/2, -y+1/2, -z+1/2'
'z+1/2, x+1/2, y+1/2'
'z+1/2, -x+1/2, -y+1/2'
'-z+1/2, -x+1/2, y+1/2'
'-z+1/2, x+1/2, -y+1/2'
'y+1/2, z+1/2, x+1/2'
'-y+1/2, z+1/2, -x+1/2'
'y+1/2, -z+1/2, -x+1/2'
'-y+1/2, -z+1/2, x+1/2'
'y+1/2, x+1/2, z+1/2'
'-y+1/2, -x+1/2, z+1/2'
'y+1/2, -x+1/2, -z+1/2'
'-y+1/2, x+1/2, -z+1/2'
'x+1/2, z+1/2, y+1/2'
'-x+1/2, z+1/2, -y+1/2'
'-x+1/2, -z+1/2, y+1/2'
'x+1/2, -z+1/2, -y+1/2'
'z+1/2, y+1/2, x+1/2'
'z+1/2, -y+1/2, -x+1/2'
'-z+1/2, y+1/2, -x+1/2'
'-z+1/2, -y+1/2, x+1/2'
loop_
_atom_site_label
_atom_site_type_symbol
_atom_site_fract_x
_atom_site_fract_y
_atom_site_fract_z
_atom_site_U_iso_or_equiv
_atom_site_adp_type
_atom_site_occupancy
_atom_site_site_symmetry_order
_atom_site_calc_flag
_atom_site_refinement_flags_posn
_atom_site_refinement_flags_adp
_atom_site_refinement_flags_occupancy
Ag Ag 0.19506(6) 0.0000 0.0000 0.01305(15) Uani 1 4 d S T P
Ge1 Ge 0.28895(7) 0.28895(7) 0.28895(7) 0.0080(2) Uani 1 6 d S T P
Ge2 Ge 0.2500 0.5000 0.0000 0.00685(17) Uani 1 4 d S T P
P P 0.12858(11) 0.12858(11) 0.35961(16) 0.0068(3) Uani 1 2 d S T P
loop_
_atom_site_aniso_label
_atom_site_aniso_U_11
_atom_site_aniso_U_22
_atom_site_aniso_U_33
_atom_site_aniso_U_23
_atom_site_aniso_U_13
_atom_site_aniso_U_12
Ag 0.0088(2) 0.01517(19) 0.01517(19) -0.0064(3) 0.000 0.000
Ge1 0.0080(2) 0.0080(2) 0.0080(2) 0.0001(2) 0.0001(2) 0.0001(2)
Ge2 0.0073(3) 0.0066(2) 0.0066(2) 0.000 0.000 0.000
P 0.0063(4) 0.0063(4) 0.0077(6) -0.0005(3) -0.0005(3) 0.0003(5)
loop_
_atom_type_symbol
_atom_type_description
_atom_type_scat_dispersion_real
_atom_type_scat_dispersion_imag
_atom_type_scat_source
P P 0.1023 0.0942 'International Tables Vol C Tables 4.2.6.8 and 6.1.1.4'
Ge Ge 0.1547 1.8001 'International Tables Vol C Tables 4.2.6.8 and 6.1.1.4'
Ag Ag -0.8971 1.1015 'International Tables Vol C Tables 4.2.6.8 and 6.1.1.4'
loop_
_geom_angle_atom_site_label_1
_geom_angle_atom_site_label_2
_geom_angle_atom_site_label_3
_geom_angle
_geom_angle_site_symmetry_1
_geom_angle_site_symmetry_3
P Ag P 95.72(8) 5 6
P Ag Ag 147.693(14) 5 6
P Ag Ag 95.95(3) 6 6
P Ag Ag 147.693(14) 5 10
P Ag Ag 95.95(3) 6 10
Ag Ag Ag 60.0 6 10
P Ag Ag 95.95(3) 5 9
P Ag Ag 147.693(14) 6 9
Ag Ag Ag 60.0 6 9
Ag Ag Ag 90.0 10 9
P Ag Ag 95.95(3) 5 5
P Ag Ag 147.693(14) 6 5
Ag Ag Ag 90.0 6 5
Ag Ag Ag 60.0 10 5
Ag Ag Ag 60.0 9 5
P Ag Ge1 87.942(12) 5 26_554
P Ag Ge1 87.942(12) 6 26_554
Ag Ag Ge1 122.488(14) 6 26_554
Ag Ag Ge1 62.520(14) 10 26_554
Ag Ag Ge1 122.488(14) 9 26_554
Ag Ag Ge1 62.520(14) 5 26_554
P Ag Ge1 87.942(12) 5 27_545
P Ag Ge1 87.942(12) 6 27_545
Ag Ag Ge1 62.520(14) 6 27_545
Ag Ag Ge1 122.488(14) 10 27_545
Ag Ag Ge1 62.520(14) 9 27_545
Ag Ag Ge1 122.488(14) 5 27_545
Ge1 Ag Ge1 173.86(3) 26_554 27_545
P Ge1 P 86.89(7) . 9
P Ge1 P 86.89(7) . 5
P Ge1 P 86.89(7) 9 5
P Ge1 Ag 107.63(4) . 26
P Ge1 Ag 107.63(4) 9 26
P Ge1 Ag 159.63(5) 5 26
P Ge1 Ag 159.63(5) . 34
P Ge1 Ag 107.63(4) 9 34
P Ge1 Ag 107.63(4) 5 34
Ag Ge1 Ag 54.96(3) 26 34
P Ge1 Ag 107.63(4) . 30
P Ge1 Ag 159.63(5) 9 30
P Ge1 Ag 107.63(4) 5 30
Ag Ge1 Ag 54.96(3) 26 30
Ag Ge1 Ag 54.96(3) 34 30
P Ge2 P 114.94(8) 27 26_554
P Ge2 P 106.81(4) 27 9
P Ge2 P 106.81(4) 26_554 9
P Ge2 P 106.81(4) 27 11_565
P Ge2 P 106.81(4) 26_554 11_565
P Ge2 P 114.94(8) 9 11_565
Ge2 P Ge2 103.05(7) 5 26
Ge2 P Ge1 101.91(5) 5 .
Ge2 P Ge1 101.91(5) 26 .
Ge2 P Ag 113.61(5) 5 9
Ge2 P Ag 113.61(5) 26 9
Ge1 P Ag 120.55(7) . 9
loop_
_geom_bond_atom_site_label_1
_geom_bond_atom_site_label_2
_geom_bond_distance
_geom_bond_site_symmetry_2
Ag P 2.5260(18) 5
Ag P 2.5260(18) 6
Ag Ag 2.8414(10) 6
Ag Ag 2.8414(10) 10
Ag Ag 2.8414(10) 9
Ag Ag 2.8414(10) 5
Ag Ge1 3.0788(11) 26_554
Ag Ge1 3.0788(11) 27_545
Ge1 P 2.4468(18) .
Ge1 P 2.4469(18) 9
Ge1 P 2.4469(18) 5
Ge1 Ag 3.0788(11) 26
Ge1 Ag 3.0788(11) 34
Ge1 Ag 3.0788(11) 30
Ge2 P 2.3259(11) 27
Ge2 P 2.3259(11) 26_554
Ge2 P 2.3259(11) 9
Ge2 P 2.3259(11) 11_565
P Ge2 2.3258(11) 5
P Ge2 2.3258(11) 26
P Ag 2.5261(18) 9
