#------------------------------------------------------------------------------
#$Date: 2016-03-21 01:21:50 +0200 (Mon, 21 Mar 2016) $
#$Revision: 178377 $
#$URL: svn://www.crystallography.net/cod/cif/4/00/21/4002120.cif $
#------------------------------------------------------------------------------
#
# This file is available in the Crystallography Open Database (COD),
# http://www.crystallography.net/
#
# All data on this site have been placed in the public domain by the
# contributors.
#
data_4002120
loop_
_publ_author_name
'Nanthamathee, Chompoonoot'
'Ling, Sanliang'
'Slater, Ben'
'Attfield, Martin P.'
_publ_section_title
;
 Contradistinct Thermoresponsive Behavior of Isostructural MIL-53 Type
 Metal--Organic Frameworks by Modifying the Framework Inorganic Anion
;
_journal_name_full               'Chemistry of Materials'
_journal_page_first              141223143002002
_journal_paper_doi               10.1021/cm503311x
_journal_year                    2014
_chemical_formula_sum            'C8 Al F O4'
_chemical_formula_weight         206.06
_chemical_name_systematic        ' ?'
_space_group_IT_number           74
_symmetry_cell_setting           orthorhombic
_symmetry_space_group_name_Hall  '-I 2b 2'
_symmetry_space_group_name_H-M   'I m m a'
_audit_creation_date             2014-08-28T12:45
_audit_creation_method           'from EXP file using GSAS2CIF'
_audit_update_record
' 2014-08-28T12:45  Initial CIF as created by GSAS2CIF'
_cell_angle_alpha                90.0
_cell_angle_beta                 90.0
_cell_angle_gamma                90.0
_cell_formula_units_Z            4
_cell_length_a                   6.56474(13)
_cell_length_b                   16.4030(4)
_cell_length_c                   13.1762(5)
_cell_volume                     1418.83(7)
_computing_structure_refinement  GSAS
_diffrn_radiation_polarisn_ratio 0.95
_diffrn_radiation_probe          x-ray
_diffrn_radiation_wavelength     0.827154
_exptl_absorpt_correction_T_max  1.00000
_exptl_absorpt_correction_T_min  1.00000
_exptl_absorpt_process_details
;   GSAS Absorption/surface roughness correction: function number 0
 No correction is applied.
;
_pd_block_id                     2014-08-28T12:45|290K||
_pd_calc_method                  'Rietveld Refinement'
_pd_instr_location               ' ?'
_pd_meas_2theta_range_inc        0.004
_pd_meas_2theta_range_max        150.01401
_pd_meas_2theta_range_min        0.002
_pd_meas_number_of_points        37504
_pd_phase_name                   290K
_pd_proc_2theta_range_inc        0.004
_pd_proc_2theta_range_max        150.0694
_pd_proc_2theta_range_min        0.05739
_pd_proc_info_datetime           2014-08-28T12:45:54
_pd_proc_info_excluded_regions   ' ?'
_pd_proc_ls_background_function
;   GSAS Background function number 1 with  2 terms.
 Shifted Chebyshev function of 1st kind
      1:    0.00000     2:    0.00000    
;
_pd_proc_ls_peak_cutoff          0.00050
_pd_proc_ls_profile_function
;
 CW Profile function number 4 with  18 terms
 Pseudovoigt profile coefficients as parameterized in
 P. Thompson, D.E. Cox & J.B. Hastings (1987). J. Appl. Cryst.,20,79-83.
 Asymmetry correction of L.W. Finger, D.E. Cox & A. P. Jephcoat (1994).
 J. Appl. Cryst.,27,892-900.
 Microstrain broadening by P.W. Stephens,  (1999). J. Appl. Cryst.,32,281-289.
 Peak tails are ignored  where the intensity is below 0.0005 times the peak
   Aniso. broadening axis   1.0   0.0   1.0
;
_pd_proc_ls_prof_R_factor        0.0727
_pd_proc_ls_prof_wR_expected     0.0444
_pd_proc_ls_prof_wR_factor       0.0958
_pd_proc_number_of_points        37504
_pd_spec_mounting                ' ?'
_refine_ls_goodness_of_fit_all   2.16
_refine_ls_matrix_type           full
_refine_ls_number_parameters     27
_refine_ls_number_restraints     0
_refine_ls_R_Fsqd_factor         0.29471
_refine_ls_shift/su_max          0.01
_refine_ls_shift/su_mean         0.00
_reflns_d_resolution_high        1.080
_reflns_d_resolution_low         8.201
_reflns_limit_h_max              6
_reflns_limit_h_min              0
_reflns_limit_k_max              15
_reflns_limit_k_min              0
_reflns_limit_l_max              12
_reflns_limit_l_min              0
_reflns_number_total             311
_cod_data_source_file            alf290K.cif
_cod_data_source_block           290K_publ
_cod_depositor_comments
;
The following automatic conversions were performed:

'_geom_bond_publ_flag' value 'N' changed to 'n' according to
/home/saulius/struct/COD-crude-data--automatic-downloads/rss-feeds/ACS/lib/dictionaries/cif_core.dic
dictionary named 'cif_core.dic' version 2.4.2 from 2011-04-26 (18
times).

'_geom_angle_publ_flag' value 'N' changed to 'n' according
to
/home/saulius/struct/COD-crude-data--automatic-downloads/rss-feeds/ACS/lib/dictionaries/cif_core.dic
dictionary named 'cif_core.dic' version 2.4.2 from 2011-04-26 (24
times).

Automatic conversion script
Id: cif_fix_values 2935 2014-11-11 08:27:57Z andrius 
;
_cod_original_cell_volume        1418.84(6)
_cod_database_code               4002120
#BEGIN Tags that were not found in dictionaries:
_gsas_exptl_extinct_corr_t_min   1.00000
_gsas_exptl_extinct_corr_t_max   1.00000
#END Tags that were not found in dictionaries
loop_
_symmetry_equiv_pos_site_id
_symmetry_equiv_pos_as_xyz
1 +x,+y,+z
2 -x,+y,+z
3 +x,-y+1/2,+z
4 -x,-y+1/2,+z
-1 -x,-y,-z
-2 +x,-y,-z
-3 -x,+y+1/2,-z
-4 +x,+y+1/2,-z
101 +x+1/2,+y+1/2,+z+1/2
102 -x+1/2,+y+1/2,+z+1/2
103 +x+1/2,-y,+z+1/2
104 -x+1/2,-y,+z+1/2
-101 -x+1/2,-y+1/2,-z+1/2
-102 +x+1/2,-y+1/2,-z+1/2
-103 -x+1/2,+y,-z+1/2
-104 +x+1/2,+y,-z+1/2
loop_
_atom_site_type_symbol
_atom_site_label
_atom_site_fract_x
_atom_site_fract_y
_atom_site_fract_z
_atom_site_occupancy
_atom_site_thermal_displace_type
_atom_site_U_iso_or_equiv
_atom_site_symmetry_multiplicity
Al Al1 0.25 0.25 0.75 1.0 Uiso 0.0232(13) 4
F F1 0.0 0.25 0.6908(4) 1.0 Uiso 0.0161(9) 4
O O1 0.1690(4) 0.16786(17) 0.84176(24) 1.0 Uiso 0.0161(9) 16
C C1 -0.1938(5) 0.0305(4) 0.9607(5) 1.0 Uiso 0.0305(16) 16
C C2 0.0 0.0618(4) 0.9463(6) 1.0 Uiso 0.0305(16) 8
C C3 0.0 0.1379(5) 0.8716(6) 1.0 Uiso 0.0305(16) 8
loop_
_atom_type_symbol
_atom_type_number_in_cell
_atom_type_scat_dispersion_real
_atom_type_scat_dispersion_imag
_atom_type_scat_Cromer_Mann_a1
_atom_type_scat_Cromer_Mann_a2
_atom_type_scat_Cromer_Mann_a3
_atom_type_scat_Cromer_Mann_a4
_atom_type_scat_Cromer_Mann_b1
_atom_type_scat_Cromer_Mann_b2
_atom_type_scat_Cromer_Mann_b3
_atom_type_scat_Cromer_Mann_b4
_atom_type_scat_Cromer_Mann_c
_atom_type_scat_source
Al 4.0 0.000 0.000 6.42020 3.03870 1.90020 0.74260 1.59360 31.5472 1.96460
85.0886 1.11510 International_Tables_Vol_C
F 4.0 0.000 0.000 3.53920 10.2825 2.64120 4.29440 1.51700 0.26150 1.02430
26.1476 0.27760 International_Tables_Vol_C
O 16.0 0.000 0.000 3.04850 13.2771 2.28680 5.70110 1.54630 0.32390 0.86700
32.9089 0.25080 International_Tables_Vol_C
C 32.0 0.000 0.000 2.31000 20.8439 1.02000 10.2075 1.58860 0.56870 0.86500
51.6512 0.21560 International_Tables_Vol_C
loop_
_geom_angle_atom_site_label_1
_geom_angle_atom_site_label_2
_geom_angle_atom_site_label_3
_geom_angle
_geom_angle_site_symmetry_1
_geom_angle_site_symmetry_3
_geom_angle_publ_flag
F1 Al1 F1 180.0 1_555 -101_546 n
F1 Al1 O1 91.18(12) 1_555 1_555 n
F1 Al1 O1 91.18(12) 1_555 3_555 n
F1 Al1 O1 88.82(12) 1_555 -101_566 n
F1 Al1 O1 88.82(12) 1_555 -103_566 n
F1 Al1 O1 88.82(12) -101_566 1_555 n
F1 Al1 O1 88.82(12) -101_566 3_555 n
F1 Al1 O1 91.18(12) -101_566 -101_566 n
F1 Al1 O1 91.18(12) -101_566 -103_566 n
O1 Al1 O1 91.14(20) 1_555 3_555 n
O1 Al1 O1 180.0 1_555 -101_566 n
O1 Al1 O1 88.86(20) 1_555 -103_566 n
O1 Al1 O1 88.86(20) 3_555 -101_566 n
O1 Al1 O1 180.0 3_555 -103_566 n
O1 Al1 O1 91.14(20) -101_566 -103_566 n
Al1 F1 Al1 129.17(30) 1_555 2_555 n
Al1 O1 C3 135.9(4) 1_555 1_555 n
C1 C1 C2 110.9(4) -2_557 1_555 n
C1 C2 C1 133.4(8) 1_555 2_555 n
C1 C2 C3 112.1(4) 1_555 1_555 n
C1 C2 C3 112.1(4) 2_555 1_555 n
O1 C3 O1 120.8(7) 1_555 2_555 n
O1 C3 C2 119.59(35) 1_555 1_555 n
O1 C3 C2 119.59(35) 2_555 1_555 n
loop_
_geom_bond_atom_site_label_1
_geom_bond_atom_site_label_2
_geom_bond_distance
_geom_bond_site_symmetry_2
_geom_bond_publ_flag
Al1 F1 1.8170(22) 1_555 n
Al1 F1 1.8170(22) -101_445 n
Al1 O1 1.8867(24) 1_555 n
Al1 O1 1.8867(24) 3_555 n
Al1 O1 1.8867(24) -101_445 n
Al1 O1 1.8867(24) -103_445 n
F1 Al1 1.8170(22) 1_555 n
F1 Al1 1.8170(22) 2_555 n
O1 Al1 1.8867(24) 1_555 n
O1 C3 1.276(4) 1_555 n
C1 C1 1.440(9) -2_557 n
C1 C2 1.386(4) 1_555 n
C2 C1 1.386(4) 1_555 n
C2 C1 1.386(4) 2_555 n
C2 C3 1.588(7) 1_555 n
C3 O1 1.276(4) 1_555 n
C3 O1 1.276(4) 2_555 n
C3 C2 1.588(7) 1_555 n
loop_
_pd_meas_intensity_total
_pd_proc_ls_weight
_pd_proc_intensity_bkg_calc
_pd_calc_intensity_total
11.0(33) 0.0 0.00 .
12.0(35) 0.0 0.00 .
17(4) 0.0 0.0 .
11.0(33) 0.0 0.00 .
12.0(35) 0.0 0.00 .
14(4) 0.0 0.0 .
16(4) 0.0 0.0 .
9.0(30) 0.0 0.00 .
14(4) 0.0 0.0 .
14(4) 0.0 0.0 .
14(4) 0.0 0.0 .
20(4) 0.0 0.0 .
14(4) 0.0 0.0 .
16(4) 0.0 0.0 .
15(4) 0.0 0.0 .
12.0(35) 0.0 0.00 .
14(4) 0.0 0.0 .
15(4) 0.0 0.0 .
11.0(33) 0.0 0.00 .
14(4) 0.0 0.0 .
11.0(33) 0.0 0.00 .
15(4) 0.0 0.0 .
19(4) 0.0 0.0 .
23(5) 0.0 0.0 .
14(4) 0.0 0.0 .
19(4) 0.0 0.0 .
17(4) 0.0 0.0 .
20(4) 0.0 0.0 .
16(4) 0.0 0.0 .
17(4) 0.0 0.0 .
9.0(30) 0.0 0.00 .
16(4) 0.0 0.0 .
17(4) 0.0 0.0 .
14(4) 0.0 0.0 .
7.0(26) 0.0 0.00 .
10.0(32) 0.0 0.00 .
14(4) 0.0 0.0 .
17(4) 0.0 0.0 .
12.0(35) 0.0 0.00 .
15(4) 0.0 0.0 .
6.0(24) 0.0 0.00 .
15(4) 0.0 0.0 .
16(4) 0.0 0.0 .
20(4) 0.0 0.0 .
14(4) 0.0 0.0 .
10.0(32) 0.0 0.00 .
16(4) 0.0 0.0 .
8.0(28) 0.0 0.00 .
15(4) 0.0 0.0 .
14(4) 0.0 0.0 .
16(4) 0.0 0.0 .
12.0(35) 0.0 0.00 .
14(4) 0.0 0.0 .
15(4) 0.0 0.0 .
10.0(32) 0.0 0.00 .
12.0(35) 0.0 0.00 .
14(4) 0.0 0.0 .
19(4) 0.0 0.0 .
28(5) 0.0 0.0 .
18(4) 0.0 0.0 .
21(5) 0.0 0.0 .
17(4) 0.0 0.0 .
8.0(28) 0.0 0.00 .
16(4) 0.0 0.0 .
18(4) 0.0 0.0 .
13(4) 0.0 0.0 .
17(4) 0.0 0.0 .
22(5) 0.0 0.0 .
16(4) 0.0 0.0 .
16(4) 0.0 0.0 .
11.0(33) 0.0 0.00 .
16(4) 0.0 0.0 .
17(4) 0.0 0.0 .
8.0(28) 0.0 0.00 .
18(4) 0.0 0.0 .
9.0(30) 0.0 0.00 .
10.0(32) 0.0 0.00 .
14(4) 0.0 0.0 .
14(4) 0.0 0.0 .
14(4) 0.0 0.0 .
21(5) 0.0 0.0 .
20(4) 0.0 0.0 .
12.0(35) 0.0 0.00 .
14(4) 0.0 0.0 .
21(5) 0.0 0.0 .
9.0(30) 0.0 0.00 .
17(4) 0.0 0.0 .
12.0(35) 0.0 0.00 .
15(4) 0.0 0.0 .
12.0(35) 0.0 0.00 .
15(4) 0.0 0.0 .
9.0(30) 0.0 0.00 .
13(4) 0.0 0.0 .
16(4) 0.0 0.0 .
12.0(35) 0.0 0.00 .
9.0(30) 0.0 0.00 .
15(4) 0.0 0.0 .
12.0(35) 0.0 0.00 .
11.0(33) 0.0 0.00 .
16(4) 0.0 0.0 .
17(4) 0.0 0.0 .
14(4) 0.0 0.0 .
22(5) 0.0 0.0 .
24(5) 0.0 0.0 .
24(5) 0.0 0.0 .
23(5) 0.0 0.0 .
26(5) 0.0 0.0 .
29(5) 0.0 0.0 .
55(7) 0.0 0.0 .
69(8) 0.0 0.0 .
87(9) 0.0 0.0 .
113(11) 0.0 0.0 .
141(12) 0.0 0.0 .
195(14) 0.0 0.0 .
233(15) 0.0 0.0 .
331(18) 0.0 0.0 .
382(20) 0.0 0.0 .
481(22) 0.0 0.0 .
627(25) 0.0 0.0 .
759(28) 0.0 0.0 .
908(30) 0.0 0.0 .
980(31) 0.0 0.0 .
1047(32) 0.0 0.0 .
1044(32) 0.0 0.0 .
1025(32) 0.0 0.0 .
1005(32) 0.0 0.0 .
992(31) 0.0 0.0 .
983(31) 0.0 0.0 .
987(31) 0.0 0.0 .
1017(32) 0.0 0.0 .
953(31) 0.0 0.0 .
944(31) 0.0 0.0 .
871(30) 0.0 0.0 .
899(30) 0.0 0.0 .
878(30) 0.0 0.0 .
893(30) 0.0 0.0 .
875(30) 0.0 0.0 .
848(29) 0.0 0.0 .
851(29) 0.0 0.0 .
733(27) 0.0 0.0 .
732(27) 0.0 0.0 .
691(26) 0.0 0.0 .
658(26) 0.0 0.0 .
629(25) 0.0 0.0 .
591(24) 0.0 0.0 .
575(24) 0.0 0.0 .
516(23) 0.0 0.0 .
485(22) 0.0 0.0 .
462(21) 0.0 0.0 .
431(21) 0.0 0.0 .
421(21) 0.0 0.0 .
435(21) 0.0 0.0 .
415(20) 0.0 0.0 .
379(19) 0.0 0.0 .
370(19) 0.0 0.0 .
380(19) 0.0 0.0 .
381(20) 0.0 0.0 .
330(18) 0.0 0.0 .
368(19) 0.0 0.0 .
351(19) 0.0 0.0 .
346(19) 0.0 0.0 .
332(18) 0.0 0.0 .
344(19) 0.0 0.0 .
376(19) 0.0 0.0 .
370(19) 0.0 0.0 .
323(18) 0.0 0.0 .
366(19) 0.0 0.0 .
329(18) 0.0 0.0 .
341(18) 0.0 0.0 .
345(19) 0.0 0.0 .
356(19) 0.0 0.0 .
337(18) 0.0 0.0 .
345(19) 0.0 0.0 .
355(19) 0.0 0.0 .
327(18) 0.0 0.0 .
388(20) 0.0 0.0 .
344(19) 0.0 0.0 .
347(19) 0.0 0.0 .
336(18) 0.0 0.0 .
318(18) 0.0 0.0 .
355(19) 0.0 0.0 .
345(19) 0.0 0.0 .
395(20) 0.0 0.0 .
372(19) 0.0 0.0 .
374(19) 0.0 0.0 .
399(20) 0.0 0.0 .
370(19) 0.0 0.0 .
376(19) 0.0 0.0 .
404(20) 0.0 0.0 .
380(19) 0.0 0.0 .
377(19) 0.0 0.0 .
399(20) 0.0 0.0 .
383(20) 0.0 0.0 .
396(20) 0.0 0.0 .
437(21) 0.0 0.0 .
428(21) 0.0 0.0 .
431(21) 0.0 0.0 .
409(20) 0.0 0.0 .
414(20) 0.0 0.0 .
390(20) 0.0 0.0 .
455(21) 0.0 0.0 .
424(21) 0.0 0.0 .
426(21) 0.0 0.0 .
426(21) 0.0 0.0 .
448(21) 0.0 0.0 .
444(21) 0.0 0.0 .
472(22) 0.0 0.0 .
467(22) 0.0 0.0 .
444(21) 0.0 0.0 .
482(22) 0.0 0.0 .
481(22) 0.0 0.0 .
453(21) 0.0 0.0 .
446(21) 0.0 0.0 .
478(22) 0.0 0.0 .
450(21) 0.0 0.0 .
475(22) 0.0 0.0 .
496(22) 0.0 0.0 .
479(22) 0.0 0.0 .
513(23) 0.0 0.0 .
501(22) 0.0 0.0 .
494(22) 0.0 0.0 .
506(22) 0.0 0.0 .
551(23) 0.0 0.0 .
531(23) 0.0 0.0 .
548(23) 0.0 0.0 .
559(24) 0.0 0.0 .
525(23) 0.0 0.0 .
585(24) 0.0 0.0 .
586(24) 0.0 0.0 .
562(24) 0.0 0.0 .
582(24) 0.0 0.0 .
634(25) 0.0 0.0 .
616(25) 0.0 0.0 .
702(26) 0.0 0.0 .
812(28) 0.0 0.0 .
908(30) 0.0 0.0 .
953(31) 0.0 0.0 .
1126(34) 0.0 0.0 .
1264(36) 0.0 0. .
1423(38) 0.0 0. .
1607(40) 0.0 0. .
1639(40) 0.0 0. .
1924(44) 0.0 0. .
2114(46) 0.0 0. .
2362(49) 0.0 0. .
2605(51) 0.0 0. .
2793(53) 0.0 0. .
3082(56) 0.0 0. .
3542(60) 0.0 0. .
3925(63) 0.0 0. .
4330(66) 0.0 0. .
4719(69) 0.0 0. .
5294(73) 0.0 0. .
5943(77) 0.0 0. .
6536(81) 0.0 0. .
7394(86) 0.0 0. .
8220(91) 0.0 0. .
9092(95) 0.0 0. .
10210(100) 0.0 0. .
10930(110) 0.0 0. .
11620(110) 0.0 0. .
12630(110) 0.0 0. .
12880(110) 0.0 0. .
14070(120) 0.0 0. .
14680(120) 0.0 0. .
14670(120) 0.0 0. .
15100(120) 0.0 0. .
15460(120) 0.0 0. .
15790(130) 0.0 0. .
15690(130) 0.0 0. .
15670(130) 0.0 0. .
16560(130) 0.0 0. .
16630(130) 0.0 0. .
16430(130) 0.0 0. .
16990(130) 0.0 0. .
16990(130) 0.0 0. .
17610(130) 0.0 0. .
17840(130) 0.0 0. .
17580(130) 0.0 0. .
18110(140) 0.0 0. .
17930(130) 0.0 0. .
17830(130) 0.0 0. .
17510(130) 0.0 0. .
17450(130) 0.0 0. .
17790(130) 0.0 0. .
16940(130) 0.0 0. .
17200(130) 0.0 0. .
17960(130) 0.0 0. .
18040(130) 0.0 0. .
17600(130) 0.0 0. .
17560(130) 0.0 0. .
17500(130) 0.0 0. .
17880(130) 0.0 0. .
18000(130) 0.0 0. .
17580(130) 0.0 0. .
17730(130) 0.0 0. .
17660(130) 0.0 0. .
16820(130) 0.0 0. .
16510(130) 0.0 0. .
15990(130) 0.0 0. .
15860(130) 0.0 0. .
16300(130) 0.0 0. .
15490(120) 0.0 0. .
15470(120) 0.0 0. .
15370(120) 0.0 0. .
15000(120) 0.0 0. .
14900(120) 0.0 0. .
14630(120) 0.0 0. .
14790(120) 0.0 0. .
14720(120) 0.0 0. .
14190(120) 0.0 0. .
14160(120) 0.0 0. .
14120(120) 0.0 0. .
14000(120) 0.0 0. .
13780(120) 0.0 0. .
14000(120) 0.0 0. .
13870(120) 0.0 0. .
13590(120) 0.0 0. .
13550(120) 0.0 0. .
13540(120) 0.0 0. .
13500(120) 0.0 0. .
12810(110) 0.0 0. .
12460(110) 0.0 0. .
12440(110) 0.0 0. .
12590(110) 0.0 0. .
12790(110) 0.0 0. .
12600(110) 0.0 0. .
12220(110) 0.0 0. .
11570(110) 0.0 0. .
11840(110) 0.0 0. .
12030(110) 0.0 0. .
12310(110) 0.0 0. .
12360(110) 0.0 0. .
12120(110) 0.0 0. .
12010(110) 0.0 0. .
12030(110) 0.0 0. .
11760(110) 0.0 0. .
11850(110) 0.0 0. .
11690(110) 0.0 0. .
11270(110) 0.0 0. .
10980(110) 0.0 0. .
10740(100) 0.0 0. .
10720(100) 0.0 0. .
10640(100) 0.0 0. .
10760(100) 0.0 0. .
10490(100) 0.0 0. .
10250(100) 0.0 0. .
9899(99) 0.0 0. .
10080(100) 0.0 0. .
10230(100) 0.0 0. .
9789(99) 0.0 0. .
9873(99) 0.0 0. .
10060(100) 0.0 0. .
9814(99) 0.0 0. .
9828(99) 0.0 0. .
9768(99) 0.0 0. .
9820(99) 0.0 0. .
9874(99) 0.0 0. .
9656(98) 0.0 0. .
9328(97) 0.0 0. .
9491(97) 0.0 0. .
9417(97) 0.0 0. .
9352(97) 0.0 0. .
9284(96) 0.0 0. .
9256(96) 0.0 0. .
9028(95) 0.0 0. .
8868(94) 0.0 0. .
8665(93) 0.0 0. .
8813(94) 0.0 0. .
8684(93) 0.0 0. .
8409(92) 0.0 0. .
8543(92) 0.0 0. .
8520(92) 0.0 0. .
8468(92) 0.0 0. .
8555(92) 0.0 0. .
8520(92) 0.0 0. .
8419(92) 0.0 0. .
8328(91) 0.0 0. .
7864(89) 0.0 0. .
7851(89) 0.0 0. .
7771(88) 0.0 0. .
7905(89) 0.0 0. .
7890(89) 0.0 0. .
7466(86) 0.0 0. .
7340(86) 0.0 0. .
7611(87) 0.0 0. .
7365(86) 0.0 0. .
7428(86) 0.0 0. .
7482(86) 0.0 0. .
7336(86) 0.0 0. .
7501(87) 0.0 0. .
7143(85) 0.0 0. .
7144(85) 0.0 0. .
7318(86) 0.0 0. .
7191(85) 0.0 0. .
7162(85) 0.0 0. .
7222(85) 0.0 0. .
7053(84) 0.0 0. .
6924(83) 0.0 0. .
6920(83) 0.0 0. .
6946(83) 0.0 0. .
7140(84) 0.0 0. .
7042(84) 0.0 0. .
6817(83) 0.0 0. .
6983(84) 0.0 0. .
7006(84) 0.0 0. .
6969(83) 0.0 0. .
6814(83) 0.0 0. .
6474(80) 0.0 0. .
6505(81) 0.0 0. .
6870(83) 0.0 0. .
7049(84) 0.0 0. .
6659(82) 0.0 0. .
6770(82) 0.0 0. .
6635(81) 0.0 0. .
6697(82) 0.0 0. .
6610(81) 0.0 0. .
6563(81) 0.0 0. .
6312(79) 0.0 0. .
6097(78) 0.0 0. .
6296(79) 0.0 0. .
6070(78) 0.0 0. .
5982(77) 0.0 0. .
5987(77) 0.0 0. .
5984(77) 0.0 0. .
6014(78) 0.0 0. .
5927(77) 0.0 0. .
5847(76) 0.0 0. .
5840(76) 0.0 0. .
5813(76) 0.0 0. .
5821(76) 0.0 0. .
5832(76) 0.0 0. .
5854(77) 0.0 0. .
5807(76) 0.0 0. .
5863(77) 0.0 0. .
5853(77) 0.0 0. .
5800(76) 0.0 0. .
5683(75) 0.0 0. .
5585(75) 0.0 0. .
5845(76) 0.0 0. .
5790(76) 0.0 0. .
5685(75) 0.0 0. .
5615(75) 0.0 0. .
5771(76) 0.0 0. .
5616(75) 0.0 0. .
5476(74) 0.0 0. .
5633(75) 0.0 0. .
5636(75) 0.0 0. .
5441(74) 0.0 0. .
5315(73) 0.0 0. .
5533(74) 0.0 0. .
5586(75) 0.0 0. .
5311(73) 0.0 0. .
5434(74) 0.0 0. .
5388(73) 0.0 0. .
5541(74) 0.0 0. .
5348(73) 0.0 0. .
5121(72) 0.0 0. .
5258(73) 0.0 0. .
5337(73) 0.0 0. .
5311(73) 0.0 0. .
4913(70) 0.0 0. .
5198(72) 0.0 0. .
4994(71) 0.0 0. .
5064(71) 0.0 0. .
5011(71) 0.0 0. .
4886(70) 0.0 0. .
4895(70) 0.0 0. .
4745(69) 0.0 0. .
4731(69) 0.0 0. .
4882(70) 0.0 0. .
4770(69) 0.0 0. .
4700(69) 0.0 0. .
4737(69) 0.0 0. .
4577(68) 0.0 0. .
4601(68) 0.0 0. .
4586(68) 0.0 0. .
4684(68) 0.0 0. .
4662(68) 0.0 0. .
4591(68) 0.0 0. .
4499(67) 0.0 0. .
4614(68) 0.0 0. .
4526(67) 0.0 0. .
4593(68) 0.0 0. .
4809(69) 0.0 0. .
4488(67) 0.0 0. .
4653(68) 0.0 0. .
4457(67) 0.0 0. .
4500(67) 0.0 0. .
4577(68) 0.0 0. .
4510(67) 0.0 0. .
4412(66) 0.0 0. .
4340(66) 0.0 0. .
4398(66) 0.0 0. .
4355(66) 0.0 0. .
4453(67) 0.0 0. .
4383(66) 0.0 0. .
4374(66) 0.0 0. .
4282(65) 0.0 0. .
4195(65) 0.0 0. .
4045(64) 0.0 0. .
3936(63) 0.0 0. .
3841(62) 0.0 0. .
3847(62) 0.0 0. .
3948(63) 0.0 0. .
3859(62) 0.0 0. .
3862(62) 0.0 0. .
3887(62) 0.0 0. .
3561(60) 0.0 0. .
3750(61) 0.0 0. .
3638(60) 0.0 0. .
3586(60) 0.0 0. .
3653(60) 0.0 0. .
3573(60) 0.0 0. .
3472(59) 0.0 0. .
3538(59) 0.0 0. .
3471(59) 0.0 0. .
3343(58) 0.0 0. .
3410(58) 0.0 0. .
3319(58) 0.0 0. .
3224(57) 0.0 0. .
3207(57) 0.0 0. .
3198(57) 0.0 0. .
3151(56) 0.0 0. .
3048(55) 0.0 0. .
3023(55) 0.0 0. .
2929(54) 0.0 0. .
2827(53) 0.0 0. .
2908(54) 0.0 0. .
2870(54) 0.0 0. .
2700(52) 0.0 0. .
2616(51) 0.0 0. .
2826(53) 0.0 0. .
2808(53) 0.0 0. .
2754(52) 0.0 0. .
2798(53) 0.0 0. .
2808(53) 0.0 0. .
2723(52) 0.0 0. .
2681(52) 0.0 0. .
2633(51) 0.0 0. .
2576(51) 0.0 0. .
2458(50) 0.0 0. .
2593(51) 0.0 0. .
2491(50) 0.0 0. .
2604(51) 0.0 0. .
2434(49) 0.0 0. .
2445(49) 0.0 0. .
2428(49) 0.0 0. .
2419(49) 0.0 0. .
2359(49) 0.0 0. .
2405(49) 0.0 0. .
2331(48) 0.0 0. .
2265(48) 0.0 0. .
2214(47) 0.0 0. .
2275(48) 0.0 0. .
2244(47) 0.0 0. .
2183(47) 0.0 0. .
2150(46) 0.0 0. .
2133(46) 0.0 0. .
2139(46) 0.0 0. .
2049(45) 0.0 0. .
2137(46) 0.0 0. .
2156(46) 0.0 0. .
2016(45) 0.0 0. .
2133(46) 0.0 0. .
1995(45) 0.0 0. .
2047(45) 0.0 0. .
1936(44) 0.0 0. .
2023(45) 0.0 0. .
1992(45) 0.0 0. .
1928(44) 0.0 0. .
1892(43) 0.0 0. .
1851(43) 0.0 0. .
1931(44) 0.0 0. .
1835(43) 0.0 0. .
1850(43) 0.0 0. .
1897(44) 0.0 0. .
1783(42) 0.0 0. .
1747(42) 0.0 0. .
1669(41) 0.0 0. .
1646(41) 0.0 0. .
1622(40) 0.0 0. .
1597(40) 0.0 0. .
1586(40) 0.0 0. .
1469(38) 0.0 0. .
1425(38) 0.0 0. .
1529(39) 0.0 0. .
1438(38) 0.0 0. .
1331(36) 0.0 0. .
1394(37) 0.0 0. .
1241(35) 0.0 0. .
1252(35) 0.0 0. .
1331(36) 0.0 0. .
1309(36) 0.0 0. .
1311(36) 0.0 0. .
1277(36) 0.0 0. .
1256(35) 0.0 0. .
1237(35) 0.0 0. .
1154(34) 0.0 0.0 .
1189(34) 0.0 0.0 .
1242(35) 0.0 0. .
1156(34) 0.0 0.0 .
1165(34) 0.0 0.0 .
1190(34) 0.0 0.0 .
1231(35) 0.0 0. .
1123(34) 0.0 0.0 .
1093(33) 0.0 0.0 .
1097(33) 0.0 0.0 .
1101(33) 0.0 0.0 .
1055(32) 0.0 0.0 .
1046(32) 0.0 0.0 .
1083(33) 0.0 0.0 .
1042(32) 0.0 0.0 .
998(32) 0.0 0.0 .
992(31) 0.0 0.0 .
1042(32) 0.0 0.0 .
1098(33) 0.0 0.0 .
1103(33) 0.0 0.0 .
1028(32) 0.0 0.0 .
998(32) 0.0 0.0 .
1032(32) 0.0 0.0 .
1014(32) 0.0 0.0 .
1007(32) 0.0 0.0 .
959(31) 0.0 0.0 .
934(31) 0.0 0.0 .
946(31) 0.0 0.0 .
996(32) 0.0 0.0 .
951(31) 0.0 0.0 .
922(30) 0.0 0.0 .
951(31) 0.0 0.0 .
870(29) 0.0 0.0 .
911(30) 0.0 0.0 .
890(30) 0.0 0.0 .
907(30) 0.0 0.0 .
880(30) 0.0 0.0 .
906(30) 0.0 0.0 .
881(30) 0.0 0.0 .
913(30) 0.0 0.0 .
897(30) 0.0 0.0 .
880(30) 0.0 0.0 .
915(30) 0.0 0.0 .
831(29) 0.0 0.0 .
849(29) 0.0 0.0 .
854(29) 0.0 0.0 .
850(29) 0.0 0.0 .
834(29) 0.0 0.0 .
805(28) 0.0 0.0 .
815(29) 0.0 0.0 .
773(28) 0.0 0.0 .
822(29) 0.0 0.0 .
824(29) 0.0 0.0 .
816(29) 0.0 0.0 .
746(27) 0.0 0.0 .
769(28) 0.0 0.0 .
799(28) 0.0 0.0 .
808(28) 0.0 0.0 .
805(28) 0.0 0.0 .
838(29) 0.0 0.0 .
817(29) 0.0 0.0 .
813(29) 0.0 0.0 .
785(28) 0.0 0.0 .
830(29) 0.0 0.0 .
827(29) 0.0 0.0 .
806(28) 0.0 0.0 .
761(28) 0.0 0.0 .
770(28) 0.0 0.0 .
766(28) 0.0 0.0 .
720(27) 0.0 0.0 .
679(26) 0.0 0.0 .
676(26) 0.0 0.0 .
698(26) 0.0 0.0 .
699(26) 0.0 0.0 .
638(25) 0.0 0.0 .
650(25) 0.0 0.0 .
611(25) 0.0 0.0 .
577(24) 0.0 0.0 .
623(25) 0.0 0.0 .
575(24) 0.0 0.0 .
545(23) 0.0 0.0 .
536(23) 0.0 0.0 .
533(23) 0.0 0.0 .
545(23) 0.0 0.0 .
511(23) 0.0 0.0 .
521(23) 0.0 0.0 .
543(23) 0.0 0.0 .
476(22) 0.0 0.0 .
461(21) 0.0 0.0 .
471(22) 0.0 0.0 .
425(21) 0.0 0.0 .
450(21) 0.0 0.0 .
382(20) 0.0 0.0 .
369(19) 0.0 0.0 .
385(20) 0.0 0.0 .
348(19) 0.0 0.0 .
343(19) 0.0 0.0 .
352(19) 0.0 0.0 .
291(17) 0.0 0.0 .
328(18) 0.0 0.0 .
350(19) 0.0 0.0 .
300(17) 0.0 0.0 .
330(18) 0.0 0.0 .
320(18) 0.0 0.0 .
315(18) 0.0 0.0 .
286(17) 0.0 0.0 .
294(17) 0.0 0.0 .
291(17) 0.0 0.0 .
319(18) 0.0 0.0 .
277(17) 0.0 0.0 .
289(17) 0.0 0.0 .
319(18) 0.0 0.0 .
314(18) 0.0 0.0 .
294(17) 0.0 0.0 .
321(18) 0.0 0.0 .
322(18) 0.0 0.0 .
315(18) 0.0 0.0 .
301(17) 0.0 0.0 .
303(17) 0.0 0.0 .
309(18) 0.0 0.0 .
327(18) 0.0 0.0 .
320(18) 0.0 0.0 .
322(18) 0.0 0.0 .
349(19) 0.0 0.0 .
334(18) 0.0 0.0 .
312(18) 0.0 0.0 .
348(19) 0.0 0.0 .
317(18) 0.0 0.0 .
327(18) 0.0 0.0 .
292(17) 0.0 0.0 .
320(18) 0.0 0.0 .
338(18) 0.0 0.0 .
341(18) 0.0 0.0 .
316(18) 0.0 0.0 .
342(18) 0.0 0.0 .
338(18) 0.0 0.0 .
347(19) 0.0 0.0 .
344(19) 0.0 0.0 .
364(19) 0.0 0.0 .
373(19) 0.0 0.0 .
336(18) 0.0 0.0 .
354(19) 0.0 0.0 .
342(18) 0.0 0.0 .
347(19) 0.0 0.0 .
387(20) 0.0 0.0 .
328(18) 0.0 0.0 .
291(17) 0.0 0.0 .
315(18) 0.0 0.0 .
301(17) 0.0 0.0 .
297(17) 0.0 0.0 .
284(17) 0.0 0.0 .
292(17) 0.0 0.0 .
252(16) 0.0 0.0 .
273(17) 0.0 0.0 .
247(16) 0.0 0.0 .
255(16) 0.0 0.0 .
239(15) 0.0 0.0 .
249(16) 0.0 0.0 .
244(16) 0.0 0.0 .
237(15) 0.0 0.0 .
212(15) 0.0 0.0 .
234(15) 0.0 0.0 .
211(15) 0.0 0.0 .
206(14) 0.0 0.0 .
221(15) 0.0 0.0 .
190(14) 0.0 0.0 .
227(15) 0.0 0.0 .
206(14) 0.0 0.0 .
200(14) 0.0 0.0 .
185(14) 0.0 0.0 .
199(14) 0.0 0.0 .
185(14) 0.0 0.0 .
217(15) 0.0 0.0 .
191(14) 0.0 0.0 .
187(14) 0.0 0.0 .
190(14) 0.0 0.0 .
170(13) 0.0 0.0 .
169(13) 0.0 0.0 .
162(13) 0.0 0.0 .
195(14) 0.0 0.0 .
175(13) 0.0 0.0 .
182(13) 0.0 0.0 .
168(13) 0.0 0.0 .
182(13) 0.0 0.0 .
171(13) 0.0 0.0 .
176(13) 0.0 0.0 .
154(12) 0.0 0.0 .
169(13) 0.0 0.0 .
156(12) 0.0 0.0 .
187(14) 0.0 0.0 .
190(14) 0.0 0.0 .
165(13) 0.0 0.0 .
184(14) 0.0 0.0 .
164(13) 0.0 0.0 .
192(14) 0.0 0.0 .
195(14) 0.0 0.0 .
185(14) 0.0 0.0 .
190(14) 0.0 0.0 .
164(13) 0.0 0.0 .
164(13) 0.0 0.0 .
174(13) 0.0 0.0 .
164(13) 0.0 0.0 .
185(14) 0.0 0.0 .
184(14) 0.0 0.0 .
166(13) 0.0 0.0 .
175(13) 0.0 0.0 .
163(13) 0.0 0.0 .
166(13) 0.0 0.0 .
187(14) 0.0 0.0 .
176(13) 0.0 0.0 .
150(12) 0.0 0.0 .
162(13) 0.0 0.0 .
174(13) 0.0 0.0 .
190(14) 0.0 0.0 .
175(13) 0.0 0.0 .
164(13) 0.0 0.0 .
164(13) 0.0 0.0 .
174(13) 0.0 0.0 .
172(13) 0.0 0.0 .
159(13) 0.0 0.0 .
166(13) 0.0 0.0 .
173(13) 0.0 0.0 .
173(13) 0.0 0.0 .
170(13) 0.0 0.0 .
173(13) 0.0 0.0 .
169(13) 0.0 0.0 .
180(13) 0.0 0.0 .
173(13) 0.0 0.0 .
158(13) 0.0 0.0 .
172(13) 0.0 0.0 .
176(13) 0.0 0.0 .
174(13) 0.0 0.0 .
150(12) 0.0 0.0 .
183(14) 0.0 0.0 .
173(13) 0.0 0.0 .
157(13) 0.0 0.0 .
167(13) 0.0 0.0 .
170(13) 0.0 0.0 .
164(13) 0.0 0.0 .
158(13) 0.0 0.0 .
164(13) 0.0 0.0 .
181(13) 0.0 0.0 .
170(13) 0.0 0.0 .
167(13) 0.0 0.0 .
176(13) 0.0 0.0 .
195(14) 0.0 0.0 .
183(14) 0.0 0.0 .
175(13) 0.0 0.0 .
165(13) 0.0 0.0 .
183(14) 0.0 0.0 .
178(13) 0.0 0.0 .
175(13) 0.0 0.0 .
182(13) 0.0 0.0 .
175(13) 0.0 0.0 .
146(12) 0.0 0.0 .
161(13) 0.0 0.0 .
151(12) 0.0 0.0 .
166(13) 0.0 0.0 .
138(12) 0.0 0.0 .
180(13) 0.0 0.0 .
153(12) 0.0 0.0 .
147(12) 0.0 0.0 .
156(12) 0.0 0.0 .
155(12) 0.0 0.0 .
163(13) 0.0 0.0 .
158(13) 0.0 0.0 .
172(13) 0.0 0.0 .
158(13) 0.0 0.0 .
181(13) 0.0 0.0 .
149(12) 0.0 0.0 .
186(14) 0.0 0.0 .
162(13) 0.0 0.0 .
162(13) 0.0 0.0 .
144(12) 0.0 0.0 .
170(13) 0.0 0.0 .
152(12) 0.0 0.0 .
171(13) 0.0 0.0 .
151(12) 0.0 0.0 .
173(13) 0.0 0.0 .
170(13) 0.0 0.0 .
167(13) 0.0 0.0 .
173(13) 0.0 0.0 .
164(13) 0.0 0.0 .
148(12) 0.0 0.0 .
150(12) 0.0 0.0 .
156(12) 0.0 0.0 .
154(12) 0.0 0.0 .
162(13) 0.0 0.0 .
164(13) 0.0 0.0 .
169(13) 0.0 0.0 .
170(13) 0.0 0.0 .
164(13) 0.0 0.0 .
162(13) 0.0 0.0 .
147(12) 0.0 0.0 .
173(13) 0.0 0.0 .
159(13) 0.0 0.0 .
147(12) 0.0 0.0 .
165(13) 0.0 0.0 .
163(13) 0.0 0.0 .
156(12) 0.0 0.0 .
160(13) 0.0 0.0 .
171(13) 0.0 0.0 .
150(12) 0.0 0.0 .
162(13) 0.0 0.0 .
167(13) 0.0 0.0 .
186(14) 0.0 0.0 .
164(13) 0.0 0.0 .
158(13) 0.0 0.0 .
159(13) 0.0 0.0 .
157(13) 0.0 0.0 .
164(13) 0.0 0.0 .
153(12) 0.0 0.0 .
147(12) 0.0 0.0 .
172(13) 0.0 0.0 .
155(12) 0.0 0.0 .
160(13) 0.0 0.0 .
167(13) 0.0 0.0 .
161(13) 0.0 0.0 .
166(13) 0.0 0.0 .
165(13) 0.0 0.0 .
157(13) 0.0 0.0 .
167(13) 0.0 0.0 .
144(12) 0.0 0.0 .
154(12) 0.0 0.0 .
174(13) 0.0 0.0 .
156(12) 0.0 0.0 .
153(12) 0.0 0.0 .
147(12) 0.0 0.0 .
157(13) 0.0 0.0 .
160(13) 0.0 0.0 .
160(13) 0.0 0.0 .
169(13) 0.0 0.0 .
165(13) 0.0 0.0 .
167(13) 0.0 0.0 .
171(13) 0.0 0.0 .
150(12) 0.0 0.0 .
162(13) 0.0 0.0 .
148(12) 0.0 0.0 .
166(13) 0.0 0.0 .
143(12) 0.0 0.0 .
154(12) 0.0 0.0 .
169(13) 0.0 0.0 .
133(12) 0.0 0.0 .
152(12) 0.0 0.0 .
183(14) 0.0 0.0 .
159(13) 0.0 0.0 .
164(13) 0.0 0.0 .
153(12) 0.0 0.0 .
178(13) 0.0 0.0 .
166(13) 0.0 0.0 .
135(12) 0.0 0.0 .
169(13) 0.0 0.0 .
157(13) 0.0 0.0 .
167(13) 0.0 0.0 .
137(12) 0.0 0.0 .
171(13) 0.0 0.0 .
145(12) 0.0 0.0 .
144(12) 0.0 0.0 .
164(13) 0.0 0.0 .
146(12) 0.0 0.0 .
167(13) 0.0 0.0 .
164(13) 0.0 0.0 .
151(12) 0.0 0.0 .
174(13) 0.0 0.0 .
166(13) 0.0 0.0 .
157(13) 0.0 0.0 .
170(13) 0.0 0.0 .
131(11) 0.0 0.0 .
160(13) 0.0 0.0 .
153(12) 0.0 0.0 .
158(13) 0.0 0.0 .
174(13) 0.0 0.0 .
176(13) 0.0 0.0 .
171(13) 0.0 0.0 .
167(13) 0.0 0.0 .
170(13) 0.0 0.0 .
178(13) 0.0 0.0 .
153(12) 0.0 0.0 .
174(13) 0.0 0.0 .
154(12) 0.0 0.0 .
176(13) 0.0 0.0 .
152(12) 0.0 0.0 .
161(13) 0.0 0.0 .
162(13) 0.0 0.0 .
162(13) 0.0 0.0 .
165(13) 0.0 0.0 .
174(13) 0.0 0.0 .
167(13) 0.0 0.0 .
183(14) 0.0 0.0 .
167(13) 0.0 0.0 .
173(13) 0.0 0.0 .
173(13) 0.0 0.0 .
188(14) 0.0 0.0 .
185(14) 0.0 0.0 .
195(14) 0.0 0.0 .
191(14) 0.0 0.0 .
160(13) 0.0 0.0 .
176(13) 0.0 0.0 .
169(13) 0.0 0.0 .
177(13) 0.0 0.0 .
162(13) 0.0 0.0 .
191(14) 0.0 0.0 .
173(13) 0.0 0.0 .
173(13) 0.0 0.0 .
183(14) 0.0 0.0 .
194(14) 0.0 0.0 .
177(13) 0.0 0.0 .
163(13) 0.0 0.0 .
188(14) 0.0 0.0 .
178(13) 0.0 0.0 .
192(14) 0.0 0.0 .
189(14) 0.0 0.0 .
195(14) 0.0 0.0 .
206(14) 0.0 0.0 .
181(13) 0.0 0.0 .
200(14) 0.0 0.0 .
201(14) 0.0 0.0 .
212(15) 0.0 0.0 .
218(15) 0.0 0.0 .
187(14) 0.0 0.0 .
179(13) 0.0 0.0 .
187(14) 0.0 0.0 .
188(14) 0.0 0.0 .
191(14) 0.0 0.0 .
209(14) 0.0 0.0 .
204(14) 0.0 0.0 .
239(15) 0.0 0.0 .
210(14) 0.0 0.0 .
212(15) 0.0 0.0 .
211(15) 0.0 0.0 .
226(15) 0.0 0.0 .
233(15) 0.0 0.0 .
223(15) 0.0 0.0 .
236(15) 0.0 0.0 .
231(15) 0.0 0.0 .
222(15) 0.0 0.0 .
223(15) 0.0 0.0 .
257(16) 0.0 0.0 .
231(15) 0.0 0.0 .
229(15) 0.0 0.0 .
264(16) 0.0 0.0 .
255(16) 0.0 0.0 .
266(16) 0.0 0.0 .
273(17) 0.0 0.0 .
253(16) 0.0 0.0 .
267(16) 0.0 0.0 .
281(17) 0.0 0.0 .
269(16) 0.0 0.0 .
258(16) 0.0 0.0 .
313(18) 0.0 0.0 .
283(17) 0.0 0.0 .
285(17) 0.0 0.0 .
309(18) 0.0 0.0 .
307(18) 0.0 0.0 .
283(17) 0.0 0.0 .
335(18) 0.0 0.0 .
333(18) 0.0 0.0 .
306(17) 0.0 0.0 .
342(18) 0.0 0.0 .
293(17) 0.0 0.0 .
333(18) 0.0 0.0 .
354(19) 0.0 0.0 .
330(18) 0.0 0.0 .
353(19) 0.0 0.0 .
319(18) 0.0 0.0 .
367(19) 0.0 0.0 .
366(19) 0.0 0.0 .
412(20) 0.0 0.0 .
402(20) 0.0 0.0 .
403(20) 0.0 0.0 .
412(20) 0.0 0.0 .
398(20) 0.0 0.0 .
402(20) 0.0 0.0 .
416(20) 0.0 0.0 .
432(21) 0.0 0.0 .
452(21) 0.0 0.0 .
458(21) 0.0 0.0 .
514(23) 0.0 0.0 .
437(21) 0.0 0.0 .
465(22) 0.0 0.0 .
486(22) 0.0 0.0 .
521(23) 0.0 0.0 .
551(23) 0.0 0.0 .
519(23) 0.0 0.0 .
526(23) 0.0 0.0 .
567(24) 0.0 0.0 .
611(25) 0.0 0.0 .
617(25) 0.0 0.0 .
602(25) 0.0 0.0 .
611(25) 0.0 0.0 .
655(26) 0.0 0.0 .
694(26) 0.0 0.0 .
703(27) 0.0 0.0 .
714(27) 0.0 0.0 .
740(27) 0.0 0.0 .
801(28) 0.0 0.0 .
791(28) 0.0 0.0 .
823(29) 0.0 0.0 .
868(29) 0.0 0.0 .
902(30) 0.0 0.0 .
985(31) 0.0 0.0 .
1025(32) 0.0 0.0 .
1104(33) 0.0 0.0 .
1042(32) 0.0 0.0 .
1175(34) 0.0 0.0 .
1311(36) 0.0 0. .
1353(37) 0.0 0. .
1498(39) 0.0 0. .
1629(40) 0.0 0. .
1917(44) 0.0 0. .
1972(44) 0.0 0. .
2175(47) 0.0 0. .
2512(50) 0.0 0. .
2826(53) 0.0 0. .
3151(56) 0.0 0. .
3557(60) 0.0 0. .
3735(61) 0.0 0. .
4016(63) 0.0 0. .
4166(65) 0.0 0. .
4532(67) 0.0 0. .
4760(69) 0.0 0. .
5295(73) 0.0 0. .
5606(75) 0.0 0. .
6360(80) 0.0 0. .
6994(84) 0.0 0. .
7986(89) 0.0 0. .
9113(95) 0.0 0. .
10670(100) 0.0 0. .
12870(110) 0.0 0. .
15570(130) 0.0 0. .
18730(140) 0.0 0. .
23790(150) 0.0 0. .
30790(180) 0.0 0. .
40000(200) 0.0 0. .
52370(230) 0.0 0. .
68870(260) 0.0 0. .
88470(300) 0.0 0. .
111390(330) 0.0 0. .
138230(370) 0.0 0. .
167060(410) 0.0 0. .
191520(440) 0.0 0. .
202440(450) 0.0 0. .
190180(440) 0.0 0. .
163080(400) 0.0 0. .
128940(360) 0.0 0. .
98660(310) 0.0 0. .
75000(270) 0.0 0. .
57370(240) 0.0 0. .
45310(210) 0.0 0. .
35680(190) 0.0 0. .
28420(170) 0.0 0. .
23360(150) 0.0 0. .
19090(140) 0.0 0. .
15780(130) 0.0 0. .
13520(120) 0.0 0. .
11600(110) 0.0 0. .
10000(100) 0.0 0. .
8569(93) 0.0 0. .
7473(86) 0.0 0. .
6760(82) 0.0 0. .
5898(77) 0.0 0. .
5187(72) 0.0 0. .
4767(69) 0.0 0. .
4405(66) 0.0 0. .
3887(62) 0.0 0. .
3607(60) 0.0 0. .
3155(56) 0.0 0. .
3048(55) 0.0 0. .
2794(53) 0.0 0. .
2560(51) 0.0 0. .
2431(49) 0.0 0. .
2311(48) 0.0 0. .
2137(46) 0.0 0. .
2002(45) 0.0 0. .
1936(44) 0.0 0. .
1867(43) 0.0 0. .
1733(42) 0.0 0. .
1645(41) 0.0 0. .
1519(39) 0.0 0. .
1484(39) 0.0 0. .
1460(38) 0.0 0. .
1357(37) 0.0 0. .
1348(37) 0.0 0. .
1299(36) 0.0 0. .
1225(35) 0.0 0.0 .
1136(34) 0.0 0.0 .
1163(34) 0.0 0.0 .
1146(34) 0.0 0.0 .
1044(32) 0.0 0.0 .
1040(32) 0.0 0.0 .
1015(32) 0.0 0.0 .
1034(32) 0.0 0.0 .
992(31) 0.0 0.0 .
988(31) 0.0 0.0 .
923(30) 0.0 0.0 .
872(30) 0.0 0.0 .
911(30) 0.0 0.0 .
837(29) 0.0 0.0 .
883(30) 0.0 0.0 .
838(29) 0.0 0.0 .
828(29) 0.0 0.0 .
800(28) 0.0 0.0 .
816(29) 0.0 0.0 .
781(28) 0.0 0.0 .
716(27) 0.0 0.0 .
735(27) 0.0 0.0 .
752(27) 0.0 0.0 .
702(26) 0.0 0.0 .
679(26) 0.0 0.0 .
719(27) 0.0 0.0 .
629(25) 0.0 0.0 .
582(24) 0.0 0.0 .
612(25) 0.0 0.0 .
605(25) 0.0 0.0 .
617(25) 0.0 0.0 .
618(25) 0.0 0.0 .
611(25) 0.0 0.0 .
593(24) 0.0 0.0 .
582(24) 0.0 0.0 .
565(24) 0.0 0.0 .
514(23) 0.0 0.0 .
511(23) 0.0 0.0 .
537(23) 0.0 0.0 .
513(23) 0.0 0.0 .
521(23) 0.0 0.0 .
463(22) 0.0 0.0 .
488(22) 0.0 0.0 .
507(23) 0.0 0.0 .
466(22) 0.0 0.0 .
459(21) 0.0 0.0 .
448(21) 0.0 0.0 .
495(22) 0.0 0.0 .
471(22) 0.0 0.0 .
461(21) 0.0 0.0 .
443(21) 0.0 0.0 .
446(21) 0.0 0.0 .
435(21) 0.0 0.0 .
472(22) 0.0 0.0 .
434(21) 0.0 0.0 .
458(21) 0.0 0.0 .
428(21) 0.0 0.0 .
401(20) 0.0 0.0 .
443(21) 0.0 0.0 .
435(21) 0.0 0.0 .
452(21) 0.0 0.0 .
448(21) 0.0 0.0 .
431(21) 0.0 0.0 .
494(22) 0.0 0.0 .
485(22) 0.0 0.0 .
526(23) 0.0 0.0 .
497(22) 0.0 0.0 .
515(23) 0.0 0.0 .
508(23) 0.0 0.0 .
461(21) 0.0 0.0 .
522(23) 0.0 0.0 .
529(23) 0.0 0.0 .
544(23) 0.0 0.0 .
537(23) 0.0 0.0 .
562(24) 0.0 0.0 .
535(23) 0.0 0.0 .
563(24) 0.0 0.0 .
548(23) 0.0 0.0 .
588(24) 0.0 0.0 .
524(23) 0.0 0.0 .
554(24) 0.0 0.0 .
553(24) 0.0 0.0 .
529(23) 0.0 0.0 .
514(23) 0.0 0.0 .
460(21) 0.0 0.0 .
495(22) 0.0 0.0 .
464(22) 0.0 0.0 .
512(23) 0.0 0.0 .
472(22) 0.0 0.0 .
446(21) 0.0 0.0 .
433(21) 0.0 0.0 .
402(20) 0.0 0.0 .
383(20) 0.0 0.0 .
389(20) 0.0 0.0 .
392(20) 0.0 0.0 .
359(19) 0.0 0.0 .
354(19) 0.0 0.0 .
345(19) 0.0 0.0 .
295(17) 0.0 0.0 .
335(18) 0.0 0.0 .
343(19) 0.0 0.0 .
317(18) 0.0 0.0 .
308(18) 0.0 0.0 .
306(17) 0.0 0.0 .
296(17) 0.0 0.0 .
299(17) 0.0 0.0 .
306(17) 0.0 0.0 .
317(18) 0.0 0.0 .
268(16) 0.0 0.0 .
262(16) 0.0 0.0 .
275(17) 0.0 0.0 .
291(17) 0.0 0.0 .
277(17) 0.0 0.0 .
284(17) 0.0 0.0 .
281(17) 0.0 0.0 .
247(16) 0.0 0.0 .
263(16) 0.0 0.0 .
225(15) 0.0 0.0 .
261(16) 0.0 0.0 .
246(16) 0.0 0.0 .
204(14) 0.0 0.0 .
266(16) 0.0 0.0 .
233(15) 0.0 0.0 .
229(15) 0.0 0.0 .
242(16) 0.0 0.0 .
262(16) 0.0 0.0 .
230(15) 0.00435 217.2 70.5
256(16) 0.00391 217.2 69.8
239(15) 0.00418 217.3 69.0
216(15) 0.00463 217.4 68.3
212(15) 0.00472 217.4 67.6
224(15) 0.00446 217.5 66.9
216(15) 0.00463 217.5 66.2
227(15) 0.00441 217.6 2.8
236(15) 0.00424 217.7 2.9
213(15) 0.00469 217.7 2.9
202(14) 0.00495 217.8 3.0
237(15) 0.00422 217.8 3.0
214(15) 0.00467 217.9 3.1
226(15) 0.00442 217.9 3.2
216(15) 0.00463 218.0 3.2
240(15) 0.00417 218.1 3.3
207(14) 0.00483 218.1 3.3
226(15) 0.00442 218.2 3.4
222(15) 0.00450 218.2 3.5
219(15) 0.00457 218.3 3.5
230(15) 0.00435 218.4 3.6
220(15) 0.00455 218.4 3.7
207(14) 0.00483 218.5 3.7
212(15) 0.00472 218.5 3.8
217(15) 0.00461 218.6 3.9
213(15) 0.00469 218.7 4.0
197(14) 0.00508 218.7 4.1
211(15) 0.00474 218.8 4.1
238(15) 0.00420 218.8 4.2
231(15) 0.00433 218.9 4.3
232(15) 0.00431 218.9 4.4
231(15) 0.00433 219.0 4.5
223(15) 0.00448 219.1 4.6
238(15) 0.00420 219.1 4.7
240(15) 0.00417 219.2 4.8
234(15) 0.00427 219.2 4.9
225(15) 0.00444 219.3 5.0
237(15) 0.00422 219.4 5.1
240(15) 0.00417 219.4 5.3
247(16) 0.00405 219.5 5.4
219(15) 0.00457 219.5 5.5
219(15) 0.00457 219.6 5.7
242(16) 0.00413 219.7 5.8
228(15) 0.00439 219.7 5.9
231(15) 0.00433 219.8 6.1
242(16) 0.00413 219.8 6.2
255(16) 0.00392 219.9 6.4
227(15) 0.00441 219.9 6.6
233(15) 0.00429 220.0 6.7
212(15) 0.00472 220.1 6.9
233(15) 0.00429 220.1 7.1
235(15) 0.00426 220.2 7.3
246(16) 0.00407 220.2 7.5
241(16) 0.00415 220.3 7.7
215(15) 0.00465 220.4 8.0
240(15) 0.00417 220.4 8.2
223(15) 0.00448 220.5 8.4
220(15) 0.00455 220.5 8.7
237(15) 0.00422 220.6 9.0
212(15) 0.00472 220.7 9.2
230(15) 0.00435 220.7 9.5
250(16) 0.00400 220.8 9.8
202(14) 0.00495 220.8 10.1
254(16) 0.00394 220.9 10.5
222(15) 0.00450 220.9 10.8
235(15) 0.00426 221.0 11.2
217(15) 0.00461 220.5 11.6
185(14) 0.00541 219.8 12.0
222(15) 0.00450 219.2 12.4
212(15) 0.00472 218.5 12.9
216(15) 0.00463 217.8 13.4
221(15) 0.00452 217.1 13.9
247(16) 0.00405 216.5 14.4
215(15) 0.00465 215.8 15.0
202(14) 0.00495 215.1 15.6
238(15) 0.00420 214.4 16.3
227(15) 0.00441 213.8 16.9
229(15) 0.00437 213.1 17.7
217(15) 0.00461 212.4 18.4
247(16) 0.00405 211.7 19.3
211(15) 0.00474 211.1 20.1
203(14) 0.00493 210.4 21.1
248(16) 0.00403 209.7 22.1
236(15) 0.00424 209.0 23.2
241(16) 0.00415 208.4 24.4
243(16) 0.00412 207.7 25.6
258(16) 0.00388 207.0 27.0
229(15) 0.00437 206.3 28.4
258(16) 0.00388 205.7 30.0
244(16) 0.00410 205.0 31.7
252(16) 0.00397 204.3 33.6
251(16) 0.00398 203.6 35.6
280(17) 0.00357 202.9 37.9
271(16) 0.00369 202.3 40.3
255(16) 0.00392 201.6 43.0
268(16) 0.00373 200.9 45.9
291(17) 0.003436 200.2 49.2
275(17) 0.00364 199.6 52.8
305(17) 0.003279 198.9 56.9
347(19) 0.002882 198.2 61.5
330(18) 0.003030 197.5 66.7
352(19) 0.002841 196.9 72.7
336(18) 0.002976 196.2 79.8
354(19) 0.002825 195.5 88.1
364(19) 0.002747 194.8 98.2
396(20) 0.002525 194.2 110.6
401(20) 0.002494 193.5 125.9
409(20) 0.002445 192.8 145.1
441(21) 0.002268 192.1 169.2
436(21) 0.002294 191.5 199.3
533(23) 0.001876 190.8 236.9
560(24) 0.001786 190.1 283.2
593(24) 0.001686 189.4 339.5
596(24) 0.001678 188.8 406.8
696(26) 0.001437 188.1 485.7
727(27) 0.001376 187.4 576.2
780(28) 0.001282 186.7 677.3
860(29) 0.001163 186.1 786.9
939(31) 0.001065 185.4 901.2
1045(32) 0.000957 184.7 1014.4
1123(34) 0.000890 184.0 1118.2
1146(34) 0.000873 183.4 1202.4
1227(35) 0.000815 182.7 1256.1
1226(35) 0.000816 182.0 1271.1
1237(35) 0.000808 181. 1245.
1270(36) 0.000787 181. 1182.
1095(33) 0.000913 180.0 1091.5
978(31) 0.001022 179.3 984.2
888(30) 0.001126 178.6 870.0
789(28) 0.001267 178.0 756.5
655(26) 0.001527 177.3 648.9
581(24) 0.001721 176.6 550.5
523(23) 0.001912 175.9 463.1
466(22) 0.002146 175.3 387.4
427(21) 0.002342 174.6 323.1
389(20) 0.002571 173.9 269.7
409(20) 0.002445 173.2 225.9
380(19) 0.002632 172.5 190.5
355(19) 0.002817 171.9 162.1
283(17) 0.00353 171.2 139.5
316(18) 0.003165 170.5 121.4
302(17) 0.003311 169.8 107.0
294(17) 0.003401 169.2 95.3
312(18) 0.003205 168.5 85.7
275(17) 0.00364 167.8 77.7
269(16) 0.00372 167.1 71.0
267(16) 0.00375 166.5 65.2
264(16) 0.00379 165.8 60.2
244(16) 0.00410 165.1 55.7
234(15) 0.00427 164.4 51.8
247(16) 0.00405 163.8 48.3
238(15) 0.00420 163.1 45.1
223(15) 0.00448 162.4 42.2
222(15) 0.00450 161.7 39.6
202(14) 0.00495 161.1 37.2
217(15) 0.00461 160.4 35.1
184(14) 0.00543 159.7 33.1
200(14) 0.00500 159.0 31.3
185(14) 0.00541 158.4 29.6
189(14) 0.00529 157.7 28.0
197(14) 0.00508 157.0 26.6
182(13) 0.00549 156.3 25.3
164(13) 0.00610 155.7 24.0
197(14) 0.00508 155.0 22.9
181(13) 0.00552 154.3 21.8
180(13) 0.00556 153.6 20.8
159(13) 0.00629 153.0 19.9
158(13) 0.00633 152.3 19.1
171(13) 0.00585 151.6 18.2
159(13) 0.00629 150.9 17.5
153(12) 0.00654 150.3 16.8
159(13) 0.00629 149.6 16.1
155(12) 0.00645 148.9 15.5
169(13) 0.00592 148.2 14.9
170(13) 0.00588 147.6 14.3
168(13) 0.00595 146.9 13.8
155(12) 0.00645 146.2 13.3
148(12) 0.00676 145.5 12.8
156(12) 0.00641 144.9 12.3
148(12) 0.00676 144.2 11.9
149(12) 0.00671 143.5 11.5
129(11) 0.00775 142.8 11.1
146(12) 0.00685 142.1 10.8
144(12) 0.00694 141.5 10.4
162(13) 0.00617 140.8 10.1
143(12) 0.00699 140.1 9.8
145(12) 0.00690 139.4 9.5
135(12) 0.00741 138.8 9.2
150(12) 0.00667 138.1 8.9
142(12) 0.00704 137.4 8.6
133(12) 0.00752 136.7 8.4
117(11) 0.00855 136.1 8.2
145(12) 0.00690 135.4 7.9
135(12) 0.00741 134.7 7.7
148(12) 0.00676 134.0 7.5
128(11) 0.00781 133.4 7.3
121(11) 0.00826 132.7 7.1
112(11) 0.00893 132.0 6.9
118(11) 0.00847 131.3 6.7
125(11) 0.00800 130.7 6.6
119(11) 0.00840 130.0 6.4
118(11) 0.00847 129.3 6.2
114(11) 0.00877 128.6 6.1
134(12) 0.00746 128.0 5.9
128(11) 0.00781 127.3 5.8
115(11) 0.00870 126.6 5.7
118(11) 0.00847 125.9 5.5
122(11) 0.00820 125.3 5.4
109(10) 0.00917 124.6 5.3
101(10) 0.00990 123.9 5.2
111(11) 0.00901 123.2 5.0
109(10) 0.00917 122.6 4.9
114(11) 0.00877 121.9 4.8
130(11) 0.00769 121.2 4.7
132(11) 0.00758 120.5 4.6
121(11) 0.00826 119.9 4.5
115(11) 0.00870 119.2 4.4
133(12) 0.00752 118.5 4.3
118(11) 0.00847 117.8 4.2
119(11) 0.00840 117.2 4.2
127(11) 0.00787 116.5 4.1
113(11) 0.00885 115.8 4.0
127(11) 0.00787 115.1 3.9
116(11) 0.00862 114.5 3.8
138(12) 0.00725 113.8 3.8
123(11) 0.00813 113.1 3.7
117(11) 0.00855 112.4 3.6
121(11) 0.00826 111.7 3.6
120(11) 0.00833 111.1 3.5
125(11) 0.00800 110.4 3.4
108(10) 0.00926 109.7 3.4
115(11) 0.00870 109.0 3.3
103(10) 0.00971 108.4 3.3
130(11) 0.00769 107.7 3.2
115(11) 0.00870 107.0 3.1
122(11) 0.00820 106.3 3.1
123(11) 0.00813 105.7 3.0
121(11) 0.00826 105.0 3.0
104(10) 0.00962 104.3 2.9
114(11) 0.00877 103.6 2.9
115(11) 0.00870 103.0 2.8
118(11) 0.00847 102.3 2.8
118(11) 0.00847 101.6 2.8
104(10) 0.00962 101.1 2.7
111(11) 0.00901 101.2 2.7
107(10) 0.00935 101.3 2.6
121(11) 0.00826 101.3 2.6
109(10) 0.00917 101.4 2.5
119(11) 0.00840 101.5 2.5
133(12) 0.00752 101.5 2.5
116(11) 0.00862 101.6 2.4
107(10) 0.00935 101.6 2.4
117(11) 0.00855 101.7 2.4
115(11) 0.00870 101.8 2.3
128(11) 0.00781 101.8 2.3
117(11) 0.00855 101.9 2.3
125(11) 0.00800 102.0 2.2
115(11) 0.00870 102.0 2.2
124(11) 0.00806 102.1 2.2
111(11) 0.00901 102.2 2.1
115(11) 0.00870 102.2 2.1
96(10) 0.01042 102.3 2.1
105(10) 0.00952 102.4 2.1
104(10) 0.00962 102.4 2.0
112(11) 0.00893 102.5 2.0
126(11) 0.00794 102.6 2.0
114(11) 0.00877 102.6 2.0
112(11) 0.00893 102.7 1.9
98(10) 0.01020 102.8 1.9
108(10) 0.00926 102.8 1.9
110(10) 0.00909 102.9 1.9
121(11) 0.00826 103.0 1.8
110(10) 0.00909 103.0 1.8
113(11) 0.00885 103.1 1.8
134(12) 0.00746 103.1 1.8
125(11) 0.00800 103.2 1.8
105(10) 0.00952 103.3 1.7
123(11) 0.00813 103.3 1.7
118(11) 0.00847 103.4 1.7
103(10) 0.00971 103.5 1.7
118(11) 0.00847 103.5 1.7
135(12) 0.00741 103.6 1.6
119(11) 0.00840 103.7 1.6
108(10) 0.00926 103.7 1.6
121(11) 0.00826 103.8 1.6
105(10) 0.00952 103.9 1.6
133(12) 0.00752 103.9 1.6
118(11) 0.00847 104.0 1.5
106(10) 0.00943 104.1 1.5
112(11) 0.00893 104.1 1.5
114(11) 0.00877 104.2 1.5
109(10) 0.00917 104.3 1.5
118(11) 0.00847 104.3 1.5
112(11) 0.00893 104.4 1.4
123(11) 0.00813 104.4 1.4
114(11) 0.00877 104.5 1.4
117(11) 0.00855 104.6 1.4
126(11) 0.00794 104.6 1.4
101(10) 0.00990 104.7 1.4
130(11) 0.00769 104.8 1.4
121(11) 0.00826 104.8 1.4
121(11) 0.00826 104.9 1.3
120(11) 0.00833 105.0 1.3
104(10) 0.00962 105.0 1.3
111(11) 0.00901 105.1 1.3
113(11) 0.00885 105.2 1.3
122(11) 0.00820 105.2 1.3
96(10) 0.01042 105.3 1.3
114(11) 0.00877 105.4 1.3
121(11) 0.00826 105.4 1.3
116(11) 0.00862 105.5 1.3
121(11) 0.00826 105.6 1.2
129(11) 0.00775 105.6 1.2
122(11) 0.00820 105.7 1.2
108(10) 0.00926 105.8 1.2
108(10) 0.00926 105.8 1.2
113(11) 0.00885 105.9 1.2
110(10) 0.00909 105.9 1.2
113(11) 0.00885 106.0 1.2
92(10) 0.01087 106.1 1.2
101(10) 0.00990 106.1 1.2
115(11) 0.00870 106.2 1.2
120(11) 0.00833 106.3 1.2
128(11) 0.00781 106.3 1.1
98(10) 0.01020 106.4 1.1
115(11) 0.00870 106.5 1.1
106(10) 0.00943 106.5 1.1
107(10) 0.00935 106.6 1.1
117(11) 0.00855 106.7 1.1
101(10) 0.00990 106.7 1.1
125(11) 0.00800 106.8 1.1
111(11) 0.00901 106.9 1.1
95(10) 0.01053 106.9 1.1
97(10) 0.01031 107.0 1.1
109(10) 0.00917 107.1 1.1
106(10) 0.00943 107.1 1.1
131(11) 0.00763 107.2 1.1
115(11) 0.00870 107.3 1.1
118(11) 0.00847 107.3 1.1
109(10) 0.00917 107.4 1.1
128(11) 0.00781 107.4 1.1
148(12) 0.00676 107.5 1.0
108(10) 0.00926 107.6 1.0
107(10) 0.00935 107.6 1.0
120(11) 0.00833 107.7 1.0
120(11) 0.00833 107.8 1.0
114(11) 0.00877 107.8 1.0
111(11) 0.00901 107.9 1.0
119(11) 0.00840 108.0 1.0
116(11) 0.00862 108.0 1.0
110(10) 0.00909 108.1 1.0
100(10) 0.01000 108.2 1.0
98(10) 0.01020 108.2 1.0
96(10) 0.01042 108.3 1.0
128(11) 0.00781 108.4 1.0
104(10) 0.00962 108.4 1.0
98(10) 0.01020 108.5 1.0
107(10) 0.00935 108.6 1.0
115(11) 0.00870 108.6 1.0
95(10) 0.01053 108.7 1.0
116(11) 0.00862 108.8 1.0
117(11) 0.00855 108.8 1.0
106(10) 0.00943 108.9 1.0
138(12) 0.00725 108.9 1.0
117(11) 0.00855 109.0 1.0
123(11) 0.00813 109.1 1.0
110(10) 0.00909 109.1 1.0
85(9) 0.01176 109.2 1.0
105(10) 0.00952 109.3 1.0
111(11) 0.00901 109.3 1.0
126(11) 0.00794 109.4 1.0
95(10) 0.01053 109.5 1.0
116(11) 0.00862 109.5 1.0
103(10) 0.00971 109.6 1.0
107(10) 0.00935 109.7 1.0
89(9) 0.01124 109.7 1.0
109(10) 0.00917 109.8 1.0
100(10) 0.01000 109.9 1.0
95(10) 0.01053 109.9 1.1
126(11) 0.00794 110.0 1.1
114(11) 0.00877 110.1 1.1
110(10) 0.00909 110.1 1.1
115(11) 0.00870 110.2 1.1
119(11) 0.00840 110.2 1.1
106(10) 0.00943 110.3 1.1
112(11) 0.00893 110.4 1.1
94(10) 0.01064 110.4 1.1
115(11) 0.00870 110.5 1.1
134(12) 0.00746 110.6 1.1
104(10) 0.00962 110.6 1.1
98(10) 0.01020 110.7 1.1
115(11) 0.00870 110.8 1.1
106(10) 0.00943 110.8 1.2
96(10) 0.01042 110.9 1.2
125(11) 0.00800 111.0 1.2
125(11) 0.00800 111.0 1.2
106(10) 0.00943 111.1 1.2
95(10) 0.01053 111.2 1.2
98(10) 0.01020 111.2 1.2
121(11) 0.00826 111.3 1.2
97(10) 0.01031 111.4 1.3
108(10) 0.00926 111.4 1.3
103(10) 0.00971 111.5 1.3
114(11) 0.00877 111.6 1.3
115(11) 0.00870 111.6 1.3
107(10) 0.00935 111.7 0.9
122(11) 0.00820 111.7 0.9
128(11) 0.00781 111.8 0.9
111(11) 0.00901 111.9 0.9
110(10) 0.00909 111.9 1.0
98(10) 0.01020 112.0 1.0
119(11) 0.00840 112.1 1.0
124(11) 0.00806 112.1 1.1
111(11) 0.00901 112.2 1.1
104(10) 0.00962 112.3 1.1
103(10) 0.00971 112.3 1.2
110(10) 0.00909 112.4 1.2
113(11) 0.00885 112.5 1.2
127(11) 0.00787 112.5 1.3
108(10) 0.00926 112.6 1.3
116(11) 0.00862 112.7 1.4
104(10) 0.00962 112.7 1.4
124(11) 0.00806 112.8 1.5
113(11) 0.00885 112.9 1.5
116(11) 0.00862 112.9 1.6
102(10) 0.00980 113.0 1.6
119(11) 0.00840 113.1 1.7
119(11) 0.00840 113.1 1.7
107(10) 0.00935 113.2 1.8
130(11) 0.00769 113.3 1.9
107(10) 0.00935 113.4 2.0
126(11) 0.00794 113.5 2.0
111(11) 0.00901 113.7 2.1
125(11) 0.00800 113.8 2.2
115(11) 0.00870 113.9 2.3
109(10) 0.00917 114.0 2.4
100(10) 0.01000 114.2 2.5
122(11) 0.00820 114.3 2.7
146(12) 0.00685 114.4 2.8
111(11) 0.00901 114.6 2.9
112(11) 0.00893 114.7 3.1
126(11) 0.00794 114.8 3.3
128(11) 0.00781 115.0 3.5
114(11) 0.00877 115.1 3.7
123(11) 0.00813 115.2 4.0
102(10) 0.00980 115.3 4.2
101(10) 0.00990 115.5 4.6
121(11) 0.00826 115.6 4.9
117(11) 0.00855 115.7 5.3
113(11) 0.00885 115.9 5.8
149(12) 0.00671 116.0 6.3
141(12) 0.00709 116.1 7.0
112(11) 0.00893 116.3 7.7
126(11) 0.00794 116.4 8.5
111(11) 0.00901 116.5 9.4
108(10) 0.00926 116.7 10.4
135(12) 0.00741 116.8 11.6
127(11) 0.00787 116.9 12.9
116(11) 0.00862 117.0 14.3
125(11) 0.00800 117.2 15.9
111(11) 0.00901 117.3 17.7
139(12) 0.00719 117.4 19.6
132(11) 0.00758 117.6 21.7
125(11) 0.00800 117.7 24.0
143(12) 0.00699 117.8 26.4
137(12) 0.00730 118.0 28.9
145(12) 0.00690 118.1 31.6
148(12) 0.00676 118.2 34.3
127(11) 0.00787 118.3 37.1
137(12) 0.00730 118.5 39.9
146(12) 0.00685 118.6 42.7
145(12) 0.00690 118.7 45.3
125(11) 0.00800 118.9 47.8
145(12) 0.00690 119.0 50.0
154(12) 0.00649 119.1 51.9
120(11) 0.00833 119.3 53.3
131(11) 0.00763 119.4 54.3
145(12) 0.00690 119.5 54.7
157(13) 0.00637 119.7 54.5
136(12) 0.00735 119.8 53.8
149(12) 0.00671 119.9 52.6
137(12) 0.00730 120.0 50.9
161(13) 0.00621 120.2 48.8
135(12) 0.00741 120.3 46.4
120(11) 0.00833 120.4 43.9
146(12) 0.00685 120.6 41.1
159(13) 0.00629 120.7 38.3
135(12) 0.00741 120.8 35.5
137(12) 0.00730 121.0 32.8
142(12) 0.00704 121.1 30.1
121(11) 0.00826 121.2 27.5
137(12) 0.00730 121.3 25.0
137(12) 0.00730 121.5 22.7
125(11) 0.00800 121.6 20.5
131(11) 0.00763 121.7 18.5
137(12) 0.00730 121.9 16.7
142(12) 0.00704 122.0 15.0
119(11) 0.00840 122.1 13.5
131(11) 0.00763 122.3 12.1
131(11) 0.00763 122.4 10.9
110(10) 0.00909 122.5 9.8
107(10) 0.00935 122.7 8.8
133(12) 0.00752 122.8 8.0
148(12) 0.00676 122.9 7.3
138(12) 0.00725 123.0 6.6
121(11) 0.00826 123.2 6.0
120(11) 0.00833 123.3 5.5
139(12) 0.00719 123.4 5.1
123(11) 0.00813 123.6 4.7
133(12) 0.00752 123.7 4.4
151(12) 0.00662 123.8 4.1
121(11) 0.00826 124.0 3.8
133(12) 0.00752 124.1 3.6
133(12) 0.00752 124.2 3.4
130(11) 0.00769 124.3 3.2
120(11) 0.00833 124.5 3.0
104(10) 0.00962 124.6 2.9
125(11) 0.00800 124.7 2.7
117(11) 0.00855 124.9 2.6
136(12) 0.00735 125.0 2.5
113(11) 0.00885 125.1 9.7
138(12) 0.00725 125.3 9.7
135(12) 0.00741 125.4 9.7
126(11) 0.00794 125.5 9.7
120(11) 0.00833 125.7 9.7
126(11) 0.00794 125.8 9.7
149(12) 0.00671 125.9 9.7
127(11) 0.00787 126.0 9.7
122(11) 0.00820 126.2 9.8
131(11) 0.00763 126.3 9.8
128(11) 0.00781 126.4 9.9
145(12) 0.00690 126.6 9.9
129(11) 0.00775 126.7 9.9
125(11) 0.00800 126.8 10.0
134(12) 0.00746 127.0 10.1
114(11) 0.00877 127.1 10.1
131(11) 0.00763 127.2 10.2
124(11) 0.00806 127.3 10.3
130(11) 0.00769 127.5 10.3
118(11) 0.00847 127.6 10.4
145(12) 0.00690 127.7 10.5
138(12) 0.00725 127.9 10.6
125(11) 0.00800 128.0 10.7
136(12) 0.00735 128.1 10.8
124(11) 0.00806 128.3 10.9
129(11) 0.00775 128.4 11.0
119(11) 0.00840 128.5 11.1
133(12) 0.00752 128.7 11.2
118(11) 0.00847 128.8 11.3
131(11) 0.00763 128.9 11.4
133(12) 0.00752 129.0 11.5
149(12) 0.00671 129.2 11.7
140(12) 0.00714 129.3 11.8
132(11) 0.00758 129.4 11.9
137(12) 0.00730 129.6 12.1
113(11) 0.00885 129.7 12.2
134(12) 0.00746 129.8 12.4
135(12) 0.00741 130.0 12.5
116(11) 0.00862 130.1 12.7
130(11) 0.00769 130.2 12.8
128(11) 0.00781 130.3 13.0
120(11) 0.00833 130.5 13.2
144(12) 0.00694 130.6 13.3
140(12) 0.00714 130.7 13.5
134(12) 0.00746 130.9 13.7
141(12) 0.00709 131.0 13.9
156(12) 0.00641 131.1 14.1
146(12) 0.00685 131.3 14.3
151(12) 0.00662 131.4 14.5
164(13) 0.00610 131.5 14.7
139(12) 0.00719 131.7 14.9
154(12) 0.00649 131.8 15.1
178(13) 0.00562 131.9 15.3
166(13) 0.00602 132.0 15.6
174(13) 0.00575 132.2 15.8
157(13) 0.00637 132.3 16.0
152(12) 0.00658 132.4 16.3
145(12) 0.00690 132.6 16.6
147(12) 0.00680 132.7 16.8
159(13) 0.00629 132.8 17.1
181(13) 0.00552 133.0 17.4
154(12) 0.00649 133.1 17.7
135(12) 0.00741 133.2 18.0
170(13) 0.00588 133.3 18.3
147(12) 0.00680 133.5 18.6
153(12) 0.00654 133.6 18.9
168(13) 0.00595 133.7 19.2
157(13) 0.00637 133.9 19.6
135(12) 0.00741 134.0 19.9
150(12) 0.00667 134.1 20.3
165(13) 0.00606 134.3 20.7
159(13) 0.00629 134.4 21.0
132(11) 0.00758 134.5 21.4
147(12) 0.00680 134.7 21.8
151(12) 0.00662 134.8 22.3
173(13) 0.00578 134.9 22.7
133(12) 0.00752 135.0 23.1
169(13) 0.00592 135.2 23.6
166(13) 0.00602 135.3 24.1
158(13) 0.00633 135.4 24.5
165(13) 0.00606 135.6 25.0
143(12) 0.00699 135.7 25.6
164(13) 0.00610 135.8 26.1
173(13) 0.00578 136.0 26.7
156(12) 0.00641 136.1 27.2
137(12) 0.00730 136.2 27.8
137(12) 0.00730 136.3 28.4
155(12) 0.00645 136.5 29.1
171(13) 0.00585 136.6 29.7
135(12) 0.00741 136.7 30.4
151(12) 0.00662 136.9 31.1
135(12) 0.00741 137.0 31.8
141(12) 0.00709 137.1 32.6
149(12) 0.00671 137.3 33.4
142(12) 0.00704 137.4 34.2
138(12) 0.00725 137.5 35.0
140(12) 0.00714 137.7 35.9
149(12) 0.00671 137.9 36.8
131(11) 0.00763 138.1 37.7
153(12) 0.00654 138.3 38.7
176(13) 0.00568 138.5 39.7
170(13) 0.00588 138.7 40.8
150(12) 0.00667 138.9 41.9
155(12) 0.00645 139.0 43.0
144(12) 0.00694 139.2 44.2
140(12) 0.00714 139.4 45.5
146(12) 0.00685 139.6 46.8
144(12) 0.00694 139.8 48.1
159(13) 0.00629 140.0 49.5
185(14) 0.00541 140.2 51.0
154(12) 0.00649 140.4 52.6
184(14) 0.00543 140.5 54.2
167(13) 0.00599 140.7 55.9
175(13) 0.00571 140.9 57.7
174(13) 0.00575 141.1 59.5
162(13) 0.00617 141.3 61.5
171(13) 0.00585 141.5 63.5
191(14) 0.00524 141.7 65.7
194(14) 0.00515 141.9 68.0
173(13) 0.00578 142.1 70.4
187(14) 0.00535 142.2 72.9
176(13) 0.00568 142.4 75.6
199(14) 0.00503 142.6 78.4
217(15) 0.00461 142.8 81.4
186(14) 0.00538 143.0 84.5
186(14) 0.00538 143.2 87.8
190(14) 0.00526 143.4 91.4
187(14) 0.00535 143.6 95.1
226(15) 0.00442 143.7 99.1
212(15) 0.00472 143.9 103.4
195(14) 0.00513 144.1 107.9
196(14) 0.00510 144.3 112.7
227(15) 0.00441 144.5 117.9
221(15) 0.00452 144.7 123.4
241(16) 0.00415 144.9 129.3
241(16) 0.00415 145.1 135.7
259(16) 0.00386 145.3 142.5
225(15) 0.00444 145.4 149.8
241(16) 0.00415 145.6 157.8
250(16) 0.00400 145.8 166.4
241(16) 0.00415 146.0 175.7
276(17) 0.00362 146.2 185.8
269(16) 0.00372 146.4 196.8
291(17) 0.003436 146.6 208.8
302(17) 0.003311 146.8 221.9
321(18) 0.003115 146.9 236.3
319(18) 0.003135 147.1 252.1
365(19) 0.002740 147.3 269.6
370(19) 0.002703 147.5 288.9
377(19) 0.002653 147.7 310.4
382(20) 0.002618 147.9 334.4
436(21) 0.002294 148.1 361.2
434(21) 0.002304 148.3 391.3
484(22) 0.002066 148.5 425.3
541(23) 0.001848 148.6 463.8
604(25) 0.001656 148.8 507.8
599(24) 0.001669 149.0 558.2
663(26) 0.001508 149.2 616.4
704(27) 0.001420 149.4 684.1
847(29) 0.001181 149.6 763.3
904(30) 0.001106 149.8 857.0
1065(33) 0.000939 150.0 969.3
1205(35) 0.000830 150.1 1106.4
1463(38) 0.000684 150. 1278.
1641(41) 0.000609 151. 1500.
1953(44) 0.000512 151. 1799.
2424(49) 0.000413 151. 2216.
3047(55) 0.0003282 151. 2810.
3795(62) 0.0002635 151. 3661.
4897(70) 0.0002042 151. 4861.
6572(81) 0.0001522 152. 6495.
8815(94) 0.0001134 152. 8618.
11660(110) 0.0000858 152. 11209.
14930(120) 0.0000670 152. 14101.
18000(130) 0.0000556 152. 16882.
20130(140) 0.0000497 153. 18836.
19760(140) 0.0000506 153. 19215.
17770(130) 0.0000563 153. 17847.
14890(120) 0.0000672 153. 15312.
11860(110) 0.0000843 153. 12397.
9501(97) 0.0001053 154. 9649.
7829(88) 0.0001277 154. 7322.
6161(78) 0.0001623 154. 5486.
5033(71) 0.0001987 154. 4115.
4083(64) 0.0002449 154. 3130.
3305(57) 0.0003026 154. 2439.
2791(53) 0.000358 155. 1956.
2359(49) 0.000424 155. 1614.
2020(45) 0.000495 155. 1363.
1704(41) 0.000587 155. 1173.
1567(40) 0.000638 155. 1023.
1336(37) 0.000749 156. 901.
1142(34) 0.000876 155.8 800.5
1006(32) 0.000994 156.0 715.6
951(31) 0.001052 156.2 643.4
860(29) 0.001163 156.4 581.5
771(28) 0.001297 156.5 528.0
705(27) 0.001418 156.7 481.4
643(25) 0.001555 156.9 440.7
600(24) 0.001667 157.1 404.9
564(24) 0.001773 157.3 373.3
518(23) 0.001931 157.5 345.1
512(23) 0.001953 157.7 320.1
512(23) 0.001953 157.9 297.6
465(22) 0.002151 158.1 277.4
442(21) 0.002262 158.2 259.2
410(20) 0.002439 158.4 242.7
382(20) 0.002618 158.6 227.7
417(20) 0.002398 158.8 214.1
387(20) 0.002584 159.0 201.6
367(19) 0.002725 159.2 190.2
376(19) 0.002660 159.4 179.7
373(19) 0.002681 159.6 170.1
364(19) 0.002747 159.7 161.2
336(18) 0.002976 159.9 153.0
312(18) 0.003205 160.1 145.4
336(18) 0.002976 160.3 138.4
322(18) 0.003106 160.5 131.8
323(18) 0.003096 160.7 125.7
316(18) 0.003165 160.9 120.1
318(18) 0.003145 161.1 114.7
329(18) 0.003039 161.3 109.8
298(17) 0.003356 161.4 105.1
308(18) 0.003247 161.6 100.8
293(17) 0.003413 161.8 97.1
314(18) 0.003185 162.0 93.2
285(17) 0.00351 162.2 89.6
269(16) 0.00372 162.4 86.2
270(16) 0.00370 162.6 82.9
246(16) 0.00407 162.8 79.9
254(16) 0.00394 162.9 77.0
252(16) 0.00397 163.1 74.3
274(17) 0.00365 163.3 71.7
258(16) 0.00388 163.5 69.3
260(16) 0.00385 163.7 66.9
287(17) 0.003484 163.9 64.7
243(16) 0.00412 164.1 62.6
238(15) 0.00420 164.3 60.6
240(15) 0.00417 164.5 58.7
238(15) 0.00420 164.6 56.9
251(16) 0.00398 164.8 55.2
241(16) 0.00415 165.0 64.8
227(15) 0.00441 165.2 63.3
220(15) 0.00455 165.4 61.9
222(15) 0.00450 165.6 60.6
208(14) 0.00481 165.8 59.3
232(15) 0.00431 166.0 58.1
211(15) 0.00474 166.1 56.9
204(14) 0.00490 166.3 55.8
205(14) 0.00488 166.5 54.8
192(14) 0.00521 166.7 53.8
227(15) 0.00441 166.9 52.8
214(15) 0.00467 167.1 51.9
182(13) 0.00549 167.3 51.0
193(14) 0.00518 167.5 50.2
173(13) 0.00578 167.6 49.4
177(13) 0.00565 167.8 48.6
173(13) 0.00578 168.0 47.9
190(14) 0.00526 168.2 47.2
188(14) 0.00532 168.4 46.5
149(12) 0.00671 168.6 45.9
174(13) 0.00575 168.8 45.3
197(14) 0.00508 169.0 44.7
175(13) 0.00571 169.2 44.2
164(13) 0.00610 169.3 43.6
203(14) 0.00493 169.5 43.1
177(13) 0.00565 169.7 42.6
184(14) 0.00543 169.9 42.2
195(14) 0.00513 170.1 41.8
164(13) 0.00610 170.3 41.3
160(13) 0.00625 170.5 40.9
186(14) 0.00538 170.7 40.6
192(14) 0.00521 170.8 40.2
170(13) 0.00588 171.0 39.9
167(13) 0.00599 171.2 39.6
178(13) 0.00562 171.4 39.3
191(14) 0.00524 171.6 39.0
180(13) 0.00556 171.8 38.7
144(12) 0.00694 172.0 38.4
171(13) 0.00585 172.2 38.2
171(13) 0.00585 172.4 38.0
159(13) 0.00629 172.5 37.8
173(13) 0.00578 172.7 37.6
164(13) 0.00610 172.9 37.4
183(14) 0.00546 173.1 37.2
178(13) 0.00562 173.3 37.1
170(13) 0.00588 173.5 36.9
195(14) 0.00513 173.7 36.8
185(14) 0.00541 173.9 36.7
169(13) 0.00592 174.0 36.6
182(13) 0.00549 174.2 36.5
190(14) 0.00526 174.4 36.4
168(13) 0.00595 174.6 36.3
196(14) 0.00510 174.8 36.2
179(13) 0.00559 175.0 36.2
180(13) 0.00556 175.2 36.2
189(14) 0.00529 175.4 36.1
170(13) 0.00588 175.6 36.1
192(14) 0.00521 175.7 36.1
174(13) 0.00575 175.9 36.1
184(14) 0.00543 176.1 36.1
187(14) 0.00535 176.3 36.1
204(14) 0.00490 176.5 36.2
163(13) 0.00614 176.7 36.2
182(13) 0.00549 176.9 36.3
161(13) 0.00621 177.1 36.3
175(13) 0.00571 177.2 36.4
165(13) 0.00606 177.4 36.5
163(13) 0.00614 177.6 36.6
179(13) 0.00559 177.8 36.7
163(13) 0.00614 178.0 36.8
179(13) 0.00559 178.2 36.9
186(14) 0.00538 178.4 37.1
162(13) 0.00617 178.6 37.2
180(13) 0.00556 178.8 37.4
163(13) 0.00614 178.9 37.5
191(14) 0.00524 179.1 37.7
179(13) 0.00559 179.3 37.9
187(14) 0.00535 179.5 38.1
193(14) 0.00518 179.7 38.3
158(13) 0.00633 179.9 38.5
195(14) 0.00513 180.2 38.7
178(13) 0.00562 180.5 39.0
168(13) 0.00595 180.9 39.2
183(14) 0.00546 181.2 39.5
172(13) 0.00581 181.6 39.7
176(13) 0.00568 181.9 40.0
158(13) 0.00633 182.3 40.3
174(13) 0.00575 182.6 40.6
172(13) 0.00581 183.0 40.9
177(13) 0.00565 183.3 41.3
185(14) 0.00541 183.7 41.6
185(14) 0.00541 184.0 41.9
178(13) 0.00562 184.4 42.3
175(13) 0.00571 184.7 42.7
187(14) 0.00535 185.1 43.1
214(15) 0.00467 185.4 43.5
191(14) 0.00524 185.8 43.9
184(14) 0.00543 186.1 44.4
191(14) 0.00524 186.5 44.8
177(13) 0.00565 186.8 45.3
210(14) 0.00476 187.2 45.7
177(13) 0.00565 187.5 46.2
180(13) 0.00556 187.9 46.8
162(13) 0.00617 188.2 47.3
215(15) 0.00465 188.6 47.8
206(14) 0.00485 188.9 48.4
189(14) 0.00529 189.3 49.0
200(14) 0.00500 189.6 49.6
225(15) 0.00444 190.0 50.2
196(14) 0.00510 190.3 50.8
218(15) 0.00459 190.7 51.5
204(14) 0.00490 191.0 52.2
218(15) 0.00459 191.4 52.9
218(15) 0.00459 191.7 53.6
201(14) 0.00498 192.1 54.3
225(15) 0.00444 192.4 55.1
198(14) 0.00505 192.8 55.9
224(15) 0.00446 193.1 56.7
224(15) 0.00446 193.4 57.6
223(15) 0.00448 193.8 58.4
218(15) 0.00459 194.1 59.3
224(15) 0.00446 194.5 60.3
243(16) 0.00412 194.8 61.2
212(15) 0.00472 195.2 62.2
213(15) 0.00469 195.5 63.2
236(15) 0.00424 195.9 64.3
235(15) 0.00426 196.2 65.4
227(15) 0.00441 196.6 66.5
248(16) 0.00403 196.9 67.6
245(16) 0.00408 197.3 68.8
246(16) 0.00407 197.6 70.1
261(16) 0.00383 198.0 71.4
268(16) 0.00373 198.3 72.7
256(16) 0.00391 198.7 74.1
290(17) 0.003448 199.0 75.5
252(16) 0.00397 199.4 76.9
261(16) 0.00383 199.7 78.5
263(16) 0.00380 200.1 80.0
260(16) 0.00385 200.4 81.7
289(17) 0.003460 200.8 83.3
272(16) 0.00368 201.1 85.1
289(17) 0.003460 201.5 86.9
293(17) 0.003413 201.8 88.8
294(17) 0.003401 202.2 90.7
287(17) 0.003484 202.5 92.7
301(17) 0.003322 202.9 94.8
302(17) 0.003311 203.2 97.0
283(17) 0.00353 203.6 99.3
285(17) 0.00351 203.9 101.6
314(18) 0.003185 204.3 104.1
336(18) 0.002976 204.6 106.6
300(17) 0.003333 205.0 109.3
323(18) 0.003096 205.3 112.0
317(18) 0.003155 205.7 114.9
324(18) 0.003086 206.0 117.9
318(18) 0.003145 206.4 121.0
313(18) 0.003195 206.7 124.3
342(18) 0.002924 207.1 127.7
328(18) 0.003049 207.4 131.2
343(19) 0.002915 207.8 134.9
285(17) 0.00351 208.1 138.8
326(18) 0.003067 208.5 142.9
336(18) 0.002976 208.8 147.1
339(18) 0.002950 209.2 151.6
358(19) 0.002793 209.5 156.3
361(19) 0.002770 209.8 161.2
355(19) 0.002817 210.2 166.3
376(19) 0.002660 210.5 171.7
382(20) 0.002618 210.9 177.4
395(20) 0.002532 211.2 183.4
405(20) 0.002469 211.6 189.7
430(21) 0.002326 211.9 196.4
408(20) 0.002451 212.3 203.4
425(21) 0.002353 212.6 210.8
505(22) 0.001980 213.0 218.6
484(22) 0.002066 213.3 226.9
461(21) 0.002169 213.7 235.7
460(21) 0.002174 214.0 245.0
470(22) 0.002128 214.4 254.9
448(21) 0.002232 214.7 265.4
493(22) 0.002028 215.1 276.6
445(21) 0.002247 215.4 288.6
456(21) 0.002193 215.8 301.3
468(22) 0.002137 216.1 314.9
521(23) 0.001919 216.5 329.5
487(22) 0.002053 216.8 345.1
515(23) 0.001942 217.2 361.9
507(23) 0.001972 217.5 379.9
511(23) 0.001957 217.9 399.4
530(23) 0.001887 218.2 420.3
531(23) 0.001883 218.6 443.0
572(24) 0.001748 218.9 467.6
600(24) 0.001667 219.3 494.2
643(25) 0.001555 219.6 523.3
624(25) 0.001603 220.0 554.9
688(26) 0.001453 220.3 589.5
695(26) 0.001439 220.7 627.5
737(27) 0.001357 221.0 669.2
821(29) 0.001218 221.4 715.2
831(29) 0.001203 221.7 766.0
902(30) 0.001109 222.1 822.5
933(31) 0.001072 222.4 885.3
1032(32) 0.000969 222.8 955.7
1152(34) 0.000868 223.1 1034.9
1242(35) 0.000805 223. 1121.
1308(36) 0.000765 224. 1224.
1430(38) 0.000699 224. 1343.
1577(40) 0.000634 225. 1482.
1841(43) 0.000543 225. 1648.
2000(45) 0.000500 225. 1850.
2234(47) 0.000448 226. 2101.
2632(51) 0.000380 226. 2419.
2860(53) 0.0003496 226. 2828.
3417(58) 0.0002927 227. 3358.
4139(64) 0.0002416 227. 4045.
4874(70) 0.0002052 227. 4929.
5922(77) 0.0001689 228. 6053.
7205(85) 0.0001388 228. 7453.
9140(96) 0.0001094 228. 9157.
11360(110) 0.0000880 229. 11175.
14390(120) 0.0000695 229. 13487.
18010(130) 0.0000555 229. 16033.
21440(150) 0.0000466 230. 18690.
24430(160) 0.0000409 230. 21261.
26550(160) 0.0000377 230. 23454.
27020(160) 0.0000370 231. 24925.
26510(160) 0.0000377 231. 25384.
25070(160) 0.0000399 231. 24729.
22360(150) 0.0000447 232. 23104.
19630(140) 0.0000510 232. 20821.
16750(130) 0.0000597 233. 18218.
14350(120) 0.0000697 233. 15570.
12320(110) 0.0000812 233. 13062.
10670(100) 0.0000938 234. 10802.
9026(95) 0.0001108 234. 8843.
7868(89) 0.0001271 234. 7197.
6807(83) 0.0001469 235. 5852.
6001(77) 0.0001666 235. 4778.
5318(73) 0.0001880 235. 3935.
4724(69) 0.0002117 236. 3283.
4168(65) 0.0002399 236. 2781.
3635(60) 0.0002751 236. 2394.
3223(57) 0.0003103 237. 2094.
2978(55) 0.0003358 237. 1858.
2628(51) 0.000381 237. 1669.
2436(49) 0.000411 238. 1515.
2263(48) 0.000442 238. 1388.
1941(44) 0.000515 238. 1282.
1886(43) 0.000530 239. 1194.
1738(42) 0.000575 239. 1121.
1622(40) 0.000617 240. 1061.
1530(39) 0.000654 240. 1014.
1461(38) 0.000684 240. 980.
1399(37) 0.000715 241. 959.
1329(36) 0.000752 241. 949.
1304(36) 0.000767 241. 952.
1231(35) 0.000812 242. 968.
1264(36) 0.000791 242. 995.
1226(35) 0.000816 242.3 1033.8
1322(36) 0.000756 243. 1082.
1230(35) 0.000813 243.0 1136.1
1266(36) 0.000790 243. 1194.
1342(37) 0.000745 244. 1249.
1383(37) 0.000723 244. 1295.
1430(38) 0.000699 244. 1324.
1501(39) 0.000666 245. 1330.
1526(39) 0.000655 245. 1309.
1382(37) 0.000724 245. 1260.
1372(37) 0.000729 246. 1192.
1279(36) 0.000782 246. 1105.
1160(34) 0.000862 246.5 1011.0
1057(33) 0.000946 246.8 914.6
927(30) 0.001079 247.2 820.7
831(29) 0.001203 247.5 732.5
776(28) 0.001289 247.9 651.8
690(26) 0.001449 248.2 579.6
636(25) 0.001572 248.6 516.3
552(23) 0.001812 248.9 461.6
528(23) 0.001894 249.3 414.9
527(23) 0.001898 249.6 375.5
497(22) 0.002012 250.0 342.4
531(23) 0.001883 250.3 314.7
461(21) 0.002169 250.7 291.5
426(21) 0.002347 251.0 271.9
417(20) 0.002398 251.4 255.2
402(20) 0.002488 251.7 240.8
368(19) 0.002717 252.1 228.3
395(20) 0.002532 252.4 217.2
376(19) 0.002660 252.8 207.3
359(19) 0.002786 253.1 198.4
371(19) 0.002695 253.5 190.2
361(19) 0.002770 253.8 182.7
347(19) 0.002882 254.2 175.7
343(19) 0.002915 254.5 169.3
335(18) 0.002985 254.9 163.2
345(19) 0.002899 255.2 157.6
301(17) 0.003322 255.6 152.3
330(18) 0.003030 255.9 147.3
335(18) 0.002985 256.3 142.7
285(17) 0.00351 256.6 138.2
322(18) 0.003106 257.0 134.1
302(17) 0.003311 257.3 130.1
323(18) 0.003096 257.6 126.4
288(17) 0.003472 258.0 122.8
315(18) 0.003175 258.3 119.4
283(17) 0.00353 258.7 116.2
299(17) 0.003344 259.0 113.2
298(17) 0.003356 259.4 110.3
279(17) 0.00358 259.7 107.5
282(17) 0.00355 260.1 104.9
295(17) 0.003390 260.4 102.3
314(18) 0.003185 260.8 99.9
280(17) 0.00357 261.1 97.6
289(17) 0.003460 261.5 95.4
286(17) 0.003497 261.8 93.3
308(18) 0.003247 262.2 91.3
280(17) 0.00357 262.5 89.4
271(16) 0.00369 262.9 87.6
294(17) 0.003401 263.2 85.8
287(17) 0.003484 263.6 84.1
277(17) 0.00361 263.9 82.5
269(16) 0.00372 264.1 80.9
261(16) 0.00383 263.7 79.5
257(16) 0.00389 263.4 78.1
257(16) 0.00389 263.0 76.7
269(16) 0.00372 262.6 75.4
264(16) 0.00379 262.2 74.2
285(17) 0.00351 261.9 73.0
261(16) 0.00383 261.5 71.8
275(17) 0.00364 261.1 70.7
261(16) 0.00383 260.7 69.7
291(17) 0.003436 260.4 68.7
241(16) 0.00415 260.0 67.8
262(16) 0.00382 259.6 66.9
286(17) 0.003497 259.3 66.0
287(17) 0.003484 258.9 65.2
267(16) 0.00375 258.5 64.4
287(17) 0.003484 258.1 63.7
307(18) 0.003257 257.8 63.0
321(18) 0.003115 257.4 62.3
376(19) 0.002660 257.0 61.7
393(20) 0.002545 256.6 61.2
360(19) 0.002778 256.3 60.7
294(17) 0.003401 255.9 60.2
287(17) 0.003484 255.5 59.7
284(17) 0.00352 255.2 59.4
254(16) 0.00394 254.8 59.0
261(16) 0.00383 254.4 58.7
279(17) 0.00358 254.0 58.4
246(16) 0.00407 253.7 58.2
272(16) 0.00368 253.3 58.1
259(16) 0.00386 252.9 58.0
267(16) 0.00375 252.5 57.9
257(16) 0.00389 252.2 57.9
258(16) 0.00388 251.8 57.9
245(16) 0.00408 251.4 58.0
251(16) 0.00398 251.1 58.2
247(16) 0.00405 250.7 58.5
266(16) 0.00376 250.3 58.8
268(16) 0.00373 249.9 59.2
260(16) 0.00385 249.6 59.6
236(15) 0.00424 249.2 60.2
256(16) 0.00391 248.8 60.9
259(16) 0.00386 248.4 61.6
274(17) 0.00365 248.1 62.5
250(16) 0.00400 247.7 63.5
237(15) 0.00422 247.3 64.7
266(16) 0.00376 247.0 66.0
260(16) 0.00385 246.6 67.5
238(15) 0.00420 246.2 69.1
269(16) 0.00372 245.8 71.0
283(17) 0.00353 245.5 73.2
261(16) 0.00383 245.1 75.6
285(17) 0.00351 244.7 78.3
272(16) 0.00368 244.3 81.4
292(17) 0.003425 244.0 84.9
290(17) 0.003448 243.6 89.0
293(17) 0.003413 243.2 93.5
299(17) 0.003344 242.9 98.8
302(17) 0.003311 242.5 104.8
304(17) 0.003289 242.1 111.8
323(18) 0.003096 241.7 119.9
321(18) 0.003115 241.4 129.3
346(19) 0.002890 241.0 140.4
337(18) 0.002967 240.6 153.6
381(20) 0.002625 240.3 169.4
430(21) 0.002326 239.9 188.5
456(21) 0.002193 239.5 211.7
512(23) 0.001953 239.1 240.5
520(23) 0.001923 238.8 276.9
625(25) 0.001600 238.4 324.3
701(26) 0.001427 238.0 388.6
822(29) 0.001217 237.6 480.8
1002(32) 0.000998 237.3 619.9
1275(36) 0.000784 237. 835.
1581(40) 0.000633 237. 1166.
2008(45) 0.000498 236. 1651.
2586(51) 0.000387 236. 2311.
3242(57) 0.0003085 235. 3116.
3897(62) 0.0002566 235. 3911.
4358(66) 0.0002295 235. 4367.
4398(66) 0.0002274 234. 4195.
3727(61) 0.0002683 234. 3514.
2811(53) 0.000356 234. 2683.
2023(45) 0.000494 233. 1943.
1489(39) 0.000672 233. 1375.
1190(34) 0.000840 232.4 974.4
979(31) 0.001021 232.1 708.8
803(28) 0.001245 231.7 537.1
708(27) 0.001412 231.3 425.1
563(24) 0.001776 230.9 348.8
491(22) 0.002037 230.6 293.9
431(21) 0.002320 230.2 252.5
421(21) 0.002375 229.8 220.0
402(20) 0.002488 229.4 193.9
341(18) 0.002933 229.1 172.6
340(18) 0.002941 228.7 154.9
306(17) 0.003268 228.3 140.2
297(17) 0.003367 228.0 127.7
282(17) 0.00355 227.6 117.1
263(16) 0.00380 227.2 108.0
309(18) 0.003236 226.8 100.1
299(17) 0.003344 226.5 93.3
267(16) 0.00375 226.1 87.3
244(16) 0.00410 225.7 82.0
255(16) 0.00392 225.3 77.3
265(16) 0.00377 225.0 73.1
239(15) 0.00418 224.6 69.4
253(16) 0.00395 224.2 66.1
242(16) 0.00413 223.9 63.1
228(15) 0.00439 223.5 60.4
229(15) 0.00437 223.1 57.9
230(15) 0.00435 222.7 55.7
203(14) 0.00493 222.4 53.6
217(15) 0.00461 222.0 51.8
221(15) 0.00452 221.6 50.1
224(15) 0.00446 221.2 48.5
205(14) 0.00488 220.9 47.1
232(15) 0.00431 220.5 45.8
188(14) 0.00532 220.1 44.6
191(14) 0.00524 219.8 43.5
214(15) 0.00467 219.4 42.5
212(15) 0.00472 219.0 41.5
206(14) 0.00485 218.6 40.6
215(15) 0.00465 218.3 39.8
211(15) 0.00474 217.9 39.0
208(14) 0.00481 217.5 38.3
200(14) 0.00500 217.1 37.7
195(14) 0.00513 216.8 37.1
222(15) 0.00450 216.4 36.5
222(15) 0.00450 216.0 36.0
195(14) 0.00513 215.7 35.5
231(15) 0.00433 215.3 35.1
205(14) 0.00488 214.9 34.7
211(15) 0.00474 214.5 34.3
223(15) 0.00448 214.2 34.0
226(15) 0.00442 213.8 33.6
236(15) 0.00424 213.4 33.3
212(15) 0.00472 213.1 33.1
226(15) 0.00442 212.7 32.8
218(15) 0.00459 212.3 32.6
219(15) 0.00457 211.9 32.4
210(14) 0.00476 211.6 32.3
239(15) 0.00418 211.2 32.1
227(15) 0.00441 210.8 32.0
219(15) 0.00457 210.4 31.9
242(16) 0.00413 210.1 31.8
233(15) 0.00429 209.7 31.7
235(15) 0.00426 209.3 31.7
218(15) 0.00459 209.0 31.6
232(15) 0.00431 208.6 31.6
270(16) 0.00370 208.2 31.6
252(16) 0.00397 207.8 31.7
267(16) 0.00375 207.5 31.7
233(15) 0.00429 207.1 31.8
244(16) 0.00410 206.7 31.8
254(16) 0.00394 206.3 31.9
236(15) 0.00424 206.0 32.1
239(15) 0.00418 205.6 32.2
223(15) 0.00448 205.2 32.3
225(15) 0.00444 204.9 32.5
228(15) 0.00439 204.5 32.7
233(15) 0.00429 204.1 32.9
216(15) 0.00463 203.7 33.1
191(14) 0.00524 203.4 33.4
234(15) 0.00427 203.0 33.6
210(14) 0.00476 202.6 33.9
214(15) 0.00467 202.2 34.2
227(15) 0.00441 201.9 34.6
205(14) 0.00488 201.5 34.9
209(14) 0.00478 201.1 35.3
218(15) 0.00459 200.8 35.7
183(14) 0.00546 200.4 36.1
217(15) 0.00461 200.0 36.6
206(14) 0.00485 200.0 37.1
196(14) 0.00510 200.0 37.6
199(14) 0.00503 200.0 38.1
226(15) 0.00442 200.0 38.7
205(14) 0.00488 200.0 39.3
211(15) 0.00474 199.9 40.0
187(14) 0.00535 199.9 40.6
213(15) 0.00469 199.9 41.4
193(14) 0.00518 199.9 42.1
214(15) 0.00467 199.9 42.9
220(15) 0.00455 199.9 43.7
207(14) 0.00483 199.9 44.6
186(14) 0.00538 199.9 45.6
233(15) 0.00429 199.9 46.6
215(15) 0.00465 199.8 47.6
228(15) 0.00439 199.8 48.7
217(15) 0.00461 199.8 49.9
214(15) 0.00467 199.8 51.1
225(15) 0.00444 199.8 52.4
236(15) 0.00424 199.8 53.8
258(16) 0.00388 199.8 55.3
228(15) 0.00439 199.8 56.8
218(15) 0.00459 199.8 58.5
232(15) 0.00431 199.7 60.2
226(15) 0.00442 199.7 62.1
213(15) 0.00469 199.7 64.0
219(15) 0.00457 199.7 66.1
247(16) 0.00405 199.7 68.3
233(15) 0.00429 199.7 70.7
242(16) 0.00413 199.7 73.2
216(15) 0.00463 199.7 75.9
222(15) 0.00450 199.7 78.8
253(16) 0.00395 199.6 81.9
241(16) 0.00415 199.6 85.2
264(16) 0.00379 199.6 88.7
249(16) 0.00402 199.6 92.5
262(16) 0.00382 199.6 96.6
255(16) 0.00392 199.6 101.0
270(16) 0.00370 199.6 105.8
276(17) 0.00362 199.6 110.9
300(17) 0.003333 199.6 116.4
301(17) 0.003322 199.5 122.5
322(18) 0.003106 199.5 129.1
311(18) 0.003215 199.5 136.2
291(17) 0.003436 199.5 144.1
305(17) 0.003279 199.5 152.8
339(18) 0.002950 199.5 162.4
330(18) 0.003030 199.5 173.2
363(19) 0.002755 199.5 185.4
367(19) 0.002725 199.4 199.2
396(20) 0.002525 199.4 215.2
405(20) 0.002469 199.4 233.8
461(21) 0.002169 199.4 255.6
460(21) 0.002174 199.4 275.6
506(22) 0.001976 199.4 306.7
495(22) 0.002020 199.4 344.3
564(24) 0.001773 199.4 389.7
579(24) 0.001727 199.4 444.5
640(25) 0.001563 199.3 510.7
706(27) 0.001416 199.3 590.2
812(28) 0.001232 199.3 684.9
935(31) 0.001070 199.3 796.7
1013(32) 0.000987 199.3 927.1
1094(33) 0.000914 199.3 1077.3
1356(37) 0.000737 199. 1248.
1523(39) 0.000657 199. 1439.
1730(42) 0.000578 199. 1648.
1970(44) 0.000508 199. 1874.
2330(48) 0.000429 199. 2111.
2659(52) 0.000376 199. 2352.
3087(56) 0.0003239 199. 2590.
3341(58) 0.0002993 199. 2811.
3514(59) 0.0002846 199. 3001.
3602(60) 0.0002776 199. 3144.
3626(60) 0.0002758 199. 3227.
3605(60) 0.0002774 199. 3241.
3367(58) 0.0002970 199. 3184.
3155(56) 0.0003170 199. 3062.
2985(55) 0.0003350 199. 2888.
2732(52) 0.000366 199. 2677.
2551(51) 0.000392 199. 2445.
2272(48) 0.000440 199. 2203.
2052(45) 0.000487 199. 1964.
1862(43) 0.000537 199. 1733.
1637(40) 0.000611 199. 1517.
1542(39) 0.000649 199. 1319.
1340(37) 0.000746 199. 1140.
1300(36) 0.000769 199. 982.
1176(34) 0.000850 199.0 844.3
1128(34) 0.000887 199.0 725.5
1018(32) 0.000982 199.0 624.4
922(30) 0.001085 199.0 539.2
883(30) 0.001133 199.0 468.1
839(29) 0.001192 199.0 409.1
770(28) 0.001299 198.9 360.2
747(27) 0.001339 198.9 319.9
709(27) 0.001410 198.9 286.4
682(26) 0.001466 198.9 258.5
608(25) 0.001645 198.9 235.1
567(24) 0.001764 198.9 215.3
508(23) 0.001968 198.9 198.4
501(22) 0.001996 198.9 183.7
486(22) 0.002058 198.9 170.9
457(21) 0.002188 198.8 159.5
442(21) 0.002262 198.8 149.4
412(20) 0.002427 198.8 140.3
408(20) 0.002451 198.8 132.0
416(20) 0.002404 198.8 124.5
381(20) 0.002625 198.8 117.7
347(19) 0.002882 198.8 111.3
324(18) 0.003086 198.8 105.5
362(19) 0.002762 198.8 100.2
334(18) 0.002994 198.7 95.2
373(19) 0.002681 198.7 90.6
334(18) 0.002994 198.7 86.3
304(17) 0.003289 198.7 82.3
356(19) 0.002809 198.7 78.6
320(18) 0.003125 198.7 75.2
322(18) 0.003106 198.7 71.9
285(17) 0.00351 198.7 68.9
296(17) 0.003378 198.7 66.0
281(17) 0.00356 198.6 63.4
238(15) 0.00420 198.6 60.8
242(16) 0.00413 198.6 58.5
249(16) 0.00402 198.6 56.3
246(16) 0.00407 198.6 54.2
222(15) 0.00450 198.6 52.2
257(16) 0.00389 198.6 50.3
251(16) 0.00398 198.6 48.5
210(14) 0.00476 198.6 46.8
251(16) 0.00398 198.5 45.2
231(15) 0.00433 198.5 43.7
220(15) 0.00455 198.5 42.3
229(15) 0.00437 198.5 40.9
226(15) 0.00442 198.5 39.6
223(15) 0.00448 198.5 38.4
224(15) 0.00446 198.5 37.2
232(15) 0.00431 198.5 36.1
236(15) 0.00424 198.5 35.0
214(15) 0.00467 198.4 34.0
219(15) 0.00457 198.4 33.0
241(16) 0.00415 198.4 32.1
231(15) 0.00433 198.4 31.2
237(15) 0.00422 198.4 30.3
200(14) 0.00500 198.4 29.5
217(15) 0.00461 198.4 28.7
209(14) 0.00478 198.4 28.0
229(15) 0.00437 198.4 27.3
206(14) 0.00485 198.3 26.6
214(15) 0.00467 198.3 25.9
203(14) 0.00493 198.3 25.3
208(14) 0.00481 198.3 24.6
203(14) 0.00493 198.3 24.1
209(14) 0.00478 198.3 23.5
216(15) 0.00463 198.3 22.9
210(14) 0.00476 198.3 22.4
212(15) 0.00472 198.3 21.9
187(14) 0.00535 198.2 21.4
182(13) 0.00549 198.2 20.9
202(14) 0.00495 198.2 20.5
210(14) 0.00476 198.2 20.1
198(14) 0.00505 198.2 19.6
187(14) 0.00535 198.2 19.2
199(14) 0.00503 198.2 18.8
218(15) 0.00459 198.2 18.4
225(15) 0.00444 198.2 18.1
206(14) 0.00485 198.1 17.7
205(14) 0.00488 198.1 17.4
183(14) 0.00546 198.1 17.0
208(14) 0.00481 198.2 16.7
192(14) 0.00521 198.3 16.4
226(15) 0.00442 198.4 16.1
211(15) 0.00474 198.4 15.8
185(14) 0.00541 198.5 15.5
216(15) 0.00463 198.6 15.3
208(14) 0.00481 198.7 15.0
195(14) 0.00513 198.7 14.7
193(14) 0.00518 198.8 14.5
204(14) 0.00490 198.9 14.3
203(14) 0.00493 199.0 14.0
210(14) 0.00476 199.0 13.8
195(14) 0.00513 199.1 13.6
204(14) 0.00490 199.2 13.4
195(14) 0.00513 199.3 13.2
184(14) 0.00543 199.3 13.0
196(14) 0.00510 199.4 12.8
220(15) 0.00455 199.5 12.6
193(14) 0.00518 199.6 12.4
209(14) 0.00478 199.6 12.2
212(15) 0.00472 199.7 12.1
187(14) 0.00535 199.8 11.9
191(14) 0.00524 199.9 11.7
203(14) 0.00493 199.9 11.6
231(15) 0.00433 200.0 11.4
194(14) 0.00515 200.1 11.3
211(15) 0.00474 200.2 11.1
208(14) 0.00481 200.3 11.0
200(14) 0.00500 200.3 10.9
214(15) 0.00467 200.4 10.7
190(14) 0.00526 200.5 10.6
203(14) 0.00493 200.6 10.5
183(14) 0.00546 200.6 10.4
188(14) 0.00532 200.7 10.3
183(14) 0.00546 200.8 10.2
196(14) 0.00510 200.9 10.1
223(15) 0.00448 200.9 10.0
208(14) 0.00481 201.0 9.9
193(14) 0.00518 201.1 9.8
204(14) 0.00490 201.2 9.7
202(14) 0.00495 201.2 9.6
189(14) 0.00529 201.3 9.5
202(14) 0.00495 201.4 9.4
182(13) 0.00549 201.5 9.3
188(14) 0.00532 201.5 9.3
190(14) 0.00526 201.6 9.2
182(13) 0.00549 201.7 9.1
196(14) 0.00510 201.8 9.1
221(15) 0.00452 201.8 9.0
213(15) 0.00469 201.9 8.9
226(15) 0.00442 202.0 8.9
205(14) 0.00488 202.1 8.8
218(15) 0.00459 202.1 8.8
186(14) 0.00538 202.2 8.7
192(14) 0.00521 202.3 8.7
192(14) 0.00521 202.4 8.6
212(15) 0.00472 202.4 8.6
202(14) 0.00495 202.5 8.6
207(14) 0.00483 202.6 8.5
205(14) 0.00488 202.7 8.5
199(14) 0.00503 202.7 8.5
220(15) 0.00455 202.8 8.4
210(14) 0.00476 202.9 8.4
210(14) 0.00476 203.0 8.4
206(14) 0.00485 203.0 8.4
208(14) 0.00481 203.1 8.4
194(14) 0.00515 203.2 8.4
207(14) 0.00483 203.3 8.4
214(15) 0.00467 203.3 8.4
199(14) 0.00503 203.4 8.4
224(15) 0.00446 203.5 8.4
195(14) 0.00513 203.6 8.4
215(15) 0.00465 203.6 8.4
206(14) 0.00485 203.7 8.4
192(14) 0.00521 203.8 8.4
204(14) 0.00490 203.9 8.5
195(14) 0.00513 203.9 8.5
223(15) 0.00448 204.0 8.5
207(14) 0.00483 204.1 8.6
198(14) 0.00505 204.2 8.6
198(14) 0.00505 204.2 8.7
213(15) 0.00469 204.3 8.7
190(14) 0.00526 204.3 8.8
198(14) 0.00505 204.4 8.9
201(14) 0.00498 204.4 8.9
240(15) 0.00417 204.5 9.0
216(15) 0.00463 204.6 9.1
208(14) 0.00481 204.6 9.2
185(14) 0.00541 204.7 9.3
198(14) 0.00505 204.7 9.4
220(15) 0.00455 204.8 9.5
199(14) 0.00503 204.8 9.6
239(15) 0.00418 204.9 9.8
238(15) 0.00420 204.9 9.9
221(15) 0.00452 205.0 10.1
214(15) 0.00467 205.0 10.3
216(15) 0.00463 205.1 10.4
219(15) 0.00457 205.1 10.6
225(15) 0.00444 205.2 10.9
209(14) 0.00478 205.3 11.1
214(15) 0.00467 205.3 11.3
212(15) 0.00472 205.4 11.6
224(15) 0.00446 205.4 11.9
230(15) 0.00435 205.5 12.2
210(14) 0.00476 205.5 12.5
224(15) 0.00446 205.6 12.9
206(14) 0.00485 205.6 13.3
228(15) 0.00439 205.7 13.7
213(15) 0.00469 205.7 14.2
209(14) 0.00478 205.8 14.7
206(14) 0.00485 205.9 15.3
233(15) 0.00429 205.9 16.0
258(16) 0.00388 206.0 16.7
236(15) 0.00424 206.0 17.6
207(14) 0.00483 206.1 18.5
241(16) 0.00415 206.1 19.6
239(15) 0.00418 206.2 20.8
246(16) 0.00407 206.2 22.2
229(15) 0.00437 206.3 23.7
247(16) 0.00405 206.3 25.5
221(15) 0.00452 206.4 27.5
266(16) 0.00376 206.4 29.8
266(16) 0.00376 206.5 32.4
276(17) 0.00362 206.6 35.3
245(16) 0.00408 206.6 38.6
258(16) 0.00388 206.7 42.2
288(17) 0.003472 206.7 46.3
265(16) 0.00377 206.8 50.8
275(17) 0.00364 206.8 55.7
280(17) 0.00357 206.9 61.1
279(17) 0.00358 206.9 67.0
273(17) 0.00366 207.0 73.4
286(17) 0.003497 207.0 80.3
280(17) 0.00357 207.1 87.6
295(17) 0.003390 207.1 95.3
270(16) 0.00370 207.2 103.4
283(17) 0.00353 207.3 111.8
299(17) 0.003344 207.3 120.4
324(18) 0.003086 207.4 129.2
316(18) 0.003165 207.4 138.0
329(18) 0.003039 207.5 146.6
339(18) 0.002950 207.5 155.0
340(18) 0.002941 207.6 162.8
354(19) 0.002825 207.6 169.9
337(18) 0.002967 207.7 176.1
365(19) 0.002740 207.7 181.1
367(19) 0.002725 207.8 184.7
348(19) 0.002874 207.8 186.8
395(20) 0.002532 207.9 187.3
380(19) 0.002632 208.0 186.2
372(19) 0.002688 208.0 183.5
407(20) 0.002457 208.1 179.3
375(19) 0.002667 208.1 173.8
374(19) 0.002674 208.2 167.2
373(19) 0.002681 208.2 159.7
335(18) 0.002985 208.3 151.6
353(19) 0.002833 208.3 143.1
340(18) 0.002941 208.4 134.3
361(19) 0.002770 208.4 125.5
343(19) 0.002915 208.5 116.7
323(18) 0.003096 208.5 108.1
356(19) 0.002809 208.6 99.8
320(18) 0.003125 208.7 91.8
341(18) 0.002933 208.7 84.2
336(18) 0.002976 208.8 77.0
319(18) 0.003135 208.8 70.3
312(18) 0.003205 208.9 64.1
319(18) 0.003135 208.9 58.3
322(18) 0.003106 209.0 53.0
318(18) 0.003145 209.0 48.2
318(18) 0.003145 209.1 43.8
305(17) 0.003279 209.1 39.9
327(18) 0.003058 209.2 36.3
336(18) 0.002976 209.3 33.2
299(17) 0.003344 209.3 30.3
271(16) 0.00369 209.4 27.8
325(18) 0.003077 209.4 25.6
304(17) 0.003289 209.5 23.6
334(18) 0.002994 209.5 21.9
304(17) 0.003289 209.6 20.3
325(18) 0.003077 209.6 19.0
313(18) 0.003195 209.7 17.8
308(18) 0.003247 209.7 16.7
304(17) 0.003289 209.8 15.8
307(18) 0.003257 209.8 14.9
319(18) 0.003135 209.9 14.2
305(17) 0.003279 210.0 13.5
321(18) 0.003115 210.0 12.9
319(18) 0.003135 210.1 12.3
300(17) 0.003333 210.1 11.8
301(17) 0.003322 210.2 11.3
298(17) 0.003356 210.2 10.9
281(17) 0.00356 210.3 10.5
310(18) 0.003226 210.3 10.1
305(17) 0.003279 210.4 9.8
294(17) 0.003401 210.4 9.4
288(17) 0.003472 210.5 9.1
303(17) 0.003300 210.5 8.8
302(17) 0.003311 210.6 8.6
279(17) 0.00358 210.7 8.3
266(16) 0.00376 210.7 8.1
280(17) 0.00357 210.8 7.8
272(16) 0.00368 210.8 7.6
268(16) 0.00373 210.9 7.4
277(17) 0.00361 210.9 7.2
257(16) 0.00389 211.0 7.0
264(16) 0.00379 211.0 6.8
269(16) 0.00372 211.1 6.7
273(17) 0.00366 211.1 6.5
271(16) 0.00369 211.2 6.3
252(16) 0.00397 211.2 6.2
262(16) 0.00382 211.3 6.0
231(15) 0.00433 211.4 5.9
254(16) 0.00394 211.4 5.8
242(16) 0.00413 211.5 5.6
252(16) 0.00397 211.5 5.5
275(17) 0.00364 211.6 5.4
242(16) 0.00413 211.6 5.3
240(15) 0.00417 211.7 5.2
231(15) 0.00433 211.7 5.1
241(16) 0.00415 211.8 5.0
245(16) 0.00408 211.8 4.9
233(15) 0.00429 211.9 4.8
233(15) 0.00429 212.0 4.7
260(16) 0.00385 212.0 4.6
262(16) 0.00382 212.1 4.5
236(15) 0.00424 212.1 4.4
238(15) 0.00420 212.2 4.4
245(16) 0.00408 212.2 4.3
214(15) 0.00467 212.3 4.2
239(15) 0.00418 212.3 4.1
253(16) 0.00395 212.4 4.1
227(15) 0.00441 212.4 4.0
230(15) 0.00435 212.5 3.9
258(16) 0.00388 212.5 3.9
257(16) 0.00389 212.6 3.8
235(15) 0.00426 212.7 3.7
287(17) 0.003484 212.7 3.7
293(17) 0.003413 212.8 3.6
272(16) 0.00368 212.8 3.6
318(18) 0.003145 212.9 3.5
354(19) 0.002825 212.9 3.5
361(19) 0.002770 213.0 3.4
359(19) 0.002786 213.0 3.4
364(19) 0.002747 213.1 3.3
327(18) 0.003058 213.1 3.3
295(17) 0.003390 213.2 3.2
257(16) 0.00389 213.2 3.2
246(16) 0.00407 213.3 3.2
267(16) 0.00375 213.4 3.1
251(16) 0.00398 213.4 3.1
234(15) 0.00427 213.5 3.0
261(16) 0.00383 213.5 3.0
251(16) 0.00398 213.6 3.0
225(15) 0.00444 213.6 2.9
224(15) 0.00446 213.7 2.9
249(16) 0.00402 213.7 2.8
236(15) 0.00424 213.8 2.8
241(16) 0.00415 213.8 2.8
196(14) 0.00510 213.9 2.8
232(15) 0.00431 213.9 2.7
215(15) 0.00465 214.0 2.7
186(14) 0.00538 214.1 2.7
212(15) 0.00472 214.1 2.6
221(15) 0.00452 214.2 2.6
216(15) 0.00463 214.2 2.6
244(16) 0.00410 214.3 2.5
224(15) 0.00446 214.3 2.5
213(15) 0.00469 214.4 2.5
210(14) 0.00476 214.4 2.5
222(15) 0.00450 214.5 2.4
196(14) 0.00510 214.5 2.4
186(14) 0.00538 214.6 2.4
219(15) 0.00457 214.6 2.4
227(15) 0.00441 214.7 2.3
211(15) 0.00474 214.8 2.3
208(14) 0.00481 214.8 2.3
200(14) 0.00500 214.9 2.3
224(15) 0.00446 214.9 2.3
228(15) 0.00439 215.0 2.2
215(15) 0.00465 215.0 2.2
207(14) 0.00483 215.1 2.2
215(15) 0.00465 215.1 2.2
216(15) 0.00463 215.2 2.2
210(14) 0.00476 215.2 2.1
198(14) 0.00505 215.3 2.1
218(15) 0.00459 215.4 2.1
200(14) 0.00500 215.4 2.1
219(15) 0.00457 215.5 2.1
230(15) 0.00435 215.5 2.0
238(15) 0.00420 215.6 2.0
213(15) 0.00469 215.6 2.0
217(15) 0.00461 215.7 2.0
246(16) 0.00407 215.7 2.0
209(14) 0.00478 215.8 2.0
217(15) 0.00461 215.8 1.9
213(15) 0.00469 215.9 1.9
199(14) 0.00503 215.9 1.9
207(14) 0.00483 216.0 1.9
224(15) 0.00446 216.1 1.9
213(15) 0.00469 216.1 1.9
218(15) 0.00459 216.2 1.9
223(15) 0.00448 216.2 1.8
246(16) 0.00407 216.3 1.8
195(14) 0.00513 216.3 1.8
212(15) 0.00472 216.3 1.8
209(14) 0.00478 216.3 1.8
215(15) 0.00465 216.3 1.8
219(15) 0.00457 216.3 1.8
195(14) 0.00513 216.3 1.8
233(15) 0.00429 216.3 1.7
230(15) 0.00435 216.3 1.7
221(15) 0.00452 216.3 1.7
232(15) 0.00431 216.3 1.7
221(15) 0.00452 216.3 1.7
227(15) 0.00441 216.3 1.7
202(14) 0.00495 216.3 1.7
228(15) 0.00439 216.3 1.7
231(15) 0.00433 216.3 1.6
216(15) 0.00463 216.3 1.6
210(14) 0.00476 216.3 1.6
253(16) 0.00395 216.3 1.6
231(15) 0.00433 216.3 1.6
220(15) 0.00455 216.3 1.6
221(15) 0.00452 216.3 1.6
235(15) 0.00426 216.3 1.6
224(15) 0.00446 216.3 1.6
217(15) 0.00461 216.3 1.6
211(15) 0.00474 216.3 1.6
209(14) 0.00478 216.3 1.5
262(16) 0.00382 216.3 1.5
250(16) 0.00400 216.3 1.5
203(14) 0.00493 216.3 1.5
210(14) 0.00476 216.3 1.5
235(15) 0.00426 216.3 1.5
227(15) 0.00441 216.3 1.5
212(15) 0.00472 216.3 1.5
203(14) 0.00493 216.3 1.5
208(14) 0.00481 216.3 1.5
216(15) 0.00463 216.3 1.5
234(15) 0.00427 216.3 1.5
227(15) 0.00441 216.3 1.4
216(15) 0.00463 216.3 1.4
233(15) 0.00429 216.3 1.4
234(15) 0.00427 216.3 1.4
223(15) 0.00448 216.3 1.4
222(15) 0.00450 216.3 1.4
215(15) 0.00465 216.3 1.4
217(15) 0.00461 216.3 1.4
229(15) 0.00437 216.3 1.4
216(15) 0.00463 216.3 1.4
188(14) 0.00532 216.3 1.4
212(15) 0.00472 216.3 1.4
222(15) 0.00450 216.3 1.4
216(15) 0.00463 216.3 1.4
206(14) 0.00485 216.3 1.4
225(15) 0.00444 216.3 1.4
206(14) 0.00485 216.3 1.4
231(15) 0.00433 216.3 1.3
199(14) 0.00503 216.3 1.3
217(15) 0.00461 216.3 1.3
211(15) 0.00474 216.3 1.3
214(15) 0.00467 216.3 1.3
238(15) 0.00420 216.3 1.3
232(15) 0.00431 216.3 1.3
236(15) 0.00424 216.3 1.3
232(15) 0.00431 216.3 1.3
230(15) 0.00435 216.3 1.3
224(15) 0.00446 216.3 1.3
212(15) 0.00472 216.3 1.3
209(14) 0.00478 216.3 1.3
216(15) 0.00463 216.3 1.3
226(15) 0.00442 216.3 1.3
226(15) 0.00442 216.3 1.3
212(15) 0.00472 216.3 1.3
225(15) 0.00444 216.3 1.3
218(15) 0.00459 216.3 1.3
227(15) 0.00441 216.3 2.4
216(15) 0.00463 216.3 2.4
210(14) 0.00476 216.3 2.4
213(15) 0.00469 216.3 2.4
202(14) 0.00495 216.3 2.4
220(15) 0.00455 216.3 2.5
220(15) 0.00455 216.3 2.5
208(14) 0.00481 216.3 2.5
219(15) 0.00457 216.3 2.5
210(14) 0.00476 216.3 2.5
235(15) 0.00426 216.3 2.5
230(15) 0.00435 216.3 2.5
224(15) 0.00446 216.3 2.5
227(15) 0.00441 216.3 2.5
244(16) 0.00410 216.3 2.5
234(15) 0.00427 216.3 2.6
233(15) 0.00429 216.3 2.6
232(15) 0.00431 216.3 2.6
218(15) 0.00459 216.3 2.6
196(14) 0.00510 216.3 2.6
229(15) 0.00437 216.3 2.6
231(15) 0.00433 216.3 2.6
218(15) 0.00459 216.3 2.6
204(14) 0.00490 216.3 2.6
199(14) 0.00503 216.3 2.6
213(15) 0.00469 216.3 2.8
207(14) 0.00483 216.3 2.8
209(14) 0.00478 216.3 2.8
205(14) 0.00488 216.3 2.8
221(15) 0.00452 216.3 2.8
199(14) 0.00503 216.3 2.8
196(14) 0.00510 216.3 2.9
241(16) 0.00415 216.3 2.9
203(14) 0.00493 216.3 2.9
211(15) 0.00474 216.3 2.9
232(15) 0.00431 216.3 2.9
210(14) 0.00476 216.3 2.9
206(14) 0.00485 216.3 2.9
242(16) 0.00413 216.3 2.9
204(14) 0.00490 216.5 3.0
208(14) 0.00481 216.7 3.0
222(15) 0.00450 216.9 3.0
230(15) 0.00435 217.1 3.0
216(15) 0.00463 217.3 3.0
200(14) 0.00500 217.5 3.0
205(14) 0.00488 217.7 3.1
212(15) 0.00472 217.9 3.1
221(15) 0.00452 218.1 3.1
217(15) 0.00461 218.3 3.1
199(14) 0.00503 218.5 3.1
205(14) 0.00488 218.7 3.2
186(14) 0.00538 218.9 3.2
206(14) 0.00485 219.1 3.2
209(14) 0.00478 219.3 4.6
213(15) 0.00469 219.5 4.6
207(14) 0.00483 219.7 4.7
202(14) 0.00495 219.9 4.7
182(13) 0.00549 220.1 4.8
203(14) 0.00493 220.3 4.8
193(14) 0.00518 220.5 4.9
224(15) 0.00446 220.6 4.9
219(15) 0.00457 220.8 4.9
203(14) 0.00493 221.0 5.0
217(15) 0.00461 221.2 5.0
222(15) 0.00450 221.4 5.3
227(15) 0.00441 221.6 5.3
257(16) 0.00389 221.8 5.4
241(16) 0.00415 222.0 5.4
243(16) 0.00412 222.2 5.5
223(15) 0.00448 222.4 5.5
227(15) 0.00441 222.6 5.6
233(15) 0.00429 222.8 5.7
212(15) 0.00472 223.0 5.7
231(15) 0.00433 223.2 5.8
229(15) 0.00437 223.4 5.9
180(13) 0.00556 223.6 5.9
209(14) 0.00478 223.8 6.0
213(15) 0.00469 224.0 6.1
202(14) 0.00495 224.2 6.2
234(15) 0.00427 224.4 6.3
194(14) 0.00515 224.6 6.4
207(14) 0.00483 224.8 6.5
221(15) 0.00452 225.0 6.6
210(14) 0.00476 225.2 6.7
181(13) 0.00552 225.4 6.8
223(15) 0.00448 225.6 6.9
188(14) 0.00532 225.8 7.0
215(15) 0.00465 226.0 7.2
206(14) 0.00485 226.2 7.3
241(16) 0.00415 226.4 7.5
191(14) 0.00524 226.6 7.7
222(15) 0.00450 226.8 7.8
212(15) 0.00472 227.0 8.1
215(15) 0.00465 227.2 8.3
207(14) 0.00483 227.4 8.5
237(15) 0.00422 227.6 8.8
231(15) 0.00433 227.7 9.1
240(15) 0.00417 227.9 9.4
243(16) 0.00412 228.1 9.7
226(15) 0.00442 228.3 10.1
232(15) 0.00431 228.5 10.5
215(15) 0.00465 228.7 11.0
229(15) 0.00437 228.9 11.5
230(15) 0.00435 229.1 12.0
228(15) 0.00439 229.3 12.6
225(15) 0.00444 229.5 13.2
222(15) 0.00450 229.7 13.9
253(16) 0.00395 229.9 14.6
240(15) 0.00417 230.1 15.4
234(15) 0.00427 230.3 16.2
232(15) 0.00431 230.5 17.1
214(15) 0.00467 230.7 18.0
224(15) 0.00446 230.9 19.0
233(15) 0.00429 231.1 20.0
253(16) 0.00395 231.3 21.0
254(16) 0.00394 231.5 22.1
226(15) 0.00442 231.7 23.2
275(17) 0.00364 231.9 24.3
223(15) 0.00448 232.1 25.4
240(15) 0.00417 232.3 26.6
258(16) 0.00388 232.5 27.7
245(16) 0.00408 232.7 28.8
258(16) 0.00388 232.9 29.8
264(16) 0.00379 233.1 30.8
230(15) 0.00435 233.3 31.7
251(16) 0.00398 233.5 32.5
263(16) 0.00380 233.7 33.2
255(16) 0.00392 233.9 33.7
275(17) 0.00364 234.1 34.1
242(16) 0.00413 234.3 34.4
255(16) 0.00392 234.5 34.4
246(16) 0.00407 234.6 34.4
245(16) 0.00408 234.8 34.1
239(15) 0.00418 235.0 33.8
235(15) 0.00426 235.2 33.3
252(16) 0.00397 235.4 32.7
235(15) 0.00426 235.6 32.0
255(16) 0.00392 235.8 31.2
228(15) 0.00439 236.0 30.4
256(16) 0.00391 236.2 29.5
220(15) 0.00455 236.4 28.6
251(16) 0.00398 236.6 27.7
239(15) 0.00418 236.8 26.8
234(15) 0.00427 237.0 26.0
235(15) 0.00426 237.2 25.1
229(15) 0.00437 237.4 24.3
249(16) 0.00402 237.6 23.6
236(15) 0.00424 237.8 22.8
244(16) 0.00410 238.0 22.2
249(16) 0.00402 238.2 21.5
262(16) 0.00382 238.4 21.0
250(16) 0.00400 238.6 20.5
221(15) 0.00452 238.8 20.0
267(16) 0.00375 239.0 19.6
254(16) 0.00394 239.2 19.2
222(15) 0.00450 239.4 18.9
254(16) 0.00394 239.6 18.7
235(15) 0.00426 239.8 18.5
203(14) 0.00493 240.0 18.4
243(16) 0.00412 240.2 18.3
238(15) 0.00420 240.4 18.2
225(15) 0.00444 240.6 18.2
226(15) 0.00442 240.8 18.3
225(15) 0.00444 241.0 18.4
203(14) 0.00493 241.2 18.5
223(15) 0.00448 241.4 18.6
205(14) 0.00488 241.6 18.8
191(14) 0.00524 241.7 19.1
223(15) 0.00448 241.9 19.3
220(15) 0.00455 242.1 19.6
238(15) 0.00420 242.3 20.0
237(15) 0.00422 242.5 20.3
222(15) 0.00450 242.7 20.7
236(15) 0.00424 242.9 21.2
224(15) 0.00446 243.1 21.6
226(15) 0.00442 243.3 22.1
232(15) 0.00431 243.5 22.7
232(15) 0.00431 243.7 23.3
249(16) 0.00402 243.9 23.9
231(15) 0.00433 244.1 24.5
249(16) 0.00402 244.3 25.3
223(15) 0.00448 244.5 26.0
242(16) 0.00413 244.7 26.8
244(16) 0.00410 244.9 27.7
252(16) 0.00397 245.1 28.6
211(15) 0.00474 245.3 29.6
233(15) 0.00429 245.5 30.6
216(15) 0.00463 245.7 31.8
234(15) 0.00427 245.9 33.0
230(15) 0.00435 246.1 34.3
248(16) 0.00403 246.3 35.7
259(16) 0.00386 246.5 37.2
233(15) 0.00429 246.7 38.9
236(15) 0.00424 246.9 40.6
234(15) 0.00427 247.1 42.6
230(15) 0.00435 247.3 44.6
248(16) 0.00403 247.5 46.9
247(16) 0.00405 247.7 49.4
250(16) 0.00400 247.9 52.1
236(15) 0.00424 248.1 55.1
240(15) 0.00417 248.3 58.4
261(16) 0.00383 248.5 62.0
257(16) 0.00389 248.6 66.1
301(17) 0.003322 248.8 70.6
289(17) 0.003460 249.0 75.6
292(17) 0.003425 249.2 81.2
307(18) 0.003257 249.4 87.5
274(17) 0.00365 249.6 94.7
281(17) 0.00356 249.8 102.9
307(18) 0.003257 250.0 112.3
314(18) 0.003185 250.2 123.1
355(19) 0.002817 250.4 135.6
367(19) 0.002725 250.6 150.3
371(19) 0.002695 250.8 167.6
405(20) 0.002469 251.0 188.2
461(21) 0.002169 251.2 213.0
490(22) 0.002041 251.4 243.3
504(22) 0.001984 251.6 281.0
551(23) 0.001815 251.8 329.3
640(25) 0.001563 252.0 393.6
758(28) 0.001319 252.2 483.6
851(29) 0.001175 252.4 615.3
990(31) 0.001010 252.6 813.2
1242(35) 0.000805 253. 1110.
1579(40) 0.000633 253. 1541.
2033(45) 0.000492 253. 2133.
2669(52) 0.000375 253. 2882.
3397(58) 0.0002944 254. 3718.
4482(67) 0.0002231 254. 4447.
4997(71) 0.0002001 254. 4758.
4915(70) 0.0002035 254. 4468.
3901(62) 0.0002563 254. 3750.
2962(54) 0.0003376 255. 2913.
2336(48) 0.000428 255. 2159.
1778(42) 0.000562 255. 1562.
1460(38) 0.000685 255. 1125.
1205(35) 0.000830 255.4 824.7
1026(32) 0.000975 255.6 624.2
851(29) 0.001175 255.7 490.8
747(27) 0.001339 255.9 400.1
685(26) 0.001460 256.1 335.3
615(25) 0.001626 256.3 287.0
534(23) 0.001873 256.5 249.3
486(22) 0.002058 256.7 218.9
443(21) 0.002257 256.9 194.3
426(21) 0.002347 257.1 173.9
437(21) 0.002288 257.3 156.9
393(20) 0.002545 257.5 142.5
372(19) 0.002688 257.7 130.3
368(19) 0.002717 257.9 119.9
342(18) 0.002924 258.1 110.9
364(19) 0.002747 258.3 103.1
331(18) 0.003021 258.5 96.3
295(17) 0.003390 258.7 90.4
312(18) 0.003205 258.9 85.2
296(17) 0.003378 259.1 80.6
289(17) 0.003460 259.3 76.6
269(16) 0.00372 259.5 73.1
277(17) 0.00361 259.7 69.9
301(17) 0.003322 259.9 67.0
271(16) 0.00369 260.1 64.6
284(17) 0.00352 260.3 62.4
283(17) 0.00353 260.5 60.4
278(17) 0.00360 260.7 58.7
299(17) 0.003344 260.9 57.2
301(17) 0.003322 261.1 55.9
285(17) 0.00351 261.3 54.7
297(17) 0.003367 261.5 53.7
273(17) 0.00366 261.7 52.9
281(17) 0.00356 261.9 52.1
274(17) 0.00365 262.1 51.5
263(16) 0.00380 262.3 51.0
286(17) 0.003497 262.5 50.6
264(16) 0.00379 262.7 50.4
255(16) 0.00392 262.8 50.2
274(17) 0.00365 263.0 50.1
252(16) 0.00397 263.2 50.2
258(16) 0.00388 263.4 50.3
266(16) 0.00376 263.6 50.6
248(16) 0.00403 263.8 51.0
272(16) 0.00368 264.0 51.5
276(17) 0.00362 264.2 52.1
262(16) 0.00382 264.4 52.9
301(17) 0.003322 264.6 53.8
253(16) 0.00395 264.8 54.8
279(17) 0.00358 264.9 55.9
293(17) 0.003413 265.0 57.0
267(16) 0.00375 265.1 58.2
234(15) 0.00427 265.2 59.2
248(16) 0.00403 265.3 60.2
267(16) 0.00375 265.4 61.1
280(17) 0.00357 265.5 62.0
278(17) 0.00360 265.6 63.0
282(17) 0.00355 265.7 64.1
281(17) 0.00356 265.8 65.4
282(17) 0.00355 265.9 66.8
269(16) 0.00372 266.0 68.4
279(17) 0.00358 266.1 70.2
312(18) 0.003205 266.2 72.2
309(18) 0.003236 266.3 74.4
263(16) 0.00380 266.4 76.8
293(17) 0.003413 266.5 79.3
297(17) 0.003367 266.6 82.1
279(17) 0.00358 266.6 85.2
280(17) 0.00357 266.7 88.4
278(17) 0.00360 266.8 92.0
305(17) 0.003279 266.9 95.8
323(18) 0.003096 267.0 99.9
345(19) 0.002899 267.1 104.4
332(18) 0.003012 267.2 109.2
327(18) 0.003058 267.3 114.4
326(18) 0.003067 267.4 120.1
373(19) 0.002681 267.5 126.3
348(19) 0.002874 267.6 133.1
351(19) 0.002849 267.7 140.5
351(19) 0.002849 267.8 148.7
384(20) 0.002604 267.9 157.8
407(20) 0.002457 268.0 167.9
411(20) 0.002433 268.1 179.3
398(20) 0.002513 268.2 192.3
438(21) 0.002283 268.3 207.2
446(21) 0.002242 268.4 224.4
487(22) 0.002053 268.5 244.6
514(23) 0.001946 268.6 268.6
527(23) 0.001898 268.7 297.2
563(24) 0.001776 268.8 331.5
608(25) 0.001645 268.9 372.8
663(26) 0.001508 269.0 422.5
681(26) 0.001468 269.1 482.4
742(27) 0.001348 269.2 554.1
855(29) 0.001170 269.2 639.5
885(30) 0.001130 269.3 740.2
1032(32) 0.000969 269.4 857.7
1108(33) 0.000903 269.5 993.3
1315(36) 0.000760 270. 1148.
1495(39) 0.000669 270. 1321.
1681(41) 0.000595 270. 1512.
2007(45) 0.000498 270. 1719.
2325(48) 0.000430 270. 1938.
2687(52) 0.000372 270. 2165.
3031(55) 0.0003299 270. 2392.
3245(57) 0.0003082 270. 2610.
3382(58) 0.0002957 270. 2805.
3400(58) 0.0002941 270. 2965.
3362(58) 0.0002974 271. 3076.
3371(58) 0.0002966 271. 3127.
3312(58) 0.0003019 271. 3112.
3179(56) 0.0003146 271. 3033.
2875(54) 0.0003478 271. 2899.
2643(51) 0.000378 271. 2721.
2389(49) 0.000419 271. 2514.
2146(46) 0.000466 271. 2291.
1999(45) 0.000500 271. 2064.
1881(43) 0.000532 271. 1840.
1723(42) 0.000580 272. 1626.
1518(39) 0.000659 272. 1426.
1447(38) 0.000691 272. 1243.
1326(36) 0.000754 272. 1079.
1182(34) 0.000846 271.9 933.4
1063(33) 0.000941 272.0 806.5
1034(32) 0.000967 272.1 697.2
981(31) 0.001019 272.2 604.1
863(29) 0.001159 272.3 525.6
838(29) 0.001193 272.4 459.9
774(28) 0.001292 272.5 405.5
761(28) 0.001314 272.6 360.2
712(27) 0.001404 272.7 322.8
653(26) 0.001531 272.8 291.8
638(25) 0.001567 272.9 266.0
590(24) 0.001695 273.0 244.4
564(24) 0.001773 273.1 226.3
523(23) 0.001912 273.2 210.8
547(23) 0.001828 273.3 197.6
466(22) 0.002146 273.4 186.2
456(21) 0.002193 273.5 176.2
498(22) 0.002008 273.6 167.5
470(22) 0.002128 273.7 159.8
447(21) 0.002237 273.8 153.1
436(21) 0.002294 273.9 147.1
396(20) 0.002525 274.0 142.0
414(20) 0.002415 274.1 137.5
386(20) 0.002591 274.2 133.7
389(20) 0.002571 274.3 130.5
370(19) 0.002703 274.3 128.1
373(19) 0.002681 274.4 126.3
407(20) 0.002457 274.5 125.3
412(20) 0.002427 274.6 125.1
399(20) 0.002506 274.7 125.7
400(20) 0.002500 274.8 127.3
395(20) 0.002532 274.9 130.0
422(21) 0.002370 275.0 133.9
397(20) 0.002519 275.1 139.1
372(19) 0.002688 275.2 145.7
391(20) 0.002558 275.3 153.9
413(20) 0.002421 275.4 163.7
443(21) 0.002257 275.5 175.3
414(20) 0.002415 275.6 188.6
468(22) 0.002137 275.7 203.7
436(21) 0.002294 275.8 220.6
472(22) 0.002119 275.9 239.0
513(23) 0.001949 276.0 258.9
527(23) 0.001898 276.1 279.8
524(23) 0.001908 276.2 301.3
588(24) 0.001701 276.3 323.0
596(24) 0.001678 276.4 343.9
638(25) 0.001567 276.5 363.2
629(25) 0.001590 276.6 379.8
648(25) 0.001543 276.7 392.8
688(26) 0.001453 276.8 401.3
704(27) 0.001420 276.9 404.6
721(27) 0.001387 276.9 402.5
715(27) 0.001399 277.0 395.5
681(26) 0.001468 277.1 384.3
644(25) 0.001553 277.2 369.9
627(25) 0.001595 277.3 353.4
628(25) 0.001592 277.4 335.9
602(25) 0.001661 277.5 318.4
534(23) 0.001873 277.6 301.7
493(22) 0.002028 277.7 286.3
492(22) 0.002033 277.8 272.8
478(22) 0.002092 277.9 261.5
458(21) 0.002183 278.0 252.6
443(21) 0.002257 278.1 246.2
433(21) 0.002309 278.2 242.5
432(21) 0.002315 278.3 241.3
448(21) 0.002232 278.4 242.6
457(21) 0.002188 278.5 246.2
426(21) 0.002347 278.6 251.9
462(21) 0.002164 278.7 259.4
475(22) 0.002105 278.8 268.5
495(22) 0.002020 278.9 278.6
534(23) 0.001873 279.0 289.5
562(24) 0.001779 279.1 300.7
564(24) 0.001773 279.2 311.5
580(24) 0.001724 279.3 321.6
577(24) 0.001733 279.4 330.2
563(24) 0.001776 279.4 336.8
573(24) 0.001745 279.5 341.1
537(23) 0.001862 279.6 342.5
551(23) 0.001815 279.7 340.8
535(23) 0.001869 279.8 336.1
534(23) 0.001873 279.9 328.5
518(23) 0.001931 280.0 318.4
485(22) 0.002062 280.1 306.0
472(22) 0.002119 280.2 291.9
461(21) 0.002169 280.3 276.7
438(21) 0.002283 280.4 260.6
421(21) 0.002375 280.5 244.2
443(21) 0.002257 280.6 227.8
406(20) 0.002463 280.7 211.6
417(20) 0.002398 280.8 195.9
391(20) 0.002558 280.9 180.8
353(19) 0.002833 281.0 166.5
368(19) 0.002717 281.1 153.1
381(20) 0.002625 281.2 140.7
338(18) 0.002959 281.3 129.2
338(18) 0.002959 281.4 118.7
336(18) 0.002976 281.5 109.2
333(18) 0.003003 281.6 100.7
294(17) 0.003401 281.7 93.0
319(18) 0.003135 281.8 86.2
351(19) 0.002849 281.9 80.3
341(18) 0.002933 282.0 75.0
306(17) 0.003268 282.0 70.4
291(17) 0.003436 282.1 66.5
281(17) 0.00356 282.2 63.1
308(18) 0.003247 282.3 60.2
303(17) 0.003300 282.4 57.7
315(18) 0.003175 282.5 55.6
283(17) 0.00353 282.6 53.8
277(17) 0.00361 282.7 52.4
294(17) 0.003401 282.8 51.2
278(17) 0.00360 282.9 50.3
293(17) 0.003413 283.0 49.6
296(17) 0.003378 282.4 49.1
284(17) 0.00352 281.8 48.8
291(17) 0.003436 281.2 48.7
302(17) 0.003311 280.6 48.8
280(17) 0.00357 280.0 49.2
275(17) 0.00364 279.4 49.8
285(17) 0.00351 278.8 50.7
306(17) 0.003268 278.1 52.0
285(17) 0.00351 277.5 53.7
295(17) 0.003390 276.9 56.0
284(17) 0.00352 276.3 59.0
312(18) 0.003205 275.7 63.1
356(19) 0.002809 275.1 68.6
334(18) 0.002994 274.5 76.1
362(19) 0.002762 273.9 86.6
374(19) 0.002674 273.3 102.3
411(20) 0.002433 272.7 127.6
482(22) 0.002075 272.1 170.6
604(25) 0.001656 271.5 244.6
749(27) 0.001335 270.8 365.0
965(31) 0.001036 270.2 536.9
1165(34) 0.000858 269.6 721.8
1165(34) 0.000858 269.0 795.1
1032(32) 0.000969 268.4 679.7
770(28) 0.001299 267.8 488.4
641(25) 0.001560 267.2 326.9
503(22) 0.001988 266.6 217.7
462(21) 0.002164 266.0 151.6
392(20) 0.002551 265.4 112.8
334(18) 0.002994 264.8 89.2
331(18) 0.003021 264.2 73.8
315(18) 0.003175 263.6 63.0
264(16) 0.00379 262.9 54.9
295(17) 0.003390 262.3 48.6
267(16) 0.00375 261.7 43.6
299(17) 0.003344 261.1 39.6
260(16) 0.00385 260.5 36.3
254(16) 0.00394 259.9 33.5
256(16) 0.00391 259.3 31.2
249(16) 0.00402 258.7 29.1
250(16) 0.00400 258.1 27.4
264(16) 0.00379 257.5 25.8
261(16) 0.00383 256.9 24.5
257(16) 0.00389 256.3 23.3
256(16) 0.00391 255.6 22.2
258(16) 0.00388 255.0 21.2
262(16) 0.00382 254.4 20.3
251(16) 0.00398 253.8 19.5
255(16) 0.00392 253.2 18.7
279(17) 0.00358 252.6 18.0
241(16) 0.00415 252.0 17.4
252(16) 0.00397 251.4 16.8
238(15) 0.00420 250.8 16.3
228(15) 0.00439 250.2 15.8
236(15) 0.00424 249.6 15.3
240(15) 0.00417 249.0 14.9
240(15) 0.00417 248.4 14.4
261(16) 0.00383 247.7 14.1
246(16) 0.00407 247.1 13.7
282(17) 0.00355 246.5 13.4
265(16) 0.00377 245.9 13.0
234(15) 0.00427 245.3 12.7
266(16) 0.00376 244.7 12.5
284(17) 0.00352 244.1 12.2
261(16) 0.00383 243.5 11.9
268(16) 0.00373 242.9 11.7
264(16) 0.00379 242.3 11.5
260(16) 0.00385 241.7 11.2
222(15) 0.00450 241.1 11.0
258(16) 0.00388 240.4 10.8
258(16) 0.00388 239.8 10.6
269(16) 0.00372 239.2 10.5
238(15) 0.00420 238.6 10.3
254(16) 0.00394 238.0 10.1
233(15) 0.00429 237.4 10.0
251(16) 0.00398 236.8 9.8
241(16) 0.00415 236.2 9.7
258(16) 0.00388 235.6 9.6
263(16) 0.00380 235.0 9.4
248(16) 0.00403 234.4 9.3
228(15) 0.00439 233.8 9.2
259(16) 0.00386 233.2 9.1
256(16) 0.00391 232.5 8.9
238(15) 0.00420 231.9 8.8
241(16) 0.00415 231.3 8.7
251(16) 0.00398 230.7 8.6
233(15) 0.00429 230.1 8.5
219(15) 0.00457 229.5 8.5
230(15) 0.00435 228.9 8.4
227(15) 0.00441 228.5 8.3
223(15) 0.00448 228.7 8.2
261(16) 0.00383 228.9 8.1
256(16) 0.00391 229.1 8.1
249(16) 0.00402 229.3 8.0
237(15) 0.00422 229.5 7.9
244(16) 0.00410 229.7 7.9
232(15) 0.00431 229.9 7.8
244(16) 0.00410 230.1 7.8
248(16) 0.00403 230.3 7.7
244(16) 0.00410 230.5 7.7
246(16) 0.00407 230.6 7.6
228(15) 0.00439 230.8 7.6
235(15) 0.00426 231.0 7.6
247(16) 0.00405 231.2 7.5
244(16) 0.00410 231.4 7.5
242(16) 0.00413 231.6 7.5
211(15) 0.00474 231.8 7.4
216(15) 0.00463 232.0 7.4
242(16) 0.00413 232.2 7.4
238(15) 0.00420 232.4 7.4
244(16) 0.00410 232.6 7.4
232(15) 0.00431 232.8 7.4
237(15) 0.00422 233.0 7.4
225(15) 0.00444 233.2 7.4
242(16) 0.00413 233.4 7.5
228(15) 0.00439 233.6 7.5
232(15) 0.00431 233.8 7.5
235(15) 0.00426 234.0 7.6
268(16) 0.00373 234.2 7.6
248(16) 0.00403 234.4 7.7
240(15) 0.00417 234.6 7.7
231(15) 0.00433 234.8 7.8
238(15) 0.00420 235.0 7.8
257(16) 0.00389 235.2 7.9
241(16) 0.00415 235.4 8.0
222(15) 0.00450 235.6 8.1
250(16) 0.00400 235.8 8.2
249(16) 0.00402 235.9 8.2
275(17) 0.00364 236.1 8.3
233(15) 0.00429 236.3 8.4
250(16) 0.00400 236.5 8.5
260(16) 0.00385 236.7 8.5
230(15) 0.00435 236.9 8.6
254(16) 0.00394 237.1 8.6
234(15) 0.00427 237.3 8.7
239(15) 0.00418 237.5 8.7
236(15) 0.00424 237.7 8.7
260(16) 0.00385 237.9 8.7
237(15) 0.00422 238.1 8.7
235(15) 0.00426 238.3 8.7
236(15) 0.00424 238.5 8.7
236(15) 0.00424 238.7 8.6
243(16) 0.00412 238.9 8.6
208(14) 0.00481 239.1 8.6
239(15) 0.00418 239.3 8.5
257(16) 0.00389 239.5 8.5
252(16) 0.00397 239.7 8.5
247(16) 0.00405 239.9 8.5
238(15) 0.00420 240.1 8.5
237(15) 0.00422 240.3 8.4
238(15) 0.00420 240.5 8.5
263(16) 0.00380 240.7 8.5
258(16) 0.00388 240.9 8.5
242(16) 0.00413 241.0 8.5
218(15) 0.00459 241.2 8.6
248(16) 0.00403 241.4 8.6
234(15) 0.00427 241.6 8.7
220(15) 0.00455 241.8 8.8
233(15) 0.00429 242.0 8.9
245(16) 0.00408 242.2 9.0
209(14) 0.00478 242.4 9.1
195(14) 0.00513 242.6 9.3
237(15) 0.00422 242.8 9.4
243(16) 0.00412 243.0 9.6
247(16) 0.00405 243.2 9.8
240(15) 0.00417 243.4 10.0
250(16) 0.00400 243.6 10.3
211(15) 0.00474 243.8 10.6
245(16) 0.00408 244.0 10.9
241(16) 0.00415 244.2 11.2
242(16) 0.00413 244.4 11.6
239(15) 0.00418 244.6 12.0
228(15) 0.00439 244.8 12.5
220(15) 0.00455 245.0 13.0
228(15) 0.00439 245.2 13.5
220(15) 0.00455 245.4 14.1
227(15) 0.00441 245.6 14.8
242(16) 0.00413 245.8 15.6
239(15) 0.00418 246.0 16.4
245(16) 0.00408 246.2 17.4
258(16) 0.00388 246.3 18.5
258(16) 0.00388 246.5 19.7
287(17) 0.003484 246.7 21.1
276(17) 0.00362 246.9 22.7
279(17) 0.00358 247.1 24.6
249(16) 0.00402 247.3 26.7
241(16) 0.00415 247.5 29.2
237(15) 0.00422 247.7 32.2
261(16) 0.00383 247.9 35.7
253(16) 0.00395 248.1 39.9
288(17) 0.003472 248.3 45.0
292(17) 0.003425 248.5 51.4
335(18) 0.002985 248.7 59.6
285(17) 0.00351 248.9 70.4
323(18) 0.003096 249.1 85.5
364(19) 0.002747 249.3 107.5
426(21) 0.002347 249.5 140.4
455(21) 0.002198 249.7 189.3
529(23) 0.001890 249.9 259.9
657(26) 0.001522 250.1 356.6
737(27) 0.001357 250.3 479.5
959(31) 0.001043 250.5 618.7
1136(34) 0.000880 250.7 745.7
1222(35) 0.000818 250.9 811.9
1068(33) 0.000936 251.1 781.1
937(31) 0.001067 251.3 671.3
759(28) 0.001318 251.4 532.1
644(25) 0.001553 251.6 401.1
526(23) 0.001901 251.8 294.2
462(21) 0.002164 252.0 213.9
415(20) 0.002410 252.2 157.5
397(20) 0.002519 252.4 119.3
351(19) 0.002849 252.6 93.7
340(18) 0.002941 252.8 76.5
284(17) 0.00352 253.0 64.3
267(16) 0.00375 253.2 55.4
297(17) 0.003367 253.4 48.5
273(17) 0.00366 253.6 43.0
279(17) 0.00358 253.8 38.6
264(16) 0.00379 254.0 34.9
286(17) 0.003497 254.2 31.9
284(17) 0.00352 254.4 29.3
269(16) 0.00372 254.6 27.2
244(16) 0.00410 254.8 25.4
250(16) 0.00400 255.0 23.8
254(16) 0.00394 255.2 22.4
234(15) 0.00427 255.4 21.3
264(16) 0.00379 255.6 20.3
259(16) 0.00386 255.8 19.5
263(16) 0.00380 256.0 18.7
263(16) 0.00380 256.2 18.1
227(15) 0.00441 256.4 17.6
254(16) 0.00394 256.6 17.1
229(15) 0.00437 256.7 16.8
245(16) 0.00408 256.9 16.5
226(15) 0.00442 257.1 16.3
279(17) 0.00358 257.3 16.1
242(16) 0.00413 257.5 16.0
254(16) 0.00394 257.7 15.9
241(16) 0.00415 257.9 15.9
245(16) 0.00408 258.1 16.0
234(15) 0.00427 258.3 16.1
269(16) 0.00372 258.5 16.3
240(15) 0.00417 258.7 16.5
268(16) 0.00373 258.7 16.8
251(16) 0.00398 258.7 17.2
242(16) 0.00413 258.6 17.6
266(16) 0.00376 258.6 18.1
229(15) 0.00437 258.5 18.6
258(16) 0.00388 258.5 19.3
250(16) 0.00400 258.4 20.0
241(16) 0.00415 258.4 20.8
241(16) 0.00415 258.3 21.6
257(16) 0.00389 258.3 22.6
249(16) 0.00402 258.2 23.6
265(16) 0.00377 258.2 24.8
243(16) 0.00412 258.1 26.1
262(16) 0.00382 258.1 27.4
263(16) 0.00380 258.0 28.9
259(16) 0.00386 258.0 30.5
269(16) 0.00372 257.9 32.2
262(16) 0.00382 257.9 34.0
244(16) 0.00410 257.8 35.9
268(16) 0.00373 257.8 38.0
275(17) 0.00364 257.7 40.2
285(17) 0.00351 257.7 42.5
271(16) 0.00369 257.6 44.9
283(17) 0.00353 257.6 47.4
283(17) 0.00353 257.5 50.0
279(17) 0.00358 257.5 52.8
258(16) 0.00388 257.4 55.6
263(16) 0.00380 257.4 58.5
273(17) 0.00366 257.3 61.5
301(17) 0.003322 257.3 64.6
307(18) 0.003257 257.2 67.7
309(18) 0.003236 257.2 70.9
322(18) 0.003106 257.1 74.1
314(18) 0.003185 257.1 77.3
327(18) 0.003058 257.0 80.4
319(18) 0.003135 257.0 83.5
341(18) 0.002933 256.9 86.6
332(18) 0.003012 256.9 89.5
339(18) 0.002950 256.8 92.3
336(18) 0.002976 256.8 94.9
358(19) 0.002793 256.7 97.4
335(18) 0.002985 256.7 99.6
333(18) 0.003003 256.6 101.5
344(19) 0.002907 256.6 103.1
347(19) 0.002882 256.5 104.4
314(18) 0.003185 256.5 105.4
347(19) 0.002882 256.4 106.1
358(19) 0.002793 256.4 106.4
328(18) 0.003049 256.3 106.4
354(19) 0.002825 256.3 106.2
350(19) 0.002857 256.2 105.9
357(19) 0.002801 256.2 105.6
363(19) 0.002755 256.1 105.5
347(19) 0.002882 256.1 105.8
367(19) 0.002725 256.0 106.8
369(19) 0.002710 256.0 108.5
368(19) 0.002717 255.9 110.8
315(18) 0.003175 255.9 112.9
345(19) 0.002899 255.8 113.4
351(19) 0.002849 255.8 110.8
341(18) 0.002933 255.7 104.8
324(18) 0.003086 255.7 96.8
342(18) 0.002924 255.7 88.5
339(18) 0.002950 255.6 80.8
318(18) 0.003145 255.6 74.0
316(18) 0.003165 255.5 68.2
311(18) 0.003215 255.5 63.3
320(18) 0.003125 255.4 59.0
313(18) 0.003195 255.4 55.2
312(18) 0.003205 255.3 51.8
319(18) 0.003135 255.3 48.7
313(18) 0.003195 255.2 45.7
321(18) 0.003115 255.2 42.9
314(18) 0.003185 255.1 40.3
312(18) 0.003205 255.1 37.9
296(17) 0.003378 255.0 35.6
275(17) 0.00364 255.0 33.4
271(16) 0.00369 254.9 31.4
268(16) 0.00373 254.9 29.5
301(17) 0.003322 254.8 27.7
278(17) 0.00360 254.8 26.0
272(16) 0.00368 254.7 24.4
266(16) 0.00376 254.7 23.0
268(16) 0.00373 254.6 21.6
277(17) 0.00361 254.6 20.4
273(17) 0.00366 254.5 19.2
268(16) 0.00373 254.5 18.2
265(16) 0.00377 254.4 17.2
286(17) 0.003497 254.4 16.2
266(16) 0.00376 254.3 15.4
288(17) 0.003472 254.3 14.6
286(17) 0.003497 254.2 13.9
248(16) 0.00403 254.2 13.2
268(16) 0.00373 254.1 12.6
278(17) 0.00360 254.1 12.1
285(17) 0.00351 254.0 11.6
303(17) 0.003300 254.0 11.1
274(17) 0.00365 253.9 10.7
267(16) 0.00375 253.9 10.3
272(16) 0.00368 253.8 9.9
251(16) 0.00398 253.8 9.6
264(16) 0.00379 253.7 9.2
292(17) 0.003425 253.7 8.9
246(16) 0.00407 253.6 8.7
281(17) 0.00356 253.6 8.4
269(16) 0.00372 253.5 8.2
266(16) 0.00376 253.5 8.0
242(16) 0.00413 253.4 7.8
278(17) 0.00360 253.4 7.6
280(17) 0.00357 253.3 7.4
259(16) 0.00386 253.3 7.2
262(16) 0.00382 253.2 7.0
282(17) 0.00355 253.2 6.9
248(16) 0.00403 253.1 6.7
249(16) 0.00402 253.1 6.6
266(16) 0.00376 253.0 6.5
242(16) 0.00413 253.0 6.4
238(15) 0.00420 252.9 6.2
271(16) 0.00369 252.9 6.1
267(16) 0.00375 252.8 6.0
247(16) 0.00405 252.8 5.9
257(16) 0.00389 252.7 5.8
226(15) 0.00442 252.7 5.7
266(16) 0.00376 252.7 5.6
278(17) 0.00360 252.8 5.6
252(16) 0.00397 252.8 5.5
263(16) 0.00380 252.8 5.4
283(17) 0.00353 252.8 5.3
248(16) 0.00403 252.9 5.3
260(16) 0.00385 252.9 5.2
272(16) 0.00368 252.9 5.1
269(16) 0.00372 252.9 5.1
256(16) 0.00391 253.0 5.0
261(16) 0.00383 253.0 5.0
274(17) 0.00365 253.0 4.9
276(17) 0.00362 253.1 4.9
271(16) 0.00369 253.1 4.8
261(16) 0.00383 253.1 4.8
272(16) 0.00368 253.1 4.7
292(17) 0.003425 253.2 4.7
283(17) 0.00353 253.2 4.7
289(17) 0.003460 253.2 4.6
261(16) 0.00383 253.2 4.6
282(17) 0.00355 253.3 4.6
281(17) 0.00356 253.3 4.5
254(16) 0.00394 253.3 4.5
278(17) 0.00360 253.4 4.5
284(17) 0.00352 253.4 4.5
257(16) 0.00389 253.4 4.4
256(16) 0.00391 253.4 4.4
269(16) 0.00372 253.5 4.4
270(16) 0.00370 253.5 4.4
255(16) 0.00392 253.5 4.4
245(16) 0.00408 253.5 4.4
295(17) 0.003390 253.6 4.4
259(16) 0.00386 253.6 4.4
282(17) 0.00355 253.6 4.4
263(16) 0.00380 253.6 4.4
281(17) 0.00356 253.7 4.4
263(16) 0.00380 253.7 4.4
274(17) 0.00365 253.7 4.5
236(15) 0.00424 253.8 4.5
275(17) 0.00364 253.8 4.5
266(16) 0.00376 253.8 4.6
268(16) 0.00373 253.8 4.6
278(17) 0.00360 253.9 4.6
271(16) 0.00369 253.9 4.7
250(16) 0.00400 253.9 4.7
310(18) 0.003226 253.9 4.8
268(16) 0.00373 254.0 4.9
277(17) 0.00361 254.0 5.0
260(16) 0.00385 254.0 5.0
252(16) 0.00397 254.1 5.1
261(16) 0.00383 254.1 5.2
284(17) 0.00352 254.1 5.4
283(17) 0.00353 254.1 5.5
295(17) 0.003390 254.2 5.7
290(17) 0.003448 254.2 5.8
272(16) 0.00368 254.2 6.0
258(16) 0.00388 254.2 6.2
279(17) 0.00358 254.3 6.5
297(17) 0.003367 254.3 6.7
292(17) 0.003425 254.3 7.1
264(16) 0.00379 254.4 7.4
261(16) 0.00383 254.4 7.9
272(16) 0.00368 254.4 8.4
289(17) 0.003460 254.4 9.1
295(17) 0.003390 254.5 9.9
273(17) 0.00366 254.5 10.9
271(16) 0.00369 254.5 12.2
309(18) 0.003236 254.5 13.7
268(16) 0.00373 254.6 15.6
273(17) 0.00366 254.6 17.9
303(17) 0.003300 254.6 20.7
294(17) 0.003401 254.7 23.9
301(17) 0.003322 254.7 27.7
306(17) 0.003268 254.7 32.1
295(17) 0.003390 254.7 37.0
285(17) 0.00351 254.8 42.4
299(17) 0.003344 254.8 48.1
315(18) 0.003175 254.8 53.9
330(18) 0.003030 254.8 59.5
331(18) 0.003021 254.9 64.6
334(18) 0.002994 254.9 68.7
343(19) 0.002915 254.9 71.4
352(19) 0.002841 255.0 72.2
319(18) 0.003135 255.0 71.0
309(18) 0.003236 255.0 68.1
325(18) 0.003077 255.0 63.9
325(18) 0.003077 255.1 58.7
305(17) 0.003279 255.1 53.0
326(18) 0.003067 255.1 47.3
307(18) 0.003257 255.1 41.7
296(17) 0.003378 255.2 36.5
315(18) 0.003175 255.2 31.8
286(17) 0.003497 255.2 27.7
302(17) 0.003311 255.3 24.1
275(17) 0.00364 255.3 21.0
296(17) 0.003378 255.3 18.4
281(17) 0.00356 255.3 16.4
277(17) 0.00361 255.4 14.7
288(17) 0.003472 255.4 13.3
268(16) 0.00373 255.4 12.3
302(17) 0.003311 255.4 11.5
280(17) 0.00357 255.5 10.9
268(16) 0.00373 255.5 10.5
262(16) 0.00382 255.5 10.1
291(17) 0.003436 255.6 9.9
269(16) 0.00372 255.6 9.8
266(16) 0.00376 255.6 9.7
268(16) 0.00373 255.6 9.7
260(16) 0.00385 255.7 9.7
276(17) 0.00362 255.7 10.2
292(17) 0.003425 255.7 10.3
257(16) 0.00389 255.7 10.5
270(16) 0.00370 255.8 10.7
272(16) 0.00368 255.8 10.9
261(16) 0.00383 255.8 11.1
284(17) 0.00352 255.9 11.4
268(16) 0.00373 255.9 11.7
295(17) 0.003390 255.9 12.0
280(17) 0.00357 255.9 12.3
281(17) 0.00356 256.0 12.7
273(17) 0.00366 256.0 13.1
275(17) 0.00364 256.0 13.4
260(16) 0.00385 256.0 13.8
284(17) 0.00352 256.1 14.2
263(16) 0.00380 256.1 14.6
288(17) 0.003472 256.1 15.0
258(16) 0.00388 256.2 15.4
278(17) 0.00360 256.2 15.8
285(17) 0.00351 256.2 16.5
282(17) 0.00355 256.2 16.9
286(17) 0.003497 256.3 17.2
258(16) 0.00388 256.3 17.6
285(17) 0.00351 256.3 17.9
277(17) 0.00361 256.3 18.1
272(16) 0.00368 256.4 18.3
282(17) 0.00355 256.4 18.5
265(16) 0.00377 256.4 18.6
245(16) 0.00408 256.5 18.7
267(16) 0.00375 256.5 18.7
278(17) 0.00360 256.5 18.7
284(17) 0.00352 256.5 18.6
293(17) 0.003413 256.6 18.4
265(16) 0.00377 256.6 18.2
272(16) 0.00368 256.6 18.0
266(16) 0.00376 256.6 17.7
291(17) 0.003436 256.7 17.4
277(17) 0.00361 256.7 17.1
282(17) 0.00355 256.7 16.7
254(16) 0.00394 256.8 16.3
268(16) 0.00373 256.8 15.9
276(17) 0.00362 256.8 15.4
269(16) 0.00372 256.8 15.0
259(16) 0.00386 256.9 14.5
272(16) 0.00368 256.9 14.1
264(16) 0.00379 256.9 13.6
273(17) 0.00366 256.9 13.1
265(16) 0.00377 257.0 12.7
285(17) 0.00351 257.0 12.2
261(16) 0.00383 257.0 11.8
287(17) 0.003484 257.1 11.3
272(16) 0.00368 257.1 10.9
294(17) 0.003401 257.1 10.5
260(16) 0.00385 257.1 10.1
281(17) 0.00356 257.2 9.7
268(16) 0.00373 257.2 9.3
257(16) 0.00389 257.2 9.0
272(16) 0.00368 257.2 8.6
269(16) 0.00372 257.3 8.3
270(16) 0.00370 257.3 8.0
286(17) 0.003497 257.3 7.7
271(16) 0.00369 257.4 7.4
281(17) 0.00356 257.4 7.2
296(17) 0.003378 257.4 7.9
290(17) 0.003448 257.4 7.7
286(17) 0.003497 257.5 7.5
282(17) 0.00355 257.5 7.3
304(17) 0.003289 257.5 7.1
268(16) 0.00373 257.5 6.9
272(16) 0.00368 257.6 6.8
288(17) 0.003472 257.6 6.6
243(16) 0.00412 257.6 6.5
262(16) 0.00382 257.7 6.4
275(17) 0.00364 257.7 6.3
284(17) 0.00352 257.7 6.2
280(17) 0.00357 257.7 6.1
263(16) 0.00380 257.8 6.1
253(16) 0.00395 257.8 6.0
286(17) 0.003497 257.8 5.9
257(16) 0.00389 257.8 5.9
290(17) 0.003448 257.9 5.8
245(16) 0.00408 257.9 5.8
279(17) 0.00358 257.9 5.8
277(17) 0.00361 258.0 5.7
280(17) 0.00357 258.0 5.7
274(17) 0.00365 258.0 5.7
225(15) 0.00444 258.0 5.7
284(17) 0.00352 258.1 5.7
280(17) 0.00357 258.1 5.6
300(17) 0.003333 258.1 5.6
280(17) 0.00357 258.1 5.6
284(17) 0.00352 258.2 5.6
262(16) 0.00382 258.2 5.7
257(16) 0.00389 258.2 5.7
273(17) 0.00366 258.2 5.7
290(17) 0.003448 258.3 5.7
276(17) 0.00362 258.3 5.8
262(16) 0.00382 258.3 5.8
279(17) 0.00358 258.4 5.8
256(16) 0.00391 258.4 5.9
265(16) 0.00377 258.4 5.9
285(17) 0.00351 258.4 5.9
252(16) 0.00397 258.5 5.9
250(16) 0.00400 258.5 6.0
280(17) 0.00357 258.5 6.0
274(17) 0.00365 258.5 6.0
273(17) 0.00366 258.6 6.1
266(16) 0.00376 258.6 6.1
268(16) 0.00373 258.6 6.1
254(16) 0.00394 258.7 6.2
280(17) 0.00357 258.7 6.2
275(17) 0.00364 258.7 6.3
272(16) 0.00368 258.7 6.3
238(15) 0.00420 258.8 6.4
277(17) 0.00361 259.0 6.4
251(16) 0.00398 259.2 6.4
284(17) 0.00352 259.3 6.5
264(16) 0.00379 259.5 6.6
288(17) 0.003472 259.7 6.6
291(17) 0.003436 259.9 6.7
302(17) 0.003311 260.1 6.7
304(17) 0.003289 260.2 6.8
279(17) 0.00358 260.4 6.8
284(17) 0.00352 260.6 6.9
253(16) 0.00395 260.8 7.0
283(17) 0.00353 261.0 7.0
279(17) 0.00358 261.1 7.1
247(16) 0.00405 261.3 7.2
291(17) 0.003436 261.5 7.3
286(17) 0.003497 261.7 7.3
277(17) 0.00361 261.9 7.4
277(17) 0.00361 262.0 7.5
279(17) 0.00358 262.2 7.6
287(17) 0.003484 262.4 7.7
291(17) 0.003436 262.6 7.8
288(17) 0.003472 262.8 7.9
265(16) 0.00377 262.9 8.0
244(16) 0.00410 263.1 8.1
267(16) 0.00375 263.3 8.2
305(17) 0.003279 263.5 8.3
318(18) 0.003145 263.6 8.4
297(17) 0.003367 263.8 8.5
291(17) 0.003436 264.0 8.6
300(17) 0.003333 264.2 8.7
288(17) 0.003472 264.4 8.9
295(17) 0.003390 264.5 9.0
298(17) 0.003356 264.7 9.1
283(17) 0.00353 264.9 9.8
299(17) 0.003344 265.1 9.9
311(18) 0.003215 265.3 10.1
284(17) 0.00352 265.4 10.2
279(17) 0.00358 265.6 10.4
278(17) 0.00360 265.8 10.6
288(17) 0.003472 266.0 10.8
319(18) 0.003135 266.2 10.9
306(17) 0.003268 266.3 11.1
303(17) 0.003300 266.5 11.3
300(17) 0.003333 266.7 11.5
303(17) 0.003300 266.9 11.7
282(17) 0.00355 267.1 12.0
273(17) 0.00366 267.2 12.2
311(18) 0.003215 267.4 12.4
286(17) 0.003497 267.6 12.7
294(17) 0.003401 267.8 12.9
271(16) 0.00369 268.0 13.2
267(16) 0.00375 268.1 13.4
298(17) 0.003356 268.3 13.7
283(17) 0.00353 268.5 14.0
294(17) 0.003401 268.7 14.3
300(17) 0.003333 268.8 14.6
281(17) 0.00356 269.0 14.9
301(17) 0.003322 269.2 15.3
267(16) 0.00375 269.4 15.6
300(17) 0.003333 269.6 16.0
288(17) 0.003472 269.7 16.4
299(17) 0.003344 269.9 16.8
318(18) 0.003145 270.1 17.2
294(17) 0.003401 270.3 17.7
285(17) 0.00351 270.5 18.2
297(17) 0.003367 270.6 18.7
272(16) 0.00368 270.8 19.2
297(17) 0.003367 271.0 19.7
296(17) 0.003378 271.2 20.3
284(17) 0.00352 271.4 21.0
279(17) 0.00358 271.5 21.6
283(17) 0.00353 271.7 22.3
284(17) 0.00352 271.9 23.1
265(16) 0.00377 272.1 23.8
318(18) 0.003145 272.3 24.7
307(18) 0.003257 272.4 25.6
294(17) 0.003401 272.6 26.6
288(17) 0.003472 272.8 27.6
306(17) 0.003268 273.0 28.7
305(17) 0.003279 273.2 29.9
287(17) 0.003484 273.3 31.2
287(17) 0.003484 273.5 32.6
333(18) 0.003003 273.7 34.1
294(17) 0.003401 273.9 35.7
309(18) 0.003236 274.1 37.5
280(17) 0.00357 274.2 39.5
308(18) 0.003247 274.4 41.7
307(18) 0.003257 274.6 44.1
289(17) 0.003460 274.8 46.7
327(18) 0.003058 274.9 49.6
323(18) 0.003096 275.1 52.9
351(19) 0.002849 275.3 56.6
337(18) 0.002967 275.5 60.8
339(18) 0.002950 275.7 65.6
342(18) 0.002924 275.8 71.1
340(18) 0.002941 276.0 77.7
365(19) 0.002740 276.2 85.6
391(20) 0.002558 276.4 95.4
415(20) 0.002410 276.6 107.7
414(20) 0.002415 276.7 123.5
437(21) 0.002288 276.9 144.0
491(22) 0.002037 277.1 170.7
464(22) 0.002155 277.3 205.3
599(24) 0.001669 277.5 249.5
648(25) 0.001543 277.6 305.0
720(27) 0.001389 277.8 372.9
764(28) 0.001309 278.0 453.6
891(30) 0.001122 278.2 546.1
1023(32) 0.000978 278.4 647.6
1210(35) 0.000826 278.5 752.5
1411(38) 0.000709 279. 852.
1552(39) 0.000644 279. 932.
1583(40) 0.000632 279. 978.
1583(40) 0.000632 279. 981.
1341(37) 0.000746 279. 940.
1259(35) 0.000794 280. 864.
1073(33) 0.000932 279.8 769.5
1005(32) 0.000995 280.0 668.4
912(30) 0.001096 280.1 570.8
795(28) 0.001258 280.3 482.4
746(27) 0.001340 280.5 406.5
692(26) 0.001445 280.7 344.3
651(26) 0.001536 280.9 296.0
624(25) 0.001603 281.0 261.1
668(26) 0.001497 281.2 238.6
624(25) 0.001603 281.4 227.5
581(24) 0.001721 281.6 226.9
582(24) 0.001718 281.8 235.9
576(24) 0.001736 281.9 253.6
610(25) 0.001639 282.1 278.9
684(26) 0.001462 282.3 309.8
685(26) 0.001460 282.5 343.5
747(27) 0.001339 282.7 375.4
800(28) 0.001250 282.8 399.1
799(28) 0.001252 283.0 408.4
726(27) 0.001377 283.2 400.1
712(27) 0.001404 283.4 376.5
663(26) 0.001508 283.6 343.4
612(25) 0.001634 283.7 307.0
601(25) 0.001664 283.9 271.8
532(23) 0.001880 284.1 240.6
507(23) 0.001972 284.3 214.6
476(22) 0.002101 284.5 194.1
434(21) 0.002304 284.6 178.8
478(22) 0.002092 284.8 168.3
445(21) 0.002247 285.0 161.7
433(21) 0.002309 285.2 158.4
412(20) 0.002427 285.4 157.6
434(21) 0.002304 285.5 158.9
441(21) 0.002268 285.7 161.8
414(20) 0.002415 285.9 166.0
414(20) 0.002415 286.1 171.5
447(21) 0.002237 286.2 178.1
448(21) 0.002232 286.4 185.9
467(22) 0.002141 286.6 195.0
462(21) 0.002164 286.8 205.4
455(21) 0.002198 287.0 217.4
453(21) 0.002208 287.1 231.3
484(22) 0.002066 287.3 247.6
518(23) 0.001931 287.5 266.8
583(24) 0.001715 287.7 290.2
612(25) 0.001634 287.9 319.4
609(25) 0.001642 288.0 357.0
720(27) 0.001389 288.2 406.9
757(28) 0.001321 288.4 474.4
855(29) 0.001170 288.6 566.4
1002(32) 0.000998 288.8 691.5
1091(33) 0.000917 288.9 858.3
1253(35) 0.000798 289. 1075.
1492(39) 0.000670 289. 1346.
1786(42) 0.000560 289. 1670.
2113(46) 0.000473 290. 2038.
2540(50) 0.000394 290. 2420.
2975(55) 0.0003361 290. 2768.
3248(57) 0.0003079 290. 3011.
3161(56) 0.0003164 290. 3078.
2988(55) 0.0003347 291. 2948.
2661(52) 0.000376 291. 2661.
2278(48) 0.000439 291. 2291.
2005(45) 0.000499 291. 1905.
1655(41) 0.000604 291. 1545.
1509(39) 0.000663 291. 1231.
1306(36) 0.000766 292. 973.
1131(34) 0.000884 291.8 769.0
1096(33) 0.000912 292.0 612.5
898(30) 0.001114 292.2 495.5
939(31) 0.001065 292.3 409.1
810(28) 0.001235 292.5 345.3
705(27) 0.001418 292.7 297.7
710(27) 0.001408 292.9 261.4
683(26) 0.001464 293.1 232.8
620(25) 0.001613 293.2 209.7
587(24) 0.001704 293.4 190.6
555(24) 0.001802 293.6 174.4
533(23) 0.001876 293.8 160.6
499(22) 0.002004 294.0 148.7
461(21) 0.002169 294.1 138.3
472(22) 0.002119 294.3 129.2
477(22) 0.002096 294.5 121.2
448(21) 0.002232 294.7 114.2
406(20) 0.002463 294.9 108.0
429(21) 0.002331 295.0 102.5
415(20) 0.002410 295.2 97.7
419(20) 0.002387 295.4 93.4
403(20) 0.002481 295.6 89.7
432(21) 0.002315 295.8 86.4
417(20) 0.002398 295.9 83.6
424(21) 0.002358 296.1 81.1
421(21) 0.002375 296.3 78.9
376(19) 0.002660 296.5 77.1
381(20) 0.002625 296.6 75.6
428(21) 0.002336 296.8 74.4
385(20) 0.002597 297.0 73.4
396(20) 0.002525 297.2 72.7
382(20) 0.002618 297.4 72.3
378(19) 0.002646 297.5 72.1
388(20) 0.002577 297.7 72.2
418(20) 0.002392 297.9 72.5
397(20) 0.002519 298.1 73.2
383(20) 0.002611 298.3 74.1
389(20) 0.002571 298.4 75.3
395(20) 0.002532 298.6 77.0
401(20) 0.002494 298.8 79.0
400(20) 0.002500 299.0 81.5
392(20) 0.002551 299.2 84.6
419(20) 0.002387 299.3 88.5
458(21) 0.002183 299.5 93.1
447(21) 0.002237 299.7 98.8
432(21) 0.002315 299.9 105.7
493(22) 0.002028 300.1 114.0
457(21) 0.002188 300.2 124.2
512(23) 0.001953 300.4 136.5
496(22) 0.002016 300.6 151.2
491(22) 0.002037 300.8 168.8
561(24) 0.001783 301.0 189.5
548(23) 0.001825 301.1 213.9
614(25) 0.001629 301.3 242.1
646(25) 0.001548 301.5 274.5
633(25) 0.001580 301.7 311.2
673(26) 0.001486 301.9 352.2
716(27) 0.001397 302.0 397.4
741(27) 0.001350 302.2 446.3
792(28) 0.001263 302.4 498.5
872(30) 0.001147 302.6 552.8
961(31) 0.001041 302.7 608.1
995(32) 0.001005 302.9 662.4
1045(32) 0.000957 303.1 713.5
1132(34) 0.000883 303.3 758.6
1165(34) 0.000858 303.5 794.8
1163(34) 0.000860 303.6 819.2
1211(35) 0.000826 303.8 829.6
1231(35) 0.000812 304. 825.
1240(35) 0.000806 304. 806.
1211(35) 0.000826 304.4 774.2
1156(34) 0.000865 304.5 732.1
1073(33) 0.000932 304.7 682.8
1008(32) 0.000992 304.9 629.1
900(30) 0.001111 305.1 573.6
774(28) 0.001292 305.3 518.2
706(27) 0.001416 305.4 464.5
691(26) 0.001447 305.6 413.6
613(25) 0.001631 305.8 366.3
567(24) 0.001764 306.0 322.9
565(24) 0.001770 306.2 283.9
518(23) 0.001931 306.3 249.2
498(22) 0.002008 306.5 218.6
466(22) 0.002146 306.7 192.1
446(21) 0.002242 306.9 169.3
464(22) 0.002155 307.1 149.8
426(21) 0.002347 307.2 133.3
410(20) 0.002439 307.4 119.2
427(21) 0.002342 307.6 107.5
450(21) 0.002222 307.8 97.7
385(20) 0.002597 307.9 89.4
401(20) 0.002494 308.1 82.5
376(19) 0.002660 308.3 76.6
366(19) 0.002732 308.5 71.6
346(19) 0.002890 308.7 67.3
369(19) 0.002710 308.8 63.6
382(20) 0.002618 309.0 60.4
357(19) 0.002801 309.2 57.5
329(18) 0.003039 309.4 54.9
336(18) 0.002976 309.6 52.6
343(19) 0.002915 309.7 50.6
358(19) 0.002793 309.9 48.7
320(18) 0.003125 310.1 47.0
332(18) 0.003012 310.3 45.4
339(18) 0.002950 310.5 44.0
343(19) 0.002915 310.6 42.7
332(18) 0.003012 310.8 41.5
318(18) 0.003145 311.0 40.4
306(17) 0.003268 311.2 39.4
316(18) 0.003165 311.4 38.5
346(19) 0.002890 311.5 37.6
337(18) 0.002967 311.7 36.8
347(19) 0.002882 311.9 36.1
329(18) 0.003039 312.1 35.5
333(18) 0.003003 312.3 34.9
321(18) 0.003115 312.4 34.4
300(17) 0.003333 312.6 33.9
328(18) 0.003049 312.8 33.4
324(18) 0.003086 313.0 33.1
331(18) 0.003021 313.2 32.7
335(18) 0.002985 313.3 32.4
331(18) 0.003021 313.3 32.2
308(18) 0.003247 313.3 32.0
342(18) 0.002924 313.3 31.8
339(18) 0.002950 313.3 31.7
348(19) 0.002874 313.3 31.6
311(18) 0.003215 313.3 31.6
328(18) 0.003049 313.3 31.6
334(18) 0.002994 313.3 31.7
333(18) 0.003003 313.3 31.8
325(18) 0.003077 313.3 31.9
355(19) 0.002817 313.3 32.1
296(17) 0.003378 313.3 32.4
336(18) 0.002976 313.3 32.7
330(18) 0.003030 313.3 33.1
341(18) 0.002933 313.3 33.5
335(18) 0.002985 313.3 34.1
364(19) 0.002747 313.3 34.7
324(18) 0.003086 313.3 35.4
301(17) 0.003322 313.3 36.2
326(18) 0.003067 313.3 37.2
308(18) 0.003247 313.3 38.3
363(19) 0.002755 313.3 39.6
343(19) 0.002915 313.3 41.2
365(19) 0.002740 313.3 43.1
322(18) 0.003106 313.3 45.3
359(19) 0.002786 313.3 48.2
327(18) 0.003058 313.3 52.0
347(19) 0.002882 313.3 57.2
363(19) 0.002755 313.3 64.7
414(20) 0.002415 313.3 75.8
372(19) 0.002688 313.3 91.9
377(19) 0.002653 313.3 114.3
413(20) 0.002421 313.3 143.4
446(21) 0.002242 313.3 177.4
473(22) 0.002114 313.3 210.1
529(23) 0.001890 313.3 229.5
557(24) 0.001795 313.3 225.3
521(23) 0.001919 313.3 200.7
465(22) 0.002151 313.3 168.6
416(20) 0.002404 313.3 138.5
427(21) 0.002342 313.3 114.5
386(20) 0.002591 313.3 97.1
385(20) 0.002597 313.3 85.6
369(19) 0.002710 313.3 78.5
371(19) 0.002695 313.3 74.4
384(20) 0.002604 313.3 72.2
365(19) 0.002740 313.3 71.3
345(19) 0.002899 313.3 71.1
379(19) 0.002639 313.3 71.4
386(20) 0.002591 313.3 72.2
398(20) 0.002513 313.3 73.2
385(20) 0.002597 313.3 74.5
352(19) 0.002841 313.3 76.0
380(19) 0.002632 313.3 77.7
370(19) 0.002703 313.3 79.6
383(20) 0.002611 313.3 81.7
418(20) 0.002392 313.3 83.9
371(19) 0.002695 313.3 86.3
396(20) 0.002525 313.3 88.9
424(21) 0.002358 313.3 91.6
405(20) 0.002469 313.3 94.5
420(20) 0.002381 313.3 97.7
425(21) 0.002353 313.3 101.0
433(21) 0.002309 313.3 104.5
456(21) 0.002193 313.3 108.4
441(21) 0.002268 313.3 112.5
422(21) 0.002370 313.3 116.9
443(21) 0.002257 313.3 121.7
435(21) 0.002299 313.3 126.9
464(22) 0.002155 313.3 132.6
452(21) 0.002212 313.3 138.7
444(21) 0.002252 313.3 145.4
436(21) 0.002294 313.3 152.6
460(21) 0.002174 313.3 160.4
500(22) 0.002000 313.3 168.9
482(22) 0.002075 313.3 177.9
510(23) 0.001961 313.3 187.6
518(23) 0.001931 313.3 198.0
504(22) 0.001984 313.3 208.9
516(23) 0.001938 313.3 220.5
562(24) 0.001779 313.3 232.5
565(24) 0.001770 313.3 244.9
576(24) 0.001736 313.3 257.7
588(24) 0.001701 313.3 270.5
651(26) 0.001536 313.3 283.3
657(26) 0.001522 313.3 295.9
685(26) 0.001460 313.3 307.8
702(26) 0.001424 313.3 318.8
709(27) 0.001410 313.3 328.6
688(26) 0.001453 313.3 336.7
717(27) 0.001395 313.3 342.8
725(27) 0.001379 313.3 346.7
718(27) 0.001393 313.3 348.2
735(27) 0.001361 313.3 347.2
746(27) 0.001340 313.3 343.8
690(26) 0.001449 313.3 338.2
661(26) 0.001513 313.3 330.7
647(25) 0.001546 313.3 321.7
640(25) 0.001563 313.3 311.6
636(25) 0.001572 313.3 300.7
614(25) 0.001629 313.3 289.4
607(25) 0.001647 313.3 278.0
580(24) 0.001724 313.3 266.8
569(24) 0.001757 313.3 256.0
550(23) 0.001818 313.3 245.7
557(24) 0.001795 313.3 236.3
522(23) 0.001916 313.3 227.7
496(22) 0.002016 313.3 220.1
528(23) 0.001894 313.3 213.6
496(22) 0.002016 313.3 208.3
542(23) 0.001845 313.3 204.3
528(23) 0.001894 313.3 201.7
525(23) 0.001905 313.3 200.6
515(23) 0.001942 313.3 201.1
526(23) 0.001901 313.3 203.4
503(22) 0.001988 313.3 207.5
491(22) 0.002037 313.3 213.8
543(23) 0.001842 313.3 222.3
517(23) 0.001934 313.3 233.4
565(24) 0.001770 313.3 247.2
537(23) 0.001862 313.3 264.2
610(25) 0.001639 313.3 284.4
590(24) 0.001695 313.3 308.4
618(25) 0.001618 313.3 336.3
628(25) 0.001592 313.3 368.4
655(26) 0.001527 313.3 405.0
734(27) 0.001362 313.3 446.3
710(27) 0.001408 313.3 492.4
802(28) 0.001247 313.3 543.4
856(29) 0.001168 313.3 599.2
942(31) 0.001062 313.3 659.8
974(31) 0.001027 313.3 724.6
1088(33) 0.000919 313.3 793.3
1176(34) 0.000850 313.3 865.1
1253(35) 0.000798 313. 939.
1382(37) 0.000724 313. 1014.
1337(37) 0.000748 313. 1088.
1461(38) 0.000684 313. 1160.
1496(39) 0.000668 313. 1227.
1562(40) 0.000640 313. 1287.
1513(39) 0.000661 313. 1337.
1531(39) 0.000653 313. 1376.
1543(39) 0.000648 313. 1401.
1495(39) 0.000669 313. 1411.
1430(38) 0.000699 313. 1407.
1436(38) 0.000696 313. 1389.
1403(37) 0.000713 313. 1359.
1395(37) 0.000717 313. 1319.
1330(36) 0.000752 313. 1271.
1277(36) 0.000783 313. 1216.
1220(35) 0.000820 313.3 1155.6
1186(34) 0.000843 313.3 1091.3
1163(34) 0.000860 313.3 1023.8
1051(32) 0.000951 313.3 953.9
1032(32) 0.000969 313.3 882.5
980(31) 0.001020 313.3 810.8
934(31) 0.001071 313.3 740.1
924(30) 0.001082 313.3 671.4
840(29) 0.001190 313.3 606.0
775(28) 0.001290 313.3 544.6
735(27) 0.001361 313.3 487.6
685(26) 0.001460 313.3 435.5
661(26) 0.001513 313.3 388.4
655(26) 0.001527 313.3 346.1
578(24) 0.001730 313.3 308.6
557(24) 0.001795 313.3 275.5
596(24) 0.001678 313.3 246.6
516(23) 0.001938 313.3 221.4
508(23) 0.001968 313.3 199.6
495(22) 0.002020 313.3 180.9
513(23) 0.001949 313.3 164.7
493(22) 0.002028 313.3 150.9
478(22) 0.002092 313.3 138.9
501(22) 0.001996 313.3 128.6
480(22) 0.002083 313.3 119.8
428(21) 0.002336 313.3 112.0
470(22) 0.002128 313.3 105.3
451(21) 0.002217 313.3 99.3
405(20) 0.002469 313.3 94.0
457(21) 0.002188 313.3 89.3
412(20) 0.002427 313.3 85.1
397(20) 0.002519 313.3 81.2
416(20) 0.002404 313.3 77.8
404(20) 0.002475 313.3 74.6
380(19) 0.002632 313.3 71.7
402(20) 0.002488 313.3 69.0
421(21) 0.002375 313.3 66.5
383(20) 0.002611 313.3 64.3
366(19) 0.002732 313.3 62.2
371(19) 0.002695 313.3 60.3
379(19) 0.002639 313.3 58.6
371(19) 0.002695 313.3 57.0
348(19) 0.002874 313.3 55.6
374(19) 0.002674 313.3 54.4
337(18) 0.002967 313.3 53.3
394(20) 0.002538 313.3 52.3
359(19) 0.002786 313.3 51.5
383(20) 0.002611 313.3 50.8
349(19) 0.002865 313.3 50.3
349(19) 0.002865 313.3 50.0
333(18) 0.003003 313.3 49.8
357(19) 0.002801 313.3 49.7
363(19) 0.002755 313.3 49.8
389(20) 0.002571 313.3 50.1
335(18) 0.002985 313.3 50.5
370(19) 0.002703 313.3 51.0
319(18) 0.003135 313.3 51.7
321(18) 0.003115 313.3 52.5
325(18) 0.003077 313.3 53.5
349(19) 0.002865 313.3 54.5
364(19) 0.002747 313.3 55.7
376(19) 0.002660 313.3 56.9
326(18) 0.003067 313.3 58.2
309(18) 0.003236 313.3 59.5
347(19) 0.002882 313.3 60.8
349(19) 0.002865 313.3 62.0
350(19) 0.002857 313.3 63.2
321(18) 0.003115 313.3 64.3
335(18) 0.002985 313.3 65.1
325(18) 0.003077 313.3 65.8
315(18) 0.003175 313.3 66.2
329(18) 0.003039 313.3 66.3
354(19) 0.002825 313.3 66.1
327(18) 0.003058 313.3 65.5
315(18) 0.003175 313.3 64.7
344(19) 0.002907 313.3 63.5
334(18) 0.002994 313.3 62.1
318(18) 0.003145 313.3 60.4
319(18) 0.003135 313.3 58.6
360(19) 0.002778 313.3 56.6
325(18) 0.003077 313.3 54.5
328(18) 0.003049 313.3 52.3
368(19) 0.002717 313.3 50.1
314(18) 0.003185 313.3 47.9
336(18) 0.002976 313.3 45.8
342(18) 0.002924 313.3 43.7
301(17) 0.003322 313.3 41.7
336(18) 0.002976 313.3 39.7
328(18) 0.003049 313.3 37.9
347(19) 0.002882 313.3 36.1
325(18) 0.003077 313.3 34.5
311(18) 0.003215 313.4 33.0
319(18) 0.003135 313.4 31.6
301(17) 0.003322 313.4 30.3
341(18) 0.002933 313.4 29.1
329(18) 0.003039 313.4 28.0
331(18) 0.003021 313.4 27.1
317(18) 0.003155 313.4 26.2
343(19) 0.002915 313.5 25.4
314(18) 0.003185 313.5 24.7
324(18) 0.003086 313.5 24.1
337(18) 0.002967 313.5 23.5
338(18) 0.002959 313.5 23.1
314(18) 0.003185 313.5 22.7
327(18) 0.003058 313.6 22.3
319(18) 0.003135 313.6 22.0
297(17) 0.003367 313.6 21.8
336(18) 0.002976 313.6 21.6
337(18) 0.002967 313.6 21.4
321(18) 0.003115 313.6 21.3
318(18) 0.003145 313.6 21.3
321(18) 0.003115 313.7 21.2
325(18) 0.003077 313.7 21.3
354(19) 0.002825 313.7 21.3
326(18) 0.003067 313.7 21.4
326(18) 0.003067 313.7 21.6
356(19) 0.002809 313.7 21.8
359(19) 0.002786 313.8 22.1
307(18) 0.003257 313.8 22.4
359(19) 0.002786 313.8 22.8
342(18) 0.002924 313.8 23.2
346(19) 0.002890 313.8 23.7
320(18) 0.003125 313.8 24.3
333(18) 0.003003 313.9 25.0
364(19) 0.002747 313.9 25.8
335(18) 0.002985 313.9 26.6
340(18) 0.002941 313.9 27.6
362(19) 0.002762 313.9 28.7
319(18) 0.003135 313.9 29.9
348(19) 0.002874 313.9 31.3
352(19) 0.002841 314.0 32.8
321(18) 0.003115 314.0 34.4
332(18) 0.003012 314.0 36.3
328(18) 0.003049 314.0 38.3
343(19) 0.002915 314.0 40.4
364(19) 0.002747 314.0 42.8
354(19) 0.002825 314.1 45.4
363(19) 0.002755 314.1 48.1
327(18) 0.003058 314.1 51.1
374(19) 0.002674 314.1 54.2
354(19) 0.002825 314.1 57.6
366(19) 0.002732 314.1 61.1
360(19) 0.002778 314.1 64.9
347(19) 0.002882 314.2 68.8
352(19) 0.002841 314.2 72.8
382(20) 0.002618 314.2 77.1
379(19) 0.002639 314.2 81.4
390(20) 0.002564 314.2 85.8
353(19) 0.002833 314.2 90.4
377(19) 0.002653 314.3 94.9
383(20) 0.002611 314.3 99.4
382(20) 0.002618 314.3 103.9
394(20) 0.002538 314.3 108.3
369(19) 0.002710 314.3 112.4
384(20) 0.002604 314.3 116.4
358(19) 0.002793 314.3 120.0
420(20) 0.002381 314.4 123.3
402(20) 0.002488 314.4 126.1
412(20) 0.002427 314.4 128.3
390(20) 0.002564 314.4 130.1
394(20) 0.002538 314.4 131.1
436(21) 0.002294 314.4 131.6
411(20) 0.002433 314.5 131.4
389(20) 0.002571 314.5 130.5
415(20) 0.002410 314.5 129.0
401(20) 0.002494 314.5 126.9
405(20) 0.002469 314.5 124.3
389(20) 0.002571 314.5 121.3
399(20) 0.002506 314.6 117.8
416(20) 0.002404 314.6 114.0
423(21) 0.002364 314.6 110.0
372(19) 0.002688 314.6 105.8
381(20) 0.002625 314.6 101.5
393(20) 0.002545 314.6 97.1
364(19) 0.002747 314.6 92.7
384(20) 0.002604 314.7 88.3
376(19) 0.002660 314.7 84.0
317(18) 0.003155 314.7 79.8
348(19) 0.002874 314.7 75.7
347(19) 0.002882 314.7 71.8
350(19) 0.002857 314.7 68.0
371(19) 0.002695 314.8 64.4
336(18) 0.002976 314.8 61.0
356(19) 0.002809 314.8 57.9
333(18) 0.003003 314.8 54.9
378(19) 0.002646 314.8 52.2
353(19) 0.002833 314.8 49.6
328(18) 0.003049 314.8 47.3
328(18) 0.003049 314.9 45.2
356(19) 0.002809 314.9 43.2
353(19) 0.002833 314.9 41.5
335(18) 0.002985 314.9 40.0
324(18) 0.003086 314.9 38.6
349(19) 0.002865 314.9 37.4
363(19) 0.002755 315.0 36.4
359(19) 0.002786 315.0 35.5
345(19) 0.002899 315.0 34.7
375(19) 0.002667 315.0 34.1
380(19) 0.002632 315.0 33.6
367(19) 0.002725 315.0 33.2
336(18) 0.002976 315.0 32.9
363(19) 0.002755 315.1 32.7
333(18) 0.003003 315.1 32.6
319(18) 0.003135 315.1 32.6
360(19) 0.002778 315.1 32.6
342(18) 0.002924 315.1 32.6
339(18) 0.002950 315.1 32.8
357(19) 0.002801 315.2 32.9
333(18) 0.003003 315.2 33.1
356(19) 0.002809 315.2 33.3
353(19) 0.002833 315.2 33.6
372(19) 0.002688 315.2 33.8
343(19) 0.002915 315.2 34.1
403(20) 0.002481 315.3 34.4
358(19) 0.002793 315.3 34.6
337(18) 0.002967 315.3 34.9
345(19) 0.002899 315.3 35.2
379(19) 0.002639 315.3 35.4
363(19) 0.002755 315.3 35.6
364(19) 0.002747 315.3 35.8
342(18) 0.002924 315.4 36.0
346(19) 0.002890 315.4 36.1
333(18) 0.003003 315.4 36.2
372(19) 0.002688 315.4 36.3
345(19) 0.002899 315.4 36.3
364(19) 0.002747 315.4 36.3
365(19) 0.002740 315.5 36.2
336(18) 0.002976 315.5 36.1
360(19) 0.002778 315.5 35.9
356(19) 0.002809 315.5 35.7
370(19) 0.002703 315.5 35.4
341(18) 0.002933 315.5 35.1
373(19) 0.002681 315.5 34.8
353(19) 0.002833 315.6 34.4
342(18) 0.002924 315.6 33.9
350(19) 0.002857 315.6 33.5
333(18) 0.003003 315.6 33.0
355(19) 0.002817 315.6 32.4
343(19) 0.002915 315.6 31.9
361(19) 0.002770 315.7 31.3
333(18) 0.003003 315.7 30.6
366(19) 0.002732 315.7 30.0
370(19) 0.002703 315.7 29.4
362(19) 0.002762 315.7 28.7
376(19) 0.002660 315.7 28.0
368(19) 0.002717 315.7 27.4
314(18) 0.003185 315.8 26.7
355(19) 0.002817 315.8 26.0
357(19) 0.002801 315.8 25.3
317(18) 0.003155 315.8 24.6
355(19) 0.002817 315.8 24.0
342(18) 0.002924 315.8 23.3
344(19) 0.002907 315.9 22.6
337(18) 0.002967 315.9 22.0
314(18) 0.003185 315.9 21.4
343(19) 0.002915 315.9 20.7
334(18) 0.002994 315.9 20.1
329(18) 0.003039 315.9 19.5
332(18) 0.003012 316.0 18.9
347(19) 0.002882 316.0 18.4
313(18) 0.003195 316.0 17.8
367(19) 0.002725 316.0 17.3
336(18) 0.002976 316.0 16.7
332(18) 0.003012 316.0 16.2
336(18) 0.002976 316.0 15.7
332(18) 0.003012 316.1 15.3
335(18) 0.002985 316.1 14.8
321(18) 0.003115 316.1 14.4
349(19) 0.002865 316.1 14.0
354(19) 0.002825 316.1 13.6
312(18) 0.003205 316.1 13.2
349(19) 0.002865 316.2 12.8
325(18) 0.003077 316.2 12.5
336(18) 0.002976 316.2 12.1
319(18) 0.003135 316.2 11.8
311(18) 0.003215 316.2 11.5
329(18) 0.003039 316.2 11.2
341(18) 0.002933 316.2 10.9
329(18) 0.003039 316.3 10.7
342(18) 0.002924 316.3 10.4
339(18) 0.002950 316.3 10.2
300(17) 0.003333 316.3 10.0
325(18) 0.003077 316.3 9.8
309(18) 0.003236 316.3 9.6
341(18) 0.002933 316.2 9.4
329(18) 0.003039 316.1 9.3
310(18) 0.003226 316.0 9.1
311(18) 0.003215 315.9 9.0
321(18) 0.003115 315.8 8.8
344(19) 0.002907 315.7 8.7
379(19) 0.002639 315.6 8.6
319(18) 0.003135 315.5 8.5
352(19) 0.002841 315.4 8.4
302(17) 0.003311 315.3 8.3
328(18) 0.003049 315.2 8.2
303(17) 0.003300 315.1 8.2
275(17) 0.00364 315.1 8.1
332(18) 0.003012 315.0 8.1
335(18) 0.002985 314.9 8.0
364(19) 0.002747 314.8 8.0
300(17) 0.003333 314.7 8.0
319(18) 0.003135 314.6 7.9
344(19) 0.002907 314.5 7.9
315(18) 0.003175 314.4 7.9
357(19) 0.002801 314.3 7.9
314(18) 0.003185 314.2 7.9
340(18) 0.002941 314.1 8.0
318(18) 0.003145 314.0 8.0
332(18) 0.003012 313.9 8.0
327(18) 0.003058 313.8 8.1
322(18) 0.003106 313.7 8.1
313(18) 0.003195 313.6 8.2
325(18) 0.003077 313.5 8.3
344(19) 0.002907 313.4 8.4
309(18) 0.003236 313.3 8.5
335(18) 0.002985 313.2 8.6
318(18) 0.003145 313.1 8.7
332(18) 0.003012 313.0 8.9
306(17) 0.003268 312.9 9.1
332(18) 0.003012 312.8 9.2
332(18) 0.003012 312.7 9.5
332(18) 0.003012 312.6 9.7
336(18) 0.002976 312.5 10.0
325(18) 0.003077 312.4 10.3
361(19) 0.002770 312.3 10.7
345(19) 0.002899 312.2 11.1
336(18) 0.002976 312.2 11.6
348(19) 0.002874 312.2 12.2
316(18) 0.003165 312.2 12.9
312(18) 0.003205 312.2 13.8
330(18) 0.003030 312.3 14.9
356(19) 0.002809 312.3 16.2
324(18) 0.003086 312.3 18.0
310(18) 0.003226 312.3 20.4
341(18) 0.002933 312.4 23.4
345(19) 0.002899 312.4 27.2
378(19) 0.002646 312.4 32.1
362(19) 0.002762 312.4 38.2
343(19) 0.002915 312.5 45.4
390(20) 0.002564 312.5 53.7
381(20) 0.002625 312.5 63.0
387(20) 0.002584 312.5 72.8
380(19) 0.002632 312.6 82.3
389(20) 0.002571 312.6 90.4
411(20) 0.002433 312.6 95.7
401(20) 0.002494 312.6 97.0
374(19) 0.002674 312.7 94.1
373(19) 0.002681 312.7 87.8
386(20) 0.002591 312.7 79.3
390(20) 0.002564 312.7 69.9
399(20) 0.002506 312.8 60.7
381(20) 0.002625 312.8 52.2
348(19) 0.002874 312.8 44.7
348(19) 0.002874 312.9 38.5
363(19) 0.002755 312.9 33.4
365(19) 0.002740 312.9 29.4
342(18) 0.002924 312.9 26.4
354(19) 0.002825 313.0 24.1
315(18) 0.003175 313.0 22.4
331(18) 0.003021 313.0 21.3
334(18) 0.002994 313.0 20.5
348(19) 0.0 0.0 .
360(19) 0.0 0.0 .
370(19) 0.0 0.0 .
376(19) 0.0 0.0 .
337(18) 0.0 0.0 .
339(18) 0.0 0.0 .
354(19) 0.0 0.0 .
370(19) 0.0 0.0 .
361(19) 0.0 0.0 .
353(19) 0.0 0.0 .
387(20) 0.0 0.0 .
380(19) 0.0 0.0 .
395(20) 0.0 0.0 .
350(19) 0.0 0.0 .
369(19) 0.0 0.0 .
361(19) 0.0 0.0 .
359(19) 0.0 0.0 .
359(19) 0.0 0.0 .
350(19) 0.0 0.0 .
399(20) 0.0 0.0 .
380(19) 0.0 0.0 .
361(19) 0.0 0.0 .
392(20) 0.0 0.0 .
391(20) 0.0 0.0 .
385(20) 0.0 0.0 .
371(19) 0.0 0.0 .
400(20) 0.0 0.0 .
414(20) 0.0 0.0 .
385(20) 0.0 0.0 .
396(20) 0.0 0.0 .
361(19) 0.0 0.0 .
401(20) 0.0 0.0 .
432(21) 0.0 0.0 .
424(21) 0.0 0.0 .
382(20) 0.0 0.0 .
406(20) 0.0 0.0 .
405(20) 0.0 0.0 .
406(20) 0.0 0.0 .
409(20) 0.0 0.0 .
440(21) 0.0 0.0 .
416(20) 0.0 0.0 .
403(20) 0.0 0.0 .
432(21) 0.0 0.0 .
422(21) 0.0 0.0 .
426(21) 0.0 0.0 .
420(20) 0.0 0.0 .
441(21) 0.0 0.0 .
428(21) 0.0 0.0 .
451(21) 0.0 0.0 .
457(21) 0.0 0.0 .
467(22) 0.0 0.0 .
434(21) 0.0 0.0 .
439(21) 0.0 0.0 .
489(22) 0.0 0.0 .
483(22) 0.0 0.0 .
472(22) 0.0 0.0 .
478(22) 0.0 0.0 .
514(23) 0.0 0.0 .
529(23) 0.0 0.0 .
518(23) 0.0 0.0 .
540(23) 0.0 0.0 .
544(23) 0.0 0.0 .
553(24) 0.0 0.0 .
576(24) 0.0 0.0 .
639(25) 0.0 0.0 .
630(25) 0.0 0.0 .
647(25) 0.0 0.0 .
660(26) 0.0 0.0 .
726(27) 0.0 0.0 .
714(27) 0.0 0.0 .
757(28) 0.0 0.0 .
784(28) 0.0 0.0 .
794(28) 0.0 0.0 .
886(30) 0.0 0.0 .
926(30) 0.0 0.0 .
990(31) 0.0 0.0 .
1098(33) 0.0 0.0 .
1222(35) 0.0 0.0 .
1350(37) 0.0 0. .
1472(38) 0.0 0. .
1650(41) 0.0 0. .
1933(44) 0.0 0. .
2223(47) 0.0 0. .
2671(52) 0.0 0. .
3240(57) 0.0 0. .
4085(64) 0.0 0. .
5190(72) 0.0 0. .
6787(82) 0.0 0. .
9296(96) 0.0 0. .
13590(120) 0.0 0. .
20660(140) 0.0 0. .
33530(180) 0.0 0. .
57540(240) 0.0 0. .
94380(310) 0.0 0. .
128070(360) 0.0 0. .
123840(350) 0.0 0. .
85300(290) 0.0 0. .
49100(220) 0.0 0. .
28670(170) 0.0 0. .
18040(130) 0.0 0. .
12000(110) 0.0 0. .
8396(92) 0.0 0. .
6217(79) 0.0 0. .
4755(69) 0.0 0. .
3730(61) 0.0 0. .
3036(55) 0.0 0. .
2581(51) 0.0 0. .
2154(46) 0.0 0. .
1884(43) 0.0 0. .
1644(41) 0.0 0. .
1440(38) 0.0 0. .
1362(37) 0.0 0. .
1303(36) 0.0 0. .
1121(33) 0.0 0.0 .
1080(33) 0.0 0.0 .
975(31) 0.0 0.0 .
934(31) 0.0 0.0 .
971(31) 0.0 0.0 .
836(29) 0.0 0.0 .
893(30) 0.0 0.0 .
805(28) 0.0 0.0 .
801(28) 0.0 0.0 .
743(27) 0.0 0.0 .
737(27) 0.0 0.0 .
724(27) 0.0 0.0 .
727(27) 0.0 0.0 .
695(26) 0.0 0.0 .
656(26) 0.0 0.0 .
643(25) 0.0 0.0 .
655(26) 0.0 0.0 .
619(25) 0.0 0.0 .
625(25) 0.0 0.0 .
589(24) 0.0 0.0 .
595(24) 0.0 0.0 .
536(23) 0.0 0.0 .
544(23) 0.0 0.0 .
548(23) 0.0 0.0 .
516(23) 0.0 0.0 .
542(23) 0.0 0.0 .
524(23) 0.0 0.0 .
533(23) 0.0 0.0 .
518(23) 0.0 0.0 .
506(22) 0.0 0.0 .
495(22) 0.0 0.0 .
503(22) 0.0 0.0 .
488(22) 0.0 0.0 .
472(22) 0.0 0.0 .
491(22) 0.0 0.0 .
500(22) 0.0 0.0 .
427(21) 0.0 0.0 .
469(22) 0.0 0.0 .
448(21) 0.0 0.0 .
428(21) 0.0 0.0 .
421(21) 0.0 0.0 .
420(20) 0.0 0.0 .
464(22) 0.0 0.0 .
436(21) 0.0 0.0 .
435(21) 0.0 0.0 .
463(22) 0.0 0.0 .
413(20) 0.0 0.0 .
435(21) 0.0 0.0 .
431(21) 0.0 0.0 .
434(21) 0.0 0.0 .
402(20) 0.0 0.0 .
414(20) 0.0 0.0 .
401(20) 0.0 0.0 .
436(21) 0.0 0.0 .
422(21) 0.0 0.0 .
412(20) 0.0 0.0 .
410(20) 0.0 0.0 .
410(20) 0.0 0.0 .
451(21) 0.0 0.0 .
423(21) 0.0 0.0 .
409(20) 0.0 0.0 .
369(19) 0.0 0.0 .
374(19) 0.0 0.0 .
417(20) 0.0 0.0 .
401(20) 0.0 0.0 .
392(20) 0.0 0.0 .
409(20) 0.0 0.0 .
397(20) 0.0 0.0 .
402(20) 0.002488 317.6 15.5
396(20) 0.002525 317.6 15.0
379(19) 0.002639 317.7 14.6
362(19) 0.002762 317.7 14.2
365(19) 0.002740 317.7 13.8
382(20) 0.002618 317.7 13.4
378(19) 0.002646 317.8 13.0
396(20) 0.002525 317.8 12.7
389(20) 0.002571 317.8 12.4
414(20) 0.002415 317.8 12.1
404(20) 0.002475 317.9 11.8
373(19) 0.002681 317.9 11.6
385(20) 0.002597 317.9 11.4
395(20) 0.002532 317.9 11.2
416(20) 0.002404 318.0 11.0
402(20) 0.002488 318.0 10.8
369(19) 0.002710 318.0 10.7
386(20) 0.002591 318.0 10.6
369(19) 0.002710 318.1 10.5
381(20) 0.002625 318.1 10.4
390(20) 0.002564 318.1 10.4
358(19) 0.002793 318.2 10.4
365(19) 0.002740 318.2 10.3
359(19) 0.002786 318.2 10.3
386(20) 0.002591 318.2 10.3
384(20) 0.002604 318.3 10.3
370(19) 0.002703 318.3 10.3
402(20) 0.002488 318.3 10.3
386(20) 0.002591 318.3 10.3
368(19) 0.002717 318.4 10.2
358(19) 0.002793 318.4 10.2
377(19) 0.002653 318.4 10.1
359(19) 0.002786 318.4 9.9
368(19) 0.002717 318.5 9.8
344(19) 0.002907 318.5 9.6
349(19) 0.002865 318.5 9.4
369(19) 0.002710 318.5 9.2
362(19) 0.002762 318.6 9.0
346(19) 0.002890 318.6 8.8
345(19) 0.002899 318.6 8.6
340(18) 0.002941 318.6 8.4
344(19) 0.002907 318.7 8.2
364(19) 0.002747 318.7 8.1
354(19) 0.002825 318.7 7.9
345(19) 0.002899 318.7 7.7
341(18) 0.002933 318.8 7.6
331(18) 0.003021 318.8 7.5
370(19) 0.002703 318.8 7.4
338(18) 0.002959 318.8 7.2
346(19) 0.002890 318.9 7.1
377(19) 0.002653 318.9 7.1
378(19) 0.002646 318.9 7.0
345(19) 0.002899 318.9 6.9
353(19) 0.002833 319.0 6.9
386(20) 0.002591 319.0 6.8
367(19) 0.002725 319.0 6.8
370(19) 0.002703 319.0 6.7
373(19) 0.002681 319.1 6.7
349(19) 0.002865 319.1 6.7
364(19) 0.002747 319.1 6.6
377(19) 0.002653 319.1 6.6
395(20) 0.002532 319.2 6.6
373(19) 0.002681 319.2 6.6
393(20) 0.002545 319.2 6.6
390(20) 0.002564 319.2 6.6
384(20) 0.002604 319.3 6.5
345(19) 0.002899 319.3 6.5
357(19) 0.002801 319.3 6.5
393(20) 0.002545 319.3 6.5
346(19) 0.002890 319.4 6.5
373(19) 0.002681 319.4 6.5
379(19) 0.002639 319.4 6.5
371(19) 0.002695 319.4 6.5
371(19) 0.002695 319.5 6.5
330(18) 0.003030 319.5 6.6
336(18) 0.002976 319.5 6.6
356(19) 0.002809 319.5 6.6
354(19) 0.002825 319.6 6.6
371(19) 0.002695 319.6 6.6
380(19) 0.002632 319.6 6.6
346(19) 0.002890 319.6 6.6
363(19) 0.002755 319.7 6.7
361(19) 0.002770 319.7 6.7
334(18) 0.002994 319.7 6.7
336(18) 0.002976 319.7 6.7
331(18) 0.003021 319.8 6.7
350(19) 0.002857 319.8 6.8
331(18) 0.003021 319.8 6.8
311(18) 0.003215 319.8 6.8
341(18) 0.002933 319.9 6.9
341(18) 0.002933 319.9 6.9
358(19) 0.002793 319.9 6.9
333(18) 0.003003 319.9 7.0
326(18) 0.003067 320.0 7.0
355(19) 0.002817 320.0 7.0
336(18) 0.002976 320.0 7.1
326(18) 0.003067 320.0 7.1
349(19) 0.002865 320.3 7.2
341(18) 0.002933 320.6 7.2
300(17) 0.003333 321.0 7.3
319(18) 0.003135 321.3 7.3
355(19) 0.002817 321.7 7.4
346(19) 0.002890 322.0 7.4
386(20) 0.002591 322.3 7.5
323(18) 0.003096 322.7 7.5
345(19) 0.002899 323.0 7.6
337(18) 0.002967 323.4 7.7
359(19) 0.002786 323.7 7.7
344(19) 0.002907 324.0 7.8
350(19) 0.002857 324.4 7.9
297(17) 0.003367 324.7 8.0
320(18) 0.003125 325.1 8.1
353(19) 0.002833 325.4 8.2
348(19) 0.002874 325.7 8.3
358(19) 0.002793 326.1 8.4
339(18) 0.002950 326.4 8.5
348(19) 0.002874 326.8 8.6
336(18) 0.002976 327.1 8.7
349(19) 0.002865 327.4 8.9
364(19) 0.002747 327.8 9.0
355(19) 0.002817 328.1 9.2
343(19) 0.002915 328.5 9.3
334(18) 0.002994 328.8 9.5
357(19) 0.002801 329.1 9.7
326(18) 0.003067 329.5 9.8
379(19) 0.002639 329.8 10.0
387(20) 0.002584 330.2 10.2
358(19) 0.002793 330.5 10.4
371(19) 0.002695 330.8 10.6
389(20) 0.002571 331.2 10.9
389(20) 0.002571 331.5 11.1
404(20) 0.002475 331.9 11.3
410(20) 0.002439 332.2 11.5
413(20) 0.002421 332.5 11.8
397(20) 0.002519 332.9 12.0
369(19) 0.002710 333.2 12.8
329(18) 0.003039 333.6 13.1
370(19) 0.002703 333.9 13.3
362(19) 0.002762 334.2 13.5
374(19) 0.002674 334.6 13.7
331(18) 0.003021 334.9 13.9
359(19) 0.002786 335.3 14.1
371(19) 0.002695 335.6 14.3
381(20) 0.002625 335.9 14.5
379(19) 0.002639 336.3 14.7
333(18) 0.003003 336.6 14.8
344(19) 0.002907 336.9 14.9
392(20) 0.002551 337.3 15.1
333(18) 0.003003 337.6 15.2
364(19) 0.002747 338.0 15.3
381(20) 0.002625 338.3 15.4
346(19) 0.002890 338.6 15.5
337(18) 0.002967 339.0 15.6
342(18) 0.002924 339.3 15.7
375(19) 0.002667 339.7 15.7
359(19) 0.002786 340.0 15.8
359(19) 0.002786 340.3 16.0
371(19) 0.002695 340.7 16.1
352(19) 0.002841 341.0 16.2
341(18) 0.002933 341.4 16.3
358(19) 0.002793 341.7 16.5
383(20) 0.002611 342.0 16.6
380(19) 0.002632 342.4 16.8
363(19) 0.002755 342.7 17.2
346(19) 0.002890 343.1 17.5
362(19) 0.002762 343.4 17.7
381(20) 0.002625 343.7 17.9
371(19) 0.002695 344.1 18.2
302(17) 0.003311 344.4 18.5
332(18) 0.003012 344.8 18.8
370(19) 0.002703 345.1 19.1
352(19) 0.002841 345.4 19.5
366(19) 0.002732 345.8 19.8
369(19) 0.002710 346.1 20.4
360(19) 0.002778 346.5 20.8
356(19) 0.002809 346.8 21.3
379(19) 0.002639 347.1 21.7
386(20) 0.002591 347.5 22.2
346(19) 0.002890 347.8 22.7
365(19) 0.002740 348.2 23.2
359(19) 0.002786 348.5 23.8
393(20) 0.002545 348.8 24.4
371(19) 0.002695 349.2 25.0
362(19) 0.002762 349.5 25.6
356(19) 0.002809 349.9 26.3
408(20) 0.002451 350.2 26.9
362(19) 0.002762 350.5 27.7
371(19) 0.002695 350.9 28.4
381(20) 0.002625 351.2 29.2
385(20) 0.002597 351.6 30.0
375(19) 0.002667 351.9 30.8
407(20) 0.002457 352.2 31.7
367(19) 0.002725 352.6 32.6
386(20) 0.002591 352.9 33.6
367(19) 0.002725 353.3 34.6
412(20) 0.002427 353.6 35.6
373(19) 0.002681 353.9 36.7
362(19) 0.002762 354.3 37.8
362(19) 0.002762 354.6 38.9
422(21) 0.002370 355.0 40.1
393(20) 0.002545 355.3 41.4
381(20) 0.002625 355.6 42.7
400(20) 0.002500 356.0 44.1
352(19) 0.002841 356.3 45.5
370(19) 0.002703 356.7 47.0
389(20) 0.002571 357.0 48.5
348(19) 0.002874 357.3 50.1
387(20) 0.002584 357.7 51.8
407(20) 0.002457 358.0 53.5
391(20) 0.002558 358.4 55.4
407(20) 0.002457 358.7 57.3
410(20) 0.002439 359.0 59.3
385(20) 0.002597 359.4 61.4
437(21) 0.002288 359.7 63.6
396(20) 0.002525 360.0 65.9
445(21) 0.002247 360.4 68.3
417(20) 0.002398 360.7 70.9
446(21) 0.002242 361.1 73.6
413(20) 0.002421 361.4 76.4
410(20) 0.002439 361.7 79.4
420(20) 0.002381 362.1 82.6
415(20) 0.002410 362.4 86.0
410(20) 0.002439 362.8 89.6
467(22) 0.002141 363.1 93.4
470(22) 0.002128 363.4 97.5
460(21) 0.002174 363.8 101.9
488(22) 0.002049 364.1 106.6
486(22) 0.002058 364.5 111.6
527(23) 0.001898 364.8 117.1
493(22) 0.002028 365.1 123.0
531(23) 0.001883 365.5 129.4
499(22) 0.002004 365.8 136.5
544(23) 0.001838 366.2 144.3
555(24) 0.001802 366.5 152.9
571(24) 0.001751 366.8 162.7
570(24) 0.001754 367.2 173.7
558(24) 0.001792 367.5 186.4
619(25) 0.001616 367.9 201.3
625(25) 0.001600 368.2 219.0
622(25) 0.001608 368.5 240.3
686(26) 0.001458 368.9 266.3
682(26) 0.001466 369.2 298.2
767(28) 0.001304 369.6 337.7
806(28) 0.001241 369.9 386.4
819(29) 0.001221 370.2 446.4
932(31) 0.001073 370.6 519.6
1022(32) 0.000978 370.9 607.9
1113(33) 0.000898 371.3 712.9
1206(35) 0.000829 371.6 835.6
1313(36) 0.000762 372. 976.
1551(39) 0.000645 372. 1134.
1799(42) 0.000556 373. 1306.
1887(43) 0.000530 373. 1489.
2164(47) 0.000462 373. 1673.
2284(48) 0.000438 374. 1848.
2380(49) 0.000420 374. 2003.
2417(49) 0.000414 374. 2123.
2398(49) 0.000417 375. 2201.
2458(50) 0.000407 375. 2235.
2485(50) 0.000402 375. 2229.
2448(49) 0.000408 376. 2192.
2484(50) 0.000403 376. 2131.
2448(49) 0.000408 376. 2050.
2364(49) 0.000423 377. 1951.
2288(48) 0.000437 377. 1836.
2259(48) 0.000443 377. 1705.
2145(46) 0.000466 378. 1563.
2001(45) 0.000500 378. 1415.
1762(42) 0.000568 378. 1267.
1635(40) 0.000612 379. 1123.
1472(38) 0.000679 379. 988.
1294(36) 0.000773 379. 864.
1209(35) 0.000827 379.8 752.6
1085(33) 0.000922 380.1 653.5
946(31) 0.001057 380.4 566.6
944(31) 0.001059 380.8 491.4
853(29) 0.001172 381.1 426.9
771(28) 0.001297 381.4 372.2
750(27) 0.001333 381.8 326.0
691(26) 0.001447 382.1 287.4
657(26) 0.001522 382.5 255.1
636(25) 0.001572 382.8 228.2
568(24) 0.001761 383.1 205.8
630(25) 0.001587 383.5 187.1
581(24) 0.001721 383.8 171.3
573(24) 0.001745 384.2 157.9
559(24) 0.001789 384.5 146.4
536(23) 0.001866 384.8 136.4
527(23) 0.001898 385.2 127.7
550(23) 0.001818 385.5 120.0
463(22) 0.002160 385.9 113.1
486(22) 0.002058 386.2 107.0
471(22) 0.002123 386.5 101.4
480(22) 0.002083 386.9 96.3
451(21) 0.002217 387.2 91.7
456(21) 0.002193 387.6 87.4
477(22) 0.002096 387.9 83.5
427(21) 0.002342 388.2 79.9
427(21) 0.002342 388.6 76.6
459(21) 0.002179 388.9 73.6
426(21) 0.002347 389.3 70.7
429(21) 0.002331 389.6 68.1
395(20) 0.002532 389.9 65.8
453(21) 0.002208 390.3 63.6
459(21) 0.002179 390.6 61.6
430(21) 0.002326 391.0 59.7
449(21) 0.002227 391.3 58.0
448(21) 0.002232 391.6 56.4
404(20) 0.002475 392.0 55.0
385(20) 0.002597 392.2 53.7
402(20) 0.002488 392.4 52.6
427(21) 0.002342 392.6 51.5
405(20) 0.002469 392.7 50.7
397(20) 0.002519 392.9 49.9
402(20) 0.002488 393.1 49.4
415(20) 0.002410 393.3 48.9
390(20) 0.002564 393.4 48.6
432(21) 0.002315 393.6 48.5
434(21) 0.002304 393.8 48.6
409(20) 0.002445 393.9 48.9
387(20) 0.002584 394.1 49.4
432(21) 0.002315 394.3 50.2
448(21) 0.002232 394.5 51.3
448(21) 0.002232 394.6 52.8
403(20) 0.002481 394.8 55.0
426(21) 0.002347 395.0 57.5
466(22) 0.002146 395.1 60.9
450(21) 0.002222 395.3 65.4
480(22) 0.002083 395.5 71.5
482(22) 0.002075 395.6 80.2
508(23) 0.001968 395.8 92.6
511(23) 0.001957 396.0 110.5
539(23) 0.001855 396.2 135.9
581(24) 0.001721 396.3 171.1
654(26) 0.001529 396.5 217.9
726(27) 0.001377 396.7 276.7
761(28) 0.001314 396.8 345.8
852(29) 0.001174 397.0 418.8
920(30) 0.001087 397.2 483.0
928(30) 0.001078 397.3 519.5
935(31) 0.001070 397.5 513.6
783(28) 0.001277 397.7 467.8
745(27) 0.001342 397.9 399.1
789(28) 0.001267 398.0 325.4
657(26) 0.001522 398.2 257.9
644(25) 0.001553 398.4 201.3
699(26) 0.001431 398.5 156.8
713(27) 0.001403 398.7 123.4
669(26) 0.001495 398.9 99.3
589(24) 0.001698 399.1 82.2
652(26) 0.001534 399.2 70.1
614(25) 0.001629 399.4 61.4
598(24) 0.001672 399.6 55.0
585(24) 0.001709 399.7 50.7
555(24) 0.001802 399.9 46.8
543(23) 0.001842 400.1 43.5
527(23) 0.001898 400.2 40.8
511(23) 0.001957 400.4 38.5
522(23) 0.001916 400.6 36.6
481(22) 0.002079 400.8 34.9
481(22) 0.002079 400.9 33.4
451(21) 0.002217 401.1 32.1
442(21) 0.002262 401.3 31.0
399(20) 0.002506 401.4 30.0
419(20) 0.002387 401.6 29.1
421(21) 0.002375 401.8 28.3
437(21) 0.002288 401.9 27.7
402(20) 0.002488 402.1 27.1
430(21) 0.002326 402.3 26.5
409(20) 0.002445 402.5 26.0
445(21) 0.002247 402.6 25.6
439(21) 0.002278 402.8 25.2
417(20) 0.002398 403.0 24.9
400(20) 0.002500 403.1 24.6
422(21) 0.002370 403.3 24.3
397(20) 0.002519 403.5 24.1
371(19) 0.002695 403.7 23.9
396(20) 0.002525 403.8 23.8
408(20) 0.002451 404.0 23.6
415(20) 0.002410 404.2 23.5
387(20) 0.002584 404.3 23.4
413(20) 0.002421 404.5 23.4
395(20) 0.002532 404.7 23.3
398(20) 0.002513 404.8 23.3
439(21) 0.002278 405.0 23.3
389(20) 0.002571 405.2 23.3
392(20) 0.002551 405.4 23.4
381(20) 0.002625 405.5 23.4
392(20) 0.002551 405.7 23.5
387(20) 0.002584 405.9 23.6
403(20) 0.002481 406.0 23.7
418(20) 0.002392 406.2 23.8
438(21) 0.002283 406.4 24.0
387(20) 0.002584 406.5 24.1
402(20) 0.002488 406.7 24.3
396(20) 0.002525 406.9 24.5
400(20) 0.002500 407.1 24.7
383(20) 0.002611 407.2 24.9
388(20) 0.002577 407.4 25.1
414(20) 0.002415 407.6 25.4
401(20) 0.002494 407.7 25.6
374(19) 0.002674 407.9 25.9
404(20) 0.002475 408.1 26.2
382(20) 0.002618 408.3 26.5
416(20) 0.002404 408.4 26.8
388(20) 0.002577 408.6 27.1
403(20) 0.002481 408.8 27.5
409(20) 0.002445 408.9 27.8
396(20) 0.002525 409.1 28.2
417(20) 0.002398 409.3 28.5
400(20) 0.002500 409.4 28.9
417(20) 0.002398 409.6 29.3
444(21) 0.002252 409.8 29.7
431(21) 0.002320 410.0 30.1
425(21) 0.002353 410.1 30.6
421(21) 0.002375 410.3 31.0
428(21) 0.002336 410.3 31.4
435(21) 0.002299 410.3 31.9
436(21) 0.002294 410.3 32.4
434(21) 0.002304 410.3 32.8
431(21) 0.002320 410.3 33.3
430(21) 0.002326 410.3 33.8
425(21) 0.002353 410.2 34.3
402(20) 0.002488 410.2 34.8
385(20) 0.002597 410.2 35.3
414(20) 0.002415 410.2 35.8
439(21) 0.002278 410.2 36.3
439(21) 0.002278 410.2 36.9
457(21) 0.002188 410.2 37.4
411(20) 0.002433 410.1 37.9
419(20) 0.002387 410.1 38.5
415(20) 0.002410 410.1 39.0
430(21) 0.002326 410.1 39.6
407(20) 0.002457 410.1 40.1
421(21) 0.002375 410.1 40.7
422(21) 0.002370 410.1 41.3
401(20) 0.002494 410.1 41.9
411(20) 0.002433 410.0 42.5
430(21) 0.002326 410.0 43.1
420(20) 0.002381 410.0 43.7
443(21) 0.002257 410.0 44.3
438(21) 0.002283 410.0 45.0
419(20) 0.002387 410.0 45.7
425(21) 0.002353 410.0 46.4
420(20) 0.002381 409.9 47.1
452(21) 0.002212 409.9 47.9
423(21) 0.002364 409.9 48.7
462(21) 0.002164 409.9 49.6
436(21) 0.002294 409.9 50.6
406(20) 0.002463 409.9 51.6
445(21) 0.002247 409.9 52.6
444(21) 0.002252 409.8 53.8
434(21) 0.002304 409.8 55.1
447(21) 0.002237 409.8 56.5
417(20) 0.002398 409.8 58.0
419(20) 0.002387 409.8 59.7
449(21) 0.002227 409.8 61.5
455(21) 0.002198 409.8 63.6
443(21) 0.002257 409.7 65.8
467(22) 0.002141 409.7 68.3
428(21) 0.002336 409.7 71.1
463(22) 0.002160 409.7 74.2
458(21) 0.002183 409.7 77.7
470(22) 0.002128 409.7 81.6
464(22) 0.002155 409.7 85.9
479(22) 0.002088 409.7 90.9
481(22) 0.002079 409.6 96.4
476(22) 0.002101 409.6 102.7
515(23) 0.001942 409.6 109.9
514(23) 0.001946 409.6 118.0
508(23) 0.001968 409.6 127.4
529(23) 0.001890 409.6 138.3
576(24) 0.001736 409.6 150.9
582(24) 0.001718 409.5 165.9
593(24) 0.001686 409.5 183.8
621(25) 0.001610 409.5 205.5
650(25) 0.001538 409.5 232.8
699(26) 0.001431 409.5 268.5
745(27) 0.001342 409.5 318.1
806(28) 0.001241 409.5 391.5
915(30) 0.001093 409.4 504.7
1127(34) 0.000887 409.4 679.4
1323(36) 0.000756 409. 936.
1706(41) 0.000586 409. 1283.
2152(46) 0.000465 409. 1681.
2583(51) 0.000387 409. 1999.
2651(51) 0.000377 409. 2038.
2373(49) 0.000421 409. 1774.
1933(44) 0.000517 409. 1394.
1603(40) 0.000624 409. 1050.
1407(38) 0.000711 409. 794.
1234(35) 0.000810 409. 622.
1156(34) 0.000865 409.3 515.6
1030(32) 0.000971 409.3 451.2
890(30) 0.001124 409.2 412.3
906(30) 0.001104 409.2 387.9
825(29) 0.001212 409.2 371.8
848(29) 0.001179 409.2 360.8
809(28) 0.001236 409.2 353.4
792(28) 0.001263 409.2 348.3
791(28) 0.001264 409.2 345.0
774(28) 0.001292 409.2 343.0
721(27) 0.001387 409.1 342.1
772(28) 0.001295 409.1 342.0
787(28) 0.001271 409.1 342.6
770(28) 0.001299 409.1 343.7
790(28) 0.001266 409.1 345.1
774(28) 0.001292 409.1 346.7
788(28) 0.001269 409.1 348.3
772(28) 0.001295 409.0 349.9
851(29) 0.001175 409.0 351.2
817(29) 0.001224 409.0 352.1
779(28) 0.001284 409.0 352.5
820(29) 0.001220 409.0 352.1
835(29) 0.001198 409.0 350.9
790(28) 0.001266 409.0 348.9
852(29) 0.001174 408.9 345.8
773(28) 0.001294 408.9 341.8
823(29) 0.001215 408.9 336.8
786(28) 0.001272 408.9 330.9
736(27) 0.001359 408.9 324.2
777(28) 0.001287 408.9 316.8
782(28) 0.001279 408.9 309.1
704(27) 0.001420 408.8 301.0
749(27) 0.001335 408.8 293.0
725(27) 0.001379 408.8 285.1
742(27) 0.001348 408.8 277.6
701(26) 0.001427 408.8 270.3
701(26) 0.001427 408.8 263.0
702(26) 0.001424 408.8 255.2
721(27) 0.001387 408.8 246.3
704(27) 0.001420 408.7 236.0
903(30) 0.001107 408.7 224.7
1346(37) 0.000743 409. 213.
928(30) 0.001078 408.7 202.1
1017(32) 0.000983 408.7 191.9
733(27) 0.001364 408.7 182.6
667(26) 0.001499 408.7 174.3
589(24) 0.001698 408.6 166.9
583(24) 0.001715 408.6 160.3
547(23) 0.001828 408.6 154.5
572(24) 0.001748 408.6 149.4
557(24) 0.001795 408.6 144.9
563(24) 0.001776 408.6 141.0
552(23) 0.001812 408.6 137.7
576(24) 0.001736 408.5 134.9
572(24) 0.001748 408.5 132.6
549(23) 0.001822 408.5 130.8
581(24) 0.001721 408.5 129.6
582(24) 0.001718 408.5 128.8
551(23) 0.001815 408.5 128.5
561(24) 0.001783 408.5 128.7
637(25) 0.001570 408.4 129.4
647(25) 0.001546 408.4 130.6
635(25) 0.001575 408.4 132.3
629(25) 0.001590 408.4 134.6
652(26) 0.001534 408.4 137.5
700(26) 0.001429 408.4 140.9
683(26) 0.001464 408.4 145.1
656(26) 0.001524 408.3 149.9
618(25) 0.001618 408.3 155.6
611(25) 0.001637 408.3 162.1
629(25) 0.001590 408.3 169.6
628(25) 0.001592 408.3 178.0
653(26) 0.001531 408.3 187.6
667(26) 0.001499 408.3 198.4
655(26) 0.001527 408.3 210.4
696(26) 0.001437 408.2 223.8
713(27) 0.001403 408.2 238.6
691(26) 0.001447 408.2 254.9
744(27) 0.001344 408.2 272.7
714(27) 0.001401 408.2 292.0
722(27) 0.001385 408.2 312.7
713(27) 0.001403 408.2 334.9
784(28) 0.001276 408.1 358.4
827(29) 0.001209 408.1 383.2
772(28) 0.001295 408.1 409.0
909(30) 0.001100 408.1 435.5
922(30) 0.001085 408.1 462.5
894(30) 0.001119 408.1 489.7
922(30) 0.001085 408.1 516.4
1025(32) 0.000976 408.0 542.2
1013(32) 0.000987 408.0 566.6
1008(32) 0.000992 408.0 588.8
1072(33) 0.000933 408.0 608.3
1137(34) 0.000880 408.0 624.7
1090(33) 0.000917 408.0 637.8
1092(33) 0.000916 408.0 647.4
1179(34) 0.000848 407.9 653.9
1138(34) 0.000879 407.9 658.0
1154(34) 0.000867 407.9 660.5
1186(34) 0.000843 407.9 662.8
1146(34) 0.000873 407.9 666.1
1141(34) 0.000876 407.9 672.1
1115(33) 0.000897 407.9 682.2
1131(34) 0.000884 407.9 698.0
1138(34) 0.000879 407.8 721.1
1150(34) 0.000870 407.8 752.7
1188(34) 0.000842 407.8 793.9
1265(36) 0.000791 408. 845.
1306(36) 0.000766 408. 907.
1353(37) 0.000739 408. 977.
1467(38) 0.000682 408. 1055.
1526(39) 0.000655 408. 1138.
1636(40) 0.000611 408. 1219.
1748(42) 0.000572 408. 1294.
1706(41) 0.000586 408. 1355.
1741(42) 0.000574 408. 1396.
1840(43) 0.000543 408. 1416.
1790(42) 0.000559 408. 1418.
1818(43) 0.000550 408. 1408.
1785(42) 0.000560 408. 1392.
1824(43) 0.000548 408. 1375.
1878(43) 0.000532 408. 1360.
1898(44) 0.000527 408. 1351.
1877(43) 0.000533 408. 1348.
1912(44) 0.000523 408. 1350.
1910(44) 0.000524 408. 1357.
1869(43) 0.000535 408. 1367.
1936(44) 0.000517 408. 1378.
2006(45) 0.000499 408. 1388.
1873(43) 0.000534 407. 1396.
1928(44) 0.000519 407. 1398.
1781(42) 0.000561 407. 1395.
1845(43) 0.000542 407. 1384.
1783(42) 0.000561 407. 1367.
1785(42) 0.000560 407. 1341.
1712(41) 0.000584 407. 1309.
1696(41) 0.000590 407. 1271.
1657(41) 0.000603 407. 1226.
1635(40) 0.000612 407. 1176.
1539(39) 0.000650 407. 1122.
1615(40) 0.000619 407. 1064.
1508(39) 0.000663 407. 1003.
1346(37) 0.000743 407. 941.
1364(37) 0.000733 407. 879.
1298(36) 0.000770 407. 817.
1230(35) 0.000813 407.3 757.8
1255(35) 0.000797 407. 701.
1198(35) 0.000835 407.2 646.3
1105(33) 0.000905 407.2 595.2
1086(33) 0.000921 407.2 547.3
1096(33) 0.000912 407.2 502.9
1074(33) 0.000931 407.2 461.8
998(32) 0.001002 407.2 424.0
1024(32) 0.000977 407.2 389.4
967(31) 0.001034 407.1 357.9
1054(32) 0.000949 407.1 329.3
966(31) 0.001035 407.1 303.4
924(30) 0.001082 407.1 280.0
913(30) 0.001095 407.1 259.0
960(31) 0.001042 407.1 240.1
924(30) 0.001082 407.1 223.2
934(31) 0.001071 407.0 208.2
913(30) 0.0 0.0 .
936(31) 0.0 0.0 .
948(31) 0.0 0.0 .
894(30) 0.0 0.0 .
949(31) 0.0 0.0 .
934(31) 0.0 0.0 .
926(30) 0.0 0.0 .
928(30) 0.0 0.0 .
987(31) 0.0 0.0 .
978(31) 0.0 0.0 .
962(31) 0.0 0.0 .
1005(32) 0.0 0.0 .
1014(32) 0.0 0.0 .
1069(33) 0.0 0.0 .
1158(34) 0.0 0.0 .
1136(34) 0.0 0.0 .
1184(34) 0.0 0.0 .
1211(35) 0.0 0.0 .
1196(35) 0.0 0.0 .
1177(34) 0.0 0.0 .
1181(34) 0.0 0.0 .
1195(35) 0.0 0.0 .
1229(35) 0.0 0.0 .
1272(36) 0.0 0. .
1259(35) 0.0 0. .
1287(36) 0.0 0. .
1299(36) 0.0 0. .
1272(36) 0.0 0. .
1421(38) 0.0 0. .
1418(38) 0.0 0. .
1452(38) 0.0 0. .
1543(39) 0.0 0. .
1654(41) 0.0 0. .
1717(41) 0.0 0. .
1780(42) 0.0 0. .
1871(43) 0.0 0. .
2029(45) 0.0 0. .
2185(47) 0.0 0. .
2407(49) 0.0 0. .
2641(51) 0.0 0. .
2945(54) 0.0 0. .
3286(57) 0.0 0. .
3730(61) 0.0 0. .
4376(66) 0.0 0. .
4837(70) 0.0 0. .
5931(77) 0.0 0. .
6898(83) 0.0 0. .
8544(92) 0.0 0. .
10350(100) 0.0 0. .
13420(120) 0.0 0. .
17180(130) 0.0 0. .
23240(150) 0.0 0. .
32200(180) 0.0 0. .
46700(220) 0.0 0. .
71080(270) 0.0 0. .
113980(340) 0.0 0. .
186870(430) 0.0 0. .
281650(530) 0.0 0. .
346540(590) 0.0 0. .
324930(570) 0.0 0. .
230080(480) 0.0 0. .
140470(380) 0.0 0. .
85570(290) 0.0 0. .
54300(230) 0.0 0. .
36450(190) 0.0 0. .
25800(160) 0.0 0. .
18950(140) 0.0 0. .
14340(120) 0.0 0. .
11230(110) 0.0 0. .
9021(95) 0.0 0. .
7391(86) 0.0 0. .
6073(78) 0.0 0. .
5209(72) 0.0 0. .
4393(66) 0.0 0. .
3787(62) 0.0 0. .
3398(58) 0.0 0. .
2963(54) 0.0 0. .
2716(52) 0.0 0. .
2529(50) 0.0 0. .
2080(46) 0.0 0. .
2079(46) 0.0 0. .
1831(43) 0.0 0. .
1693(41) 0.0 0. .
1568(40) 0.0 0. .
1489(39) 0.0 0. .
1324(36) 0.0 0. .
1307(36) 0.0 0. .
1272(36) 0.0 0. .
1213(35) 0.0 0.0 .
1081(33) 0.0 0.0 .
1090(33) 0.0 0.0 .
1038(32) 0.0 0.0 .
1059(33) 0.0 0.0 .
991(31) 0.0 0.0 .
929(30) 0.0 0.0 .
828(29) 0.0 0.0 .
883(30) 0.0 0.0 .
879(30) 0.0 0.0 .
796(28) 0.0 0.0 .
845(29) 0.0 0.0 .
788(28) 0.0 0.0 .
761(28) 0.0 0.0 .
770(28) 0.0 0.0 .
767(28) 0.0 0.0 .
742(27) 0.0 0.0 .
700(26) 0.0 0.0 .
699(26) 0.0 0.0 .
682(26) 0.0 0.0 .
674(26) 0.0 0.0 .
666(26) 0.0 0.0 .
727(27) 0.0 0.0 .
703(27) 0.0 0.0 .
635(25) 0.0 0.0 .
623(25) 0.0 0.0 .
638(25) 0.0 0.0 .
646(25) 0.0 0.0 .
632(25) 0.0 0.0 .
607(25) 0.0 0.0 .
671(26) 0.0 0.0 .
619(25) 0.0 0.0 .
569(24) 0.0 0.0 .
638(25) 0.0 0.0 .
610(25) 0.0 0.0 .
633(25) 0.0 0.0 .
635(25) 0.0 0.0 .
600(24) 0.0 0.0 .
560(24) 0.0 0.0 .
604(25) 0.0 0.0 .
562(24) 0.0 0.0 .
585(24) 0.0 0.0 .
598(24) 0.0 0.0 .
541(23) 0.0 0.0 .
580(24) 0.0 0.0 .
569(24) 0.0 0.0 .
540(23) 0.0 0.0 .
543(23) 0.0 0.0 .
523(23) 0.0 0.0 .
507(23) 0.0 0.0 .
501(22) 0.0 0.0 .
552(23) 0.0 0.0 .
556(24) 0.0 0.0 .
521(23) 0.0 0.0 .
509(23) 0.0 0.0 .
487(22) 0.0 0.0 .
506(22) 0.0 0.0 .
499(22) 0.0 0.0 .
501(22) 0.0 0.0 .
511(23) 0.0 0.0 .
472(22) 0.0 0.0 .
479(22) 0.0 0.0 .
475(22) 0.0 0.0 .
470(22) 0.0 0.0 .
484(22) 0.0 0.0 .
506(22) 0.0 0.0 .
503(22) 0.0 0.0 .
522(23) 0.0 0.0 .
479(22) 0.0 0.0 .
500(22) 0.0 0.0 .
484(22) 0.0 0.0 .
458(21) 0.0 0.0 .
456(21) 0.0 0.0 .
480(22) 0.0 0.0 .
458(21) 0.0 0.0 .
486(22) 0.0 0.0 .
442(21) 0.0 0.0 .
484(22) 0.0 0.0 .
522(23) 0.0 0.0 .
465(22) 0.0 0.0 .
471(22) 0.0 0.0 .
461(21) 0.0 0.0 .
482(22) 0.0 0.0 .
477(22) 0.0 0.0 .
472(22) 0.0 0.0 .
440(21) 0.0 0.0 .
465(22) 0.0 0.0 .
477(22) 0.0 0.0 .
458(21) 0.0 0.0 .
448(21) 0.0 0.0 .
435(21) 0.0 0.0 .
438(21) 0.0 0.0 .
475(22) 0.0 0.0 .
464(22) 0.0 0.0 .
442(21) 0.0 0.0 .
450(21) 0.0 0.0 .
423(21) 0.0 0.0 .
427(21) 0.0 0.0 .
437(21) 0.0 0.0 .
398(20) 0.0 0.0 .
424(21) 0.0 0.0 .
435(21) 0.0 0.0 .
427(21) 0.0 0.0 .
421(21) 0.0 0.0 .
426(21) 0.0 0.0 .
421(21) 0.0 0.0 .
411(20) 0.0 0.0 .
451(21) 0.0 0.0 .
427(21) 0.0 0.0 .
386(20) 0.0 0.0 .
396(20) 0.0 0.0 .
398(20) 0.0 0.0 .
415(20) 0.0 0.0 .
409(20) 0.0 0.0 .
431(21) 0.0 0.0 .
413(20) 0.0 0.0 .
419(20) 0.0 0.0 .
436(21) 0.002294 403.8 22.4
424(21) 0.002358 403.7 22.9
412(20) 0.002427 403.6 23.4
412(20) 0.002427 403.5 23.9
419(20) 0.002387 403.4 24.4
406(20) 0.002463 403.3 25.0
426(21) 0.002347 403.2 25.7
418(20) 0.002392 403.1 26.4
395(20) 0.002532 403.1 27.1
448(21) 0.002232 403.0 27.9
414(20) 0.002415 402.9 28.8
384(20) 0.002604 402.8 29.7
422(21) 0.002370 402.7 30.7
415(20) 0.002410 402.6 31.7
436(21) 0.002294 402.5 32.9
436(21) 0.002294 402.4 34.1
409(20) 0.002445 402.4 35.4
434(21) 0.002304 402.3 36.9
442(21) 0.002262 402.2 38.4
432(21) 0.002315 402.1 40.1
422(21) 0.002370 402.0 41.9
437(21) 0.002288 401.9 43.9
418(20) 0.002392 401.8 46.0
413(20) 0.002421 401.7 48.4
397(20) 0.002519 401.7 50.9
461(21) 0.002169 401.6 53.8
446(21) 0.002242 401.5 56.9
474(22) 0.002110 401.4 60.4
468(22) 0.002137 401.3 64.2
456(21) 0.002193 401.2 68.5
482(22) 0.002075 401.1 73.2
465(22) 0.002151 401.0 78.5
477(22) 0.002096 401.0 84.4
471(22) 0.002123 400.9 90.9
504(22) 0.001984 400.8 98.1
473(22) 0.002114 400.7 106.1
469(22) 0.002132 400.6 114.9
479(22) 0.002088 400.5 124.5
481(22) 0.002079 400.4 134.9
533(23) 0.001876 400.3 146.2
574(24) 0.001742 400.3 158.3
563(24) 0.001776 400.2 171.1
525(23) 0.001905 400.1 184.6
585(24) 0.001709 400.0 198.7
609(25) 0.001642 399.9 213.1
606(25) 0.001650 399.8 227.7
583(24) 0.001715 399.7 242.1
646(25) 0.001548 399.6 256.1
650(25) 0.001538 399.5 269.2
659(26) 0.001517 399.5 281.0
636(25) 0.001572 399.4 290.9
659(26) 0.001517 399.3 298.6
713(27) 0.001403 399.2 303.7
685(26) 0.001460 399.1 305.9
685(26) 0.001460 399.0 305.2
727(27) 0.001376 398.9 301.7
690(26) 0.001449 398.8 295.7
661(26) 0.001513 398.8 287.6
674(26) 0.001484 398.7 277.9
645(25) 0.001550 398.6 267.0
644(25) 0.001553 398.5 255.4
611(25) 0.001637 398.4 243.4
611(25) 0.001637 398.3 231.3
626(25) 0.001597 398.2 219.4
571(24) 0.001751 398.1 207.9
551(23) 0.001815 398.1 197.0
530(23) 0.001887 398.0 186.7
539(23) 0.001855 397.9 177.1
548(23) 0.001825 397.8 168.3
535(23) 0.001869 397.7 160.3
529(23) 0.001890 397.6 153.1
571(24) 0.001751 397.5 146.7
508(23) 0.001968 397.4 141.1
563(24) 0.001776 397.4 136.1
522(23) 0.001916 397.3 131.8
495(22) 0.002020 397.2 128.2
525(23) 0.001905 397.1 125.1
485(22) 0.002062 397.0 122.6
515(23) 0.001942 396.9 120.5
504(22) 0.001984 396.8 118.8
462(21) 0.002164 396.7 117.5
477(22) 0.002096 396.7 116.5
512(23) 0.001953 396.6 115.9
483(22) 0.002070 396.5 115.6
483(22) 0.002070 396.4 115.5
439(21) 0.002278 396.3 115.6
465(22) 0.002151 396.2 116.0
488(22) 0.002049 396.1 116.7
473(22) 0.002114 396.0 117.6
504(22) 0.001984 396.0 118.7
492(22) 0.002033 395.9 120.1
486(22) 0.002058 395.8 121.8
493(22) 0.002028 395.7 123.9
488(22) 0.002049 395.6 126.5
520(23) 0.001923 395.5 129.8
531(23) 0.001883 395.4 134.0
570(24) 0.001754 395.3 139.4
579(24) 0.001727 395.3 146.3
567(24) 0.001764 395.2 155.1
569(24) 0.001757 395.1 166.1
602(25) 0.001661 395.0 179.8
621(25) 0.001610 394.9 196.2
634(25) 0.001577 394.8 215.2
708(27) 0.001412 394.7 236.5
727(27) 0.001376 394.6 259.0
788(28) 0.001269 394.6 281.0
880(30) 0.001136 394.5 299.8
843(29) 0.001186 394.4 312.2
873(30) 0.001145 394.3 315.6
861(29) 0.001161 394.2 309.4
796(28) 0.001256 394.1 295.4
771(28) 0.001297 394.0 276.8
701(26) 0.001427 393.9 256.6
711(27) 0.001406 393.9 236.8
653(26) 0.001531 393.8 218.9
680(26) 0.001471 393.7 203.3
631(25) 0.001585 393.6 190.5
659(26) 0.001517 393.5 180.1
592(24) 0.001689 393.4 172.0
607(25) 0.001647 393.3 165.8
568(24) 0.001761 393.2 161.1
554(24) 0.001805 393.2 157.6
543(23) 0.001842 393.1 154.8
550(23) 0.001818 393.0 152.6
576(24) 0.001736 392.9 150.7
547(23) 0.001828 392.8 149.0
515(23) 0.001942 392.7 147.4
530(23) 0.001887 392.6 145.8
514(23) 0.001946 392.5 144.3
553(24) 0.001808 392.5 142.7
532(23) 0.001880 392.4 141.1
512(23) 0.001953 392.3 139.4
501(22) 0.001996 392.2 137.7
509(23) 0.001965 392.1 136.0
549(23) 0.001822 392.0 134.2
514(23) 0.001946 391.9 132.5
511(23) 0.001957 391.8 130.7
462(21) 0.002164 391.8 129.0
471(22) 0.002123 391.7 127.3
517(23) 0.001934 391.6 125.6
500(22) 0.002000 391.5 124.0
535(23) 0.001869 391.4 122.5
465(22) 0.002151 391.3 121.0
504(22) 0.001984 391.2 119.6
482(22) 0.002075 391.1 118.3
496(22) 0.002016 391.1 117.1
460(21) 0.002174 391.0 115.9
481(22) 0.002079 390.9 114.9
462(21) 0.002164 390.8 114.0
504(22) 0.001984 390.7 113.1
466(22) 0.002146 390.6 112.4
455(21) 0.002198 390.5 111.7
460(21) 0.002174 390.4 111.1
461(21) 0.002169 390.4 110.6
459(21) 0.002179 390.3 110.1
502(22) 0.001992 390.2 109.7
492(22) 0.002033 390.1 109.2
443(21) 0.002257 390.0 108.8
455(21) 0.002198 389.9 108.4
468(22) 0.002137 389.8 108.0
502(22) 0.001992 389.7 107.5
466(22) 0.002146 389.7 106.9
471(22) 0.002123 389.6 106.3
472(22) 0.002119 389.5 105.5
468(22) 0.002137 389.4 104.7
449(21) 0.002227 389.3 103.7
458(21) 0.002183 389.2 102.6
474(22) 0.002110 389.1 101.4
507(23) 0.001972 389.0 100.0
468(22) 0.002137 389.0 98.6
488(22) 0.002049 388.9 97.0
457(21) 0.002188 388.8 95.4
481(22) 0.002079 388.7 93.6
453(21) 0.002208 388.6 91.8
468(22) 0.002137 388.5 90.0
462(21) 0.002164 388.4 88.1
459(21) 0.002179 388.3 86.3
473(22) 0.002114 388.2 84.5
400(20) 0.002500 388.2 82.7
451(21) 0.002217 388.1 80.9
442(21) 0.002262 388.0 79.3
417(20) 0.002398 387.9 77.7
492(22) 0.002033 387.8 76.3
438(21) 0.002283 387.7 74.9
436(21) 0.002294 387.4 73.7
391(20) 0.002558 386.7 72.7
432(21) 0.002315 386.1 71.8
453(21) 0.002208 385.4 71.1
394(20) 0.002538 384.8 70.7
456(21) 0.002193 384.2 70.5
445(21) 0.002247 383.5 70.6
415(20) 0.002410 382.9 71.0
430(21) 0.002326 382.3 71.8
452(21) 0.002212 381.6 73.2
459(21) 0.002179 381.0 75.1
442(21) 0.002262 380.3 77.7
470(22) 0.002128 379.7 81.2
474(22) 0.002110 379.1 85.7
466(22) 0.002146 378.4 91.5
511(23) 0.001957 377.8 98.6
495(22) 0.002020 377.2 107.3
538(23) 0.001859 376.5 117.6
550(23) 0.001818 375.9 129.8
561(24) 0.001783 375.2 143.8
595(24) 0.001681 374.6 159.5
620(25) 0.001613 374.0 176.8
614(25) 0.001629 373.3 195.2
666(26) 0.001501 372.7 214.1
665(26) 0.001504 372.1 232.7
705(27) 0.001418 371.4 250.1
730(27) 0.001370 370.8 265.9
737(27) 0.001357 370.1 280.1
685(26) 0.001460 369.5 293.3
760(28) 0.001316 368.9 306.6
777(28) 0.001287 368.2 321.3
744(27) 0.001344 367.6 338.3
801(28) 0.001248 367.0 358.2
829(29) 0.001206 366.3 381.4
965(31) 0.001036 365.7 407.7
904(30) 0.001106 365.0 436.8
944(31) 0.001059 364.4 467.9
1099(33) 0.000910 363.8 500.0
1154(34) 0.000867 363.1 531.7
1128(34) 0.000887 362.5 561.1
1192(35) 0.000839 361.9 586.5
1146(34) 0.000873 361.2 605.7
1193(35) 0.000838 360.6 616.9
1154(34) 0.000867 359.9 619.0
1070(33) 0.000935 359.3 611.5
1114(33) 0.000898 358.7 594.9
976(31) 0.001025 358.0 570.3
966(31) 0.001035 357.4 539.4
919(30) 0.001088 356.8 504.1
923(30) 0.001083 356.1 466.1
823(29) 0.001215 355.5 427.0
785(28) 0.001274 354.8 388.0
750(27) 0.001333 354.2 350.2
712(27) 0.001404 353.6 314.1
680(26) 0.001471 352.9 280.4
616(25) 0.001623 352.3 249.4
633(25) 0.001580 351.7 221.2
580(24) 0.001724 351.0 196.0
535(23) 0.001869 350.4 173.5
530(23) 0.001887 349.7 153.9
535(23) 0.001869 349.1 136.8
519(23) 0.001927 348.5 122.1
484(22) 0.002066 347.8 109.5
504(22) 0.001984 347.2 98.9
446(21) 0.002242 346.6 89.9
435(21) 0.002299 345.9 82.4
440(21) 0.002273 345.3 76.1
430(21) 0.002326 344.6 70.9
440(21) 0.002273 344.0 66.5
440(21) 0.002273 343.4 62.9
414(20) 0.002415 342.7 59.9
441(21) 0.002268 342.1 57.3
401(20) 0.002494 341.5 55.3
412(20) 0.002427 340.8 53.6
425(21) 0.002353 340.2 52.2
413(20) 0.002421 339.5 51.1
389(20) 0.002571 338.9 50.2
395(20) 0.002532 338.3 49.5
395(20) 0.002532 337.6 49.1
381(20) 0.002625 337.0 48.8
399(20) 0.002506 336.4 48.6
373(19) 0.002681 335.7 48.6
396(20) 0.002525 335.1 48.8
412(20) 0.002427 334.4 49.0
422(21) 0.002370 333.8 49.4
352(19) 0.002841 333.2 49.9
386(20) 0.002591 332.5 50.5
383(20) 0.002611 331.9 51.1
362(19) 0.002762 331.3 51.9
360(19) 0.002778 330.6 52.6
359(19) 0.002786 330.0 53.5
394(20) 0.002538 329.3 54.3
373(19) 0.002681 328.7 55.1
358(19) 0.002793 328.1 56.0
376(19) 0.002660 327.4 56.8
390(20) 0.002564 326.8 57.6
361(19) 0.002770 326.2 58.2
378(19) 0.002646 325.5 58.8
374(19) 0.002674 324.9 59.3
345(19) 0.002899 324.2 59.7
397(20) 0.002519 323.6 59.9
367(19) 0.002725 323.0 60.0
377(19) 0.002653 322.3 59.9
355(19) 0.002817 321.7 59.6
338(18) 0.002959 321.1 59.2
344(19) 0.002907 320.4 58.6
358(19) 0.002793 319.8 57.8
348(19) 0.002874 319.1 56.9
376(19) 0.002660 318.5 55.8
346(19) 0.002890 317.9 54.7
365(19) 0.002740 317.2 53.4
343(19) 0.002915 316.6 52.1
350(19) 0.002857 316.0 50.8
376(19) 0.002660 315.3 49.4
351(19) 0.002849 314.7 47.9
349(19) 0.002865 314.0 46.5
386(20) 0.002591 313.4 45.1
381(20) 0.002625 312.8 43.6
375(19) 0.002667 312.1 42.2
354(19) 0.002825 311.5 40.9
300(17) 0.003333 310.9 39.6
364(19) 0.002747 310.2 38.3
340(18) 0.002941 309.6 37.1
357(19) 0.002801 308.9 35.9
362(19) 0.002762 308.3 34.8
366(19) 0.002732 307.7 33.7
310(18) 0.003226 307.0 32.7
336(18) 0.002976 306.4 31.8
342(18) 0.002924 305.8 30.9
347(19) 0.002882 305.1 30.1
354(19) 0.002825 304.5 29.4
324(18) 0.003086 303.8 28.7
321(18) 0.003115 303.2 28.1
357(19) 0.002801 302.6 27.5
331(18) 0.003021 301.9 27.0
323(18) 0.003096 301.7 26.5
355(19) 0.002817 301.9 26.1
336(18) 0.002976 302.1 25.7
325(18) 0.003077 302.3 25.4
313(18) 0.003195 302.4 25.1
351(19) 0.002849 302.6 24.8
325(18) 0.003077 302.8 24.5
361(19) 0.002770 303.0 24.3
332(18) 0.003012 303.2 24.1
317(18) 0.003155 303.4 24.0
344(19) 0.002907 303.5 23.8
315(18) 0.003175 303.7 23.7
357(19) 0.002801 303.9 23.6
351(19) 0.002849 304.1 23.5
318(18) 0.003145 304.3 23.4
325(18) 0.003077 304.5 23.3
333(18) 0.003003 304.6 23.2
350(19) 0.002857 304.8 23.2
342(18) 0.002924 305.0 23.1
352(19) 0.002841 305.2 23.1
346(19) 0.002890 305.4 23.1
334(18) 0.002994 305.6 23.0
331(18) 0.003021 305.7 22.9
334(18) 0.002994 305.9 22.8
342(18) 0.002924 306.1 22.8
316(18) 0.003165 306.3 22.7
317(18) 0.003155 306.5 22.6
349(19) 0.002865 306.7 22.5
362(19) 0.002762 306.8 22.4
339(18) 0.002950 307.0 22.3
327(18) 0.003058 307.2 22.2
342(18) 0.002924 307.4 22.1
333(18) 0.003003 307.6 22.0
347(19) 0.002882 307.8 21.8
328(18) 0.003049 307.9 21.7
316(18) 0.003165 308.1 21.6
324(18) 0.003086 308.3 21.4
333(18) 0.003003 308.5 21.3
346(19) 0.002890 308.7 21.1
333(18) 0.003003 308.9 20.9
341(18) 0.002933 309.0 20.8
326(18) 0.003067 309.2 20.6
336(18) 0.002976 309.4 20.4
335(18) 0.002985 309.6 20.2
345(19) 0.002899 309.8 20.0
317(18) 0.003155 310.0 19.8
352(19) 0.002841 310.1 19.6
317(18) 0.003155 310.3 19.4
335(18) 0.002985 310.5 19.2
352(19) 0.002841 310.7 19.0
295(17) 0.003390 310.9 18.8
349(19) 0.002865 311.1 18.6
349(19) 0.002865 311.2 18.4
323(18) 0.003096 311.4 18.2
316(18) 0.003165 311.6 18.0
328(18) 0.003049 311.8 17.8
342(18) 0.002924 312.0 17.6
355(19) 0.002817 312.2 17.4
348(19) 0.002874 312.3 17.3
339(18) 0.002950 312.5 17.1
355(19) 0.002817 312.7 16.9
355(19) 0.002817 312.9 16.7
328(18) 0.003049 313.1 16.5
325(18) 0.003077 313.3 16.4
337(18) 0.002967 313.4 16.2
329(18) 0.003039 313.6 16.0
323(18) 0.003096 313.8 15.8
338(18) 0.002959 314.0 15.7
345(19) 0.002899 314.2 15.5
336(18) 0.002976 314.4 15.3
326(18) 0.003067 314.5 15.2
324(18) 0.003086 314.7 15.0
314(18) 0.003185 314.9 14.9
343(19) 0.002915 315.1 14.7
311(18) 0.003215 315.3 14.6
326(18) 0.003067 315.5 14.4
306(17) 0.003268 315.6 14.3
364(19) 0.002747 315.8 14.1
330(18) 0.003030 316.0 14.0
309(18) 0.003236 316.2 13.9
317(18) 0.003155 316.4 13.8
309(18) 0.003236 316.6 13.7
337(18) 0.002967 316.7 13.5
341(18) 0.002933 316.9 13.4
346(19) 0.002890 317.1 13.3
305(17) 0.003279 317.3 13.3
358(19) 0.002793 317.5 13.2
336(18) 0.002976 317.7 13.1
335(18) 0.002985 317.8 13.0
342(18) 0.002924 318.0 12.9
319(18) 0.003135 318.2 12.9
348(19) 0.002874 318.4 12.8
322(18) 0.003106 318.6 12.8
364(19) 0.002747 318.8 12.7
338(18) 0.002959 318.9 12.7
344(19) 0.002907 319.1 12.6
339(18) 0.002950 319.3 12.6
332(18) 0.003012 319.5 12.6
337(18) 0.002967 319.7 12.6
344(19) 0.002907 319.9 12.5
333(18) 0.003003 320.0 12.5
320(18) 0.003125 320.2 12.5
305(17) 0.003279 320.4 12.5
359(19) 0.002786 320.6 12.6
339(18) 0.002950 320.8 12.6
346(19) 0.002890 321.0 12.6
315(18) 0.003175 321.1 12.6
367(19) 0.002725 321.3 12.7
331(18) 0.003021 321.5 12.7
326(18) 0.003067 321.7 12.7
320(18) 0.003125 321.9 12.8
316(18) 0.003165 322.1 12.9
305(17) 0.003279 322.2 12.9
327(18) 0.003058 322.4 13.0
317(18) 0.003155 322.6 13.1
334(18) 0.002994 322.8 13.2
329(18) 0.003039 323.0 13.3
332(18) 0.003012 323.2 13.4
317(18) 0.003155 323.3 13.6
321(18) 0.003115 323.5 13.7
326(18) 0.003067 323.7 13.8
340(18) 0.002941 323.9 14.0
335(18) 0.002985 324.1 14.2
336(18) 0.002976 324.3 14.4
333(18) 0.003003 324.4 14.6
358(19) 0.002793 324.6 14.8
330(18) 0.003030 324.8 15.0
334(18) 0.002994 325.0 15.3
309(18) 0.003236 325.2 15.6
364(19) 0.002747 325.4 15.9
311(18) 0.003215 325.5 16.2
341(18) 0.002933 325.7 16.5
322(18) 0.003106 325.9 16.9
325(18) 0.003077 326.1 17.4
323(18) 0.003096 326.3 17.8
356(19) 0.002809 326.5 18.3
312(18) 0.003205 326.6 18.9
347(19) 0.002882 326.8 19.6
338(18) 0.002959 327.0 20.4
314(18) 0.003185 327.2 21.3
322(18) 0.003106 327.4 22.4
322(18) 0.003106 327.6 23.7
352(19) 0.002841 327.7 25.3
349(19) 0.002865 327.9 27.3
357(19) 0.002801 328.1 29.9
341(18) 0.002933 328.3 33.1
379(19) 0.002639 328.5 37.2
378(19) 0.002646 328.7 42.2
384(20) 0.002604 328.8 48.2
353(19) 0.002833 329.0 55.4
373(19) 0.002681 329.2 63.6
398(20) 0.002513 329.4 72.9
449(21) 0.002227 329.6 83.0
443(21) 0.002257 329.8 93.3
440(21) 0.002273 329.9 103.1
412(20) 0.002427 330.1 111.4
492(22) 0.002033 330.3 117.1
497(22) 0.002012 330.5 119.1
489(22) 0.002045 330.7 117.1
470(22) 0.002128 330.9 111.6
430(21) 0.002326 331.0 103.7
433(21) 0.002309 331.2 94.5
399(20) 0.002506 331.4 84.9
397(20) 0.002519 331.6 75.8
371(19) 0.002695 331.8 67.6
371(19) 0.002695 332.0 60.4
388(20) 0.002577 332.1 54.3
365(19) 0.002740 332.3 49.4
348(19) 0.002874 332.5 45.5
369(19) 0.002710 332.7 42.6
373(19) 0.002681 332.9 40.6
375(19) 0.002667 333.1 39.3
377(19) 0.002653 333.2 38.6
384(20) 0.002604 333.4 38.4
392(20) 0.002551 333.6 38.7
359(19) 0.002786 333.8 39.3
374(19) 0.002674 334.0 40.3
352(19) 0.002841 334.2 41.6
362(19) 0.002762 334.3 43.3
380(19) 0.002632 334.5 45.4
375(19) 0.002667 334.7 47.9
365(19) 0.002740 334.9 50.8
393(20) 0.002545 335.1 54.1
414(20) 0.002415 335.3 57.9
398(20) 0.002513 335.4 62.2
407(20) 0.002457 335.6 66.9
412(20) 0.002427 335.8 72.0
346(19) 0.002890 336.0 77.5
415(20) 0.002410 336.2 83.3
396(20) 0.002525 336.4 89.4
437(21) 0.002288 336.5 95.6
437(21) 0.002288 336.7 101.7
440(21) 0.002273 336.9 107.5
436(21) 0.002294 337.1 112.8
451(21) 0.002217 337.3 117.4
455(21) 0.002198 337.5 121.0
441(21) 0.002268 337.6 123.4
447(21) 0.002237 337.8 124.6
490(22) 0.002041 338.0 124.7
411(20) 0.002433 338.2 123.9
403(20) 0.002481 338.4 122.3
454(21) 0.002203 338.6 120.3
433(21) 0.002309 338.7 118.2
407(20) 0.002457 338.9 116.2
436(21) 0.002294 339.1 114.5
437(21) 0.002288 339.3 113.3
434(21) 0.002304 339.5 112.6
431(21) 0.002320 339.7 112.7
438(21) 0.002283 339.8 113.6
430(21) 0.002326 340.0 115.2
449(21) 0.002227 340.2 117.8
464(22) 0.002155 340.4 121.2
482(22) 0.002075 340.6 125.6
438(21) 0.002283 340.8 130.8
474(22) 0.002110 340.9 136.9
479(22) 0.002088 341.1 143.9
460(21) 0.002174 341.3 151.7
502(22) 0.001992 341.5 160.3
498(22) 0.002008 341.7 169.7
537(23) 0.001862 341.9 179.7
526(23) 0.001901 342.0 190.5
530(23) 0.001887 342.2 201.8
509(23) 0.001965 342.4 213.7
551(23) 0.001815 342.6 226.1
581(24) 0.001721 342.8 238.8
586(24) 0.001706 343.0 251.7
657(26) 0.001522 343.1 264.9
649(25) 0.001541 343.3 278.0
661(26) 0.001513 343.5 291.0
714(27) 0.001401 343.7 303.7
750(27) 0.001333 343.9 315.8
746(27) 0.001340 344.1 327.3
767(28) 0.001304 344.2 337.8
756(27) 0.001323 344.4 347.1
733(27) 0.001364 344.6 355.1
767(28) 0.001304 344.8 361.5
708(27) 0.001412 345.0 366.2
709(27) 0.001410 345.2 369.2
770(28) 0.001299 345.3 370.3
728(27) 0.001374 345.5 369.6
708(27) 0.001412 345.7 367.2
724(27) 0.001381 345.9 363.1
688(26) 0.001453 346.1 357.7
679(26) 0.001473 346.3 351.0
665(26) 0.001504 346.4 343.2
699(26) 0.001431 346.6 334.6
654(26) 0.001529 346.8 325.3
692(26) 0.001445 347.0 315.5
684(26) 0.001462 347.2 305.4
604(25) 0.001656 347.4 295.2
614(25) 0.001629 347.5 284.9
660(26) 0.001515 347.7 274.7
635(25) 0.001575 347.9 264.6
615(25) 0.001626 348.1 254.7
606(25) 0.001650 348.3 245.1
601(25) 0.001664 348.5 235.8
576(24) 0.001736 348.6 226.8
590(24) 0.001695 348.8 218.2
614(25) 0.001629 349.0 210.0
605(25) 0.001653 349.2 202.1
542(23) 0.001845 349.4 194.6
562(24) 0.001779 349.6 187.5
536(23) 0.001866 349.7 180.8
544(23) 0.001838 349.9 174.4
496(22) 0.002016 350.1 168.3
516(23) 0.001938 350.3 162.6
481(22) 0.002079 350.5 157.1
533(23) 0.001876 350.7 152.0
496(22) 0.002016 350.8 147.1
510(23) 0.001961 351.0 142.4
543(23) 0.001842 351.2 138.0
486(22) 0.002058 351.4 133.8
493(22) 0.002028 351.6 129.7
476(22) 0.002101 351.8 125.9
462(21) 0.002164 351.9 122.2
460(21) 0.002174 352.1 118.7
479(22) 0.002088 352.3 115.3
451(21) 0.002217 352.5 112.1
461(21) 0.002169 352.7 109.0
443(21) 0.002257 352.9 106.0
468(22) 0.002137 353.0 103.1
419(20) 0.002387 353.2 100.3
447(21) 0.002237 353.4 97.6
426(21) 0.002347 353.6 95.0
448(21) 0.002232 353.8 92.6
441(21) 0.002268 354.0 90.2
368(19) 0.002717 354.1 87.9
419(20) 0.002387 354.3 85.7
395(20) 0.002532 354.5 83.6
387(20) 0.002584 354.7 81.6
409(20) 0.002445 354.9 79.7
382(20) 0.002618 355.1 78.0
365(19) 0.002740 355.2 76.3
381(20) 0.002625 355.4 74.7
391(20) 0.002558 355.6 73.2
380(19) 0.002632 355.8 71.9
385(20) 0.002597 356.0 70.6
393(20) 0.002545 356.2 69.5
381(20) 0.002625 356.3 68.4
386(20) 0.002591 356.5 67.5
400(20) 0.002500 356.7 66.7
386(20) 0.002591 356.9 66.0
364(19) 0.002747 356.9 65.5
362(19) 0.002762 356.8 65.0
405(20) 0.002469 356.7 64.7
396(20) 0.002525 356.7 64.5
345(19) 0.002899 356.6 64.4
398(20) 0.002513 356.5 64.4
415(20) 0.002410 356.5 64.6
436(21) 0.002294 356.4 64.8
378(19) 0.002646 356.3 65.2
351(19) 0.002849 356.2 65.7
383(20) 0.002611 356.2 66.3
361(19) 0.002770 356.1 66.9
337(18) 0.002967 356.0 67.7
365(19) 0.002740 356.0 68.5
374(19) 0.002674 355.9 69.4
356(19) 0.002809 355.8 70.4
415(20) 0.002410 355.7 71.5
391(20) 0.002558 355.7 72.5
395(20) 0.002532 355.6 73.6
378(19) 0.002646 355.5 74.8
398(20) 0.002513 355.5 75.9
368(19) 0.002717 355.4 77.0
395(20) 0.002532 355.3 78.1
379(19) 0.002639 355.2 79.2
420(20) 0.002381 355.2 80.2
385(20) 0.002597 355.1 81.2
403(20) 0.002481 355.0 82.1
377(19) 0.002653 355.0 83.0
421(21) 0.002375 354.9 83.8
419(20) 0.002387 354.8 84.5
444(21) 0.002252 354.7 85.2
426(21) 0.002347 354.7 85.9
416(20) 0.002404 354.6 86.5
401(20) 0.002494 354.5 87.1
421(21) 0.002375 354.5 87.6
422(21) 0.002370 354.4 88.1
417(20) 0.002398 354.3 88.6
422(21) 0.002370 354.2 89.1
430(21) 0.002326 354.2 89.5
409(20) 0.002445 354.1 90.0
421(21) 0.002375 354.0 90.4
439(21) 0.002278 354.0 90.7
445(21) 0.002247 353.9 91.1
434(21) 0.002304 353.8 91.4
444(21) 0.002252 353.7 91.7
412(20) 0.002427 353.7 92.0
391(20) 0.002558 353.6 92.3
410(20) 0.002439 353.5 92.5
408(20) 0.002451 353.5 92.6
422(21) 0.002370 353.4 92.8
442(21) 0.002262 353.3 92.9
418(20) 0.002392 353.2 93.0
403(20) 0.002481 353.2 93.0
407(20) 0.002457 353.1 93.0
418(20) 0.002392 353.0 93.0
438(21) 0.002283 353.0 92.9
417(20) 0.002398 352.9 92.9
432(21) 0.002315 352.8 92.8
436(21) 0.002294 352.7 92.7
432(21) 0.002315 352.7 92.6
419(20) 0.002387 352.6 92.4
421(21) 0.002375 352.5 92.3
427(21) 0.002342 352.5 92.3
433(21) 0.002309 352.4 92.2
423(21) 0.002364 352.3 92.2
436(21) 0.002294 352.2 92.2
423(21) 0.002364 352.2 92.4
399(20) 0.002506 352.1 92.6
414(20) 0.002415 352.0 92.9
435(21) 0.002299 352.0 93.3
421(21) 0.002375 351.9 94.0
428(21) 0.002336 351.8 95.0
411(20) 0.002433 351.7 96.3
434(21) 0.002304 351.7 98.1
433(21) 0.002309 351.6 100.5
472(22) 0.002119 351.5 103.8
465(22) 0.002151 351.5 108.1
457(21) 0.002188 351.4 113.8
433(21) 0.002309 351.3 121.0
508(23) 0.001968 351.2 130.0
485(22) 0.002062 351.2 140.9
502(22) 0.001992 351.1 153.9
541(23) 0.001848 351.0 168.8
551(23) 0.001815 351.0 185.3
571(24) 0.001751 350.9 202.9
618(25) 0.001618 350.8 220.4
667(26) 0.001499 350.7 236.3
674(26) 0.001484 350.7 248.8
730(27) 0.001370 350.6 255.8
700(26) 0.001429 350.5 256.1
739(27) 0.001353 350.5 249.9
704(27) 0.001420 350.4 238.6
599(24) 0.001669 350.3 224.1
583(24) 0.001715 350.2 208.6
525(23) 0.001905 350.2 193.4
533(23) 0.001876 350.1 179.5
550(23) 0.001818 350.0 167.7
525(23) 0.001905 350.0 158.0
500(22) 0.002000 349.9 150.5
479(22) 0.002088 349.8 144.9
501(22) 0.001996 349.7 140.9
511(23) 0.001957 349.7 137.9
495(22) 0.002020 349.6 135.5
468(22) 0.002137 349.5 133.1
448(21) 0.002232 349.5 130.3
509(23) 0.001965 349.4 127.1
441(21) 0.002268 349.3 123.5
449(21) 0.002227 349.2 119.6
432(21) 0.002315 349.2 115.8
435(21) 0.002299 349.1 112.2
463(22) 0.002160 349.0 108.8
415(20) 0.002410 349.0 105.9
449(21) 0.002227 348.9 103.4
408(20) 0.002451 348.8 101.3
444(21) 0.002252 348.7 99.7
411(20) 0.002433 348.7 98.5
377(19) 0.002653 348.6 97.7
410(20) 0.002439 348.5 97.2
391(20) 0.002558 348.5 97.1
444(21) 0.002252 348.4 97.2
422(21) 0.002370 348.3 97.5
402(20) 0.002488 348.3 98.0
437(21) 0.002288 348.2 98.7
401(20) 0.002494 348.1 99.5
419(20) 0.002387 348.0 100.4
388(20) 0.002577 348.0 101.3
395(20) 0.002532 347.9 102.4
404(20) 0.002475 347.8 103.4
403(20) 0.002481 347.8 104.5
369(19) 0.002710 347.7 105.6
391(20) 0.002558 347.6 106.7
419(20) 0.002387 347.5 107.8
439(21) 0.002278 347.5 108.9
415(20) 0.002410 347.4 109.9
398(20) 0.002513 347.3 111.0
394(20) 0.002538 347.3 112.0
401(20) 0.002494 347.2 113.1
444(21) 0.002252 347.1 114.2
407(20) 0.002457 347.0 115.3
397(20) 0.002519 347.0 116.6
420(20) 0.002381 346.9 117.9
423(21) 0.002364 346.8 119.5
458(21) 0.002183 346.8 121.2
422(21) 0.002370 346.7 123.2
427(21) 0.002342 346.6 125.5
457(21) 0.002188 346.5 128.0
480(22) 0.002083 346.5 130.8
457(21) 0.002188 346.4 133.9
487(22) 0.002053 346.3 137.2
480(22) 0.002083 346.3 140.6
458(21) 0.002183 346.2 143.9
492(22) 0.002033 346.1 147.0
499(22) 0.002004 346.0 149.8
491(22) 0.002037 346.0 152.1
516(23) 0.001938 345.9 154.1
517(23) 0.001934 345.8 155.9
513(23) 0.001949 345.8 157.9
492(22) 0.002033 345.7 160.8
536(23) 0.001866 345.6 165.2
514(23) 0.001946 345.5 171.6
554(24) 0.001805 345.5 180.7
537(23) 0.001862 345.4 192.9
556(24) 0.001799 345.3 208.3
581(24) 0.001721 345.3 226.7
651(26) 0.001536 345.2 247.2
669(26) 0.001495 345.1 268.0
664(26) 0.001506 345.0 286.0
679(26) 0.001473 345.0 297.6
697(26) 0.001435 344.9 300.6
628(25) 0.001592 344.8 295.6
661(26) 0.001513 344.8 285.4
645(25) 0.001550 344.7 273.0
675(26) 0.001481 344.6 260.5
609(25) 0.001642 344.5 248.8
635(25) 0.001575 344.5 238.3
612(25) 0.001634 344.4 228.9
604(25) 0.001656 344.3 220.5
594(24) 0.001684 344.3 212.8
605(25) 0.001653 344.2 205.7
559(24) 0.001789 344.1 199.0
525(23) 0.001905 344.0 192.7
547(23) 0.001828 344.0 187.0
538(23) 0.001859 343.9 181.8
501(22) 0.001996 343.8 177.4
534(23) 0.001873 343.8 173.8
510(23) 0.001961 343.7 171.1
500(22) 0.002000 343.6 169.6
465(22) 0.002151 343.5 169.2
464(22) 0.002155 343.5 169.9
496(22) 0.002016 343.4 171.9
486(22) 0.002058 343.3 175.2
474(22) 0.002110 343.3 179.7
484(22) 0.002066 343.2 185.4
516(23) 0.001938 343.1 192.3
492(22) 0.002033 343.0 200.2
504(22) 0.001984 343.0 209.1
551(23) 0.001815 342.9 218.7
544(23) 0.001838 342.8 229.0
558(24) 0.001792 342.8 239.7
573(24) 0.001745 342.7 250.5
591(24) 0.001692 342.6 261.1
603(25) 0.001658 342.5 271.3
631(25) 0.001585 342.5 280.6
600(24) 0.001667 342.4 288.7
620(25) 0.001613 342.3 295.3
616(25) 0.001623 342.3 299.9
608(25) 0.001645 342.2 302.4
587(24) 0.001704 342.1 302.5
576(24) 0.001736 342.0 300.0
593(24) 0.001686 342.0 295.1
597(24) 0.001675 341.9 287.8
550(23) 0.001818 341.8 278.5
540(23) 0.001852 341.8 267.4
516(23) 0.001938 341.7 255.0
515(23) 0.001942 341.6 241.6
515(23) 0.001942 341.5 227.7
465(22) 0.002151 341.5 213.4
462(21) 0.002164 341.4 199.2
457(21) 0.002188 341.3 185.3
467(22) 0.002141 341.3 171.8
479(22) 0.002088 341.2 158.8
439(21) 0.002278 341.1 146.6
426(21) 0.002347 341.0 135.1
415(20) 0.002410 341.0 124.4
414(20) 0.002415 340.9 114.5
432(21) 0.002315 340.8 105.5
415(20) 0.002410 340.8 97.2
387(20) 0.002584 340.7 89.8
382(20) 0.002618 340.6 83.2
387(20) 0.002584 340.5 77.4
366(19) 0.002732 340.5 72.2
378(19) 0.002646 340.4 67.7
379(19) 0.002639 340.3 63.8
388(20) 0.002577 340.3 60.4
385(20) 0.002597 340.2 57.6
432(21) 0.002315 340.1 55.2
361(19) 0.002770 340.0 53.3
383(20) 0.002611 340.0 51.8
375(19) 0.002667 339.9 50.6
374(19) 0.002674 339.8 49.8
376(19) 0.002660 339.8 49.2
383(20) 0.002611 339.7 48.9
366(19) 0.002732 339.6 48.9
347(19) 0.002882 339.5 49.0
371(19) 0.002695 339.5 49.4
388(20) 0.002577 339.4 49.8
345(19) 0.002899 339.3 50.4
370(19) 0.002703 339.3 51.1
382(20) 0.002618 339.2 51.9
363(19) 0.002755 339.1 52.6
381(20) 0.002625 339.0 53.3
365(19) 0.002740 339.0 54.0
347(19) 0.002882 338.9 54.6
358(19) 0.002793 338.8 54.9
359(19) 0.002786 338.8 55.1
387(20) 0.002584 338.7 55.1
346(19) 0.002890 338.6 54.8
376(19) 0.002660 338.5 54.3
362(19) 0.002762 338.5 53.5
346(19) 0.002890 338.4 52.6
352(19) 0.002841 338.3 51.4
352(19) 0.002841 338.3 50.1
364(19) 0.002747 338.2 48.7
355(19) 0.002817 338.1 47.3
331(18) 0.003021 338.0 45.8
358(19) 0.002793 338.0 44.3
345(19) 0.002899 337.9 42.8
372(19) 0.002688 337.8 41.4
352(19) 0.002841 337.8 40.0
353(19) 0.002833 337.7 38.7
360(19) 0.002778 337.6 37.5
337(18) 0.002967 337.6 36.4
368(19) 0.002717 337.7 35.4
356(19) 0.002809 337.7 34.5
375(19) 0.002667 337.8 33.8
324(18) 0.003086 337.8 33.1
344(19) 0.002907 337.9 32.6
355(19) 0.002817 338.0 32.2
370(19) 0.002703 338.0 31.9
337(18) 0.002967 338.1 31.8
358(19) 0.002793 338.1 31.7
360(19) 0.002778 338.2 31.8
355(19) 0.002817 338.3 32.1
373(19) 0.002681 338.3 32.4
362(19) 0.002762 338.4 32.9
361(19) 0.002770 338.4 33.5
358(19) 0.002793 338.5 34.3
350(19) 0.002857 338.6 35.2
349(19) 0.002865 338.6 36.3
351(19) 0.002849 338.7 37.6
342(18) 0.002924 338.7 39.0
373(19) 0.002681 338.8 40.7
377(19) 0.002653 338.9 42.5
351(19) 0.002849 338.9 44.6
386(20) 0.002591 339.0 46.9
370(19) 0.002703 339.0 49.5
374(19) 0.002674 339.1 52.3
390(20) 0.002564 339.2 55.4
361(19) 0.002770 339.2 58.8
385(20) 0.002597 339.3 62.5
400(20) 0.002500 339.3 66.5
434(21) 0.002304 339.4 70.9
389(20) 0.002571 339.4 75.5
421(21) 0.002375 339.5 80.6
416(20) 0.002404 339.6 85.9
433(21) 0.002309 339.6 91.6
426(21) 0.002347 339.7 97.6
436(21) 0.002294 339.7 104.0
445(21) 0.002247 339.8 110.6
436(21) 0.002294 339.9 117.5
426(21) 0.002347 339.9 124.7
466(22) 0.002146 340.0 132.0
495(22) 0.002020 340.0 139.6
526(23) 0.001901 340.1 147.2
515(23) 0.001942 340.2 154.9
471(22) 0.002123 340.2 162.6
477(22) 0.002096 340.3 170.2
526(23) 0.001901 340.3 177.6
533(23) 0.001876 340.4 184.6
496(22) 0.002016 340.5 191.3
517(23) 0.001934 340.5 197.5
536(23) 0.001866 340.6 203.0
543(23) 0.001842 340.6 207.7
502(22) 0.001992 340.7 211.5
520(23) 0.001923 340.8 214.4
537(23) 0.001862 340.8 216.2
541(23) 0.001848 340.9 216.9
505(22) 0.001980 340.9 216.5
511(23) 0.001957 341.0 215.0
507(23) 0.001972 341.0 212.4
505(22) 0.001980 341.1 208.8
532(23) 0.001880 341.2 204.3
508(23) 0.001968 341.2 199.0
506(22) 0.001976 341.3 193.1
464(22) 0.002155 341.3 186.5
464(22) 0.002155 341.4 179.6
435(21) 0.002299 341.5 172.3
460(21) 0.002174 341.5 164.8
451(21) 0.002217 341.6 157.2
461(21) 0.002169 341.6 149.6
441(21) 0.002268 341.7 142.0
417(20) 0.002398 341.8 134.5
413(20) 0.002421 341.8 127.1
452(21) 0.002212 341.9 120.0
432(21) 0.002315 341.9 113.1
441(21) 0.002268 342.0 106.5
390(20) 0.002564 342.1 100.2
436(21) 0.002294 342.1 94.2
427(21) 0.002342 342.2 88.5
380(19) 0.002632 342.2 83.2
404(20) 0.002475 342.3 78.2
407(20) 0.002457 342.4 73.5
398(20) 0.002513 342.4 69.2
387(20) 0.002584 342.5 65.2
385(20) 0.002597 342.5 61.6
374(19) 0.002674 342.6 58.2
348(19) 0.002874 342.7 55.2
394(20) 0.002538 342.7 52.5
382(20) 0.002618 342.8 50.0
399(20) 0.002506 342.8 47.8
331(18) 0.003021 342.9 45.9
406(20) 0.002463 342.9 44.2
379(19) 0.002639 343.0 42.7
386(20) 0.002591 343.1 41.5
371(19) 0.002695 343.1 40.4
358(19) 0.002793 343.2 39.6
397(20) 0.002519 343.2 38.9
416(20) 0.002404 343.3 38.5
387(20) 0.002584 343.4 38.2
381(20) 0.002625 343.4 38.1
385(20) 0.002597 343.5 38.2
368(19) 0.002717 343.5 38.5
358(19) 0.002793 343.6 39.1
389(20) 0.002571 343.7 39.8
376(19) 0.002660 343.7 40.8
413(20) 0.002421 343.8 42.1
403(20) 0.002481 343.8 43.7
362(19) 0.002762 343.9 45.6
389(20) 0.002571 344.0 47.8
399(20) 0.002506 344.0 50.4
399(20) 0.002506 344.1 53.3
382(20) 0.002618 344.1 56.7
378(19) 0.002646 344.2 60.5
398(20) 0.002513 344.3 64.8
413(20) 0.002421 344.3 69.5
423(21) 0.002364 344.4 74.7
416(20) 0.002404 344.4 80.3
421(21) 0.002375 344.5 86.4
395(20) 0.002532 344.5 92.9
439(21) 0.002278 344.6 99.8
433(21) 0.002309 344.7 107.0
464(22) 0.002155 344.7 114.5
481(22) 0.002079 344.8 122.2
469(22) 0.002132 344.8 129.9
484(22) 0.002066 344.9 137.6
493(22) 0.002028 345.0 145.0
488(22) 0.002049 345.0 151.9
465(22) 0.002151 345.1 158.2
527(23) 0.001898 345.1 163.7
547(23) 0.001828 345.2 168.0
526(23) 0.001901 345.3 171.1
534(23) 0.001873 345.3 172.9
500(22) 0.002000 345.4 173.1
532(23) 0.001880 345.4 171.9
516(23) 0.001938 345.5 169.3
526(23) 0.001901 345.6 165.6
502(22) 0.001992 345.6 160.8
507(23) 0.001972 345.7 155.2
520(23) 0.001923 345.7 149.0
480(22) 0.002083 345.8 142.4
440(21) 0.002273 345.9 135.7
452(21) 0.002212 345.9 129.0
431(21) 0.002320 346.0 122.4
478(22) 0.002092 346.0 116.0
421(21) 0.002375 346.1 110.0
411(20) 0.002433 346.1 104.3
430(21) 0.002326 346.2 99.1
443(21) 0.002257 346.3 94.4
424(21) 0.002358 346.3 90.2
416(20) 0.002404 346.4 86.5
406(20) 0.002463 346.4 83.3
416(20) 0.002404 346.5 80.6
377(19) 0.002653 346.6 78.4
439(21) 0.002278 346.6 76.6
397(20) 0.002519 346.7 75.4
449(21) 0.002227 346.7 74.5
420(20) 0.002381 346.8 74.0
424(21) 0.002358 346.9 73.8
453(21) 0.002208 346.9 74.0
451(21) 0.002217 347.0 74.4
420(20) 0.002381 347.0 75.1
432(21) 0.002315 347.1 76.0
444(21) 0.002252 347.2 77.0
418(20) 0.002392 347.2 78.2
446(21) 0.002242 347.3 79.5
481(22) 0.002079 347.3 80.8
478(22) 0.002092 347.4 82.2
458(21) 0.002183 347.5 83.6
440(21) 0.002273 347.5 85.0
499(22) 0.002004 347.6 86.4
465(22) 0.002151 347.6 87.6
448(21) 0.002232 347.7 88.8
474(22) 0.002110 347.7 89.8
465(22) 0.002151 347.8 90.7
469(22) 0.002132 347.9 91.5
495(22) 0.002020 347.9 92.0
423(21) 0.002364 348.0 92.4
467(22) 0.002141 348.0 92.5
464(22) 0.002155 348.1 92.4
468(22) 0.002137 348.2 92.2
468(22) 0.002137 348.2 91.7
446(21) 0.002242 348.3 91.0
434(21) 0.002304 348.3 90.1
439(21) 0.002278 348.4 89.0
419(20) 0.002387 348.5 87.8
447(21) 0.002237 348.5 86.5
470(22) 0.002128 348.6 85.0
428(21) 0.002336 348.6 83.4
422(21) 0.002370 348.7 81.8
382(20) 0.002618 348.8 80.1
389(20) 0.002571 348.8 78.3
394(20) 0.002538 348.9 76.5
427(21) 0.002342 348.9 74.7
417(20) 0.002398 349.0 73.0
416(20) 0.002404 349.1 71.2
432(21) 0.002315 349.1 69.5
391(20) 0.002558 349.2 67.8
386(20) 0.002591 349.2 66.3
404(20) 0.002475 349.3 64.8
384(20) 0.002604 349.4 63.4
389(20) 0.002571 349.4 62.1
397(20) 0.002519 349.5 60.9
400(20) 0.002500 349.5 59.8
366(19) 0.002732 349.6 58.9
400(20) 0.002500 349.6 58.0
405(20) 0.002469 349.7 57.4
381(20) 0.002625 349.8 56.8
358(19) 0.002793 349.8 56.4
362(19) 0.002762 349.9 56.2
371(19) 0.002695 349.9 56.1
370(19) 0.002703 350.0 56.1
397(20) 0.002519 350.1 56.3
417(20) 0.002398 350.1 56.7
387(20) 0.002584 350.2 57.2
402(20) 0.002488 350.2 57.9
391(20) 0.002558 350.3 58.7
406(20) 0.002463 350.4 59.6
370(19) 0.002703 350.4 60.7
407(20) 0.002457 350.5 61.9
371(19) 0.002695 350.5 63.3
379(19) 0.002639 350.6 64.8
422(21) 0.002370 350.7 66.4
400(20) 0.002500 350.7 68.1
382(20) 0.002618 350.8 70.0
395(20) 0.002532 350.8 71.9
403(20) 0.002481 350.9 73.9
404(20) 0.002475 351.0 76.0
388(20) 0.002577 351.0 78.2
396(20) 0.002525 351.1 80.4
446(21) 0.002242 351.1 82.7
468(22) 0.002137 351.2 85.0
417(20) 0.002398 351.2 87.3
435(21) 0.002299 351.3 89.7
434(21) 0.002304 351.4 92.1
433(21) 0.002309 351.4 94.3
443(21) 0.002257 351.5 96.6
460(21) 0.002174 351.5 98.7
429(21) 0.002331 351.6 100.8
453(21) 0.002208 351.7 102.7
459(21) 0.002179 351.7 104.6
451(21) 0.002217 351.8 106.2
431(21) 0.002320 351.8 107.7
450(21) 0.002222 351.9 109.0
472(22) 0.002119 352.0 110.0
476(22) 0.002101 352.0 110.9
480(22) 0.002083 352.1 111.5
446(21) 0.002242 352.1 111.9
427(21) 0.002342 352.2 112.0
461(21) 0.002169 352.3 111.8
456(21) 0.002193 352.3 111.4
453(21) 0.002208 352.4 110.7
437(21) 0.002288 352.4 109.8
460(21) 0.002174 352.5 108.7
444(21) 0.002252 352.6 107.3
445(21) 0.002247 352.6 105.8
436(21) 0.002294 352.7 104.1
460(21) 0.002174 352.7 102.2
434(21) 0.002304 352.8 100.2
439(21) 0.002278 352.8 98.0
417(20) 0.002398 352.9 95.8
438(21) 0.002283 353.0 93.5
413(20) 0.002421 353.0 91.1
411(20) 0.002433 353.1 88.7
396(20) 0.002525 353.1 86.2
411(20) 0.002433 353.2 83.7
410(20) 0.002439 353.3 81.3
373(19) 0.002681 353.3 78.8
396(20) 0.002525 353.4 76.4
405(20) 0.002469 353.4 74.0
412(20) 0.002427 353.5 71.6
395(20) 0.002532 353.6 69.3
408(20) 0.002451 353.6 67.1
381(20) 0.002625 353.7 64.9
411(20) 0.002433 353.7 62.8
401(20) 0.002494 353.8 60.8
401(20) 0.002494 353.9 58.8
396(20) 0.002525 353.9 57.0
384(20) 0.002604 354.0 55.2
367(19) 0.002725 354.0 53.5
401(20) 0.002494 354.1 51.9
354(19) 0.002825 354.2 50.4
371(19) 0.002695 354.2 49.0
383(20) 0.002611 354.3 47.6
382(20) 0.002618 354.3 46.4
393(20) 0.002545 354.4 45.2
369(19) 0.002710 354.5 44.2
359(19) 0.002786 354.5 43.2
361(19) 0.002770 354.6 42.3
344(19) 0.002907 354.6 41.5
381(20) 0.002625 354.7 40.8
367(19) 0.002725 354.7 40.2
395(20) 0.002532 354.8 39.6
395(20) 0.002532 354.9 39.2
349(19) 0.002865 354.9 38.8
402(20) 0.002488 355.0 38.5
363(19) 0.002755 355.0 38.3
355(19) 0.002817 355.1 38.1
376(19) 0.002660 355.2 38.0
388(20) 0.002577 355.2 38.0
364(19) 0.002747 355.3 38.0
392(20) 0.002551 355.3 38.1
345(19) 0.002899 355.4 38.3
351(19) 0.002849 355.5 38.5
374(19) 0.002674 355.5 38.8
372(19) 0.002688 355.6 39.2
368(19) 0.002717 355.6 39.6
339(18) 0.002950 355.7 40.1
381(20) 0.002625 355.8 40.6
376(19) 0.002660 355.7 41.1
382(20) 0.002618 355.6 41.8
345(19) 0.002899 355.6 42.4
362(19) 0.002762 355.5 43.2
349(19) 0.002865 355.4 43.9
375(19) 0.002667 355.3 44.7
344(19) 0.002907 355.3 45.6
361(19) 0.002770 355.2 46.5
364(19) 0.002747 355.1 47.4
340(18) 0.002941 355.1 48.4
377(19) 0.002653 355.0 49.4
363(19) 0.002755 354.9 50.4
344(19) 0.002907 354.8 51.5
360(19) 0.002778 354.8 52.5
375(19) 0.002667 354.7 53.6
384(20) 0.002604 354.6 54.7
362(19) 0.002762 354.5 55.8
350(19) 0.002857 354.5 56.9
401(20) 0.002494 354.4 58.0
373(19) 0.002681 354.3 59.2
371(19) 0.002695 354.2 60.3
391(20) 0.002558 354.2 61.4
397(20) 0.002519 354.1 62.4
382(20) 0.002618 354.0 63.5
393(20) 0.002545 354.0 64.6
360(19) 0.002778 353.9 65.7
398(20) 0.002513 353.8 66.7
399(20) 0.002506 353.7 67.8
394(20) 0.002538 353.7 68.9
389(20) 0.002571 353.6 70.1
340(18) 0.002941 353.5 71.2
393(20) 0.002545 353.4 72.3
400(20) 0.002500 353.4 73.5
398(20) 0.002513 353.3 74.8
417(20) 0.002398 353.2 76.0
382(20) 0.002618 353.1 77.4
386(20) 0.002591 353.1 78.8
404(20) 0.002475 353.0 80.2
433(21) 0.002309 352.9 81.7
405(20) 0.002469 352.9 83.3
401(20) 0.002494 352.8 85.1
418(20) 0.002392 352.7 86.9
458(21) 0.002183 352.6 89.0
413(20) 0.002421 352.6 91.2
408(20) 0.002451 352.5 93.8
414(20) 0.002415 352.4 96.9
446(21) 0.002242 352.3 100.6
423(21) 0.002364 352.3 105.5
425(21) 0.002353 352.2 112.1
448(21) 0.002232 352.1 121.0
493(22) 0.002028 352.0 133.0
516(23) 0.001938 352.0 148.9
501(22) 0.001996 351.9 169.0
549(23) 0.001822 351.8 192.9
513(23) 0.001949 351.8 219.0
541(23) 0.001848 351.7 243.1
589(24) 0.001698 351.6 258.8
556(24) 0.001799 351.5 260.0
538(23) 0.001859 351.5 246.3
513(23) 0.001949 351.4 223.3
504(22) 0.001984 351.3 197.7
530(23) 0.001887 351.2 173.9
456(21) 0.002193 351.2 153.7
499(22) 0.002004 351.1 137.7
472(22) 0.002119 351.0 125.6
480(22) 0.002083 350.9 116.6
493(22) 0.002028 350.9 110.1
458(21) 0.002183 350.8 105.2
449(21) 0.002227 350.7 101.5
425(21) 0.002353 350.7 98.5
471(22) 0.002123 350.6 95.8
422(21) 0.002370 350.5 93.5
420(20) 0.002381 350.4 91.4
401(20) 0.002494 350.4 89.4
417(20) 0.002398 350.3 87.4
415(20) 0.002410 350.2 85.6
413(20) 0.002421 350.1 83.7
446(21) 0.002242 350.1 81.9
428(21) 0.002336 350.0 80.2
430(21) 0.002326 349.9 78.5
414(20) 0.002415 349.8 76.8
408(20) 0.002451 349.8 75.1
414(20) 0.002415 349.7 73.4
430(21) 0.002326 349.6 71.8
461(21) 0.002169 349.6 70.1
412(20) 0.002427 349.5 68.5
401(20) 0.002494 349.4 67.0
421(21) 0.002375 349.3 65.4
420(20) 0.002381 349.3 63.9
422(21) 0.002370 349.2 62.4
375(19) 0.002667 349.1 60.9
385(20) 0.002597 349.0 59.5
348(19) 0.002874 349.0 58.1
388(20) 0.002577 348.9 56.7
377(19) 0.002653 348.8 55.5
375(19) 0.002667 348.7 54.2
382(20) 0.002618 348.7 52.9
389(20) 0.002571 348.6 51.7
392(20) 0.002551 348.5 50.5
376(19) 0.002660 348.5 49.4
370(19) 0.002703 348.4 48.3
360(19) 0.002778 348.3 47.3
370(19) 0.002703 348.2 46.3
364(19) 0.002747 348.2 45.3
357(19) 0.002801 348.1 44.4
369(19) 0.002710 348.0 43.5
324(18) 0.003086 347.9 42.6
374(19) 0.002674 347.9 41.8
365(19) 0.002740 347.8 41.1
385(20) 0.002597 347.7 40.4
365(19) 0.002740 347.6 39.7
370(19) 0.002703 347.6 39.1
365(19) 0.002740 347.5 38.5
374(19) 0.002674 347.4 38.0
354(19) 0.002825 347.4 37.5
401(20) 0.002494 347.3 37.0
368(19) 0.002717 347.2 36.6
373(19) 0.002681 347.1 36.2
367(19) 0.002725 347.1 35.9
326(18) 0.003067 347.0 35.6
338(18) 0.002959 346.9 35.4
367(19) 0.002725 346.8 35.2
367(19) 0.002725 346.8 35.0
359(19) 0.002786 346.7 34.9
366(19) 0.002732 346.6 34.9
360(19) 0.002778 346.5 34.9
350(19) 0.002857 346.5 35.0
369(19) 0.002710 346.4 35.1
368(19) 0.002717 346.3 35.3
369(19) 0.002710 346.3 35.6
381(20) 0.002625 346.2 36.0
380(19) 0.002632 346.1 36.5
394(20) 0.002538 346.0 37.1
379(19) 0.002639 346.0 37.8
366(19) 0.002732 345.9 38.7
368(19) 0.002717 345.8 39.9
389(20) 0.002571 345.7 41.3
401(20) 0.002494 345.7 43.1
412(20) 0.002427 345.6 45.5
415(20) 0.002410 345.5 48.8
405(20) 0.002469 345.4 53.2
409(20) 0.002445 345.4 59.3
453(21) 0.002208 345.3 67.7
461(21) 0.002169 345.2 79.0
478(22) 0.002092 345.2 93.9
497(22) 0.002012 345.1 113.1
551(23) 0.001815 345.0 136.5
581(24) 0.001721 344.9 163.5
609(25) 0.001642 344.9 192.8
609(25) 0.001642 344.8 221.1
613(25) 0.001631 344.7 243.4
657(26) 0.001522 344.6 254.0
631(25) 0.001585 344.6 249.4
539(23) 0.001855 344.5 231.1
545(23) 0.001835 344.4 204.3
522(23) 0.001916 344.3 174.7
472(22) 0.002119 344.3 146.3
443(21) 0.002257 344.2 121.0
482(22) 0.002075 344.1 99.9
430(21) 0.002326 344.1 83.0
461(21) 0.002169 344.0 70.0
421(21) 0.002375 343.9 60.2
422(21) 0.002370 343.8 53.0
440(21) 0.002273 343.8 47.7
362(19) 0.002762 343.7 43.8
362(19) 0.002762 343.6 40.8
385(20) 0.002597 343.5 38.4
379(19) 0.002639 343.5 36.6
369(19) 0.002710 343.4 35.0
392(20) 0.002551 343.3 33.7
394(20) 0.002538 343.2 32.6
395(20) 0.002532 343.2 31.6
382(20) 0.002618 343.1 30.8
376(19) 0.002660 343.0 30.0
373(19) 0.002681 343.0 29.4
352(19) 0.002841 342.9 28.8
381(20) 0.002625 342.8 28.2
336(18) 0.002976 342.7 27.7
360(19) 0.002778 342.7 27.3
358(19) 0.002793 342.6 26.9
374(19) 0.002674 342.5 26.5
387(20) 0.002584 342.4 26.2
385(20) 0.002597 342.4 25.9
320(18) 0.003125 342.3 25.7
371(19) 0.002695 342.2 25.4
377(19) 0.002653 342.1 25.2
365(19) 0.002740 342.1 25.1
331(18) 0.003021 342.0 24.9
382(20) 0.002618 341.9 24.8
365(19) 0.002740 341.9 24.8
358(19) 0.002793 341.8 24.8
347(19) 0.002882 341.7 24.8
359(19) 0.002786 341.6 24.9
367(19) 0.002725 341.6 25.2
334(18) 0.002994 341.5 25.6
364(19) 0.002747 341.4 26.3
403(20) 0.002481 341.3 27.3
388(20) 0.002577 341.3 28.8
377(19) 0.002653 341.2 30.9
398(20) 0.002513 341.1 33.7
391(20) 0.002558 341.0 37.1
420(20) 0.002381 341.0 41.1
423(21) 0.002364 340.9 45.3
431(21) 0.002320 340.8 49.0
434(21) 0.002304 340.8 51.3
426(21) 0.002347 340.7 51.4
436(21) 0.002294 340.6 49.1
408(20) 0.002451 340.5 45.2
398(20) 0.002513 340.5 40.8
386(20) 0.002591 340.4 36.6
392(20) 0.002551 340.3 32.9
372(19) 0.002688 340.2 29.9
362(19) 0.002762 340.2 27.5
381(20) 0.002625 340.1 25.7
374(19) 0.002674 340.0 24.5
346(19) 0.002890 339.9 23.6
384(20) 0.002604 339.9 23.0
354(19) 0.002825 339.8 22.5
350(19) 0.002857 339.7 22.2
365(19) 0.002740 339.7 21.9
326(18) 0.003067 339.6 21.8
353(19) 0.002833 339.5 21.6
355(19) 0.002817 339.4 21.6
372(19) 0.002688 339.4 21.5
368(19) 0.002717 339.3 21.5
380(19) 0.002632 339.2 21.5
370(19) 0.002703 339.1 21.6
348(19) 0.002874 339.1 21.6
342(18) 0.002924 339.0 21.7
357(19) 0.002801 338.9 21.8
351(19) 0.002849 338.8 22.0
373(19) 0.002681 338.8 22.1
351(19) 0.002849 338.7 22.3
369(19) 0.002710 338.6 22.5
332(18) 0.003012 338.6 22.7
351(19) 0.002849 338.5 23.0
376(19) 0.002660 338.4 23.2
347(19) 0.002882 338.3 23.5
385(20) 0.002597 338.3 23.8
344(19) 0.002907 338.2 24.1
373(19) 0.002681 338.1 24.6
367(19) 0.002725 338.0 25.0
341(18) 0.002933 338.0 25.4
369(19) 0.002710 337.9 25.8
349(19) 0.002865 337.8 26.2
368(19) 0.002717 337.7 26.7
346(19) 0.002890 337.7 27.2
361(19) 0.002770 337.6 27.7
337(18) 0.002967 337.4 28.3
351(19) 0.002849 337.2 28.9
384(20) 0.002604 337.0 29.5
354(19) 0.002825 336.8 30.2
364(19) 0.002747 336.6 30.8
354(19) 0.002825 336.3 31.6
378(19) 0.002646 336.1 32.4
383(20) 0.002611 335.9 33.2
374(19) 0.002674 335.7 34.1
393(20) 0.002545 335.5 35.0
379(19) 0.002639 335.3 36.1
391(20) 0.002558 335.1 37.2
379(19) 0.002639 334.8 38.4
371(19) 0.002695 334.6 39.8
386(20) 0.002591 334.4 41.3
364(19) 0.002747 334.2 43.0
390(20) 0.002564 334.0 44.9
394(20) 0.002538 333.8 47.1
394(20) 0.002538 333.6 49.6
390(20) 0.002564 333.3 52.4
428(21) 0.002336 333.1 55.6
396(20) 0.002525 332.9 59.2
408(20) 0.002451 332.7 63.2
396(20) 0.002525 332.5 67.7
382(20) 0.002618 332.3 72.8
391(20) 0.002558 332.1 78.3
403(20) 0.002481 331.8 84.3
366(19) 0.002732 331.6 90.7
423(21) 0.002364 331.4 97.4
408(20) 0.002451 331.2 104.3
429(21) 0.002331 331.0 111.1
441(21) 0.002268 330.8 117.7
455(21) 0.002198 330.6 123.8
444(21) 0.002252 330.3 129.0
465(22) 0.002151 330.1 133.2
474(22) 0.002110 329.9 136.1
479(22) 0.002088 329.7 137.6
435(21) 0.002299 329.5 137.4
437(21) 0.002288 329.3 135.7
455(21) 0.002198 329.1 132.4
450(21) 0.002222 328.8 127.7
465(22) 0.002151 328.6 122.1
417(20) 0.002398 328.4 115.8
395(20) 0.002532 328.2 109.2
380(19) 0.002632 328.0 102.5
387(20) 0.002584 327.8 96.1
414(20) 0.002415 327.6 90.1
384(20) 0.002604 327.3 84.5
385(20) 0.002597 327.1 79.5
399(20) 0.002506 326.9 75.0
377(19) 0.002653 326.7 71.0
391(20) 0.002558 326.5 67.6
388(20) 0.002577 326.3 64.6
368(19) 0.002717 326.1 62.1
362(19) 0.002762 325.8 59.9
410(20) 0.002439 325.6 58.0
372(19) 0.002688 325.4 56.5
380(19) 0.002632 325.2 55.1
376(19) 0.002660 325.0 54.0
346(19) 0.002890 324.8 53.0
380(19) 0.002632 324.6 52.1
350(19) 0.002857 324.3 51.3
343(19) 0.002915 324.1 50.6
416(20) 0.002404 323.9 49.9
389(20) 0.002571 323.7 49.4
339(18) 0.002950 323.5 48.8
365(19) 0.002740 323.3 48.3
363(19) 0.002755 323.1 47.8
330(18) 0.003030 322.8 47.4
331(18) 0.003021 322.6 47.0
325(18) 0.003077 322.4 46.6
346(19) 0.002890 322.2 46.2
358(19) 0.002793 322.0 45.9
343(19) 0.002915 321.8 45.6
370(19) 0.002703 321.6 45.2
343(19) 0.002915 321.3 45.0
315(18) 0.003175 321.1 44.7
369(19) 0.002710 320.9 44.4
322(18) 0.003106 320.7 44.2
323(18) 0.003096 320.5 44.0
356(19) 0.002809 320.3 43.8
356(19) 0.002809 320.1 43.6
348(19) 0.002874 320.3 43.4
366(19) 0.002732 320.5 43.2
340(18) 0.002941 320.7 43.0
355(19) 0.002817 320.9 42.9
356(19) 0.002809 321.1 42.7
375(19) 0.002667 321.3 42.6
337(18) 0.002967 321.6 42.5
358(19) 0.002793 321.8 42.3
324(18) 0.003086 322.0 42.2
349(19) 0.002865 322.2 42.1
357(19) 0.002801 322.4 42.0
315(18) 0.003175 322.6 41.9
332(18) 0.003012 322.9 41.8
362(19) 0.002762 323.1 41.6
359(19) 0.002786 323.3 41.5
381(20) 0.002625 323.5 41.4
361(19) 0.002770 323.7 41.3
358(19) 0.002793 323.9 41.2
379(19) 0.002639 324.2 41.1
331(18) 0.003021 324.4 41.0
376(19) 0.002660 324.6 41.0
372(19) 0.002688 324.8 40.9
339(18) 0.002950 325.0 40.9
333(18) 0.003003 325.2 40.8
374(19) 0.002674 325.4 40.8
335(18) 0.002985 325.7 40.7
380(19) 0.002632 325.9 40.7
345(19) 0.002899 326.1 40.7
369(19) 0.002710 326.3 40.8
353(19) 0.002833 326.5 40.8
345(19) 0.002899 326.7 40.9
350(19) 0.002857 327.0 41.1
354(19) 0.002825 327.2 41.2
362(19) 0.002762 327.4 41.4
366(19) 0.002732 327.6 41.7
359(19) 0.002786 327.8 42.0
346(19) 0.002890 328.0 42.4
356(19) 0.002809 328.3 42.8
366(19) 0.002732 328.5 43.3
345(19) 0.002899 328.7 43.8
353(19) 0.002833 328.9 44.5
362(19) 0.002762 329.1 45.3
367(19) 0.002725 329.3 46.2
403(20) 0.002481 329.5 47.2
369(19) 0.002710 329.8 48.5
378(19) 0.002646 330.0 50.0
358(19) 0.002793 330.2 51.9
369(19) 0.002710 330.4 54.2
365(19) 0.002740 330.6 57.3
372(19) 0.002688 330.8 61.2
390(20) 0.002564 331.1 66.3
391(20) 0.002558 331.3 72.8
378(19) 0.002646 331.5 81.1
379(19) 0.002639 331.7 91.1
393(20) 0.002545 331.9 102.9
408(20) 0.002451 332.1 116.3
394(20) 0.002538 332.4 130.4
421(21) 0.002375 332.6 144.0
448(21) 0.002232 332.8 154.9
457(21) 0.002188 333.0 161.0
472(22) 0.002119 333.2 160.7
457(21) 0.002188 333.4 154.5
440(21) 0.002273 333.6 144.3
422(21) 0.002370 333.9 132.4
425(21) 0.002353 334.1 120.6
396(20) 0.002525 334.3 109.9
406(20) 0.002463 334.5 100.9
421(21) 0.002375 334.7 93.7
414(20) 0.002415 334.9 88.4
384(20) 0.002604 335.2 84.6
408(20) 0.002451 335.4 82.2
373(19) 0.002681 335.6 80.9
401(20) 0.002494 335.8 80.3
447(21) 0.002237 336.0 80.5
393(20) 0.002545 336.2 81.0
435(21) 0.002299 336.5 82.0
433(21) 0.002309 336.7 83.3
438(21) 0.002283 336.9 84.8
411(20) 0.002433 337.1 86.6
413(20) 0.002421 337.3 88.7
413(20) 0.002421 337.5 91.2
418(20) 0.002392 337.7 94.1
440(21) 0.002273 338.0 97.5
438(21) 0.002283 338.2 101.7
450(21) 0.002222 338.4 106.8
437(21) 0.002288 338.6 113.1
488(22) 0.002049 338.8 120.9
478(22) 0.002092 339.0 130.5
491(22) 0.002037 339.3 142.4
500(22) 0.002000 339.5 156.7
494(22) 0.002024 339.7 173.8
519(23) 0.001927 339.9 193.7
554(24) 0.001805 340.1 216.4
549(23) 0.001822 340.3 241.5
654(26) 0.001529 340.6 268.1
655(26) 0.001527 340.8 295.1
635(25) 0.001575 341.0 320.4
626(25) 0.001597 341.2 341.5
593(24) 0.001686 341.4 355.8
624(25) 0.001603 341.6 361.3
603(25) 0.001658 341.8 357.7
590(24) 0.001695 342.1 346.7
568(24) 0.001761 342.3 331.0
559(24) 0.001789 342.5 313.9
546(23) 0.001832 342.7 298.0
546(23) 0.001832 342.9 285.1
582(24) 0.001718 343.1 276.3
579(24) 0.001727 343.4 271.6
547(23) 0.001828 343.6 270.4
598(24) 0.001672 343.8 271.0
567(24) 0.001764 344.0 271.0
561(24) 0.001783 344.2 267.5
564(24) 0.001773 344.4 258.6
526(23) 0.001901 344.7 244.6
530(23) 0.001887 344.9 227.1
517(23) 0.001934 345.1 208.6
504(22) 0.001984 345.3 190.9
506(22) 0.001976 345.5 175.2
473(22) 0.002114 345.7 162.1
458(21) 0.002183 346.0 151.8
457(21) 0.002188 346.2 144.2
481(22) 0.002079 346.4 139.1
454(21) 0.002203 346.6 136.2
424(21) 0.002358 346.8 135.0
471(22) 0.002123 347.0 135.4
433(21) 0.002309 347.2 136.9
477(22) 0.002096 347.5 139.2
453(21) 0.002208 347.7 142.2
422(21) 0.002370 347.9 145.7
466(22) 0.002146 348.1 149.5
494(22) 0.002024 348.3 153.5
460(21) 0.002174 348.5 157.5
490(22) 0.002041 348.8 161.4
532(23) 0.001880 349.0 165.2
499(22) 0.002004 349.2 168.8
496(22) 0.002016 349.4 172.1
462(21) 0.002164 349.6 175.2
483(22) 0.002070 349.8 177.9
513(23) 0.001949 350.1 180.3
497(22) 0.002012 350.3 182.3
527(23) 0.001898 350.5 183.9
503(22) 0.001988 350.7 184.9
474(22) 0.002110 350.9 185.3
481(22) 0.002079 351.1 184.9
490(22) 0.002041 351.3 183.9
455(21) 0.002198 351.6 182.0
473(22) 0.002114 351.8 179.3
497(22) 0.002012 352.0 175.9
482(22) 0.002075 352.2 171.7
488(22) 0.002049 352.4 167.0
473(22) 0.002114 352.6 161.9
471(22) 0.002123 352.9 156.3
489(22) 0.002045 353.1 150.6
459(21) 0.002179 353.3 144.8
461(21) 0.002169 353.5 139.0
445(21) 0.002247 353.7 133.3
434(21) 0.002304 353.9 127.7
443(21) 0.002257 354.2 122.4
455(21) 0.002198 354.4 117.4
436(21) 0.002294 354.6 112.6
374(19) 0.002674 354.8 108.2
397(20) 0.002519 355.0 104.1
412(20) 0.002427 355.2 100.3
390(20) 0.002564 355.4 96.8
394(20) 0.002538 355.7 93.7
430(21) 0.002326 355.9 90.8
407(20) 0.002457 356.1 88.1
411(20) 0.002433 356.3 85.7
442(21) 0.002262 356.5 83.6
407(20) 0.002457 356.7 81.7
381(20) 0.002625 357.0 80.1
414(20) 0.002415 357.2 78.7
433(21) 0.002309 357.4 77.8
432(21) 0.002315 357.6 77.3
401(20) 0.002494 357.8 77.3
395(20) 0.002532 358.0 77.9
455(21) 0.002198 358.3 79.3
439(21) 0.002278 358.5 81.7
448(21) 0.002232 358.7 85.2
459(21) 0.002179 358.9 90.0
470(22) 0.002128 359.1 96.3
442(21) 0.002262 359.3 104.1
500(22) 0.002000 359.5 113.7
479(22) 0.002088 359.8 125.0
506(22) 0.001976 360.0 137.9
508(23) 0.001968 360.2 152.3
541(23) 0.001848 360.4 167.8
539(23) 0.001855 360.6 183.9
600(24) 0.001667 360.8 199.7
656(26) 0.001524 361.1 214.1
618(25) 0.001618 361.3 225.8
634(25) 0.001577 361.5 233.4
623(25) 0.001605 361.7 235.8
602(25) 0.001661 361.9 232.7
609(25) 0.001642 362.1 224.4
537(23) 0.001862 362.4 212.0
527(23) 0.001898 362.6 196.9
510(23) 0.001961 362.8 180.5
518(23) 0.001931 363.0 163.8
499(22) 0.002004 363.2 147.6
484(22) 0.002066 363.4 132.7
472(22) 0.002119 363.6 119.2
419(20) 0.002387 363.9 107.5
483(22) 0.002070 364.1 97.6
463(22) 0.002160 364.3 89.6
478(22) 0.002092 364.5 83.4
440(21) 0.002273 364.7 78.8
440(21) 0.002273 364.9 75.9
418(20) 0.002392 365.2 74.4
454(21) 0.002203 365.4 74.2
429(21) 0.002331 365.6 75.4
444(21) 0.002252 365.8 77.7
446(21) 0.002242 366.0 81.1
438(21) 0.002283 366.2 85.7
448(21) 0.002232 366.5 91.3
466(22) 0.002146 366.7 97.9
450(21) 0.002222 366.9 105.5
463(22) 0.002160 367.1 114.1
480(22) 0.002083 367.3 123.5
494(22) 0.002024 367.5 133.6
473(22) 0.002114 367.7 144.4
495(22) 0.002020 368.0 155.6
514(23) 0.001946 368.2 166.9
480(22) 0.002083 368.4 178.2
513(23) 0.001949 368.6 188.9
508(23) 0.001968 368.8 198.7
493(22) 0.002028 369.0 207.1
523(23) 0.001912 369.3 213.4
565(24) 0.001770 369.5 217.5
534(23) 0.001873 369.7 218.8
551(23) 0.001815 369.9 217.4
533(23) 0.001876 370.1 213.2
546(23) 0.001832 370.3 206.6
533(23) 0.001876 370.6 198.0
565(24) 0.001770 370.8 188.0
483(22) 0.002070 371.0 176.8
514(23) 0.001946 371.2 165.1
491(22) 0.002037 371.4 153.2
483(22) 0.002070 371.6 141.4
457(21) 0.002188 371.9 130.0
440(21) 0.002273 372.1 119.2
419(20) 0.002387 372.3 109.0
384(20) 0.002604 372.5 99.7
419(20) 0.002387 372.7 91.2
434(21) 0.002304 372.9 83.7
397(20) 0.002519 373.1 77.0
404(20) 0.002475 373.4 71.3
396(20) 0.002525 373.6 66.4
419(20) 0.002387 373.8 62.4
396(20) 0.002525 374.0 59.1
382(20) 0.002618 374.2 56.7
418(20) 0.002392 374.4 54.9
403(20) 0.002481 374.7 53.8
396(20) 0.002525 374.9 53.3
442(21) 0.002262 375.1 53.4
413(20) 0.002421 375.3 53.9
400(20) 0.002500 375.5 54.9
437(21) 0.002288 375.7 56.2
388(20) 0.002577 376.0 57.8
409(20) 0.002445 376.2 59.7
411(20) 0.002433 376.4 61.7
462(21) 0.002164 376.6 63.8
389(20) 0.002571 376.8 65.8
443(21) 0.002257 377.0 67.6
468(22) 0.002137 377.2 69.1
443(21) 0.002257 377.5 70.1
451(21) 0.002217 377.7 70.6
418(20) 0.002392 377.9 70.5
425(21) 0.002353 378.1 69.7
424(21) 0.002358 378.3 68.3
452(21) 0.002212 378.5 66.4
407(20) 0.002457 378.8 64.2
431(21) 0.002320 379.0 61.7
429(21) 0.002331 379.2 59.0
385(20) 0.002597 379.4 56.3
425(21) 0.002353 379.6 53.7
402(20) 0.002488 379.8 51.2
411(20) 0.002433 380.1 48.8
407(20) 0.002457 380.3 46.7
432(21) 0.002315 380.5 44.8
390(20) 0.002564 380.7 43.1
439(21) 0.002278 380.9 41.8
413(20) 0.002421 381.1 40.8
405(20) 0.002469 381.3 40.0
404(20) 0.002475 381.6 39.6
412(20) 0.002427 381.8 39.6
396(20) 0.002525 382.0 40.0
373(19) 0.002681 382.2 40.8
412(20) 0.002427 382.4 42.1
409(20) 0.002445 382.6 44.1
369(19) 0.002710 382.9 46.8
387(20) 0.002584 383.1 50.3
419(20) 0.002387 383.3 54.7
427(21) 0.002342 383.5 60.2
412(20) 0.002427 383.7 66.8
437(21) 0.002288 383.9 74.6
432(21) 0.002315 384.2 83.5
428(21) 0.002336 384.4 93.4
450(21) 0.002222 384.6 104.2
444(21) 0.002252 384.8 115.3
444(21) 0.002252 385.0 126.3
431(21) 0.002320 385.2 136.2
465(22) 0.002151 385.4 144.2
439(21) 0.002278 385.7 149.3
484(22) 0.002066 385.9 151.0
442(21) 0.002262 386.1 149.4
449(21) 0.002227 386.3 145.2
445(21) 0.002247 386.5 139.3
448(21) 0.002232 386.7 132.7
472(22) 0.002119 387.0 126.2
424(21) 0.002358 387.2 120.3
454(21) 0.002203 387.4 115.5
466(22) 0.002146 387.6 111.8
434(21) 0.002304 387.8 109.4
458(21) 0.002183 388.0 108.3
445(21) 0.002247 388.3 108.4
425(21) 0.002353 388.5 109.7
459(21) 0.002179 388.7 111.9
485(22) 0.002062 388.9 115.1
457(21) 0.002188 389.1 118.9
463(22) 0.002160 389.3 123.3
490(22) 0.002041 389.5 128.1
477(22) 0.002096 389.8 133.2
512(23) 0.001953 390.0 138.5
520(23) 0.001923 390.2 143.8
504(22) 0.001984 390.4 149.1
493(22) 0.002028 390.6 154.2
523(23) 0.001912 390.8 159.0
511(23) 0.001957 391.1 163.4
509(23) 0.001965 391.3 167.3
509(23) 0.001965 391.5 170.6
491(22) 0.002037 391.7 173.2
543(23) 0.001842 391.9 175.0
487(22) 0.002053 392.1 175.9
486(22) 0.002058 392.4 176.0
513(23) 0.001949 392.6 175.2
493(22) 0.002028 392.8 173.5
486(22) 0.002058 393.0 171.0
482(22) 0.002075 393.2 167.8
504(22) 0.001984 393.4 163.9
506(22) 0.001976 393.7 159.4
481(22) 0.002079 393.9 154.4
464(22) 0.002155 394.1 149.0
469(22) 0.002132 394.3 143.3
452(21) 0.002212 394.5 137.5
460(21) 0.002174 394.7 131.5
480(22) 0.002083 394.9 125.5
426(21) 0.002347 395.2 119.5
438(21) 0.002283 395.4 113.6
471(22) 0.002123 395.6 107.8
424(21) 0.002358 395.8 102.2
487(22) 0.002053 396.0 96.8
435(21) 0.002299 396.2 91.6
414(20) 0.002415 396.5 86.7
403(20) 0.002481 396.7 82.0
410(20) 0.002439 396.9 77.6
432(21) 0.002315 397.1 73.5
411(20) 0.002433 397.3 69.7
420(20) 0.002381 397.5 66.1
426(21) 0.002347 397.8 62.9
424(21) 0.002358 398.0 59.9
420(20) 0.002381 398.2 57.2
432(21) 0.002315 398.4 54.7
407(20) 0.002457 398.6 52.5
433(21) 0.002309 398.8 50.5
421(21) 0.002375 399.0 48.7
459(21) 0.002179 399.3 47.2
441(21) 0.002268 399.5 45.8
448(21) 0.002232 399.7 44.5
423(21) 0.002364 399.9 43.5
431(21) 0.002320 400.1 42.5
437(21) 0.002288 400.3 41.7
443(21) 0.002257 400.6 41.0
457(21) 0.002188 400.8 40.4
430(21) 0.002326 401.0 39.9
429(21) 0.002331 401.2 39.4
432(21) 0.002315 401.4 39.0
421(21) 0.002375 401.6 38.6
418(20) 0.002392 401.9 38.3
418(20) 0.002392 402.1 37.9
417(20) 0.002398 402.3 37.6
431(21) 0.002320 402.5 37.3
403(20) 0.002481 402.7 37.0
422(21) 0.002370 402.9 36.7
424(21) 0.002358 403.1 36.3
435(21) 0.002299 403.4 36.0
420(20) 0.002381 403.6 35.6
452(21) 0.002212 403.8 35.2
408(20) 0.002451 404.0 34.8
427(21) 0.002342 404.2 34.4
451(21) 0.002217 404.7 33.9
442(21) 0.002262 405.3 33.5
388(20) 0.002577 405.9 33.0
401(20) 0.002494 406.5 32.6
431(21) 0.002320 407.1 32.1
458(21) 0.002183 407.6 31.6
454(21) 0.002203 408.2 31.1
444(21) 0.002252 408.8 30.7
400(20) 0.002500 409.4 30.2
399(20) 0.002506 410.0 29.8
436(21) 0.002294 410.6 29.4
407(20) 0.002457 411.2 29.0
444(21) 0.002252 411.7 28.6
386(20) 0.002591 412.3 28.3
448(21) 0.002232 412.9 27.9
413(20) 0.002421 413.5 27.7
432(21) 0.002315 414.1 27.4
450(21) 0.002222 414.7 27.2
430(21) 0.002326 415.3 27.0
416(20) 0.002404 415.9 26.9
423(21) 0.002364 416.4 26.9
434(21) 0.002304 417.0 26.9
419(20) 0.002387 417.6 27.0
459(21) 0.002179 418.2 27.1
426(21) 0.002347 418.8 27.4
402(20) 0.002488 419.4 27.8
438(21) 0.002283 420.0 28.4
450(21) 0.002222 420.5 29.1
439(21) 0.002278 421.1 30.0
464(22) 0.002155 421.7 31.3
434(21) 0.002304 422.3 32.8
450(21) 0.002222 422.9 34.8
438(21) 0.002283 423.5 37.2
457(21) 0.002188 424.1 40.2
418(20) 0.002392 424.6 43.9
478(22) 0.002092 425.2 48.3
469(22) 0.002132 425.8 53.4
493(22) 0.002028 426.4 59.5
464(22) 0.002155 427.0 66.4
469(22) 0.002132 427.6 74.2
484(22) 0.002066 428.2 82.7
485(22) 0.002062 428.7 91.8
523(23) 0.001912 429.3 101.3
554(24) 0.001805 429.9 110.8
518(23) 0.001931 430.5 119.7
554(24) 0.001805 431.1 127.4
567(24) 0.001764 431.7 133.3
561(24) 0.001783 432.3 136.6
564(24) 0.001773 432.8 137.1
521(23) 0.001919 433.4 134.4
503(22) 0.001988 434.0 129.1
490(22) 0.002041 434.6 121.6
516(23) 0.001938 435.2 112.8
518(23) 0.001931 435.8 103.3
501(22) 0.001996 436.4 93.7
452(21) 0.002212 436.9 84.5
470(22) 0.002128 437.5 75.8
519(23) 0.001927 438.1 67.9
456(21) 0.002193 438.7 60.9
478(22) 0.002092 439.3 54.8
447(21) 0.002237 439.9 49.6
467(22) 0.002141 440.5 45.3
445(21) 0.002247 441.0 41.6
469(22) 0.002132 441.6 38.7
446(21) 0.002242 442.2 36.3
470(22) 0.002128 442.8 34.4
451(21) 0.002217 443.4 32.9
471(22) 0.002123 444.0 31.7
460(21) 0.002174 444.6 30.8
478(22) 0.002092 445.1 30.1
444(21) 0.002252 445.7 29.6
471(22) 0.002123 446.3 29.2
450(21) 0.002222 446.9 28.9
482(22) 0.002075 447.5 28.7
457(21) 0.002188 448.1 28.6
461(21) 0.002169 448.7 28.6
425(21) 0.002353 449.2 28.7
469(22) 0.002132 449.8 28.8
474(22) 0.002110 450.0 28.9
472(22) 0.002119 450.1 29.2
431(21) 0.002320 450.2 29.4
474(22) 0.002110 450.4 29.8
450(21) 0.002222 450.5 30.1
472(22) 0.002119 450.7 30.6
423(21) 0.002364 450.8 31.0
474(22) 0.002110 450.9 31.6
463(22) 0.002160 451.1 32.1
468(22) 0.002137 451.2 32.7
448(21) 0.002232 451.4 33.4
477(22) 0.002096 451.5 34.1
477(22) 0.002096 451.6 34.8
477(22) 0.002096 451.8 35.6
467(22) 0.002141 451.9 36.5
472(22) 0.002119 452.1 37.4
470(22) 0.002128 452.2 38.4
490(22) 0.002041 452.3 39.4
483(22) 0.002070 452.5 40.5
492(22) 0.002033 452.6 41.7
495(22) 0.002020 452.8 42.9
471(22) 0.002123 452.9 44.2
488(22) 0.002049 453.0 45.5
501(22) 0.001996 453.2 47.0
494(22) 0.002024 453.3 48.5
508(23) 0.001968 453.4 50.1
490(22) 0.002041 453.6 51.8
474(22) 0.002110 453.7 53.6
492(22) 0.002033 453.9 55.6
540(23) 0.001852 454.0 57.7
519(23) 0.001927 454.1 60.1
523(23) 0.001912 454.3 62.7
561(24) 0.001783 454.4 65.7
547(23) 0.001828 454.6 69.2
547(23) 0.001828 454.7 73.2
587(24) 0.001704 454.8 78.0
552(23) 0.001812 455.0 83.7
599(24) 0.001669 455.1 90.6
606(25) 0.001650 455.3 98.7
629(25) 0.001590 455.4 108.4
643(25) 0.001555 455.5 119.6
656(26) 0.001524 455.7 132.5
667(26) 0.001499 455.8 146.9
707(27) 0.001414 456.0 162.7
681(26) 0.001468 456.1 179.5
784(28) 0.001276 456.2 196.3
768(28) 0.001302 456.4 212.2
754(27) 0.001326 456.5 225.6
812(28) 0.001232 456.6 235.0
782(28) 0.001279 456.8 239.2
765(28) 0.001307 456.9 237.8
766(28) 0.001305 457.1 231.4
749(27) 0.001335 457.2 221.6
687(26) 0.001456 457.3 209.9
715(27) 0.001399 457.5 197.9
686(26) 0.001458 457.6 186.7
670(26) 0.001493 457.8 177.0
685(26) 0.001460 457.9 169.3
685(26) 0.001460 458.0 163.9
705(27) 0.001418 458.2 161.0
701(26) 0.001427 458.3 160.7
642(25) 0.001558 458.5 162.8
649(25) 0.001541 458.6 167.3
756(27) 0.001323 458.7 174.0
712(27) 0.001404 458.9 182.8
760(28) 0.001316 459.0 193.4
733(27) 0.001364 459.2 205.5
781(28) 0.001280 459.3 218.9
793(28) 0.001261 459.4 232.9
836(29) 0.001196 459.6 247.1
870(29) 0.001149 459.7 260.9
848(29) 0.001179 459.8 273.2
886(30) 0.001129 460.0 283.2
878(30) 0.001139 460.1 290.0
890(30) 0.001124 460.3 292.7
833(29) 0.001200 460.4 291.0
807(28) 0.001239 460.5 285.0
834(29) 0.001199 460.7 275.2
819(29) 0.001221 460.8 262.5
706(27) 0.001416 461.0 247.7
736(27) 0.001359 461.1 231.8
712(27) 0.001404 461.2 215.5
677(26) 0.001477 461.4 199.5
678(26) 0.001475 461.5 184.1
637(25) 0.001570 461.7 169.7
629(25) 0.001590 461.8 156.4
593(24) 0.001686 461.9 144.4
624(25) 0.001603 462.1 133.7
642(25) 0.001558 462.2 124.2
611(25) 0.001637 462.4 116.0
620(25) 0.001613 462.5 108.9
614(25) 0.001629 462.6 102.8
603(25) 0.001658 462.8 97.7
582(24) 0.001718 462.9 93.3
569(24) 0.001757 463.0 89.7
638(25) 0.001567 463.2 86.6
576(24) 0.001736 463.3 84.0
559(24) 0.001789 463.5 81.8
609(25) 0.001642 463.6 80.0
580(24) 0.001724 463.7 78.6
595(24) 0.001681 463.9 77.3
552(23) 0.001812 464.0 76.4
560(24) 0.001786 464.2 75.6
574(24) 0.001742 464.3 75.1
525(23) 0.001905 464.4 74.7
509(23) 0.001965 464.6 74.6
563(24) 0.001776 464.7 74.6
565(24) 0.001770 464.9 74.8
559(24) 0.001789 465.0 75.2
561(24) 0.001783 465.1 75.8
538(23) 0.001859 465.3 76.7
531(23) 0.001883 465.4 77.7
549(23) 0.001822 465.6 78.9
561(24) 0.001783 465.7 80.4
580(24) 0.001724 465.8 82.1
553(24) 0.001808 466.0 84.0
588(24) 0.001701 466.1 86.1
587(24) 0.001704 466.2 88.5
559(24) 0.001789 466.4 91.1
565(24) 0.001770 466.5 94.0
569(24) 0.001757 466.7 97.0
608(25) 0.001645 466.8 100.3
566(24) 0.001767 466.9 103.9
647(25) 0.001546 467.1 107.6
607(25) 0.001647 467.2 111.5
580(24) 0.001724 467.4 115.6
603(25) 0.001658 467.5 119.9
632(25) 0.001582 467.6 124.3
625(25) 0.001600 467.8 128.8
650(25) 0.001538 467.9 133.4
677(26) 0.001477 468.1 138.1
635(25) 0.001575 468.2 142.7
642(25) 0.001558 468.3 147.3
685(26) 0.001460 468.5 151.7
690(26) 0.001449 468.6 156.1
667(26) 0.001499 468.8 160.2
629(25) 0.001590 468.9 164.1
646(25) 0.001548 469.0 167.6
596(24) 0.001678 469.2 170.9
636(25) 0.001572 469.3 173.8
648(25) 0.001543 469.4 176.3
664(26) 0.001506 469.6 178.3
635(25) 0.001575 469.7 180.0
668(26) 0.001497 469.9 181.3
717(27) 0.001395 470.0 182.1
670(26) 0.001493 470.1 182.6
679(26) 0.001473 470.3 182.7
678(26) 0.001475 470.4 182.4
666(26) 0.001501 470.6 181.8
706(27) 0.001416 470.7 180.8
657(26) 0.001522 470.8 179.7
704(27) 0.001420 471.0 178.2
686(26) 0.001458 471.1 176.6
657(26) 0.001522 471.3 174.9
673(26) 0.001486 471.4 173.0
662(26) 0.001511 471.5 171.1
665(26) 0.001504 471.7 169.1
635(25) 0.001575 471.8 167.2
641(25) 0.001560 471.9 165.2
677(26) 0.001477 472.1 163.3
690(26) 0.001449 472.2 161.5
675(26) 0.001481 472.4 159.7
700(26) 0.001429 472.5 158.0
674(26) 0.001484 472.6 156.5
660(26) 0.001515 472.8 155.1
681(26) 0.001468 472.9 153.7
668(26) 0.001497 473.1 152.6
666(26) 0.001501 473.2 151.5
711(27) 0.001406 473.3 150.6
682(26) 0.001466 473.5 149.9
675(26) 0.001481 473.6 149.3
683(26) 0.001464 473.8 149.0
689(26) 0.001451 473.9 148.8
741(27) 0.001350 474.0 148.9
713(27) 0.001403 474.2 149.3
680(26) 0.001471 474.3 150.1
735(27) 0.001361 474.5 151.4
744(27) 0.001344 474.6 153.1
757(28) 0.001321 474.7 155.5
743(27) 0.001346 474.9 158.7
732(27) 0.001366 475.0 162.7
782(28) 0.001279 475.1 167.8
752(27) 0.001330 475.3 173.9
815(29) 0.001227 475.4 181.2
779(28) 0.001284 475.6 189.9
801(28) 0.001248 475.7 199.8
768(28) 0.001302 475.8 211.0
775(28) 0.001290 476.0 223.4
865(29) 0.001156 476.1 236.7
833(29) 0.001200 476.3 250.8
867(29) 0.001153 476.4 265.1
829(29) 0.001206 476.5 279.1
801(28) 0.001248 476.7 291.9
840(29) 0.001190 476.8 302.7
797(28) 0.001255 477.0 310.4
883(30) 0.001133 477.1 314.2
806(28) 0.001241 477.2 313.5
780(28) 0.001282 477.4 308.1
813(29) 0.001230 477.5 298.4
787(28) 0.001271 477.7 285.2
767(28) 0.001304 477.8 269.5
805(28) 0.001242 477.9 252.2
784(28) 0.001276 478.1 234.3
759(28) 0.001318 478.2 216.5
724(27) 0.001381 478.3 199.1
718(27) 0.001393 478.5 182.7
683(26) 0.001464 478.6 167.5
737(27) 0.001357 478.8 153.6
721(27) 0.001387 478.9 141.1
714(27) 0.001401 479.0 129.9
672(26) 0.001488 479.2 120.1
658(26) 0.001520 479.3 111.5
635(25) 0.001575 479.5 104.1
667(26) 0.001499 479.6 97.7
683(26) 0.001464 479.7 92.2
708(27) 0.001412 479.9 87.5
686(26) 0.001458 480.0 83.5
648(25) 0.001543 480.2 80.0
600(24) 0.001667 480.3 76.9
697(26) 0.001435 480.4 74.2
674(26) 0.001484 480.6 71.9
660(26) 0.001515 480.7 69.8
630(25) 0.001587 480.9 68.0
674(26) 0.001484 481.0 66.3
680(26) 0.001471 481.1 64.8
653(26) 0.001531 481.3 63.4
658(26) 0.001520 481.4 62.1
661(26) 0.001513 481.5 61.0
664(26) 0.001506 481.7 59.9
687(26) 0.001456 481.8 59.0
684(26) 0.001462 482.0 58.1
683(26) 0.001464 482.1 57.3
652(26) 0.001534 482.2 56.5
666(26) 0.001501 482.4 55.9
699(26) 0.001431 482.5 55.3
676(26) 0.001479 482.7 54.7
677(26) 0.001477 482.8 54.3
674(26) 0.001484 482.9 53.9
647(25) 0.0 0.0 .
705(27) 0.0 0.0 .
718(27) 0.0 0.0 .
683(26) 0.0 0.0 .
728(27) 0.0 0.0 .
719(27) 0.0 0.0 .
731(27) 0.0 0.0 .
702(26) 0.0 0.0 .
698(26) 0.0 0.0 .
716(27) 0.0 0.0 .
721(27) 0.0 0.0 .
747(27) 0.0 0.0 .
763(28) 0.0 0.0 .
723(27) 0.0 0.0 .
711(27) 0.0 0.0 .
733(27) 0.0 0.0 .
746(27) 0.0 0.0 .
747(27) 0.0 0.0 .
732(27) 0.0 0.0 .
752(27) 0.0 0.0 .
781(28) 0.0 0.0 .
777(28) 0.0 0.0 .
816(29) 0.0 0.0 .
811(28) 0.0 0.0 .
800(28) 0.0 0.0 .
807(28) 0.0 0.0 .
816(29) 0.0 0.0 .
811(28) 0.0 0.0 .
866(29) 0.0 0.0 .
839(29) 0.0 0.0 .
818(29) 0.0 0.0 .
809(28) 0.0 0.0 .
833(29) 0.0 0.0 .
893(30) 0.0 0.0 .
861(29) 0.0 0.0 .
834(29) 0.0 0.0 .
851(29) 0.0 0.0 .
875(30) 0.0 0.0 .
850(29) 0.0 0.0 .
871(30) 0.0 0.0 .
808(28) 0.0 0.0 .
834(29) 0.0 0.0 .
852(29) 0.0 0.0 .
859(29) 0.0 0.0 .
881(30) 0.0 0.0 .
901(30) 0.0 0.0 .
875(30) 0.0 0.0 .
840(29) 0.0 0.0 .
928(30) 0.0 0.0 .
932(31) 0.0 0.0 .
937(31) 0.0 0.0 .
894(30) 0.0 0.0 .
993(32) 0.0 0.0 .
974(31) 0.0 0.0 .
1050(32) 0.0 0.0 .
1010(32) 0.0 0.0 .
953(31) 0.0 0.0 .
1015(32) 0.0 0.0 .
1035(32) 0.0 0.0 .
1029(32) 0.0 0.0 .
1045(32) 0.0 0.0 .
1070(33) 0.0 0.0 .
1082(33) 0.0 0.0 .
1052(32) 0.0 0.0 .
1096(33) 0.0 0.0 .
1133(34) 0.0 0.0 .
1149(34) 0.0 0.0 .
1162(34) 0.0 0.0 .
1160(34) 0.0 0.0 .
1244(35) 0.0 0. .
1216(35) 0.0 0.0 .
1277(36) 0.0 0. .
1286(36) 0.0 0. .
1303(36) 0.0 0. .
1322(36) 0.0 0. .
1449(38) 0.0 0. .
1496(39) 0.0 0. .
1538(39) 0.0 0. .
1613(40) 0.0 0. .
1653(41) 0.0 0. .
1692(41) 0.0 0. .
1693(41) 0.0 0. .
1848(43) 0.0 0. .
1869(43) 0.0 0. .
1934(44) 0.0 0. .
1999(45) 0.0 0. .
2181(47) 0.0 0. .
2292(48) 0.0 0. .
2368(49) 0.0 0. .
2496(50) 0.0 0. .
2652(51) 0.0 0. .
2727(52) 0.0 0. .
2958(54) 0.0 0. .
3140(56) 0.0 0. .
3337(58) 0.0 0. .
3575(60) 0.0 0. .
4010(63) 0.0 0. .
4257(65) 0.0 0. .
4625(68) 0.0 0. .
5164(72) 0.0 0. .
5679(75) 0.0 0. .
6237(79) 0.0 0. .
7107(84) 0.0 0. .
8053(90) 0.0 0. .
9069(95) 0.0 0. .
10230(100) 0.0 0. .
12000(110) 0.0 0. .
13800(120) 0.0 0. .
16200(130) 0.0 0. .
19570(140) 0.0 0. .
23600(150) 0.0 0. .
28770(170) 0.0 0. .
36280(190) 0.0 0. .
46580(220) 0.0 0. .
61170(250) 0.0 0. .
82110(290) 0.0 0. .
113680(340) 0.0 0. .
161670(400) 0.0 0. .
226700(480) 0.0 0. .
303860(550) 0.0 0. .
375740(610) 0.0 0. .
415360(640) 0.0 0. .
404880(640) 0.0 0. .
340620(580) 0.0 0. .
253640(500) 0.0 0. .
177900(420) 0.0 0. .
124290(350) 0.0 0. .
88890(300) 0.0 0. .
64690(250) 0.0 0. .
49470(220) 0.0 0. .
38320(200) 0.0 0. .
30120(170) 0.0 0. .
24350(160) 0.0 0. .
19910(140) 0.0 0. .
16560(130) 0.0 0. .
13860(120) 0.0 0. .
11730(110) 0.0 0. .
10140(100) 0.0 0. .
8742(93) 0.0 0. .
7788(88) 0.0 0. .
6759(82) 0.0 0. .
6012(78) 0.0 0. .
5477(74) 0.0 0. .
4988(71) 0.0 0. .
4603(68) 0.0 0. .
4179(65) 0.0 0. .
3781(61) 0.0 0. .
3528(59) 0.0 0. .
3341(58) 0.0 0. .
3078(55) 0.0 0. .
2840(53) 0.0 0. .
2734(52) 0.0 0. .
2602(51) 0.0 0. .
2411(49) 0.0 0. .
2339(48) 0.0 0. .
2167(47) 0.0 0. .
2158(46) 0.0 0. .
2066(45) 0.0 0. .
1908(44) 0.0 0. .
1852(43) 0.0 0. .
1835(43) 0.0 0. .
1755(42) 0.0 0. .
1754(42) 0.0 0. .
1624(40) 0.0 0. .
1609(40) 0.0 0. .
1516(39) 0.0 0. .
1606(40) 0.0 0. .
1518(39) 0.0 0. .
1466(38) 0.0 0. .
1441(38) 0.0 0. .
1425(38) 0.0 0. .
1343(37) 0.0 0. .
1366(37) 0.0 0. .
1340(37) 0.0 0. .
1296(36) 0.0 0. .
1246(35) 0.0 0. .
1202(35) 0.0 0.0 .
1241(35) 0.0 0. .
1199(35) 0.0 0.0 .
1177(34) 0.0 0.0 .
1160(34) 0.0 0.0 .
1106(33) 0.0 0.0 .
1148(34) 0.0 0.0 .
1104(33) 0.0 0.0 .
1066(33) 0.0 0.0 .
1104(33) 0.0 0.0 .
1085(33) 0.0 0.0 .
1061(33) 0.0 0.0 .
1025(32) 0.0 0.0 .
1012(32) 0.0 0.0 .
973(31) 0.0 0.0 .
1018(32) 0.0 0.0 .
1015(32) 0.0 0.0 .
991(31) 0.0 0.0 .
957(31) 0.0 0.0 .
1020(32) 0.0 0.0 .
982(31) 0.0 0.0 .
945(31) 0.0 0.0 .
956(31) 0.0 0.0 .
946(31) 0.0 0.0 .
923(30) 0.0 0.0 .
932(31) 0.0 0.0 .
983(31) 0.0 0.0 .
910(30) 0.0 0.0 .
898(30) 0.0 0.0 .
905(30) 0.0 0.0 .
935(31) 0.0 0.0 .
914(30) 0.0 0.0 .
891(30) 0.0 0.0 .
897(30) 0.0 0.0 .
861(29) 0.0 0.0 .
910(30) 0.0 0.0 .
895(30) 0.0 0.0 .
889(30) 0.0 0.0 .
932(31) 0.0 0.0 .
869(29) 0.0 0.0 .
841(29) 0.0 0.0 .
829(29) 0.0 0.0 .
831(29) 0.0 0.0 .
834(29) 0.0 0.0 .
834(29) 0.0 0.0 .
836(29) 0.0 0.0 .
797(28) 0.0 0.0 .
830(29) 0.0 0.0 .
757(28) 0.0 0.0 .
782(28) 0.0 0.0 .
796(28) 0.0 0.0 .
811(28) 0.0 0.0 .
735(27) 0.0 0.0 .
716(27) 0.0 0.0 .
766(28) 0.0 0.0 .
784(28) 0.0 0.0 .
799(28) 0.0 0.0 .
763(28) 0.0 0.0 .
735(27) 0.0 0.0 .
764(28) 0.0 0.0 .
795(28) 0.001258 515.9 35.8
765(28) 0.001307 516.1 35.5
726(27) 0.001377 516.2 35.3
787(28) 0.001271 516.3 35.3
772(28) 0.001295 516.5 35.4
720(27) 0.001389 516.6 35.8
776(28) 0.001289 516.7 36.2
760(28) 0.001316 516.9 36.8
730(27) 0.001370 517.0 37.6
710(27) 0.001408 517.2 38.7
737(27) 0.001357 517.3 40.0
727(27) 0.001376 517.4 41.5
750(27) 0.001333 517.6 43.4
784(28) 0.001276 517.7 45.5
801(28) 0.001248 517.9 48.0
778(28) 0.001285 518.0 50.8
768(28) 0.001302 518.1 54.1
756(27) 0.001323 518.3 57.7
718(27) 0.001393 518.4 61.7
791(28) 0.001264 518.6 66.0
738(27) 0.001355 518.7 70.8
798(28) 0.001253 518.8 75.9
732(27) 0.001366 519.0 81.3
792(28) 0.001263 519.1 86.9
745(27) 0.001342 519.2 92.8
776(28) 0.001289 519.4 98.7
762(28) 0.001312 519.5 104.5
792(28) 0.001263 519.7 110.2
780(28) 0.001282 519.8 115.5
805(28) 0.001242 519.9 120.3
822(29) 0.001217 520.1 124.3
750(27) 0.001333 520.2 127.4
803(28) 0.001245 520.4 129.3
749(27) 0.001335 520.5 129.9
774(28) 0.001292 520.6 129.3
756(27) 0.001323 520.8 127.5
758(28) 0.001319 520.9 124.5
739(27) 0.001353 521.1 120.5
764(28) 0.001309 521.2 115.8
711(27) 0.001406 521.3 110.4
732(27) 0.001366 521.5 104.7
728(27) 0.001374 521.6 98.8
730(27) 0.001370 521.8 92.8
700(26) 0.001429 521.9 87.0
679(26) 0.001473 522.0 81.3
688(26) 0.001453 522.2 75.8
676(26) 0.001479 522.3 70.7
694(26) 0.001441 522.4 65.9
676(26) 0.001479 522.6 61.5
618(25) 0.001618 522.7 57.5
616(25) 0.001623 522.9 53.9
639(25) 0.001565 523.0 50.6
629(25) 0.001590 523.1 47.8
602(25) 0.001661 523.3 45.3
622(25) 0.001608 523.4 43.2
646(25) 0.001548 523.6 41.3
639(25) 0.001565 523.7 39.7
617(25) 0.001621 523.8 38.4
621(25) 0.001610 524.0 37.3
578(24) 0.001730 524.1 36.4
596(24) 0.001678 524.3 35.6
546(23) 0.001832 524.4 34.9
609(25) 0.001642 524.5 34.4
566(24) 0.001767 524.7 33.9
580(24) 0.001724 524.8 33.5
564(24) 0.001773 525.0 33.2
591(24) 0.001692 525.1 32.8
579(24) 0.001727 525.2 32.5
550(23) 0.001818 525.4 32.1
584(24) 0.001712 525.5 31.8
551(23) 0.001815 525.6 31.4
515(23) 0.001942 525.8 31.0
546(23) 0.001832 525.9 30.6
571(24) 0.001751 526.1 30.2
547(23) 0.001828 526.2 29.7
565(24) 0.001770 526.3 29.2
549(23) 0.001822 526.5 28.8
600(24) 0.001667 526.6 28.3
557(24) 0.001795 526.8 27.8
513(23) 0.001949 526.9 27.3
553(24) 0.001808 527.0 26.8
579(24) 0.001727 527.0 26.3
514(23) 0.001946 526.9 25.8
536(23) 0.001866 526.7 25.4
523(23) 0.001912 526.6 25.0
531(23) 0.001883 526.5 24.5
556(24) 0.001799 526.3 24.2
516(23) 0.001938 526.2 23.8
527(23) 0.001898 526.0 23.5
571(24) 0.001751 525.9 23.2
557(24) 0.001795 525.7 22.9
553(24) 0.001808 525.6 22.7
501(22) 0.001996 525.4 22.5
560(24) 0.001786 525.3 22.3
545(23) 0.001835 525.1 22.2
550(23) 0.001818 525.0 22.1
537(23) 0.001862 524.8 22.1
557(24) 0.001795 524.7 22.1
561(24) 0.001783 524.6 22.2
542(23) 0.001845 524.4 22.3
554(24) 0.001805 524.3 22.4
532(23) 0.001880 524.1 22.6
564(24) 0.001773 524.0 22.9
506(22) 0.001976 523.8 23.2
570(24) 0.001754 523.7 23.6
579(24) 0.001727 523.5 24.0
551(23) 0.001815 523.4 24.5
524(23) 0.001908 523.2 25.2
520(23) 0.001923 523.1 25.9
567(24) 0.001764 523.0 26.7
540(23) 0.001852 522.8 27.7
537(23) 0.001862 522.7 28.9
603(25) 0.001658 522.5 30.2
548(23) 0.001825 522.4 31.8
592(24) 0.001689 522.2 33.7
553(24) 0.001808 522.1 35.9
542(23) 0.001845 521.9 38.4
544(23) 0.001838 521.8 41.2
546(23) 0.001832 521.6 44.4
563(24) 0.001776 521.5 48.0
594(24) 0.001684 521.4 52.0
565(24) 0.001770 521.2 56.2
596(24) 0.001678 521.1 60.7
656(26) 0.001524 520.9 65.4
644(25) 0.001553 520.8 70.0
632(25) 0.001582 520.6 74.4
636(25) 0.001572 520.5 78.3
655(26) 0.001527 520.3 81.5
639(25) 0.001565 520.2 83.7
598(24) 0.001672 520.0 84.8
601(25) 0.001664 519.9 85.0
602(25) 0.001661 519.7 84.4
600(24) 0.001667 519.6 83.2
619(25) 0.001616 519.5 81.6
658(26) 0.001520 519.3 80.0
574(24) 0.001742 519.2 78.5
537(23) 0.001862 519.0 77.2
614(25) 0.001629 518.9 76.1
614(25) 0.001629 518.7 75.3
585(24) 0.001709 518.6 74.9
607(25) 0.001647 518.4 74.8
581(24) 0.001721 518.3 75.1
580(24) 0.001724 518.1 75.5
637(25) 0.001570 518.0 76.3
626(25) 0.001597 517.9 77.2
619(25) 0.001616 517.7 78.2
591(24) 0.001692 517.6 79.4
564(24) 0.001773 517.4 80.5
614(25) 0.001629 517.3 81.7
600(24) 0.001667 517.1 82.9
595(24) 0.001681 517.0 84.0
588(24) 0.001701 516.8 84.9
592(24) 0.001689 516.7 85.8
563(24) 0.001776 516.5 86.5
572(24) 0.001748 516.4 87.1
631(25) 0.001585 516.2 87.6
559(24) 0.001789 516.1 87.9
572(24) 0.001748 516.0 88.1
610(25) 0.001639 515.8 88.1
592(24) 0.001689 515.7 88.1
588(24) 0.001701 515.5 87.9
614(25) 0.001629 515.4 87.7
588(24) 0.001701 515.2 87.4
577(24) 0.001733 515.1 87.2
621(25) 0.001610 514.9 86.9
621(25) 0.001610 514.8 86.7
593(24) 0.001686 514.6 86.6
595(24) 0.001681 514.5 86.5
597(24) 0.001675 514.4 86.6
576(24) 0.001736 514.2 86.9
597(24) 0.001675 514.1 87.3
561(24) 0.001783 513.9 87.9
595(24) 0.001681 513.8 88.7
577(24) 0.001733 513.6 89.7
569(24) 0.001757 513.5 91.0
644(25) 0.001553 513.3 92.4
628(25) 0.001592 513.2 94.1
566(24) 0.001767 513.0 95.9
602(25) 0.001661 512.9 97.9
649(25) 0.001541 512.7 100.0
582(24) 0.001718 512.6 102.1
601(25) 0.001664 512.5 104.2
655(26) 0.001527 512.3 106.2
632(25) 0.001582 512.2 107.9
605(25) 0.001653 512.0 109.2
600(24) 0.001667 511.9 110.1
629(25) 0.001590 511.7 110.3
615(25) 0.001626 511.6 109.9
591(24) 0.001692 511.4 108.8
570(24) 0.001754 511.3 106.9
579(24) 0.001727 511.1 104.4
546(23) 0.001832 511.0 101.3
585(24) 0.001709 510.9 97.9
549(23) 0.001822 510.7 94.0
561(24) 0.001783 510.6 90.1
596(24) 0.001678 510.4 86.0
569(24) 0.001757 510.3 81.9
561(24) 0.001783 510.1 77.9
567(24) 0.001764 510.0 74.1
524(23) 0.001908 509.8 70.4
534(23) 0.001873 509.7 67.0
563(24) 0.001776 509.5 63.9
549(23) 0.001822 509.4 61.0
529(23) 0.001890 509.2 58.3
522(23) 0.001916 509.1 56.0
550(23) 0.001818 509.0 54.0
536(23) 0.001866 508.8 52.3
549(23) 0.001822 508.7 50.9
545(23) 0.001835 508.5 49.8
526(23) 0.001901 508.4 49.0
549(23) 0.001822 508.2 48.6
493(22) 0.002028 508.1 48.4
516(23) 0.001938 507.9 48.7
534(23) 0.001873 507.8 49.3
539(23) 0.001855 507.6 50.4
554(24) 0.001805 507.5 51.8
546(23) 0.001832 507.4 53.7
534(23) 0.001873 507.2 56.0
525(23) 0.001905 507.1 58.8
535(23) 0.001869 506.9 62.0
532(23) 0.001880 506.8 65.7
560(24) 0.001786 506.6 69.8
577(24) 0.001733 506.5 74.3
576(24) 0.001736 506.3 79.2
586(24) 0.001706 506.2 84.3
595(24) 0.001681 506.0 89.6
596(24) 0.001678 505.9 94.8
549(23) 0.001822 505.7 99.8
550(23) 0.001818 505.6 104.4
530(23) 0.001887 505.5 108.4
566(24) 0.001767 505.3 111.3
565(24) 0.001770 505.2 113.2
596(24) 0.001678 505.0 113.6
582(24) 0.001718 504.9 112.8
583(24) 0.001715 504.7 110.6
507(23) 0.001972 504.6 107.2
561(24) 0.001783 504.4 102.9
543(23) 0.001842 504.3 98.0
546(23) 0.001832 504.1 92.7
547(23) 0.001828 504.0 87.2
523(23) 0.001912 503.9 81.6
459(21) 0.002179 503.7 76.3
513(23) 0.001949 503.6 71.2
551(23) 0.001815 503.4 66.4
500(22) 0.002000 503.3 62.0
504(22) 0.001984 503.1 58.2
535(23) 0.001869 503.0 54.7
510(23) 0.001961 502.8 51.8
532(23) 0.001880 502.7 49.4
538(23) 0.001859 502.5 47.6
479(22) 0.002088 502.4 46.3
529(23) 0.001890 502.2 45.6
550(23) 0.001818 502.1 45.7
481(22) 0.002079 502.0 46.4
502(22) 0.001992 501.8 48.0
490(22) 0.002041 501.7 50.5
542(23) 0.001845 501.5 53.8
481(22) 0.002079 501.4 57.9
573(24) 0.001745 501.2 62.6
541(23) 0.001848 500.9 67.4
553(24) 0.001808 500.7 71.8
542(23) 0.001845 500.4 74.9
526(23) 0.001901 500.1 75.9
550(23) 0.001818 499.9 74.6
511(23) 0.001957 499.6 71.3
517(23) 0.001934 499.4 66.9
515(23) 0.001942 499.1 62.1
470(22) 0.002128 498.8 57.5
522(23) 0.001916 498.6 53.5
547(23) 0.001828 498.3 50.1
479(22) 0.002088 498.1 47.5
497(22) 0.002012 497.8 45.5
568(24) 0.001761 497.5 44.1
476(22) 0.002101 497.3 43.2
519(23) 0.001927 497.0 42.7
496(22) 0.002016 496.8 42.5
509(23) 0.001965 496.5 42.6
472(22) 0.002119 496.2 42.8
460(21) 0.002174 496.0 43.2
507(23) 0.001972 495.7 43.7
514(23) 0.001946 495.5 44.3
487(22) 0.002053 495.2 45.0
505(22) 0.001980 494.9 45.8
504(22) 0.001984 494.7 46.7
506(22) 0.001976 494.4 47.8
505(22) 0.001980 494.2 48.9
533(23) 0.001876 493.9 50.3
568(24) 0.001761 493.6 51.8
517(23) 0.001934 493.4 53.6
549(23) 0.001822 493.1 55.6
487(22) 0.002053 492.9 58.0
522(23) 0.001916 492.6 60.8
545(23) 0.001835 492.4 64.0
545(23) 0.001835 492.1 67.9
562(24) 0.001779 491.8 72.5
597(24) 0.001675 491.6 78.1
601(25) 0.001664 491.3 84.6
576(24) 0.001736 491.1 92.4
649(25) 0.001541 490.8 101.6
596(24) 0.001678 490.5 112.4
609(25) 0.001642 490.3 125.1
632(25) 0.001582 490.0 139.7
630(25) 0.001587 489.8 156.4
703(27) 0.001422 489.5 175.3
701(26) 0.001427 489.2 196.4
693(26) 0.001443 489.0 219.7
730(27) 0.001370 488.7 245.1
765(28) 0.001307 488.5 272.2
878(30) 0.001139 488.2 300.5
936(31) 0.001068 487.9 329.7
932(31) 0.001073 487.7 358.6
979(31) 0.001021 487.4 386.4
1002(32) 0.000998 487.2 411.6
1059(33) 0.000944 486.9 432.8
1068(33) 0.000936 486.6 448.7
1116(33) 0.000896 486.4 457.8
1042(32) 0.000960 486.1 459.6
1035(32) 0.000966 485.9 453.9
1012(32) 0.000988 485.6 441.1
948(31) 0.001055 485.3 422.4
898(30) 0.001114 485.1 399.1
850(29) 0.001176 484.8 372.6
771(28) 0.001297 484.6 344.4
740(27) 0.001351 484.3 315.6
778(28) 0.001285 484.1 287.0
719(27) 0.001391 483.8 259.4
693(26) 0.001443 483.5 233.3
677(26) 0.001477 483.3 209.0
614(25) 0.001629 483.0 186.7
650(25) 0.001538 482.8 166.5
599(24) 0.001669 482.5 148.5
580(24) 0.001724 482.2 132.5
560(24) 0.001786 482.0 118.6
553(24) 0.001808 481.7 106.5
570(24) 0.001754 481.5 96.0
569(24) 0.001757 481.2 87.1
539(23) 0.001855 480.9 79.5
532(23) 0.001880 480.7 73.0
553(24) 0.001808 480.4 67.6
514(23) 0.001946 480.2 62.9
529(23) 0.001890 479.9 59.0
509(23) 0.001965 479.6 55.6
486(22) 0.002058 479.4 52.8
502(22) 0.001992 479.1 50.3
512(23) 0.001953 478.9 48.2
487(22) 0.002053 478.6 46.4
494(22) 0.002024 478.3 44.9
516(23) 0.001938 478.1 43.6
485(22) 0.002062 477.8 42.4
510(23) 0.001961 477.6 41.4
490(22) 0.002041 477.3 40.6
505(22) 0.001980 477.0 39.8
495(22) 0.002020 476.8 39.2
491(22) 0.002037 476.5 38.6
489(22) 0.002045 476.3 38.2
464(22) 0.002155 476.0 37.7
488(22) 0.002049 475.7 37.3
471(22) 0.002123 475.5 37.0
482(22) 0.002075 475.2 36.6
463(22) 0.002160 475.0 36.3
455(21) 0.002198 474.7 35.9
486(22) 0.002058 474.5 35.5
467(22) 0.002141 474.2 35.1
472(22) 0.002119 473.9 34.7
451(21) 0.002217 473.7 34.3
470(22) 0.002128 473.4 33.8
465(22) 0.002151 473.2 33.4
487(22) 0.002053 472.9 32.9
464(22) 0.002155 472.6 32.5
450(21) 0.002222 472.4 32.0
464(22) 0.002155 472.1 31.6
450(21) 0.002222 471.9 31.1
462(21) 0.002164 471.6 30.7
487(22) 0.002053 471.3 30.4
447(21) 0.002237 471.1 30.0
436(21) 0.002294 470.8 29.7
450(21) 0.002222 470.6 29.5
499(22) 0.002004 470.3 29.2
472(22) 0.002119 470.0 29.0
529(23) 0.001890 469.8 28.9
443(21) 0.002257 469.5 28.8
460(21) 0.002174 469.3 28.7
468(22) 0.002137 469.0 28.7
457(21) 0.002188 468.7 28.7
464(22) 0.002155 468.5 28.8
476(22) 0.002101 468.2 28.8
475(22) 0.002105 468.0 29.0
473(22) 0.002114 467.7 29.1
468(22) 0.002137 467.4 29.4
470(22) 0.002128 467.2 29.6
468(22) 0.002137 466.9 29.9
509(23) 0.001965 466.7 30.1
466(22) 0.002146 466.4 30.5
467(22) 0.002141 466.2 30.8
475(22) 0.002105 465.9 31.2
467(22) 0.002141 465.6 31.6
476(22) 0.002101 465.4 32.0
465(22) 0.002151 465.1 32.4
458(21) 0.002183 464.9 32.8
472(22) 0.002119 464.7 33.2
465(22) 0.002151 464.5 33.6
473(22) 0.002114 464.4 34.0
461(21) 0.002169 464.2 34.5
433(21) 0.002309 464.0 34.9
478(22) 0.002092 463.8 35.3
497(22) 0.002012 463.7 35.7
486(22) 0.002058 463.5 36.0
472(22) 0.002119 463.3 36.4
465(22) 0.002151 463.1 36.7
461(21) 0.002169 463.0 37.1
475(22) 0.002105 462.8 37.4
471(22) 0.002123 462.6 37.7
437(21) 0.002288 462.4 38.0
473(22) 0.002114 462.3 38.3
468(22) 0.002137 462.1 38.6
489(22) 0.002045 461.9 38.9
434(21) 0.002304 461.7 39.2
504(22) 0.001984 461.6 39.5
472(22) 0.002119 461.4 39.8
482(22) 0.002075 461.2 40.2
486(22) 0.002058 461.0 40.5
490(22) 0.002041 460.9 40.9
489(22) 0.002045 460.7 41.3
451(21) 0.002217 460.5 41.8
471(22) 0.002123 460.3 42.3
477(22) 0.002096 460.2 42.8
499(22) 0.002004 460.0 43.4
490(22) 0.002041 459.8 44.0
445(21) 0.002247 459.6 44.7
490(22) 0.002041 459.5 45.4
493(22) 0.002028 459.3 46.2
447(21) 0.002237 459.1 47.1
498(22) 0.002008 458.9 48.1
465(22) 0.002151 458.8 49.1
443(21) 0.002257 458.6 50.3
475(22) 0.002105 458.4 51.6
483(22) 0.002070 458.2 52.9
473(22) 0.002114 458.1 54.4
451(21) 0.002217 457.9 56.1
505(22) 0.001980 457.7 57.8
463(22) 0.002160 457.5 59.7
460(21) 0.002174 457.4 61.8
445(21) 0.002247 457.2 64.0
472(22) 0.002119 457.0 66.4
548(23) 0.001825 456.8 69.0
527(23) 0.001898 456.7 71.7
531(23) 0.001883 456.5 74.7
542(23) 0.001845 456.3 77.8
516(23) 0.001938 456.1 81.2
526(23) 0.001901 456.0 84.7
547(23) 0.001828 455.8 88.4
517(23) 0.001934 455.6 92.4
543(23) 0.001842 455.5 96.6
554(24) 0.001805 455.3 101.0
518(23) 0.001931 455.1 105.6
573(24) 0.001745 454.9 110.4
536(23) 0.001866 454.8 115.4
581(24) 0.001721 454.6 120.6
537(23) 0.001862 454.4 126.0
585(24) 0.001709 454.2 131.6
609(25) 0.001642 454.1 137.3
582(24) 0.001718 453.9 143.3
650(25) 0.001538 453.7 149.3
640(25) 0.001563 453.5 155.5
643(25) 0.001555 453.4 161.8
637(25) 0.001570 453.2 168.1
691(26) 0.001447 453.0 174.6
670(26) 0.001493 452.8 181.0
644(25) 0.001553 452.7 187.4
710(27) 0.001408 452.5 193.7
694(26) 0.001441 452.3 200.0
709(27) 0.001410 452.1 206.1
657(26) 0.001522 452.0 212.0
695(26) 0.001439 451.8 217.7
656(26) 0.001524 451.6 223.2
694(26) 0.001441 451.4 228.3
690(26) 0.001449 451.3 233.2
717(27) 0.001395 451.1 237.7
695(26) 0.001439 450.9 241.9
728(27) 0.001374 450.7 245.7
713(27) 0.001403 450.6 249.2
741(27) 0.001350 450.4 252.3
688(26) 0.001453 450.2 255.1
716(27) 0.001397 450.0 257.5
726(27) 0.001377 449.9 259.5
720(27) 0.001389 449.7 261.2
674(26) 0.001484 449.5 262.4
727(27) 0.001376 449.3 263.2
711(27) 0.001406 449.2 263.5
661(26) 0.001513 449.0 263.1
752(27) 0.001330 448.8 262.1
666(26) 0.001501 448.6 260.5
706(27) 0.001416 448.5 258.0
685(26) 0.001460 448.3 254.7
660(26) 0.001515 448.1 250.5
660(26) 0.001515 447.9 245.5
668(26) 0.001497 447.8 239.8
650(25) 0.001538 447.6 233.3
664(26) 0.001506 447.4 226.2
664(26) 0.001506 447.2 218.6
637(25) 0.001570 447.1 210.6
628(25) 0.001592 446.9 202.4
647(25) 0.001546 446.7 194.1
611(25) 0.001637 446.5 185.7
574(24) 0.001742 446.4 177.3
540(23) 0.001852 446.2 169.2
572(24) 0.001748 446.0 161.2
592(24) 0.001689 445.9 153.4
569(24) 0.001757 445.7 146.0
542(23) 0.001845 445.5 138.9
543(23) 0.001842 445.3 132.2
565(24) 0.001770 445.2 125.8
540(23) 0.001852 445.0 119.8
525(23) 0.001905 444.8 114.1
539(23) 0.001855 444.6 108.9
508(23) 0.001968 444.5 104.0
537(23) 0.001862 444.3 99.5
529(23) 0.001890 444.1 95.3
502(22) 0.001992 443.9 91.4
511(23) 0.001957 443.8 87.9
472(22) 0.002119 443.6 84.6
467(22) 0.002141 443.4 81.6
486(22) 0.002058 443.2 78.8
482(22) 0.002075 443.1 76.3
515(23) 0.001942 442.9 74.0
496(22) 0.002016 442.7 71.8
490(22) 0.002041 442.5 69.9
464(22) 0.002155 442.4 68.1
475(22) 0.002105 442.2 66.4
496(22) 0.002016 442.0 64.8
473(22) 0.002114 441.8 63.4
475(22) 0.002105 441.7 62.0
495(22) 0.002020 441.5 60.8
483(22) 0.002070 441.3 59.6
486(22) 0.002058 441.1 58.5
461(21) 0.002169 441.0 57.4
480(22) 0.002083 440.8 56.4
437(21) 0.002288 440.6 55.5
480(22) 0.002083 440.4 54.5
433(21) 0.002309 440.3 53.7
469(22) 0.002132 440.1 52.8
473(22) 0.002114 439.9 52.0
467(22) 0.002141 439.7 51.3
483(22) 0.002070 439.6 50.5
442(21) 0.002262 439.4 49.8
448(21) 0.002232 439.2 49.1
470(22) 0.002128 439.0 48.4
491(22) 0.002037 438.9 47.8
451(21) 0.002217 438.7 47.2
451(21) 0.002217 438.5 46.6
508(23) 0.001968 438.3 46.0
472(22) 0.002119 438.2 45.5
455(21) 0.002198 438.0 44.9
456(21) 0.002193 437.8 44.4
466(22) 0.002146 437.6 43.9
425(21) 0.002353 437.5 43.5
452(21) 0.002212 437.3 43.0
467(22) 0.002141 437.1 42.6
447(21) 0.002237 436.9 42.2
450(21) 0.002222 436.8 41.8
410(20) 0.002439 436.6 41.4
481(22) 0.002079 436.4 41.1
474(22) 0.002110 436.2 40.8
473(22) 0.002114 436.1 40.5
410(20) 0.002439 435.9 40.2
446(21) 0.002242 435.7 39.9
456(21) 0.002193 435.6 39.7
462(21) 0.002164 435.5 39.5
458(21) 0.002183 435.3 39.3
449(21) 0.002227 435.2 39.2
456(21) 0.002193 435.1 39.0
436(21) 0.002294 434.9 38.9
459(21) 0.002179 434.8 38.8
434(21) 0.002304 434.7 38.7
463(22) 0.002160 434.5 38.7
436(21) 0.002294 434.4 38.7
423(21) 0.002364 434.3 38.7
454(21) 0.002203 434.1 38.7
457(21) 0.002188 434.0 38.7
459(21) 0.002179 433.8 38.8
449(21) 0.002227 433.7 38.9
456(21) 0.002193 433.6 39.0
488(22) 0.002049 433.4 39.1
466(22) 0.002146 433.3 39.3
445(21) 0.002247 433.2 39.4
460(21) 0.002174 433.0 39.6
437(21) 0.002288 432.9 39.9
447(21) 0.002237 432.8 40.1
466(22) 0.002146 432.6 40.4
469(22) 0.002132 432.5 40.6
462(21) 0.002164 432.4 40.9
490(22) 0.002041 432.2 41.3
495(22) 0.002020 432.1 41.6
412(20) 0.002427 432.0 41.9
427(21) 0.002342 431.8 42.3
472(22) 0.002119 431.7 42.7
456(21) 0.002193 431.6 43.1
455(21) 0.002198 431.4 43.5
417(20) 0.002398 431.3 44.0
443(21) 0.002257 431.1 44.4
447(21) 0.002237 431.0 44.8
456(21) 0.002193 430.9 45.3
494(22) 0.002024 430.7 45.8
441(21) 0.002268 430.6 46.3
444(21) 0.002252 430.5 46.7
449(21) 0.002227 430.3 47.2
474(22) 0.002110 430.2 47.7
424(21) 0.002358 430.1 48.1
436(21) 0.002294 429.9 48.6
470(22) 0.002128 429.8 49.1
427(21) 0.002342 429.7 49.6
438(21) 0.002283 429.5 50.0
473(22) 0.002114 429.4 50.5
450(21) 0.002222 429.3 50.9
439(21) 0.002278 429.1 51.3
427(21) 0.002342 429.0 51.7
472(22) 0.002119 428.9 52.1
449(21) 0.002227 428.7 52.5
454(21) 0.002203 428.6 52.9
463(22) 0.002160 428.4 53.2
436(21) 0.002294 428.3 53.6
442(21) 0.002262 428.2 53.9
423(21) 0.002364 428.0 54.2
448(21) 0.002232 427.9 54.5
400(20) 0.002500 427.8 54.8
436(21) 0.002294 427.6 55.0
431(21) 0.002320 427.5 55.3
448(21) 0.002232 427.4 55.6
449(21) 0.002227 427.2 55.8
434(21) 0.002304 427.1 56.1
466(22) 0.002146 427.0 56.3
452(21) 0.002212 426.8 56.6
438(21) 0.002283 426.7 56.8
472(22) 0.002119 426.6 57.1
430(21) 0.002326 426.4 57.3
440(21) 0.002273 426.3 57.6
430(21) 0.002326 426.1 57.8
454(21) 0.002203 426.0 58.1
462(21) 0.002164 425.9 58.3
498(22) 0.002008 425.7 58.6
491(22) 0.002037 425.6 58.8
481(22) 0.002079 425.5 59.1
480(22) 0.002083 425.3 59.3
467(22) 0.002141 425.2 59.5
468(22) 0.002137 425.1 59.8
477(22) 0.002096 424.9 60.0
523(23) 0.001912 424.8 60.2
442(21) 0.002262 424.7 60.3
487(22) 0.002053 424.5 60.5
517(23) 0.001934 424.4 60.6
475(22) 0.002105 424.3 60.8
471(22) 0.002123 424.1 60.9
475(22) 0.002105 424.0 60.9
483(22) 0.002070 423.9 61.0
444(21) 0.002252 423.7 61.0
479(22) 0.002088 423.6 61.0
487(22) 0.002053 423.4 61.0
475(22) 0.002105 423.3 60.9
456(21) 0.002193 423.2 60.7
471(22) 0.002123 423.0 60.6
455(21) 0.002198 422.9 60.4
470(22) 0.002128 422.8 60.1
455(21) 0.002198 422.6 59.9
477(22) 0.002096 422.5 59.6
458(21) 0.002183 422.4 59.2
505(22) 0.001980 422.2 58.9
482(22) 0.002075 422.1 58.5
455(21) 0.002198 422.0 58.1
476(22) 0.002101 421.8 57.8
481(22) 0.002079 421.7 57.4
472(22) 0.002119 421.6 56.9
454(21) 0.002203 421.4 56.5
463(22) 0.002160 421.3 56.1
481(22) 0.002079 421.2 55.7
460(21) 0.002174 421.0 55.2
442(21) 0.002262 420.9 54.8
460(21) 0.002174 420.7 54.4
457(21) 0.002188 420.6 54.0
451(21) 0.002217 420.5 53.5
453(21) 0.002208 420.3 53.1
489(22) 0.002045 420.2 52.7
416(20) 0.002404 420.1 52.3
462(21) 0.002164 419.9 51.9
442(21) 0.002262 419.8 51.5
479(22) 0.002088 419.7 51.2
451(21) 0.002217 419.5 50.9
442(21) 0.002262 419.4 50.6
457(21) 0.002188 419.3 50.3
433(21) 0.002309 419.1 50.0
500(22) 0.002000 419.0 49.8
454(21) 0.002203 418.9 49.7
414(20) 0.002415 418.7 49.6
432(21) 0.002315 418.6 49.5
475(22) 0.002105 418.5 49.5
427(21) 0.002342 418.3 49.6
444(21) 0.002252 418.2 49.8
465(22) 0.002151 418.0 50.1
410(20) 0.002439 417.9 50.5
454(21) 0.002203 417.8 51.2
446(21) 0.002242 417.6 52.1
464(22) 0.002155 417.5 53.5
447(21) 0.002237 417.4 55.3
480(22) 0.002083 417.2 57.9
472(22) 0.002119 417.1 61.3
461(21) 0.002169 417.0 65.9
490(22) 0.002041 416.8 71.9
541(23) 0.001848 416.7 79.5
511(23) 0.001957 416.6 88.7
539(23) 0.001855 416.4 99.7
507(23) 0.001972 416.3 112.3
518(23) 0.001931 416.2 125.8
501(22) 0.001996 416.0 139.5
512(23) 0.001953 415.9 151.7
524(23) 0.001908 415.8 160.6
520(23) 0.001923 415.6 164.2
524(23) 0.001908 415.5 161.8
485(22) 0.002062 415.3 153.8
525(23) 0.001905 415.2 142.0
519(23) 0.001927 415.1 128.4
483(22) 0.002070 414.9 114.7
461(21) 0.002169 414.8 101.8
456(21) 0.002193 414.7 90.3
459(21) 0.002179 414.5 80.5
436(21) 0.002294 414.4 72.5
472(22) 0.002119 414.3 66.2
478(22) 0.002092 414.1 61.3
438(21) 0.002283 414.0 57.6
490(22) 0.002041 413.9 54.9
427(21) 0.002342 413.7 52.9
442(21) 0.002262 413.6 51.6
426(21) 0.002347 413.5 50.7
478(22) 0.002092 413.3 50.1
489(22) 0.002045 413.2 49.8
431(21) 0.002320 413.1 49.7
480(22) 0.002083 412.9 49.8
464(22) 0.002155 412.8 50.1
458(21) 0.002183 412.6 50.5
442(21) 0.002262 412.5 51.0
449(21) 0.002227 412.4 51.7
464(22) 0.002155 412.2 52.6
490(22) 0.002041 412.1 53.6
479(22) 0.002088 412.0 54.7
471(22) 0.002123 411.8 55.9
426(21) 0.002347 411.7 57.3
481(22) 0.002079 411.6 58.9
475(22) 0.002105 411.4 60.5
443(21) 0.002257 411.3 62.3
460(21) 0.002174 411.2 64.2
435(21) 0.002299 411.0 66.1
454(21) 0.002203 410.9 68.1
468(22) 0.002137 410.8 70.1
460(21) 0.002174 410.6 72.2
465(22) 0.002151 410.5 74.1
483(22) 0.002070 410.4 76.0
448(21) 0.002232 410.2 77.7
494(22) 0.002024 410.1 79.3
461(21) 0.002169 409.9 80.9
447(21) 0.002237 409.8 82.3
457(21) 0.002188 409.7 83.7
502(22) 0.001992 409.5 85.1
511(23) 0.001957 409.4 86.6
476(22) 0.002101 409.3 88.0
521(23) 0.001919 409.1 89.5
506(22) 0.001976 409.0 91.1
477(22) 0.002096 408.9 92.7
473(22) 0.002114 408.7 94.4
549(23) 0.001822 408.6 96.1
469(22) 0.002132 408.5 97.9
507(23) 0.001972 408.3 99.7
516(23) 0.001938 408.2 101.5
474(22) 0.002110 408.1 103.2
500(22) 0.002000 407.9 105.0
539(23) 0.001855 407.8 106.7
512(23) 0.001953 407.7 108.3
518(23) 0.001931 407.5 109.9
539(23) 0.001855 407.4 111.3
528(23) 0.001894 407.2 112.6
483(22) 0.002070 407.1 113.8
566(24) 0.001767 407.0 114.9
559(24) 0.001789 406.8 115.8
557(24) 0.001795 406.7 116.5
590(24) 0.001695 406.6 117.1
525(23) 0.001905 406.4 117.6
546(23) 0.001832 406.3 117.8
511(23) 0.001957 406.2 118.0
538(23) 0.001859 406.0 118.0
570(24) 0.001754 405.9 117.8
520(23) 0.001923 405.8 117.6
541(23) 0.001848 405.6 117.2
533(23) 0.001876 405.5 116.8
526(23) 0.001901 405.4 116.3
529(23) 0.001890 405.2 115.7
525(23) 0.001905 405.1 115.1
510(23) 0.001961 405.0 114.5
517(23) 0.001934 404.8 113.9
547(23) 0.001828 404.7 113.3
544(23) 0.001838 404.5 112.7
563(24) 0.001776 404.4 112.1
549(23) 0.001822 404.3 111.5
502(22) 0.001992 404.1 111.0
547(23) 0.001828 404.0 110.4
530(23) 0.001887 403.9 109.8
509(23) 0.001965 403.7 109.1
549(23) 0.001822 403.6 108.3
490(22) 0.002041 403.5 107.3
510(23) 0.001961 403.3 106.1
511(23) 0.001957 403.2 104.6
511(23) 0.001957 403.1 102.8
537(23) 0.001862 402.9 100.7
548(23) 0.001825 402.8 98.4
499(22) 0.002004 402.7 95.8
450(21) 0.002222 402.5 93.1
504(22) 0.001984 402.4 90.3
507(23) 0.001972 402.3 87.5
455(21) 0.002198 402.1 84.7
494(22) 0.002024 402.0 82.0
471(22) 0.002123 401.8 79.4
468(22) 0.002137 401.7 77.0
454(21) 0.002203 401.6 74.7
469(22) 0.002132 401.4 72.7
473(22) 0.002114 401.3 71.0
505(22) 0.001980 401.2 69.5
471(22) 0.002123 401.0 68.5
457(21) 0.002188 400.9 68.0
474(22) 0.002110 400.8 68.1
458(21) 0.002183 400.6 68.9
444(21) 0.002252 400.5 70.5
475(22) 0.002105 400.4 73.0
496(22) 0.002016 400.2 76.4
444(21) 0.002252 400.1 80.8
460(21) 0.002174 400.0 85.8
474(22) 0.002110 399.8 91.3
449(21) 0.002227 399.7 96.7
449(21) 0.002227 399.6 101.1
497(22) 0.002012 399.4 103.7
465(22) 0.002151 399.3 103.5
462(21) 0.002164 399.1 100.6
440(21) 0.002273 399.0 95.3
483(22) 0.002070 398.9 88.7
453(21) 0.002208 398.7 81.5
444(21) 0.002252 398.6 74.5
437(21) 0.002288 398.5 68.1
434(21) 0.002304 398.3 62.5
458(21) 0.002183 398.2 57.8
440(21) 0.002273 398.1 53.9
445(21) 0.002247 397.9 50.9
432(21) 0.002315 397.8 48.6
432(21) 0.002315 397.7 46.9
447(21) 0.002237 397.5 45.7
473(22) 0.002114 397.4 45.0
455(21) 0.002198 397.3 44.7
468(22) 0.002137 397.1 44.6
425(21) 0.002353 397.0 44.9
438(21) 0.002283 396.9 45.5
432(21) 0.002315 396.7 46.3
469(22) 0.002132 396.6 47.4
448(21) 0.002232 396.4 48.8
443(21) 0.002257 396.3 50.4
435(21) 0.002299 396.2 52.4
458(21) 0.002183 396.0 54.5
451(21) 0.002217 395.9 57.0
461(21) 0.002169 395.8 59.7
443(21) 0.002257 395.6 62.6
440(21) 0.002273 395.5 65.6
448(21) 0.002232 395.4 68.9
455(21) 0.002198 395.2 72.2
444(21) 0.002252 395.1 75.5
465(22) 0.002151 395.0 78.7
479(22) 0.002088 394.8 81.8
462(21) 0.002164 394.7 84.8
468(22) 0.002137 394.6 87.4
474(22) 0.002110 394.4 89.8
462(21) 0.002164 394.3 92.0
476(22) 0.002101 394.2 93.9
463(22) 0.002160 394.0 95.8
509(23) 0.001965 393.9 97.6
506(22) 0.001976 393.7 99.5
502(22) 0.001992 393.6 101.6
471(22) 0.002123 393.5 103.8
505(22) 0.001980 393.3 106.2
491(22) 0.002037 393.2 108.7
531(23) 0.001883 393.1 111.0
543(23) 0.001842 392.9 112.9
502(22) 0.001992 392.8 114.2
477(22) 0.002096 392.7 114.5
493(22) 0.002028 392.5 113.8
544(23) 0.001838 392.4 112.1
509(23) 0.001965 392.3 109.7
478(22) 0.002092 392.1 106.8
489(22) 0.002045 392.0 103.6
492(22) 0.002033 391.9 100.5
502(22) 0.001992 391.7 97.4
465(22) 0.002151 391.6 94.5
481(22) 0.002079 391.5 91.8
470(22) 0.002128 391.3 89.4
494(22) 0.002024 391.2 87.1
487(22) 0.002053 391.0 84.9
464(22) 0.002155 390.9 82.9
468(22) 0.002137 390.8 80.9
482(22) 0.002075 390.6 79.0
451(21) 0.002217 390.5 77.0
468(22) 0.002137 390.4 75.1
488(22) 0.002049 390.2 73.0
466(22) 0.002146 390.1 70.9
474(22) 0.002110 390.0 68.8
448(21) 0.002232 389.8 66.6
468(22) 0.002137 389.7 64.3
430(21) 0.002326 389.6 62.0
462(21) 0.002164 389.4 59.7
445(21) 0.002247 389.3 57.3
439(21) 0.002278 389.2 55.0
467(22) 0.002141 389.0 52.6
414(20) 0.002415 388.9 50.3
467(22) 0.002141 388.8 48.1
424(21) 0.002358 388.6 45.8
457(21) 0.002188 388.5 43.7
430(21) 0.002326 388.3 41.6
434(21) 0.002304 388.2 39.7
426(21) 0.002347 388.1 37.8
475(22) 0.002105 387.9 35.9
422(21) 0.002370 387.8 34.2
450(21) 0.002222 387.7 32.6
412(20) 0.002427 387.5 31.0
404(20) 0.002475 387.4 29.6
412(20) 0.002427 387.3 28.2
401(20) 0.002494 387.1 26.9
413(20) 0.002421 387.0 25.7
426(21) 0.002347 386.9 24.6
445(21) 0.002247 386.7 23.5
483(22) 0.002070 386.6 22.6
469(22) 0.002132 386.5 21.7
446(21) 0.002242 386.3 20.8
448(21) 0.002232 386.2 20.0
431(21) 0.002320 386.1 19.3
426(21) 0.002347 385.9 18.6
401(20) 0.002494 385.8 18.0
414(20) 0.002415 385.6 17.5
373(19) 0.002681 385.5 16.9
395(20) 0.002532 385.4 16.5
434(21) 0.002304 385.2 16.0
424(21) 0.002358 385.1 15.6
399(20) 0.002506 385.0 15.2
417(20) 0.002398 384.8 14.9
409(20) 0.002445 384.7 14.6
446(21) 0.002242 384.6 14.3
404(20) 0.002475 384.4 14.0
416(20) 0.002404 384.3 13.8
394(20) 0.002538 384.2 13.6
432(21) 0.002315 384.0 13.4
409(20) 0.002445 383.9 13.2
424(21) 0.002358 383.8 13.0
405(20) 0.002469 383.6 12.9
397(20) 0.002519 383.5 12.7
372(19) 0.002688 383.4 12.6
401(20) 0.002494 383.2 12.5
413(20) 0.002421 383.1 12.4
388(20) 0.002577 383.2 12.3
379(19) 0.002639 383.3 12.2
381(20) 0.002625 383.3 12.1
391(20) 0.002558 383.4 12.1
381(20) 0.002625 383.5 12.0
386(20) 0.002591 383.6 12.0
358(19) 0.002793 383.7 12.0
381(20) 0.002625 383.8 11.9
409(20) 0.002445 383.8 11.9
421(21) 0.002375 383.9 11.9
409(20) 0.002445 384.0 11.9
377(19) 0.002653 384.1 11.9
414(20) 0.002415 384.2 12.0
407(20) 0.002457 384.3 12.0
416(20) 0.002404 384.4 12.0
410(20) 0.002439 384.4 12.1
402(20) 0.002488 384.5 12.2
410(20) 0.002439 384.6 12.2
429(21) 0.002331 384.7 12.3
410(20) 0.002439 384.8 12.4
391(20) 0.002558 384.9 12.5
423(21) 0.002364 385.0 12.7
399(20) 0.002506 385.0 12.8
415(20) 0.002410 385.1 12.9
413(20) 0.002421 385.2 13.1
440(21) 0.002273 385.3 13.3
405(20) 0.002469 385.4 13.5
388(20) 0.002577 385.5 13.7
450(21) 0.002222 385.5 13.9
395(20) 0.002532 385.6 14.1
403(20) 0.002481 385.7 14.4
420(20) 0.002381 385.8 14.7
484(22) 0.002066 385.9 15.0
434(21) 0.002304 386.0 15.3
412(20) 0.002427 386.1 15.6
436(21) 0.002294 386.1 16.0
474(22) 0.002110 386.2 16.4
450(21) 0.002222 386.3 16.8
483(22) 0.002070 386.4 17.2
454(21) 0.002203 386.5 17.6
441(21) 0.002268 386.6 18.1
457(21) 0.002188 386.7 18.6
502(22) 0.001992 386.7 19.1
464(22) 0.002155 386.8 19.6
427(21) 0.002342 386.9 20.2
477(22) 0.002096 387.0 20.7
438(21) 0.002283 387.1 21.3
431(21) 0.002320 387.2 21.9
447(21) 0.002237 387.2 22.6
453(21) 0.002208 387.3 23.2
406(20) 0.002463 387.4 23.9
467(22) 0.002141 387.5 24.6
428(21) 0.002336 387.6 25.3
434(21) 0.002304 387.7 26.0
415(20) 0.002410 387.8 26.7
471(22) 0.002123 387.8 27.4
453(21) 0.002208 387.9 28.2
462(21) 0.002164 388.0 28.9
445(21) 0.002247 388.1 29.7
412(20) 0.002427 388.2 30.4
412(20) 0.002427 388.3 31.1
449(21) 0.002227 388.4 31.8
413(20) 0.002421 388.4 32.5
408(20) 0.002451 388.5 33.2
432(21) 0.002315 388.6 33.9
416(20) 0.002404 388.7 34.5
420(20) 0.002381 388.8 35.1
424(21) 0.002358 388.9 35.7
430(21) 0.002326 389.0 36.2
427(21) 0.002342 389.0 36.7
401(20) 0.002494 389.1 37.1
415(20) 0.002410 389.2 37.5
384(20) 0.002604 389.3 37.9
415(20) 0.002410 389.4 38.2
448(21) 0.002232 389.5 38.4
392(20) 0.002551 389.5 38.6
430(21) 0.002326 389.6 38.8
407(20) 0.002457 389.7 38.9
393(20) 0.002545 389.8 39.0
444(21) 0.002252 389.9 39.1
397(20) 0.002519 390.0 39.2
459(21) 0.002179 390.1 39.2
413(20) 0.002421 390.1 39.2
420(20) 0.002381 390.2 39.2
409(20) 0.002445 390.3 39.2
451(21) 0.002217 390.4 39.3
402(20) 0.002488 390.5 39.3
427(21) 0.002342 390.6 39.4
415(20) 0.002410 390.7 39.4
445(21) 0.002247 390.7 39.6
436(21) 0.002294 390.8 39.7
416(20) 0.002404 390.9 39.9
399(20) 0.002506 391.0 40.2
408(20) 0.002451 391.1 40.5
436(21) 0.002294 391.2 40.9
437(21) 0.002288 391.2 41.3
421(21) 0.002375 391.3 41.9
440(21) 0.002273 391.4 42.5
397(20) 0.002519 391.5 43.2
406(20) 0.002463 391.6 44.0
440(21) 0.002273 391.7 45.0
426(21) 0.002347 391.8 46.0
411(20) 0.002433 391.8 47.2
433(21) 0.002309 391.9 48.5
456(21) 0.002193 392.0 50.0
408(20) 0.002451 392.1 51.6
435(21) 0.002299 392.2 53.3
419(20) 0.002387 392.3 55.2
447(21) 0.002237 392.4 57.2
443(21) 0.002257 392.4 59.4
461(21) 0.002169 392.5 61.8
446(21) 0.002242 392.6 64.2
465(22) 0.002151 392.7 66.8
451(21) 0.002217 392.8 69.6
479(22) 0.002088 392.9 72.4
459(21) 0.002179 392.9 75.4
463(22) 0.002160 393.0 78.4
449(21) 0.002227 393.1 81.5
463(22) 0.002160 393.2 84.6
490(22) 0.002041 393.3 87.8
457(21) 0.002188 393.4 90.9
506(22) 0.001976 393.5 93.9
488(22) 0.002049 393.5 96.8
485(22) 0.002062 393.6 99.5
459(21) 0.002179 393.7 102.1
482(22) 0.002075 393.8 104.3
471(22) 0.002123 393.9 106.2
495(22) 0.002020 394.0 107.8
465(22) 0.002151 394.1 108.9
525(23) 0.001905 394.1 109.6
512(23) 0.001953 394.2 109.8
504(22) 0.001984 394.3 109.6
489(22) 0.002045 394.4 108.9
517(23) 0.001934 394.5 107.8
497(22) 0.002012 394.6 106.3
509(23) 0.001965 394.7 104.4
539(23) 0.001855 394.7 102.3
473(22) 0.002114 394.8 99.9
496(22) 0.002016 394.9 97.3
496(22) 0.002016 395.0 94.6
461(21) 0.002169 395.1 91.8
472(22) 0.002119 395.2 89.0
475(22) 0.002105 395.2 86.1
489(22) 0.002045 395.3 83.3
495(22) 0.002020 395.4 80.6
468(22) 0.002137 395.5 77.9
490(22) 0.002041 395.6 75.4
489(22) 0.002045 395.7 73.1
494(22) 0.002024 395.8 71.1
472(22) 0.002119 395.8 69.3
484(22) 0.002066 395.9 67.8
480(22) 0.002083 396.0 66.7
467(22) 0.002141 396.1 66.1
469(22) 0.002132 396.2 65.9
483(22) 0.002070 396.3 66.3
484(22) 0.002066 396.4 67.3
453(21) 0.002208 396.4 68.8
463(22) 0.002160 396.5 70.9
494(22) 0.002024 396.6 73.4
497(22) 0.002012 396.7 76.3
475(22) 0.002105 396.8 79.4
476(22) 0.002101 396.9 82.4
499(22) 0.002004 396.9 85.0
465(22) 0.002151 397.0 86.6
505(22) 0.001980 397.1 87.0
460(21) 0.002174 397.2 85.8
477(22) 0.002096 397.3 83.2
451(21) 0.002217 397.4 79.3
420(20) 0.002381 397.5 74.6
467(22) 0.002141 397.5 69.4
455(21) 0.002198 397.6 64.2
478(22) 0.002092 397.7 59.1
469(22) 0.002132 397.8 54.3
460(21) 0.002174 397.9 50.0
456(21) 0.002193 398.0 46.1
431(21) 0.002320 398.1 42.7
420(20) 0.002381 398.1 39.8
412(20) 0.002427 398.2 37.3
424(21) 0.002358 398.3 35.2
403(20) 0.002481 398.4 33.4
435(21) 0.002299 398.5 31.9
447(21) 0.002237 398.6 30.6
415(20) 0.002410 398.7 29.5
435(21) 0.002299 398.7 28.6
391(20) 0.002558 398.8 27.8
475(22) 0.002105 398.9 27.0
444(21) 0.002252 399.0 26.4
434(21) 0.002304 399.1 25.8
441(21) 0.002268 399.2 25.2
434(21) 0.002304 399.2 24.7
445(21) 0.002247 399.3 24.2
427(21) 0.002342 399.4 23.8
425(21) 0.002353 399.5 23.4
415(20) 0.002410 399.6 23.0
411(20) 0.002433 399.7 22.7
467(22) 0.002141 399.8 22.4
406(20) 0.002463 399.8 22.1
408(20) 0.002451 399.9 21.8
404(20) 0.002475 400.0 21.6
392(20) 0.002551 400.1 21.4
440(21) 0.002273 400.2 21.2
426(21) 0.002347 400.3 21.0
398(20) 0.002513 400.4 20.9
428(21) 0.002336 400.4 20.8
425(21) 0.002353 400.5 20.7
434(21) 0.002304 400.6 20.6
406(20) 0.002463 400.6 20.5
397(20) 0.002519 400.5 20.5
404(20) 0.002475 400.5 20.5
414(20) 0.002415 400.4 20.5
432(21) 0.002315 400.3 20.6
430(21) 0.002326 400.3 20.6
436(21) 0.002294 400.2 20.7
406(20) 0.002463 400.1 20.9
428(21) 0.002336 400.1 21.0
454(21) 0.002203 400.0 21.2
437(21) 0.002288 399.9 21.4
395(20) 0.002532 399.9 21.6
415(20) 0.002410 399.8 21.9
413(20) 0.002421 399.7 22.3
403(20) 0.002481 399.6 22.6
423(21) 0.002364 399.6 23.0
421(21) 0.002375 399.5 23.5
411(20) 0.002433 399.4 24.1
460(21) 0.002174 399.4 24.7
417(20) 0.002398 399.3 25.4
429(21) 0.002331 399.2 26.2
438(21) 0.002283 399.2 27.1
439(21) 0.002278 399.1 28.1
456(21) 0.002193 399.0 29.2
422(21) 0.002370 398.9 30.4
424(21) 0.002358 398.9 31.7
427(21) 0.002342 398.8 33.2
461(21) 0.002169 398.7 34.7
474(22) 0.002110 398.7 36.4
475(22) 0.002105 398.6 38.1
466(22) 0.002146 398.5 39.9
455(21) 0.002198 398.5 41.8
458(21) 0.002183 398.4 43.7
468(22) 0.002137 398.3 45.6
499(22) 0.002004 398.3 47.5
472(22) 0.002119 398.2 49.2
479(22) 0.002088 398.1 50.7
481(22) 0.002079 398.0 52.0
471(22) 0.002123 398.0 52.9
459(21) 0.002179 397.9 53.4
458(21) 0.002183 397.8 53.6
467(22) 0.002141 397.8 53.5
439(21) 0.002278 397.7 53.1
492(22) 0.002033 397.6 52.5
458(21) 0.002183 397.6 51.7
444(21) 0.002252 397.5 50.9
494(22) 0.002024 397.4 50.0
510(23) 0.001961 397.3 49.2
471(22) 0.002123 397.3 48.4
478(22) 0.002092 397.2 47.7
498(22) 0.002008 397.1 47.1
480(22) 0.002083 397.1 46.6
478(22) 0.002092 397.0 46.1
477(22) 0.002096 396.9 45.8
463(22) 0.002160 396.9 45.6
502(22) 0.001992 396.8 45.5
477(22) 0.002096 396.7 45.4
506(22) 0.001976 396.7 45.5
522(23) 0.001916 396.6 45.6
535(23) 0.001869 396.5 45.7
518(23) 0.001931 396.4 45.9
471(22) 0.002123 396.4 46.1
511(23) 0.001957 396.3 46.3
485(22) 0.002062 396.2 46.6
489(22) 0.002045 396.2 46.8
490(22) 0.002041 396.1 47.1
477(22) 0.002096 396.0 47.4
468(22) 0.002137 396.0 47.6
509(23) 0.001965 395.9 47.8
482(22) 0.002075 395.8 48.0
523(23) 0.001912 395.7 48.2
509(23) 0.001965 395.7 48.4
452(21) 0.002212 395.6 48.6
485(22) 0.002062 395.5 48.7
492(22) 0.002033 395.5 48.8
486(22) 0.002058 395.4 48.9
482(22) 0.002075 395.3 48.9
497(22) 0.002012 395.3 48.9
472(22) 0.002119 395.2 48.9
469(22) 0.002132 395.1 48.8
494(22) 0.002024 395.1 48.8
498(22) 0.002008 395.0 48.7
479(22) 0.002088 394.9 48.6
511(23) 0.001957 394.8 48.4
467(22) 0.002141 394.8 48.2
469(22) 0.002132 394.7 48.0
513(23) 0.001949 394.6 47.8
516(23) 0.001938 394.6 47.6
485(22) 0.002062 394.5 47.3
558(24) 0.001792 394.4 47.0
492(22) 0.002033 394.4 46.7
528(23) 0.001894 394.3 46.4
478(22) 0.002092 394.2 46.0
433(21) 0.002309 394.1 45.7
465(22) 0.002151 394.1 45.4
486(22) 0.002058 394.0 45.0
476(22) 0.002101 393.9 44.6
488(22) 0.002049 393.9 44.2
502(22) 0.001992 393.8 43.8
504(22) 0.001984 393.7 43.4
471(22) 0.002123 393.7 43.0
478(22) 0.002092 393.6 42.6
471(22) 0.002123 393.5 42.1
508(23) 0.001968 393.5 41.7
492(22) 0.002033 393.4 41.3
467(22) 0.002141 393.3 40.8
463(22) 0.002160 393.2 40.4
509(23) 0.001965 393.2 39.9
489(22) 0.002045 393.1 39.5
476(22) 0.002101 393.0 39.1
482(22) 0.002075 393.0 38.6
477(22) 0.002096 392.9 38.2
455(21) 0.002198 392.8 37.7
496(22) 0.002016 392.8 37.3
479(22) 0.002088 392.7 36.8
474(22) 0.002110 392.6 36.3
470(22) 0.002128 392.5 35.9
512(23) 0.001953 392.5 35.4
468(22) 0.002137 392.4 35.0
479(22) 0.002088 392.3 34.5
493(22) 0.002028 392.3 34.1
464(22) 0.002155 392.2 33.6
492(22) 0.002033 392.1 33.2
487(22) 0.002053 392.1 32.7
504(22) 0.001984 392.0 32.3
503(22) 0.001988 391.9 31.8
486(22) 0.002058 391.9 31.4
491(22) 0.002037 391.8 30.9
446(21) 0.002242 391.7 30.5
434(21) 0.002304 391.6 30.1
457(21) 0.002188 391.6 29.6
446(21) 0.002242 391.5 29.2
456(21) 0.002193 391.4 28.8
517(23) 0.001934 391.4 28.4
491(22) 0.002037 391.3 28.0
485(22) 0.002062 391.2 27.6
473(22) 0.002114 391.2 27.2
484(22) 0.002066 391.1 26.9
534(23) 0.001873 391.0 26.5
459(21) 0.002179 390.9 26.2
490(22) 0.002041 390.9 25.8
512(23) 0.001953 390.8 25.5
507(23) 0.001972 390.7 25.2
483(22) 0.002070 390.7 24.9
480(22) 0.002083 390.6 24.6
464(22) 0.002155 390.5 24.4
494(22) 0.002024 390.5 24.1
528(23) 0.001894 390.4 23.9
476(22) 0.002101 390.3 23.7
506(22) 0.001976 390.3 23.5
502(22) 0.001992 390.2 23.3
521(23) 0.001919 390.1 23.1
495(22) 0.002020 390.0 22.9
547(23) 0.001828 390.0 22.8
491(22) 0.002037 389.9 22.6
517(23) 0.001934 389.8 22.5
537(23) 0.001862 389.8 22.4
513(23) 0.001949 389.7 22.3
510(23) 0.001961 389.6 22.3
543(23) 0.001842 389.6 22.2
550(23) 0.001818 389.5 22.2
549(23) 0.001822 389.4 22.1
540(23) 0.001852 389.3 22.1
530(23) 0.001887 389.3 22.1
550(23) 0.001818 389.2 22.2
552(23) 0.001812 389.1 22.2
548(23) 0.001825 389.1 22.2
602(25) 0.001661 389.0 22.3
552(23) 0.001812 388.9 22.4
547(23) 0.001828 388.9 22.5
565(24) 0.001770 388.8 22.6
572(24) 0.001748 388.7 22.7
604(25) 0.001656 388.7 22.8
603(25) 0.0 0.0 .
606(25) 0.0 0.0 .
633(25) 0.0 0.0 .
624(25) 0.0 0.0 .
620(25) 0.0 0.0 .
703(27) 0.0 0.0 .
671(26) 0.0 0.0 .
660(26) 0.0 0.0 .
707(27) 0.0 0.0 .
658(26) 0.0 0.0 .
683(26) 0.0 0.0 .
703(27) 0.0 0.0 .
678(26) 0.0 0.0 .
744(27) 0.0 0.0 .
734(27) 0.0 0.0 .
758(28) 0.0 0.0 .
728(27) 0.0 0.0 .
799(28) 0.0 0.0 .
774(28) 0.0 0.0 .
812(28) 0.0 0.0 .
840(29) 0.0 0.0 .
892(30) 0.0 0.0 .
840(29) 0.0 0.0 .
969(31) 0.0 0.0 .
1026(32) 0.0 0.0 .
1038(32) 0.0 0.0 .
1092(33) 0.0 0.0 .
1165(34) 0.0 0.0 .
1230(35) 0.0 0.0 .
1309(36) 0.0 0. .
1346(37) 0.0 0. .
1428(38) 0.0 0. .
1552(39) 0.0 0. .
1660(41) 0.0 0. .
1805(42) 0.0 0. .
1955(44) 0.0 0. .
2167(47) 0.0 0. .
2423(49) 0.0 0. .
2729(52) 0.0 0. .
3099(56) 0.0 0. .
3452(59) 0.0 0. .
4018(63) 0.0 0. .
4686(68) 0.0 0. .
5371(73) 0.0 0. .
6574(81) 0.0 0. .
8105(90) 0.0 0. .
9970(100) 0.0 0. .
12390(110) 0.0 0. .
15810(130) 0.0 0. .
20560(140) 0.0 0. .
27660(170) 0.0 0. .
36910(190) 0.0 0. .
48590(220) 0.0 0. .
61800(250) 0.0 0. .
72500(270) 0.0 0. .
77450(280) 0.0 0. .
72710(270) 0.0 0. .
62340(250) 0.0 0. .
48650(220) 0.0 0. .
36270(190) 0.0 0. .
27300(170) 0.0 0. .
20140(140) 0.0 0. .
15570(130) 0.0 0. .
12270(110) 0.0 0. .
9658(98) 0.0 0. .
7756(88) 0.0 0. .
6353(80) 0.0 0. .
5396(73) 0.0 0. .
4563(68) 0.0 0. .
3868(62) 0.0 0. .
3409(58) 0.0 0. .
2930(54) 0.0 0. .
2650(51) 0.0 0. .
2317(48) 0.0 0. .
2169(47) 0.0 0. .
2007(45) 0.0 0. .
1818(43) 0.0 0. .
1740(42) 0.0 0. .
1464(38) 0.0 0. .
1480(38) 0.0 0. .
1394(37) 0.0 0. .
1338(37) 0.0 0. .
1182(34) 0.0 0.0 .
1182(34) 0.0 0.0 .
1110(33) 0.0 0.0 .
1042(32) 0.0 0.0 .
1010(32) 0.0 0.0 .
987(31) 0.0 0.0 .
992(31) 0.0 0.0 .
903(30) 0.0 0.0 .
904(30) 0.0 0.0 .
904(30) 0.0 0.0 .
837(29) 0.0 0.0 .
823(29) 0.0 0.0 .
833(29) 0.0 0.0 .
800(28) 0.0 0.0 .
821(29) 0.0 0.0 .
782(28) 0.0 0.0 .
773(28) 0.0 0.0 .
728(27) 0.0 0.0 .
731(27) 0.0 0.0 .
714(27) 0.0 0.0 .
741(27) 0.0 0.0 .
694(26) 0.0 0.0 .
695(26) 0.0 0.0 .
684(26) 0.0 0.0 .
725(27) 0.0 0.0 .
737(27) 0.0 0.0 .
662(26) 0.0 0.0 .
646(25) 0.0 0.0 .
649(25) 0.0 0.0 .
680(26) 0.0 0.0 .
670(26) 0.0 0.0 .
661(26) 0.0 0.0 .
630(25) 0.0 0.0 .
640(25) 0.0 0.0 .
652(26) 0.0 0.0 .
643(25) 0.0 0.0 .
615(25) 0.0 0.0 .
589(24) 0.0 0.0 .
642(25) 0.0 0.0 .
607(25) 0.0 0.0 .
594(24) 0.0 0.0 .
568(24) 0.0 0.0 .
569(24) 0.0 0.0 .
598(24) 0.0 0.0 .
590(24) 0.0 0.0 .
572(24) 0.0 0.0 .
565(24) 0.0 0.0 .
564(24) 0.0 0.0 .
573(24) 0.0 0.0 .
574(24) 0.0 0.0 .
564(24) 0.0 0.0 .
540(23) 0.0 0.0 .
536(23) 0.0 0.0 .
554(24) 0.0 0.0 .
501(22) 0.0 0.0 .
533(23) 0.0 0.0 .
540(23) 0.0 0.0 .
514(23) 0.0 0.0 .
543(23) 0.0 0.0 .
531(23) 0.001883 378.8 51.9
517(23) 0.001934 378.7 50.9
515(23) 0.001942 378.6 50.1
554(24) 0.001805 378.6 49.3
526(23) 0.001901 378.5 48.5
573(24) 0.001745 378.4 47.8
494(22) 0.002024 378.4 47.2
528(23) 0.001894 378.3 46.6
519(23) 0.001927 378.2 46.1
526(23) 0.001901 378.1 45.6
520(23) 0.001923 378.1 45.2
496(22) 0.002016 378.0 44.8
523(23) 0.001912 377.9 44.4
505(22) 0.001980 377.9 44.1
479(22) 0.002088 377.8 43.8
502(22) 0.001992 377.7 43.5
470(22) 0.002128 377.7 43.2
507(23) 0.001972 377.6 43.0
507(23) 0.001972 377.5 42.8
500(22) 0.002000 377.5 42.7
498(22) 0.002008 377.4 42.5
486(22) 0.002058 377.3 42.4
509(23) 0.001965 377.2 42.2
500(22) 0.002000 377.2 42.1
470(22) 0.002128 377.1 42.0
468(22) 0.002137 377.0 41.8
536(23) 0.001866 377.0 41.7
434(21) 0.002304 376.9 41.6
484(22) 0.002066 376.8 41.4
494(22) 0.002024 376.8 41.3
475(22) 0.002105 376.7 41.1
475(22) 0.002105 376.6 40.9
473(22) 0.002114 376.5 40.7
505(22) 0.001980 376.5 40.4
460(21) 0.002174 376.4 40.2
440(21) 0.002273 376.3 40.0
489(22) 0.002045 376.3 39.7
452(21) 0.002212 376.2 39.5
462(21) 0.002164 376.1 39.2
498(22) 0.002008 376.1 39.0
484(22) 0.002066 376.0 38.8
447(21) 0.002237 375.9 38.7
436(21) 0.002294 375.9 38.6
461(21) 0.002169 375.8 38.5
513(23) 0.001949 375.7 38.6
479(22) 0.002088 375.6 38.7
486(22) 0.002058 375.6 39.0
460(21) 0.002174 375.5 39.4
466(22) 0.002146 375.4 40.0
473(22) 0.002114 375.4 40.9
442(21) 0.002262 375.3 42.0
498(22) 0.002008 375.2 43.4
470(22) 0.002128 375.2 45.3
470(22) 0.002128 375.1 47.5
506(22) 0.001976 375.0 50.2
477(22) 0.002096 374.9 53.4
467(22) 0.002141 374.9 57.1
505(22) 0.001980 374.8 61.4
466(22) 0.002146 374.7 66.2
522(23) 0.001916 374.7 71.5
505(22) 0.001980 374.6 77.1
488(22) 0.002049 374.5 83.1
522(23) 0.001916 374.5 89.2
528(23) 0.001894 374.4 95.2
532(23) 0.001880 374.3 100.7
558(24) 0.001792 374.3 105.4
524(23) 0.001908 374.2 109.0
524(23) 0.001908 374.1 111.1
533(23) 0.001876 374.0 111.5
556(24) 0.001799 374.0 110.0
490(22) 0.002041 373.9 106.9
493(22) 0.002028 373.8 102.4
495(22) 0.002020 373.8 96.9
470(22) 0.002128 373.7 90.8
488(22) 0.002049 373.6 84.5
478(22) 0.002092 373.6 78.1
480(22) 0.002083 373.5 71.9
441(21) 0.002268 373.4 66.1
433(21) 0.002309 373.3 60.6
467(22) 0.002141 373.3 55.8
482(22) 0.002075 373.2 51.4
464(22) 0.002155 373.1 47.6
448(21) 0.002232 373.1 44.3
434(21) 0.002304 373.0 41.5
456(21) 0.002193 372.9 39.3
463(22) 0.002160 372.9 37.4
458(21) 0.002183 372.8 36.0
430(21) 0.002326 372.7 35.0
403(20) 0.002481 372.7 34.4
426(21) 0.002347 372.6 34.0
436(21) 0.002294 372.5 34.0
430(21) 0.002326 372.4 34.3
426(21) 0.002347 372.4 34.9
408(20) 0.002451 372.3 35.8
474(22) 0.002110 372.2 36.9
440(21) 0.002273 372.2 38.2
457(21) 0.002188 372.1 39.7
474(22) 0.002110 372.0 41.3
482(22) 0.002075 372.0 43.1
434(21) 0.002304 371.9 44.7
448(21) 0.002232 371.8 46.2
429(21) 0.002331 371.7 47.4
479(22) 0.002088 371.7 48.2
435(21) 0.002299 371.6 48.5
442(21) 0.002262 371.5 48.2
431(21) 0.002320 371.5 47.4
430(21) 0.002326 371.4 46.1
437(21) 0.002288 371.3 44.5
426(21) 0.002347 371.3 42.8
451(21) 0.002217 371.2 40.9
486(22) 0.002058 371.1 39.1
418(20) 0.002392 371.1 37.3
441(21) 0.002268 371.0 35.6
434(21) 0.002304 370.9 34.1
426(21) 0.002347 370.8 32.6
456(21) 0.002193 370.8 31.4
423(21) 0.002364 370.7 30.2
417(20) 0.002398 370.6 29.2
411(20) 0.002433 370.6 28.3
420(20) 0.002381 370.5 27.6
409(20) 0.002445 370.4 26.9
438(21) 0.002283 370.4 26.3
420(20) 0.002381 370.3 25.8
418(20) 0.002392 370.2 25.4
421(21) 0.002375 370.1 25.0
434(21) 0.002304 370.1 24.6
407(20) 0.002457 370.0 24.3
420(20) 0.002381 369.9 24.1
417(20) 0.002398 369.9 23.8
450(21) 0.002222 369.8 23.6
460(21) 0.002174 369.7 23.4
436(21) 0.002294 369.7 23.2
426(21) 0.002347 369.6 23.0
395(20) 0.002532 369.5 22.8
412(20) 0.002427 369.5 22.6
460(21) 0.002174 369.4 22.4
446(21) 0.002242 369.3 22.3
383(20) 0.002611 369.2 22.1
409(20) 0.002445 369.2 21.9
387(20) 0.002584 369.1 21.7
395(20) 0.002532 369.0 21.5
388(20) 0.002577 369.0 21.4
401(20) 0.002494 368.9 21.2
426(21) 0.002347 368.8 21.0
420(20) 0.002381 368.8 20.8
426(21) 0.002347 368.7 20.6
412(20) 0.002427 368.6 20.4
393(20) 0.002545 368.5 20.1
331(18) 0.003021 368.5 19.9
402(20) 0.002488 368.4 19.7
365(19) 0.002740 368.3 19.5
408(20) 0.002451 368.3 19.3
397(20) 0.002519 368.2 19.1
389(20) 0.002571 368.1 19.0
381(20) 0.002625 368.1 18.8
370(19) 0.002703 368.0 18.6
393(20) 0.002545 367.9 18.5
370(19) 0.002703 367.9 18.4
365(19) 0.002740 367.8 18.2
399(20) 0.002506 367.7 18.1
408(20) 0.002451 367.6 18.0
374(19) 0.002674 367.6 18.0
376(19) 0.002660 367.5 17.9
395(20) 0.002532 367.4 17.8
400(20) 0.002500 367.4 17.8
418(20) 0.002392 367.3 17.8
412(20) 0.002427 367.2 17.7
386(20) 0.002591 367.2 17.7
359(19) 0.002786 367.1 17.7
384(20) 0.002604 367.0 17.7
380(19) 0.002632 366.9 17.7
430(21) 0.002326 366.9 17.7
391(20) 0.002558 366.8 17.7
414(20) 0.002415 366.7 17.7
364(19) 0.002747 366.7 17.6
400(20) 0.002500 366.6 17.6
391(20) 0.002558 366.5 17.6
386(20) 0.002591 366.5 17.5
366(19) 0.002732 366.4 17.4
394(20) 0.002538 366.3 17.4
368(19) 0.002717 366.3 17.3
375(19) 0.002667 366.2 17.2
400(20) 0.002500 366.1 17.1
378(19) 0.002646 366.0 17.0
400(20) 0.002500 366.0 16.9
414(20) 0.002415 365.9 16.8
383(20) 0.002611 365.8 16.7
400(20) 0.002500 365.8 16.6
345(19) 0.002899 365.7 16.6
375(19) 0.002667 365.6 16.5
392(20) 0.002551 365.6 16.4
427(21) 0.002342 365.5 16.3
386(20) 0.002591 365.5 16.3
350(19) 0.002857 365.6 16.2
375(19) 0.002667 365.6 16.2
387(20) 0.002584 365.6 16.2
392(20) 0.002551 365.6 16.2
367(19) 0.002725 365.6 16.1
343(19) 0.002915 365.6 16.1
380(19) 0.002632 365.6 16.1
387(20) 0.002584 365.6 16.1
397(20) 0.002519 365.7 16.1
399(20) 0.002506 365.7 16.2
366(19) 0.002732 365.7 16.2
402(20) 0.002488 365.7 16.2
406(20) 0.002463 365.7 16.3
411(20) 0.002433 365.7 16.3
372(19) 0.002688 365.7 16.3
364(19) 0.002747 365.7 16.4
392(20) 0.002551 365.8 16.4
359(19) 0.002786 365.8 16.5
379(19) 0.002639 365.8 16.5
393(20) 0.002545 365.8 16.6
371(19) 0.002695 365.8 16.7
372(19) 0.002688 365.8 16.8
394(20) 0.002538 365.8 16.8
419(20) 0.002387 365.8 16.9
380(19) 0.002632 365.9 17.0
379(19) 0.002639 365.9 17.1
388(20) 0.002577 365.9 17.2
381(20) 0.002625 365.9 17.4
375(19) 0.002667 365.9 17.5
407(20) 0.002457 365.9 17.6
388(20) 0.002577 365.9 17.8
388(20) 0.002577 365.9 18.0
399(20) 0.002506 366.0 18.2
423(21) 0.002364 366.0 18.4
391(20) 0.002558 366.0 18.6
392(20) 0.002551 366.0 18.8
398(20) 0.002513 366.0 19.1
395(20) 0.002532 366.0 19.3
397(20) 0.002519 366.0 19.6
398(20) 0.002513 366.0 20.0
398(20) 0.002513 366.1 20.3
416(20) 0.002404 366.1 20.8
375(19) 0.002667 366.1 21.2
371(19) 0.002695 366.1 21.8
363(19) 0.002755 366.1 22.4
410(20) 0.002439 366.1 23.1
407(20) 0.002457 366.1 23.9
396(20) 0.002525 366.1 24.8
386(20) 0.002591 366.2 26.0
413(20) 0.002421 366.2 27.3
379(19) 0.002639 366.2 28.8
397(20) 0.002519 366.2 30.6
381(20) 0.002625 366.2 32.7
402(20) 0.002488 366.2 35.1
394(20) 0.002538 366.2 37.9
439(21) 0.002278 366.2 41.1
440(21) 0.002273 366.3 44.7
419(20) 0.002387 366.3 48.8
453(21) 0.002208 366.3 53.3
441(21) 0.002268 366.3 58.2
470(22) 0.002128 366.3 63.5
469(22) 0.002132 366.3 69.2
421(21) 0.002375 366.3 75.0
456(21) 0.002193 366.3 81.0
502(22) 0.001992 366.4 86.9
498(22) 0.002008 366.4 92.5
511(23) 0.001957 366.4 97.5
523(23) 0.001912 366.4 101.7
509(23) 0.001965 366.4 104.8
536(23) 0.001866 366.4 106.6
539(23) 0.001855 366.4 107.0
500(22) 0.002000 366.4 106.1
540(23) 0.001852 366.5 104.0
477(22) 0.002096 366.5 100.9
445(21) 0.002247 366.5 97.2
460(21) 0.002174 366.5 93.1
438(21) 0.002283 366.5 88.8
459(21) 0.002179 366.5 84.7
461(21) 0.002169 366.5 80.7
448(21) 0.002232 366.5 77.1
468(22) 0.002137 366.6 73.8
462(21) 0.002164 366.6 70.9
445(21) 0.002247 366.6 68.4
440(21) 0.002273 366.6 66.3
466(22) 0.002146 366.6 64.5
451(21) 0.002217 366.6 62.9
458(21) 0.002183 366.6 61.5
443(21) 0.002257 366.6 60.2
443(21) 0.002257 366.7 59.0
474(22) 0.002110 366.7 57.8
438(21) 0.002283 366.7 56.6
431(21) 0.002320 366.7 55.5
445(21) 0.002247 366.7 54.5
399(20) 0.002506 366.7 53.5
427(21) 0.002342 366.7 52.6
441(21) 0.002268 366.7 51.8
403(20) 0.002481 366.8 51.2
431(21) 0.002320 366.8 50.7
397(20) 0.002519 366.8 50.3
437(21) 0.002288 366.8 50.1
433(21) 0.002309 366.8 50.1
427(21) 0.002342 366.8 50.3
439(21) 0.002278 366.8 50.6
420(20) 0.002381 366.8 51.1
459(21) 0.002179 366.9 51.8
434(21) 0.002304 366.9 52.6
492(22) 0.002033 366.9 53.6
473(22) 0.002114 366.9 54.7
451(21) 0.002217 366.9 55.9
472(22) 0.002119 366.9 57.3
444(21) 0.002252 366.9 58.8
477(22) 0.002096 366.9 60.3
478(22) 0.002092 367.0 61.9
464(22) 0.002155 367.0 63.6
505(22) 0.001980 367.0 65.3
498(22) 0.002008 367.0 67.0
469(22) 0.002132 367.0 68.7
517(23) 0.001934 367.0 70.4
500(22) 0.002000 367.0 71.9
524(23) 0.001908 367.0 73.4
506(22) 0.001976 367.1 74.8
519(23) 0.001927 367.1 76.0
484(22) 0.002066 367.1 77.0
501(22) 0.001996 367.1 77.9
492(22) 0.002033 367.1 78.6
508(23) 0.001968 367.1 79.1
509(23) 0.001965 367.1 79.4
498(22) 0.002008 367.1 79.7
540(23) 0.001852 367.2 79.8
471(22) 0.002123 367.2 79.8
478(22) 0.002092 367.2 79.8
487(22) 0.002053 367.2 79.8
523(23) 0.001912 367.2 79.7
491(22) 0.002037 367.2 79.7
513(23) 0.001949 367.2 79.8
507(23) 0.001972 367.2 79.8
535(23) 0.001869 367.3 80.0
480(22) 0.002083 367.3 80.2
468(22) 0.002137 367.3 80.5
518(23) 0.001931 367.3 80.9
483(22) 0.002070 367.3 81.4
513(23) 0.001949 367.3 82.0
514(23) 0.001946 367.3 82.6
503(22) 0.001988 367.3 83.3
485(22) 0.002062 367.4 84.0
531(23) 0.001883 367.4 84.8
534(23) 0.0 0.0 .
542(23) 0.0 0.0 .
538(23) 0.0 0.0 .
583(24) 0.0 0.0 .
598(24) 0.0 0.0 .
587(24) 0.0 0.0 .
539(23) 0.0 0.0 .
553(24) 0.0 0.0 .
532(23) 0.0 0.0 .
587(24) 0.0 0.0 .
583(24) 0.0 0.0 .
604(25) 0.0 0.0 .
612(25) 0.0 0.0 .
610(25) 0.0 0.0 .
674(26) 0.0 0.0 .
634(25) 0.0 0.0 .
711(27) 0.0 0.0 .
701(26) 0.0 0.0 .
738(27) 0.0 0.0 .
769(28) 0.0 0.0 .
801(28) 0.0 0.0 .
895(30) 0.0 0.0 .
946(31) 0.0 0.0 .
1031(32) 0.0 0.0 .
1239(35) 0.0 0. .
1387(37) 0.0 0. .
1634(40) 0.0 0. .
1739(42) 0.0 0. .
2249(47) 0.0 0. .
2740(52) 0.0 0. .
3670(61) 0.0 0. .
4600(68) 0.0 0. .
5921(77) 0.0 0. .
7419(86) 0.0 0. .
8657(93) 0.0 0. .
9049(95) 0.0 0. .
8670(93) 0.0 0. .
7613(87) 0.0 0. .
6110(78) 0.0 0. .
4779(69) 0.0 0. .
3616(60) 0.0 0. .
2935(54) 0.0 0. .
2367(49) 0.0 0. .
1855(43) 0.0 0. .
1553(39) 0.0 0. .
1261(36) 0.0 0. .
1142(34) 0.0 0.0 .
1016(32) 0.0 0.0 .
920(30) 0.0 0.0 .
814(29) 0.0 0.0 .
803(28) 0.0 0.0 .
713(27) 0.0 0.0 .
662(26) 0.0 0.0 .
644(25) 0.0 0.0 .
620(25) 0.0 0.0 .
566(24) 0.0 0.0 .
509(23) 0.0 0.0 .
546(23) 0.0 0.0 .
520(23) 0.0 0.0 .
510(23) 0.0 0.0 .
469(22) 0.0 0.0 .
467(22) 0.0 0.0 .
450(21) 0.0 0.0 .
459(21) 0.0 0.0 .
455(21) 0.0 0.0 .
448(21) 0.0 0.0 .
474(22) 0.0 0.0 .
424(21) 0.0 0.0 .
431(21) 0.0 0.0 .
425(21) 0.0 0.0 .
437(21) 0.0 0.0 .
426(21) 0.0 0.0 .
453(21) 0.002208 368.3 27.8
451(21) 0.002217 368.3 27.9
408(20) 0.002451 368.3 28.1
408(20) 0.002451 368.3 28.3
423(21) 0.002364 368.3 28.5
409(20) 0.002445 368.3 28.8
426(21) 0.002347 368.4 29.0
409(20) 0.002445 368.4 29.3
436(21) 0.002294 368.4 29.6
428(21) 0.002336 368.4 29.9
411(20) 0.002433 368.4 30.2
422(21) 0.002370 368.4 30.5
433(21) 0.002309 368.4 30.8
387(20) 0.002584 368.4 31.1
398(20) 0.002513 368.5 31.4
413(20) 0.002421 368.5 31.7
395(20) 0.002532 368.5 32.1
403(20) 0.002481 368.5 32.4
417(20) 0.002398 368.5 32.7
409(20) 0.002445 368.5 33.1
425(21) 0.002353 368.5 33.5
387(20) 0.002584 368.5 33.8
386(20) 0.002591 368.6 34.2
362(19) 0.002762 368.6 34.6
419(20) 0.002387 368.6 35.0
412(20) 0.002427 368.6 35.4
394(20) 0.002538 368.6 35.9
387(20) 0.002584 368.6 36.3
388(20) 0.002577 368.6 36.7
378(19) 0.002646 368.6 37.2
388(20) 0.002577 368.7 37.6
398(20) 0.002513 368.7 38.1
381(20) 0.002625 368.7 38.5
375(19) 0.002667 368.7 38.9
393(20) 0.002545 368.7 39.3
380(19) 0.002632 368.7 39.6
389(20) 0.002571 368.7 40.0
391(20) 0.002558 368.7 40.2
392(20) 0.002551 368.8 40.5
413(20) 0.002421 368.8 40.6
421(21) 0.002375 368.8 40.8
376(19) 0.002660 368.8 40.9
368(19) 0.002717 368.8 40.9
390(20) 0.002564 368.8 40.9
414(20) 0.002415 368.8 40.8
400(20) 0.002500 368.8 40.8
399(20) 0.002506 368.9 40.7
389(20) 0.002571 368.9 40.6
396(20) 0.002525 368.9 40.4
386(20) 0.002591 368.9 40.3
391(20) 0.002558 368.9 40.2
368(19) 0.002717 368.9 40.1
416(20) 0.002404 368.9 40.0
393(20) 0.002545 368.9 39.9
387(20) 0.002584 369.0 39.9
391(20) 0.002558 369.0 39.9
388(20) 0.002577 369.0 39.9
392(20) 0.002551 369.0 40.0
409(20) 0.002445 369.0 40.2
391(20) 0.002558 369.0 40.4
383(20) 0.002611 368.9 40.7
386(20) 0.002591 368.7 41.0
378(19) 0.002646 368.5 41.4
356(19) 0.002809 368.3 41.8
360(19) 0.002778 368.1 42.4
395(20) 0.002532 367.9 43.0
395(20) 0.002532 367.7 43.6
401(20) 0.002494 367.5 44.4
390(20) 0.002564 367.3 45.2
381(20) 0.002625 367.1 46.1
402(20) 0.002488 366.9 47.1
383(20) 0.002611 366.6 48.1
423(21) 0.002364 366.4 49.3
378(19) 0.002646 366.2 50.5
365(19) 0.002740 366.0 51.7
410(20) 0.002439 365.8 53.1
379(19) 0.002639 365.6 54.5
397(20) 0.002519 365.4 55.9
361(19) 0.002770 365.2 57.5
399(20) 0.002506 365.0 59.0
411(20) 0.002433 364.8 60.6
407(20) 0.002457 364.6 62.3
391(20) 0.002558 364.4 64.0
405(20) 0.002469 364.2 65.7
421(21) 0.002375 364.0 67.4
429(21) 0.002331 363.7 69.1
424(21) 0.002358 363.5 70.8
395(20) 0.002532 363.3 72.5
403(20) 0.002481 363.1 74.1
413(20) 0.002421 362.9 75.6
393(20) 0.002545 362.7 77.1
390(20) 0.002564 362.5 78.5
400(20) 0.002500 362.3 79.8
415(20) 0.002410 362.1 80.9
406(20) 0.002463 361.9 81.9
410(20) 0.002439 361.7 82.7
375(19) 0.002667 361.5 83.4
459(21) 0.002179 361.3 83.8
432(21) 0.002315 361.1 84.1
433(21) 0.002309 360.8 84.2
434(21) 0.002304 360.6 84.0
411(20) 0.002433 360.4 83.7
409(20) 0.002445 360.2 83.2
398(20) 0.002513 360.0 82.5
420(20) 0.002381 359.8 81.6
416(20) 0.002404 359.6 80.6
432(21) 0.002315 359.4 79.4
432(21) 0.002315 359.2 78.2
428(21) 0.002336 359.0 76.8
429(21) 0.002331 358.8 75.3
380(19) 0.002632 358.6 73.8
432(21) 0.002315 358.4 72.2
394(20) 0.002538 358.2 70.6
409(20) 0.002445 357.9 69.0
415(20) 0.002410 357.7 67.4
386(20) 0.002591 357.5 65.8
416(20) 0.002404 357.3 64.2
418(20) 0.002392 357.1 62.7
400(20) 0.002500 356.9 61.2
407(20) 0.002457 356.7 59.7
362(19) 0.002762 356.5 58.3
368(19) 0.002717 356.3 57.0
401(20) 0.002494 356.1 55.7
392(20) 0.002551 355.9 54.5
402(20) 0.002488 355.7 53.4
370(19) 0.002703 355.5 52.4
376(19) 0.002660 355.3 51.5
360(19) 0.002778 355.0 50.6
401(20) 0.002494 354.8 49.9
345(19) 0.002899 354.6 49.2
395(20) 0.002532 354.4 48.6
388(20) 0.002577 354.2 48.1
370(19) 0.002703 354.0 47.7
381(20) 0.002625 353.8 47.4
398(20) 0.002513 353.6 47.1
387(20) 0.002584 353.4 46.9
353(19) 0.002833 353.2 46.9
351(19) 0.002849 353.0 46.8
370(19) 0.002703 352.8 46.9
386(20) 0.002591 352.6 47.0
377(19) 0.002653 352.4 47.2
397(20) 0.002519 352.1 47.5
380(19) 0.002632 351.9 47.8
377(19) 0.002653 351.7 48.1
378(19) 0.002646 351.5 48.5
394(20) 0.002538 351.3 49.0
375(19) 0.002667 351.1 49.4
411(20) 0.002433 350.9 49.9
374(19) 0.002674 350.7 50.5
404(20) 0.002475 350.5 51.0
435(21) 0.002299 350.3 51.6
381(20) 0.002625 350.1 52.1
387(20) 0.002584 349.9 52.7
372(19) 0.002688 349.7 53.2
368(19) 0.002717 349.5 53.7
380(19) 0.002632 349.2 54.2
373(19) 0.002681 349.0 54.7
405(20) 0.002469 348.8 55.1
384(20) 0.002604 348.6 55.5
398(20) 0.002513 348.4 55.8
430(21) 0.002326 348.2 56.1
383(20) 0.002611 348.0 56.4
402(20) 0.002488 347.8 56.5
379(19) 0.002639 347.6 56.7
394(20) 0.002538 347.4 56.7
403(20) 0.002481 347.2 56.7
359(19) 0.002786 347.0 56.7
394(20) 0.002538 346.8 56.5
351(19) 0.002849 346.6 56.4
399(20) 0.002506 346.4 56.2
369(19) 0.002710 346.1 56.0
411(20) 0.002433 345.9 55.7
393(20) 0.002545 345.7 55.4
380(19) 0.002632 345.5 55.2
425(21) 0.002353 345.3 54.9
395(20) 0.002532 345.1 54.7
389(20) 0.002571 344.9 54.5
382(20) 0.002618 344.7 54.4
373(19) 0.002681 344.5 54.4
368(19) 0.002717 344.3 54.5
436(21) 0.002294 344.1 54.8
390(20) 0.002564 343.9 55.2
404(20) 0.002475 343.7 55.8
392(20) 0.002551 343.5 56.7
388(20) 0.002577 343.2 57.9
362(19) 0.002762 343.0 59.4
392(20) 0.002551 342.8 61.3
415(20) 0.002410 342.6 63.5
429(21) 0.002331 342.4 66.3
440(21) 0.002273 342.2 69.5
426(21) 0.002347 342.0 73.3
421(21) 0.002375 341.8 77.6
432(21) 0.002315 341.6 82.4
455(21) 0.002198 341.4 87.8
406(20) 0.002463 341.2 93.8
399(20) 0.002506 341.0 100.2
443(21) 0.002257 340.8 107.1
438(21) 0.002283 340.6 114.3
459(21) 0.002179 340.3 121.7
515(23) 0.001942 340.1 129.0
482(22) 0.002075 339.9 136.2
522(23) 0.001916 339.7 142.9
463(22) 0.002160 339.5 148.8
512(23) 0.001953 339.3 153.6
501(22) 0.001996 339.1 157.1
445(21) 0.002247 338.9 159.0
481(22) 0.002079 338.7 159.2
462(21) 0.002164 338.5 157.7
494(22) 0.002024 338.3 154.5
417(20) 0.002398 338.1 149.8
463(22) 0.002160 337.9 143.8
466(22) 0.002146 337.7 136.7
448(21) 0.002232 337.4 128.9
443(21) 0.002257 337.2 120.6
444(21) 0.002252 337.0 112.3
424(21) 0.002358 336.8 104.0
417(20) 0.002398 336.6 95.9
382(20) 0.002618 336.4 88.2
404(20) 0.002475 336.2 81.0
408(20) 0.002451 336.0 74.3
400(20) 0.002500 335.8 68.2
372(19) 0.002688 335.6 62.7
374(19) 0.002674 335.4 57.7
422(21) 0.002370 335.2 53.2
362(19) 0.002762 335.0 49.3
370(19) 0.002703 334.8 45.8
353(19) 0.002833 334.5 42.8
373(19) 0.002681 334.3 40.1
339(18) 0.002950 334.1 37.8
366(19) 0.002732 333.9 35.7
349(19) 0.002865 333.7 33.9
377(19) 0.002653 333.5 32.3
369(19) 0.002710 333.3 30.9
374(19) 0.002674 333.1 29.6
335(18) 0.002985 332.9 28.5
337(18) 0.002967 332.7 27.5
332(18) 0.003012 332.5 26.5
371(19) 0.002695 332.3 25.6
345(19) 0.002899 332.1 24.8
365(19) 0.002740 331.9 24.0
332(18) 0.003012 331.6 23.3
329(18) 0.003039 331.4 22.7
330(18) 0.003030 331.2 22.0
383(20) 0.002611 331.0 21.4
336(18) 0.002976 330.8 20.9
330(18) 0.003030 330.6 20.3
334(18) 0.002994 330.4 19.8
360(19) 0.002778 330.2 19.3
324(18) 0.003086 330.0 18.9
339(18) 0.002950 329.8 18.5
324(18) 0.003086 329.6 18.1
308(18) 0.003247 329.4 17.7
344(19) 0.002907 329.2 17.3
351(19) 0.002849 329.0 17.0
332(18) 0.003012 328.7 16.6
348(19) 0.002874 328.5 16.3
341(18) 0.002933 328.3 16.0
350(19) 0.002857 328.1 15.8
354(19) 0.002825 327.9 15.5
316(18) 0.003165 327.7 15.3
338(18) 0.002959 327.5 15.0
339(18) 0.002950 327.3 14.8
334(18) 0.002994 327.1 14.6
346(19) 0.002890 326.9 14.4
357(19) 0.002801 326.7 14.3
338(18) 0.002959 326.5 14.1
333(18) 0.003003 326.3 14.0
316(18) 0.003165 326.1 13.8
347(19) 0.002882 325.8 13.7
314(18) 0.003185 325.6 13.6
344(19) 0.002907 325.4 13.5
315(18) 0.003175 325.2 13.4
349(19) 0.002865 325.0 13.3
324(18) 0.003086 324.8 13.2
339(18) 0.002950 324.6 13.2
337(18) 0.002967 324.4 13.1
330(18) 0.003030 324.2 13.0
343(19) 0.002915 324.0 13.0
352(19) 0.002841 323.8 13.0
315(18) 0.003175 323.6 12.9
303(17) 0.003300 323.4 12.9
332(18) 0.003012 323.3 12.9
338(18) 0.002959 323.3 12.9
330(18) 0.003030 323.2 12.9
322(18) 0.003106 323.1 12.9
350(19) 0.002857 323.1 13.0
345(19) 0.002899 323.0 13.0
347(19) 0.002882 323.0 13.0
316(18) 0.003165 322.9 13.1
333(18) 0.003003 322.9 13.1
316(18) 0.003165 322.8 13.2
308(18) 0.003247 322.8 13.2
359(19) 0.002786 322.7 13.3
338(18) 0.002959 322.6 13.4
305(17) 0.003279 322.6 13.5
325(18) 0.003077 322.5 13.5
352(19) 0.002841 322.5 13.6
326(18) 0.003067 322.4 13.7
329(18) 0.003039 322.4 13.8
323(18) 0.003096 322.3 14.0
336(18) 0.002976 322.3 14.1
313(18) 0.003195 322.2 14.2
340(18) 0.002941 322.2 14.3
323(18) 0.003096 322.1 14.5
327(18) 0.003058 322.0 14.6
340(18) 0.002941 322.0 14.8
324(18) 0.003086 321.9 15.0
346(19) 0.002890 321.9 15.1
339(18) 0.002950 321.8 15.3
332(18) 0.003012 321.8 15.5
316(18) 0.003165 321.7 15.7
326(18) 0.003067 321.7 15.9
358(19) 0.002793 321.6 16.1
314(18) 0.003185 321.6 16.4
306(17) 0.003268 321.5 16.6
326(18) 0.003067 321.4 16.9
360(19) 0.002778 321.4 17.2
346(19) 0.002890 321.3 17.5
329(18) 0.003039 321.3 17.9
348(19) 0.002874 321.2 18.3
314(18) 0.003185 321.2 18.7
321(18) 0.003115 321.1 19.1
333(18) 0.003003 321.1 19.6
331(18) 0.003021 321.0 20.2
332(18) 0.003012 321.0 20.8
336(18) 0.002976 320.9 21.5
322(18) 0.003106 320.8 22.2
336(18) 0.002976 320.8 23.1
374(19) 0.002674 320.7 24.0
356(19) 0.002809 320.7 25.0
325(18) 0.003077 320.6 26.2
314(18) 0.003185 320.6 27.4
331(18) 0.003021 320.5 28.8
344(19) 0.002907 320.5 30.3
352(19) 0.002841 320.4 31.9
362(19) 0.002762 320.4 33.7
343(19) 0.002915 320.3 35.5
344(19) 0.002907 320.2 37.5
355(19) 0.002817 320.2 39.6
336(18) 0.002976 320.1 41.7
371(19) 0.002695 320.1 43.9
372(19) 0.002688 320.0 46.1
335(18) 0.002985 320.0 48.3
349(19) 0.002865 319.9 50.4
336(18) 0.002976 319.9 52.5
367(19) 0.002725 319.8 54.3
344(19) 0.002907 319.8 55.9
362(19) 0.002762 319.7 57.3
357(19) 0.002801 319.6 58.3
374(19) 0.002674 319.6 58.9
357(19) 0.002801 319.5 59.1
340(18) 0.002941 319.5 58.9
379(19) 0.002639 319.4 58.3
335(18) 0.002985 319.4 57.4
356(19) 0.002809 319.3 56.2
362(19) 0.002762 319.3 54.8
337(18) 0.002967 319.2 53.3
333(18) 0.003003 319.2 51.7
318(18) 0.003145 319.1 50.0
369(19) 0.002710 319.0 48.4
325(18) 0.003077 319.0 46.8
334(18) 0.002994 318.9 45.3
368(19) 0.002717 318.9 43.9
361(19) 0.002770 318.8 42.5
340(18) 0.002941 318.8 41.4
347(19) 0.002882 318.7 40.3
327(18) 0.003058 318.7 39.4
334(18) 0.002994 318.6 38.6
355(19) 0.002817 318.6 37.9
363(19) 0.002755 318.5 37.4
334(18) 0.002994 318.4 37.0
362(19) 0.002762 318.4 36.7
358(19) 0.002793 318.3 36.5
331(18) 0.003021 318.3 36.5
347(19) 0.002882 318.2 36.5
318(18) 0.003145 318.2 36.6
338(18) 0.002959 318.1 36.8
330(18) 0.003030 318.1 37.1
315(18) 0.003175 318.0 37.4
328(18) 0.003049 318.0 37.8
341(18) 0.002933 317.9 38.3
377(19) 0.002653 317.8 38.8
340(18) 0.002941 317.8 39.3
344(19) 0.002907 317.7 39.9
345(19) 0.002899 317.7 40.5
344(19) 0.002907 317.6 41.1
363(19) 0.002755 317.6 41.8
363(19) 0.002755 317.5 42.4
351(19) 0.002849 317.5 43.1
302(17) 0.003311 317.4 43.9
359(19) 0.002786 317.4 44.6
368(19) 0.002717 317.3 45.4
358(19) 0.002793 317.2 46.1
351(19) 0.002849 317.2 46.9
370(19) 0.002703 317.1 47.7
330(18) 0.003030 317.1 48.5
350(19) 0.002857 317.0 49.3
379(19) 0.002639 317.0 50.1
348(19) 0.002874 316.9 50.9
332(18) 0.003012 316.9 51.8
335(18) 0.002985 316.8 52.6
379(19) 0.002639 316.7 53.4
343(19) 0.002915 316.7 54.2
352(19) 0.002841 316.6 55.1
369(19) 0.002710 316.6 55.9
386(20) 0.002591 316.5 56.7
347(19) 0.002882 316.5 57.5
352(19) 0.002841 316.4 58.3
328(18) 0.003049 316.4 59.0
361(19) 0.002770 316.3 59.8
414(20) 0.002415 316.3 60.5
382(20) 0.002618 316.2 61.2
367(19) 0.002725 316.1 61.9
380(19) 0.002632 316.1 62.6
356(19) 0.002809 316.0 63.2
357(19) 0.002801 316.0 63.7
351(19) 0.002849 315.9 64.2
356(19) 0.002809 315.9 64.7
372(19) 0.002688 315.8 65.1
342(18) 0.002924 315.8 65.4
362(19) 0.002762 315.7 65.7
406(20) 0.002463 315.7 65.9
351(19) 0.002849 315.6 66.1
381(20) 0.002625 315.5 66.1
375(19) 0.002667 315.5 66.1
364(19) 0.002747 315.4 66.0
347(19) 0.002882 315.4 65.8
351(19) 0.002849 315.3 65.6
363(19) 0.002755 315.3 65.3
370(19) 0.002703 315.2 64.9
358(19) 0.002793 315.2 64.4
386(20) 0.002591 315.1 63.9
393(20) 0.002545 315.1 63.3
382(20) 0.002618 315.0 62.6
395(20) 0.002532 314.9 61.9
358(19) 0.002793 314.9 61.1
349(19) 0.002865 314.8 60.3
365(19) 0.002740 314.8 59.4
399(20) 0.002506 314.7 58.5
399(20) 0.002506 314.7 57.6
376(19) 0.002660 314.6 56.6
328(18) 0.003049 314.6 55.6
376(19) 0.002660 314.5 54.6
358(19) 0.002793 314.5 53.6
410(20) 0.002439 314.4 52.6
383(20) 0.002611 314.3 51.5
356(19) 0.002809 314.3 50.5
387(20) 0.002584 314.2 49.4
377(19) 0.002653 314.2 48.4
344(19) 0.002907 314.1 47.4
377(19) 0.002653 314.1 46.4
347(19) 0.002882 314.0 45.4
346(19) 0.002890 314.0 44.4
354(19) 0.002825 313.9 43.4
321(18) 0.003115 313.9 42.5
324(18) 0.003086 313.8 41.6
350(19) 0.002857 313.7 40.7
331(18) 0.003021 313.7 39.8
319(18) 0.003135 313.6 39.0
331(18) 0.003021 313.6 38.1
344(19) 0.002907 313.5 37.4
344(19) 0.002907 313.5 36.6
357(19) 0.002801 313.4 35.9
356(19) 0.002809 313.4 35.2
361(19) 0.002770 313.3 34.5
334(18) 0.002994 313.3 33.9
336(18) 0.002976 313.2 33.3
315(18) 0.003175 313.1 32.7
331(18) 0.003021 313.1 32.2
330(18) 0.003030 313.0 31.7
329(18) 0.003039 313.0 31.2
328(18) 0.003049 312.9 30.8
313(18) 0.003195 312.9 30.4
321(18) 0.003115 312.8 30.0
316(18) 0.003165 312.8 29.7
332(18) 0.003012 312.8 29.3
338(18) 0.002959 312.8 29.1
340(18) 0.002941 312.8 28.8
318(18) 0.003145 312.8 28.6
319(18) 0.003135 312.7 28.4
298(17) 0.003356 312.7 28.2
329(18) 0.003039 312.7 28.1
303(17) 0.003300 312.7 28.0
350(19) 0.002857 312.7 27.9
326(18) 0.003067 312.7 27.8
306(17) 0.003268 312.7 27.8
344(19) 0.002907 312.6 27.7
327(18) 0.003058 312.6 27.7
333(18) 0.003003 312.6 27.8
337(18) 0.002967 312.6 27.8
309(18) 0.003236 312.6 27.9
340(18) 0.002941 312.6 27.9
345(19) 0.002899 312.6 28.0
310(18) 0.003226 312.6 28.1
333(18) 0.003003 312.5 28.2
347(19) 0.002882 312.5 28.3
310(18) 0.003226 312.5 28.5
337(18) 0.002967 312.5 28.6
340(18) 0.002941 312.5 28.8
361(19) 0.002770 312.5 28.9
362(19) 0.002762 312.5 29.1
344(19) 0.002907 312.4 29.3
315(18) 0.003175 312.4 29.4
322(18) 0.003106 312.4 29.6
336(18) 0.002976 312.4 29.8
337(18) 0.002967 312.4 29.9
341(18) 0.002933 312.4 30.1
339(18) 0.002950 312.4 30.3
349(19) 0.002865 312.3 30.4
350(19) 0.002857 312.3 30.6
336(18) 0.002976 312.3 30.8
344(19) 0.002907 312.3 30.9
342(18) 0.002924 312.3 31.0
344(19) 0.002907 312.3 31.1
329(18) 0.003039 312.3 31.3
325(18) 0.003077 312.3 31.4
345(19) 0.002899 312.2 31.4
329(18) 0.003039 312.2 31.5
328(18) 0.003049 312.2 31.6
303(17) 0.003300 312.2 31.6
330(18) 0.003030 312.2 31.6
304(17) 0.003289 312.2 31.6
328(18) 0.003049 312.2 31.6
337(18) 0.002967 312.1 31.6
325(18) 0.003077 312.1 31.6
354(19) 0.002825 312.1 31.5
332(18) 0.003012 312.1 31.5
314(18) 0.003185 312.1 31.4
327(18) 0.003058 312.1 31.3
323(18) 0.003096 312.1 31.2
339(18) 0.002950 312.0 31.1
339(18) 0.002950 312.0 31.0
303(17) 0.003300 312.0 30.9
318(18) 0.003145 312.0 30.7
318(18) 0.003145 312.0 30.6
340(18) 0.002941 312.0 30.4
314(18) 0.003185 312.0 30.3
324(18) 0.003086 311.9 30.1
341(18) 0.002933 311.9 29.9
325(18) 0.003077 311.9 29.8
330(18) 0.003030 311.9 29.6
347(19) 0.002882 311.9 29.5
352(19) 0.002841 311.9 29.3
343(19) 0.002915 311.9 29.1
314(18) 0.003185 311.9 29.0
367(19) 0.002725 311.8 28.8
331(18) 0.003021 311.8 28.7
311(18) 0.003215 311.8 28.6
329(18) 0.003039 311.8 28.5
339(18) 0.002950 311.8 28.3
338(18) 0.002959 311.8 28.2
347(19) 0.002882 311.8 28.2
318(18) 0.003145 311.7 28.1
334(18) 0.002994 311.7 28.0
319(18) 0.003135 311.7 28.0
345(19) 0.002899 311.7 28.0
324(18) 0.003086 311.7 28.0
327(18) 0.003058 311.7 28.0
335(18) 0.002985 311.7 28.0
322(18) 0.003106 311.6 28.0
325(18) 0.003077 311.6 28.1
338(18) 0.002959 311.6 28.2
316(18) 0.003165 311.6 28.3
323(18) 0.003096 311.6 28.4
345(19) 0.002899 311.6 28.5
335(18) 0.002985 311.6 28.7
312(18) 0.003205 311.6 28.8
342(18) 0.002924 311.5 29.0
305(17) 0.003279 311.5 29.1
353(19) 0.002833 311.5 29.3
309(18) 0.003236 311.5 29.5
324(18) 0.003086 311.5 29.6
337(18) 0.002967 311.5 29.8
316(18) 0.003165 311.5 30.0
322(18) 0.003106 311.4 30.2
310(18) 0.003226 311.4 30.3
351(19) 0.002849 311.4 30.5
312(18) 0.003205 311.4 30.7
332(18) 0.003012 311.4 30.9
317(18) 0.003155 311.4 31.1
318(18) 0.003145 311.4 31.4
354(19) 0.002825 311.3 31.6
316(18) 0.003165 311.3 31.9
325(18) 0.003077 311.3 32.2
356(19) 0.002809 311.3 32.5
340(18) 0.002941 311.3 32.8
339(18) 0.002950 311.3 33.1
347(19) 0.002882 311.3 33.5
359(19) 0.002786 311.3 33.9
346(19) 0.002890 311.2 34.2
322(18) 0.003106 311.2 34.6
375(19) 0.002667 311.2 35.0
305(17) 0.003279 311.2 35.4
315(18) 0.003175 311.2 35.9
350(19) 0.002857 311.2 36.3
361(19) 0.002770 311.2 36.7
321(18) 0.003115 311.1 37.1
357(19) 0.002801 311.1 37.5
331(18) 0.003021 311.1 37.9
310(18) 0.003226 311.1 38.3
344(19) 0.002907 311.1 38.7
347(19) 0.002882 311.1 39.1
356(19) 0.002809 311.1 39.5
332(18) 0.003012 311.0 39.9
322(18) 0.003106 311.0 40.3
370(19) 0.002703 311.0 40.7
358(19) 0.002793 311.0 41.1
358(19) 0.002793 311.0 41.5
351(19) 0.002849 311.0 42.0
349(19) 0.002865 311.0 42.5
370(19) 0.002703 311.0 43.1
344(19) 0.002907 310.9 43.7
374(19) 0.002674 310.9 44.5
358(19) 0.002793 310.9 45.5
337(18) 0.002967 310.9 46.7
357(19) 0.002801 310.9 48.1
373(19) 0.002681 310.9 49.8
388(20) 0.002577 310.9 51.8
351(19) 0.002849 310.8 54.1
370(19) 0.002703 310.8 56.9
362(19) 0.002762 310.8 60.0
362(19) 0.002762 310.8 63.5
335(18) 0.002985 310.8 67.5
374(19) 0.002674 310.8 71.7
397(20) 0.002519 310.8 76.1
370(19) 0.002703 310.7 80.6
406(20) 0.002463 310.7 85.0
395(20) 0.002532 310.7 89.0
400(20) 0.002500 310.7 92.2
368(19) 0.002717 310.7 94.3
392(20) 0.002551 310.7 95.1
384(20) 0.002604 310.7 94.4
390(20) 0.002564 310.6 92.2
380(19) 0.002632 310.6 88.8
348(19) 0.002874 310.6 84.4
360(19) 0.002778 310.6 79.5
376(19) 0.002660 310.6 74.4
370(19) 0.002703 310.6 69.2
365(19) 0.002740 310.6 64.2
346(19) 0.002890 310.6 59.5
342(18) 0.002924 310.5 55.1
319(18) 0.003135 310.5 51.2
334(18) 0.002994 310.5 47.7
323(18) 0.003096 310.5 44.6
354(19) 0.002825 310.5 42.0
373(19) 0.002681 310.5 39.7
342(18) 0.002924 310.5 37.7
361(19) 0.002770 310.4 36.1
341(18) 0.002933 310.4 34.7
330(18) 0.003030 310.4 33.5
319(18) 0.003135 310.4 32.4
339(18) 0.002950 310.4 31.5
341(18) 0.002933 310.4 30.8
360(19) 0.002778 310.4 30.1
326(18) 0.003067 310.3 29.5
352(19) 0.002841 310.3 29.0
355(19) 0.002817 310.3 28.6
354(19) 0.002825 310.3 28.2
312(18) 0.003205 310.3 27.9
316(18) 0.003165 310.3 27.6
343(19) 0.002915 310.3 27.3
333(18) 0.003003 310.3 27.2
318(18) 0.003145 310.2 27.0
319(18) 0.003135 310.2 27.0
343(19) 0.002915 310.2 27.0
321(18) 0.003115 310.2 27.0
339(18) 0.002950 310.2 27.1
324(18) 0.003086 310.2 27.3
322(18) 0.003106 310.2 27.6
344(19) 0.002907 310.1 27.9
312(18) 0.003205 310.1 28.2
295(17) 0.003390 310.1 28.7
330(18) 0.003030 310.1 29.2
353(19) 0.002833 310.1 29.8
344(19) 0.002907 310.1 30.5
317(18) 0.003155 310.1 31.2
338(18) 0.002959 310.0 32.0
351(19) 0.002849 310.0 32.8
367(19) 0.002725 310.0 33.7
353(19) 0.002833 310.0 34.7
337(18) 0.002967 310.0 35.7
356(19) 0.002809 310.0 36.7
349(19) 0.002865 310.0 37.7
348(19) 0.002874 310.0 38.7
316(18) 0.003165 309.9 39.7
366(19) 0.002732 309.9 40.7
366(19) 0.002732 309.9 41.6
364(19) 0.002747 309.9 42.6
335(18) 0.002985 309.9 43.4
335(18) 0.002985 309.9 44.3
332(18) 0.003012 309.9 45.2
326(18) 0.003067 309.8 46.1
354(19) 0.002825 309.8 47.2
381(20) 0.002625 309.8 48.5
371(19) 0.002695 309.8 50.0
402(20) 0.002488 309.8 52.0
384(20) 0.002604 309.8 54.4
408(20) 0.002451 309.8 57.3
373(19) 0.002681 309.7 60.7
365(19) 0.002740 309.7 64.5
357(19) 0.002801 309.7 68.6
428(21) 0.002336 309.7 72.7
400(20) 0.002500 309.7 76.5
411(20) 0.002433 309.7 79.3
389(20) 0.002571 309.7 80.6
385(20) 0.002597 309.6 79.9
391(20) 0.002558 309.6 77.2
370(19) 0.002703 309.6 73.0
342(18) 0.002924 309.6 67.8
400(20) 0.002500 309.6 62.2
400(20) 0.002500 309.6 56.7
364(19) 0.002747 309.6 51.6
373(19) 0.002681 309.6 46.9
353(19) 0.002833 309.5 42.8
378(19) 0.002646 309.5 39.3
361(19) 0.002770 309.5 36.4
310(18) 0.003226 309.5 34.0
356(19) 0.002809 309.5 32.0
363(19) 0.002755 309.5 30.4
337(18) 0.002967 309.5 29.1
319(18) 0.003135 309.4 28.1
337(18) 0.002967 309.4 27.2
304(17) 0.003289 309.4 26.6
350(19) 0.002857 309.4 26.0
367(19) 0.002725 309.4 25.6
321(18) 0.003115 309.4 25.3
299(17) 0.003344 309.4 25.2
305(17) 0.003279 309.3 25.1
318(18) 0.003145 309.3 25.2
342(18) 0.002924 309.3 25.4
341(18) 0.002933 309.3 25.6
339(18) 0.002950 309.2 26.0
286(17) 0.003497 309.1 26.5
303(17) 0.003300 309.1 27.2
339(18) 0.002950 309.0 27.9
301(17) 0.003322 308.9 28.7
311(18) 0.003215 308.8 29.5
331(18) 0.003021 308.8 30.5
314(18) 0.003185 308.7 31.4
340(18) 0.002941 308.6 32.3
300(17) 0.003333 308.5 33.1
362(19) 0.002762 308.5 33.8
339(18) 0.002950 308.4 34.3
335(18) 0.002985 308.3 34.7
367(19) 0.002725 308.2 34.9
330(18) 0.003030 308.1 35.0
313(18) 0.003195 308.1 34.8
342(18) 0.002924 308.0 34.5
341(18) 0.002933 307.9 34.0
326(18) 0.003067 307.8 33.4
329(18) 0.003039 307.8 32.6
325(18) 0.003077 307.7 31.8
561(24) 0.001783 307.6 30.9
363(19) 0.002755 307.5 30.1
309(18) 0.003236 307.5 29.4
327(18) 0.003058 307.4 28.8
342(18) 0.002924 307.3 28.3
330(18) 0.003030 307.2 28.1
363(19) 0.002755 307.2 28.1
303(17) 0.003300 307.1 28.4
334(18) 0.002994 307.0 29.0
326(18) 0.003067 306.9 30.0
341(18) 0.002933 306.8 31.4
331(18) 0.003021 306.8 33.2
296(17) 0.003378 306.7 35.3
320(18) 0.003125 306.6 37.7
333(18) 0.003003 306.5 40.3
348(19) 0.002874 306.5 42.9
340(18) 0.002941 306.4 45.4
331(18) 0.003021 306.3 47.3
325(18) 0.003077 306.2 48.5
305(17) 0.003279 306.2 48.6
324(18) 0.003086 306.1 47.6
347(19) 0.002882 306.0 45.7
348(19) 0.002874 305.9 43.1
351(19) 0.002849 305.9 40.2
319(18) 0.003135 305.8 37.3
319(18) 0.003135 305.7 34.4
313(18) 0.003195 305.6 31.7
310(18) 0.003226 305.6 29.3
314(18) 0.003185 305.5 27.3
318(18) 0.003145 305.4 25.5
285(17) 0.00351 305.3 24.1
321(18) 0.003115 305.2 22.9
341(18) 0.002933 305.2 21.9
341(18) 0.002933 305.1 21.2
321(18) 0.003115 305.0 20.6
310(18) 0.003226 304.9 20.1
314(18) 0.003185 304.9 19.8
325(18) 0.003077 304.8 19.5
330(18) 0.003030 304.7 19.2
319(18) 0.003135 304.6 19.1
320(18) 0.003125 304.6 18.9
283(17) 0.00353 304.5 18.8
301(17) 0.003322 304.4 18.7
338(18) 0.002959 304.3 18.6
304(17) 0.003289 304.3 18.6
315(18) 0.003175 304.2 18.6
356(19) 0.002809 304.1 18.5
328(18) 0.003049 304.0 18.6
355(19) 0.002817 303.9 18.6
329(18) 0.003039 303.9 18.6
330(18) 0.003030 303.8 18.7
350(19) 0.002857 303.7 18.8
327(18) 0.003058 303.6 18.9
329(18) 0.003039 303.6 19.0
331(18) 0.003021 303.5 19.2
329(18) 0.003039 303.4 19.3
336(18) 0.002976 303.3 19.4
333(18) 0.003003 303.3 19.5
310(18) 0.003226 303.2 19.7
355(19) 0.002817 303.1 19.8
316(18) 0.003165 303.0 19.9
319(18) 0.003135 303.0 20.0
333(18) 0.003003 302.9 20.2
332(18) 0.003012 302.8 20.4
284(17) 0.00352 302.7 20.5
328(18) 0.003049 302.7 20.8
322(18) 0.003106 302.6 21.0
315(18) 0.003175 302.5 21.3
314(18) 0.003185 302.4 21.6
298(17) 0.003356 302.3 21.9
318(18) 0.003145 302.0 22.2
309(18) 0.003236 300.7 22.6
307(18) 0.003257 299.3 23.0
342(18) 0.002924 298.0 23.4
307(18) 0.003257 296.7 23.8
325(18) 0.003077 295.4 24.3
330(18) 0.003030 294.1 24.8
324(18) 0.003086 292.8 25.3
316(18) 0.003165 291.5 25.9
305(17) 0.003279 290.2 26.5
309(18) 0.003236 288.9 27.1
325(18) 0.003077 287.6 27.7
302(17) 0.003311 286.3 28.3
302(17) 0.003311 285.0 29.0
338(18) 0.002959 283.6 29.7
323(18) 0.003096 282.3 30.4
298(17) 0.003356 281.0 31.2
332(18) 0.003012 279.7 31.9
317(18) 0.003155 278.4 32.7
323(18) 0.003096 277.1 33.6
316(18) 0.003165 275.8 34.5
308(18) 0.003247 274.5 35.4
344(19) 0.002907 273.2 36.3
325(18) 0.003077 271.9 37.3
324(18) 0.003086 270.6 38.3
315(18) 0.003175 269.3 39.4
342(18) 0.002924 267.9 40.5
335(18) 0.002985 266.6 41.7
351(19) 0.002849 265.3 42.9
357(19) 0.002801 264.0 44.2
321(18) 0.003115 262.7 45.5
350(19) 0.002857 261.4 46.8
330(18) 0.003030 260.1 48.1
331(18) 0.003021 258.8 49.5
322(18) 0.003106 257.5 50.8
368(19) 0.002717 256.2 52.2
387(20) 0.002584 254.9 53.5
340(18) 0.002941 253.5 54.8
358(19) 0.002793 252.2 56.0
356(19) 0.002809 250.9 57.2
375(19) 0.002667 249.6 58.2
355(19) 0.002817 248.3 59.1
358(19) . . .
367(19) . . .
359(19) . . .
380(19) . . .
341(18) . . .
350(19) . . .
331(18) . . .
321(18) . . .
351(19) . . .
353(19) . . .
337(18) . . .
350(19) . . .
332(18) . . .
368(19) . . .
392(20) . . .
372(19) . . .
355(19) . . .
361(19) . . .
374(19) . . .
355(19) . . .
343(19) . . .
339(18) . . .
364(19) . . .
349(19) . . .
328(18) . . .
349(19) . . .
359(19) . . .
336(18) . . .
340(18) . . .
354(19) . . .
363(19) . . .
332(18) . . .
334(18) . . .
323(18) . . .
329(18) . . .
331(18) . . .
316(18) . . .
327(18) . . .
320(18) . . .
351(19) . . .
337(18) . . .
328(18) . . .
320(18) . . .
342(18) . . .
312(18) . . .
327(18) . . .
344(19) . . .
322(18) . . .
300(17) . . .
317(18) . . .
330(18) . . .
323(18) . . .
323(18) . . .
308(18) . . .
352(19) . . .
324(18) . . .
314(18) . . .
322(18) . . .
328(18) . . .
300(17) . . .
280(17) . . .
329(18) . . .
311(18) . . .
302(17) . . .
285(17) . . .
316(18) . . .
309(18) . . .
302(17) . . .
321(18) . . .
329(18) . . .
301(17) . . .
307(18) . . .
324(18) . . .
308(18) . . .
330(18) . . .
305(17) . . .
306(17) . . .
297(17) . . .
296(17) . . .
300(17) . . .
281(17) . . .
332(18) . . .
339(18) . . .
282(17) . . .
304(17) . . .
322(18) . . .
299(17) . . .
336(18) . . .
307(18) . . .
324(18) . . .
340(18) . . .
305(17) . . .
339(18) . . .
313(18) . . .
295(17) . . .
316(18) . . .
338(18) . . .
321(18) . . .
314(18) . . .
309(18) . . .
307(18) . . .
331(18) . . .
355(19) . . .
348(19) . . .
332(18) . . .
343(19) . . .
346(19) . . .
357(19) . . .
337(18) . . .
343(19) . . .
353(19) . . .
357(19) . . .
320(18) . . .
353(19) . . .
343(19) . . .
337(18) . . .
318(18) . . .
330(18) . . .
326(18) . . .
327(18) . . .
340(18) . . .
336(18) . . .
317(18) . . .
334(18) . . .
321(18) . . .
324(18) . . .
302(17) . . .
360(19) . . .
290(17) . . .
342(18) . . .
314(18) . . .
300(17) . . .
315(18) . . .
313(18) . . .
324(18) . . .
317(18) . . .
303(17) . . .
314(18) . . .
337(18) . . .
322(18) . . .
293(17) . . .
332(18) . . .
307(18) . . .
335(18) . . .
324(18) . . .
342(18) . . .
296(17) . . .
328(18) . . .
332(18) . . .
330(18) . . .
298(17) . . .
301(17) . . .
327(18) . . .
320(18) . . .
293(17) . . .
324(18) . . .
325(18) . . .
308(18) . . .
324(18) . . .
315(18) . . .
314(18) . . .
346(19) . . .
318(18) . . .
316(18) . . .
324(18) . . .
314(18) . . .
317(18) . . .
292(17) . . .
321(18) . . .
331(18) . . .
319(18) . . .
310(18) . . .
284(17) . . .
283(17) . . .
312(18) . . .
302(17) . . .
292(17) . . .
291(17) . . .
313(18) . . .
263(16) . . .
303(17) . . .
303(17) . . .
294(17) . . .
265(16) . . .
343(19) . . .
307(18) . . .
292(17) . . .
326(18) . . .
307(18) . . .
314(18) . . .
300(17) . . .
308(18) . . .
315(18) . . .
297(17) . . .
292(17) . . .
321(18) . . .
306(17) . . .
315(18) . . .
309(18) . . .
311(18) . . .
303(17) . . .
309(18) . . .
286(17) . . .
340(18) . . .
321(18) . . .
331(18) . . .
329(18) . . .
269(16) . . .
321(18) . . .
305(17) . . .
321(18) . . .
312(18) . . .
343(19) . . .
315(18) . . .
321(18) . . .
332(18) . . .
317(18) . . .
332(18) . . .
332(18) . . .
333(18) . . .
322(18) . . .
313(18) . . .
340(18) . . .
343(19) . . .
316(18) . . .
331(18) . . .
348(19) . . .
310(18) . . .
300(17) . . .
296(17) . . .
317(18) . . .
337(18) . . .
348(19) . . .
325(18) . . .
310(18) . . .
305(17) . . .
332(18) . . .
338(18) . . .
322(18) . . .
317(18) . . .
313(18) . . .
302(17) . . .
301(17) . . .
327(18) . . .
316(18) . . .
323(18) . . .
320(18) . . .
328(18) . . .
315(18) . . .
315(18) . . .
313(18) . . .
314(18) . . .
310(18) . . .
307(18) . . .
284(17) . . .
318(18) . . .
292(17) . . .
338(18) . . .
317(18) . . .
325(18) . . .
282(17) . . .
300(17) . . .
298(17) . . .
322(18) . . .
287(17) . . .
315(18) . . .
312(18) . . .
287(17) . . .
306(17) . . .
301(17) . . .
334(18) . . .
304(17) . . .
297(17) . . .
278(17) . . .
295(17) . . .
320(18) . . .
338(18) . . .
287(17) . . .
321(18) . . .
289(17) . . .
302(17) . . .
294(17) . . .
287(17) . . .
313(18) . . .
302(17) . . .
326(18) . . .
310(18) . . .
306(17) . . .
287(17) . . .
299(17) . . .
294(17) . . .
326(18) . . .
293(17) . . .
294(17) . . .
292(17) . . .
277(17) . . .
319(18) . . .
310(18) . . .
321(18) . . .
340(18) . . .
308(18) . . .
297(17) . . .
299(17) . . .
301(17) . . .
289(17) . . .
314(18) . . .
300(17) . . .
278(17) . . .
300(17) . . .
297(17) . . .
279(17) . . .
320(18) . . .
308(18) . . .
270(16) . . .
297(17) . . .
283(17) . . .
284(17) . . .
311(18) . . .
293(17) . . .
302(17) . . .
306(17) . . .
315(18) . . .
323(18) . . .
311(18) . . .
268(16) . . .
302(17) . . .
304(17) . . .
298(17) . . .
294(17) . . .
298(17) . . .
323(18) . . .
327(18) . . .
289(17) . . .
295(17) . . .
311(18) . . .
302(17) . . .
319(18) . . .
299(17) . . .
311(18) . . .
312(18) . . .
304(17) . . .
310(18) . . .
280(17) . . .
279(17) . . .
325(18) . . .
315(18) . . .
301(17) . . .
337(18) . . .
353(19) . . .
300(17) . . .
287(17) . . .
314(18) . . .
303(17) . . .
305(17) . . .
303(17) . . .
275(17) . . .
292(17) . . .
325(18) . . .
326(18) . . .
308(18) . . .
282(17) . . .
316(18) . . .
300(17) . . .
290(17) . . .
296(17) . . .
288(17) . . .
310(18) . . .
294(17) . . .
317(18) . . .
281(17) . . .
289(17) . . .
330(18) . . .
287(17) . . .
283(17) . . .
320(18) . . .
318(18) . . .
327(18) . . .
293(17) . . .
325(18) . . .
314(18) . . .
314(18) . . .
317(18) . . .
319(18) . . .
315(18) . . .
297(17) . . .
329(18) . . .
341(18) . . .
311(18) . . .
303(17) . . .
320(18) . . .
314(18) . . .
337(18) . . .
328(18) . . .
327(18) . . .
288(17) . . .
327(18) . . .
318(18) . . .
321(18) . . .
330(18) . . .
354(19) . . .
348(19) . . .
314(18) . . .
305(17) . . .
339(18) . . .
346(19) . . .
342(18) . . .
333(18) . . .
364(19) . . .
348(19) . . .
371(19) . . .
334(18) . . .
336(18) . . .
327(18) . . .
378(19) . . .
354(19) . . .
316(18) . . .
305(17) . . .
320(18) . . .
308(18) . . .
324(18) . . .
314(18) . . .
345(19) . . .
316(18) . . .
318(18) . . .
341(18) . . .
340(18) . . .
305(17) . . .
320(18) . . .
302(17) . . .
308(18) . . .
320(18) . . .
311(18) . . .
295(17) . . .
319(18) . . .
317(18) . . .
319(18) . . .
320(18) . . .
306(17) . . .
368(19) . . .
292(17) . . .
301(17) . . .
312(18) . . .
301(17) . . .
312(18) . . .
322(18) . . .
307(18) . . .
313(18) . . .
325(18) . . .
311(18) . . .
310(18) . . .
348(19) . . .
332(18) . . .
310(18) . . .
323(18) . . .
335(18) . . .
329(18) . . .
332(18) . . .
316(18) . . .
319(18) . . .
338(18) . . .
314(18) . . .
336(18) . . .
367(19) . . .
360(19) . . .
312(18) . . .
323(18) . . .
332(18) . . .
323(18) . . .
315(18) . . .
317(18) . . .
328(18) . . .
355(19) . . .
368(19) . . .
329(18) . . .
330(18) . . .
353(19) . . .
354(19) . . .
333(18) . . .
297(17) . . .
337(18) . . .
357(19) . . .
332(18) . . .
326(18) . . .
315(18) . . .
359(19) . . .
326(18) . . .
337(18) . . .
332(18) . . .
340(18) . . .
345(19) . . .
330(18) . . .
346(19) . . .
323(18) . . .
334(18) . . .
316(18) . . .
323(18) . . .
343(19) . . .
339(18) . . .
298(17) . . .
351(19) . . .
344(19) . . .
341(18) . . .
329(18) . . .
336(18) . . .
342(18) . . .
343(19) . . .
333(18) . . .
350(19) . . .
323(18) . . .
364(19) . . .
387(20) . . .
374(19) . . .
362(19) . . .
358(19) . . .
366(19) . . .
393(20) . . .
348(19) . . .
382(20) . . .
376(19) . . .
372(19) . . .
363(19) . . .
343(19) . . .
330(18) . . .
348(19) . . .
332(18) . . .
328(18) . . .
346(19) . . .
337(18) . . .
375(19) . . .
346(19) . . .
353(19) . . .
338(18) . . .
317(18) . . .
376(19) . . .
318(18) . . .
333(18) . . .
340(18) . . .
345(19) . . .
338(18) . . .
301(17) . . .
336(18) . . .
369(19) . . .
362(19) . . .
333(18) . . .
357(19) . . .
352(19) . . .
350(19) . . .
332(18) . . .
355(19) . . .
350(19) . . .
327(18) . . .
335(18) . . .
342(18) . . .
357(19) . . .
345(19) . . .
342(18) . . .
362(19) . . .
381(20) . . .
349(19) . . .
382(20) . . .
390(20) . . .
357(19) . . .
395(20) . . .
345(19) . . .
349(19) . . .
351(19) . . .
390(20) . . .
363(19) . . .
401(20) . . .
345(19) . . .
393(20) . . .
391(20) . . .
357(19) . . .
378(19) . . .
392(20) . . .
382(20) . . .
379(19) . . .
354(19) . . .
359(19) . . .
370(19) . . .
325(18) . . .
349(19) . . .
347(19) . . .
378(19) . . .
382(20) . . .
350(19) . . .
358(19) . . .
397(20) . . .
373(19) . . .
353(19) . . .
335(18) . . .
381(20) . . .
349(19) . . .
329(18) . . .
341(18) . . .
336(18) . . .
351(19) . . .
347(19) . . .
335(18) . . .
299(17) . . .
348(19) . . .
336(18) . . .
312(18) . . .
355(19) . . .
329(18) . . .
371(19) . . .
323(18) . . .
337(18) . . .
344(19) . . .
374(19) . . .
360(19) . . .
327(18) . . .
346(19) . . .
342(18) . . .
360(19) . . .
328(18) . . .
356(19) . . .
346(19) . . .
321(18) . . .
339(18) . . .
360(19) . . .
330(18) . . .
340(18) . . .
350(19) . . .
366(19) . . .
352(19) . . .
332(18) . . .
360(19) . . .
330(18) . . .
333(18) . . .
350(19) . . .
329(18) . . .
373(19) . . .
334(18) . . .
334(18) . . .
373(19) . . .
333(18) . . .
375(19) . . .
354(19) . . .
342(18) . . .
318(18) . . .
367(19) . . .
341(18) . . .
345(19) . . .
348(19) . . .
358(19) . . .
338(18) . . .
358(19) . . .
333(18) . . .
334(18) . . .
331(18) . . .
345(19) . . .
343(19) . . .
334(18) . . .
356(19) . . .
363(19) . . .
326(18) . . .
343(19) . . .
309(18) . . .
363(19) . . .
346(19) . . .
348(19) . . .
334(18) . . .
339(18) . . .
351(19) . . .
361(19) . . .
336(18) . . .
358(19) . . .
354(19) . . .
372(19) . . .
348(19) . . .
318(18) . . .
345(19) . . .
340(18) . . .
344(19) . . .
328(18) . . .
306(17) . . .
355(19) . . .
336(18) . . .
313(18) . . .
358(19) . . .
347(19) . . .
322(18) . . .
332(18) . . .
392(20) . . .
353(19) . . .
319(18) . . .
349(19) . . .
364(19) . . .
337(18) . . .
340(18) . . .
345(19) . . .
374(19) . . .
366(19) . . .
371(19) . . .
317(18) . . .
368(19) . . .
349(19) . . .
316(18) . . .
356(19) . . .
383(20) . . .
332(18) . . .
378(19) . . .
384(20) . . .
352(19) . . .
390(20) . . .
385(20) . . .
356(19) . . .
388(20) . . .
373(19) . . .
355(19) . . .
417(20) . . .
393(20) . . .
389(20) . . .
365(19) . . .
392(20) . . .
372(19) . . .
413(20) . . .
358(19) . . .
418(20) . . .
360(19) . . .
392(20) . . .
400(20) . . .
406(20) . . .
337(18) . . .
364(19) . . .
379(19) . . .
373(19) . . .
376(19) . . .
394(20) . . .
369(19) . . .
374(19) . . .
394(20) . . .
415(20) . . .
370(19) . . .
413(20) . . .
416(20) . . .
392(20) . . .
402(20) . . .
412(20) . . .
429(21) . . .
460(21) . . .
434(21) . . .
424(21) . . .
439(21) . . .
413(20) . . .
443(21) . . .
422(21) . . .
422(21) . . .
455(21) . . .
441(21) . . .
471(22) . . .
435(21) . . .
429(21) . . .
488(22) . . .
440(21) . . .
461(21) . . .
483(22) . . .
523(23) . . .
501(22) . . .
523(23) . . .
534(23) . . .
502(22) . . .
544(23) . . .
562(24) . . .
583(24) . . .
598(24) . . .
650(25) . . .
588(24) . . .
680(26) . . .
686(26) . . .
735(27) . . .
765(28) . . .
780(28) . . .
826(29) . . .
896(30) . . .
977(31) . . .
1060(33) . . .
1183(34) . . .
1232(35) . . .
1499(39) . . .
1615(40) . . .
1854(43) . . .
2187(47) . . .
2518(50) . . .
2976(55) . . .
3509(59) . . .
4298(66) . . .
5198(72) . . .
6635(81) . . .
8284(91) . . .
10460(100) . . .
13290(120) . . .
16210(130) . . .
19080(140) . . .
20820(140) . . .
21010(150) . . .
19560(140) . . .
17340(130) . . .
14200(120) . . .
11290(110) . . .
9042(95) . . .
6993(84) . . .
5605(75) . . .
4534(67) . . .
3825(62) . . .
3091(56) . . .
2554(51) . . .
2221(47) . . .
1954(44) . . .
1718(41) . . .
1505(39) . . .
1386(37) . . .
1244(35) . . .
1081(33) . . .
1012(32) . . .
978(31) . . .
900(30) . . .
875(30) . . .
837(29) . . .
781(28) . . .
755(27) . . .
685(26) . . .
658(26) . . .
660(26) . . .
625(25) . . .
651(26) . . .
599(24) . . .
602(25) . . .
589(24) . . .
528(23) . . .
535(23) . . .
526(23) . . .
563(24) . . .
550(23) . . .
477(22) . . .
506(22) . . .
522(23) . . .
479(22) . . .
478(22) . . .
456(21) . . .
479(22) . . .
466(22) . . .
489(22) . . .
456(21) . . .
444(21) . . .
445(21) . . .
444(21) . . .
437(21) . . .
461(21) . . .
415(20) . . .
419(20) . . .
427(21) . . .
424(21) . . .
405(20) . . .
410(20) . . .
405(20) . . .
420(20) . . .
398(20) . . .
371(19) . . .
392(20) . . .
396(20) . . .
389(20) . . .
382(20) . . .
387(20) . . .
365(19) . . .
382(20) . . .
362(19) . . .
382(20) . . .
377(19) . . .
362(19) . . .
351(19) . . .
354(19) . . .
377(19) . . .
395(20) . . .
340(18) . . .
396(20) . . .
371(19) . . .
354(19) . . .
391(20) . . .
367(19) . . .
339(18) . . .
403(20) . . .
367(19) . . .
384(20) . . .
406(20) . . .
397(20) . . .
376(19) . . .
378(19) . . .
367(19) . . .
341(18) . . .
356(19) . . .
362(19) . . .
375(19) . . .
378(19) . . .
377(19) . . .
382(20) . . .
373(19) . . .
382(20) . . .
366(19) . . .
374(19) . . .
378(19) . . .
359(19) . . .
380(19) . . .
391(20) . . .
343(19) . . .
380(19) . . .
370(19) . . .
352(19) . . .
323(18) . . .
354(19) . . .
382(20) . . .
367(19) . . .
352(19) . . .
369(19) . . .
364(19) . . .
373(19) . . .
379(19) . . .
385(20) . . .
369(19) . . .
371(19) . . .
373(19) . . .
351(19) . . .
355(19) . . .
369(19) . . .
387(20) . . .
398(20) . . .
412(20) . . .
418(20) . . .
385(20) . . .
358(19) . . .
370(19) . . .
357(19) . . .
367(19) . . .
399(20) . . .
372(19) . . .
361(19) . . .
376(19) . . .
360(19) . . .
384(20) . . .
361(19) . . .
363(19) . . .
385(20) . . .
351(19) . . .
366(19) . . .
370(19) . . .
358(19) . . .
362(19) . . .
372(19) . . .
352(19) . . .
341(18) . . .
367(19) . . .
345(19) . . .
341(18) . . .
347(19) . . .
366(19) . . .
348(19) . . .
364(19) . . .
361(19) . . .
338(18) . . .
326(18) . . .
364(19) . . .
370(19) . . .
354(19) . . .
337(18) . . .
329(18) . . .
316(18) . . .
346(19) . . .
372(19) . . .
329(18) . . .
328(18) . . .
349(19) . . .
382(20) . . .
352(19) . . .
341(18) . . .
314(18) . . .
327(18) . . .
324(18) . . .
336(18) . . .
362(19) . . .
339(18) . . .
319(18) . . .
355(19) . . .
320(18) . . .
324(18) . . .
318(18) . . .
360(19) . . .
344(19) . . .
326(18) . . .
312(18) . . .
344(19) . . .
322(18) . . .
339(18) . . .
330(18) . . .
328(18) . . .
331(18) . . .
350(19) . . .
319(18) . . .
326(18) . . .
348(19) . . .
356(19) . . .
334(18) . . .
359(19) . . .
354(19) . . .
343(19) . . .
348(19) . . .
309(18) . . .
348(19) . . .
330(18) . . .
376(19) . . .
341(18) . . .
328(18) . . .
393(20) . . .
340(18) . . .
333(18) . . .
328(18) . . .
367(19) . . .
357(19) . . .
355(19) . . .
331(18) . . .
355(19) . . .
356(19) . . .
352(19) . . .
348(19) . . .
331(18) . . .
311(18) . . .
320(18) . . .
346(19) . . .
326(18) . . .
336(18) . . .
348(19) . . .
346(19) . . .
335(18) . . .
372(19) . . .
356(19) . . .
346(19) . . .
329(18) . . .
354(19) . . .
359(19) . . .
337(18) . . .
367(19) . . .
340(18) . . .
345(19) . . .
338(18) . . .
324(18) . . .
335(18) . . .
328(18) . . .
344(19) . . .
346(19) . . .
328(18) . . .
330(18) . . .
347(19) . . .
320(18) . . .
317(18) . . .
321(18) . . .
333(18) . . .
361(19) . . .
321(18) . . .
310(18) . . .
362(19) . . .
346(19) . . .
325(18) . . .
335(18) . . .
333(18) . . .
358(19) . . .
330(18) . . .
343(19) . . .
319(18) . . .
327(18) . . .
321(18) . . .
312(18) . . .
336(18) . . .
310(18) . . .
349(19) . . .
316(18) . . .
345(19) . . .
352(19) . . .
366(19) . . .
354(19) . . .
350(19) . . .
332(18) . . .
330(18) . . .
358(19) . . .
345(19) . . .
340(18) . . .
341(18) . . .
334(18) . . .
333(18) . . .
335(18) . . .
360(19) . . .
363(19) . . .
344(19) . . .
381(20) . . .
346(19) . . .
363(19) . . .
364(19) . . .
341(18) . . .
343(19) . . .
317(18) . . .
331(18) . . .
346(19) . . .
378(19) . . .
363(19) . . .
375(19) . . .
356(19) . . .
346(19) . . .
353(19) . . .
330(18) . . .
321(18) . . .
361(19) . . .
377(19) . . .
312(18) . . .
329(18) . . .
371(19) . . .
336(18) . . .
343(19) . . .
336(18) . . .
351(19) . . .
351(19) . . .
347(19) . . .
350(19) . . .
347(19) . . .
335(18) . . .
355(19) . . .
361(19) . . .
350(19) . . .
361(19) . . .
320(18) . . .
324(18) . . .
326(18) . . .
329(18) . . .
317(18) . . .
326(18) . . .
325(18) . . .
305(17) . . .
352(19) . . .
306(17) . . .
306(17) . . .
302(17) . . .
337(18) . . .
315(18) . . .
310(18) . . .
321(18) . . .
337(18) . . .
319(18) . . .
331(18) . . .
317(18) . . .
342(18) . . .
330(18) . . .
340(18) . . .
326(18) . . .
321(18) . . .
333(18) . . .
324(18) . . .
339(18) . . .
326(18) . . .
360(19) . . .
324(18) . . .
339(18) . . .
313(18) . . .
316(18) . . .
314(18) . . .
328(18) . . .
313(18) . . .
344(19) . . .
336(18) . . .
314(18) . . .
322(18) . . .
327(18) . . .
335(18) . . .
330(18) . . .
301(17) . . .
320(18) . . .
310(18) . . .
302(17) . . .
314(18) . . .
300(17) . . .
357(19) . . .
327(18) . . .
323(18) . . .
331(18) . . .
329(18) . . .
325(18) . . .
334(18) . . .
308(18) . . .
323(18) . . .
346(19) . . .
317(18) . . .
365(19) . . .
344(19) . . .
351(19) . . .
305(17) . . .
344(19) . . .
321(18) . . .
328(18) . . .
347(19) . . .
316(18) . . .
321(18) . . .
331(18) . . .
327(18) . . .
313(18) . . .
331(18) . . .
330(18) . . .
341(18) . . .
348(19) . . .
318(18) . . .
316(18) . . .
320(18) . . .
348(19) . . .
354(19) . . .
339(18) . . .
357(19) . . .
351(19) . . .
327(18) . . .
348(19) . . .
370(19) . . .
321(18) . . .
334(18) . . .
353(19) . . .
327(18) . . .
336(18) . . .
330(18) . . .
339(18) . . .
345(19) . . .
357(19) . . .
353(19) . . .
347(19) . . .
345(19) . . .
332(18) . . .
339(18) . . .
360(19) . . .
330(18) . . .
373(19) . . .
359(19) . . .
313(18) . . .
368(19) . . .
308(18) . . .
346(19) . . .
331(18) . . .
346(19) . . .
341(18) . . .
329(18) . . .
347(19) . . .
340(18) . . .
269(16) . . .
340(18) . . .
382(20) . . .
346(19) . . .
373(19) . . .
365(19) . . .
302(17) . . .
317(18) . . .
325(18) . . .
351(19) . . .
334(18) . . .
360(19) . . .
340(18) . . .
362(19) . . .
327(18) . . .
338(18) . . .
338(18) . . .
329(18) . . .
347(19) . . .
344(19) . . .
342(18) . . .
318(18) . . .
337(18) . . .
332(18) . . .
331(18) . . .
321(18) . . .
348(19) . . .
376(19) . . .
349(19) . . .
331(18) . . .
326(18) . . .
367(19) . . .
370(19) . . .
354(19) . . .
331(18) . . .
373(19) . . .
345(19) . . .
370(19) . . .
340(18) . . .
348(19) . . .
349(19) . . .
358(19) . . .
348(19) . . .
355(19) . . .
373(19) . . .
305(17) . . .
353(19) . . .
320(18) . . .
346(19) . . .
333(18) . . .
316(18) . . .
370(19) . . .
362(19) . . .
336(18) . . .
340(18) . . .
335(18) . . .
361(19) . . .
331(18) . . .
364(19) . . .
355(19) . . .
366(19) . . .
352(19) . . .
369(19) . . .
366(19) . . .
319(18) . . .
331(18) . . .
341(18) . . .
340(18) . . .
365(19) . . .
335(18) . . .
376(19) . . .
320(18) . . .
361(19) . . .
327(18) . . .
347(19) . . .
371(19) . . .
355(19) . . .
345(19) . . .
332(18) . . .
370(19) . . .
383(20) . . .
363(19) . . .
347(19) . . .
343(19) . . .
353(19) . . .
346(19) . . .
331(18) . . .
334(18) . . .
342(18) . . .
351(19) . . .
364(19) . . .
323(18) . . .
350(19) . . .
376(19) . . .
359(19) . . .
349(19) . . .
335(18) . . .
332(18) . . .
331(18) . . .
338(18) . . .
327(18) . . .
333(18) . . .
355(19) . . .
325(18) . . .
358(19) . . .
328(18) . . .
316(18) . . .
326(18) . . .
330(18) . . .
321(18) . . .
323(18) . . .
334(18) . . .
337(18) . . .
342(18) . . .
342(18) . . .
343(19) . . .
345(19) . . .
323(18) . . .
310(18) . . .
339(18) . . .
335(18) . . .
342(18) . . .
353(19) . . .
350(19) . . .
340(18) . . .
324(18) . . .
319(18) . . .
331(18) . . .
318(18) . . .
349(19) . . .
332(18) . . .
313(18) . . .
338(18) . . .
323(18) . . .
360(19) . . .
354(19) . . .
372(19) . . .
356(19) . . .
331(18) . . .
307(18) . . .
352(19) . . .
330(18) . . .
317(18) . . .
342(18) . . .
360(19) . . .
313(18) . . .
343(19) . . .
346(19) . . .
324(18) . . .
359(19) . . .
342(18) . . .
331(18) . . .
340(18) . . .
366(19) . . .
337(18) . . .
363(19) . . .
344(19) . . .
354(19) . . .
365(19) . . .
339(18) . . .
315(18) . . .
315(18) . . .
353(19) . . .
343(19) . . .
326(18) . . .
352(19) . . .
327(18) . . .
305(17) . . .
371(19) . . .
351(19) . . .
355(19) . . .
350(19) . . .
367(19) . . .
368(19) . . .
352(19) . . .
353(19) . . .
332(18) . . .
386(20) . . .
333(18) . . .
357(19) . . .
371(19) . . .
358(19) . . .
314(18) . . .
354(19) . . .
352(19) . . .
349(19) . . .
358(19) . . .
368(19) . . .
336(18) . . .
342(18) . . .
383(20) . . .
318(18) . . .
355(19) . . .
325(18) . . .
355(19) . . .
333(18) . . .
356(19) . . .
326(18) . . .
345(19) . . .
353(19) . . .
342(18) . . .
326(18) . . .
356(19) . . .
342(18) . . .
325(18) . . .
360(19) . . .
324(18) . . .
360(19) . . .
365(19) . . .
333(18) . . .
346(19) . . .
346(19) . . .
341(18) . . .
333(18) . . .
346(19) . . .
330(18) . . .
349(19) . . .
310(18) . . .
348(19) . . .
323(18) . . .
345(19) . . .
336(18) . . .
331(18) . . .
345(19) . . .
328(18) . . .
355(19) . . .
379(19) . . .
347(19) . . .
343(19) . . .
353(19) . . .
322(18) . . .
341(18) . . .
326(18) . . .
320(18) . . .
341(18) . . .
372(19) . . .
326(18) . . .
343(19) . . .
334(18) . . .
340(18) . . .
365(19) . . .
351(19) . . .
372(19) . . .
331(18) . . .
337(18) . . .
368(19) . . .
343(19) . . .
309(18) . . .
339(18) . . .
354(19) . . .
371(19) . . .
335(18) . . .
353(19) . . .
336(18) . . .
322(18) . . .
366(19) . . .
337(18) . . .
360(19) . . .
388(20) . . .
345(19) . . .
387(20) . . .
358(19) . . .
341(18) . . .
348(19) . . .
313(18) . . .
383(20) . . .
352(19) . . .
325(18) . . .
362(19) . . .
352(19) . . .
376(19) . . .
351(19) . . .
338(18) . . .
346(19) . . .
335(18) . . .
314(18) . . .
365(19) . . .
328(18) . . .
354(19) . . .
371(19) . . .
319(18) . . .
345(19) . . .
325(18) . . .
345(19) . . .
367(19) . . .
375(19) . . .
342(18) . . .
343(19) . . .
366(19) . . .
339(18) . . .
354(19) . . .
325(18) . . .
349(19) . . .
368(19) . . .
334(18) . . .
336(18) . . .
346(19) . . .
368(19) . . .
343(19) . . .
358(19) . . .
319(18) . . .
337(18) . . .
341(18) . . .
376(19) . . .
346(19) . . .
338(18) . . .
363(19) . . .
381(20) . . .
365(19) . . .
348(19) . . .
346(19) . . .
347(19) . . .
331(18) . . .
328(18) . . .
357(19) . . .
352(19) . . .
344(19) . . .
343(19) . . .
360(19) . . .
365(19) . . .
389(20) . . .
368(19) . . .
367(19) . . .
355(19) . . .
358(19) . . .
365(19) . . .
380(19) . . .
359(19) . . .
372(19) . . .
357(19) . . .
356(19) . . .
413(20) . . .
363(19) . . .
375(19) . . .
341(18) . . .
364(19) . . .
382(20) . . .
361(19) . . .
341(18) . . .
360(19) . . .
365(19) . . .
340(18) . . .
353(19) . . .
348(19) . . .
353(19) . . .
365(19) . . .
357(19) . . .
345(19) . . .
347(19) . . .
331(18) . . .
356(19) . . .
360(19) . . .
382(20) . . .
383(20) . . .
366(19) . . .
337(18) . . .
349(19) . . .
367(19) . . .
346(19) . . .
379(19) . . .
394(20) . . .
344(19) . . .
350(19) . . .
373(19) . . .
324(18) . . .
379(19) . . .
332(18) . . .
389(20) . . .
377(19) . . .
336(18) . . .
346(19) . . .
352(19) . . .
370(19) . . .
356(19) . . .
392(20) . . .
331(18) . . .
382(20) . . .
350(19) . . .
348(19) . . .
367(19) . . .
379(19) . . .
346(19) . . .
364(19) . . .
341(18) . . .
377(19) . . .
352(19) . . .
334(18) . . .
360(19) . . .
360(19) . . .
344(19) . . .
363(19) . . .
375(19) . . .
363(19) . . .
351(19) . . .
382(20) . . .
337(18) . . .
357(19) . . .
372(19) . . .
335(18) . . .
374(19) . . .
365(19) . . .
380(19) . . .
361(19) . . .
389(20) . . .
363(19) . . .
383(20) . . .
365(19) . . .
345(19) . . .
363(19) . . .
370(19) . . .
359(19) . . .
410(20) . . .
359(19) . . .
402(20) . . .
381(20) . . .
371(19) . . .
369(19) . . .
370(19) . . .
355(19) . . .
423(21) . . .
372(19) . . .
351(19) . . .
362(19) . . .
392(20) . . .
374(19) . . .
379(19) . . .
391(20) . . .
390(20) . . .
357(19) . . .
389(20) . . .
368(19) . . .
378(19) . . .
401(20) . . .
383(20) . . .
391(20) . . .
409(20) . . .
382(20) . . .
367(19) . . .
376(19) . . .
353(19) . . .
369(19) . . .
357(19) . . .
376(19) . . .
382(20) . . .
402(20) . . .
366(19) . . .
422(21) . . .
363(19) . . .
373(19) . . .
377(19) . . .
417(20) . . .
366(19) . . .
383(20) . . .
394(20) . . .
375(19) . . .
384(20) . . .
407(20) . . .
391(20) . . .
407(20) . . .
417(20) . . .
379(19) . . .
372(19) . . .
387(20) . . .
402(20) . . .
424(21) . . .
383(20) . . .
379(19) . . .
401(20) . . .
382(20) . . .
388(20) . . .
360(19) . . .
391(20) . . .
394(20) . . .
403(20) . . .
381(20) . . .
361(19) . . .
381(20) . . .
430(21) . . .
394(20) . . .
395(20) . . .
442(21) . . .
395(20) . . .
398(20) . . .
370(19) . . .
407(20) . . .
418(20) . . .
417(20) . . .
399(20) . . .
391(20) . . .
389(20) . . .
406(20) . . .
377(19) . . .
365(19) . . .
387(20) . . .
376(19) . . .
390(20) . . .
373(19) . . .
378(19) . . .
391(20) . . .
416(20) . . .
384(20) . . .
405(20) . . .
397(20) . . .
395(20) . . .
388(20) . . .
403(20) . . .
416(20) . . .
402(20) . . .
393(20) . . .
398(20) . . .
366(19) . . .
395(20) . . .
364(19) . . .
393(20) . . .
375(19) . . .
397(20) . . .
400(20) . . .
395(20) . . .
409(20) . . .
357(19) . . .
384(20) . . .
383(20) . . .
386(20) . . .
381(20) . . .
405(20) . . .
380(19) . . .
410(20) . . .
395(20) . . .
387(20) . . .
396(20) . . .
390(20) . . .
371(19) . . .
382(20) . . .
367(19) . . .
385(20) . . .
380(19) . . .
411(20) . . .
387(20) . . .
398(20) . . .
406(20) . . .
377(19) . . .
382(20) . . .
423(21) . . .
404(20) . . .
367(19) . . .
380(19) . . .
371(19) . . .
401(20) . . .
383(20) . . .
415(20) . . .
368(19) . . .
388(20) . . .
401(20) . . .
394(20) . . .
423(21) . . .
405(20) . . .
409(20) . . .
386(20) . . .
407(20) . . .
398(20) . . .
432(21) . . .
406(20) . . .
398(20) . . .
412(20) . . .
422(21) . . .
419(20) . . .
410(20) . . .
408(20) . . .
428(21) . . .
411(20) . . .
415(20) . . .
404(20) . . .
422(21) . . .
424(21) . . .
434(21) . . .
402(20) . . .
422(21) . . .
420(20) . . .
421(21) . . .
403(20) . . .
401(20) . . .
410(20) . . .
432(21) . . .
414(20) . . .
417(20) . . .
413(20) . . .
435(21) . . .
431(21) . . .
414(20) . . .
448(21) . . .
407(20) . . .
408(20) . . .
428(21) . . .
390(20) . . .
408(20) . . .
391(20) . . .
419(20) . . .
456(21) . . .
423(21) . . .
417(20) . . .
456(21) . . .
447(21) . . .
405(20) . . .
411(20) . . .
432(21) . . .
436(21) . . .
438(21) . . .
412(20) . . .
414(20) . . .
441(21) . . .
472(22) . . .
460(21) . . .
432(21) . . .
414(20) . . .
446(21) . . .
479(22) . . .
470(22) . . .
476(22) . . .
465(22) . . .
443(21) . . .
451(21) . . .
475(22) . . .
422(21) . . .
426(21) . . .
444(21) . . .
459(21) . . .
435(21) . . .
453(21) . . .
446(21) . . .
478(22) . . .
460(21) . . .
470(22) . . .
459(21) . . .
450(21) . . .
483(22) . . .
451(21) . . .
460(21) . . .
466(22) . . .
456(21) . . .
455(21) . . .
464(22) . . .
484(22) . . .
484(22) . . .
513(23) . . .
453(21) . . .
500(22) . . .
447(21) . . .
522(23) . . .
475(22) . . .
504(22) . . .
482(22) . . .
521(23) . . .
521(23) . . .
546(23) . . .
473(22) . . .
522(23) . . .
512(23) . . .
510(23) . . .
516(23) . . .
507(23) . . .
568(24) . . .
544(23) . . .
535(23) . . .
515(23) . . .
546(23) . . .
563(24) . . .
556(24) . . .
584(24) . . .
614(25) . . .
577(24) . . .
584(24) . . .
605(25) . . .
614(25) . . .
608(25) . . .
646(25) . . .
667(26) . . .
679(26) . . .
698(26) . . .
738(27) . . .
768(28) . . .
742(27) . . .
809(28) . . .
770(28) . . .
866(29) . . .
872(30) . . .
886(30) . . .
959(31) . . .
1070(33) . . .
1064(33) . . .
1154(34) . . .
1203(35) . . .
1278(36) . . .
1387(37) . . .
1473(38) . . .
1671(41) . . .
1779(42) . . .
1947(44) . . .
2187(47) . . .
2445(49) . . .
2833(53) . . .
3268(57) . . .
3625(60) . . .
4201(65) . . .
5113(72) . . .
5986(77) . . .
7079(84) . . .
8791(94) . . .
10500(100) . . .
12790(110) . . .
16020(130) . . .
18690(140) . . .
21810(150) . . .
24180(160) . . .
25500(160) . . .
25730(160) . . .
24550(160) . . .
22020(150) . . .
19000(140) . . .
15760(130) . . .
12890(110) . . .
10680(100) . . .
8697(93) . . .
7093(84) . . .
5889(77) . . .
5113(72) . . .
4341(66) . . .
3537(59) . . .
3144(56) . . .
2719(52) . . .
2532(50) . . .
2202(47) . . .
1970(44) . . .
1745(42) . . .
1549(39) . . .
1488(39) . . .
1408(38) . . .
1262(36) . . .
1150(34) . . .
1122(33) . . .
1071(33) . . .
1012(32) . . .
948(31) . . .
911(30) . . .
822(29) . . .
827(29) . . .
855(29) . . .
860(29) . . .
770(28) . . .
752(27) . . .
771(28) . . .
705(27) . . .
706(27) . . .
693(26) . . .
703(27) . . .
633(25) . . .
585(24) . . .
628(25) . . .
600(24) . . .
649(25) . . .
622(25) . . .
611(25) . . .
572(24) . . .
557(24) . . .
557(24) . . .
585(24) . . .
542(23) . . .
549(23) . . .
557(24) . . .
558(24) . . .
555(24) . . .
550(23) . . .
496(22) . . .
529(23) . . .
540(23) . . .
521(23) . . .
532(23) . . .
499(22) . . .
486(22) . . .
495(22) . . .
495(22) . . .
523(23) . . .
486(22) . . .
512(23) . . .
479(22) . . .
497(22) . . .
546(23) . . .
465(22) . . .
484(22) . . .
480(22) . . .
462(21) . . .
501(22) . . .
465(22) . . .
451(21) . . .
474(22) . . .
458(21) . . .
498(22) . . .
488(22) . . .
462(21) . . .
514(23) . . .
438(21) . . .
497(22) . . .
481(22) . . .
435(21) . . .
455(21) . . .
441(21) . . .
472(22) . . .
457(21) . . .
452(21) . . .
477(22) . . .
443(21) . . .
440(21) . . .
488(22) . . .
461(21) . . .
467(22) . . .
452(21) . . .
467(22) . . .
450(21) . . .
505(22) . . .
455(21) . . .
479(22) . . .
486(22) . . .
469(22) . . .
423(21) . . .
417(20) . . .
459(21) . . .
469(22) . . .
462(21) . . .
441(21) . . .
405(20) . . .
427(21) . . .
462(21) . . .
465(22) . . .
444(21) . . .
418(20) . . .
428(21) . . .
438(21) . . .
455(21) . . .
464(22) . . .
469(22) . . .
437(21) . . .
462(21) . . .
448(21) . . .
446(21) . . .
412(20) . . .
472(22) . . .
400(20) . . .
470(22) . . .
419(20) . . .
441(21) . . .
435(21) . . .
448(21) . . .
421(21) . . .
473(22) . . .
465(22) . . .
450(21) . . .
469(22) . . .
436(21) . . .
442(21) . . .
437(21) . . .
449(21) . . .
462(21) . . .
423(21) . . .
467(22) . . .
466(22) . . .
439(21) . . .
449(21) . . .
447(21) . . .
463(22) . . .
443(21) . . .
479(22) . . .
446(21) . . .
494(22) . . .
467(22) . . .
453(21) . . .
474(22) . . .
513(23) . . .
466(22) . . .
480(22) . . .
467(22) . . .
498(22) . . .
494(22) . . .
471(22) . . .
493(22) . . .
490(22) . . .
504(22) . . .
501(22) . . .
491(22) . . .
474(22) . . .
525(23) . . .
472(22) . . .
487(22) . . .
476(22) . . .
477(22) . . .
460(21) . . .
454(21) . . .
485(22) . . .
475(22) . . .
478(22) . . .
470(22) . . .
480(22) . . .
470(22) . . .
427(21) . . .
464(22) . . .
485(22) . . .
492(22) . . .
474(22) . . .
438(21) . . .
475(22) . . .
467(22) . . .
462(21) . . .
433(21) . . .
448(21) . . .
482(22) . . .
504(22) . . .
462(21) . . .
463(22) . . .
463(22) . . .
460(21) . . .
431(21) . . .
497(22) . . .
492(22) . . .
423(21) . . .
517(23) . . .
459(21) . . .
461(21) . . .
420(20) . . .
470(22) . . .
443(21) . . .
442(21) . . .
436(21) . . .
416(20) . . .
444(21) . . .
465(22) . . .
448(21) . . .
445(21) . . .
445(21) . . .
454(21) . . .
472(22) . . .
450(21) . . .
433(21) . . .
442(21) . . .
419(20) . . .
438(21) . . .
479(22) . . .
462(21) . . .
459(21) . . .
475(22) . . .
475(22) . . .
476(22) . . .
443(21) . . .
415(20) . . .
438(21) . . .
447(21) . . .
469(22) . . .
434(21) . . .
444(21) . . .
454(21) . . .
498(22) . . .
452(21) . . .
475(22) . . .
472(22) . . .
444(21) . . .
469(22) . . .
471(22) . . .
436(21) . . .
478(22) . . .
453(21) . . .
503(22) . . .
462(21) . . .
450(21) . . .
482(22) . . .
471(22) . . .
450(21) . . .
504(22) . . .
498(22) . . .
430(21) . . .
498(22) . . .
481(22) . . .
498(22) . . .
504(22) . . .
491(22) . . .
500(22) . . .
497(22) . . .
527(23) . . .
509(23) . . .
535(23) . . .
531(23) . . .
497(22) . . .
468(22) . . .
469(22) . . .
518(23) . . .
517(23) . . .
518(23) . . .
518(23) . . .
513(23) . . .
536(23) . . .
523(23) . . .
508(23) . . .
490(22) . . .
517(23) . . .
534(23) . . .
499(22) . . .
482(22) . . .
516(23) . . .
526(23) . . .
515(23) . . .
523(23) . . .
482(22) . . .
528(23) . . .
479(22) . . .
532(23) . . .
539(23) . . .
544(23) . . .
512(23) . . .
542(23) . . .
574(24) . . .
563(24) . . .
564(24) . . .
550(23) . . .
524(23) . . .
562(24) . . .
585(24) . . .
586(24) . . .
563(24) . . .
581(24) . . .
582(24) . . .
602(25) . . .
577(24) . . .
568(24) . . .
602(25) . . .
622(25) . . .
585(24) . . .
591(24) . . .
617(25) . . .
639(25) . . .
633(25) . . .
638(25) . . .
681(26) . . .
666(26) . . .
633(25) . . .
671(26) . . .
710(27) . . .
682(26) . . .
756(27) . . .
740(27) . . .
737(27) . . .
739(27) . . .
749(27) . . .
726(27) . . .
816(29) . . .
854(29) . . .
875(30) . . .
846(29) . . .
895(30) . . .
938(31) . . .
998(32) . . .
1057(33) . . .
1131(34) . . .
1121(33) . . .
1177(34) . . .
1301(36) . . .
1360(37) . . .
1530(39) . . .
1538(39) . . .
1698(41) . . .
1808(43) . . .
2007(45) . . .
2228(47) . . .
2548(50) . . .
2778(53) . . .
3082(56) . . .
3518(59) . . .
4039(64) . . .
4826(69) . . .
5535(74) . . .
6595(81) . . .
7841(89) . . .
9611(98) . . .
11840(110) . . .
15020(120) . . .
18000(130) . . .
21920(150) . . .
26010(160) . . .
29580(170) . . .
31630(180) . . .
32900(180) . . .
32260(180) . . .
29880(170) . . .
26310(160) . . .
22030(150) . . .
18200(140) . . .
14640(120) . . .
11780(110) . . .
9470(97) . . .
7710(88) . . .
6554(81) . . .
5504(74) . . .
4672(68) . . .
4152(64) . . .
3671(61) . . .
3091(56) . . .
2826(53) . . .
2601(51) . . .
2313(48) . . .
2124(46) . . .
1814(43) . . .
1708(41) . . .
1589(40) . . .
1474(38) . . .
1380(37) . . .
1288(36) . . .
1184(34) . . .
1112(33) . . .
1125(34) . . .
1011(32) . . .
989(31) . . .
912(30) . . .
913(30) . . .
881(30) . . .
850(29) . . .
762(28) . . .
815(29) . . .
760(28) . . .
729(27) . . .
761(28) . . .
702(26) . . .
677(26) . . .
666(26) . . .
688(26) . . .
631(25) . . .
627(25) . . .
659(26) . . .
649(25) . . .
632(25) . . .
592(24) . . .
613(25) . . .
584(24) . . .
614(25) . . .
591(24) . . .
543(23) . . .
572(24) . . .
584(24) . . .
546(23) . . .
537(23) . . .
535(23) . . .
571(24) . . .
536(23) . . .
523(23) . . .
494(22) . . .
479(22) . . .
519(23) . . .
529(23) . . .
502(22) . . .
521(23) . . .
522(23) . . .
509(23) . . .
499(22) . . .
510(23) . . .
518(23) . . .
482(22) . . .
490(22) . . .
521(23) . . .
475(22) . . .
500(22) . . .
481(22) . . .
519(23) . . .
475(22) . . .
456(21) . . .
455(21) . . .
483(22) . . .
459(21) . . .
447(21) . . .
450(21) . . .
454(21) . . .
499(22) . . .
448(21) . . .
481(22) . . .
439(21) . . .
435(21) . . .
449(21) . . .
476(22) . . .
436(21) . . .
483(22) . . .
474(22) . . .
470(22) . . .
441(21) . . .
474(22) . . .
481(22) . . .
446(21) . . .
469(22) . . .
460(21) . . .
473(22) . . .
474(22) . . .
429(21) . . .
446(21) . . .
440(21) . . .
494(22) . . .
457(21) . . .
424(21) . . .
414(20) . . .
447(21) . . .
441(21) . . .
438(21) . . .
419(20) . . .
438(21) . . .
416(20) . . .
433(21) . . .
422(21) . . .
452(21) . . .
418(20) . . .
421(21) . . .
447(21) . . .
427(21) . . .
419(20) . . .
429(21) . . .
402(20) . . .
389(20) . . .
408(20) . . .
439(21) . . .
411(20) . . .
412(20) . . .
419(20) . . .
434(21) . . .
426(21) . . .
403(20) . . .
435(21) . . .
433(21) . . .
409(20) . . .
392(20) . . .
434(21) . . .
423(21) . . .
398(20) . . .
411(20) . . .
404(20) . . .
428(21) . . .
418(20) . . .
414(20) . . .
395(20) . . .
431(21) . . .
402(20) . . .
422(21) . . .
397(20) . . .
401(20) . . .
407(20) . . .
446(21) . . .
416(20) . . .
388(20) . . .
396(20) . . .
432(21) . . .
393(20) . . .
410(20) . . .
411(20) . . .
419(20) . . .
422(21) . . .
385(20) . . .
404(20) . . .
428(21) . . .
398(20) . . .
400(20) . . .
399(20) . . .
410(20) . . .
408(20) . . .
403(20) . . .
425(21) . . .
418(20) . . .
386(20) . . .
395(20) . . .
414(20) . . .
406(20) . . .
385(20) . . .
409(20) . . .
415(20) . . .
384(20) . . .
436(21) . . .
395(20) . . .
382(20) . . .
406(20) . . .
427(21) . . .
365(19) . . .
399(20) . . .
400(20) . . .
404(20) . . .
415(20) . . .
384(20) . . .
404(20) . . .
410(20) . . .
389(20) . . .
380(19) . . .
393(20) . . .
390(20) . . .
424(21) . . .
387(20) . . .
382(20) . . .
376(19) . . .
440(21) . . .
406(20) . . .
377(19) . . .
369(19) . . .
390(20) . . .
401(20) . . .
390(20) . . .
395(20) . . .
393(20) . . .
383(20) . . .
349(19) . . .
402(20) . . .
415(20) . . .
374(19) . . .
418(20) . . .
373(19) . . .
400(20) . . .
400(20) . . .
405(20) . . .
377(19) . . .
355(19) . . .
372(19) . . .
355(19) . . .
392(20) . . .
391(20) . . .
415(20) . . .
385(20) . . .
400(20) . . .
355(19) . . .
407(20) . . .
368(19) . . .
390(20) . . .
365(19) . . .
364(19) . . .
382(20) . . .
422(21) . . .
367(19) . . .
401(20) . . .
378(19) . . .
373(19) . . .
382(20) . . .
364(19) . . .
383(20) . . .
365(19) . . .
373(19) . . .
351(19) . . .
367(19) . . .
370(19) . . .
384(20) . . .
363(19) . . .
409(20) . . .
350(19) . . .
385(20) . . .
432(21) . . .
357(19) . . .
358(19) . . .
390(20) . . .
377(19) . . .
350(19) . . .
359(19) . . .
381(20) . . .
376(19) . . .
338(18) . . .
369(19) . . .
390(20) . . .
382(20) . . .
344(19) . . .
382(20) . . .
367(19) . . .
370(19) . . .
357(19) . . .
342(18) . . .
365(19) . . .
378(19) . . .
398(20) . . .
336(18) . . .
369(19) . . .
360(19) . . .
374(19) . . .
360(19) . . .
387(20) . . .
359(19) . . .
391(20) . . .
397(20) . . .
341(18) . . .
346(19) . . .
387(20) . . .
317(18) . . .
343(19) . . .
366(19) . . .
373(19) . . .
308(18) . . .
359(19) . . .
363(19) . . .
348(19) . . .
362(19) . . .
369(19) . . .
373(19) . . .
371(19) . . .
353(19) . . .
362(19) . . .
357(19) . . .
369(19) . . .
379(19) . . .
379(19) . . .
383(20) . . .
363(19) . . .
353(19) . . .
347(19) . . .
364(19) . . .
343(19) . . .
369(19) . . .
357(19) . . .
346(19) . . .
338(18) . . .
381(20) . . .
364(19) . . .
372(19) . . .
377(19) . . .
374(19) . . .
351(19) . . .
344(19) . . .
345(19) . . .
359(19) . . .
329(18) . . .
360(19) . . .
379(19) . . .
359(19) . . .
349(19) . . .
366(19) . . .
374(19) . . .
342(18) . . .
318(18) . . .
375(19) . . .
375(19) . . .
349(19) . . .
376(19) . . .
349(19) . . .
360(19) . . .
353(19) . . .
380(19) . . .
389(20) . . .
344(19) . . .
374(19) . . .
358(19) . . .
376(19) . . .
351(19) . . .
356(19) . . .
373(19) . . .
348(19) . . .
377(19) . . .
373(19) . . .
363(19) . . .
365(19) . . .
369(19) . . .
363(19) . . .
365(19) . . .
332(18) . . .
344(19) . . .
363(19) . . .
374(19) . . .
351(19) . . .
352(19) . . .
335(18) . . .
355(19) . . .
370(19) . . .
371(19) . . .
358(19) . . .
356(19) . . .
338(18) . . .
365(19) . . .
360(19) . . .
344(19) . . .
365(19) . . .
338(18) . . .
341(18) . . .
330(18) . . .
341(18) . . .
317(18) . . .
356(19) . . .
358(19) . . .
328(18) . . .
374(19) . . .
335(18) . . .
352(19) . . .
327(18) . . .
352(19) . . .
347(19) . . .
363(19) . . .
315(18) . . .
339(18) . . .
355(19) . . .
356(19) . . .
354(19) . . .
358(19) . . .
348(19) . . .
337(18) . . .
324(18) . . .
342(18) . . .
319(18) . . .
334(18) . . .
326(18) . . .
320(18) . . .
346(19) . . .
340(18) . . .
320(18) . . .
349(19) . . .
338(18) . . .
323(18) . . .
331(18) . . .
330(18) . . .
370(19) . . .
340(18) . . .
346(19) . . .
361(19) . . .
308(18) . . .
316(18) . . .
310(18) . . .
353(19) . . .
341(18) . . .
359(19) . . .
339(18) . . .
355(19) . . .
315(18) . . .
353(19) . . .
346(19) . . .
316(18) . . .
327(18) . . .
332(18) . . .
363(19) . . .
322(18) . . .
347(19) . . .
344(19) . . .
329(18) . . .
341(18) . . .
336(18) . . .
340(18) . . .
355(19) . . .
365(19) . . .
340(18) . . .
332(18) . . .
313(18) . . .
306(17) . . .
337(18) . . .
354(19) . . .
353(19) . . .
340(18) . . .
317(18) . . .
322(18) . . .
349(19) . . .
321(18) . . .
323(18) . . .
308(18) . . .
343(19) . . .
339(18) . . .
378(19) . . .
338(18) . . .
343(19) . . .
336(18) . . .
327(18) . . .
315(18) . . .
337(18) . . .
324(18) . . .
369(19) . . .
333(18) . . .
362(19) . . .
351(19) . . .
370(19) . . .
327(18) . . .
350(19) . . .
325(18) . . .
317(18) . . .
319(18) . . .
328(18) . . .
340(18) . . .
353(19) . . .
344(19) . . .
367(19) . . .
333(18) . . .
347(19) . . .
348(19) . . .
337(18) . . .
329(18) . . .
365(19) . . .
325(18) . . .
321(18) . . .
374(19) . . .
345(19) . . .
339(18) . . .
322(18) . . .
315(18) . . .
360(19) . . .
291(17) . . .
329(18) . . .
339(18) . . .
315(18) . . .
311(18) . . .
340(18) . . .
328(18) . . .
335(18) . . .
314(18) . . .
363(19) . . .
323(18) . . .
360(19) . . .
323(18) . . .
328(18) . . .
331(18) . . .
316(18) . . .
346(19) . . .
322(18) . . .
321(18) . . .
338(18) . . .
325(18) . . .
324(18) . . .
339(18) . . .
343(19) . . .
349(19) . . .
352(19) . . .
337(18) . . .
337(18) . . .
305(17) . . .
340(18) . . .
341(18) . . .
339(18) . . .
365(19) . . .
332(18) . . .
333(18) . . .
345(19) . . .
325(18) . . .
330(18) . . .
302(17) . . .
337(18) . . .
335(18) . . .
319(18) . . .
325(18) . . .
278(17) . . .
329(18) . . .
346(19) . . .
320(18) . . .
308(18) . . .
347(19) . . .
329(18) . . .
321(18) . . .
343(19) . . .
314(18) . . .
351(19) . . .
331(18) . . .
314(18) . . .
304(17) . . .
338(18) . . .
318(18) . . .
339(18) . . .
303(17) . . .
352(19) . . .
358(19) . . .
337(18) . . .
320(18) . . .
345(19) . . .
342(18) . . .
325(18) . . .
316(18) . . .
331(18) . . .
308(18) . . .
328(18) . . .
312(18) . . .
319(18) . . .
349(19) . . .
320(18) . . .
308(18) . . .
303(17) . . .
335(18) . . .
348(19) . . .
333(18) . . .
321(18) . . .
324(18) . . .
339(18) . . .
319(18) . . .
333(18) . . .
319(18) . . .
361(19) . . .
367(19) . . .
336(18) . . .
315(18) . . .
340(18) . . .
334(18) . . .
345(19) . . .
314(18) . . .
352(19) . . .
333(18) . . .
348(19) . . .
367(19) . . .
331(18) . . .
345(19) . . .
326(18) . . .
333(18) . . .
316(18) . . .
345(19) . . .
350(19) . . .
329(18) . . .
327(18) . . .
334(18) . . .
325(18) . . .
338(18) . . .
369(19) . . .
333(18) . . .
335(18) . . .
342(18) . . .
347(19) . . .
347(19) . . .
329(18) . . .
308(18) . . .
359(19) . . .
348(19) . . .
337(18) . . .
310(18) . . .
333(18) . . .
316(18) . . .
309(18) . . .
300(17) . . .
339(18) . . .
302(17) . . .
336(18) . . .
349(19) . . .
339(18) . . .
324(18) . . .
330(18) . . .
323(18) . . .
310(18) . . .
339(18) . . .
317(18) . . .
316(18) . . .
318(18) . . .
329(18) . . .
338(18) . . .
321(18) . . .
302(17) . . .
326(18) . . .
345(19) . . .
344(19) . . .
315(18) . . .
337(18) . . .
306(17) . . .
331(18) . . .
308(18) . . .
322(18) . . .
354(19) . . .
330(18) . . .
344(19) . . .
326(18) . . .
303(17) . . .
327(18) . . .
311(18) . . .
310(18) . . .
338(18) . . .
307(18) . . .
335(18) . . .
318(18) . . .
318(18) . . .
327(18) . . .
324(18) . . .
323(18) . . .
341(18) . . .
314(18) . . .
317(18) . . .
352(19) . . .
333(18) . . .
352(19) . . .
349(19) . . .
311(18) . . .
335(18) . . .
342(18) . . .
363(19) . . .
319(18) . . .
298(17) . . .
326(18) . . .
321(18) . . .
294(17) . . .
303(17) . . .
357(19) . . .
317(18) . . .
382(20) . . .
310(18) . . .
354(19) . . .
311(18) . . .
351(19) . . .
335(18) . . .
328(18) . . .
325(18) . . .
346(19) . . .
346(19) . . .
341(18) . . .
319(18) . . .
335(18) . . .
324(18) . . .
345(19) . . .
314(18) . . .
330(18) . . .
328(18) . . .
323(18) . . .
306(17) . . .
308(18) . . .
299(17) . . .
320(18) . . .
327(18) . . .
342(18) . . .
333(18) . . .
284(17) . . .
299(17) . . .
309(18) . . .
309(18) . . .
331(18) . . .
317(18) . . .
333(18) . . .
298(17) . . .
313(18) . . .
335(18) . . .
305(17) . . .
315(18) . . .
324(18) . . .
294(17) . . .
319(18) . . .
321(18) . . .
337(18) . . .
350(19) . . .
298(17) . . .
302(17) . . .
328(18) . . .
318(18) . . .
291(17) . . .
307(18) . . .
310(18) . . .
299(17) . . .
298(17) . . .
334(18) . . .
290(17) . . .
302(17) . . .
299(17) . . .
316(18) . . .
314(18) . . .
318(18) . . .
321(18) . . .
335(18) . . .
323(18) . . .
331(18) . . .
314(18) . . .
331(18) . . .
318(18) . . .
317(18) . . .
320(18) . . .
298(17) . . .
321(18) . . .
326(18) . . .
327(18) . . .
316(18) . . .
283(17) . . .
292(17) . . .
314(18) . . .
306(17) . . .
319(18) . . .
324(18) . . .
313(18) . . .
311(18) . . .
327(18) . . .
296(17) . . .
306(17) . . .
301(17) . . .
330(18) . . .
298(17) . . .
313(18) . . .
284(17) . . .
336(18) . . .
324(18) . . .
331(18) . . .
314(18) . . .
306(17) . . .
315(18) . . .
302(17) . . .
288(17) . . .
306(17) . . .
300(17) . . .
299(17) . . .
324(18) . . .
296(17) . . .
296(17) . . .
289(17) . . .
329(18) . . .
310(18) . . .
325(18) . . .
321(18) . . .
305(17) . . .
318(18) . . .
295(17) . . .
306(17) . . .
294(17) . . .
324(18) . . .
314(18) . . .
294(17) . . .
333(18) . . .
304(17) . . .
286(17) . . .
316(18) . . .
292(17) . . .
311(18) . . .
304(17) . . .
309(18) . . .
288(17) . . .
315(18) . . .
314(18) . . .
317(18) . . .
304(17) . . .
327(18) . . .
314(18) . . .
293(17) . . .
340(18) . . .
280(17) . . .
300(17) . . .
292(17) . . .
288(17) . . .
291(17) . . .
295(17) . . .
317(18) . . .
340(18) . . .
312(18) . . .
292(17) . . .
304(17) . . .
307(18) . . .
299(17) . . .
324(18) . . .
312(18) . . .
305(17) . . .
296(17) . . .
297(17) . . .
315(18) . . .
278(17) . . .
289(17) . . .
312(18) . . .
318(18) . . .
315(18) . . .
292(17) . . .
317(18) . . .
317(18) . . .
296(17) . . .
299(17) . . .
272(16) . . .
290(17) . . .
314(18) . . .
317(18) . . .
327(18) . . .
300(17) . . .
322(18) . . .
316(18) . . .
292(17) . . .
306(17) . . .
304(17) . . .
324(18) . . .
311(18) . . .
285(17) . . .
301(17) . . .
279(17) . . .
296(17) . . .
301(17) . . .
355(19) . . .
303(17) . . .
320(18) . . .
293(17) . . .
306(17) . . .
312(18) . . .
302(17) . . .
305(17) . . .
322(18) . . .
306(17) . . .
308(18) . . .
289(17) . . .
300(17) . . .
317(18) . . .
304(17) . . .
301(17) . . .
321(18) . . .
311(18) . . .
312(18) . . .
292(17) . . .
315(18) . . .
305(17) . . .
292(17) . . .
299(17) . . .
295(17) . . .
299(17) . . .
309(18) . . .
298(17) . . .
289(17) . . .
283(17) . . .
280(17) . . .
317(18) . . .
323(18) . . .
303(17) . . .
298(17) . . .
305(17) . . .
306(17) . . .
310(18) . . .
289(17) . . .
295(17) . . .
275(17) . . .
279(17) . . .
334(18) . . .
298(17) . . .
280(17) . . .
315(18) . . .
325(18) . . .
304(17) . . .
311(18) . . .
310(18) . . .
282(17) . . .
298(17) . . .
309(18) . . .
335(18) . . .
292(17) . . .
302(17) . . .
317(18) . . .
301(17) . . .
298(17) . . .
319(18) . . .
303(17) . . .
291(17) . . .
316(18) . . .
290(17) . . .
306(17) . . .
295(17) . . .
287(17) . . .
295(17) . . .
294(17) . . .
295(17) . . .
297(17) . . .
297(17) . . .
316(18) . . .
275(17) . . .
301(17) . . .
281(17) . . .
307(18) . . .
320(18) . . .
303(17) . . .
313(18) . . .
315(18) . . .
263(16) . . .
312(18) . . .
293(17) . . .
306(17) . . .
292(17) . . .
300(17) . . .
318(18) . . .
313(18) . . .
280(17) . . .
318(18) . . .
308(18) . . .
314(18) . . .
275(17) . . .
276(17) . . .
342(18) . . .
300(17) . . .
304(17) . . .
296(17) . . .
329(18) . . .
297(17) . . .
290(17) . . .
315(18) . . .
317(18) . . .
296(17) . . .
315(18) . . .
295(17) . . .
306(17) . . .
311(18) . . .
300(17) . . .
299(17) . . .
299(17) . . .
315(18) . . .
286(17) . . .
260(16) . . .
308(18) . . .
309(18) . . .
316(18) . . .
323(18) . . .
300(17) . . .
308(18) . . .
292(17) . . .
327(18) . . .
347(19) . . .
303(17) . . .
303(17) . . .
285(17) . . .
325(18) . . .
314(18) . . .
292(17) . . .
305(17) . . .
332(18) . . .
300(17) . . .
328(18) . . .
305(17) . . .
300(17) . . .
320(18) . . .
327(18) . . .
312(18) . . .
338(18) . . .
296(17) . . .
309(18) . . .
302(17) . . .
288(17) . . .
299(17) . . .
328(18) . . .
341(18) . . .
332(18) . . .
319(18) . . .
342(18) . . .
344(19) . . .
322(18) . . .
326(18) . . .
329(18) . . .
351(19) . . .
362(19) . . .
357(19) . . .
344(19) . . .
369(19) . . .
339(18) . . .
342(18) . . .
362(19) . . .
387(20) . . .
369(19) . . .
324(18) . . .
353(19) . . .
357(19) . . .
371(19) . . .
327(18) . . .
324(18) . . .
351(19) . . .
332(18) . . .
340(18) . . .
348(19) . . .
342(18) . . .
323(18) . . .
348(19) . . .
296(17) . . .
297(17) . . .
307(18) . . .
331(18) . . .
350(19) . . .
336(18) . . .
331(18) . . .
308(18) . . .
320(18) . . .
326(18) . . .
323(18) . . .
334(18) . . .
315(18) . . .
310(18) . . .
296(17) . . .
326(18) . . .
317(18) . . .
302(17) . . .
319(18) . . .
308(18) . . .
322(18) . . .
308(18) . . .
312(18) . . .
295(17) . . .
293(17) . . .
333(18) . . .
311(18) . . .
299(17) . . .
294(17) . . .
305(17) . . .
324(18) . . .
311(18) . . .
334(18) . . .
317(18) . . .
333(18) . . .
338(18) . . .
302(17) . . .
298(17) . . .
290(17) . . .
300(17) . . .
339(18) . . .
324(18) . . .
332(18) . . .
328(18) . . .
290(17) . . .
322(18) . . .
329(18) . . .
306(17) . . .
319(18) . . .
308(18) . . .
308(18) . . .
304(17) . . .
307(18) . . .
307(18) . . .
315(18) . . .
339(18) . . .
313(18) . . .
309(18) . . .
356(19) . . .
307(18) . . .
330(18) . . .
356(19) . . .
304(17) . . .
328(18) . . .
311(18) . . .
318(18) . . .
334(18) . . .
358(19) . . .
318(18) . . .
335(18) . . .
347(19) . . .
365(19) . . .
336(18) . . .
348(19) . . .
355(19) . . .
312(18) . . .
326(18) . . .
320(18) . . .
364(19) . . .
346(19) . . .
352(19) . . .
339(18) . . .
353(19) . . .
327(18) . . .
347(19) . . .
344(19) . . .
340(18) . . .
318(18) . . .
362(19) . . .
326(18) . . .
354(19) . . .
344(19) . . .
326(18) . . .
358(19) . . .
377(19) . . .
349(19) . . .
370(19) . . .
334(18) . . .
361(19) . . .
365(19) . . .
332(18) . . .
328(18) . . .
319(18) . . .
317(18) . . .
339(18) . . .
319(18) . . .
334(18) . . .
324(18) . . .
365(19) . . .
344(19) . . .
308(18) . . .
330(18) . . .
316(18) . . .
395(20) . . .
329(18) . . .
336(18) . . .
334(18) . . .
330(18) . . .
343(19) . . .
352(19) . . .
319(18) . . .
320(18) . . .
303(17) . . .
330(18) . . .
310(18) . . .
309(18) . . .
335(18) . . .
334(18) . . .
314(18) . . .
316(18) . . .
315(18) . . .
349(19) . . .
313(18) . . .
330(18) . . .
316(18) . . .
309(18) . . .
322(18) . . .
314(18) . . .
316(18) . . .
305(17) . . .
307(18) . . .
297(17) . . .
330(18) . . .
312(18) . . .
314(18) . . .
322(18) . . .
316(18) . . .
319(18) . . .
325(18) . . .
327(18) . . .
321(18) . . .
300(17) . . .
328(18) . . .
341(18) . . .
314(18) . . .
368(19) . . .
313(18) . . .
324(18) . . .
338(18) . . .
340(18) . . .
297(17) . . .
341(18) . . .
318(18) . . .
331(18) . . .
338(18) . . .
298(17) . . .
315(18) . . .
319(18) . . .
356(19) . . .
330(18) . . .
310(18) . . .
343(19) . . .
323(18) . . .
313(18) . . .
332(18) . . .
306(17) . . .
320(18) . . .
347(19) . . .
327(18) . . .
335(18) . . .
313(18) . . .
333(18) . . .
337(18) . . .
313(18) . . .
311(18) . . .
328(18) . . .
352(19) . . .
347(19) . . .
345(19) . . .
319(18) . . .
337(18) . . .
318(18) . . .
330(18) . . .
320(18) . . .
309(18) . . .
313(18) . . .
321(18) . . .
310(18) . . .
327(18) . . .
339(18) . . .
326(18) . . .
328(18) . . .
306(17) . . .
305(17) . . .
327(18) . . .
328(18) . . .
338(18) . . .
322(18) . . .
309(18) . . .
348(19) . . .
323(18) . . .
321(18) . . .
320(18) . . .
285(17) . . .
299(17) . . .
335(18) . . .
313(18) . . .
306(17) . . .
324(18) . . .
318(18) . . .
313(18) . . .
327(18) . . .
331(18) . . .
346(19) . . .
320(18) . . .
327(18) . . .
323(18) . . .
345(19) . . .
336(18) . . .
344(19) . . .
336(18) . . .
330(18) . . .
333(18) . . .
309(18) . . .
333(18) . . .
298(17) . . .
331(18) . . .
330(18) . . .
319(18) . . .
310(18) . . .
348(19) . . .
297(17) . . .
314(18) . . .
341(18) . . .
331(18) . . .
347(19) . . .
335(18) . . .
339(18) . . .
317(18) . . .
352(19) . . .
315(18) . . .
319(18) . . .
335(18) . . .
349(19) . . .
302(17) . . .
337(18) . . .
334(18) . . .
338(18) . . .
304(17) . . .
329(18) . . .
337(18) . . .
312(18) . . .
328(18) . . .
345(19) . . .
342(18) . . .
352(19) . . .
327(18) . . .
327(18) . . .
347(19) . . .
357(19) . . .
379(19) . . .
352(19) . . .
361(19) . . .
354(19) . . .
352(19) . . .
362(19) . . .
328(18) . . .
350(19) . . .
380(19) . . .
366(19) . . .
365(19) . . .
377(19) . . .
338(18) . . .
343(19) . . .
397(20) . . .
350(19) . . .
349(19) . . .
379(19) . . .
331(18) . . .
365(19) . . .
356(19) . . .
393(20) . . .
346(19) . . .
358(19) . . .
363(19) . . .
358(19) . . .
382(20) . . .
362(19) . . .
378(19) . . .
357(19) . . .
409(20) . . .
371(19) . . .
365(19) . . .
409(20) . . .
408(20) . . .
366(19) . . .
374(19) . . .
391(20) . . .
389(20) . . .
400(20) . . .
398(20) . . .
417(20) . . .
399(20) . . .
364(19) . . .
391(20) . . .
428(21) . . .
463(22) . . .
470(22) . . .
417(20) . . .
454(21) . . .
422(21) . . .
514(23) . . .
425(21) . . .
444(21) . . .
465(22) . . .
411(20) . . .
443(21) . . .
453(21) . . .
475(22) . . .
468(22) . . .
461(21) . . .
483(22) . . .
499(22) . . .
505(22) . . .
509(23) . . .
552(23) . . .
545(23) . . .
556(24) . . .
608(25) . . .
583(24) . . .
614(25) . . .
612(25) . . .
662(26) . . .
681(26) . . .
676(26) . . .
689(26) . . .
758(28) . . .
771(28) . . .
849(29) . . .
880(30) . . .
970(31) . . .
949(31) . . .
1095(33) . . .
1146(34) . . .
1173(34) . . .
1354(37) . . .
1436(38) . . .
1537(39) . . .
1758(42) . . .
1901(44) . . .
2114(46) . . .
2461(50) . . .
2751(52) . . .
3111(56) . . .
3664(61) . . .
4091(64) . . .
4892(70) . . .
5562(75) . . .
6869(83) . . .
7912(89) . . .
9350(97) . . .
10840(100) . . .
12480(110) . . .
13950(120) . . .
15070(120) . . .
15810(130) . . .
15990(130) . . .
15490(120) . . .
14560(120) . . .
13010(110) . . .
11630(110) . . .
9980(100) . . .
8372(91) . . .
6997(84) . . .
5891(77) . . .
4987(71) . . .
4334(66) . . .
3729(61) . . .
3246(57) . . .
2830(53) . . .
2476(50) . . .
2223(47) . . .
1905(44) . . .
1656(41) . . .
1593(40) . . .
1460(38) . . .
1337(37) . . .
1216(35) . . .
1086(33) . . .
1043(32) . . .
943(31) . . .
943(31) . . .
869(29) . . .
850(29) . . .
796(28) . . .
785(28) . . .
705(27) . . .
697(26) . . .
709(27) . . .
646(25) . . .
654(26) . . .
609(25) . . .
576(24) . . .
556(24) . . .
550(23) . . .
577(24) . . .
548(23) . . .
511(23) . . .
507(23) . . .
511(23) . . .
497(22) . . .
481(22) . . .
457(21) . . .
497(22) . . .
441(21) . . .
468(22) . . .
417(20) . . .
462(21) . . .
444(21) . . .
442(21) . . .
426(21) . . .
397(20) . . .
447(21) . . .
409(20) . . .
429(21) . . .
389(20) . . .
409(20) . . .
400(20) . . .
375(19) . . .
412(20) . . .
409(20) . . .
378(19) . . .
396(20) . . .
405(20) . . .
400(20) . . .
357(19) . . .
385(20) . . .
386(20) . . .
377(19) . . .
368(19) . . .
375(19) . . .
364(19) . . .
408(20) . . .
369(19) . . .
380(19) . . .
387(20) . . .
376(19) . . .
344(19) . . .
359(19) . . .
336(18) . . .
379(19) . . .
332(18) . . .
382(20) . . .
409(20) . . .
362(19) . . .
370(19) . . .
376(19) . . .
346(19) . . .
372(19) . . .
378(19) . . .
357(19) . . .
356(19) . . .
348(19) . . .
369(19) . . .
358(19) . . .
334(18) . . .
347(19) . . .
370(19) . . .
359(19) . . .
360(19) . . .
352(19) . . .
363(19) . . .
374(19) . . .
365(19) . . .
338(18) . . .
378(19) . . .
342(18) . . .
359(19) . . .
343(19) . . .
357(19) . . .
345(19) . . .
340(18) . . .
331(18) . . .
315(18) . . .
339(18) . . .
358(19) . . .
330(18) . . .
364(19) . . .
353(19) . . .
350(19) . . .
328(18) . . .
349(19) . . .
344(19) . . .
350(19) . . .
342(18) . . .
370(19) . . .
354(19) . . .
332(18) . . .
349(19) . . .
295(17) . . .
308(18) . . .
317(18) . . .
349(19) . . .
338(18) . . .
336(18) . . .
329(18) . . .
329(18) . . .
331(18) . . .
354(19) . . .
310(18) . . .
300(17) . . .
319(18) . . .
328(18) . . .
357(19) . . .
332(18) . . .
334(18) . . .
326(18) . . .
315(18) . . .
344(19) . . .
340(18) . . .
330(18) . . .
330(18) . . .
328(18) . . .
312(18) . . .
326(18) . . .
338(18) . . .
316(18) . . .
333(18) . . .
313(18) . . .
324(18) . . .
352(19) . . .
345(19) . . .
348(19) . . .
336(18) . . .
313(18) . . .
321(18) . . .
320(18) . . .
314(18) . . .
306(17) . . .
320(18) . . .
317(18) . . .
340(18) . . .
318(18) . . .
309(18) . . .
317(18) . . .
334(18) . . .
320(18) . . .
320(18) . . .
342(18) . . .
333(18) . . .
311(18) . . .
300(17) . . .
297(17) . . .
334(18) . . .
329(18) . . .
319(18) . . .
345(19) . . .
315(18) . . .
329(18) . . .
310(18) . . .
298(17) . . .
313(18) . . .
299(17) . . .
341(18) . . .
331(18) . . .
302(17) . . .
321(18) . . .
333(18) . . .
303(17) . . .
336(18) . . .
309(18) . . .
309(18) . . .
326(18) . . .
313(18) . . .
293(17) . . .
330(18) . . .
310(18) . . .
293(17) . . .
327(18) . . .
317(18) . . .
319(18) . . .
296(17) . . .
318(18) . . .
307(18) . . .
323(18) . . .
308(18) . . .
295(17) . . .
306(17) . . .
316(18) . . .
312(18) . . .
362(19) . . .
361(19) . . .
317(18) . . .
290(17) . . .
306(17) . . .
300(17) . . .
343(19) . . .
290(17) . . .
322(18) . . .
329(18) . . .
335(18) . . .
329(18) . . .
319(18) . . .
307(18) . . .
338(18) . . .
328(18) . . .
314(18) . . .
309(18) . . .
325(18) . . .
323(18) . . .
312(18) . . .
277(17) . . .
306(17) . . .
297(17) . . .
290(17) . . .
310(18) . . .
312(18) . . .
300(17) . . .
305(17) . . .
290(17) . . .
300(17) . . .
299(17) . . .
316(18) . . .
323(18) . . .
320(18) . . .
298(17) . . .
314(18) . . .
306(17) . . .
307(18) . . .
289(17) . . .
273(17) . . .
297(17) . . .
307(18) . . .
286(17) . . .
296(17) . . .
283(17) . . .
298(17) . . .
285(17) . . .
278(17) . . .
291(17) . . .
314(18) . . .
317(18) . . .
325(18) . . .
305(17) . . .
300(17) . . .
307(18) . . .
294(17) . . .
332(18) . . .
293(17) . . .
307(18) . . .
305(17) . . .
312(18) . . .
313(18) . . .
315(18) . . .
303(17) . . .
276(17) . . .
296(17) . . .
317(18) . . .
283(17) . . .
307(18) . . .
299(17) . . .
312(18) . . .
288(17) . . .
289(17) . . .
300(17) . . .
313(18) . . .
313(18) . . .
322(18) . . .
288(17) . . .
283(17) . . .
322(18) . . .
293(17) . . .
299(17) . . .
301(17) . . .
306(17) . . .
312(18) . . .
310(18) . . .
297(17) . . .
304(17) . . .
329(18) . . .
289(17) . . .
290(17) . . .
271(16) . . .
301(17) . . .
287(17) . . .
301(17) . . .
309(18) . . .
302(17) . . .
279(17) . . .
287(17) . . .
301(17) . . .
297(17) . . .
307(18) . . .
296(17) . . .
277(17) . . .
296(17) . . .
317(18) . . .
297(17) . . .
314(18) . . .
323(18) . . .
285(17) . . .
275(17) . . .
283(17) . . .
289(17) . . .
286(17) . . .
289(17) . . .
287(17) . . .
274(17) . . .
304(17) . . .
302(17) . . .
303(17) . . .
291(17) . . .
302(17) . . .
303(17) . . .
303(17) . . .
308(18) . . .
296(17) . . .
316(18) . . .
305(17) . . .
280(17) . . .
293(17) . . .
307(18) . . .
301(17) . . .
288(17) . . .
300(17) . . .
260(16) . . .
305(17) . . .
300(17) . . .
277(17) . . .
255(16) . . .
284(17) . . .
298(17) . . .
288(17) . . .
305(17) . . .
285(17) . . .
297(17) . . .
281(17) . . .
302(17) . . .
307(18) . . .
321(18) . . .
275(17) . . .
316(18) . . .
281(17) . . .
315(18) . . .
298(17) . . .
287(17) . . .
302(17) . . .
302(17) . . .
311(18) . . .
278(17) . . .
262(16) . . .
262(16) . . .
320(18) . . .
274(17) . . .
288(17) . . .
275(17) . . .
294(17) . . .
282(17) . . .
292(17) . . .
274(17) . . .
297(17) . . .
297(17) . . .
288(17) . . .
301(17) . . .
292(17) . . .
297(17) . . .
289(17) . . .
287(17) . . .
299(17) . . .
288(17) . . .
276(17) . . .
291(17) . . .
286(17) . . .
308(18) . . .
256(16) . . .
288(17) . . .
276(17) . . .
287(17) . . .
308(18) . . .
289(17) . . .
255(16) . . .
270(16) . . .
317(18) . . .
260(16) . . .
281(17) . . .
271(16) . . .
284(17) . . .
283(17) . . .
270(16) . . .
278(17) . . .
287(17) . . .
261(16) . . .
322(18) . . .
332(18) . . .
299(17) . . .
275(17) . . .
290(17) . . .
293(17) . . .
299(17) . . .
272(16) . . .
307(18) . . .
305(17) . . .
278(17) . . .
300(17) . . .
300(17) . . .
285(17) . . .
286(17) . . .
305(17) . . .
304(17) . . .
312(18) . . .
280(17) . . .
277(17) . . .
297(17) . . .
300(17) . . .
286(17) . . .
260(16) . . .
274(17) . . .
310(18) . . .
316(18) . . .
299(17) . . .
281(17) . . .
279(17) . . .
285(17) . . .
286(17) . . .
284(17) . . .
273(17) . . .
265(16) . . .
231(15) . . .
273(17) . . .
286(17) . . .
269(16) . . .
290(17) . . .
284(17) . . .
264(16) . . .
295(17) . . .
292(17) . . .
309(18) . . .
296(17) . . .
295(17) . . .
289(17) . . .
284(17) . . .
300(17) . . .
282(17) . . .
270(16) . . .
253(16) . . .
279(17) . . .
273(17) . . .
295(17) . . .
266(16) . . .
274(17) . . .
286(17) . . .
287(17) . . .
269(16) . . .
258(16) . . .
276(17) . . .
272(16) . . .
283(17) . . .
279(17) . . .
302(17) . . .
244(16) . . .
288(17) . . .
281(17) . . .
285(17) . . .
244(16) . . .
277(17) . . .
268(16) . . .
286(17) . . .
261(16) . . .
291(17) . . .
303(17) . . .
287(17) . . .
277(17) . . .
282(17) . . .
278(17) . . .
277(17) . . .
287(17) . . .
265(16) . . .
258(16) . . .
271(16) . . .
267(16) . . .
289(17) . . .
286(17) . . .
276(17) . . .
289(17) . . .
320(18) . . .
303(17) . . .
315(18) . . .
270(16) . . .
282(17) . . .
289(17) . . .
271(16) . . .
280(17) . . .
287(17) . . .
268(16) . . .
281(17) . . .
262(16) . . .
294(17) . . .
289(17) . . .
270(16) . . .
293(17) . . .
263(16) . . .
271(16) . . .
276(17) . . .
262(16) . . .
277(17) . . .
303(17) . . .
304(17) . . .
283(17) . . .
283(17) . . .
288(17) . . .
276(17) . . .
286(17) . . .
308(18) . . .
300(17) . . .
280(17) . . .
258(16) . . .
314(18) . . .
309(18) . . .
294(17) . . .
307(18) . . .
283(17) . . .
291(17) . . .
300(17) . . .
285(17) . . .
281(17) . . .
273(17) . . .
299(17) . . .
274(17) . . .
286(17) . . .
304(17) . . .
302(17) . . .
276(17) . . .
314(18) . . .
310(18) . . .
321(18) . . .
287(17) . . .
319(18) . . .
315(18) . . .
320(18) . . .
328(18) . . .
297(17) . . .
331(18) . . .
323(18) . . .
322(18) . . .
307(18) . . .
286(17) . . .
317(18) . . .
279(17) . . .
313(18) . . .
288(17) . . .
286(17) . . .
308(18) . . .
322(18) . . .
312(18) . . .
325(18) . . .
306(17) . . .
289(17) . . .
310(18) . . .
306(17) . . .
290(17) . . .
265(16) . . .
303(17) . . .
288(17) . . .
286(17) . . .
312(18) . . .
287(17) . . .
294(17) . . .
307(18) . . .
291(17) . . .
298(17) . . .
308(18) . . .
271(16) . . .
298(17) . . .
286(17) . . .
298(17) . . .
295(17) . . .
275(17) . . .
286(17) . . .
311(18) . . .
302(17) . . .
305(17) . . .
308(18) . . .
299(17) . . .
302(17) . . .
294(17) . . .
291(17) . . .
275(17) . . .
299(17) . . .
288(17) . . .
287(17) . . .
271(16) . . .
281(17) . . .
307(18) . . .
293(17) . . .
260(16) . . .
283(17) . . .
293(17) . . .
287(17) . . .
309(18) . . .
305(17) . . .
314(18) . . .
288(17) . . .
292(17) . . .
258(16) . . .
312(18) . . .
318(18) . . .
310(18) . . .
277(17) . . .
304(17) . . .
314(18) . . .
303(17) . . .
295(17) . . .
284(17) . . .
301(17) . . .
290(17) . . .
269(16) . . .
285(17) . . .
286(17) . . .
299(17) . . .
269(16) . . .
277(17) . . .
266(16) . . .
266(16) . . .
301(17) . . .
292(17) . . .
302(17) . . .
289(17) . . .
303(17) . . .
296(17) . . .
321(18) . . .
290(17) . . .
282(17) . . .
296(17) . . .
287(17) . . .
308(18) . . .
300(17) . . .
311(18) . . .
300(17) . . .
298(17) . . .
302(17) . . .
293(17) . . .
259(16) . . .
284(17) . . .
281(17) . . .
282(17) . . .
307(18) . . .
275(17) . . .
314(18) . . .
262(16) . . .
286(17) . . .
269(16) . . .
282(17) . . .
272(16) . . .
289(17) . . .
242(16) . . .
303(17) . . .
291(17) . . .
270(16) . . .
301(17) . . .
279(17) . . .
273(17) . . .
315(18) . . .
307(18) . . .
314(18) . . .
316(18) . . .
291(17) . . .
268(16) . . .
295(17) . . .
314(18) . . .
301(17) . . .
296(17) . . .
308(18) . . .
295(17) . . .
283(17) . . .
320(18) . . .
296(17) . . .
288(17) . . .
271(16) . . .
269(16) . . .
280(17) . . .
260(16) . . .
294(17) . . .
290(17) . . .
275(17) . . .
294(17) . . .
276(17) . . .
274(17) . . .
272(16) . . .
297(17) . . .
261(16) . . .
301(17) . . .
260(16) . . .
276(17) . . .
276(17) . . .
289(17) . . .
283(17) . . .
267(16) . . .
270(16) . . .
283(17) . . .
295(17) . . .
290(17) . . .
267(16) . . .
258(16) . . .
264(16) . . .
303(17) . . .
296(17) . . .
256(16) . . .
259(16) . . .
285(17) . . .
252(16) . . .
292(17) . . .
242(16) . . .
295(17) . . .
272(16) . . .
277(17) . . .
273(17) . . .
277(17) . . .
241(16) . . .
282(17) . . .
278(17) . . .
280(17) . . .
274(17) . . .
285(17) . . .
269(16) . . .
263(16) . . .
251(16) . . .
294(17) . . .
274(17) . . .
270(16) . . .
231(15) . . .
305(17) . . .
288(17) . . .
275(17) . . .
266(16) . . .
241(16) . . .
270(16) . . .
283(17) . . .
300(17) . . .
266(16) . . .
284(17) . . .
246(16) . . .
290(17) . . .
272(16) . . .
295(17) . . .
280(17) . . .
272(16) . . .
282(17) . . .
287(17) . . .
285(17) . . .
291(17) . . .
265(16) . . .
307(18) . . .
278(17) . . .
271(16) . . .
285(17) . . .
283(17) . . .
282(17) . . .
252(16) . . .
277(17) . . .
279(17) . . .
295(17) . . .
276(17) . . .
276(17) . . .
283(17) . . .
260(16) . . .
279(17) . . .
287(17) . . .
263(16) . . .
298(17) . . .
275(17) . . .
292(17) . . .
269(16) . . .
293(17) . . .
289(17) . . .
265(16) . . .
289(17) . . .
285(17) . . .
255(16) . . .
282(17) . . .
258(16) . . .
273(17) . . .
277(17) . . .
268(16) . . .
299(17) . . .
283(17) . . .
265(16) . . .
251(16) . . .
273(17) . . .
270(16) . . .
282(17) . . .
243(16) . . .
261(16) . . .
275(17) . . .
284(17) . . .
278(17) . . .
283(17) . . .
280(17) . . .
272(16) . . .
284(17) . . .
250(16) . . .
279(17) . . .
285(17) . . .
267(16) . . .
302(17) . . .
285(17) . . .
275(17) . . .
270(16) . . .
297(17) . . .
304(17) . . .
280(17) . . .
280(17) . . .
303(17) . . .
286(17) . . .
274(17) . . .
294(17) . . .
301(17) . . .
267(16) . . .
295(17) . . .
294(17) . . .
295(17) . . .
295(17) . . .
284(17) . . .
289(17) . . .
269(16) . . .
284(17) . . .
299(17) . . .
292(17) . . .
285(17) . . .
256(16) . . .
293(17) . . .
279(17) . . .
280(17) . . .
278(17) . . .
293(17) . . .
306(17) . . .
274(17) . . .
261(16) . . .
294(17) . . .
278(17) . . .
288(17) . . .
265(16) . . .
290(17) . . .
287(17) . . .
284(17) . . .
273(17) . . .
285(17) . . .
288(17) . . .
255(16) . . .
287(17) . . .
274(17) . . .
291(17) . . .
296(17) . . .
287(17) . . .
261(16) . . .
274(17) . . .
323(18) . . .
269(16) . . .
281(17) . . .
266(16) . . .
289(17) . . .
266(16) . . .
263(16) . . .
293(17) . . .
313(18) . . .
275(17) . . .
300(17) . . .
302(17) . . .
279(17) . . .
245(16) . . .
293(17) . . .
283(17) . . .
306(17) . . .
271(16) . . .
281(17) . . .
284(17) . . .
295(17) . . .
283(17) . . .
296(17) . . .
293(17) . . .
286(17) . . .
294(17) . . .
273(17) . . .
289(17) . . .
295(17) . . .
302(17) . . .
269(16) . . .
334(18) . . .
285(17) . . .
317(18) . . .
279(17) . . .
290(17) . . .
303(17) . . .
312(18) . . .
291(17) . . .
309(18) . . .
316(18) . . .
296(17) . . .
302(17) . . .
294(17) . . .
322(18) . . .
308(18) . . .
282(17) . . .
335(18) . . .
304(17) . . .
297(17) . . .
320(18) . . .
337(18) . . .
296(17) . . .
313(18) . . .
324(18) . . .
316(18) . . .
295(17) . . .
306(17) . . .
315(18) . . .
350(19) . . .
319(18) . . .
326(18) . . .
309(18) . . .
338(18) . . .
313(18) . . .
272(16) . . .
346(19) . . .
304(17) . . .
305(17) . . .
326(18) . . .
292(17) . . .
321(18) . . .
311(18) . . .
301(17) . . .
307(18) . . .
352(19) . . .
339(18) . . .
309(18) . . .
332(18) . . .
365(19) . . .
329(18) . . .
360(19) . . .
340(18) . . .
373(19) . . .
350(19) . . .
366(19) . . .
371(19) . . .
389(20) . . .
380(19) . . .
381(20) . . .
432(21) . . .
431(21) . . .
428(21) . . .
416(20) . . .
448(21) . . .
472(22) . . .
483(22) . . .
497(22) . . .
508(23) . . .
521(23) . . .
517(23) . . .
572(24) . . .
636(25) . . .
670(26) . . .
701(26) . . .
773(28) . . .
780(28) . . .
834(29) . . .
954(31) . . .
1021(32) . . .
1104(33) . . .
1224(35) . . .
1393(37) . . .
1478(38) . . .
1685(41) . . .
2021(45) . . .
2222(47) . . .
2666(52) . . .
3066(55) . . .
3601(60) . . .
4328(66) . . .
4953(70) . . .
5701(76) . . .
6464(80) . . .
7006(84) . . .
7291(85) . . .
7581(87) . . .
7219(85) . . .
6954(83) . . .
6386(80) . . .
5584(75) . . .
4827(69) . . .
4143(64) . . .
3513(59) . . .
3054(55) . . .
2476(50) . . .
2265(48) . . .
1916(44) . . .
1687(41) . . .
1481(38) . . .
1327(36) . . .
1136(34) . . .
1040(32) . . .
936(31) . . .
927(30) . . .
795(28) . . .
751(27) . . .
693(26) . . .
653(26) . . .
637(25) . . .
582(24) . . .
532(23) . . .
496(22) . . .
532(23) . . .
489(22) . . .
477(22) . . .
479(22) . . .
465(22) . . .
431(21) . . .
450(21) . . .
392(20) . . .
429(21) . . .
403(20) . . .
446(21) . . .
355(19) . . .
374(19) . . .
355(19) . . .
387(20) . . .
354(19) . . .
356(19) . . .
325(18) . . .
363(19) . . .
343(19) . . .
344(19) . . .
337(18) . . .
330(18) . . .
326(18) . . .
332(18) . . .
317(18) . . .
360(19) . . .
326(18) . . .
346(19) . . .
322(18) . . .
310(18) . . .
300(17) . . .
309(18) . . .
318(18) . . .
315(18) . . .
296(17) . . .
303(17) . . .
315(18) . . .
289(17) . . .
307(18) . . .
285(17) . . .
279(17) . . .
311(18) . . .
309(18) . . .
310(18) . . .
272(16) . . .
292(17) . . .
298(17) . . .
308(18) . . .
299(17) . . .
287(17) . . .
288(17) . . .
278(17) . . .
265(16) . . .
318(18) . . .
305(17) . . .
266(16) . . .
271(16) . . .
323(18) . . .
317(18) . . .
266(16) . . .
285(17) . . .
309(18) . . .
314(18) . . .
285(17) . . .
283(17) . . .
298(17) . . .
258(16) . . .
264(16) . . .
289(17) . . .
264(16) . . .
296(17) . . .
266(16) . . .
273(17) . . .
296(17) . . .
291(17) . . .
281(17) . . .
283(17) . . .
273(17) . . .
291(17) . . .
277(17) . . .
300(17) . . .
263(16) . . .
276(17) . . .
273(17) . . .
256(16) . . .
273(17) . . .
277(17) . . .
275(17) . . .
272(16) . . .
286(17) . . .
276(17) . . .
276(17) . . .
285(17) . . .
278(17) . . .
281(17) . . .
280(17) . . .
288(17) . . .
275(17) . . .
264(16) . . .
260(16) . . .
276(17) . . .
273(17) . . .
304(17) . . .
289(17) . . .
272(16) . . .
268(16) . . .
310(18) . . .
312(18) . . .
306(17) . . .
257(16) . . .
277(17) . . .
304(17) . . .
286(17) . . .
272(16) . . .
271(16) . . .
298(17) . . .
263(16) . . .
302(17) . . .
290(17) . . .
266(16) . . .
270(16) . . .
272(16) . . .
289(17) . . .
250(16) . . .
268(16) . . .
270(16) . . .
264(16) . . .
258(16) . . .
252(16) . . .
282(17) . . .
295(17) . . .
262(16) . . .
277(17) . . .
264(16) . . .
266(16) . . .
277(17) . . .
270(16) . . .
283(17) . . .
243(16) . . .
261(16) . . .
252(16) . . .
285(17) . . .
280(17) . . .
274(17) . . .
277(17) . . .
254(16) . . .
247(16) . . .
224(15) . . .
281(17) . . .
265(16) . . .
251(16) . . .
242(16) . . .
281(17) . . .
267(16) . . .
244(16) . . .
268(16) . . .
262(16) . . .
281(17) . . .
258(16) . . .
226(15) . . .
238(15) . . .
267(16) . . .
240(15) . . .
262(16) . . .
247(16) . . .
280(17) . . .
219(15) . . .
241(16) . . .
243(16) . . .
246(16) . . .
250(16) . . .
252(16) . . .
268(16) . . .
264(16) . . .
238(15) . . .
244(16) . . .
266(16) . . .
237(15) . . .
245(16) . . .
268(16) . . .
278(17) . . .
253(16) . . .
266(16) . . .
250(16) . . .
261(16) . . .
244(16) . . .
259(16) . . .
235(15) . . .
267(16) . . .
250(16) . . .
233(15) . . .
275(17) . . .
268(16) . . .
258(16) . . .
266(16) . . .
269(16) . . .
246(16) . . .
248(16) . . .
264(16) . . .
239(15) . . .
271(16) . . .
260(16) . . .
298(17) . . .
242(16) . . .
256(16) . . .
260(16) . . .
269(16) . . .
262(16) . . .
240(15) . . .
260(16) . . .
271(16) . . .
254(16) . . .
253(16) . . .
270(16) . . .
252(16) . . .
254(16) . . .
259(16) . . .
270(16) . . .
254(16) . . .
234(15) . . .
254(16) . . .
266(16) . . .
229(15) . . .
255(16) . . .
252(16) . . .
248(16) . . .
280(17) . . .
227(15) . . .
247(16) . . .
222(15) . . .
232(15) . . .
270(16) . . .
269(16) . . .
250(16) . . .
264(16) . . .
248(16) . . .
240(15) . . .
265(16) . . .
246(16) . . .
254(16) . . .
259(16) . . .
265(16) . . .
273(17) . . .
245(16) . . .
235(15) . . .
243(16) . . .
252(16) . . .
257(16) . . .
267(16) . . .
260(16) . . .
247(16) . . .
263(16) . . .
264(16) . . .
262(16) . . .
262(16) . . .
251(16) . . .
243(16) . . .
256(16) . . .
240(15) . . .
228(15) . . .
243(16) . . .
265(16) . . .
259(16) . . .
248(16) . . .
242(16) . . .
240(15) . . .
255(16) . . .
246(16) . . .
243(16) . . .
246(16) . . .
253(16) . . .
228(15) . . .
250(16) . . .
230(15) . . .
226(15) . . .
240(15) . . .
246(16) . . .
254(16) . . .
209(14) . . .
278(17) . . .
261(16) . . .
261(16) . . .
264(16) . . .
261(16) . . .
252(16) . . .
266(16) . . .
260(16) . . .
263(16) . . .
267(16) . . .
244(16) . . .
238(15) . . .
262(16) . . .
238(15) . . .
221(15) . . .
249(16) . . .
229(15) . . .
278(17) . . .
246(16) . . .
236(15) . . .
237(15) . . .
258(16) . . .
257(16) . . .
260(16) . . .
263(16) . . .
250(16) . . .
248(16) . . .
253(16) . . .
259(16) . . .
264(16) . . .
252(16) . . .
229(15) . . .
225(15) . . .
245(16) . . .
271(16) . . .
266(16) . . .
274(17) . . .
242(16) . . .
239(15) . . .
218(15) . . .
232(15) . . .
260(16) . . .
246(16) . . .
277(17) . . .
260(16) . . .
252(16) . . .
241(16) . . .
258(16) . . .
245(16) . . .
243(16) . . .
236(15) . . .
236(15) . . .
241(16) . . .
251(16) . . .
231(15) . . .
247(16) . . .
259(16) . . .
232(15) . . .
204(14) . . .
235(15) . . .
221(15) . . .
264(16) . . .
252(16) . . .
245(16) . . .
249(16) . . .
241(16) . . .
254(16) . . .
252(16) . . .
248(16) . . .
242(16) . . .
236(15) . . .
254(16) . . .
273(17) . . .
236(15) . . .
242(16) . . .
249(16) . . .
255(16) . . .
251(16) . . .
267(16) . . .
247(16) . . .
272(16) . . .
265(16) . . .
230(15) . . .
252(16) . . .
269(16) . . .
232(15) . . .
238(15) . . .
259(16) . . .
235(15) . . .
257(16) . . .
240(15) . . .
265(16) . . .
256(16) . . .
249(16) . . .
251(16) . . .
245(16) . . .
215(15) . . .
231(15) . . .
226(15) . . .
237(15) . . .
241(16) . . .
227(15) . . .
241(16) . . .
237(15) . . .
255(16) . . .
256(16) . . .
262(16) . . .
249(16) . . .
233(15) . . .
260(16) . . .
220(15) . . .
240(15) . . .
231(15) . . .
276(17) . . .
229(15) . . .
249(16) . . .
216(15) . . .
231(15) . . .
261(16) . . .
216(15) . . .
229(15) . . .
228(15) . . .
259(16) . . .
248(16) . . .
251(16) . . .
217(15) . . .
252(16) . . .
257(16) . . .
247(16) . . .
224(15) . . .
234(15) . . .
251(16) . . .
240(15) . . .
224(15) . . .
247(16) . . .
241(16) . . .
271(16) . . .
224(15) . . .
256(16) . . .
239(15) . . .
241(16) . . .
224(15) . . .
211(15) . . .
219(15) . . .
232(15) . . .
238(15) . . .
278(17) . . .
268(16) . . .
240(15) . . .
238(15) . . .
232(15) . . .
226(15) . . .
237(15) . . .
250(16) . . .
226(15) . . .
241(16) . . .
239(15) . . .
251(16) . . .
236(15) . . .
252(16) . . .
246(16) . . .
230(15) . . .
254(16) . . .
250(16) . . .
226(15) . . .
231(15) . . .
262(16) . . .
240(15) . . .
268(16) . . .
251(16) . . .
260(16) . . .
232(15) . . .
251(16) . . .
254(16) . . .
267(16) . . .
241(16) . . .
236(15) . . .
257(16) . . .
243(16) . . .
259(16) . . .
265(16) . . .
263(16) . . .
239(15) . . .
249(16) . . .
259(16) . . .
268(16) . . .
233(15) . . .
281(17) . . .
237(15) . . .
265(16) . . .
246(16) . . .
253(16) . . .
229(15) . . .
242(16) . . .
263(16) . . .
246(16) . . .
238(15) . . .
246(16) . . .
255(16) . . .
236(15) . . .
262(16) . . .
247(16) . . .
251(16) . . .
249(16) . . .
240(15) . . .
266(16) . . .
223(15) . . .
232(15) . . .
252(16) . . .
274(17) . . .
246(16) . . .
230(15) . . .
265(16) . . .
261(16) . . .
252(16) . . .
226(15) . . .
238(15) . . .
251(16) . . .
237(15) . . .
272(16) . . .
263(16) . . .
252(16) . . .
261(16) . . .
283(17) . . .
278(17) . . .
242(16) . . .
268(16) . . .
266(16) . . .
262(16) . . .
223(15) . . .
269(16) . . .
244(16) . . .
277(17) . . .
231(15) . . .
258(16) . . .
238(15) . . .
247(16) . . .
262(16) . . .
257(16) . . .
237(15) . . .
248(16) . . .
254(16) . . .
263(16) . . .
250(16) . . .
265(16) . . .
239(15) . . .
245(16) . . .
209(14) . . .
237(15) . . .
220(15) . . .
234(15) . . .
239(15) . . .
257(16) . . .
269(16) . . .
255(16) . . .
232(15) . . .
218(15) . . .
239(15) . . .
268(16) . . .
251(16) . . .
236(15) . . .
239(15) . . .
265(16) . . .
243(16) . . .
231(15) . . .
234(15) . . .
216(15) . . .
238(15) . . .
253(16) . . .
243(16) . . .
227(15) . . .
251(16) . . .
244(16) . . .
241(16) . . .
239(15) . . .
247(16) . . .
242(16) . . .
233(15) . . .
229(15) . . .
227(15) . . .
248(16) . . .
241(16) . . .
217(15) . . .
222(15) . . .
224(15) . . .
251(16) . . .
241(16) . . .
231(15) . . .
229(15) . . .
225(15) . . .
244(16) . . .
243(16) . . .
258(16) . . .
242(16) . . .
221(15) . . .
236(15) . . .
216(15) . . .
210(14) . . .
224(15) . . .
210(14) . . .
264(16) . . .
238(15) . . .
230(15) . . .
237(15) . . .
230(15) . . .
219(15) . . .
254(16) . . .
236(15) . . .
243(16) . . .
229(15) . . .
259(16) . . .
228(15) . . .
262(16) . . .
228(15) . . .
255(16) . . .
239(15) . . .
223(15) . . .
226(15) . . .
245(16) . . .
247(16) . . .
268(16) . . .
232(15) . . .
233(15) . . .
221(15) . . .
229(15) . . .
233(15) . . .
218(15) . . .
226(15) . . .
228(15) . . .
221(15) . . .
252(16) . . .
228(15) . . .
236(15) . . .
252(16) . . .
255(16) . . .
244(16) . . .
230(15) . . .
244(16) . . .
234(15) . . .
229(15) . . .
260(16) . . .
231(15) . . .
248(16) . . .
223(15) . . .
219(15) . . .
238(15) . . .
233(15) . . .
242(16) . . .
257(16) . . .
233(15) . . .
228(15) . . .
257(16) . . .
240(15) . . .
230(15) . . .
240(15) . . .
226(15) . . .
231(15) . . .
237(15) . . .
237(15) . . .
225(15) . . .
246(16) . . .
259(16) . . .
264(16) . . .
237(15) . . .
230(15) . . .
241(16) . . .
223(15) . . .
217(15) . . .
230(15) . . .
249(16) . . .
227(15) . . .
247(16) . . .
214(15) . . .
241(16) . . .
235(15) . . .
241(16) . . .
239(15) . . .
263(16) . . .
230(15) . . .
223(15) . . .
234(15) . . .
218(15) . . .
214(15) . . .
236(15) . . .
239(15) . . .
212(15) . . .
250(16) . . .
237(15) . . .
250(16) . . .
241(16) . . .
220(15) . . .
247(16) . . .
253(16) . . .
251(16) . . .
233(15) . . .
249(16) . . .
233(15) . . .
218(15) . . .
255(16) . . .
239(15) . . .
214(15) . . .
234(15) . . .
233(15) . . .
239(15) . . .
231(15) . . .
256(16) . . .
250(16) . . .
236(15) . . .
231(15) . . .
230(15) . . .
231(15) . . .
246(16) . . .
228(15) . . .
234(15) . . .
246(16) . . .
227(15) . . .
218(15) . . .
232(15) . . .
245(16) . . .
215(15) . . .
235(15) . . .
227(15) . . .
259(16) . . .
229(15) . . .
250(16) . . .
258(16) . . .
230(15) . . .
237(15) . . .
223(15) . . .
238(15) . . .
227(15) . . .
228(15) . . .
233(15) . . .
232(15) . . .
246(16) . . .
235(15) . . .
225(15) . . .
209(14) . . .
228(15) . . .
246(16) . . .
225(15) . . .
240(15) . . .
230(15) . . .
232(15) . . .
238(15) . . .
217(15) . . .
251(16) . . .
183(14) . . .
249(16) . . .
245(16) . . .
235(15) . . .
234(15) . . .
254(16) . . .
237(15) . . .
239(15) . . .
241(16) . . .
223(15) . . .
238(15) . . .
236(15) . . .
243(16) . . .
248(16) . . .
235(15) . . .
246(16) . . .
256(16) . . .
231(15) . . .
229(15) . . .
238(15) . . .
240(15) . . .
215(15) . . .
229(15) . . .
237(15) . . .
210(14) . . .
214(15) . . .
222(15) . . .
222(15) . . .
212(15) . . .
217(15) . . .
237(15) . . .
215(15) . . .
234(15) . . .
230(15) . . .
233(15) . . .
226(15) . . .
252(16) . . .
215(15) . . .
233(15) . . .
230(15) . . .
246(16) . . .
216(15) . . .
235(15) . . .
244(16) . . .
258(16) . . .
212(15) . . .
225(15) . . .
229(15) . . .
244(16) . . .
237(15) . . .
226(15) . . .
221(15) . . .
226(15) . . .
222(15) . . .
238(15) . . .
232(15) . . .
212(15) . . .
227(15) . . .
226(15) . . .
237(15) . . .
205(14) . . .
230(15) . . .
237(15) . . .
243(16) . . .
230(15) . . .
209(14) . . .
210(14) . . .
238(15) . . .
227(15) . . .
224(15) . . .
208(14) . . .
248(16) . . .
237(15) . . .
217(15) . . .
227(15) . . .
214(15) . . .
217(15) . . .
230(15) . . .
220(15) . . .
225(15) . . .
242(16) . . .
214(15) . . .
237(15) . . .
236(15) . . .
208(14) . . .
231(15) . . .
228(15) . . .
242(16) . . .
229(15) . . .
216(15) . . .
211(15) . . .
221(15) . . .
226(15) . . .
234(15) . . .
237(15) . . .
212(15) . . .
219(15) . . .
237(15) . . .
230(15) . . .
220(15) . . .
240(15) . . .
238(15) . . .
235(15) . . .
255(16) . . .
220(15) . . .
227(15) . . .
218(15) . . .
235(15) . . .
221(15) . . .
232(15) . . .
252(16) . . .
228(15) . . .
221(15) . . .
239(15) . . .
211(15) . . .
219(15) . . .
240(15) . . .
254(16) . . .
210(14) . . .
216(15) . . .
242(16) . . .
209(14) . . .
250(16) . . .
256(16) . . .
237(15) . . .
222(15) . . .
209(14) . . .
217(15) . . .
220(15) . . .
238(15) . . .
228(15) . . .
253(16) . . .
234(15) . . .
250(16) . . .
233(15) . . .
229(15) . . .
242(16) . . .
242(16) . . .
238(15) . . .
223(15) . . .
225(15) . . .
237(15) . . .
218(15) . . .
246(16) . . .
237(15) . . .
209(14) . . .
230(15) . . .
234(15) . . .
231(15) . . .
258(16) . . .
211(15) . . .
253(16) . . .
221(15) . . .
235(15) . . .
238(15) . . .
214(15) . . .
229(15) . . .
204(14) . . .
227(15) . . .
215(15) . . .
224(15) . . .
236(15) . . .
238(15) . . .
208(14) . . .
209(14) . . .
231(15) . . .
226(15) . . .
230(15) . . .
236(15) . . .
221(15) . . .
240(15) . . .
214(15) . . .
224(15) . . .
227(15) . . .
227(15) . . .
245(16) . . .
230(15) . . .
231(15) . . .
237(15) . . .
216(15) . . .
215(15) . . .
226(15) . . .
245(16) . . .
232(15) . . .
229(15) . . .
198(14) . . .
212(15) . . .
215(15) . . .
234(15) . . .
229(15) . . .
231(15) . . .
215(15) . . .
231(15) . . .
227(15) . . .
234(15) . . .
237(15) . . .
232(15) . . .
243(16) . . .
223(15) . . .
235(15) . . .
227(15) . . .
256(16) . . .
214(15) . . .
234(15) . . .
219(15) . . .
253(16) . . .
238(15) . . .
215(15) . . .
226(15) . . .
225(15) . . .
228(15) . . .
233(15) . . .
244(16) . . .
250(16) . . .
231(15) . . .
237(15) . . .
231(15) . . .
222(15) . . .
241(16) . . .
217(15) . . .
211(15) . . .
234(15) . . .
231(15) . . .
225(15) . . .
220(15) . . .
228(15) . . .
240(15) . . .
220(15) . . .
214(15) . . .
225(15) . . .
246(16) . . .
235(15) . . .
261(16) . . .
218(15) . . .
232(15) . . .
234(15) . . .
254(16) . . .
232(15) . . .
215(15) . . .
246(16) . . .
223(15) . . .
242(16) . . .
223(15) . . .
220(15) . . .
218(15) . . .
247(16) . . .
257(16) . . .
243(16) . . .
238(15) . . .
251(16) . . .
236(15) . . .
249(16) . . .
207(14) . . .
215(15) . . .
237(15) . . .
243(16) . . .
235(15) . . .
235(15) . . .
236(15) . . .
242(16) . . .
241(16) . . .
245(16) . . .
256(16) . . .
247(16) . . .
237(15) . . .
220(15) . . .
241(16) . . .
228(15) . . .
239(15) . . .
241(16) . . .
217(15) . . .
202(14) . . .
245(16) . . .
245(16) . . .
241(16) . . .
238(15) . . .
243(16) . . .
252(16) . . .
228(15) . . .
226(15) . . .
236(15) . . .
212(15) . . .
230(15) . . .
233(15) . . .
248(16) . . .
234(15) . . .
213(15) . . .
243(16) . . .
231(15) . . .
235(15) . . .
252(16) . . .
221(15) . . .
238(15) . . .
248(16) . . .
243(16) . . .
233(15) . . .
240(15) . . .
212(15) . . .
226(15) . . .
228(15) . . .
236(15) . . .
234(15) . . .
241(16) . . .
254(16) . . .
221(15) . . .
210(14) . . .
218(15) . . .
228(15) . . .
244(16) . . .
218(15) . . .
222(15) . . .
202(14) . . .
226(15) . . .
211(15) . . .
224(15) . . .
236(15) . . .
231(15) . . .
221(15) . . .
235(15) . . .
234(15) . . .
223(15) . . .
239(15) . . .
234(15) . . .
209(14) . . .
221(15) . . .
235(15) . . .
248(16) . . .
248(16) . . .
201(14) . . .
240(15) . . .
242(16) . . .
248(16) . . .
244(16) . . .
210(14) . . .
209(14) . . .
235(15) . . .
224(15) . . .
235(15) . . .
236(15) . . .
193(14) . . .
227(15) . . .
229(15) . . .
220(15) . . .
217(15) . . .
270(16) . . .
230(15) . . .
266(16) . . .
244(16) . . .
238(15) . . .
223(15) . . .
247(16) . . .
253(16) . . .
237(15) . . .
260(16) . . .
238(15) . . .
223(15) . . .
233(15) . . .
239(15) . . .
241(16) . . .
248(16) . . .
224(15) . . .
198(14) . . .
229(15) . . .
222(15) . . .
256(16) . . .
234(15) . . .
239(15) . . .
237(15) . . .
222(15) . . .
217(15) . . .
242(16) . . .
244(16) . . .
233(15) . . .
217(15) . . .
243(16) . . .
224(15) . . .
232(15) . . .
249(16) . . .
241(16) . . .
217(15) . . .
242(16) . . .
247(16) . . .
244(16) . . .
247(16) . . .
233(15) . . .
242(16) . . .
226(15) . . .
221(15) . . .
237(15) . . .
233(15) . . .
241(16) . . .
245(16) . . .
226(15) . . .
209(14) . . .
239(15) . . .
227(15) . . .
221(15) . . .
223(15) . . .
205(14) . . .
218(15) . . .
234(15) . . .
245(16) . . .
235(15) . . .
212(15) . . .
246(16) . . .
231(15) . . .
231(15) . . .
238(15) . . .
231(15) . . .
210(14) . . .
259(16) . . .
229(15) . . .
237(15) . . .
265(16) . . .
242(16) . . .
242(16) . . .
236(15) . . .
208(14) . . .
236(15) . . .
236(15) . . .
222(15) . . .
229(15) . . .
223(15) . . .
256(16) . . .
239(15) . . .
260(16) . . .
219(15) . . .
241(16) . . .
234(15) . . .
226(15) . . .
224(15) . . .
226(15) . . .
238(15) . . .
220(15) . . .
229(15) . . .
228(15) . . .
235(15) . . .
207(14) . . .
225(15) . . .
249(16) . . .
253(16) . . .
226(15) . . .
230(15) . . .
239(15) . . .
229(15) . . .
233(15) . . .
230(15) . . .
231(15) . . .
215(15) . . .
243(16) . . .
249(16) . . .
218(15) . . .
216(15) . . .
244(16) . . .
234(15) . . .
262(16) . . .
237(15) . . .
238(15) . . .
225(15) . . .
235(15) . . .
240(15) . . .
233(15) . . .
217(15) . . .
235(15) . . .
247(16) . . .
263(16) . . .
230(15) . . .
231(15) . . .
246(16) . . .
233(15) . . .
236(15) . . .
234(15) . . .
243(16) . . .
247(16) . . .
227(15) . . .
269(16) . . .
236(15) . . .
228(15) . . .
250(16) . . .
234(15) . . .
263(16) . . .
262(16) . . .
253(16) . . .
241(16) . . .
240(15) . . .
248(16) . . .
239(15) . . .
226(15) . . .
236(15) . . .
249(16) . . .
232(15) . . .
195(14) . . .
230(15) . . .
226(15) . . .
224(15) . . .
195(14) . . .
250(16) . . .
228(15) . . .
232(15) . . .
268(16) . . .
228(15) . . .
226(15) . . .
234(15) . . .
194(14) . . .
240(15) . . .
201(14) . . .
234(15) . . .
240(15) . . .
237(15) . . .
231(15) . . .
253(16) . . .
244(16) . . .
234(15) . . .
222(15) . . .
245(16) . . .
212(15) . . .
253(16) . . .
231(15) . . .
248(16) . . .
236(15) . . .
229(15) . . .
230(15) . . .
225(15) . . .
259(16) . . .
238(15) . . .
241(16) . . .
247(16) . . .
252(16) . . .
240(15) . . .
242(16) . . .
225(15) . . .
244(16) . . .
231(15) . . .
243(16) . . .
242(16) . . .
241(16) . . .
264(16) . . .
244(16) . . .
253(16) . . .
210(14) . . .
233(15) . . .
217(15) . . .
244(16) . . .
221(15) . . .
247(16) . . .
231(15) . . .
214(15) . . .
220(15) . . .
225(15) . . .
248(16) . . .
229(15) . . .
241(16) . . .
245(16) . . .
226(15) . . .
241(16) . . .
209(14) . . .
236(15) . . .
229(15) . . .
236(15) . . .
238(15) . . .
224(15) . . .
236(15) . . .
227(15) . . .
262(16) . . .
217(15) . . .
237(15) . . .
233(15) . . .
226(15) . . .
252(16) . . .
260(16) . . .
232(15) . . .
237(15) . . .
220(15) . . .
242(16) . . .
253(16) . . .
248(16) . . .
236(15) . . .
236(15) . . .
251(16) . . .
194(14) . . .
227(15) . . .
228(15) . . .
240(15) . . .
256(16) . . .
236(15) . . .
223(15) . . .
233(15) . . .
234(15) . . .
244(16) . . .
255(16) . . .
237(15) . . .
249(16) . . .
237(15) . . .
233(15) . . .
251(16) . . .
246(16) . . .
236(15) . . .
252(16) . . .
217(15) . . .
228(15) . . .
207(14) . . .
235(15) . . .
229(15) . . .
297(17) . . .
227(15) . . .
249(16) . . .
259(16) . . .
253(16) . . .
242(16) . . .
241(16) . . .
230(15) . . .
259(16) . . .
265(16) . . .
258(16) . . .
259(16) . . .
244(16) . . .
251(16) . . .
242(16) . . .
231(15) . . .
243(16) . . .
229(15) . . .
233(15) . . .
242(16) . . .
241(16) . . .
252(16) . . .
250(16) . . .
257(16) . . .
257(16) . . .
220(15) . . .
250(16) . . .
238(15) . . .
268(16) . . .
238(15) . . .
229(15) . . .
269(16) . . .
256(16) . . .
241(16) . . .
235(15) . . .
229(15) . . .
244(16) . . .
263(16) . . .
260(16) . . .
256(16) . . .
215(15) . . .
231(15) . . .
225(15) . . .
224(15) . . .
255(16) . . .
249(16) . . .
248(16) . . .
272(16) . . .
273(17) . . .
226(15) . . .
252(16) . . .
242(16) . . .
235(15) . . .
264(16) . . .
273(17) . . .
259(16) . . .
243(16) . . .
260(16) . . .
236(15) . . .
251(16) . . .
224(15) . . .
241(16) . . .
244(16) . . .
235(15) . . .
227(15) . . .
247(16) . . .
245(16) . . .
259(16) . . .
249(16) . . .
252(16) . . .
261(16) . . .
279(17) . . .
257(16) . . .
248(16) . . .
258(16) . . .
251(16) . . .
231(15) . . .
229(15) . . .
251(16) . . .
246(16) . . .
269(16) . . .
243(16) . . .
248(16) . . .
264(16) . . .
253(16) . . .
285(17) . . .
254(16) . . .
277(17) . . .
254(16) . . .
231(15) . . .
249(16) . . .
238(15) . . .
245(16) . . .
254(16) . . .
264(16) . . .
235(15) . . .
269(16) . . .
298(17) . . .
256(16) . . .
236(15) . . .
255(16) . . .
243(16) . . .
268(16) . . .
266(16) . . .
263(16) . . .
251(16) . . .
257(16) . . .
265(16) . . .
261(16) . . .
246(16) . . .
254(16) . . .
232(15) . . .
276(17) . . .
274(17) . . .
283(17) . . .
256(16) . . .
252(16) . . .
234(15) . . .
262(16) . . .
255(16) . . .
271(16) . . .
276(17) . . .
253(16) . . .
272(16) . . .
259(16) . . .
276(17) . . .
259(16) . . .
252(16) . . .
265(16) . . .
276(17) . . .
256(16) . . .
257(16) . . .
263(16) . . .
276(17) . . .
260(16) . . .
280(17) . . .
255(16) . . .
238(15) . . .
286(17) . . .
274(17) . . .
254(16) . . .
259(16) . . .
250(16) . . .
241(16) . . .
289(17) . . .
240(15) . . .
276(17) . . .
260(16) . . .
280(17) . . .
286(17) . . .
263(16) . . .
258(16) . . .
275(17) . . .
268(16) . . .
250(16) . . .
292(17) . . .
263(16) . . .
309(18) . . .
287(17) . . .
294(17) . . .
271(16) . . .
258(16) . . .
272(16) . . .
259(16) . . .
302(17) . . .
274(17) . . .
272(16) . . .
282(17) . . .
279(17) . . .
253(16) . . .
273(17) . . .
263(16) . . .
285(17) . . .
277(17) . . .
295(17) . . .
283(17) . . .
291(17) . . .
275(17) . . .
319(18) . . .
301(17) . . .
292(17) . . .
315(18) . . .
273(17) . . .
279(17) . . .
274(17) . . .
276(17) . . .
284(17) . . .
288(17) . . .
276(17) . . .
280(17) . . .
281(17) . . .
288(17) . . .
279(17) . . .
298(17) . . .
290(17) . . .
292(17) . . .
283(17) . . .
286(17) . . .
310(18) . . .
306(17) . . .
312(18) . . .
310(18) . . .
338(18) . . .
325(18) . . .
319(18) . . .
293(17) . . .
306(17) . . .
303(17) . . .
309(18) . . .
369(19) . . .
355(19) . . .
328(18) . . .
305(17) . . .
323(18) . . .
339(18) . . .
379(19) . . .
341(18) . . .
336(18) . . .
360(19) . . .
364(19) . . .
360(19) . . .
392(20) . . .
390(20) . . .
385(20) . . .
396(20) . . .
403(20) . . .
408(20) . . .
419(20) . . .
408(20) . . .
445(21) . . .
421(21) . . .
488(22) . . .
523(23) . . .
484(22) . . .
530(23) . . .
537(23) . . .
571(24) . . .
574(24) . . .
597(24) . . .
653(26) . . .
691(26) . . .
753(27) . . .
730(27) . . .
823(29) . . .
895(30) . . .
981(31) . . .
1083(33) . . .
1147(34) . . .
1326(36) . . .
1374(37) . . .
1600(40) . . .
1739(42) . . .
1907(44) . . .
2301(48) . . .
2519(50) . . .
2928(54) . . .
3307(58) . . .
3846(62) . . .
4411(66) . . .
4861(70) . . .
5331(73) . . .
5601(75) . . .
6133(78) . . .
6354(80) . . .
6393(80) . . .
6306(79) . . .
6211(79) . . .
5690(75) . . .
5137(72) . . .
4554(67) . . .
4018(63) . . .
3501(59) . . .
2975(55) . . .
2635(51) . . .
2262(48) . . .
1943(44) . . .
1795(42) . . .
1526(39) . . .
1394(37) . . .
1201(35) . . .
1142(34) . . .
982(31) . . .
972(31) . . .
877(30) . . .
839(29) . . .
768(28) . . .
667(26) . . .
696(26) . . .
683(26) . . .
577(24) . . .
548(23) . . .
562(24) . . .
535(23) . . .
507(23) . . .
494(22) . . .
475(22) . . .
426(21) . . .
407(20) . . .
430(21) . . .
409(20) . . .
377(19) . . .
384(20) . . .
394(20) . . .
351(19) . . .
360(19) . . .
393(20) . . .
356(19) . . .
351(19) . . .
344(19) . . .
339(18) . . .
330(18) . . .
377(19) . . .
341(18) . . .
331(18) . . .
311(18) . . .
365(19) . . .
322(18) . . .
330(18) . . .
330(18) . . .
335(18) . . .
309(18) . . .
332(18) . . .
310(18) . . .
311(18) . . .
311(18) . . .
301(17) . . .
329(18) . . .
347(19) . . .
298(17) . . .
311(18) . . .
312(18) . . .
328(18) . . .
318(18) . . .
327(18) . . .
291(17) . . .
289(17) . . .
320(18) . . .
282(17) . . .
299(17) . . .
250(16) . . .
262(16) . . .
296(17) . . .
288(17) . . .
264(16) . . .
306(17) . . .
280(17) . . .
273(17) . . .
292(17) . . .
296(17) . . .
285(17) . . .
274(17) . . .
275(17) . . .
282(17) . . .
275(17) . . .
301(17) . . .
260(16) . . .
303(17) . . .
267(16) . . .
294(17) . . .
248(16) . . .
253(16) . . .
261(16) . . .
262(16) . . .
268(16) . . .
272(16) . . .
284(17) . . .
284(17) . . .
263(16) . . .
299(17) . . .
277(17) . . .
274(17) . . .
284(17) . . .
303(17) . . .
257(16) . . .
249(16) . . .
267(16) . . .
258(16) . . .
256(16) . . .
255(16) . . .
287(17) . . .
278(17) . . .
262(16) . . .
255(16) . . .
277(17) . . .
304(17) . . .
286(17) . . .
268(16) . . .
296(17) . . .
266(16) . . .
276(17) . . .
264(16) . . .
299(17) . . .
249(16) . . .
270(16) . . .
273(17) . . .
258(16) . . .
255(16) . . .
249(16) . . .
262(16) . . .
257(16) . . .
273(17) . . .
245(16) . . .
285(17) . . .
261(16) . . .
277(17) . . .
275(17) . . .
260(16) . . .
293(17) . . .
251(16) . . .
236(15) . . .
281(17) . . .
276(17) . . .
298(17) . . .
278(17) . . .
282(17) . . .
268(16) . . .
249(16) . . .
299(17) . . .
280(17) . . .
263(16) . . .
245(16) . . .
279(17) . . .
257(16) . . .
251(16) . . .
278(17) . . .
260(16) . . .
263(16) . . .
258(16) . . .
270(16) . . .
274(17) . . .
261(16) . . .
276(17) . . .
262(16) . . .
273(17) . . .
269(16) . . .
255(16) . . .
262(16) . . .
247(16) . . .
238(15) . . .
265(16) . . .
255(16) . . .
243(16) . . .
270(16) . . .
225(15) . . .
236(15) . . .
249(16) . . .
268(16) . . .
251(16) . . .
276(17) . . .
258(16) . . .
256(16) . . .
257(16) . . .
238(15) . . .
268(16) . . .
247(16) . . .
259(16) . . .
257(16) . . .
275(17) . . .
250(16) . . .
260(16) . . .
285(17) . . .
291(17) . . .
241(16) . . .
246(16) . . .
264(16) . . .
252(16) . . .
243(16) . . .
273(17) . . .
261(16) . . .
245(16) . . .
229(15) . . .
271(16) . . .
240(15) . . .
266(16) . . .
273(17) . . .
255(16) . . .
259(16) . . .
271(16) . . .
252(16) . . .
243(16) . . .
254(16) . . .
242(16) . . .
267(16) . . .
252(16) . . .
288(17) . . .
243(16) . . .
233(15) . . .
217(15) . . .
258(16) . . .
253(16) . . .
261(16) . . .
275(17) . . .
252(16) . . .
264(16) . . .
245(16) . . .
242(16) . . .
258(16) . . .
261(16) . . .
240(15) . . .
258(16) . . .
252(16) . . .
244(16) . . .
265(16) . . .
242(16) . . .
272(16) . . .
245(16) . . .
265(16) . . .
233(15) . . .
242(16) . . .
262(16) . . .
245(16) . . .
229(15) . . .
261(16) . . .
237(15) . . .
235(15) . . .
270(16) . . .
226(15) . . .
238(15) . . .
252(16) . . .
233(15) . . .
265(16) . . .
257(16) . . .
243(16) . . .
243(16) . . .
228(15) . . .
246(16) . . .
250(16) . . .
240(15) . . .
241(16) . . .
268(16) . . .
245(16) . . .
261(16) . . .
230(15) . . .
242(16) . . .
228(15) . . .
284(17) . . .
248(16) . . .
257(16) . . .
255(16) . . .
229(15) . . .
244(16) . . .
268(16) . . .
265(16) . . .
260(16) . . .
271(16) . . .
262(16) . . .
242(16) . . .
235(15) . . .
239(15) . . .
231(15) . . .
263(16) . . .
260(16) . . .
237(15) . . .
237(15) . . .
237(15) . . .
267(16) . . .
258(16) . . .
247(16) . . .
215(15) . . .
251(16) . . .
248(16) . . .
226(15) . . .
255(16) . . .
243(16) . . .
245(16) . . .
226(15) . . .
232(15) . . .
268(16) . . .
242(16) . . .
250(16) . . .
257(16) . . .
273(17) . . .
258(16) . . .
253(16) . . .
246(16) . . .
256(16) . . .
239(15) . . .
247(16) . . .
263(16) . . .
256(16) . . .
257(16) . . .
267(16) . . .
265(16) . . .
258(16) . . .
236(15) . . .
247(16) . . .
240(15) . . .
269(16) . . .
224(15) . . .
247(16) . . .
218(15) . . .
239(15) . . .
248(16) . . .
246(16) . . .
284(17) . . .
266(16) . . .
283(17) . . .
254(16) . . .
225(15) . . .
255(16) . . .
249(16) . . .
260(16) . . .
247(16) . . .
258(16) . . .
259(16) . . .
253(16) . . .
254(16) . . .
277(17) . . .
215(15) . . .
248(16) . . .
242(16) . . .
267(16) . . .
240(15) . . .
264(16) . . .
255(16) . . .
258(16) . . .
264(16) . . .
243(16) . . .
256(16) . . .
260(16) . . .
263(16) . . .
253(16) . . .
236(15) . . .
243(16) . . .
231(15) . . .
248(16) . . .
253(16) . . .
257(16) . . .
273(17) . . .
256(16) . . .
266(16) . . .
277(17) . . .
244(16) . . .
247(16) . . .
232(15) . . .
239(15) . . .
257(16) . . .
249(16) . . .
232(15) . . .
244(16) . . .
242(16) . . .
245(16) . . .
243(16) . . .
230(15) . . .
227(15) . . .
254(16) . . .
254(16) . . .
251(16) . . .
240(15) . . .
242(16) . . .
234(15) . . .
254(16) . . .
262(16) . . .
230(15) . . .
250(16) . . .
241(16) . . .
236(15) . . .
220(15) . . .
254(16) . . .
238(15) . . .
258(16) . . .
268(16) . . .
253(16) . . .
250(16) . . .
271(16) . . .
264(16) . . .
236(15) . . .
236(15) . . .
284(17) . . .
263(16) . . .
215(15) . . .
237(15) . . .
243(16) . . .
242(16) . . .
242(16) . . .
255(16) . . .
244(16) . . .
261(16) . . .
259(16) . . .
259(16) . . .
269(16) . . .
255(16) . . .
248(16) . . .
265(16) . . .
262(16) . . .
254(16) . . .
255(16) . . .
250(16) . . .
246(16) . . .
232(15) . . .
260(16) . . .
258(16) . . .
233(15) . . .
234(15) . . .
284(17) . . .
270(16) . . .
218(15) . . .
240(15) . . .
223(15) . . .
227(15) . . .
250(16) . . .
251(16) . . .
266(16) . . .
264(16) . . .
237(15) . . .
244(16) . . .
263(16) . . .
255(16) . . .
241(16) . . .
252(16) . . .
249(16) . . .
260(16) . . .
263(16) . . .
272(16) . . .
278(17) . . .
243(16) . . .
256(16) . . .
259(16) . . .
268(16) . . .
248(16) . . .
252(16) . . .
246(16) . . .
256(16) . . .
239(15) . . .
233(15) . . .
270(16) . . .
288(17) . . .
260(16) . . .
240(15) . . .
239(15) . . .
259(16) . . .
254(16) . . .
269(16) . . .
245(16) . . .
259(16) . . .
276(17) . . .
229(15) . . .
246(16) . . .
229(15) . . .
264(16) . . .
228(15) . . .
256(16) . . .
256(16) . . .
288(17) . . .
251(16) . . .
254(16) . . .
267(16) . . .
231(15) . . .
260(16) . . .
256(16) . . .
251(16) . . .
251(16) . . .
246(16) . . .
243(16) . . .
235(15) . . .
248(16) . . .
252(16) . . .
271(16) . . .
251(16) . . .
256(16) . . .
245(16) . . .
233(15) . . .
253(16) . . .
233(15) . . .
277(17) . . .
264(16) . . .
262(16) . . .
262(16) . . .
254(16) . . .
263(16) . . .
259(16) . . .
247(16) . . .
247(16) . . .
230(15) . . .
248(16) . . .
262(16) . . .
240(15) . . .
271(16) . . .
282(17) . . .
241(16) . . .
253(16) . . .
271(16) . . .
254(16) . . .
255(16) . . .
269(16) . . .
237(15) . . .
245(16) . . .
242(16) . . .
240(15) . . .
250(16) . . .
247(16) . . .
288(17) . . .
253(16) . . .
258(16) . . .
268(16) . . .
250(16) . . .
258(16) . . .
250(16) . . .
259(16) . . .
255(16) . . .
260(16) . . .
273(17) . . .
268(16) . . .
273(17) . . .
246(16) . . .
239(15) . . .
270(16) . . .
257(16) . . .
274(17) . . .
241(16) . . .
264(16) . . .
255(16) . . .
270(16) . . .
239(15) . . .
256(16) . . .
224(15) . . .
234(15) . . .
240(15) . . .
266(16) . . .
261(16) . . .
240(15) . . .
259(16) . . .
245(16) . . .
267(16) . . .
260(16) . . .
243(16) . . .
254(16) . . .
247(16) . . .
260(16) . . .
234(15) . . .
240(15) . . .
242(16) . . .
266(16) . . .
290(17) . . .
258(16) . . .
255(16) . . .
256(16) . . .
265(16) . . .
257(16) . . .
280(17) . . .
256(16) . . .
285(17) . . .
261(16) . . .
281(17) . . .
242(16) . . .
267(16) . . .
282(17) . . .
272(16) . . .
263(16) . . .
284(17) . . .
289(17) . . .
260(16) . . .
285(17) . . .
268(16) . . .
262(16) . . .
288(17) . . .
262(16) . . .
259(16) . . .
258(16) . . .
275(17) . . .
252(16) . . .
277(17) . . .
258(16) . . .
267(16) . . .
268(16) . . .
277(17) . . .
278(17) . . .
260(16) . . .
226(15) . . .
264(16) . . .
259(16) . . .
257(16) . . .
255(16) . . .
273(17) . . .
254(16) . . .
259(16) . . .
288(17) . . .
261(16) . . .
251(16) . . .
266(16) . . .
272(16) . . .
271(16) . . .
261(16) . . .
250(16) . . .
258(16) . . .
247(16) . . .
261(16) . . .
252(16) . . .
259(16) . . .
260(16) . . .
276(17) . . .
266(16) . . .
266(16) . . .
269(16) . . .
288(17) . . .
288(17) . . .
260(16) . . .
259(16) . . .
252(16) . . .
295(17) . . .
250(16) . . .
270(16) . . .
244(16) . . .
276(17) . . .
258(16) . . .
266(16) . . .
297(17) . . .
270(16) . . .
261(16) . . .
260(16) . . .
288(17) . . .
263(16) . . .
267(16) . . .
267(16) . . .
270(16) . . .
270(16) . . .
268(16) . . .
282(17) . . .
265(16) . . .
261(16) . . .
270(16) . . .
259(16) . . .
247(16) . . .
298(17) . . .
254(16) . . .
246(16) . . .
250(16) . . .
305(17) . . .
248(16) . . .
274(17) . . .
271(16) . . .
269(16) . . .
255(16) . . .
282(17) . . .
252(16) . . .
251(16) . . .
272(16) . . .
257(16) . . .
244(16) . . .
245(16) . . .
287(17) . . .
289(17) . . .
265(16) . . .
281(17) . . .
259(16) . . .
247(16) . . .
249(16) . . .
263(16) . . .
267(16) . . .
258(16) . . .
290(17) . . .
272(16) . . .
246(16) . . .
272(16) . . .
259(16) . . .
267(16) . . .
263(16) . . .
281(17) . . .
274(17) . . .
277(17) . . .
261(16) . . .
277(17) . . .
278(17) . . .
283(17) . . .
263(16) . . .
283(17) . . .
257(16) . . .
252(16) . . .
275(17) . . .
275(17) . . .
274(17) . . .
271(16) . . .
279(17) . . .
256(16) . . .
270(16) . . .
266(16) . . .
290(17) . . .
286(17) . . .
278(17) . . .
239(15) . . .
237(15) . . .
281(17) . . .
271(16) . . .
265(16) . . .
264(16) . . .
267(16) . . .
275(17) . . .
263(16) . . .
269(16) . . .
259(16) . . .
271(16) . . .
271(16) . . .
252(16) . . .
262(16) . . .
311(18) . . .
275(17) . . .
258(16) . . .
264(16) . . .
267(16) . . .
281(17) . . .
284(17) . . .
266(16) . . .
228(15) . . .
265(16) . . .
281(17) . . .
288(17) . . .
279(17) . . .
277(17) . . .
233(15) . . .
258(16) . . .
281(17) . . .
263(16) . . .
288(17) . . .
294(17) . . .
260(16) . . .
270(16) . . .
262(16) . . .
262(16) . . .
281(17) . . .
257(16) . . .
276(17) . . .
250(16) . . .
249(16) . . .
291(17) . . .
287(17) . . .
252(16) . . .
233(15) . . .
279(17) . . .
289(17) . . .
275(17) . . .
248(16) . . .
248(16) . . .
255(16) . . .
264(16) . . .
273(17) . . .
263(16) . . .
263(16) . . .
281(17) . . .
275(17) . . .
254(16) . . .
262(16) . . .
303(17) . . .
277(17) . . .
250(16) . . .
280(17) . . .
291(17) . . .
252(16) . . .
264(16) . . .
274(17) . . .
263(16) . . .
295(17) . . .
266(16) . . .
259(16) . . .
286(17) . . .
284(17) . . .
297(17) . . .
261(16) . . .
281(17) . . .
269(16) . . .
288(17) . . .
271(16) . . .
276(17) . . .
282(17) . . .
282(17) . . .
256(16) . . .
283(17) . . .
303(17) . . .
303(17) . . .
295(17) . . .
263(16) . . .
284(17) . . .
280(17) . . .
278(17) . . .
294(17) . . .
307(18) . . .
282(17) . . .
297(17) . . .
267(16) . . .
304(17) . . .
268(16) . . .
271(16) . . .
290(17) . . .
311(18) . . .
300(17) . . .
310(18) . . .
280(17) . . .
284(17) . . .
272(16) . . .
314(18) . . .
312(18) . . .
273(17) . . .
279(17) . . .
277(17) . . .
304(17) . . .
308(18) . . .
288(17) . . .
315(18) . . .
268(16) . . .
294(17) . . .
316(18) . . .
307(18) . . .
302(17) . . .
285(17) . . .
271(16) . . .
306(17) . . .
302(17) . . .
309(18) . . .
305(17) . . .
298(17) . . .
300(17) . . .
279(17) . . .
295(17) . . .
278(17) . . .
314(18) . . .
313(18) . . .
318(18) . . .
316(18) . . .
295(17) . . .
325(18) . . .
312(18) . . .
323(18) . . .
294(17) . . .
291(17) . . .
311(18) . . .
287(17) . . .
306(17) . . .
281(17) . . .
334(18) . . .
303(17) . . .
326(18) . . .
319(18) . . .
337(18) . . .
360(19) . . .
312(18) . . .
328(18) . . .
316(18) . . .
328(18) . . .
347(19) . . .
324(18) . . .
327(18) . . .
314(18) . . .
345(19) . . .
344(19) . . .
334(18) . . .
308(18) . . .
364(19) . . .
310(18) . . .
371(19) . . .
313(18) . . .
382(20) . . .
372(19) . . .
351(19) . . .
363(19) . . .
367(19) . . .
390(20) . . .
387(20) . . .
394(20) . . .
386(20) . . .
397(20) . . .
407(20) . . .
409(20) . . .
424(21) . . .
444(21) . . .
427(21) . . .
425(21) . . .
455(21) . . .
439(21) . . .
493(22) . . .
508(23) . . .
479(22) . . .
510(23) . . .
533(23) . . .
523(23) . . .
574(24) . . .
584(24) . . .
643(25) . . .
633(25) . . .
702(26) . . .
707(27) . . .
780(28) . . .
792(28) . . .
889(30) . . .
940(31) . . .
966(31) . . .
1087(33) . . .
1136(34) . . .
1207(35) . . .
1358(37) . . .
1552(39) . . .
1717(41) . . .
1909(44) . . .
2137(46) . . .
2311(48) . . .
2693(52) . . .
3042(55) . . .
3348(58) . . .
3790(62) . . .
4296(66) . . .
4940(70) . . .
5402(73) . . .
5974(77) . . .
6553(81) . . .
6904(83) . . .
7287(85) . . .
7264(85) . . .
7265(85) . . .
7098(84) . . .
6755(82) . . .
6369(80) . . .
5576(75) . . .
5052(71) . . .
4508(67) . . .
3993(63) . . .
3486(59) . . .
3093(56) . . .
2643(51) . . .
2440(49) . . .
2136(46) . . .
1955(44) . . .
1734(42) . . .
1495(39) . . .
1426(38) . . .
1317(36) . . .
1210(35) . . .
1100(33) . . .
1026(32) . . .
931(31) . . .
845(29) . . .
845(29) . . .
803(28) . . .
722(27) . . .
684(26) . . .
670(26) . . .
692(26) . . .
628(25) . . .
614(25) . . .
544(23) . . .
540(23) . . .
554(24) . . .
498(22) . . .
507(23) . . .
508(23) . . .
502(22) . . .
450(21) . . .
425(21) . . .
425(21) . . .
458(21) . . .
405(20) . . .
430(21) . . .
378(19) . . .
396(20) . . .
406(20) . . .
380(19) . . .
396(20) . . .
383(20) . . .
356(19) . . .
387(20) . . .
350(19) . . .
354(19) . . .
345(19) . . .
344(19) . . .
371(19) . . .
323(18) . . .
343(19) . . .
344(19) . . .
339(18) . . .
347(19) . . .
320(18) . . .
331(18) . . .
316(18) . . .
361(19) . . .
334(18) . . .
348(19) . . .
331(18) . . .
316(18) . . .
325(18) . . .
326(18) . . .
315(18) . . .
288(17) . . .
314(18) . . .
341(18) . . .
321(18) . . .
320(18) . . .
315(18) . . .
280(17) . . .
323(18) . . .
281(17) . . .
325(18) . . .
320(18) . . .
330(18) . . .
293(17) . . .
310(18) . . .
299(17) . . .
324(18) . . .
298(17) . . .
299(17) . . .
314(18) . . .
274(17) . . .
319(18) . . .
298(17) . . .
312(18) . . .
278(17) . . .
273(17) . . .
298(17) . . .
310(18) . . .
296(17) . . .
297(17) . . .
312(18) . . .
301(17) . . .
266(16) . . .
278(17) . . .
295(17) . . .
311(18) . . .
284(17) . . .
283(17) . . .
290(17) . . .
318(18) . . .
279(17) . . .
280(17) . . .
265(16) . . .
278(17) . . .
322(18) . . .
301(17) . . .
283(17) . . .
296(17) . . .
305(17) . . .
282(17) . . .
305(17) . . .
290(17) . . .
270(16) . . .
289(17) . . .
278(17) . . .
280(17) . . .
304(17) . . .
277(17) . . .
298(17) . . .
279(17) . . .
279(17) . . .
288(17) . . .
278(17) . . .
283(17) . . .
271(16) . . .
311(18) . . .
290(17) . . .
283(17) . . .
288(17) . . .
267(16) . . .
279(17) . . .
271(16) . . .
280(17) . . .
321(18) . . .
284(17) . . .
263(16) . . .
281(17) . . .
309(18) . . .
285(17) . . .
282(17) . . .
282(17) . . .
286(17) . . .
283(17) . . .
278(17) . . .
264(16) . . .
275(17) . . .
289(17) . . .
281(17) . . .
264(16) . . .
257(16) . . .
306(17) . . .
285(17) . . .
292(17) . . .
242(16) . . .
253(16) . . .
279(17) . . .
261(16) . . .
290(17) . . .
290(17) . . .
275(17) . . .
288(17) . . .
279(17) . . .
283(17) . . .
291(17) . . .
299(17) . . .
289(17) . . .
268(16) . . .
238(15) . . .
287(17) . . .
288(17) . . .
277(17) . . .
283(17) . . .
286(17) . . .
295(17) . . .
303(17) . . .
279(17) . . .
262(16) . . .
258(16) . . .
276(17) . . .
294(17) . . .
304(17) . . .
319(18) . . .
296(17) . . .
274(17) . . .
270(16) . . .
267(16) . . .
274(17) . . .
280(17) . . .
283(17) . . .
251(16) . . .
277(17) . . .
277(17) . . .
288(17) . . .
271(16) . . .
290(17) . . .
307(18) . . .
265(16) . . .
289(17) . . .
287(17) . . .
267(16) . . .
265(16) . . .
235(15) . . .
264(16) . . .
276(17) . . .
271(16) . . .
283(17) . . .
289(17) . . .
287(17) . . .
282(17) . . .
284(17) . . .
300(17) . . .
282(17) . . .
296(17) . . .
280(17) . . .
275(17) . . .
293(17) . . .
276(17) . . .
285(17) . . .
310(18) . . .
298(17) . . .
308(18) . . .
273(17) . . .
317(18) . . .
281(17) . . .
326(18) . . .
303(17) . . .
292(17) . . .
291(17) . . .
292(17) . . .
315(18) . . .
287(17) . . .
326(18) . . .
283(17) . . .
255(16) . . .
267(16) . . .
279(17) . . .
305(17) . . .
301(17) . . .
295(17) . . .
282(17) . . .
278(17) . . .
300(17) . . .
329(18) . . .
338(18) . . .
340(18) . . .
321(18) . . .
321(18) . . .
273(17) . . .
303(17) . . .
320(18) . . .
313(18) . . .
317(18) . . .
319(18) . . .
353(19) . . .
353(19) . . .
347(19) . . .
319(18) . . .
344(19) . . .
360(19) . . .
357(19) . . .
387(20) . . .
411(20) . . .
416(20) . . .
387(20) . . .
389(20) . . .
436(21) . . .
427(21) . . .
417(20) . . .
457(21) . . .
456(21) . . .
478(22) . . .
500(22) . . .
554(24) . . .
540(23) . . .
575(24) . . .
622(25) . . .
724(27) . . .
729(27) . . .
732(27) . . .
820(29) . . .
874(30) . . .
974(31) . . .
1045(32) . . .
1136(34) . . .
1323(36) . . .
1369(37) . . .
1593(40) . . .
1818(43) . . .
2006(45) . . .
2333(48) . . .
2453(50) . . .
2777(53) . . .
3142(56) . . .
3358(58) . . .
3571(60) . . .
3604(60) . . .
3852(62) . . .
3734(61) . . .
3730(61) . . .
3495(59) . . .
3270(57) . . .
3049(55) . . .
2674(52) . . .
2478(50) . . .
2167(47) . . .
1927(44) . . .
1670(41) . . .
1603(40) . . .
1396(37) . . .
1213(35) . . .
1150(34) . . .
1000(32) . . .
909(30) . . .
837(29) . . .
778(28) . . .
725(27) . . .
677(26) . . .
670(26) . . .
596(24) . . .
576(24) . . .
549(23) . . .
491(22) . . .
477(22) . . .
431(21) . . .
440(21) . . .
436(21) . . .
406(20) . . .
400(20) . . .
424(21) . . .
358(19) . . .
364(19) . . .
359(19) . . .
360(19) . . .
364(19) . . .
327(18) . . .
333(18) . . .
340(18) . . .
332(18) . . .
342(18) . . .
315(18) . . .
324(18) . . .
339(18) . . .
330(18) . . .
304(17) . . .
302(17) . . .
295(17) . . .
296(17) . . .
315(18) . . .
296(17) . . .
288(17) . . .
296(17) . . .
325(18) . . .
290(17) . . .
258(16) . . .
284(17) . . .
277(17) . . .
301(17) . . .
275(17) . . .
300(17) . . .
291(17) . . .
275(17) . . .
288(17) . . .
276(17) . . .
270(16) . . .
250(16) . . .
284(17) . . .
264(16) . . .
267(16) . . .
270(16) . . .
280(17) . . .
294(17) . . .
273(17) . . .
264(16) . . .
263(16) . . .
263(16) . . .
265(16) . . .
286(17) . . .
260(16) . . .
268(16) . . .
240(15) . . .
253(16) . . .
268(16) . . .
243(16) . . .
278(17) . . .
250(16) . . .
268(16) . . .
258(16) . . .
225(15) . . .
246(16) . . .
284(17) . . .
269(16) . . .
269(16) . . .
245(16) . . .
270(16) . . .
233(15) . . .
251(16) . . .
262(16) . . .
269(16) . . .
257(16) . . .
253(16) . . .
263(16) . . .
260(16) . . .
255(16) . . .
256(16) . . .
269(16) . . .
276(17) . . .
275(17) . . .
265(16) . . .
293(17) . . .
245(16) . . .
253(16) . . .
254(16) . . .
246(16) . . .
252(16) . . .
255(16) . . .
257(16) . . .
231(15) . . .
235(15) . . .
256(16) . . .
251(16) . . .
272(16) . . .
259(16) . . .
241(16) . . .
240(15) . . .
255(16) . . .
263(16) . . .
247(16) . . .
239(15) . . .
236(15) . . .
235(15) . . .
246(16) . . .
252(16) . . .
242(16) . . .
234(15) . . .
248(16) . . .
256(16) . . .
235(15) . . .
249(16) . . .
262(16) . . .
236(15) . . .
272(16) . . .
253(16) . . .
249(16) . . .
252(16) . . .
236(15) . . .
244(16) . . .
230(15) . . .
236(15) . . .
232(15) . . .
241(16) . . .
241(16) . . .
248(16) . . .
263(16) . . .
242(16) . . .
249(16) . . .
246(16) . . .
261(16) . . .
239(15) . . .
241(16) . . .
232(15) . . .
265(16) . . .
239(15) . . .
256(16) . . .
250(16) . . .
233(15) . . .
240(15) . . .
244(16) . . .
244(16) . . .
237(15) . . .
221(15) . . .
259(16) . . .
239(15) . . .
198(14) . . .
260(16) . . .
254(16) . . .
242(16) . . .
237(15) . . .
237(15) . . .
261(16) . . .
242(16) . . .
244(16) . . .
247(16) . . .
237(15) . . .
237(15) . . .
242(16) . . .
214(15) . . .
234(15) . . .
228(15) . . .
210(14) . . .
233(15) . . .
231(15) . . .
269(16) . . .
259(16) . . .
240(15) . . .
223(15) . . .
241(16) . . .
243(16) . . .
251(16) . . .
244(16) . . .
255(16) . . .
235(15) . . .
243(16) . . .
250(16) . . .
270(16) . . .
231(15) . . .
246(16) . . .
237(15) . . .
224(15) . . .
200(14) . . .
253(16) . . .
225(15) . . .
219(15) . . .
240(15) . . .
239(15) . . .
249(16) . . .
227(15) . . .
230(15) . . .
216(15) . . .
222(15) . . .
235(15) . . .
247(16) . . .
241(16) . . .
243(16) . . .
222(15) . . .
227(15) . . .
244(16) . . .
220(15) . . .
226(15) . . .
224(15) . . .
234(15) . . .
211(15) . . .
260(16) . . .
236(15) . . .
251(16) . . .
236(15) . . .
232(15) . . .
216(15) . . .
241(16) . . .
240(15) . . .
214(15) . . .
211(15) . . .
228(15) . . .
236(15) . . .
252(16) . . .
224(15) . . .
238(15) . . .
226(15) . . .
218(15) . . .
201(14) . . .
240(15) . . .
198(14) . . .
216(15) . . .
228(15) . . .
209(14) . . .
223(15) . . .
237(15) . . .
204(14) . . .
237(15) . . .
233(15) . . .
234(15) . . .
232(15) . . .
231(15) . . .
248(16) . . .
222(15) . . .
221(15) . . .
233(15) . . .
209(14) . . .
221(15) . . .
211(15) . . .
235(15) . . .
224(15) . . .
199(14) . . .
246(16) . . .
217(15) . . .
188(14) . . .
233(15) . . .
230(15) . . .
232(15) . . .
229(15) . . .
226(15) . . .
212(15) . . .
216(15) . . .
224(15) . . .
212(15) . . .
215(15) . . .
234(15) . . .
215(15) . . .
217(15) . . .
226(15) . . .
232(15) . . .
227(15) . . .
223(15) . . .
242(16) . . .
203(14) . . .
236(15) . . .
192(14) . . .
212(15) . . .
229(15) . . .
218(15) . . .
209(14) . . .
256(16) . . .
229(15) . . .
224(15) . . .
240(15) . . .
213(15) . . .
246(16) . . .
216(15) . . .
236(15) . . .
241(16) . . .
220(15) . . .
246(16) . . .
196(14) . . .
248(16) . . .
214(15) . . .
215(15) . . .
213(15) . . .
225(15) . . .
211(15) . . .
212(15) . . .
228(15) . . .
216(15) . . .
219(15) . . .
211(15) . . .
236(15) . . .
213(15) . . .
234(15) . . .
219(15) . . .
218(15) . . .
241(16) . . .
225(15) . . .
217(15) . . .
229(15) . . .
224(15) . . .
222(15) . . .
212(15) . . .
216(15) . . .
244(16) . . .
214(15) . . .
218(15) . . .
228(15) . . .
216(15) . . .
209(14) . . .
233(15) . . .
235(15) . . .
201(14) . . .
217(15) . . .
200(14) . . .
233(15) . . .
213(15) . . .
243(16) . . .
212(15) . . .
236(15) . . .
206(14) . . .
240(15) . . .
230(15) . . .
209(14) . . .
212(15) . . .
225(15) . . .
212(15) . . .
198(14) . . .
209(14) . . .
239(15) . . .
207(14) . . .
229(15) . . .
213(15) . . .
211(15) . . .
219(15) . . .
231(15) . . .
222(15) . . .
229(15) . . .
195(14) . . .
233(15) . . .
222(15) . . .
228(15) . . .
229(15) . . .
214(15) . . .
228(15) . . .
233(15) . . .
216(15) . . .
215(15) . . .
205(14) . . .
196(14) . . .
182(13) . . .
216(15) . . .
207(14) . . .
231(15) . . .
203(14) . . .
215(15) . . .
230(15) . . .
207(14) . . .
245(16) . . .
221(15) . . .
229(15) . . .
234(15) . . .
213(15) . . .
206(14) . . .
196(14) . . .
206(14) . . .
193(14) . . .
200(14) . . .
190(14) . . .
206(14) . . .
202(14) . . .
239(15) . . .
230(15) . . .
221(15) . . .
216(15) . . .
206(14) . . .
213(15) . . .
210(14) . . .
214(15) . . .
207(14) . . .
207(14) . . .
227(15) . . .
209(14) . . .
218(15) . . .
186(14) . . .
229(15) . . .
240(15) . . .
191(14) . . .
233(15) . . .
208(14) . . .
226(15) . . .
190(14) . . .
192(14) . . .
219(15) . . .
210(14) . . .
221(15) . . .
226(15) . . .
223(15) . . .
242(16) . . .
207(14) . . .
216(15) . . .
246(16) . . .
195(14) . . .
213(15) . . .
213(15) . . .
219(15) . . .
247(16) . . .
197(14) . . .
229(15) . . .
227(15) . . .
209(14) . . .
208(14) . . .
208(14) . . .
204(14) . . .
225(15) . . .
185(14) . . .
222(15) . . .
205(14) . . .
207(14) . . .
223(15) . . .
224(15) . . .
237(15) . . .
211(15) . . .
226(15) . . .
235(15) . . .
213(15) . . .
188(14) . . .
211(15) . . .
211(15) . . .
197(14) . . .
196(14) . . .
211(15) . . .
213(15) . . .
229(15) . . .
220(15) . . .
228(15) . . .
220(15) . . .
206(14) . . .
224(15) . . .
202(14) . . .
207(14) . . .
195(14) . . .
226(15) . . .
239(15) . . .
214(15) . . .
232(15) . . .
233(15) . . .
204(14) . . .
234(15) . . .
207(14) . . .
210(14) . . .
215(15) . . .
199(14) . . .
216(15) . . .
206(14) . . .
224(15) . . .
199(14) . . .
194(14) . . .
213(15) . . .
197(14) . . .
207(14) . . .
210(14) . . .
223(15) . . .
207(14) . . .
187(14) . . .
221(15) . . .
251(16) . . .
216(15) . . .
216(15) . . .
194(14) . . .
193(14) . . .
175(13) . . .
201(14) . . .
207(14) . . .
224(15) . . .
227(15) . . .
224(15) . . .
234(15) . . .
201(14) . . .
213(15) . . .
199(14) . . .
208(14) . . .
223(15) . . .
203(14) . . .
219(15) . . .
197(14) . . .
222(15) . . .
197(14) . . .
183(14) . . .
244(16) . . .
224(15) . . .
191(14) . . .
233(15) . . .
208(14) . . .
220(15) . . .
197(14) . . .
195(14) . . .
218(15) . . .
207(14) . . .
208(14) . . .
232(15) . . .
198(14) . . .
209(14) . . .
189(14) . . .
227(15) . . .
207(14) . . .
201(14) . . .
204(14) . . .
223(15) . . .
210(14) . . .
206(14) . . .
221(15) . . .
200(14) . . .
227(15) . . .
183(14) . . .
201(14) . . .
211(15) . . .
218(15) . . .
215(15) . . .
194(14) . . .
196(14) . . .
208(14) . . .
192(14) . . .
218(15) . . .
199(14) . . .
190(14) . . .
223(15) . . .
223(15) . . .
192(14) . . .
219(15) . . .
200(14) . . .
189(14) . . .
215(15) . . .
207(14) . . .
210(14) . . .
208(14) . . .
207(14) . . .
206(14) . . .
226(15) . . .
225(15) . . .
196(14) . . .
202(14) . . .
214(15) . . .
200(14) . . .
217(15) . . .
215(15) . . .
202(14) . . .
231(15) . . .
198(14) . . .
197(14) . . .
203(14) . . .
206(14) . . .
188(14) . . .
192(14) . . .
179(13) . . .
220(15) . . .
198(14) . . .
201(14) . . .
192(14) . . .
193(14) . . .
191(14) . . .
217(15) . . .
176(13) . . .
206(14) . . .
220(15) . . .
190(14) . . .
198(14) . . .
214(15) . . .
203(14) . . .
212(15) . . .
234(15) . . .
209(14) . . .
204(14) . . .
196(14) . . .
214(15) . . .
199(14) . . .
206(14) . . .
197(14) . . .
203(14) . . .
227(15) . . .
199(14) . . .
215(15) . . .
182(13) . . .
188(14) . . .
198(14) . . .
191(14) . . .
198(14) . . .
217(15) . . .
209(14) . . .
198(14) . . .
200(14) . . .
189(14) . . .
208(14) . . .
182(13) . . .
199(14) . . .
198(14) . . .
211(15) . . .
178(13) . . .
204(14) . . .
190(14) . . .
198(14) . . .
224(15) . . .
215(15) . . .
216(15) . . .
220(15) . . .
175(13) . . .
189(14) . . .
213(15) . . .
174(13) . . .
209(14) . . .
202(14) . . .
191(14) . . .
196(14) . . .
209(14) . . .
206(14) . . .
196(14) . . .
212(15) . . .
200(14) . . .
191(14) . . .
219(15) . . .
192(14) . . .
223(15) . . .
217(15) . . .
204(14) . . .
208(14) . . .
197(14) . . .
197(14) . . .
205(14) . . .
227(15) . . .
212(15) . . .
203(14) . . .
201(14) . . .
211(15) . . .
209(14) . . .
206(14) . . .
234(15) . . .
213(15) . . .
197(14) . . .
237(15) . . .
219(15) . . .
202(14) . . .
203(14) . . .
195(14) . . .
201(14) . . .
190(14) . . .
212(15) . . .
175(13) . . .
215(15) . . .
207(14) . . .
199(14) . . .
195(14) . . .
213(15) . . .
213(15) . . .
215(15) . . .
204(14) . . .
184(14) . . .
191(14) . . .
202(14) . . .
216(15) . . .
218(15) . . .
202(14) . . .
228(15) . . .
223(15) . . .
202(14) . . .
199(14) . . .
209(14) . . .
181(13) . . .
202(14) . . .
204(14) . . .
209(14) . . .
202(14) . . .
203(14) . . .
201(14) . . .
188(14) . . .
196(14) . . .
216(15) . . .
213(15) . . .
202(14) . . .
205(14) . . .
212(15) . . .
216(15) . . .
214(15) . . .
188(14) . . .
220(15) . . .
204(14) . . .
199(14) . . .
206(14) . . .
201(14) . . .
194(14) . . .
204(14) . . .
195(14) . . .
198(14) . . .
182(13) . . .
179(13) . . .
216(15) . . .
197(14) . . .
185(14) . . .
202(14) . . .
201(14) . . .
216(15) . . .
210(14) . . .
203(14) . . .
184(14) . . .
215(15) . . .
182(13) . . .
197(14) . . .
197(14) . . .
208(14) . . .
196(14) . . .
177(13) . . .
180(13) . . .
192(14) . . .
187(14) . . .
205(14) . . .
176(13) . . .
200(14) . . .
191(14) . . .
225(15) . . .
198(14) . . .
205(14) . . .
196(14) . . .
196(14) . . .
205(14) . . .
184(14) . . .
187(14) . . .
182(13) . . .
212(15) . . .
177(13) . . .
206(14) . . .
198(14) . . .
192(14) . . .
219(15) . . .
187(14) . . .
189(14) . . .
171(13) . . .
175(13) . . .
204(14) . . .
207(14) . . .
201(14) . . .
204(14) . . .
208(14) . . .
191(14) . . .
185(14) . . .
208(14) . . .
208(14) . . .
212(15) . . .
186(14) . . .
217(15) . . .
222(15) . . .
217(15) . . .
183(14) . . .
189(14) . . .
193(14) . . .
207(14) . . .
215(15) . . .
185(14) . . .
195(14) . . .
183(14) . . .
188(14) . . .
185(14) . . .
202(14) . . .
205(14) . . .
189(14) . . .
209(14) . . .
199(14) . . .
215(15) . . .
169(13) . . .
198(14) . . .
210(14) . . .
192(14) . . .
193(14) . . .
229(15) . . .
189(14) . . .
188(14) . . .
211(15) . . .
192(14) . . .
197(14) . . .
186(14) . . .
198(14) . . .
197(14) . . .
185(14) . . .
215(15) . . .
220(15) . . .
221(15) . . .
195(14) . . .
188(14) . . .
182(13) . . .
195(14) . . .
219(15) . . .
193(14) . . .
211(15) . . .
189(14) . . .
216(15) . . .
193(14) . . .
220(15) . . .
190(14) . . .
178(13) . . .
189(14) . . .
175(13) . . .
202(14) . . .
189(14) . . .
201(14) . . .
216(15) . . .
185(14) . . .
199(14) . . .
183(14) . . .
175(13) . . .
185(14) . . .
205(14) . . .
185(14) . . .
211(15) . . .
206(14) . . .
215(15) . . .
213(15) . . .
203(14) . . .
205(14) . . .
211(15) . . .
198(14) . . .
211(15) . . .
193(14) . . .
194(14) . . .
199(14) . . .
197(14) . . .
198(14) . . .
216(15) . . .
211(15) . . .
201(14) . . .
185(14) . . .
196(14) . . .
202(14) . . .
225(15) . . .
218(15) . . .
212(15) . . .
197(14) . . .
211(15) . . .
202(14) . . .
190(14) . . .
203(14) . . .
216(15) . . .
200(14) . . .
209(14) . . .
202(14) . . .
193(14) . . .
204(14) . . .
202(14) . . .
222(15) . . .
205(14) . . .
211(15) . . .
190(14) . . .
213(15) . . .
178(13) . . .
210(14) . . .
210(14) . . .
201(14) . . .
200(14) . . .
201(14) . . .
218(15) . . .
203(14) . . .
204(14) . . .
211(15) . . .
196(14) . . .
197(14) . . .
195(14) . . .
206(14) . . .
199(14) . . .
213(15) . . .
202(14) . . .
205(14) . . .
186(14) . . .
218(15) . . .
192(14) . . .
195(14) . . .
194(14) . . .
197(14) . . .
193(14) . . .
185(14) . . .
192(14) . . .
227(15) . . .
195(14) . . .
217(15) . . .
181(13) . . .
219(15) . . .
207(14) . . .
216(15) . . .
224(15) . . .
198(14) . . .
212(15) . . .
192(14) . . .
207(14) . . .
210(14) . . .
204(14) . . .
202(14) . . .
204(14) . . .
217(15) . . .
204(14) . . .
209(14) . . .
193(14) . . .
197(14) . . .
215(15) . . .
201(14) . . .
195(14) . . .
191(14) . . .
203(14) . . .
233(15) . . .
199(14) . . .
204(14) . . .
221(15) . . .
182(13) . . .
217(15) . . .
210(14) . . .
194(14) . . .
195(14) . . .
230(15) . . .
217(15) . . .
213(15) . . .
196(14) . . .
207(14) . . .
228(15) . . .
222(15) . . .
212(15) . . .
203(14) . . .
225(15) . . .
192(14) . . .
212(15) . . .
224(15) . . .
181(13) . . .
198(14) . . .
208(14) . . .
191(14) . . .
190(14) . . .
202(14) . . .
194(14) . . .
206(14) . . .
223(15) . . .
190(14) . . .
205(14) . . .
214(15) . . .
217(15) . . .
218(15) . . .
193(14) . . .
192(14) . . .
194(14) . . .
213(15) . . .
193(14) . . .
189(14) . . .
195(14) . . .
190(14) . . .
201(14) . . .
190(14) . . .
207(14) . . .
219(15) . . .
190(14) . . .
213(15) . . .
200(14) . . .
203(14) . . .
246(16) . . .
188(14) . . .
216(15) . . .
218(15) . . .
222(15) . . .
195(14) . . .
220(15) . . .
192(14) . . .
200(14) . . .
207(14) . . .
175(13) . . .
205(14) . . .
184(14) . . .
180(13) . . .
224(15) . . .
211(15) . . .
208(14) . . .
218(15) . . .
179(13) . . .
228(15) . . .
210(14) . . .
199(14) . . .
188(14) . . .
182(13) . . .
204(14) . . .
212(15) . . .
197(14) . . .
197(14) . . .
208(14) . . .
210(14) . . .
212(15) . . .
211(15) . . .
216(15) . . .
199(14) . . .
204(14) . . .
199(14) . . .
204(14) . . .
199(14) . . .
180(13) . . .
225(15) . . .
198(14) . . .
203(14) . . .
216(15) . . .
209(14) . . .
194(14) . . .
195(14) . . .
203(14) . . .
186(14) . . .
200(14) . . .
197(14) . . .
222(15) . . .
182(13) . . .
185(14) . . .
202(14) . . .
200(14) . . .
210(14) . . .
189(14) . . .
212(15) . . .
188(14) . . .
210(14) . . .
190(14) . . .
209(14) . . .
200(14) . . .
188(14) . . .
204(14) . . .
218(15) . . .
205(14) . . .
220(15) . . .
196(14) . . .
211(15) . . .
213(15) . . .
209(14) . . .
192(14) . . .
209(14) . . .
198(14) . . .
196(14) . . .
203(14) . . .
205(14) . . .
183(14) . . .
183(14) . . .
220(15) . . .
223(15) . . .
214(15) . . .
199(14) . . .
208(14) . . .
203(14) . . .
194(14) . . .
208(14) . . .
218(15) . . .
209(14) . . .
191(14) . . .
210(14) . . .
187(14) . . .
194(14) . . .
202(14) . . .
223(15) . . .
180(13) . . .
204(14) . . .
202(14) . . .
200(14) . . .
201(14) . . .
204(14) . . .
206(14) . . .
203(14) . . .
198(14) . . .
208(14) . . .
195(14) . . .
202(14) . . .
196(14) . . .
210(14) . . .
194(14) . . .
224(15) . . .
220(15) . . .
218(15) . . .
195(14) . . .
210(14) . . .
208(14) . . .
219(15) . . .
222(15) . . .
220(15) . . .
201(14) . . .
211(15) . . .
208(14) . . .
207(14) . . .
215(15) . . .
201(14) . . .
223(15) . . .
206(14) . . .
186(14) . . .
211(15) . . .
212(15) . . .
211(15) . . .
190(14) . . .
199(14) . . .
206(14) . . .
230(15) . . .
206(14) . . .
219(15) . . .
213(15) . . .
224(15) . . .
214(15) . . .
213(15) . . .
200(14) . . .
203(14) . . .
240(15) . . .
225(15) . . .
218(15) . . .
226(15) . . .
215(15) . . .
210(14) . . .
226(15) . . .
216(15) . . .
238(15) . . .
228(15) . . .
190(14) . . .
232(15) . . .
215(15) . . .
223(15) . . .
217(15) . . .
250(16) . . .
215(15) . . .
217(15) . . .
199(14) . . .
235(15) . . .
203(14) . . .
250(16) . . .
235(15) . . .
209(14) . . .
232(15) . . .
215(15) . . .
217(15) . . .
229(15) . . .
213(15) . . .
233(15) . . .
221(15) . . .
206(14) . . .
231(15) . . .
245(16) . . .
212(15) . . .
230(15) . . .
221(15) . . .
237(15) . . .
245(16) . . .
251(16) . . .
242(16) . . .
227(15) . . .
277(17) . . .
256(16) . . .
258(16) . . .
265(16) . . .
251(16) . . .
265(16) . . .
280(17) . . .
276(17) . . .
265(16) . . .
266(16) . . .
295(17) . . .
274(17) . . .
278(17) . . .
314(18) . . .
328(18) . . .
319(18) . . .
332(18) . . .
322(18) . . .
338(18) . . .
357(19) . . .
373(19) . . .
406(20) . . .
429(21) . . .
407(20) . . .
436(21) . . .
469(22) . . .
486(22) . . .
553(24) . . .
568(24) . . .
585(24) . . .
679(26) . . .
699(26) . . .
774(28) . . .
829(29) . . .
935(31) . . .
1065(33) . . .
1157(34) . . .
1371(37) . . .
1465(38) . . .
1609(40) . . .
1737(42) . . .
1967(44) . . .
2119(46) . . .
2303(48) . . .
2413(49) . . .
2487(50) . . .
2465(50) . . .
2496(50) . . .
2516(50) . . .
2377(49) . . .
2162(46) . . .
2070(45) . . .
1851(43) . . .
1729(42) . . .
1519(39) . . .
1352(37) . . .
1271(36) . . .
1086(33) . . .
991(31) . . .
904(30) . . .
845(29) . . .
740(27) . . .
676(26) . . .
596(24) . . .
562(24) . . .
567(24) . . .
482(22) . . .
423(21) . . .
467(22) . . .
432(21) . . .
446(21) . . .
415(20) . . .
416(20) . . .
369(19) . . .
337(18) . . .
316(18) . . .
324(18) . . .
320(18) . . .
310(18) . . .
287(17) . . .
276(17) . . .
277(17) . . .
272(16) . . .
273(17) . . .
267(16) . . .
286(17) . . .
229(15) . . .
261(16) . . .
243(16) . . .
256(16) . . .
305(17) . . .
257(16) . . .
248(16) . . .
227(15) . . .
265(16) . . .
241(16) . . .
237(15) . . .
246(16) . . .
235(15) . . .
248(16) . . .
222(15) . . .
221(15) . . .
212(15) . . .
229(15) . . .
227(15) . . .
223(15) . . .
210(14) . . .
224(15) . . .
241(16) . . .
238(15) . . .
188(14) . . .
209(14) . . .
218(15) . . .
203(14) . . .
243(16) . . .
226(15) . . .
194(14) . . .
201(14) . . .
188(14) . . .
224(15) . . .
192(14) . . .
210(14) . . .
184(14) . . .
198(14) . . .
199(14) . . .
203(14) . . .
233(15) . . .
185(14) . . .
221(15) . . .
218(15) . . .
231(15) . . .
198(14) . . .
205(14) . . .
191(14) . . .
193(14) . . .
204(14) . . .
200(14) . . .
203(14) . . .
217(15) . . .
236(15) . . .
205(14) . . .
210(14) . . .
201(14) . . .
177(13) . . .
196(14) . . .
196(14) . . .
179(13) . . .
185(14) . . .
200(14) . . .
199(14) . . .
215(15) . . .
228(15) . . .
218(15) . . .
196(14) . . .
209(14) . . .
221(15) . . .
219(15) . . .
215(15) . . .
207(14) . . .
193(14) . . .
206(14) . . .
188(14) . . .
214(15) . . .
216(15) . . .
205(14) . . .
220(15) . . .
205(14) . . .
203(14) . . .
196(14) . . .
199(14) . . .
219(15) . . .
199(14) . . .
197(14) . . .
181(13) . . .
205(14) . . .
173(13) . . .
200(14) . . .
196(14) . . .
189(14) . . .
206(14) . . .
206(14) . . .
202(14) . . .
196(14) . . .
191(14) . . .
226(15) . . .
183(14) . . .
204(14) . . .
186(14) . . .
205(14) . . .
207(14) . . .
190(14) . . .
195(14) . . .
214(15) . . .
222(15) . . .
170(13) . . .
214(15) . . .
212(15) . . .
195(14) . . .
196(14) . . .
196(14) . . .
207(14) . . .
200(14) . . .
201(14) . . .
189(14) . . .
172(13) . . .
191(14) . . .
180(13) . . .
192(14) . . .
180(13) . . .
215(15) . . .
186(14) . . .
190(14) . . .
182(13) . . .
188(14) . . .
182(13) . . .
205(14) . . .
198(14) . . .
193(14) . . .
200(14) . . .
187(14) . . .
200(14) . . .
197(14) . . .
197(14) . . .
174(13) . . .
190(14) . . .
180(13) . . .
196(14) . . .
225(15) . . .
177(13) . . .
190(14) . . .
173(13) . . .
180(13) . . .
183(14) . . .
184(14) . . .
199(14) . . .
170(13) . . .
193(14) . . .
175(13) . . .
195(14) . . .
171(13) . . .
187(14) . . .
196(14) . . .
189(14) . . .
202(14) . . .
182(13) . . .
180(13) . . .
204(14) . . .
188(14) . . .
178(13) . . .
193(14) . . .
194(14) . . .
179(13) . . .
194(14) . . .
204(14) . . .
170(13) . . .
189(14) . . .
186(14) . . .
189(14) . . .
183(14) . . .
174(13) . . .
174(13) . . .
179(13) . . .
204(14) . . .
177(13) . . .
179(13) . . .
190(14) . . .
198(14) . . .
188(14) . . .
177(13) . . .
179(13) . . .
218(15) . . .
163(13) . . .
191(14) . . .
187(14) . . .
198(14) . . .
181(13) . . .
203(14) . . .
205(14) . . .
180(13) . . .
192(14) . . .
205(14) . . .
178(13) . . .
191(14) . . .
169(13) . . .
196(14) . . .
192(14) . . .
180(13) . . .
160(13) . . .
185(14) . . .
189(14) . . .
202(14) . . .
189(14) . . .
167(13) . . .
186(14) . . .
181(13) . . .
217(15) . . .
178(13) . . .
188(14) . . .
176(13) . . .
184(14) . . .
176(13) . . .
182(13) . . .
180(13) . . .
193(14) . . .
203(14) . . .
162(13) . . .
196(14) . . .
162(13) . . .
181(13) . . .
184(14) . . .
175(13) . . .
183(14) . . .
198(14) . . .
173(13) . . .
189(14) . . .
195(14) . . .
177(13) . . .
153(12) . . .
190(14) . . .
170(13) . . .
189(14) . . .
175(13) . . .
168(13) . . .
177(13) . . .
176(13) . . .
174(13) . . .
183(14) . . .
168(13) . . .
212(15) . . .
156(12) . . .
161(13) . . .
164(13) . . .
194(14) . . .
180(13) . . .
204(14) . . .
165(13) . . .
181(13) . . .
204(14) . . .
183(14) . . .
168(13) . . .
194(14) . . .
177(13) . . .
176(13) . . .
186(14) . . .
193(14) . . .
187(14) . . .
184(14) . . .
164(13) . . .
184(14) . . .
182(13) . . .
164(13) . . .
182(13) . . .
188(14) . . .
197(14) . . .
192(14) . . .
182(13) . . .
163(13) . . .
175(13) . . .
176(13) . . .
178(13) . . .
186(14) . . .
192(14) . . .
185(14) . . .
199(14) . . .
205(14) . . .
177(13) . . .
187(14) . . .
158(13) . . .
178(13) . . .
178(13) . . .
209(14) . . .
191(14) . . .
182(13) . . .
174(13) . . .
177(13) . . .
160(13) . . .
185(14) . . .
185(14) . . .
182(13) . . .
179(13) . . .
193(14) . . .
165(13) . . .
180(13) . . .
194(14) . . .
192(14) . . .
171(13) . . .
159(13) . . .
180(13) . . .
179(13) . . .
181(13) . . .
189(14) . . .
190(14) . . .
187(14) . . .
168(13) . . .
189(14) . . .
176(13) . . .
197(14) . . .
172(13) . . .
183(14) . . .
177(13) . . .
186(14) . . .
176(13) . . .
151(12) . . .
162(13) . . .
178(13) . . .
194(14) . . .
163(13) . . .
168(13) . . .
187(14) . . .
190(14) . . .
190(14) . . .
173(13) . . .
167(13) . . .
178(13) . . .
194(14) . . .
170(13) . . .
171(13) . . .
175(13) . . .
174(13) . . .
176(13) . . .
174(13) . . .
179(13) . . .
183(14) . . .
181(13) . . .
166(13) . . .
190(14) . . .
186(14) . . .
174(13) . . .
164(13) . . .
175(13) . . .
181(13) . . .
163(13) . . .
190(14) . . .
190(14) . . .
191(14) . . .
178(13) . . .
176(13) . . .
160(13) . . .
180(13) . . .
183(14) . . .
209(14) . . .
171(13) . . .
180(13) . . .
196(14) . . .
168(13) . . .
168(13) . . .
171(13) . . .
176(13) . . .
172(13) . . .
173(13) . . .
177(13) . . .
176(13) . . .
159(13) . . .
175(13) . . .
140(12) . . .
175(13) . . .
180(13) . . .
181(13) . . .
204(14) . . .
178(13) . . .
172(13) . . .
184(14) . . .
178(13) . . .
152(12) . . .
180(13) . . .
177(13) . . .
199(14) . . .
177(13) . . .
184(14) . . .
175(13) . . .
174(13) . . .
185(14) . . .
170(13) . . .
173(13) . . .
164(13) . . .
169(13) . . .
202(14) . . .
155(12) . . .
162(13) . . .
175(13) . . .
179(13) . . .
173(13) . . .
165(13) . . .
177(13) . . .
221(15) . . .
169(13) . . .
186(14) . . .
163(13) . . .
180(13) . . .
188(14) . . .
173(13) . . .
179(13) . . .
189(14) . . .
194(14) . . .
197(14) . . .
182(13) . . .
211(15) . . .
165(13) . . .
162(13) . . .
195(14) . . .
174(13) . . .
161(13) . . .
159(13) . . .
162(13) . . .
155(12) . . .
183(14) . . .
156(12) . . .
184(14) . . .
171(13) . . .
177(13) . . .
160(13) . . .
184(14) . . .
185(14) . . .
170(13) . . .
181(13) . . .
162(13) . . .
172(13) . . .
210(14) . . .
170(13) . . .
180(13) . . .
188(14) . . .
175(13) . . .
188(14) . . .
179(13) . . .
171(13) . . .
176(13) . . .
186(14) . . .
178(13) . . .
182(13) . . .
184(14) . . .
187(14) . . .
163(13) . . .
197(14) . . .
150(12) . . .
149(12) . . .
158(13) . . .
188(14) . . .
198(14) . . .
190(14) . . .
184(14) . . .
169(13) . . .
180(13) . . .
166(13) . . .
174(13) . . .
175(13) . . .
166(13) . . .
156(12) . . .
180(13) . . .
185(14) . . .
202(14) . . .
179(13) . . .
178(13) . . .
177(13) . . .
191(14) . . .
142(12) . . .
156(12) . . .
169(13) . . .
191(14) . . .
177(13) . . .
162(13) . . .
193(14) . . .
162(13) . . .
183(14) . . .
187(14) . . .
171(13) . . .
182(13) . . .
162(13) . . .
171(13) . . .
171(13) . . .
194(14) . . .
167(13) . . .
166(13) . . .
143(12) . . .
184(14) . . .
178(13) . . .
189(14) . . .
170(13) . . .
167(13) . . .
161(13) . . .
164(13) . . .
151(12) . . .
141(12) . . .
171(13) . . .
171(13) . . .
185(14) . . .
180(13) . . .
171(13) . . .
175(13) . . .
181(13) . . .
183(14) . . .
183(14) . . .
179(13) . . .
167(13) . . .
154(12) . . .
183(14) . . .
168(13) . . .
175(13) . . .
177(13) . . .
171(13) . . .
170(13) . . .
167(13) . . .
163(13) . . .
171(13) . . .
176(13) . . .
191(14) . . .
174(13) . . .
174(13) . . .
153(12) . . .
189(14) . . .
173(13) . . .
169(13) . . .
191(14) . . .
156(12) . . .
189(14) . . .
160(13) . . .
176(13) . . .
178(13) . . .
162(13) . . .
176(13) . . .
183(14) . . .
157(13) . . .
175(13) . . .
171(13) . . .
154(12) . . .
171(13) . . .
185(14) . . .
169(13) . . .
180(13) . . .
171(13) . . .
164(13) . . .
173(13) . . .
163(13) . . .
181(13) . . .
176(13) . . .
157(13) . . .
165(13) . . .
161(13) . . .
201(14) . . .
168(13) . . .
171(13) . . .
183(14) . . .
185(14) . . .
170(13) . . .
166(13) . . .
182(13) . . .
170(13) . . .
174(13) . . .
188(14) . . .
178(13) . . .
177(13) . . .
189(14) . . .
180(13) . . .
169(13) . . .
186(14) . . .
159(13) . . .
166(13) . . .
171(13) . . .
166(13) . . .
169(13) . . .
172(13) . . .
182(13) . . .
177(13) . . .
176(13) . . .
194(14) . . .
159(13) . . .
181(13) . . .
162(13) . . .
174(13) . . .
158(13) . . .
199(14) . . .
160(13) . . .
171(13) . . .
168(13) . . .
184(14) . . .
156(12) . . .
178(13) . . .
174(13) . . .
151(12) . . .
166(13) . . .
153(12) . . .
163(13) . . .
168(13) . . .
149(12) . . .
169(13) . . .
182(13) . . .
185(14) . . .
171(13) . . .
175(13) . . .
151(12) . . .
172(13) . . .
183(14) . . .
165(13) . . .
178(13) . . .
169(13) . . .
161(13) . . .
192(14) . . .
183(14) . . .
166(13) . . .
162(13) . . .
161(13) . . .
166(13) . . .
177(13) . . .
188(14) . . .
172(13) . . .
173(13) . . .
159(13) . . .
163(13) . . .
161(13) . . .
194(14) . . .
150(12) . . .
170(13) . . .
204(14) . . .
173(13) . . .
175(13) . . .
164(13) . . .
180(13) . . .
158(13) . . .
184(14) . . .
193(14) . . .
173(13) . . .
173(13) . . .
165(13) . . .
168(13) . . .
181(13) . . .
186(14) . . .
177(13) . . .
177(13) . . .
176(13) . . .
191(14) . . .
173(13) . . .
164(13) . . .
179(13) . . .
181(13) . . .
170(13) . . .
181(13) . . .
154(12) . . .
154(12) . . .
187(14) . . .
175(13) . . .
157(13) . . .
168(13) . . .
165(13) . . .
180(13) . . .
167(13) . . .
177(13) . . .
175(13) . . .
159(13) . . .
177(13) . . .
143(12) . . .
162(13) . . .
154(12) . . .
148(12) . . .
170(13) . . .
179(13) . . .
168(13) . . .
156(12) . . .
163(13) . . .
161(13) . . .
153(12) . . .
152(12) . . .
178(13) . . .
172(13) . . .
177(13) . . .
164(13) . . .
174(13) . . .
174(13) . . .
175(13) . . .
178(13) . . .
176(13) . . .
169(13) . . .
169(13) . . .
172(13) . . .
159(13) . . .
162(13) . . .
169(13) . . .
164(13) . . .
184(14) . . .
152(12) . . .
161(13) . . .
181(13) . . .
185(14) . . .
170(13) . . .
188(14) . . .
187(14) . . .
168(13) . . .
164(13) . . .
165(13) . . .
167(13) . . .
162(13) . . .
193(14) . . .
163(13) . . .
202(14) . . .
166(13) . . .
179(13) . . .
177(13) . . .
178(13) . . .
183(14) . . .
167(13) . . .
163(13) . . .
174(13) . . .
186(14) . . .
169(13) . . .
184(14) . . .
175(13) . . .
169(13) . . .
175(13) . . .
166(13) . . .
163(13) . . .
177(13) . . .
177(13) . . .
182(13) . . .
190(14) . . .
179(13) . . .
163(13) . . .
187(14) . . .
161(13) . . .
183(14) . . .
163(13) . . .
191(14) . . .
178(13) . . .
168(13) . . .
180(13) . . .
161(13) . . .
205(14) . . .
169(13) . . .
159(13) . . .
176(13) . . .
166(13) . . .
196(14) . . .
171(13) . . .
171(13) . . .
164(13) . . .
177(13) . . .
155(12) . . .
170(13) . . .
194(14) . . .
157(13) . . .
183(14) . . .
181(13) . . .
186(14) . . .
167(13) . . .
156(12) . . .
179(13) . . .
165(13) . . .
163(13) . . .
165(13) . . .
189(14) . . .
187(14) . . .
152(12) . . .
184(14) . . .
162(13) . . .
158(13) . . .
180(13) . . .
163(13) . . .
177(13) . . .
179(13) . . .
198(14) . . .
171(13) . . .
166(13) . . .
178(13) . . .
183(14) . . .
184(14) . . .
174(13) . . .
191(14) . . .
187(14) . . .
184(14) . . .
178(13) . . .
196(14) . . .
177(13) . . .
180(13) . . .
171(13) . . .
167(13) . . .
192(14) . . .
200(14) . . .
207(14) . . .
176(13) . . .
196(14) . . .
163(13) . . .
198(14) . . .
182(13) . . .
172(13) . . .
172(13) . . .
185(14) . . .
168(13) . . .
165(13) . . .
179(13) . . .
179(13) . . .
208(14) . . .
176(13) . . .
193(14) . . .
192(14) . . .
194(14) . . .
160(13) . . .
184(14) . . .
192(14) . . .
199(14) . . .
188(14) . . .
205(14) . . .
190(14) . . .
201(14) . . .
210(14) . . .
201(14) . . .
186(14) . . .
206(14) . . .
215(15) . . .
205(14) . . .
205(14) . . .
204(14) . . .
210(14) . . .
214(15) . . .
208(14) . . .
235(15) . . .
238(15) . . .
219(15) . . .
208(14) . . .
218(15) . . .
221(15) . . .
251(16) . . .
222(15) . . .
260(16) . . .
263(16) . . .
271(16) . . .
261(16) . . .
257(16) . . .
306(17) . . .
281(17) . . .
280(17) . . .
292(17) . . .
319(18) . . .
347(19) . . .
348(19) . . .
370(19) . . .
374(19) . . .
360(19) . . .
417(20) . . .
438(21) . . .
520(23) . . .
574(24) . . .
588(24) . . .
606(25) . . .
652(26) . . .
708(27) . . .
764(28) . . .
862(29) . . .
1001(32) . . .
1082(33) . . .
1095(33) . . .
1179(34) . . .
1267(36) . . .
1268(36) . . .
1317(36) . . .
1338(37) . . .
1308(36) . . .
1364(37) . . .
1249(35) . . .
1219(35) . . .
1159(34) . . .
1091(33) . . .
1004(32) . . .
951(31) . . .
858(29) . . .
804(28) . . .
726(27) . . .
656(26) . . .
613(25) . . .
539(23) . . .
475(22) . . .
479(22) . . .
435(21) . . .
433(21) . . .
402(20) . . .
352(19) . . .
344(19) . . .
343(19) . . .
312(18) . . .
290(17) . . .
287(17) . . .
266(16) . . .
273(17) . . .
263(16) . . .
296(17) . . .
255(16) . . .
277(17) . . .
256(16) . . .
250(16) . . .
211(15) . . .
223(15) . . .
208(14) . . .
226(15) . . .
210(14) . . .
226(15) . . .
202(14) . . .
202(14) . . .
200(14) . . .
200(14) . . .
202(14) . . .
178(13) . . .
199(14) . . .
205(14) . . .
201(14) . . .
197(14) . . .
182(13) . . .
215(15) . . .
199(14) . . .
200(14) . . .
188(14) . . .
197(14) . . .
206(14) . . .
189(14) . . .
168(13) . . .
172(13) . . .
192(14) . . .
205(14) . . .
202(14) . . .
176(13) . . .
168(13) . . .
178(13) . . .
169(13) . . .
182(13) . . .
185(14) . . .
193(14) . . .
177(13) . . .
203(14) . . .
147(12) . . .
145(12) . . .
170(13) . . .
200(14) . . .
196(14) . . .
163(13) . . .
184(14) . . .
173(13) . . .
195(14) . . .
193(14) . . .
190(14) . . .
173(13) . . .
162(13) . . .
193(14) . . .
172(13) . . .
188(14) . . .
157(13) . . .
147(12) . . .
172(13) . . .
165(13) . . .
186(14) . . .
167(13) . . .
178(13) . . .
203(14) . . .
195(14) . . .
191(14) . . .
176(13) . . .
190(14) . . .
171(13) . . .
185(14) . . .
170(13) . . .
186(14) . . .
164(13) . . .
167(13) . . .
197(14) . . .
167(13) . . .
173(13) . . .
171(13) . . .
182(13) . . .
176(13) . . .
177(13) . . .
181(13) . . .
192(14) . . .
174(13) . . .
163(13) . . .
185(14) . . .
181(13) . . .
169(13) . . .
200(14) . . .
187(14) . . .
180(13) . . .
163(13) . . .
176(13) . . .
186(14) . . .
191(14) . . .
177(13) . . .
181(13) . . .
185(14) . . .
178(13) . . .
153(12) . . .
167(13) . . .
163(13) . . .
187(14) . . .
178(13) . . .
177(13) . . .
160(13) . . .
179(13) . . .
174(13) . . .
178(13) . . .
144(12) . . .
183(14) . . .
169(13) . . .
165(13) . . .
155(12) . . .
157(13) . . .
175(13) . . .
179(13) . . .
170(13) . . .
191(14) . . .
168(13) . . .
186(14) . . .
176(13) . . .
167(13) . . .
182(13) . . .
183(14) . . .
170(13) . . .
170(13) . . .
184(14) . . .
183(14) . . .
157(13) . . .
163(13) . . .
182(13) . . .
173(13) . . .
154(12) . . .
148(12) . . .
181(13) . . .
185(14) . . .
166(13) . . .
170(13) . . .
165(13) . . .
173(13) . . .
166(13) . . .
170(13) . . .
172(13) . . .
180(13) . . .
165(13) . . .
168(13) . . .
175(13) . . .
145(12) . . .
201(14) . . .
149(12) . . .
168(13) . . .
184(14) . . .
181(13) . . .
181(13) . . .
178(13) . . .
176(13) . . .
164(13) . . .
171(13) . . .
167(13) . . .
165(13) . . .
168(13) . . .
182(13) . . .
184(14) . . .
147(12) . . .
163(13) . . .
170(13) . . .
170(13) . . .
178(13) . . .
182(13) . . .
163(13) . . .
188(14) . . .
174(13) . . .
147(12) . . .
174(13) . . .
153(12) . . .
181(13) . . .
134(12) . . .
157(13) . . .
196(14) . . .
194(14) . . .
177(13) . . .
172(13) . . .
147(12) . . .
177(13) . . .
189(14) . . .
202(14) . . .
166(13) . . .
174(13) . . .
170(13) . . .
185(14) . . .
186(14) . . .
185(14) . . .
184(14) . . .
173(13) . . .
195(14) . . .
172(13) . . .
175(13) . . .
168(13) . . .
172(13) . . .
175(13) . . .
175(13) . . .
186(14) . . .
174(13) . . .
175(13) . . .
158(13) . . .
179(13) . . .
187(14) . . .
192(14) . . .
178(13) . . .
182(13) . . .
186(14) . . .
176(13) . . .
180(13) . . .
187(14) . . .
167(13) . . .
185(14) . . .
174(13) . . .
169(13) . . .
184(14) . . .
179(13) . . .
181(13) . . .
180(13) . . .
182(13) . . .
178(13) . . .
181(13) . . .
198(14) . . .
192(14) . . .
188(14) . . .
174(13) . . .
183(14) . . .
213(15) . . .
187(14) . . .
195(14) . . .
199(14) . . .
193(14) . . .
203(14) . . .
238(15) . . .
231(15) . . .
221(15) . . .
244(16) . . .
236(15) . . .
239(15) . . .
237(15) . . .
245(16) . . .
283(17) . . .
289(17) . . .
279(17) . . .
274(17) . . .
275(17) . . .
309(18) . . .
336(18) . . .
361(19) . . .
387(20) . . .
374(19) . . .
417(20) . . .
418(20) . . .
463(22) . . .
492(22) . . .
558(24) . . .
628(25) . . .
596(24) . . .
711(27) . . .
750(27) . . .
805(28) . . .
815(29) . . .
877(30) . . .
884(30) . . .
918(30) . . .
911(30) . . .
929(30) . . .
904(30) . . .
865(29) . . .
819(29) . . .
743(27) . . .
680(26) . . .
645(25) . . .
641(25) . . .
562(24) . . .
517(23) . . .
483(22) . . .
461(21) . . .
422(21) . . .
409(20) . . .
396(20) . . .
370(19) . . .
326(18) . . .
313(18) . . .
324(18) . . .
289(17) . . .
259(16) . . .
270(16) . . .
260(16) . . .
267(16) . . .
242(16) . . .
229(15) . . .
234(15) . . .
242(16) . . .
194(14) . . .
238(15) . . .
223(15) . . .
218(15) . . .
206(14) . . .
236(15) . . .
218(15) . . .
205(14) . . .
179(13) . . .
210(14) . . .
213(15) . . .
197(14) . . .
176(13) . . .
175(13) . . .
184(14) . . .
184(14) . . .
166(13) . . .
173(13) . . .
170(13) . . .
175(13) . . .
210(14) . . .
189(14) . . .
182(13) . . .
187(14) . . .
197(14) . . .
172(13) . . .
159(13) . . .
165(13) . . .
180(13) . . .
185(14) . . .
180(13) . . .
192(14) . . .
195(14) . . .
212(15) . . .
164(13) . . .
175(13) . . .
155(12) . . .
149(12) . . .
167(13) . . .
162(13) . . .
191(14) . . .
175(13) . . .
157(13) . . .
176(13) . . .
166(13) . . .
167(13) . . .
179(13) . . .
164(13) . . .
166(13) . . .
163(13) . . .
164(13) . . .
174(13) . . .
155(12) . . .
148(12) . . .
169(13) . . .
161(13) . . .
176(13) . . .
173(13) . . .
156(12) . . .
175(13) . . .
176(13) . . .
167(13) . . .
158(13) . . .
161(13) . . .
159(13) . . .
159(13) . . .
174(13) . . .
158(13) . . .
155(12) . . .
164(13) . . .
169(13) . . .
162(13) . . .
166(13) . . .
175(13) . . .
146(12) . . .
166(13) . . .
161(13) . . .
165(13) . . .
179(13) . . .
162(13) . . .
161(13) . . .
156(12) . . .
166(13) . . .
157(13) . . .
154(12) . . .
163(13) . . .
176(13) . . .
166(13) . . .
146(12) . . .
139(12) . . .
166(13) . . .
174(13) . . .
182(13) . . .
170(13) . . .
165(13) . . .
146(12) . . .
158(13) . . .
187(14) . . .
178(13) . . .
186(14) . . .
151(12) . . .
151(12) . . .
159(13) . . .
171(13) . . .
159(13) . . .
145(12) . . .
152(12) . . .
180(13) . . .
164(13) . . .
157(13) . . .
140(12) . . .
164(13) . . .
174(13) . . .
155(12) . . .
184(14) . . .
176(13) . . .
168(13) . . .
154(12) . . .
146(12) . . .
168(13) . . .
150(12) . . .
160(13) . . .
172(13) . . .
165(13) . . .
165(13) . . .
164(13) . . .
131(11) . . .
149(12) . . .
150(12) . . .
159(13) . . .
173(13) . . .
128(11) . . .
160(13) . . .
156(12) . . .
155(12) . . .
138(12) . . .
159(13) . . .
153(12) . . .
169(13) . . .
188(14) . . .
161(13) . . .
169(13) . . .
151(12) . . .
155(12) . . .
144(12) . . .
165(13) . . .
172(13) . . .
163(13) . . .
166(13) . . .
163(13) . . .
164(13) . . .
186(14) . . .
164(13) . . .
149(12) . . .
176(13) . . .
162(13) . . .
152(12) . . .
136(12) . . .
155(12) . . .
168(13) . . .
157(13) . . .
153(12) . . .
151(12) . . .
152(12) . . .
167(13) . . .
141(12) . . .
145(12) . . .
136(12) . . .
157(13) . . .
149(12) . . .
162(13) . . .
183(14) . . .
165(13) . . .
160(13) . . .
148(12) . . .
143(12) . . .
145(12) . . .
182(13) . . .
159(13) . . .
149(12) . . .
152(12) . . .
166(13) . . .
155(12) . . .
147(12) . . .
159(13) . . .
148(12) . . .
147(12) . . .
162(13) . . .
163(13) . . .
166(13) . . .
187(14) . . .
143(12) . . .
145(12) . . .
154(12) . . .
167(13) . . .
144(12) . . .
137(12) . . .
161(13) . . .
153(12) . . .
138(12) . . .
155(12) . . .
148(12) . . .
164(13) . . .
145(12) . . .
160(13) . . .
158(13) . . .
169(13) . . .
143(12) . . .
146(12) . . .
164(13) . . .
167(13) . . .
156(12) . . .
149(12) . . .
154(12) . . .
134(12) . . .
151(12) . . .
175(13) . . .
170(13) . . .
163(13) . . .
153(12) . . .
147(12) . . .
163(13) . . .
163(13) . . .
144(12) . . .
140(12) . . .
162(13) . . .
161(13) . . .
147(12) . . .
152(12) . . .
163(13) . . .
150(12) . . .
159(13) . . .
157(13) . . .
163(13) . . .
156(12) . . .
150(12) . . .
170(13) . . .
159(13) . . .
160(13) . . .
154(12) . . .
163(13) . . .
154(12) . . .
150(12) . . .
160(13) . . .
157(13) . . .
156(12) . . .
152(12) . . .
147(12) . . .
163(13) . . .
155(12) . . .
155(12) . . .
169(13) . . .
149(12) . . .
155(12) . . .
154(12) . . .
184(14) . . .
159(13) . . .
140(12) . . .
144(12) . . .
145(12) . . .
163(13) . . .
161(13) . . .
171(13) . . .
156(12) . . .
160(13) . . .
182(13) . . .
166(13) . . .
167(13) . . .
166(13) . . .
162(13) . . .
149(12) . . .
158(13) . . .
157(13) . . .
166(13) . . .
149(12) . . .
171(13) . . .
166(13) . . .
158(13) . . .
135(12) . . .
135(12) . . .
145(12) . . .
151(12) . . .
147(12) . . .
141(12) . . .
131(11) . . .
141(12) . . .
170(13) . . .
154(12) . . .
154(12) . . .
152(12) . . .
144(12) . . .
151(12) . . .
150(12) . . .
141(12) . . .
144(12) . . .
185(14) . . .
163(13) . . .
151(12) . . .
149(12) . . .
145(12) . . .
141(12) . . .
158(13) . . .
149(12) . . .
148(12) . . .
151(12) . . .
159(13) . . .
139(12) . . .
139(12) . . .
158(13) . . .
157(13) . . .
155(12) . . .
149(12) . . .
136(12) . . .
142(12) . . .
151(12) . . .
130(11) . . .
154(12) . . .
184(14) . . .
155(12) . . .
135(12) . . .
159(13) . . .
147(12) . . .
141(12) . . .
160(13) . . .
168(13) . . .
161(13) . . .
164(13) . . .
152(12) . . .
176(13) . . .
163(13) . . .
155(12) . . .
146(12) . . .
166(13) . . .
174(13) . . .
165(13) . . .
177(13) . . .
146(12) . . .
156(12) . . .
151(12) . . .
153(12) . . .
175(13) . . .
142(12) . . .
173(13) . . .
162(13) . . .
174(13) . . .
144(12) . . .
140(12) . . .
173(13) . . .
174(13) . . .
158(13) . . .
149(12) . . .
142(12) . . .
160(13) . . .
164(13) . . .
145(12) . . .
164(13) . . .
158(13) . . .
163(13) . . .
156(12) . . .
149(12) . . .
144(12) . . .
150(12) . . .
150(12) . . .
144(12) . . .
149(12) . . .
148(12) . . .
148(12) . . .
148(12) . . .
149(12) . . .
136(12) . . .
151(12) . . .
163(13) . . .
147(12) . . .
169(13) . . .
174(13) . . .
153(12) . . .
162(13) . . .
168(13) . . .
169(13) . . .
148(12) . . .
137(12) . . .
162(13) . . .
137(12) . . .
153(12) . . .
163(13) . . .
146(12) . . .
139(12) . . .
152(12) . . .
144(12) . . .
160(13) . . .
166(13) . . .
163(13) . . .
154(12) . . .
142(12) . . .
168(13) . . .
151(12) . . .
152(12) . . .
168(13) . . .
153(12) . . .
154(12) . . .
146(12) . . .
128(11) . . .
150(12) . . .
123(11) . . .
140(12) . . .
145(12) . . .
138(12) . . .
157(13) . . .
158(13) . . .
167(13) . . .
148(12) . . .
153(12) . . .
143(12) . . .
139(12) . . .
147(12) . . .
139(12) . . .
146(12) . . .
159(13) . . .
151(12) . . .
139(12) . . .
147(12) . . .
153(12) . . .
142(12) . . .
138(12) . . .
136(12) . . .
157(13) . . .
150(12) . . .
163(13) . . .
162(13) . . .
160(13) . . .
144(12) . . .
166(13) . . .
163(13) . . .
157(13) . . .
153(12) . . .
146(12) . . .
145(12) . . .
148(12) . . .
142(12) . . .
161(13) . . .
130(11) . . .
152(12) . . .
155(12) . . .
135(12) . . .
161(13) . . .
142(12) . . .
124(11) . . .
151(12) . . .
137(12) . . .
156(12) . . .
149(12) . . .
128(11) . . .
154(12) . . .
147(12) . . .
139(12) . . .
164(13) . . .
162(13) . . .
146(12) . . .
152(12) . . .
144(12) . . .
176(13) . . .
131(11) . . .
151(12) . . .
148(12) . . .
157(13) . . .
144(12) . . .
150(12) . . .
137(12) . . .
148(12) . . .
142(12) . . .
159(13) . . .
150(12) . . .
133(12) . . .
147(12) . . .
139(12) . . .
156(12) . . .
151(12) . . .
145(12) . . .
150(12) . . .
147(12) . . .
153(12) . . .
152(12) . . .
141(12) . . .
173(13) . . .
150(12) . . .
145(12) . . .
157(13) . . .
151(12) . . .
154(12) . . .
156(12) . . .
146(12) . . .
131(11) . . .
135(12) . . .
139(12) . . .
147(12) . . .
167(13) . . .
156(12) . . .
160(13) . . .
146(12) . . .
153(12) . . .
132(11) . . .
158(13) . . .
134(12) . . .
131(11) . . .
161(13) . . .
154(12) . . .
150(12) . . .
148(12) . . .
165(13) . . .
151(12) . . .
118(11) . . .
157(13) . . .
133(12) . . .
142(12) . . .
124(11) . . .
135(12) . . .
154(12) . . .
145(12) . . .
179(13) . . .
138(12) . . .
139(12) . . .
148(12) . . .
132(11) . . .
140(12) . . .
135(12) . . .
157(13) . . .
148(12) . . .
150(12) . . .
143(12) . . .
150(12) . . .
149(12) . . .
151(12) . . .
165(13) . . .
144(12) . . .
157(13) . . .
132(11) . . .
155(12) . . .
138(12) . . .
137(12) . . .
149(12) . . .
153(12) . . .
131(11) . . .
163(13) . . .
158(13) . . .
158(13) . . .
134(12) . . .
141(12) . . .
166(13) . . .
163(13) . . .
139(12) . . .
149(12) . . .
152(12) . . .
152(12) . . .
138(12) . . .
141(12) . . .
154(12) . . .
149(12) . . .
155(12) . . .
163(13) . . .
154(12) . . .
144(12) . . .
143(12) . . .
145(12) . . .
143(12) . . .
161(13) . . .
153(12) . . .
133(12) . . .
161(13) . . .
152(12) . . .
142(12) . . .
153(12) . . .
155(12) . . .
134(12) . . .
160(13) . . .
132(11) . . .
134(12) . . .
165(13) . . .
142(12) . . .
157(13) . . .
162(13) . . .
148(12) . . .
166(13) . . .
142(12) . . .
146(12) . . .
155(12) . . .
138(12) . . .
155(12) . . .
128(11) . . .
142(12) . . .
158(13) . . .
151(12) . . .
147(12) . . .
154(12) . . .
141(12) . . .
142(12) . . .
140(12) . . .
159(13) . . .
140(12) . . .
161(13) . . .
170(13) . . .
141(12) . . .
152(12) . . .
147(12) . . .
143(12) . . .
165(13) . . .
143(12) . . .
154(12) . . .
146(12) . . .
133(12) . . .
161(13) . . .
156(12) . . .
157(13) . . .
171(13) . . .
155(12) . . .
144(12) . . .
150(12) . . .
149(12) . . .
158(13) . . .
141(12) . . .
158(13) . . .
165(13) . . .
133(12) . . .
149(12) . . .
143(12) . . .
171(13) . . .
173(13) . . .
145(12) . . .
143(12) . . .
145(12) . . .
163(13) . . .
154(12) . . .
179(13) . . .
156(12) . . .
170(13) . . .
130(11) . . .
141(12) . . .
150(12) . . .
154(12) . . .
162(13) . . .
137(12) . . .
179(13) . . .
155(12) . . .
142(12) . . .
146(12) . . .
163(13) . . .
161(13) . . .
141(12) . . .
137(12) . . .
163(13) . . .
136(12) . . .
152(12) . . .
136(12) . . .
141(12) . . .
158(13) . . .
147(12) . . .
149(12) . . .
142(12) . . .
145(12) . . .
144(12) . . .
150(12) . . .
147(12) . . .
148(12) . . .
139(12) . . .
143(12) . . .
143(12) . . .
153(12) . . .
138(12) . . .
138(12) . . .
146(12) . . .
150(12) . . .
149(12) . . .
144(12) . . .
136(12) . . .
145(12) . . .
143(12) . . .
133(12) . . .
147(12) . . .
154(12) . . .
160(13) . . .
155(12) . . .
158(13) . . .
138(12) . . .
137(12) . . .
155(12) . . .
163(13) . . .
155(12) . . .
135(12) . . .
152(12) . . .
149(12) . . .
136(12) . . .
156(12) . . .
152(12) . . .
150(12) . . .
140(12) . . .
137(12) . . .
136(12) . . .
145(12) . . .
175(13) . . .
163(13) . . .
123(11) . . .
135(12) . . .
154(12) . . .
135(12) . . .
141(12) . . .
140(12) . . .
149(12) . . .
134(12) . . .
143(12) . . .
159(13) . . .
134(12) . . .
145(12) . . .
144(12) . . .
145(12) . . .
159(13) . . .
130(11) . . .
154(12) . . .
114(11) . . .
130(11) . . .
161(13) . . .
128(11) . . .
120(11) . . .
149(12) . . .
141(12) . . .
142(12) . . .
141(12) . . .
145(12) . . .
167(13) . . .
145(12) . . .
157(13) . . .
133(12) . . .
142(12) . . .
147(12) . . .
143(12) . . .
154(12) . . .
158(13) . . .
159(13) . . .
154(12) . . .
141(12) . . .
172(13) . . .
158(13) . . .
151(12) . . .
137(12) . . .
150(12) . . .
131(11) . . .
149(12) . . .
145(12) . . .
151(12) . . .
150(12) . . .
155(12) . . .
136(12) . . .
143(12) . . .
149(12) . . .
149(12) . . .
138(12) . . .
143(12) . . .
154(12) . . .
136(12) . . .
168(13) . . .
146(12) . . .
140(12) . . .
146(12) . . .
153(12) . . .
154(12) . . .
140(12) . . .
142(12) . . .
135(12) . . .
150(12) . . .
144(12) . . .
148(12) . . .
150(12) . . .
143(12) . . .
162(13) . . .
136(12) . . .
155(12) . . .
157(13) . . .
155(12) . . .
136(12) . . .
154(12) . . .
148(12) . . .
137(12) . . .
152(12) . . .
151(12) . . .
136(12) . . .
135(12) . . .
145(12) . . .
163(13) . . .
158(13) . . .
155(12) . . .
125(11) . . .
174(13) . . .
149(12) . . .
139(12) . . .
164(13) . . .
156(12) . . .
119(11) . . .
145(12) . . .
131(11) . . .
140(12) . . .
146(12) . . .
158(13) . . .
142(12) . . .
148(12) . . .
154(12) . . .
148(12) . . .
149(12) . . .
160(13) . . .
153(12) . . .
145(12) . . .
149(12) . . .
128(11) . . .
164(13) . . .
144(12) . . .
157(13) . . .
141(12) . . .
180(13) . . .
147(12) . . .
142(12) . . .
147(12) . . .
157(13) . . .
146(12) . . .
143(12) . . .
165(13) . . .
161(13) . . .
154(12) . . .
147(12) . . .
156(12) . . .
147(12) . . .
136(12) . . .
145(12) . . .
149(12) . . .
160(13) . . .
139(12) . . .
144(12) . . .
151(12) . . .
144(12) . . .
167(13) . . .
132(11) . . .
140(12) . . .
144(12) . . .
143(12) . . .
153(12) . . .
156(12) . . .
151(12) . . .
134(12) . . .
159(13) . . .
153(12) . . .
153(12) . . .
131(11) . . .
132(11) . . .
157(13) . . .
168(13) . . .
151(12) . . .
156(12) . . .
135(12) . . .
137(12) . . .
123(11) . . .
127(11) . . .
142(12) . . .
130(11) . . .
145(12) . . .
160(13) . . .
157(13) . . .
150(12) . . .
161(13) . . .
148(12) . . .
173(13) . . .
157(13) . . .
176(13) . . .
154(12) . . .
152(12) . . .
145(12) . . .
170(13) . . .
151(12) . . .
158(13) . . .
159(13) . . .
129(11) . . .
142(12) . . .
130(11) . . .
139(12) . . .
154(12) . . .
161(13) . . .
152(12) . . .
165(13) . . .
128(11) . . .
157(13) . . .
132(11) . . .
143(12) . . .
148(12) . . .
157(13) . . .
160(13) . . .
168(13) . . .
160(13) . . .
179(13) . . .
157(13) . . .
167(13) . . .
163(13) . . .
161(13) . . .
155(12) . . .
157(13) . . .
174(13) . . .
165(13) . . .
161(13) . . .
164(13) . . .
141(12) . . .
158(13) . . .
137(12) . . .
137(12) . . .
177(13) . . .
157(13) . . .
150(12) . . .
147(12) . . .
151(12) . . .
150(12) . . .
143(12) . . .
151(12) . . .
149(12) . . .
140(12) . . .
153(12) . . .
160(13) . . .
157(13) . . .
142(12) . . .
142(12) . . .
162(13) . . .
141(12) . . .
173(13) . . .
160(13) . . .
148(12) . . .
147(12) . . .
136(12) . . .
159(13) . . .
146(12) . . .
158(13) . . .
156(12) . . .
163(13) . . .
153(12) . . .
162(13) . . .
159(13) . . .
142(12) . . .
160(13) . . .
167(13) . . .
146(12) . . .
156(12) . . .
157(13) . . .
153(12) . . .
154(12) . . .
147(12) . . .
135(12) . . .
143(12) . . .
163(13) . . .
155(12) . . .
151(12) . . .
147(12) . . .
128(11) . . .
141(12) . . .
147(12) . . .
152(12) . . .
154(12) . . .
179(13) . . .
152(12) . . .
144(12) . . .
151(12) . . .
146(12) . . .
133(12) . . .
152(12) . . .
170(13) . . .
145(12) . . .
172(13) . . .
158(13) . . .
142(12) . . .
138(12) . . .
139(12) . . .
158(13) . . .
156(12) . . .
121(11) . . .
134(12) . . .
145(12) . . .
154(12) . . .
143(12) . . .
127(11) . . .
142(12) . . .
133(12) . . .
124(11) . . .
141(12) . . .
135(12) . . .
146(12) . . .
153(12) . . .
148(12) . . .
160(13) . . .
150(12) . . .
160(13) . . .
142(12) . . .
157(13) . . .
153(12) . . .
153(12) . . .
135(12) . . .
157(13) . . .
153(12) . . .
137(12) . . .
146(12) . . .
138(12) . . .
134(12) . . .
151(12) . . .
143(12) . . .
153(12) . . .
171(13) . . .
145(12) . . .
129(11) . . .
139(12) . . .
161(13) . . .
155(12) . . .
133(12) . . .
127(11) . . .
149(12) . . .
158(13) . . .
134(12) . . .
171(13) . . .
180(13) . . .
153(12) . . .
145(12) . . .
156(12) . . .
151(12) . . .
147(12) . . .
160(13) . . .
162(13) . . .
147(12) . . .
149(12) . . .
144(12) . . .
153(12) . . .
145(12) . . .
144(12) . . .
160(13) . . .
152(12) . . .
131(11) . . .
137(12) . . .
136(12) . . .
165(13) . . .
139(12) . . .
138(12) . . .
164(13) . . .
154(12) . . .
135(12) . . .
163(13) . . .
154(12) . . .
152(12) . . .
158(13) . . .
146(12) . . .
146(12) . . .
162(13) . . .
126(11) . . .
142(12) . . .
140(12) . . .
153(12) . . .
138(12) . . .
157(13) . . .
166(13) . . .
149(12) . . .
152(12) . . .
141(12) . . .
132(11) . . .
146(12) . . .
158(13) . . .
160(13) . . .
127(11) . . .
124(11) . . .
162(13) . . .
146(12) . . .
149(12) . . .
151(12) . . .
151(12) . . .
151(12) . . .
157(13) . . .
147(12) . . .
153(12) . . .
134(12) . . .
151(12) . . .
155(12) . . .
148(12) . . .
130(11) . . .
159(13) . . .
134(12) . . .
137(12) . . .
149(12) . . .
154(12) . . .
159(13) . . .
142(12) . . .
131(11) . . .
174(13) . . .
137(12) . . .
144(12) . . .
146(12) . . .
156(12) . . .
129(11) . . .
163(13) . . .
152(12) . . .
151(12) . . .
146(12) . . .
169(13) . . .
169(13) . . .
141(12) . . .
158(13) . . .
139(12) . . .
161(13) . . .
169(13) . . .
148(12) . . .
150(12) . . .
152(12) . . .
159(13) . . .
148(12) . . .
153(12) . . .
148(12) . . .
164(13) . . .
166(13) . . .
159(13) . . .
152(12) . . .
153(12) . . .
134(12) . . .
159(13) . . .
147(12) . . .
162(13) . . .
148(12) . . .
173(13) . . .
150(12) . . .
137(12) . . .
166(13) . . .
135(12) . . .
158(13) . . .
159(13) . . .
166(13) . . .
151(12) . . .
152(12) . . .
146(12) . . .
156(12) . . .
158(13) . . .
171(13) . . .
162(13) . . .
129(11) . . .
144(12) . . .
148(12) . . .
147(12) . . .
145(12) . . .
145(12) . . .
149(12) . . .
155(12) . . .
158(13) . . .
167(13) . . .
146(12) . . .
195(14) . . .
161(13) . . .
171(13) . . .
161(13) . . .
166(13) . . .
184(14) . . .
193(14) . . .
182(13) . . .
167(13) . . .
168(13) . . .
179(13) . . .
199(14) . . .
197(14) . . .
172(13) . . .
202(14) . . .
204(14) . . .
226(15) . . .
228(15) . . .
227(15) . . .
235(15) . . .
243(16) . . .
212(15) . . .
248(16) . . .
263(16) . . .
239(15) . . .
275(17) . . .
217(15) . . .
207(14) . . .
213(15) . . .
208(14) . . .
211(15) . . .
189(14) . . .
186(14) . . .
158(13) . . .
177(13) . . .
197(14) . . .
168(13) . . .
162(13) . . .
169(13) . . .
151(12) . . .
144(12) . . .
149(12) . . .
147(12) . . .
154(12) . . .
150(12) . . .
162(13) . . .
177(13) . . .
155(12) . . .
153(12) . . .
157(13) . . .
150(12) . . .
150(12) . . .
144(12) . . .
147(12) . . .
136(12) . . .
157(13) . . .
139(12) . . .
156(12) . . .
154(12) . . .
151(12) . . .
149(12) . . .
145(12) . . .
171(13) . . .
165(13) . . .
143(12) . . .
158(13) . . .
144(12) . . .
167(13) . . .
136(12) . . .
140(12) . . .
127(11) . . .
154(12) . . .
146(12) . . .
143(12) . . .
137(12) . . .
135(12) . . .
150(12) . . .
137(12) . . .
137(12) . . .
152(12) . . .
144(12) . . .
150(12) . . .
162(13) . . .
164(13) . . .
137(12) . . .
145(12) . . .
142(12) . . .
138(12) . . .
162(13) . . .
143(12) . . .
152(12) . . .
140(12) . . .
143(12) . . .
154(12) . . .
163(13) . . .
146(12) . . .
140(12) . . .
153(12) . . .
171(13) . . .
159(13) . . .
167(13) . . .
138(12) . . .
142(12) . . .
142(12) . . .
125(11) . . .
140(12) . . .
144(12) . . .
145(12) . . .
146(12) . . .
137(12) . . .
158(13) . . .
134(12) . . .
150(12) . . .
168(13) . . .
148(12) . . .
151(12) . . .
149(12) . . .
147(12) . . .
158(13) . . .
142(12) . . .
158(13) . . .
153(12) . . .
131(11) . . .
182(13) . . .
175(13) . . .
138(12) . . .
150(12) . . .
146(12) . . .
163(13) . . .
156(12) . . .
123(11) . . .
145(12) . . .
135(12) . . .
152(12) . . .
150(12) . . .
152(12) . . .
150(12) . . .
140(12) . . .
144(12) . . .
157(13) . . .
166(13) . . .
146(12) . . .
137(12) . . .
138(12) . . .
154(12) . . .
140(12) . . .
167(13) . . .
154(12) . . .
152(12) . . .
149(12) . . .
143(12) . . .
150(12) . . .
142(12) . . .
132(11) . . .
136(12) . . .
151(12) . . .
151(12) . . .
161(13) . . .
154(12) . . .
145(12) . . .
155(12) . . .
155(12) . . .
161(13) . . .
129(11) . . .
163(13) . . .
132(11) . . .
147(12) . . .
155(12) . . .
148(12) . . .
140(12) . . .
141(12) . . .
168(13) . . .
163(13) . . .
152(12) . . .
132(11) . . .
139(12) . . .
144(12) . . .
146(12) . . .
160(13) . . .
123(11) . . .
135(12) . . .
144(12) . . .
142(12) . . .
142(12) . . .
149(12) . . .
140(12) . . .
153(12) . . .
138(12) . . .
134(12) . . .
145(12) . . .
153(12) . . .
136(12) . . .
132(11) . . .
141(12) . . .
158(13) . . .
141(12) . . .
150(12) . . .
158(13) . . .
140(12) . . .
152(12) . . .
148(12) . . .
155(12) . . .
139(12) . . .
132(11) . . .
146(12) . . .
149(12) . . .
149(12) . . .
139(12) . . .
169(13) . . .
164(13) . . .
147(12) . . .
159(13) . . .
134(12) . . .
136(12) . . .
152(12) . . .
150(12) . . .
155(12) . . .
154(12) . . .
167(13) . . .
157(13) . . .
161(13) . . .
157(13) . . .
146(12) . . .
145(12) . . .
158(13) . . .
157(13) . . .
149(12) . . .
139(12) . . .
163(13) . . .
142(12) . . .
140(12) . . .
164(13) . . .
169(13) . . .
152(12) . . .
141(12) . . .
164(13) . . .
159(13) . . .
134(12) . . .
146(12) . . .
136(12) . . .
142(12) . . .
147(12) . . .
141(12) . . .
135(12) . . .
138(12) . . .
155(12) . . .
161(13) . . .
131(11) . . .
164(13) . . .
168(13) . . .
145(12) . . .
163(13) . . .
150(12) . . .
143(12) . . .
159(13) . . .
134(12) . . .
163(13) . . .
146(12) . . .
145(12) . . .
135(12) . . .
163(13) . . .
136(12) . . .
148(12) . . .
147(12) . . .
172(13) . . .
158(13) . . .
158(13) . . .
154(12) . . .
138(12) . . .
144(12) . . .
161(13) . . .
154(12) . . .
151(12) . . .
155(12) . . .
135(12) . . .
158(13) . . .
143(12) . . .
150(12) . . .
160(13) . . .
140(12) . . .
161(13) . . .
148(12) . . .
143(12) . . .
151(12) . . .
141(12) . . .
156(12) . . .
143(12) . . .
142(12) . . .
145(12) . . .
155(12) . . .
137(12) . . .
144(12) . . .
166(13) . . .
170(13) . . .
152(12) . . .
143(12) . . .
157(13) . . .
164(13) . . .
156(12) . . .
148(12) . . .
141(12) . . .
158(13) . . .
136(12) . . .
139(12) . . .
150(12) . . .
139(12) . . .
164(13) . . .
165(13) . . .
154(12) . . .
147(12) . . .
152(12) . . .
143(12) . . .
157(13) . . .
175(13) . . .
148(12) . . .
147(12) . . .
140(12) . . .
140(12) . . .
161(13) . . .
146(12) . . .
153(12) . . .
159(13) . . .
145(12) . . .
161(13) . . .
156(12) . . .
159(13) . . .
163(13) . . .
161(13) . . .
152(12) . . .
131(11) . . .
150(12) . . .
156(12) . . .
163(13) . . .
136(12) . . .
151(12) . . .
158(13) . . .
167(13) . . .
145(12) . . .
127(11) . . .
152(12) . . .
138(12) . . .
163(13) . . .
158(13) . . .
153(12) . . .
149(12) . . .
143(12) . . .
160(13) . . .
146(12) . . .
151(12) . . .
164(13) . . .
151(12) . . .
136(12) . . .
160(13) . . .
147(12) . . .
161(13) . . .
148(12) . . .
154(12) . . .
144(12) . . .
154(12) . . .
163(13) . . .
147(12) . . .
134(12) . . .
135(12) . . .
159(13) . . .
146(12) . . .
160(13) . . .
146(12) . . .
150(12) . . .
166(13) . . .
158(13) . . .
162(13) . . .
160(13) . . .
139(12) . . .
163(13) . . .
150(12) . . .
153(12) . . .
154(12) . . .
141(12) . . .
160(13) . . .
155(12) . . .
170(13) . . .
156(12) . . .
161(13) . . .
163(13) . . .
156(12) . . .
156(12) . . .
149(12) . . .
157(13) . . .
156(12) . . .
148(12) . . .
174(13) . . .
153(12) . . .
162(13) . . .
148(12) . . .
146(12) . . .
152(12) . . .
153(12) . . .
166(13) . . .
147(12) . . .
152(12) . . .
172(13) . . .
147(12) . . .
156(12) . . .
151(12) . . .
143(12) . . .
164(13) . . .
137(12) . . .
152(12) . . .
159(13) . . .
171(13) . . .
158(13) . . .
154(12) . . .
151(12) . . .
149(12) . . .
158(13) . . .
149(12) . . .
166(13) . . .
179(13) . . .
174(13) . . .
137(12) . . .
150(12) . . .
150(12) . . .
152(12) . . .
137(12) . . .
153(12) . . .
155(12) . . .
176(13) . . .
156(12) . . .
164(13) . . .
146(12) . . .
147(12) . . .
160(13) . . .
181(13) . . .
160(13) . . .
147(12) . . .
158(13) . . .
141(12) . . .
143(12) . . .
162(13) . . .
170(13) . . .
133(12) . . .
150(12) . . .
161(13) . . .
149(12) . . .
138(12) . . .
129(11) . . .
152(12) . . .
152(12) . . .
162(13) . . .
142(12) . . .
151(12) . . .
166(13) . . .
155(12) . . .
141(12) . . .
151(12) . . .
164(13) . . .
160(13) . . .
132(11) . . .
141(12) . . .
146(12) . . .
135(12) . . .
156(12) . . .
182(13) . . .
170(13) . . .
152(12) . . .
145(12) . . .
168(13) . . .
149(12) . . .
157(13) . . .
153(12) . . .
158(13) . . .
160(13) . . .
136(12) . . .
161(13) . . .
172(13) . . .
151(12) . . .
153(12) . . .
154(12) . . .
168(13) . . .
170(13) . . .
154(12) . . .
162(13) . . .
149(12) . . .
152(12) . . .
162(13) . . .
170(13) . . .
154(12) . . .
161(13) . . .
140(12) . . .
147(12) . . .
155(12) . . .
137(12) . . .
155(12) . . .
138(12) . . .
150(12) . . .
145(12) . . .
148(12) . . .
168(13) . . .
176(13) . . .
152(12) . . .
156(12) . . .
153(12) . . .
155(12) . . .
159(13) . . .
157(13) . . .
147(12) . . .
170(13) . . .
171(13) . . .
162(13) . . .
171(13) . . .
172(13) . . .
161(13) . . .
145(12) . . .
162(13) . . .
148(12) . . .
160(13) . . .
163(13) . . .
148(12) . . .
144(12) . . .
172(13) . . .
149(12) . . .
153(12) . . .
157(13) . . .
159(13) . . .
148(12) . . .
163(13) . . .
173(13) . . .
173(13) . . .
158(13) . . .
150(12) . . .
147(12) . . .
171(13) . . .
153(12) . . .
149(12) . . .
166(13) . . .
147(12) . . .
140(12) . . .
157(13) . . .
171(13) . . .
158(13) . . .
159(13) . . .
163(13) . . .
173(13) . . .
184(14) . . .
152(12) . . .
167(13) . . .
164(13) . . .
165(13) . . .
156(12) . . .
146(12) . . .
152(12) . . .
139(12) . . .
154(12) . . .
158(13) . . .
164(13) . . .
152(12) . . .
160(13) . . .
169(13) . . .
182(13) . . .
155(12) . . .
161(13) . . .
148(12) . . .
178(13) . . .
142(12) . . .
155(12) . . .
160(13) . . .
160(13) . . .
157(13) . . .
163(13) . . .
183(14) . . .
168(13) . . .
160(13) . . .
171(13) . . .
159(13) . . .
168(13) . . .
174(13) . . .
175(13) . . .
139(12) . . .
154(12) . . .
170(13) . . .
167(13) . . .
145(12) . . .
147(12) . . .
155(12) . . .
154(12) . . .
181(13) . . .
175(13) . . .
154(12) . . .
156(12) . . .
148(12) . . .
148(12) . . .
145(12) . . .
162(13) . . .
152(12) . . .
145(12) . . .
137(12) . . .
139(12) . . .
153(12) . . .
161(13) . . .
163(13) . . .
153(12) . . .
148(12) . . .
162(13) . . .
160(13) . . .
154(12) . . .
148(12) . . .
167(13) . . .
167(13) . . .
162(13) . . .
158(13) . . .
167(13) . . .
163(13) . . .
158(13) . . .
181(13) . . .
161(13) . . .
138(12) . . .
175(13) . . .
164(13) . . .
142(12) . . .
157(13) . . .
162(13) . . .
166(13) . . .
170(13) . . .
164(13) . . .
166(13) . . .
164(13) . . .
164(13) . . .
174(13) . . .
171(13) . . .
174(13) . . .
153(12) . . .
182(13) . . .
163(13) . . .
168(13) . . .
157(13) . . .
145(12) . . .
172(13) . . .
168(13) . . .
172(13) . . .
157(13) . . .
150(12) . . .
170(13) . . .
174(13) . . .
166(13) . . .
182(13) . . .
160(13) . . .
158(13) . . .
151(12) . . .
159(13) . . .
146(12) . . .
178(13) . . .
145(12) . . .
185(14) . . .
165(13) . . .
175(13) . . .
167(13) . . .
161(13) . . .
162(13) . . .
156(12) . . .
151(12) . . .
171(13) . . .
166(13) . . .
160(13) . . .
165(13) . . .
159(13) . . .
164(13) . . .
180(13) . . .
160(13) . . .
177(13) . . .
174(13) . . .
181(13) . . .
158(13) . . .
149(12) . . .
153(12) . . .
176(13) . . .
168(13) . . .
176(13) . . .
164(13) . . .
175(13) . . .
159(13) . . .
147(12) . . .
161(13) . . .
162(13) . . .
170(13) . . .
159(13) . . .
164(13) . . .
164(13) . . .
159(13) . . .
162(13) . . .
163(13) . . .
150(12) . . .
165(13) . . .
160(13) . . .
169(13) . . .
154(12) . . .
148(12) . . .
151(12) . . .
172(13) . . .
179(13) . . .
154(12) . . .
172(13) . . .
165(13) . . .
184(14) . . .
192(14) . . .
166(13) . . .
194(14) . . .
163(13) . . .
180(13) . . .
174(13) . . .
173(13) . . .
164(13) . . .
152(12) . . .
155(12) . . .
163(13) . . .
164(13) . . .
161(13) . . .
177(13) . . .
172(13) . . .
178(13) . . .
155(12) . . .
172(13) . . .
179(13) . . .
168(13) . . .
158(13) . . .
158(13) . . .
161(13) . . .
161(13) . . .
161(13) . . .
163(13) . . .
165(13) . . .
145(12) . . .
149(12) . . .
158(13) . . .
185(14) . . .
164(13) . . .
167(13) . . .
201(14) . . .
174(13) . . .
158(13) . . .
172(13) . . .
153(12) . . .
158(13) . . .
173(13) . . .
162(13) . . .
166(13) . . .
173(13) . . .
154(12) . . .
153(12) . . .
172(13) . . .
177(13) . . .
174(13) . . .
173(13) . . .
161(13) . . .
167(13) . . .
186(14) . . .
147(12) . . .
168(13) . . .
184(14) . . .
192(14) . . .
166(13) . . .
170(13) . . .
195(14) . . .
194(14) . . .
171(13) . . .
180(13) . . .
169(13) . . .
169(13) . . .
151(12) . . .
165(13) . . .
171(13) . . .
144(12) . . .
149(12) . . .
157(13) . . .
155(12) . . .
164(13) . . .
176(13) . . .
167(13) . . .
164(13) . . .
173(13) . . .
190(14) . . .
172(13) . . .
170(13) . . .
175(13) . . .
164(13) . . .
148(12) . . .
190(14) . . .
170(13) . . .
188(14) . . .
174(13) . . .
169(13) . . .
179(13) . . .
185(14) . . .
192(14) . . .
199(14) . . .
189(14) . . .
167(13) . . .
165(13) . . .
188(14) . . .
183(14) . . .
166(13) . . .
156(12) . . .
176(13) . . .
189(14) . . .
207(14) . . .
166(13) . . .
192(14) . . .
194(14) . . .
173(13) . . .
173(13) . . .
186(14) . . .
156(12) . . .
185(14) . . .
179(13) . . .
184(14) . . .
190(14) . . .
188(14) . . .
179(13) . . .
167(13) . . .
193(14) . . .
201(14) . . .
206(14) . . .
192(14) . . .
206(14) . . .
178(13) . . .
197(14) . . .
214(15) . . .
171(13) . . .
194(14) . . .
189(14) . . .
196(14) . . .
177(13) . . .
196(14) . . .
208(14) . . .
193(14) . . .
191(14) . . .
196(14) . . .
178(13) . . .
200(14) . . .
204(14) . . .
209(14) . . .
176(13) . . .
192(14) . . .
199(14) . . .
181(13) . . .
198(14) . . .
183(14) . . .
197(14) . . .
202(14) . . .
207(14) . . .
200(14) . . .
211(15) . . .
194(14) . . .
189(14) . . .
210(14) . . .
224(15) . . .
227(15) . . .
215(15) . . .
224(15) . . .
207(14) . . .
222(15) . . .
215(15) . . .
216(15) . . .
237(15) . . .
229(15) . . .
255(16) . . .
222(15) . . .
221(15) . . .
229(15) . . .
236(15) . . .
287(17) . . .
266(16) . . .
258(16) . . .
252(16) . . .
267(16) . . .
284(17) . . .
272(16) . . .
279(17) . . .
282(17) . . .
293(17) . . .
270(16) . . .
312(18) . . .
310(18) . . .
297(17) . . .
321(18) . . .
340(18) . . .
324(18) . . .
338(18) . . .
377(19) . . .
390(20) . . .
383(20) . . .
421(21) . . .
426(21) . . .
452(21) . . .
469(22) . . .
477(22) . . .
513(23) . . .
556(24) . . .
582(24) . . .
601(25) . . .
669(26) . . .
685(26) . . .
736(27) . . .
829(29) . . .
879(30) . . .
909(30) . . .
1029(32) . . .
1089(33) . . .
1214(35) . . .
1326(36) . . .
1360(37) . . .
1561(40) . . .
1665(41) . . .
1847(43) . . .
1898(44) . . .
2056(45) . . .
2123(46) . . .
2208(47) . . .
2372(49) . . .
2340(48) . . .
2439(49) . . .
2370(49) . . .
2413(49) . . .
2297(48) . . .
2261(48) . . .
2161(46) . . .
2094(46) . . .
2002(45) . . .
1895(44) . . .
1632(40) . . .
1554(39) . . .
1486(39) . . .
1344(37) . . .
1170(34) . . .
1151(34) . . .
1011(32) . . .
933(31) . . .
883(30) . . .
848(29) . . .
745(27) . . .
704(27) . . .
649(25) . . .
602(25) . . .
546(23) . . .
559(24) . . .
527(23) . . .
469(22) . . .
455(21) . . .
409(20) . . .
410(20) . . .
385(20) . . .
386(20) . . .
356(19) . . .
358(19) . . .
345(19) . . .
339(18) . . .
301(17) . . .
317(18) . . .
295(17) . . .
306(17) . . .
264(16) . . .
287(17) . . .
289(17) . . .
287(17) . . .
274(17) . . .
272(16) . . .
260(16) . . .
256(16) . . .
253(16) . . .
244(16) . . .
266(16) . . .
232(15) . . .
227(15) . . .
230(15) . . .
239(15) . . .
254(16) . . .
227(15) . . .
212(15) . . .
213(15) . . .
195(14) . . .
220(15) . . .
222(15) . . .
206(14) . . .
227(15) . . .
207(14) . . .
227(15) . . .
200(14) . . .
217(15) . . .
210(14) . . .
214(15) . . .
199(14) . . .
215(15) . . .
209(14) . . .
203(14) . . .
204(14) . . .
180(13) . . .
194(14) . . .
212(15) . . .
198(14) . . .
199(14) . . .
200(14) . . .
202(14) . . .
206(14) . . .
198(14) . . .
182(13) . . .
183(14) . . .
226(15) . . .
204(14) . . .
197(14) . . .
198(14) . . .
172(13) . . .
177(13) . . .
195(14) . . .
175(13) . . .
205(14) . . .
188(14) . . .
184(14) . . .
193(14) . . .
201(14) . . .
200(14) . . .
191(14) . . .
196(14) . . .
183(14) . . .
192(14) . . .
172(13) . . .
184(14) . . .
179(13) . . .
191(14) . . .
198(14) . . .
199(14) . . .
176(13) . . .
176(13) . . .
193(14) . . .
196(14) . . .
180(13) . . .
198(14) . . .
186(14) . . .
202(14) . . .
181(13) . . .
190(14) . . .
167(13) . . .
188(14) . . .
189(14) . . .
180(13) . . .
185(14) . . .
180(13) . . .
173(13) . . .
173(13) . . .
190(14) . . .
168(13) . . .
187(14) . . .
185(14) . . .
187(14) . . .
181(13) . . .
200(14) . . .
175(13) . . .
188(14) . . .
180(13) . . .
184(14) . . .
164(13) . . .
178(13) . . .
183(14) . . .
168(13) . . .
191(14) . . .
181(13) . . .
181(13) . . .
180(13) . . .
190(14) . . .
177(13) . . .
173(13) . . .
196(14) . . .
169(13) . . .
195(14) . . .
192(14) . . .
171(13) . . .
192(14) . . .
179(13) . . .
171(13) . . .
173(13) . . .
193(14) . . .
189(14) . . .
180(13) . . .
163(13) . . .
175(13) . . .
176(13) . . .
179(13) . . .
192(14) . . .
164(13) . . .
172(13) . . .
196(14) . . .
186(14) . . .
170(13) . . .
160(13) . . .
156(12) . . .
158(13) . . .
167(13) . . .
163(13) . . .
183(14) . . .
186(14) . . .
168(13) . . .
179(13) . . .
180(13) . . .
185(14) . . .
172(13) . . .
174(13) . . .
187(14) . . .
189(14) . . .
176(13) . . .
190(14) . . .
178(13) . . .
164(13) . . .
170(13) . . .
169(13) . . .
176(13) . . .
190(14) . . .
173(13) . . .
171(13) . . .
193(14) . . .
177(13) . . .
178(13) . . .
186(14) . . .
184(14) . . .
190(14) . . .
187(14) . . .
170(13) . . .
167(13) . . .
192(14) . . .
195(14) . . .
187(14) . . .
186(14) . . .
172(13) . . .
187(14) . . .
174(13) . . .
185(14) . . .
181(13) . . .
172(13) . . .
187(14) . . .
176(13) . . .
184(14) . . .
166(13) . . .
170(13) . . .
175(13) . . .
158(13) . . .
197(14) . . .
182(13) . . .
188(14) . . .
178(13) . . .
169(13) . . .
160(13) . . .
187(14) . . .
194(14) . . .
195(14) . . .
172(13) . . .
196(14) . . .
183(14) . . .
180(13) . . .
179(13) . . .
176(13) . . .
211(15) . . .
195(14) . . .
192(14) . . .
203(14) . . .
196(14) . . .
178(13) . . .
182(13) . . .
208(14) . . .
192(14) . . .
210(14) . . .
218(15) . . .
200(14) . . .
177(13) . . .
192(14) . . .
194(14) . . .
219(15) . . .
205(14) . . .
227(15) . . .
214(15) . . .
213(15) . . .
204(14) . . .
214(15) . . .
211(15) . . .
246(16) . . .
255(16) . . .
229(15) . . .
247(16) . . .
230(15) . . .
246(16) . . .
246(16) . . .
256(16) . . .
273(17) . . .
265(16) . . .
262(16) . . .
262(16) . . .
319(18) . . .
303(17) . . .
283(17) . . .
292(17) . . .
328(18) . . .
351(19) . . .
370(19) . . .
346(19) . . .
375(19) . . .
402(20) . . .
459(21) . . .
440(21) . . .
491(22) . . .
539(23) . . .
583(24) . . .
635(25) . . .
652(26) . . .
726(27) . . .
759(28) . . .
792(28) . . .
914(30) . . .
960(31) . . .
994(32) . . .
1034(32) . . .
1118(33) . . .
1155(34) . . .
1139(34) . . .
1151(34) . . .
1159(34) . . .
1185(34) . . .
1123(34) . . .
1144(34) . . .
1101(33) . . .
1058(33) . . .
982(31) . . .
919(30) . . .
891(30) . . .
821(29) . . .
718(27) . . .
701(26) . . .
688(26) . . .
595(24) . . .
548(23) . . .
480(22) . . .
472(22) . . .
430(21) . . .
410(20) . . .
419(20) . . .
363(19) . . .
367(19) . . .
328(18) . . .
319(18) . . .
307(18) . . .
315(18) . . .
282(17) . . .
276(17) . . .
296(17) . . .
275(17) . . .
253(16) . . .
246(16) . . .
256(16) . . .
219(15) . . .
238(15) . . .
238(15) . . .
247(16) . . .
251(16) . . .
219(15) . . .
232(15) . . .
208(14) . . .
207(14) . . .
206(14) . . .
221(15) . . .
225(15) . . .
192(14) . . .
219(15) . . .
198(14) . . .
191(14) . . .
202(14) . . .
200(14) . . .
196(14) . . .
176(13) . . .
184(14) . . .
201(14) . . .
188(14) . . .
194(14) . . .
188(14) . . .
191(14) . . .
194(14) . . .
174(13) . . .
187(14) . . .
182(13) . . .
187(14) . . .
178(13) . . .
201(14) . . .
190(14) . . .
172(13) . . .
175(13) . . .
195(14) . . .
181(13) . . .
160(13) . . .
200(14) . . .
177(13) . . .
177(13) . . .
184(14) . . .
203(14) . . .
157(13) . . .
187(14) . . .
189(14) . . .
179(13) . . .
160(13) . . .
163(13) . . .
155(12) . . .
178(13) . . .
162(13) . . .
178(13) . . .
176(13) . . .
180(13) . . .
171(13) . . .
168(13) . . .
176(13) . . .
168(13) . . .
171(13) . . .
181(13) . . .
154(12) . . .
175(13) . . .
186(14) . . .
164(13) . . .
156(12) . . .
159(13) . . .
148(12) . . .
181(13) . . .
162(13) . . .
148(12) . . .
170(13) . . .
163(13) . . .
161(13) . . .
169(13) . . .
160(13) . . .
185(14) . . .
140(12) . . .
195(14) . . .
166(13) . . .
161(13) . . .
170(13) . . .
157(13) . . .
197(14) . . .
165(13) . . .
169(13) . . .
157(13) . . .
172(13) . . .
169(13) . . .
169(13) . . .
185(14) . . .
188(14) . . .
159(13) . . .
180(13) . . .
175(13) . . .
178(13) . . .
169(13) . . .
163(13) . . .
156(12) . . .
159(13) . . .
174(13) . . .
166(13) . . .
169(13) . . .
157(13) . . .
188(14) . . .
173(13) . . .
158(13) . . .
162(13) . . .
164(13) . . .
175(13) . . .
168(13) . . .
159(13) . . .
167(13) . . .
165(13) . . .
158(13) . . .
177(13) . . .
176(13) . . .
171(13) . . .
147(12) . . .
163(13) . . .
139(12) . . .
153(12) . . .
168(13) . . .
163(13) . . .
176(13) . . .
143(12) . . .
140(12) . . .
157(13) . . .
147(12) . . .
155(12) . . .
139(12) . . .
142(12) . . .
161(13) . . .
160(13) . . .
137(12) . . .
155(12) . . .
175(13) . . .
171(13) . . .
177(13) . . .
163(13) . . .
171(13) . . .
162(13) . . .
161(13) . . .
154(12) . . .
154(12) . . .
157(13) . . .
150(12) . . .
151(12) . . .
180(13) . . .
147(12) . . .
126(11) . . .
165(13) . . .
158(13) . . .
183(14) . . .
154(12) . . .
158(13) . . .
165(13) . . .
157(13) . . .
147(12) . . .
142(12) . . .
153(12) . . .
169(13) . . .
146(12) . . .
174(13) . . .
158(13) . . .
177(13) . . .
166(13) . . .
155(12) . . .
162(13) . . .
163(13) . . .
141(12) . . .
167(13) . . .
156(12) . . .
178(13) . . .
154(12) . . .
146(12) . . .
154(12) . . .
164(13) . . .
143(12) . . .
150(12) . . .
133(12) . . .
148(12) . . .
147(12) . . .
148(12) . . .
167(13) . . .
149(12) . . .
155(12) . . .
162(13) . . .
152(12) . . .
180(13) . . .
163(13) . . .
147(12) . . .
135(12) . . .
161(13) . . .
161(13) . . .
175(13) . . .
153(12) . . .
172(13) . . .
175(13) . . .
143(12) . . .
178(13) . . .
165(13) . . .
166(13) . . .
137(12) . . .
153(12) . . .
174(13) . . .
172(13) . . .
149(12) . . .
152(12) . . .
167(13) . . .
137(12) . . .
151(12) . . .
150(12) . . .
161(13) . . .
148(12) . . .
143(12) . . .
157(13) . . .
154(12) . . .
148(12) . . .
146(12) . . .
159(13) . . .
135(12) . . .
160(13) . . .
150(12) . . .
132(11) . . .
154(12) . . .
157(13) . . .
151(12) . . .
152(12) . . .
163(13) . . .
152(12) . . .
154(12) . . .
161(13) . . .
147(12) . . .
138(12) . . .
146(12) . . .
161(13) . . .
161(13) . . .
168(13) . . .
154(12) . . .
153(12) . . .
166(13) . . .
152(12) . . .
157(13) . . .
163(13) . . .
142(12) . . .
158(13) . . .
145(12) . . .
144(12) . . .
138(12) . . .
148(12) . . .
162(13) . . .
146(12) . . .
155(12) . . .
145(12) . . .
152(12) . . .
140(12) . . .
130(11) . . .
135(12) . . .
157(13) . . .
162(13) . . .
142(12) . . .
155(12) . . .
147(12) . . .
146(12) . . .
140(12) . . .
168(13) . . .
161(13) . . .
151(12) . . .
156(12) . . .
147(12) . . .
159(13) . . .
161(13) . . .
163(13) . . .
169(13) . . .
165(13) . . .
164(13) . . .
160(13) . . .
156(12) . . .
152(12) . . .
144(12) . . .
139(12) . . .
157(13) . . .
135(12) . . .
153(12) . . .
150(12) . . .
156(12) . . .
164(13) . . .
151(12) . . .
143(12) . . .
167(13) . . .
143(12) . . .
138(12) . . .
144(12) . . .
136(12) . . .
147(12) . . .
149(12) . . .
162(13) . . .
137(12) . . .
146(12) . . .
141(12) . . .
141(12) . . .
149(12) . . .
151(12) . . .
167(13) . . .
149(12) . . .
146(12) . . .
142(12) . . .
142(12) . . .
151(12) . . .
147(12) . . .
139(12) . . .
142(12) . . .
135(12) . . .
151(12) . . .
144(12) . . .
150(12) . . .
150(12) . . .
166(13) . . .
146(12) . . .
143(12) . . .
150(12) . . .
151(12) . . .
145(12) . . .
139(12) . . .
155(12) . . .
153(12) . . .
147(12) . . .
152(12) . . .
140(12) . . .
164(13) . . .
151(12) . . .
149(12) . . .
145(12) . . .
150(12) . . .
172(13) . . .
147(12) . . .
142(12) . . .
164(13) . . .
135(12) . . .
164(13) . . .
154(12) . . .
162(13) . . .
154(12) . . .
149(12) . . .
127(11) . . .
139(12) . . .
151(12) . . .
154(12) . . .
141(12) . . .
169(13) . . .
144(12) . . .
156(12) . . .
145(12) . . .
139(12) . . .
158(13) . . .
149(12) . . .
159(13) . . .
163(13) . . .
152(12) . . .
166(13) . . .
148(12) . . .
143(12) . . .
128(11) . . .
147(12) . . .
139(12) . . .
117(11) . . .
127(11) . . .
136(12) . . .
141(12) . . .
138(12) . . .
138(12) . . .
148(12) . . .
149(12) . . .
139(12) . . .
155(12) . . .
153(12) . . .
154(12) . . .
158(13) . . .
147(12) . . .
148(12) . . .
151(12) . . .
148(12) . . .
147(12) . . .
152(12) . . .
152(12) . . .
143(12) . . .
157(13) . . .
158(13) . . .
163(13) . . .
143(12) . . .
142(12) . . .
154(12) . . .
138(12) . . .
149(12) . . .
156(12) . . .
166(13) . . .
158(13) . . .
147(12) . . .
134(12) . . .
142(12) . . .
147(12) . . .
165(13) . . .
150(12) . . .
132(11) . . .
155(12) . . .
142(12) . . .
150(12) . . .
153(12) . . .
152(12) . . .
166(13) . . .
163(13) . . .
154(12) . . .
158(13) . . .
146(12) . . .
144(12) . . .
177(13) . . .
153(12) . . .
168(13) . . .
150(12) . . .
157(13) . . .
136(12) . . .
142(12) . . .
161(13) . . .
146(12) . . .
139(12) . . .
148(12) . . .
160(13) . . .
140(12) . . .
148(12) . . .
136(12) . . .
159(13) . . .
132(11) . . .
148(12) . . .
155(12) . . .
152(12) . . .
153(12) . . .
129(11) . . .
142(12) . . .
139(12) . . .
134(12) . . .
149(12) . . .
139(12) . . .
139(12) . . .
141(12) . . .
168(13) . . .
151(12) . . .
130(11) . . .
130(11) . . .
151(12) . . .
142(12) . . .
163(13) . . .
144(12) . . .
151(12) . . .
138(12) . . .
168(13) . . .
139(12) . . .
142(12) . . .
153(12) . . .
143(12) . . .
146(12) . . .
147(12) . . .
136(12) . . .
139(12) . . .
141(12) . . .
140(12) . . .
142(12) . . .
136(12) . . .
160(13) . . .
137(12) . . .
144(12) . . .
149(12) . . .
140(12) . . .
151(12) . . .
145(12) . . .
161(13) . . .
140(12) . . .
151(12) . . .
163(13) . . .
147(12) . . .
148(12) . . .
149(12) . . .
149(12) . . .
144(12) . . .
147(12) . . .
143(12) . . .
164(13) . . .
143(12) . . .
135(12) . . .
136(12) . . .
131(11) . . .
134(12) . . .
137(12) . . .
143(12) . . .
152(12) . . .
153(12) . . .
151(12) . . .
149(12) . . .
134(12) . . .
157(13) . . .
147(12) . . .
157(13) . . .
127(11) . . .
140(12) . . .
139(12) . . .
156(12) . . .
153(12) . . .
146(12) . . .
150(12) . . .
154(12) . . .
191(14) . . .
143(12) . . .
128(11) . . .
136(12) . . .
150(12) . . .
153(12) . . .
139(12) . . .
147(12) . . .
130(11) . . .
154(12) . . .
148(12) . . .
135(12) . . .
146(12) . . .
147(12) . . .
157(13) . . .
138(12) . . .
120(11) . . .
125(11) . . .
157(13) . . .
163(13) . . .
145(12) . . .
150(12) . . .
134(12) . . .
129(11) . . .
141(12) . . .
124(11) . . .
130(11) . . .
123(11) . . .
139(12) . . .
141(12) . . .
142(12) . . .
142(12) . . .
138(12) . . .
138(12) . . .
176(13) . . .
140(12) . . .
146(12) . . .
138(12) . . .
147(12) . . .
147(12) . . .
157(13) . . .
131(11) . . .
147(12) . . .
136(12) . . .
119(11) . . .
140(12) . . .
155(12) . . .
142(12) . . .
146(12) . . .
133(12) . . .
141(12) . . .
150(12) . . .
153(12) . . .
161(13) . . .
148(12) . . .
152(12) . . .
156(12) . . .
152(12) . . .
145(12) . . .
153(12) . . .
141(12) . . .
160(13) . . .
140(12) . . .
126(11) . . .
138(12) . . .
151(12) . . .
144(12) . . .
134(12) . . .
129(11) . . .
146(12) . . .
147(12) . . .
143(12) . . .
133(12) . . .
138(12) . . .
154(12) . . .
158(13) . . .
178(13) . . .
134(12) . . .
155(12) . . .
147(12) . . .
160(13) . . .
149(12) . . .
159(13) . . .
161(13) . . .
135(12) . . .
165(13) . . .
149(12) . . .
154(12) . . .
132(11) . . .
140(12) . . .
144(12) . . .
146(12) . . .
148(12) . . .
141(12) . . .
155(12) . . .
138(12) . . .
144(12) . . .
170(13) . . .
140(12) . . .
137(12) . . .
145(12) . . .
136(12) . . .
163(13) . . .
139(12) . . .
131(11) . . .
148(12) . . .
146(12) . . .
142(12) . . .
155(12) . . .
133(12) . . .
154(12) . . .
126(11) . . .
139(12) . . .
134(12) . . .
157(13) . . .
155(12) . . .
142(12) . . .
142(12) . . .
130(11) . . .
153(12) . . .
134(12) . . .
154(12) . . .
136(12) . . .
141(12) . . .
149(12) . . .
134(12) . . .
135(12) . . .
144(12) . . .
149(12) . . .
112(11) . . .
136(12) . . .
154(12) . . .
148(12) . . .
139(12) . . .
130(11) . . .
152(12) . . .
128(11) . . .
155(12) . . .
147(12) . . .
140(12) . . .
141(12) . . .
126(11) . . .
137(12) . . .
163(13) . . .
132(11) . . .
143(12) . . .
133(12) . . .
146(12) . . .
150(12) . . .
162(13) . . .
161(13) . . .
136(12) . . .
145(12) . . .
132(11) . . .
145(12) . . .
153(12) . . .
128(11) . . .
135(12) . . .
135(12) . . .
152(12) . . .
151(12) . . .
154(12) . . .
155(12) . . .
160(13) . . .
148(12) . . .
149(12) . . .
148(12) . . .
160(13) . . .
159(13) . . .
134(12) . . .
137(12) . . .
139(12) . . .
150(12) . . .
148(12) . . .
136(12) . . .
143(12) . . .
146(12) . . .
154(12) . . .
147(12) . . .
140(12) . . .
146(12) . . .
145(12) . . .
163(13) . . .
143(12) . . .
147(12) . . .
150(12) . . .
136(12) . . .
147(12) . . .
149(12) . . .
134(12) . . .
129(11) . . .
144(12) . . .
147(12) . . .
152(12) . . .
143(12) . . .
155(12) . . .
132(11) . . .
135(12) . . .
147(12) . . .
150(12) . . .
140(12) . . .
141(12) . . .
139(12) . . .
141(12) . . .
143(12) . . .
145(12) . . .
124(11) . . .
146(12) . . .
117(11) . . .
136(12) . . .
148(12) . . .
170(13) . . .
135(12) . . .
146(12) . . .
146(12) . . .
164(13) . . .
151(12) . . .
144(12) . . .
153(12) . . .
137(12) . . .
138(12) . . .
156(12) . . .
132(11) . . .
144(12) . . .
153(12) . . .
146(12) . . .
151(12) . . .
157(13) . . .
138(12) . . .
150(12) . . .
139(12) . . .
150(12) . . .
138(12) . . .
150(12) . . .
143(12) . . .
166(13) . . .
141(12) . . .
156(12) . . .
164(13) . . .
152(12) . . .
139(12) . . .
134(12) . . .
140(12) . . .
131(11) . . .
138(12) . . .
145(12) . . .
142(12) . . .
151(12) . . .
132(11) . . .
149(12) . . .
156(12) . . .
140(12) . . .
145(12) . . .
145(12) . . .
150(12) . . .
137(12) . . .
140(12) . . .
134(12) . . .
137(12) . . .
140(12) . . .
139(12) . . .
157(13) . . .
142(12) . . .
131(11) . . .
139(12) . . .
154(12) . . .
139(12) . . .
141(12) . . .
153(12) . . .
142(12) . . .
147(12) . . .
132(11) . . .
110(10) . . .
131(11) . . .
150(12) . . .
139(12) . . .
145(12) . . .
130(11) . . .
144(12) . . .
146(12) . . .
143(12) . . .
149(12) . . .
132(11) . . .
154(12) . . .
159(13) . . .
143(12) . . .
143(12) . . .
137(12) . . .
146(12) . . .
155(12) . . .
155(12) . . .
141(12) . . .
160(13) . . .
166(13) . . .
157(13) . . .
157(13) . . .
141(12) . . .
159(13) . . .
155(12) . . .
140(12) . . .
139(12) . . .
156(12) . . .
150(12) . . .
149(12) . . .
151(12) . . .
143(12) . . .
138(12) . . .
133(12) . . .
136(12) . . .
135(12) . . .
158(13) . . .
153(12) . . .
144(12) . . .
149(12) . . .
147(12) . . .
147(12) . . .
144(12) . . .
137(12) . . .
126(11) . . .
138(12) . . .
144(12) . . .
145(12) . . .
148(12) . . .
150(12) . . .
136(12) . . .
151(12) . . .
147(12) . . .
156(12) . . .
148(12) . . .
149(12) . . .
150(12) . . .
145(12) . . .
144(12) . . .
146(12) . . .
124(11) . . .
140(12) . . .
134(12) . . .
142(12) . . .
141(12) . . .
146(12) . . .
149(12) . . .
149(12) . . .
145(12) . . .
150(12) . . .
166(13) . . .
146(12) . . .
152(12) . . .
146(12) . . .
144(12) . . .
155(12) . . .
150(12) . . .
147(12) . . .
148(12) . . .
120(11) . . .
150(12) . . .
174(13) . . .
161(13) . . .
160(13) . . .
145(12) . . .
121(11) . . .
137(12) . . .
144(12) . . .
141(12) . . .
131(11) . . .
135(12) . . .
154(12) . . .
139(12) . . .
143(12) . . .
149(12) . . .
157(13) . . .
144(12) . . .
135(12) . . .
148(12) . . .
131(11) . . .
146(12) . . .
125(11) . . .
133(12) . . .
147(12) . . .
144(12) . . .
147(12) . . .
140(12) . . .
134(12) . . .
159(13) . . .
140(12) . . .
147(12) . . .
147(12) . . .
148(12) . . .
152(12) . . .
140(12) . . .
120(11) . . .
151(12) . . .
149(12) . . .
140(12) . . .
150(12) . . .
144(12) . . .
159(13) . . .
158(13) . . .
152(12) . . .
144(12) . . .
143(12) . . .
141(12) . . .
169(13) . . .
151(12) . . .
147(12) . . .
139(12) . . .
160(13) . . .
148(12) . . .
158(13) . . .
134(12) . . .
151(12) . . .
124(11) . . .
141(12) . . .
149(12) . . .
156(12) . . .
145(12) . . .
163(13) . . .
174(13) . . .
162(13) . . .
142(12) . . .
144(12) . . .
159(13) . . .
148(12) . . .
140(12) . . .
143(12) . . .
145(12) . . .
155(12) . . .
152(12) . . .
137(12) . . .
139(12) . . .
140(12) . . .
147(12) . . .
162(13) . . .
138(12) . . .
130(11) . . .
147(12) . . .
140(12) . . .
166(13) . . .
141(12) . . .
130(11) . . .
130(11) . . .
141(12) . . .
146(12) . . .
140(12) . . .
138(12) . . .
151(12) . . .
131(11) . . .
160(13) . . .
156(12) . . .
143(12) . . .
139(12) . . .
157(13) . . .
136(12) . . .
138(12) . . .
155(12) . . .
145(12) . . .
161(13) . . .
145(12) . . .
133(12) . . .
153(12) . . .
161(13) . . .
163(13) . . .
143(12) . . .
134(12) . . .
167(13) . . .
159(13) . . .
144(12) . . .
139(12) . . .
146(12) . . .
143(12) . . .
151(12) . . .
163(13) . . .
138(12) . . .
160(13) . . .
139(12) . . .
146(12) . . .
147(12) . . .
153(12) . . .
134(12) . . .
159(13) . . .
141(12) . . .
138(12) . . .
159(13) . . .
156(12) . . .
145(12) . . .
146(12) . . .
137(12) . . .
126(11) . . .
152(12) . . .
142(12) . . .
137(12) . . .
149(12) . . .
133(12) . . .
153(12) . . .
134(12) . . .
157(13) . . .
162(13) . . .
156(12) . . .
153(12) . . .
151(12) . . .
138(12) . . .
131(11) . . .
146(12) . . .
169(13) . . .
154(12) . . .
143(12) . . .
145(12) . . .
139(12) . . .
145(12) . . .
144(12) . . .
148(12) . . .
148(12) . . .
130(11) . . .
131(11) . . .
130(11) . . .
146(12) . . .
141(12) . . .
145(12) . . .
133(12) . . .
124(11) . . .
140(12) . . .
145(12) . . .
151(12) . . .
169(13) . . .
158(13) . . .
144(12) . . .
148(12) . . .
147(12) . . .
142(12) . . .
146(12) . . .
148(12) . . .
139(12) . . .
135(12) . . .
149(12) . . .
146(12) . . .
152(12) . . .
145(12) . . .
127(11) . . .
118(11) . . .
122(11) . . .
151(12) . . .
147(12) . . .
152(12) . . .
148(12) . . .
166(13) . . .
133(12) . . .
144(12) . . .
153(12) . . .
138(12) . . .
153(12) . . .
144(12) . . .
152(12) . . .
150(12) . . .
145(12) . . .
153(12) . . .
171(13) . . .
147(12) . . .
158(13) . . .
161(13) . . .
150(12) . . .
156(12) . . .
141(12) . . .
145(12) . . .
160(13) . . .
171(13) . . .
132(11) . . .
156(12) . . .
161(13) . . .
170(13) . . .
182(13) . . .
153(12) . . .
164(13) . . .
162(13) . . .
136(12) . . .
173(13) . . .
158(13) . . .
149(12) . . .
159(13) . . .
166(13) . . .
159(13) . . .
145(12) . . .
149(12) . . .
147(12) . . .
155(12) . . .
143(12) . . .
164(13) . . .
154(12) . . .
162(13) . . .
165(13) . . .
167(13) . . .
169(13) . . .
159(13) . . .
173(13) . . .
167(13) . . .
177(13) . . .
159(13) . . .
173(13) . . .
170(13) . . .
162(13) . . .
167(13) . . .
166(13) . . .
194(14) . . .
164(13) . . .
197(14) . . .
181(13) . . .
207(14) . . .
182(13) . . .
184(14) . . .
172(13) . . .
206(14) . . .
193(14) . . .
185(14) . . .
193(14) . . .
182(13) . . .
215(15) . . .
201(14) . . .
186(14) . . .
193(14) . . .
186(14) . . .
222(15) . . .
211(15) . . .
217(15) . . .
218(15) . . .
224(15) . . .
234(15) . . .
255(16) . . .
266(16) . . .
248(16) . . .
244(16) . . .
257(16) . . .
252(16) . . .
270(16) . . .
293(17) . . .
307(18) . . .
304(17) . . .
329(18) . . .
356(19) . . .
361(19) . . .
338(18) . . .
376(19) . . .
389(20) . . .
407(20) . . .
458(21) . . .
465(22) . . .
458(21) . . .
506(22) . . .
539(23) . . .
572(24) . . .
652(26) . . .
655(26) . . .
737(27) . . .
770(28) . . .
767(28) . . .
891(30) . . .
940(31) . . .
976(31) . . .
1022(32) . . .
1048(32) . . .
1149(34) . . .
1158(34) . . .
1248(35) . . .
1225(35) . . .
1232(35) . . .
1202(35) . . .
1228(35) . . .
1190(34) . . .
1209(35) . . .
1154(34) . . .
1076(33) . . .
1063(33) . . .
1011(32) . . .
901(30) . . .
896(30) . . .
852(29) . . .
742(27) . . .
704(27) . . .
689(26) . . .
657(26) . . .
598(24) . . .
523(23) . . .
517(23) . . .
444(21) . . .
470(22) . . .
427(21) . . .
430(21) . . .
402(20) . . .
359(19) . . .
369(19) . . .
355(19) . . .
320(18) . . .
341(18) . . .
283(17) . . .
279(17) . . .
296(17) . . .
272(16) . . .
254(16) . . .
230(15) . . .
258(16) . . .
263(16) . . .
249(16) . . .
237(15) . . .
236(15) . . .
225(15) . . .
230(15) . . .
197(14) . . .
205(14) . . .
202(14) . . .
206(14) . . .
213(15) . . .
218(15) . . .
204(14) . . .
188(14) . . .
202(14) . . .
202(14) . . .
195(14) . . .
187(14) . . .
203(14) . . .
184(14) . . .
190(14) . . .
179(13) . . .
186(14) . . .
172(13) . . .
188(14) . . .
181(13) . . .
201(14) . . .
173(13) . . .
174(13) . . .
165(13) . . .
170(13) . . .
166(13) . . .
173(13) . . .
172(13) . . .
163(13) . . .
162(13) . . .
173(13) . . .
163(13) . . .
145(12) . . .
168(13) . . .
146(12) . . .
152(12) . . .
176(13) . . .
150(12) . . .
157(13) . . .
148(12) . . .
180(13) . . .
174(13) . . .
162(13) . . .
167(13) . . .
160(13) . . .
166(13) . . .
160(13) . . .
150(12) . . .
164(13) . . .
139(12) . . .
154(12) . . .
140(12) . . .
160(13) . . .
159(13) . . .
141(12) . . .
156(12) . . .
157(13) . . .
149(12) . . .
145(12) . . .
142(12) . . .
160(13) . . .
161(13) . . .
163(13) . . .
143(12) . . .
149(12) . . .
153(12) . . .
142(12) . . .
146(12) . . .
141(12) . . .
168(13) . . .
166(13) . . .
156(12) . . .
154(12) . . .
146(12) . . .
157(13) . . .
162(13) . . .
147(12) . . .
154(12) . . .
142(12) . . .
152(12) . . .
145(12) . . .
159(13) . . .
157(13) . . .
150(12) . . .
152(12) . . .
135(12) . . .
158(13) . . .
150(12) . . .
157(13) . . .
159(13) . . .
134(12) . . .
149(12) . . .
137(12) . . .
161(13) . . .
142(12) . . .
154(12) . . .
150(12) . . .
146(12) . . .
149(12) . . .
145(12) . . .
142(12) . . .
143(12) . . .
147(12) . . .
151(12) . . .
154(12) . . .
153(12) . . .
157(13) . . .
137(12) . . .
147(12) . . .
150(12) . . .
170(13) . . .
130(11) . . .
154(12) . . .
157(13) . . .
148(12) . . .
136(12) . . .
145(12) . . .
154(12) . . .
158(13) . . .
152(12) . . .
158(13) . . .
124(11) . . .
153(12) . . .
139(12) . . .
130(11) . . .
152(12) . . .
151(12) . . .
151(12) . . .
134(12) . . .
153(12) . . .
144(12) . . .
153(12) . . .
141(12) . . .
138(12) . . .
135(12) . . .
137(12) . . .
133(12) . . .
144(12) . . .
142(12) . . .
144(12) . . .
149(12) . . .
135(12) . . .
128(11) . . .
126(11) . . .
155(12) . . .
135(12) . . .
124(11) . . .
142(12) . . .
141(12) . . .
135(12) . . .
137(12) . . .
152(12) . . .
119(11) . . .
131(11) . . .
140(12) . . .
146(12) . . .
138(12) . . .
149(12) . . .
152(12) . . .
141(12) . . .
128(11) . . .
140(12) . . .
138(12) . . .
148(12) . . .
142(12) . . .
136(12) . . .
153(12) . . .
147(12) . . .
131(11) . . .
134(12) . . .
137(12) . . .
146(12) . . .
122(11) . . .
149(12) . . .
167(13) . . .
130(11) . . .
146(12) . . .
134(12) . . .
128(11) . . .
149(12) . . .
156(12) . . .
143(12) . . .
145(12) . . .
127(11) . . .
129(11) . . .
147(12) . . .
150(12) . . .
133(12) . . .
131(11) . . .
136(12) . . .
139(12) . . .
158(13) . . .
137(12) . . .
130(11) . . .
135(12) . . .
140(12) . . .
129(11) . . .
134(12) . . .
123(11) . . .
133(12) . . .
133(12) . . .
147(12) . . .
132(11) . . .
155(12) . . .
138(12) . . .
137(12) . . .
126(11) . . .
125(11) . . .
150(12) . . .
134(12) . . .
134(12) . . .
131(11) . . .
126(11) . . .
146(12) . . .
134(12) . . .
149(12) . . .
121(11) . . .
132(11) . . .
130(11) . . .
144(12) . . .
139(12) . . .
123(11) . . .
132(11) . . .
139(12) . . .
133(12) . . .
144(12) . . .
130(11) . . .
155(12) . . .
117(11) . . .
126(11) . . .
135(12) . . .
135(12) . . .
146(12) . . .
127(11) . . .
156(12) . . .
126(11) . . .
135(12) . . .
135(12) . . .
140(12) . . .
129(11) . . .
151(12) . . .
132(11) . . .
143(12) . . .
135(12) . . .
138(12) . . .
141(12) . . .
115(11) . . .
147(12) . . .
150(12) . . .
143(12) . . .
164(13) . . .
142(12) . . .
146(12) . . .
142(12) . . .
149(12) . . .
124(11) . . .
129(11) . . .
128(11) . . .
135(12) . . .
149(12) . . .
135(12) . . .
143(12) . . .
140(12) . . .
140(12) . . .
140(12) . . .
163(13) . . .
135(12) . . .
144(12) . . .
123(11) . . .
126(11) . . .
158(13) . . .
127(11) . . .
137(12) . . .
139(12) . . .
129(11) . . .
136(12) . . .
122(11) . . .
136(12) . . .
135(12) . . .
128(11) . . .
127(11) . . .
127(11) . . .
127(11) . . .
138(12) . . .
145(12) . . .
150(12) . . .
136(12) . . .
131(11) . . .
126(11) . . .
136(12) . . .
145(12) . . .
147(12) . . .
143(12) . . .
132(11) . . .
124(11) . . .
123(11) . . .
139(12) . . .
121(11) . . .
135(12) . . .
119(11) . . .
133(12) . . .
121(11) . . .
123(11) . . .
139(12) . . .
136(12) . . .
159(13) . . .
118(11) . . .
132(11) . . .
124(11) . . .
119(11) . . .
143(12) . . .
142(12) . . .
128(11) . . .
142(12) . . .
138(12) . . .
126(11) . . .
138(12) . . .
144(12) . . .
127(11) . . .
129(11) . . .
126(11) . . .
142(12) . . .
124(11) . . .
136(12) . . .
132(11) . . .
132(11) . . .
130(11) . . .
140(12) . . .
130(11) . . .
142(12) . . .
130(11) . . .
127(11) . . .
124(11) . . .
133(12) . . .
142(12) . . .
118(11) . . .
133(12) . . .
125(11) . . .
126(11) . . .
136(12) . . .
130(11) . . .
136(12) . . .
121(11) . . .
136(12) . . .
130(11) . . .
144(12) . . .
125(11) . . .
149(12) . . .
146(12) . . .
115(11) . . .
149(12) . . .
120(11) . . .
128(11) . . .
147(12) . . .
137(12) . . .
123(11) . . .
147(12) . . .
130(11) . . .
133(12) . . .
126(11) . . .
130(11) . . .
132(11) . . .
135(12) . . .
132(11) . . .
133(12) . . .
128(11) . . .
130(11) . . .
126(11) . . .
122(11) . . .
129(11) . . .
123(11) . . .
131(11) . . .
118(11) . . .
136(12) . . .
134(12) . . .
144(12) . . .
137(12) . . .
127(11) . . .
135(12) . . .
124(11) . . .
131(11) . . .
159(13) . . .
124(11) . . .
112(11) . . .
130(11) . . .
128(11) . . .
127(11) . . .
144(12) . . .
133(12) . . .
153(12) . . .
140(12) . . .
142(12) . . .
129(11) . . .
140(12) . . .
139(12) . . .
128(11) . . .
132(11) . . .
119(11) . . .
136(12) . . .
139(12) . . .
130(11) . . .
140(12) . . .
149(12) . . .
134(12) . . .
124(11) . . .
138(12) . . .
135(12) . . .
143(12) . . .
129(11) . . .
138(12) . . .
154(12) . . .
133(12) . . .
126(11) . . .
127(11) . . .
138(12) . . .
141(12) . . .
129(11) . . .
134(12) . . .
135(12) . . .
135(12) . . .
135(12) . . .
146(12) . . .
135(12) . . .
138(12) . . .
139(12) . . .
133(12) . . .
124(11) . . .
145(12) . . .
134(12) . . .
129(11) . . .
131(11) . . .
138(12) . . .
123(11) . . .
133(12) . . .
128(11) . . .
144(12) . . .
121(11) . . .
139(12) . . .
140(12) . . .
131(11) . . .
131(11) . . .
141(12) . . .
123(11) . . .
129(11) . . .
143(12) . . .
141(12) . . .
149(12) . . .
131(11) . . .
151(12) . . .
136(12) . . .
138(12) . . .
144(12) . . .
138(12) . . .
122(11) . . .
114(11) . . .
122(11) . . .
120(11) . . .
121(11) . . .
124(11) . . .
153(12) . . .
130(11) . . .
111(11) . . .
136(12) . . .
125(11) . . .
136(12) . . .
129(11) . . .
129(11) . . .
119(11) . . .
128(11) . . .
121(11) . . .
148(12) . . .
131(11) . . .
122(11) . . .
152(12) . . .
125(11) . . .
126(11) . . .
157(13) . . .
123(11) . . .
125(11) . . .
128(11) . . .
144(12) . . .
141(12) . . .
117(11) . . .
137(12) . . .
127(11) . . .
121(11) . . .
127(11) . . .
119(11) . . .
128(11) . . .
143(12) . . .
126(11) . . .
132(11) . . .
145(12) . . .
129(11) . . .
135(12) . . .
147(12) . . .
139(12) . . .
111(11) . . .
119(11) . . .
138(12) . . .
118(11) . . .
119(11) . . .
124(11) . . .
143(12) . . .
150(12) . . .
134(12) . . .
137(12) . . .
133(12) . . .
137(12) . . .
116(11) . . .
140(12) . . .
117(11) . . .
105(10) . . .
127(11) . . .
132(11) . . .
129(11) . . .
121(11) . . .
130(11) . . .
120(11) . . .
126(11) . . .
131(11) . . .
140(12) . . .
129(11) . . .
124(11) . . .
123(11) . . .
148(12) . . .
130(11) . . .
128(11) . . .
132(11) . . .
137(12) . . .
131(11) . . .
124(11) . . .
140(12) . . .
145(12) . . .
129(11) . . .
130(11) . . .
138(12) . . .
123(11) . . .
142(12) . . .
116(11) . . .
119(11) . . .
141(12) . . .
127(11) . . .
125(11) . . .
137(12) . . .
134(12) . . .
133(12) . . .
130(11) . . .
139(12) . . .
119(11) . . .
132(11) . . .
142(12) . . .
149(12) . . .
148(12) . . .
111(11) . . .
134(12) . . .
124(11) . . .
134(12) . . .
111(11) . . .
141(12) . . .
123(11) . . .
113(11) . . .
130(11) . . .
111(11) . . .
152(12) . . .
123(11) . . .
118(11) . . .
141(12) . . .
135(12) . . .
119(11) . . .
127(11) . . .
133(12) . . .
126(11) . . .
145(12) . . .
106(10) . . .
140(12) . . .
135(12) . . .
151(12) . . .
144(12) . . .
117(11) . . .
119(11) . . .
128(11) . . .
111(11) . . .
119(11) . . .
143(12) . . .
132(11) . . .
129(11) . . .
147(12) . . .
135(12) . . .
134(12) . . .
125(11) . . .
109(10) . . .
141(12) . . .
138(12) . . .
134(12) . . .
138(12) . . .
125(11) . . .
140(12) . . .
128(11) . . .
123(11) . . .
143(12) . . .
144(12) . . .
125(11) . . .
130(11) . . .
124(11) . . .
119(11) . . .
121(11) . . .
128(11) . . .
127(11) . . .
132(11) . . .
134(12) . . .
140(12) . . .
143(12) . . .
117(11) . . .
145(12) . . .
132(11) . . .
120(11) . . .
114(11) . . .
154(12) . . .
145(12) . . .
142(12) . . .
116(11) . . .
123(11) . . .
140(12) . . .
132(11) . . .
145(12) . . .
136(12) . . .
134(12) . . .
148(12) . . .
126(11) . . .
144(12) . . .
140(12) . . .
140(12) . . .
133(12) . . .
136(12) . . .
135(12) . . .
125(11) . . .
135(12) . . .
133(12) . . .
133(12) . . .
125(11) . . .
112(11) . . .
130(11) . . .
125(11) . . .
126(11) . . .
131(11) . . .
139(12) . . .
125(11) . . .
130(11) . . .
143(12) . . .
115(11) . . .
136(12) . . .
114(11) . . .
125(11) . . .
130(11) . . .
124(11) . . .
138(12) . . .
135(12) . . .
132(11) . . .
128(11) . . .
121(11) . . .
137(12) . . .
144(12) . . .
108(10) . . .
143(12) . . .
144(12) . . .
140(12) . . .
129(11) . . .
114(11) . . .
119(11) . . .
138(12) . . .
135(12) . . .
124(11) . . .
140(12) . . .
145(12) . . .
122(11) . . .
127(11) . . .
132(11) . . .
144(12) . . .
136(12) . . .
133(12) . . .
111(11) . . .
152(12) . . .
136(12) . . .
138(12) . . .
138(12) . . .
144(12) . . .
123(11) . . .
127(11) . . .
141(12) . . .
139(12) . . .
140(12) . . .
131(11) . . .
123(11) . . .
156(12) . . .
134(12) . . .
119(11) . . .
135(12) . . .
144(12) . . .
128(11) . . .
126(11) . . .
142(12) . . .
118(11) . . .
125(11) . . .
130(11) . . .
152(12) . . .
120(11) . . .
140(12) . . .
127(11) . . .
127(11) . . .
145(12) . . .
145(12) . . .
129(11) . . .
140(12) . . .
134(12) . . .
111(11) . . .
143(12) . . .
134(12) . . .
135(12) . . .
130(11) . . .
129(11) . . .
155(12) . . .
123(11) . . .
150(12) . . .
149(12) . . .
142(12) . . .
121(11) . . .
147(12) . . .
127(11) . . .
136(12) . . .
134(12) . . .
134(12) . . .
159(13) . . .
147(12) . . .
143(12) . . .
134(12) . . .
138(12) . . .
137(12) . . .
135(12) . . .
136(12) . . .
147(12) . . .
130(11) . . .
132(11) . . .
137(12) . . .
116(11) . . .
140(12) . . .
136(12) . . .
121(11) . . .
131(11) . . .
123(11) . . .
126(11) . . .
142(12) . . .
154(12) . . .
130(11) . . .
133(12) . . .
128(11) . . .
151(12) . . .
136(12) . . .
135(12) . . .
132(11) . . .
145(12) . . .
131(11) . . .
141(12) . . .
142(12) . . .
125(11) . . .
142(12) . . .
141(12) . . .
155(12) . . .
136(12) . . .
144(12) . . .
137(12) . . .
140(12) . . .
140(12) . . .
136(12) . . .
127(11) . . .
147(12) . . .
122(11) . . .
156(12) . . .
131(11) . . .
148(12) . . .
146(12) . . .
131(11) . . .
125(11) . . .
141(12) . . .
138(12) . . .
139(12) . . .
145(12) . . .
138(12) . . .
134(12) . . .
134(12) . . .
137(12) . . .
143(12) . . .
151(12) . . .
154(12) . . .
138(12) . . .
152(12) . . .
137(12) . . .
144(12) . . .
138(12) . . .
140(12) . . .
132(11) . . .
160(13) . . .
130(11) . . .
135(12) . . .
161(13) . . .
169(13) . . .
140(12) . . .
161(13) . . .
164(13) . . .
155(12) . . .
141(12) . . .
132(11) . . .
162(13) . . .
144(12) . . .
154(12) . . .
164(13) . . .
136(12) . . .
159(13) . . .
173(13) . . .
162(13) . . .
157(13) . . .
182(13) . . .
170(13) . . .
168(13) . . .
158(13) . . .
156(12) . . .
169(13) . . .
178(13) . . .
162(13) . . .
188(14) . . .
182(13) . . .
185(14) . . .
192(14) . . .
182(13) . . .
182(13) . . .
185(14) . . .
163(13) . . .
204(14) . . .
191(14) . . .
195(14) . . .
194(14) . . .
216(15) . . .
213(15) . . .
217(15) . . .
224(15) . . .
218(15) . . .
238(15) . . .
268(16) . . .
287(17) . . .
249(16) . . .
271(16) . . .
283(17) . . .
299(17) . . .
319(18) . . .
347(19) . . .
348(19) . . .
364(19) . . .
401(20) . . .
420(20) . . .
425(21) . . .
465(22) . . .
497(22) . . .
561(24) . . .
606(25) . . .
598(24) . . .
633(25) . . .
724(27) . . .
722(27) . . .
799(28) . . .
783(28) . . .
858(29) . . .
866(29) . . .
872(30) . . .
899(30) . . .
927(30) . . .
897(30) . . .
916(30) . . .
895(30) . . .
898(30) . . .
823(29) . . .
791(28) . . .
791(28) . . .
762(28) . . .
666(26) . . .
631(25) . . .
608(25) . . .
580(24) . . .
510(23) . . .
478(22) . . .
477(22) . . .
445(21) . . .
376(19) . . .
362(19) . . .
357(19) . . .
382(20) . . .
325(18) . . .
301(17) . . .
310(18) . . .
289(17) . . .
233(15) . . .
254(16) . . .
270(16) . . .
237(15) . . .
237(15) . . .
234(15) . . .
226(15) . . .
228(15) . . .
219(15) . . .
225(15) . . .
204(14) . . .
202(14) . . .
196(14) . . .
186(14) . . .
196(14) . . .
145(12) . . .
173(13) . . .
177(13) . . .
188(14) . . .
177(13) . . .
176(13) . . .
187(14) . . .
175(13) . . .
164(13) . . .
166(13) . . .
193(14) . . .
172(13) . . .
162(13) . . .
156(12) . . .
159(13) . . .
137(12) . . .
147(12) . . .
146(12) . . .
149(12) . . .
144(12) . . .
158(13) . . .
156(12) . . .
132(11) . . .
141(12) . . .
132(11) . . .
148(12) . . .
157(13) . . .
143(12) . . .
155(12) . . .
126(11) . . .
135(12) . . .
133(12) . . .
134(12) . . .
143(12) . . .
144(12) . . .
146(12) . . .
128(11) . . .
143(12) . . .
134(12) . . .
134(12) . . .
138(12) . . .
146(12) . . .
150(12) . . .
128(11) . . .
128(11) . . .
143(12) . . .
151(12) . . .
151(12) . . .
130(11) . . .
147(12) . . .
152(12) . . .
130(11) . . .
114(11) . . .
145(12) . . .
137(12) . . .
123(11) . . .
132(11) . . .
129(11) . . .
140(12) . . .
134(12) . . .
128(11) . . .
135(12) . . .
123(11) . . .
144(12) . . .
130(11) . . .
122(11) . . .
143(12) . . .
140(12) . . .
136(12) . . .
134(12) . . .
117(11) . . .
133(12) . . .
132(11) . . .
129(11) . . .
132(11) . . .
149(12) . . .
130(11) . . .
133(12) . . .
130(11) . . .
119(11) . . .
132(11) . . .
138(12) . . .
117(11) . . .
129(11) . . .
137(12) . . .
132(11) . . .
130(11) . . .
140(12) . . .
156(12) . . .
134(12) . . .
131(11) . . .
136(12) . . .
133(12) . . .
141(12) . . .
118(11) . . .
106(10) . . .
107(10) . . .
123(11) . . .
141(12) . . .
107(10) . . .
137(12) . . .
125(11) . . .
134(12) . . .
112(11) . . .
133(12) . . .
150(12) . . .
137(12) . . .
150(12) . . .
115(11) . . .
114(11) . . .
108(10) . . .
124(11) . . .
116(11) . . .
131(11) . . .
117(11) . . .
128(11) . . .
141(12) . . .
122(11) . . .
121(11) . . .
120(11) . . .
127(11) . . .
116(11) . . .
130(11) . . .
128(11) . . .
116(11) . . .
121(11) . . .
121(11) . . .
119(11) . . .
125(11) . . .
115(11) . . .
124(11) . . .
138(12) . . .
136(12) . . .
126(11) . . .
114(11) . . .
129(11) . . .
137(12) . . .
132(11) . . .
126(11) . . .
132(11) . . .
128(11) . . .
129(11) . . .
136(12) . . .
120(11) . . .
117(11) . . .
126(11) . . .
121(11) . . .
129(11) . . .
107(10) . . .
133(12) . . .
128(11) . . .
135(12) . . .
130(11) . . .
120(11) . . .
122(11) . . .
112(11) . . .
116(11) . . .
124(11) . . .
133(12) . . .
128(11) . . .
119(11) . . .
126(11) . . .
107(10) . . .
135(12) . . .
129(11) . . .
107(10) . . .
141(12) . . .
125(11) . . .
118(11) . . .
119(11) . . .
135(12) . . .
117(11) . . .
150(12) . . .
136(12) . . .
117(11) . . .
139(12) . . .
124(11) . . .
122(11) . . .
129(11) . . .
131(11) . . .
106(10) . . .
120(11) . . .
138(12) . . .
130(11) . . .
147(12) . . .
122(11) . . .
125(11) . . .
111(11) . . .
128(11) . . .
112(11) . . .
138(12) . . .
108(10) . . .
129(11) . . .
108(10) . . .
109(10) . . .
120(11) . . .
96(10) . . .
126(11) . . .
129(11) . . .
119(11) . . .
122(11) . . .
124(11) . . .
134(12) . . .
126(11) . . .
130(11) . . .
137(12) . . .
117(11) . . .
126(11) . . .
126(11) . . .
105(10) . . .
124(11) . . .
125(11) . . .
122(11) . . .
129(11) . . .
103(10) . . .
141(12) . . .
137(12) . . .
102(10) . . .
102(10) . . .
140(12) . . .
132(11) . . .
121(11) . . .
111(11) . . .
138(12) . . .
132(11) . . .
121(11) . . .
116(11) . . .
128(11) . . .
113(11) . . .
129(11) . . .
102(10) . . .
142(12) . . .
140(12) . . .
113(11) . . .
126(11) . . .
106(10) . . .
110(10) . . .
121(11) . . .
129(11) . . .
141(12) . . .
109(10) . . .
129(11) . . .
122(11) . . .
132(11) . . .
122(11) . . .
132(11) . . .
113(11) . . .
129(11) . . .
131(11) . . .
121(11) . . .
124(11) . . .
114(11) . . .
143(12) . . .
111(11) . . .
115(11) . . .
129(11) . . .
115(11) . . .
125(11) . . .
110(10) . . .
125(11) . . .
115(11) . . .
107(10) . . .
124(11) . . .
137(12) . . .
122(11) . . .
121(11) . . .
112(11) . . .
120(11) . . .
100(10) . . .
120(11) . . .
135(12) . . .
132(11) . . .
113(11) . . .
103(10) . . .
127(11) . . .
122(11) . . .
123(11) . . .
130(11) . . .
116(11) . . .
110(10) . . .
115(11) . . .
121(11) . . .
114(11) . . .
126(11) . . .
125(11) . . .
128(11) . . .
123(11) . . .
123(11) . . .
120(11) . . .
113(11) . . .
118(11) . . .
112(11) . . .
119(11) . . .
112(11) . . .
129(11) . . .
114(11) . . .
108(10) . . .
116(11) . . .
126(11) . . .
137(12) . . .
122(11) . . .
119(11) . . .
113(11) . . .
125(11) . . .
122(11) . . .
118(11) . . .
123(11) . . .
129(11) . . .
111(11) . . .
124(11) . . .
125(11) . . .
122(11) . . .
129(11) . . .
110(10) . . .
121(11) . . .
108(10) . . .
129(11) . . .
113(11) . . .
117(11) . . .
116(11) . . .
127(11) . . .
119(11) . . .
112(11) . . .
121(11) . . .
101(10) . . .
97(10) . . .
125(11) . . .
108(10) . . .
118(11) . . .
106(10) . . .
118(11) . . .
108(10) . . .
126(11) . . .
120(11) . . .
124(11) . . .
129(11) . . .
97(10) . . .
111(11) . . .
109(10) . . .
120(11) . . .
113(11) . . .
124(11) . . .
122(11) . . .
105(10) . . .
120(11) . . .
129(11) . . .
121(11) . . .
111(11) . . .
114(11) . . .
105(10) . . .
122(11) . . .
123(11) . . .
122(11) . . .
104(10) . . .
108(10) . . .
107(10) . . .
105(10) . . .
113(11) . . .
113(11) . . .
118(11) . . .
126(11) . . .
127(11) . . .
118(11) . . .
134(12) . . .
108(10) . . .
109(10) . . .
114(11) . . .
131(11) . . .
99(10) . . .
131(11) . . .
132(11) . . .
110(10) . . .
109(10) . . .
125(11) . . .
100(10) . . .
117(11) . . .
121(11) . . .
121(11) . . .
130(11) . . .
116(11) . . .
120(11) . . .
113(11) . . .
110(10) . . .
127(11) . . .
112(11) . . .
129(11) . . .
114(11) . . .
99(10) . . .
112(11) . . .
111(11) . . .
116(11) . . .
117(11) . . .
122(11) . . .
109(10) . . .
122(11) . . .
113(11) . . .
128(11) . . .
117(11) . . .
123(11) . . .
112(11) . . .
121(11) . . .
135(12) . . .
115(11) . . .
125(11) . . .
123(11) . . .
110(10) . . .
112(11) . . .
110(10) . . .
105(10) . . .
113(11) . . .
131(11) . . .
118(11) . . .
130(11) . . .
116(11) . . .
108(10) . . .
114(11) . . .
116(11) . . .
99(10) . . .
108(10) . . .
120(11) . . .
117(11) . . .
111(11) . . .
112(11) . . .
117(11) . . .
109(10) . . .
126(11) . . .
115(11) . . .
127(11) . . .
115(11) . . .
95(10) . . .
132(11) . . .
116(11) . . .
123(11) . . .
120(11) . . .
119(11) . . .
119(11) . . .
126(11) . . .
121(11) . . .
110(10) . . .
118(11) . . .
101(10) . . .
103(10) . . .
121(11) . . .
124(11) . . .
111(11) . . .
112(11) . . .
112(11) . . .
124(11) . . .
117(11) . . .
106(10) . . .
111(11) . . .
103(10) . . .
102(10) . . .
109(10) . . .
114(11) . . .
99(10) . . .
116(11) . . .
112(11) . . .
122(11) . . .
127(11) . . .
98(10) . . .
123(11) . . .
124(11) . . .
99(10) . . .
115(11) . . .
118(11) . . .
112(11) . . .
112(11) . . .
118(11) . . .
120(11) . . .
115(11) . . .
122(11) . . .
124(11) . . .
111(11) . . .
110(10) . . .
118(11) . . .
117(11) . . .
117(11) . . .
111(11) . . .
117(11) . . .
115(11) . . .
132(11) . . .
109(10) . . .
111(11) . . .
121(11) . . .
102(10) . . .
115(11) . . .
108(10) . . .
108(10) . . .
107(10) . . .
119(11) . . .
117(11) . . .
114(11) . . .
125(11) . . .
123(11) . . .
113(11) . . .
121(11) . . .
112(11) . . .
109(10) . . .
101(10) . . .
97(10) . . .
118(11) . . .
111(11) . . .
110(10) . . .
127(11) . . .
120(11) . . .
112(11) . . .
116(11) . . .
115(11) . . .
106(10) . . .
114(11) . . .
107(10) . . .
120(11) . . .
112(11) . . .
105(10) . . .
116(11) . . .
112(11) . . .
122(11) . . .
104(10) . . .
111(11) . . .
115(11) . . .
119(11) . . .
114(11) . . .
109(10) . . .
126(11) . . .
116(11) . . .
109(10) . . .
107(10) . . .
108(10) . . .
127(11) . . .
125(11) . . .
98(10) . . .
95(10) . . .
104(10) . . .
108(10) . . .
114(11) . . .
118(11) . . .
115(11) . . .
106(10) . . .
111(11) . . .
105(10) . . .
111(11) . . .
132(11) . . .
107(10) . . .
124(11) . . .
112(11) . . .
112(11) . . .
120(11) . . .
120(11) . . .
102(10) . . .
118(11) . . .
117(11) . . .
115(11) . . .
117(11) . . .
114(11) . . .
96(10) . . .
118(11) . . .
111(11) . . .
122(11) . . .
122(11) . . .
111(11) . . .
115(11) . . .
120(11) . . .
124(11) . . .
136(12) . . .
123(11) . . .
118(11) . . .
116(11) . . .
116(11) . . .
115(11) . . .
111(11) . . .
127(11) . . .
111(11) . . .
123(11) . . .
115(11) . . .
117(11) . . .
121(11) . . .
114(11) . . .
126(11) . . .
118(11) . . .
115(11) . . .
110(10) . . .
112(11) . . .
111(11) . . .
125(11) . . .
105(10) . . .
119(11) . . .
88(9) . . .
120(11) . . .
100(10) . . .
115(11) . . .
114(11) . . .
126(11) . . .
105(10) . . .
111(11) . . .
105(10) . . .
115(11) . . .
122(11) . . .
100(10) . . .
121(11) . . .
118(11) . . .
105(10) . . .
107(10) . . .
123(11) . . .
111(11) . . .
104(10) . . .
116(11) . . .
105(10) . . .
106(10) . . .
98(10) . . .
104(10) . . .
111(11) . . .
120(11) . . .
113(11) . . .
104(10) . . .
113(11) . . .
113(11) . . .
114(11) . . .
109(10) . . .
120(11) . . .
110(10) . . .
98(10) . . .
109(10) . . .
104(10) . . .
109(10) . . .
115(11) . . .
108(10) . . .
120(11) . . .
109(10) . . .
118(11) . . .
110(10) . . .
111(11) . . .
110(10) . . .
115(11) . . .
103(10) . . .
111(11) . . .
118(11) . . .
106(10) . . .
117(11) . . .
105(10) . . .
139(12) . . .
113(11) . . .
117(11) . . .
109(10) . . .
115(11) . . .
118(11) . . .
121(11) . . .
114(11) . . .
105(10) . . .
115(11) . . .
116(11) . . .
127(11) . . .
140(12) . . .
113(11) . . .
111(11) . . .
102(10) . . .
102(10) . . .
112(11) . . .
120(11) . . .
118(11) . . .
104(10) . . .
111(11) . . .
128(11) . . .
124(11) . . .
108(10) . . .
112(11) . . .
113(11) . . .
98(10) . . .
118(11) . . .
117(11) . . .
120(11) . . .
117(11) . . .
110(10) . . .
109(10) . . .
112(11) . . .
115(11) . . .
99(10) . . .
106(10) . . .
96(10) . . .
117(11) . . .
103(10) . . .
97(10) . . .
107(10) . . .
118(11) . . .
128(11) . . .
103(10) . . .
107(10) . . .
111(11) . . .
103(10) . . .
109(10) . . .
118(11) . . .
128(11) . . .
87(9) . . .
103(10) . . .
108(10) . . .
126(11) . . .
111(11) . . .
117(11) . . .
115(11) . . .
108(10) . . .
108(10) . . .
99(10) . . .
118(11) . . .
112(11) . . .
128(11) . . .
102(10) . . .
112(11) . . .
99(10) . . .
108(10) . . .
112(11) . . .
113(11) . . .
94(10) . . .
107(10) . . .
114(11) . . .
124(11) . . .
105(10) . . .
99(10) . . .
106(10) . . .
97(10) . . .
118(11) . . .
109(10) . . .
117(11) . . .
109(10) . . .
128(11) . . .
118(11) . . .
109(10) . . .
121(11) . . .
115(11) . . .
110(10) . . .
115(11) . . .
97(10) . . .
107(10) . . .
100(10) . . .
125(11) . . .
112(11) . . .
116(11) . . .
107(10) . . .
106(10) . . .
117(11) . . .
82(9) . . .
105(10) . . .
113(11) . . .
130(11) . . .
113(11) . . .
118(11) . . .
96(10) . . .
107(10) . . .
118(11) . . .
112(11) . . .
116(11) . . .
105(10) . . .
106(10) . . .
110(10) . . .
118(11) . . .
121(11) . . .
115(11) . . .
121(11) . . .
124(11) . . .
110(10) . . .
110(10) . . .
113(11) . . .
117(11) . . .
102(10) . . .
91(10) . . .
109(10) . . .
117(11) . . .
127(11) . . .
111(11) . . .
113(11) . . .
108(10) . . .
101(10) . . .
99(10) . . .
101(10) . . .
113(11) . . .
111(11) . . .
105(10) . . .
98(10) . . .
110(10) . . .
116(11) . . .
117(11) . . .
106(10) . . .
101(10) . . .
102(10) . . .
117(11) . . .
114(11) . . .
104(10) . . .
123(11) . . .
116(11) . . .
99(10) . . .
119(11) . . .
119(11) . . .
100(10) . . .
99(10) . . .
104(10) . . .
124(11) . . .
119(11) . . .
96(10) . . .
119(11) . . .
107(10) . . .
107(10) . . .
102(10) . . .
106(10) . . .
117(11) . . .
107(10) . . .
105(10) . . .
110(10) . . .
116(11) . . .
127(11) . . .
111(11) . . .
118(11) . . .
113(11) . . .
130(11) . . .
119(11) . . .
113(11) . . .
105(10) . . .
105(10) . . .
134(12) . . .
99(10) . . .
99(10) . . .
131(11) . . .
113(11) . . .
105(10) . . .
99(10) . . .
101(10) . . .
118(11) . . .
109(10) . . .
109(10) . . .
118(11) . . .
112(11) . . .
98(10) . . .
94(10) . . .
93(10) . . .
114(11) . . .
118(11) . . .
106(10) . . .
106(10) . . .
102(10) . . .
115(11) . . .
112(11) . . .
112(11) . . .
113(11) . . .
99(10) . . .
127(11) . . .
96(10) . . .
107(10) . . .
103(10) . . .
124(11) . . .
111(11) . . .
99(10) . . .
120(11) . . .
112(11) . . .
99(10) . . .
98(10) . . .
107(10) . . .
126(11) . . .
112(11) . . .
116(11) . . .
113(11) . . .
112(11) . . .
102(10) . . .
113(11) . . .
102(10) . . .
105(10) . . .
96(10) . . .
119(11) . . .
118(11) . . .
103(10) . . .
105(10) . . .
106(10) . . .
123(11) . . .
100(10) . . .
111(11) . . .
107(10) . . .
108(10) . . .
90(9) . . .
115(11) . . .
124(11) . . .
116(11) . . .
109(10) . . .
99(10) . . .
103(10) . . .
116(11) . . .
112(11) . . .
107(10) . . .
116(11) . . .
100(10) . . .
105(10) . . .
100(10) . . .
101(10) . . .
97(10) . . .
106(10) . . .
88(9) . . .
110(10) . . .
97(10) . . .
119(11) . . .
112(11) . . .
92(10) . . .
111(11) . . .
107(10) . . .
108(10) . . .
100(10) . . .
98(10) . . .
118(11) . . .
125(11) . . .
99(10) . . .
114(11) . . .
112(11) . . .
97(10) . . .
109(10) . . .
108(10) . . .
104(10) . . .
115(11) . . .
104(10) . . .
123(11) . . .
102(10) . . .
107(10) . . .
107(10) . . .
113(11) . . .
108(10) . . .
120(11) . . .
107(10) . . .
102(10) . . .
116(11) . . .
104(10) . . .
101(10) . . .
102(10) . . .
124(11) . . .
111(11) . . .
116(11) . . .
101(10) . . .
121(11) . . .
103(10) . . .
93(10) . . .
102(10) . . .
125(11) . . .
115(11) . . .
102(10) . . .
113(11) . . .
106(10) . . .
115(11) . . .
117(11) . . .
107(10) . . .
125(11) . . .
113(11) . . .
111(11) . . .
111(11) . . .
99(10) . . .
117(11) . . .
110(10) . . .
108(10) . . .
112(11) . . .
104(10) . . .
109(10) . . .
109(10) . . .
96(10) . . .
106(10) . . .
117(11) . . .
112(11) . . .
116(11) . . .
103(10) . . .
108(10) . . .
115(11) . . .
115(11) . . .
110(10) . . .
116(11) . . .
112(11) . . .
95(10) . . .
111(11) . . .
132(11) . . .
106(10) . . .
106(10) . . .
106(10) . . .
111(11) . . .
103(10) . . .
129(11) . . .
127(11) . . .
119(11) . . .
110(10) . . .
99(10) . . .
111(11) . . .
125(11) . . .
114(11) . . .
110(10) . . .
112(11) . . .
105(10) . . .
94(10) . . .
92(10) . . .
135(12) . . .
113(11) . . .
119(11) . . .
106(10) . . .
112(11) . . .
99(10) . . .
101(10) . . .
109(10) . . .
112(11) . . .
105(10) . . .
128(11) . . .
96(10) . . .
111(11) . . .
105(10) . . .
93(10) . . .
119(11) . . .
109(10) . . .
103(10) . . .
111(11) . . .
107(10) . . .
115(11) . . .
100(10) . . .
105(10) . . .
101(10) . . .
106(10) . . .
110(10) . . .
101(10) . . .
85(9) . . .
109(10) . . .
101(10) . . .
97(10) . . .
113(11) . . .
103(10) . . .
100(10) . . .
99(10) . . .
103(10) . . .
95(10) . . .
101(10) . . .
114(11) . . .
96(10) . . .
91(10) . . .
101(10) . . .
115(11) . . .
116(11) . . .
103(10) . . .
111(11) . . .
117(11) . . .
120(11) . . .
104(10) . . .
111(11) . . .
116(11) . . .
117(11) . . .
110(10) . . .
92(10) . . .
103(10) . . .
90(9) . . .
96(10) . . .
102(10) . . .
107(10) . . .
115(11) . . .
96(10) . . .
114(11) . . .
110(10) . . .
97(10) . . .
100(10) . . .
107(10) . . .
114(11) . . .
95(10) . . .
114(11) . . .
93(10) . . .
107(10) . . .
114(11) . . .
118(11) . . .
111(11) . . .
116(11) . . .
99(10) . . .
102(10) . . .
108(10) . . .
120(11) . . .
99(10) . . .
107(10) . . .
97(10) . . .
110(10) . . .
118(11) . . .
91(10) . . .
105(10) . . .
107(10) . . .
99(10) . . .
113(11) . . .
121(11) . . .
114(11) . . .
119(11) . . .
101(10) . . .
82(9) . . .
123(11) . . .
96(10) . . .
101(10) . . .
111(11) . . .
85(9) . . .
92(10) . . .
103(10) . . .
103(10) . . .
114(11) . . .
96(10) . . .
108(10) . . .
93(10) . . .
116(11) . . .
106(10) . . .
90(9) . . .
101(10) . . .
113(11) . . .
98(10) . . .
109(10) . . .
106(10) . . .
113(11) . . .
101(10) . . .
95(10) . . .
101(10) . . .
97(10) . . .
99(10) . . .
104(10) . . .
104(10) . . .
123(11) . . .
94(10) . . .
109(10) . . .
105(10) . . .
102(10) . . .
120(11) . . .
106(10) . . .
95(10) . . .
106(10) . . .
96(10) . . .
113(11) . . .
118(11) . . .
116(11) . . .
108(10) . . .
112(11) . . .
106(10) . . .
90(9) . . .
93(10) . . .
98(10) . . .
105(10) . . .
116(11) . . .
92(10) . . .
101(10) . . .
109(10) . . .
107(10) . . .
105(10) . . .
97(10) . . .
106(10) . . .
95(10) . . .
115(11) . . .
105(10) . . .
119(11) . . .
112(11) . . .
99(10) . . .
109(10) . . .
90(9) . . .
114(11) . . .
116(11) . . .
93(10) . . .
106(10) . . .
114(11) . . .
95(10) . . .
95(10) . . .
112(11) . . .
103(10) . . .
119(11) . . .
92(10) . . .
111(11) . . .
107(10) . . .
96(10) . . .
109(10) . . .
117(11) . . .
95(10) . . .
103(10) . . .
111(11) . . .
110(10) . . .
119(11) . . .
101(10) . . .
97(10) . . .
115(11) . . .
130(11) . . .
96(10) . . .
100(10) . . .
113(11) . . .
107(10) . . .
103(10) . . .
116(11) . . .
92(10) . . .
103(10) . . .
106(10) . . .
104(10) . . .
106(10) . . .
121(11) . . .
116(11) . . .
109(10) . . .
102(10) . . .
102(10) . . .
105(10) . . .
118(11) . . .
106(10) . . .
90(9) . . .
106(10) . . .
105(10) . . .
109(10) . . .
102(10) . . .
108(10) . . .
104(10) . . .
101(10) . . .
93(10) . . .
113(11) . . .
92(10) . . .
121(11) . . .
101(10) . . .
116(11) . . .
128(11) . . .
98(10) . . .
97(10) . . .
86(9) . . .
93(10) . . .
104(10) . . .
110(10) . . .
109(10) . . .
94(10) . . .
115(11) . . .
108(10) . . .
116(11) . . .
110(10) . . .
101(10) . . .
115(11) . . .
105(10) . . .
107(10) . . .
89(9) . . .
110(10) . . .
115(11) . . .
108(10) . . .
100(10) . . .
91(10) . . .
105(10) . . .
94(10) . . .
111(11) . . .
118(11) . . .
107(10) . . .
104(10) . . .
103(10) . . .
102(10) . . .
110(10) . . .
106(10) . . .
119(11) . . .
108(10) . . .
122(11) . . .
102(10) . . .
116(11) . . .
116(11) . . .
112(11) . . .
108(10) . . .
94(10) . . .
109(10) . . .
105(10) . . .
104(10) . . .
97(10) . . .
104(10) . . .
103(10) . . .
92(10) . . .
102(10) . . .
110(10) . . .
93(10) . . .
104(10) . . .
120(11) . . .
104(10) . . .
94(10) . . .
112(11) . . .
120(11) . . .
105(10) . . .
102(10) . . .
102(10) . . .
102(10) . . .
119(11) . . .
110(10) . . .
103(10) . . .
113(11) . . .
104(10) . . .
123(11) . . .
105(10) . . .
107(10) . . .
109(10) . . .
100(10) . . .
97(10) . . .
104(10) . . .
83(9) . . .
105(10) . . .
105(10) . . .
108(10) . . .
115(11) . . .
85(9) . . .
106(10) . . .
128(11) . . .
103(10) . . .
106(10) . . .
93(10) . . .
105(10) . . .
109(10) . . .
104(10) . . .
107(10) . . .
98(10) . . .
102(10) . . .
86(9) . . .
115(11) . . .
109(10) . . .
121(11) . . .
115(11) . . .
116(11) . . .
113(11) . . .
101(10) . . .
104(10) . . .
97(10) . . .
107(10) . . .
101(10) . . .
93(10) . . .
105(10) . . .
93(10) . . .
121(11) . . .
113(11) . . .
92(10) . . .
102(10) . . .
122(11) . . .
97(10) . . .
104(10) . . .
117(11) . . .
105(10) . . .
114(11) . . .
105(10) . . .
107(10) . . .
120(11) . . .
85(9) . . .
98(10) . . .
101(10) . . .
116(11) . . .
106(10) . . .
111(11) . . .
111(11) . . .
102(10) . . .
100(10) . . .
113(11) . . .
98(10) . . .
90(9) . . .
110(10) . . .
110(10) . . .
107(10) . . .
103(10) . . .
98(10) . . .
109(10) . . .
111(11) . . .
109(10) . . .
87(9) . . .
90(9) . . .
108(10) . . .
87(9) . . .
103(10) . . .
124(11) . . .
96(10) . . .
100(10) . . .
103(10) . . .
107(10) . . .
99(10) . . .
125(11) . . .
106(10) . . .
98(10) . . .
105(10) . . .
117(11) . . .
88(9) . . .
105(10) . . .
117(11) . . .
105(10) . . .
99(10) . . .
98(10) . . .
119(11) . . .
100(10) . . .
110(10) . . .
110(10) . . .
107(10) . . .
95(10) . . .
103(10) . . .
118(11) . . .
107(10) . . .
107(10) . . .
118(11) . . .
126(11) . . .
96(10) . . .
87(9) . . .
112(11) . . .
118(11) . . .
93(10) . . .
99(10) . . .
105(10) . . .
101(10) . . .
103(10) . . .
103(10) . . .
99(10) . . .
103(10) . . .
110(10) . . .
106(10) . . .
102(10) . . .
108(10) . . .
114(11) . . .
105(10) . . .
105(10) . . .
103(10) . . .
117(11) . . .
130(11) . . .
87(9) . . .
116(11) . . .
113(11) . . .
108(10) . . .
101(10) . . .
125(11) . . .
114(11) . . .
111(11) . . .
90(9) . . .
111(11) . . .
87(9) . . .
101(10) . . .
98(10) . . .
119(11) . . .
102(10) . . .
91(10) . . .
113(11) . . .
111(11) . . .
103(10) . . .
106(10) . . .
115(11) . . .
98(10) . . .
99(10) . . .
99(10) . . .
105(10) . . .
91(10) . . .
110(10) . . .
111(11) . . .
108(10) . . .
113(11) . . .
112(11) . . .
98(10) . . .
102(10) . . .
119(11) . . .
87(9) . . .
106(10) . . .
107(10) . . .
102(10) . . .
108(10) . . .
121(11) . . .
89(9) . . .
106(10) . . .
100(10) . . .
102(10) . . .
107(10) . . .
100(10) . . .
101(10) . . .
105(10) . . .
112(11) . . .
126(11) . . .
109(10) . . .
108(10) . . .
108(10) . . .
118(11) . . .
105(10) . . .
116(11) . . .
96(10) . . .
107(10) . . .
106(10) . . .
123(11) . . .
103(10) . . .
120(11) . . .
120(11) . . .
125(11) . . .
96(10) . . .
105(10) . . .
123(11) . . .
104(10) . . .
100(10) . . .
97(10) . . .
103(10) . . .
119(11) . . .
114(11) . . .
131(11) . . .
113(11) . . .
119(11) . . .
111(11) . . .
125(11) . . .
116(11) . . .
108(10) . . .
115(11) . . .
104(10) . . .
132(11) . . .
113(11) . . .
114(11) . . .
136(12) . . .
136(12) . . .
127(11) . . .
124(11) . . .
131(11) . . .
122(11) . . .
113(11) . . .
130(11) . . .
121(11) . . .
132(11) . . .
151(12) . . .
124(11) . . .
161(13) . . .
151(12) . . .
141(12) . . .
157(13) . . .
145(12) . . .
161(13) . . .
170(13) . . .
149(12) . . .
176(13) . . .
171(13) . . .
156(12) . . .
192(14) . . .
202(14) . . .
189(14) . . .
219(15) . . .
196(14) . . .
213(15) . . .
261(16) . . .
233(15) . . .
243(16) . . .
249(16) . . .
247(16) . . .
243(16) . . .
262(16) . . .
248(16) . . .
270(16) . . .
296(17) . . .
272(16) . . .
256(16) . . .
235(15) . . .
238(15) . . .
256(16) . . .
246(16) . . .
242(16) . . .
260(16) . . .
246(16) . . .
231(15) . . .
218(15) . . .
211(15) . . .
211(15) . . .
178(13) . . .
210(14) . . .
197(14) . . .
176(13) . . .
180(13) . . .
152(12) . . .
172(13) . . .
164(13) . . .
133(12) . . .
145(12) . . .
141(12) . . .
143(12) . . .
153(12) . . .
139(12) . . .
125(11) . . .
141(12) . . .
133(12) . . .
146(12) . . .
108(10) . . .
109(10) . . .
128(11) . . .
109(10) . . .
130(11) . . .
132(11) . . .
138(12) . . .
133(12) . . .
109(10) . . .
108(10) . . .
132(11) . . .
113(11) . . .
107(10) . . .
108(10) . . .
118(11) . . .
124(11) . . .
109(10) . . .
112(11) . . .
92(10) . . .
100(10) . . .
100(10) . . .
110(10) . . .
114(11) . . .
108(10) . . .
114(11) . . .
111(11) . . .
107(10) . . .
108(10) . . .
128(11) . . .
103(10) . . .
104(10) . . .
111(11) . . .
99(10) . . .
107(10) . . .
98(10) . . .
119(11) . . .
115(11) . . .
95(10) . . .
122(11) . . .
95(10) . . .
106(10) . . .
102(10) . . .
113(11) . . .
100(10) . . .
121(11) . . .
107(10) . . .
117(11) . . .
98(10) . . .
107(10) . . .
108(10) . . .
106(10) . . .
110(10) . . .
107(10) . . .
110(10) . . .
96(10) . . .
111(11) . . .
109(10) . . .
95(10) . . .
113(11) . . .
105(10) . . .
130(11) . . .
103(10) . . .
100(10) . . .
102(10) . . .
103(10) . . .
105(10) . . .
85(9) . . .
117(11) . . .
111(11) . . .
101(10) . . .
99(10) . . .
96(10) . . .
96(10) . . .
121(11) . . .
114(11) . . .
107(10) . . .
109(10) . . .
96(10) . . .
104(10) . . .
93(10) . . .
114(11) . . .
120(11) . . .
113(11) . . .
106(10) . . .
101(10) . . .
97(10) . . .
125(11) . . .
98(10) . . .
109(10) . . .
111(11) . . .
97(10) . . .
116(11) . . .
89(9) . . .
103(10) . . .
116(11) . . .
110(10) . . .
116(11) . . .
101(10) . . .
105(10) . . .
95(10) . . .
95(10) . . .
106(10) . . .
100(10) . . .
102(10) . . .
90(9) . . .
108(10) . . .
105(10) . . .
97(10) . . .
107(10) . . .
110(10) . . .
102(10) . . .
107(10) . . .
84(9) . . .
117(11) . . .
107(10) . . .
93(10) . . .
115(11) . . .
103(10) . . .
92(10) . . .
103(10) . . .
97(10) . . .
97(10) . . .
96(10) . . .
107(10) . . .
109(10) . . .
105(10) . . .
100(10) . . .
95(10) . . .
102(10) . . .
118(11) . . .
109(10) . . .
102(10) . . .
106(10) . . .
92(10) . . .
93(10) . . .
112(11) . . .
105(10) . . .
127(11) . . .
109(10) . . .
109(10) . . .
114(11) . . .
101(10) . . .
104(10) . . .
124(11) . . .
104(10) . . .
90(9) . . .
118(11) . . .
110(10) . . .
95(10) . . .
114(11) . . .
108(10) . . .
107(10) . . .
119(11) . . .
102(10) . . .
97(10) . . .
116(11) . . .
111(11) . . .
98(10) . . .
88(9) . . .
112(11) . . .
114(11) . . .
109(10) . . .
100(10) . . .
112(11) . . .
109(10) . . .
123(11) . . .
100(10) . . .
115(11) . . .
106(10) . . .
95(10) . . .
111(11) . . .
111(11) . . .
114(11) . . .
100(10) . . .
95(10) . . .
84(9) . . .
96(10) . . .
111(11) . . .
112(11) . . .
96(10) . . .
104(10) . . .
97(10) . . .
107(10) . . .
112(11) . . .
90(9) . . .
100(10) . . .
98(10) . . .
114(11) . . .
105(10) . . .
100(10) . . .
110(10) . . .
97(10) . . .
101(10) . . .
101(10) . . .
112(11) . . .
114(11) . . .
102(10) . . .
110(10) . . .
120(11) . . .
114(11) . . .
99(10) . . .
102(10) . . .
114(11) . . .
99(10) . . .
102(10) . . .
96(10) . . .
116(11) . . .
90(9) . . .
95(10) . . .
112(11) . . .
109(10) . . .
121(11) . . .
102(10) . . .
89(9) . . .
104(10) . . .
90(9) . . .
106(10) . . .
109(10) . . .
99(10) . . .
99(10) . . .
106(10) . . .
103(10) . . .
97(10) . . .
106(10) . . .
100(10) . . .
104(10) . . .
96(10) . . .
109(10) . . .
96(10) . . .
101(10) . . .
109(10) . . .
106(10) . . .
101(10) . . .
105(10) . . .
123(11) . . .
102(10) . . .
107(10) . . .
105(10) . . .
82(9) . . .
98(10) . . .
105(10) . . .
116(11) . . .
104(10) . . .
100(10) . . .
99(10) . . .
106(10) . . .
99(10) . . .
85(9) . . .
100(10) . . .
106(10) . . .
118(11) . . .
105(10) . . .
117(11) . . .
97(10) . . .
94(10) . . .
109(10) . . .
104(10) . . .
111(11) . . .
108(10) . . .
106(10) . . .
101(10) . . .
97(10) . . .
104(10) . . .
105(10) . . .
99(10) . . .
103(10) . . .
105(10) . . .
95(10) . . .
95(10) . . .
93(10) . . .
89(9) . . .
101(10) . . .
108(10) . . .
88(9) . . .
94(10) . . .
96(10) . . .
107(10) . . .
93(10) . . .
96(10) . . .
108(10) . . .
105(10) . . .
99(10) . . .
110(10) . . .
102(10) . . .
97(10) . . .
103(10) . . .
109(10) . . .
92(10) . . .
115(11) . . .
109(10) . . .
112(11) . . .
98(10) . . .
95(10) . . .
115(11) . . .
103(10) . . .
103(10) . . .
92(10) . . .
100(10) . . .
91(10) . . .
115(11) . . .
112(11) . . .
93(10) . . .
93(10) . . .
99(10) . . .
113(11) . . .
112(11) . . .
96(10) . . .
98(10) . . .
106(10) . . .
100(10) . . .
112(11) . . .
104(10) . . .
109(10) . . .
118(11) . . .
123(11) . . .
96(10) . . .
109(10) . . .
107(10) . . .
121(11) . . .
109(10) . . .
115(11) . . .
99(10) . . .
105(10) . . .
97(10) . . .
108(10) . . .
93(10) . . .
109(10) . . .
122(11) . . .
95(10) . . .
117(11) . . .
100(10) . . .
107(10) . . .
95(10) . . .
111(11) . . .
100(10) . . .
98(10) . . .
102(10) . . .
107(10) . . .
92(10) . . .
115(11) . . .
96(10) . . .
99(10) . . .
100(10) . . .
99(10) . . .
111(11) . . .
108(10) . . .
87(9) . . .
97(10) . . .
103(10) . . .
104(10) . . .
94(10) . . .
98(10) . . .
104(10) . . .
98(10) . . .
97(10) . . .
109(10) . . .
107(10) . . .
109(10) . . .
113(11) . . .
98(10) . . .
109(10) . . .
95(10) . . .
95(10) . . .
87(9) . . .
91(10) . . .
110(10) . . .
111(11) . . .
116(11) . . .
104(10) . . .
94(10) . . .
91(10) . . .
103(10) . . .
97(10) . . .
90(9) . . .
91(10) . . .
95(10) . . .
97(10) . . .
99(10) . . .
107(10) . . .
109(10) . . .
101(10) . . .
112(11) . . .
102(10) . . .
107(10) . . .
109(10) . . .
91(10) . . .
98(10) . . .
100(10) . . .
126(11) . . .
109(10) . . .
98(10) . . .
98(10) . . .
111(11) . . .
94(10) . . .
114(11) . . .
109(10) . . .
109(10) . . .
97(10) . . .
86(9) . . .
101(10) . . .
89(9) . . .
113(11) . . .
113(11) . . .
95(10) . . .
99(10) . . .
110(10) . . .
90(9) . . .
97(10) . . .
108(10) . . .
93(10) . . .
83(9) . . .
114(11) . . .
97(10) . . .
86(9) . . .
116(11) . . .
95(10) . . .
114(11) . . .
108(10) . . .
92(10) . . .
111(11) . . .
96(10) . . .
85(9) . . .
108(10) . . .
100(10) . . .
108(10) . . .
90(9) . . .
91(10) . . .
103(10) . . .
94(10) . . .
85(9) . . .
99(10) . . .
101(10) . . .
95(10) . . .
81(9) . . .
87(9) . . .
85(9) . . .
99(10) . . .
106(10) . . .
87(9) . . .
90(9) . . .
104(10) . . .
114(11) . . .
95(10) . . .
95(10) . . .
99(10) . . .
103(10) . . .
108(10) . . .
98(10) . . .
120(11) . . .
106(10) . . .
103(10) . . .
103(10) . . .
91(10) . . .
114(11) . . .
97(10) . . .
109(10) . . .
96(10) . . .
102(10) . . .
105(10) . . .
98(10) . . .
105(10) . . .
103(10) . . .
95(10) . . .
120(11) . . .
96(10) . . .
109(10) . . .
97(10) . . .
85(9) . . .
105(10) . . .
99(10) . . .
107(10) . . .
100(10) . . .
88(9) . . .
93(10) . . .
109(10) . . .
94(10) . . .
110(10) . . .
101(10) . . .
87(9) . . .
111(11) . . .
93(10) . . .
97(10) . . .
121(11) . . .
102(10) . . .
108(10) . . .
90(9) . . .
99(10) . . .
94(10) . . .
120(11) . . .
110(10) . . .
105(10) . . .
110(10) . . .
93(10) . . .
90(9) . . .
89(9) . . .
93(10) . . .
94(10) . . .
91(10) . . .
110(10) . . .
100(10) . . .
95(10) . . .
109(10) . . .
103(10) . . .
101(10) . . .
102(10) . . .
103(10) . . .
90(9) . . .
98(10) . . .
101(10) . . .
94(10) . . .
107(10) . . .
130(11) . . .
97(10) . . .
110(10) . . .
106(10) . . .
111(11) . . .
109(10) . . .
108(10) . . .
110(10) . . .
109(10) . . .
107(10) . . .
94(10) . . .
91(10) . . .
103(10) . . .
99(10) . . .
112(11) . . .
89(9) . . .
104(10) . . .
106(10) . . .
103(10) . . .
99(10) . . .
92(10) . . .
95(10) . . .
105(10) . . .
97(10) . . .
123(11) . . .
107(10) . . .
100(10) . . .
110(10) . . .
99(10) . . .
91(10) . . .
107(10) . . .
94(10) . . .
106(10) . . .
106(10) . . .
105(10) . . .
92(10) . . .
96(10) . . .
115(11) . . .
105(10) . . .
98(10) . . .
98(10) . . .
103(10) . . .
108(10) . . .
108(10) . . .
95(10) . . .
114(11) . . .
113(11) . . .
94(10) . . .
93(10) . . .
109(10) . . .
110(10) . . .
106(10) . . .
104(10) . . .
113(11) . . .
92(10) . . .
105(10) . . .
108(10) . . .
104(10) . . .
98(10) . . .
111(11) . . .
109(10) . . .
126(11) . . .
107(10) . . .
111(11) . . .
107(10) . . .
112(11) . . .
102(10) . . .
88(9) . . .
88(9) . . .
100(10) . . .
109(10) . . .
109(10) . . .
93(10) . . .
106(10) . . .
95(10) . . .
98(10) . . .
108(10) . . .
99(10) . . .
95(10) . . .
104(10) . . .
101(10) . . .
102(10) . . .
99(10) . . .
92(10) . . .
104(10) . . .
98(10) . . .
96(10) . . .
102(10) . . .
88(9) . . .
91(10) . . .
83(9) . . .
95(10) . . .
114(11) . . .
95(10) . . .
98(10) . . .
98(10) . . .
93(10) . . .
100(10) . . .
99(10) . . .
108(10) . . .
113(11) . . .
106(10) . . .
96(10) . . .
99(10) . . .
104(10) . . .
108(10) . . .
106(10) . . .
101(10) . . .
96(10) . . .
103(10) . . .
102(10) . . .
93(10) . . .
102(10) . . .
110(10) . . .
116(11) . . .
98(10) . . .
101(10) . . .
99(10) . . .
87(9) . . .
103(10) . . .
112(11) . . .
110(10) . . .
102(10) . . .
104(10) . . .
110(10) . . .
92(10) . . .
103(10) . . .
86(9) . . .
90(9) . . .
96(10) . . .
116(11) . . .
113(11) . . .
102(10) . . .
105(10) . . .
113(11) . . .
109(10) . . .
114(11) . . .
96(10) . . .
86(9) . . .
109(10) . . .
100(10) . . .
106(10) . . .
113(11) . . .
106(10) . . .
112(11) . . .
99(10) . . .
102(10) . . .
103(10) . . .
96(10) . . .
121(11) . . .
96(10) . . .
114(11) . . .
112(11) . . .
101(10) . . .
100(10) . . .
91(10) . . .
105(10) . . .
103(10) . . .
106(10) . . .
80(9) . . .
108(10) . . .
101(10) . . .
108(10) . . .
98(10) . . .
96(10) . . .
113(11) . . .
105(10) . . .
112(11) . . .
88(9) . . .
108(10) . . .
103(10) . . .
113(11) . . .
97(10) . . .
95(10) . . .
111(11) . . .
125(11) . . .
120(11) . . .
101(10) . . .
93(10) . . .
95(10) . . .
90(9) . . .
113(11) . . .
88(9) . . .
100(10) . . .
86(9) . . .
102(10) . . .
114(11) . . .
110(10) . . .
103(10) . . .
114(11) . . .
104(10) . . .
112(11) . . .
110(10) . . .
88(9) . . .
104(10) . . .
116(11) . . .
109(10) . . .
98(10) . . .
94(10) . . .
101(10) . . .
111(11) . . .
115(11) . . .
100(10) . . .
104(10) . . .
99(10) . . .
111(11) . . .
106(10) . . .
101(10) . . .
113(11) . . .
99(10) . . .
114(11) . . .
116(11) . . .
86(9) . . .
104(10) . . .
94(10) . . .
97(10) . . .
109(10) . . .
104(10) . . .
105(10) . . .
97(10) . . .
106(10) . . .
92(10) . . .
99(10) . . .
119(11) . . .
110(10) . . .
86(9) . . .
96(10) . . .
101(10) . . .
98(10) . . .
106(10) . . .
92(10) . . .
110(10) . . .
90(9) . . .
91(10) . . .
114(11) . . .
110(10) . . .
100(10) . . .
104(10) . . .
98(10) . . .
99(10) . . .
121(11) . . .
98(10) . . .
106(10) . . .
96(10) . . .
107(10) . . .
102(10) . . .
104(10) . . .
90(9) . . .
125(11) . . .
112(11) . . .
94(10) . . .
94(10) . . .
96(10) . . .
117(11) . . .
112(11) . . .
106(10) . . .
106(10) . . .
94(10) . . .
103(10) . . .
89(9) . . .
109(10) . . .
122(11) . . .
99(10) . . .
123(11) . . .
104(10) . . .
95(10) . . .
110(10) . . .
97(10) . . .
105(10) . . .
100(10) . . .
109(10) . . .
117(11) . . .
112(11) . . .
98(10) . . .
107(10) . . .
95(10) . . .
103(10) . . .
93(10) . . .
116(11) . . .
119(11) . . .
89(9) . . .
101(10) . . .
103(10) . . .
105(10) . . .
101(10) . . .
110(10) . . .
116(11) . . .
119(11) . . .
119(11) . . .
107(10) . . .
115(11) . . .
116(11) . . .
105(10) . . .
105(10) . . .
103(10) . . .
111(11) . . .
107(10) . . .
101(10) . . .
97(10) . . .
112(11) . . .
101(10) . . .
98(10) . . .
112(11) . . .
117(11) . . .
102(10) . . .
95(10) . . .
107(10) . . .
99(10) . . .
106(10) . . .
112(11) . . .
100(10) . . .
118(11) . . .
104(10) . . .
107(10) . . .
111(11) . . .
111(11) . . .
105(10) . . .
98(10) . . .
94(10) . . .
118(11) . . .
100(10) . . .
115(11) . . .
94(10) . . .
93(10) . . .
92(10) . . .
112(11) . . .
103(10) . . .
116(11) . . .
96(10) . . .
95(10) . . .
110(10) . . .
93(10) . . .
105(10) . . .
109(10) . . .
99(10) . . .
109(10) . . .
107(10) . . .
99(10) . . .
114(11) . . .
89(9) . . .
102(10) . . .
100(10) . . .
107(10) . . .
109(10) . . .
125(11) . . .
112(11) . . .
109(10) . . .
103(10) . . .
101(10) . . .
117(11) . . .
122(11) . . .
120(11) . . .
114(11) . . .
105(10) . . .
114(11) . . .
113(11) . . .
132(11) . . .
119(11) . . .
119(11) . . .
135(12) . . .
107(10) . . .
119(11) . . .
116(11) . . .
107(10) . . .
108(10) . . .
112(11) . . .
102(10) . . .
118(11) . . .
118(11) . . .
118(11) . . .
118(11) . . .
148(12) . . .
111(11) . . .
131(11) . . .
133(12) . . .
111(11) . . .
122(11) . . .
118(11) . . .
122(11) . . .
109(10) . . .
99(10) . . .
124(11) . . .
134(12) . . .
122(11) . . .
118(11) . . .
138(12) . . .
146(12) . . .
151(12) . . .
150(12) . . .
131(11) . . .
145(12) . . .
149(12) . . .
153(12) . . .
140(12) . . .
148(12) . . .
142(12) . . .
145(12) . . .
143(12) . . .
168(13) . . .
158(13) . . .
185(14) . . .
163(13) . . .
180(13) . . .
183(14) . . .
190(14) . . .
169(13) . . .
195(14) . . .
197(14) . . .
244(16) . . .
219(15) . . .
212(15) . . .
223(15) . . .
250(16) . . .
245(16) . . .
242(16) . . .
272(16) . . .
277(17) . . .
265(16) . . .
316(18) . . .
284(17) . . .
278(17) . . .
277(17) . . .
274(17) . . .
284(17) . . .
280(17) . . .
289(17) . . .
291(17) . . .
278(17) . . .
255(16) . . .
260(16) . . .
249(16) . . .
232(15) . . .
230(15) . . .
206(14) . . .
232(15) . . .
223(15) . . .
208(14) . . .
201(14) . . .
169(13) . . .
188(14) . . .
183(14) . . .
161(13) . . .
182(13) . . .
146(12) . . .
188(14) . . .
171(13) . . .
153(12) . . .
146(12) . . .
144(12) . . .
139(12) . . .
142(12) . . .
147(12) . . .
153(12) . . .
138(12) . . .
141(12) . . .
142(12) . . .
122(11) . . .
138(12) . . .
128(11) . . .
102(10) . . .
138(12) . . .
129(11) . . .
123(11) . . .
102(10) . . .
125(11) . . .
127(11) . . .
123(11) . . .
134(12) . . .
115(11) . . .
113(11) . . .
120(11) . . .
115(11) . . .
136(12) . . .
134(12) . . .
109(10) . . .
115(11) . . .
122(11) . . .
109(10) . . .
101(10) . . .
110(10) . . .
113(11) . . .
116(11) . . .
111(11) . . .
117(11) . . .
107(10) . . .
115(11) . . .
107(10) . . .
105(10) . . .
106(10) . . .
97(10) . . .
114(11) . . .
94(10) . . .
107(10) . . .
122(11) . . .
104(10) . . .
103(10) . . .
119(11) . . .
120(11) . . .
119(11) . . .
107(10) . . .
104(10) . . .
108(10) . . .
107(10) . . .
105(10) . . .
105(10) . . .
99(10) . . .
98(10) . . .
127(11) . . .
112(11) . . .
110(10) . . .
105(10) . . .
100(10) . . .
97(10) . . .
107(10) . . .
120(11) . . .
104(10) . . .
110(10) . . .
111(11) . . .
128(11) . . .
107(10) . . .
110(10) . . .
115(11) . . .
109(10) . . .
111(11) . . .
130(11) . . .
106(10) . . .
113(11) . . .
105(10) . . .
120(11) . . .
108(10) . . .
140(12) . . .
119(11) . . .
115(11) . . .
107(10) . . .
114(11) . . .
100(10) . . .
116(11) . . .
107(10) . . .
105(10) . . .
108(10) . . .
105(10) . . .
123(11) . . .
102(10) . . .
90(9) . . .
114(11) . . .
123(11) . . .
112(11) . . .
104(10) . . .
116(11) . . .
108(10) . . .
101(10) . . .
116(11) . . .
101(10) . . .
105(10) . . .
105(10) . . .
103(10) . . .
125(11) . . .
117(11) . . .
116(11) . . .
99(10) . . .
118(11) . . .
109(10) . . .
109(10) . . .
92(10) . . .
101(10) . . .
98(10) . . .
109(10) . . .
112(11) . . .
111(11) . . .
97(10) . . .
99(10) . . .
96(10) . . .
110(10) . . .
106(10) . . .
116(11) . . .
98(10) . . .
110(10) . . .
99(10) . . .
108(10) . . .
119(11) . . .
98(10) . . .
110(10) . . .
109(10) . . .
95(10) . . .
124(11) . . .
108(10) . . .
117(11) . . .
105(10) . . .
105(10) . . .
100(10) . . .
95(10) . . .
105(10) . . .
106(10) . . .
106(10) . . .
114(11) . . .
111(11) . . .
109(10) . . .
114(11) . . .
107(10) . . .
111(11) . . .
110(10) . . .
104(10) . . .
102(10) . . .
110(10) . . .
100(10) . . .
101(10) . . .
110(10) . . .
119(11) . . .
117(11) . . .
109(10) . . .
103(10) . . .
108(10) . . .
110(10) . . .
104(10) . . .
112(11) . . .
111(11) . . .
126(11) . . .
104(10) . . .
93(10) . . .
103(10) . . .
114(11) . . .
107(10) . . .
98(10) . . .
114(11) . . .
113(11) . . .
110(10) . . .
118(11) . . .
107(10) . . .
114(11) . . .
108(10) . . .
121(11) . . .
110(10) . . .
96(10) . . .
108(10) . . .
105(10) . . .
113(11) . . .
107(10) . . .
94(10) . . .
94(10) . . .
117(11) . . .
129(11) . . .
121(11) . . .
122(11) . . .
107(10) . . .
114(11) . . .
93(10) . . .
104(10) . . .
121(11) . . .
115(11) . . .
118(11) . . .
106(10) . . .
112(11) . . .
119(11) . . .
103(10) . . .
117(11) . . .
105(10) . . .
117(11) . . .
137(12) . . .
112(11) . . .
111(11) . . .
109(10) . . .
100(10) . . .
108(10) . . .
113(11) . . .
109(10) . . .
131(11) . . .
122(11) . . .
110(10) . . .
112(11) . . .
113(11) . . .
114(11) . . .
110(10) . . .
107(10) . . .
110(10) . . .
120(11) . . .
99(10) . . .
124(11) . . .
118(11) . . .
104(10) . . .
117(11) . . .
117(11) . . .
114(11) . . .
122(11) . . .
127(11) . . .
124(11) . . .
128(11) . . .
125(11) . . .
139(12) . . .
114(11) . . .
125(11) . . .
142(12) . . .
129(11) . . .
119(11) . . .
141(12) . . .
135(12) . . .
128(11) . . .
133(12) . . .
142(12) . . .
156(12) . . .
130(11) . . .
147(12) . . .
152(12) . . .
141(12) . . .
150(12) . . .
137(12) . . .
142(12) . . .
119(11) . . .
148(12) . . .
136(12) . . .
134(12) . . .
165(13) . . .
152(12) . . .
151(12) . . .
164(13) . . .
154(12) . . .
152(12) . . .
167(13) . . .
166(13) . . .
168(13) . . .
174(13) . . .
193(14) . . .
183(14) . . .
212(15) . . .
203(14) . . .
185(14) . . .
220(15) . . .
224(15) . . .
240(15) . . .
261(16) . . .
245(16) . . .
263(16) . . .
284(17) . . .
300(17) . . .
316(18) . . .
335(18) . . .
349(19) . . .
352(19) . . .
385(20) . . .
416(20) . . .
383(20) . . .
434(21) . . .
400(20) . . .
471(22) . . .
429(21) . . .
484(22) . . .
461(21) . . .
500(22) . . .
495(22) . . .
472(22) . . .
489(22) . . .
460(21) . . .
485(22) . . .
461(21) . . .
470(22) . . .
461(21) . . .
466(22) . . .
459(21) . . .
395(20) . . .
362(19) . . .
411(20) . . .
359(19) . . .
370(19) . . .
354(19) . . .
338(18) . . .
312(18) . . .
293(17) . . .
298(17) . . .
278(17) . . .
272(16) . . .
233(15) . . .
255(16) . . .
237(15) . . .
215(15) . . .
197(14) . . .
229(15) . . .
201(14) . . .
192(14) . . .
190(14) . . .
184(14) . . .
189(14) . . .
162(13) . . .
177(13) . . .
161(13) . . .
136(12) . . .
150(12) . . .
163(13) . . .
144(12) . . .
148(12) . . .
170(13) . . .
166(13) . . .
144(12) . . .
148(12) . . .
144(12) . . .
126(11) . . .
142(12) . . .
129(11) . . .
145(12) . . .
119(11) . . .
120(11) . . .
134(12) . . .
124(11) . . .
140(12) . . .
136(12) . . .
120(11) . . .
116(11) . . .
139(12) . . .
136(12) . . .
100(10) . . .
126(11) . . .
120(11) . . .
121(11) . . .
118(11) . . .
116(11) . . .
99(10) . . .
121(11) . . .
121(11) . . .
110(10) . . .
131(11) . . .
117(11) . . .
121(11) . . .
128(11) . . .
103(10) . . .
96(10) . . .
116(11) . . .
126(11) . . .
121(11) . . .
116(11) . . .
140(12) . . .
130(11) . . .
108(10) . . .
113(11) . . .
122(11) . . .
104(10) . . .
99(10) . . .
100(10) . . .
108(10) . . .
116(11) . . .
112(11) . . .
94(10) . . .
100(10) . . .
125(11) . . .
122(11) . . .
119(11) . . .
112(11) . . .
104(10) . . .
106(10) . . .
111(11) . . .
121(11) . . .
121(11) . . .
108(10) . . .
122(11) . . .
107(10) . . .
131(11) . . .
120(11) . . .
112(11) . . .
95(10) . . .
106(10) . . .
112(11) . . .
88(9) . . .
110(10) . . .
117(11) . . .
98(10) . . .
112(11) . . .
113(11) . . .
89(9) . . .
107(10) . . .
110(10) . . .
100(10) . . .
104(10) . . .
96(10) . . .
117(11) . . .
105(10) . . .
119(11) . . .
113(11) . . .
116(11) . . .
83(9) . . .
91(10) . . .
102(10) . . .
102(10) . . .
117(11) . . .
99(10) . . .
105(10) . . .
95(10) . . .
124(11) . . .
107(10) . . .
115(11) . . .
122(11) . . .
90(9) . . .
100(10) . . .
110(10) . . .
101(10) . . .
103(10) . . .
101(10) . . .
104(10) . . .
118(11) . . .
110(10) . . .
101(10) . . .
95(10) . . .
117(11) . . .
118(11) . . .
96(10) . . .
96(10) . . .
93(10) . . .
94(10) . . .
101(10) . . .
114(11) . . .
106(10) . . .
109(10) . . .
93(10) . . .
96(10) . . .
123(11) . . .
111(11) . . .
103(10) . . .
114(11) . . .
102(10) . . .
96(10) . . .
100(10) . . .
107(10) . . .
96(10) . . .
89(9) . . .
103(10) . . .
112(11) . . .
84(9) . . .
118(11) . . .
112(11) . . .
94(10) . . .
116(11) . . .
97(10) . . .
114(11) . . .
103(10) . . .
95(10) . . .
99(10) . . .
104(10) . . .
97(10) . . .
105(10) . . .
118(11) . . .
114(11) . . .
115(11) . . .
100(10) . . .
100(10) . . .
106(10) . . .
104(10) . . .
110(10) . . .
120(11) . . .
99(10) . . .
105(10) . . .
101(10) . . .
102(10) . . .
110(10) . . .
108(10) . . .
80(9) . . .
110(10) . . .
107(10) . . .
117(11) . . .
104(10) . . .
115(11) . . .
114(11) . . .
98(10) . . .
97(10) . . .
111(11) . . .
84(9) . . .
102(10) . . .
75(9) . . .
99(10) . . .
109(10) . . .
94(10) . . .
110(10) . . .
104(10) . . .
99(10) . . .
95(10) . . .
100(10) . . .
105(10) . . .
119(11) . . .
104(10) . . .
111(11) . . .
96(10) . . .
104(10) . . .
113(11) . . .
104(10) . . .
103(10) . . .
131(11) . . .
103(10) . . .
105(10) . . .
95(10) . . .
114(11) . . .
105(10) . . .
105(10) . . .
114(11) . . .
109(10) . . .
101(10) . . .
116(11) . . .
120(11) . . .
110(10) . . .
118(11) . . .
113(11) . . .
109(10) . . .
113(11) . . .
91(10) . . .
113(11) . . .
76(9) . . .
91(10) . . .
96(10) . . .
107(10) . . .
100(10) . . .
93(10) . . .
106(10) . . .
97(10) . . .
111(11) . . .
93(10) . . .
99(10) . . .
106(10) . . .
98(10) . . .
97(10) . . .
96(10) . . .
108(10) . . .
115(11) . . .
95(10) . . .
90(9) . . .
113(11) . . .
88(9) . . .
102(10) . . .
116(11) . . .
107(10) . . .
104(10) . . .
94(10) . . .
101(10) . . .
124(11) . . .
103(10) . . .
110(10) . . .
91(10) . . .
99(10) . . .
101(10) . . .
94(10) . . .
110(10) . . .
101(10) . . .
102(10) . . .
105(10) . . .
122(11) . . .
107(10) . . .
95(10) . . .
98(10) . . .
105(10) . . .
99(10) . . .
96(10) . . .
91(10) . . .
110(10) . . .
126(11) . . .
106(10) . . .
85(9) . . .
96(10) . . .
107(10) . . .
114(11) . . .
106(10) . . .
92(10) . . .
97(10) . . .
109(10) . . .
99(10) . . .
95(10) . . .
101(10) . . .
110(10) . . .
98(10) . . .
86(9) . . .
93(10) . . .
113(11) . . .
99(10) . . .
111(11) . . .
106(10) . . .
112(11) . . .
111(11) . . .
104(10) . . .
92(10) . . .
105(10) . . .
93(10) . . .
95(10) . . .
102(10) . . .
103(10) . . .
103(10) . . .
109(10) . . .
105(10) . . .
114(11) . . .
108(10) . . .
104(10) . . .
88(9) . . .
105(10) . . .
107(10) . . .
104(10) . . .
116(11) . . .
115(11) . . .
113(11) . . .
103(10) . . .
104(10) . . .
107(10) . . .
110(10) . . .
103(10) . . .
110(10) . . .
106(10) . . .
95(10) . . .
116(11) . . .
111(11) . . .
104(10) . . .
100(10) . . .
112(11) . . .
104(10) . . .
122(11) . . .
101(10) . . .
95(10) . . .
101(10) . . .
99(10) . . .
92(10) . . .
123(11) . . .
99(10) . . .
122(11) . . .
83(9) . . .
94(10) . . .
120(11) . . .
96(10) . . .
91(10) . . .
99(10) . . .
104(10) . . .
96(10) . . .
101(10) . . .
110(10) . . .
124(11) . . .
106(10) . . .
94(10) . . .
96(10) . . .
110(10) . . .
94(10) . . .
114(11) . . .
103(10) . . .
99(10) . . .
91(10) . . .
99(10) . . .
102(10) . . .
111(11) . . .
93(10) . . .
94(10) . . .
92(10) . . .
98(10) . . .
112(11) . . .
117(11) . . .
95(10) . . .
110(10) . . .
88(9) . . .
90(9) . . .
111(11) . . .
110(10) . . .
98(10) . . .
101(10) . . .
101(10) . . .
102(10) . . .
101(10) . . .
118(11) . . .
98(10) . . .
103(10) . . .
114(11) . . .
101(10) . . .
81(9) . . .
105(10) . . .
105(10) . . .
91(10) . . .
116(11) . . .
101(10) . . .
99(10) . . .
109(10) . . .
110(10) . . .
98(10) . . .
104(10) . . .
104(10) . . .
106(10) . . .
98(10) . . .
86(9) . . .
101(10) . . .
114(11) . . .
94(10) . . .
104(10) . . .
104(10) . . .
99(10) . . .
102(10) . . .
101(10) . . .
110(10) . . .
104(10) . . .
123(11) . . .
104(10) . . .
111(11) . . .
101(10) . . .
105(10) . . .
81(9) . . .
98(10) . . .
107(10) . . .
108(10) . . .
82(9) . . .
96(10) . . .
92(10) . . .
92(10) . . .
84(9) . . .
111(11) . . .
107(10) . . .
97(10) . . .
97(10) . . .
99(10) . . .
114(11) . . .
108(10) . . .
101(10) . . .
91(10) . . .
106(10) . . .
96(10) . . .
100(10) . . .
104(10) . . .
99(10) . . .
116(11) . . .
106(10) . . .
108(10) . . .
109(10) . . .
96(10) . . .
99(10) . . .
95(10) . . .
109(10) . . .
103(10) . . .
99(10) . . .
105(10) . . .
97(10) . . .
118(11) . . .
88(9) . . .
102(10) . . .
99(10) . . .
100(10) . . .
102(10) . . .
100(10) . . .
107(10) . . .
92(10) . . .
107(10) . . .
79(9) . . .
100(10) . . .
100(10) . . .
101(10) . . .
92(10) . . .
104(10) . . .
99(10) . . .
101(10) . . .
100(10) . . .
88(9) . . .
97(10) . . .
118(11) . . .
94(10) . . .
96(10) . . .
99(10) . . .
108(10) . . .
112(11) . . .
94(10) . . .
92(10) . . .
123(11) . . .
100(10) . . .
97(10) . . .
104(10) . . .
102(10) . . .
92(10) . . .
104(10) . . .
87(9) . . .
95(10) . . .
111(11) . . .
102(10) . . .
100(10) . . .
90(9) . . .
94(10) . . .
98(10) . . .
94(10) . . .
110(10) . . .
117(11) . . .
104(10) . . .
103(10) . . .
105(10) . . .
106(10) . . .
89(9) . . .
93(10) . . .
103(10) . . .
100(10) . . .
94(10) . . .
105(10) . . .
93(10) . . .
97(10) . . .
102(10) . . .
92(10) . . .
91(10) . . .
102(10) . . .
108(10) . . .
88(9) . . .
102(10) . . .
106(10) . . .
107(10) . . .
95(10) . . .
108(10) . . .
95(10) . . .
97(10) . . .
106(10) . . .
82(9) . . .
109(10) . . .
115(11) . . .
99(10) . . .
102(10) . . .
96(10) . . .
84(9) . . .
83(9) . . .
119(11) . . .
90(9) . . .
96(10) . . .
96(10) . . .
107(10) . . .
99(10) . . .
98(10) . . .
111(11) . . .
108(10) . . .
101(10) . . .
100(10) . . .
103(10) . . .
112(11) . . .
86(9) . . .
80(9) . . .
115(11) . . .
111(11) . . .
87(9) . . .
88(9) . . .
105(10) . . .
100(10) . . .
113(11) . . .
116(11) . . .
97(10) . . .
98(10) . . .
114(11) . . .
104(10) . . .
87(9) . . .
108(10) . . .
123(11) . . .
94(10) . . .
97(10) . . .
94(10) . . .
96(10) . . .
103(10) . . .
125(11) . . .
98(10) . . .
98(10) . . .
101(10) . . .
102(10) . . .
96(10) . . .
102(10) . . .
98(10) . . .
113(11) . . .
90(9) . . .
107(10) . . .
87(9) . . .
112(11) . . .
104(10) . . .
113(11) . . .
106(10) . . .
94(10) . . .
117(11) . . .
104(10) . . .
91(10) . . .
96(10) . . .
93(10) . . .
100(10) . . .
100(10) . . .
111(11) . . .
89(9) . . .
96(10) . . .
86(9) . . .
94(10) . . .
99(10) . . .
110(10) . . .
94(10) . . .
96(10) . . .
84(9) . . .
99(10) . . .
95(10) . . .
83(9) . . .
96(10) . . .
105(10) . . .
93(10) . . .
92(10) . . .
106(10) . . .
109(10) . . .
84(9) . . .
86(9) . . .
96(10) . . .
102(10) . . .
95(10) . . .
107(10) . . .
90(9) . . .
101(10) . . .
97(10) . . .
105(10) . . .
104(10) . . .
97(10) . . .
102(10) . . .
95(10) . . .
110(10) . . .
96(10) . . .
90(9) . . .
94(10) . . .
98(10) . . .
106(10) . . .
94(10) . . .
80(9) . . .
109(10) . . .
93(10) . . .
96(10) . . .
96(10) . . .
102(10) . . .
110(10) . . .
97(10) . . .
96(10) . . .
92(10) . . .
111(11) . . .
107(10) . . .
94(10) . . .
91(10) . . .
96(10) . . .
96(10) . . .
89(9) . . .
100(10) . . .
97(10) . . .
99(10) . . .
106(10) . . .
116(11) . . .
93(10) . . .
95(10) . . .
102(10) . . .
101(10) . . .
106(10) . . .
127(11) . . .
91(10) . . .
103(10) . . .
87(9) . . .
100(10) . . .
114(11) . . .
97(10) . . .
113(11) . . .
100(10) . . .
90(9) . . .
84(9) . . .
94(10) . . .
86(9) . . .
118(11) . . .
98(10) . . .
86(9) . . .
98(10) . . .
115(11) . . .
108(10) . . .
91(10) . . .
89(9) . . .
94(10) . . .
93(10) . . .
95(10) . . .
101(10) . . .
108(10) . . .
100(10) . . .
101(10) . . .
113(11) . . .
89(9) . . .
107(10) . . .
99(10) . . .
99(10) . . .
102(10) . . .
106(10) . . .
98(10) . . .
106(10) . . .
97(10) . . .
100(10) . . .
104(10) . . .
99(10) . . .
103(10) . . .
112(11) . . .
108(10) . . .
107(10) . . .
108(10) . . .
108(10) . . .
111(11) . . .
115(11) . . .
87(9) . . .
101(10) . . .
94(10) . . .
98(10) . . .
103(10) . . .
107(10) . . .
100(10) . . .
113(11) . . .
103(10) . . .
103(10) . . .
93(10) . . .
90(9) . . .
114(11) . . .
100(10) . . .
110(10) . . .
104(10) . . .
98(10) . . .
121(11) . . .
98(10) . . .
84(9) . . .
109(10) . . .
99(10) . . .
87(9) . . .
107(10) . . .
87(9) . . .
130(11) . . .
96(10) . . .
110(10) . . .
114(11) . . .
95(10) . . .
115(11) . . .
105(10) . . .
113(11) . . .
108(10) . . .
99(10) . . .
106(10) . . .
112(11) . . .
97(10) . . .
87(9) . . .
87(9) . . .
93(10) . . .
104(10) . . .
100(10) . . .
97(10) . . .
95(10) . . .
96(10) . . .
99(10) . . .
88(9) . . .
96(10) . . .
106(10) . . .
106(10) . . .
92(10) . . .
98(10) . . .
114(11) . . .
83(9) . . .
105(10) . . .
105(10) . . .
99(10) . . .
93(10) . . .
89(9) . . .
103(10) . . .
109(10) . . .
86(9) . . .
105(10) . . .
106(10) . . .
101(10) . . .
107(10) . . .
84(9) . . .
87(9) . . .
92(10) . . .
109(10) . . .
105(10) . . .
121(11) . . .
105(10) . . .
98(10) . . .
100(10) . . .
104(10) . . .
102(10) . . .
104(10) . . .
96(10) . . .
95(10) . . .
101(10) . . .
90(9) . . .
94(10) . . .
104(10) . . .
98(10) . . .
93(10) . . .
118(11) . . .
110(10) . . .
103(10) . . .
110(10) . . .
111(11) . . .
103(10) . . .
118(11) . . .
113(11) . . .
103(10) . . .
104(10) . . .
87(9) . . .
99(10) . . .
104(10) . . .
100(10) . . .
109(10) . . .
112(11) . . .
105(10) . . .
107(10) . . .
113(11) . . .
105(10) . . .
102(10) . . .
92(10) . . .
108(10) . . .
115(11) . . .
92(10) . . .
83(9) . . .
99(10) . . .
114(11) . . .
90(9) . . .
99(10) . . .
97(10) . . .
108(10) . . .
109(10) . . .
88(9) . . .
100(10) . . .
95(10) . . .
108(10) . . .
98(10) . . .
100(10) . . .
100(10) . . .
118(11) . . .
115(11) . . .
103(10) . . .
105(10) . . .
106(10) . . .
97(10) . . .
111(11) . . .
109(10) . . .
96(10) . . .
89(9) . . .
88(9) . . .
107(10) . . .
96(10) . . .
83(9) . . .
91(10) . . .
102(10) . . .
109(10) . . .
111(11) . . .
94(10) . . .
87(9) . . .
95(10) . . .
99(10) . . .
95(10) . . .
95(10) . . .
88(9) . . .
110(10) . . .
115(11) . . .
110(10) . . .
103(10) . . .
92(10) . . .
91(10) . . .
99(10) . . .
106(10) . . .
106(10) . . .
101(10) . . .
101(10) . . .
98(10) . . .
110(10) . . .
111(11) . . .
93(10) . . .
96(10) . . .
98(10) . . .
108(10) . . .
79(9) . . .
79(9) . . .
92(10) . . .
92(10) . . .
97(10) . . .
105(10) . . .
92(10) . . .
105(10) . . .
103(10) . . .
102(10) . . .
102(10) . . .
101(10) . . .
90(9) . . .
99(10) . . .
107(10) . . .
103(10) . . .
113(11) . . .
97(10) . . .
100(10) . . .
95(10) . . .
90(9) . . .
93(10) . . .
80(9) . . .
108(10) . . .
115(11) . . .
104(10) . . .
97(10) . . .
101(10) . . .
106(10) . . .
91(10) . . .
102(10) . . .
103(10) . . .
100(10) . . .
100(10) . . .
100(10) . . .
79(9) . . .
103(10) . . .
101(10) . . .
95(10) . . .
114(11) . . .
90(9) . . .
98(10) . . .
101(10) . . .
105(10) . . .
99(10) . . .
94(10) . . .
102(10) . . .
92(10) . . .
85(9) . . .
77(9) . . .
105(10) . . .
91(10) . . .
104(10) . . .
101(10) . . .
111(11) . . .
97(10) . . .
105(10) . . .
92(10) . . .
92(10) . . .
91(10) . . .
105(10) . . .
83(9) . . .
118(11) . . .
112(11) . . .
101(10) . . .
87(9) . . .
106(10) . . .
95(10) . . .
90(9) . . .
110(10) . . .
104(10) . . .
108(10) . . .
108(10) . . .
100(10) . . .
114(11) . . .
110(10) . . .
103(10) . . .
107(10) . . .
114(11) . . .
104(10) . . .
106(10) . . .
97(10) . . .
100(10) . . .
111(11) . . .
110(10) . . .
102(10) . . .
109(10) . . .
112(11) . . .
113(11) . . .
95(10) . . .
100(10) . . .
100(10) . . .
104(10) . . .
109(10) . . .
108(10) . . .
101(10) . . .
108(10) . . .
103(10) . . .
129(11) . . .
90(9) . . .
107(10) . . .
106(10) . . .
101(10) . . .
112(11) . . .
105(10) . . .
103(10) . . .
103(10) . . .
109(10) . . .
106(10) . . .
87(9) . . .
102(10) . . .
96(10) . . .
106(10) . . .
113(11) . . .
115(11) . . .
89(9) . . .
108(10) . . .
101(10) . . .
97(10) . . .
93(10) . . .
103(10) . . .
94(10) . . .
95(10) . . .
102(10) . . .
97(10) . . .
93(10) . . .
94(10) . . .
105(10) . . .
119(11) . . .
98(10) . . .
105(10) . . .
98(10) . . .
100(10) . . .
95(10) . . .
104(10) . . .
95(10) . . .
91(10) . . .
103(10) . . .
96(10) . . .
100(10) . . .
100(10) . . .
86(9) . . .
106(10) . . .
111(11) . . .
105(10) . . .
109(10) . . .
114(11) . . .
107(10) . . .
91(10) . . .
101(10) . . .
90(9) . . .
103(10) . . .
119(11) . . .
94(10) . . .
101(10) . . .
94(10) . . .
92(10) . . .
99(10) . . .
102(10) . . .
98(10) . . .
107(10) . . .
94(10) . . .
111(11) . . .
95(10) . . .
96(10) . . .
96(10) . . .
96(10) . . .
107(10) . . .
97(10) . . .
103(10) . . .
102(10) . . .
103(10) . . .
97(10) . . .
102(10) . . .
110(10) . . .
93(10) . . .
109(10) . . .
105(10) . . .
107(10) . . .
111(11) . . .
100(10) . . .
108(10) . . .
97(10) . . .
91(10) . . .
102(10) . . .
108(10) . . .
106(10) . . .
100(10) . . .
115(11) . . .
108(10) . . .
109(10) . . .
85(9) . . .
114(11) . . .
95(10) . . .
109(10) . . .
96(10) . . .
116(11) . . .
93(10) . . .
97(10) . . .
102(10) . . .
91(10) . . .
83(9) . . .
109(10) . . .
115(11) . . .
89(9) . . .
120(11) . . .
102(10) . . .
110(10) . . .
117(11) . . .
100(10) . . .
121(11) . . .
108(10) . . .
90(9) . . .
107(10) . . .
90(9) . . .
108(10) . . .
113(11) . . .
107(10) . . .
84(9) . . .
114(11) . . .
105(10) . . .
109(10) . . .
111(11) . . .
118(11) . . .
88(9) . . .
110(10) . . .
100(10) . . .
114(11) . . .
114(11) . . .
98(10) . . .
107(10) . . .
96(10) . . .
109(10) . . .
106(10) . . .
109(10) . . .
106(10) . . .
114(11) . . .
99(10) . . .
112(11) . . .
105(10) . . .
106(10) . . .
116(11) . . .
94(10) . . .
121(11) . . .
96(10) . . .
119(11) . . .
93(10) . . .
103(10) . . .
92(10) . . .
93(10) . . .
108(10) . . .
106(10) . . .
100(10) . . .
103(10) . . .
95(10) . . .
120(11) . . .
94(10) . . .
111(11) . . .
117(11) . . .
121(11) . . .
101(10) . . .
98(10) . . .
104(10) . . .
100(10) . . .
115(11) . . .
103(10) . . .
110(10) . . .
109(10) . . .
115(11) . . .
111(11) . . .
107(10) . . .
106(10) . . .
107(10) . . .
111(11) . . .
114(11) . . .
107(10) . . .
116(11) . . .
126(11) . . .
113(11) . . .
101(10) . . .
92(10) . . .
98(10) . . .
104(10) . . .
103(10) . . .
94(10) . . .
100(10) . . .
98(10) . . .
113(11) . . .
109(10) . . .
98(10) . . .
104(10) . . .
96(10) . . .
108(10) . . .
101(10) . . .
90(9) . . .
105(10) . . .
103(10) . . .
112(11) . . .
110(10) . . .
109(10) . . .
116(11) . . .
111(11) . . .
100(10) . . .
103(10) . . .
97(10) . . .
102(10) . . .
88(9) . . .
110(10) . . .
94(10) . . .
106(10) . . .
112(11) . . .
118(11) . . .
116(11) . . .
114(11) . . .
99(10) . . .
101(10) . . .
115(11) . . .
104(10) . . .
111(11) . . .
112(11) . . .
121(11) . . .
112(11) . . .
107(10) . . .
105(10) . . .
113(11) . . .
114(11) . . .
108(10) . . .
122(11) . . .
86(9) . . .
114(11) . . .
105(10) . . .
110(10) . . .
116(11) . . .
112(11) . . .
117(11) . . .
103(10) . . .
119(11) . . .
102(10) . . .
120(11) . . .
120(11) . . .
104(10) . . .
128(11) . . .
121(11) . . .
103(10) . . .
127(11) . . .
117(11) . . .
133(12) . . .
109(10) . . .
116(11) . . .
109(10) . . .
112(11) . . .
117(11) . . .
106(10) . . .
111(11) . . .
122(11) . . .
119(11) . . .
108(10) . . .
113(11) . . .
103(10) . . .
112(11) . . .
110(10) . . .
115(11) . . .
117(11) . . .
112(11) . . .
118(11) . . .
103(10) . . .
101(10) . . .
106(10) . . .
119(11) . . .
122(11) . . .
110(10) . . .
95(10) . . .
114(11) . . .
127(11) . . .
124(11) . . .
128(11) . . .
126(11) . . .
125(11) . . .
128(11) . . .
127(11) . . .
124(11) . . .
122(11) . . .
119(11) . . .
118(11) . . .
130(11) . . .
114(11) . . .
122(11) . . .
122(11) . . .
125(11) . . .
133(12) . . .
141(12) . . .
126(11) . . .
120(11) . . .
125(11) . . .
127(11) . . .
146(12) . . .
150(12) . . .
119(11) . . .
160(13) . . .
130(11) . . .
165(13) . . .
134(12) . . .
143(12) . . .
153(12) . . .
156(12) . . .
146(12) . . .
136(12) . . .
137(12) . . .
151(12) . . .
155(12) . . .
160(13) . . .
170(13) . . .
154(12) . . .
165(13) . . .
184(14) . . .
186(14) . . .
183(14) . . .
153(12) . . .
167(13) . . .
165(13) . . .
190(14) . . .
186(14) . . .
208(14) . . .
216(15) . . .
211(15) . . .
214(15) . . .
236(15) . . .
226(15) . . .
259(16) . . .
271(16) . . .
247(16) . . .
280(17) . . .
293(17) . . .
270(16) . . .
328(18) . . .
275(17) . . .
334(18) . . .
331(18) . . .
332(18) . . .
350(19) . . .
349(19) . . .
373(19) . . .
387(20) . . .
396(20) . . .
427(21) . . .
407(20) . . .
437(21) . . .
418(20) . . .
447(21) . . .
429(21) . . .
447(21) . . .
435(21) . . .
420(20) . . .
396(20) . . .
428(21) . . .
416(20) . . .
403(20) . . .
388(20) . . .
390(20) . . .
390(20) . . .
387(20) . . .
371(19) . . .
352(19) . . .
337(18) . . .
296(17) . . .
286(17) . . .
294(17) . . .
254(16) . . .
267(16) . . .
268(16) . . .
232(15) . . .
224(15) . . .
273(17) . . .
223(15) . . .
223(15) . . .
195(14) . . .
199(14) . . .
190(14) . . .
188(14) . . .
186(14) . . .
185(14) . . .
167(13) . . .
163(13) . . .
173(13) . . .
187(14) . . .
162(13) . . .
150(12) . . .
173(13) . . .
176(13) . . .
169(13) . . .
161(13) . . .
146(12) . . .
154(12) . . .
146(12) . . .
142(12) . . .
157(13) . . .
141(12) . . .
133(12) . . .
136(12) . . .
152(12) . . .
134(12) . . .
155(12) . . .
140(12) . . .
132(11) . . .
134(12) . . .
137(12) . . .
120(11) . . .
140(12) . . .
143(12) . . .
139(12) . . .
119(11) . . .
114(11) . . .
115(11) . . .
140(12) . . .
120(11) . . .
125(11) . . .
122(11) . . .
121(11) . . .
120(11) . . .
123(11) . . .
132(11) . . .
115(11) . . .
129(11) . . .
119(11) . . .
114(11) . . .
104(10) . . .
119(11) . . .
137(12) . . .
111(11) . . .
122(11) . . .
140(12) . . .
112(11) . . .
108(10) . . .
131(11) . . .
108(10) . . .
105(10) . . .
115(11) . . .
115(11) . . .
112(11) . . .
119(11) . . .
108(10) . . .
119(11) . . .
117(11) . . .
104(10) . . .
108(10) . . .
117(11) . . .
104(10) . . .
115(11) . . .
121(11) . . .
105(10) . . .
125(11) . . .
119(11) . . .
94(10) . . .
110(10) . . .
116(11) . . .
111(11) . . .
110(10) . . .
113(11) . . .
116(11) . . .
103(10) . . .
102(10) . . .
126(11) . . .
103(10) . . .
108(10) . . .
94(10) . . .
102(10) . . .
102(10) . . .
106(10) . . .
107(10) . . .
106(10) . . .
108(10) . . .
103(10) . . .
115(11) . . .
114(11) . . .
102(10) . . .
97(10) . . .
95(10) . . .
113(11) . . .
96(10) . . .
119(11) . . .
105(10) . . .
122(11) . . .
98(10) . . .
119(11) . . .
114(11) . . .
129(11) . . .
105(10) . . .
98(10) . . .
94(10) . . .
112(11) . . .
107(10) . . .
108(10) . . .
103(10) . . .
97(10) . . .
109(10) . . .
129(11) . . .
111(11) . . .
112(11) . . .
94(10) . . .
78(9) . . .
110(10) . . .
104(10) . . .
100(10) . . .
135(12) . . .
108(10) . . .
106(10) . . .
109(10) . . .
118(11) . . .
102(10) . . .
90(9) . . .
113(11) . . .
91(10) . . .
110(10) . . .
117(11) . . .
126(11) . . .
116(11) . . .
122(11) . . .
95(10) . . .
110(10) . . .
105(10) . . .
114(11) . . .
110(10) . . .
107(10) . . .
110(10) . . .
122(11) . . .
103(10) . . .
116(11) . . .
109(10) . . .
112(11) . . .
99(10) . . .
115(11) . . .
83(9) . . .
109(10) . . .
103(10) . . .
119(11) . . .
96(10) . . .
116(11) . . .
128(11) . . .
122(11) . . .
113(11) . . .
98(10) . . .
111(11) . . .
106(10) . . .
126(11) . . .
115(11) . . .
113(11) . . .
114(11) . . .
112(11) . . .
100(10) . . .
107(10) . . .
107(10) . . .
130(11) . . .
99(10) . . .
101(10) . . .
114(11) . . .
94(10) . . .
109(10) . . .
118(11) . . .
117(11) . . .
109(10) . . .
118(11) . . .
106(10) . . .
112(11) . . .
107(10) . . .
105(10) . . .
110(10) . . .
101(10) . . .
93(10) . . .
95(10) . . .
94(10) . . .
100(10) . . .
119(11) . . .
101(10) . . .
115(11) . . .
120(11) . . .
100(10) . . .
97(10) . . .
77(9) . . .
113(11) . . .
118(11) . . .
110(10) . . .
113(11) . . .
104(10) . . .
103(10) . . .
98(10) . . .
118(11) . . .
95(10) . . .
98(10) . . .
112(11) . . .
114(11) . . .
111(11) . . .
108(10) . . .
107(10) . . .
101(10) . . .
107(10) . . .
98(10) . . .
102(10) . . .
111(11) . . .
116(11) . . .
114(11) . . .
110(10) . . .
91(10) . . .
115(11) . . .
103(10) . . .
112(11) . . .
99(10) . . .
105(10) . . .
116(11) . . .
108(10) . . .
101(10) . . .
123(11) . . .
101(10) . . .
110(10) . . .
115(11) . . .
123(11) . . .
108(10) . . .
109(10) . . .
111(11) . . .
104(10) . . .
122(11) . . .
101(10) . . .
104(10) . . .
112(11) . . .
109(10) . . .
106(10) . . .
92(10) . . .
112(11) . . .
77(9) . . .
101(10) . . .
103(10) . . .
118(11) . . .
103(10) . . .
121(11) . . .
95(10) . . .
110(10) . . .
114(11) . . .
103(10) . . .
105(10) . . .
105(10) . . .
109(10) . . .
101(10) . . .
105(10) . . .
94(10) . . .
91(10) . . .
91(10) . . .
105(10) . . .
116(11) . . .
92(10) . . .
111(11) . . .
123(11) . . .
121(11) . . .
113(11) . . .
102(10) . . .
116(11) . . .
109(10) . . .
105(10) . . .
111(11) . . .
96(10) . . .
108(10) . . .
110(10) . . .
104(10) . . .
109(10) . . .
104(10) . . .
104(10) . . .
100(10) . . .
129(11) . . .
101(10) . . .
100(10) . . .
116(11) . . .
120(11) . . .
110(10) . . .
118(11) . . .
101(10) . . .
109(10) . . .
121(11) . . .
107(10) . . .
105(10) . . .
105(10) . . .
102(10) . . .
110(10) . . .
111(11) . . .
100(10) . . .
110(10) . . .
111(11) . . .
110(10) . . .
115(11) . . .
104(10) . . .
103(10) . . .
93(10) . . .
116(11) . . .
98(10) . . .
104(10) . . .
120(11) . . .
99(10) . . .
109(10) . . .
104(10) . . .
110(10) . . .
113(11) . . .
130(11) . . .
121(11) . . .
116(11) . . .
108(10) . . .
100(10) . . .
113(11) . . .
120(11) . . .
114(11) . . .
117(11) . . .
102(10) . . .
111(11) . . .
102(10) . . .
104(10) . . .
113(11) . . .
124(11) . . .
104(10) . . .
95(10) . . .
108(10) . . .
120(11) . . .
94(10) . . .
101(10) . . .
114(11) . . .
115(11) . . .
96(10) . . .
111(11) . . .
112(11) . . .
117(11) . . .
110(10) . . .
116(11) . . .
102(10) . . .
86(9) . . .
115(11) . . .
97(10) . . .
95(10) . . .
113(11) . . .
92(10) . . .
98(10) . . .
112(11) . . .
111(11) . . .
101(10) . . .
94(10) . . .
110(10) . . .
120(11) . . .
102(10) . . .
102(10) . . .
108(10) . . .
105(10) . . .
114(11) . . .
105(10) . . .
101(10) . . .
103(10) . . .
94(10) . . .
106(10) . . .
107(10) . . .
105(10) . . .
112(11) . . .
106(10) . . .
107(10) . . .
111(11) . . .
106(10) . . .
114(11) . . .
111(11) . . .
106(10) . . .
99(10) . . .
100(10) . . .
106(10) . . .
106(10) . . .
117(11) . . .
100(10) . . .
99(10) . . .
105(10) . . .
112(11) . . .
103(10) . . .
114(11) . . .
114(11) . . .
101(10) . . .
118(11) . . .
104(10) . . .
102(10) . . .
93(10) . . .
111(11) . . .
103(10) . . .
104(10) . . .
105(10) . . .
106(10) . . .
103(10) . . .
117(11) . . .
104(10) . . .
110(10) . . .
104(10) . . .
123(11) . . .
102(10) . . .
105(10) . . .
106(10) . . .
91(10) . . .
111(11) . . .
111(11) . . .
109(10) . . .
95(10) . . .
101(10) . . .
112(11) . . .
107(10) . . .
116(11) . . .
103(10) . . .
103(10) . . .
93(10) . . .
96(10) . . .
109(10) . . .
106(10) . . .
112(11) . . .
98(10) . . .
96(10) . . .
96(10) . . .
96(10) . . .
103(10) . . .
113(11) . . .
113(11) . . .
99(10) . . .
111(11) . . .
107(10) . . .
102(10) . . .
113(11) . . .
107(10) . . .
95(10) . . .
110(10) . . .
102(10) . . .
104(10) . . .
100(10) . . .
107(10) . . .
103(10) . . .
129(11) . . .
118(11) . . .
130(11) . . .
103(10) . . .
99(10) . . .
110(10) . . .
118(11) . . .
115(11) . . .
106(10) . . .
96(10) . . .
101(10) . . .
107(10) . . .
111(11) . . .
113(11) . . .
106(10) . . .
118(11) . . .
102(10) . . .
115(11) . . .
106(10) . . .
125(11) . . .
102(10) . . .
117(11) . . .
115(11) . . .
103(10) . . .
107(10) . . .
82(9) . . .
121(11) . . .
97(10) . . .
118(11) . . .
95(10) . . .
110(10) . . .
107(10) . . .
104(10) . . .
103(10) . . .
109(10) . . .
99(10) . . .
105(10) . . .
109(10) . . .
108(10) . . .
105(10) . . .
113(11) . . .
113(11) . . .
113(11) . . .
96(10) . . .
99(10) . . .
109(10) . . .
112(11) . . .
113(11) . . .
105(10) . . .
102(10) . . .
99(10) . . .
101(10) . . .
110(10) . . .
109(10) . . .
92(10) . . .
103(10) . . .
100(10) . . .
100(10) . . .
106(10) . . .
105(10) . . .
107(10) . . .
110(10) . . .
103(10) . . .
115(11) . . .
121(11) . . .
94(10) . . .
107(10) . . .
109(10) . . .
106(10) . . .
106(10) . . .
95(10) . . .
95(10) . . .
121(11) . . .
81(9) . . .
109(10) . . .
105(10) . . .
123(11) . . .
99(10) . . .
114(11) . . .
95(10) . . .
123(11) . . .
129(11) . . .
106(10) . . .
114(11) . . .
102(10) . . .
111(11) . . .
105(10) . . .
107(10) . . .
112(11) . . .
108(10) . . .
103(10) . . .
115(11) . . .
115(11) . . .
103(10) . . .
115(11) . . .
124(11) . . .
103(10) . . .
116(11) . . .
121(11) . . .
105(10) . . .
98(10) . . .
115(11) . . .
101(10) . . .
110(10) . . .
101(10) . . .
107(10) . . .
100(10) . . .
119(11) . . .
91(10) . . .
96(10) . . .
101(10) . . .
123(11) . . .
107(10) . . .
110(10) . . .
96(10) . . .
106(10) . . .
117(11) . . .
101(10) . . .
105(10) . . .
124(11) . . .
102(10) . . .
91(10) . . .
100(10) . . .
97(10) . . .
95(10) . . .
116(11) . . .
99(10) . . .
110(10) . . .
108(10) . . .
118(11) . . .
105(10) . . .
97(10) . . .
97(10) . . .
116(11) . . .
90(9) . . .
108(10) . . .
98(10) . . .
96(10) . . .
104(10) . . .
116(11) . . .
101(10) . . .
101(10) . . .
113(11) . . .
97(10) . . .
103(10) . . .
109(10) . . .
111(11) . . .
104(10) . . .
107(10) . . .
98(10) . . .
101(10) . . .
100(10) . . .
116(11) . . .
112(11) . . .
112(11) . . .
117(11) . . .
120(11) . . .
109(10) . . .
109(10) . . .
101(10) . . .
120(11) . . .
118(11) . . .
125(11) . . .
117(11) . . .
103(10) . . .
103(10) . . .
120(11) . . .
99(10) . . .
118(11) . . .
113(11) . . .
99(10) . . .
99(10) . . .
105(10) . . .
114(11) . . .
119(11) . . .
113(11) . . .
123(11) . . .
123(11) . . .
114(11) . . .
99(10) . . .
104(10) . . .
98(10) . . .
100(10) . . .
110(10) . . .
121(11) . . .
113(11) . . .
105(10) . . .
118(11) . . .
98(10) . . .
112(11) . . .
121(11) . . .
107(10) . . .
103(10) . . .
111(11) . . .
121(11) . . .
109(10) . . .
110(10) . . .
104(10) . . .
107(10) . . .
110(10) . . .
103(10) . . .
105(10) . . .
117(11) . . .
98(10) . . .
107(10) . . .
110(10) . . .
108(10) . . .
117(11) . . .
106(10) . . .
97(10) . . .
132(11) . . .
104(10) . . .
111(11) . . .
112(11) . . .
111(11) . . .
109(10) . . .
127(11) . . .
112(11) . . .
108(10) . . .
110(10) . . .
101(10) . . .
103(10) . . .
100(10) . . .
113(11) . . .
110(10) . . .
112(11) . . .
111(11) . . .
122(11) . . .
121(11) . . .
123(11) . . .
126(11) . . .
115(11) . . .
122(11) . . .
113(11) . . .
91(10) . . .
116(11) . . .
117(11) . . .
113(11) . . .
122(11) . . .
118(11) . . .
120(11) . . .
124(11) . . .
115(11) . . .
98(10) . . .
112(11) . . .
114(11) . . .
104(10) . . .
104(10) . . .
99(10) . . .
108(10) . . .
104(10) . . .
114(11) . . .
107(10) . . .
110(10) . . .
110(10) . . .
98(10) . . .
120(11) . . .
108(10) . . .
113(11) . . .
99(10) . . .
108(10) . . .
119(11) . . .
110(10) . . .
95(10) . . .
105(10) . . .
110(10) . . .
102(10) . . .
97(10) . . .
107(10) . . .
111(11) . . .
98(10) . . .
119(11) . . .
112(11) . . .
111(11) . . .
96(10) . . .
101(10) . . .
96(10) . . .
123(11) . . .
110(10) . . .
113(11) . . .
112(11) . . .
110(10) . . .
99(10) . . .
103(10) . . .
110(10) . . .
125(11) . . .
100(10) . . .
98(10) . . .
112(11) . . .
110(10) . . .
113(11) . . .
117(11) . . .
92(10) . . .
104(10) . . .
121(11) . . .
110(10) . . .
103(10) . . .
95(10) . . .
111(11) . . .
104(10) . . .
117(11) . . .
119(11) . . .
100(10) . . .
98(10) . . .
115(11) . . .
102(10) . . .
105(10) . . .
107(10) . . .
92(10) . . .
93(10) . . .
103(10) . . .
98(10) . . .
119(11) . . .
97(10) . . .
103(10) . . .
98(10) . . .
115(11) . . .
130(11) . . .
105(10) . . .
102(10) . . .
104(10) . . .
104(10) . . .
127(11) . . .
103(10) . . .
119(11) . . .
122(11) . . .
121(11) . . .
104(10) . . .
120(11) . . .
105(10) . . .
96(10) . . .
107(10) . . .
122(11) . . .
115(11) . . .
109(10) . . .
115(11) . . .
100(10) . . .
112(11) . . .
111(11) . . .
112(11) . . .
109(10) . . .
112(11) . . .
122(11) . . .
93(10) . . .
102(10) . . .
111(11) . . .
114(11) . . .
115(11) . . .
114(11) . . .
118(11) . . .
112(11) . . .
106(10) . . .
113(11) . . .
93(10) . . .
97(10) . . .
111(11) . . .
108(10) . . .
115(11) . . .
93(10) . . .
113(11) . . .
111(11) . . .
104(10) . . .
120(11) . . .
118(11) . . .
113(11) . . .
105(10) . . .
104(10) . . .
120(11) . . .
112(11) . . .
102(10) . . .
113(11) . . .
128(11) . . .
130(11) . . .
98(10) . . .
122(11) . . .
109(10) . . .
108(10) . . .
116(11) . . .
106(10) . . .
95(10) . . .
126(11) . . .
108(10) . . .
105(10) . . .
121(11) . . .
113(11) . . .
103(10) . . .
118(11) . . .
114(11) . . .
128(11) . . .
122(11) . . .
108(10) . . .
107(10) . . .
122(11) . . .
123(11) . . .
101(10) . . .
128(11) . . .
105(10) . . .
104(10) . . .
111(11) . . .
122(11) . . .
109(10) . . .
118(11) . . .
117(11) . . .
96(10) . . .
120(11) . . .
107(10) . . .
121(11) . . .
113(11) . . .
113(11) . . .
114(11) . . .
105(10) . . .
104(10) . . .
109(10) . . .
104(10) . . .
106(10) . . .
108(10) . . .
120(11) . . .
113(11) . . .
119(11) . . .
113(11) . . .
129(11) . . .
112(11) . . .
100(10) . . .
118(11) . . .
113(11) . . .
117(11) . . .
128(11) . . .
108(10) . . .
111(11) . . .
114(11) . . .
113(11) . . .
110(10) . . .
111(11) . . .
94(10) . . .
96(10) . . .
111(11) . . .
122(11) . . .
111(11) . . .
112(11) . . .
134(12) . . .
113(11) . . .
103(10) . . .
118(11) . . .
121(11) . . .
104(10) . . .
103(10) . . .
121(11) . . .
109(10) . . .
119(11) . . .
99(10) . . .
97(10) . . .
122(11) . . .
125(11) . . .
114(11) . . .
128(11) . . .
119(11) . . .
112(11) . . .
115(11) . . .
102(10) . . .
132(11) . . .
123(11) . . .
103(10) . . .
119(11) . . .
114(11) . . .
122(11) . . .
118(11) . . .
120(11) . . .
122(11) . . .
131(11) . . .
125(11) . . .
124(11) . . .
103(10) . . .
110(10) . . .
127(11) . . .
125(11) . . .
129(11) . . .
115(11) . . .
113(11) . . .
128(11) . . .
116(11) . . .
139(12) . . .
135(12) . . .
144(12) . . .
139(12) . . .
136(12) . . .
107(10) . . .
137(12) . . .
111(11) . . .
110(10) . . .
128(11) . . .
118(11) . . .
124(11) . . .
121(11) . . .
111(11) . . .
130(11) . . .
120(11) . . .
129(11) . . .
117(11) . . .
122(11) . . .
136(12) . . .
134(12) . . .
148(12) . . .
118(11) . . .
136(12) . . .
135(12) . . .
119(11) . . .
134(12) . . .
151(12) . . .
133(12) . . .
127(11) . . .
142(12) . . .
131(11) . . .
125(11) . . .
132(11) . . .
132(11) . . .
138(12) . . .
176(13) . . .
150(12) . . .
140(12) . . .
141(12) . . .
153(12) . . .
149(12) . . .
145(12) . . .
174(13) . . .
142(12) . . .
150(12) . . .
168(13) . . .
166(13) . . .
165(13) . . .
159(13) . . .
175(13) . . .
143(12) . . .
173(13) . . .
164(13) . . .
166(13) . . .
174(13) . . .
173(13) . . .
174(13) . . .
171(13) . . .
194(14) . . .
198(14) . . .
188(14) . . .
184(14) . . .
188(14) . . .
209(14) . . .
187(14) . . .
204(14) . . .
177(13) . . .
230(15) . . .
219(15) . . .
230(15) . . .
218(15) . . .
255(16) . . .
242(16) . . .
262(16) . . .
268(16) . . .
277(17) . . .
285(17) . . .
284(17) . . .
305(17) . . .
319(18) . . .
303(17) . . .
313(18) . . .
366(19) . . .
351(19) . . .
374(19) . . .
417(20) . . .
399(20) . . .
403(20) . . .
419(20) . . .
445(21) . . .
442(21) . . .
510(23) . . .
507(23) . . .
490(22) . . .
503(22) . . .
507(23) . . .
550(23) . . .
550(23) . . .
590(24) . . .
560(24) . . .
546(23) . . .
576(24) . . .
587(24) . . .
558(24) . . .
618(25) . . .
594(24) . . .
561(24) . . .
510(23) . . .
518(23) . . .
542(23) . . .
528(23) . . .
506(22) . . .
475(22) . . .
450(21) . . .
418(20) . . .
439(21) . . .
414(20) . . .
395(20) . . .
380(19) . . .
390(20) . . .
385(20) . . .
331(18) . . .
373(19) . . .
347(19) . . .
323(18) . . .
318(18) . . .
270(16) . . .
272(16) . . .
278(17) . . .
254(16) . . .
238(15) . . .
256(16) . . .
226(15) . . .
230(15) . . .
222(15) . . .
218(15) . . .
221(15) . . .
209(14) . . .
192(14) . . .
192(14) . . .
178(13) . . .
188(14) . . .
161(13) . . .
180(13) . . .
162(13) . . .
180(13) . . .
166(13) . . .
189(14) . . .
168(13) . . .
179(13) . . .
168(13) . . .
163(13) . . .
146(12) . . .
172(13) . . .
163(13) . . .
173(13) . . .
163(13) . . .
126(11) . . .
165(13) . . .
166(13) . . .
139(12) . . .
130(11) . . .
146(12) . . .
172(13) . . .
151(12) . . .
151(12) . . .
137(12) . . .
140(12) . . .
136(12) . . .
122(11) . . .
132(11) . . .
139(12) . . .
134(12) . . .
145(12) . . .
133(12) . . .
134(12) . . .
136(12) . . .
128(11) . . .
146(12) . . .
132(11) . . .
119(11) . . .
147(12) . . .
141(12) . . .
127(11) . . .
131(11) . . .
135(12) . . .
140(12) . . .
132(11) . . .
118(11) . . .
125(11) . . .
136(12) . . .
123(11) . . .
122(11) . . .
123(11) . . .
108(10) . . .
115(11) . . .
128(11) . . .
126(11) . . .
117(11) . . .
130(11) . . .
120(11) . . .
101(10) . . .
121(11) . . .
127(11) . . .
118(11) . . .
145(12) . . .
128(11) . . .
152(12) . . .
118(11) . . .
110(10) . . .
107(10) . . .
116(11) . . .
115(11) . . .
134(12) . . .
117(11) . . .
110(10) . . .
124(11) . . .
95(10) . . .
120(11) . . .
110(10) . . .
124(11) . . .
106(10) . . .
105(10) . . .
103(10) . . .
123(11) . . .
133(12) . . .
109(10) . . .
123(11) . . .
126(11) . . .
108(10) . . .
128(11) . . .
114(11) . . .
120(11) . . .
97(10) . . .
129(11) . . .
118(11) . . .
137(12) . . .
133(12) . . .
127(11) . . .
107(10) . . .
110(10) . . .
109(10) . . .
130(11) . . .
121(11) . . .
111(11) . . .
118(11) . . .
121(11) . . .
111(11) . . .
111(11) . . .
125(11) . . .
115(11) . . .
118(11) . . .
131(11) . . .
112(11) . . .
123(11) . . .
116(11) . . .
113(11) . . .
108(10) . . .
111(11) . . .
118(11) . . .
109(10) . . .
124(11) . . .
121(11) . . .
118(11) . . .
128(11) . . .
119(11) . . .
124(11) . . .
113(11) . . .
116(11) . . .
113(11) . . .
124(11) . . .
120(11) . . .
103(10) . . .
114(11) . . .
109(10) . . .
94(10) . . .
112(11) . . .
112(11) . . .
135(12) . . .
111(11) . . .
120(11) . . .
120(11) . . .
112(11) . . .
117(11) . . .
112(11) . . .
113(11) . . .
126(11) . . .
122(11) . . .
115(11) . . .
127(11) . . .
116(11) . . .
123(11) . . .
110(10) . . .
112(11) . . .
107(10) . . .
124(11) . . .
129(11) . . .
103(10) . . .
129(11) . . .
101(10) . . .
124(11) . . .
114(11) . . .
121(11) . . .
110(10) . . .
122(11) . . .
111(11) . . .
106(10) . . .
119(11) . . .
100(10) . . .
106(10) . . .
109(10) . . .
121(11) . . .
128(11) . . .
106(10) . . .
115(11) . . .
102(10) . . .
109(10) . . .
112(11) . . .
108(10) . . .
110(10) . . .
118(11) . . .
91(10) . . .
98(10) . . .
117(11) . . .
120(11) . . .
108(10) . . .
116(11) . . .
109(10) . . .
121(11) . . .
112(11) . . .
115(11) . . .
116(11) . . .
129(11) . . .
114(11) . . .
111(11) . . .
118(11) . . .
114(11) . . .
122(11) . . .
102(10) . . .
98(10) . . .
109(10) . . .
108(10) . . .
119(11) . . .
119(11) . . .
111(11) . . .
98(10) . . .
115(11) . . .
116(11) . . .
116(11) . . .
127(11) . . .
100(10) . . .
118(11) . . .
110(10) . . .
118(11) . . .
117(11) . . .
113(11) . . .
121(11) . . .
132(11) . . .
118(11) . . .
121(11) . . .
116(11) . . .
117(11) . . .
109(10) . . .
126(11) . . .
138(12) . . .
123(11) . . .
116(11) . . .
121(11) . . .
112(11) . . .
104(10) . . .
120(11) . . .
129(11) . . .
145(12) . . .
115(11) . . .
125(11) . . .
117(11) . . .
118(11) . . .
116(11) . . .
115(11) . . .
108(10) . . .
111(11) . . .
107(10) . . .
123(11) . . .
131(11) . . .
103(10) . . .
105(10) . . .
120(11) . . .
93(10) . . .
115(11) . . .
119(11) . . .
126(11) . . .
131(11) . . .
118(11) . . .
122(11) . . .
109(10) . . .
124(11) . . .
105(10) . . .
116(11) . . .
117(11) . . .
130(11) . . .
121(11) . . .
123(11) . . .
118(11) . . .
107(10) . . .
127(11) . . .
130(11) . . .
117(11) . . .
118(11) . . .
119(11) . . .
122(11) . . .
110(10) . . .
122(11) . . .
141(12) . . .
115(11) . . .
133(12) . . .
138(12) . . .
120(11) . . .
129(11) . . .
128(11) . . .
128(11) . . .
138(12) . . .
135(12) . . .
122(11) . . .
129(11) . . .
131(11) . . .
143(12) . . .
151(12) . . .
135(12) . . .
135(12) . . .
129(11) . . .
157(13) . . .
130(11) . . .
135(12) . . .
148(12) . . .
130(11) . . .
143(12) . . .
164(13) . . .
153(12) . . .
155(12) . . .
156(12) . . .
179(13) . . .
175(13) . . .
165(13) . . .
162(13) . . .
164(13) . . .
179(13) . . .
199(14) . . .
190(14) . . .
197(14) . . .
197(14) . . .
191(14) . . .
175(13) . . .
188(14) . . .
200(14) . . .
196(14) . . .
219(15) . . .
209(14) . . .
231(15) . . .
192(14) . . .
223(15) . . .
230(15) . . .
224(15) . . .
240(15) . . .
260(16) . . .
227(15) . . .
231(15) . . .
249(16) . . .
236(15) . . .
241(16) . . .
232(15) . . .
235(15) . . .
239(15) . . .
216(15) . . .
248(16) . . .
241(16) . . .
228(15) . . .
237(15) . . .
234(15) . . .
230(15) . . .
211(15) . . .
210(14) . . .
207(14) . . .
201(14) . . .
193(14) . . .
196(14) . . .
216(15) . . .
200(14) . . .
188(14) . . .
187(14) . . .
192(14) . . .
202(14) . . .
164(13) . . .
164(13) . . .
139(12) . . .
167(13) . . .
176(13) . . .
146(12) . . .
146(12) . . .
162(13) . . .
135(12) . . .
163(13) . . .
163(13) . . .
138(12) . . .
138(12) . . .
129(11) . . .
130(11) . . .
126(11) . . .
140(12) . . .
139(12) . . .
134(12) . . .
137(12) . . .
120(11) . . .
117(11) . . .
125(11) . . .
131(11) . . .
141(12) . . .
129(11) . . .
116(11) . . .
136(12) . . .
120(11) . . .
103(10) . . .
124(11) . . .
112(11) . . .
130(11) . . .
109(10) . . .
101(10) . . .
120(11) . . .
117(11) . . .
114(11) . . .
140(12) . . .
135(12) . . .
121(11) . . .
118(11) . . .
120(11) . . .
136(12) . . .
118(11) . . .
129(11) . . .
122(11) . . .
97(10) . . .
111(11) . . .
118(11) . . .
98(10) . . .
120(11) . . .
123(11) . . .
117(11) . . .
107(10) . . .
118(11) . . .
106(10) . . .
119(11) . . .
128(11) . . .
121(11) . . .
102(10) . . .
116(11) . . .
114(11) . . .
105(10) . . .
119(11) . . .
116(11) . . .
96(10) . . .
102(10) . . .
111(11) . . .
116(11) . . .
102(10) . . .
115(11) . . .
110(10) . . .
129(11) . . .
123(11) . . .
110(10) . . .
107(10) . . .
112(11) . . .
107(10) . . .
105(10) . . .
112(11) . . .
100(10) . . .
110(10) . . .
120(11) . . .
118(11) . . .
103(10) . . .
101(10) . . .
102(10) . . .
104(10) . . .
110(10) . . .
101(10) . . .
120(11) . . .
130(11) . . .
112(11) . . .
104(10) . . .
118(11) . . .
105(10) . . .
120(11) . . .
105(10) . . .
101(10) . . .
104(10) . . .
114(11) . . .
124(11) . . .
122(11) . . .
117(11) . . .
104(10) . . .
123(11) . . .
122(11) . . .
107(10) . . .
132(11) . . .
96(10) . . .
111(11) . . .
94(10) . . .
100(10) . . .
129(11) . . .
110(10) . . .
106(10) . . .
95(10) . . .
119(11) . . .
112(11) . . .
113(11) . . .
109(10) . . .
102(10) . . .
123(11) . . .
103(10) . . .
106(10) . . .
104(10) . . .
110(10) . . .
119(11) . . .
97(10) . . .
103(10) . . .
108(10) . . .
118(11) . . .
107(10) . . .
93(10) . . .
100(10) . . .
90(9) . . .
93(10) . . .
102(10) . . .
100(10) . . .
99(10) . . .
127(11) . . .
109(10) . . .
100(10) . . .
94(10) . . .
110(10) . . .
107(10) . . .
108(10) . . .
105(10) . . .
96(10) . . .
107(10) . . .
94(10) . . .
98(10) . . .
110(10) . . .
120(11) . . .
103(10) . . .
92(10) . . .
107(10) . . .
99(10) . . .
103(10) . . .
96(10) . . .
96(10) . . .
117(11) . . .
112(11) . . .
100(10) . . .
114(11) . . .
114(11) . . .
111(11) . . .
117(11) . . .
95(10) . . .
113(11) . . .
137(12) . . .
116(11) . . .
111(11) . . .
116(11) . . .
110(10) . . .
101(10) . . .
98(10) . . .
108(10) . . .
105(10) . . .
89(9) . . .
113(11) . . .
97(10) . . .
96(10) . . .
90(9) . . .
98(10) . . .
96(10) . . .
106(10) . . .
112(11) . . .
119(11) . . .
112(11) . . .
96(10) . . .
95(10) . . .
114(11) . . .
98(10) . . .
100(10) . . .
119(11) . . .
98(10) . . .
98(10) . . .
102(10) . . .
102(10) . . .
112(11) . . .
94(10) . . .
111(11) . . .
119(11) . . .
109(10) . . .
113(11) . . .
104(10) . . .
109(10) . . .
116(11) . . .
114(11) . . .
108(10) . . .
101(10) . . .
107(10) . . .
105(10) . . .
86(9) . . .
108(10) . . .
111(11) . . .
92(10) . . .
121(11) . . .
103(10) . . .
89(9) . . .
101(10) . . .
106(10) . . .
108(10) . . .
108(10) . . .
87(9) . . .
108(10) . . .
105(10) . . .
97(10) . . .
103(10) . . .
96(10) . . .
114(11) . . .
105(10) . . .
93(10) . . .
100(10) . . .
122(11) . . .
95(10) . . .
106(10) . . .
122(11) . . .
122(11) . . .
88(9) . . .
106(10) . . .
95(10) . . .
99(10) . . .
118(11) . . .
120(11) . . .
110(10) . . .
99(10) . . .
119(11) . . .
122(11) . . .
106(10) . . .
130(11) . . .
105(10) . . .
100(10) . . .
116(11) . . .
112(11) . . .
102(10) . . .
102(10) . . .
110(10) . . .
99(10) . . .
116(11) . . .
128(11) . . .
106(10) . . .
107(10) . . .
110(10) . . .
112(11) . . .
96(10) . . .
117(11) . . .
98(10) . . .
110(10) . . .
91(10) . . .
93(10) . . .
96(10) . . .
98(10) . . .
99(10) . . .
117(11) . . .
104(10) . . .
104(10) . . .
107(10) . . .
90(9) . . .
118(11) . . .
110(10) . . .
106(10) . . .
98(10) . . .
107(10) . . .
100(10) . . .
116(11) . . .
114(11) . . .
105(10) . . .
93(10) . . .
97(10) . . .
92(10) . . .
102(10) . . .
103(10) . . .
112(11) . . .
110(10) . . .
87(9) . . .
111(11) . . .
101(10) . . .
104(10) . . .
96(10) . . .
109(10) . . .
96(10) . . .
105(10) . . .
97(10) . . .
113(11) . . .
113(11) . . .
106(10) . . .
104(10) . . .
112(11) . . .
96(10) . . .
98(10) . . .
100(10) . . .
113(11) . . .
103(10) . . .
96(10) . . .
104(10) . . .
101(10) . . .
99(10) . . .
96(10) . . .
104(10) . . .
97(10) . . .
98(10) . . .
113(11) . . .
101(10) . . .
106(10) . . .
94(10) . . .
121(11) . . .
116(11) . . .
98(10) . . .
99(10) . . .
91(10) . . .
116(11) . . .
108(10) . . .
100(10) . . .
103(10) . . .
127(11) . . .
122(11) . . .
111(11) . . .
102(10) . . .
120(11) . . .
113(11) . . .
115(11) . . .
106(10) . . .
106(10) . . .
114(11) . . .
112(11) . . .
93(10) . . .
94(10) . . .
105(10) . . .
113(11) . . .
108(10) . . .
101(10) . . .
98(10) . . .
89(9) . . .
100(10) . . .
99(10) . . .
98(10) . . .
100(10) . . .
105(10) . . .
98(10) . . .
99(10) . . .
98(10) . . .
101(10) . . .
114(11) . . .
108(10) . . .
112(11) . . .
92(10) . . .
112(11) . . .
86(9) . . .
92(10) . . .
119(11) . . .
96(10) . . .
110(10) . . .
107(10) . . .
94(10) . . .
114(11) . . .
109(10) . . .
101(10) . . .
107(10) . . .
114(11) . . .
115(11) . . .
116(11) . . .
114(11) . . .
117(11) . . .
99(10) . . .
116(11) . . .
91(10) . . .
89(9) . . .
94(10) . . .
78(9) . . .
106(10) . . .
107(10) . . .
107(10) . . .
111(11) . . .
103(10) . . .
99(10) . . .
85(9) . . .
91(10) . . .
100(10) . . .
106(10) . . .
121(11) . . .
102(10) . . .
100(10) . . .
116(11) . . .
112(11) . . .
108(10) . . .
117(11) . . .
107(10) . . .
91(10) . . .
96(10) . . .
103(10) . . .
109(10) . . .
95(10) . . .
108(10) . . .
116(11) . . .
111(11) . . .
108(10) . . .
104(10) . . .
103(10) . . .
95(10) . . .
103(10) . . .
84(9) . . .
109(10) . . .
115(11) . . .
101(10) . . .
99(10) . . .
95(10) . . .
120(11) . . .
106(10) . . .
114(11) . . .
93(10) . . .
103(10) . . .
101(10) . . .
113(11) . . .
102(10) . . .
94(10) . . .
83(9) . . .
101(10) . . .
96(10) . . .
104(10) . . .
101(10) . . .
95(10) . . .
106(10) . . .
102(10) . . .
78(9) . . .
110(10) . . .
97(10) . . .
99(10) . . .
112(11) . . .
100(10) . . .
89(9) . . .
97(10) . . .
91(10) . . .
110(10) . . .
110(10) . . .
109(10) . . .
104(10) . . .
90(9) . . .
97(10) . . .
105(10) . . .
100(10) . . .
99(10) . . .
98(10) . . .
92(10) . . .
109(10) . . .
109(10) . . .
100(10) . . .
82(9) . . .
97(10) . . .
103(10) . . .
97(10) . . .
95(10) . . .
100(10) . . .
102(10) . . .
103(10) . . .
120(11) . . .
109(10) . . .
113(11) . . .
117(11) . . .
106(10) . . .
105(10) . . .
109(10) . . .
82(9) . . .
91(10) . . .
88(9) . . .
108(10) . . .
104(10) . . .
109(10) . . .
107(10) . . .
100(10) . . .
105(10) . . .
89(9) . . .
101(10) . . .
94(10) . . .
88(9) . . .
99(10) . . .
103(10) . . .
114(11) . . .
115(11) . . .
90(9) . . .
115(11) . . .
113(11) . . .
116(11) . . .
99(10) . . .
105(10) . . .
92(10) . . .
107(10) . . .
99(10) . . .
109(10) . . .
105(10) . . .
118(11) . . .
120(11) . . .
88(9) . . .
87(9) . . .
100(10) . . .
112(11) . . .
109(10) . . .
90(9) . . .
96(10) . . .
94(10) . . .
98(10) . . .
105(10) . . .
96(10) . . .
115(11) . . .
84(9) . . .
98(10) . . .
108(10) . . .
99(10) . . .
95(10) . . .
104(10) . . .
97(10) . . .
109(10) . . .
91(10) . . .
94(10) . . .
97(10) . . .
111(11) . . .
100(10) . . .
113(11) . . .
104(10) . . .
110(10) . . .
93(10) . . .
90(9) . . .
107(10) . . .
101(10) . . .
119(11) . . .
103(10) . . .
105(10) . . .
111(11) . . .
99(10) . . .
115(11) . . .
97(10) . . .
92(10) . . .
103(10) . . .
99(10) . . .
100(10) . . .
82(9) . . .
103(10) . . .
106(10) . . .
99(10) . . .
86(9) . . .
97(10) . . .
103(10) . . .
105(10) . . .
97(10) . . .
104(10) . . .
98(10) . . .
89(9) . . .
99(10) . . .
90(9) . . .
104(10) . . .
109(10) . . .
88(9) . . .
100(10) . . .
93(10) . . .
110(10) . . .
98(10) . . .
108(10) . . .
117(11) . . .
91(10) . . .
102(10) . . .
113(11) . . .
95(10) . . .
92(10) . . .
93(10) . . .
104(10) . . .
97(10) . . .
118(11) . . .
98(10) . . .
108(10) . . .
101(10) . . .
105(10) . . .
97(10) . . .
102(10) . . .
123(11) . . .
92(10) . . .
92(10) . . .
93(10) . . .
104(10) . . .
112(11) . . .
104(10) . . .
85(9) . . .
83(9) . . .
98(10) . . .
96(10) . . .
107(10) . . .
113(11) . . .
108(10) . . .
105(10) . . .
96(10) . . .
115(11) . . .
106(10) . . .
111(11) . . .
93(10) . . .
107(10) . . .
112(11) . . .
91(10) . . .
107(10) . . .
96(10) . . .
89(9) . . .
108(10) . . .
84(9) . . .
88(9) . . .
88(9) . . .
107(10) . . .
96(10) . . .
95(10) . . .
92(10) . . .
96(10) . . .
113(11) . . .
109(10) . . .
108(10) . . .
100(10) . . .
109(10) . . .
104(10) . . .
95(10) . . .
103(10) . . .
112(11) . . .
115(11) . . .
104(10) . . .
99(10) . . .
86(9) . . .
108(10) . . .
108(10) . . .
116(11) . . .
103(10) . . .
117(11) . . .
102(10) . . .
119(11) . . .
106(10) . . .
109(10) . . .
100(10) . . .
90(9) . . .
110(10) . . .
98(10) . . .
101(10) . . .
113(11) . . .
93(10) . . .
105(10) . . .
114(11) . . .
92(10) . . .
110(10) . . .
91(10) . . .
88(9) . . .
85(9) . . .
100(10) . . .
116(11) . . .
93(10) . . .
93(10) . . .
95(10) . . .
101(10) . . .
125(11) . . .
88(9) . . .
94(10) . . .
108(10) . . .
98(10) . . .
107(10) . . .
104(10) . . .
110(10) . . .
104(10) . . .
92(10) . . .
98(10) . . .
104(10) . . .
131(11) . . .
105(10) . . .
108(10) . . .
113(11) . . .
108(10) . . .
98(10) . . .
114(11) . . .
94(10) . . .
103(10) . . .
103(10) . . .
89(9) . . .
109(10) . . .
98(10) . . .
96(10) . . .
89(9) . . .
102(10) . . .
98(10) . . .
100(10) . . .
95(10) . . .
98(10) . . .
99(10) . . .
82(9) . . .
97(10) . . .
77(9) . . .
107(10) . . .
101(10) . . .
104(10) . . .
110(10) . . .
97(10) . . .
117(11) . . .
112(11) . . .
93(10) . . .
114(11) . . .
109(10) . . .
118(11) . . .
102(10) . . .
103(10) . . .
103(10) . . .
87(9) . . .
101(10) . . .
94(10) . . .
106(10) . . .
105(10) . . .
99(10) . . .
91(10) . . .
113(11) . . .
90(9) . . .
97(10) . . .
90(9) . . .
107(10) . . .
106(10) . . .
105(10) . . .
122(11) . . .
102(10) . . .
107(10) . . .
100(10) . . .
111(11) . . .
105(10) . . .
113(11) . . .
105(10) . . .
94(10) . . .
113(11) . . .
105(10) . . .
99(10) . . .
112(11) . . .
91(10) . . .
93(10) . . .
100(10) . . .
88(9) . . .
101(10) . . .
106(10) . . .
109(10) . . .
104(10) . . .
104(10) . . .
115(11) . . .
119(11) . . .
104(10) . . .
105(10) . . .
101(10) . . .
116(11) . . .
97(10) . . .
105(10) . . .
115(11) . . .
92(10) . . .
76(9) . . .
91(10) . . .
106(10) . . .
94(10) . . .
114(11) . . .
94(10) . . .
82(9) . . .
109(10) . . .
112(11) . . .
112(11) . . .
102(10) . . .
100(10) . . .
103(10) . . .
104(10) . . .
94(10) . . .
102(10) . . .
99(10) . . .
104(10) . . .
99(10) . . .
113(11) . . .
102(10) . . .
105(10) . . .
106(10) . . .
92(10) . . .
102(10) . . .
106(10) . . .
105(10) . . .
111(11) . . .
91(10) . . .
101(10) . . .
87(9) . . .
107(10) . . .
107(10) . . .
91(10) . . .
98(10) . . .
100(10) . . .
110(10) . . .
105(10) . . .
90(9) . . .
95(10) . . .
95(10) . . .
94(10) . . .
102(10) . . .
99(10) . . .
108(10) . . .
98(10) . . .
94(10) . . .
107(10) . . .
111(11) . . .
93(10) . . .
89(9) . . .
99(10) . . .
104(10) . . .
113(11) . . .
113(11) . . .
115(11) . . .
110(10) . . .
113(11) . . .
83(9) . . .
87(9) . . .
100(10) . . .
111(11) . . .
100(10) . . .
89(9) . . .
83(9) . . .
96(10) . . .
139(12) . . .
126(11) . . .
96(10) . . .
88(9) . . .
92(10) . . .
90(9) . . .
101(10) . . .
101(10) . . .
108(10) . . .
100(10) . . .
88(9) . . .
104(10) . . .
101(10) . . .
95(10) . . .
97(10) . . .
92(10) . . .
100(10) . . .
98(10) . . .
109(10) . . .
93(10) . . .
90(9) . . .
114(11) . . .
109(10) . . .
88(9) . . .
100(10) . . .
118(11) . . .
90(9) . . .
103(10) . . .
116(11) . . .
101(10) . . .
102(10) . . .
92(10) . . .
115(11) . . .
92(10) . . .
86(9) . . .
93(10) . . .
106(10) . . .
104(10) . . .
94(10) . . .
125(11) . . .
108(10) . . .
107(10) . . .
87(9) . . .
96(10) . . .
111(11) . . .
106(10) . . .
111(11) . . .
94(10) . . .
103(10) . . .
92(10) . . .
101(10) . . .
125(11) . . .
104(10) . . .
109(10) . . .
106(10) . . .
117(11) . . .
121(11) . . .
107(10) . . .
99(10) . . .
107(10) . . .
105(10) . . .
105(10) . . .
99(10) . . .
117(11) . . .
97(10) . . .
106(10) . . .
107(10) . . .
108(10) . . .
93(10) . . .
117(11) . . .
96(10) . . .
106(10) . . .
97(10) . . .
101(10) . . .
108(10) . . .
90(9) . . .
89(9) . . .
89(9) . . .
113(11) . . .
100(10) . . .
110(10) . . .
101(10) . . .
107(10) . . .
104(10) . . .
110(10) . . .
95(10) . . .
100(10) . . .
108(10) . . .
107(10) . . .
101(10) . . .
105(10) . . .
96(10) . . .
102(10) . . .
114(11) . . .
88(9) . . .
99(10) . . .
102(10) . . .
94(10) . . .
112(11) . . .
109(10) . . .
106(10) . . .
96(10) . . .
105(10) . . .
97(10) . . .
107(10) . . .
97(10) . . .
99(10) . . .
116(11) . . .
105(10) . . .
99(10) . . .
104(10) . . .
96(10) . . .
114(11) . . .
91(10) . . .
100(10) . . .
99(10) . . .
100(10) . . .
96(10) . . .
104(10) . . .
115(11) . . .
126(11) . . .
88(9) . . .
104(10) . . .
100(10) . . .
103(10) . . .
99(10) . . .
89(9) . . .
106(10) . . .
77(9) . . .
113(11) . . .
100(10) . . .
82(9) . . .
95(10) . . .
94(10) . . .
106(10) . . .
91(10) . . .
101(10) . . .
95(10) . . .
106(10) . . .
109(10) . . .
101(10) . . .
112(11) . . .
101(10) . . .
91(10) . . .
92(10) . . .
129(11) . . .
105(10) . . .
115(11) . . .
94(10) . . .
94(10) . . .
105(10) . . .
105(10) . . .
107(10) . . .
102(10) . . .
89(9) . . .
104(10) . . .
102(10) . . .
101(10) . . .
99(10) . . .
115(11) . . .
102(10) . . .
101(10) . . .
81(9) . . .
107(10) . . .
98(10) . . .
90(9) . . .
94(10) . . .
100(10) . . .
96(10) . . .
107(10) . . .
96(10) . . .
107(10) . . .
112(11) . . .
113(11) . . .
92(10) . . .
94(10) . . .
95(10) . . .
113(11) . . .
102(10) . . .
98(10) . . .
94(10) . . .
103(10) . . .
98(10) . . .
84(9) . . .
102(10) . . .
89(9) . . .
86(9) . . .
101(10) . . .
91(10) . . .
98(10) . . .
121(11) . . .
87(9) . . .
111(11) . . .
102(10) . . .
94(10) . . .
102(10) . . .
107(10) . . .
116(11) . . .
91(10) . . .
96(10) . . .
110(10) . . .
112(11) . . .
99(10) . . .
95(10) . . .
104(10) . . .
102(10) . . .
130(11) . . .
93(10) . . .
91(10) . . .
84(9) . . .
106(10) . . .
112(11) . . .
102(10) . . .
98(10) . . .
109(10) . . .
104(10) . . .
99(10) . . .
98(10) . . .
107(10) . . .
92(10) . . .
97(10) . . .
90(9) . . .
119(11) . . .
104(10) . . .
102(10) . . .
106(10) . . .
116(11) . . .
112(11) . . .
96(10) . . .
98(10) . . .
106(10) . . .
88(9) . . .
93(10) . . .
97(10) . . .
119(11) . . .
97(10) . . .
110(10) . . .
97(10) . . .
113(11) . . .
90(9) . . .
82(9) . . .
100(10) . . .
123(11) . . .
85(9) . . .
97(10) . . .
87(9) . . .
111(11) . . .
83(9) . . .
103(10) . . .
100(10) . . .
111(11) . . .
116(11) . . .
105(10) . . .
93(10) . . .
101(10) . . .
94(10) . . .
98(10) . . .
97(10) . . .
106(10) . . .
101(10) . . .
100(10) . . .
87(9) . . .
105(10) . . .
89(9) . . .
96(10) . . .
107(10) . . .
97(10) . . .
91(10) . . .
88(9) . . .
111(11) . . .
92(10) . . .
104(10) . . .
90(9) . . .
103(10) . . .
97(10) . . .
92(10) . . .
102(10) . . .
110(10) . . .
103(10) . . .
121(11) . . .
99(10) . . .
100(10) . . .
93(10) . . .
109(10) . . .
110(10) . . .
97(10) . . .
97(10) . . .
99(10) . . .
101(10) . . .
92(10) . . .
109(10) . . .
95(10) . . .
108(10) . . .
110(10) . . .
96(10) . . .
98(10) . . .
94(10) . . .
105(10) . . .
96(10) . . .
89(9) . . .
110(10) . . .
94(10) . . .
90(9) . . .
86(9) . . .
91(10) . . .
102(10) . . .
89(9) . . .
112(11) . . .
97(10) . . .
101(10) . . .
97(10) . . .
100(10) . . .
95(10) . . .
90(9) . . .
111(11) . . .
100(10) . . .
82(9) . . .
116(11) . . .
95(10) . . .
100(10) . . .
111(11) . . .
105(10) . . .
103(10) . . .
91(10) . . .
92(10) . . .
94(10) . . .
114(11) . . .
123(11) . . .
106(10) . . .
93(10) . . .
108(10) . . .
104(10) . . .
97(10) . . .
90(9) . . .
106(10) . . .
89(9) . . .
110(10) . . .
99(10) . . .
95(10) . . .
86(9) . . .
88(9) . . .
109(10) . . .
91(10) . . .
87(9) . . .
104(10) . . .
113(11) . . .
103(10) . . .
103(10) . . .
104(10) . . .
95(10) . . .
91(10) . . .
93(10) . . .
103(10) . . .
98(10) . . .
96(10) . . .
89(9) . . .
88(9) . . .
91(10) . . .
104(10) . . .
123(11) . . .
94(10) . . .
98(10) . . .
94(10) . . .
109(10) . . .
95(10) . . .
109(10) . . .
90(9) . . .
98(10) . . .
104(10) . . .
108(10) . . .
111(11) . . .
103(10) . . .
104(10) . . .
110(10) . . .
93(10) . . .
99(10) . . .
91(10) . . .
96(10) . . .
104(10) . . .
96(10) . . .
97(10) . . .
110(10) . . .
108(10) . . .
89(9) . . .
94(10) . . .
86(9) . . .
107(10) . . .
110(10) . . .
88(9) . . .
98(10) . . .
101(10) . . .
95(10) . . .
101(10) . . .
91(10) . . .
92(10) . . .
83(9) . . .
102(10) . . .
92(10) . . .
109(10) . . .
104(10) . . .
87(9) . . .
100(10) . . .
100(10) . . .
115(11) . . .
114(11) . . .
100(10) . . .
115(11) . . .
105(10) . . .
94(10) . . .
99(10) . . .
88(9) . . .
107(10) . . .
87(9) . . .
98(10) . . .
91(10) . . .
87(9) . . .
94(10) . . .
104(10) . . .
97(10) . . .
97(10) . . .
91(10) . . .
80(9) . . .
99(10) . . .
107(10) . . .
80(9) . . .
108(10) . . .
90(9) . . .
99(10) . . .
85(9) . . .
91(10) . . .
103(10) . . .
99(10) . . .
111(11) . . .
111(11) . . .
100(10) . . .
90(9) . . .
97(10) . . .
92(10) . . .
100(10) . . .
101(10) . . .
101(10) . . .
89(9) . . .
92(10) . . .
97(10) . . .
106(10) . . .
106(10) . . .
95(10) . . .
118(11) . . .
111(11) . . .
101(10) . . .
103(10) . . .
101(10) . . .
115(11) . . .
92(10) . . .
110(10) . . .
108(10) . . .
88(9) . . .
91(10) . . .
109(10) . . .
95(10) . . .
91(10) . . .
104(10) . . .
95(10) . . .
94(10) . . .
107(10) . . .
102(10) . . .
96(10) . . .
79(9) . . .
103(10) . . .
116(11) . . .
100(10) . . .
100(10) . . .
85(9) . . .
100(10) . . .
94(10) . . .
91(10) . . .
91(10) . . .
95(10) . . .
93(10) . . .
102(10) . . .
110(10) . . .
98(10) . . .
100(10) . . .
98(10) . . .
82(9) . . .
101(10) . . .
100(10) . . .
87(9) . . .
84(9) . . .
95(10) . . .
95(10) . . .
114(11) . . .
89(9) . . .
104(10) . . .
98(10) . . .
111(11) . . .
103(10) . . .
101(10) . . .
113(11) . . .
101(10) . . .
105(10) . . .
98(10) . . .
117(11) . . .
105(10) . . .
94(10) . . .
107(10) . . .
93(10) . . .
122(11) . . .
97(10) . . .
88(9) . . .
96(10) . . .
101(10) . . .
92(10) . . .
92(10) . . .
114(11) . . .
112(11) . . .
118(11) . . .
97(10) . . .
99(10) . . .
104(10) . . .
90(9) . . .
115(11) . . .
107(10) . . .
90(9) . . .
108(10) . . .
96(10) . . .
100(10) . . .
103(10) . . .
107(10) . . .
97(10) . . .
96(10) . . .
98(10) . . .
103(10) . . .
96(10) . . .
113(11) . . .
101(10) . . .
97(10) . . .
107(10) . . .
103(10) . . .
98(10) . . .
96(10) . . .
101(10) . . .
105(10) . . .
113(11) . . .
102(10) . . .
117(11) . . .
121(11) . . .
93(10) . . .
107(10) . . .
94(10) . . .
92(10) . . .
112(11) . . .
100(10) . . .
90(9) . . .
91(10) . . .
101(10) . . .
86(9) . . .
84(9) . . .
105(10) . . .
114(11) . . .
114(11) . . .
101(10) . . .
114(11) . . .
109(10) . . .
99(10) . . .
94(10) . . .
109(10) . . .
96(10) . . .
88(9) . . .
109(10) . . .
99(10) . . .
96(10) . . .
102(10) . . .
98(10) . . .
112(11) . . .
107(10) . . .
101(10) . . .
101(10) . . .
112(11) . . .
126(11) . . .
118(11) . . .
104(10) . . .
119(11) . . .
103(10) . . .
115(11) . . .
110(10) . . .
105(10) . . .
114(11) . . .
107(10) . . .
121(11) . . .
94(10) . . .
111(11) . . .
99(10) . . .
99(10) . . .
110(10) . . .
111(11) . . .
101(10) . . .
94(10) . . .
107(10) . . .
117(11) . . .
118(11) . . .
109(10) . . .
106(10) . . .
111(11) . . .
109(10) . . .
115(11) . . .
119(11) . . .
113(11) . . .
122(11) . . .
108(10) . . .
115(11) . . .
111(11) . . .
114(11) . . .
131(11) . . .
105(10) . . .
120(11) . . .
116(11) . . .
113(11) . . .
110(10) . . .
136(12) . . .
118(11) . . .
99(10) . . .
129(11) . . .
116(11) . . .
109(10) . . .
116(11) . . .
107(10) . . .
112(11) . . .
108(10) . . .
118(11) . . .
129(11) . . .
126(11) . . .
133(12) . . .
111(11) . . .
137(12) . . .
121(11) . . .
135(12) . . .
133(12) . . .
121(11) . . .
138(12) . . .
136(12) . . .
119(11) . . .
126(11) . . .
130(11) . . .
142(12) . . .
121(11) . . .
137(12) . . .
151(12) . . .
143(12) . . .
139(12) . . .
153(12) . . .
148(12) . . .
141(12) . . .
150(12) . . .
139(12) . . .
152(12) . . .
147(12) . . .
149(12) . . .
161(13) . . .
162(13) . . .
174(13) . . .
171(13) . . .
178(13) . . .
191(14) . . .
197(14) . . .
181(13) . . .
210(14) . . .
189(14) . . .
212(15) . . .
190(14) . . .
200(14) . . .
201(14) . . .
231(15) . . .
203(14) . . .
208(14) . . .
219(15) . . .
232(15) . . .
234(15) . . .
226(15) . . .
229(15) . . .
228(15) . . .
219(15) . . .
217(15) . . .
210(14) . . .
226(15) . . .
232(15) . . .
199(14) . . .
197(14) . . .
222(15) . . .
205(14) . . .
207(14) . . .
216(15) . . .
200(14) . . .
217(15) . . .
186(14) . . .
180(13) . . .
196(14) . . .
176(13) . . .
174(13) . . .
181(13) . . .
151(12) . . .
181(13) . . .
164(13) . . .
142(12) . . .
160(13) . . .
153(12) . . .
144(12) . . .
150(12) . . .
154(12) . . .
153(12) . . .
141(12) . . .
150(12) . . .
144(12) . . .
138(12) . . .
143(12) . . .
117(11) . . .
131(11) . . .
128(11) . . .
126(11) . . .
123(11) . . .
119(11) . . .
133(12) . . .
112(11) . . .
136(12) . . .
111(11) . . .
111(11) . . .
120(11) . . .
117(11) . . .
130(11) . . .
111(11) . . .
94(10) . . .
123(11) . . .
97(10) . . .
134(12) . . .
103(10) . . .
124(11) . . .
117(11) . . .
121(11) . . .
119(11) . . .
122(11) . . .
105(10) . . .
103(10) . . .
105(10) . . .
103(10) . . .
125(11) . . .
101(10) . . .
91(10) . . .
89(9) . . .
92(10) . . .
107(10) . . .
103(10) . . .
107(10) . . .
100(10) . . .
92(10) . . .
100(10) . . .
110(10) . . .
108(10) . . .
102(10) . . .
99(10) . . .
107(10) . . .
105(10) . . .
116(11) . . .
111(11) . . .
112(11) . . .
100(10) . . .
105(10) . . .
108(10) . . .
109(10) . . .
100(10) . . .
88(9) . . .
106(10) . . .
110(10) . . .
95(10) . . .
91(10) . . .
107(10) . . .
95(10) . . .
107(10) . . .
92(10) . . .
108(10) . . .
98(10) . . .
106(10) . . .
99(10) . . .
101(10) . . .
111(11) . . .
93(10) . . .
101(10) . . .
95(10) . . .
93(10) . . .
93(10) . . .
101(10) . . .
96(10) . . .
114(11) . . .
108(10) . . .
95(10) . . .
94(10) . . .
108(10) . . .
105(10) . . .
100(10) . . .
98(10) . . .
110(10) . . .
94(10) . . .
103(10) . . .
93(10) . . .
100(10) . . .
107(10) . . .
105(10) . . .
81(9) . . .
101(10) . . .
104(10) . . .
109(10) . . .
94(10) . . .
93(10) . . .
115(11) . . .
85(9) . . .
102(10) . . .
89(9) . . .
93(10) . . .
96(10) . . .
104(10) . . .
120(11) . . .
90(9) . . .
96(10) . . .
102(10) . . .
98(10) . . .
112(11) . . .
93(10) . . .
96(10) . . .
91(10) . . .
100(10) . . .
88(9) . . .
93(10) . . .
103(10) . . .
103(10) . . .
109(10) . . .
96(10) . . .
99(10) . . .
110(10) . . .
89(9) . . .
86(9) . . .
95(10) . . .
97(10) . . .
97(10) . . .
114(11) . . .
95(10) . . .
101(10) . . .
104(10) . . .
97(10) . . .
101(10) . . .
91(10) . . .
93(10) . . .
101(10) . . .
81(9) . . .
115(11) . . .
88(9) . . .
98(10) . . .
90(9) . . .
97(10) . . .
123(11) . . .
92(10) . . .
104(10) . . .
95(10) . . .
108(10) . . .
104(10) . . .
100(10) . . .
114(11) . . .
95(10) . . .
105(10) . . .
115(11) . . .
103(10) . . .
90(9) . . .
114(11) . . .
90(9) . . .
102(10) . . .
107(10) . . .
95(10) . . .
94(10) . . .
88(9) . . .
113(11) . . .
101(10) . . .
102(10) . . .
94(10) . . .
92(10) . . .
110(10) . . .
91(10) . . .
97(10) . . .
86(9) . . .
94(10) . . .
116(11) . . .
100(10) . . .
94(10) . . .
93(10) . . .
96(10) . . .
92(10) . . .
103(10) . . .
102(10) . . .
106(10) . . .
98(10) . . .
100(10) . . .
97(10) . . .
102(10) . . .
109(10) . . .
80(9) . . .
90(9) . . .
92(10) . . .
106(10) . . .
103(10) . . .
94(10) . . .
102(10) . . .
112(11) . . .
106(10) . . .
81(9) . . .
99(10) . . .
101(10) . . .
115(11) . . .
99(10) . . .
114(11) . . .
96(10) . . .
105(10) . . .
102(10) . . .
92(10) . . .
108(10) . . .
91(10) . . .
93(10) . . .
99(10) . . .
100(10) . . .
88(9) . . .
112(11) . . .
102(10) . . .
98(10) . . .
102(10) . . .
99(10) . . .
92(10) . . .
99(10) . . .
94(10) . . .
100(10) . . .
84(9) . . .
101(10) . . .
89(9) . . .
107(10) . . .
98(10) . . .
107(10) . . .
99(10) . . .
106(10) . . .
85(9) . . .
103(10) . . .
105(10) . . .
101(10) . . .
99(10) . . .
104(10) . . .
108(10) . . .
95(10) . . .
102(10) . . .
93(10) . . .
97(10) . . .
98(10) . . .
102(10) . . .
106(10) . . .
105(10) . . .
112(11) . . .
117(11) . . .
118(11) . . .
117(11) . . .
94(10) . . .
100(10) . . .
102(10) . . .
89(9) . . .
101(10) . . .
99(10) . . .
103(10) . . .
92(10) . . .
90(9) . . .
97(10) . . .
104(10) . . .
99(10) . . .
100(10) . . .
95(10) . . .
94(10) . . .
101(10) . . .
103(10) . . .
107(10) . . .
83(9) . . .
96(10) . . .
117(11) . . .
115(11) . . .
102(10) . . .
98(10) . . .
90(9) . . .
95(10) . . .
89(9) . . .
119(11) . . .
95(10) . . .
105(10) . . .
90(9) . . .
81(9) . . .
103(10) . . .
92(10) . . .
106(10) . . .
100(10) . . .
90(9) . . .
90(9) . . .
108(10) . . .
125(11) . . .
89(9) . . .
106(10) . . .
105(10) . . .
94(10) . . .
104(10) . . .
95(10) . . .
107(10) . . .
124(11) . . .
96(10) . . .
88(9) . . .
90(9) . . .
97(10) . . .
101(10) . . .
104(10) . . .
98(10) . . .
103(10) . . .
81(9) . . .
89(9) . . .
104(10) . . .
97(10) . . .
107(10) . . .
108(10) . . .
82(9) . . .
98(10) . . .
92(10) . . .
100(10) . . .
108(10) . . .
105(10) . . .
111(11) . . .
97(10) . . .
96(10) . . .
80(9) . . .
107(10) . . .
102(10) . . .
86(9) . . .
89(9) . . .
99(10) . . .
117(11) . . .
116(11) . . .
95(10) . . .
81(9) . . .
114(11) . . .
86(9) . . .
89(9) . . .
93(10) . . .
100(10) . . .
108(10) . . .
106(10) . . .
103(10) . . .
97(10) . . .
87(9) . . .
89(9) . . .
100(10) . . .
105(10) . . .
96(10) . . .
82(9) . . .
106(10) . . .
95(10) . . .
103(10) . . .
89(9) . . .
91(10) . . .
105(10) . . .
100(10) . . .
107(10) . . .
93(10) . . .
87(9) . . .
96(10) . . .
82(9) . . .
99(10) . . .
108(10) . . .
112(11) . . .
84(9) . . .
96(10) . . .
101(10) . . .
89(9) . . .
90(9) . . .
106(10) . . .
111(11) . . .
92(10) . . .
94(10) . . .
102(10) . . .
97(10) . . .
102(10) . . .
101(10) . . .
110(10) . . .
101(10) . . .
89(9) . . .
95(10) . . .
104(10) . . .
97(10) . . .
90(9) . . .
84(9) . . .
105(10) . . .
105(10) . . .
96(10) . . .
92(10) . . .
101(10) . . .
88(9) . . .
90(9) . . .
123(11) . . .
102(10) . . .
109(10) . . .
100(10) . . .
106(10) . . .
108(10) . . .
100(10) . . .
102(10) . . .
95(10) . . .
88(9) . . .
93(10) . . .
97(10) . . .
90(9) . . .
98(10) . . .
83(9) . . .
98(10) . . .
107(10) . . .
101(10) . . .
107(10) . . .
88(9) . . .
106(10) . . .
94(10) . . .
96(10) . . .
99(10) . . .
94(10) . . .
108(10) . . .
108(10) . . .
105(10) . . .
113(11) . . .
95(10) . . .
95(10) . . .
104(10) . . .
94(10) . . .
110(10) . . .
98(10) . . .
94(10) . . .
111(11) . . .
110(10) . . .
105(10) . . .
106(10) . . .
108(10) . . .
96(10) . . .
108(10) . . .
101(10) . . .
105(10) . . .
85(9) . . .
95(10) . . .
90(9) . . .
101(10) . . .
114(11) . . .
101(10) . . .
92(10) . . .
95(10) . . .
90(9) . . .
104(10) . . .
94(10) . . .
96(10) . . .
99(10) . . .
112(11) . . .
97(10) . . .
96(10) . . .
104(10) . . .
84(9) . . .
93(10) . . .
95(10) . . .
105(10) . . .
86(9) . . .
94(10) . . .
83(9) . . .
95(10) . . .
99(10) . . .
97(10) . . .
96(10) . . .
93(10) . . .
107(10) . . .
94(10) . . .
95(10) . . .
125(11) . . .
96(10) . . .
98(10) . . .
98(10) . . .
92(10) . . .
98(10) . . .
102(10) . . .
102(10) . . .
101(10) . . .
94(10) . . .
91(10) . . .
94(10) . . .
96(10) . . .
83(9) . . .
105(10) . . .
99(10) . . .
109(10) . . .
90(9) . . .
81(9) . . .
117(11) . . .
96(10) . . .
109(10) . . .
105(10) . . .
98(10) . . .
98(10) . . .
92(10) . . .
94(10) . . .
115(11) . . .
96(10) . . .
118(11) . . .
94(10) . . .
105(10) . . .
97(10) . . .
94(10) . . .
108(10) . . .
95(10) . . .
101(10) . . .
106(10) . . .
96(10) . . .
96(10) . . .
112(11) . . .
98(10) . . .
112(11) . . .
100(10) . . .
119(11) . . .
111(11) . . .
101(10) . . .
90(9) . . .
109(10) . . .
93(10) . . .
98(10) . . .
95(10) . . .
85(9) . . .
89(9) . . .
103(10) . . .
84(9) . . .
96(10) . . .
113(11) . . .
107(10) . . .
89(9) . . .
97(10) . . .
107(10) . . .
97(10) . . .
97(10) . . .
101(10) . . .
92(10) . . .
92(10) . . .
106(10) . . .
93(10) . . .
98(10) . . .
101(10) . . .
94(10) . . .
105(10) . . .
94(10) . . .
95(10) . . .
76(9) . . .
108(10) . . .
101(10) . . .
101(10) . . .
84(9) . . .
113(11) . . .
109(10) . . .
82(9) . . .
98(10) . . .
98(10) . . .
115(11) . . .
110(10) . . .
114(11) . . .
103(10) . . .
102(10) . . .
107(10) . . .
97(10) . . .
96(10) . . .
113(11) . . .
100(10) . . .
103(10) . . .
106(10) . . .
90(9) . . .
98(10) . . .
111(11) . . .
91(10) . . .
113(11) . . .
88(9) . . .
81(9) . . .
81(9) . . .
89(9) . . .
107(10) . . .
101(10) . . .
109(10) . . .
102(10) . . .
86(9) . . .
95(10) . . .
103(10) . . .
83(9) . . .
116(11) . . .
102(10) . . .
90(9) . . .
85(9) . . .
88(9) . . .
101(10) . . .
100(10) . . .
109(10) . . .
93(10) . . .
102(10) . . .
82(9) . . .
84(9) . . .
109(10) . . .
99(10) . . .
102(10) . . .
92(10) . . .
119(11) . . .
100(10) . . .
100(10) . . .
98(10) . . .
104(10) . . .
97(10) . . .
105(10) . . .
91(10) . . .
103(10) . . .
95(10) . . .
103(10) . . .
103(10) . . .
107(10) . . .
97(10) . . .
95(10) . . .
92(10) . . .
105(10) . . .
96(10) . . .
90(9) . . .
106(10) . . .
99(10) . . .
89(9) . . .
101(10) . . .
87(9) . . .
97(10) . . .
115(11) . . .
118(11) . . .
101(10) . . .
102(10) . . .
74(9) . . .
94(10) . . .
99(10) . . .
96(10) . . .
102(10) . . .
96(10) . . .
109(10) . . .
97(10) . . .
85(9) . . .
107(10) . . .
95(10) . . .
97(10) . . .
99(10) . . .
89(9) . . .
98(10) . . .
87(9) . . .
93(10) . . .
80(9) . . .
97(10) . . .
106(10) . . .
103(10) . . .
112(11) . . .
98(10) . . .
90(9) . . .
89(9) . . .
97(10) . . .
109(10) . . .
83(9) . . .
78(9) . . .
100(10) . . .
92(10) . . .
103(10) . . .
102(10) . . .
82(9) . . .
112(11) . . .
111(11) . . .
94(10) . . .
104(10) . . .
85(9) . . .
100(10) . . .
104(10) . . .
92(10) . . .
88(9) . . .
92(10) . . .
96(10) . . .
107(10) . . .
92(10) . . .
96(10) . . .
94(10) . . .
98(10) . . .
101(10) . . .
95(10) . . .
104(10) . . .
95(10) . . .
99(10) . . .
103(10) . . .
101(10) . . .
112(11) . . .
106(10) . . .
94(10) . . .
113(11) . . .
108(10) . . .
103(10) . . .
118(11) . . .
118(11) . . .
99(10) . . .
108(10) . . .
98(10) . . .
86(9) . . .
107(10) . . .
98(10) . . .
97(10) . . .
93(10) . . .
89(9) . . .
111(11) . . .
102(10) . . .
97(10) . . .
93(10) . . .
100(10) . . .
93(10) . . .
112(11) . . .
98(10) . . .
96(10) . . .
109(10) . . .
94(10) . . .
94(10) . . .
104(10) . . .
100(10) . . .
113(11) . . .
94(10) . . .
96(10) . . .
105(10) . . .
108(10) . . .
91(10) . . .
104(10) . . .
97(10) . . .
82(9) . . .
93(10) . . .
90(9) . . .
104(10) . . .
106(10) . . .
99(10) . . .
86(9) . . .
97(10) . . .
127(11) . . .
110(10) . . .
110(10) . . .
87(9) . . .
93(10) . . .
92(10) . . .
90(9) . . .
92(10) . . .
115(11) . . .
105(10) . . .
109(10) . . .
99(10) . . .
101(10) . . .
93(10) . . .
99(10) . . .
95(10) . . .
87(9) . . .
93(10) . . .
108(10) . . .
93(10) . . .
97(10) . . .
93(10) . . .
99(10) . . .
102(10) . . .
98(10) . . .
97(10) . . .
84(9) . . .
102(10) . . .
98(10) . . .
89(9) . . .
88(9) . . .
105(10) . . .
103(10) . . .
86(9) . . .
86(9) . . .
102(10) . . .
97(10) . . .
86(9) . . .
100(10) . . .
83(9) . . .
103(10) . . .
79(9) . . .
93(10) . . .
89(9) . . .
100(10) . . .
96(10) . . .
97(10) . . .
87(9) . . .
78(9) . . .
100(10) . . .
114(11) . . .
107(10) . . .
105(10) . . .
108(10) . . .
99(10) . . .
88(9) . . .
100(10) . . .
87(9) . . .
101(10) . . .
115(11) . . .
91(10) . . .
98(10) . . .
111(11) . . .
108(10) . . .
102(10) . . .
105(10) . . .
99(10) . . .
99(10) . . .
101(10) . . .
102(10) . . .
96(10) . . .
99(10) . . .
93(10) . . .
92(10) . . .
89(9) . . .
92(10) . . .
106(10) . . .
98(10) . . .
97(10) . . .
90(9) . . .
89(9) . . .
90(9) . . .
87(9) . . .
83(9) . . .
91(10) . . .
96(10) . . .
98(10) . . .
105(10) . . .
79(9) . . .
111(11) . . .
104(10) . . .
105(10) . . .
92(10) . . .
94(10) . . .
102(10) . . .
110(10) . . .
94(10) . . .
98(10) . . .
100(10) . . .
99(10) . . .
100(10) . . .
88(9) . . .
101(10) . . .
109(10) . . .
103(10) . . .
99(10) . . .
87(9) . . .
102(10) . . .
104(10) . . .
104(10) . . .
96(10) . . .
88(9) . . .
87(9) . . .
104(10) . . .
98(10) . . .
88(9) . . .
89(9) . . .
86(9) . . .
103(10) . . .
102(10) . . .
102(10) . . .
101(10) . . .
97(10) . . .
106(10) . . .
98(10) . . .
94(10) . . .
90(9) . . .
96(10) . . .
103(10) . . .
98(10) . . .
101(10) . . .
103(10) . . .
96(10) . . .
102(10) . . .
95(10) . . .
105(10) . . .
91(10) . . .
93(10) . . .
94(10) . . .
104(10) . . .
87(9) . . .
95(10) . . .
105(10) . . .
96(10) . . .
102(10) . . .
100(10) . . .
101(10) . . .
89(9) . . .
94(10) . . .
97(10) . . .
103(10) . . .
108(10) . . .
97(10) . . .
111(11) . . .
98(10) . . .
109(10) . . .
100(10) . . .
95(10) . . .
101(10) . . .
91(10) . . .
105(10) . . .
117(11) . . .
93(10) . . .
92(10) . . .
86(9) . . .
83(9) . . .
102(10) . . .
118(11) . . .
84(9) . . .
90(9) . . .
113(11) . . .
114(11) . . .
103(10) . . .
93(10) . . .
95(10) . . .
99(10) . . .
104(10) . . .
105(10) . . .
91(10) . . .
86(9) . . .
95(10) . . .
105(10) . . .
87(9) . . .
111(11) . . .
94(10) . . .
80(9) . . .
104(10) . . .
90(9) . . .
97(10) . . .
92(10) . . .
105(10) . . .
96(10) . . .
98(10) . . .
99(10) . . .
98(10) . . .
104(10) . . .
96(10) . . .
104(10) . . .
97(10) . . .
94(10) . . .
88(9) . . .
102(10) . . .
112(11) . . .
90(9) . . .
94(10) . . .
86(9) . . .
104(10) . . .
99(10) . . .
109(10) . . .
107(10) . . .
93(10) . . .
111(11) . . .
107(10) . . .
89(9) . . .
104(10) . . .
97(10) . . .
96(10) . . .
94(10) . . .
92(10) . . .
106(10) . . .
108(10) . . .
105(10) . . .
104(10) . . .
91(10) . . .
118(11) . . .
107(10) . . .
106(10) . . .
91(10) . . .
99(10) . . .
86(9) . . .
91(10) . . .
111(11) . . .
112(11) . . .
100(10) . . .
104(10) . . .
109(10) . . .
94(10) . . .
115(11) . . .
106(10) . . .
86(9) . . .
84(9) . . .
102(10) . . .
93(10) . . .
105(10) . . .
100(10) . . .
105(10) . . .
94(10) . . .
93(10) . . .
100(10) . . .
98(10) . . .
104(10) . . .
103(10) . . .
94(10) . . .
95(10) . . .
86(9) . . .
96(10) . . .
97(10) . . .
101(10) . . .
106(10) . . .
106(10) . . .
100(10) . . .
96(10) . . .
92(10) . . .
107(10) . . .
111(11) . . .
105(10) . . .
107(10) . . .
100(10) . . .
90(9) . . .
102(10) . . .
93(10) . . .
98(10) . . .
89(9) . . .
100(10) . . .
93(10) . . .
87(9) . . .
92(10) . . .
100(10) . . .
92(10) . . .
101(10) . . .
105(10) . . .
112(11) . . .
103(10) . . .
100(10) . . .
99(10) . . .
116(11) . . .
109(10) . . .
104(10) . . .
85(9) . . .
104(10) . . .
93(10) . . .
96(10) . . .
111(11) . . .
106(10) . . .
97(10) . . .
95(10) . . .
105(10) . . .
103(10) . . .
104(10) . . .
118(11) . . .
96(10) . . .
105(10) . . .
97(10) . . .
100(10) . . .
111(11) . . .
108(10) . . .
103(10) . . .
93(10) . . .
105(10) . . .
96(10) . . .
98(10) . . .
97(10) . . .
129(11) . . .
97(10) . . .
87(9) . . .
105(10) . . .
113(11) . . .
90(9) . . .
112(11) . . .
97(10) . . .
94(10) . . .
100(10) . . .
95(10) . . .
102(10) . . .
91(10) . . .
102(10) . . .
106(10) . . .
108(10) . . .
99(10) . . .
105(10) . . .
122(11) . . .
116(11) . . .
98(10) . . .
90(9) . . .
99(10) . . .
99(10) . . .
103(10) . . .
112(11) . . .
92(10) . . .
101(10) . . .
104(10) . . .
113(11) . . .
101(10) . . .
123(11) . . .
107(10) . . .
101(10) . . .
96(10) . . .
97(10) . . .
102(10) . . .
117(11) . . .
114(11) . . .
131(11) . . .
119(11) . . .
98(10) . . .
102(10) . . .
114(11) . . .
107(10) . . .
105(10) . . .
102(10) . . .
103(10) . . .
106(10) . . .
97(10) . . .
100(10) . . .
104(10) . . .
106(10) . . .
96(10) . . .
112(11) . . .
85(9) . . .
109(10) . . .
116(11) . . .
98(10) . . .
117(11) . . .
107(10) . . .
97(10) . . .
105(10) . . .
112(11) . . .
99(10) . . .
91(10) . . .
94(10) . . .
92(10) . . .
98(10) . . .
104(10) . . .
117(11) . . .
86(9) . . .
89(9) . . .
102(10) . . .
112(11) . . .
103(10) . . .
97(10) . . .
115(11) . . .
119(11) . . .
110(10) . . .
110(10) . . .
124(11) . . .
118(11) . . .
99(10) . . .
126(11) . . .
121(11) . . .
105(10) . . .
127(11) . . .
136(12) . . .
117(11) . . .
121(11) . . .
112(11) . . .
119(11) . . .
113(11) . . .
105(10) . . .
119(11) . . .
126(11) . . .
126(11) . . .
116(11) . . .
121(11) . . .
111(11) . . .
109(10) . . .
118(11) . . .
108(10) . . .
114(11) . . .
117(11) . . .
105(10) . . .
107(10) . . .
126(11) . . .
121(11) . . .
121(11) . . .
129(11) . . .
114(11) . . .
129(11) . . .
106(10) . . .
127(11) . . .
134(12) . . .
130(11) . . .
139(12) . . .
123(11) . . .
116(11) . . .
129(11) . . .
124(11) . . .
122(11) . . .
125(11) . . .
125(11) . . .
140(12) . . .
122(11) . . .
133(12) . . .
146(12) . . .
151(12) . . .
138(12) . . .
131(11) . . .
151(12) . . .
139(12) . . .
142(12) . . .
144(12) . . .
157(13) . . .
139(12) . . .
158(13) . . .
157(13) . . .
171(13) . . .
136(12) . . .
151(12) . . .
157(13) . . .
150(12) . . .
169(13) . . .
158(13) . . .
149(12) . . .
177(13) . . .
185(14) . . .
173(13) . . .
196(14) . . .
183(14) . . .
173(13) . . .
212(15) . . .
214(15) . . .
210(14) . . .
210(14) . . .
208(14) . . .
214(15) . . .
242(16) . . .
219(15) . . .
236(15) . . .
242(16) . . .
223(15) . . .
232(15) . . .
250(16) . . .
271(16) . . .
267(16) . . .
278(17) . . .
287(17) . . .
273(17) . . .
288(17) . . .
294(17) . . .
318(18) . . .
281(17) . . .
325(18) . . .
345(19) . . .
315(18) . . .
309(18) . . .
346(19) . . .
350(19) . . .
342(18) . . .
333(18) . . .
356(19) . . .
307(18) . . .
362(19) . . .
380(19) . . .
322(18) . . .
351(19) . . .
356(19) . . .
335(18) . . .
355(19) . . .
344(19) . . .
332(18) . . .
338(18) . . .
323(18) . . .
317(18) . . .
334(18) . . .
306(17) . . .
318(18) . . .
294(17) . . .
297(17) . . .
301(17) . . .
314(18) . . .
287(17) . . .
273(17) . . .
292(17) . . .
240(15) . . .
268(16) . . .
268(16) . . .
222(15) . . .
225(15) . . .
227(15) . . .
212(15) . . .
224(15) . . .
213(15) . . .
220(15) . . .
188(14) . . .
215(15) . . .
212(15) . . .
186(14) . . .
202(14) . . .
192(14) . . .
178(13) . . .
158(13) . . .
175(13) . . .
161(13) . . .
170(13) . . .
169(13) . . .
164(13) . . .
175(13) . . .
150(12) . . .
168(13) . . .
158(13) . . .
150(12) . . .
154(12) . . .
131(11) . . .
143(12) . . .
145(12) . . .
150(12) . . .
147(12) . . .
142(12) . . .
126(11) . . .
152(12) . . .
149(12) . . .
134(12) . . .
131(11) . . .
160(13) . . .
142(12) . . .
127(11) . . .
123(11) . . .
123(11) . . .
123(11) . . .
128(11) . . .
121(11) . . .
127(11) . . .
133(12) . . .
125(11) . . .
154(12) . . .
125(11) . . .
120(11) . . .
107(10) . . .
108(10) . . .
125(11) . . .
103(10) . . .
109(10) . . .
123(11) . . .
117(11) . . .
113(11) . . .
134(12) . . .
112(11) . . .
103(10) . . .
104(10) . . .
94(10) . . .
109(10) . . .
120(11) . . .
109(10) . . .
106(10) . . .
110(10) . . .
113(11) . . .
100(10) . . .
128(11) . . .
112(11) . . .
117(11) . . .
98(10) . . .
92(10) . . .
109(10) . . .
109(10) . . .
94(10) . . .
109(10) . . .
114(11) . . .
110(10) . . .
108(10) . . .
102(10) . . .
107(10) . . .
107(10) . . .
102(10) . . .
104(10) . . .
99(10) . . .
101(10) . . .
101(10) . . .
114(11) . . .
112(11) . . .
118(11) . . .
114(11) . . .
123(11) . . .
104(10) . . .
105(10) . . .
125(11) . . .
126(11) . . .
115(11) . . .
102(10) . . .
113(11) . . .
119(11) . . .
99(10) . . .
116(11) . . .
92(10) . . .
102(10) . . .
103(10) . . .
102(10) . . .
97(10) . . .
93(10) . . .
115(11) . . .
109(10) . . .
107(10) . . .
95(10) . . .
116(11) . . .
89(9) . . .
109(10) . . .
114(11) . . .
105(10) . . .
109(10) . . .
114(11) . . .
99(10) . . .
103(10) . . .
94(10) . . .
106(10) . . .
97(10) . . .
117(11) . . .
115(11) . . .
110(10) . . .
117(11) . . .
95(10) . . .
116(11) . . .
83(9) . . .
108(10) . . .
113(11) . . .
92(10) . . .
103(10) . . .
119(11) . . .
113(11) . . .
118(11) . . .
100(10) . . .
105(10) . . .
94(10) . . .
84(9) . . .
106(10) . . .
97(10) . . .
91(10) . . .
106(10) . . .
104(10) . . .
108(10) . . .
96(10) . . .
107(10) . . .
101(10) . . .
110(10) . . .
84(9) . . .
99(10) . . .
113(11) . . .
105(10) . . .
93(10) . . .
100(10) . . .
95(10) . . .
93(10) . . .
98(10) . . .
99(10) . . .
104(10) . . .
109(10) . . .
99(10) . . .
100(10) . . .
97(10) . . .
100(10) . . .
89(9) . . .
96(10) . . .
102(10) . . .
103(10) . . .
99(10) . . .
86(9) . . .
113(11) . . .
107(10) . . .
96(10) . . .
99(10) . . .
112(11) . . .
86(9) . . .
99(10) . . .
105(10) . . .
110(10) . . .
104(10) . . .
111(11) . . .
100(10) . . .
108(10) . . .
103(10) . . .
119(11) . . .
97(10) . . .
100(10) . . .
92(10) . . .
103(10) . . .
101(10) . . .
96(10) . . .
107(10) . . .
87(9) . . .
99(10) . . .
111(11) . . .
79(9) . . .
107(10) . . .
91(10) . . .
111(11) . . .
104(10) . . .
93(10) . . .
115(11) . . .
96(10) . . .
87(9) . . .
104(10) . . .
102(10) . . .
104(10) . . .
115(11) . . .
116(11) . . .
106(10) . . .
90(9) . . .
100(10) . . .
96(10) . . .
99(10) . . .
98(10) . . .
110(10) . . .
95(10) . . .
98(10) . . .
96(10) . . .
81(9) . . .
107(10) . . .
78(9) . . .
94(10) . . .
104(10) . . .
112(11) . . .
109(10) . . .
102(10) . . .
106(10) . . .
107(10) . . .
103(10) . . .
89(9) . . .
108(10) . . .
99(10) . . .
96(10) . . .
101(10) . . .
103(10) . . .
100(10) . . .
83(9) . . .
114(11) . . .
110(10) . . .
96(10) . . .
88(9) . . .
104(10) . . .
85(9) . . .
112(11) . . .
97(10) . . .
107(10) . . .
105(10) . . .
94(10) . . .
102(10) . . .
104(10) . . .
101(10) . . .
113(11) . . .
117(11) . . .
92(10) . . .
106(10) . . .
91(10) . . .
110(10) . . .
98(10) . . .
83(9) . . .
109(10) . . .
104(10) . . .
101(10) . . .
106(10) . . .
99(10) . . .
103(10) . . .
95(10) . . .
108(10) . . .
118(11) . . .
112(11) . . .
110(10) . . .
107(10) . . .
109(10) . . .
90(9) . . .
101(10) . . .
93(10) . . .
109(10) . . .
86(9) . . .
100(10) . . .
93(10) . . .
105(10) . . .
102(10) . . .
95(10) . . .
105(10) . . .
104(10) . . .
99(10) . . .
83(9) . . .
98(10) . . .
120(11) . . .
83(9) . . .
97(10) . . .
109(10) . . .
102(10) . . .
98(10) . . .
115(11) . . .
113(11) . . .
102(10) . . .
116(11) . . .
103(10) . . .
116(11) . . .
85(9) . . .
94(10) . . .
97(10) . . .
107(10) . . .
98(10) . . .
103(10) . . .
105(10) . . .
96(10) . . .
100(10) . . .
105(10) . . .
123(11) . . .
99(10) . . .
120(11) . . .
104(10) . . .
91(10) . . .
104(10) . . .
112(11) . . .
98(10) . . .
91(10) . . .
102(10) . . .
102(10) . . .
106(10) . . .
109(10) . . .
113(11) . . .
108(10) . . .
77(9) . . .
108(10) . . .
105(10) . . .
125(11) . . .
104(10) . . .
109(10) . . .
118(11) . . .
121(11) . . .
122(11) . . .
119(11) . . .
108(10) . . .
121(11) . . .
105(10) . . .
113(11) . . .
120(11) . . .
121(11) . . .
102(10) . . .
126(11) . . .
113(11) . . .
96(10) . . .
109(10) . . .
101(10) . . .
121(11) . . .
128(11) . . .
122(11) . . .
103(10) . . .
97(10) . . .
101(10) . . .
122(11) . . .
108(10) . . .
113(11) . . .
135(12) . . .
116(11) . . .
128(11) . . .
112(11) . . .
133(12) . . .
135(12) . . .
122(11) . . .
123(11) . . .
118(11) . . .
129(11) . . .
132(11) . . .
122(11) . . .
128(11) . . .
130(11) . . .
131(11) . . .
125(11) . . .
139(12) . . .
125(11) . . .
134(12) . . .
148(12) . . .
142(12) . . .
152(12) . . .
137(12) . . .
134(12) . . .
154(12) . . .
147(12) . . .
175(13) . . .
150(12) . . .
162(13) . . .
177(13) . . .
165(13) . . .
159(13) . . .
189(14) . . .
156(12) . . .
186(14) . . .
174(13) . . .
185(14) . . .
181(13) . . .
197(14) . . .
183(14) . . .
186(14) . . .
199(14) . . .
194(14) . . .
214(15) . . .
211(15) . . .
226(15) . . .
212(15) . . .
228(15) . . .
213(15) . . .
235(15) . . .
229(15) . . .
240(15) . . .
230(15) . . .
230(15) . . .
240(15) . . .
230(15) . . .
233(15) . . .
235(15) . . .
247(16) . . .
265(16) . . .
223(15) . . .
228(15) . . .
258(16) . . .
252(16) . . .
227(15) . . .
221(15) . . .
236(15) . . .
210(14) . . .
213(15) . . .
226(15) . . .
228(15) . . .
234(15) . . .
192(14) . . .
201(14) . . .
194(14) . . .
205(14) . . .
205(14) . . .
198(14) . . .
168(13) . . .
220(15) . . .
197(14) . . .
167(13) . . .
178(13) . . .
176(13) . . .
175(13) . . .
181(13) . . .
166(13) . . .
187(14) . . .
181(13) . . .
163(13) . . .
147(12) . . .
137(12) . . .
157(13) . . .
155(12) . . .
136(12) . . .
136(12) . . .
152(12) . . .
142(12) . . .
123(11) . . .
137(12) . . .
135(12) . . .
145(12) . . .
116(11) . . .
124(11) . . .
156(12) . . .
133(12) . . .
142(12) . . .
120(11) . . .
126(11) . . .
108(10) . . .
122(11) . . .
128(11) . . .
137(12) . . .
130(11) . . .
109(10) . . .
127(11) . . .
121(11) . . .
120(11) . . .
126(11) . . .
118(11) . . .
109(10) . . .
109(10) . . .
117(11) . . .
106(10) . . .
107(10) . . .
125(11) . . .
107(10) . . .
113(11) . . .
105(10) . . .
113(11) . . .
121(11) . . .
96(10) . . .
118(11) . . .
99(10) . . .
118(11) . . .
86(9) . . .
116(11) . . .
112(11) . . .
95(10) . . .
125(11) . . .
110(10) . . .
97(10) . . .
97(10) . . .
105(10) . . .
117(11) . . .
106(10) . . .
92(10) . . .
107(10) . . .
110(10) . . .
117(11) . . .
88(9) . . .
94(10) . . .
114(11) . . .
110(10) . . .
105(10) . . .
104(10) . . .
107(10) . . .
105(10) . . .
95(10) . . .
107(10) . . .
110(10) . . .
99(10) . . .
116(11) . . .
104(10) . . .
97(10) . . .
109(10) . . .
86(9) . . .
102(10) . . .
111(11) . . .
97(10) . . .
99(10) . . .
96(10) . . .
101(10) . . .
97(10) . . .
115(11) . . .
102(10) . . .
104(10) . . .
105(10) . . .
106(10) . . .
97(10) . . .
110(10) . . .
104(10) . . .
121(11) . . .
92(10) . . .
97(10) . . .
97(10) . . .
97(10) . . .
89(9) . . .
118(11) . . .
97(10) . . .
104(10) . . .
97(10) . . .
106(10) . . .
90(9) . . .
90(9) . . .
116(11) . . .
97(10) . . .
87(9) . . .
84(9) . . .
106(10) . . .
89(9) . . .
93(10) . . .
107(10) . . .
83(9) . . .
94(10) . . .
84(9) . . .
96(10) . . .
89(9) . . .
105(10) . . .
119(11) . . .
105(10) . . .
85(9) . . .
102(10) . . .
83(9) . . .
105(10) . . .
90(9) . . .
105(10) . . .
103(10) . . .
101(10) . . .
103(10) . . .
95(10) . . .
83(9) . . .
97(10) . . .
89(9) . . .
94(10) . . .
91(10) . . .
95(10) . . .
96(10) . . .
107(10) . . .
98(10) . . .
102(10) . . .
107(10) . . .
96(10) . . .
94(10) . . .
86(9) . . .
88(9) . . .
101(10) . . .
110(10) . . .
99(10) . . .
97(10) . . .
101(10) . . .
85(9) . . .
100(10) . . .
95(10) . . .
85(9) . . .
96(10) . . .
97(10) . . .
86(9) . . .
94(10) . . .
107(10) . . .
98(10) . . .
86(9) . . .
93(10) . . .
101(10) . . .
89(9) . . .
99(10) . . .
96(10) . . .
100(10) . . .
91(10) . . .
100(10) . . .
103(10) . . .
101(10) . . .
100(10) . . .
75(9) . . .
103(10) . . .
103(10) . . .
102(10) . . .
95(10) . . .
95(10) . . .
87(9) . . .
92(10) . . .
80(9) . . .
81(9) . . .
92(10) . . .
99(10) . . .
99(10) . . .
75(9) . . .
102(10) . . .
104(10) . . .
86(9) . . .
94(10) . . .
97(10) . . .
97(10) . . .
97(10) . . .
84(9) . . .
97(10) . . .
90(9) . . .
90(9) . . .
80(9) . . .
74(9) . . .
91(10) . . .
95(10) . . .
91(10) . . .
86(9) . . .
99(10) . . .
105(10) . . .
90(9) . . .
95(10) . . .
95(10) . . .
91(10) . . .
95(10) . . .
93(10) . . .
91(10) . . .
90(9) . . .
107(10) . . .
79(9) . . .
94(10) . . .
83(9) . . .
85(9) . . .
89(9) . . .
81(9) . . .
96(10) . . .
94(10) . . .
100(10) . . .
97(10) . . .
93(10) . . .
106(10) . . .
107(10) . . .
102(10) . . .
99(10) . . .
101(10) . . .
96(10) . . .
94(10) . . .
97(10) . . .
103(10) . . .
87(9) . . .
96(10) . . .
92(10) . . .
76(9) . . .
78(9) . . .
96(10) . . .
99(10) . . .
101(10) . . .
99(10) . . .
101(10) . . .
75(9) . . .
95(10) . . .
95(10) . . .
79(9) . . .
80(9) . . .
104(10) . . .
91(10) . . .
89(9) . . .
112(11) . . .
98(10) . . .
90(9) . . .
110(10) . . .
92(10) . . .
94(10) . . .
91(10) . . .
86(9) . . .
89(9) . . .
90(9) . . .
92(10) . . .
93(10) . . .
86(9) . . .
100(10) . . .
92(10) . . .
98(10) . . .
104(10) . . .
93(10) . . .
102(10) . . .
83(9) . . .
102(10) . . .
104(10) . . .
92(10) . . .
95(10) . . .
103(10) . . .
91(10) . . .
89(9) . . .
88(9) . . .
89(9) . . .
79(9) . . .
99(10) . . .
89(9) . . .
94(10) . . .
105(10) . . .
95(10) . . .
106(10) . . .
99(10) . . .
89(9) . . .
82(9) . . .
99(10) . . .
101(10) . . .
95(10) . . .
90(9) . . .
99(10) . . .
117(11) . . .
107(10) . . .
104(10) . . .
118(11) . . .
86(9) . . .
90(9) . . .
95(10) . . .
106(10) . . .
88(9) . . .
92(10) . . .
93(10) . . .
103(10) . . .
95(10) . . .
94(10) . . .
86(9) . . .
82(9) . . .
94(10) . . .
97(10) . . .
84(9) . . .
97(10) . . .
97(10) . . .
96(10) . . .
107(10) . . .
101(10) . . .
101(10) . . .
90(9) . . .
97(10) . . .
83(9) . . .
89(9) . . .
88(9) . . .
90(9) . . .
95(10) . . .
104(10) . . .
78(9) . . .
88(9) . . .
84(9) . . .
98(10) . . .
81(9) . . .
84(9) . . .
89(9) . . .
87(9) . . .
99(10) . . .
87(9) . . .
93(10) . . .
86(9) . . .
89(9) . . .
86(9) . . .
81(9) . . .
104(10) . . .
110(10) . . .
100(10) . . .
101(10) . . .
99(10) . . .
89(9) . . .
86(9) . . .
87(9) . . .
101(10) . . .
78(9) . . .
94(10) . . .
100(10) . . .
85(9) . . .
96(10) . . .
75(9) . . .
98(10) . . .
83(9) . . .
102(10) . . .
106(10) . . .
94(10) . . .
96(10) . . .
80(9) . . .
84(9) . . .
89(9) . . .
93(10) . . .
125(11) . . .
93(10) . . .
94(10) . . .
81(9) . . .
98(10) . . .
85(9) . . .
109(10) . . .
85(9) . . .
90(9) . . .
102(10) . . .
89(9) . . .
84(9) . . .
87(9) . . .
88(9) . . .
92(10) . . .
86(9) . . .
95(10) . . .
104(10) . . .
111(11) . . .
84(9) . . .
90(9) . . .
102(10) . . .
111(11) . . .
100(10) . . .
123(11) . . .
99(10) . . .
99(10) . . .
91(10) . . .
101(10) . . .
100(10) . . .
104(10) . . .
85(9) . . .
104(10) . . .
89(9) . . .
85(9) . . .
97(10) . . .
92(10) . . .
84(9) . . .
89(9) . . .
94(10) . . .
94(10) . . .
90(9) . . .
77(9) . . .
96(10) . . .
91(10) . . .
102(10) . . .
92(10) . . .
89(9) . . .
78(9) . . .
87(9) . . .
82(9) . . .
88(9) . . .
99(10) . . .
90(9) . . .
97(10) . . .
96(10) . . .
84(9) . . .
97(10) . . .
94(10) . . .
77(9) . . .
92(10) . . .
100(10) . . .
87(9) . . .
95(10) . . .
100(10) . . .
103(10) . . .
102(10) . . .
87(9) . . .
77(9) . . .
84(9) . . .
97(10) . . .
90(9) . . .
92(10) . . .
101(10) . . .
77(9) . . .
91(10) . . .
97(10) . . .
84(9) . . .
90(9) . . .
91(10) . . .
93(10) . . .
100(10) . . .
81(9) . . .
94(10) . . .
106(10) . . .
102(10) . . .
104(10) . . .
94(10) . . .
82(9) . . .
72(8) . . .
87(9) . . .
92(10) . . .
100(10) . . .
79(9) . . .
85(9) . . .
90(9) . . .
105(10) . . .
108(10) . . .
91(10) . . .
109(10) . . .
91(10) . . .
99(10) . . .
89(9) . . .
86(9) . . .
91(10) . . .
95(10) . . .
106(10) . . .
98(10) . . .
94(10) . . .
86(9) . . .
83(9) . . .
86(9) . . .
102(10) . . .
99(10) . . .
86(9) . . .
85(9) . . .
101(10) . . .
79(9) . . .
85(9) . . .
99(10) . . .
89(9) . . .
90(9) . . .
82(9) . . .
79(9) . . .
84(9) . . .
103(10) . . .
81(9) . . .
76(9) . . .
99(10) . . .
96(10) . . .
90(9) . . .
84(9) . . .
101(10) . . .
91(10) . . .
86(9) . . .
93(10) . . .
84(9) . . .
96(10) . . .
92(10) . . .
83(9) . . .
101(10) . . .
99(10) . . .
85(9) . . .
95(10) . . .
97(10) . . .
100(10) . . .
84(9) . . .
82(9) . . .
85(9) . . .
78(9) . . .
88(9) . . .
87(9) . . .
90(9) . . .
80(9) . . .
102(10) . . .
95(10) . . .
83(9) . . .
89(9) . . .
79(9) . . .
85(9) . . .
92(10) . . .
89(9) . . .
84(9) . . .
78(9) . . .
95(10) . . .
100(10) . . .
107(10) . . .
101(10) . . .
90(9) . . .
92(10) . . .
79(9) . . .
97(10) . . .
78(9) . . .
87(9) . . .
93(10) . . .
72(8) . . .
85(9) . . .
87(9) . . .
113(11) . . .
108(10) . . .
95(10) . . .
99(10) . . .
100(10) . . .
91(10) . . .
103(10) . . .
88(9) . . .
117(11) . . .
88(9) . . .
99(10) . . .
96(10) . . .
109(10) . . .
112(11) . . .
88(9) . . .
87(9) . . .
80(9) . . .
106(10) . . .
94(10) . . .
102(10) . . .
91(10) . . .
104(10) . . .
82(9) . . .
83(9) . . .
97(10) . . .
100(10) . . .
97(10) . . .
85(9) . . .
77(9) . . .
93(10) . . .
86(9) . . .
88(9) . . .
82(9) . . .
107(10) . . .
93(10) . . .
91(10) . . .
86(9) . . .
98(10) . . .
92(10) . . .
86(9) . . .
96(10) . . .
75(9) . . .
83(9) . . .
87(9) . . .
87(9) . . .
102(10) . . .
89(9) . . .
112(11) . . .
91(10) . . .
104(10) . . .
91(10) . . .
83(9) . . .
74(9) . . .
97(10) . . .
79(9) . . .
88(9) . . .
99(10) . . .
96(10) . . .
91(10) . . .
77(9) . . .
94(10) . . .
110(10) . . .
97(10) . . .
84(9) . . .
95(10) . . .
93(10) . . .
93(10) . . .
83(9) . . .
84(9) . . .
95(10) . . .
85(9) . . .
86(9) . . .
98(10) . . .
96(10) . . .
100(10) . . .
103(10) . . .
84(9) . . .
91(10) . . .
101(10) . . .
84(9) . . .
99(10) . . .
74(9) . . .
97(10) . . .
97(10) . . .
95(10) . . .
96(10) . . .
89(9) . . .
96(10) . . .
89(9) . . .
82(9) . . .
90(9) . . .
83(9) . . .
110(10) . . .
101(10) . . .
86(9) . . .
89(9) . . .
82(9) . . .
99(10) . . .
95(10) . . .
75(9) . . .
100(10) . . .
85(9) . . .
88(9) . . .
95(10) . . .
80(9) . . .
86(9) . . .
75(9) . . .
82(9) . . .
85(9) . . .
95(10) . . .
82(9) . . .
88(9) . . .
95(10) . . .
78(9) . . .
85(9) . . .
93(10) . . .
108(10) . . .
108(10) . . .
81(9) . . .
90(9) . . .
91(10) . . .
73(9) . . .
94(10) . . .
100(10) . . .
93(10) . . .
93(10) . . .
78(9) . . .
92(10) . . .
63(8) . . .
87(9) . . .
80(9) . . .
80(9) . . .
83(9) . . .
75(9) . . .
77(9) . . .
94(10) . . .
83(9) . . .
84(9) . . .
89(9) . . .
94(10) . . .
101(10) . . .
97(10) . . .
86(9) . . .
77(9) . . .
85(9) . . .
87(9) . . .
89(9) . . .
91(10) . . .
88(9) . . .
85(9) . . .
92(10) . . .
90(9) . . .
86(9) . . .
100(10) . . .
105(10) . . .
69(8) . . .
102(10) . . .
83(9) . . .
79(9) . . .
89(9) . . .
100(10) . . .
103(10) . . .
88(9) . . .
108(10) . . .
85(9) . . .
105(10) . . .
91(10) . . .
96(10) . . .
92(10) . . .
89(9) . . .
94(10) . . .
99(10) . . .
96(10) . . .
77(9) . . .
93(10) . . .
103(10) . . .
84(9) . . .
86(9) . . .
97(10) . . .
79(9) . . .
93(10) . . .
72(8) . . .
89(9) . . .
107(10) . . .
88(9) . . .
80(9) . . .
93(10) . . .
89(9) . . .
83(9) . . .
88(9) . . .
73(9) . . .
86(9) . . .
76(9) . . .
81(9) . . .
97(10) . . .
81(9) . . .
110(10) . . .
93(10) . . .
66(8) . . .
81(9) . . .
78(9) . . .
93(10) . . .
87(9) . . .
93(10) . . .
104(10) . . .
79(9) . . .
85(9) . . .
82(9) . . .
76(9) . . .
112(11) . . .
79(9) . . .
90(9) . . .
99(10) . . .
80(9) . . .
84(9) . . .
87(9) . . .
94(10) . . .
96(10) . . .
92(10) . . .
98(10) . . .
90(9) . . .
99(10) . . .
81(9) . . .
83(9) . . .
86(9) . . .
87(9) . . .
80(9) . . .
95(10) . . .
86(9) . . .
81(9) . . .
85(9) . . .
107(10) . . .
98(10) . . .
77(9) . . .
104(10) . . .
115(11) . . .
78(9) . . .
92(10) . . .
91(10) . . .
73(9) . . .
90(9) . . .
78(9) . . .
91(10) . . .
95(10) . . .
62(8) . . .
98(10) . . .
92(10) . . .
96(10) . . .
95(10) . . .
84(9) . . .
73(9) . . .
89(9) . . .
93(10) . . .
85(9) . . .
92(10) . . .
99(10) . . .
113(11) . . .
98(10) . . .
93(10) . . .
94(10) . . .
92(10) . . .
76(9) . . .
92(10) . . .
84(9) . . .
97(10) . . .
91(10) . . .
90(9) . . .
84(9) . . .
87(9) . . .
77(9) . . .
92(10) . . .
93(10) . . .
84(9) . . .
91(10) . . .
85(9) . . .
91(10) . . .
89(9) . . .
93(10) . . .
99(10) . . .
107(10) . . .
99(10) . . .
84(9) . . .
83(9) . . .
83(9) . . .
73(9) . . .
97(10) . . .
91(10) . . .
86(9) . . .
69(8) . . .
80(9) . . .
84(9) . . .
92(10) . . .
90(9) . . .
82(9) . . .
75(9) . . .
82(9) . . .
84(9) . . .
86(9) . . .
86(9) . . .
83(9) . . .
87(9) . . .
90(9) . . .
93(10) . . .
91(10) . . .
80(9) . . .
88(9) . . .
88(9) . . .
86(9) . . .
88(9) . . .
101(10) . . .
85(9) . . .
88(9) . . .
75(9) . . .
89(9) . . .
83(9) . . .
78(9) . . .
79(9) . . .
100(10) . . .
86(9) . . .
92(10) . . .
99(10) . . .
78(9) . . .
96(10) . . .
94(10) . . .
82(9) . . .
80(9) . . .
77(9) . . .
98(10) . . .
77(9) . . .
78(9) . . .
76(9) . . .
82(9) . . .
85(9) . . .
103(10) . . .
79(9) . . .
97(10) . . .
97(10) . . .
94(10) . . .
97(10) . . .
103(10) . . .
101(10) . . .
96(10) . . .
85(9) . . .
90(9) . . .
93(10) . . .
82(9) . . .
82(9) . . .
91(10) . . .
100(10) . . .
105(10) . . .
71(8) . . .
81(9) . . .
82(9) . . .
93(10) . . .
92(10) . . .
97(10) . . .
91(10) . . .
79(9) . . .
94(10) . . .
79(9) . . .
92(10) . . .
83(9) . . .
96(10) . . .
92(10) . . .
90(9) . . .
93(10) . . .
98(10) . . .
80(9) . . .
88(9) . . .
82(9) . . .
73(9) . . .
72(8) . . .
86(9) . . .
71(8) . . .
78(9) . . .
73(9) . . .
90(9) . . .
94(10) . . .
102(10) . . .
76(9) . . .
86(9) . . .
108(10) . . .
82(9) . . .
91(10) . . .
102(10) . . .
91(10) . . .
90(9) . . .
95(10) . . .
89(9) . . .
75(9) . . .
75(9) . . .
94(10) . . .
94(10) . . .
93(10) . . .
98(10) . . .
95(10) . . .
86(9) . . .
93(10) . . .
97(10) . . .
97(10) . . .
83(9) . . .
79(9) . . .
84(9) . . .
81(9) . . .
87(9) . . .
96(10) . . .
83(9) . . .
93(10) . . .
96(10) . . .
85(9) . . .
92(10) . . .
84(9) . . .
101(10) . . .
83(9) . . .
85(9) . . .
90(9) . . .
83(9) . . .
105(10) . . .
80(9) . . .
92(10) . . .
99(10) . . .
86(9) . . .
94(10) . . .
109(10) . . .
86(9) . . .
75(9) . . .
89(9) . . .
86(9) . . .
88(9) . . .
75(9) . . .
99(10) . . .
110(10) . . .
83(9) . . .
80(9) . . .
100(10) . . .
93(10) . . .
96(10) . . .
98(10) . . .
80(9) . . .
77(9) . . .
86(9) . . .
82(9) . . .
78(9) . . .
87(9) . . .
92(10) . . .
67(8) . . .
92(10) . . .
68(8) . . .
85(9) . . .
79(9) . . .
78(9) . . .
91(10) . . .
96(10) . . .
77(9) . . .
87(9) . . .
84(9) . . .
83(9) . . .
79(9) . . .
82(9) . . .
81(9) . . .
83(9) . . .
89(9) . . .
81(9) . . .
71(8) . . .
77(9) . . .
79(9) . . .
97(10) . . .
87(9) . . .
88(9) . . .
80(9) . . .
89(9) . . .
96(10) . . .
91(10) . . .
78(9) . . .
78(9) . . .
98(10) . . .
96(10) . . .
99(10) . . .
84(9) . . .
90(9) . . .
88(9) . . .
84(9) . . .
84(9) . . .
63(8) . . .
91(10) . . .
110(10) . . .
79(9) . . .
86(9) . . .
86(9) . . .
86(9) . . .
89(9) . . .
89(9) . . .
80(9) . . .
94(10) . . .
83(9) . . .
91(10) . . .
89(9) . . .
76(9) . . .
92(10) . . .
77(9) . . .
89(9) . . .
87(9) . . .
86(9) . . .
87(9) . . .
97(10) . . .
79(9) . . .
92(10) . . .
85(9) . . .
75(9) . . .
91(10) . . .
89(9) . . .
79(9) . . .
91(10) . . .
92(10) . . .
79(9) . . .
75(9) . . .
95(10) . . .
72(8) . . .
78(9) . . .
89(9) . . .
81(9) . . .
83(9) . . .
81(9) . . .
94(10) . . .
88(9) . . .
96(10) . . .
89(9) . . .
91(10) . . .
73(9) . . .
86(9) . . .
92(10) . . .
87(9) . . .
73(9) . . .
94(10) . . .
99(10) . . .
94(10) . . .
84(9) . . .
84(9) . . .
84(9) . . .
85(9) . . .
87(9) . . .
106(10) . . .
87(9) . . .
81(9) . . .
88(9) . . .
91(10) . . .
80(9) . . .
91(10) . . .
88(9) . . .
72(8) . . .
86(9) . . .
77(9) . . .
93(10) . . .
88(9) . . .
93(10) . . .
89(9) . . .
98(10) . . .
87(9) . . .
84(9) . . .
80(9) . . .
83(9) . . .
78(9) . . .
85(9) . . .
83(9) . . .
88(9) . . .
87(9) . . .
97(10) . . .
108(10) . . .
85(9) . . .
90(9) . . .
77(9) . . .
83(9) . . .
74(9) . . .
94(10) . . .
89(9) . . .
87(9) . . .
87(9) . . .
93(10) . . .
86(9) . . .
89(9) . . .
104(10) . . .
73(9) . . .
90(9) . . .
95(10) . . .
95(10) . . .
92(10) . . .
93(10) . . .
92(10) . . .
85(9) . . .
80(9) . . .
93(10) . . .
92(10) . . .
75(9) . . .
85(9) . . .
80(9) . . .
85(9) . . .
89(9) . . .
81(9) . . .
92(10) . . .
86(9) . . .
79(9) . . .
78(9) . . .
73(9) . . .
88(9) . . .
85(9) . . .
100(10) . . .
87(9) . . .
85(9) . . .
90(9) . . .
76(9) . . .
71(8) . . .
92(10) . . .
96(10) . . .
89(9) . . .
90(9) . . .
89(9) . . .
78(9) . . .
98(10) . . .
84(9) . . .
87(9) . . .
89(9) . . .
95(10) . . .
71(8) . . .
77(9) . . .
89(9) . . .
88(9) . . .
79(9) . . .
95(10) . . .
93(10) . . .
81(9) . . .
78(9) . . .
99(10) . . .
83(9) . . .
85(9) . . .
83(9) . . .
75(9) . . .
93(10) . . .
83(9) . . .
84(9) . . .
90(9) . . .
92(10) . . .
87(9) . . .
87(9) . . .
84(9) . . .
81(9) . . .
85(9) . . .
97(10) . . .
88(9) . . .
83(9) . . .
101(10) . . .
80(9) . . .
83(9) . . .
86(9) . . .
96(10) . . .
94(10) . . .
80(9) . . .
83(9) . . .
84(9) . . .
93(10) . . .
74(9) . . .
95(10) . . .
86(9) . . .
90(9) . . .
94(10) . . .
88(9) . . .
106(10) . . .
91(10) . . .
90(9) . . .
95(10) . . .
86(9) . . .
89(9) . . .
83(9) . . .
88(9) . . .
77(9) . . .
93(10) . . .
90(9) . . .
84(9) . . .
81(9) . . .
94(10) . . .
93(10) . . .
87(9) . . .
88(9) . . .
83(9) . . .
92(10) . . .
77(9) . . .
80(9) . . .
80(9) . . .
71(8) . . .
66(8) . . .
79(9) . . .
84(9) . . .
79(9) . . .
80(9) . . .
95(10) . . .
89(9) . . .
84(9) . . .
90(9) . . .
86(9) . . .
91(10) . . .
84(9) . . .
93(10) . . .
82(9) . . .
78(9) . . .
94(10) . . .
92(10) . . .
87(9) . . .
96(10) . . .
100(10) . . .
105(10) . . .
82(9) . . .
104(10) . . .
85(9) . . .
88(9) . . .
79(9) . . .
78(9) . . .
83(9) . . .
87(9) . . .
79(9) . . .
93(10) . . .
87(9) . . .
79(9) . . .
90(9) . . .
88(9) . . .
94(10) . . .
81(9) . . .
82(9) . . .
81(9) . . .
92(10) . . .
87(9) . . .
76(9) . . .
94(10) . . .
89(9) . . .
82(9) . . .
88(9) . . .
74(9) . . .
90(9) . . .
95(10) . . .
86(9) . . .
98(10) . . .
94(10) . . .
82(9) . . .
81(9) . . .
95(10) . . .
85(9) . . .
89(9) . . .
100(10) . . .
87(9) . . .
93(10) . . .
86(9) . . .
91(10) . . .
89(9) . . .
81(9) . . .
89(9) . . .
87(9) . . .
97(10) . . .
94(10) . . .
79(9) . . .
81(9) . . .
93(10) . . .
98(10) . . .
90(9) . . .
79(9) . . .
71(8) . . .
84(9) . . .
83(9) . . .
91(10) . . .
65(8) . . .
68(8) . . .
76(9) . . .
85(9) . . .
99(10) . . .
82(9) . . .
69(8) . . .
92(10) . . .
93(10) . . .
80(9) . . .
73(9) . . .
77(9) . . .
63(8) . . .
87(9) . . .
77(9) . . .
87(9) . . .
90(9) . . .
94(10) . . .
66(8) . . .
83(9) . . .
83(9) . . .
93(10) . . .
90(9) . . .
89(9) . . .
91(10) . . .
79(9) . . .
97(10) . . .
90(9) . . .
86(9) . . .
75(9) . . .
91(10) . . .
81(9) . . .
83(9) . . .
77(9) . . .
78(9) . . .
94(10) . . .
89(9) . . .
83(9) . . .
78(9) . . .
74(9) . . .
85(9) . . .
84(9) . . .
81(9) . . .
75(9) . . .
89(9) . . .
76(9) . . .
89(9) . . .
82(9) . . .
85(9) . . .
83(9) . . .
90(9) . . .
92(10) . . .
63(8) . . .
78(9) . . .
75(9) . . .
91(10) . . .
82(9) . . .
94(10) . . .
76(9) . . .
87(9) . . .
97(10) . . .
68(8) . . .
92(10) . . .
81(9) . . .
88(9) . . .
97(10) . . .
90(9) . . .
92(10) . . .
96(10) . . .
73(9) . . .
70(8) . . .
79(9) . . .
86(9) . . .
86(9) . . .
88(9) . . .
78(9) . . .
95(10) . . .
70(8) . . .
78(9) . . .
72(8) . . .
83(9) . . .
89(9) . . .
86(9) . . .
70(8) . . .
90(9) . . .
82(9) . . .
72(8) . . .
86(9) . . .
84(9) . . .
97(10) . . .
89(9) . . .
75(9) . . .
82(9) . . .
87(9) . . .
96(10) . . .
73(9) . . .
93(10) . . .
93(10) . . .
81(9) . . .
81(9) . . .
72(8) . . .
73(9) . . .
84(9) . . .
91(10) . . .
81(9) . . .
77(9) . . .
101(10) . . .
88(9) . . .
68(8) . . .
85(9) . . .
95(10) . . .
81(9) . . .
87(9) . . .
89(9) . . .
85(9) . . .
80(9) . . .
89(9) . . .
78(9) . . .
90(9) . . .
91(10) . . .
86(9) . . .
110(10) . . .
73(9) . . .
87(9) . . .
79(9) . . .
83(9) . . .
91(10) . . .
90(9) . . .
83(9) . . .
90(9) . . .
86(9) . . .
76(9) . . .
84(9) . . .
73(9) . . .
101(10) . . .
82(9) . . .
73(9) . . .
67(8) . . .
78(9) . . .
77(9) . . .
79(9) . . .
72(8) . . .
86(9) . . .
92(10) . . .
88(9) . . .
92(10) . . .
94(10) . . .
87(9) . . .
79(9) . . .
79(9) . . .
73(9) . . .
77(9) . . .
98(10) . . .
83(9) . . .
85(9) . . .
86(9) . . .
74(9) . . .
77(9) . . .
80(9) . . .
85(9) . . .
74(9) . . .
88(9) . . .
70(8) . . .
86(9) . . .
83(9) . . .
88(9) . . .
78(9) . . .
95(10) . . .
94(10) . . .
82(9) . . .
78(9) . . .
72(8) . . .
89(9) . . .
82(9) . . .
85(9) . . .
88(9) . . .
79(9) . . .
90(9) . . .
79(9) . . .
94(10) . . .
84(9) . . .
74(9) . . .
78(9) . . .
83(9) . . .
84(9) . . .
88(9) . . .
78(9) . . .
89(9) . . .
79(9) . . .
78(9) . . .
82(9) . . .
87(9) . . .
97(10) . . .
73(9) . . .
92(10) . . .
81(9) . . .
89(9) . . .
70(8) . . .
87(9) . . .
100(10) . . .
91(10) . . .
78(9) . . .
76(9) . . .
72(8) . . .
80(9) . . .
92(10) . . .
78(9) . . .
93(10) . . .
86(9) . . .
84(9) . . .
88(9) . . .
98(10) . . .
81(9) . . .
87(9) . . .
85(9) . . .
95(10) . . .
81(9) . . .
76(9) . . .
77(9) . . .
79(9) . . .
88(9) . . .
87(9) . . .
74(9) . . .
97(10) . . .
83(9) . . .
98(10) . . .
80(9) . . .
85(9) . . .
90(9) . . .
88(9) . . .
79(9) . . .
78(9) . . .
86(9) . . .
70(8) . . .
86(9) . . .
71(8) . . .
96(10) . . .
78(9) . . .
89(9) . . .
75(9) . . .
95(10) . . .
78(9) . . .
97(10) . . .
78(9) . . .
87(9) . . .
90(9) . . .
85(9) . . .
75(9) . . .
82(9) . . .
93(10) . . .
93(10) . . .
85(9) . . .
87(9) . . .
88(9) . . .
75(9) . . .
71(8) . . .
84(9) . . .
95(10) . . .
79(9) . . .
60(8) . . .
96(10) . . .
86(9) . . .
99(10) . . .
95(10) . . .
95(10) . . .
95(10) . . .
81(9) . . .
91(10) . . .
101(10) . . .
82(9) . . .
85(9) . . .
93(10) . . .
78(9) . . .
84(9) . . .
75(9) . . .
95(10) . . .
75(9) . . .
68(8) . . .
82(9) . . .
78(9) . . .
93(10) . . .
76(9) . . .
70(8) . . .
85(9) . . .
84(9) . . .
96(10) . . .
91(10) . . .
98(10) . . .
76(9) . . .
85(9) . . .
87(9) . . .
77(9) . . .
97(10) . . .
82(9) . . .
95(10) . . .
72(8) . . .
81(9) . . .
85(9) . . .
100(10) . . .
89(9) . . .
75(9) . . .
79(9) . . .
67(8) . . .
84(9) . . .
94(10) . . .
98(10) . . .
89(9) . . .
80(9) . . .
85(9) . . .
83(9) . . .
92(10) . . .
97(10) . . .
85(9) . . .
80(9) . . .
81(9) . . .
77(9) . . .
95(10) . . .
82(9) . . .
85(9) . . .
77(9) . . .
74(9) . . .
74(9) . . .
75(9) . . .
75(9) . . .
101(10) . . .
92(10) . . .
70(8) . . .
84(9) . . .
76(9) . . .
89(9) . . .
94(10) . . .
75(9) . . .
75(9) . . .
86(9) . . .
81(9) . . .
83(9) . . .
82(9) . . .
82(9) . . .
87(9) . . .
82(9) . . .
85(9) . . .
79(9) . . .
91(10) . . .
83(9) . . .
83(9) . . .
86(9) . . .
87(9) . . .
70(8) . . .
87(9) . . .
90(9) . . .
76(9) . . .
97(10) . . .
91(10) . . .
95(10) . . .
89(9) . . .
74(9) . . .
66(8) . . .
98(10) . . .
66(8) . . .
82(9) . . .
79(9) . . .
69(8) . . .
85(9) . . .
74(9) . . .
91(10) . . .
87(9) . . .
88(9) . . .
83(9) . . .
94(10) . . .
89(9) . . .
101(10) . . .
83(9) . . .
91(10) . . .
90(9) . . .
91(10) . . .
87(9) . . .
81(9) . . .
81(9) . . .
82(9) . . .
93(10) . . .
87(9) . . .
83(9) . . .
88(9) . . .
83(9) . . .
93(10) . . .
76(9) . . .
76(9) . . .
80(9) . . .
82(9) . . .
90(9) . . .
87(9) . . .
80(9) . . .
85(9) . . .
97(10) . . .
80(9) . . .
85(9) . . .
87(9) . . .
89(9) . . .
91(10) . . .
82(9) . . .
85(9) . . .
95(10) . . .
84(9) . . .
86(9) . . .
88(9) . . .
91(10) . . .
78(9) . . .
95(10) . . .
104(10) . . .
91(10) . . .
96(10) . . .
84(9) . . .
80(9) . . .
101(10) . . .
95(10) . . .
76(9) . . .
88(9) . . .
95(10) . . .
84(9) . . .
83(9) . . .
77(9) . . .
84(9) . . .
100(10) . . .
83(9) . . .
94(10) . . .
94(10) . . .
81(9) . . .
90(9) . . .
77(9) . . .
89(9) . . .
88(9) . . .
79(9) . . .
98(10) . . .
75(9) . . .
84(9) . . .
87(9) . . .
88(9) . . .
74(9) . . .
82(9) . . .
75(9) . . .
80(9) . . .
89(9) . . .
74(9) . . .
89(9) . . .
91(10) . . .
88(9) . . .
77(9) . . .
74(9) . . .
69(8) . . .
101(10) . . .
80(9) . . .
84(9) . . .
94(10) . . .
84(9) . . .
87(9) . . .
74(9) . . .
85(9) . . .
70(8) . . .
71(8) . . .
67(8) . . .
84(9) . . .
87(9) . . .
81(9) . . .
77(9) . . .
91(10) . . .
83(9) . . .
79(9) . . .
81(9) . . .
75(9) . . .
80(9) . . .
91(10) . . .
88(9) . . .
95(10) . . .
101(10) . . .
106(10) . . .
86(9) . . .
69(8) . . .
82(9) . . .
83(9) . . .
76(9) . . .
85(9) . . .
90(9) . . .
82(9) . . .
94(10) . . .
99(10) . . .
78(9) . . .
72(8) . . .
80(9) . . .
75(9) . . .
75(9) . . .
87(9) . . .
93(10) . . .
80(9) . . .
78(9) . . .
85(9) . . .
81(9) . . .
86(9) . . .
82(9) . . .
95(10) . . .
88(9) . . .
85(9) . . .
91(10) . . .
105(10) . . .
99(10) . . .
69(8) . . .
83(9) . . .
89(9) . . .
88(9) . . .
87(9) . . .
89(9) . . .
79(9) . . .
88(9) . . .
84(9) . . .
96(10) . . .
84(9) . . .
83(9) . . .
82(9) . . .
81(9) . . .
77(9) . . .
104(10) . . .
77(9) . . .
87(9) . . .
105(10) . . .
93(10) . . .
84(9) . . .
103(10) . . .
85(9) . . .
94(10) . . .
89(9) . . .
79(9) . . .
93(10) . . .
92(10) . . .
99(10) . . .
81(9) . . .
90(9) . . .
94(10) . . .
93(10) . . .
97(10) . . .
78(9) . . .
89(9) . . .
80(9) . . .
77(9) . . .
100(10) . . .
89(9) . . .
93(10) . . .
96(10) . . .
90(9) . . .
72(8) . . .
74(9) . . .
69(8) . . .
76(9) . . .
78(9) . . .
83(9) . . .
61(8) . . .
76(9) . . .
98(10) . . .
93(10) . . .
93(10) . . .
74(9) . . .
86(9) . . .
81(9) . . .
86(9) . . .
88(9) . . .
90(9) . . .
73(9) . . .
83(9) . . .
82(9) . . .
87(9) . . .
81(9) . . .
91(10) . . .
89(9) . . .
89(9) . . .
79(9) . . .
95(10) . . .
109(10) . . .
84(9) . . .
93(10) . . .
84(9) . . .
83(9) . . .
77(9) . . .
79(9) . . .
83(9) . . .
92(10) . . .
93(10) . . .
71(8) . . .
93(10) . . .
89(9) . . .
76(9) . . .
75(9) . . .
92(10) . . .
104(10) . . .
81(9) . . .
97(10) . . .
104(10) . . .
95(10) . . .
88(9) . . .
75(9) . . .
83(9) . . .
102(10) . . .
94(10) . . .
90(9) . . .
83(9) . . .
85(9) . . .
93(10) . . .
99(10) . . .
84(9) . . .
100(10) . . .
84(9) . . .
80(9) . . .
91(10) . . .
99(10) . . .
84(9) . . .
98(10) . . .
107(10) . . .
91(10) . . .
94(10) . . .
106(10) . . .
97(10) . . .
93(10) . . .
94(10) . . .
96(10) . . .
100(10) . . .
118(11) . . .
99(10) . . .
103(10) . . .
98(10) . . .
114(11) . . .
98(10) . . .
86(9) . . .
90(9) . . .
93(10) . . .
101(10) . . .
115(11) . . .
104(10) . . .
105(10) . . .
115(11) . . .
100(10) . . .
106(10) . . .
103(10) . . .
102(10) . . .
103(10) . . .
121(11) . . .
103(10) . . .
101(10) . . .
118(11) . . .
97(10) . . .
107(10) . . .
110(10) . . .
100(10) . . .
87(9) . . .
98(10) . . .
98(10) . . .
92(10) . . .
100(10) . . .
87(9) . . .
111(11) . . .
98(10) . . .
102(10) . . .
100(10) . . .
85(9) . . .
108(10) . . .
94(10) . . .
89(9) . . .
92(10) . . .
94(10) . . .
94(10) . . .
93(10) . . .
95(10) . . .
90(9) . . .
90(9) . . .
76(9) . . .
103(10) . . .
82(9) . . .
86(9) . . .
80(9) . . .
86(9) . . .
98(10) . . .
80(9) . . .
85(9) . . .
97(10) . . .
101(10) . . .
84(9) . . .
72(8) . . .
91(10) . . .
87(9) . . .
86(9) . . .
84(9) . . .
88(9) . . .
96(10) . . .
70(8) . . .
88(9) . . .
87(9) . . .
91(10) . . .
79(9) . . .
80(9) . . .
88(9) . . .
92(10) . . .
83(9) . . .
73(9) . . .
85(9) . . .
76(9) . . .
95(10) . . .
91(10) . . .
85(9) . . .
84(9) . . .
81(9) . . .
92(10) . . .
82(9) . . .
77(9) . . .
86(9) . . .
83(9) . . .
105(10) . . .
89(9) . . .
87(9) . . .
97(10) . . .
84(9) . . .
97(10) . . .
85(9) . . .
71(8) . . .
90(9) . . .
87(9) . . .
85(9) . . .
80(9) . . .
71(8) . . .
84(9) . . .
101(10) . . .
88(9) . . .
88(9) . . .
88(9) . . .
97(10) . . .
90(9) . . .
79(9) . . .
88(9) . . .
87(9) . . .
72(8) . . .
69(8) . . .
80(9) . . .
98(10) . . .
77(9) . . .
72(8) . . .
78(9) . . .
83(9) . . .
87(9) . . .
88(9) . . .
96(10) . . .
71(8) . . .
88(9) . . .
87(9) . . .
83(9) . . .
89(9) . . .
85(9) . . .
91(10) . . .
97(10) . . .
85(9) . . .
89(9) . . .
87(9) . . .
75(9) . . .
79(9) . . .
71(8) . . .
85(9) . . .
78(9) . . .
92(10) . . .
75(9) . . .
82(9) . . .
83(9) . . .
87(9) . . .
87(9) . . .
79(9) . . .
81(9) . . .
87(9) . . .
81(9) . . .
83(9) . . .
93(10) . . .
86(9) . . .
91(10) . . .
85(9) . . .
89(9) . . .
88(9) . . .
73(9) . . .
80(9) . . .
91(10) . . .
86(9) . . .
78(9) . . .
81(9) . . .
77(9) . . .
81(9) . . .
100(10) . . .
87(9) . . .
85(9) . . .
84(9) . . .
74(9) . . .
93(10) . . .
81(9) . . .
90(9) . . .
78(9) . . .
97(10) . . .
103(10) . . .
82(9) . . .
95(10) . . .
88(9) . . .
85(9) . . .
88(9) . . .
101(10) . . .
82(9) . . .
98(10) . . .
92(10) . . .
83(9) . . .
70(8) . . .
76(9) . . .
92(10) . . .
88(9) . . .
88(9) . . .
83(9) . . .
91(10) . . .
88(9) . . .
73(9) . . .
75(9) . . .
84(9) . . .
87(9) . . .
88(9) . . .
76(9) . . .
75(9) . . .
97(10) . . .
90(9) . . .
68(8) . . .
80(9) . . .
77(9) . . .
85(9) . . .
89(9) . . .
86(9) . . .
90(9) . . .
80(9) . . .
84(9) . . .
93(10) . . .
93(10) . . .
81(9) . . .
73(9) . . .
82(9) . . .
77(9) . . .
75(9) . . .
80(9) . . .
85(9) . . .
91(10) . . .
75(9) . . .
77(9) . . .
92(10) . . .
77(9) . . .
86(9) . . .
86(9) . . .
84(9) . . .
82(9) . . .
78(9) . . .
88(9) . . .
86(9) . . .
87(9) . . .
89(9) . . .
100(10) . . .
92(10) . . .
86(9) . . .
84(9) . . .
94(10) . . .
85(9) . . .
86(9) . . .
86(9) . . .
86(9) . . .
79(9) . . .
82(9) . . .
85(9) . . .
85(9) . . .
75(9) . . .
80(9) . . .
73(9) . . .
81(9) . . .
76(9) . . .
74(9) . . .
80(9) . . .
94(10) . . .
88(9) . . .
82(9) . . .
94(10) . . .
95(10) . . .
84(9) . . .
70(8) . . .
73(9) . . .
84(9) . . .
85(9) . . .
82(9) . . .
87(9) . . .
102(10) . . .
78(9) . . .
82(9) . . .
82(9) . . .
90(9) . . .
84(9) . . .
76(9) . . .
80(9) . . .
92(10) . . .
92(10) . . .
88(9) . . .
80(9) . . .
87(9) . . .
83(9) . . .
72(8) . . .
69(8) . . .
82(9) . . .
86(9) . . .
79(9) . . .
100(10) . . .
81(9) . . .
86(9) . . .
80(9) . . .
67(8) . . .
74(9) . . .
95(10) . . .
87(9) . . .
89(9) . . .
84(9) . . .
71(8) . . .
81(9) . . .
82(9) . . .
89(9) . . .
78(9) . . .
82(9) . . .
64(8) . . .
83(9) . . .
82(9) . . .
92(10) . . .
92(10) . . .
81(9) . . .
85(9) . . .
62(8) . . .
88(9) . . .
83(9) . . .
88(9) . . .
86(9) . . .
82(9) . . .
92(10) . . .
84(9) . . .
91(10) . . .
93(10) . . .
85(9) . . .
91(10) . . .
82(9) . . .
81(9) . . .
79(9) . . .
80(9) . . .
84(9) . . .
101(10) . . .
91(10) . . .
91(10) . . .
80(9) . . .
70(8) . . .
94(10) . . .
79(9) . . .
70(8) . . .
90(9) . . .
79(9) . . .
98(10) . . .
94(10) . . .
82(9) . . .
91(10) . . .
79(9) . . .
73(9) . . .
94(10) . . .
88(9) . . .
75(9) . . .
77(9) . . .
93(10) . . .
88(9) . . .
93(10) . . .
77(9) . . .
82(9) . . .
91(10) . . .
91(10) . . .
79(9) . . .
79(9) . . .
74(9) . . .
82(9) . . .
77(9) . . .
83(9) . . .
82(9) . . .
90(9) . . .
89(9) . . .
80(9) . . .
81(9) . . .
82(9) . . .
74(9) . . .
88(9) . . .
77(9) . . .
85(9) . . .
75(9) . . .
94(10) . . .
91(10) . . .
82(9) . . .
96(10) . . .
70(8) . . .
84(9) . . .
79(9) . . .
82(9) . . .
78(9) . . .
77(9) . . .
90(9) . . .
82(9) . . .
81(9) . . .
72(8) . . .
93(10) . . .
73(9) . . .
83(9) . . .
67(8) . . .
86(9) . . .
89(9) . . .
77(9) . . .
79(9) . . .
83(9) . . .
83(9) . . .
77(9) . . .
86(9) . . .
87(9) . . .
80(9) . . .
84(9) . . .
65(8) . . .
98(10) . . .
72(8) . . .
78(9) . . .
82(9) . . .
90(9) . . .
78(9) . . .
88(9) . . .
87(9) . . .
87(9) . . .
85(9) . . .
74(9) . . .
95(10) . . .
77(9) . . .
86(9) . . .
78(9) . . .
80(9) . . .
86(9) . . .
98(10) . . .
72(8) . . .
97(10) . . .
80(9) . . .
85(9) . . .
88(9) . . .
75(9) . . .
78(9) . . .
85(9) . . .
83(9) . . .
76(9) . . .
76(9) . . .
81(9) . . .
69(8) . . .
84(9) . . .
76(9) . . .
73(9) . . .
73(9) . . .
80(9) . . .
73(9) . . .
85(9) . . .
88(9) . . .
87(9) . . .
93(10) . . .
74(9) . . .
71(8) . . .
86(9) . . .
81(9) . . .
101(10) . . .
93(10) . . .
72(8) . . .
78(9) . . .
87(9) . . .
80(9) . . .
90(9) . . .
90(9) . . .
91(10) . . .
86(9) . . .
79(9) . . .
72(8) . . .
107(10) . . .
89(9) . . .
70(8) . . .
75(9) . . .
89(9) . . .
75(9) . . .
88(9) . . .
98(10) . . .
92(10) . . .
76(9) . . .
84(9) . . .
83(9) . . .
93(10) . . .
79(9) . . .
87(9) . . .
60(8) . . .
77(9) . . .
72(8) . . .
82(9) . . .
86(9) . . .
95(10) . . .
75(9) . . .
78(9) . . .
79(9) . . .
77(9) . . .
82(9) . . .
76(9) . . .
82(9) . . .
85(9) . . .
93(10) . . .
77(9) . . .
86(9) . . .
86(9) . . .
83(9) . . .
87(9) . . .
69(8) . . .
77(9) . . .
75(9) . . .
81(9) . . .
86(9) . . .
98(10) . . .
84(9) . . .
96(10) . . .
82(9) . . .
83(9) . . .
84(9) . . .
81(9) . . .
85(9) . . .
76(9) . . .
80(9) . . .
65(8) . . .
76(9) . . .
75(9) . . .
80(9) . . .
83(9) . . .
90(9) . . .
71(8) . . .
81(9) . . .
86(9) . . .
70(8) . . .
76(9) . . .
93(10) . . .
83(9) . . .
76(9) . . .
81(9) . . .
80(9) . . .
79(9) . . .
86(9) . . .
72(8) . . .
79(9) . . .
78(9) . . .
80(9) . . .
90(9) . . .
77(9) . . .
83(9) . . .
81(9) . . .
100(10) . . .
88(9) . . .
87(9) . . .
80(9) . . .
77(9) . . .
70(8) . . .
80(9) . . .
82(9) . . .
76(9) . . .
85(9) . . .
93(10) . . .
74(9) . . .
87(9) . . .
88(9) . . .
86(9) . . .
103(10) . . .
90(9) . . .
82(9) . . .
101(10) . . .
78(9) . . .
71(8) . . .
96(10) . . .
86(9) . . .
82(9) . . .
63(8) . . .
89(9) . . .
72(8) . . .
81(9) . . .
76(9) . . .
93(10) . . .
86(9) . . .
84(9) . . .
72(8) . . .
92(10) . . .
98(10) . . .
83(9) . . .
75(9) . . .
78(9) . . .
100(10) . . .
72(8) . . .
77(9) . . .
96(10) . . .
94(10) . . .
87(9) . . .
83(9) . . .
69(8) . . .
87(9) . . .
88(9) . . .
92(10) . . .
80(9) . . .
88(9) . . .
97(10) . . .
82(9) . . .
76(9) . . .
82(9) . . .
66(8) . . .
78(9) . . .
80(9) . . .
84(9) . . .
93(10) . . .
74(9) . . .
87(9) . . .
86(9) . . .
67(8) . . .
75(9) . . .
88(9) . . .
76(9) . . .
83(9) . . .
75(9) . . .
85(9) . . .
84(9) . . .
81(9) . . .
88(9) . . .
91(10) . . .
83(9) . . .
97(10) . . .
70(8) . . .
82(9) . . .
78(9) . . .
84(9) . . .
88(9) . . .
71(8) . . .
99(10) . . .
88(9) . . .
84(9) . . .
70(8) . . .
87(9) . . .
82(9) . . .
90(9) . . .
84(9) . . .
82(9) . . .
73(9) . . .
88(9) . . .
90(9) . . .
75(9) . . .
74(9) . . .
93(10) . . .
76(9) . . .
87(9) . . .
83(9) . . .
76(9) . . .
84(9) . . .
97(10) . . .
92(10) . . .
95(10) . . .
77(9) . . .
85(9) . . .
83(9) . . .
82(9) . . .
83(9) . . .
77(9) . . .
78(9) . . .
79(9) . . .
107(10) . . .
82(9) . . .
81(9) . . .
76(9) . . .
81(9) . . .
89(9) . . .
84(9) . . .
68(8) . . .
79(9) . . .
87(9) . . .
79(9) . . .
76(9) . . .
92(10) . . .
90(9) . . .
74(9) . . .
65(8) . . .
105(10) . . .
92(10) . . .
85(9) . . .
68(8) . . .
74(9) . . .
82(9) . . .
82(9) . . .
74(9) . . .
97(10) . . .
81(9) . . .
80(9) . . .
84(9) . . .
83(9) . . .
73(9) . . .
81(9) . . .
81(9) . . .
74(9) . . .
73(9) . . .
82(9) . . .
92(10) . . .
84(9) . . .
87(9) . . .
84(9) . . .
78(9) . . .
68(8) . . .
83(9) . . .
86(9) . . .
81(9) . . .
80(9) . . .
65(8) . . .
75(9) . . .
82(9) . . .
87(9) . . .
86(9) . . .
85(9) . . .
85(9) . . .
69(8) . . .
94(10) . . .
79(9) . . .
77(9) . . .
87(9) . . .
89(9) . . .
72(8) . . .
70(8) . . .
65(8) . . .
78(9) . . .
75(9) . . .
91(10) . . .
76(9) . . .
76(9) . . .
74(9) . . .
83(9) . . .
88(9) . . .
74(9) . . .
88(9) . . .
99(10) . . .
78(9) . . .
73(9) . . .
84(9) . . .
92(10) . . .
79(9) . . .
71(8) . . .
88(9) . . .
95(10) . . .
87(9) . . .
80(9) . . .
81(9) . . .
73(9) . . .
76(9) . . .
84(9) . . .
84(9) . . .
105(10) . . .
78(9) . . .
86(9) . . .
71(8) . . .
69(8) . . .
88(9) . . .
77(9) . . .
77(9) . . .
87(9) . . .
95(10) . . .
80(9) . . .
82(9) . . .
88(9) . . .
81(9) . . .
95(10) . . .
81(9) . . .
85(9) . . .
81(9) . . .
85(9) . . .
80(9) . . .
80(9) . . .
74(9) . . .
88(9) . . .
74(9) . . .
87(9) . . .
82(9) . . .
75(9) . . .
91(10) . . .
83(9) . . .
70(8) . . .
84(9) . . .
87(9) . . .
82(9) . . .
94(10) . . .
83(9) . . .
80(9) . . .
83(9) . . .
88(9) . . .
78(9) . . .
86(9) . . .
82(9) . . .
78(9) . . .
96(10) . . .
94(10) . . .
78(9) . . .
92(10) . . .
77(9) . . .
72(8) . . .
76(9) . . .
78(9) . . .
87(9) . . .
77(9) . . .
75(9) . . .
80(9) . . .
73(9) . . .
94(10) . . .
82(9) . . .
83(9) . . .
93(10) . . .
81(9) . . .
77(9) . . .
90(9) . . .
89(9) . . .
83(9) . . .
63(8) . . .
77(9) . . .
80(9) . . .
81(9) . . .
82(9) . . .
75(9) . . .
88(9) . . .
84(9) . . .
79(9) . . .
83(9) . . .
73(9) . . .
77(9) . . .
93(10) . . .
87(9) . . .
81(9) . . .
88(9) . . .
81(9) . . .
82(9) . . .
80(9) . . .
79(9) . . .
77(9) . . .
78(9) . . .
70(8) . . .
88(9) . . .
82(9) . . .
82(9) . . .
77(9) . . .
82(9) . . .
77(9) . . .
80(9) . . .
22(5) . . .
0.00(10) . . .
0.00(10) . . .
0.00(10) . . .
0.0(10) . . .
loop_
_refln_index_h
_refln_index_k
_refln_index_l
_refln_observed_status
_refln_F_squared_meas
_refln_F_squared_calc
_refln_phase_calc
_refln_d_spacing
_gsas_i100_meas
0 2 0 o 1448.452 1492.312 180.00 8.20149 5.56
0 0 2 o 98.302 172.657 180.00 6.58812 0.24
1 0 1 o 13624.009 13376.296 0.00 5.87585 53.70
0 3 1 o 1378.162 1538.918 180.00 5.05012 4.01
0 2 2 o 33186.945 32772.492 0.00 5.13622 100.00
0 1 3 o 0.053 0.192 180.00 4.24262 0.00
1 1 2 o 3914.277 3844.476 0.00 4.47391 17.91
1 2 1 o 1722.200 1831.909 0.00 4.77651 8.98
0 4 0 o 2520.449 1615.314 0.00 4.10075 2.42
1 0 3 o 39.695 169.677 180.00 3.65043 0.06
0 0 4 o 150.019 251.925 180.00 3.29406 0.09
0 3 3 o 12041.719 12848.947 0.00 3.42415 16.17
0 2 4 o 975.981 1202.328 0.00 3.05672 1.05
1 2 3 o 654.397 910.084 0.00 3.33500 1.67
1 3 2 o 3507.083 3893.277 0.00 3.54232 10.08
0 4 2 o 1.349 8.388 0.00 3.48142 0.00
1 4 1 o 733.077 818.152 180.00 3.36278 1.90
0 5 1 o 7.550 15.459 180.00 3.18341 0.01
1 1 4 o 150.040 106.330 0.00 2.89789 0.29
2 0 0 o 2263.920 2133.999 180.00 3.28237 1.40
0 1 5 o 1810.286 1829.330 180.00 2.60188 1.41
2 1 1 o 825.437 866.984 180.00 3.12664 1.85
0 6 0 o 2134.465 2017.664 0.00 2.73383 0.92
2 2 0 o 64.049 72.500 0.00 3.04738 0.07
2 0 2 o 482.384 336.636 0.00 2.93792 0.48
1 0 5 o 784.594 713.860 180.00 2.44556 0.54
1 3 4 o 36.363 35.534 0.00 2.59227 0.06
2 2 2 o 2428.970 2030.168 180.00 2.76582 4.27
1 5 2 o 3068.721 2902.965 180.00 2.68066 5.06
2 3 1 o 717.036 616.140 0.00 2.75214 1.25
1 4 3 o 5612.789 5655.136 0.00 2.72661 9.58
2 1 3 o 1194.411 1136.579 0.00 2.59611 1.85
0 4 4 o 11002.456 12219.031 0.00 2.56811 8.34
0 6 2 o 256.022 503.928 0.00 2.52506 0.19
1 6 1 o 684.010 922.965 0.00 2.47868 0.97
0 0 6 o 3013.786 2791.805 0.00 2.19604 0.84
2 4 0 o 1453.087 1651.138 180.00 2.56256 1.10
0 5 3 o 466.134 553.061 180.00 2.62834 0.37
0 2 6 o 300.750 525.717 180.00 2.12131 0.16
1 1 6 o 1277.381 1105.378 180.00 2.06602 1.26
2 2 4 o 61.229 29.087 0.00 2.23695 0.07
2 4 2 o 267.267 250.400 180.00 2.38826 0.35
2 5 1 o 75.351 15.178 0.00 2.28520 0.09
0 8 0 o 123.001 100.851 0.00 2.05037 0.03
0 1 7 o 910.900 794.520 0.00 1.87005 0.37
1 4 5 o 101.560 94.076 180.00 2.10041 0.10
2 6 0 o 2570.215 2368.533 180.00 2.10065 1.31
1 7 2 o 3301.435 2731.602 0.00 2.09261 3.34
1 5 4 o 6566.247 6362.501 0.00 2.19117 7.27
1 0 7 o 1059.457 1165.831 0.00 1.80941 0.40
1 6 3 o 5057.662 4809.301 180.00 2.18821 5.58
1 3 6 o 902.485 924.139 0.00 1.94620 0.79
0 4 6 o 2249.170 2278.130 180.00 1.93592 0.98
1 8 1 o 610.686 616.355 180.00 1.93590 0.53
0 5 5 o 25337.582 22796.480 0.00 2.05449 12.35
3 0 1 o 3088.729 2609.784 180.00 2.15868 1.66
0 8 2 o 1757.610 1994.715 180.00 1.95775 0.78
0 7 3 o 7560.074 6886.313 0.00 2.06744 3.73
0 3 7 o 973.155 1244.386 0.00 1.77980 0.36
1 2 7 o 1028.984 1214.485 180.00 1.76692 0.75
2 3 5 o 732.353 864.763 0.00 1.92356 0.63
2 0 6 o 0.079 0.088 0.00 1.82521 0.00
3 1 2 o 3177.035 3065.874 180.00 2.06024 3.11
0 6 4 o 8053.942 7477.258 180.00 2.10371 4.11
3 2 1 o 83.958 53.493 0.00 2.08758 0.08
2 5 3 o 165.390 148.867 0.00 2.05164 0.16
0 9 1 o 3538.931 3896.226 0.00 1.80536 1.34
2 7 1 o 525.037 554.829 180.00 1.88749 0.43
3 0 3 o 3012.160 3351.479 0.00 1.95862 1.34
0 0 8 o 41.111 64.596 180.00 1.64703 0.01
2 2 6 o 764.966 1013.248 180.00 1.78163 0.56
0 2 8 o 846.472 879.110 180.00 1.61479 0.26
3 3 2 o 1006.112 797.057 0.00 1.94138 0.88
3 2 3 o 5294.647 4372.560 180.00 1.90505 4.45
1 1 8 o 865.724 1040.632 0.00 1.59000 0.51
3 4 1 o 805.810 659.971 180.00 1.91018 0.68
3 1 4 o 3792.857 3781.252 0.00 1.81157 2.89
1 5 6 o 868.823 1087.265 0.00 1.75824 0.62
2 1 7 o 264.615 312.667 0.00 1.62485 0.16
1 8 3 o 130.924 214.962 0.00 1.78768 0.10
2 8 0 o 16.730 21.969 0.00 1.73898 0.01
1 4 7 o 116.587 219.960 180.00 1.65542 0.07
1 9 2 o 14.111 15.437 0.00 1.69688 0.01
1 6 5 o 544.304 620.185 0.00 1.82270 0.42
0 10 0 o 7706.826 10501.072 180.00 1.64030 1.21
1 7 4 o 515.594 526.196 180.00 1.83346 0.40
2 4 6 o 1774.427 2300.285 0.00 1.66750 1.15
3 0 5 o 2874.621 2922.896 180.00 1.68350 0.95
0 9 3 o 61.281 62.018 180.00 1.68337 0.02
0 1 9 o 2697.550 1714.669 0.00 1.45823 0.67
1 3 8 o 52.147 72.726 0.00 1.53341 0.03
0 5 7 o 5.574 7.605 0.00 1.63266 0.00
2 5 5 o 2146.336 2635.874 180.00 1.74149 1.51
0 6 6 o 5275.025 6440.854 0.00 1.71207 1.80
2 7 3 o 1422.235 1411.515 180.00 1.74935 1.01
3 3 4 o 185.961 349.365 180.00 1.72917 0.13
0 8 4 o 994.578 1245.402 0.00 1.74071 0.35
2 8 2 o 52.686 56.593 180.00 1.68139 0.03
2 3 7 o 1783.334 2153.383 180.00 1.56460 1.02
3 4 3 o 223.341 240.642 180.00 1.76737 0.16
3 2 5 o 133.875 271.745 0.00 1.64912 0.08
1 10 1 o 339.207 455.838 180.00 1.57989 0.20
2 6 4 o 1126.867 1003.766 0.00 1.77116 0.82
3 5 2 o 284.743 303.249 0.00 1.75467 0.20
0 4 8 o 71.213 107.136 180.00 1.52836 0.02
0 10 2 o 812.549 950.699 0.00 1.59171 0.24
3 6 1 o 1703.623 1802.085 180.00 1.69419 1.14
0 7 5 o 1241.964 1159.931 180.00 1.75111 0.44
2 0 8 o 943.006 756.797 180.00 1.47210 0.24
2 9 1 o 15.486 21.241 180.00 1.58188 0.01
3 1 6 o 75.455 88.145 180.00 1.54320 0.04
1 2 9 o 132.643 58.276 180.00 1.40772 0.06
0 11 1 o 6332.943 5290.485 180.00 1.48172 1.63
1 6 7 o 325.556 520.316 0.00 1.50886 0.17
0 0 10 o 4118.247 6219.031 180.00 1.31762 0.42
2 10 0 o 64.503 50.744 0.00 1.46729 0.02
4 0 0 o 2505.988 3013.781 0.00 1.64119 0.39
3 4 5 o 37.249 46.724 180.00 1.55737 0.02
4 1 1 o 1354.273 1199.615 0.00 1.62063 0.83
1 10 3 o 9.685 15.067 180.00 1.49619 0.01
3 5 4 o 380.819 425.992 180.00 1.59331 0.23
3 6 3 o 356.802 411.598 0.00 1.59217 0.21
3 3 6 o 8.918 11.666 0.00 1.49130 0.00
3 7 2 o 1450.123 1891.125 180.00 1.55419 0.82
0 2 10 o 22.719 25.178 0.00 1.30094 0.00
4 0 2 o 147.663 167.718 180.00 1.59252 0.04
1 9 4 o 310.915 396.748 0.00 1.54966 0.17
2 5 7 o 3681.060 2548.358 0.00 1.46181 1.84
4 2 0 o 444.114 305.308 180.00 1.60928 0.13
1 7 6 o 467.420 586.750 0.00 1.55666 0.26
2 1 9 o 1020.495 1512.220 180.00 1.33264 0.43
1 1 10 o 46.244 43.422 0.00 1.28787 0.02
2 6 6 o 1923.414 3151.775 180.00 1.51799 1.04
1 4 9 o 1.372 3.005 0.00 1.34935 0.00
2 9 3 o 49.086 75.858 0.00 1.49788 0.03
3 2 7 o 91.881 40.598 0.00 1.40589 0.04
2 4 8 o 1727.531 1959.614 180.00 1.38553 0.78
2 8 4 o 1822.641 2393.145 180.00 1.53784 1.01
4 2 2 o 1678.511 2001.710 0.00 1.56332 0.96
1 8 5 o 472.367 646.851 180.00 1.57121 0.27
3 8 1 o 11.542 10.275 0.00 1.48665 0.01
4 1 3 o 373.394 526.215 180.00 1.53065 0.20
0 6 8 o 42.620 13.298 180.00 1.41078 0.01
4 3 1 o 725.276 891.395 180.00 1.56083 0.41
2 7 5 o 1722.821 1756.437 0.00 1.54500 0.96
0 12 0 o 2115.383 3299.054 0.00 1.36692 0.23
0 10 4 o 84.281 69.056 180.00 1.46833 0.02
0 7 7 o 6023.178 4876.725 0.00 1.46749 1.52
0 11 3 o 2695.901 759.123 0.00 1.41202 0.63
0 5 9 o 0.781 1.047 180.00 1.33694 0.00
4 4 0 o 927.817 1772.368 0.00 1.52369 0.25
4 0 4 o 1234.953 1028.802 0.00 1.46896 0.31
0 9 5 o 804.696 1126.374 0.00 1.49898 0.21
0 12 2 o 3158.039 4016.302 180.00 1.33841 0.67
2 3 9 o 995.501 1060.487 0.00 1.29879 0.40
1 3 10 o 1.006 0.855 180.00 1.25724 0.00
0 8 6 o 809.581 1142.927 180.00 1.49869 0.21
1 12 1 o 9.238 14.455 180.00 1.33136 0.00
3 1 8 o 874.577 1189.555 180.00 1.31172 0.36
0 4 10 o 16.399 13.932 180.00 1.25446 0.00
4 3 3 o 3008.836 2298.704 0.00 1.47997 1.54
4 4 2 o 1782.470 1340.794 180.00 1.48450 0.92
2 11 1 o 97.704 285.665 0.00 1.35050 0.04
4 5 1 o 3448.952 2477.700 0.00 1.45874 1.72
3 5 6 o 555.187 381.168 180.00 1.40150 0.26
0 1 11 o 2629.781 1653.954 180.00 1.19466 0.45
3 4 7 o 118.406 269.992 0.00 1.34774 0.05
4 1 5 o 1110.420 1150.485 0.00 1.38811 0.50
3 9 2 o 24.727 51.801 180.00 1.36983 0.01
1 0 11 o 1453.187 1062.780 180.00 1.17838 0.24
3 3 8 o 40.270 30.188 180.00 1.27940 0.02
2 2 10 o 2460.689 1111.311 180.00 1.20941 0.86
4 6 0 o 8733.971 3567.837 180.00 1.40710 2.03
0 3 11 o 289.898 224.375 0.00 1.17009 0.05
0 13 1 o 3302.960 2957.666 0.00 1.25602 0.62
1 7 8 o 333.334 620.485 0.00 1.31996 0.14
1 2 11 o 0.316 0.283 180.00 1.16641 0.00
1 11 4 o 14.564 25.427 180.00 1.33029 0.01
1 6 9 o 202.089 132.124 180.00 1.26637 0.08
2 6 8 o 2588.082 2591.261 0.00 1.29613 1.03
2 12 0 o 693.073 601.035 180.00 1.26187 0.13
4 3 5 o 30.997 110.923 180.00 1.34998 0.01
3 10 1 o 45.680 58.144 0.00 1.30603 0.02
4 4 4 o 731.383 932.819 0.00 1.38291 0.33
1 8 7 o 35.078 196.228 0.00 1.35668 0.02
2 5 9 o 3637.436 1702.313 180.00 1.23817 1.32
4 0 6 o 845.839 1194.345 180.00 1.31463 0.17
2 10 4 o 523.186 575.551 0.00 1.34033 0.22
2 7 7 o 3100.866 3438.666 180.00 1.33970 1.31
1 5 10 o 70.577 37.417 0.00 1.20202 0.02
2 11 3 o 1011.280 1012.155 180.00 1.29709 0.40
1 10 5 o 234.000 273.758 0.00 1.36225 0.10
1 12 3 o 70.978 55.036 180.00 1.28011 0.03
4 5 3 o 560.423 480.670 180.00 1.39209 0.26
4 6 2 o 661.017 1274.415 0.00 1.37607 0.29
4 2 6 o 346.485 351.241 0.00 1.29806 0.14
3 2 9 o 594.898 301.767 180.00 1.20363 0.20
2 9 5 o 3407.236 3423.208 180.00 1.36353 1.49
2 8 6 o 2420.320 2460.969 0.00 1.36330 1.06
4 7 1 o 2043.650 2341.878 180.00 1.33733 0.86
0 0 12 o 74.504 87.389 0.00 1.09802 0.01
0 7 9 o 900.517 508.571 0.00 1.24162 0.16
1 9 6 o 129.659 332.840 180.00 1.37152 0.06
2 12 2 o 1608.829 809.418 0.00 1.23934 0.59
0 12 4 o 55.103 50.584 180.00 1.26253 0.01
2 4 10 o 1269.709 909.984 0.00 1.17180 0.42
0 6 10 o 681.256 514.980 180.00 1.18695 0.11
2 1 11 o 1126.881 1535.671 0.00 1.12261 0.34
0 2 12 o 1898.068 2040.570 180.00 1.08831 0.27
0 11 5 o 615.900 607.854 0.00 1.29781 0.12
0 8 8 o 868.269 830.194 0.00 1.28406 0.17
1 4 11 o 16.744 24.435 180.00 1.13255 0.01
1 1 12 o 474.764 445.056 180.00 1.08062 0.13
4 1 7 o 1180.845 408.918 180.00 1.23352 0.43
0 5 11 o 135.071 188.127 0.00 1.12518 0.02
0 14 0 o 3920.105 2766.164 180.00 1.17164 0.32
4 8 0 o 2005.047 1723.547 0.00 1.28128 0.39
3 6 7 o 946.224 727.114 180.00 1.26504 0.36
3 7 6 o 85.785 87.449 0.00 1.29282 0.03
3 10 3 o 493.880 474.402 180.00 1.25754 0.18
0 9 7 o 0.553 0.804 0.00 1.30936 0.00
3 9 4 o 90.991 98.764 180.00 1.28880 0.04
4 4 6 o 37.930 34.538 180.00 1.25187 0.01
3 1 10 o 407.980 575.728 0.00 1.12612 0.12
4 5 5 o 574.056 531.833 0.00 1.28228 0.22
3 8 5 o 104.478 125.568 180.00 1.30112 0.04
0 10 6 o 3.826 4.909 180.00 1.31417 0.00
1 14 1 o 15.687 21.139 0.00 1.14902 0.00
4 7 3 o 779.170 809.809 0.00 1.28541 0.30
4 6 4 o 259.028 247.769 180.00 1.29399 0.10
2 3 11 o 637.777 789.127 180.00 1.10215 0.19
5 0 1 o 1697.145 2325.486 0.00 1.30648 0.34
2 13 1 o 1739.607 1180.952 180.00 1.17307 0.57
4 8 2 o 1802.997 1765.160 180.00 1.25772 0.68
0 14 2 o 400.167 577.847 0.00 1.15354 0.06
4 3 7 o 488.237 215.093 0.00 1.20653 0.17
4 0 8 o 71.165 75.986 0.00 1.16255 0.01
5 1 2 o 522.458 510.922 0.00 1.28368 0.20
5 2 1 o 453.324 580.177 0.00 1.29021 0.18
5 0 3 o 5.005 5.053 0.00 1.25794 0.00
4 2 8 o 198.990 284.490 180.00 1.15105 0.06
2 7 9 o 69.030 81.365 0.00 1.16131 0.02
3 3 10 o 53.647 71.123 180.00 1.10548 0.02
1 8 9 o 903.631 595.705 0.00 1.17232 0.30
1 7 10 o 93.898 141.323 180.00 1.13132 0.03
2 6 10 o 1.567 2.186 180.00 1.11621 0.00
3 12 1 o 175.637 264.675 180.00 1.15486 0.06
2 12 4 o 42.610 30.853 0.00 1.17837 0.01
5 3 2 o 632.864 619.676 0.00 1.25334 0.24
1 6 11 o 43.015 39.964 0.00 1.08214 0.01
2 8 8 o 367.899 207.865 180.00 1.19581 0.13
5 2 3 o 589.293 381.322 0.00 1.24340 0.22
1 13 4 o 20.383 27.520 180.00 1.15975 0.01
1 12 5 o 27.881 18.689 180.00 1.19318 0.01
1 9 8 o 88.557 51.506 0.00 1.20135 0.03
5 4 1 o 8.195 5.745 180.00 1.24483 0.00
2 14 0 o 1429.409 1808.670 0.00 1.10345 0.21
0 15 1 o 621.230 693.477 180.00 1.08979 0.09
1 14 3 o 33.062 46.937 180.00 1.11559 0.01
2 11 5 o 445.046 183.916 180.00 1.20690 0.15
2 13 3 o 46.368 68.537 180.00 1.13756 0.01
4 1 9 o 51.427 57.948 0.00 1.09009 0.01
4 10 0 o 1011.330 1383.203 180.00 1.16018 0.16
3 7 8 o 1584.953 2055.261 180.00 1.14739 0.50
3 6 9 o 1031.007 1518.593 0.00 1.11167 0.31
4 5 7 o 106.777 171.456 0.00 1.15747 0.03
0 8 10 o 123.897 178.833 0.00 1.10847 0.02
5 0 5 o 66.949 42.037 180.00 1.17517 0.01
4 6 6 o 0.063 0.048 0.00 1.18476 0.00
4 4 8 o 5.536 7.339 180.00 1.11848 0.00
5 3 4 o 48.901 38.231 0.00 1.19038 0.02
0 14 4 o 324.849 414.224 180.00 1.10389 0.05
4 7 5 o 88.431 48.377 0.00 1.19747 0.03
0 13 5 o 25.461 38.256 180.00 1.13804 0.00
5 4 3 o 2303.527 1423.000 0.00 1.20263 0.79
4 8 4 o 25.452 15.691 0.00 1.19413 0.01
2 14 2 o 0.809 0.905 0.00 1.08829 0.00
4 9 3 o 509.637 316.113 180.00 1.17513 0.17
5 5 2 o 672.414 385.386 180.00 1.19861 0.23
3 11 4 o 1758.201 2677.198 180.00 1.15415 0.56
5 2 5 o 217.544 188.914 0.00 1.16329 0.07
3 12 3 o 2193.812 2793.887 0.00 1.12093 0.66
0 9 9 o 610.539 795.328 0.00 1.14138 0.10
3 10 5 o 774.949 469.711 0.00 1.17484 0.25
5 6 1 o 486.081 375.799 0.00 1.17879 0.16
4 10 2 o 240.583 293.581 0.00 1.14260 0.08
0 12 6 o 270.777 392.855 0.00 1.16047 0.04
3 9 6 o 1970.661 1515.606 180.00 1.18077 0.65
0 10 8 o 14.815 15.734 180.00 1.16224 0.00
5 1 6 o 132.385 185.058 180.00 1.12425 0.04
4 11 1 o 300.719 359.555 180.00 1.09980 0.09
5 4 5 o 4.706 7.078 180.00 1.12970 0.00
5 5 4 o 1723.875 1945.948 0.00 1.14319 0.54
5 3 6 o 324.983 401.138 0.00 1.10370 0.10
5 6 3 o 752.870 873.314 180.00 1.14277 0.23
5 7 2 o 609.412 951.864 0.00 1.12848 0.19
4 7 7 o 42.074 43.704 0.00 1.09395 0.01
5 8 1 o 118.806 139.460 180.00 1.10181 0.03
4 8 6 o 1.252 2.016 0.00 1.10669 0.00
4 10 4 o 300.426 303.609 180.00 1.09429 0.09
2 12 6 o 54.439 54.689 0.00 1.09411 0.02
4 9 5 o 22.170 36.286 0.00 1.10681 0.01
2 10 8 o 542.014 559.974 0.00 1.09559 0.16
2 11 7 o 888.609 1092.606 180.00 1.10112 0.26
5 6 5 o 314.365 199.330 0.00 1.07965 0.09
1 12 7 o 162.134 195.413 0.00 1.09067 0.05
1 11 8 o 170.186 167.841 180.00 1.09008 0.05
5 7 4 o 20.364 17.358 180.00 1.08187 0.01
6 0 0 o 2761.087 2580.274 0.00 1.09412 0.20
6 1 1 o 295.231 459.458 0.00 1.08797 0.08
6 2 0 o 17.229 14.044 0.00 1.08452 0.00
