#------------------------------------------------------------------------------
#$Date: 2017-07-25 01:56:59 +0300 (Tue, 25 Jul 2017) $
#$Revision: 198938 $
#$URL: file:///home/coder/svn-repositories/cod/cif/4/00/28/4002831.cif $
#------------------------------------------------------------------------------
#
# This file is available in the Crystallography Open Database (COD),
# http://www.crystallography.net/
#
# All data on this site have been placed in the public domain by the
# contributors.
#
data_4002831
loop_
_publ_author_name
'Groom, Ryan'
'Jacobs, Allison'
'Cepeda, Marisa'
'Drummey, Rachel'
'Latturner, Susan E.'
_publ_section_title
;
 Bi13S18I2: (Re)discovery of a Subvalent Bismuth Compound Featuring
 [Bi2]4+ Dimers Grown in Sulfur/Iodine Flux Mixtures
;
_journal_name_full               'Chemistry of Materials'
_journal_paper_doi               10.1021/acs.chemmater.7b00702
_journal_year                    2017
_chemical_formula_sum            'Bi13 I2 S18'
_chemical_formula_weight         3547.62
_chemical_name_systematic
;
 ?
;
_space_group_crystal_system      trigonal
_space_group_IT_number           143
_space_group_name_Hall           'P 3'
_space_group_name_H-M_alt        'P 3'
_symmetry_space_group_name_Hall  'P 3'
_symmetry_space_group_name_H-M   'P 3'
_audit_creation_method           SHELXL-2014
_cell_angle_alpha                90
_cell_angle_beta                 90
_cell_angle_gamma                120
_cell_formula_units_Z            1
_cell_length_a                   15.612(2)
_cell_length_b                   15.612(2)
_cell_length_c                   4.0168(6)
_cell_measurement_reflns_used    2801
_cell_measurement_temperature    295(2)
_cell_measurement_theta_max      28.3
_cell_measurement_theta_min      2.6
_cell_volume                     847.9(2)
_computing_structure_refinement  'SHELXL-2014 (Sheldrick, 2014)'
_diffrn_ambient_temperature      295(2)
_diffrn_measured_fraction_theta_full 0.999
_diffrn_measured_fraction_theta_max 0.999
_diffrn_measurement_device_type  'Bruker APEX-II CCD area-detector'
_diffrn_radiation_type           MoK\a
_diffrn_radiation_wavelength     0.71073
_diffrn_reflns_av_R_equivalents  0.0385
_diffrn_reflns_av_unetI/netI     0.0369
_diffrn_reflns_Laue_measured_fraction_full 0.999
_diffrn_reflns_Laue_measured_fraction_max 0.999
_diffrn_reflns_limit_h_max       20
_diffrn_reflns_limit_h_min       -20
_diffrn_reflns_limit_k_max       20
_diffrn_reflns_limit_k_min       -20
_diffrn_reflns_limit_l_max       5
_diffrn_reflns_limit_l_min       -5
_diffrn_reflns_number            9736
_diffrn_reflns_point_group_measured_fraction_full 0.999
_diffrn_reflns_point_group_measured_fraction_max 0.993
_diffrn_reflns_theta_full        25.242
_diffrn_reflns_theta_max         28.253
_diffrn_reflns_theta_min         2.609
_exptl_absorpt_coefficient_mu    70.114
_exptl_absorpt_correction_T_max  0.246
_exptl_absorpt_correction_T_min  0.203
_exptl_absorpt_correction_type   multi-scan
_exptl_absorpt_process_details   'SADABS (Bruker, 2008)'
_exptl_crystal_colour            silver
_exptl_crystal_density_diffrn    6.948
_exptl_crystal_description       needle
_exptl_crystal_F_000             1473
_exptl_crystal_size_max          0.5
_exptl_crystal_size_mid          0.02
_exptl_crystal_size_min          0.02
_refine_diff_density_max         1.891
_refine_diff_density_min         -1.400
_refine_diff_density_rms         0.265
_refine_ls_abs_structure_details
;
 Flack x determined using 1251 quotients [(I+)-(I-)]/[(I+)+(I-)]
 (Parsons, Flack and Wagner, Acta Cryst. B69 (2013) 249-259).
;
_refine_ls_abs_structure_Flack   0.42(3)
_refine_ls_extinction_coef       0.00151(7)
_refine_ls_extinction_expression Fc^*^=kFc[1+0.001xFc^2^\l^3^/sin(2\q)]^-1/4^
_refine_ls_extinction_method     SHELXL
_refine_ls_goodness_of_fit_ref   1.077
_refine_ls_hydrogen_treatment    undef
_refine_ls_matrix_type           full
_refine_ls_number_parameters     110
_refine_ls_number_reflns         2801
_refine_ls_number_restraints     1
_refine_ls_restrained_S_all      1.077
_refine_ls_R_factor_all          0.0217
_refine_ls_R_factor_gt           0.0196
_refine_ls_shift/su_max          0.000
_refine_ls_shift/su_mean         0.000
_refine_ls_structure_factor_coef Fsqd
_refine_ls_weighting_details
'w=1/[\s^2^(Fo^2^)+1.1588P] where P=(Fo^2^+2Fc^2^)/3'
_refine_ls_weighting_scheme      calc
_refine_ls_wR_factor_gt          0.0427
_refine_ls_wR_factor_ref         0.0434
_reflns_Friedel_coverage         0.988
_reflns_Friedel_fraction_full    0.998
_reflns_Friedel_fraction_max     0.987
_reflns_number_gt                2640
_reflns_number_total             2801
_reflns_threshold_expression     'I > 2\s(I)'
_cod_data_source_file            cm7b00702_si_002.cif
_cod_data_source_block           Bi13S18I2_P3
_cod_original_cell_volume        847.8(3)
_cod_database_code               4002831
_shelx_space_group_comment
;
The symmetry employed for this shelxl refinement is uniquely defined
by the following loop, which should always be used as a source of
symmetry information in preference to the above space-group names.
They are only intended as comments.
;
_shelxl_version_number           2014-3
_shelx_res_file
;
TITL Bi13S18I2_0m in P3
CELL 0.71073  15.61150  15.61150   4.01680  90.0000  90.0000 120.0000
ZERR    1.00   0.00210   0.00210   0.00060   0.0000   0.0000   0.0000
LATT -1
SYMM -Y, X-Y, Z
SYMM -X+Y, -X, Z
SFAC S I BI
UNIT 18 2 13
TEMP -100.000

L.S. 16
BOND
FMAP 2
PLAN 20
ACTA

WGHT    0.000000    1.158800
EXTI    0.001514
FVAR       0.04055
MOLE   1
X1    3    0.333333    0.666667    0.920595    10.08333    0.03395    0.03395 =
         0.01323    0.00000    0.00000    0.01697
X2    3    0.333333    0.666667    0.134783    10.08333    0.00036    0.00036 =
         0.03316    0.00000    0.00000    0.00018
X3    3    0.333333    0.666667    0.421388    10.08333    0.00254    0.00254 =
         0.03149    0.00000    0.00000    0.00127
X4    3    0.333333    0.666667    0.635608    10.08333    0.02991    0.02991 =
         0.01390    0.00000    0.00000    0.01496
BI1   3    0.822127    0.277328    0.277652    11.00000    0.00973    0.00795 =
         0.01123    0.00012   -0.00009    0.00553
BI2   3    0.844537    0.056400    0.777672    11.00000    0.00573    0.00842 =
         0.01087   -0.00010    0.00007    0.00424
BI3   3    0.092476    0.370342    0.777851    11.00000    0.01977    0.00728 =
         0.00830    0.00029    0.00109    0.00731
BI4   3    0.388045    0.424410    0.277856    11.00000    0.01044    0.01244 =
         0.01415    0.00111    0.00075    0.00759
I1    2    0.666667    0.333333    0.778475    10.33333    0.00677    0.00677 =
         0.01054    0.00000    0.00000    0.00338
I2    2    0.000000    0.000000    0.278599    10.33333    0.00854    0.00854 =
         0.01095    0.00000    0.00000    0.00427
S1    1    0.201714    0.271784    0.278910    11.00000    0.00880    0.01062 =
         0.01080   -0.00191   -0.00108    0.00645
S2    1    0.148276    0.499817    1.277284    11.00000    0.00838    0.00529 =
         0.00610    0.00176    0.00085    0.00135
S3    1    0.316364    0.480527    0.777045    11.00000    0.00313    0.01014 =
         0.01154    0.00070   -0.00069    0.00263
S4    1    0.937807    0.403382   -0.221326    11.00000    0.00314    0.00684 =
         0.00606    0.00016   -0.00099    0.00177
S5    1    0.721006    0.120635    0.777574    11.00000    0.00532    0.00274 =
         0.00785    0.00039    0.00048    0.00016
S6    1    0.946406    0.212552    0.278026    11.00000    0.00857    0.00938 =
         0.00972   -0.00086   -0.00075    0.00673

MOLE   2
HKLF 4

REM  Bi13S18I2_0m in P3
REM R1 =  0.0196 for    2640 Fo > 4sig(Fo)  and  0.0217 for all    2801 data
REM    110 parameters refined using      1 restraints

END

WGHT      0.0000      1.1586

REM Highest difference peak  1.891,  deepest hole -1.400,  1-sigma level  0.265
Q1    1   0.1412  0.3805  0.7950  11.00000  0.05    1.89
Q2    1   0.4335  0.4777  0.2805  11.00000  0.05    1.88
Q3    1   0.8480  0.0611  0.5609  11.00000  0.05    1.85
Q4    1   0.8185  0.2785  0.4943  11.00000  0.05    1.81
Q5    1   0.8468  0.0587  0.9842  11.00000  0.05    1.81
Q6    1   0.8171  0.2751  0.0729  11.00000  0.05    1.77
Q7    1   0.0911  0.3696  0.5688  11.00000  0.05    1.62
Q8    1   0.3889  0.4219  0.4766  11.00000  0.05    1.55
Q9    1   0.0913  0.3723  1.0152  11.00000  0.05    1.34
Q10   1   0.3876  0.4216  0.0502  11.00000  0.05    1.24
Q11   1   0.2783  0.6730  0.2784  11.00000  0.05    1.17
Q12   1   0.8446  0.2404  0.1408  11.00000  0.05    1.13
Q13   1   0.0000  0.0000  0.1096  10.33333  0.05    1.12
Q14   1   0.3670  0.4651  0.4545  11.00000  0.05    1.12
Q15   1   0.6667  0.3333  0.9332  10.33333  0.05    1.08
Q16   1   0.3414  0.7267  0.7822  11.00000  0.05    1.05
Q17   1   0.4109  0.4024  0.2011  11.00000  0.05    1.04
Q18   1   0.1372  0.4334  0.5918  11.00000  0.05    1.03
Q19   1   0.7711  0.2829  0.3032  11.00000  0.05    1.02
Q20   1   0.8217  0.0904  0.9005  11.00000  0.05    1.02
;
_shelx_res_checksum              78424
_shelx_hkl_file
;
  -2   1   0    3.65    0.19
   1   1   0    3.70    0.19
   1   1   0    4.05    0.22
  -1   2   0    4.01    0.20
  -1   2   0    4.23    0.18
   2  -1   0    4.00    0.20
   2   0   0    7.75    0.37
   2   0   0    7.67    0.35
  -2   2   0    6.94    0.32
   0   2   0    7.29    0.37
   0   2   0    7.33    0.32
   2  -2   0    7.64    0.36
   2  -3   0    0.05    0.24
   2  -3   0    0.10    0.04
  -3   1   0    0.13    0.17
   1   2   0    0.15    0.07
   1   2   0    0.25    0.08
  -1  -2   0    0.03    0.17
  -2   3   0    0.17    0.04
   3  -1   0    0.26    0.06
   3  -1   0    0.22    0.08
  -1  -2   0    0.27    0.20
   1  -3   0   38.41    2.36
  -3   2   0   38.19    1.64
   2   1   0   38.13    1.65
   2   1   0   42.26    1.90
  -1   3   0   40.48    1.88
  -1   3   0   42.30    1.63
   3   0   0   28.65    1.25
   3   0   0   30.66    1.41
   3  -3   0   29.97    1.39
   0   3   0   29.01    1.21
   0   3   0   29.65    1.40
   1   3   0   10.58    0.54
   1   3   0   10.92    0.48
   3  -4   0   10.23    0.51
  -3   4   0   10.07    0.44
  -1  -3   0    8.04    0.83
   4  -1   0   10.27    0.50
   2   2   0    0.44    0.15
  -4   2   0    0.49    0.22
   2  -4   0    0.07    0.33
   2  -4   0    0.51    0.10
   2   2   0    0.51    0.13
  -4   2   0    0.90    0.13
  -2   4   0    0.53    0.09
   4  -2   0    0.39    0.08
  -2  -2   0    0.43    0.22
  -2  -2   0    0.12    0.27
   4  -2   0    0.24    0.23
   1  -4   0  537.63   30.87
  -4   3   0  503.78   21.28
   3   1   0  585.44   24.68
   4  -3   0  550.28   24.72
  -1   4   0  527.69   24.70
  -1   4   0  493.59   21.33
   4   0   0    8.65    0.46
   0  -4   0    7.01    0.78
   4   0   0    8.67    0.45
  -4   4   0    8.00    0.39
   0   4   0    8.50    0.45
   0   4   0    7.92    0.39
   4  -4   0    8.58    0.43
   1   4   0  133.67    6.15
   1   4   0  135.56    5.32
   4  -5   0  135.81    6.14
  -4   5   0  131.06    5.31
  -1  -4   0  115.03    8.38
   5  -1   0  135.48    6.15
   5  -1   0  136.38    5.36
   2   3   0   57.82    2.47
   2   3   0   60.63    2.85
  -3   5   0   60.76    2.44
  -3   5   0   59.15    2.82
   5  -2   0   62.14    2.83
   3   2   0    6.12    0.36
   3   2   0    6.00    0.39
  -5   3   0    5.52    0.31
   2  -5   0    5.82    0.39
   2  -5   0    4.74    0.70
  -3  -2   0    3.72    0.60
  -2   5   0    6.46    0.28
  -2   5   0    6.01    0.32
   5  -3   0    5.77    0.32
   1  -5   0  119.97    7.27
   4   1   0  125.06    5.05
  -5   4   0  119.64    5.01
   4   1   0  135.11    5.81
   1  -5   0  111.54    7.95
  -1   5   0  126.77    4.99
   5  -4   0  126.92    5.78
  -1   5   0  127.53    5.78
   5   0   0   32.88    1.39
   0  -5   0   31.43    2.22
   5   0   0   32.37    1.55
   0   5   0   32.03    1.33
   0   5   0   31.15    1.54
   5  -5   0   32.69    1.53
   1   5   0   30.28    1.26
   1   5   0   29.74    1.45
   5  -6   0   29.95    1.43
  -1  -5   0   28.27    2.05
   6  -1   0   30.89    1.45
   6  -1   0   29.41    1.31
  -5   6   0   29.94    1.25
   2   4   0    4.30    0.34
   4  -6   0    3.41    0.69
   2   4   0    5.75    0.31
  -4   6   0    4.38    0.28
   6  -2   0    4.71    0.30
  -4   6   0    4.25    0.24
  -2  -4   0    3.99    0.48
   3   3   0   19.13    0.87
  -6   3   0   19.41    0.86
   3   3   0   19.44    0.99
   3  -6   0   19.04    1.15
   3  -6   0   15.40    1.48
  -3   6   0   19.76    0.95
  -3   6   0   19.95    0.82
   6  -3   0   19.94    0.95
   4   2   0  136.02    6.17
   4   2   0  135.09    5.36
   2  -6   0  118.76    8.46
   2  -6   0  130.45    7.69
  -6   4   0  125.09    5.33
  -2   6   0  139.16    5.31
  -2   6   0  135.68    6.14
   6  -4   0  135.09    6.14
  -6   5   0   69.84    2.92
   1  -6   0   70.90    4.25
   5   1   0   72.43    2.97
   5   1   0   75.03    3.39
   1  -6   0   72.84    4.71
  -1   6   0   73.13    3.37
  -1   6   0   73.63    2.91
  -5  -1   0   60.53    4.39
   6  -5   0   73.57    3.36
   6   0   0    1.41    0.19
  -6   6   0    0.57    0.10
   0  -6   0    0.80    0.28
   6   0   0    0.46    0.17
   0  -6   0    0.30    0.20
   6  -6   0    0.17    0.34
  -6   0   0    0.68    0.33
   0   6   0    0.60    0.11
   0   6   0    0.65    0.12
  -7   1   0    4.94    0.68
   6  -7   0    6.15    0.34
   6  -7   0    4.49    0.80
   1   6   0    6.36    0.39
   1   6   0    5.78    0.35
   7  -1   0    6.12    0.38
  -6   7   0    6.02    0.31
   7  -1   0    5.97    0.42
  -1  -6   0    4.14    0.56
  -1  -6   0    5.52    0.60
   2   5   0  687.53   30.77
   2   5   0  686.32   26.58
   7  -2   0  664.23   30.75
   7  -2   0  713.69   26.62
  -2  -5   0  596.31   41.58
  -5   7   0  644.30   26.55
   4  -7   0   53.21    4.41
   3   4   0   71.75    3.17
   3   4   0   69.52    2.76
  -7   3   0   69.31    2.77
  -4   7   0   68.17    3.13
  -4   7   0   69.85    2.71
   7  -3   0   70.83    3.14
  -3  -4   0   58.17    4.25
  -7   4   0   14.12    0.66
   3  -7   0   12.46    1.18
   3  -7   0   14.13    0.85
   4   3   0   14.03    0.68
   4   3   0   14.38    0.76
  -4  -3   0   10.68    1.06
  -3   7   0   14.56    0.61
   7  -4   0   13.76    0.71
  -3   7   0   13.95    0.70
  -7   5   0   30.91    1.36
   2  -7   0   32.40    2.29
   5   2   0   33.16    1.58
   2  -7   0   32.26    1.94
   5   2   0   31.20    1.40
  -2   7   0   32.95    1.55
  -5  -2   0   27.36    2.12
  -2   7   0   33.35    1.34
   7  -5   0   32.73    1.54
   1  -7   0   19.85    1.51
   6   1   0   20.54    0.94
   1  -7   0   19.10    1.29
   6   1   0   19.17    1.01
  -6  -1   0   17.73    1.44
  -1   7   0   19.99    0.99
   7  -6   0   19.78    0.98
  -1   7   0   20.20    0.86
   7   0   0    1.15    0.22
   0  -7   0    1.15    0.32
   0  -7   0    0.94    0.27
   7   0   0    1.27    0.23
  -7   7   0    1.09    0.16
   0   7   0    1.20    0.19
   0   7   0    1.01    0.20
   7  -7   0    0.91    0.41
   7  -7   0    1.19    0.16
  -7   0   0    1.00    0.39
   1   7   0   54.70    2.29
   7  -8   0   45.62    3.74
   1   7   0   56.47    2.64
  -8   1   0   52.01    3.51
   7  -8   0   58.24    2.62
  -1  -7   0   56.00    3.64
  -7   8   0   55.51    2.28
   8  -1   0   57.03    2.64
   8  -1   0   57.72    2.37
  -8   2   0    0.16    0.29
   6  -8   0    1.69    0.53
   2   6   0    0.33    0.15
   2   6   0    0.27    0.16
  -6   8   0    0.30    0.10
   8  -2   0    1.30    0.21
  -2  -6   0    0.54    0.25
  -2  -6   0    0.40    0.29
   8  -2   0    0.41    0.19
   3   5   0    3.03    0.35
   5  -8   0    2.69    0.70
  -8   3   0    3.17    0.32
   3   5   0    2.88    0.30
  -8   3   0    3.08    0.53
  -3  -5   0    3.06    0.42
   8  -3   0    3.05    0.26
  -3  -5   0    2.25    0.51
  -5   8   0    3.36    0.21
  -5   8   0    2.94    0.24
   4  -8   0    4.08    0.72
   4   4   0    4.56    0.37
  -8   4   0    5.29    0.34
  -8   4   0    3.66    0.58
   4   4   0    4.90    0.40
  -4  -4   0    3.74    0.44
  -4  -4   0    3.59    0.60
  -4   8   0    4.89    0.27
   8  -4   0    5.13    0.32
  -4   8   0    4.70    0.31
   3  -8   0   26.36    1.89
  -8   5   0   24.93    1.10
   5   3   0   24.38    1.13
   3  -8   0   23.80    1.50
   5   3   0   25.30    1.26
  -5  -3   0   20.84    1.71
   8  -5   0   25.22    1.22
  -3   8   0   26.13    1.06
   2  -8   0  287.11   17.05
   6   2   0  278.10   10.86
   6   2   0  280.61   12.51
  -8   6   0  262.84   10.81
   2  -8   0  268.10   15.64
  -2   8   0  273.42   12.49
  -2   8   0  265.07   10.78
   8  -6   0  265.20   12.48
  -6  -2   0  240.83   15.82
   1  -8   0  185.26   11.46
   7   1   0  180.78    7.31
   1  -8   0  179.09   10.54
   7   1   0  179.82    8.39
  -1   8   0  185.19    8.38
  -1   8   0  177.12    7.23
  -7  -1   0  172.00   10.70
   8  -7   0  178.00    8.36
  -8   8   0   87.27    3.52
   8   0   0   87.09    3.60
   0  -8   0   80.54    5.16
   0  -8   0   85.51    5.58
   8   0   0   88.17    4.07
   8  -8   0   87.34    4.04
  -8   0   0   86.55    5.31
   0   8   0   85.61    4.06
   0   8   0   83.75    3.51
   8  -9   0   28.00    1.29
   1   8   0   26.92    1.16
   1   8   0   26.60    1.32
   8  -9   0   23.47    2.00
  -9   1   0   27.29    1.89
  -8   9   0   25.27    1.13
  -1  -8   0   23.74    1.74
  -1  -8   0   25.56    1.84
   9  -1   0   26.38    1.32
   9  -1   0   24.76    1.23
   2   7   0    3.46    0.31
   7  -9   0    3.28    0.75
   2   7   0    3.38    0.36
  -9   2   0    3.10    0.58
  -2  -7   0    3.22    0.46
  -7   9   0    3.19    0.24
   9  -2   0    3.45    0.31
  -2  -7   0    1.94    0.49
   3   6   0   16.29    0.87
   6  -9   0   14.21    1.37
   3   6   0   15.81    0.76
  -9   3   0   15.30    1.25
  -9   3   0   16.03    0.80
  -6   9   0   15.95    0.80
   9  -3   0   15.65    0.82
  -3  -6   0   12.45    1.15
  -3  -6   0   13.61    1.11
  -6   9   0   15.91    0.70
   5  -9   0   73.77    5.01
   4   5   0   80.93    3.58
   4   5   0   81.64    3.12
  -9   4   0   76.59    3.12
  -9   4   0   66.73    4.62
  -4  -5   0   61.18    4.56
  -5   9   0   75.86    3.52
   9  -4   0   81.07    3.54
  -5   9   0   76.14    3.05
  -4  -5   0   67.40    4.76
  -9   5   0   80.41    3.25
   5   4   0   82.90    3.27
   4  -9   0   81.81    5.22
   5   4   0   81.49    3.73
   9  -5   0   82.28    3.70
   9  -5   0   65.69    4.97
  -4   9   0   79.97    3.69
  -5  -4   0   66.29    4.79
  -4   9   0   83.41    3.20
  -9   6   0   86.48    3.58
  -9   6   0   71.32    5.26
   3  -9   0   97.68    5.76
   6   3   0   90.88    3.62
   6   3   0   91.31    4.13
   3  -9   0   84.95    5.11
  -3   9   0   88.71    4.10
  -3   9   0   88.67    3.54
  -6  -3   0   79.51    5.32
   9  -6   0   89.76    4.10
  -9   7   0    3.04    0.27
   2  -9   0    3.85    0.59
   7   2   0    3.28    0.36
   2  -9   0    3.22    0.36
  -9   7   0    2.44    0.48
   7   2   0    2.88    0.31
   9  -7   0    2.24    0.57
  -2   9   0    3.11    0.24
   9  -7   0    2.81    0.25
  -7  -2   0    3.28    0.59
  -2   9   0    2.77    0.27
  -9   8   0   61.13    2.56
   8   1   0   61.63    2.95
   1  -9   0   65.33    4.10
   8   1   0   61.11    2.63
   1  -9   0   60.78    3.73
  -1   9   0   61.09    2.93
   9  -8   0   60.34    2.92
  -1   9   0   59.95    2.53
  -8  -1   0   60.02    3.89
   9   0   0   35.28    1.75
   9   0   0   35.25    1.60
   0  -9   0   35.58    2.43
  -9   9   0   35.24    1.51
   0  -9   0   34.66    2.27
   0   9   0   36.28    1.74
  -9   0   0   35.95    2.41
   9  -9   0   36.19    1.72
   0   9   0   34.59    1.51
   9  -9   0   29.73    2.52
   1   9   0  103.08    4.71
   1   9   0  102.60    4.08
   9 -10   0  102.11    4.68
 -10   1   0  104.78    6.13
   9 -10   0   89.17    6.53
  -1  -9   0  100.37    6.40
  -9  10   0   98.37    4.06
  -1  -9   0   91.89    5.98
  10  -1   0  102.99    4.71
  10  -1   0   95.65    4.15
   8 -10   0  150.87   10.15
   2   8   0  157.17    6.38
 -10   2   0  169.82    9.47
   2   8   0  163.83    7.38
  -2  -8   0  156.37    9.96
  10  -2   0  161.63    7.36
  -2  -8   0  139.52    9.31
  -8  10   0  156.52    6.35
 -10   3   0    0.89    0.37
   3   7   0    0.60    0.22
   7 -10   0    0.77    0.49
 -10   3   0    1.18    0.25
   3   7   0    0.97    0.22
  10  -3   0    0.63    0.17
  -3  -7   0    1.05    0.28
  -7  10   0    0.95    0.17
  -3  -7   0    0.96    0.36
  -7  10   0    0.96    0.16
   6 -10   0   51.14    3.61
 -10   4   0   52.42    3.36
   4   6   0   55.67    2.54
   4   6   0   54.86    2.22
 -10   4   0   52.17    2.24
  -4  -6   0   43.58    3.25
  -4  -6   0   49.10    3.36
  10  -4   0   52.97    2.49
  -6  10   0   52.91    2.15
   5 -10   0    2.98    0.68
   5   5   0    2.92    0.34
 -10   5   0    2.44    0.32
 -10   5   0    2.51    0.56
   5   5   0    2.77    0.37
  10  -5   0    2.96    0.27
  -5  10   0    2.50    0.21
  -5  -5   0    2.55    0.56
  -5  10   0    2.42    0.24
  -5  -5   0    2.10    0.36
 -10   6   0    4.16    0.63
   6   4   0    5.03    0.41
   4 -10   0    5.04    0.74
   4 -10   0    3.91    0.34
 -10   6   0    4.09    0.35
   6   4   0    4.48    0.41
  -6  -4   0    3.82    0.63
  10  -6   0    4.63    0.33
  -4  10   0    3.98    0.32
  10  -6   0    3.21    0.46
  -4  10   0    4.56    0.28
   7   3   0  129.91    5.92
   3 -10   0  138.16    8.16
   3 -10   0  121.38    7.35
 -10   7   0  117.70    7.54
 -10   7   0  125.21    5.13
   7   3   0  130.94    5.18
  -3  10   0  124.46    5.89
  -7  -3   0  116.86    7.57
  -3  10   0  126.86    5.09
  10  -7   0  124.06    5.88
   2 -10   0  126.92    7.51
   8   2   0  119.76    5.46
   8   2   0  117.85    4.79
   2 -10   0  114.28    6.82
 -10   8   0  113.84    4.73
  -2  10   0  115.20    4.70
  -2  10   0  120.10    5.44
  10  -8   0  115.16    5.43
  10  -8   0   97.44    7.41
  -8  -2   0  115.69    7.03
   9   1   0   34.35    1.61
   9   1   0   35.22    1.76
   1 -10   0   34.74    2.24
   1 -10   0   36.96    2.47
  -1  10   0   34.72    1.50
  10  -9   0   35.26    1.72
  10  -9   0   30.15    2.49
  -1  10   0   36.25    1.74
  -9  -1   0   36.77    2.42
 -10  10   0   20.71    0.98
  10   0   0   20.81    1.14
  10   0   0   20.60    1.10
   0 -10   0   22.25    1.53
   0 -10   0   22.95    1.61
  10 -10   0   22.13    1.11
 -10   0   0   23.31    1.67
   0  10   0   21.21    1.14
  10 -10   0   18.25    1.74
   0  10   0   21.55    0.99
   1  10   0   66.43    2.82
  10 -11   0   65.77    3.22
 -11   1   0   74.06    4.32
   1  10   0   68.02    3.26
  10 -11   0   63.29    4.59
  -1 -10   0   64.75    4.18
 -10  11   0   66.77    2.81
  -1 -10   0   69.11    4.43
  11  -1   0   68.19    3.26
  11  -1   0   67.03    2.91
   9 -11   0   40.39    3.00
   2   9   0   42.14    2.06
 -11   2   0   44.89    2.81
   2   9   0   40.21    1.78
  -2  -9   0   40.49    2.76
  11  -2   0   40.29    2.03
  -2  -9   0   37.63    2.66
  -9  11   0   41.80    1.75
 -11   3   0    6.57    0.56
 -11   3   0    8.39    0.89
   3   8   0    7.65    0.60
   3   8   0    7.75    0.51
   8 -11   0    7.34    1.05
  11  -3   0    7.33    0.52
  -3  -8   0    6.99    0.68
  -3  -8   0    5.87    0.76
  -8  11   0    7.52    0.42
  -8  11   0    7.38    0.47
 -11   4   0    7.31    0.83
   7 -11   0    6.81    0.99
   4   7   0    6.59    0.56
   4   7   0    6.26    0.47
 -11   4   0    5.78    0.50
  -7  11   0    6.34    0.37
  -4  -7   0    6.11    0.61
  -7  11   0    6.29    0.42
  -4  -7   0    5.28    0.72
  11  -4   0    6.90    0.46
   5   6   0  104.88    4.89
   5   6   0  106.89    4.26
 -11   5   0  115.41    6.36
 -11   5   0  101.82    4.28
   6 -11   0  108.89    6.81
  -5  -6   0   92.99    6.23
  -6  11   0  102.19    4.84
  -6  11   0  102.53    4.19
  11  -5   0  102.77    4.85
  -5  -6   0   91.23    6.51
   6   5   0  222.22    8.77
   5 -11   0  227.85   13.84
 -11   6   0  212.85    8.77
   6   5   0  220.11   10.10
 -11   6   0  240.38   12.89
  -6  -5   0  199.81   12.79
  -5  11   0  211.03    8.70
  -5  11   0  212.28   10.07
  11  -6   0  216.48   10.08
  11  -6   0  200.33   13.58
   7   4   0   85.25    3.44
   7   4   0   82.14    3.91
 -11   7   0   79.45    3.41
 -11   7   0   92.98    5.12
   4 -11   0   91.16    5.47
  -4  11   0   79.27    3.87
  -4  11   0   80.63    3.35
  11  -7   0   81.83    3.88
  11  -7   0   69.13    5.22
  -7  -4   0   78.95    5.06
   8   3   0   47.20    2.28
   3 -11   0   53.65    3.26
 -11   8   0   45.96    2.00
   3 -11   0   45.27    2.80
   8   3   0   47.13    2.05
  -3  11   0   46.92    2.26
  -3  11   0   45.30    1.94
  -8  -3   0   46.22    3.04
  11  -8   0   46.87    2.25
  11  -8   0   39.74    3.07
   9   2   0   38.75    1.93
   9   2   0   39.00    1.76
 -11   9   0   37.78    1.69
   2 -11   0   42.12    2.73
   2 -11   0   36.99    2.39
  -9  -2   0   38.90    2.61
  -2  11   0   40.31    1.91
  -2  11   0   38.94    1.65
  11  -9   0   38.25    1.89
  11  -9   0   34.24    2.66
  10   1   0    0.19    0.19
   1 -11   0    0.51    0.33
 -11  10   0    0.21    0.15
  10   1   0    0.46    0.26
   1 -11   0    0.38    0.28
  -1  11   0    0.42    0.17
  -1  11   0    0.10    0.18
 -10  -1   0    0.31    0.36
  11 -10   0    0.17    0.41
  11 -10   0    0.38    0.15
  11   0   0   73.86    3.66
 -11  11   0   72.97    3.16
   0 -11   0   77.16    4.68
   0 -11   0   77.66    4.99
  11   0   0   77.69    3.28
   0  11   0   73.76    3.16
 -11   0   0   83.06    4.82
  11 -11   0   77.12    3.63
  11 -11   0   68.86    5.10
   0  11   0   78.95    3.66
   1  11   0    8.25    0.64
  11 -12   0    8.63    1.13
  11 -12   0    7.49    0.53
 -12   1   0    8.89    0.97
  -1 -11   0    7.18    0.86
 -11  12   0    7.65    0.48
  -1 -11   0    8.05    0.80
  12  -1   0    8.50    0.60
   2  10   0   17.88    0.92
 -12   2   0   21.69    1.56
 -12   2   0   17.84    1.03
  10 -12   0   17.97    1.69
   2  10   0   18.09    1.07
  -2 -10   0   17.03    1.36
 -10  12   0   18.02    0.98
  12  -2   0   19.02    1.03
 -10  12   0   17.49    0.87
  -2 -10   0   18.14    1.43
 -12   3   0  150.11    6.48
   3   9   0  155.63    7.40
   3   9   0  155.79    6.40
   9 -12   0  160.12   10.21
 -12   3   0  175.75    9.50
  -9  12   0  152.82    6.36
  -9  12   0  159.41    7.35
  12  -3   0  156.57    7.38
  -3  -9   0  151.73    9.37
  -3  -9   0  150.88    9.94
   8 -12   0  102.08    6.61
   4   8   0  101.59    4.74
   4   8   0  100.46    4.12
 -12   4   0  114.15    6.17
 -12   4   0   94.54    4.16
  -4  -8   0   90.59    6.02
  -8  12   0   97.36    4.06
  12  -4   0  100.15    4.71
  -8  12   0   98.19    4.68
  -4  -8   0   92.84    6.32
   5   7   0    7.75    0.54
 -12   5   0    8.19    0.90
   5   7   0    7.55    0.60
 -12   5   0    6.64    0.56
   7 -12   0    8.15    1.06
  -7  12   0    6.82    0.42
  12  -5   0    7.55    0.51
  -7  12   0    7.63    0.49
  -5  -7   0    6.35    0.80
 -12   6   0   72.74    3.21
   6   6   0   76.58    3.65
   6   6   0   75.38    3.19
   6 -12   0   85.03    5.16
  -6  12   0   75.33    3.12
  -6  -6   0   71.34    4.70
  12  -6   0   76.07    3.62
  -6  12   0   73.90    3.60
   5 -12   0    1.16    0.49
 -12   7   0    1.21    0.24
   7   5   0    1.23    0.27
 -12   7   0    1.33    0.45
   7   5   0    0.98    0.24
  -5  12   0    0.57    0.14
  12  -7   0    0.44    0.17
  -7  -5   0    1.05    0.40
  -5  12   0    0.69    0.17
   4 -12   0   13.11    1.13
   8   4   0   10.43    0.67
   8   4   0   10.68    0.68
 -12   8   0   10.59    0.62
  12  -8   0   10.01    0.62
  12  -8   0    8.71    0.85
  -4  12   0   10.05    0.53
  -4  12   0    9.85    0.62
  -8  -4   0    9.69    1.01
   9   3   0   79.28    3.39
   3 -12   0   90.71    5.32
 -12   9   0   81.13    3.35
   9   3   0   80.01    3.82
  -3  12   0   77.09    3.28
  -9  -3   0   80.77    4.98
  12  -9   0   79.06    3.79
  12  -9   0   69.69    5.16
  -3  12   0   80.36    3.80
   2 -12   0  121.72    7.21
  10   2   0  110.85    5.25
  10   2   0  116.64    4.64
  -2  12   0  110.39    5.23
 -10  -2   0  115.58    6.78
  12 -10   0   98.01    7.13
  -2  12   0  101.94    4.52
  12 -10   0  110.83    5.22
  11   1   0   57.45    2.86
 -12  11   0   57.60    2.49
   1 -12   0   62.95    3.95
  11   1   0   59.42    2.59
   1 -12   0   53.93    3.61
  -1  12   0   60.77    2.86
  12 -11   0   59.64    2.84
  12 -11   0   52.84    3.96
 -11  -1   0   62.27    3.80
   0 -12   0    3.04    0.57
   0 -12   0    4.17    0.63
 -12  12   0    3.09    0.33
  12   0   0    3.35    0.41
  12   0   0    3.26    0.50
  12 -12   0    3.34    0.34
 -12   0   0    3.39    0.70
   0  12   0    3.19    0.45
  12 -12   0    3.80    0.84
  12 -13   0  121.23    7.90
   1  12   0  117.82    5.73
 -13   1   0  135.61    7.40
  12 -13   0  119.43    5.68
  -1 -12   0  120.20    7.28
  -1 -12   0  115.90    7.71
 -12  13   0  115.93    4.95
  13  -1   0  116.47    5.71
 -13   2   0    0.61    0.29
  11 -13   0    0.19    0.52
 -13   2   0    0.45    0.41
   2  11   0    0.62    0.28
 -11  13   0    0.63    0.17
  13  -2   0    0.55    0.21
 -11  13   0    0.60    0.18
  -2 -11   0    0.86    0.42
  -2 -11   0    0.51    0.28
  10 -13   0   59.16    4.17
 -13   3   0   54.85    2.62
 -13   3   0   68.36    3.90
   3  10   0   58.40    2.93
 -10  13   0   58.25    2.50
  -3 -10   0   60.25    3.79
  -3 -10   0   58.56    3.88
 -10  13   0   58.41    2.86
  13  -3   0   57.12    2.89
   4   9   0   17.17    1.04
   4   9   0   16.01    0.90
 -13   4   0   20.49    1.50
 -13   4   0   16.55    0.97
   9 -13   0   17.89    1.65
  -4  -9   0   17.26    1.39
  -4  -9   0   16.31    1.29
  -9  13   0   17.57    0.82
  -9  13   0   16.17    0.93
  13  -4   0   16.55    0.97
   5   8   0    7.59    0.58
 -13   5   0   10.90    1.03
   5   8   0    7.34    0.65
 -13   5   0    8.26    0.63
   8 -13   0    7.93    1.11
  -5  -8   0    8.34    0.89
  13  -5   0    7.52    0.56
  -8  13   0    7.24    0.52
  -8  13   0    7.98    0.46
   6   7   0   77.81    3.31
 -13   6   0   91.74    5.00
 -13   6   0   76.09    3.35
   7 -13   0   85.62    5.35
   6   7   0   77.02    3.79
  13  -6   0   78.19    3.76
  -6  -7   0   75.09    4.87
  -7  13   0   73.39    3.74
  -7  13   0   74.09    3.24
   7   6   0   52.41    2.24
   7   6   0   50.68    2.52
   6 -13   0   56.25    3.63
 -13   7   0   49.10    2.24
  -6  13   0   49.08    2.14
  -7  -6   0   50.13    3.30
  -6  13   0   48.96    2.47
  13  -7   0   51.21    2.49
   8   5   0   30.11    1.55
   5 -13   0   33.82    2.31
   8   5   0   30.44    1.42
 -13   8   0   28.16    1.39
  -8  -5   0   29.32    2.10
  -5  13   0   28.43    1.30
  -5  13   0   29.24    1.51
  13  -8   0   29.00    1.51
   9   4   0   33.23    1.54
   9   4   0   32.13    1.68
 -13   9   0   32.52    1.51
   4 -13   0   36.79    2.46
  -4  13   0   32.78    1.66
  -4  13   0   30.64    1.44
  13  -9   0   31.14    1.65
  -9  -4   0   33.82    2.30
   3 -13   0    9.18    0.95
  10   3   0    8.14    0.59
  10   3   0    8.25    0.63
  -3  13   0    7.72    0.58
  13 -10   0    7.50    0.53
 -10  -3   0    8.46    0.94
  13 -10   0    7.42    0.83
  11   2   0    5.12    0.49
  11   2   0    4.93    0.54
 -13  11   0    5.46    0.44
   2 -13   0    6.33    0.76
  13 -11   0    4.58    0.77
  13 -11   0    5.02    0.43
  -2  13   0    5.92    0.49
 -11  -2   0    5.98    0.82
  12   1   0   41.62    1.93
   1 -13   0   43.64    2.88
 -13  12   0   39.40    1.82
  12   1   0   39.28    2.08
 -12  -1   0   45.98    2.84
  -1  13   0   42.26    2.09
  13 -12   0   37.36    2.91
  13 -12   0   41.40    2.06
  13   0   0    6.79    0.57
 -13  13   0    6.58    0.48
   0 -13   0    6.52    0.77
 -13   0   0    8.89    0.95
   0  13   0    8.23    0.63
  13 -13   0    6.83    0.52
  13 -13   0    5.91    0.98
 -14   1   0   94.39    3.97
   1  13   0   90.25    4.44
  13 -14   0   91.62    6.14
 -14   1   0  103.07    5.77
  14  -1   0   85.15    4.41
  -1 -13   0   92.67    5.96
  -1 -13   0   91.25    5.65
 -13  14   0   86.34    3.82
   2  12   0    0.18    0.28
 -14   2   0    0.23    0.38
  12 -14   0    0.24    0.51
 -14   2   0    1.04    0.34
  -2 -12   0    0.49    0.29
 -12  14   0   -0.04    0.15
  14  -2   0    0.48    0.23
 -12  14   0    0.24    0.16
  -2 -12   0    0.22    0.38
 -14   3   0   28.03    1.48
   3  11   0   28.62    1.60
 -14   3   0   34.34    2.19
  11 -14   0   31.07    2.39
  -3 -11   0   31.16    2.13
 -11  14   0   29.44    1.51
  -3 -11   0   27.88    2.04
  14  -3   0   27.31    1.54
 -11  14   0   27.54    1.32
 -14   4   0   21.38    1.58
  10 -14   0   20.04    1.77
 -14   4   0   16.90    1.03
   4  10   0   18.41    1.12
 -10  14   0   18.47    0.90
 -10  14   0   18.69    1.02
  -4 -10   0   18.98    1.51
  14  -4   0   17.28    1.05
   9 -14   0  255.67   15.39
 -14   5   0  225.48    9.78
   5   9   0  244.16   11.23
   5   9   0  238.40    9.77
  14  -5   0  239.03   11.20
  -5  -9   0  250.21   14.20
  -9  14   0  228.78    9.66
  -9  14   0  233.46   11.17
   8 -14   0    0.25    0.49
 -14   6   0    1.23    0.47
   6   8   0    0.67    0.25
 -14   6   0    0.67    0.28
   6   8   0    0.25    0.26
  -8  14   0    0.42    0.14
  -8  14   0    0.36    0.17
  -6  -8   0    0.36    0.37
  14  -6   0    0.13    0.18
   7   7   0    8.79    0.63
 -14   7   0    9.00    0.65
   7 -14   0   11.00    1.18
   7   7   0    9.38    0.67
  -7  14   0    8.78    0.51
  -7  14   0    8.86    0.60
  -7  -7   0    8.83    0.95
  14  -7   0    9.66    0.62
   8   6   0    0.88    0.28
   6 -14   0    1.39    0.55
   8   6   0    0.92    0.25
 -14   8   0    1.17    0.28
  14  -8   0    0.53    0.20
  -8  -6   0    0.75    0.41
  -6  14   0    0.73    0.19
   9   5   0    4.24    0.45
   9   5   0    3.89    0.48
 -14   9   0    4.45    0.46
   5 -14   0    4.45    0.82
  14  -9   0    4.02    0.40
  -9  -5   0    3.83    0.71
  -5  14   0    4.11    0.41
   4 -14   0   17.19    1.39
  10   4   0   15.25    0.88
 -14  10   0   13.98    0.83
  10   4   0   14.65    0.89
  14 -10   0   14.01    0.86
 -10  -4   0   15.29    1.30
  -4  14   0   14.63    0.87
  11   3   0    4.28    0.51
   3 -14   0    3.32    0.69
  11   3   0    3.18    0.42
 -11  -3   0    3.37    0.71
  14 -11   0    3.56    0.38
  -3  14   0    2.98    0.41
  12   2   0   53.40    2.34
 -14  12   0   51.48    2.26
  12   2   0   49.30    2.56
   2 -14   0   55.64    3.55
  14 -12   0   49.74    2.54
  14 -12   0   47.56    3.50
  -2  14   0   51.28    2.56
 -12  -2   0   54.94    3.42
  13   1   0   69.12    3.43
 -14  13   0   67.05    2.99
  13   1   0   69.07    3.08
   1 -14   0   73.31    4.68
 -13  -1   0   78.00    4.52
  14 -13   0   69.20    3.40
  14 -13   0   65.87    4.71
  -1  14   0   70.40    3.43
   0 -14   0    9.37    0.91
 -14  14   0    8.93    0.58
  14   0   0    8.40    0.66
 -14   0   0    9.74    1.04
  14 -14   0    8.10    1.09
  14 -14   0    7.86    0.61
   0  14   0    8.06    0.70
 -15   1   0    1.06    0.48
   1  14   0    1.04    0.35
 -15   1   0    1.36    0.39
  14 -15   0    0.77    0.55
  -1 -14   0    1.14    0.37
  15  -1   0    0.82    0.28
 -14  15   0    1.11    0.24
 -14  15   0    0.78    0.23
 -15   2   0   39.61    1.87
 -15   2   0   41.85    2.68
  13 -15   0   40.82    2.91
   2  13   0   35.90    2.01
  15  -2   0   36.34    1.96
 -13  15   0   36.56    1.93
  -2 -13   0   36.42    2.60
 -13  15   0   35.29    1.69
  -2 -13   0   39.57    2.63
 -15   3   0   28.13    1.93
   3  12   0   23.14    1.41
  12 -15   0   26.88    2.14
 -15   3   0   22.98    1.31
  15  -3   0   23.03    1.34
 -12  15   0   24.26    1.32
 -12  15   0   22.67    1.15
  -3 -12   0   26.83    1.91
 -15   4   0    1.43    0.50
  11 -15   0    0.77    0.58
   4  11   0    0.89    0.34
 -15   4   0    0.63    0.31
  15  -4   0    0.58    0.24
 -11  15   0    0.63    0.18
 -11  15   0    0.74    0.21
  -4 -11   0    1.11    0.49
  10 -15   0    4.02    0.98
 -15   5   0    2.81    0.43
   5  10   0    3.08    0.53
 -15   5   0    4.21    0.75
  15  -5   0    2.84    0.41
 -10  15   0    3.58    0.33
 -10  15   0    2.93    0.37
  -5 -10   0    4.57    0.76
   9 -15   0    2.46    0.67
 -15   6   0    2.38    0.37
   6   9   0    1.94    0.35
  -6  -9   0    2.94    0.68
  -9  15   0    1.89    0.33
  15  -6   0    2.40    0.38
  -9  15   0    1.87    0.28
 -15   7   0    0.91    0.30
   7   8   0    1.09    0.29
   7   8   0    0.25    0.26
   8 -15   0    0.63    0.51
  -8  15   0    0.52    0.19
  15  -7   0    1.27    0.25
  -7  -8   0    0.46    0.39
   8   7   0    5.25    0.55
   8   7   0    6.30    0.55
   7 -15   0    7.51    1.02
 -15   8   0    5.89    0.57
  -7  15   0    5.52    0.48
  15  -8   0    6.04    0.50
  -8  -7   0    6.38    0.85
 -15   9   0  248.21   10.57
   9   6   0  263.88   10.56
   9   6   0  251.14   12.13
   6 -15   0  298.80   16.62
  15  -9   0  253.40   12.13
  -9  -6   0  264.74   15.38
  -6  15   0  238.24   12.11
   5 -15   0   29.55    2.07
  10   5   0   25.27    1.29
 -15  10   0   24.59    1.28
  10   5   0   24.68    1.38
  15 -10   0   24.59    1.35
 -10  -5   0   28.56    1.94
  -5  15   0   23.71    1.35
  11   4   0    6.86    0.61
 -15  11   0    6.12    0.56
   4 -15   0    7.76    0.93
  11   4   0    6.08    0.55
 -11  -4   0    6.66    0.88
  -4  15   0    7.24    0.56
  15 -11   0    6.14    0.52
  12   3   0   49.59    2.64
 -15  12   0   51.69    2.36
   3 -15   0   59.43    3.70
  12   3   0   52.65    2.40
  -3  15   0   51.38    2.64
  15 -12   0   51.12    2.63
 -12  -3   0   58.79    3.54
  13   2   0    0.17    0.22
   2 -15   0    0.49    0.36
  13   2   0    0.19    0.29
 -15  13   0    0.27    0.20
  15 -13   0    0.32    0.20
 -13  -2   0    0.34    0.41
  -2  15   0    0.24    0.24
  14   1   0   57.96    2.96
 -15  14   0   57.14    2.59
   1 -15   0   64.38    4.04
  15 -14   0   58.07    2.93
 -14  -1   0   65.56    3.92
  -1  15   0   59.80    2.98
  15 -14   0   54.80    4.09
   0 -15   0   10.37    1.00
 -15  15   0    9.91    0.65
  15   0   0    8.79    0.73
   0  15   0    9.16    0.80
 -15   0   0   12.00    0.84
 -15   0   0   11.15    1.15
  15 -15   0   10.37    1.21
  15 -16   0   20.90    1.85
   1  15   0   19.30    1.27
 -16   1   0   23.48    1.74
 -16   1   0   20.81    1.22
  16  -1   0   18.34    1.19
 -15  16   0   21.05    1.06
  -1 -15   0   20.02    1.63
 -15  16   0   20.38    1.18
  14 -16   0   16.53    1.59
 -16   2   0   15.21    1.01
 -16   2   0   17.40    1.42
   2  14   0   13.90    1.04
 -14  16   0   14.12    0.90
 -14  16   0   13.80    0.80
  16  -2   0   13.28    0.93
   3  13   0   17.78    1.20
 -16   3   0   21.95    1.64
  13 -16   0   20.42    1.84
 -16   3   0   19.33    1.14
 -13  16   0   17.42    1.07
  16  -3   0   17.77    1.11
  -3 -13   0   21.25    1.63
 -13  16   0   17.59    0.94
   4  12   0   11.84    0.92
  12 -16   0   14.47    1.49
 -16   4   0   14.44    1.27
 -16   4   0   11.61    0.87
 -12  16   0   11.89    0.78
  16  -4   0   10.75    0.81
  -4 -12   0   14.72    1.29
 -12  16   0   11.05    0.68
  11 -16   0   10.88    1.35
 -16   5   0   10.33    0.79
   5  11   0   10.02    0.82
 -16   5   0   12.26    1.16
 -11  16   0   10.18    0.69
 -11  16   0    9.17    0.60
  -5 -11   0   10.42    1.13
  16  -5   0   10.18    0.74
   6  10   0   40.18    2.18
  10 -16   0   47.06    3.23
 -16   6   0   38.60    1.99
  16  -6   0   41.23    2.15
  -6 -10   0   48.37    2.94
 -10  16   0   39.75    2.12
   9 -16   0   30.75    2.27
 -16   7   0   25.02    1.37
   7   9   0   26.12    1.46
  -7  -9   0   31.38    2.05
  -9  16   0   24.43    1.39
  16  -7   0   24.10    1.42
 -16   8   0   48.95    2.35
   8 -16   0   61.98    3.78
   8   8   0   50.05    2.58
  16  -8   0   49.18    2.56
  -8  16   0   46.65    2.54
  -8  -8   0   55.29    3.43
   9   7   0    2.93    0.49
 -16   9   0    3.45    0.52
   7 -16   0    5.06    0.93
   9   7   0    3.12    0.46
  16  -9   0    3.73    0.44
  -9  -7   0    4.31    0.76
  -7  16   0    3.73    0.42
 -16  10   0   -0.07    0.24
  10   6   0    0.08    0.23
  10   6   0    0.36    0.28
   6 -16   0    0.11    0.43
  -6  16   0    0.24    0.19
  16 -10   0    0.07    0.19
 -10  -6   0    0.19    0.42
   5 -16   0    7.86    0.97
  11   5   0    5.88    0.54
  11   5   0    7.12    0.63
  -5  16   0    5.86    0.55
 -11  -5   0    6.43    0.88
  16 -11   0    6.34    0.54
  12   4   0    0.32    0.29
 -16  12   0    0.13    0.24
   4 -16   0    0.14    0.37
  12   4   0   -0.05    0.22
  16 -12   0    0.07    0.20
 -12  -4   0    0.28    0.42
  -4  16   0    0.03    0.20
 -16  13   0  167.00    7.24
  13   3   0  164.67    8.29
   3 -16   0  189.46   11.31
  13   3   0  180.88    7.30
 -13  -3   0  188.85   10.60
  16 -13   0  169.88    8.29
  -3  16   0  170.60    8.30
 -16  14   0   44.03    2.07
  14   2   0   45.35    2.14
  14   2   0   41.90    2.32
   2 -16   0   49.93    3.23
  16 -14   0   44.70    2.32
  -2  16   0   44.82    2.34
 -14  -2   0   51.56    3.15
   1 -16   0    7.98    0.88
 -16  15   0    6.36    0.55
  15   1   0    6.26    0.62
 -15  -1   0    8.06    1.00
  16 -15   0    6.61    0.59
  -1  16   0    6.79    0.68
 -15  -1   0    8.31    0.76
 -16  16   0   76.40    3.47
 -16  16   0   75.05    3.95
  16   0   0   75.41    3.96
   0 -16   0   84.23    5.37
 -16   0   0   94.51    5.21
   0  16   0   77.30    4.01
 -16   0   0   87.04    3.61
   1  16   0   15.86    1.14
 -17   1   0   18.25    1.52
  16 -17   0   16.11    1.62
 -17   1   0   17.50    1.10
 -16  17   0   15.29    0.91
  17  -1   0   14.25    1.02
 -16  17   0   14.91    0.99
 -17   2   0   35.17    1.80
 -17   2   0   41.58    2.61
  15 -17   0   37.64    2.81
   2  15   0   33.07    1.95
  17  -2   0   33.54    1.88
 -15  17   0   33.23    1.64
 -15  17   0   35.12    1.87
   3  14   0    0.28    0.37
 -17   3   0    0.94    0.51
 -17   3   0    1.02    0.35
  14 -17   0    1.13    0.67
 -14  17   0    0.89    0.25
  -3 -14   0    1.30    0.53
 -14  17   0    0.84    0.23
  17  -3   0    0.73    0.29
 -17   4   0  206.00    9.16
 -17   4   0  252.07   13.31
  13 -17   0  238.81   14.37
   4  13   0  199.13   10.46
  17  -4   0  204.56   10.43
  -4 -13   0  249.01   13.32
 -13  17   0  206.29   10.41
 -17   5   0    4.25    0.63
  12 -17   0    7.70    1.20
   5  12   0    5.10    0.66
  17  -5   0    4.88    0.55
  -5 -12   0    6.84    0.96
 -12  17   0    4.88    0.50
  11 -17   0   12.86    1.40
 -17   6   0    8.46    0.79
   6  11   0   10.24    0.81
  17  -6   0    8.86    0.73
 -11  17   0    9.06    0.68
  -6 -11   0   13.00    1.20
   7  10   0    0.41    0.29
 -17   7   0    0.25    0.28
  10 -17   0    0.86    0.58
  17  -7   0    0.49    0.24
 -10  17   0    0.66    0.22
  -7 -10   0    0.46    0.46
 -17   8   0    0.98    0.36
   8   9   0    1.20    0.31
   9 -17   0    1.99    0.63
  -8  -9   0    1.01    0.51
  -9  17   0    1.20    0.26
  17  -8   0    1.29    0.29
   8 -17   0   42.34    2.81
   9   8   0   33.72    1.86
 -17   9   0   33.46    1.74
  -9  -8   0   39.11    2.55
  -8  17   0   32.93    1.83
  17  -9   0   34.18    1.85
   7 -17   0   56.73    3.54
  10   7   0   46.86    2.42
 -17  10   0   45.33    2.21
  17 -10   0   45.65    2.41
  -7  17   0   43.61    2.40
 -10  -7   0   52.70    3.26
 -17  11   0   20.31    1.24
  11   6   0   22.68    1.31
  11   6   0   23.84    1.25
   6 -17   0   28.05    2.00
  17 -11   0   22.51    1.30
  -6  17   0   22.13    1.29
 -11  -6   0   25.88    1.86
  12   5   0   52.99    2.86
   5 -17   0   65.56    4.06
  12   5   0   57.10    2.59
  17 -12   0   54.89    2.86
  -5  17   0   54.81    2.87
 -12  -5   0   63.58    3.83
  13   4   0    4.79    0.63
   4 -17   0    7.56    0.92
  13   4   0    5.69    0.55
 -17  13   0    4.87    0.55
  -4  17   0    5.81    0.58
 -13  -4   0    6.47    0.92
  17 -13   0    5.75    0.55
  14   3   0    6.67    0.64
  14   3   0    7.86    0.72
 -17  14   0    7.57    0.61
   3 -17   0    9.09    0.98
 -14  -3   0    8.94    1.04
  17 -14   0    6.79    0.62
  -3  17   0    8.32    0.68
  15   2   0   47.71    2.50
   2 -17   0   52.26    3.44
 -17  15   0   47.88    2.23
 -15  -2   0   54.95    3.36
  -2  17   0   47.68    2.52
  17 -15   0   45.31    2.48
   1 -17   0    2.71    0.63
 -17  16   0    2.83    0.44
  16   1   0    2.03    0.38
 -16  -1   0    2.47    0.66
 -16  -1   0    2.37    0.47
  -1  17   0    1.61    0.40
  17   0   0   35.41    1.97
 -17  17   0   36.81    1.97
 -17  17   0   34.40    1.75
 -17   0   0   40.11    1.91
   0  17   0   35.99    2.05
 -17   0   0   41.18    2.71
 -18   1   0   26.59    1.92
 -18   1   0   23.43    1.33
   1  17   0   21.40    1.45
 -17  18   0   20.36    1.29
  18  -1   0   20.86    1.32
 -17  18   0   21.51    1.18
   2  16   0    0.88    0.42
  16 -18   0    0.33    0.61
 -18   2   0    0.96    0.55
 -18   2   0    0.49    0.36
 -16  18   0    0.18    0.24
 -16  18   0    0.38    0.25
  18  -2   0    0.47    0.30
 -18   3   0    2.06    0.46
 -18   3   0    2.06    0.63
  15 -18   0    1.82    0.74
   3  15   0    1.41    0.45
 -15  18   0    1.94    0.34
  18  -3   0    2.17    0.39
  14 -18   0   19.98    1.85
   4  14   0   16.01    1.19
 -18   4   0   17.71    1.12
 -18   4   0   18.98    1.58
 -14  18   0   16.49    1.04
  -4 -14   0   19.82    1.61
  18  -4   0   14.67    1.08
   5  13   0   -0.06    0.34
 -18   5   0    0.81    0.36
  13 -18   0    1.09    0.67
 -13  18   0    0.61    0.24
  -5 -13   0    0.30    0.49
  18  -5   0    0.38    0.27
  12 -18   0   19.98    1.87
   6  12   0   17.59    1.17
 -18   6   0   17.62    1.13
 -12  18   0   16.62    1.07
  -6 -12   0   23.49    1.73
  18  -6   0   17.67    1.12
   7  11   0    0.93    0.36
  11 -18   0    2.34    0.75
 -18   7   0    1.37    0.36
  18  -7   0    1.72    0.33
 -11  18   0    1.36    0.29
  -7 -11   0    2.30    0.65
 -18   8   0  227.64   10.03
  10 -18   0  289.77   15.76
   8  10   0  237.42   11.43
  18  -8   0  237.82   11.44
 -10  18   0  226.49   11.41
 -18   9   0   15.13    1.04
   9   9   0   15.85    1.02
  18  -9   0   15.10    1.00
  -9  -9   0   19.54    1.54
  -9  18   0   16.33    0.99
  10   8   0    6.75    0.63
   8 -18   0    9.51    1.18
 -18  10   0    7.05    0.69
  -8  18   0    7.06    0.62
  18 -10   0    6.96    0.62
 -10  -8   0    9.31    1.04
  11   7   0    1.80    0.34
   7 -18   0    2.51    0.67
 -18  11   0    1.83    0.40
 -11  -7   0    2.00    0.60
  18 -11   0    2.04    0.34
  -7  18   0    2.27    0.44
 -18  12   0    1.45    0.36
  12   6   0    2.23    0.44
   6 -18   0    2.24    0.60
 -12  -6   0    2.22    0.59
  -6  18   0    3.02    0.49
  18 -12   0    1.74    0.33
 -18  13   0   20.90    1.15
   5 -18   0   22.67    1.75
  13   5   0   17.82    1.16
  13   5   0   19.23    1.14
  -5  18   0   18.67    1.17
  18 -13   0   19.83    1.18
 -13  -5   0   22.09    1.71
  14   4   0    2.59    0.44
 -18  14   0    3.02    0.47
   4 -18   0    2.38    0.58
  14   4   0    2.91    0.47
 -14  -4   0    2.96    0.68
  -4  18   0    3.29    0.53
  18 -14   0    2.90    0.46
 -18  15   0    5.74    0.58
  15   3   0    6.50    0.63
   3 -18   0    7.02    0.90
  18 -15   0    5.96    0.60
 -15  -3   0    6.99    1.01
  -3  18   0    5.81    0.65
 -18  16   0   37.83    1.92
   2 -18   0   42.46    2.93
  16   2   0   37.39    2.14
  -2  18   0   38.80    2.18
 -16  -2   0   47.25    2.94
 -16  -2   0   46.68    2.05
  18 -16   0   37.71    2.12
 -18  17   0    6.86    0.63
 -18  17   0    6.00    0.64
   1 -18   0    8.21    0.94
  17   1   0    6.81    0.68
 -17  -1   0    9.24    1.11
 -17  -1   0    9.09    0.84
  -1  18   0    5.72    0.81
 -18  18   0   45.41    2.26
  18   0   0   46.42    2.55
 -18   0   0   53.55    2.40
   0  18   0   47.01    2.64
 -18   0   0   55.51    3.44
  16 -19   0   19.82    1.96
 -19   3   0   18.96    1.23
   3  16   0   18.63    1.36
 -19   3   0   24.87    1.81
  19  -3   0   18.40    1.21
 -16  19   0   17.73    1.18
  15 -19   0    1.77    0.74
   4  15   0    0.44    0.43
 -19   4   0    2.49    0.49
 -15  19   0    1.39    0.31
  19  -4   0    1.37    0.38
   5  14   0   19.99    1.39
  14 -19   0   28.32    2.21
 -19   5   0   21.54    1.33
  19  -5   0   20.79    1.32
 -14  19   0   20.88    1.29
  -5 -14   0   26.25    1.96
   6  13   0    5.74    0.73
  13 -19   0    7.99    1.34
 -19   6   0    6.60    0.73
  -6 -13   0    8.22    1.11
  19  -6   0    5.87    0.66
 -13  19   0    6.44    0.61
  12 -19   0    3.20    0.90
 -19   7   0    1.91    0.44
   7  12   0    2.81    0.46
  19  -7   0    2.70    0.50
 -12  19   0    2.22    0.45
  -7 -12   0    2.22    0.69
 -19   8   0    8.82    0.80
  11 -19   0    9.96    1.37
   8  11   0    7.74    0.74
 -11  19   0    8.99    0.69
  19  -8   0    8.14    0.73
  -8 -11   0   10.62    1.20
  10 -19   0   10.71    1.33
   9  10   0    7.73    0.71
 -19   9   0    7.38    0.79
 -10  19   0    8.19    0.68
  -9 -10   0   11.47    1.20
  19  -9   0    8.31    0.71
  10   9   0    2.26    0.39
   9 -19   0    4.00    1.03
 -19  10   0    2.81    0.48
  19 -10   0    2.37    0.47
 -10  -9   0    2.83    0.68
  -9  19   0    2.77    0.47
 -19  11   0    4.28    0.64
   8 -19   0    5.55    1.06
  11   8   0    3.74    0.55
 -11  -8   0    5.19    0.92
  19 -11   0    3.80    0.54
  -8  19   0    3.84    0.52
  12   7   0  156.80    7.81
 -12  -7   0  189.51   10.08
  19 -12   0  158.19    7.84
  -7  19   0  157.91    7.83
 -19  13   0    4.36    0.60
   6 -19   0    5.86    0.99
  13   6   0    4.79    0.56
 -13  -6   0    5.77    0.96
  19 -13   0    4.91    0.58
  -6  19   0    5.94    0.60
   5 -19   0   16.04    1.43
 -19  14   0   13.05    0.91
  14   5   0   12.72    0.92
  -5  19   0   13.62    0.96
 -14  -5   0   16.49    1.44
  19 -14   0   13.76    0.95
  15   4   0    0.95    0.32
   4 -19   0    0.99    0.45
 -19  15   0    1.44    0.37
  19 -15   0    1.13    0.32
  -4  19   0    0.85    0.34
 -15  -4   0    1.49    0.59
 -19  16   0    1.49    0.36
  16   3   0    0.85    0.33
   3 -19   0    1.93    0.54
  19 -16   0    0.91    0.33
 -16  -3   0    1.49    0.59
  -3  19   0    1.46    0.40
 -16  -3   0    1.34    0.43
   6  14   0   18.85    1.29
  14 -20   0   24.30    2.11
 -20   6   0   21.04    1.35
 -14  20   0   17.94    1.23
  20  -6   0   19.27    1.24
  13 -20   0    2.40    0.80
   7  13   0    1.21    0.41
 -20   7   0    1.57    0.45
  20  -7   0    1.38    0.35
  -7 -13   0    1.92    0.67
 -13  20   0    1.83    0.34
  12 -20   0    4.30    1.16
 -20   8   0    3.07    0.52
   8  12   0    3.10    0.59
  -8 -12   0    5.55    1.02
 -12  20   0    2.87    0.50
  20  -8   0    3.81    0.57
  11 -20   0    0.24    0.59
   9  11   0    0.32    0.31
 -20   9   0    0.22    0.36
 -11  20   0    0.41    0.26
  -9 -11   0    1.54    0.64
  20  -9   0    0.47    0.29
  10  10   0    1.67    0.38
  10 -20   0    2.04    0.73
 -20  10   0    2.18    0.46
 -10 -10   0    2.37    0.69
  20 -10   0    1.79    0.36
 -10  20   0    1.69    0.34
   9 -20   0    7.74    1.18
 -20  11   0    4.97    0.72
  11   9   0    4.61    0.60
 -11  -9   0    8.07    1.09
  20 -11   0    5.56    0.63
  -9  20   0    5.18    0.59
 -20  12   0   -0.06    0.34
  12   8   0   -0.11    0.26
   8 -20   0    0.58    0.58
  -8  20   0    0.35    0.27
 -12  -8   0    0.81    0.54
  20 -12   0    0.31    0.27
 -20  13   0   21.66    1.34
   7 -20   0   28.12    2.09
  13   7   0   21.28    1.34
  20 -13   0   21.78    1.36
 -13  -7   0   27.16    1.98
  -7  20   0   21.81    1.35
 -20  14   0   19.30    1.19
  14   6   0   18.69    1.19
   6 -20   0   22.97    1.82
  -6  20   0   19.13    1.22
   0   0  -1    0.34    0.16
  -1   0  -1   27.51    1.14
  -1   0  -1   27.80    1.65
   1  -1  -1   28.00    1.15
   0   1  -1   27.24    1.15
   0   1  -1   28.03    1.64
   1   0   1   25.29    1.32
   0  -1   1   28.62    1.79
  -1   1   1   28.63    1.80
   1   0   1   29.18    1.79
  -1   1   1   25.75    1.30
  -1   1  -1   28.60    1.63
   0  -1  -1   26.25    1.12
   0  -1  -1   28.64    1.64
   1   0  -1   27.72    1.14
  -1   0   1   28.32    1.77
   0   1   1   27.75    1.78
   1  -1   1   27.27    1.28
   0   1   1   23.59    1.30
  -1   2  -1   26.96    1.15
  -1   2  -1   27.44    1.63
   2  -1  -1   27.88    1.17
   2  -1  -1   26.80    1.64
  -1  -1  -1   26.92    1.12
  -1  -1  -1   27.08    1.65
   1   1   1   28.23    1.79
  -2   1   1   28.72    1.79
  -2   1   1   27.77    1.29
   1  -2   1   27.74    1.79
   1  -2   1   26.98    1.28
   1   1   1   27.06    1.34
  -1   3  -1  327.68   17.21
  -2  -1  -1  286.73   17.23
   3  -2  -1  290.88   11.90
  -2  -1  -1  299.55   11.88
   3  -2  -1  293.64   17.22
  -1   3  -1  274.42   11.89
  -3   2   1  313.98   18.59
   1  -3   1  300.41   18.60
   2   1   1  310.78   18.58
   1  -3   1  296.72   13.73
   2   1   1  271.14   13.77
   0   2  -1   67.29    3.70
   0   2  -1   61.23    2.57
   2  -2  -1   62.88    3.70
  -2   0  -1   65.03    2.55
  -2   0  -1   63.70    3.71
  -2   2   1   67.03    4.01
   2   0   1   63.04    3.99
   2   0   1   53.09    2.96
  -2   2   1   62.24    2.94
   0  -2   1   65.51    4.01
  -2   1  -1   28.02    1.65
   1   1  -1   28.03    1.16
   1  -2  -1   27.52    1.65
   1   1  -1   27.44    1.65
  -2   1  -1   26.91    1.14
  -1   2   1   28.86    1.81
   2  -1   1   26.91    1.31
  -1  -1   1   28.77    1.79
  -1   2   1   26.29    1.31
   2  -1   1   27.07    1.79
  -2   2  -1   67.27    3.74
   2   0  -1   63.00    2.61
  -2   2  -1   64.02    2.60
   2  -2   1   60.94    4.05
   2  -2   1   64.05    2.97
   0   2   1   62.03    3.00
   0   2   1   65.37    4.07
  -2   0   1   64.42    4.04
   3  -1  -1   23.69    1.41
  -1  -2  -1   22.30    1.42
   3  -1  -1   24.20    1.09
  -2   3  -1   23.09    0.98
  -2   3  -1   23.79    1.38
   3  -1  -1   21.63    1.01
   1   2   1   23.21    1.53
   1   2   1   22.08    1.15
   2  -3   1   22.65    1.54
   2  -3   1   22.86    1.09
  -3   1   1   24.17    1.51
   4  -2  -1  222.21   12.74
  -2   4  -1  209.95    8.80
  -2  -2  -1  212.43   12.77
   4  -2  -1  202.46    8.82
   4  -2  -1  225.15   10.15
  -2   4  -1  241.87   12.71
   2   2   1  212.68   10.20
   2  -4   1  211.65   13.77
  -4   2   1  229.70   13.74
   2   2   1  221.08   13.74
   2  -4   1  222.46   10.14
  -2   5  -1   62.28    2.82
   5  -3  -1   61.93    2.83
   5  -3  -1   60.45    3.57
  -3  -2  -1   60.38    2.46
  -2   5  -1   59.85    2.48
   5  -3  -1   55.78    2.50
  -3  -2  -1   60.92    3.64
   3   2   1   60.00    3.84
   2  -5   1   56.73    3.93
   2  -5   1   65.30    3.55
   4  -3  -1   80.73    4.89
  -3  -1  -1   85.53    3.38
  -1   4  -1   79.89    3.40
   4  -3  -1   85.65    5.30
  -3  -1  -1   85.33    4.95
   4  -3  -1   76.64    3.40
   4  -3  -1   84.42    3.89
  -1   4  -1   84.45    3.88
   3   1   1   82.63    5.27
   1  -4   1   88.37    4.89
   3  -3  -1  173.31   10.18
   0   3  -1  167.44    7.04
  -3   0  -1  175.02    7.02
  -3   0  -1  174.31   10.21
   3  -3  -1  171.72    7.04
   3  -3  -1  180.40   11.01
   0   3  -1  178.60    8.10
   0  -3   1  183.84   10.19
   3   0   1  162.29    8.14
  -3   3   1  181.75    8.12
   3   0   1  174.66   10.98
   0  -3   1  180.25   11.01
   1   2  -1   23.30    1.00
   2  -3  -1   23.43    1.40
   2  -3  -1   23.72    1.55
  -3   1  -1   23.83    0.97
  -3   1  -1   23.13    1.40
   2  -3  -1   21.89    0.96
   3  -1   1   22.72    1.51
  -1  -2   1   23.95    1.52
   3  -1   1   23.48    1.12
  -2   3   1   21.75    1.11
   1  -3  -1  302.49   18.44
  -3   2  -1  297.10   17.08
  -3   2  -1  289.52   11.78
   1  -3  -1  297.08   17.07
   2   1  -1  300.73   11.80
   3  -2   1  287.22   18.41
   3  -2   1  295.04   13.62
  -2  -1   1  312.52   18.40
  -1   3   1  266.74   13.62
  -3   3  -1  172.59    7.05
   3   0  -1  186.19    8.12
   0  -3  -1  171.54   10.22
   3   0  -1  172.77    7.08
   0  -3  -1  178.68   11.04
  -3   3  -1  184.51   10.18
   3  -3   1  170.16   11.02
  -3   0   1  181.70   11.00
   3  -3   1  173.83    8.13
   0   3   1  163.54    8.15
  -3   4  -1   67.00    3.74
  -1  -3  -1   61.81    3.79
  -3   4  -1   63.71    2.62
   4  -1  -1   61.49    2.65
  -1  -3  -1   63.07    4.09
   4  -1  -1   68.17    2.99
   3  -4   1   63.34    2.99
   1   3   1   60.18    3.03
  -4   1   1   67.15    4.05
   3  -4   1   63.93    4.11
   5  -2  -1   51.61    2.35
   5  -2  -1   56.38    2.64
  -3   5  -1   56.03    2.33
  -3   5  -1   62.50    3.31
  -2  -3  -1   55.48    3.62
   3  -5   1   58.28    2.64
  -5   2   1   57.87    3.59
  -5   2   1   57.85    3.35
   3  -5   1   51.41    3.68
   2   3   1   55.31    2.71
   6  -3  -1   51.74    2.29
  -3   6  -1   56.55    2.26
  -3  -3  -1   53.80    3.34
   6  -3  -1   55.56    2.57
   3  -6   1   57.00    3.23
   3   3   1   53.25    2.63
   3  -6   1   47.75    3.63
  -6   3   1   59.58    3.49
  -6   3   1   54.43    3.25
   7  -4  -1   87.01    3.61
  -4  -3  -1   85.33    5.32
  -3   7  -1   87.01    4.09
  -4  -3  -1   90.91    3.59
   7  -4  -1   89.78    5.55
  -3   7  -1   86.70    3.58
   7  -4  -1   88.79    4.10
   4   3   1   92.57    5.56
  -7   4   1   89.58    5.17
   4   3   1   90.29    4.17
   3  -7   1   74.16    5.75
  -4  -2  -1    0.89    0.28
  -4  -2  -1    0.82    0.13
   6  -4  -1    0.72    0.12
   6  -4  -1    0.66    0.16
   6  -4  -1    0.79    0.17
  -2   6  -1    0.45    0.08
  -2   6  -1    0.49    0.12
   4   2   1    0.53    0.18
   2  -6   1    0.51    0.34
   2  -6   1    0.71    0.22
   4   2   1    0.53    0.17
   5  -4  -1    0.29    0.12
   5  -4  -1    0.16    0.07
  -1   5  -1    0.13    0.10
  -1   5  -1    0.13    0.06
   5  -4  -1    0.36    0.17
   5  -4  -1    0.55    0.13
  -4  -1  -1    0.28    0.17
  -4  -1  -1    0.07    0.08
   4   1   1    0.01    0.13
   1  -5   1    0.30    0.23
   4   1   1    0.07    0.14
   1  -5   1    0.36    0.16
   4  -4  -1   68.53    2.75
  -4   0  -1   65.55    2.75
   4  -4  -1   69.65    4.32
   0   4  -1   69.18    3.14
   4  -4  -1   64.47    3.96
  -4   0  -1   66.83    4.02
   0   4  -1   64.59    2.76
  -4   4   1   69.79    3.16
   4   0   1   66.07    4.26
   0  -4   1   67.85    4.32
   0  -4   1   69.06    3.99
   1   3  -1   64.78    2.70
   1   3  -1   66.64    3.06
   3  -4  -1   67.02    4.22
   3  -4  -1   64.94    3.87
  -4   1  -1   65.45    2.68
  -4   1  -1   66.75    3.89
   3  -4  -1   66.88    2.66
   4  -1   1   62.84    3.09
  -3   4   1   66.53    3.08
  -1  -3   1   66.77    3.89
  -1  -3   1   66.61    4.19
   4  -1   1   64.13    4.16
  -4   2  -1  213.89   12.47
   2   2  -1  214.41    8.64
   2  -4  -1  226.19   13.52
  -4   2  -1  210.16    8.62
   2  -4  -1  215.49   12.48
   2   2  -1  213.42    9.94
   4  -2   1  210.83   13.45
  -2  -2   1  226.86   13.46
  -2  -2   1  216.77   12.50
  -2   4   1  203.92    9.96
   4  -2   1  211.87    9.96
  -4   3  -1   85.95    4.78
   1  -4  -1   82.84    5.24
  -4   3  -1   79.97    3.33
   1  -4  -1   80.26    4.81
   3   1  -1   78.59    3.36
   3   1  -1   86.89    3.81
   4  -3   1   79.22    5.19
   4  -3   1   77.80    3.82
  -1   4   1   81.53    3.84
  -3  -1   1   83.08    4.83
  -3  -1   1   82.85    5.17
  -4   4  -1   72.01    3.90
   4   0  -1   63.02    2.77
   0  -4  -1   66.42    4.30
  -4   4  -1   65.74    2.73
   0  -4  -1   64.07    3.95
   4   0  -1   71.85    3.12
   4  -4   1   64.48    4.28
  -4   0   1   68.06    4.22
   0   4   1   63.43    3.15
   4  -4   1   66.33    3.12
  -4   0   1   68.61    3.96
   5  -1  -1   29.40    1.36
  -4   5  -1   31.59    1.32
  -1  -4  -1   31.11    1.92
   5  -1  -1   33.01    1.48
  -1  -4  -1   31.11    2.08
   4  -5   1   29.14    1.47
  -5   1   1   32.39    1.91
   4  -5   1   29.06    2.12
  -5   1   1   31.95    2.00
   6  -2  -1  211.59    9.55
  -2  -4  -1  205.64   12.07
   6  -2  -1  192.12    8.32
  -2  -4  -1  199.10   12.95
  -4   6  -1  205.70    8.29
   2   4   1  212.80    9.61
  -6   2   1  218.40   12.90
   4  -6   1  203.32    9.54
  -6   2   1  203.62   12.01
  -3  -4  -1   15.71    1.13
   7  -3  -1   15.10    0.78
   7  -3  -1   16.48    0.80
  -4   7  -1   16.24    0.74
  -3  -4  -1   15.95    1.17
   4  -7   1   13.21    1.38
  -7   3   1   16.39    1.08
  -7   3   1   15.71    1.05
   3   4   1   16.23    0.90
  -4   8  -1   58.77    2.39
  -4  -4  -1   55.78    3.68
  -4  -4  -1   55.16    3.61
   8  -4  -1   56.68    2.43
  -4   8  -1   57.90    2.70
   8  -4  -1   59.42    2.72
  -8   4   1   54.94    3.45
   4   4   1   58.70    2.79
   9  -5  -1   11.41    0.63
  -4   9  -1   11.32    0.60
  -5  -4  -1    9.35    1.04
  -4   9  -1   11.79    0.58
   9  -5  -1   11.76    0.84
   9  -5  -1   11.91    0.62
  -9   5   1   11.41    0.84
   5   4   1   11.08    0.72
   8  -5  -1  113.94    6.88
   8  -5  -1  108.63    4.45
  -5  -3  -1   91.96    6.58
  -3   8  -1  110.58    5.07
   8  -5  -1  110.56    5.09
  -5  -3  -1  109.87    4.47
  -3   8  -1  108.22    4.43
  -8   5   1  110.12    6.40
   5   3   1  111.67    6.86
   5   3   1  109.33    5.14
   7  -5  -1  325.04   19.49
  -5  -2  -1  308.28   12.49
  -5  -2  -1  277.22   18.23
   7  -5  -1  322.15   12.49
   7  -5  -1  332.25   14.41
  -2   7  -1  319.99   14.39
  -2   7  -1  309.10   12.48
   5   2   1  326.58   19.45
   2  -7   1  275.24   19.65
  -5  -1  -1    0.53    0.27
  -1   6  -1    0.26    0.08
  -1   6  -1    0.16    0.12
  -5  -1  -1    0.52    0.13
   6  -5  -1   -0.05    0.09
   6  -5  -1    0.18    0.19
   6  -5  -1    0.22    0.12
   1  -6   1    0.17    0.25
   5   1   1    0.48    0.17
   1  -6   1   -0.03    0.30
   0   5  -1   80.63    3.39
  -5   0  -1   80.37    4.97
  -5   0  -1   84.88    3.39
   0   5  -1   84.40    3.87
   5  -5  -1   83.05    5.31
   5  -5  -1   81.06    4.86
   0  -5   1   81.90    4.94
  -5   5   1   86.28    3.89
   0  -5   1   81.60    5.34
   5   0   1   80.97    3.91
   5   0   1   86.59    5.23
  -5   1  -1   31.78    1.98
   1   4  -1   33.03    1.51
   4  -5  -1   31.43    2.15
   4  -5  -1   31.90    1.91
   1   4  -1   30.89    1.36
  -5   1  -1   31.32    1.35
   5  -1   1   31.20    1.55
  -4   5   1   33.07    1.53
  -1  -4   1   32.36    2.12
   5  -1   1   30.90    2.06
  -4   5   1   31.51    1.32
   3  -5  -1   54.13    3.68
   2   3  -1   58.58    2.65
   3  -5  -1   56.28    3.33
  -5   2  -1   57.05    3.36
  -5   2  -1   55.57    2.32
   2   3  -1   56.67    2.34
  -3   5   1   56.74    2.66
  -2  -3   1   58.40    3.61
   5  -2   1   54.59    3.59
   5  -2   1   55.17    2.67
  -5   3  -1   60.45    3.50
   3   2  -1   60.80    2.78
   2  -5  -1   60.87    3.52
   2  -5  -1   57.04    3.87
   3   2  -1   60.95    2.47
  -5   3  -1   58.06    2.44
  -3  -2   1   62.73    3.78
   5  -3   1   59.11    2.80
  -2   5   1   56.86    2.80
   5  -3   1   56.90    3.79
  -3  -2   1   59.94    3.57
   1  -5  -1   -0.11    0.23
  -5   4  -1    0.82    0.14
   1  -5  -1    0.12    0.11
   4   1  -1    0.98    0.19
  -5   4  -1    0.64    0.11
   4   1  -1    0.30    0.08
  -4  -1   1    0.04    0.14
   5  -4   1    1.29    0.34
  -1   5   1    0.18    0.10
  -4  -1   1    0.52    0.15
  -5   5  -1   80.69    3.28
   5   0  -1   78.18    3.32
   0  -5  -1   79.15    4.75
   5   0  -1   88.94    3.75
   0  -5  -1   73.28    5.16
   0   5   1   77.84    3.78
  -5   0   1   83.02    4.79
   5  -5   1   78.65    3.75
  -5   0   1   82.18    5.06
   6  -1  -1  247.14   10.63
  -1  -5  -1  211.55   14.43
  -1  -5  -1  231.43   13.39
  -5   6  -1  225.70    9.22
   6  -1  -1  221.91    9.26
  -6   1   1  239.15   14.34
  -6   1   1  235.39   13.40
   5  -6   1  229.59   10.62
   1   5   1  234.57   10.67
   5  -6   1  215.16   14.53
   7  -2  -1    0.19    0.09
  -5   7  -1    0.19    0.10
  -2  -5  -1    0.36    0.25
  -2  -5  -1    0.18    0.21
   7  -2  -1    0.76    0.20
   5  -7   1    0.23    0.45
   5  -7   1    0.15    0.08
  -7   2   1    0.16    0.13
  -7   2   1    0.27    0.18
   2   5   1   -0.19    0.19
  -3  -5  -1  103.12    6.35
  -3  -5  -1  104.51    6.71
   8  -3  -1  109.43    4.93
  -5   8  -1  104.03    4.30
   8  -3  -1   97.86    4.33
   3   5   1  107.43    5.00
   5  -8   1  106.68    4.92
  -8   3   1  111.75    6.64
  -8   3   1  101.33    6.25
   9  -4  -1    7.95    0.46
  -4  -5  -1    7.29    0.69
   9  -4  -1    8.04    0.52
  -5   9  -1    8.34    0.45
  -4  -5  -1    7.63    0.86
  -5   9  -1    7.42    0.44
   4   5   1    6.77    0.47
   4   5   1    7.55    0.59
  -9   4   1    8.25    0.62
   5  -9   1    4.40    1.07
  -9   4   1    7.55    0.67
  -5  10  -1   89.08    4.16
  -5  -5  -1   77.96    5.50
  -5  10  -1   88.67    3.65
  10  -5  -1   86.90    3.69
  -5  -5  -1   91.09    5.65
  10  -5  -1   93.58    4.19
   5   5   1   94.48    4.26
 -10   5   1   85.04    5.34
  11  -6  -1    4.97    0.37
  -6  -5  -1    2.96    0.75
  -5  11  -1    5.23    0.37
  11  -6  -1    4.69    0.47
  -5  11  -1    4.56    0.34
   6   5   1    3.59    0.43
   6   5   1    6.19    0.53
 -11   6   1    4.80    0.60
 -11   6   1    5.59    0.45
  -4  10  -1    9.03    0.51
  10  -6  -1    9.39    0.71
  10  -6  -1    9.47    0.54
  -6  -4  -1    5.86    0.94
  -4  10  -1    8.87    0.51
 -10   6   1    9.37    0.74
 -10   6   1    9.70    0.56
   6   4   1    9.14    0.63
   9  -6  -1    1.76    0.33
  -3   9  -1    1.24    0.22
  -6  -3  -1    1.03    0.44
  -3   9  -1    1.38    0.18
  -6  -3  -1    1.33    0.25
   9  -6  -1    1.29    0.20
  -9   6   1    1.53    0.23
   3  -9   1    0.59    0.52
   6   3   1    1.51    0.25
  -9   6   1    1.69    0.27
   3  -9   1    1.24    0.33
  -2   8  -1    4.28    0.28
  -6  -2  -1    4.93    0.38
   8  -6  -1    4.72    0.30
  -6  -2  -1    2.68    0.59
   8  -6  -1    4.35    0.47
  -2   8  -1    4.43    0.31
  -8   6   1    4.29    0.37
  -8   6   1    3.85    0.31
   2  -8   1    2.19    0.66
   6   2   1    4.33    0.40
   2  -8   1    2.52    0.58
  -1   7  -1  120.83    5.28
   7  -6  -1  118.35    6.62
  -6  -1  -1  117.14    4.63
   7  -6  -1  118.32    7.20
  -6  -1  -1   93.84    6.81
  -1   7  -1  115.15    4.61
   7  -6  -1  117.34    5.29
   1  -7   1   97.93    7.33
  -7   6   1  115.01    4.60
   6  -6  -1   54.22    3.56
   0   6  -1   57.75    2.56
  -6   0  -1   56.93    2.28
   0   6  -1   54.07    2.26
   6  -6  -1   54.28    3.21
  -6   0  -1   50.38    3.40
   0  -6   1   51.80    3.63
   0  -6   1   48.59    3.36
  -6   6   1   58.09    2.58
  -6   6   1   54.72    2.23
  -6   1  -1  231.58    9.31
   5  -6  -1  231.21   13.44
   5  -6  -1  227.82   14.60
   1   5  -1  227.17    9.31
   1   5  -1  239.42   10.72
  -6   1  -1  226.06   13.57
  -1  -5   1  219.24   13.57
  -5   6   1  231.26    9.27
   6  -1   1  239.01   10.77
  -5   6   1  241.68   10.74
  -1  -5   1  230.47   14.59
   2   4  -1  219.57    9.55
  -6   2  -1  205.16   12.04
   4  -6  -1  211.02   11.97
   2   4  -1  204.67    8.30
  -6   2  -1  198.36    8.29
   4  -6  -1  187.72   13.00
  -4   6   1  213.42    8.24
  -2  -4   1  219.64   12.96
  -4   6   1  206.64    9.56
  -2  -4   1  197.36   12.08
   6  -2   1  204.57   12.90
   6  -2   1  199.86    9.57
  -6   3  -1   53.90    2.24
   3   3  -1   56.60    2.55
  -6   3  -1   54.11    3.22
   3  -6  -1   45.76    3.54
   3   3  -1   53.18    2.26
   3  -6  -1   55.63    3.20
   6  -3   1   53.78    3.46
  -3  -3   1   56.99    3.46
  -3   6   1   55.23    2.56
   6  -3   1   52.65    2.56
   2  -6  -1    0.44    0.28
   4   2  -1    0.49    0.11
   4   2  -1    0.72    0.18
  -6   4  -1    0.47    0.11
   2  -6  -1    0.49    0.14
  -6   4  -1    0.54    0.14
   6  -4   1    0.46    0.10
  -2   6   1    0.52    0.12
   6  -4   1    0.95    0.27
  -4  -2   1    0.97    0.28
  -4  -2   1    0.58    0.17
  -6   5  -1    0.19    0.10
   5   1  -1    0.52    0.18
   1  -6  -1    0.25    0.29
   1  -6  -1    0.25    0.14
  -6   5  -1    0.63    0.11
   5   1  -1    0.30    0.10
  -5  -1   1    0.65    0.17
   6  -5   1    0.24    0.08
  -1   6   1    0.07    0.11
   6  -5   1    0.38    0.32
  -5  -1   1    0.00    0.18
   6   0  -1   59.17    2.59
  -6   6  -1   54.05    2.27
   6   0  -1   53.78    2.33
   0  -6  -1   54.37    3.29
  -6   0   1   55.28    3.46
  -6   0   1   54.38    3.36
   6  -6   1   52.64    2.58
   0   6   1   53.90    2.62
   6  -6   1   53.91    3.71
  -1  -6  -1    4.93    0.65
   7  -1  -1    6.90    0.38
   7  -1  -1    6.44    0.46
  -1  -6  -1    6.85    0.58
  -6   7  -1    5.87    0.35
  -7   1   1    6.27    0.61
   6  -7   1    5.76    0.95
   6  -7   1    6.05    0.36
   1   6   1    6.34    0.46
   8  -2  -1  128.92    5.59
  -6   8  -1  117.91    4.85
  -2  -6  -1  112.98    7.61
  -2  -6  -1  120.93    7.13
   8  -2  -1  118.43    4.91
   2   6   1  118.67    5.63
   6  -8   1  118.93    5.56
  -8   2   1  116.73    7.11
  -3  -6  -1    0.51    0.27
  -6   9  -1    0.36    0.13
   9  -3  -1    0.38    0.19
   9  -3  -1    0.21    0.11
  -3  -6  -1    0.35    0.30
   6  -9   1    0.10    0.09
  -9   3   1    0.11    0.23
   3   6   1    0.15    0.23
   6  -9   1    0.34    0.53
  10  -4  -1  233.59    9.70
  10  -4  -1  250.95   11.13
  -4  -6  -1  256.96   15.08
  -6  10  -1  233.53    9.65
  -6  10  -1  239.19   11.11
  -4  -6  -1  224.26   14.18
   4   6   1  243.99   11.20
 -10   4   1  242.62   14.98
 -10   4   1  226.44   14.08
  -6  11  -1   22.86    1.07
  -6  11  -1   22.89    1.17
  -5  -6  -1   25.18    1.65
  -5  -6  -1   21.28    1.81
  11  -5  -1   24.11    1.20
  11  -5  -1   22.88    1.14
 -11   5   1   21.73    1.67
   5   6   1   24.75    1.31
  -6  12  -1   93.12    3.74
  -6  12  -1   91.03    4.26
  12  -6  -1   97.34    4.29
  -6  -6  -1   75.58    5.63
 -12   6   1   87.94    3.79
   6   6   1   95.61    4.36
 -12   6   1   87.56    5.55
  13  -7  -1   31.11    1.49
  -6  13  -1   28.80    1.32
  -6  13  -1   29.07    1.45
  -7  -6  -1   25.70    2.17
 -13   7   1   27.71    2.08
 -13   7   1   28.40    1.38
   7   6   1   29.30    1.55
  -5  12  -1  109.77    5.09
  -5  12  -1  110.42    4.46
  12  -7  -1  116.81    5.12
   7   5   1   88.03    4.49
   7   5   1  114.34    5.17
 -12   7   1  107.29    6.54
 -12   7   1  108.80    4.49
  -4  11  -1   41.68    1.83
  11  -7  -1   43.67    2.07
  -4  11  -1   42.71    2.05
  11  -7  -1   42.90    2.78
   7   4   1   43.79    2.14
 -11   7   1   40.38    2.67
 -11   7   1   41.68    1.86
  -7  -3  -1    3.64    0.80
  -3  10  -1    5.74    0.38
  10  -7  -1    6.64    0.59
  10  -7  -1    5.86    0.40
  -3  10  -1    5.70    0.40
  -7  -3  -1    6.86    0.52
 -10   7   1    5.30    0.52
   7   3   1    5.45    0.49
 -10   7   1    6.28    0.42
  -7  -2  -1    4.71    0.44
  -2   9  -1    4.78    0.33
   9  -7  -1    5.19    0.54
  -2   9  -1    4.72    0.35
   9  -7  -1    5.27    0.34
  -7  -2  -1    2.71    0.67
   2  -9   1    3.24    0.60
   7   2   1    4.72    0.44
  -9   7   1    4.55    0.34
  -9   7   1    5.21    0.43
   8  -7  -1    5.75    0.36
   8  -7  -1    6.04    0.61
   8  -7  -1    5.75    0.44
  -1   8  -1    5.61    0.37
  -7  -1  -1    6.14    0.45
  -1   8  -1    5.72    0.35
   1  -8   1    3.28    0.84
  -8   7   1    5.61    0.34
   7   1   1    5.08    0.44
   1  -8   1    4.03    0.70
   7  -7  -1   93.46    6.00
  -7   0  -1   97.60    3.86
   0   7  -1   92.27    3.82
   7  -7  -1   94.42    5.46
   0   7  -1   97.16    4.36
  -7   7   1   93.97    3.79
   7   0   1   96.45    4.41
   0  -7   1   77.91    6.08
   1   6  -1    6.22    0.38
  -7   1  -1    5.21    0.67
   6  -7  -1    5.82    0.68
  -7   1  -1    6.60    0.41
   6  -7  -1    6.17    0.45
   1   6  -1    6.02    0.39
   7  -1   1    6.26    0.44
  -1  -6   1    5.73    0.75
  -6   7   1    6.81    0.33
  -1  -6   1    5.78    0.75
  -6   7   1    6.77    0.39
   2   5  -1    0.23    0.15
  -7   2  -1    0.05    0.22
   5  -7  -1    0.38    0.33
  -7   2  -1    0.05    0.11
   5  -7  -1    0.21    0.11
  -5   7   1    0.48    0.11
  -2  -5   1    0.24    0.32
   7  -2   1    1.14    0.21
  -2  -5   1    0.34    0.28
  -5   7   1    0.19    0.07
   3   4  -1   16.78    0.78
  -7   3  -1   15.36    0.75
   3   4  -1   16.92    0.83
  -7   3  -1   16.57    1.10
   4  -7  -1   12.89    1.26
   4  -7  -1   16.17    1.02
   7  -3   1   17.01    1.14
  -3  -4   1   15.31    1.24
  -3  -4   1   16.08    1.17
  -4   7   1   16.13    0.83
   7  -3   1   16.28    0.83
   3  -7  -1   89.23    5.19
   4   3  -1   87.64    3.65
  -7   4  -1   88.00    5.20
  -7   4  -1   85.16    3.62
   4   3  -1   89.25    4.14
   7  -4   1   89.91    5.66
  -4  -3   1   94.63    5.61
  -3   7   1   88.08    4.15
  -4  -3   1   83.72    5.35
   7  -4   1   86.27    4.14
   5   2  -1  316.01   12.55
   2  -7  -1  303.21   18.10
  -7   5  -1  289.25   12.50
   5   2  -1  323.45   14.44
  -7   5  -1  315.21   18.06
  -5  -2   1  341.09   19.50
   7  -5   1  303.37   14.44
  -5  -2   1  296.12   18.25
  -2   7   1  298.40   14.45
   7  -5   1  329.69   19.64
   6   1  -1  121.91    5.35
  -7   6  -1  112.49    4.66
   6   1  -1  115.52    4.71
   1  -7  -1  108.83    6.72
  -1   7   1  109.06    5.37
   7  -6   1  115.08    5.34
   7  -6   1  109.96    7.42
  -6  -1   1  110.95    6.86
  -6  -1   1  123.59    7.19
  -7   7  -1   91.29    3.74
   0  -7  -1   92.04    5.43
   7   0  -1   99.34    4.29
   7   0  -1   93.52    3.80
   7  -7   1   90.61    4.27
   7  -7   1   76.24    6.02
  -7   0   1   90.49    5.55
   0   7   1   94.45    4.32
   8  -1  -1    2.72    0.36
   8  -1  -1    2.93    0.26
  -1  -7  -1    2.39    0.53
  -7   8  -1    3.47    0.26
  -1  -7  -1    2.91    0.44
   1   7   1    2.80    0.36
  -8   1   1    2.45    0.53
   7  -8   1    2.93    0.23
   7  -8   1    1.49    0.66
   9  -2  -1    1.99    0.31
  -7   9  -1    1.95    0.22
  -2  -7  -1    1.82    0.50
  -2  -7  -1    1.84    0.47
   9  -2  -1    1.82    0.24
  -9   2   1    1.97    0.47
   7  -9   1    0.64    0.59
   2   7   1    2.44    0.38
   7  -9   1    1.94    0.20
  -7  10  -1   39.91    1.75
  -3  -7  -1   40.03    2.71
  10  -3  -1   43.60    1.99
  -3  -7  -1   43.93    2.77
  10  -3  -1   39.04    1.82
   7 -10   1   40.16    1.96
   3   7   1   40.35    2.07
 -10   3   1   37.93    2.68
  -7  11  -1   24.35    1.12
  -4  -7  -1   24.07    1.85
  -4  -7  -1   26.11    1.76
  11  -4  -1   23.22    1.19
  11  -4  -1   25.51    1.25
  -7  11  -1   23.84    1.22
   4   7   1   25.21    1.36
 -11   4   1   22.26    1.78
  12  -5  -1    6.27    0.53
  -5  -7  -1    6.08    0.93
  -7  12  -1    6.51    0.44
  12  -5  -1    6.75    0.47
  -7  12  -1    6.59    0.43
   5   7   1    6.25    0.62
 -12   5   1    6.14    0.85
  -7  13  -1   20.56    0.99
  -7  13  -1   20.97    1.07
  -6  -7  -1   16.87    1.67
  13  -6  -1   21.59    1.10
   6   7   1   21.66    1.21
 -13   6   1   19.97    1.65
 -13   6   1   19.40    1.05
  -7  14  -1   91.37    4.25
  -7  14  -1   92.80    3.74
  14  -7  -1   97.19    4.29
  -7  -7  -1   82.32    5.66
 -14   7   1   80.31    5.61
   7   7   1   94.27    4.34
 -14   7   1   87.45    3.80
   7 -14   1   86.47    6.19
  -8  -7  -1   26.92    2.25
  -7  15  -1   29.59    1.51
  15  -8  -1   30.07    1.55
  -7  15  -1   30.35    1.38
   7 -15   1   33.22    2.58
 -15   8   1   28.05    1.43
   8   7   1   29.08    1.60
  -6  14  -1   10.68    0.65
  -6  14  -1   10.84    0.63
  14  -8  -1   10.97    0.69
  -8  -6  -1    9.64    1.16
   6 -14   1   10.36    1.40
   8   6   1   10.53    0.77
 -14   8   1   11.13    0.70
  -8  -5  -1   27.57    2.45
  -5  13  -1   34.57    1.54
  -5  13  -1   36.25    1.71
  13  -8  -1   37.81    1.74
 -13   8   1   34.43    1.58
   8   5   1   34.88    1.79
 -13   8   1   32.23    2.34
  -4  12  -1   23.42    1.17
  -4  12  -1   22.94    1.08
  12  -8  -1   23.60    1.20
  12  -8  -1   22.54    1.59
   8   4   1   23.32    1.26
 -12   8   1   21.07    1.59
 -12   8   1   22.66    1.10
  -3  11  -1  168.32    7.72
  11  -8  -1  170.04   10.46
  -3  11  -1  165.09    6.72
  -8  -3  -1  157.46    6.81
  11  -8  -1  171.42    7.74
   8   3   1  167.09    7.78
 -11   8   1  166.52    6.73
 -11   8   1  155.40    9.72
  10  -8  -1    0.74    0.29
  10  -8  -1    1.18    0.22
  -8  -2  -1    0.35    0.24
  -2  10  -1    0.26    0.16
  -8  -2  -1    0.63    0.44
  -2  10  -1    0.56    0.14
 -10   8   1    0.64    0.17
   2 -10   1    0.49    0.31
   2 -10   1    0.07    0.44
 -10   8   1    0.92    0.21
   8   2   1    0.29    0.21
   9  -8  -1   20.68    1.01
  -1   9  -1   20.41    1.00
   9  -8  -1   20.21    1.46
  -8  -1  -1   21.11    1.01
  -1   9  -1   18.01    0.91
   8   1   1   19.33    1.06
   1  -9   1   15.76    1.42
  -9   8   1   19.57    0.90
   0   8  -1    1.22    0.20
   8  -8  -1    1.17    0.21
   8  -8  -1    1.34    0.38
   0   8  -1    1.32    0.22
  -8   0  -1    0.53    0.41
  -8   0  -1    0.76    0.22
  -8   8   1    1.81    0.20
   0  -8   1    0.59    0.45
   8   0   1    1.09    0.22
   0  -8   1    0.75    0.43
   1   7  -1    3.04    0.30
   7  -8  -1    2.79    0.28
  -8   1  -1    3.14    0.33
   1   7  -1    2.96    0.27
  -8   1  -1    2.15    0.54
   7  -8  -1    2.36    0.56
  -1  -7   1    2.64    0.68
  -1  -7   1    1.70    0.52
  -7   8   1    3.12    0.26
  -7   8   1    3.11    0.22
   8  -1   1    3.45    0.33
  -8   2  -1   97.89    6.94
   2   6  -1  117.99    4.73
   6  -8  -1  116.72    6.75
   2   6  -1  123.44    5.41
   6  -8  -1  108.38    7.46
  -8   2  -1  119.74    4.74
   8  -2   1  118.12    5.43
  -6   8   1  122.96    5.42
  -2  -6   1  105.35    7.44
  -6   8   1  121.35    4.66
  -8   3  -1  105.17    4.38
   3   5  -1  112.05    5.02
   3   5  -1  104.73    4.39
   5  -8  -1  107.81    6.26
  -8   3  -1  102.12    6.41
  -3  -5   1  103.18    6.86
  -5   8   1  108.19    5.02
   8  -3   1  107.25    5.03
  -5   8   1  110.37    4.31
   4   4  -1   60.10    2.77
   4   4  -1   56.74    2.46
  -8   4  -1   58.67    3.54
  -8   4  -1   58.00    2.45
   4  -8  -1   58.68    3.46
  -4  -4   1   49.60    3.67
   8  -4   1   58.34    2.78
  -4   8   1   59.16    2.78
  -4  -4   1   57.96    3.79
   8  -4   1   63.54    3.84
  -8   5  -1  111.14    6.41
   5   3  -1  109.47    4.50
   5   3  -1  112.34    5.11
  -8   5  -1  106.06    4.46
   3  -8  -1  107.44    6.40
  -3   8   1  109.87    5.13
   8  -5   1  113.53    7.06
   8  -5   1  110.34    5.12
  -5  -3   1  114.07    6.91
  -5  -3   1   95.60    6.60
   6   2  -1    4.83    0.33
  -8   6  -1    4.15    0.30
   2  -8  -1    2.50    0.64
   2  -8  -1    4.52    0.41
   6   2  -1    4.44    0.40
   8  -6   1    4.63    0.31
   8  -6   1    3.58    0.83
  -6  -2   1    4.15    0.68
  -2   8   1    4.70    0.36
   7   1  -1    5.71    0.45
   1  -8  -1    3.71    0.68
   1  -8  -1    5.38    0.49
  -8   7  -1    5.48    0.35
   7   1  -1    5.95    0.37
  -1   8   1    5.49    0.41
   8  -7   1    4.92    0.98
  -7  -1   1    5.50    0.74
   8  -7   1    5.02    0.34
   8   0  -1    1.63    0.29
  -8   8  -1    1.24    0.20
   0  -8  -1    1.33    0.34
   8   0  -1    1.29    0.22
   0  -8  -1    0.95    0.36
   8  -8   1    0.22    0.54
   8  -8   1    1.25    0.18
  -8   0   1    1.36    0.44
   0   8   1    1.00    0.21
  -1  -8  -1  201.37   11.34
  -8   9  -1  187.09    7.77
   9  -1  -1  197.42    7.83
  -1  -8  -1  173.30   12.17
   9  -1  -1  210.93    8.96
  -9   1   1  180.32   11.43
   8  -9   1  194.36    8.93
   1   8   1  189.81    8.99
  10  -2  -1   17.20    0.88
  -2  -8  -1   16.09    1.29
  -2  -8  -1   16.34    1.29
  -8  10  -1   15.27    0.78
  10  -2  -1   16.48    0.88
   2   8   1   16.48    0.97
   8 -10   1   16.59    0.85
 -10   2   1   14.71    1.35
  -3  -8  -1  103.48    6.20
  11  -3  -1  100.56    4.22
  -8  11  -1   96.25    4.14
  -3  -8  -1  105.22    6.49
  11  -3  -1  105.21    4.76
 -11   3   1   92.42    6.21
   3   8   1  100.29    4.83
  -4  -8  -1   10.15    0.92
  12  -4  -1    8.97    0.66
  -8  12  -1    9.44    0.56
  -4  -8  -1   10.56    1.09
  12  -4  -1    9.79    0.61
  -8  12  -1    9.33    0.55
   4   8   1    9.07    0.76
 -12   4   1    8.18    1.05
  -5  -8  -1    0.07    0.41
  -8  13  -1    0.20    0.13
  -8  13  -1    0.45    0.17
  13  -5  -1    0.27    0.17
   5   8   1    0.69    0.32
 -13   5   1    0.62    0.45
   8 -13   1   -0.22    0.51
  -8  14  -1  100.49    4.01
  -6  -8  -1   88.94    6.04
  14  -6  -1  105.26    4.60
  -8  14  -1   97.71    4.56
 -14   6   1   82.43    6.01
 -14   6   1   93.41    4.07
   6   8   1  104.05    4.67
   8 -14   1   92.55    6.62
  -7  -8  -1    1.54    0.60
  -8  15  -1    1.92    0.30
  -8  15  -1    1.93    0.32
  15  -7  -1    2.03    0.37
 -15   7   1    1.61    0.61
   8 -15   1    1.94    0.75
   7   8   1    1.68    0.36
 -15   7   1    1.36    0.33
  -8  16  -1   50.91    2.31
  16  -8  -1   54.29    2.65
  -8  16  -1   50.84    2.60
  -8  -8  -1   53.49    3.65
   8 -16   1   60.46    4.04
   8   8   1   51.74    2.69
 -16   8   1   52.28    2.40
  -8  17  -1    4.25    0.44
  -8  17  -1    4.67    0.46
  -9  -8  -1    5.77    0.96
  17  -9  -1    4.06    0.50
 -17   9   1    4.62    0.55
   9   8   1    4.37    0.57
   8 -17   1    4.17    1.11
  16  -9  -1   34.02    1.72
  -9  -7  -1   34.41    2.49
  -7  16  -1   30.39    1.50
  -7  16  -1   31.53    1.67
   7 -16   1   39.05    2.79
   9   7   1   31.95    1.75
 -16   9   1   30.47    1.57
  -6  15  -1    3.87    0.38
  15  -9  -1    3.41    0.41
  -6  15  -1    3.07    0.38
  -9  -6  -1    3.52    0.77
   9   6   1    2.74    0.48
   6 -15   1    3.11    0.82
 -15   9   1    3.22    0.45
  14  -9  -1    7.10    0.53
  -5  14  -1    7.90    0.51
  -5  14  -1    7.20    0.50
  -9  -5  -1    6.06    0.97
   5 -14   1    6.40    1.14
 -14   9   1    7.11    0.54
   9   5   1    6.84    0.60
  -9  -4  -1   28.13    2.50
  13  -9  -1   38.47    1.80
  -4  13  -1   36.41    1.59
  -9  -4  -1   36.99    1.70
  -4  13  -1   36.81    1.77
   9   4   1   36.99    1.84
   4 -13   1   29.14    2.74
 -13   9   1   37.23    1.62
  12  -9  -1   25.78    1.33
  -3  12  -1   25.04    1.19
  -9  -3  -1   24.11    1.31
  12  -9  -1   25.93    1.81
  -3  12  -1   26.05    1.31
   9   3   1   26.37    1.39
 -12   9   1   25.69    1.20
  -9  -2  -1    9.76    0.72
  -2  11  -1   10.43    0.61
  11  -9  -1   10.84    0.62
  11  -9  -1   10.27    0.92
  -2  11  -1    9.95    0.59
 -11   9   1    9.45    0.77
   9   2   1   10.36    0.69
 -11   9   1    9.51    0.57
  -1  10  -1  123.71    5.60
  10  -9  -1  124.77    5.62
  -9  -1  -1  119.78    4.99
  -1  10  -1  116.94    4.89
  10  -9  -1  126.44    7.68
 -10   9   1  117.68    7.01
 -10   9   1  119.25    4.87
   1 -10   1  100.56    7.12
   9   1   1  124.17    5.66
   9  -9  -1  141.28    8.99
   0   9  -1  146.79    6.56
  -9   0  -1  145.01    5.80
   0   9  -1  138.76    5.72
   9  -9  -1  138.48    8.18
  -9   9   1  142.84    5.68
   9   0   1  140.90    6.60
   0  -9   1  125.48    8.38
  -9   1  -1  203.87    8.14
   8  -9  -1  194.46   11.60
   8  -9  -1  194.23   12.71
   1   8  -1  201.38    9.29
   1   8  -1  193.27    8.07
  -8   9   1  199.67    8.03
   9  -1   1  201.63    9.33
  -8   9   1  206.76    9.30
   7  -9  -1    2.31    0.24
  -9   2  -1    1.99    0.32
  -9   2  -1    1.60    0.49
   2   7  -1    1.96    0.30
   7  -9  -1    2.18    0.53
   2   7  -1    2.13    0.29
  -7   9   1    1.94    0.23
  -7   9   1    1.89    0.19
   9  -2   1    1.67    0.28
  -2  -7   1    1.41    0.52
  -2  -7   1    0.62    0.41
   3   6  -1    0.52    0.19
   6  -9  -1    0.29    0.37
   6  -9  -1    0.31    0.13
  -9   3  -1    0.33    0.17
   3   6  -1    0.05    0.16
  -9   3  -1    0.15    0.29
  -3  -6   1    0.19    0.41
  -6   9   1    0.03    0.11
  -6   9   1    0.47    0.09
  -3  -6   1   -0.04    0.32
   9  -3   1    0.36    0.15
   4   5  -1    8.16    0.51
  -9   4  -1    8.26    0.76
  -9   4  -1    8.39    0.49
   5  -9  -1    7.60    0.57
   5  -9  -1    4.82    0.90
   4   5  -1    7.91    0.51
  -5   9   1    7.51    0.37
   9  -4   1    9.04    0.89
   9  -4   1    7.97    0.50
  -5   9   1    7.80    0.49
  -4  -5   1    7.01    0.80
  -4  -5   1    5.53    0.92
  -9   5  -1   12.64    0.87
   5   4  -1   11.30    0.66
   4  -9  -1   11.43    0.78
   5   4  -1   11.98    0.65
  -5  -4   1   11.42    0.95
  -5  -4   1    8.53    1.09
   9  -5   1   10.87    0.64
   9  -5   1   11.66    1.16
  -4   9   1   12.30    0.66
   3  -9  -1    1.49    0.25
   6   3  -1    1.45    0.26
  -9   6  -1    1.29    0.23
   3  -9  -1    0.40    0.43
  -9   6  -1    1.81    0.22
   6   3  -1    1.29    0.23
  -3   9   1    0.96    0.18
  -6  -3   1    0.84    0.47
   9  -6   1    0.97    0.52
   9  -6   1    1.13    0.19
  -9   7  -1    4.46    0.33
   7   2  -1    4.94    0.44
   7   2  -1    4.78    0.35
   2  -9  -1    4.30    0.43
  -2   9   1    4.82    0.39
   9  -7   1    4.57    0.33
   9  -7   1    3.02    0.74
  -7  -2   1    3.59    0.74
   8   1  -1   19.62    0.97
   8   1  -1   18.34    0.94
   1  -9  -1   18.87    1.25
  -9   8  -1   18.04    0.87
  -8  -1   1   16.52    1.50
  -1   9   1   17.92    1.00
   9  -8   1   18.73    0.95
  -9   9  -1  132.13    5.38
   0  -9  -1  140.81    7.84
   9   0  -1  141.33    6.19
   9   0  -1  140.31    5.45
   0  -9  -1  112.82    8.45
   0   9   1  134.36    6.22
  -9   0   1  121.48    8.02
   9  -9   1  130.17    6.16
  10  -1  -1   10.60    0.68
  10  -1  -1   10.78    0.63
  -9  10  -1   10.87    0.57
  -1  -9  -1   12.22    0.96
  -1  -9  -1    8.90    0.97
 -10   1   1    9.13    1.11
   1   9   1   10.29    0.72
   9 -10   1   10.52    0.59
  -2  -9  -1    7.86    0.81
  11  -2  -1    7.36    0.58
  -2  -9  -1    6.68    0.83
  -9  11  -1    6.55    0.44
  11  -2  -1    6.98    0.50
 -11   2   1    7.15    0.99
   2   9   1    7.18    0.64
   9 -11   1    7.15    0.45
  -9  12  -1    0.26    0.15
  -3  -9  -1    0.28    0.33
  12  -3  -1    0.28    0.24
  -3  -9  -1    0.28    0.38
  12  -3  -1    0.22    0.17
   3   9   1    0.59    0.31
   9 -12   1    0.51    0.58
 -12   3   1    0.52    0.49
  -4  -9  -1   11.82    1.20
  13  -4  -1   12.88    0.78
  13  -4  -1   13.30    0.74
  -9  13  -1   12.37    0.69
  -9  13  -1   12.08    0.66
   4   9   1   12.60    0.87
   9 -13   1    8.20    1.44
 -13   4   1    8.92    1.21
  -9  14  -1    0.88    0.20
  -5  -9  -1    0.61    0.46
  -9  14  -1    0.86    0.18
  14  -5  -1    0.64    0.21
   9 -14   1    0.29    0.58
 -14   5   1    0.62    0.49
   5   9   1    0.20    0.32
  15  -6  -1   55.65    2.61
  -6  -9  -1   52.05    3.57
  -9  15  -1   51.69    2.56
  -9  15  -1   52.29    2.28
 -15   6   1   50.68    2.36
   6   9   1   54.80    2.68
   9 -15   1   58.31    4.00
 -15   6   1   43.10    3.55
  -9  16  -1    5.44    0.46
  16  -7  -1    5.49    0.52
  -9  16  -1    6.08    0.47
  -7  -9  -1    5.68    0.97
   7   9   1    4.95    0.61
 -16   7   1    5.21    0.57
   9 -16   1    4.61    1.17
  -9  17  -1   28.80    1.52
  -8  -9  -1   30.30    2.31
  17  -8  -1   29.14    1.57
  -9  17  -1   28.52    1.38
   8   9   1   28.34    1.62
 -17   8   1   26.55    1.47
   9 -17   1   34.15    2.58
  18  -9  -1   43.54    2.13
  -9  18  -1   39.20    2.06
  -9  -9  -1   46.15    3.02
  -9  18  -1   36.37    1.84
 -18   9   1   36.68    1.92
   9   9   1   37.17    2.13
   9 -18   1   49.04    3.27
 -10  -9  -1    9.56    1.19
  19 -10  -1    6.28    0.66
  -9  19  -1    7.19    0.61
   9 -19   1    9.18    1.34
  10   9   1    6.64    0.71
 -19  10   1    5.93    0.66
  -8  18  -1   28.39    1.59
  18 -10  -1   31.80    1.66
 -10  -8  -1   35.47    2.45
  10   8   1   27.58    1.65
   8 -18   1   34.55    2.62
 -18  10   1   27.57    1.52
  -7  17  -1   16.83    0.95
 -10  -7  -1   20.34    1.72
  -7  17  -1   17.84    1.04
  17 -10  -1   18.86    1.10
 -17  10   1   17.73    1.04
   7 -17   1   23.48    1.93
  10   7   1   16.51    1.11
  16 -10  -1   30.51    1.59
  -6  16  -1   30.05    1.55
 -10  -6  -1   30.66    2.32
  -6  16  -1   28.21    1.39
  10   6   1   28.88    1.61
 -16  10   1   27.96    1.45
   6 -16   1   34.15    2.58
  15 -10  -1    4.52    0.46
  -5  15  -1    4.74    0.44
 -10  -5  -1    4.15    0.87
  -5  15  -1    4.18    0.43
   5 -15   1    3.92    1.05
  10   5   1    4.05    0.51
 -15  10   1    4.11    0.46
  -4  14  -1    1.86    0.27
  14 -10  -1    0.79    0.22
  -4  14  -1    0.60    0.19
 -10  -4  -1    0.35    0.45
   4 -14   1    0.56    0.55
  10   4   1    0.79    0.27
 -14  10   1    0.82    0.24
  -3  13  -1  222.19    9.08
  -3  13  -1  234.44   10.46
 -10  -3  -1  221.76    9.20
  13 -10  -1  230.86   14.16
  13 -10  -1  230.84   10.48
   3 -13   1  195.41   14.42
 -13  10   1  225.67    9.09
  10   3   1  228.24   10.51
 -10  -2  -1    7.85    1.12
  -2  12  -1   11.11    0.65
  -2  12  -1   12.17    0.68
 -10  -2  -1   10.93    0.79
  12 -10  -1   12.14    1.01
  12 -10  -1   11.23    0.67
 -12  10   1   11.93    0.64
  10   2   1   10.80    0.74
   2 -12   1    7.97    1.23
 -10  -1  -1   71.03    3.15
  -1  11  -1   74.86    3.46
  -1  11  -1   70.07    3.04
  11 -10  -1   74.00    3.47
  11 -10  -1   73.58    4.78
  10   1   1   71.25    3.51
 -11  10   1   70.90    3.01
   0  10  -1    0.63    0.19
   0  10  -1    0.61    0.21
 -10   0  -1    0.63    0.28
 -10   0  -1    0.22    0.41
  10 -10  -1    0.25    0.37
   0 -10   1    0.20    0.42
   0 -10   1    0.39    0.37
 -10  10   1    0.54    0.16
  10   0   1    1.19    0.25
 -10  10   1    1.23    0.24
   1   9  -1    9.35    0.61
 -10   1  -1   11.06    0.71
   1   9  -1   11.08    0.66
   9 -10  -1   10.60    1.13
  -9  10   1   11.73    0.64
  10  -1   1   10.52    0.69
  -1  -9   1    9.62    1.05
  -9  10   1   11.37    0.55
   8 -10  -1   14.77    1.46
   2   8  -1   17.24    0.90
   2   8  -1   16.30    0.83
   8 -10  -1   16.04    1.03
 -10   2  -1   17.35    0.89
  -2  -8   1   13.74    1.37
  10  -2   1   16.68    0.92
  -8  10   1   17.47    0.88
  -8  10   1   14.74    0.74
   7 -10  -1   34.63    2.88
 -10   3  -1   42.18    1.80
   3   7  -1   39.91    1.76
   3   7  -1   43.36    1.98
   7 -10  -1   40.06    2.40
  -7  10   1   42.02    1.67
  10  -3   1   40.31    1.98
  -7  10   1   41.95    1.96
  -3  -7   1   31.36    2.70
 -10   4  -1  239.62    9.62
 -10   4  -1  196.07   13.98
   6 -10  -1  241.37   13.79
   4   6  -1  254.08   11.05
   4   6  -1  237.05    9.60
  -6  10   1  241.07    9.51
  -6  10   1  243.38   11.05
  10  -4   1  242.41   11.06
 -10   5  -1   93.68    3.80
   5   5  -1   90.58    3.80
 -10   5  -1   91.45    5.52
   5 -10  -1   90.27    5.36
   5   5  -1   94.77    4.31
  -5  10   1   87.65    3.68
  10  -5   1   89.65    4.31
  -5  10   1   90.53    4.31
 -10   6  -1    9.86    0.73
 -10   6  -1    7.83    0.53
   6   4  -1    9.79    0.60
   4 -10  -1    9.29    0.66
   6   4  -1   10.13    0.56
  -6  -4   1    6.97    1.04
  10  -6   1    6.10    1.07
  -6  -4   1    8.14    0.84
  -4  10   1   10.07    0.58
  10  -6   1    9.04    0.54
   7   3  -1    5.77    0.40
   3 -10  -1    5.11    0.47
 -10   7  -1    5.03    0.38
   7   3  -1    6.18    0.50
  10  -7   1    3.45    0.97
  -7  -3   1    4.41    0.88
  10  -7   1    5.71    0.38
  -3  10   1    5.57    0.43
   8   2  -1    0.73    0.26
   2 -10  -1    0.16    0.35
   8   2  -1    0.76    0.18
   2 -10  -1    0.36    0.20
 -10   8  -1    0.71    0.16
  10  -8   1    0.44    0.13
  -8  -2   1    0.81    0.53
  -2  10   1    0.41    0.17
  10  -8   1    0.14    0.53
 -10   9  -1  115.04    4.84
   9   1  -1  117.96    4.89
   9   1  -1  126.16    5.56
   1 -10  -1  114.82    6.99
  -1  10   1  119.03    5.58
  10  -9   1  114.02    5.53
   0 -10  -1    0.54    0.35
  10   0  -1    0.60    0.18
   0 -10  -1    0.55    0.29
  10   0  -1    0.46    0.25
 -10  10  -1    0.54    0.16
   0  10   1    0.39    0.24
 -10   0   1    0.01    0.48
  10 -10   1   -0.34    0.52
  10 -10   1    0.56    0.14
  11  -1  -1   79.92    3.45
  -1 -10  -1   86.54    5.01
  -1 -10  -1   76.31    5.30
 -10  11  -1   77.26    3.38
  11  -1  -1   83.63    3.88
   1  10   1   82.25    3.93
  10 -11   1   81.14    3.84
  12  -2  -1   31.83    1.45
 -10  12  -1   28.08    1.34
  12  -2  -1   31.48    1.52
  -2 -10  -1   29.76    2.12
  -2 -10  -1   31.44    2.12
  10 -12   1   29.87    1.48
 -12   2   1   23.27    2.21
   2  10   1   29.19    1.62
  13  -3  -1   76.79    3.34
  13  -3  -1   79.85    3.73
  -3 -10  -1   77.67    4.91
 -10  13  -1   72.92    3.25
  -3 -10  -1   79.70    5.08
   3  10   1   77.56    3.81
  14  -4  -1    2.01    0.35
 -10  14  -1    1.48    0.24
  -4 -10  -1    1.09    0.53
 -10  14  -1    1.38    0.27
  14  -4  -1    1.18    0.32
  10 -14   1    1.40    0.72
 -14   4   1    1.14    0.61
   4  10   1    1.82    0.40
 -10  15  -1   91.90    4.34
  15  -5  -1   94.59    4.38
 -10  15  -1   91.18    3.82
  -5 -10  -1   93.77    5.80
  10 -15   1   98.31    6.36
   5  10   1   92.85    4.45
 -15   5   1   77.28    5.80
 -15   5   1   86.83    3.90
 -10  16  -1    0.85    0.22
  -6 -10  -1    0.75    0.51
 -10  16  -1    0.19    0.17
  16  -6  -1    0.51    0.23
 -16   6   1    0.28    0.50
  10 -16   1    0.30    0.60
 -16   6   1    0.22    0.30
   6  10   1   -0.13    0.30
 -10  17  -1    3.36    0.41
  -7 -10  -1    5.00    0.92
 -10  17  -1    3.36    0.41
 -17   7   1    3.63    0.54
   7  10   1    3.74    0.59
  10 -17   1    4.42    1.15
  18  -8  -1    0.23    0.24
 -10  18  -1   -0.02    0.19
 -10  18  -1    0.24    0.20
  -8 -10  -1    0.20    0.46
 -18   8   1    0.55    0.31
   8  10   1   -0.38    0.29
  10 -18   1    0.08    0.64
  19  -9  -1   43.17    2.29
  -9 -10  -1   49.65    3.24
 -10  19  -1   39.93    2.23
  10 -19   1   52.02    3.48
 -19   9   1   40.17    2.09
   9  10   1   42.68    2.31
 -10  20  -1    7.21    0.65
 -10 -10  -1    8.23    1.20
  20 -10  -1    7.85    0.72
  10  10   1    6.56    0.74
  10 -20   1    8.80    1.41
 -20  10   1    6.97    0.72
 -11  -9  -1   25.97    2.06
  20 -11  -1   21.81    1.36
  -9  20  -1   22.44    1.30
  11   9   1   21.07    1.36
 -20  11   1   21.55    1.30
   9 -20   1   25.16    2.24
  -8  19  -1   55.41    2.97
  19 -11  -1   58.38    3.03
 -11  -8  -1   69.64    4.18
 -19  11   1   55.59    2.72
  11   8   1   56.49    3.02
   8 -19   1   69.26    4.42
 -11  -7  -1   42.28    2.85
  -7  18  -1   35.07    1.93
  18 -11  -1   36.91    1.99
 -18  11   1   35.28    1.82
  11   7   1   35.10    1.99
   7 -18   1   45.68    3.07
  -6  17  -1   53.05    2.73
  17 -11  -1   53.56    2.76
 -11  -6  -1   58.02    3.80
  11   6   1   52.94    2.78
 -17  11   1   51.72    2.48
   6 -17   1   65.45    4.12
  -5  16  -1    0.93    0.26
 -11  -5  -1    1.57    0.59
  -5  16  -1    1.86    0.36
  16 -11  -1    1.14    0.27
  11   5   1    1.09    0.31
 -16  11   1    1.52    0.32
   5 -16   1    1.05    0.65
  -4  15  -1  109.78    4.81
 -11  -4  -1  115.29    7.25
  -4  15  -1  120.05    5.52
  15 -11  -1  119.39    5.54
 -15  11   1  110.54    4.83
  11   4   1  112.56    5.56
   4 -15   1  126.10    7.83
  -3  14  -1    7.74    0.54
  -3  14  -1    7.61    0.55
  14 -11  -1    7.07    0.55
 -11  -3  -1    7.77    1.03
 -11  -3  -1    7.77    0.71
 -14  11   1    7.14    0.53
  11   3   1    7.58    0.62
   3 -14   1    7.33    1.15
  13 -11  -1    8.03    0.86
  -2  13  -1    8.06    0.55
  -2  13  -1    8.39    0.58
 -11  -2  -1    8.76    0.71
  13 -11  -1    8.94    0.58
 -11  -2  -1    6.94    1.00
   2 -13   1    8.00    1.16
  11   2   1    8.56    0.65
 -13  11   1    8.96    0.56
 -11  -1  -1   10.20    0.81
  12 -11  -1   11.96    0.72
  -1  12  -1   13.09    0.74
  -1  12  -1   11.49    0.68
  12 -11  -1   11.73    1.11
   1 -12   1    8.05    1.24
  11   1   1   12.97    0.79
 -12  11   1   12.08    0.65
   0  11  -1   10.05    0.62
   0  11  -1   10.57    0.65
  11 -11  -1   10.34    1.08
 -11   0  -1    9.97    0.75
  11   0   1    9.57    0.70
 -11  11   1   10.32    0.57
 -11  11   1   10.89    0.64
   0 -11   1    8.45    0.93
   1  10  -1   80.58    3.46
  10 -11  -1   83.59    5.54
   1  10  -1   83.81    3.95
 -11   1  -1   86.93    3.59
 -10  11   1   86.92    3.96
  -1 -10   1   75.62    5.10
  11  -1   1   81.78    3.98
   2   9  -1    7.64    0.54
   2   9  -1    7.45    0.56
   9 -11  -1    5.66    1.03
 -11   2  -1    7.86    0.62
  -2  -9   1    8.01    0.95
  -9  11   1    7.45    0.43
  -9  11   1    7.96    0.51
  11  -2   1    7.77    0.56
   3   8  -1  101.17    4.19
 -11   3  -1  107.38    4.27
   8 -11  -1   85.18    6.67
   3   8  -1  105.68    4.79
  -8  11   1  106.50    4.78
  11  -3   1  101.85    4.79
  -3  -8   1   94.05    6.23
  -8  11   1  102.05    4.10
 -11   4  -1   23.70    1.19
   4   7  -1   23.84    1.15
   4   7  -1   25.25    1.26
  -4  -7   1   21.30    1.87
  11  -4   1   23.86    1.26
  -7  11   1   24.82    1.24
  -7  11   1   23.53    1.03
 -11   5  -1   24.46    1.14
   5   6  -1   22.82    1.13
   6 -11  -1   22.84    1.45
 -11   5  -1   20.99    1.68
   5   6  -1   23.85    1.20
  11  -5   1   23.80    1.21
  -6  11   1   24.52    1.21
  -5  -6   1   19.21    1.82
   6   5  -1    5.02    0.47
 -11   6  -1    4.87    0.60
   5 -11  -1    4.47    0.43
   6   5  -1    4.76    0.40
 -11   6  -1    5.19    0.43
  -5  11   1    5.35    0.41
  11  -6   1    4.61    0.38
  -6  -5   1    4.53    0.91
 -11   7  -1   42.32    1.87
   7   4  -1   44.18    2.08
   7   4  -1   41.45    1.89
   4 -11  -1   41.10    2.57
  -4  11   1   42.33    2.09
  11  -7   1   42.12    2.07
   3 -11  -1  156.35    9.56
 -11   8  -1  152.44    6.65
   8   3  -1  173.32    7.64
   8   3  -1  160.46    6.69
  11  -8   1  158.51    7.62
  -3  11   1  177.12    7.68
   9   2  -1    9.35    0.65
 -11   9  -1    9.08    0.56
   9   2  -1   10.06    0.61
   2 -11  -1    9.94    0.77
  -2  11   1   10.17    0.66
  11  -9   1    9.87    0.58
  -9  -2   1    5.97    1.11
  10   1  -1   72.69    3.25
   1 -11  -1   56.61    4.47
  10   1  -1   68.86    2.91
 -11  10  -1   67.74    2.84
   1 -11  -1   67.88    4.11
  11 -10   1   66.09    3.21
  -1  11   1   70.08    3.28
 -11  11  -1    9.75    0.57
  11   0  -1   10.51    0.65
   0 -11  -1    9.31    0.99
   0 -11  -1   10.59    0.91
  11   0  -1   10.30    0.69
 -11   0   1    7.49    1.18
  11 -11   1    9.71    0.59
   0  11   1    9.52    0.73
  -1 -11  -1   71.16    4.10
 -11  12  -1   59.80    2.73
  12  -1  -1   64.80    2.82
  12  -1  -1   67.18    3.14
  -1 -11  -1   64.36    4.30
   1  11   1   63.94    3.19
  11 -12   1   60.87    3.09
  -2 -11  -1   92.51    5.91
  13  -2  -1   95.83    4.35
 -11  13  -1   89.19    3.79
  -2 -11  -1   95.89    5.66
  13  -2  -1   92.39    3.87
  11 -13   1   75.45    6.19
  11 -13   1   90.05    4.30
   2  11   1   91.93    4.42
  -3 -11  -1    2.50    0.62
  14  -3  -1    2.58    0.43
  14  -3  -1    2.58    0.38
 -11  14  -1    3.12    0.34
 -11  14  -1    2.43    0.32
 -14   3   1    2.39    0.71
  11 -14   1    1.77    0.74
   3  11   1    1.47    0.40
  -4 -11  -1  105.34    6.56
 -11  15  -1  107.62    4.99
  15  -4  -1  108.04    5.03
 -11  15  -1  103.82    4.38
   4  11   1  106.21    5.11
  11 -15   1  112.55    7.21
 -15   4   1   89.49    6.62
  -5 -11  -1    2.50    0.67
  16  -5  -1    1.61    0.30
 -11  16  -1    1.66    0.28
 -11  16  -1    1.77    0.33
   5  11   1    0.87    0.38
 -16   5   1    1.34    0.65
  11 -16   1    1.38    0.74
 -16   5   1    2.10    0.38
  -6 -11  -1   79.84    5.00
 -11  17  -1   72.43    3.24
 -11  17  -1   72.34    3.67
  17  -6  -1   73.88    3.72
   6  11   1   73.74    3.78
 -17   6   1   76.33    5.07
 -17   6   1   72.44    3.33
  11 -17   1   90.40    5.46
  18  -7  -1   15.63    1.00
  -7 -11  -1   15.81    1.57
 -11  18  -1   16.22    0.89
 -11  18  -1   14.92    0.93
  11 -18   1   19.43    1.83
 -18   7   1   14.66    1.00
   7  11   1   15.09    1.07
  -8 -11  -1   30.03    2.28
 -11  19  -1   25.18    1.45
  19  -8  -1   26.79    1.52
  11 -19   1   33.00    2.48
 -19   8   1   23.67    1.42
   8  11   1   25.40    1.56
  20  -9  -1    8.15    0.74
  -9 -11  -1    9.89    1.29
 -11  20  -1    7.46    0.67
  11 -20   1    9.25    1.45
 -20   9   1    6.88    0.75
   9  11   1    7.63    0.79
  -8  20  -1   54.11    2.73
  20 -12  -1   55.64    2.79
  12   8   1   52.70    2.77
 -20  12   1   53.44    2.53
  19 -12  -1    0.22    0.27
 -12  -7  -1    0.39    0.53
  -7  19  -1    0.23    0.24
 -19  12   1    0.28    0.33
   7 -19   1   -0.05    0.62
  12   7   1    0.15    0.30
  -6  18  -1    1.15    0.29
 -12  -6  -1    1.65    0.63
  18 -12  -1    0.63    0.27
  12   6   1    0.85    0.31
   6 -18   1    1.01    0.67
 -18  12   1    0.98    0.34
 -12  -5  -1   18.74    1.59
  17 -12  -1   15.95    0.99
  -5  17  -1   15.85    0.96
 -17  12   1   13.21    0.91
   5 -17   1   18.96    1.70
  12   5   1   14.43    0.98
  -4  16  -1   53.79    2.75
  16 -12  -1   54.84    2.78
 -12  -4  -1   59.68    3.83
   4 -16   1   63.29    4.09
  12   4   1   52.17    2.79
 -16  12   1   54.18    2.47
 -12  -3  -1    0.26    0.46
  -3  15  -1    0.61    0.22
  15 -12  -1    0.20    0.21
  -3  15  -1    0.34    0.22
   3 -15   1    0.45    0.52
 -15  12   1    0.32    0.22
  12   3   1   -0.03    0.23
  -2  14  -1   54.91    2.48
 -12  -2  -1   59.78    2.63
 -12  -2  -1   53.12    3.83
  14 -12  -1   57.50    2.83
  14 -12  -1   59.09    3.87
  -2  14  -1   59.64    2.82
 -14  12   1   57.28    2.48
  12   2   1   55.27    2.85
   2 -14   1   59.96    4.13
 -12  -1  -1   35.32    2.83
  13 -12  -1   43.44    2.88
  -1  13  -1   42.00    2.04
  -1  13  -1   39.10    1.81
 -12  -1  -1   41.80    1.98
  12   1   1   39.78    2.08
 -13  12   1   41.52    1.80
   1 -13   1   40.54    3.05
  12 -12  -1   60.61    3.96
 -12   0  -1   56.54    2.61
   0  12  -1   57.38    2.48
   0  12  -1   59.06    2.81
  12   0   1   57.79    2.85
   0 -12   1   49.75    4.01
 -12  12   1   59.81    2.82
 -12   1  -1   66.28    2.95
   1  11  -1   65.24    3.20
   1  11  -1   65.59    2.82
  11 -12  -1   68.65    4.55
 -11  12   1   68.56    2.78
  -1 -11   1   62.80    4.14
 -11  12   1   67.97    3.21
  12  -1   1   64.07    3.23
   2  10  -1   30.62    1.56
 -12   2  -1   30.19    1.50
   2  10  -1   29.72    1.39
  10 -12  -1   27.34    2.34
 -10  12   1   29.66    1.31
  -2 -10   1   29.68    2.12
  12  -2   1   28.78    1.56
 -10  12   1   31.57    1.54
 -12   3  -1    0.13    0.26
   3   9  -1    0.27    0.23
   3   9  -1    0.17    0.23
   9 -12  -1    0.08    0.52
 -12   3  -1    0.53    0.43
  -3  -9   1    0.42    0.39
  -3  -9   1    0.37    0.44
  -9  12   1    0.35    0.13
  12  -3   1    0.33    0.20
  -9  12   1    0.27    0.16
   4   8  -1    8.99    0.64
 -12   4  -1   10.83    0.69
   4   8  -1    9.15    0.62
   8 -12  -1    6.75    1.19
  -8  12   1    9.13    0.59
  12  -4   1    8.54    0.61
  -4  -8   1    8.85    1.08
   7 -12  -1    3.53    0.99
   5   7  -1    6.56    0.54
   5   7  -1    6.35    0.50
 -12   5  -1    4.22    0.80
 -12   5  -1    6.73    0.54
  -7  12   1    6.60    0.48
  -5  -7   1    7.90    1.02
  12  -5   1    6.28    0.48
   6   6  -1   92.30    3.85
   6   6  -1   96.42    4.35
  -6  -6   1   77.86    5.73
  -6  12   1   94.81    4.36
  12  -6   1   93.41    4.36
   7   5  -1  114.51    5.33
   7   5  -1  113.88    4.71
  12  -7   1  110.24    5.33
  -5  12   1  113.18    5.35
 -12   8  -1   22.55    1.07
   8   4  -1   23.52    1.15
   4 -12  -1   21.60    1.41
   8   4  -1   21.50    1.11
  12  -8   1   22.18    1.13
  -4  12   1   20.73    1.16
  -8  -4   1   16.72    1.78
   9   3  -1   24.43    1.20
 -12   9  -1   24.07    1.15
   3 -12  -1   23.19    1.56
   9   3  -1   25.67    1.27
  -3  12   1   25.12    1.30
  12  -9   1   23.95    1.24
  -9  -3   1   19.84    1.93
 -12  10  -1   10.68    0.63
  10   2  -1   11.45    0.68
  10   2  -1   10.91    0.72
   2 -12  -1   10.87    0.86
   2 -12  -1    9.42    1.08
  -2  12   1   11.33    0.73
 -10  -2   1    9.10    1.24
  12 -10   1   11.04    0.64
  12 -10   1    8.05    1.30
   1 -12  -1   10.51    0.90
  11   1  -1   11.69    0.74
  11   1  -1   11.84    0.70
 -12  11  -1   11.25    0.63
   1 -12  -1   10.11    1.06
 -11  -1   1    8.05    1.23
  12 -11   1    7.71    1.32
  -1  12   1   11.74    0.76
  12 -11   1   10.88    0.64
 -12  12  -1   54.32    2.34
  12   0  -1   57.00    2.42
   0 -12  -1   53.44    3.67
   0 -12  -1   59.66    3.45
  12   0  -1   57.93    2.67
 -12   0   1   43.86    3.65
  12 -12   1   55.08    2.62
  12 -12   1   45.72    3.89
   0  12   1   54.86    2.71
  -1 -12  -1    3.38    0.62
  13  -1  -1    2.54    0.39
  13  -1  -1    2.78    0.38
  -1 -12  -1    2.90    0.64
 -12  13  -1    2.52    0.32
  12 -13   1    2.59    0.80
   1  12   1    2.65    0.43
  12 -13   1    2.57    0.32
 -13   1   1    2.20    0.70
  -2 -12  -1  100.04    5.82
  14  -2  -1   95.61    4.47
 -12  14  -1   92.38    3.90
  14  -2  -1   92.85    3.98
  -2 -12  -1   96.59    6.07
  12 -14   1   90.73    4.43
 -14   2   1   80.30    5.94
  12 -14   1   91.11    6.39
   2  12   1   95.28    4.56
 -12  15  -1    4.17    0.42
  -3 -12  -1    4.47    0.85
  15  -3  -1    5.57    0.49
  15  -3  -1    4.65    0.57
 -12  15  -1    4.28    0.42
   3  12   1    3.76    0.67
  12 -15   1    5.32    1.18
 -15   3   1    3.35    0.86
 -12  16  -1   25.86    1.30
 -12  16  -1   26.18    1.42
  -4 -12  -1   26.41    2.11
  16  -4  -1   27.17    1.47
  12 -16   1   27.46    2.39
   4  12   1   27.93    1.60
 -16   4   1   27.65    2.28
 -12  17  -1   37.67    1.97
  -5 -12  -1   41.06    2.85
  17  -5  -1   37.46    2.01
 -12  17  -1   37.86    1.78
 -17   5   1   37.58    2.93
   5  12   1   37.85    2.11
 -17   5   1   37.58    1.88
  12 -17   1   44.48    3.15
 -12  18  -1    0.93    0.26
  18  -6  -1    0.26    0.27
  -6 -12  -1    0.83    0.59
 -12  18  -1    0.64    0.23
  12 -18   1    1.24    0.72
   6  12   1    0.29    0.38
 -18   6   1    1.13    0.35
  -7 -12  -1   13.99    1.44
  19  -7  -1   11.80    0.86
 -12  19  -1   11.11    0.79
 -12  19  -1   10.69    0.75
  12 -19   1   14.48    1.60
   7  12   1   10.36    0.93
 -19   7   1   13.01    0.91
  -8 -12  -1   20.57    1.77
 -12  20  -1   16.98    1.04
  20  -8  -1   16.33    1.10
   8  12   1   14.72    1.15
  12 -20   1   17.43    1.90
  20 -13  -1    5.10    0.65
 -20  13   1    5.95    0.69
  13   7   1    5.27    0.64
 -13  -6  -1    4.28    0.96
  19 -13  -1    1.91    0.37
 -19  13   1    1.93    0.40
   6 -19   1    2.83    0.77
  13   6   1    1.21    0.36
  -5  18  -1   11.88    0.83
 -13  -5  -1   14.26    1.40
  18 -13  -1   11.49    0.84
 -18  13   1   11.09    0.81
  13   5   1   10.27    0.84
   5 -18   1   12.76    1.43
  -4  17  -1   51.12    2.69
 -13  -4  -1   60.77    3.78
  17 -13  -1   52.81    2.73
 -17  13   1   51.12    2.42
   4 -17   1   61.65    3.96
  13   4   1   51.08    2.73
 -13  -3  -1    0.88    0.55
  16 -13  -1    0.90    0.27
  -3  16  -1    1.80    0.31
   3 -16   1    1.08    0.57
 -16  13   1    1.39    0.30
  13   3   1    1.05    0.31
  -2  15  -1   15.94    0.98
 -13  -2  -1   18.50    1.09
  15 -13  -1   16.57    1.00
 -13  -2  -1   16.81    1.56
  -2  15  -1   15.83    0.90
   2 -15   1   16.97    1.60
  13   2   1   15.71    1.02
 -15  13   1   16.81    0.91
  -1  14  -1   11.27    0.77
  14 -13  -1   11.94    1.18
 -13  -1  -1   13.05    1.31
 -13  -1  -1   12.33    0.91
  -1  14  -1   10.98    0.72
  13   1   1   10.64    0.80
 -14  13   1   12.74    0.78
   1 -14   1   13.35    1.33
   0  13  -1   13.25    0.78
  13 -13  -1   13.27    1.33
 -13   0  -1   11.58    0.91
   0  13  -1   13.70    0.85
 -13   0  -1   12.92    1.34
 -13  13   1   13.67    0.73
   0 -13   1   14.48    1.39
  13   0   1   12.92    0.86
 -13  13   1   14.03    0.83
 -13   1  -1    3.17    0.78
   1  12  -1    3.45    0.43
   1  12  -1    2.37    0.35
  12 -13  -1    4.50    0.91
 -13   1  -1    4.14    0.60
  13  -1   1    2.61    0.43
 -12  13   1    2.72    0.36
  -1 -12   1    2.85    0.68
 -12  13   1    2.62    0.30
  -1 -12   1    3.20    0.62
 -13   2  -1   96.13    4.11
   2  11  -1   96.44    4.55
   2  11  -1   92.66    3.98
  11 -13  -1  100.68    6.41
  13  -2   1   93.80    4.57
  -2 -11   1   94.62    5.83
  -2 -11   1   84.59    6.27
 -11  13   1   99.30    4.54
 -11  13   1   94.84    3.91
  10 -13  -1   76.21    5.30
   3  10  -1   76.77    3.26
 -13   3  -1   80.88    3.38
   3  10  -1   80.06    3.72
  -3 -10   1   77.99    4.83
  13  -3   1   74.17    3.71
 -10  13   1   80.42    3.70
  -3 -10   1   66.47    5.11
 -13   4  -1   12.32    0.82
   9 -13  -1    8.98    1.39
   4   9  -1   12.25    0.76
   4   9  -1   12.99    0.80
  -4  -9   1   13.28    1.25
  13  -4   1   12.17    0.78
  -4  -9   1    8.98    1.12
  -9  13   1   15.31    0.78
   5   8  -1    0.43    0.26
   8 -13  -1   -0.01    0.50
 -13   5  -1   -0.19    0.38
 -13   5  -1    0.02    0.23
   5   8  -1    0.40    0.23
  -5  -8   1    0.17    0.46
  13  -5   1    0.50    0.20
  -8  13   1    0.35    0.18
   6   7  -1   21.22    1.09
 -13   6  -1   21.95    1.12
   6   7  -1   20.46    1.13
  13  -6   1   20.77    1.14
  -6  -7   1   19.51    1.75
  -7  13   1   21.30    1.14
   7   6  -1   31.20    1.55
   7   6  -1   31.08    1.45
  -6  13   1   30.94    1.56
  13  -7   1   29.09    1.54
  -7  -6   1   27.34    2.27
 -13   8  -1   37.20    1.65
   8   5  -1   35.04    1.65
   8   5  -1   35.88    1.78
  -5  13   1   36.85    1.81
  13  -8   1   34.51    1.77
  -8  -5   1   31.10    2.57
 -13   9  -1   35.16    1.63
   9   4  -1   35.30    1.66
   9   4  -1   37.79    1.80
  -4  13   1   37.77    1.84
  13  -9   1   35.48    1.79
  -9  -4   1   30.31    2.59
  10   3  -1  221.04    8.68
  10   3  -1  231.91    9.94
   3 -13  -1  189.41   13.56
 -13  10  -1  211.59    8.66
  13 -10   1  212.38    9.91
  -3  13   1  227.28    9.97
 -10  -3   1  188.93   12.78
   2 -13  -1    7.89    0.73
   2 -13  -1    7.60    0.94
 -13  11  -1    8.08    0.54
  11   2  -1    7.50    0.57
  11   2  -1    8.59    0.65
 -11  -2   1    7.56    1.14
  13 -11   1    6.70    1.14
  -2  13   1    8.29    0.65
  13 -11   1    8.27    0.54
  12   1  -1   40.97    1.95
  12   1  -1   40.72    1.81
 -13  12  -1   37.16    1.73
   1 -13  -1   39.89    2.50
   1 -13  -1   39.49    2.74
  -1  13   1   39.09    1.99
  13 -12   1   32.36    2.89
 -12  -1   1   33.54    2.80
  13 -12   1   38.49    1.91
  13   0  -1   12.04    0.80
   0 -13  -1   12.57    1.11
 -13  13  -1   12.59    0.73
  13   0  -1   14.40    0.86
   0 -13  -1   14.46    1.20
 -13   0   1   11.51    1.42
  13 -13   1   10.69    1.45
   0  13   1   13.32    0.91
  13 -13   1   12.87    0.76
  14  -1  -1   32.05    1.74
  14  -1  -1   34.58    1.65
 -13  14  -1   32.33    1.55
  -1 -13  -1   36.07    2.43
  -1 -13  -1   35.40    2.37
   1  13   1   35.08    1.85
  13 -14   1   32.86    1.71
 -14   1   1   30.39    2.58
  13 -14   1   32.95    2.71
  15  -2  -1    3.91    0.48
  -2 -13  -1    3.35    0.77
 -13  15  -1    3.02    0.38
  15  -2  -1    4.27    0.58
   2  13   1    4.02    0.66
  13 -15   1    5.06    1.12
 -15   2   1    3.25    0.87
 -13  16  -1    8.30    0.58
 -13  16  -1    8.34    0.60
  16  -3  -1    8.15    0.65
 -16   3   1    7.89    1.25
  13 -16   1    9.29    1.33
   3  13   1    7.61    0.83
 -13  17  -1    0.29    0.20
 -13  17  -1    0.43    0.22
  17  -4  -1    0.38    0.26
  -4 -13  -1    0.24    0.48
  13 -17   1    1.00    0.66
   4  13   1    0.53    0.39
 -17   4   1    0.28    0.31
 -17   4   1    0.80    0.63
 -13  18  -1   33.48    1.79
  18  -5  -1   33.77    1.84
 -13  18  -1   33.36    1.62
  -5 -13  -1   36.91    2.64
 -18   5   1   31.54    1.71
 -18   5   1   37.28    2.74
   5  13   1   32.32    1.93
  13 -18   1   37.40    2.84
 -13  19  -1    1.23    0.30
 -13  19  -1    1.20    0.28
  -6 -13  -1    1.73    0.64
  19  -6  -1    0.58    0.31
  13 -19   1    1.03    0.72
 -19   6   1    1.48    0.41
   6  13   1    0.71    0.42
  20  -7  -1   50.44    2.66
 -13  20  -1   48.59    2.60
  -7 -13  -1   59.30    3.73
  13 -20   1   56.41    4.10
   7  13   1   46.81    2.70
  19 -14  -1   15.22    1.05
 -14  -5  -1   20.58    1.71
 -19  14   1   16.08    1.03
   5 -19   1   15.96    1.64
  14   5   1   14.60    1.05
 -14  -4  -1   93.03    5.46
  18 -14  -1   76.94    4.07
   4 -18   1   90.52    5.71
  14   4   1   75.10    4.06
  17 -14  -1   16.64    1.06
 -14  -3  -1   19.59    1.67
  14   3   1   15.16    1.05
   3 -17   1   17.86    1.64
 -14  -2  -1    0.36    0.47
 -16  14   1    0.02    0.23
   2 -16   1    0.33    0.47
  14   2   1    0.00    0.25
 -14  -1  -1    0.17    0.33
  15 -14  -1    0.04    0.38
 -14  -1  -1    0.21    0.44
   1 -15   1    0.13    0.44
 -15  14   1    0.30    0.20
  14   1   1    0.38    0.26
 -15  14   1    0.35    0.23
  14 -14  -1   24.75    1.92
 -14   0  -1   26.66    1.98
   0  14  -1   19.93    1.15
 -14   0  -1   25.05    1.35
 -14  14   1   21.83    1.11
 -14  14   1   22.96    1.28
   0 -14   1   23.70    1.92
  14   0   1   21.33    1.30
   1  13  -1   33.81    1.64
 -14   1  -1   35.40    1.82
 -14   1  -1   34.32    2.60
  13 -14  -1   39.74    2.75
 -13  14   1   33.07    1.57
  14  -1   1   33.22    1.86
 -13  14   1   36.50    1.84
  -1 -13   1   38.28    2.67
 -14   2  -1   98.13    4.21
   2  12  -1   95.10    4.07
   2  12  -1   95.72    4.67
  12 -14  -1  101.27    6.54
  -2 -12   1   95.79    6.40
  -2 -12   1   95.06    5.91
 -12  14   1   97.90    4.64
  14  -2   1   93.11    4.65
   3  11  -1    2.28    0.46
   3  11  -1    2.69    0.37
 -14   3  -1    2.23    0.43
 -14   3  -1    1.52    0.59
  11 -14  -1    2.71    0.77
  14  -3   1    2.48    0.42
  -3 -11   1    2.20    0.56
 -11  14   1    2.58    0.35
  -3 -11   1    2.19    0.55
  10 -14  -1    0.84    0.63
 -14   4  -1    1.66    0.37
 -14   4  -1    0.74    0.50
   4  10  -1    1.67    0.32
   4  10  -1    2.16    0.35
  14  -4   1    1.33    0.27
  -4 -10   1    1.77    0.55
 -10  14   1    1.69    0.26
   9 -14  -1    0.36    0.61
   5   9  -1    0.82    0.28
 -14   5  -1    0.04    0.41
 -14   5  -1    0.92    0.32
   5   9  -1    0.56    0.25
  14  -5   1    0.55    0.22
  -5  -9   1    0.70    0.49
  -9  14   1    0.76    0.21
   6   8  -1  103.94    4.89
 -14   6  -1  101.67    4.39
   6   8  -1  102.25    4.32
  -6  -8   1  106.40    6.43
  14  -6   1  100.75    4.91
  -8  14   1  101.51    4.90
 -14   7  -1   95.60    4.09
   7   7  -1   99.67    4.56
   7   7  -1   94.39    4.04
  -7  -7   1   95.74    6.03
  14  -7   1   92.31    4.56
  -7  14   1   95.36    4.58
   8   6  -1   10.82    0.73
   6 -14  -1    7.33    1.17
   8   6  -1   11.72    0.69
  -6  14   1   11.56    0.72
  -8  -6   1   10.30    1.22
  14  -8   1   10.69    0.68
 -14   9  -1    6.62    0.54
   9   5  -1    7.91    0.54
   9   5  -1    7.46    0.60
   5 -14  -1    6.30    0.97
  -5  14   1    7.83    0.58
  -9  -5   1    7.65    1.09
  14  -9   1    6.43    0.51
 -14  10  -1    0.56    0.21
  10   4  -1    0.91    0.23
   4 -14  -1    1.11    0.45
  10   4  -1    1.65    0.34
  14 -10   1    0.80    0.20
 -10  -4   1    1.12    0.57
  -4  14   1    0.77    0.24
 -14  11  -1    7.86    0.55
   3 -14  -1    7.76    0.94
  11   3  -1    7.71    0.63
  11   3  -1    6.74    0.54
 -11  -3   1    5.87    1.07
  14 -11   1    6.63    0.51
  -3  14   1    7.04    0.60
 -14  12  -1   53.55    2.45
   2 -14  -1   60.84    3.88
  12   2  -1   56.67    2.49
  12   2  -1   57.40    2.76
  -2  14   1   56.04    2.80
 -12  -2   1   52.94    3.83
  14 -12   1   53.21    2.72
  13   1  -1   10.67    0.72
   1 -14  -1   12.14    1.11
  13   1  -1   10.34    0.77
 -14  13  -1   10.49    0.67
 -13  -1   1    9.98    1.32
  -1  14   1   10.67    0.81
  14 -13   1    9.21    1.28
  14 -13   1   10.90    0.68
  14   0  -1   20.55    1.21
   0 -14  -1   22.18    1.63
  14   0  -1   21.71    1.19
   0 -14  -1   24.67    1.74
 -14  14  -1   20.54    1.09
  14 -14   1   20.13    1.92
  14 -14   1   20.09    1.16
   0  14   1   22.69    1.33
 -14   0   1   21.73    1.96
  15  -1  -1    3.76    0.58
 -14  15  -1    2.89    0.39
  -1 -14  -1    5.41    0.79
  -1 -14  -1    5.08    0.72
  15  -1  -1    3.77    0.47
   1  14   1    4.01    0.65
  14 -15   1    3.20    0.81
 -15   1   1    4.72    1.05
  14 -15   1    3.94    0.43
 -14  16  -1    7.85    0.60
  -2 -14  -1    9.18    1.06
 -14  16  -1    8.02    0.59
  16  -2  -1    8.20    0.68
  16  -2  -1    8.59    0.75
   2  14   1    8.16    0.84
  14 -16   1    7.45    1.25
 -16   2   1    8.75    1.26
  -3 -14  -1    2.89    0.71
 -14  17  -1    2.02    0.38
 -14  17  -1    2.45    0.35
  17  -3  -1    2.70    0.48
  14 -17   1    2.58    0.78
   3  14   1    1.99    0.50
 -17   3   1    2.27    0.76
 -14  18  -1    7.81    0.62
  -4 -14  -1    8.34    1.17
 -14  18  -1    8.14    0.63
  14 -18   1    7.44    1.30
 -18   4   1    8.29    0.77
 -18   4   1    9.70    1.32
   4  14   1    6.54    0.87
 -14  19  -1   12.25    0.82
  -5 -14  -1   11.93    1.40
 -14  19  -1   11.65    0.78
  14 -19   1   12.39    1.57
 -19   5   1   11.53    0.90
   5  14   1   10.96    1.02
 -15  -4  -1    6.95    1.10
 -19  15   1    5.69    0.63
  15   4   1    3.92    0.60
   4 -19   1    5.17    1.03
 -15  -3  -1   47.91    3.09
  15   3   1   36.95    2.16
   3 -18   1   43.27    3.10
 -18  15   1   39.86    1.95
 -15  -2  -1    1.11    0.59
   2 -17   1    1.12    0.52
 -17  15   1    0.93    0.28
 -17  15   1    0.83    0.28
  15   2   1    0.42    0.29
 -15  -1  -1    5.78    0.99
 -15  -1  -1    4.14    0.68
 -16  15   1    3.45    0.48
 -16  15   1    3.92    0.44
   1 -16   1    3.49    0.83
  15   1   1    3.43    0.53
 -15   0  -1   49.71    2.33
  15 -15  -1   47.89    3.40
 -15   0  -1   52.09    3.38
 -15  15   1   44.74    2.41
   0 -15   1   47.62    3.38
  15   0   1   44.61    2.44
 -15   1  -1    5.82    0.97
 -15   1  -1    3.41    0.57
  14 -15  -1    4.83    1.00
  15  -1   1    4.12    0.55
 -14  15   1    4.69    0.49
  -1 -14   1    4.18    0.80
  13 -15  -1    3.97    1.06
   2  13  -1    3.43    0.51
 -15   2  -1    4.00    0.90
 -15   2  -1    4.34    0.67
  -2 -13   1    3.30    0.73
 -13  15   1    3.57    0.45
  15  -2   1    3.75    0.49
 -15   3  -1    4.71    0.68
  12 -15  -1    4.47    1.12
   3  12  -1    4.58    0.53
 -15   3  -1    4.00    0.88
  -3 -12   1    4.25    0.75
 -12  15   1    4.17    0.46
  15  -3   1    4.15    0.50
  11 -15  -1  100.15    7.12
   4  11  -1  104.41    4.42
 -15   4  -1  108.40    4.56
  -4 -11   1  107.63    6.47
 -11  15   1  106.84    5.03
  15  -4   1  101.83    5.04
 -15   5  -1  100.67    4.14
   5  10  -1   94.52    4.01
  10 -15  -1   81.76    6.43
  15  -5   1   91.83    4.54
 -10  15   1   96.83    4.54
  -5 -10   1   99.88    5.91
 -15   6  -1   57.98    2.53
   9 -15  -1   44.93    3.94
   6   9  -1   54.77    2.42
  15  -6   1   53.93    2.71
  -9  15   1   56.14    2.70
  -6  -9   1   57.23    3.63
   7   8  -1    2.20    0.38
 -15   7  -1    2.18    0.38
   8 -15  -1    1.02    0.60
  15  -7   1    1.49    0.28
  -7  -8   1    2.38    0.65
  -8  15   1    2.06    0.38
   8   7  -1   31.27    1.44
   7 -15  -1   23.24    2.29
  -8  -7   1   28.24    2.22
  15  -8   1   30.13    1.52
  -7  15   1   29.83    1.54
 -15   9  -1    3.92    0.47
   6 -15  -1    4.09    0.89
   9   6  -1    3.89    0.51
  15  -9   1    3.34    0.41
  -9  -6   1    4.56    0.92
  -6  15   1    3.58    0.44
  10   5  -1    4.01    0.52
 -15  10  -1    4.56    0.47
   5 -15  -1    3.57    0.86
  15 -10   1    3.58    0.41
 -10  -5   1    4.44    0.95
  -5  15   1    4.17    0.50
   4 -15  -1  110.76    7.29
 -15  11  -1  107.86    4.64
  11   4  -1  114.16    4.65
  15 -11   1  106.52    5.24
 -11  -4   1  113.29    6.96
  -4  15   1  109.15    5.28
  12   3  -1    1.46    0.35
 -15  12  -1   -0.07    0.19
   3 -15  -1    0.04    0.35
  15 -12   1    0.12    0.18
 -12  -3   1    0.11    0.52
  -3  15   1    0.48    0.27
 -15  13  -1   16.04    0.91
   2 -15  -1   16.97    1.44
  13   2  -1   16.23    0.98
 -13  -2   1   16.70    1.64
  15 -13   1   15.51    0.94
  -2  15   1   16.09    1.04
  14   1  -1    0.13    0.30
 -15  14  -1    0.36    0.22
   1 -15  -1    0.29    0.35
  -1  15   1    0.55    0.32
 -14  -1   1    0.53    0.56
  15 -14   1    0.11    0.19
  15   0  -1   45.67    2.12
 -15  15  -1   42.76    2.04
   0 -15  -1   49.44    3.16
  15 -15   1   42.77    2.25
 -15   0   1   49.27    3.31
   0  15   1   45.26    2.39
  15 -15   1   39.85    3.25
  16  -1  -1  136.92    5.71
 -15  16  -1  129.65    5.64
 -16   1   1  151.48    8.52
   1  15   1  131.58    6.54
  15 -16   1  128.65    8.88
 -15  17  -1    2.73    0.42
 -15  17  -1    4.73    0.47
   2  15   1    2.70    0.53
 -17   2   1    3.33    0.86
  15 -17   1    3.00    0.81
 -15  18  -1   29.17    1.49
 -15  18  -1   29.14    1.62
  -3 -15  -1   31.58    2.35
 -18   3   1   31.37    1.60
   3  15   1   28.87    1.81
 -18   3   1   33.04    2.50
  15 -18   1   29.34    2.50
 -15  19  -1    3.14    0.47
 -15  19  -1    2.85    0.48
  -4 -15  -1    4.56    1.01
   4  15   1    2.20    0.55
  15 -19   1    2.72    0.83
 -19   4   1    3.23    0.86
 -19   4   1    4.45    0.70
 -19  16   1   12.05    0.85
   3 -19   1   13.23    1.38
 -16  -2  -1   18.65    1.61
   2 -18   1   15.33    1.46
 -18  16   1   13.72    0.98
  16   2   1   12.97    0.99
 -16  -1  -1   49.25    3.08
   1 -17   1   42.05    2.99
  16   1   1   36.84    2.15
 -17  16   1   37.96    2.14
 -16   0  -1   10.57    0.92
 -16   0  -1   12.66    1.32
 -16  16   1    8.37    0.72
   0 -16   1   10.06    1.11
  16   0   1    9.04    0.78
  15 -16  -1  158.78    9.84
 -16   1  -1  153.12    6.39
 -16   1  -1  168.51    9.32
  -1 -15   1  147.47    9.70
 -15  16   1  142.31    7.13
  16  -1   1  132.27    7.13
  14 -16  -1    8.93    1.31
 -16   2  -1   10.47    1.21
 -16   2  -1    9.40    0.87
 -14  16   1    8.33    0.67
  16  -2   1    7.15    0.69
 -16   3  -1    9.44    0.90
  13 -16  -1   10.20    1.41
 -16   3  -1    9.97    1.21
 -13  16   1    8.39    0.67
  16  -3   1    8.89    0.73
   4  12  -1   26.77    1.39
 -16   4  -1   24.72    2.23
  12 -16  -1   30.23    2.49
 -16   4  -1   27.85    1.55
 -12  16   1   27.63    1.50
  -4 -12   1   29.36    2.05
  16  -4   1   26.44    1.51
 -16   5  -1    2.04    0.47
  11 -16  -1    1.72    0.84
   5  11  -1    1.58    0.37
 -11  16   1    1.55    0.29
  -5 -11   1    2.12    0.59
  16  -5   1    1.72    0.32
 -16   6  -1    0.82    0.36
  10 -16  -1    0.57    0.63
   6  10  -1    0.34    0.29
 -10  16   1    0.61    0.24
  16  -6   1    0.28    0.23
  -6 -10   1    0.22    0.46
   7   9  -1    5.73    0.60
 -16   7  -1    6.23    0.68
   9 -16  -1    5.34    1.18
  -9  16   1    5.54    0.53
  -7  -9   1    5.95    0.95
  16  -7   1    5.88    0.54
   8   8  -1   52.40    2.35
   8 -16  -1   47.59    3.79
  -8  16   1   52.45    2.60
  -8  -8   1   55.11    3.54
  16  -8   1   51.25    2.59
   7 -16  -1   32.84    2.64
   9   7  -1   33.46    1.60
 -16   9  -1   32.21    1.64
  -7  16   1   33.11    1.74
  -9  -7   1   35.53    2.49
  16  -9   1   30.89    1.71
 -16  10  -1   28.60    1.48
  10   6  -1   29.12    1.46
   6 -16  -1   30.13    2.39
  16 -10   1   28.14    1.55
 -10  -6   1   31.28    2.32
  -6  16   1   29.77    1.59
 -16  11  -1    1.12    0.28
  11   5  -1    1.55    0.35
   5 -16  -1    1.40    0.54
  -5  16   1    1.37    0.30
 -11  -5   1    1.26    0.60
  16 -11   1    0.83    0.23
 -16  12  -1   52.62    2.44
  12   4  -1   55.23    2.45
   4 -16  -1   58.42    3.84
  16 -12   1   50.56    2.67
 -12  -4   1   56.43    3.75
  -4  16   1   52.49    2.73
  13   3  -1    1.06    0.35
   3 -16  -1    1.42    0.53
 -16  13  -1    0.31    0.24
 -13  -3   1    0.36    0.57
  16 -13   1    0.98    0.25
  -3  16   1    1.34    0.34
 -16  14  -1    0.08    0.23
   2 -16  -1    0.88    0.42
  14   2  -1   -0.02    0.29
 -14  -2   1    0.33    0.56
  16 -14   1    0.12    0.20
  -2  16   1    0.24    0.31
  15   1  -1    3.41    0.58
 -16  15  -1    3.09    0.44
   1 -16  -1    4.75    0.75
  -1  16   1    2.76    0.47
  16 -15   1    2.98    0.43
 -15  -1   1    3.06    0.82
 -16  16  -1    8.34    0.65
  16   0  -1    9.75    0.81
   0 -16  -1   10.02    1.04
   0  16   1    8.43    0.88
  16 -16   1    8.88    0.67
 -16   0   1    9.37    1.30
 -16  17  -1   28.32    1.46
  17  -1  -1   28.88    1.53
  16 -17   1   27.78    2.36
 -17   1   1   31.24    2.42
   1  16   1   30.04    1.77
 -16  18  -1    1.47    0.31
 -16  18  -1    1.08    0.30
 -18   2   1    0.82    0.41
 -18   2   1    0.77    0.63
  16 -18   1    0.69    0.62
   2  16   1    0.36    0.46
 -16  19  -1  107.39    5.54
 -16  19  -1  109.05    4.84
 -19   3   1  127.61    7.29
  16 -19   1  114.13    7.65
 -17  -1  -1   57.79    3.54
  17   1   1   44.56    2.53
 -18  17   1   44.60    2.54
   1 -18   1   49.48    3.47
 -17   0  -1    2.04    0.52
 -17   0  -1    1.98    0.69
 -17  17   1    1.36    0.34
  17   0   1    1.88    0.39
 -17   1  -1   34.23    1.78
  16 -17  -1   33.65    2.59
 -17   1  -1   37.67    2.59
  17  -1   1   30.46    1.77
 -16  17   1   28.10    1.74
 -17   2  -1    4.82    1.02
  15 -17  -1    5.52    1.18
 -17   2  -1    5.17    0.78
  17  -2   1    4.53    0.59
 -15  17   1    4.02    0.53
 -17   3  -1    3.32    0.57
  14 -17  -1    3.76    0.92
 -17   3  -1    4.63    0.98
  17  -3   1    2.32    0.40
 -14  17   1    2.39    0.45
 -17   4  -1    0.19    0.38
  13 -17  -1    0.64    0.67
 -13  17   1    0.60    0.25
  -4 -13   1    0.26    0.46
  17  -4   1    0.65    0.29
  12 -17  -1   43.09    3.28
 -17   5  -1   40.34    2.07
  -5 -12   1   43.43    2.80
 -12  17   1   39.22    2.09
  17  -5   1   36.67    2.09
  11 -17  -1   85.73    5.62
 -17   6  -1   79.05    3.55
   6  11  -1   73.95    3.40
 -11  17   1   77.14    3.84
  17  -6   1   74.59    3.84
  -6 -11   1   81.62    4.99
  10 -17  -1    2.81    0.85
   7  10  -1    4.55    0.58
 -17   7  -1    2.48    0.49
  -7 -10   1    5.46    0.89
  17  -7   1    3.52    0.49
 -10  17   1    4.48    0.50
   8   9  -1   29.00    1.49
   9 -17  -1   31.83    2.57
  -9  17   1   29.20    1.61
  -8  -9   1   32.64    2.28
  17  -8   1   27.75    1.60
   9   8  -1    4.55    0.58
 -17   9  -1    4.54    0.61
   8 -17  -1    6.57    1.12
  -8  17   1    4.09    0.52
  17  -9   1    4.27    0.50
  -9  -8   1    4.77    0.91
   7 -17  -1   21.05    1.81
 -17  10  -1   18.43    1.10
  10   7  -1   17.80    1.06
  17 -10   1   17.90    1.08
 -10  -7   1   19.50    1.69
  -7  17   1   17.98    1.11
  11   6  -1   52.84    2.39
 -17  11  -1   47.52    2.39
   6 -17  -1   60.62    3.86
 -11  -6   1   54.48    3.62
  -6  17   1   52.61    2.67
  17 -11   1   48.63    2.61
 -17  12  -1   15.22    0.95
  12   5  -1   13.76    0.95
   5 -17  -1   18.86    1.58
  -5  17   1   15.75    1.01
  17 -12   1   14.64    0.94
 -12  -5   1   15.73    1.53
   4 -17  -1   59.20    3.71
 -17  13  -1   49.06    2.36
  13   4  -1   51.00    2.36
  -4  17   1   48.18    2.62
  17 -13   1   48.94    2.57
 -13  -4   1   54.01    3.60
  14   3  -1   15.70    1.00
   3 -17  -1   17.82    1.48
 -17  14  -1   16.46    0.96
  -3  17   1   13.65    1.04
  17 -14   1   15.16    0.96
 -14  -3   1   16.65    1.62
 -17  15  -1    0.67    0.29
  15   2  -1    1.07    0.37
   2 -17  -1    0.91    0.45
 -15  -2   1    1.20    0.65
  -2  17   1    1.05    0.37
  17 -15   1    0.69    0.26
 -17  16  -1   36.05    1.82
   1 -17  -1   42.36    2.79
  16   1  -1   37.36    1.87
 -16  -1   1   39.58    2.87
  17 -16   1   35.37    1.96
  -1  17   1   37.16    2.11
 -17  17  -1    1.75    0.34
  17   0  -1    1.34    0.41
  17 -17   1    1.38    0.32
 -17   0   1    1.52    0.70
   0  17   1    0.85    0.44
 -17  18  -1    3.10    0.49
 -17  18  -1    3.02    0.47
 -18   1   1    2.34    0.79
   1  17   1    2.48    0.57
 -18   1  -1    4.38    0.98
 -18   1  -1    2.54    0.54
  18  -1   1    1.75    0.43
 -18   2  -1    1.24    0.62
  16 -18  -1    1.52    0.71
 -18   2  -1    1.24    0.49
  18  -2   1    0.94    0.36
 -16  18   1    0.58    0.29
 -18   3  -1   33.83    1.80
  15 -18  -1   33.59    2.72
 -15  18   1   30.32    1.74
  18  -3   1   30.20    1.76
  14 -18  -1    7.88    1.42
 -18   4  -1    9.00    0.93
 -14  18   1    7.85    0.69
  18  -4   1    6.79    0.70
  13 -18  -1   41.83    3.16
 -18   5  -1   36.62    1.98
  -5 -13   1   40.41    2.66
  18  -5   1   32.79    1.97
 -13  18   1   36.82    1.99
  12 -18  -1    1.33    0.80
 -18   6  -1    1.70    0.46
  18  -6   1    0.86    0.31
  -6 -12   1    0.19    0.47
 -12  18   1    1.07    0.30
  11 -18  -1   17.03    1.88
  -7 -11   1   16.56    1.49
  18  -7   1   15.17    1.02
 -11  18   1   16.36    1.02
 -18   8  -1   -0.26    0.33
   8  10  -1    0.00    0.30
  10 -18  -1    0.61    0.66
 -10  18   1    0.46    0.25
  -8 -10   1    0.45    0.51
  18  -8   1    0.18    0.25
   9   9  -1   38.87    1.92
   9 -18  -1   45.54    3.25
  -9  18   1   40.88    2.13
  -9  -9   1   41.48    2.88
  18  -9   1   37.76    2.10
  10   8  -1   30.11    1.52
 -18  10  -1   30.47    1.60
  -8  18   1   28.98    1.63
  18 -10   1   28.17    1.60
 -10  -8   1   32.18    2.32
 -18  11  -1   35.58    1.87
   7 -18  -1   45.82    3.04
  11   7  -1   39.20    1.84
  -7  18   1   36.15    2.02
  18 -11   1   34.06    1.97
 -11  -7   1   40.60    2.80
   6 -18  -1    1.41    0.60
  12   6  -1    1.21    0.38
 -18  12  -1    1.23    0.34
  -6  18   1    0.72    0.30
 -12  -6   1    0.93    0.60
  18 -12   1    0.71    0.27
 -18  13  -1    9.79    0.80
   5 -18  -1   13.11    1.33
  13   5  -1   11.63    0.83
  18 -13   1   10.82    0.77
  -5  18   1   11.06    0.87
 -13  -5   1   10.20    1.29
   4 -18  -1   86.63    5.35
  14   4  -1   76.34    3.43
 -18  14  -1   74.68    3.45
  -4  18   1   78.16    3.89
 -14  -4   1   83.09    5.14
  18 -14   1   71.45    3.81
   3 -18  -1   44.53    2.94
 -18  15  -1   39.38    1.92
  15   3  -1   39.07    1.93
  -3  18   1   38.08    2.15
  18 -15   1   35.63    2.04
 -15  -3   1   42.05    2.95
   2 -18  -1   14.52    1.36
 -18  16  -1   13.68    0.92
  16   2  -1   14.26    0.98
  -2  18   1   12.66    1.06
 -16  -2   1   15.73    1.56
  18 -16   1   13.19    0.91
  17   1  -1   44.38    2.24
   1 -18  -1   51.12    3.38
 -18  17  -1   45.07    2.21
 -17  -1   1   50.05    3.46
  -1  18   1   45.46    2.58
 -19   3  -1  126.44    5.62
  16 -19  -1  130.35    8.64
 -19   4  -1    3.11    0.60
  15 -19  -1    2.59    0.92
  19  -4   1    3.18    0.57
 -15  19   1    3.53    0.56
  14 -19  -1   14.72    1.79
 -19   5  -1   14.53    1.12
  19  -5   1   12.19    0.95
 -14  19   1   12.01    0.93
  13 -19  -1    1.69    0.83
 -19   6  -1    0.87    0.44
 -13  19   1    1.03    0.32
  19  -6   1    1.28    0.35
  -6 -13   1    1.07    0.58
  12 -19  -1   14.85    1.75
 -19   7  -1   11.06    1.03
 -12  19   1   12.21    0.89
  19  -7   1   11.79    0.90
  -7 -12   1   13.05    1.32
  11 -19  -1   32.84    2.62
  19  -8   1   26.02    1.56
  -8 -11   1   29.91    2.17
 -11  19   1   25.43    1.55
  10 -19  -1   50.27    3.59
 -10  19   1   44.23    2.36
  -9 -10   1   49.22    3.18
  19  -9   1   39.91    2.33
  10   9  -1    6.59    0.69
   9 -19  -1    9.38    1.38
 -19  10  -1    6.48    0.74
  -9  19   1    6.98    0.66
  19 -10   1    6.90    0.65
 -10  -9   1    7.31    1.06
   8 -19  -1   70.27    4.39
  11   8  -1   57.10    2.67
 -19  11  -1   57.45    2.77
  -8  19   1   56.58    3.01
  19 -11   1   53.05    2.96
 -11  -8   1   64.26    4.01
   7 -19  -1    0.51    0.58
 -19  12  -1   -0.12    0.30
  12   7  -1    0.48    0.36
 -12  -7   1    0.17    0.52
  -7  19   1    0.70    0.30
  19 -12   1   -0.12    0.24
 -19  13  -1    1.57    0.40
   6 -19  -1    3.72    0.96
  13   6  -1    1.39    0.40
  -6  19   1    1.86    0.40
  19 -13   1    1.93    0.34
 -13  -6   1    2.25    0.70
 -19  14  -1   14.50    1.01
   5 -19  -1   18.53    1.57
  14   5  -1   14.16    1.00
 -14  -5   1   16.13    1.56
  19 -14   1   13.92    0.97
  -5  19   1   14.84    1.07
 -19  15  -1    4.20    0.60
   4 -19  -1    6.43    0.97
  15   4  -1    5.60    0.69
 -15  -4   1    6.22    1.11
  19 -15   1    3.93    0.56
  -4  19   1    5.43    0.73
   3 -19  -1   15.27    1.40
  16   3  -1   11.55    0.95
  -7 -13   1   62.97    4.16
  12 -20  -1   21.10    2.23
  -8 -12   1   19.95    1.76
  11 -20  -1   10.56    1.61
  -9 -11   1    9.62    1.18
 -11  20   1    7.65    0.76
  20  -9   1    7.71    0.75
  10 -20  -1   10.05    1.47
 -20  10  -1    6.72    0.81
  20 -10   1    7.02    0.70
 -10  20   1    7.14    0.71
 -10 -10   1    7.95    1.12
 -20  11  -1   22.22    1.40
   9 -20  -1   28.69    2.36
  -9  20   1   22.47    1.41
 -11  -9   1   24.77    1.97
  20 -11   1   20.44    1.38
  12   8  -1   51.78    2.52
 -12  -8   1   58.12    3.85
  13   7  -1    5.43    0.68
   0   0  -2  899.11   37.04
   0   0  -2  845.48   53.78
   0   0   2  965.10   42.86
   0   0   2 1000.00   57.95
   0   1  -2    8.78    0.60
   1  -1  -2    8.44    0.46
   0   1  -2    8.96    0.46
  -1   0  -2    8.41    0.61
   1  -1  -2    8.46    0.61
  -1   0  -2    8.43    0.43
   1   0   2    8.18    0.48
   1   0   2    8.81    0.72
  -1   1   2    8.82    0.71
   0  -1   2    8.78    0.71
  -1   1   2    8.08    0.50
   1   0  -2    8.25    0.61
  -1   1  -2    8.21    0.61
   1   0  -2    9.00    0.47
   0  -1  -2    9.14    0.44
   0  -1  -2    8.77    0.63
  -1   1  -2    8.09    0.44
  -1   0   2    8.37    0.71
   0   1   2    7.36    0.51
   0   1   2    8.31    0.72
   1  -1   2    9.40    0.72
   1  -1   2    9.75    0.45
  -1  -1  -2   17.33    1.14
   2  -1  -2   17.80    1.13
   2  -1  -2   17.37    0.82
  -1   2  -2   17.33    1.11
  -1  -1  -2   17.40    0.77
  -1   2  -2   16.91    0.80
   1  -2   2   17.32    1.25
  -2   1   2   18.18    1.25
   1   1   2   17.62    0.92
   1  -2   2   17.85    0.84
  -2   1   2   17.59    0.86
  -2  -1  -2   54.67    3.26
  -2  -1  -2   53.92    2.22
  -1   3  -2   53.83    2.26
   3  -2  -2   55.33    2.28
  -1   3  -2   56.53    3.23
  -3   2   2   57.86    3.53
  -3   2   2   53.95    2.55
   2   1   2   54.53    3.52
   1  -3   2   54.30    3.52
   2   1   2   46.49    2.59
  -2   0  -2    1.01    0.17
  -2   0  -2    0.46    0.15
   2  -2  -2    0.72    0.17
   0   2  -2    0.61    0.15
   0   2  -2    0.46    0.14
   2  -2  -2    0.62    0.16
  -2   2   2    1.23    0.18
   0  -2   2    0.91    0.27
  -2   2   2    0.63    0.24
   2   0   2    0.47    0.15
   2   0   2    0.73    0.26
  -2   1  -2   18.34    1.13
   1  -2  -2   18.43    0.80
  -2   1  -2   17.27    0.79
   1   1  -2   17.47    1.12
   1  -2  -2   18.30    1.14
   1   1  -2   17.93    0.82
   2  -1   2   17.47    0.87
  -1   2   2   15.93    0.90
   2  -1   2   16.91    1.25
  -1  -1   2   18.06    1.25
  -1   2   2   17.91    1.27
  -2   2  -2    0.97    0.19
   0  -2  -2    0.58    0.17
   0  -2  -2    0.87    0.14
   2   0  -2    1.31    0.19
  -2   2  -2    0.43    0.13
   2   0  -2    0.52    0.15
   0   2   2    1.00    0.30
   2  -2   2    0.50    0.23
   2  -2   2    0.66    0.13
   0   2   2    0.51    0.19
  -2   0   2    0.61    0.23
   3  -1  -2    7.84    0.49
  -1  -2  -2    8.33    0.61
  -1  -2  -2    8.24    0.39
  -2   3  -2    7.77    0.45
   3  -1  -2    7.73    0.58
  -2   3  -2    8.35    0.57
   2  -3   2    8.14    0.41
   2  -3   2    8.36    0.71
   1   2   2    8.25    0.71
   1   2   2    7.79    0.55
  -3   1   2    8.12    0.69
  -2  -2  -2    4.88    0.47
  -2   4  -2    5.26    0.36
  -2   4  -2    5.44    0.42
  -2  -2  -2    5.83    0.30
   4  -2  -2    5.88    0.43
  -4   2   2    5.11    0.30
  -4   2   2    5.45    0.54
   2  -4   2    5.46    0.57
   2   2   2    5.45    0.57
   2   2   2    5.10    0.45
   2  -4   2    5.49    0.28
   5  -3  -2   15.83    0.84
  -2   5  -2   17.66    1.08
  -3  -2  -2   16.65    1.15
   5  -3  -2   15.86    1.10
  -3  -2  -2   17.39    0.75
  -2   5  -2   17.14    0.82
   3   2   2   17.04    0.95
  -5   3   2   17.35    1.24
  -5   3   2   17.06    0.85
   3   2   2   16.11    1.24
   2  -5   2   18.63    0.82
   2  -5   2   17.61    1.27
  -3  -1  -2  347.33   13.95
   4  -3  -2  352.88   14.00
  -1   4  -2  373.67   20.23
   4  -3  -2  351.36   20.25
  -1   4  -2  328.49   13.99
  -3  -1  -2  341.96   20.27
   3   1   2  351.66   21.85
  -4   3   2  321.96   16.13
  -4   3   2  376.18   21.87
   3   1   2  341.12   16.18
  -3   0  -2    2.67    0.22
   3  -3  -2    2.38    0.29
   0   3  -2    2.26    0.27
   0   3  -2    2.77    0.28
  -3   0  -2    2.65    0.30
   3  -3  -2    2.96    0.31
   3   0   2    2.62    0.28
  -3   3   2    3.05    0.44
   3   0   2    2.34    0.41
  -3   3   2    2.18    0.21
   0  -3   2    2.67    0.40
  -3   1  -2    7.99    0.59
   2  -3  -2    8.15    0.46
   1   2  -2    8.73    0.47
  -3   1  -2    8.46    0.43
   1   2  -2    8.26    0.58
  -2   3   2    8.13    0.72
  -2   3   2    7.30    0.47
   3  -1   2    8.24    0.70
  -1  -2   2    8.66    0.69
   3  -1   2    7.73    0.47
   2   1  -2   54.70    3.29
   2   1  -2   55.14    2.31
  -3   2  -2   55.52    2.29
   1  -3  -2   56.46    2.27
  -3   2  -2   56.07    3.29
   1  -3  -2   56.27    3.32
  -1   3   2   49.03    2.62
  -2  -1   2   56.56    3.56
   3  -2   2   55.18    2.60
   3  -2   2   55.63    3.58
  -1   3   2   55.51    3.60
  -3   3  -2    2.47    0.27
   3   0  -2    2.76    0.32
   3   0  -2    2.55    0.28
  -3   3  -2    2.51    0.25
   0  -3  -2    2.31    0.30
   0   3   2    2.77    0.45
   3  -3   2    2.39    0.18
   0   3   2    2.27    0.33
  -3   0   2    2.65    0.39
   3  -3   2    2.80    0.42
   4  -1  -2   25.64    1.18
   4  -1  -2   26.06    1.60
  -3   4  -2   26.73    1.57
  -3   4  -2   25.21    1.13
  -1  -3  -2   25.87    1.63
   1   3   2   25.97    1.78
   1   3   2   24.30    1.33
   3  -4   2   25.86    1.76
   3  -4   2   24.75    1.22
  -4   1   2   25.49    1.73
   5  -2  -2   73.35    4.45
   5  -2  -2   72.10    3.13
  -3   5  -2   77.51    4.42
  -3   5  -2   75.66    3.11
  -5   2   2   76.74    4.81
   2   3   2   73.39    3.60
  -5   2   2   74.80    3.51
   3  -5   2   75.65    4.84
   3  -5   2   75.17    3.50
   2   3   2   75.51    4.84
  -3   6  -2    1.27    0.21
  -3   6  -2    1.46    0.25
   6  -3  -2    1.17    0.24
   6  -3  -2    1.84    0.28
  -3  -3  -2    1.68    0.31
  -6   3   2    1.32    0.36
   3   3   2    1.12    0.28
   3   3   2    1.32    0.32
  -6   3   2    1.46    0.16
   3  -6   2    1.73    0.39
   3  -6   2    1.54    0.14
   7  -4  -2    0.50    0.22
   7  -4  -2    0.67    0.19
  -4  -3  -2    0.70    0.26
  -3   7  -2    0.76    0.12
  -3   7  -2    0.52    0.16
  -7   4   2    1.07    0.28
  -7   4   2    0.71    0.12
   4   3   2    0.58    0.28
   4   3   2    0.62    0.25
   3  -7   2    1.10    0.23
   3  -7   2    1.22    0.44
  -4  -2  -2  143.15    5.64
  -4  -2  -2  140.13    8.26
  -2   6  -2  137.25    5.70
   6  -4  -2  134.29    5.69
  -2   6  -2  145.42    6.48
   6  -4  -2  135.37    8.19
  -6   4   2  134.80    6.51
   2  -6   2  145.39    8.90
  -6   4   2  143.16    8.86
   4   2   2  139.22    8.85
   4   2   2  139.18    6.58
   5  -4  -2   38.09    1.69
  -4  -1  -2   39.31    1.65
  -1   5  -2   42.24    2.38
  -4  -1  -2   38.40    2.43
  -1   5  -2   39.19    1.70
   5  -4  -2   38.16    2.39
   1  -5   2   41.00    2.63
   4   1   2   38.53    1.94
   4   1   2   38.36    2.59
  -5   4   2   40.36    2.62
  -5   4   2   38.19    1.88
   4  -4  -2    0.21    0.16
   4  -4  -2    0.15    0.13
  -4   0  -2    0.03    0.13
  -4   0  -2    0.17    0.10
   0   4  -2    0.73    0.17
   0   4  -2    0.18    0.12
   4   0   2    0.20    0.22
   4   0   2    0.14    0.15
   0  -4   2    0.35    0.24
  -4   4   2    0.20    0.22
  -4   4   2    0.46    0.11
  -4   1  -2   26.06    1.13
   1   3  -2   26.23    1.16
   1   3  -2   26.13    1.61
  -4   1  -2   24.76    1.62
   3  -4  -2   27.05    1.63
   3  -4  -2   25.82    1.13
  -1  -3   2   26.42    1.76
  -3   4   2   24.64    1.27
   4  -1   2   24.68    1.28
   4  -1   2   25.74    1.76
  -3   4   2   27.67    1.81
  -4   2  -2    5.11    0.34
   2   2  -2    5.83    0.40
   2  -4  -2    5.38    0.47
  -4   2  -2    5.98    0.45
   2   2  -2    5.95    0.45
   4  -2   2    5.43    0.35
  -2  -2   2    5.65    0.54
  -2   4   2    6.21    0.61
  -2   4   2    4.71    0.37
   4  -2   2    5.48    0.56
  -4   3  -2  352.04   20.35
   1  -4  -2  350.86   20.39
  -4   3  -2  352.62   14.07
   3   1  -2  356.06   14.09
   3   1  -2  364.36   20.37
  -1   4   2  371.14   22.03
   4  -3   2  345.18   16.23
   4  -3   2  347.89   21.98
  -1   4   2  307.43   16.25
  -3  -1   2  359.47   21.96
   4   0  -2    0.45    0.19
   4   0  -2    0.17    0.13
  -4   4  -2    0.17    0.12
  -4   4  -2    0.38    0.13
   0  -4  -2    0.11    0.15
   0   4   2    0.11    0.17
   4  -4   2    0.50    0.09
  -4   0   2    0.02    0.18
   0   4   2   -0.05    0.23
   4  -4   2    0.37    0.24
  -1  -4  -2   47.21    2.93
  -4   5  -2   48.64    2.86
   5  -1  -2   47.86    2.90
   5  -1  -2   47.99    2.08
  -4   5  -2   47.14    2.03
  -5   1   2   48.24    3.12
   4  -5   2   47.28    2.26
   1   4   2   49.88    2.37
  -5   1   2   46.54    2.25
   1   4   2   48.74    3.18
   4  -5   2   48.66    3.17
  -4   6  -2   19.07    1.15
   6  -2  -2   17.90    1.19
   6  -2  -2   17.42    0.92
  -4   6  -2   18.73    0.87
  -2  -4  -2   17.70    1.24
   4  -6   2   18.08    0.89
   4  -6   2   17.52    1.37
   2   4   2   17.38    1.04
  -6   2   2   19.49    1.30
   2   4   2   18.53    1.36
   7  -3  -2   21.33    1.40
  -4   7  -2   22.11    1.02
   7  -3  -2   20.69    1.05
  -3  -4  -2   20.95    1.48
  -4   7  -2   22.73    1.35
   7  -3  -2   21.95    1.07
   3   4   2   22.11    1.22
  -7   3   2   21.45    1.51
   3   4   2   22.05    1.57
   4  -7   2   21.97    1.06
   4  -7   2   21.15    1.64
  -4   8  -2   17.20    0.85
  -4  -4  -2   17.02    1.28
   8  -4  -2   17.06    0.87
  -4   8  -2   17.11    0.85
   8  -4  -2   15.61    0.88
   4   4   2   16.14    1.02
   4  -8   2   18.54    1.13
   4   4   2   16.95    1.29
   4  -8   2   18.67    1.49
  -8   4   2   17.03    1.25
   9  -5  -2   90.77    3.99
  -4   9  -2   98.43    4.49
  -5  -4  -2   97.04    5.89
   9  -5  -2   96.65    4.51
  -4   9  -2   94.38    3.98
  -9   5   2   97.48    6.14
   5   4   2   97.04    6.15
   5   4   2   98.44    4.61
  -9   5   2   93.82    5.70
   4  -9   2   95.25    6.36
  -3   8  -2   41.86    1.81
   8  -5  -2   40.47    2.53
  -5  -3  -2   41.11    2.68
   8  -5  -2   39.71    1.81
  -3   8  -2   42.06    1.96
   5   3   2   38.19    2.08
   3  -8   2   42.82    2.91
   5   3   2   41.34    2.74
  -8   5   2   40.87    2.75
   3  -8   2   43.98    2.52
  -8   5   2   41.67    1.99
   7  -5  -2   47.25    3.02
  -5  -2  -2   49.31    3.13
  -2   7  -2   49.40    2.15
  -5  -2  -2   52.31    2.10
  -2   7  -2   52.41    2.37
   7  -5  -2   47.48    2.14
   2  -7   2   52.50    3.02
  -7   5   2   49.38    3.30
   5   2   2   50.29    2.47
   5   2   2   49.26    3.27
   2  -7   2   52.96    3.38
  -7   5   2   49.05    2.39
  -1   6  -2   21.33    1.02
   6  -5  -2   21.59    1.00
  -5  -1  -2   21.94    1.46
   6  -5  -2   20.64    1.38
  -5  -1  -2   22.33    0.97
  -6   5   2   21.26    1.55
  -6   5   2   21.03    1.08
   1  -6   2   23.26    1.38
   5   1   2   20.99    1.51
   1  -6   2   22.30    1.58
   5   1   2   21.97    1.16
   5  -5  -2   50.68    3.17
   5  -5  -2   50.39    2.20
  -5   0  -2   55.02    2.21
   0   5  -2   51.50    2.24
  -5   0  -2   53.67    3.22
  -5   5   2   53.30    3.48
   0  -5   2   54.85    3.46
   0  -5   2   53.98    3.16
   5   0   2   52.50    2.55
  -5   5   2   51.65    2.51
   5   0   2   53.32    3.43
  -5   1  -2   49.33    2.04
   4  -5  -2   48.49    2.02
   1   4  -2   48.18    2.08
   4  -5  -2   49.20    2.95
  -5   1  -2   48.86    2.95
   5  -1   2   49.99    2.35
  -4   5   2   51.42    3.25
  -4   5   2   45.01    2.33
  -1  -4   2   49.28    2.93
   5  -1   2   47.45    3.17
  -1  -4   2   48.92    3.19
   3  -5  -2   78.24    4.52
  -5   2  -2   73.24    4.50
  -5   2  -2   75.78    3.13
   2   3  -2   74.65    3.15
   5  -2   2   78.18    3.58
   5  -2   2   77.43    4.86
  -3   5   2   78.79    4.93
  -2  -3   2   77.13    4.86
  -3   5   2   69.09    3.58
  -5   3  -2   17.20    0.80
   3   2  -2   17.34    0.85
   2  -5  -2   17.26    1.13
  -5   3  -2   16.90    1.10
  -2   5   2   15.62    0.89
   5  -3   2   16.64    0.86
  -2   5   2   17.89    1.32
  -3  -2   2   17.86    1.22
   5  -3   2   17.45    1.24
  -5   4  -2   39.91    1.67
  -5   4  -2   40.61    2.34
   1  -5  -2   38.70    2.38
   4   1  -2   37.96    1.70
   5  -4   2   39.93    2.58
  -4  -1   2   38.32    2.53
   5  -4   2   38.16    1.85
  -1   5   2   35.04    1.89
  -1   5   2   39.55    2.64
  -5   5  -2   55.22    3.14
   0  -5  -2   52.32    3.20
  -5   5  -2   53.64    2.23
   5   0  -2   52.03    2.26
   0   5   2   54.01    3.50
  -5   0   2   53.56    3.40
   5  -5   2   51.57    3.45
   0   5   2   52.11    2.57
   5  -5   2   50.98    2.48
  -5   0   2   51.34    3.17
  -5   6  -2   52.26    2.91
   6  -1  -2   49.24    2.30
   6  -1  -2   47.69    2.12
  -5   6  -2   49.00    2.08
  -1  -5  -2   47.86    3.00
  -6   1   2   48.51    2.96
   1   5   2   46.48    2.41
   1   5   2   48.51    3.26
  -6   1   2   49.22    3.17
   5  -6   2   48.23    2.31
   5  -6   2   49.71    3.25
  -2  -5  -2  407.12   24.93
   7  -2  -2  423.57   17.22
  -5   7  -2  409.45   17.19
  -5   7  -2  452.22   24.81
   7  -2  -2  415.46   19.80
  -7   2   2  431.54   24.88
  -7   2   2  433.89   26.80
   2   5   2  438.77   26.88
   5  -7   2  444.74   26.91
   2   5   2  435.03   19.91
   5  -7   2  419.72   19.80
  -5   8  -2    1.20    0.21
   8  -3  -2    1.18    0.17
  -3  -5  -2    1.59    0.36
   8  -3  -2    1.66    0.30
   3   5   2    1.60    0.39
  -8   3   2    1.69    0.32
   5  -8   2    1.48    0.51
  -8   3   2    1.01    0.27
   3   5   2    1.19    0.33
   5  -8   2    1.13    0.16
  -5   9  -2   27.78    1.32
  -5   9  -2   29.93    1.41
  -4  -5  -2   29.88    2.01
   9  -4  -2   28.36    1.42
   9  -4  -2   28.61    1.37
   4   5   2   29.39    2.02
  -9   4   2   28.83    1.85
   5  -9   2   30.06    2.27
   4   5   2   26.78    1.56
  -9   4   2   29.56    1.97
  10  -5  -2    0.87    0.27
  -5  10  -2    1.06    0.18
  10  -5  -2    0.74    0.16
  -5  10  -2    0.80    0.20
  -5  -5  -2    0.94    0.42
 -10   5   2    1.17    0.31
   5   5   2    0.85    0.32
   5   5   2    1.17    0.36
 -10   5   2    0.66    0.26
   5 -10   2    0.86    0.67
  11  -6  -2  115.33    4.80
  11  -6  -2  112.89    5.44
  -5  11  -2  116.69    4.79
  -6  -5  -2  113.12    7.16
   5 -11   2  105.49    7.75
   6   5   2  119.96    5.54
 -11   6   2  119.22    6.89
 -11   6   2  119.93    7.37
  -4  10  -2    0.52    0.20
  10  -6  -2    0.36    0.14
  10  -6  -2    0.15    0.23
  -6  -4  -2    0.21    0.36
 -10   6   2    0.36    0.21
   6   4   2   -0.05    0.27
   4 -10   2    0.38    0.65
   6   4   2    0.66    0.31
 -10   6   2    0.49    0.26
  -6  -3  -2   35.61    2.42
   9  -6  -2   34.49    1.58
  -3   9  -2   35.86    1.58
   9  -6  -2   34.67    2.19
  -9   6   2   35.13    2.39
   3  -9   2   36.62    2.66
   6   3   2   34.46    1.82
  -9   6   2   35.79    1.73
   6   3   2   34.97    2.36
   8  -6  -2  140.10    8.60
  -2   8  -2  143.92    5.99
  -6  -2  -2  146.72    8.77
  -6  -2  -2  155.51    5.97
   8  -6  -2  145.57    5.98
   2  -8   2  151.30    9.43
   6   2   2  147.18    9.27
   6   2   2  140.90    6.92
  -8   6   2  145.65    9.32
   2  -8   2  153.36    8.64
  -8   6   2  143.63    6.85
  -6  -1  -2    1.76    0.42
   7  -6  -2    1.79    0.30
  -1   7  -2    2.26    0.31
   7  -6  -2    1.95    0.28
  -6  -1  -2    2.06    0.26
  -7   6   2    2.24    0.48
   1  -7   2    2.16    0.37
   1  -7   2    2.67    0.62
   6   1   2    1.83    0.42
  -7   6   2    1.94    0.22
   6   1   2    1.44    0.27
   6  -6  -2    3.77    0.39
   6  -6  -2    4.55    0.34
  -6   0  -2    3.99    0.47
  -6   0  -2    4.28    0.32
   0   6  -2    3.70    0.36
   6   0   2    3.86    0.39
  -6   6   2    4.16    0.30
   0  -6   2    4.31    0.61
   0  -6   2    4.39    0.45
  -6   6   2    3.91    0.58
   6   0   2    3.99    0.50
   5  -6  -2   49.83    2.09
   1   5  -2   47.80    2.15
  -6   1  -2   49.67    3.08
  -6   1  -2   52.69    2.14
   5  -6  -2   50.48    3.05
  -1  -5   2   51.82    3.32
  -5   6   2   48.20    2.42
  -1  -5   2   50.76    3.06
   6  -1   2   49.38    3.28
  -5   6   2   53.37    3.39
   6  -1   2   51.48    2.45
   4  -6  -2   18.03    1.20
   2   4  -2   17.84    0.89
  -6   2  -2   17.31    1.19
  -6   2  -2   19.79    0.87
  -4   6   2   19.20    1.43
   6  -2   2   17.96    0.96
   6  -2   2   18.53    1.31
  -4   6   2   17.09    0.94
  -2  -4   2   18.69    1.21
  -2  -4   2   17.97    1.31
  -6   3  -2    1.72    0.23
   3  -6  -2    1.41    0.28
  -6   3  -2    1.42    0.24
   3   3  -2    1.79    0.31
  -3  -3   2    1.69    0.30
  -3   6   2    1.08    0.18
   6  -3   2    1.25    0.22
   6  -3   2    1.33    0.32
  -3  -3   2    1.57    0.37
   2  -6  -2  142.69    8.18
  -6   4  -2  144.20    8.13
   4   2  -2  140.21    5.69
  -6   4  -2  139.13    5.66
  -2   6   2  126.24    6.51
  -4  -2   2  140.07    8.77
  -4  -2   2  138.97    8.17
   6  -4   2  139.54    8.81
   6  -4   2  139.42    6.48
  -6   5  -2   22.25    1.33
  -6   5  -2   21.75    0.98
   5   1  -2   22.08    1.04
   1  -6  -2   19.98    1.38
   6  -5   2   20.48    1.51
   6  -5   2   21.04    1.05
  -1   6   2   20.03    1.11
  -5  -1   2   21.37    1.45
  -5  -1   2   21.07    1.38
   0  -6  -2    5.76    0.50
  -6   6  -2    4.43    0.34
   6   0  -2    3.96    0.44
  -6   6  -2    4.39    0.36
   0   6   2    4.25    0.45
   6  -6   2    5.02    0.63
  -6   0   2    3.93    0.45
  -6   0   2    4.19    0.46
   0   6   2    4.20    0.68
   6  -6   2    4.12    0.28
  -6   7  -2    0.38    0.14
  -1  -6  -2    0.06    0.19
   7  -1  -2    0.32    0.25
  -6   7  -2    0.18    0.13
   1   6   2    0.48    0.36
   6  -7   2    0.61    0.40
   1   6   2    0.09    0.25
   6  -7   2    0.41    0.10
  -7   1   2    0.32    0.22
  -7   1   2    0.29    0.20
  -6   8  -2    5.12    0.38
   8  -2  -2    4.57    0.48
  -2  -6  -2    4.58    0.56
   2   6   2    5.03    0.70
   6  -8   2    4.31    0.85
   6  -8   2    4.71    0.30
   2   6   2    3.33    0.54
  -8   2   2    4.77    0.50
  -8   2   2    3.94    0.49
   9  -3  -2   30.07    1.45
  -6   9  -2   29.56    1.40
   9  -3  -2   31.54    1.53
  -3  -6  -2   31.74    2.12
   3   6   2   31.69    2.20
   6  -9   2   30.21    2.41
  -9   3   2   32.94    2.01
   6  -9   2   31.88    1.51
   3   6   2   30.69    1.67
  -9   3   2   30.43    2.08
  -6  10  -2   66.79    2.91
  10  -4  -2   66.92    3.26
  -4  -6  -2   69.65    4.35
  10  -4  -2   68.17    2.94
  -6  10  -2   66.96    3.24
 -10   4   2   69.11    4.19
   4   6   2   69.28    3.39
   6 -10   2   69.07    4.80
   4   6   2   72.01    4.51
 -10   4   2   69.36    4.42
  11  -5  -2   46.40    2.06
  -6  11  -2   45.48    2.02
  -5  -6  -2   47.96    3.14
  -6  11  -2   46.99    2.21
  11  -5  -2   45.24    2.24
   6 -11   2   40.21    3.49
   5   6   2   47.00    2.37
   5   6   2   47.34    3.09
 -11   5   2   46.62    2.91
  12  -6  -2   31.61    1.52
  -6  -6  -2   31.88    2.43
  12  -6  -2   32.96    1.61
  -6  12  -2   32.79    1.49
   6   6   2   34.17    1.74
 -12   6   2   33.32    2.14
   6 -12   2   24.91    2.68
  13  -7  -2   20.08    1.05
  -7  -6  -2   17.91    1.80
  13  -7  -2   19.79    1.07
  -6  13  -2   19.60    1.02
 -13   7   2   20.54    1.48
   7   6   2   19.90    1.19
  -7  -5  -2    5.38    0.98
  12  -7  -2    5.67    0.44
  12  -7  -2    6.05    0.54
  -5  12  -2    6.23    0.49
   7   5   2    6.04    0.60
 -12   7   2    6.12    0.64
   5 -12   2    4.87    1.35
  11  -7  -2   34.84    1.57
  -7  -4  -2   34.51    2.54
  -4  11  -2   33.97    1.56
  11  -7  -2   35.19    1.71
 -11   7   2   34.08    2.33
   4 -11   2   32.35    2.81
   7   4   2   32.80    1.79
 -11   7   2   34.70    2.18
  10  -7  -2  137.14    5.51
  -3  10  -2  136.72    5.52
  -7  -3  -2  127.57    8.20
   3 -10   2  135.92    8.84
   7   3   2  136.07    6.38
 -10   7   2  130.92    6.30
 -10   7   2  134.68    8.55
  -2   9  -2   12.57    0.72
  -7  -2  -2   13.33    1.19
   9  -7  -2   12.17    0.91
   9  -7  -2   12.87    0.71
   7   2   2   12.92    0.83
  -9   7   2   12.81    0.72
   2  -9   2   13.20    1.10
  -9   7   2   13.34    1.08
   7   2   2   13.40    1.01
   2  -9   2   14.75    1.40
  -7  -1  -2   90.74    5.53
   8  -7  -2   83.10    5.33
  -7  -1  -2   96.15    3.76
  -1   8  -2   87.96    3.76
   8  -7  -2   89.45    3.72
   1  -8   2   91.65    5.93
  -8   7   2   87.89    5.84
  -8   7   2   89.01    4.26
   1  -8   2   97.06    5.45
   7   1   2   87.46    4.31
   7   1   2   92.36    5.75
  -7   0  -2   10.38    0.58
   0   7  -2    9.15    0.59
   7  -7  -2    9.67    0.74
   7  -7  -2   10.56    0.55
  -7   0  -2   10.99    0.89
  -7   7   2    9.68    0.58
   0  -7   2   11.84    1.02
   0  -7   2   10.77    0.86
   7   0   2   11.19    0.85
   7   0   2    9.24    0.66
   6  -7  -2   -0.04    0.13
  -7   1  -2    0.17    0.20
  -7   1  -2    0.38    0.15
   1   6  -2    0.42    0.18
  -1  -6   2    0.58    0.34
  -6   7   2    0.25    0.12
  -1  -6   2    0.08    0.23
   7  -1   2    0.42    0.25
   7  -1   2    0.32    0.19
   5  -7  -2  423.55   26.92
   5  -7  -2  432.83   24.87
  -7   2  -2  432.80   17.19
  -7   2  -2  417.32   24.89
   2   5  -2  417.30   17.20
  -2  -5   2  438.58   24.91
   7  -2   2  427.22   19.86
  -5   7   2  407.75   19.85
  -2  -5   2  451.08   26.84
   7  -2   2  433.88   26.80
  -7   3  -2   22.25    1.01
   3   4  -2   20.93    1.04
   4  -7  -2   21.37    1.66
   4  -7  -2   22.10    1.41
  -7   3  -2   21.52    1.39
   7  -3   2   21.32    1.52
   7  -3   2   22.24    1.12
  -4   7   2   20.71    1.11
  -3  -4   2   21.42    1.52
  -3  -4   2   22.47    1.45
  -7   4  -2    0.82    0.19
  -7   4  -2    0.89    0.17
   3  -7  -2    0.87    0.22
   4   3  -2    0.55    0.22
   3  -7  -2    0.85    0.38
  -4  -3   2    0.77    0.25
   7  -4   2    1.76    0.42
  -3   7   2    0.42    0.16
   7  -4   2    0.53    0.14
  -4  -3   2    0.72    0.25
   5   2  -2   46.82    2.10
  -7   5  -2   50.05    2.89
   2  -7  -2   47.85    2.94
   2  -7  -2   46.68    3.29
  -7   5  -2   49.46    2.06
  -5  -2   2   46.97    3.12
  -5  -2   2   49.19    2.97
  -2   7   2   46.55    2.35
   7  -5   2   48.88    3.18
   7  -5   2   48.55    2.30
   6   1  -2    1.50    0.31
  -7   6  -2    2.12    0.25
   1  -7  -2    2.32    0.36
  -7   6  -2    1.85    0.26
   1  -7  -2    1.75    0.47
  -6  -1   2    1.56    0.37
   7  -6   2    1.97    0.21
   7  -6   2    2.17    0.44
  -6  -1   2    1.90    0.38
  -1   7   2    1.76    0.28
   0  -7  -2    9.63    0.79
  -7   7  -2    9.95    0.56
   7   0  -2   10.38    0.66
   7  -7   2    9.70    0.54
   7  -7   2    9.81    0.99
   0   7   2    8.87    0.67
  -7   0   2    9.90    0.77
  -7   0   2   10.39    0.81
  -1  -7  -2   72.49    4.46
  -7   8  -2   72.52    3.07
   8  -1  -2   74.41    3.12
  -8   1   2   75.16    4.68
  -8   1   2   74.56    4.45
   1   7   2   73.54    3.57
   7  -8   2   70.11    3.45
  -7   9  -2    0.59    0.18
  -2  -7  -2    0.56    0.31
   9  -2  -2    1.35    0.30
  -9   2   2    0.76    0.29
   7  -9   2    1.12    0.65
   2   7   2    1.10    0.33
  -9   2   2    0.73    0.25
   7  -9   2    0.68    0.13
   2   7   2    0.76    0.42
  -3  -7  -2    7.15    0.84
  10  -3  -2    7.39    0.61
  -7  10  -2    7.94    0.52
   3   7   2    7.73    0.73
   3   7   2    8.37    0.91
   7 -10   2    8.12    0.47
 -10   3   2    7.94    0.76
   7 -10   2    7.14    1.30
  -7  11  -2    0.14    0.11
  -7  11  -2    0.54    0.19
  -4  -7  -2    2.64    0.58
  11  -4  -2    0.21    0.26
   7 -11   2   -0.41    0.71
 -11   4   2    0.23    0.29
   4   7   2    0.05    0.33
   4   7   2    0.69    0.37
  12  -5  -2    0.49    0.29
  -7  12  -2    0.23    0.12
  -5  -7  -2    0.69    0.46
  -7  12  -2    0.42    0.19
   7 -12   2   -0.28    0.76
 -12   5   2    1.05    0.37
   5   7   2    0.16    0.31
  13  -6  -2   85.88    3.71
  -7  13  -2   85.49    3.67
  -6  -7  -2   82.11    5.60
   6   7   2   86.08    4.25
 -13   6   2   94.77    5.39
  -7  -7  -2   16.25    1.73
  -7  14  -2   18.03    0.97
  14  -7  -2   17.58    1.00
   7   7   2   18.78    1.14
 -14   7   2   19.79    1.49
  -7  15  -2    0.45    0.23
  -8  -7  -2    0.31    0.57
 -15   8   2    0.51    0.45
   8   7   2   -0.12    0.29
 -15   8   2    0.69    0.30
   7 -15   2    0.19    0.71
  14  -8  -2    6.23    0.48
  -6  14  -2    5.38    0.50
  -8  -6  -2    4.72    1.07
   6 -14   2    2.34    0.95
   8   6   2    5.83    0.61
 -14   8   2    5.99    0.76
 -14   8   2    4.92    0.52
  13  -8  -2   42.56    2.07
  -5  13  -2   43.65    1.89
  -8  -5  -2   34.36    3.02
 -13   8   2   42.35    2.68
 -13   8   2   41.09    1.89
   8   5   2   43.38    2.16
  -8  -4  -2   17.64    1.78
  12  -8  -2   21.25    1.08
  -4  12  -2   20.36    1.03
   8   4   2   19.59    1.17
 -12   8   2   21.58    1.40
   4 -12   2   16.64    2.01
  -8  -3  -2   54.19    3.97
  -3  11  -2   61.58    2.57
   3 -11   2   59.67    4.33
 -11   8   2   57.07    2.85
 -11   8   2   61.27    3.92
 -11   8   2   60.33    3.60
   8   3   2   59.59    2.94
  10  -8  -2   53.14    3.28
  -8  -2  -2   51.46    3.62
  -2  10  -2   56.56    2.35
   8   2   2   54.17    2.69
   2 -10   2   53.95    3.90
 -10   8   2   52.94    2.61
 -10   8   2   55.86    3.62
  -8  -1  -2   82.15    3.31
   9  -8  -2   75.15    4.62
  -8  -1  -2   78.18    4.91
  -1   9  -2   75.63    3.27
   1  -9   2   79.65    4.81
   1  -9   2   77.84    5.24
  -9   8   2   77.95    3.22
   8   1   2   77.07    3.75
  -9   8   2   75.32    3.69
  -8   0  -2   35.42    2.37
   8  -8  -2   34.51    2.44
   8  -8  -2   33.52    2.15
   0   8  -2   32.80    1.57
  -8   0  -2   36.24    1.58
   0  -8   2   35.17    2.54
   8   0   2   34.29    1.78
   8   0   2   35.64    2.32
  -8   8   2   33.87    1.72
  -8   8   2   34.85    1.50
   0  -8   2   37.33    2.34
   1   7  -2   73.59    3.20
  -8   1  -2   78.84    3.22
   7  -8  -2   78.35    5.04
  -8   1  -2   74.94    4.67
   7  -8  -2   73.40    4.54
  -7   8   2   73.88    3.63
  -1  -7   2   82.22    4.69
  -1  -7   2   78.15    5.01
   8  -1   2   75.08    4.88
  -7   8   2   74.61    3.12
   8  -1   2   76.68    3.67
   6  -8  -2    4.85    0.46
  -8   2  -2    5.02    0.39
   2   6  -2    5.06    0.44
  -8   2  -2    4.91    0.53
   6  -8  -2    4.91    0.75
   8  -2   2    4.34    0.55
  -2  -6   2    4.88    0.63
  -2  -6   2    5.52    0.67
  -6   8   2    4.38    0.37
   8  -2   2    4.63    0.41
  -8   3  -2    1.24    0.21
   5  -8  -2    1.05    0.24
   3   5  -2    1.50    0.26
   5  -8  -2    0.99    0.42
  -8   3  -2    1.34    0.30
   8  -3   2    1.40    0.31
  -3  -5   2    1.39    0.36
   8  -3   2    1.64    0.28
  -5   8   2    0.86    0.18
  -3  -5   2    1.12    0.35
   4   4  -2   17.49    0.88
  -8   4  -2   16.91    1.12
   4  -8  -2   16.98    1.14
   4  -8  -2   16.88    1.45
  -8   4  -2   16.54    0.84
   8  -4   2   16.59    0.89
  -4  -4   2   16.89    1.24
   8  -4   2   16.34    1.25
  -4   8   2   16.23    0.92
  -4  -4   2   17.84    1.25
   3  -8  -2   41.04    2.53
  -8   5  -2   41.89    2.48
   3  -8  -2   39.61    2.90
  -8   5  -2   41.58    1.79
   5   3  -2   41.13    1.83
  -5  -3   2   41.82    2.61
  -3   8   2   38.76    2.02
   8  -5   2   40.04    2.73
   8  -5   2   40.51    1.98
  -5  -3   2   42.20    2.69
  -8   6  -2  147.34    8.17
   2  -8  -2  140.67    8.24
   2  -8  -2  129.09    9.02
   6   2  -2  145.03    5.76
  -8   6  -2  131.23    5.70
   8  -6   2  137.97    6.53
  -2   8   2  132.56    6.58
  -6  -2   2  141.43    8.82
   8  -6   2  143.99    8.91
  -6  -2   2  147.39    8.31
  -8   7  -2   84.41    3.54
   1  -8  -2   85.59    5.10
   1  -8  -2   74.23    5.60
   7   1  -2   85.37    3.59
  -7  -1   2   90.70    5.17
   8  -7   2   88.41    5.57
  -7  -1   2   85.98    5.41
  -1   8   2   84.87    4.08
   8  -7   2   85.05    4.00
  -8   8  -2   33.51    1.48
   0  -8  -2   30.76    2.40
   0  -8  -2   33.18    2.13
   8   0  -2   31.32    1.53
   8  -8   2   32.33    1.60
   8  -8   2   33.76    2.44
   0   8   2   30.84    1.71
  -8   0   2   36.29    2.19
  -8   0   2   32.99    2.17
  -1  -8  -2   39.38    2.89
  -8   9  -2   39.96    1.80
   9  -1  -2   39.69    1.86
  -1  -8  -2   40.69    2.64
   8  -9   2   41.65    3.06
   1   8   2   42.49    2.12
   8  -9   2   41.23    1.98
  -9   1   2   42.64    2.66
  10  -2  -2   79.93    3.47
  -8  10  -2   78.43    3.43
  -2  -8  -2   83.67    5.05
   2   8   2   85.87    4.01
 -10   2   2   84.59    5.02
   8 -10   2   80.97    3.86
   8 -10   2   78.21    5.62
  11  -3  -2   17.69    1.00
  -8  11  -2   18.58    0.93
  -3  -8  -2   18.96    1.49
   8 -11   2   18.51    0.95
 -11   3   2   18.48    1.42
   8 -11   2   15.59    1.93
   3   8   2   18.22    1.15
  -4  -8  -2  111.74    6.91
  12  -4  -2  109.85    4.68
  -8  12  -2  110.71    5.24
  -8  12  -2  106.56    4.63
   4   8   2  121.57    7.22
   4   8   2  109.18    5.38
 -12   4   2  110.38    6.78
  -8  13  -2    0.54    0.15
  -8  13  -2    0.52    0.21
  13  -5  -2    0.74    0.29
  -5  -8  -2    1.23    0.55
   8 -13   2    0.44    0.78
 -13   5   2    0.40    0.39
   5   8   2    0.33    0.35
  -8  14  -2    3.28    0.40
  -6  -8  -2    5.25    0.99
  14  -6  -2    3.05    0.44
 -14   6   2    2.98    0.73
   6   8   2    2.48    0.44
   8 -14   2    1.11    0.82
  -7  -8  -2    4.43    1.04
  -8  15  -2    5.04    0.47
   8 -15   2    1.48    0.81
   7   8   2    3.79    0.59
 -15   7   2    4.41    0.85
  -8  -8  -2   18.06    1.90
  -8  16  -2   20.25    1.08
   8   8   2   21.72    1.26
 -16   8   2   20.89    1.79
 -16   8   2   18.79    1.11
  -8  17  -2   41.16    1.86
  -9  -8  -2   31.92    2.96
 -17   9   2   38.42    1.87
   9   8   2   43.94    2.14
  -9  -7  -2    7.65    1.28
  -7  16  -2    9.19    0.67
   9   7   2    9.34    0.76
 -16   9   2    8.45    0.67
  15  -9  -2  151.06    7.23
  -6  15  -2  155.62    6.34
   9   6   2  155.29    7.30
 -15   9   2  150.09    6.33
  -5  14  -2   11.77    0.73
  -9  -5  -2    8.11    1.34
  14  -9  -2   11.91    0.73
   9   5   2   12.47    0.85
 -14   9   2   11.00    0.72
 -14   9   2   11.29    1.02
  -9  -4  -2    6.49    1.21
  -4  13  -2   10.12    0.66
 -13   9   2   10.56    0.64
   4 -13   2    7.57    1.46
   9   4   2   10.05    0.74
 -13   9   2    9.50    0.84
  -3  12  -2   38.27    1.65
   9   3   2   35.32    1.86
 -12   9   2   33.99    2.25
 -12   9   2   36.85    1.61
 -12   9   2   32.68    1.77
 -12   9   2   36.56    2.47
  -9  -2  -2   10.14    1.30
  -2  11  -2   13.29    0.73
 -11   9   2   11.59    0.70
 -11   9   2   11.89    0.66
   9   2   2   12.09    0.80
   2 -11   2   12.14    1.59
  -1  10  -2   50.43    2.22
  10  -9  -2   52.80    3.44
  10  -9  -2   49.98    3.09
  -9  -1  -2   48.65    3.46
  -9  -1  -2   53.93    2.31
 -10   9   2   48.08    2.47
 -10   9   2   51.40    2.16
   1 -10   2   49.91    3.70
   9   1   2   51.93    2.54
  -9   0  -2   52.30    3.48
   9  -9  -2   48.64    3.17
   9  -9  -2   53.83    3.57
  -9   0  -2   53.89    2.34
   0   9  -2   52.87    2.29
   0  -9   2   54.02    3.73
   0  -9   2   52.80    3.45
  -9   9   2   53.15    2.21
  -9   9   2   51.78    2.55
   9   0   2   53.00    2.61
   8  -9  -2   43.97    3.02
   8  -9  -2   41.52    2.63
   1   8  -2   41.54    1.91
  -9   1  -2   42.89    2.85
  -9   1  -2   45.27    1.94
   9  -1   2   41.72    2.16
  -1  -8   2   43.02    2.88
  -1  -8   2   46.31    3.07
  -8   9   2   42.56    2.12
  -9   2  -2    1.22    0.35
   7  -9  -2    1.01    0.24
  -9   2  -2    0.50    0.21
   7  -9  -2    0.98    0.46
   2   7  -2    1.15    0.26
  -2  -7   2    1.13    0.47
   9  -2   2    0.89    0.30
  -2  -7   2    1.69    0.48
   9  -2   2    0.65    0.22
  -7   9   2    0.78    0.18
   3   6  -2   31.83    1.48
   6  -9  -2   31.78    2.01
  -9   3  -2   31.93    2.08
   6  -9  -2   32.56    2.41
  -9   3  -2   33.06    1.48
   9  -3   2   31.90    1.63
  -3  -6   2   33.69    2.25
  -3  -6   2   32.91    2.21
  -6   9   2   31.30    1.62
   9  -3   2   31.00    2.16
   5  -9  -2   28.96    1.83
  -9   4  -2   29.23    1.84
   5  -9  -2   26.69    2.20
  -9   4  -2   28.70    1.33
   4   5  -2   27.16    1.35
   9  -4   2   29.03    1.97
  -4  -5   2   29.73    2.00
  -5   9   2   27.61    1.47
  -4  -5   2   30.63    2.00
   9  -4   2   28.59    1.46
  -9   5  -2   96.45    5.61
   4  -9  -2   96.36    5.64
  -9   5  -2   94.68    3.95
   4  -9  -2   83.25    6.27
   5   4  -2   91.46    3.97
   9  -5   2   93.29    4.48
  -5  -4   2   99.02    6.06
  -4   9   2   95.90    4.52
   9  -5   2   96.18    6.09
  -5  -4   2  100.60    5.79
   3  -9  -2   30.83    2.55
   6   3  -2   34.24    1.59
   3  -9  -2   34.13    2.17
  -9   6  -2   35.73    1.55
   9  -6   2   35.27    2.40
  -6  -3   2   36.55    2.32
  -6  -3   2   35.55    2.29
   9  -6   2   34.43    1.69
  -3   9   2   31.77    1.73
   2  -9  -2   10.03    1.25
   2  -9  -2   12.53    0.92
  -9   7  -2   12.28    0.66
   7   2  -2   11.55    0.76
   9  -7   2   12.46    0.68
   9  -7   2   13.94    1.19
  -7  -2   2   11.70    0.93
  -2   9   2   11.14    0.76
  -7  -2   2   13.67    1.09
   1  -9  -2   73.93    4.43
   1  -9  -2   63.23    4.89
  -9   8  -2   73.66    3.08
   8   1  -2   73.21    3.13
  -1   9   2   74.18    3.55
  -8  -1   2   72.73    4.67
   9  -8   2   72.09    3.45
  -8  -1   2   77.20    4.55
   9  -8   2   75.70    4.92
   0  -9  -2   44.25    3.43
   0  -9  -2   49.33    3.10
  -9   9  -2   49.24    2.14
   9   0  -2   49.20    2.20
   9  -9   2   52.07    3.58
   9  -9   2   49.14    2.36
   0   9   2   49.11    2.48
  -9   0   2   51.26    3.19
  -9  10  -2   42.55    1.95
  -1  -9  -2   42.45    3.14
  10  -1  -2   46.81    2.03
  -1  -9  -2   45.29    2.88
 -10   1   2   47.88    2.95
   9 -10   2   43.46    3.38
   1   9   2   41.77    2.28
   9 -10   2   45.28    2.15
  -9  11  -2   13.91    0.75
  -2  -9  -2   14.13    1.19
  11  -2  -2   11.95    0.82
  -2  -9  -2   13.98    1.29
   9 -11   2   11.28    1.67
   9 -11   2   13.57    0.74
 -11   2   2   14.52    1.24
   2   9   2   12.80    0.94
  -3  -9  -2   86.07    5.25
  12  -3  -2   78.55    3.54
  -9  12  -2   80.63    3.51
   9 -12   2   84.19    3.94
 -12   3   2   84.79    5.22
   3   9   2   84.71    4.10
  -9  13  -2   28.84    1.41
  -4  -9  -2   27.66    2.15
  -9  13  -2   28.10    1.34
  13  -4  -2   26.63    1.39
 -13   4   2   27.70    2.09
   4   9   2   27.79    1.61
  -9  14  -2  139.81    5.99
  -5  -9  -2  144.11    8.95
  -9  14  -2  145.03    6.80
  14  -5  -2  144.08    6.03
   5   9   2  145.94    6.95
 -14   5   2  150.35    8.87
  -9  15  -2   -0.07    0.19
  -6  -9  -2    0.58    0.55
  15  -6  -2    0.11    0.29
 -15   6   2    0.89    0.55
   9 -15   2    0.44    0.71
   6   9   2    0.13    0.34
  -7  -9  -2   31.18    2.70
  -9  16  -2   35.40    1.65
 -16   7   2   35.22    2.65
   7   9   2   36.13    1.92
  -8  -9  -2    5.25    1.13
  -9  17  -2    4.67    0.51
   9 -17   2    2.70    0.99
 -17   8   2    5.53    0.61
   8   9   2    4.39    0.64
  -9  18  -2    5.41    0.58
  -9  -9  -2    4.55    1.13
   9   9   2    5.30    0.70
 -18   9   2    5.31    0.61
   9 -18   2    3.12    1.07
  -9  19  -2    6.58    0.66
 -19  10   2    6.80    0.70
 -10  -8  -2   11.44    1.49
  -8  18  -2   12.43    0.82
   8 -18   2   10.20    1.74
  10   8   2   12.29    0.93
 -18  10   2   11.71    0.85
  -7  17  -2   22.34    1.11
 -10  -7  -2   15.98    1.86
 -17  10   2   21.13    1.12
  10   7   2   21.82    1.26
   7 -17   2   14.32    2.03
  16 -10  -2    2.88    0.42
 -10  -6  -2    2.17    0.81
  -6  16  -2    3.98    0.49
 -16  10   2    2.87    0.46
   6 -16   2    1.89    0.90
  10   6   2    3.03    0.54
  -5  15  -2    8.92    0.64
  15 -10  -2    7.75    0.61
 -10  -5  -2    4.23    1.14
  10   5   2    8.67    0.71
 -15  10   2    7.75    0.60
  -4  14  -2   26.71    1.28
 -14  10   2   24.37    1.24
  10   4   2   25.60    1.44
  -3  13  -2   18.11    0.95
  10   3   2   17.92    1.06
 -13  10   2   16.63    0.89
 -13  10   2   15.90    0.95
  -2  12  -2   56.61    2.34
   2 -12   2   41.85    3.87
 -12  10   2   56.28    2.28
 -12  10   2   53.25    3.24
  10   2   2   53.13    2.65
 -12  10   2   53.17    2.59
  11 -10  -2    2.69    0.62
  -1  11  -2    2.90    0.43
  11 -10  -2    2.54    0.37
 -10  -1  -2    1.88    0.66
 -11  10   2    3.16    0.32
   1 -11   2    1.77    0.82
  10   1   2    3.49    0.48
 -11  10   2    2.66    0.32
  10 -10  -2    4.39    0.46
  10 -10  -2    4.43    0.74
   0  10  -2    4.81    0.47
 -10   0  -2    4.87    0.55
 -10   0  -2    4.11    0.87
 -10  10   2    4.83    0.40
   0 -10   2    4.68    1.15
  10   0   2    5.16    0.52
   0 -10   2    3.98    0.93
   9 -10  -2   44.09    2.83
 -10   1  -2   48.63    3.17
   9 -10  -2   49.43    3.28
   1   9  -2   45.69    2.07
 -10   1  -2   47.91    2.13
  -1  -9   2   42.66    3.14
  -1  -9   2   47.84    3.38
  -9  10   2   46.14    2.29
  10  -1   2   47.17    2.34
   2   8  -2   81.75    3.60
 -10   2  -2   89.81    3.65
   8 -10  -2   84.04    5.71
 -10   2  -2   90.75    5.32
   8 -10  -2   82.03    5.09
  -2  -8   2   89.53    5.70
  -8  10   2   86.71    4.09
  -2  -8   2   83.83    5.37
  10  -2   2   82.35    4.11
   7 -10  -2    7.84    0.65
   7 -10  -2    8.02    1.09
   3   7  -2    7.15    0.58
 -10   3  -2    8.52    0.78
 -10   3  -2    8.52    0.58
  -7  10   2    7.84    0.55
  10  -3   2    7.45    0.58
  -3  -7   2    9.00    1.05
  -3  -7   2    9.34    0.99
   4   6  -2   67.20    2.98
   6 -10  -2   65.68    4.79
 -10   4  -2   71.71    3.00
   6 -10  -2   69.17    4.19
 -10   4  -2   70.57    4.25
  -4  -6   2   73.50    4.59
  10  -4   2   68.37    3.36
  -6  10   2   68.03    3.37
  -4  -6   2   71.25    4.45
  10  -4   2   72.04    4.54
   5   5  -2    1.08    0.29
   5 -10  -2    1.07    0.62
 -10   5  -2    1.05    0.24
   5 -10  -2    0.85    0.26
 -10   5  -2    0.98    0.25
  10  -5   2    0.61    0.18
  -5  10   2    0.76    0.22
  -5  -5   2    1.22    0.37
  10  -5   2    0.77    0.38
  -5  -5   2    2.79    0.61
   4 -10  -2    0.32    0.55
   6   4  -2    0.03    0.24
   4 -10  -2    0.19    0.20
 -10   6  -2    0.75    0.20
  10  -6   2    0.22    0.16
  -6  -4   2    0.05    0.43
  10  -6   2    0.07    0.38
  -4  10   2    0.18    0.20
  -6  -4   2    0.51    0.30
   3 -10  -2  130.38    7.95
 -10   7  -2  129.74    5.54
   7   3  -2  134.88    5.57
  -7  -3   2  141.63    8.16
  -7  -3   2  135.67    8.51
  -3  10   2  132.08    6.36
  10  -7   2  138.62    8.68
  10  -7   2  133.06    6.31
   2 -10  -2   52.91    3.28
   8   2  -2   53.39    2.36
 -10   8  -2   50.57    2.30
  10  -8   2   54.79    3.74
  -8  -2   2   53.35    3.47
  10  -8   2   52.75    2.56
  -2  10   2   54.29    2.65
   9   1  -2   48.59    2.15
   1 -10  -2   41.18    3.38
   1 -10  -2   47.96    3.00
 -10   9  -2   48.98    2.10
  -9  -1   2   50.15    3.19
  -1  10   2   47.29    2.42
  10  -9   2   50.28    3.51
  10  -9   2   47.79    2.31
 -10  10  -2    4.89    0.40
   0 -10  -2    4.00    0.90
   0 -10  -2    4.25    0.60
  10   0  -2    4.73    0.52
  10 -10   2    4.22    0.34
 -10   0   2    5.26    0.84
  10 -10   2    2.66    0.92
   0  10   2    4.54    0.59
  -1 -10  -2   29.81    2.04
  -1 -10  -2   28.62    2.25
  11  -1  -2   28.77    1.43
 -10  11  -2   29.57    1.37
 -11   1   2   30.06    2.18
  10 -11   2   28.57    1.46
   1  10   2   29.10    1.63
  -2 -10  -2   31.03    2.27
  12  -2  -2   29.98    1.47
 -10  12  -2   28.51    1.40
  -2 -10  -2   29.83    2.14
 -12   2   2   32.10    2.26
  10 -12   2   28.57    1.49
   2  10   2   29.76    1.68
  -3 -10  -2   73.11    4.73
  13  -3  -2   69.14    3.07
 -10  13  -2   65.64    3.01
  -3 -10  -2   73.91    4.56
  10 -13   2   71.57    3.37
   3  10   2   68.95    3.53
 -13   3   2   69.87    4.58
  14  -4  -2    4.98    0.58
 -10  14  -2    4.56    0.45
  -4 -10  -2    5.10    0.93
 -10  14  -2    4.28    0.39
   4  10   2    3.64    0.67
 -14   4   2    4.91    0.97
 -10  15  -2    0.43    0.21
  -5 -10  -2    0.62    0.56
 -10  15  -2    0.19    0.15
  15  -5  -2   -0.09    0.28
 -15   5   2    0.16    0.55
  10 -15   2    0.50    0.69
   5  10   2    0.50    0.38
  16  -6  -2   18.10    1.05
  -6 -10  -2   18.22    1.76
 -10  16  -2   17.19    0.96
   6  10   2   17.15    1.17
 -16   6   2   16.86    1.73
 -10  17  -2    3.41    0.47
  -7 -10  -2    3.47    0.87
 -17   7   2    2.73    0.84
 -17   7   2    3.28    0.48
   7  10   2    3.33    0.63
  10 -17   2    0.58    0.82
 -10  18  -2  150.95    5.97
  -8 -10  -2  138.88    8.99
 -18   8   2  140.54    6.00
  10 -18   2  128.03    9.67
   8  10   2  152.20    6.89
 -10  19  -2    2.04    0.40
 -19   9   2    1.51    0.40
  -8  19  -2    9.07    0.75
 -19  11   2    8.94    0.77
 -11  -7  -2    6.10    1.20
  -7  18  -2    5.98    0.62
  11   7   2    6.27    0.70
 -18  11   2    6.04    0.63
   7 -18   2    5.49    1.32
 -11  -6  -2   21.68    2.27
  -6  17  -2   29.64    1.40
 -17  11   2   30.21    1.40
   6 -17   2   21.16    2.48
  11   6   2   29.51    1.58
  -5  16  -2   14.17    0.87
 -16  11   2   12.32    0.82
  11   5   2   14.59    0.96
  -4  15  -2   13.50    0.83
 -15  11   2   12.51    0.81
 -15  11   2   13.80    0.80
  11   4   2   13.64    0.92
 -11  -3  -2    0.48    0.58
  -3  14  -2    0.29    0.25
  11   3   2    0.35    0.28
   3 -14   2    0.24    0.70
 -14  11   2    0.82    0.21
 -14  11   2    0.29    0.23
  13 -11  -2    0.38    0.35
 -11  -2  -2   -0.25    0.51
  -2  13  -2    0.29    0.24
  11   2   2    0.54    0.29
   2 -13   2    0.07    0.69
 -13  11   2    0.22    0.17
  -1  12  -2   26.04    1.27
  12 -11  -2   26.27    1.95
 -12  11   2   23.91    1.35
  11   1   2   26.30    1.44
  11 -11  -2   96.15    5.76
   0  11  -2   91.84    3.68
 -11   0  -2   73.81    5.57
   0 -11   2   72.16    5.90
 -11  11   2   89.37    4.16
  11   0   2   92.20    4.21
 -11   1  -2   31.80    1.53
 -11   1  -2   29.40    2.28
  10 -11  -2   28.52    1.85
   1  10  -2   29.90    1.42
  10 -11  -2   31.32    2.27
 -10  11   2   30.74    1.53
  -1 -10   2   25.04    2.21
  -1 -10   2   27.83    2.42
  11  -1   2   28.72    1.57
   9 -11  -2   13.64    0.98
   9 -11  -2   15.58    1.43
   2   9  -2   14.55    0.83
 -11   2  -2   14.48    0.89
 -11   2  -2   14.15    1.30
  -2  -9   2   12.93    1.48
  -9  11   2   14.86    0.84
  11  -2   2   13.61    0.87
  -2  -9   2   12.61    1.40
 -11   3  -2   20.26    1.03
   3   8  -2   18.69    1.00
 -11   3  -2   19.62    1.47
   8 -11  -2   18.01    1.72
   8 -11  -2   17.51    1.24
  -8  11   2   19.30    1.04
  -3  -8   2   16.30    1.62
  11  -3   2   17.50    1.05
  -3  -8   2   19.91    1.67
   4   7  -2   -0.06    0.23
   7 -11  -2    0.17    0.19
 -11   4  -2    0.06    0.20
   7 -11  -2    0.34    0.54
 -11   4  -2    0.45    0.29
  -4  -7   2    0.21    0.45
  -4  -7   2    0.39    0.52
  -7  11   2    0.08    0.17
  11  -4   2    0.27    0.19
   6 -11  -2   46.08    2.85
   6 -11  -2   42.26    3.41
 -11   5  -2   47.68    2.90
   5   6  -2   44.31    2.07
 -11   5  -2   47.79    2.09
  -5  -6   2   49.99    3.18
  -5  -6   2   46.45    3.18
  -6  11   2   45.76    2.31
  11  -5   2   45.58    2.29
   5 -11  -2  116.42    7.08
   6   5  -2  115.58    4.98
 -11   6  -2  118.63    4.98
  -5  11   2  117.81    5.68
  -6  -5   2  116.36    7.37
  -6  -5   2  124.68    7.66
  11  -6   2  116.29    5.64
  11  -6   2  130.94    7.79
   4 -11  -2   34.64    2.18
   7   4  -2   34.00    1.62
 -11   7  -2   35.06    1.59
  -4  11   2   33.67    1.77
  11  -7   2   33.47    1.71
  11  -7   2   34.29    2.54
  -7  -4   2   35.39    2.50
   8   3  -2   58.35    2.60
   3 -11  -2   57.61    3.61
 -11   8  -2   57.30    2.56
  11  -8   2   62.06    4.13
  11  -8   2   57.98    2.84
  -3  11   2   61.26    2.93
  -8  -3   2   59.00    3.89
 -11   9  -2   12.00    0.69
   2 -11  -2    9.59    1.31
   9   2  -2   11.98    0.78
   2 -11  -2   12.34    0.96
  11  -9   2   11.20    1.45
  11  -9   2   12.08    0.68
  -9  -2   2   12.06    1.25
  -2  11   2   12.35    0.82
  10   1  -2    3.03    0.47
   1 -11  -2    2.54    0.67
   1 -11  -2    2.33    0.49
 -11  10  -2    2.52    0.34
  -1  11   2    2.16    0.38
  11 -10   2    2.50    0.29
  11 -10   2    2.21    0.85
 -10  -1   2    1.88    0.65
   0 -11  -2   85.54    5.74
   0 -11  -2   86.91    5.25
 -11  11  -2   81.45    3.60
  11   0  -2   84.05    3.65
 -11   0   2   87.49    5.46
  11 -11   2   86.22    4.05
   0  11   2   86.21    4.19
  12  -1  -2    0.75    0.31
  -1 -11  -2    0.68    0.50
 -11  12  -2    0.67    0.21
  -1 -11  -2    0.61    0.37
 -12   1   2    0.54    0.58
   1  11   2    0.12    0.33
  11 -12   2    0.56    0.16
  11 -12   2    0.36    0.76
  -2 -11  -2    2.82    0.64
 -11  13  -2    2.10    0.32
  -2 -11  -2    2.50    0.59
  13  -2  -2    2.06    0.38
   2  11   2    1.71    0.44
  11 -13   2    2.26    0.30
 -13   2   2    2.11    0.72
  11 -13   2    0.97    0.82
 -11  14  -2    9.45    0.64
  -3 -11  -2   10.22    1.15
  14  -3  -2    8.95    0.73
   3  11   2    8.58    0.87
 -14   3   2    9.96    1.29
  -4 -11  -2    5.00    0.96
  15  -4  -2    4.69    0.59
 -11  15  -2    4.37    0.41
 -11  15  -2    4.90    0.47
 -15   4   2    3.75    0.92
   4  11   2    4.38    0.72
 -11  16  -2    2.70    0.36
 -11  16  -2    2.14    0.34
  16  -5  -2    2.49    0.43
  -5 -11  -2    2.79    0.77
  11 -16   2    0.31    0.71
 -16   5   2    2.96    0.84
   5  11   2    1.80    0.46
  -6 -11  -2   16.45    1.71
 -11  17  -2   16.68    0.95
   6  11   2   16.51    1.16
 -17   6   2   15.14    1.77
 -11  18  -2    4.67    0.54
  -7 -11  -2    6.31    1.17
   7  11   2    4.18    0.71
 -18   7   2    4.59    0.65
  11 -18   2    3.89    1.14
 -11  19  -2    1.55    0.37
 -19   8   2    2.17    0.44
  -7  19  -2  100.83    4.28
 -19  12   2   98.11    4.27
  -6  18  -2    0.14    0.29
 -12  -6  -2   -0.07    0.56
  12   6   2    0.40    0.33
 -18  12   2    0.27    0.31
   6 -18   2   -0.24    0.76
  -5  17  -2   26.80    1.32
 -17  12   2   25.46    1.28
 -17  12   2   23.45    1.37
  12   5   2   26.37    1.46
   5 -17   2   20.68    2.36
  -4  16  -2    2.42    0.38
 -12  -4  -2    0.72    0.62
  12   4   2    1.88    0.38
 -16  12   2    1.87    0.36
   4 -16   2   -0.01    0.67
 -16  12   2    1.87    0.33
  -3  15  -2   24.53    1.23
 -15  12   2   22.71    1.29
  12   3   2   23.23    1.36
  14 -12  -2   60.47    4.11
  -2  14  -2   63.77    2.70
 -14  12   2   58.76    3.00
  12   2   2   61.41    3.07
  13 -12  -2   55.06    3.67
  -1  13  -2   52.01    2.37
  12   1   2   53.96    2.70
 -13  12   2   51.71    2.64
  12 -12  -2   10.59    1.13
 -12   0  -2    7.83    1.28
   0  12  -2   11.26    0.72
  12   0   2   11.15    0.78
   0 -12   2    7.54    1.39
 -12  12   2   10.79    0.68
  11 -12  -2    0.75    0.47
 -12   1  -2    0.41    0.54
   1  11  -2    0.96    0.29
 -12   1  -2    0.67    0.35
  -1 -11   2    0.66    0.64
  12  -1   2    0.54    0.27
 -11  12   2    1.07    0.23
 -12   2  -2   32.65    1.59
  10 -12  -2   33.65    2.44
 -12   2  -2   31.67    2.36
   2  10  -2   31.39    1.47
  12  -2   2   29.14    1.61
  -2 -10   2   24.75    2.28
  -2 -10   2   27.09    2.46
 -10  12   2   31.15    1.58
 -12   3  -2   86.84    5.39
 -12   3  -2   86.88    3.71
   9 -12  -2   90.44    5.85
   3   9  -2   82.44    3.62
  12  -3   2   81.53    4.11
  -3  -9   2   82.31    5.76
  -9  12   2   85.67    4.09
   8 -12  -2  105.66    6.41
   4   8  -2  106.71    4.52
 -12   4  -2  113.33    4.59
   8 -12  -2  101.85    7.24
 -12   4  -2  115.83    6.60
  -4  -8   2   92.03    6.72
  -8  12   2  113.12    5.15
  -4  -8   2  111.80    7.12
  12  -4   2  107.31    5.14
 -12   5  -2    0.48    0.24
   7 -12  -2    0.57    0.63
   5   7  -2    0.83    0.29
   7 -12  -2    0.40    0.23
  12  -5   2    0.30    0.19
  -7  12   2    0.43    0.21
  -5  -7   2    0.18    0.55
  -5  -7   2    0.65    0.51
   6   6  -2   31.99    1.58
   6 -12  -2   33.67    2.10
 -12   6  -2   33.92    1.59
  -6  12   2   35.88    1.73
  12  -6   2   31.81    1.68
  -6  -6   2   29.65    2.47
 -12   7  -2    6.11    0.49
   7   5  -2    6.43    0.58
   5 -12  -2    3.79    0.98
   5 -12  -2    5.48    0.56
  12  -7   2    5.76    0.46
  -7  -5   2    6.27    1.03
  -5  12   2    6.06    0.55
   4 -12  -2   19.56    1.41
 -12   8  -2   20.67    1.07
   8   4  -2   20.88    1.12
  12  -8   2   20.58    1.98
  -8  -4   2   19.82    1.80
  -4  12   2   22.57    1.20
  12  -8   2   20.79    1.10
   9   3  -2   35.40    1.65
   3 -12  -2   34.06    2.21
 -12   9  -2   34.10    1.59
  12  -9   2   30.99    2.69
  -3  12   2   35.80    1.81
  -9  -3   2   32.48    2.55
  12  -9   2   34.67    1.71
   2 -12  -2   53.41    3.14
  10   2  -2   52.85    2.25
 -12  10  -2   51.14    2.21
   2 -12  -2   43.48    3.56
  -2  12   2   52.53    2.53
  12 -10   2   40.20    3.62
 -10  -2   2   48.78    3.45
  12 -10   2   51.18    2.42
   1 -12  -2   23.06    1.64
   1 -12  -2   21.03    1.95
 -12  11  -2   22.60    1.16
  11   1  -2   22.86    1.21
 -11  -1   2   23.31    2.00
  12 -11   2   23.07    1.20
  -1  12   2   25.47    1.38
  12   0  -2   10.12    0.74
   0 -12  -2   10.76    1.24
   0 -12  -2   10.43    0.99
 -12  12  -2    9.69    0.64
  12 -12   2   10.86    0.64
  12 -12   2    5.98    1.42
   0  12   2   10.20    0.85
 -12   0   2   11.89    1.35
  -1 -12  -2   65.55    4.34
  13  -1  -2   61.50    2.77
  -1 -12  -2   64.25    4.03
 -12  13  -2   61.37    2.73
 -13   1   2   61.41    4.27
   1  12   2   60.65    3.19
  12 -13   2   62.87    3.02
  -2 -12  -2    1.71    0.59
  -2 -12  -2    2.15    0.60
  14  -2  -2    1.79    0.39
 -12  14  -2    2.14    0.37
  12 -14   2    0.55    0.70
   2  12   2    2.17    0.48
 -14   2   2    1.85    0.72
  12 -14   2    1.95    0.31
 -12  15  -2   33.32    1.67
  -3 -12  -2   33.70    2.46
 -12  15  -2   31.18    1.55
  15  -3  -2   32.51    1.63
 -15   3   2   30.91    2.62
   3  12   2   32.73    1.87
 -12  16  -2   20.15    1.09
  16  -4  -2   20.03    1.15
  -4 -12  -2   20.43    1.80
 -12  16  -2   18.75    1.06
 -16   4   2   17.47    1.93
   4  12   2   19.55    1.32
  -5 -12  -2   11.69    1.39
  17  -5  -2   11.53    0.84
 -12  17  -2   10.91    0.73
 -17   5   2    8.57    1.45
   5  12   2   10.42    0.95
  12 -17   2    6.89    1.51
 -12  18  -2    5.72    0.56
  -6 -12  -2    6.52    1.20
 -18   6   2    4.94    1.14
   6  12   2    5.18    0.78
 -18   6   2    6.09    0.69
  12 -18   2    4.44    1.17
 -12  19  -2    0.14    0.27
 -13  -5  -2   21.57    2.18
  -5  18  -2   26.41    1.33
 -18  13   2   23.02    1.40
  13   5   2   26.99    1.49
   5 -18   2   25.14    2.46
 -13  -4  -2    0.82    0.64
  -4  17  -2    1.15    0.34
   4 -17   2    0.24    0.72
  13   4   2    0.93    0.36
 -17  13   2    0.87    0.27
  -3  16  -2  107.18    4.39
  13   3   2  105.00    5.01
 -16  13   2   96.97    4.96
  -2  15  -2    1.62    0.34
   2 -15   2   -0.01    0.65
  13   2   2    1.33    0.35
 -15  13   2    1.14    0.26
  14 -13  -2   35.80    2.55
  -1  14  -2   33.47    1.65
 -14  13   2   33.40    1.80
  13   1   2   35.06    1.85
  13 -13  -2    0.43    0.45
 -13   0  -2    0.04    0.54
   0  13  -2    0.47    0.28
 -13  13   2    0.73    0.22
   0 -13   2   -0.15    0.63
  13   0   2    0.64    0.29
   1  12  -2   68.10    2.92
  12 -13  -2   71.17    4.64
 -12  13   2   64.34    3.27
  13  -1   2   63.77    3.30
  11 -13  -2    3.57    0.82
 -13   2  -2    1.84    0.69
 -13   2  -2    2.31    0.47
   2  11  -2    1.78    0.35
  -2 -11   2    1.60    0.68
  -2 -11   2    0.99    0.69
  13  -2   2    2.11    0.36
 -11  13   2    2.70    0.38
  10 -13  -2   73.42    4.95
 -13   3  -2   77.11    3.20
   3  10  -2   69.04    3.03
 -13   3  -2   71.22    4.61
  13  -3   2   69.06    3.42
  -3 -10   2   55.97    4.79
 -10  13   2   72.95    3.41
 -13   4  -2   28.56    2.05
 -13   4  -2   29.34    1.45
   9 -13  -2   26.48    2.36
   4   9  -2   26.26    1.35
  13  -4   2   27.51    1.46
  -9  13   2   29.84    1.46
  -4  -9   2   23.16    2.18
  -4  -9   2   22.72    2.19
 -13   5  -2    0.38    0.27
   5   8  -2    0.37    0.29
   8 -13  -2    1.01    0.68
  -8  13   2    0.44    0.22
  13  -5   2    0.28    0.21
  -5  -8   2   -0.01    0.57
   6   7  -2   85.09    3.65
 -13   6  -2   89.31    3.70
  -6  -7   2   69.76    5.45
  13  -6   2   85.98    4.09
  -7  13   2   92.37    4.13
   7   6  -2   19.44    1.08
 -13   7  -2   19.84    1.08
  -6  13   2   20.87    1.14
  -7  -6   2   16.27    1.77
  13  -7   2   19.40    1.08
   8   5  -2   40.92    1.92
 -13   8  -2   42.04    1.91
   5 -13  -2   39.70    2.58
  -5  13   2   43.72    2.12
  13  -8   2   42.43    2.06
  -8  -5   2   35.95    2.97
 -13   9  -2   10.06    0.66
   9   4  -2    9.90    0.73
   4 -13  -2    9.57    0.81
   4 -13  -2    5.96    1.24
  -4  13   2   10.97    0.75
  13  -9   2    9.72    0.62
  -9  -4   2    8.63    1.27
   3 -13  -2   10.88    1.54
   3 -13  -2   15.57    1.18
 -13  10  -2   16.13    0.89
  10   3  -2   16.55    0.95
  -3  13   2   16.87    1.03
  13 -10   2   16.67    0.89
 -10  -3   2   15.06    1.61
 -13  11  -2    0.22    0.19
  11   2  -2    0.35    0.30
   2 -13  -2    0.61    0.59
   2 -13  -2    0.37    0.29
  -2  13   2    0.69    0.31
  13 -11   2    0.24    0.16
  13 -11   2   -0.12    0.64
 -11  -2   2    0.29    0.63
  12   1  -2   49.39    2.25
   1 -13  -2   50.00    3.18
 -13  12  -2   46.87    2.21
   1 -13  -2   47.87    3.56
  -1  13   2   52.62    2.58
 -12  -1   2   46.42    3.52
  13 -12   2   50.75    2.42
 -13  13  -2    0.57    0.23
   0 -13  -2    0.76    0.53
   0 -13  -2    0.58    0.39
  13   0  -2    0.11    0.29
   0  13   2    0.74    0.37
  13 -13   2   -0.09    0.60
  13 -13   2    0.48    0.19
 -13   0   2    0.74    0.68
 -13  14  -2   42.86    2.08
  14  -1  -2   47.76    2.14
  -1 -13  -2   47.08    3.10
  -1 -13  -2   49.75    3.33
  13 -14   2   44.82    2.27
 -14   1   2   41.14    3.36
   1  13   2   46.61    2.47
 -13  15  -2   14.05    0.86
  -2 -13  -2   15.65    1.42
  15  -2  -2   14.55    0.95
 -15   2   2   11.73    1.62
   2  13   2   14.43    1.11
  13 -15   2   14.95    0.86
 -13  16  -2   25.34    1.31
  16  -3  -2   26.19    1.38
  -3 -13  -2   27.52    2.13
 -13  16  -2   25.97    1.37
 -16   3   2   22.18    2.29
   3  13   2   25.05    1.60
  -4 -13  -2  131.85    7.99
  17  -4  -2  132.03    5.39
 -13  17  -2  135.96    6.04
 -13  17  -2  122.59    5.33
   4  13   2  131.49    6.21
 -17   4   2  103.99    8.03
 -13  18  -2    0.62    0.28
  -5 -13  -2    1.15    0.65
 -18   5   2   -0.15    0.67
  13 -18   2    0.40    0.80
   5  13   2    0.28    0.45
  -4  18  -2    7.77    0.72
 -14  -4  -2    6.88    1.22
  14   4   2    6.02    0.74
 -18  14   2    7.02    0.63
   4 -18   2    5.82    1.40
 -14  -3  -2    1.45    0.67
  -3  17  -2    1.69    0.38
  14   3   2    1.86    0.40
 -17  14   2    1.29    0.30
   3 -17   2    1.51    0.84
  -2  16  -2   21.16    1.14
  14   2   2   21.57    1.25
 -16  14   2   20.37    1.18
   2 -16   2   15.21    1.96
  15 -14  -2   72.89    4.74
  -1  15  -2   71.63    3.06
 -15  14   2   66.21    3.42
  14   1   2   67.31    3.46
   0  14  -2   15.93    0.98
  14 -14  -2   18.19    1.56
  14   0   2   15.25    1.04
 -14  14   2   16.37    1.00
   1  13  -2   48.08    2.24
  13 -14  -2   53.22    3.60
 -13  14   2   48.02    2.48
  14  -1   2   47.77    2.52
   2  12  -2    2.44    0.39
 -14   2  -2    1.86    0.49
 -14   2  -2    1.39    0.70
  12 -14  -2    2.28    0.72
  -2 -12   2    0.84    0.66
  14  -2   2    1.60    0.34
 -12  14   2    1.97    0.32
 -14   3  -2    7.29    1.18
   3  11  -2    8.83    0.70
  11 -14  -2   10.51    1.37
 -14   3  -2    9.41    0.84
  14  -3   2    8.68    0.69
  -3 -11   2    5.19    1.16
  -3 -11   2    8.20    1.21
 -11  14   2    9.55    0.66
   4  10  -2    5.27    0.57
  10 -14  -2    4.77    1.22
 -14   4  -2    4.64    0.64
  14  -4   2    4.07    0.53
 -10  14   2    5.41    0.52
  -4 -10   2    4.42    1.06
   9 -14  -2  123.65    9.44
   5   9  -2  144.13    5.92
 -14   5  -2  145.93    6.03
  -9  14   2  151.83    6.77
  14  -5   2  142.20    6.74
 -14   6  -2    4.29    0.54
   8 -14  -2    2.42    0.90
   6   8  -2    4.02    0.55
  -8  14   2    3.05    0.47
  14  -6   2    3.24    0.44
  -6  -8   2    3.22    0.88
   7   7  -2   19.64    1.07
 -14   7  -2   19.52    1.09
  14  -7   2   17.45    1.05
  -7  14   2   20.74    1.12
  -7  -7   2   13.81    1.73
   8   6  -2    5.54    0.62
 -14   8  -2    6.87    0.59
  -8  -6   2    4.68    1.12
  14  -8   2    5.50    0.49
  -6  14   2    6.14    0.60
 -14   9  -2   11.09    0.75
   9   5  -2   11.55    0.80
  -5  14   2   11.60    0.80
  14  -9   2   10.79    0.70
  -9  -5   2    8.84    1.38
 -14  10  -2   25.40    1.25
  10   4  -2   25.12    1.28
  -4  14   2   25.22    1.39
 -10  -4   2   18.19    2.04
  14 -10   2   23.24    1.26
   3 -14  -2    0.93    0.33
 -14  11  -2    1.29    0.29
  11   3  -2    0.63    0.30
   3 -14  -2    0.19    0.51
 -11  -3   2    0.87    0.72
  -3  14   2    0.85    0.32
  14 -11   2    0.91    0.22
  12   2  -2   59.22    2.52
   2 -14  -2   51.00    3.97
   2 -14  -2   54.82    3.52
 -14  12  -2   55.50    2.49
  14 -12   2   57.58    2.73
  -2  14   2   60.14    2.88
 -12  -2   2   49.75    3.92
 -14  13  -2   33.57    1.57
  13   1  -2   32.63    1.61
   1 -14  -2   32.45    2.23
   1 -14  -2   32.92    2.54
 -13  -1   2   27.49    2.59
  -1  14   2   33.85    1.85
  14 -13   2   31.73    1.66
  14   0  -2   16.29    0.98
   0 -14  -2   17.16    1.55
   0 -14  -2   15.45    1.33
 -14  14  -2   14.71    0.90
  14 -14   2   14.67    0.90
   0  14   2   15.00    1.13
 -14   0   2   14.93    1.73
  15  -1  -2    4.92    0.62
  -1 -14  -2    4.12    0.93
 -14  15  -2    4.75    0.49
  -1 -14  -2    4.98    0.82
 -15   1   2    5.07    1.21
   1  14   2    4.21    0.76
  14 -15   2    2.17    0.85
  14 -15   2    4.04    0.44
 -14  16  -2   20.21    1.14
  -2 -14  -2   22.72    1.83
  16  -2  -2   21.77    1.22
 -16   2   2   17.38    2.04
   2  14   2   21.36    1.43
 -14  17  -2    4.59    0.47
 -14  17  -2    4.18    0.51
  17  -3  -2    5.10    0.66
  -3 -14  -2    3.79    0.86
   3  14   2    3.30    0.63
 -17   3   2    2.88    1.00
  14 -17   2    2.94    1.01
  18  -4  -2    5.22    0.72
 -14  18  -2    4.93    0.57
 -14  18  -2    6.04    0.54
  -4 -14  -2    5.52    1.09
  14 -18   2    4.18    1.11
   4  14   2    5.11    0.88
 -18   4   2    5.38    1.36
 -18  15   2   10.55    0.82
   3 -18   2   11.41    1.61
  -2  17  -2   54.68    2.45
 -17  15   2   52.87    2.71
   2 -17   2   50.48    4.05
  15   2   2   53.28    2.74
  -1  16  -2   13.09    0.89
   1 -16   2   11.13    1.59
 -16  15   2   12.45    0.86
  15   1   2   12.64    0.93
  15 -15  -2    2.31    0.65
   0  15  -2    2.15    0.42
 -15   0  -2    0.21    0.56
  15   0   2    1.36    0.37
   0 -15   2    1.14    0.73
 -15  15   2    2.32    0.43
  14 -15  -2    4.49    0.99
 -15   1  -2    1.79    0.78
   1  14  -2    4.36    0.58
  15  -1   2    4.11    0.58
 -14  15   2    4.57    0.51
   2  13  -2   15.22    0.95
 -15   2  -2   12.14    1.14
  13 -15  -2   17.16    1.69
  15  -2   2   15.08    1.01
 -13  15   2   15.90    0.98
 -15   3  -2   26.31    2.63
 -15   3  -2   35.67    1.90
  12 -15  -2   38.56    2.88
   3  12  -2   34.88    1.67
  15  -3   2   33.72    1.83
 -12  15   2   34.53    1.81
   4  11  -2    5.33    0.61
 -15   4  -2    5.68    0.73
  11 -15  -2    5.16    1.27
 -11  15   2    6.21    0.57
  15  -4   2    4.89    0.57
  -4 -11   2    4.54    1.06
  10 -15  -2    0.45    0.69
   5  10  -2    0.81    0.33
 -15   5  -2   -0.12    0.27
  -5 -10   2    0.24    0.58
  15  -5   2    0.10    0.24
 -10  15   2    0.41    0.24
   9 -15  -2    0.42    0.69
 -15   6  -2    0.41    0.31
   6   9  -2    0.73    0.32
  -9  15   2    0.25    0.25
  -6  -9   2   -0.21    0.59
  15  -6   2    0.10    0.22
 -15   7  -2    4.78    0.59
   8 -15  -2    2.01    0.90
   7   8  -2    4.90    0.60
  -8  15   2    4.93    0.54
  -7  -8   2    3.60    0.94
  15  -7   2    4.50    0.50
   8   7  -2    0.63    0.32
   7 -15  -2    0.17    0.59
 -15   8  -2    0.64    0.30
  15  -8   2    0.05    0.21
  -8  -7   2    0.32    0.63
  -7  15   2    0.36    0.28
   9   6  -2  155.77    6.45
 -15   9  -2  154.91    6.49
  -6  15   2  159.89    7.37
  15  -9   2  147.78    7.29
  10   5  -2    8.57    0.71
 -15  10  -2    9.49    0.69
  -5  15   2    9.14    0.75
  15 -10   2    7.67    0.60
 -10  -5   2    6.40    1.29
 -15  11  -2   13.17    0.86
  11   4  -2   13.66    0.88
  15 -11   2   13.21    0.82
 -11  -4   2   11.19    1.55
  -4  15   2   14.25    0.96
   3 -15  -2   18.59    1.91
 -15  12  -2   21.86    1.16
  12   3  -2   22.44    1.18
 -12  -3   2   18.35    2.01
  -3  15   2   23.08    1.33
  15 -12   2   20.94    1.16
  13   2  -2    1.51    0.40
 -15  13  -2    1.37    0.30
   2 -15  -2    2.00    0.65
  15 -13   2    1.08    0.25
 -13  -2   2    0.85    0.75
  -2  15   2    1.44    0.42
 -15  14  -2   61.88    2.79
   1 -15  -2   66.19    4.42
  14   1  -2   66.55    2.82
  15 -14   2   62.47    3.07
 -14  -1   2   49.95    4.33
  -1  15   2   66.48    3.25
 -15  15  -2    1.53    0.33
  15   0  -2    2.59    0.44
   0 -15  -2    2.44    0.67
   0 -15  -2    2.48    0.61
 -15   0   2    1.63    0.88
  15 -15   2    1.74    0.78
   0  15   2    3.09    0.54
  15 -15   2    2.01    0.38
 -15  16  -2   25.34    1.34
  16  -1  -2   27.19    1.41
  -1 -15  -2   28.05    2.03
  15 -16   2   26.85    1.39
 -16   1   2   22.26    2.34
   1  15   2   27.05    1.66
  15 -16   2   18.74    2.26
  17  -2  -2   15.61    1.02
 -15  17  -2   13.94    0.93
 -15  17  -2   16.86    0.94
  -2 -15  -2   15.51    1.50
  15 -17   2   11.74    1.73
   2  15   2   14.24    1.22
 -17   2   2   13.29    1.80
  -3 -15  -2    0.41    0.58
 -15  18  -2   -0.11    0.21
  15 -18   2    0.28    0.70
 -18   3   2    0.64    0.77
  -1  17  -2    5.24    0.68
 -16  -1  -2    4.96    1.12
   1 -17   2    6.55    1.30
 -17  16   2    5.81    0.61
   0  16  -2   39.76    1.96
  16   0   2   40.94    2.19
   0 -16   2   38.97    3.23
 -16  16   2   41.60    2.16
   1  15  -2   28.09    1.47
  15 -16  -2   31.31    2.39
  -1 -15   2   22.23    2.42
  16  -1   2   28.58    1.61
 -15  16   2   28.12    1.57
   2  14  -2   21.64    1.26
  14 -16  -2   24.84    2.17
  16  -2   2   21.15    1.35
 -14  16   2   24.38    1.35
 -16   3  -2   27.41    1.70
   3  13  -2   28.09    1.47
  13 -16  -2   31.23    2.57
 -13  16   2   28.93    1.57
  16  -3   2   25.80    1.57
   4  12  -2   20.38    1.19
  12 -16  -2   23.09    2.21
 -16   4  -2   23.03    1.42
 -12  16   2   20.14    1.25
  16  -4   2   20.60    1.27
  11 -16  -2    3.08    0.97
 -16   5  -2    2.16    0.51
   5  11  -2    2.44    0.44
 -11  16   2    2.73    0.48
  16  -5   2    2.14    0.37
  -5 -11   2    1.88    0.74
   6  10  -2   16.14    1.04
  10 -16  -2   13.81    1.93
 -16   6  -2   17.74    1.16
 -10  16   2   18.08    1.08
  -6 -10   2   17.05    1.74
  16  -6   2   16.92    1.05
   7   9  -2   35.94    1.71
 -16   7  -2   35.71    1.83
  16  -7   2   32.96    1.81
  -9  16   2   36.52    1.86
  -7  -9   2   29.10    2.64
   8   8  -2   22.60    1.26
 -16   8  -2   22.88    1.33
  16  -8   2   22.89    1.29
  -8  -8   2   19.82    2.05
  -8  16   2   24.19    1.35
   9   7  -2    8.28    0.75
 -16   9  -2    9.14    0.77
  -7  16   2    9.62    0.77
  16  -9   2    9.30    0.67
  -9  -7   2    7.38    1.33
   6 -16  -2    0.87    0.66
 -16  10  -2    3.02    0.47
  10   6  -2    2.93    0.46
  -6  16   2    3.66    0.57
  16 -10   2    2.74    0.43
 -10  -6   2    3.63    0.96
  11   5  -2   13.21    0.89
 -16  11  -2   12.92    0.88
 -11  -5   2   10.76    1.55
  -5  16   2   14.24    0.98
  16 -11   2   13.45    0.83
   4 -16  -2    2.12    0.72
  12   4  -2    2.53    0.43
 -16  12  -2    4.01    0.50
  16 -12   2    2.30    0.40
  -4  16   2    2.14    0.43
 -12  -4   2    0.74    0.73
  13   3  -2   99.30    4.18
   3 -16  -2   92.28    6.57
 -16  13  -2  100.31    4.21
 -13  -3   2   84.64    6.35
  -3  16   2  107.35    4.82
  16 -13   2   96.42    4.66
   2 -16  -2   20.47    1.88
 -16  14  -2   18.93    1.14
  14   2  -2   22.13    1.21
 -14  -2   2   17.10    2.02
  16 -14   2   20.30    1.16
  -2  16   2   22.62    1.39
 -16  15  -2   12.20    0.83
  15   1  -2   12.37    0.90
   1 -16  -2   13.97    1.44
  -1  16   2   13.53    1.09
  16 -15   2   12.61    0.81
 -15  -1   2    8.08    1.58
  16   0  -2   42.84    2.04
   0 -16  -2   47.49    3.17
 -16  16  -2   40.19    2.00
   0  16   2   40.23    2.36
 -16   0   2   37.18    3.27
  16 -16   2   41.58    2.14
 -17   1   2    3.78    1.10
  16 -17  -2    5.06    1.12
 -17   1  -2    3.31    0.95
   1  16  -2    4.79    0.67
 -16  17   2    4.54    0.60
  15 -17  -2   19.27    1.85
   2  15  -2   16.33    1.05
  17  -2   2   14.89    1.08
 -15  17   2   15.35    1.06
  14 -17  -2    5.23    1.17
   3  14  -2    4.45    0.64
 -17   3  -2    4.59    0.79
  17  -3   2    3.13    0.60
 -14  17   2    4.39    0.58
   4  13  -2  132.96    5.60
 -17   4  -2  121.56    5.82
  13 -17  -2  139.89    9.05
 -13  17   2  138.30    6.38
  17  -4   2  127.71    6.36
  12 -17  -2   12.60    1.80
   5  12  -2   11.96    0.91
 -17   5  -2   10.32    1.02
  17  -5   2   11.56    0.88
  -5 -12   2   11.61    1.38
 -12  17   2   12.77    0.90
   6  11  -2   15.74    1.06
 -17   6  -2   15.86    1.18
  11 -17  -2   16.21    2.03
  17  -6   2   16.27    1.07
  -6 -11   2   15.77    1.66
 -11  17   2   19.18    1.12
 -17   7  -2    3.94    0.68
   7  10  -2    3.65    0.52
  10 -17  -2    1.83    0.92
  -7 -10   2    3.92    0.90
  17  -7   2    3.33    0.53
 -10  17   2    4.38    0.58
 -17   8  -2    5.35    0.71
   8   9  -2    5.72    0.68
  -8  -9   2    5.21    1.17
  -9  17   2    6.52    0.65
  17  -8   2    5.47    0.59
   9   8  -2   43.52    2.09
 -17   9  -2   43.66    2.20
  -8  17   2   46.41    2.33
  17  -9   2   42.28    2.24
  -9  -8   2   42.58    3.28
 -17  10  -2   24.20    1.33
  10   7  -2   22.38    1.24
  -7  17   2   21.43    1.33
 -10  -7   2   19.70    2.06
  17 -10   2   22.01    1.26
  11   6  -2   29.25    1.55
 -17  11  -2   30.07    1.61
 -11  -6   2   27.76    2.55
  -6  17   2   33.04    1.75
  17 -11   2   30.43    1.62
   5 -17  -2   21.28    2.22
  12   5  -2   26.64    1.39
 -17  12  -2   27.62    1.44
  17 -12   2   25.71    1.42
 -12  -5   2   22.00    2.29
  -5  17   2   30.58    1.59
 -17  13  -2    1.00    0.32
  13   4  -2    1.37    0.39
   4 -17  -2    1.52    0.69
 -13  -4   2   -0.04    0.66
  -4  17   2    0.99    0.40
  17 -13   2    1.50    0.29
  14   3  -2    1.48    0.42
 -17  14  -2    1.54    0.37
   3 -17  -2    2.34    0.71
 -14  -3   2    1.17    0.83
  -3  17   2    1.54    0.45
  17 -14   2    1.37    0.30
 -17  15  -2   51.53    2.45
   2 -17  -2   55.89    3.85
  15   2  -2   51.85    2.44
 -15  -2   2   48.45    3.89
  -2  17   2   52.99    2.84
  17 -15   2   53.49    2.65
   1 -17  -2    6.90    1.10
  17 -16   2    5.39    0.57
  15 -18  -2    0.81    0.76
   3  15  -2    0.21    0.38
 -15  18   2    0.30    0.30
 -18   4  -2    5.50    0.87
   4  14  -2    5.89    0.75
  14 -18  -2    6.44    1.49
 -14  18   2    6.53    0.69
  18  -4   2    4.98    0.70
 -18   5  -2    0.47    0.44
  13 -18  -2    1.21    0.87
   5  13  -2    1.05    0.41
  18  -5   2    0.57    0.32
 -13  18   2    0.75    0.33
 -18   6  -2    5.75    0.82
  12 -18  -2    4.62    1.22
   6  12  -2    6.30    0.73
 -12  18   2    6.53    0.69
  -6 -12   2    7.05    1.12
  18  -6   2    5.30    0.67
 -18   7  -2    6.31    0.84
  11 -18  -2    3.74    1.12
   7  11  -2    8.00    0.76
  18  -7   2    5.65    0.65
  -7 -11   2    5.04    1.12
 -11  18   2    7.09    0.72
 -18   8  -2  161.89    6.92
   8  10  -2  156.61    6.71
  -8 -10   2  161.83    9.91
  18  -8   2  155.15    7.63
 -10  18   2  165.64    7.68
   9   9  -2    4.68    0.67
 -18   9  -2    4.58    0.72
   9 -18  -2    2.50    0.91
  -9  18   2    6.35    0.72
  -9  -9   2    5.61    1.19
  18  -9   2    5.03    0.58
 -18  10  -2   13.37    1.03
  10   8  -2   12.33    0.94
 -10  -8   2   12.73    1.60
  18 -10   2   13.06    0.91
  -8  18   2   14.68    1.00
 -18  11  -2    7.56    0.75
  11   7  -2    5.91    0.70
   7 -18  -2    4.78    1.26
 -11  -7   2    6.07    1.27
  18 -11   2    6.02    0.61
  -7  18   2    7.83    0.77
 -18  12  -2    0.25    0.32
  12   6  -2   -0.08    0.34
   6 -18  -2    0.76    0.64
 -12  -6   2    0.22    0.68
  -6  18   2    0.33    0.37
  18 -12   2    0.17    0.24
  13   5  -2   25.07    1.41
   5 -18  -2   26.00    2.32
 -18  13  -2   27.77    1.49
  -5  18   2   26.82    1.60
  18 -13   2   24.71    1.44
 -13  -5   2   26.83    2.39
   4 -18  -2    8.09    1.25
  14   4  -2    8.44    0.79
  -4  18   2    7.97    0.91
  18 -14   2    7.49    0.66
   3 -18  -2   12.44    1.45
  18 -15   2   11.45    0.82
   7  12  -2   -0.09    0.37
 -19   7  -2   -0.63    0.37
  -7 -12   2    0.15    0.57
   8  11  -2    1.14    0.42
 -19   8  -2    3.01    0.60
 -11  19   2    2.49    0.46
  -8 -11   2    0.85    0.69
 -19   9  -2    2.09    0.54
   9  10  -2    1.76    0.46
 -10  19   2    1.83    0.46
  -9 -10   2    2.62    0.83
  19  -9   2    1.09    0.35
  10   9  -2    7.15    0.76
 -19  10  -2    6.18    0.82
 -10  -9   2    6.32    1.26
  19 -10   2    7.01    0.69
  -9  19   2    7.60    0.87
  11   8  -2    8.77    0.79
  19 -11   2    8.60    0.76
 -11  -8   2    8.38    1.38
  12   7  -2  101.71    4.41
   0   0  -3    0.37    0.20
   0   0  -3    0.16    0.17
   0   0   3    0.50    0.33
  -1   0  -3   14.11    0.76
   1  -1  -3   15.43    0.78
  -1   0  -3   16.39    1.07
   0   1  -3   14.19    0.77
   1  -1  -3   15.35    1.06
   0   1  -3   15.77    1.05
  -1   1   3   15.13    1.22
   1   0   3   15.04    1.21
   0  -1   3   14.42    1.21
  -1   1  -3   14.61    0.77
   0  -1  -3   15.05    1.07
   1   0  -3   15.62    1.05
  -1   1  -3   15.49    1.05
   1   0  -3   14.86    0.79
   0  -1  -3   14.31    0.75
   0   1   3   15.54    1.23
  -1   0   3   14.24    1.20
   1  -1   3   16.18    1.23
  -1   2  -3   14.17    0.94
  -1  -1  -3   12.38    0.96
  -1  -1  -3   13.55    0.68
   2  -1  -3   13.04    0.94
  -1   2  -3   12.98    0.72
   2  -1  -3   12.81    0.73
   1  -2   3   13.03    1.10
   1   1   3   13.88    1.14
  -2   1   3   12.82    1.10
   3  -2  -3  157.80    6.37
  -1   3  -3  160.59    9.16
   3  -2  -3  155.05    9.18
  -1   3  -3  155.21    6.37
  -2  -1  -3  153.76    6.32
  -2  -1  -3  156.43    9.19
   2   1   3  163.68    9.94
   1  -3   3  155.26    9.91
  -3   2   3  159.52    9.92
   2   1   3  142.53    7.30
  -2   0  -3   31.52    1.96
   0   2  -3   29.97    1.92
  -2   0  -3   29.77    1.35
   0   2  -3   30.27    1.39
   2  -2  -3   30.14    1.94
   2  -2  -3   29.88    1.39
  -2   2   3   31.32    2.15
   0  -2   3   31.03    2.14
   2   0   3   31.14    2.15
   1  -2  -3   13.04    0.95
   1   1  -3   12.83    0.72
   1  -2  -3   13.54    0.70
  -2   1  -3   12.64    0.69
  -2   1  -3   13.58    0.95
   1   1  -3   12.66    0.92
   2  -1   3   13.79    1.12
  -1   2   3   13.00    1.11
  -1  -1   3   12.89    1.09
  -2   2  -3   30.72    1.38
   0  -2  -3   30.87    1.97
   2   0  -3   30.07    1.93
  -2   2  -3   30.35    1.93
   2   0  -3   30.00    1.40
  -2   0   3   31.37    2.14
   2  -2   3   30.54    2.15
   0   2   3   31.15    2.17
   3  -1  -3   10.88    0.66
  -1  -2  -3   10.12    0.83
  -2   3  -3   11.50    0.63
  -2   3  -3   10.84    0.79
   3  -1  -3   11.02    0.81
   1   2   3   11.24    1.00
   1   2   3    8.61    0.69
  -3   1   3   11.05    0.97
   2  -3   3   10.98    0.98
   4  -2  -3  103.59    6.29
   4  -2  -3  105.76    4.40
  -2   4  -3  108.18    6.27
  -2   4  -3  105.56    4.39
  -2  -2  -3  102.88    6.32
  -4   2   3  106.43    6.81
   2  -4   3  106.84    6.81
   2   2   3  107.12    6.83
   2   2   3  107.40    5.03
   5  -3  -3   28.15    1.35
  -2   5  -3   30.18    1.78
   5  -3  -3   26.85    1.80
  -3  -2  -3   27.57    1.85
  -2   5  -3   27.91    1.32
   3   2   3   28.51    2.03
  -5   3   3   27.99    2.00
   2  -5   3   27.67    2.01
   3   2   3   27.85    1.48
   4  -3  -3   32.73    2.11
   4  -3  -3   34.10    1.54
  -1   4  -3   33.86    1.53
  -3  -1  -3   33.84    2.14
  -1   4  -3   34.76    2.09
   1  -4   3   33.75    2.33
   3   1   3   34.20    2.34
   3   1   3   30.49    1.69
  -4   3   3   34.00    2.34
   3  -3  -3   86.23    3.60
  -3   0  -3   85.57    3.56
   3  -3  -3   87.08    5.17
  -3   0  -3   84.67    5.17
   0   3  -3   88.97    5.14
   0   3  -3   86.20    3.61
   3   0   3   83.33    4.09
  -3   3   3   88.67    5.61
   0  -3   3   85.69    5.58
   3   0   3   87.26    5.60
  -3   1  -3   10.95    0.61
  -3   1  -3   10.97    0.83
   1   2  -3   10.93    0.65
   1   2  -3   10.82    0.80
   2  -3  -3   11.07    0.84
  -2   3   3   10.36    1.00
  -1  -2   3   10.76    0.97
   3  -1   3   11.58    1.00
   2   1  -3  158.25    6.52
   1  -3  -3  161.95    9.41
  -3   2  -3  157.28    6.49
   2   1  -3  154.90    9.37
  -3   2  -3  161.73    9.39
  -1   3   3  158.39   10.17
  -2  -1   3  161.55   10.13
   3  -2   3  162.94   10.15
   3   0  -3   84.13    5.07
   0  -3  -3   86.87    5.12
  -3   3  -3   85.48    3.54
   3   0  -3   87.47    3.57
  -3   3  -3   87.77    5.08
  -3   0   3   86.90    5.50
   0   3   3   73.77    4.07
   3  -3   3   86.85    5.52
   0   3   3   87.17    5.55
  -1  -3  -3   29.40    1.94
   4  -1  -3   29.30    1.40
  -3   4  -3   30.83    1.88
  -3   4  -3   30.27    1.37
   4  -1  -3   29.96    1.90
   1   3   3   27.07    1.57
   1   3   3   29.90    2.14
  -4   1   3   29.96    2.10
   3  -4   3   31.82    2.13
  -3   5  -3   26.80    1.27
   5  -2  -3   25.69    1.30
  -2  -3  -3   26.80    1.79
  -3   5  -3   28.20    1.71
   5  -2  -3   25.63    1.73
   2   3   3   27.12    1.45
   3  -5   3   27.44    1.95
  -5   2   3   26.80    1.93
   2   3   3   28.11    1.98
  -3   6  -3   26.45    1.26
   6  -3  -3   26.74    1.30
   6  -3  -3   26.35    1.70
  -3  -3  -3   25.61    1.77
  -3   6  -3   28.04    1.67
  -6   3   3   27.31    1.90
   3   3   3   27.03    1.93
   3  -6   3   26.42    1.93
   3   3   3   22.40    1.40
   7  -4  -3   45.33    2.81
  -4  -3  -3   43.99    2.89
  -3   7  -3   45.87    2.02
  -3   7  -3   47.25    2.77
   7  -4  -3   45.26    2.03
   3  -7   3   45.65    3.11
   4   3   3   39.43    2.28
   4   3   3   47.55    3.09
  -7   4   3   48.01    3.08
  -4  -2  -3    0.37    0.25
  -2   6  -3    0.40    0.20
  -2   6  -3    0.43    0.22
   6  -4  -3    0.53    0.29
   4   2   3   -0.08    0.34
  -6   4   3    0.35    0.32
   4   2   3    0.52    0.27
   2  -6   3    0.24    0.40
   5  -4  -3    0.15    0.20
   5  -4  -3    0.30    0.26
  -1   5  -3    1.27    0.28
  -4  -1  -3    0.19    0.22
  -1   5  -3    0.16    0.22
   4   1   3    0.10    0.22
   4   1   3    0.37    0.36
   1  -5   3   -0.04    0.32
  -5   4   3    0.07    0.33
   4  -4  -3   30.95    1.97
   0   4  -3   31.04    1.93
   0   4  -3   29.71    1.42
  -4   0  -3   30.39    1.37
  -4   0  -3   29.67    1.97
   0  -4   3   30.66    2.15
   4   0   3   30.89    1.56
   4   0   3   32.99    2.18
  -4   4   3   30.16    2.19
  -4   1  -3   29.17    1.34
   1   3  -3   28.31    1.88
   3  -4  -3   31.10    1.93
  -4   1  -3   29.42    1.92
   1   3  -3   30.83    1.39
  -1  -3   3   30.05    2.10
   4  -1   3   29.96    1.50
   4  -1   3   31.72    2.13
  -3   4   3   29.82    2.15
   2   2  -3  107.09    6.37
   2  -4  -3  106.80    6.41
  -4   2  -3  108.37    6.39
  -4   2  -3  105.69    4.43
   2   2  -3  108.64    4.46
   4  -2   3  108.95    6.92
  -2  -2   3  107.95    6.90
  -2   4   3  107.64    6.96
   3   1  -3   33.71    2.13
  -4   3  -3   34.06    1.53
   1  -4  -3   34.74    2.18
  -4   3  -3   36.08    2.14
   3   1  -3   34.21    1.56
  -1   4   3   29.61    1.75
  -3  -1   3   34.23    2.34
   4  -3   3   34.89    2.37
  -1   4   3   34.37    2.41
   0  -4  -3   31.30    1.98
  -4   4  -3   31.20    1.92
  -4   4  -3   31.15    1.40
   4   0  -3   30.81    1.43
   4   0  -3   30.54    1.93
  -4   0   3   30.79    2.12
   0   4   3   31.71    2.21
   4  -4   3   30.26    2.16
   0   4   3   26.27    1.61
  -4   5  -3   16.03    1.06
  -1  -4  -3   15.59    1.14
  -4   5  -3   14.88    0.82
   5  -1  -3   15.65    0.89
   5  -1  -3   14.76    1.08
  -5   1   3   16.30    1.24
   1   4   3   14.39    0.98
   4  -5   3   16.47    1.29
   1   4   3   15.64    1.33
   6  -2  -3  110.91    4.57
   6  -2  -3  108.01    6.49
  -2  -4  -3  106.33    6.55
  -4   6  -3  110.11    4.54
  -4   6  -3  115.68    6.46
   4  -6   3  109.90    7.06
   2   4   3   96.76    5.22
  -6   2   3  113.88    7.02
   2   4   3  112.87    7.08
  -4   7  -3    8.46    0.60
   7  -3  -3    8.17    0.66
  -3  -4  -3    9.58    0.82
   7  -3  -3    7.70    0.68
  -7   3   3    7.78    0.83
   3   4   3    8.67    0.93
   4  -7   3    8.64    0.94
   3   4   3    8.18    0.71
  -4  -4  -3   31.72    2.12
   8  -4  -3   29.85    1.99
  -4   8  -3   32.06    1.48
   8  -4  -3   31.06    1.48
   4  -8   3   30.41    2.27
  -8   4   3   30.57    2.18
   4   4   3   31.92    1.68
   4   4   3   31.82    2.23
  -4   9  -3    7.85    0.58
   9  -5  -3    6.84    0.59
  -5  -4  -3    6.12    0.78
   9  -5  -3    6.57    0.62
   5   4   3    6.33    0.64
  -9   5   3    6.95    0.76
   5   4   3    7.43    0.82
   4  -9   3    6.82    0.98
   8  -5  -3   57.26    3.59
  -5  -3  -3   57.21    3.71
   8  -5  -3   58.50    2.55
  -3   8  -3   59.86    2.57
   5   3   3   61.43    3.92
   3  -8   3   60.34    3.98
   5   3   3   58.43    2.92
  -8   5   3   58.29    3.91
  -2   7  -3  177.56    7.20
   7  -5  -3  173.60    7.17
   7  -5  -3  172.82   10.33
  -5  -2  -3  172.57   10.42
   5   2   3  180.26   11.17
   2  -7   3  179.08   11.20
   5   2   3  172.28    8.28
  -7   5   3  178.22   11.19
  -5  -1  -3    0.18    0.24
  -1   6  -3    0.08    0.17
   6  -5  -3    0.04    0.19
  -1   6  -3   -0.23    0.20
  -6   5   3    0.38    0.37
   5   1   3    0.39    0.24
   5   1   3   -0.04    0.33
   1  -6   3    0.33    0.37
   5  -5  -3   41.63    2.56
   0   5  -3   40.78    2.52
   0   5  -3   41.07    1.84
  -5   0  -3   40.69    2.58
  -5   5   3   41.81    2.84
   0  -5   3   40.50    2.78
   5   0   3   42.40    2.80
   5   0   3   38.66    2.03
   4  -5  -3   15.79    1.10
  -5   1  -3   14.89    0.79
   1   4  -3   15.97    1.06
   1   4  -3   15.15    0.84
  -5   1  -3   16.13    1.11
  -4   5   3   15.32    1.31
  -1  -4   3   15.32    1.24
   5  -1   3   15.09    1.26
   5  -1   3   14.51    0.86
  -5   2  -3   27.44    1.77
  -5   2  -3   26.62    1.26
   3  -5  -3   28.39    1.79
   2   3  -3   26.80    1.74
   2   3  -3   27.60    1.31
  -2  -3   3   27.72    1.93
  -3   5   3   25.89    2.02
   5  -2   3   27.86    1.97
   5  -2   3   27.24    1.37
  -5   3  -3   27.70    1.29
   2  -5  -3   28.18    1.82
   3   2  -3   28.12    1.33
   3   2  -3   27.45    1.77
  -5   3  -3   28.20    1.78
  -3  -2   3   28.79    1.96
   5  -3   3   28.61    2.00
  -2   5   3   28.29    2.06
  -2   5   3   24.43    1.47
   4   1  -3    0.18    0.25
   1  -5  -3   -0.04    0.20
  -5   4  -3    0.06    0.18
  -5   4  -3    0.09    0.19
   4   1  -3    0.05    0.17
  -4  -1   3    0.14    0.33
  -1   5   3    0.05    0.39
   5  -4   3    1.34    0.43
  -1   5   3    0.42    0.30
  -5   5  -3   42.42    2.50
   5   0  -3   39.85    1.84
   0  -5  -3   39.54    2.56
   5   0  -3   39.94    2.51
  -5   5  -3   41.30    1.81
  -5   0   3   41.65    2.73
   5  -5   3   42.12    2.78
   0   5   3   41.74    2.85
   0   5   3   34.91    2.07
  -5   6  -3  126.62    5.22
  -5   6  -3  131.63    7.44
  -1  -5  -3  123.65    7.53
   6  -1  -3  123.57    7.47
   6  -1  -3  125.31    5.24
   1   5   3  118.73    6.02
   1   5   3  129.70    8.16
  -6   1   3  126.84    8.06
   5  -6   3  130.13    8.12
  -2  -5  -3    0.38    0.27
   7  -2  -3    0.23    0.19
  -5   7  -3    0.41    0.21
   7  -2  -3    0.28    0.29
   2   5   3   -0.03    0.39
   2   5   3   -0.16    0.31
   5  -7   3   -0.01    0.39
  -7   2   3   -0.09    0.30
  -3  -5  -3   56.97    3.64
  -5   8  -3   59.08    2.52
   8  -3  -3   56.29    3.52
   8  -3  -3   58.38    2.54
   3   5   3   56.03    2.90
   5  -8   3   58.35    3.91
  -8   3   3   58.48    3.81
   3   5   3   58.10    3.88
  -5   9  -3    4.49    0.47
  -4  -5  -3    4.56    0.66
   9  -4  -3    4.43    0.52
   5  -9   3    4.23    0.89
   4   5   3    4.38    0.73
  -9   4   3    3.82    0.61
   4   5   3    3.61    0.57
  -5  10  -3   53.00    2.36
  10  -5  -3   53.12    2.36
  -5  -5  -3   54.39    3.50
   5 -10   3   52.43    3.76
   5   5   3   55.15    3.58
 -10   5   3   53.71    3.53
   5   5   3   48.86    2.68
 -10   5   3   53.17    3.30
  -5  11  -3    3.21    0.47
  -6  -5  -3    2.21    0.62
  11  -6  -3    2.45    0.39
 -11   6   3    2.12    0.56
 -11   6   3    2.56    0.51
   6   5   3    1.81    0.41
   5 -11   3    2.64    0.83
  -4  10  -3    6.07    0.54
  10  -6  -3    5.62    0.55
  10  -6  -3    5.70    0.57
  -6  -4  -3    5.80    0.81
   6   4   3    6.04    0.75
   4 -10   3    5.12    1.02
   6   4   3    5.05    0.60
 -10   6   3    5.26    0.70
  -3   9  -3    0.74    0.26
   9  -6  -3    1.22    0.28
   9  -6  -3    0.64    0.27
  -6  -3  -3    0.47    0.35
   3  -9   3    1.29    0.53
   6   3   3    0.66    0.30
  -9   6   3    0.67    0.36
   6   3   3    0.73    0.39
  -6  -2  -3    2.36    0.52
  -2   8  -3    2.61    0.43
   8  -6  -3    2.38    0.38
   2  -8   3    2.69    0.60
  -8   6   3    2.88    0.60
   6   2   3    2.20    0.44
   6   2   3    2.12    0.47
   7  -6  -3   62.95    3.83
  -1   7  -3   62.06    2.72
  -6  -1  -3   63.37    3.91
   6   1   3   64.60    3.08
   6   1   3   62.53    4.14
   1  -7   3   63.41    4.18
  -7   6   3   61.03    4.19
   1  -7   3   63.11    3.79
   0   6  -3   30.33    1.41
   6  -6  -3   29.85    1.91
  -6   0  -3   28.04    1.95
   0  -6   3   28.81    2.10
   6   0   3   29.91    1.55
   6   0   3   30.04    2.10
   0  -6   3   29.75    1.88
  -6   6   3   30.13    2.17
   5  -6  -3  131.01    7.72
   1   5  -3  127.58    5.39
  -6   1  -3  130.57    5.35
  -6   1  -3  127.02    7.73
  -5   6   3  127.79    8.40
   6  -1   3  136.75    6.15
   6  -1   3  132.53    8.33
  -1  -5   3  130.20    7.69
  -1  -5   3  129.18    8.32
  -6   2  -3  112.58    4.55
   2   4  -3  113.06    4.58
  -6   2  -3  108.89    6.53
   4  -6  -3  112.48    6.55
  -2  -4   3  109.76    7.04
  -4   6   3   97.46    5.21
  -4   6   3  109.02    7.14
   6  -2   3  111.81    7.06
   6  -2   3  113.66    5.19
  -6   3  -3   28.24    1.77
   3  -6  -3   27.84    1.81
   3   3  -3   27.53    1.32
  -6   3  -3   28.05    1.29
   6  -3   3   28.55    1.98
   6  -3   3   25.90    1.37
  -3   6   3   25.30    1.44
  -3   6   3   27.36    2.07
  -3  -3   3   27.46    1.93
  -6   4  -3    0.56    0.21
   2  -6  -3    0.20    0.22
   4   2  -3    0.06    0.26
  -6   4  -3    0.36    0.21
  -2   6   3    0.71    0.48
  -4  -2   3    0.28    0.31
  -2   6   3    0.52    0.27
   6  -4   3    0.36    0.37
   1  -6  -3    0.13    0.23
  -6   5  -3    0.17    0.18
  -6   5  -3    0.31    0.20
   5   1  -3    0.42    0.27
  -1   6   3    0.42    0.47
  -5  -1   3   -0.02    0.30
   6  -5   3    0.15    0.38
  -1   6   3   -0.02    0.28
   6   0  -3   29.32    1.45
  -6   6  -3   30.35    1.40
   0  -6  -3   29.43    1.96
  -6   6  -3   31.81    1.90
   6  -6   3   29.03    2.14
  -6   0   3   28.52    2.06
   0   6   3   28.03    1.63
   0   6   3   30.47    2.24
   7  -1  -3    2.98    0.51
  -1  -6  -3    3.36    0.53
  -6   7  -3    3.94    0.44
  -7   1   3    3.43    0.47
  -7   1   3    3.40    0.58
   6  -7   3    3.84    0.75
   1   6   3    4.17    0.62
   1   6   3    3.20    0.78
  -2  -6  -3   65.53    4.21
  -6   8  -3   67.18    2.92
   8  -2  -3   66.19    2.94
  -8   2   3   67.18    4.13
   6  -8   3   70.98    4.55
   2   6   3   69.26    3.38
   2   6   3   67.74    4.54
  -8   2   3   68.28    4.42
   9  -3  -3    0.46    0.30
  -3  -6  -3    0.18    0.30
  -6   9  -3   -0.08    0.19
   3   6   3    0.19    0.39
   6  -9   3    0.04    0.52
   3   6   3    1.53    0.38
  -9   3   3    0.29    0.27
  -9   3   3    0.15    0.30
  10  -4  -3  141.22    5.92
  -4  -6  -3  141.51    8.64
  -6  10  -3  142.73    5.92
   6 -10   3  140.59    9.30
   4   6   3  145.49    6.83
 -10   4   3  139.73    9.09
 -10   4   3  142.93    8.48
   4   6   3  147.97    9.18
  -5  -6  -3   14.33    1.32
  -6  11  -3   13.36    0.83
  11  -5  -3   13.44    0.86
   5   6   3   13.74    1.23
 -11   5   3   13.56    1.10
   6 -11   3   14.02    1.59
   5   6   3   14.45    0.99
 -11   5   3   12.81    1.13
  12  -6  -3   56.82    2.55
  -6  -6  -3   56.92    3.90
  -6  12  -3   56.69    2.55
 -12   6   3   59.06    3.61
   6 -12   3   54.53    4.21
   6   6   3   59.28    2.93
  -6  13  -3   18.22    1.03
  13  -7  -3   17.94    1.03
  -7  -6  -3   18.21    1.77
 -13   7   3   17.91    1.39
   7   6   3   18.50    1.17
   6 -13   3   16.61    2.01
  -7  -5  -3   67.78    4.55
  12  -7  -3   66.58    2.95
  -5  12  -3   67.79    2.98
   5 -12   3   65.80    4.86
 -12   7   3   69.98    4.20
   7   5   3   69.28    3.40
  -4  11  -3   26.39    1.32
  -7  -4  -3   25.03    2.04
  11  -7  -3   24.90    1.30
   4 -11   3   25.79    2.23
   7   4   3   26.48    1.48
 -11   7   3   26.10    1.90
  10  -7  -3    3.02    0.44
  -7  -3  -3    2.69    0.68
  -3  10  -3    4.19    0.49
 -10   7   3    3.74    0.63
   7   3   3    2.90    0.51
   3 -10   3    3.77    0.95
   9  -7  -3    2.95    0.43
  -7  -2  -3    3.21    0.62
  -2   9  -3    3.94    0.47
   7   2   3    3.42    0.63
   7   2   3    2.13    0.38
  -9   7   3    3.40    0.65
   2  -9   3    3.14    0.82
   8  -7  -3    3.62    0.45
  -7  -1  -3    3.30    0.57
  -1   8  -3    2.90    0.45
   1  -8   3    3.20    0.76
   1  -8   3    3.49    0.47
  -8   7   3    3.26    0.69
   7   1   3    3.06    0.63
   7   1   3    3.34    0.46
  -7   0  -3   51.42    3.27
   0   7  -3   52.48    2.29
   7  -7  -3   51.15    3.19
   7   0   3   50.16    2.57
  -7   7   3   50.05    3.54
   0  -7   3   52.48    3.50
   7   0   3   54.51    3.47
   0  -7   3   52.24    3.18
   6  -7  -3    3.21    0.45
  -7   1  -3    3.38    0.46
   1   6  -3    3.78    0.47
  -7   1  -3    3.92    0.52
  -1  -6   3    3.44    0.47
   7  -1   3    3.73    0.45
  -6   7   3    3.02    0.72
  -1  -6   3    3.61    0.64
   7  -1   3    3.30    0.65
  -7   2  -3    0.30    0.20
   2   5  -3    0.18    0.25
   5  -7  -3    0.15    0.22
  -7   2  -3    0.14    0.21
   7  -2   3    0.05    0.18
   7  -2   3    0.37    0.37
  -2  -5   3    0.13    0.34
  -5   7   3    0.11    0.38
  -2  -5   3    0.00    0.22
  -5   7   3    0.09    0.18
  -7   3  -3    9.02    0.59
   4  -7  -3    7.95    0.74
   3   4  -3    9.42    0.64
  -7   3  -3    8.16    0.71
  -4   7   3    8.25    1.02
   7  -3   3    8.87    0.91
  -3  -4   3    9.70    0.75
  -3  -4   3    8.49    0.84
  -4   7   3    7.69    0.61
   7  -3   3    8.63    0.56
   3  -7  -3   46.37    2.90
  -7   4  -3   47.31    2.05
   4   3  -3   46.45    2.08
  -7   4  -3   48.27    2.86
  -4  -3   3   45.35    3.08
  -3   7   3   44.76    3.25
   7  -4   3   46.49    2.24
  -3   7   3   44.17    2.32
  -4  -3   3   46.24    2.87
   7  -4   3   46.56    3.13
  -7   5  -3  183.63    7.40
  -7   5  -3  186.76   10.61
   5   2  -3  183.36    7.42
   2  -7  -3  178.44   10.66
   7  -5   3  181.48   11.49
  -2   7   3  177.23   11.59
  -2   7   3  183.72    8.53
  -5  -2   3  175.95   11.43
  -5  -2   3  176.27   10.63
   6   1  -3   62.48    2.73
  -7   6  -3   63.26    2.69
   1  -7  -3   61.89    3.84
  -6  -1   3   60.71    3.80
  -1   7   3   64.16    3.11
  -6  -1   3   61.48    4.07
   7  -6   3   62.06    4.14
  -1   7   3   62.31    4.25
   0  -7  -3   50.19    3.21
   7   0  -3   49.35    2.28
  -7   7  -3   52.06    2.25
  -7   0   3   50.81    3.37
   0   7   3   52.57    3.56
  -7   0   3   49.63    3.16
   0   7   3   51.41    2.61
   7  -7   3   52.16    3.48
  -7   8  -3    1.63    0.31
   8  -1  -3    1.55    0.36
  -1  -7  -3    1.55    0.39
  -8   1   3    1.48    0.38
   1   7   3    1.64    0.41
  -8   1   3    2.01    0.45
   1   7   3    2.15    0.60
   7  -8   3    2.50    0.61
   9  -2  -3    1.09    0.34
  -2  -7  -3    1.03    0.38
  -7   9  -3    1.15    0.26
   7  -9   3    1.19    0.61
  -9   2   3    0.91    0.34
   2   7   3    1.01    0.39
   2   7   3    1.76    0.58
  -9   2   3    0.64    0.31
  10  -3  -3   24.15    1.26
  -3  -7  -3   25.21    1.83
  -7  10  -3   24.82    1.24
   3   7   3   23.72    1.47
 -10   3   3   23.23    1.75
 -10   3   3   24.05    1.69
   3   7   3   25.30    1.93
   7 -10   3   25.68    2.09
  -7  11  -3   13.14    0.85
  -4  -7  -3   14.39    1.33
  11  -4  -3   14.66    0.90
   7 -11   3   13.50    1.63
   4   7   3   16.08    1.34
   4   7   3   13.75    1.05
 -11   4   3   14.71    1.16
  -7  12  -3    3.59    0.48
  12  -5  -3    4.10    0.55
  -5  -7  -3    3.30    0.83
   5   7   3    3.44    0.65
   7 -12   3    4.10    1.12
 -12   5   3    3.60    0.64
  -6  -7  -3   12.85    1.45
  -7  13  -3   12.54    0.82
  13  -6  -3   12.44    0.85
 -13   6   3   13.92    1.15
   7 -13   3   10.84    1.77
   6   7   3   12.11    0.97
  -7  14  -3   58.44    2.65
  14  -7  -3   59.99    2.65
  -7  -7  -3   55.51    4.17
   7   7   3   60.45    3.04
 -14   7   3   60.66    3.80
  -7  15  -3   20.60    1.08
  -8  -7  -3   14.34    1.87
  15  -8  -3   18.41    1.04
   8   7   3   17.02    1.17
   7 -15   3   12.35    2.09
 -15   8   3   19.18    1.51
  14  -8  -3    7.92    0.67
  -6  14  -3    8.89    0.69
  -8  -6  -3    6.20    1.26
   6 -14   3    6.41    1.48
   8   6   3    6.54    0.74
 -14   8   3    7.03    0.87
  -5  13  -3   23.47    1.19
  -8  -5  -3   19.56    1.96
   5 -13   3   20.44    2.23
   8   5   3   20.88    1.30
 -13   8   3   21.81    1.57
  -8  -4  -3   13.85    1.48
  -4  12  -3   13.68    0.86
   4 -12   3   14.42    1.70
   8   4   3   13.86    0.97
 -12   8   3   14.30    1.10
 -12   8   3   12.99    1.19
  -8  -3  -3  103.74    6.42
  -3  11  -3  106.38    4.31
  11  -8  -3   95.07    6.05
 -11   8   3   98.25    6.58
   3 -11   3   99.43    6.81
   8   3   3  105.71    4.91
  10  -8  -3    0.48    0.24
  -8  -2  -3    0.63    0.43
  -2  10  -3    0.83    0.29
   8   2   3    0.27    0.27
 -10   8   3    0.63    0.37
   2 -10   3    0.77    0.56
  -8  -1  -3   13.38    1.12
  -1   9  -3   12.42    0.77
   9  -8  -3   10.88    0.88
   8   1   3   10.65    0.80
   1  -9   3   11.88    1.22
  -9   8   3   10.33    1.06
   0   8  -3    0.57    0.26
  -8   0  -3    0.45    0.33
   8  -8  -3    0.86    0.27
   0  -8   3    0.63    0.46
  -8   8   3    1.38    0.44
   0  -8   3    0.63    0.31
   8   0   3    0.92    0.39
   8   0   3    0.82    0.28
   7  -8  -3    1.49    0.37
  -8   1  -3    1.70    0.41
   1   7  -3    1.77    0.32
  -7   8   3    1.54    0.51
   8  -1   3    1.61    0.42
   8  -1   3    1.63    0.30
  -1  -7   3    1.54    0.37
  -1  -7   3    1.94    0.50
   6  -8  -3   66.11    4.08
  -8   2  -3   68.05    4.12
  -8   2  -3   72.99    2.91
   2   6  -3   67.29    2.90
  -6   8   3   64.55    4.52
   8  -2   3   69.19    3.25
  -2  -6   3   66.63    4.41
  -6   8   3   58.32    3.24
   8  -2   3   70.23    4.41
  -2  -6   3   67.38    4.09
  -8   3  -3   60.75    2.55
  -8   3  -3   59.79    3.58
   5  -8  -3   59.44    3.58
   3   5  -3   59.37    2.56
  -3  -5   3   56.76    3.57
   8  -3   3   60.42    2.83
   8  -3   3   59.98    3.86
  -5   8   3   50.35    2.83
  -3  -5   3   58.33    3.84
  -5   8   3   56.52    4.00
  -8   4  -3   30.92    1.46
  -8   4  -3   31.11    1.98
   4   4  -3   32.17    1.49
   4  -8  -3   31.72    2.02
  -4   8   3   26.47    1.59
   8  -4   3   32.69    1.56
   8  -4   3   30.06    2.17
  -4   8   3   28.97    2.33
  -4  -4   3   30.98    2.01
  -4  -4   3   31.70    2.14
  -8   5  -3   60.02    3.56
  -8   5  -3   62.97    2.56
   3  -8  -3   58.67    3.61
   5   3  -3   57.58    2.57
   8  -5   3   57.96    2.80
  -3   8   3   56.61    2.89
  -5  -3   3   58.03    3.60
   8  -5   3   59.70    3.89
  -3   8   3   54.96    4.03
  -5  -3   3   57.50    3.83
   6   2  -3    3.54    0.51
  -8   6  -3    2.49    0.39
   2  -8  -3    2.06    0.45
  -2   8   3    1.83    0.59
  -6  -2   3    2.32    0.46
  -2   8   3    2.03    0.38
  -6  -2   3    2.39    0.51
   8  -6   3    2.59    0.54
  -8   7  -3    3.70    0.43
   1  -8  -3    3.07    0.51
   7   1  -3    2.86    0.42
  -1   8   3    3.30    0.85
  -7  -1   3    3.66    0.53
  -7  -1   3    2.79    0.54
   8  -7   3    2.76    0.58
  -1   8   3    4.00    0.60
  -8   8  -3    1.58    0.29
   0  -8  -3    0.74    0.33
   8   0  -3    0.87    0.35
  -8   0   3    0.91    0.34
   0   8   3    1.52    0.39
  -8   0   3    0.66    0.33
   8  -8   3    1.24    0.54
   0   8   3    1.00    0.54
   9  -1  -3  111.83    4.81
  -1  -8  -3  112.54    6.92
  -8   9  -3  113.40    4.78
   1   8   3  118.75    7.50
   1   8   3  118.45    5.55
  -9   1   3  110.94    7.29
  -9   1   3  112.61    6.86
   8  -9   3  115.99    7.50
  -2  -8  -3   10.12    0.98
  10  -2  -3    8.95    0.71
  -8  10  -3    8.62    0.65
   8 -10   3    8.87    1.28
   2   8   3   10.11    1.12
 -10   2   3    8.69    0.88
   2   8   3    9.48    0.88
  -3  -8  -3   61.98    4.03
  -8  11  -3   62.53    2.74
  11  -3  -3   59.92    2.75
   3   8   3   65.53    3.19
 -11   3   3   61.85    3.90
   8 -11   3   58.44    4.43
   3   8   3   64.44    4.25
  12  -4  -3    5.76    0.63
  -4  -8  -3    4.30    0.86
  -8  12  -3    5.24    0.53
   4   8   3    3.87    0.74
 -12   4   3    5.28    0.75
   8 -12   3    5.28    1.34
   4   8   3    6.50    0.91
  -5  -8  -3    0.06    0.49
  13  -5  -3    0.39    0.32
  -8  13  -3    0.98    0.29
 -13   5   3    0.36    0.40
   5   8   3   -0.45    0.35
   8 -13   3   -0.14    0.84
  14  -6  -3   65.99    2.86
  -6  -8  -3   63.56    4.43
  -8  14  -3   61.81    2.83
 -14   6   3   64.64    4.11
   6   8   3   63.72    3.26
  15  -7  -3    1.19    0.39
  -8  15  -3    1.24    0.33
  -7  -8  -3    0.27    0.62
 -15   7   3    1.22    0.54
   8 -15   3    0.39    0.95
   7   8   3    0.60    0.40
  -8  -8  -3   29.31    2.83
  -8  16  -3   33.91    1.68
 -16   8   3   35.08    2.49
   8   8   3   34.16    1.90
 -17   9   3    2.29    0.47
  -9  -7  -3   16.21    2.10
  -7  16  -3   23.39    1.23
   9   7   3   20.31    1.33
 -16   9   3   21.70    1.76
  -9  -6  -3    1.71    0.88
  -6  15  -3    2.05    0.39
   9   6   3    2.16    0.45
 -15   9   3    1.72    0.53
   6 -15   3    0.75    0.95
  -9  -5  -3    3.06    0.97
  -5  14  -3    5.22    0.59
   5 -14   3    3.16    1.14
 -14   9   3    5.98    0.74
   9   5   3    5.33    0.66
  -9  -4  -3   23.83    2.15
  -4  13  -3   22.28    1.24
   9   4   3   24.25    1.39
   4 -13   3   21.58    2.34
 -13   9   3   23.75    1.65
  -3  12  -3   16.32    0.97
  -9  -3  -3   17.07    1.66
   3 -12   3   14.61    1.80
   9   3   3   15.54    1.04
 -12   9   3   16.09    1.36
  -9  -2  -3    6.36    0.99
  11  -9  -3    5.96    0.61
  -2  11  -3    5.68    0.60
   9   2   3    6.17    0.62
   2 -11   3    6.43    1.23
 -11   9   3    6.10    0.79
  10  -9  -3   70.07    4.39
  -1  10  -3   73.71    3.16
  -9  -1  -3   77.07    4.70
   1 -10   3   73.92    4.97
   9   1   3   74.43    3.58
 -10   9   3   67.12    4.82
   9  -9  -3   81.06    5.06
  -9   0  -3   85.00    5.27
   0   9  -3   84.21    3.61
  -9   9   3   79.83    5.57
   0  -9   3   86.87    5.61
   9   0   3   88.45    4.11
  -9   1  -3  118.00    7.14
   8  -9  -3  117.59    7.02
   1   8  -3  116.47    4.94
  -8   9   3  114.48    7.69
   9  -1   3  122.17    5.64
  -1  -8   3  118.32    7.64
  -1  -8   3  118.19    7.09
   7  -9  -3    0.83    0.28
  -9   2  -3    0.81    0.34
  -9   2  -3    1.22    0.28
   2   7  -3    0.65    0.30
  -2  -7   3    1.42    0.47
  -7   9   3    1.09    0.24
  -2  -7   3    1.02    0.36
   9  -2   3    1.32    0.42
   9  -2   3    0.78    0.25
  -7   9   3    1.11    0.50
  -9   3  -3    0.20    0.22
   6  -9  -3    0.33    0.24
  -9   3  -3    0.12    0.25
   3   6  -3   -0.01    0.24
  -3  -6   3    0.16    0.36
  -3  -6   3    0.33    0.31
  -6   9   3    0.44    0.21
  -6   9   3   -0.10    0.43
   9  -3   3   -0.03    0.18
   9  -3   3    0.42    0.36
  -9   4  -3    3.81    0.46
   5  -9  -3    3.49    0.51
   4   5  -3    4.54    0.52
  -9   4  -3    4.30    0.50
  -4  -5   3    4.09    0.64
   9  -4   3    3.96    0.41
  -4  -5   3    3.93    0.58
  -5   9   3    4.24    0.47
  -5   9   3    4.29    0.91
   9  -4   3    4.00    0.68
  -9   5  -3    7.31    0.56
   4  -9  -3    6.54    0.67
   5   4  -3    6.92    0.61
  -5  -4   3    6.94    0.75
   9  -5   3    6.84    0.49
  -4   9   3    5.79    1.05
  -4   9   3    5.95    0.58
  -5  -4   3    7.61    0.74
   9  -5   3    6.37    0.80
   3  -9  -3    0.91    0.30
   6   3  -3    1.13    0.33
  -9   6  -3    1.12    0.27
   9  -6   3    0.49    0.40
   9  -6   3    0.70    0.18
  -3   9   3    0.71    0.59
  -3   9   3    0.68    0.28
  -6  -3   3    1.08    0.35
  -6  -3   3    0.91    0.35
   2  -9  -3    3.29    0.52
   7   2  -3    2.98    0.45
  -9   7  -3    2.90    0.42
  -7  -2   3    3.12    0.56
  -2   9   3    2.82    0.56
   9  -7   3    3.26    0.73
  -7  -2   3    2.88    0.53
  -2   9   3    2.52    0.71
  -9   8  -3   10.36    0.71
   1  -9  -3   10.76    0.96
   8   1  -3   11.34    0.81
  -8  -1   3   10.84    0.95
  -1   9   3   12.05    0.89
  -1   9   3   10.96    1.29
  -8  -1   3   12.12    1.01
   9  -8   3   11.81    1.21
  -9   9  -3   81.84    3.48
   0  -9  -3   81.81    5.01
   9   0  -3   80.11    3.50
   0   9   3   79.45    4.02
   0   9   3   78.47    5.47
   9  -9   3   85.24    5.47
  -9   0   3   80.83    4.99
  10  -1  -3    6.81    0.64
  -9  10  -3    5.41    0.54
  -1  -9  -3    5.78    0.77
   1   9   3    5.78    0.74
   1   9   3    6.80    1.03
   9 -10   3    6.10    1.15
 -10   1   3    6.38    0.78
  11  -2  -3    4.12    0.59
  -2  -9  -3    4.87    0.76
  -9  11  -3    4.63    0.51
   2   9   3    5.57    0.94
   2   9   3    4.48    0.74
 -11   2   3    4.86    0.73
   9 -11   3    5.17    1.27
  -9  12  -3    0.35    0.23
  12  -3  -3    0.36    0.32
  -3  -9  -3    0.66    0.46
 -12   3   3    0.05    0.38
   9 -12   3    0.26    0.81
   3   9   3    0.35    0.40
   3   9   3    0.38    0.49
  13  -4  -3    8.30    0.70
  -9  13  -3    7.78    0.64
  -4  -9  -3    7.98    1.10
   4   9   3    6.26    0.83
 -13   4   3    8.01    0.96
   9 -13   3    7.71    1.67
  -5  -9  -3    0.41    0.56
  -9  14  -3    0.64    0.30
  14  -5  -3    0.48    0.34
 -14   5   3    1.06    0.51
   9 -14   3    0.86    0.99
   5   9   3   -0.41    0.38
  -9  15  -3   32.66    1.67
  -6  -9  -3   35.56    2.81
  15  -6  -3   34.29    1.71
   6   9   3   33.34    1.94
 -15   6   3   35.67    2.52
  -9  16  -3    3.58    0.56
  -7  -9  -3    3.75    1.02
  16  -7  -3    4.92    0.65
   7   9   3    3.05    0.56
 -16   7   3    3.73    0.83
   9 -16   3    0.85    1.00
 -17   8   3   18.03    1.76
  -6  16  -3   18.55    1.10
 -10  -6  -3   13.14    1.92
  10   6   3   18.34    1.19
 -10  -5  -3    2.12    0.92
  -5  15  -3    2.42    0.42
   5 -15   3    1.05    0.98
  10   5   3    2.20    0.44
  -4  14  -3    0.82    0.33
 -10  -4  -3    0.25    0.67
   4 -14   3    0.10    0.90
 -14  10   3    0.37    0.36
  10   4   3    0.65    0.35
  -3  13  -3  146.88    5.81
 -10  -3  -3  128.00    8.73
 -13  10   3  134.24    8.90
  10   3   3  145.53    6.63
 -13  10   3  141.77    8.24
   3 -13   3  129.52    9.28
  12 -10  -3    6.39    0.65
  -2  12  -3    7.11    0.66
 -10  -2  -3    6.01    1.12
 -12  10   3    7.23    0.86
  10   2   3    7.13    0.69
   2 -12   3    7.67    1.41
 -10  -1  -3   47.23    3.16
  -1  11  -3   45.24    2.04
  11 -10  -3   41.47    2.73
   1 -11   3   43.83    3.30
 -11  10   3   40.90    3.05
  10   1   3   44.15    2.27
  10 -10  -3    0.20    0.22
 -10   0  -3    0.69    0.45
   0  10  -3    0.63    0.31
  10   0   3    0.28    0.28
   0 -10   3    1.15    0.65
 -10  10   3    0.25    0.39
 -10   1  -3    6.07    0.81
   1   9  -3    6.27    0.61
   9 -10  -3    6.16    0.62
  -1  -9   3    6.15    0.85
  -9  10   3    6.16    0.94
  -1  -9   3    7.11    1.01
  10  -1   3    5.84    0.60
   2   8  -3    9.27    0.70
 -10   2  -3    8.93    0.91
   8 -10  -3    9.14    0.79
  -2  -8   3    9.27    0.97
  10  -2   3    9.25    0.70
  -2  -8   3   11.14    1.08
  -8  10   3    8.85    1.14
  -8  10   3    9.50    0.67
 -10   3  -3   23.98    1.69
 -10   3  -3   25.55    1.28
   7 -10  -3   24.71    1.64
   3   7  -3   23.82    1.26
  -3  -7   3   24.74    1.77
  -3  -7   3   24.94    1.84
  -7  10   3   22.22    2.00
  -7  10   3   22.45    1.33
  10  -3   3   25.06    1.32
 -10   4  -3  145.19    5.83
   6 -10  -3  141.28    8.28
 -10   4  -3  138.99    8.29
   4   6  -3  140.41    5.81
  -6  10   3  123.11    6.59
  10  -4   3  144.26    6.59
  -4  -6   3  145.69    8.92
  -4  -6   3  143.09    8.37
  -6  10   3  132.18    9.12
   5   5  -3   50.37    2.31
 -10   5  -3   55.51    2.33
   5 -10  -3   52.44    3.21
  -5  10   3   47.56    3.69
  -5  -5   3   51.68    3.42
  10  -5   3   52.41    2.51
  -5  10   3   46.30    2.56
  10  -5   3   52.72    3.45
  -5  -5   3   51.78    3.29
   6   4  -3    6.10    0.62
   4 -10  -3    6.28    0.65
 -10   6  -3    6.47    0.55
  10  -6   3    5.62    0.46
  -4  10   3    6.56    1.15
  -4  10   3    4.69    0.56
  -6  -4   3    4.87    0.69
  10  -6   3    6.16    0.80
  -6  -4   3    5.55    0.74
   3 -10  -3    3.45    0.52
 -10   7  -3    3.23    0.45
   7   3  -3    3.44    0.54
  10  -7   3    2.94    0.76
  -7  -3   3    3.23    0.57
  -7  -3   3    3.36    0.62
  -3  10   3    2.07    0.72
  10  -7   3    2.63    0.33
  -3  10   3    3.02    0.57
   2 -10  -3    0.14    0.29
 -10   8  -3    0.49    0.24
   8   2  -3    0.62    0.32
  -8  -2   3    0.55    0.39
  10  -8   3    0.08    0.49
  -2  10   3    0.81    0.64
  -2  10   3    0.66    0.34
 -10   9  -3   72.19    3.04
   9   1  -3   71.61    3.06
   1 -10  -3   69.25    4.32
  -9  -1   3   68.96    4.35
  -1  10   3   68.84    3.48
  -1  10   3   63.16    4.78
  10  -9   3   71.14    4.76
  10   0  -3   -0.26    0.30
   0 -10  -3    0.53    0.34
 -10  10  -3    0.26    0.22
   0  10   3    0.27    0.56
   0  10   3    0.25    0.37
  10 -10   3    0.58    0.72
 -10   0   3    0.45    0.41
  11  -1  -3   48.30    2.24
  -1 -10  -3   49.62    3.23
 -10  11  -3   45.70    2.21
   1  10   3   49.71    3.52
 -11   1   3   50.35    3.23
   1  10   3   50.41    2.61
  10 -11   3   47.22    3.67
 -10  12  -3   17.08    1.00
  12  -2  -3   16.88    1.05
  -2 -10  -3   18.72    1.55
   2  10   3   18.82    1.26
   2  10   3   20.04    1.68
 -12   2   3   17.97    1.51
  10 -12   3   15.02    1.98
  -3 -10  -3   50.73    3.41
  13  -3  -3   49.71    2.28
 -10  13  -3   46.11    2.23
   3  10   3   54.72    3.56
   3  10   3   52.96    2.65
 -13   3   3   49.52    3.32
  10 -13   3   39.39    3.84
  14  -4  -3    1.13    0.38
 -10  14  -3    1.37    0.31
  -4 -10  -3    1.12    0.62
  10 -14   3    0.21    0.99
 -14   4   3    1.08    0.57
   4  10   3    0.38    0.45
  15  -5  -3   61.94    2.76
  -5 -10  -3   63.32    4.28
 -10  15  -3   56.74    2.72
 -15   5   3   60.03    4.06
   5  10   3   62.10    3.17
  -6 -10  -3   -0.12    0.59
 -10  16  -3    0.13    0.27
  16  -6  -3    0.80    0.38
  10 -16   3   -0.26    0.91
   6  10   3   -0.32    0.40
 -16   6   3    0.39    0.63
  17  -7  -3    2.65    0.46
 -17   7   3    2.97    0.89
 -11  -5  -3    0.37    0.76
  -5  16  -3    0.76    0.36
  11   5   3    0.32    0.36
   5 -16   3   -0.38    0.85
  -4  15  -3   73.27    3.20
  11   4   3   70.66    3.61
  -3  14  -3    4.49    0.61
 -11  -3  -3    4.08    1.10
  11   3   3    4.88    0.64
   3 -14   3    4.29    1.20
  -2  13  -3    5.40    0.64
 -11  -2  -3    4.63    1.15
 -13  11   3    6.20    0.81
   2 -13   3    3.99    1.12
  11   2   3    5.13    0.64
  -1  12  -3    7.06    0.68
 -11  -1  -3    5.82    1.14
  12 -11  -3    6.41    0.66
  11   1   3    7.80    0.70
 -12  11   3    7.24    0.91
   1 -12   3    6.66    1.39
  11 -11  -3    6.15    0.64
 -11   0  -3    7.18    1.06
   0  11  -3    6.67    0.66
   0 -11   3    5.89    1.26
  11   0   3    6.77    0.66
 -11  11   3    7.00    0.94
  10 -11  -3   47.63    3.10
   1  10  -3   52.90    2.30
 -11   1  -3   53.69    3.42
  11  -1   3   50.55    2.55
 -10  11   3   45.85    3.54
  -1 -10   3   50.81    3.62
 -11   2  -3    4.24    0.72
   2   9  -3    4.80    0.57
   9 -11  -3    4.49    0.55
  -2  -9   3    3.79    0.89
  11  -2   3    5.06    0.56
  -9  11   3    5.46    0.50
  -2  -9   3    5.26    0.96
  -9  11   3    4.16    0.93
   3   8  -3   62.63    2.75
 -11   3  -3   63.69    2.81
   8 -11  -3   60.81    3.80
 -11   3  -3   63.49    3.92
  11  -3   3   62.32    3.06
  -8  11   3   59.10    4.35
  -3  -8   3   65.56    4.21
  -3  -8   3   62.56    4.01
  -8  11   3   57.22    3.05
   4   7  -3   12.80    0.90
 -11   4  -3   16.23    0.96
   7 -11  -3   14.25    1.09
  -7  11   3   14.05    1.56
  -7  11   3   13.47    0.92
  -4  -7   3   15.08    1.33
  -4  -7   3   15.21    1.30
  11  -4   3   15.18    0.89
 -11   5  -3   14.17    0.91
   6 -11  -3   14.11    1.11
   5   6  -3   14.93    0.92
  -5  -6   3   14.55    1.24
  -6  11   3   12.69    1.55
  -6  11   3   12.60    0.91
  -5  -6   3   14.14    1.30
  11  -5   3   17.94    0.89
   5 -11  -3    2.23    0.49
   6   5  -3    2.10    0.40
 -11   6  -3    3.16    0.47
  -5  11   3    2.34    0.79
  -6  -5   3    2.69    0.62
  -6  -5   3    2.60    0.62
  -5  11   3    3.11    0.50
  11  -6   3    3.01    0.38
 -11   7  -3   24.88    1.30
   7   4  -3   24.26    1.32
   4 -11  -3   26.25    1.74
  -4  11   3   22.32    2.18
  -4  11   3   24.93    1.43
  -7  -4   3   25.65    1.88
  11  -7   3   25.50    1.95
  11  -7   3   25.05    1.31
   3 -11  -3   95.31    6.00
 -11   8  -3  104.44    4.25
   8   3  -3   98.90    4.24
  -8  -3   3   98.33    6.12
  -3  11   3   97.96    4.83
  11  -8   3  105.52    6.56
  11  -8   3   94.68    4.70
 -11   9  -3    7.03    0.59
   9   2  -3    6.77    0.67
   2 -11  -3    5.86    0.72
  -2  11   3    5.04    1.15
  -2  11   3    6.32    0.73
  11  -9   3    6.88    1.12
  -9  -2   3    5.23    0.84
  10   1  -3   42.19    1.96
   1 -11  -3   39.77    2.72
 -11  10  -3   43.04    1.94
  -1  11   3   44.16    2.25
  -1  11   3   38.15    3.11
  11 -10   3   41.81    3.16
 -10  -1   3   39.36    2.81
  11   0  -3    4.93    0.62
 -11  11  -3    6.19    0.57
   0 -11  -3    5.25    0.77
  11 -11   3    5.16    1.34
   0  11   3    5.42    0.80
 -11   0   3    6.22    0.92
   0  11   3    7.74    1.16
  12  -1  -3   38.79    1.89
 -11  12  -3   39.38    1.87
  -1 -11  -3   38.75    2.73
 -12   1   3   41.15    2.81
  11 -12   3   38.64    3.29
   1  11   3   40.95    2.98
   1  11   3   39.15    2.21
 -11  13  -3   56.84    2.59
  -2 -11  -3   62.59    3.88
  13  -2  -3   57.21    2.61
   2  11   3   62.52    4.08
   2  11   3   59.57    3.05
 -13   2   3   56.56    3.85
  11 -13   3   46.43    4.35
  14  -3  -3    1.33    0.40
  -3 -11  -3    1.75    0.65
 -11  14  -3    1.69    0.36
  11 -14   3    2.53    1.17
   3  11   3    1.06    0.47
 -14   3   3    1.19    0.65
 -11  15  -3   61.44    2.94
  15  -4  -3   65.01    2.97
  -4 -11  -3   71.44    4.56
   4  11   3   69.91    3.46
 -15   4   3   63.78    4.42
 -11  16  -3    1.44    0.39
  16  -5  -3    2.03    0.45
  -5 -11  -3    1.09    0.69
   5  11   3    0.76    0.50
  11 -16   3   -0.05    0.89
 -16   5   3    0.80    0.73
  -4  16  -3   34.92    1.76
  12   4   3   34.33    1.93
 -12  -3  -3   -1.12    0.56
  -3  15  -3   -0.15    0.32
  12   3   3   -0.10    0.33
   3 -15   3    0.16    0.84
  -2  14  -3   37.32    1.71
 -12  -2  -3   28.08    2.77
  12   2   3   35.42    1.85
 -14  12   3   34.26    2.46
   2 -14   3   26.23    2.88
 -12  -1  -3   22.55    2.23
  -1  13  -3   25.61    1.34
  12   1   3   24.88    1.43
 -13  12   3   24.52    1.94
   1 -13   3   20.93    2.37
 -12   0  -3   37.73    2.94
   0  12  -3   37.88    1.85
   0 -12   3   35.00    3.10
 -12  12   3   35.83    2.80
  12   0   3   42.46    2.06
 -12   1  -3   46.14    3.10
   1  11  -3   40.99    2.00
 -11  12   3   42.16    3.11
  -1 -11   3   40.15    3.24
  12  -1   3   41.98    2.21
   2  10  -3   17.69    1.07
 -12   2  -3   19.16    1.59
  10 -12  -3   16.77    1.28
 -10  12   3   18.68    1.73
  12  -2   3   18.37    1.12
 -10  12   3   17.19    1.08
  -2 -10   3   20.67    1.80
   3   9  -3    0.40    0.32
 -12   3  -3    0.08    0.33
   9 -12  -3    0.27    0.25
  -9  12   3    0.67    0.58
  -3  -9   3   -0.06    0.55
  12  -3   3    0.57    0.27
  -3  -9   3    0.29    0.59
  -9  12   3    0.11    0.23
   4   8  -3    5.07    0.61
   8 -12  -3    4.73    0.58
 -12   4  -3    5.38    0.64
  -8  12   3    6.21    0.60
  -8  12   3    4.69    1.12
  12  -4   3    5.47    0.54
  -4  -8   3    5.94    1.00
  -4  -8   3    5.29    0.94
   7 -12  -3    3.92    0.53
 -12   5  -3    4.76    0.58
   5   7  -3    3.71    0.57
  -7  12   3    3.03    0.86
  -5  -7   3    3.66    0.91
  -7  12   3    4.70    0.54
  -5  -7   3    4.20    0.80
  12  -5   3    4.16    0.47
 -12   6  -3   60.88    2.62
   6 -12  -3   55.92    3.53
   6   6  -3   54.48    2.56
  -6  12   3   56.65    2.87
  12  -6   3   54.71    2.79
  -6  -6   3   58.72    3.79
   5 -12  -3   63.63    4.07
 -12   7  -3   68.07    2.96
   7   5  -3   65.30    2.94
  -7  -5   3   67.98    4.31
  12  -7   3   66.88    3.20
  -5  12   3   64.25    3.29
   8   4  -3   12.89    0.89
 -12   8  -3   14.62    0.89
   4 -12  -3   12.50    1.07
  12  -8   3   13.69    0.79
  -4  12   3   12.67    0.94
  -4  12   3   10.22    1.53
  -8  -4   3   14.26    1.34
 -12   9  -3   16.70    0.95
   3 -12  -3   14.47    1.19
   9   3  -3   14.90    0.96
  -9  -3   3   14.65    1.41
  12  -9   3   14.51    0.85
  12  -9   3   16.55    1.62
  -3  12   3   11.15    1.61
  -3  12   3   15.09    1.06
   2 -12  -3    6.17    0.76
  10   2  -3    7.13    0.67
 -12  10  -3    6.31    0.59
  -2  12   3    6.14    1.22
  -2  12   3    6.15    0.77
 -10  -2   3    6.66    1.00
  12 -10   3    5.50    1.26
  11   1  -3    6.66    0.68
 -12  11  -3    6.30    0.59
   1 -12  -3    6.72    0.82
  -1  12   3    7.11    0.84
 -11  -1   3    7.56    1.06
  12 -11   3    7.80    1.47
  -1  12   3    5.83    1.19
  12   0  -3   34.31    1.66
   0 -12  -3   34.29    2.36
 -12  12  -3   32.02    1.63
   0  12   3   31.88    2.63
   0  12   3   33.93    1.94
  12 -12   3   30.35    2.90
 -12   0   3   34.82    2.52
  -1 -12  -3    1.55    0.53
  13  -1  -3    1.65    0.42
 -12  13  -3    2.14    0.36
   1  12   3    1.66    0.51
   1  12   3    1.60    0.65
 -13   1   3    1.73    0.73
  12 -13   3    0.73    1.01
 -12  14  -3   54.24    2.60
  14  -2  -3   58.20    2.63
  -2 -12  -3   59.77    3.91
 -14   2   3   58.48    3.99
   2  12   3   58.16    3.07
  -3 -12  -3    3.66    0.84
 -12  15  -3    2.88    0.45
  15  -3  -3    2.73    0.48
   3  12   3    2.79    0.62
 -15   3   3    3.02    0.89
  12 -15   3    0.07    0.94
  -4 -12  -3   16.75    1.79
  16  -4  -3   17.93    1.13
 -12  16  -3   16.81    1.07
   4  12   3   18.34    1.34
 -16   4   3   17.91    1.87
 -13  -3  -3   -0.06    0.71
  -3  16  -3    0.62    0.39
  13   3   3    0.80    0.40
   3 -16   3    0.35    0.84
 -13  -2  -3    5.48    1.43
  -2  15  -3   10.58    0.84
  13   2   3   10.21    0.84
   2 -15   3    5.77    1.41
 -13  -1  -3    6.01    1.39
  -1  14  -3    7.73    0.77
 -14  13   3    8.47    1.04
   1 -14   3    8.07    1.58
  13   1   3    6.87    0.75
   0  13  -3    7.68    0.75
 -13   0  -3    7.88    1.37
   0 -13   3    6.24    1.56
 -13  13   3    8.47    1.08
  13   0   3    8.33    0.75
 -13   1  -3    2.40    0.77
   1  12  -3    1.58    0.40
  -1 -12   3    0.63    0.84
  13  -1   3    1.52    0.38
 -12  13   3    3.27    0.87
 -13   2  -3   63.40    4.17
   2  11  -3   62.13    2.78
  13  -2   3   62.87    3.11
 -11  13   3   59.18    4.37
  -2 -11   3   58.86    4.43
   3  10  -3   48.72    2.23
 -10  13   3   43.77    3.55
  13  -3   3   49.79    2.45
  -3 -10   3   48.86    3.54
 -10  13   3   46.14    2.43
   4   9  -3    8.72    0.74
 -13   4  -3    8.47    0.82
  13  -4   3    7.46    0.66
  -4  -9   3    7.62    1.20
  -9  13   3    7.32    1.30
  -4  -9   3    7.00    1.20
  -9  13   3    8.54    0.69
   8 -13  -3    0.32    0.27
   5   8  -3    0.14    0.32
 -13   5  -3    0.17    0.30
  -5  -8   3    0.28    0.58
  13  -5   3    0.22    0.24
  -8  13   3    0.14    0.59
  -8  13   3    0.78    0.29
   7 -13  -3   12.43    1.00
   6   7  -3   11.89    0.87
 -13   6  -3   13.66    0.93
  13  -6   3   12.29    0.80
  -6  -7   3   10.11    1.35
  -7  13   3   12.52    0.89
 -13   7  -3   19.90    1.14
   6 -13  -3   17.85    1.35
   7   6  -3   19.77    1.12
  13  -7   3   18.05    1.05
  -6  13   3   17.73    1.16
  -7  -6   3   17.41    1.69
   8   5  -3   23.55    1.27
   5 -13  -3   21.42    1.59
 -13   8  -3   21.60    1.24
  -8  -5   3   21.05    1.90
  -5  13   3   24.46    1.38
  13  -8   3   22.01    1.22
   9   4  -3   22.01    1.26
   4 -13  -3   22.28    1.61
 -13   9  -3   22.08    1.24
  13  -9   3   22.57    1.21
  -4  13   3   22.50    1.39
  -9  -4   3   21.45    1.90
 -13  10  -3  139.69    5.78
   3 -13  -3  134.17    8.20
  10   3  -3  137.23    5.75
  13 -10   3  135.94    6.48
  -3  13   3  136.81    6.60
 -10  -3   3  135.75    8.46
   2 -13  -3    4.81    0.72
  11   2  -3    3.68    0.61
 -13  11  -3    5.15    0.57
  -2  13   3    5.72    0.79
 -11  -2   3    5.62    1.03
  13 -11   3    4.66    1.16
  -2  13   3    3.65    0.95
   1 -13  -3   22.98    1.78
  12   1  -3   23.47    1.30
 -13  12  -3   25.17    1.30
  -1  13   3   21.74    2.11
  13 -12   3   19.76    2.32
 -12  -1   3   25.10    2.08
  -1  13   3   25.84    1.56
  13   0  -3    8.64    0.76
 -13  13  -3    9.43    0.71
   0 -13  -3    7.93    1.00
  13 -13   3    6.53    1.66
   0  13   3    7.76    0.94
 -13   0   3    8.99    1.30
   0  13   3    7.53    1.26
  14  -1  -3   22.31    1.24
  -1 -13  -3   21.91    1.79
 -13  14  -3   21.53    1.20
  13 -14   3   14.32    2.19
 -14   1   3   22.19    2.03
   1  13   3   21.86    1.95
   1  13   3   21.07    1.49
 -13  15  -3    1.89    0.38
  15  -2  -3    2.61    0.47
  -2 -13  -3    1.84    0.68
   2  13   3    0.89    0.55
  13 -15   3    1.80    1.05
 -15   2   3    1.66    0.83
  16  -3  -3    5.13    0.73
  -3 -13  -3    6.14    1.13
 -16   3   3    6.11    1.33
   3  13   3    4.72    0.93
 -14  -1  -3   -0.95    0.63
  -1  15  -3    0.25    0.36
   1 -15   3   -0.20    0.77
  14   1   3   -0.23    0.32
   0  14  -3   14.07    1.00
 -14   0  -3   14.81    1.85
  14   0   3   14.60    1.04
   0 -14   3   10.62    1.80
 -14  14   3   14.64    1.47
   1  13  -3   21.46    1.26
 -14   1  -3   21.26    2.14
  14  -1   3   23.11    1.35
 -13  14   3   23.58    1.98
  -1 -13   3   16.59    2.18
   2  12  -3   61.17    2.70
 -12  14   3   58.57    4.24
  14  -2   3   60.76    2.99
  -2 -12   3   52.50    4.34
   3  11  -3    1.52    0.44
  -3 -11   3    1.65    0.88
 -11  14   3    1.97    0.37
  14  -3   3    1.21    0.35
 -11  14   3    1.23    0.71
   4  10  -3    0.61    0.36
 -10  14   3    1.30    0.33
 -10  14   3    0.67    0.68
  -4 -10   3    1.11    0.73
  14  -4   3    0.54    0.31
 -14   5  -3    0.94    0.40
   5   9  -3    0.71    0.36
  -9  14   3    1.53    0.35
  -5  -9   3    1.34    0.73
  14  -5   3    0.01    0.25
   6   8  -3   61.03    2.83
 -14   6  -3   68.73    2.99
  -8  14   3   64.09    3.16
  14  -6   3   62.07    3.10
  -6  -8   3   56.71    4.24
 -14   7  -3   62.50    2.78
   7   7  -3   56.62    2.67
  -7  -7   3   51.58    4.00
  -7  14   3   61.64    3.00
  14  -7   3   59.28    2.91
 -14   8  -3    7.03    0.72
   8   6  -3    7.00    0.72
   6 -14  -3    6.91    0.77
  -8  -6   3    7.36    1.22
  14  -8   3    6.48    0.57
  -6  14   3    6.72    0.72
 -14   9  -3    4.97    0.60
   5 -14  -3    3.77    0.62
   9   5  -3    4.70    0.65
  14  -9   3    4.83    0.48
  -5  14   3    5.32    0.68
  -9  -5   3    4.24    0.97
 -14  10  -3    1.07    0.34
  10   4  -3    1.23    0.40
   4 -14  -3    0.61    0.35
  14 -10   3    0.59    0.22
 -10  -4   3    0.97    0.68
  -4  14   3    0.54    0.38
 -14  11  -3    3.60    0.56
   3 -14  -3    4.17    0.68
  11   3  -3    6.32    0.67
  -3  14   3    4.69    0.77
 -11  -3   3    4.83    1.12
  12   2  -3   33.40    1.68
 -14  12  -3   35.33    1.72
   2 -14  -3   34.70    2.34
 -12  -2   3   33.47    2.66
  -2  14   3   36.70    1.99
  -2  14   3   26.18    2.67
  13   1  -3    7.08    0.73
   1 -14  -3    6.61    0.91
 -14  13  -3    7.91    0.68
 -13  -1   3    6.90    1.28
  -1  14   3    6.99    0.93
  -1  14   3    7.04    1.28
  14   0  -3   14.38    0.97
 -14  14  -3   12.55    0.90
   0 -14  -3   13.39    1.33
 -14   0   3   11.78    1.64
   0  14   3   14.98    1.22
   0  14   3   13.10    1.56
  -1 -14  -3    2.28    0.66
 -14  15  -3    2.93    0.51
  15  -1  -3    2.40    0.47
 -15   1   3    1.25    0.87
   1  14   3    2.34    0.62
  14 -15   3    0.97    0.92
 -15   1  -3    2.77    0.96
   1  14  -3    2.09    0.48
 -14  15   3    4.13    1.03
  15  -1   3    2.37    0.47
  -1 -14   3    1.39    0.92
   2  13  -3    2.71    0.48
  15  -2   3    2.75    0.46
  -2 -13   3    1.21    0.99
 -13  15   3    2.18    0.77
   3  12  -3    3.17    0.53
 -12  15   3    2.04    0.79
  15  -3   3    2.71    0.46
 -12  15   3    4.19    0.59
   4  11  -3   67.47    3.06
 -11  15   3   66.94    3.39
  15  -4   3   68.12    3.40
   5  10  -3   59.54    2.65
 -15   5  -3   64.25    3.06
  15  -5   3   57.34    2.87
 -10  15   3   58.40    2.91
  -5 -10   3   45.12    3.91
   6   9  -3   32.82    1.73
 -15   6  -3   36.54    1.92
  15  -6   3   32.88    1.80
  -9  15   3   33.60    1.86
 -15   7  -3    1.16    0.41
   7   8  -3    0.96    0.41
  15  -7   3    0.99    0.30
  -7  -8   3    1.16    0.79
  -8  15   3    0.88    0.34
 -15   8  -3   21.60    1.26
   8   7  -3   18.72    1.16
  -8  -7   3   15.94    1.85
  -7  15   3   19.16    1.24
  15  -8   3   18.07    1.10
 -15   9  -3    2.54    0.49
   9   6  -3    1.89    0.43
  15  -9   3    2.62    0.42
  -6  15   3    1.52    0.42
  -9  -6   3    1.25    0.79
 -15  10  -3    2.81    0.48
  10   5  -3    2.37    0.47
  -5  15   3    3.84    0.70
  15 -10   3    2.23    0.42
 -10  -5   3    2.15    0.83
  11   4  -3   66.07    3.06
 -15  11  -3   71.47    3.14
  -4  15   3   75.53    3.55
  15 -11   3   67.99    3.34
 -11  -4   3   59.35    4.65
 -15  12  -3    0.48    0.31
   3 -15  -3    0.42    0.38
  12   3  -3    0.15    0.35
  -3  15   3    0.32    0.43
 -12  -3   3    0.37    0.73
  13   2  -3    8.03    0.79
   2 -15  -3    9.66    1.03
 -15  13  -3    9.33    0.79
 -13  -2   3   10.37    1.52
  -2  15   3   11.17    1.05
  -2  15   3    8.80    1.43
 -15  14  -3    0.06    0.27
   1 -15  -3    0.27    0.41
  14   1  -3   -0.37    0.35
 -14  -1   3    0.43    0.81
  -1  15   3    0.60    0.69
  -1  15   3    0.26    0.50
   3  13  -3    5.58    0.76
 -13  16   3    4.64    1.26
  16  -3   3    5.25    0.68
 -13  16   3    4.52    0.64
   4  12  -3   17.22    1.16
  16  -4   3   17.46    1.17
 -12  16   3   18.05    1.17
   5  11  -3    0.76    0.44
  16  -5   3    1.07    0.36
 -11  16   3    1.37    0.38
   6  10  -3    0.57    0.41
 -16   6  -3    0.71    0.44
 -10  16   3    0.41    0.34
  16  -6   3    0.30    0.30
  -6 -10   3   -0.14    0.70
 -16   7  -3    4.24    0.66
   9 -16  -3    1.46    1.05
   7   9  -3    3.55    0.56
  -7  -9   3    2.46    0.91
  -9  16   3    4.05    0.64
  16  -7   3    3.41    0.53
   8   8  -3   31.91    1.78
 -16   8  -3   37.90    1.96
  -8  16   3   35.99    1.97
  16  -8   3   34.47    1.86
   9   7  -3   21.00    1.26
 -16   9  -3   22.64    1.37
  -9  -7   3   17.23    2.01
  16  -9   3   19.83    1.20
  -7  16   3   22.32    1.37
 -16  10  -3   18.55    1.22
  10   6  -3   17.34    1.16
  -6  16   3   19.88    1.28
  16 -10   3   18.10    1.09
 -10  -6   3   15.37    1.89
 -16  11  -3    1.23    0.41
  11   5  -3    0.73    0.39
  -5  16   3    1.14    0.47
  16 -11   3    0.85    0.28
 -11  -5   3    0.69    0.85
  12   4  -3   32.59    1.71
 -16  12  -3   33.23    1.78
  -4  16   3   35.01    2.00
  16 -12   3   32.60    1.77
  -3  16   3    0.95    0.51
 -17   7  -3    2.12    0.59
  17  -7   3    2.27    0.42
  -7 -10   3    1.69    0.85
 -10  17   3    3.84    0.66
 -17   8  -3   21.69    1.43
  -8  -9   3   14.41    1.91
  -9  17   3   20.53    1.29
  17  -8   3   18.23    1.17
 -17   9  -3    2.72    0.57
  17  -9   3    2.50    0.50
  -9  -8   3    2.22    0.94
  -8  17   3    4.15    0.73
 -17  10  -3   11.23    1.01
  -7  17   3   13.18    1.03
 -10  -7   3    7.09    1.56
  17 -10   3   10.78    0.82
   0   0  -4  469.32   27.78
   0   0   4  484.77   30.00
   1  -1  -4    6.95    0.69
   0   1  -4    7.25    0.69
   0   1  -4    7.54    0.59
  -1   0  -4    6.91    0.70
   1   0   4    6.24    0.93
  -1   1   4    7.57    0.94
   0  -1   4    7.61    0.93
   1   0  -4    6.90    0.67
  -1   1  -4    6.91    0.67
   0  -1  -4    5.92    0.66
  -1   0   4    6.85    0.91
   0   1   4    6.93    0.93
   1  -1   4    6.94    0.90
  -1   2  -4   12.34    0.96
  -1  -1  -4   11.48    0.98
  -1   2  -4   12.31    0.76
   2  -1  -4   12.48    0.98
   1   1   4   12.33    1.20
   1  -2   4   12.17    1.18
  -2   1   4   12.06    1.20
  -2  -1  -4   29.88    2.05
  -1   3  -4   31.13    2.01
   3  -2  -4   31.40    2.04
  -1   3  -4   30.00    1.47
   2   1   4   31.68    2.30
   1  -3   4   30.29    2.26
  -3   2   4   30.80    2.28
   0   2  -4    1.63    0.34
   0   2  -4    1.26    0.33
  -2   0  -4    1.46    0.36
   2  -2  -4    1.96    0.42
   2   0   4    1.37    0.53
  -2   2   4    1.37    0.50
   0  -2   4    1.80    0.51
   1   1  -4   12.30    0.96
   1   1  -4   12.04    0.79
  -2   1  -4   12.30    0.97
   1  -2  -4   11.91    0.98
  -1  -1   4   12.70    1.18
  -1   2   4   11.52    1.21
   2  -1   4   12.68    1.20
   2   0  -4    1.63    0.38
  -2   2  -4    1.43    0.32
  -2   2  -4    1.69    0.40
   2   0  -4    1.56    0.35
   0  -2  -4    1.61    0.37
  -2   0   4    2.32    0.56
   2  -2   4    1.52    0.51
   0   2   4    0.92    0.49
  -2   3  -4    6.17    0.64
  -1  -2  -4    6.23    0.68
   3  -1  -4    7.05    0.67
  -2   3  -4    7.28    0.60
   1   2   4    6.52    0.94
   2  -3   4    6.72    0.91
  -3   1   4    6.00    0.89
  -2  -2  -4    5.45    0.65
   4  -2  -4    5.47    0.61
  -2   4  -4    5.93    0.59
  -2   4  -4    5.50    0.57
   2   2   4    5.48    0.90
   2  -4   4    5.21    0.84
  -4   2   4    5.16    0.84
  -2   5  -4   11.38    0.79
  -3  -2  -4   11.36    0.99
  -2   5  -4   11.75    0.91
   5  -3  -4   11.88    0.95
  -5   3   4   11.77    1.17
   3   2   4   11.73    1.20
   2  -5   4   11.12    1.16
   4  -3  -4  152.38    8.94
  -1   4  -4  154.80    8.90
  -3  -1  -4  145.52    8.96
  -1   4  -4  152.61    6.23
  -4   3   4  144.99    9.68
   1  -4   4  149.95    9.66
   3   1   4  152.66    9.69
   0   3  -4    0.25    0.27
   0   3  -4    0.39    0.25
  -3   0  -4    0.00    0.23
   3  -3  -4    0.19    0.25
   0  -3   4   -0.03    0.40
  -3   3   4    0.07    0.41
   3   0   4    0.37    0.47
   1   2  -4    6.47    0.60
   1   2  -4    6.53    0.64
  -3   1  -4    6.40    0.67
   2  -3  -4    6.43    0.68
  -1  -2   4    6.44    0.89
  -2   3   4    6.39    0.93
   3  -1   4    6.86    0.93
   1  -3  -4   29.78    2.04
   2   1  -4   29.43    1.48
   2   1  -4   32.54    2.01
  -3   2  -4   29.69    2.01
   3  -2   4   31.79    2.27
  -1   3   4   30.35    2.30
  -2  -1   4   30.39    2.24
   3   0  -4    1.04    0.31
  -3   3  -4    0.60    0.27
   0  -3  -4    0.03    0.25
   3   0  -4    0.03    0.29
  -3   3  -4   -0.06    0.25
   3  -3   4   -0.22    0.39
  -3   0   4    0.57    0.46
   0   3   4   -0.21    0.40
  -3   4  -4   17.54    1.20
   4  -1  -4   16.38    1.20
  -1  -3  -4   16.84    1.26
  -3   4  -4   16.14    0.95
   1   3   4   15.21    1.47
   3  -4   4   17.29    1.45
  -4   1   4   15.14    1.39
  -3   5  -4   43.53    1.94
  -3   5  -4   41.70    2.63
  -2  -3  -4   40.22    2.71
   5  -2  -4   40.46    2.65
   2   3   4   41.05    2.97
   3  -5   4   42.43    2.95
  -5   2   4   42.51    2.93
  -3  -3  -4    0.12    0.29
  -3   6  -4   -0.03    0.26
   6  -3  -4   -0.16    0.21
   3  -6   4    0.20    0.47
   3   3   4   -0.08    0.44
  -6   3   4    0.05    0.40
  -4  -3  -4    0.11    0.30
  -3   7  -4    0.33    0.30
   7  -4  -4   -0.02    0.24
   3  -7   4    0.13    0.48
  -7   4   4    0.15    0.39
   4   3   4    0.32    0.46
   6  -4  -4   75.51    4.57
  -2   6  -4   77.54    3.26
  -4  -2  -4   71.79    4.63
  -2   6  -4   75.00    4.53
  -6   4   4   75.30    4.99
   4   2   4   74.84    5.00
   2  -6   4   73.58    4.98
  -1   5  -4   12.60    0.97
   5  -4  -4   13.42    1.02
  -4  -1  -4   12.59    1.05
  -1   5  -4   12.61    0.83
   1  -5   4   11.83    1.21
   4   1   4   12.50    1.23
  -5   4   4   12.45    1.24
  -4   0  -4    0.81    0.32
   4  -4  -4    0.68    0.30
   0   4  -4    1.14    0.30
   0   4  -4    0.68    0.32
   0  -4   4    1.14    0.50
   4   0   4    0.65    0.49
  -4   4   4    1.10    0.50
   1   3  -4   16.72    1.18
   3  -4  -4   16.75    1.23
   1   3  -4   16.29    0.95
  -4   1  -4   16.18    1.21
  -3   4   4   15.43    1.46
   4  -1   4   15.76    1.42
  -1  -3   4   15.54    1.38
   2   2  -4    6.13    0.59
  -4   2  -4    5.50    0.61
   2   2  -4    5.19    0.57
   2  -4  -4    4.99    0.62
  -2  -2   4    4.83    0.82
   4  -2   4    5.42    0.84
  -2   4   4    4.85    0.89
   1  -4  -4  144.91    9.00
   3   1  -4  154.96    8.97
  -4   3  -4  153.44    8.98
  -4   3  -4  150.45    6.25
   3   1  -4  152.88    6.28
  -3  -1   4  154.98    9.71
  -1   4   4  146.98    9.77
   4  -3   4  151.91    9.73
   4   0  -4    0.95    0.30
  -4   4  -4    0.76    0.29
   4   0  -4    0.40    0.33
   0  -4  -4    0.86    0.34
  -4   4  -4    0.83    0.30
   4  -4   4    0.70    0.53
   0   4   4    0.72    0.50
  -4   0   4    1.58    0.52
   5  -1  -4   15.10    1.15
  -4   5  -4   16.22    1.14
   5  -1  -4   14.84    0.95
  -1  -4  -4   15.67    1.23
  -4   5  -4   16.25    0.94
  -5   1   4   15.24    1.35
   4  -5   4   15.63    1.41
   1   4   4   14.67    1.43
  -2  -4  -4   12.56    1.05
  -4   6  -4   11.91    0.81
   6  -2  -4   11.25    0.95
   2   4   4   11.74    1.25
  -6   2   4   11.59    1.15
   4  -6   4   11.40    1.22
  -3  -4  -4    5.20    0.71
  -4   7  -4    6.16    0.63
   7  -3  -4    6.11    0.64
   4  -7   4    5.43    0.93
   3   4   4    5.95    0.94
  -7   3   4    6.19    0.87
   8  -4  -4   11.65    0.98
  -4   8  -4   11.98    0.86
  -4  -4  -4   12.63    1.13
   4   4   4   12.39    1.24
   4  -8   4   12.19    1.29
  -8   4   4   12.32    1.19
   9  -5  -4   54.26    3.41
  -4   9  -4   56.70    2.51
  -5  -4  -4   54.55    3.59
  -9   5   4   53.12    3.72
   4  -9   4   53.07    3.81
   5   4   4   55.20    3.77
  -3   8  -4   24.92    1.35
  -5  -3  -4   24.76    1.87
   8  -5  -4   26.21    1.75
  -8   5   4   26.31    1.98
   3  -8   4   25.68    2.03
   5   3   4   24.57    1.98
  -5  -2  -4   30.93    2.14
  -2   7  -4   31.38    1.54
   7  -5  -4   29.73    2.03
   5   2   4   30.88    2.29
  -7   5   4   30.39    2.29
   2  -7   4   30.88    2.30
  -1   6  -4    6.18    0.64
  -5  -1  -4    6.12    0.73
  -1   6  -4    6.80    0.64
   6  -5  -4    6.31    0.68
  -6   5   4    6.54    0.93
   5   1   4    6.67    0.95
   1  -6   4    6.56    0.93
   0   5  -4   29.94    1.47
   0   5  -4   30.22    1.92
  -5   0  -4   28.53    1.99
   5  -5  -4   29.05    1.96
  -5   5   4   28.69    2.22
   0  -5   4   28.72    2.17
   5   0   4   29.41    2.20
   4  -5  -4   15.41    1.16
   1   4  -4   15.41    0.92
   1   4  -4   16.32    1.12
  -5   1  -4   14.43    1.16
  -1  -4   4   13.97    1.32
   5  -1   4   14.94    1.36
  -4   5   4   13.58    1.40
  -5   2  -4   42.36    2.66
   2   3  -4   42.03    1.93
   2   3  -4   41.27    2.62
   3  -5  -4   39.84    2.66
  -3   5   4   41.79    3.00
   5  -2   4   39.94    2.91
  -2  -3   4   42.30    2.89
   2  -5  -4   11.09    0.97
  -5   3  -4   12.09    0.95
   3   2  -4   10.85    0.91
   3   2  -4   11.55    0.81
  -2   5   4   10.89    1.24
   5  -3   4   12.59    1.21
  -3  -2   4   11.83    1.14
   4   1  -4   11.88    0.85
   1  -5  -4   12.07    1.04
   4   1  -4   12.83    0.99
  -5   4  -4   13.01    0.99
  -5   4  -4   13.07    0.83
  -4  -1   4   13.11    1.19
  -1   5   4   12.04    1.32
   5  -4   4   12.56    1.25
   0  -5  -4   28.61    2.04
  -5   5  -4   31.07    1.99
  -5   5  -4   30.37    1.48
   5   0  -4   29.05    1.96
   5   0  -4   29.25    1.50
   0   5   4   28.91    2.31
   5  -5   4   30.80    2.26
  -5   0   4   30.50    2.19
  -1  -5  -4   27.83    1.96
   6  -1  -4   28.23    1.45
   6  -1  -4   28.31    1.88
  -5   6  -4   27.82    1.42
  -6   1   4   28.84    2.10
   1   5   4   27.25    2.20
   5  -6   4   28.35    2.16
  -2  -5  -4  187.80   11.40
   7  -2  -4  191.95    7.90
  -5   7  -4  195.14    7.91
   7  -2  -4  190.84   11.30
   5  -7   4  190.43   12.26
  -7   2   4  193.55   12.21
   2   5   4  190.41   12.29
  -3  -5  -4    1.53    0.47
  -5   8  -4    2.05    0.40
   8  -3  -4    1.84    0.43
   5  -8   4    2.21    0.65
   3   5   4    1.63    0.58
  -8   3   4    2.38    0.55
  -4  -5  -4    9.16    1.03
  -5   9  -4    9.47    0.78
  -9   4   4    9.88    1.05
   4   5   4   10.39    1.14
   5  -9   4   10.12    1.24
  -5  10  -4    2.42    0.43
  -5  -5  -4    1.80    0.60
   5   5   4    1.76    0.59
   5 -10   4    2.12    0.78
 -10   5   4    2.08    0.55
  -6  -5  -4   51.01    3.57
  -5  11  -4   53.59    2.43
   5 -11   4   49.95    3.79
 -11   6   4   54.52    3.35
 -11   6   4   49.61    3.56
  -4  10  -4    0.89    0.37
  -6  -4  -4    0.53    0.46
  10  -6  -4    0.74    0.32
   4 -10   4    1.03    0.68
 -10   6   4    0.60    0.44
  -6  -3  -4   11.62    1.17
  -3   9  -4   12.75    0.88
   9  -6  -4   12.07    1.00
  -9   6   4   12.52    1.23
   6   3   4   12.66    1.24
   3  -9   4   12.22    1.33
   8  -6  -4   57.70    3.61
  -6  -2  -4   57.54    3.74
  -2   8  -4   58.72    2.63
   6   2   4   58.06    3.95
   2  -8   4   59.17    3.99
  -8   6   4   56.57    3.97
  -1   7  -4    0.28    0.30
   7  -6  -4    0.10    0.25
  -6  -1  -4    0.35    0.32
  -7   6   4    0.33    0.44
   6   1   4   -0.19    0.45
   1  -7   4    0.16    0.48
   0   6  -4    4.54    0.58
  -6   0  -4    4.21    0.62
   6  -6  -4    4.80    0.59
   6   0   4    4.56    0.82
   0  -6   4    3.15    0.81
  -6   6   4    4.56    0.87
   1   5  -4   27.42    1.44
   5  -6  -4   30.18    1.95
  -6   1  -4   27.92    1.94
  -5   6   4   28.56    2.22
  -1  -5   4   28.05    2.12
   6  -1   4   28.35    2.15
   2   4  -4   11.92    0.83
   4  -6  -4   11.54    1.00
  -6   2  -4   11.79    1.00
  -4   6   4   11.37    1.29
  -2  -4   4   11.95    1.16
   6  -2   4   13.57    1.22
  -6   3  -4    0.12    0.23
   3   3  -4    0.13    0.29
   3  -6  -4    0.55    0.30
   6  -3   4   -0.27    0.44
  -3   6   4    0.01    0.46
  -3  -3   4    0.27    0.42
   2  -6  -4   73.26    4.58
  -6   4  -4   74.73    3.22
   4   2  -4   72.97    3.24
  -6   4  -4   75.62    4.53
   6  -4   4   77.02    4.97
  -4  -2   4   74.13    4.91
  -2   6   4   71.56    5.04
   1  -6  -4    5.03    0.69
  -6   5  -4    6.72    0.62
   5   1  -4    5.50    0.65
  -5  -1   4    6.06    0.85
  -1   6   4    7.87    1.07
   6  -5   4    6.05    0.95
  -6   6  -4    3.51    0.55
   6   0  -4    3.97    0.61
   0  -6  -4    4.40    0.65
   6  -6   4    5.14    0.91
  -6   0   4    4.34    0.77
   0   6   4    5.49    1.01
  -1  -6  -4    0.88    0.38
  -6   7  -4    0.77    0.31
   7  -1  -4    1.16    0.39
   1   6   4    1.02    0.56
  -7   1   4    0.94    0.45
   6  -7   4    1.03    0.56
  -2  -6  -4    4.31    0.69
   8  -2  -4    4.55    0.63
  -6   8  -4    5.16    0.61
   2   6   4    3.39    0.92
  -8   2   4    3.79    0.76
   6  -8   4    4.25    0.96
  -8   2   4    4.49    0.66
  -3  -6  -4   18.29    1.60
  -6   9  -4   22.15    1.19
  -9   3   4   19.84    1.64
   6  -9   4   19.78    1.82
  -9   3   4   22.99    1.56
   3   6   4   20.22    1.77
  -6  10  -4   42.45    2.00
  -4  -6  -4   40.00    2.87
 -10   4   4   40.66    2.90
   6 -10   4   40.30    3.11
 -10   4   4   42.22    2.74
   4   6   4   42.20    3.00
  -5  -6  -4   18.94    1.66
  -6  11  -4   17.63    1.12
   5   6   4   17.90    1.33
   6 -11   4   18.77    1.87
 -11   5   4   17.86    1.45
  -6  -6  -4   14.08    1.49
  -6  12  -4   13.36    0.95
 -12   6   4   13.96    1.24
   6   6   4   12.17    1.06
   6 -12   4   12.62    1.71
  -6  13  -4    7.64    0.78
  -7  -6  -4    7.13    1.27
   7   6   4    6.26    0.83
 -13   7   4    8.08    0.98
   6 -13   4    5.95    1.56
  -5  12  -4    6.13    0.72
  -7  -5  -4    3.61    0.87
 -12   7   4    4.75    0.78
   7   5   4    3.64    0.69
   5 -12   4    6.10    1.34
  -7  -4  -4   12.15    1.36
  -4  11  -4   12.50    0.93
   4 -11   4   12.56    1.55
 -11   7   4   13.42    1.28
  -3  10  -4   79.35    3.36
  10  -7  -4   74.98    4.64
  -7  -3  -4   77.26    4.89
 -10   7   4   74.03    5.07
   3 -10   4   72.85    5.16
  -2   9  -4    9.63    0.81
   9  -7  -4   10.08    0.89
  -7  -2  -4   10.23    1.07
  -9   7   4    9.88    1.11
   2  -9   4   10.06    1.21
  -1   8  -4   35.55    1.69
  -7  -1  -4   34.28    2.36
   8  -7  -4   33.41    2.23
   1  -8   4   33.02    2.51
  -8   7   4   32.81    2.52
   7   1   4   33.85    2.48
  -7   0  -4    7.68    0.83
   7  -7  -4    8.20    0.77
   0   7  -4    8.71    0.72
   0  -7   4    7.17    0.99
   0  -7   4    7.22    0.76
   7   0   4    7.05    0.97
  -7   7   4    6.92    1.03
   6  -7  -4    0.55    0.32
  -7   1  -4    0.59    0.33
   1   6  -4    0.87    0.35
  -1  -6   4    1.50    0.38
  -1  -6   4    0.45    0.47
  -6   7   4    0.80    0.50
   7  -1   4    0.36    0.47
  -7   2  -4  191.99   11.53
   2   5  -4  196.57    8.04
   5  -7  -4  196.50   11.53
  -2  -5   4  193.36   12.41
  -5   7   4  196.45   12.55
   7  -2   4  197.05   12.44
  -2  -5   4  191.70   11.48
  -7   3  -4    6.44    0.69
   3   4  -4    6.05    0.65
   4  -7  -4    6.01    0.70
  -3  -4   4    6.15    0.69
  -4   7   4    6.13    1.06
  -3  -4   4    5.75    0.85
   7  -3   4    6.23    0.94
   4   3  -4    0.07    0.30
   3  -7  -4   -0.02    0.26
  -7   4  -4    0.12    0.25
  -4  -3   4    0.16    0.41
   7  -4   4    0.09    0.47
  -4  -3   4    0.17    0.30
  -3   7   4    0.67    0.55
   5   2  -4   30.22    1.54
   2  -7  -4   29.63    2.08
  -7   5  -4   33.13    1.55
  -5  -2   4   30.44    2.04
  -2   7   4   29.08    2.42
  -5  -2   4   29.51    2.20
   7  -5   4   31.32    2.30
  -7   6  -4    0.38    0.29
   1  -7  -4    0.50    0.33
   6   1  -4    0.41    0.35
  -6  -1   4    0.37    0.34
  -6  -1   4   -0.11    0.39
   7  -6   4    0.24    0.51
  -1   7   4    0.34    0.54
   7   0  -4    7.56    0.75
   0  -7  -4    7.05    0.83
  -7   7  -4    8.39    0.70
  -7   0   4    8.52    0.83
   0   7   4    7.97    1.17
  -7   0   4    7.60    0.93
   7  -7   4    7.77    1.08
  -1  -7  -4   44.16    2.94
  -7   8  -4   46.40    2.10
   8  -1  -4   42.58    2.09
  -8   1   4   45.51    3.07
  -8   1   4   45.02    2.87
   1   7   4   42.66    3.24
   7  -8   4   42.97    3.19
  -7   9  -4    1.36    0.37
  -2  -7  -4    1.75    0.50
   9  -2  -4    1.15    0.40
   2   7   4    1.85    0.65
   7  -9   4    1.43    0.67
  -9   2   4    1.19    0.47
  -9   2   4    2.13    0.50
  10  -3  -4    7.12    0.71
  -3  -7  -4    6.32    0.91
  -7  10  -4    7.66    0.72
   3   7   4    5.80    1.06
 -10   3   4    6.06    0.81
   7 -10   4    6.26    1.23
  -7  11  -4    0.39    0.35
  -4  -7  -4   -0.06    0.44
   4   7   4   -0.31    0.43
 -11   4   4    0.04    0.40
   7 -11   4    0.40    0.75
   4   7   4    0.38    0.52
  -7  12  -4   -0.19    0.31
  -5  -7  -4    0.69    0.56
 -12   5   4    0.00    0.42
   5   7   4   -0.25    0.40
   7 -12   4    0.11    0.82
  -6  -7  -4   53.67    3.88
  -7  13  -4   54.55    2.54
   7 -13   4   51.98    4.18
   6   7   4   54.09    2.85
 -13   6   4   54.58    3.54
  -8  -5  -4   26.39    2.46
  -5  13  -4   28.21    1.56
   8   5   4   29.55    1.72
 -13   8   4   30.89    2.11
   5 -13   4   27.73    2.72
  -4  12  -4   15.09    1.02
  -8  -4  -4   13.18    1.55
   8   4   4   13.12    1.04
   4 -12   4   14.33    1.79
 -12   8   4   16.18    1.29
 -12   8   4   14.23    1.37
  11  -8  -4   36.50    2.42
  -3  11  -4   38.87    1.87
  -8  -3  -4   36.49    2.75
 -11   8   4   36.70    2.69
   3 -11   4   35.81    2.90
  -2  10  -4   20.98    1.23
  -8  -2  -4   21.51    1.76
  10  -8  -4   21.53    1.52
   2 -10   4   19.74    1.87
 -10   8   4   20.40    1.75
  -8  -1  -4   45.81    3.00
   9  -8  -4   42.59    2.81
  -1   9  -4   44.87    2.10
  -9   8   4   43.32    3.15
   1  -9   4   42.59    3.15
   0   8  -4   11.07    0.86
   8  -8  -4   12.41    1.00
  -8   0  -4   11.76    1.11
  -8   8   4   11.18    1.27
   0  -8   4   12.30    1.26
  -8   1  -4   44.78    2.92
   1   7  -4   43.44    2.09
   7  -8  -4   45.06    2.85
  -1  -7   4   42.15    3.10
  -7   8   4   43.92    3.23
   8  -1   4   47.18    3.12
  -1  -7   4   43.06    2.83
  -8   2  -4    4.49    0.63
   6  -8  -4    4.65    0.62
   2   6  -4    4.04    0.60
  -6   8   4    4.15    0.99
   8  -2   4    3.98    0.85
  -2  -6   4    3.82    0.79
  -2  -6   4    4.55    0.64
   3   5  -4    2.41    0.44
   5  -8  -4    1.76    0.43
  -8   3  -4    1.93    0.48
  -3  -5   4    1.88    0.43
  -3  -5   4    1.69    0.53
   8  -3   4    1.60    0.57
  -5   8   4    2.08    0.72
   4   4  -4   12.16    0.87
   4  -8  -4   12.42    1.05
  -4   8   4   11.85    1.41
   8  -4   4   12.58    1.24
  -4  -4   4   12.44    1.04
  -4  -4   4   11.93    1.15
  -8   5  -4   26.11    1.36
   3  -8  -4   24.38    1.79
   5   3  -4   24.65    1.35
  -3   8   4   23.65    2.14
  -5  -3   4   25.74    1.77
  -5  -3   4   24.88    1.90
   8  -5   4   26.80    2.02
  -8   6  -4   62.01    2.67
   6   2  -4   58.86    2.65
   2  -8  -4   57.52    3.70
   8  -6   4   59.04    4.01
  -6  -2   4   57.37    3.91
  -6  -2   4   57.60    3.66
  -2   8   4   55.85    4.15
  -8   7  -4   35.91    1.70
   1  -8  -4   32.50    2.30
   7   1  -4   35.11    1.70
  -7  -1   4   33.26    2.26
  -7  -1   4   32.51    2.39
  -1   8   4   32.55    2.65
   8  -7   4   33.50    2.52
   0  -8  -4   11.32    1.10
   8   0  -4   10.43    0.88
  -8   8  -4   13.04    0.88
  -8   0   4   12.09    1.07
   0   8   4   12.19    1.42
   8  -8   4   11.44    1.34
  -8   0   4   12.11    1.14
   9  -1  -4   25.64    1.39
  -1  -8  -4   24.43    1.90
  -8   9  -4   28.24    1.41
   1   8   4   25.12    2.17
   8  -9   4   26.13    2.17
  -9   1   4   26.90    1.85
  -9   1   4   23.91    1.93
  10  -2  -4   30.46    1.64
  -2  -8  -4   32.40    2.38
  -8  10  -4   33.20    1.68
   8 -10   4   33.36    2.66
   2   8   4   34.17    2.60
 -10   2   4   33.60    2.28
  -8  11  -4   12.35    0.93
  -3  -8  -4   14.54    1.37
  11  -3  -4   11.33    0.91
   8 -11   4   12.61    1.63
   3   8   4   12.56    1.20
 -11   3   4   14.36    1.23
   3   8   4   12.81    1.43
  -8  12  -4   61.78    2.89
  12  -4  -4   64.67    2.96
  -4  -8  -4   66.11    4.31
   4   8   4   61.11    3.28
   8 -12   4   61.77    4.65
 -12   4   4   64.75    4.08
  -8  13  -4    0.00    0.33
  -5  -8  -4    0.65    0.61
 -13   5   4    0.71    0.51
   8 -13   4    0.21    0.98
   5   8   4    0.03    0.47
  -9  -4  -4    3.11    0.93
 -13   9   4    2.97    0.73
   9   4   4    2.97    0.54
  -3  12  -4   15.60    1.02
  -9  -3  -4   13.98    1.57
   3 -12   4   12.80    1.72
   9   3   4   12.29    1.00
 -12   9   4   13.36    1.34
  11  -9  -4    3.85    0.58
  -2  11  -4    3.74    0.64
  -9  -2  -4    4.42    0.94
 -11   9   4    3.39    0.84
   2 -11   4    2.96    0.91
  -1  10  -4   33.04    1.64
  10  -9  -4   29.72    2.09
  -9  -1  -4   33.46    2.37
 -10   9   4   29.95    2.41
   1 -10   4   30.86    2.48
   9  -9  -4   30.98    2.17
   0   9  -4   34.90    1.69
  -9   0  -4   33.82    2.37
  -9   9   4   33.13    2.54
   0  -9   4   31.34    2.49
   1   8  -4   26.29    1.43
   8  -9  -4   26.83    1.85
  -9   1  -4   27.58    1.97
  -8   9   4   25.94    2.20
  -1  -8   4   26.88    2.10
   7  -9  -4    1.60    0.41
  -9   2  -4    1.73    0.46
   2   7  -4    1.79    0.41
  -7   9   4    1.51    0.66
  -2  -7   4    1.30    0.55
  -2  -7   4    1.71    0.47
   6  -9  -4   18.28    1.45
   3   6  -4   19.73    1.17
  -9   3  -4   21.78    1.57
  -3  -6   4   19.27    1.49
  -6   9   4   19.64    1.87
  -3  -6   4   19.48    1.62
   9  -3   4   21.39    1.67
   5  -9  -4    9.83    0.92
   4   5  -4    9.66    0.79
  -4  -5   4    9.60    0.94
   9  -4   4   10.01    1.12
  -4  -5   4    8.88    1.04
  -5   9   4   10.75    1.37
   5   4  -4   56.78    2.51
   4  -9  -4   55.49    3.47
  -5  -4   4   54.16    3.68
   9  -5   4   56.23    3.77
  -5  -4   4   53.66    3.45
  -4   9   4   49.32    3.93
  -9   6  -4   12.82    0.89
   3  -9  -4   11.42    1.05
   6   3  -4   12.46    0.89
  -6  -3   4   11.67    1.06
   9  -6   4   11.69    1.29
  -6  -3   4   11.81    1.13
  -3   9   4   10.88    1.47
   2  -9  -4    8.08    0.92
  -9   7  -4    9.05    0.79
   7   2  -4    9.93    0.82
  -7  -2   4    9.76    0.95
   9  -7   4   10.83    1.19
  -7  -2   4    9.45    1.00
  -2   9   4    8.48    1.34
  -9   8  -4   48.44    2.13
   8   1  -4   43.67    2.10
   1  -9  -4   42.17    2.91
  -1   9   4   38.68    3.27
  -8  -1   4   43.19    3.01
  -8  -1   4   45.31    2.89
   9  -8   4   45.08    3.19
   0  -9  -4   31.02    2.28
  -9   9  -4   34.77    1.68
   9   0  -4   32.20    1.66
   9  -9   4   33.72    2.58
  -9   0   4   32.91    2.25
   0   9   4   28.67    2.58
  -1  -9  -4   17.23    1.50
  -9  10  -4   17.03    1.09
  10  -1  -4   17.98    1.10
 -10   1   4   17.67    1.45
   9 -10   4   18.24    1.84
   1   9   4   17.00    1.77
  -2  -9  -4    4.38    0.86
  -9  11  -4    4.76    0.65
  11  -2  -4    4.65    0.67
   2   9   4    4.21    1.10
   9 -11   4    3.31    1.02
 -11   2   4    4.25    0.81
  -3  -9  -4   33.48    2.64
  12  -3  -4   35.42    1.80
  -9  12  -4   35.09    1.81
   3   9   4   36.29    2.09
   3   9   4   37.24    2.78
 -12   3   4   35.82    2.52
   9 -12   4   35.27    3.04
  13  -4  -4   18.52    1.15
  -9  13  -4   19.17    1.19
 -13   4   4   19.09    1.61
   9 -13   4   14.90    2.16
   4   9   4   18.24    1.33
 -10  -3  -4   11.20    1.59
 -13  10   4   13.65    1.20
  10   3   4   12.00    0.99
 -13  10   4   12.35    1.37
 -10  -2  -4   23.45    2.13
  -2  12  -4   24.02    1.38
  12 -10  -4   23.63    1.68
   2 -12   4   21.69    2.26
  10   2   4   23.87    1.46
 -12  10   4   23.69    1.96
  -1  11  -4    3.99    0.57
  11 -10  -4    3.19    0.57
 -10  -1  -4    3.63    0.83
   1 -11   4    3.95    1.00
 -11  10   4    3.40    0.91
 -10   0  -4    1.11    0.54
  10 -10  -4    0.63    0.33
   0  10  -4    0.61    0.39
 -10  10   4    1.11    0.60
   0 -10   4    1.21    0.72
   1   9  -4   18.38    1.14
 -10   1  -4   18.83    1.54
   9 -10  -4   17.88    1.36
  -9  10   4   16.78    1.73
  -1  -9   4   18.56    1.66
   8 -10  -4   32.48    2.20
 -10   2  -4   34.45    2.31
   2   8  -4   33.33    1.68
  -2  -8   4   33.54    2.46
  -8  10   4   29.86    2.60
  -2  -8   4   31.92    2.34
   3   7  -4    7.01    0.72
   7 -10  -4    5.87    0.73
  -3  -7   4    6.47    0.84
  -3  -7   4    6.54    0.97
  -7  10   4    7.55    1.23
   4   6  -4   38.12    1.92
   6 -10  -4   38.70    2.58
  -4  -6   4   39.61    2.63
  -4  -6   4   39.77    2.78
  -6  10   4   39.09    3.08
   5   5  -4    1.67    0.43
   5 -10  -4    1.56    0.42
  -5  10   4    1.29    0.74
  -5  -5   4    1.50    0.51
  10  -5   4    1.74    0.61
  -5  -5   4    2.20    0.53
   4 -10  -4    0.60    0.36
 -10   6  -4    0.95    0.36
   6   4  -4    0.32    0.37
  -4  10   4    0.55    0.65
  -6  -4   4    0.49    0.46
  -6  -4   4    0.94    0.44
  10  -6   4    0.75    0.56
   7   3  -4   74.62    3.31
   3 -10  -4   74.44    4.65
 -10   7  -4   81.56    3.36
  -3  10   4   62.63    5.18
  -7  -3   4   73.11    4.65
  -7  -3   4   73.01    4.90
  10  -7   4   80.58    5.04
   2 -10  -4   17.92    1.51
   8   2  -4   20.04    1.19
 -10   8  -4   22.35    1.23
  -8  -2   4   19.78    1.55
  10  -8   4   19.76    1.80
  -2  10   4   17.00    1.92
   9   1  -4   30.47    1.61
   1 -10  -4   30.10    2.20
 -10   9  -4   30.29    1.62
  10  -9   4   32.55    2.51
  -1  10   4   28.67    2.57
  -9  -1   4   31.77    2.20
 -10  10  -4    1.59    0.41
   0 -10  -4    1.27    0.51
  10   0  -4    1.53    0.43
  10 -10   4    1.59    0.82
 -10   0   4    0.77    0.50
   0  10   4    1.58    0.75
 -10  11  -4   13.50    0.95
  -1 -10  -4   11.84    1.22
  11  -1  -4   10.60    0.87
  10 -11   4   11.11    1.63
   1  10   4   11.05    1.48
 -11   1   4   10.40    1.17
 -10  12  -4   19.22    1.21
  12  -2  -4   19.26    1.20
  -2 -10  -4   18.63    1.73
 -12   2   4   19.30    1.66
   2  10   4   20.60    1.47
  10 -12   4   19.60    2.21
   2  10   4   21.44    1.94
  13  -3  -4   42.21    2.11
  10 -13   4   42.56    3.82
   3  10   4   45.39    2.47
  12 -11  -4    9.91    0.90
 -11  -1  -4    9.59    1.33
   1 -12   4   10.17    1.59
 -12  11   4    9.29    1.22
  11   1   4    7.18    0.81
   0  11  -4   53.37    2.54
  11 -11  -4   51.81    3.41
 -11   0  -4   56.72    3.78
   0 -11   4   53.24    3.96
 -11  11   4   55.25    3.91
   1  10  -4   11.59    0.93
 -11   1  -4   11.68    1.26
  10 -11  -4   11.11    1.01
  -1 -10   4   12.47    1.44
 -10  11   4   13.04    1.46
   9 -11  -4    4.91    0.64
   2   9  -4    4.39    0.69
  -2  -9   4    3.87    0.85
  -9  11   4    4.97    1.16
   8 -11  -4   12.68    1.08
   3   8  -4   12.31    0.94
  -3  -8   4   12.73    1.25
  -8  11   4   12.10    1.56
  -3  -8   4   12.17    1.31
   7 -11  -4   -0.06    0.29
   4   7  -4    0.55    0.37
  -4  -7   4    0.38    0.52
  -4  -7   4    0.44    0.48
  -7  11   4   -0.33    0.60
   6 -11  -4   18.06    1.36
   5   6  -4   18.30    1.13
  -6  11   4   15.79    1.85
  -5  -6   4   17.14    1.46
  -5  -6   4   16.49    1.49
   6   5  -4   50.84    2.28
   5 -11  -4   48.80    3.08
  -6  -5   4   47.25    3.26
  -6  -5   4   47.05    3.15
  -5  11   4   41.17    3.59
   4 -11  -4   10.70    1.07
 -11   7  -4   12.90    0.97
   7   4  -4   12.93    0.95
  11  -7   4   12.27    1.42
  -4  11   4    9.95    1.58
  -7  -4   4   12.35    1.19
   8   3  -4   36.00    1.83
   3 -11  -4   33.64    2.45
 -11   8  -4   39.86    1.90
  -8  -3   4   36.57    2.53
  11  -8   4   37.09    2.77
  -3  11   4   32.41    2.94
 -11   9  -4    5.11    0.69
   9   2  -4    4.20    0.70
   2 -11  -4    3.36    0.70
  -9  -2   4    3.18    0.71
  11  -9   4    3.99    0.94
  -2  11   4    4.36    1.09
  10   1  -4    2.73    0.54
   1 -11  -4    2.81    0.64
 -11  10  -4    3.32    0.53
  11 -10   4    3.39    1.01
 -10  -1   4    3.44    0.74
  -1  11   4    3.18    0.94
  11   0  -4   52.03    2.43
 -11  11  -4   54.92    2.50
   0 -11  -4   50.54    3.49
 -11   0   4   52.45    3.50
   0  11   4   51.18    3.88
  11 -11   4   50.33    3.94
  -1 -11  -4   -0.27    0.44
 -11  12  -4    0.92    0.39
  12  -1  -4    0.10    0.37
   1  11   4   -0.30    0.49
  11 -12   4    0.54    0.98
   1  11   4    0.40    0.69
 -12   1  -4   -0.02    0.48
  11 -12  -4   -0.09    0.28
 -11  12   4    0.36    0.62
  -1 -11   4    0.52    0.77
   2  10  -4   20.51    1.24
  10 -12  -4   20.01    1.47
  -2 -10   4   18.39    1.87
 -10  12   4   19.06    1.96
   3   9  -4   36.27    1.82
   9 -12  -4   33.98    2.32
  -3  -9   4   34.66    2.66
  -9  12   4   33.69    2.88
   8 -12  -4   64.88    3.95
   4   8  -4   64.41    2.89
  -4  -8   4   60.77    4.28
  -8  12   4   57.24    4.55
  -4  -8   4   64.31    4.13
   5   7  -4   -0.20    0.38
   7 -12  -4    0.10    0.32
  -5  -7   4    0.26    0.54
  -7  12   4    0.33    0.66
  -5  -7   4    0.17    0.55
   6   6  -4   12.04    0.95
   6 -12  -4   12.09    1.09
  -6  -6   4   13.48    1.31
  -6  12   4   10.87    1.64
 -12   7  -4    5.35    0.79
   7   5  -4    4.77    0.73
   5 -12  -4    5.43    0.75
  -5  12   4    5.48    1.25
  -7  -5   4    4.68    0.92
   8   4  -4   14.96    1.04
   4 -12  -4   13.16    1.20
 -12   8  -4   15.50    1.09
  -4  12   4   11.14    1.72
  -8  -4   4   13.68    1.37
 -12   9  -4   13.77    1.03
   9   3  -4   13.10    1.00
   3 -12  -4   12.51    1.18
  -3  12   4   10.55    1.68
  -9  -3   4   12.45    1.33
 -12  10  -4   25.65    1.40
  10   2  -4   22.69    1.32
   2 -12  -4   20.73    1.72
  -2  12   4   18.19    2.17
  12 -10   4   22.70    2.19
 -10  -2   4   22.23    1.86
   1 -12  -4    8.96    1.07
 -12  11  -4   10.37    0.90
  11   1  -4    9.27    0.87
  12 -11   4    8.88    1.65
  -1  12   4    9.05    1.54
  10 -13  -4   41.64    2.74
  -3 -10   4   40.16    3.16
   9 -13  -4   20.13    1.48
  -9  13   4   17.04    2.05
   5   8  -4    0.25    0.41
   8 -13  -4    0.26    0.34
  -5  -8   4    0.31    0.66
  -8  13   4   -0.05    0.69
   7 -13  -4   53.17    3.27
   6   7  -4   54.49    2.45
  -6  -7   4   51.22    3.52
  -7  13   4   40.74    3.84
   6 -13  -4    6.21    0.79
   7   6  -4    7.48    0.83
  -6  13   4    5.87    1.44
  -7  -6   4    6.43    1.10
 -13   8  -4   30.40    1.66
   5 -13  -4   28.14    1.97
   8   5  -4   27.49    1.52
  -5  13   4   20.32    2.45
  -8  -5   4   26.93    2.17
   4 -13  -4    2.62    0.67
 -13   9  -4    3.80    0.61
   9   4  -4    2.82    0.56
  -4  13   4    2.11    0.94
  -9  -4   4    3.27    0.81
   3 -13  -4   11.91    1.17
 -13  10  -4   13.47    1.06
  -3  13   4    9.53    1.83
   0   0  -5    0.17    0.30
   0   0   5    0.04    0.55
   1  -1  -5    5.78    0.73
  -1   0  -5    4.88    0.71
   0   1  -5    6.43    0.74
  -1   1   5    4.89    1.09
   0  -1   5    6.00    1.08
   1   0   5    4.61    1.06
   0  -1  -5    6.25    0.77
   1   0  -5    6.32    0.75
  -1   1  -5    6.25    0.75
  -1   0   5    5.88    1.08
   1  -1   5    4.83    1.05
   0   1   5    5.13    1.11
  -1   2  -5    4.87    0.67
   2  -1  -5    5.06    0.69
  -1  -1  -5    4.42    0.69
  -2   1   5    4.01    1.03
   1   1   5    5.00    1.08
   1  -2   5    5.37    1.03
  -2  -1  -5   61.51    3.98
  -1   3  -5   67.01    3.95
   3  -2  -5   64.73    3.97
  -3   2   5   59.37    4.37
   2   1   5   60.40    4.39
   1  -3   5   63.29    4.36
   2  -2  -5   11.17    1.04
  -2   0  -5   11.18    1.04
   0   2  -5   12.28    1.02
   0  -2   5   10.71    1.31
   2   0   5   10.93    1.36
  -2   2   5   10.24    1.34
  -2   1  -5    5.20    0.70
   1  -2  -5    5.12    0.72
   1   1  -5    4.69    0.66
   2  -1   5    4.27    1.05
  -1   2   5    4.25    1.03
  -1  -1   5    4.06    1.01
   0  -2  -5   10.20    1.01
  -2   2  -5   11.49    1.01
   2   0  -5   11.31    0.99
  -2   0   5   10.65    1.31
   2  -2   5   10.99    1.31
   0   2   5    9.68    1.34
  -1  -2  -5    3.64    0.68
  -2   3  -5    4.64    0.66
   3  -1  -5    3.93    0.64
  -3   1   5    4.31    1.03
   2  -3   5    4.15    1.04
   1   2   5    4.04    1.04
  -2   4  -5   46.17    2.80
   4  -2  -5   41.34    2.79
  -2  -2  -5   41.55    2.84
  -4   2   5   41.47    3.14
   2   2   5   42.23    3.20
   2  -4   5   43.07    3.14
  -3  -2  -5   11.75    1.10
   5  -3  -5   11.90    1.03
   2  -5   5   11.58    1.35
   3   2   5   10.24    1.37
  -5   3   5    8.99    1.31
  -3  -1  -5   13.77    1.21
  -1   4  -5   15.36    1.17
   4  -3  -5   14.37    1.19
   1  -4   5   13.80    1.47
  -4   3   5   11.62    1.46
   3   1   5   13.42    1.51
   0   3  -5   37.87    2.32
   3  -3  -5   35.04    2.35
  -3   0  -5   33.29    2.34
   0  -3   5   33.67    2.61
  -3   3   5   31.02    2.63
   3   0   5   33.56    2.66
  -3   1  -5    4.49    0.68
   2  -3  -5    4.00    0.68
   1   2  -5    4.13    0.63
  -2   3   5    2.83    0.78
  -1  -2   5    4.00    0.98
   3  -1   5    3.72    1.01
  -3   2  -5   64.05    3.96
   2   1  -5   65.45    3.95
   1  -3  -5   61.93    3.98
   3  -2   5   61.97    4.37
  -2  -1   5   61.93    4.35
  -1   3   5   60.79    4.40
   0  -3  -5   33.92    2.38
  -3   3  -5   35.37    2.34
   3   0  -5   36.19    2.34
  -3   0   5   33.93    2.64
   3  -3   5   34.54    2.68
   0   3   5   33.82    2.72
  -3   4  -5   13.09    1.08
   4  -1  -5   12.88    1.07
  -1  -3  -5   12.10    1.12
  -4   1   5   10.71    1.35
   3  -4   5   10.73    1.38
   1   3   5   10.72    1.44
  -2  -3  -5    9.49    1.01
   5  -2  -5   10.51    0.96
   2   3   5    9.60    1.34
  -5   2   5    8.93    1.25
   3  -5   5    9.67    1.30
  -3  -3  -5   11.20    1.10
   6  -3  -5    9.98    1.00
  -3   6  -5   10.35    0.92
  -6   3   5    8.94    1.28
   3   3   5   10.95    1.39
   3  -6   5    9.76    1.37
  -3   7  -5   20.37    1.23
   4   3   5   18.25    1.77
  -7   4   5   15.85    1.69
  -2   6  -5    0.08    0.39
  -4  -2  -5    0.22    0.39
  -6   4   5    0.36    0.56
   2  -6   5   -0.23    0.63
   4   2   5    0.39    0.67
  -4  -1  -5   -0.05    0.32
  -1   5  -5    0.43    0.41
   5  -4  -5   -0.21    0.30
   4   1   5   -0.12    0.59
   1  -5   5    0.11    0.59
  -5   4   5    0.23    0.60
  -4   0  -5   11.53    1.09
   4  -4  -5   11.86    1.09
   0   4  -5   13.05    1.05
   0  -4   5   11.67    1.35
  -4   4   5   11.88    1.42
   4   0   5   11.59    1.41
  -4   1  -5   12.33    1.11
   3  -4  -5   12.36    1.13
   1   3  -5   12.93    1.08
  -1  -3   5   13.08    1.39
  -3   4   5   11.58    1.44
   4  -1   5   12.11    1.41
   2   2  -5   43.72    2.83
   2  -4  -5   41.78    2.87
  -4   2  -5   46.27    2.87
  -2   4   5   42.61    3.25
  -2  -2   5   41.78    3.15
   4  -2   5   44.22    3.22
   1  -4  -5   13.13    1.21
   3   1  -5   14.21    1.16
  -4   3  -5   14.23    1.17
   4  -3   5   14.42    1.52
  -3  -1   5   13.65    1.44
  -1   4   5   13.79    1.57
   4   0  -5   12.34    1.06
   0  -4  -5   10.93    1.11
   0   4   5   13.21    1.51
  -4   0   5   11.11    1.35
   4  -4   5   13.01    1.44
   5  -1  -5    6.16    0.75
  -1  -4  -5    6.42    0.83
   4  -5   5    6.68    1.17
  -5   1   5    6.12    1.10
   1   4   5    5.51    1.18
  -2  -4  -5   44.80    3.09
   6  -2  -5   46.18    3.02
   4  -6   5   45.58    3.39
   2   4   5   46.45    3.42
  -6   2   5   45.72    3.32
  -4   7  -5    4.49    0.74
  -7   3   5    4.28    0.87
   3   4   5    3.42    0.87
  -2   7  -5   79.93    3.47
  -5  -2  -5   76.42    4.88
   5   2   5   74.89    5.22
  -7   5   5   73.81    5.34
  -1   6  -5   -0.08    0.40
  -5  -1  -5   -0.02    0.35
  -6   5   5    0.20    0.59
   5   1   5   -0.43    0.56
   5  -5  -5   15.55    1.31
   0   5  -5   17.11    1.12
  -5   0  -5   16.40    1.35
   0   5  -5   15.56    1.24
   0  -5   5   15.57    1.58
  -5   5   5   14.55    1.64
   5   0   5   16.28    1.62
  -5   1  -5    5.90    0.77
   4  -5  -5    5.03    0.75
   1   4  -5    6.82    0.73
   5  -1   5    5.65    1.10
  -4   5   5    4.86    1.15
  -1  -4   5    5.98    1.08
  -5   2  -5    9.65    0.99
   3  -5  -5    9.85    1.02
   2   3  -5   11.57    0.98
   5  -2   5   10.58    1.35
  -2  -3   5   10.55    1.27
  -3   5   5    9.68    1.39
   3   2  -5   10.76    0.98
  -5   3  -5   11.09    1.02
   2  -5  -5   10.57    1.05
   5  -3   5   11.33    1.39
  -2   5   5   10.07    1.41
  -3  -2   5   10.45    1.26
   4   1  -5    0.14    0.31
   1  -5  -5   -0.19    0.32
  -1   5   5    0.35    0.62
   5  -4   5   -0.12    0.60
  -4  -1   5   -0.25    0.50
   5   0  -5   16.64    1.29
   0  -5  -5   15.74    1.36
  -5   0   5   15.41    1.56
   5  -5   5   15.91    1.66
   0   5   5   15.66    1.73
   5  -6   5   53.01    3.88
  -6   1   5   54.51    3.77
   1   5   5   52.38    3.90
  -5   7  -5    0.27    0.40
  -7   2   5    0.32    0.59
   2   5   5    0.50    0.65
   0   6  -5   13.83    1.03
  -6   0  -5   12.48    1.19
   6   0   5   11.71    1.43
   1   5  -5   54.18    2.57
  -6   1  -5   55.24    3.53
  -1  -5   5   58.74    3.50
   6  -1   5   54.67    3.86
  -1  -5   5   51.01    3.83
  -5   6   5   50.13    4.05
   4  -6  -5   47.18    3.10
   2   4  -5   49.70    2.27
  -6   2  -5   46.02    3.04
  -2  -4   5   46.46    3.34
  -4   6   5   43.46    3.47
   6  -2   5   45.19    3.38
   3  -6  -5   11.29    1.10
   6  -3   5   10.38    1.38
  -3   6   5   11.76    1.48
  -3  -3   5   10.56    1.28
   2  -6  -5    0.26    0.41
  -2   6   5    0.09    0.62
  -4  -2   5   -0.11    0.58
   6  -4   5    0.20    0.63
  -5  -1   5    0.16    0.55
   6  -5   5   -0.32    0.62
  -1   6   5   -0.12    0.65
  -6   0   5   11.08    1.30
   0   6   5   11.11    1.62
   6  -6   5   10.11    1.51
   2   5  -5   -0.04    0.40
  -7   2  -5    0.20    0.38
  -2  -5   5    0.34    0.43
   7  -2   5   -0.12    0.63
   3   4  -5    3.72    0.63
  -3  -4   5    4.24    0.77
  -3  -4   5    4.16    0.98
   7  -3   5    4.00    0.90
   4   3  -5   19.25    1.23
  -4  -3   5   16.84    1.69
  -4  -3   5   19.42    1.53
   7  -4   5   20.11    1.82
   7  -5   5   73.68    5.22
  -5  -2   5   74.52    5.13
  -5  -2   5   80.01    4.86
   0   0   0    0.00    0.00
;
_shelx_hkl_checksum              7398
loop_
_space_group_symop_operation_xyz
'x, y, z'
'-y, x-y, z'
'-x+y, -x, z'
loop_
_atom_site_label
_atom_site_type_symbol
_atom_site_fract_x
_atom_site_fract_y
_atom_site_fract_z
_atom_site_U_iso_or_equiv
_atom_site_adp_type
_atom_site_occupancy
_atom_site_site_symmetry_order
_atom_site_calc_flag
_atom_site_refinement_flags_posn
_atom_site_refinement_flags_adp
_atom_site_refinement_flags_occupancy
X1 Bi 0.3333 0.6667 0.921(3) 0.027(2) Uani 0.25 3 d S T P
X2 Bi 0.3333 0.6667 0.135(3) 0.0113(18) Uani 0.25 3 d S T P
X3 Bi 0.3333 0.6667 0.421(3) 0.0122(18) Uani 0.25 3 d S T P
X4 Bi 0.3333 0.6667 0.636(3) 0.025(2) Uani 0.25 3 d S T P
Bi1 Bi 0.82213(8) 0.27733(8) 0.2777(2) 0.0091(2) Uani 1 1 d . . .
Bi2 Bi 0.84454(7) 0.05640(8) 0.7777(2) 0.0080(2) Uani 1 1 d . . .
Bi3 Bi 0.09248(10) 0.37034(8) 0.7779(2) 0.0115(3) Uani 1 1 d . . .
Bi4 Bi 0.38805(9) 0.42441(9) 0.2779(2) 0.0115(3) Uani 1 1 d . . .
I1 I 0.6667 0.3333 0.7785(7) 0.0080(6) Uani 1 3 d S T P
I2 I 0.0000 0.0000 0.2786(7) 0.0093(6) Uani 1 3 d S T P
S1 S 0.2017(4) 0.2718(4) 0.2789(16) 0.0094(11) Uani 1 1 d . . .
S2 S 0.1483(4) 0.4998(4) 1.2773(14) 0.0075(11) Uani 1 1 d . . .
S3 S 0.3164(4) 0.4805(4) 0.7770(15) 0.0086(11) Uani 1 1 d . . .
S4 S 0.9378(4) 0.4034(4) -0.2213(15) 0.0057(10) Uani 1 1 d . . .
S5 S 0.7210(4) 0.1206(4) 0.7776(14) 0.0061(10) Uani 1 1 d . . .
S6 S 0.9464(4) 0.2126(4) 0.2780(14) 0.0082(10) Uani 1 1 d . . .
loop_
_atom_site_aniso_label
_atom_site_aniso_U_11
_atom_site_aniso_U_22
_atom_site_aniso_U_33
_atom_site_aniso_U_23
_atom_site_aniso_U_13
_atom_site_aniso_U_12
X1 0.034(3) 0.034(3) 0.013(4) 0.000 0.000 0.0170(16)
X2 0.0004(17) 0.0004(17) 0.033(6) 0.000 0.000 0.0002(9)
X3 0.003(2) 0.003(2) 0.031(6) 0.000 0.000 0.0013(10)
X4 0.030(3) 0.030(3) 0.014(5) 0.000 0.000 0.0150(16)
Bi1 0.0097(5) 0.0080(6) 0.0112(6) 0.0001(5) -0.0001(5) 0.0055(4)
Bi2 0.0057(5) 0.0084(5) 0.0109(6) -0.0001(4) 0.0001(5) 0.0042(4)
Bi3 0.0198(6) 0.0073(5) 0.0083(6) 0.0003(4) 0.0011(5) 0.0073(5)
Bi4 0.0104(5) 0.0124(5) 0.0141(7) 0.0011(5) 0.0008(5) 0.0076(5)
I1 0.0068(8) 0.0068(8) 0.0105(14) 0.000 0.000 0.0034(4)
I2 0.0085(8) 0.0085(8) 0.0110(14) 0.000 0.000 0.0043(4)
S1 0.009(3) 0.011(3) 0.011(3) -0.002(2) -0.001(2) 0.006(2)
S2 0.008(2) 0.005(2) 0.006(2) 0.0018(19) 0.0009(19) 0.001(2)
S3 0.003(2) 0.010(3) 0.012(3) 0.001(2) -0.001(2) 0.0026(19)
S4 0.003(2) 0.007(2) 0.006(2) 0.000(2) -0.001(2) 0.002(2)
S5 0.005(2) 0.003(2) 0.008(3) 0.000(2) 0.000(2) 0.0002(19)
S6 0.009(3) 0.009(2) 0.010(3) -0.001(2) -0.001(2) 0.007(2)
loop_
_atom_type_symbol
_atom_type_description
_atom_type_scat_dispersion_real
_atom_type_scat_dispersion_imag
_atom_type_scat_source
S S 0.1246 0.1234 'International Tables Vol C Tables 4.2.6.8 and 6.1.1.4'
I I -0.4742 1.8119 'International Tables Vol C Tables 4.2.6.8 and 6.1.1.4'
Bi Bi -4.1077 10.2566 'International Tables Vol C Tables 4.2.6.8 and 6.1.1.4'
loop_
_geom_angle_atom_site_label_1
_geom_angle_atom_site_label_2
_geom_angle_atom_site_label_3
_geom_angle
_geom_angle_site_symmetry_1
_geom_angle_site_symmetry_3
X2 X1 X4 179.995(12) 1_556 .
X2 X1 X3 179.995(10) 1_556 .
X4 X1 X3 0.000(12) . .
X2 X1 X3 0.003(6) 1_556 1_556
X4 X1 X3 179.998(12) . 1_556
X3 X1 X3 180.0 . 1_556
X2 X1 S3 101.7(3) 1_556 2_665
X4 X1 S3 78.3(3) . 2_665
X3 X1 S3 78.3(3) . 2_665
X3 X1 S3 101.7(3) 1_556 2_665
X2 X1 S3 101.7(3) 1_556 .
X4 X1 S3 78.3(3) . .
X3 X1 S3 78.3(3) . .
X3 X1 S3 101.7(3) 1_556 .
S3 X1 S3 115.99(17) 2_665 .
X2 X1 S3 101.7(3) 1_556 3_565
X4 X1 S3 78.3(3) . 3_565
X3 X1 S3 78.3(3) . 3_565
X3 X1 S3 101.7(3) 1_556 3_565
S3 X1 S3 115.99(17) 2_665 3_565
S3 X1 S3 115.99(17) . 3_565
X2 X1 X4 0.004(6) 1_556 1_556
X4 X1 X4 179.998(12) . 1_556
X3 X1 X4 180.0 . 1_556
X3 X1 X4 0.001(4) 1_556 1_556
S3 X1 X4 101.7(3) 2_665 1_556
S3 X1 X4 101.7(3) . 1_556
S3 X1 X4 101.7(3) 3_565 1_556
X2 X1 S2 62.6(2) 1_556 3_565
X4 X1 S2 117.5(2) . 3_565
X3 X1 S2 117.5(2) . 3_565
X3 X1 S2 62.5(2) 1_556 3_565
S3 X1 S2 69.75(19) 2_665 3_565
S3 X1 S2 164.2(5) . 3_565
S3 X1 S2 70.38(19) 3_565 3_565
X4 X1 S2 62.5(2) 1_556 3_565
X2 X1 S2 62.5(2) 1_556 2_665
X4 X1 S2 117.5(2) . 2_665
X3 X1 S2 117.5(2) . 2_665
X3 X1 S2 62.5(2) 1_556 2_665
S3 X1 S2 70.38(19) 2_665 2_665
S3 X1 S2 69.75(19) . 2_665
S3 X1 S2 164.2(5) 3_565 2_665
X4 X1 S2 62.5(2) 1_556 2_665
S2 X1 S2 100.4(3) 3_565 2_665
X2 X1 S2 62.5(2) 1_556 .
X4 X1 S2 117.5(2) . .
X3 X1 S2 117.5(2) . .
X3 X1 S2 62.5(2) 1_556 .
S3 X1 S2 164.2(5) 2_665 .
S3 X1 S2 70.38(19) . .
S3 X1 S2 69.75(19) 3_565 .
X4 X1 S2 62.5(2) 1_556 .
S2 X1 S2 100.4(3) 3_565 .
S2 X1 S2 100.4(3) 2_665 .
X2 X1 X2 179.995(11) 1_556 .
X4 X1 X2 0.000(10) . .
X3 X1 X2 0.000(5) . .
X3 X1 X2 180.0 1_556 .
S3 X1 X2 78.3(3) 2_665 .
S3 X1 X2 78.3(3) . .
S3 X1 X2 78.3(3) 3_565 .
X4 X1 X2 180.0 1_556 .
S2 X1 X2 117.5(2) 3_565 .
S2 X1 X2 117.5(2) 2_665 .
S2 X1 X2 117.5(2) . .
X1 X2 X3 180.0 1_554 .
X1 X2 X4 0.003(5) 1_554 1_554
X3 X2 X4 180.0 . 1_554
X1 X2 X4 180.0 1_554 .
X3 X2 X4 0.000(10) . .
X4 X2 X4 180.0 1_554 .
X1 X2 S2 101.7(2) 1_554 3_564
X3 X2 S2 78.3(2) . 3_564
X4 X2 S2 101.7(2) 1_554 3_564
X4 X2 S2 78.3(2) . 3_564
X1 X2 S2 101.7(2) 1_554 1_554
X3 X2 S2 78.3(2) . 1_554
X4 X2 S2 101.7(2) 1_554 1_554
X4 X2 S2 78.3(2) . 1_554
S2 X2 S2 115.98(16) 3_564 1_554
X1 X2 S2 101.7(3) 1_554 2_664
X3 X2 S2 78.3(2) . 2_664
X4 X2 S2 101.7(2) 1_554 2_664
X4 X2 S2 78.3(2) . 2_664
S2 X2 S2 115.98(16) 3_564 2_664
S2 X2 S2 115.98(16) 1_554 2_664
X1 X2 X3 0.004(5) 1_554 1_554
X3 X2 X3 180.0 . 1_554
X4 X2 X3 0.001(1) 1_554 1_554
X4 X2 X3 180.0 . 1_554
S2 X2 X3 101.7(2) 3_564 1_554
S2 X2 X3 101.7(2) 1_554 1_554
S2 X2 X3 101.7(2) 2_664 1_554
X1 X2 X1 180.0 1_554 .
X3 X2 X1 0.000(8) . .
X4 X2 X1 180.0 1_554 .
X4 X2 X1 0.000(5) . .
S2 X2 X1 78.3(2) 3_564 .
S2 X2 X1 78.3(2) 1_554 .
S2 X2 X1 78.3(2) 2_664 .
X3 X2 X1 180.0 1_554 .
X4 X3 X2 180.000(19) . .
X4 X3 X1 0.000(12) . .
X2 X3 X1 180.000(15) . .
X4 X3 X1 180.0 . 1_554
X2 X3 X1 0.002(1) . 1_554
X1 X3 X1 180.0 . 1_554
X4 X3 S2 101.9(3) . 3_564
X2 X3 S2 78.1(3) . 3_564
X1 X3 S2 101.9(3) . 3_564
X1 X3 S2 78.1(3) 1_554 3_564
X4 X3 S2 101.9(3) . 1_554
X2 X3 S2 78.1(3) . 1_554
X1 X3 S2 101.9(3) . 1_554
X1 X3 S2 78.1(3) 1_554 1_554
S2 X3 S2 115.89(18) 3_564 1_554
X4 X3 S2 101.9(3) . 2_664
X2 X3 S2 78.1(3) . 2_664
X1 X3 S2 101.9(3) . 2_664
X1 X3 S2 78.1(3) 1_554 2_664
S2 X3 S2 115.89(18) 3_564 2_664
S2 X3 S2 115.89(18) 1_554 2_664
X4 X3 X2 0.002(2) . 1_556
X2 X3 X2 180.0 . 1_556
X1 X3 X2 0.002(1) . 1_556
X1 X3 X2 180.0 1_554 1_556
S2 X3 X2 101.9(3) 3_564 1_556
S2 X3 X2 101.9(3) 1_554 1_556
S2 X3 X2 101.9(3) 2_664 1_556
X4 X3 S3 62.8(2) . 2_665
X2 X3 S3 117.2(2) . 2_665
X1 X3 S3 62.8(2) . 2_665
X1 X3 S3 117.2(2) 1_554 2_665
S2 X3 S3 69.72(19) 3_564 2_665
S2 X3 S3 164.7(5) 1_554 2_665
S2 X3 S3 70.35(19) 2_664 2_665
X2 X3 S3 62.8(2) 1_556 2_665
X4 X3 S3 62.8(2) . .
X2 X3 S3 117.2(2) . .
X1 X3 S3 62.8(2) . .
X1 X3 S3 117.2(2) 1_554 .
S2 X3 S3 164.7(5) 3_564 .
S2 X3 S3 70.35(19) 1_554 .
S2 X3 S3 69.72(19) 2_664 .
X2 X3 S3 62.8(2) 1_556 .
S3 X3 S3 100.8(3) 2_665 .
X4 X3 S3 62.8(2) . 3_565
X2 X3 S3 117.2(2) . 3_565
X1 X3 S3 62.8(2) . 3_565
X1 X3 S3 117.2(2) 1_554 3_565
S2 X3 S3 70.34(19) 3_564 3_565
S2 X3 S3 69.72(19) 1_554 3_565
S2 X3 S3 164.7(5) 2_664 3_565
X2 X3 S3 62.8(2) 1_556 3_565
S3 X3 S3 100.8(3) 2_665 3_565
S3 X3 S3 100.8(3) . 3_565
X4 X3 X4 179.999(14) . 1_554
X2 X3 X4 0.001(2) . 1_554
X1 X3 X4 180.0 . 1_554
X1 X3 X4 0.001(2) 1_554 1_554
S2 X3 X4 78.1(3) 3_564 1_554
S2 X3 X4 78.1(3) 1_554 1_554
S2 X3 X4 78.1(3) 2_664 1_554
X2 X3 X4 180.0 1_556 1_554
S3 X3 X4 117.2(2) 2_665 1_554
S3 X3 X4 117.2(2) . 1_554
S3 X3 X4 117.2(2) 3_565 1_554
X3 X4 X1 180.00(2) . .
X3 X4 X2 180.0 . 1_556
X1 X4 X2 0.002(2) . 1_556
X3 X4 X2 0.000(12) . .
X1 X4 X2 180.000(19) . .
X2 X4 X2 180.0 1_556 .
X3 X4 S3 101.5(3) . 2_665
X1 X4 S3 78.5(3) . 2_665
X2 X4 S3 78.5(3) 1_556 2_665
X2 X4 S3 101.5(3) . 2_665
X3 X4 S3 101.5(3) . .
X1 X4 S3 78.5(3) . .
X2 X4 S3 78.5(3) 1_556 .
X2 X4 S3 101.5(3) . .
S3 X4 S3 116.10(18) 2_665 .
X3 X4 S3 101.5(3) . 3_565
X1 X4 S3 78.5(3) . 3_565
X2 X4 S3 78.5(3) 1_556 3_565
X2 X4 S3 101.5(3) . 3_565
S3 X4 S3 116.10(18) 2_665 3_565
S3 X4 S3 116.10(18) . 3_565
X3 X4 X1 0.002(1) . 1_554
X1 X4 X1 179.998(10) . 1_554
X2 X4 X1 180.0 1_556 1_554
X2 X4 X1 0.002(2) . 1_554
S3 X4 X1 101.5(3) 2_665 1_554
S3 X4 X1 101.5(3) . 1_554
S3 X4 X1 101.5(3) 3_565 1_554
X3 X4 S2 62.4(2) . 3_564
X1 X4 S2 117.6(2) . 3_564
X2 X4 S2 117.6(2) 1_556 3_564
X2 X4 S2 62.4(2) . 3_564
S3 X4 S2 69.70(19) 2_665 3_564
S3 X4 S2 164.0(5) . 3_564
S3 X4 S2 70.33(19) 3_565 3_564
X1 X4 S2 62.4(2) 1_554 3_564
X3 X4 S2 62.4(2) . 1_554
X1 X4 S2 117.6(2) . 1_554
X2 X4 S2 117.6(2) 1_556 1_554
X2 X4 S2 62.4(2) . 1_554
S3 X4 S2 164.0(5) 2_665 1_554
S3 X4 S2 70.33(19) . 1_554
S3 X4 S2 69.70(19) 3_565 1_554
X1 X4 S2 62.4(2) 1_554 1_554
S2 X4 S2 100.3(3) 3_564 1_554
X3 X4 S2 62.4(2) . 2_664
X1 X4 S2 117.6(2) . 2_664
X2 X4 S2 117.6(2) 1_556 2_664
X2 X4 S2 62.4(2) . 2_664
S3 X4 S2 70.33(19) 2_665 2_664
S3 X4 S2 69.70(19) . 2_664
S3 X4 S2 164.0(5) 3_565 2_664
X1 X4 S2 62.4(2) 1_554 2_664
S2 X4 S2 100.3(3) 3_564 2_664
S2 X4 S2 100.3(3) 1_554 2_664
X3 X4 X3 179.999(13) . 1_556
X1 X4 X3 0.001(1) . 1_556
X2 X4 X3 0.001(3) 1_556 1_556
X2 X4 X3 180.0 . 1_556
S3 X4 X3 78.5(3) 2_665 1_556
S3 X4 X3 78.5(3) . 1_556
S3 X4 X3 78.5(3) 3_565 1_556
X1 X4 X3 180.0 1_554 1_556
S2 X4 X3 117.6(2) 3_564 1_556
S2 X4 X3 117.6(2) 1_554 1_556
S2 X4 X3 117.6(2) 2_664 1_556
S6 Bi1 S4 85.88(18) . .
S6 Bi1 S4 85.84(17) . 1_556
S4 Bi1 S4 93.42(16) . 1_556
S6 Bi1 S5 82.56(16) . .
S4 Bi1 S5 167.98(16) . .
S4 Bi1 S5 89.02(16) 1_556 .
S6 Bi1 S5 82.61(16) . 1_554
S4 Bi1 S5 89.13(16) . 1_554
S4 Bi1 S5 167.96(16) 1_556 1_554
S5 Bi1 S5 86.15(15) . 1_554
S5 Bi2 S1 85.74(18) . 2_655
S5 Bi2 S1 85.76(17) . 2_656
S1 Bi2 S1 93.17(17) 2_655 2_656
S5 Bi2 S6 82.94(16) . .
S1 Bi2 S6 89.27(17) 2_655 .
S1 Bi2 S6 168.23(17) 2_656 .
S5 Bi2 S6 82.95(16) . 1_556
S1 Bi2 S6 168.27(17) 2_655 1_556
S1 Bi2 S6 89.09(17) 2_656 1_556
S6 Bi2 S6 86.27(16) . 1_556
S2 Bi3 S2 97.67(19) . 1_554
S2 Bi3 S4 80.75(18) . 1_456
S2 Bi3 S4 80.87(18) 1_554 1_456
S2 Bi3 S3 73.93(12) . .
S2 Bi3 S3 73.86(12) 1_554 .
S4 Bi3 S3 141.03(17) 1_456 .
S2 Bi3 S6 156.64(17) . 1_455
S2 Bi3 S6 86.90(17) 1_554 1_455
S4 Bi3 S6 77.37(16) 1_456 1_455
S3 Bi3 S6 129.06(16) . 1_455
S2 Bi3 S6 86.94(17) . 1_456
S2 Bi3 S6 156.64(17) 1_554 1_456
S4 Bi3 S6 77.28(16) 1_456 1_456
S3 Bi3 S6 129.15(16) . 1_456
S6 Bi3 S6 80.39(14) 1_455 1_456
S3 Bi4 S3 98.4(2) . 1_554
S3 Bi4 S1 80.96(18) . .
S3 Bi4 S1 81.12(18) 1_554 .
S3 Bi4 S2 73.42(11) . 2_664
S3 Bi4 S2 73.38(11) 1_554 2_664
S1 Bi4 S2 140.26(17) . 2_664
S3 Bi4 S5 86.62(17) . 3_665
S3 Bi4 S5 156.95(17) 1_554 3_665
S1 Bi4 S5 77.48(16) . 3_665
S2 Bi4 S5 129.34(16) 2_664 3_665
S3 Bi4 S5 156.98(17) . 3_664
S3 Bi4 S5 86.51(17) 1_554 3_664
S1 Bi4 S5 77.61(16) . 3_664
S2 Bi4 S5 129.25(16) 2_664 3_664
S5 Bi4 S5 80.66(13) 3_665 3_664
Bi4 S1 Bi2 101.06(19) . 3_665
Bi4 S1 Bi2 100.90(19) . 3_664
Bi2 S1 Bi2 93.17(17) 3_665 3_664
Bi3 S2 Bi3 97.67(19) . 1_556
Bi3 S2 X2 110.1(3) . 1_556
Bi3 S2 X2 130.4(3) 1_556 1_556
Bi3 S2 X3 130.6(3) . 1_556
Bi3 S2 X3 109.9(3) 1_556 1_556
X2 S2 X3 23.6(3) 1_556 1_556
Bi3 S2 Bi4 112.0(2) . 3_566
Bi3 S2 Bi4 111.89(19) 1_556 3_566
X2 S2 Bi4 94.99(17) 1_556 3_566
X3 S2 Bi4 94.97(17) 1_556 3_566
Bi3 S2 X1 95.9(2) . .
Bi3 S2 X1 142.8(3) 1_556 .
X2 S2 X1 15.73(8) 1_556 .
X3 S2 X1 39.3(3) 1_556 .
Bi4 S2 X1 94.53(16) 3_566 .
Bi3 S2 X4 142.9(3) . 1_556
Bi3 S2 X4 95.8(3) 1_556 1_556
X2 S2 X4 39.3(3) 1_556 1_556
X3 S2 X4 15.71(8) 1_556 1_556
Bi4 S2 X4 94.49(16) 3_566 1_556
X1 S2 X4 55.0(3) . 1_556
Bi4 S3 Bi4 98.4(2) . 1_556
Bi4 S3 X4 110.4(3) . .
Bi4 S3 X4 130.6(3) 1_556 .
Bi4 S3 X1 130.7(3) . .
Bi4 S3 X1 110.2(3) 1_556 .
X4 S3 X1 23.2(3) . .
Bi4 S3 Bi3 111.8(2) . .
Bi4 S3 Bi3 111.7(2) 1_556 .
X4 S3 Bi3 94.14(17) . .
X1 S3 Bi3 94.11(17) . .
Bi4 S3 X3 96.2(2) . .
Bi4 S3 X3 143.0(3) 1_556 .
X4 S3 X3 15.64(9) . .
X1 S3 X3 38.9(3) . .
Bi3 S3 X3 93.77(16) . .
Bi3 S4 Bi1 101.13(18) 1_654 .
Bi3 S4 Bi1 101.01(18) 1_654 1_554
Bi1 S4 Bi1 93.42(16) . 1_554
Bi2 S5 Bi1 97.40(17) . .
Bi2 S5 Bi1 97.38(18) . 1_556
Bi1 S5 Bi1 86.15(15) . 1_556
Bi2 S5 Bi4 94.99(17) . 2_655
Bi1 S5 Bi4 95.27(16) . 2_655
Bi1 S5 Bi4 167.3(2) 1_556 2_655
Bi2 S5 Bi4 94.97(17) . 2_656
Bi1 S5 Bi4 167.3(2) . 2_656
Bi1 S5 Bi4 95.23(16) 1_556 2_656
Bi4 S5 Bi4 80.66(13) 2_655 2_656
Bi1 S6 Bi2 97.10(18) . .
Bi1 S6 Bi2 97.05(18) . 1_554
Bi2 S6 Bi2 86.27(16) . 1_554
Bi1 S6 Bi3 94.97(17) . 1_655
Bi2 S6 Bi3 95.42(17) . 1_655
Bi2 S6 Bi3 167.6(2) 1_554 1_655
Bi1 S6 Bi3 94.92(17) . 1_654
Bi2 S6 Bi3 167.6(2) . 1_654
Bi2 S6 Bi3 95.37(17) 1_554 1_654
Bi3 S6 Bi3 80.39(14) 1_655 1_654
loop_
_geom_bond_atom_site_label_1
_geom_bond_atom_site_label_2
_geom_bond_distance
_geom_bond_site_symmetry_2
X1 X2 0.860(4) 1_556
X1 X4 1.145(16) .
X1 X3 2.005(16) .
X1 X3 2.012(16) 1_556
X1 S3 2.842(6) 2_665
X1 S3 2.842(6) .
X1 S3 2.842(6) 3_565
X1 X4 2.872(16) 1_556
X1 S2 3.108(8) 3_565
X1 S2 3.108(8) 2_665
X1 S2 3.108(8) .
X1 X2 3.156(4) .
X2 X1 0.860(4) 1_554
X2 X3 1.151(15) .
X2 X4 2.005(15) 1_554
X2 X4 2.012(15) .
X2 S2 2.817(6) 3_564
X2 S2 2.817(6) 1_554
X2 S2 2.817(6) 2_664
X2 X3 2.866(15) 1_554
X3 X4 0.860(4) .
X3 X1 2.012(16) 1_554
X3 S2 2.818(6) 3_564
X3 S2 2.818(6) 1_554
X3 S2 2.818(6) 2_664
X3 X2 2.866(15) 1_556
X3 S3 3.128(8) 2_665
X3 S3 3.128(8) .
X3 S3 3.128(8) 3_565
X3 X4 3.156(4) 1_554
X4 X2 2.005(15) 1_556
X4 S3 2.840(6) 2_665
X4 S3 2.840(6) .
X4 S3 2.840(6) 3_565
X4 X1 2.872(16) 1_554
X4 S2 3.111(8) 3_564
X4 S2 3.111(8) 1_554
X4 S2 3.111(8) 2_664
X4 X3 3.156(4) 1_556
Bi1 S6 2.598(6) .
Bi1 S4 2.756(6) .
Bi1 S4 2.762(6) 1_556
Bi1 S5 2.941(6) .
Bi1 S5 2.941(6) 1_554
Bi2 S5 2.580(6) .
Bi2 S1 2.761(6) 2_655
Bi2 S1 2.768(6) 2_656
Bi2 S6 2.936(6) .
Bi2 S6 2.938(6) 1_556
Bi3 S2 2.666(6) .
Bi3 S2 2.670(6) 1_554
Bi3 S4 2.710(5) 1_456
Bi3 S3 3.027(6) .
Bi3 S6 3.112(6) 1_455
Bi3 S6 3.112(6) 1_456
Bi4 S3 2.650(6) .
Bi4 S3 2.655(6) 1_554
Bi4 S1 2.685(6) .
Bi4 S2 3.029(6) 2_664
Bi4 S5 3.103(6) 3_665
Bi4 S5 3.104(6) 3_664
S1 Bi2 2.761(6) 3_665
S1 Bi2 2.768(6) 3_664
S2 Bi3 2.670(6) 1_556
S2 X2 2.817(6) 1_556
S2 X3 2.818(6) 1_556
S2 Bi4 3.029(6) 3_566
S2 X4 3.111(8) 1_556
S3 Bi4 2.655(6) 1_556
S4 Bi3 2.710(5) 1_654
S4 Bi1 2.762(6) 1_554
S5 Bi1 2.941(6) 1_556
S5 Bi4 3.103(6) 2_655
S5 Bi4 3.104(6) 2_656
S6 Bi2 2.938(6) 1_554
S6 Bi3 3.112(6) 1_655
S6 Bi3 3.112(6) 1_654
