#------------------------------------------------------------------------------
#$Date: 2016-03-21 01:21:50 +0200 (Mon, 21 Mar 2016) $
#$Revision: 178377 $
#$URL: svn://www.crystallography.net/cod/cif/4/00/21/4002127.cif $
#------------------------------------------------------------------------------
#
# This file is available in the Crystallography Open Database (COD),
# http://www.crystallography.net/
#
# All data on this site have been placed in the public domain by the
# contributors.
#
data_4002127
loop_
_publ_author_name
'Nanthamathee, Chompoonoot'
'Ling, Sanliang'
'Slater, Ben'
'Attfield, Martin P.'
_publ_section_title
;
 Contradistinct Thermoresponsive Behavior of Isostructural MIL-53 Type
 Metal--Organic Frameworks by Modifying the Framework Inorganic Anion
;
_journal_name_full               'Chemistry of Materials'
_journal_page_first              141223143002002
_journal_paper_doi               10.1021/cm503311x
_journal_year                    2014
_chemical_formula_sum            'C8 Al F O4'
_chemical_formula_weight         206.06
_chemical_name_systematic        ' ?'
_space_group_IT_number           74
_symmetry_cell_setting           orthorhombic
_symmetry_space_group_name_Hall  '-I 2b 2'
_symmetry_space_group_name_H-M   'I m m a'
_audit_creation_date             2014-08-28T12:45
_audit_creation_method           'from EXP file using GSAS2CIF'
_audit_update_record
' 2014-08-28T12:45  Initial CIF as created by GSAS2CIF'
_cell_angle_alpha                90.0
_cell_angle_beta                 90.0
_cell_angle_gamma                90.0
_cell_formula_units_Z            4
_cell_length_a                   6.56394(13)
_cell_length_b                   16.4021(4)
_cell_length_c                   13.1830(5)
_cell_volume                     1419.31(7)
_computing_structure_refinement  GSAS
_diffrn_radiation_polarisn_ratio 0.95
_diffrn_radiation_probe          x-ray
_diffrn_radiation_wavelength     0.827154
_exptl_absorpt_correction_T_max  1.00000
_exptl_absorpt_correction_T_min  1.00000
_exptl_absorpt_process_details
;   GSAS Absorption/surface roughness correction: function number 0
 No correction is applied.
;
_pd_block_id                     2014-08-28T12:45|250K||
_pd_calc_method                  'Rietveld Refinement'
_pd_instr_location               ' ?'
_pd_meas_2theta_range_inc        0.004
_pd_meas_2theta_range_max        150.01401
_pd_meas_2theta_range_min        0.002
_pd_meas_number_of_points        37504
_pd_phase_name                   290K
_pd_proc_2theta_range_inc        0.004
_pd_proc_2theta_range_max        150.0695
_pd_proc_2theta_range_min        0.05751
_pd_proc_info_datetime           2014-08-28T12:45:10
_pd_proc_info_excluded_regions   ' ?'
_pd_proc_ls_background_function
;   GSAS Background function number 1 with  2 terms.
 Shifted Chebyshev function of 1st kind
      1:    0.00000     2:    0.00000    
;
_pd_proc_ls_peak_cutoff          0.00050
_pd_proc_ls_profile_function
;
 CW Profile function number 4 with  18 terms
 Pseudovoigt profile coefficients as parameterized in
 P. Thompson, D.E. Cox & J.B. Hastings (1987). J. Appl. Cryst.,20,79-83.
 Asymmetry correction of L.W. Finger, D.E. Cox & A. P. Jephcoat (1994).
 J. Appl. Cryst.,27,892-900.
 Microstrain broadening by P.W. Stephens,  (1999). J. Appl. Cryst.,32,281-289.
 Peak tails are ignored  where the intensity is below 0.0005 times the peak
   Aniso. broadening axis   1.0   0.0   1.0
;
_pd_proc_ls_prof_R_factor        0.0754
_pd_proc_ls_prof_wR_expected     0.0447
_pd_proc_ls_prof_wR_factor       0.0996
_pd_proc_number_of_points        37504
_pd_spec_mounting                ' ?'
_refine_ls_goodness_of_fit_all   2.23
_refine_ls_matrix_type           full
_refine_ls_number_parameters     27
_refine_ls_number_restraints     0
_refine_ls_R_Fsqd_factor         0.30578
_refine_ls_shift/su_max          0.01
_refine_ls_shift/su_mean         0.00
_reflns_d_resolution_high        1.080
_reflns_d_resolution_low         8.201
_reflns_limit_h_max              6
_reflns_limit_h_min              0
_reflns_limit_k_max              15
_reflns_limit_k_min              0
_reflns_limit_l_max              12
_reflns_limit_l_min              0
_reflns_number_total             314
_cod_data_source_file            alf250K.cif
_cod_data_source_block           250K_publ
_cod_depositor_comments
;
The following automatic conversions were performed:

'_geom_bond_publ_flag' value 'N' changed to 'n' according to
/home/saulius/struct/COD-crude-data--automatic-downloads/rss-feeds/ACS/lib/dictionaries/cif_core.dic
dictionary named 'cif_core.dic' version 2.4.2 from 2011-04-26 (18
times).

'_geom_angle_publ_flag' value 'N' changed to 'n' according
to
/home/saulius/struct/COD-crude-data--automatic-downloads/rss-feeds/ACS/lib/dictionaries/cif_core.dic
dictionary named 'cif_core.dic' version 2.4.2 from 2011-04-26 (24
times).

Automatic conversion script
Id: cif_fix_values 2935 2014-11-11 08:27:57Z andrius 
;
_cod_database_code               4002127
#BEGIN Tags that were not found in dictionaries:
_gsas_exptl_extinct_corr_t_min   1.00000
_gsas_exptl_extinct_corr_t_max   1.00000
#END Tags that were not found in dictionaries
loop_
_symmetry_equiv_pos_site_id
_symmetry_equiv_pos_as_xyz
1 +x,+y,+z
2 -x,+y,+z
3 +x,-y+1/2,+z
4 -x,-y+1/2,+z
-1 -x,-y,-z
-2 +x,-y,-z
-3 -x,+y+1/2,-z
-4 +x,+y+1/2,-z
101 +x+1/2,+y+1/2,+z+1/2
102 -x+1/2,+y+1/2,+z+1/2
103 +x+1/2,-y,+z+1/2
104 -x+1/2,-y,+z+1/2
-101 -x+1/2,-y+1/2,-z+1/2
-102 +x+1/2,-y+1/2,-z+1/2
-103 -x+1/2,+y,-z+1/2
-104 +x+1/2,+y,-z+1/2
loop_
_atom_site_type_symbol
_atom_site_label
_atom_site_fract_x
_atom_site_fract_y
_atom_site_fract_z
_atom_site_occupancy
_atom_site_thermal_displace_type
_atom_site_U_iso_or_equiv
_atom_site_symmetry_multiplicity
Al Al1 0.25 0.25 0.75 1.0 Uiso 0.0232(13) 4
F F1 0.0 0.25 0.6907(4) 1.0 Uiso 0.0152(9) 4
O O1 0.1699(4) 0.16692(17) 0.84153(24) 1.0 Uiso 0.0152(9) 16
C C1 -0.1945(5) 0.0311(4) 0.9627(5) 1.0 Uiso 0.0303(16) 16
C C2 0.0 0.0616(4) 0.9432(6) 1.0 Uiso 0.0303(16) 8
C C3 0.0 0.1397(5) 0.8724(6) 1.0 Uiso 0.0303(16) 8
loop_
_atom_type_symbol
_atom_type_number_in_cell
_atom_type_scat_dispersion_real
_atom_type_scat_dispersion_imag
_atom_type_scat_Cromer_Mann_a1
_atom_type_scat_Cromer_Mann_a2
_atom_type_scat_Cromer_Mann_a3
_atom_type_scat_Cromer_Mann_a4
_atom_type_scat_Cromer_Mann_b1
_atom_type_scat_Cromer_Mann_b2
_atom_type_scat_Cromer_Mann_b3
_atom_type_scat_Cromer_Mann_b4
_atom_type_scat_Cromer_Mann_c
_atom_type_scat_source
Al 4.0 0.000 0.000 6.42020 3.03870 1.90020 0.74260 1.59360 31.5472 1.96460
85.0886 1.11510 International_Tables_Vol_C
F 4.0 0.000 0.000 3.53920 10.2825 2.64120 4.29440 1.51700 0.26150 1.02430
26.1476 0.27760 International_Tables_Vol_C
O 16.0 0.000 0.000 3.04850 13.2771 2.28680 5.70110 1.54630 0.32390 0.86700
32.9089 0.25080 International_Tables_Vol_C
C 32.0 0.000 0.000 2.31000 20.8439 1.02000 10.2075 1.58860 0.56870 0.86500
51.6512 0.21560 International_Tables_Vol_C
loop_
_geom_angle_atom_site_label_1
_geom_angle_atom_site_label_2
_geom_angle_atom_site_label_3
_geom_angle
_geom_angle_site_symmetry_1
_geom_angle_site_symmetry_3
_geom_angle_publ_flag
F1 Al1 F1 180.0 1_555 -101_546 n
F1 Al1 O1 91.34(12) 1_555 1_555 n
F1 Al1 O1 91.34(12) 1_555 3_555 n
F1 Al1 O1 88.66(12) 1_555 -101_566 n
F1 Al1 O1 88.66(12) 1_555 -103_566 n
F1 Al1 O1 88.66(12) -101_566 1_555 n
F1 Al1 O1 88.66(12) -101_566 3_555 n
F1 Al1 O1 91.34(12) -101_566 -101_566 n
F1 Al1 O1 91.34(12) -101_566 -103_566 n
O1 Al1 O1 91.98(20) 1_555 3_555 n
O1 Al1 O1 180.0 1_555 -101_566 n
O1 Al1 O1 88.02(20) 1_555 -103_566 n
O1 Al1 O1 88.02(20) 3_555 -101_566 n
O1 Al1 O1 180.0 3_555 -103_566 n
O1 Al1 O1 91.98(20) -101_566 -103_566 n
Al1 F1 Al1 129.03(29) 1_555 2_555 n
Al1 O1 C3 134.6(4) 1_555 1_555 n
C1 C1 C2 112.7(4) -2_557 1_555 n
C1 C2 C1 132.5(8) 1_555 2_555 n
C1 C2 C3 113.5(4) 1_555 1_555 n
C1 C2 C3 113.5(4) 2_555 1_555 n
O1 C3 O1 123.1(7) 1_555 2_555 n
O1 C3 C2 118.3(4) 1_555 1_555 n
O1 C3 C2 118.3(4) 2_555 1_555 n
loop_
_geom_bond_atom_site_label_1
_geom_bond_atom_site_label_2
_geom_bond_distance
_geom_bond_site_symmetry_2
_geom_bond_publ_flag
Al1 F1 1.8179(22) 1_555 n
Al1 F1 1.8179(22) -101_445 n
Al1 O1 1.8947(24) 1_555 n
Al1 O1 1.8947(24) 3_555 n
Al1 O1 1.8947(24) -101_445 n
Al1 O1 1.8947(24) -103_445 n
F1 Al1 1.8179(22) 1_555 n
F1 Al1 1.8179(22) 2_555 n
O1 Al1 1.8947(24) 1_555 n
O1 C3 1.268(4) 1_555 n
C1 C1 1.418(9) -2_557 n
C1 C2 1.395(4) 1_555 n
C2 C1 1.395(4) 1_555 n
C2 C1 1.395(4) 2_555 n
C2 C3 1.585(7) 1_555 n
C3 O1 1.268(4) 1_555 n
C3 O1 1.268(4) 2_555 n
C3 C2 1.585(7) 1_555 n
loop_
_pd_meas_intensity_total
_pd_proc_ls_weight
_pd_proc_intensity_bkg_calc
_pd_calc_intensity_total
8.0(28) 0.0 0.00 .
11.0(33) 0.0 0.00 .
14(4) 0.0 0.0 .
7.0(26) 0.0 0.00 .
12.0(35) 0.0 0.00 .
12.0(35) 0.0 0.00 .
8.0(28) 0.0 0.00 .
11.0(33) 0.0 0.00 .
12.0(35) 0.0 0.00 .
10.0(32) 0.0 0.00 .
8.0(28) 0.0 0.00 .
8.0(28) 0.0 0.00 .
14(4) 0.0 0.0 .
11.0(33) 0.0 0.00 .
19(4) 0.0 0.0 .
16(4) 0.0 0.0 .
12.0(35) 0.0 0.00 .
14(4) 0.0 0.0 .
15(4) 0.0 0.0 .
15(4) 0.0 0.0 .
13(4) 0.0 0.0 .
16(4) 0.0 0.0 .
18(4) 0.0 0.0 .
12.0(35) 0.0 0.00 .
17(4) 0.0 0.0 .
13(4) 0.0 0.0 .
13(4) 0.0 0.0 .
10.0(32) 0.0 0.00 .
7.0(26) 0.0 0.00 .
10.0(32) 0.0 0.00 .
18(4) 0.0 0.0 .
10.0(32) 0.0 0.00 .
11.0(33) 0.0 0.00 .
13(4) 0.0 0.0 .
11.0(33) 0.0 0.00 .
10.0(32) 0.0 0.00 .
13(4) 0.0 0.0 .
19(4) 0.0 0.0 .
19(4) 0.0 0.0 .
20(4) 0.0 0.0 .
23(5) 0.0 0.0 .
19(4) 0.0 0.0 .
22(5) 0.0 0.0 .
13(4) 0.0 0.0 .
12.0(35) 0.0 0.00 .
14(4) 0.0 0.0 .
19(4) 0.0 0.0 .
12.0(35) 0.0 0.00 .
15(4) 0.0 0.0 .
14(4) 0.0 0.0 .
20(4) 0.0 0.0 .
13(4) 0.0 0.0 .
11.0(33) 0.0 0.00 .
20(4) 0.0 0.0 .
14(4) 0.0 0.0 .
14(4) 0.0 0.0 .
14(4) 0.0 0.0 .
17(4) 0.0 0.0 .
8.0(28) 0.0 0.00 .
15(4) 0.0 0.0 .
12.0(35) 0.0 0.00 .
18(4) 0.0 0.0 .
18(4) 0.0 0.0 .
16(4) 0.0 0.0 .
15(4) 0.0 0.0 .
12.0(35) 0.0 0.00 .
12.0(35) 0.0 0.00 .
15(4) 0.0 0.0 .
14(4) 0.0 0.0 .
11.0(33) 0.0 0.00 .
14(4) 0.0 0.0 .
14(4) 0.0 0.0 .
16(4) 0.0 0.0 .
10.0(32) 0.0 0.00 .
19(4) 0.0 0.0 .
15(4) 0.0 0.0 .
10.0(32) 0.0 0.00 .
17(4) 0.0 0.0 .
17(4) 0.0 0.0 .
17(4) 0.0 0.0 .
16(4) 0.0 0.0 .
15(4) 0.0 0.0 .
12.0(35) 0.0 0.00 .
8.0(28) 0.0 0.00 .
11.0(33) 0.0 0.00 .
15(4) 0.0 0.0 .
10.0(32) 0.0 0.00 .
13(4) 0.0 0.0 .
19(4) 0.0 0.0 .
14(4) 0.0 0.0 .
10.0(32) 0.0 0.00 .
19(4) 0.0 0.0 .
15(4) 0.0 0.0 .
10.0(32) 0.0 0.00 .
19(4) 0.0 0.0 .
14(4) 0.0 0.0 .
17(4) 0.0 0.0 .
14(4) 0.0 0.0 .
14(4) 0.0 0.0 .
17(4) 0.0 0.0 .
11.0(33) 0.0 0.00 .
19(4) 0.0 0.0 .
17(4) 0.0 0.0 .
20(4) 0.0 0.0 .
15(4) 0.0 0.0 .
21(5) 0.0 0.0 .
22(5) 0.0 0.0 .
30(5) 0.0 0.0 .
44(7) 0.0 0.0 .
64(8) 0.0 0.0 .
83(9) 0.0 0.0 .
98(10) 0.0 0.0 .
142(12) 0.0 0.0 .
179(13) 0.0 0.0 .
252(16) 0.0 0.0 .
263(16) 0.0 0.0 .
389(20) 0.0 0.0 .
492(22) 0.0 0.0 .
610(25) 0.0 0.0 .
725(27) 0.0 0.0 .
903(30) 0.0 0.0 .
981(31) 0.0 0.0 .
1026(32) 0.0 0.0 .
1010(32) 0.0 0.0 .
999(32) 0.0 0.0 .
999(32) 0.0 0.0 .
944(31) 0.0 0.0 .
953(31) 0.0 0.0 .
953(31) 0.0 0.0 .
941(31) 0.0 0.0 .
1018(32) 0.0 0.0 .
981(31) 0.0 0.0 .
932(31) 0.0 0.0 .
904(30) 0.0 0.0 .
916(30) 0.0 0.0 .
881(30) 0.0 0.0 .
855(29) 0.0 0.0 .
841(29) 0.0 0.0 .
805(28) 0.0 0.0 .
744(27) 0.0 0.0 .
724(27) 0.0 0.0 .
699(26) 0.0 0.0 .
633(25) 0.0 0.0 .
596(24) 0.0 0.0 .
570(24) 0.0 0.0 .
519(23) 0.0 0.0 .
516(23) 0.0 0.0 .
521(23) 0.0 0.0 .
425(21) 0.0 0.0 .
457(21) 0.0 0.0 .
424(21) 0.0 0.0 .
414(20) 0.0 0.0 .
404(20) 0.0 0.0 .
393(20) 0.0 0.0 .
396(20) 0.0 0.0 .
366(19) 0.0 0.0 .
363(19) 0.0 0.0 .
356(19) 0.0 0.0 .
366(19) 0.0 0.0 .
364(19) 0.0 0.0 .
373(19) 0.0 0.0 .
346(19) 0.0 0.0 .
373(19) 0.0 0.0 .
354(19) 0.0 0.0 .
350(19) 0.0 0.0 .
346(19) 0.0 0.0 .
342(18) 0.0 0.0 .
339(18) 0.0 0.0 .
383(20) 0.0 0.0 .
323(18) 0.0 0.0 .
341(18) 0.0 0.0 .
333(18) 0.0 0.0 .
348(19) 0.0 0.0 .
367(19) 0.0 0.0 .
345(19) 0.0 0.0 .
349(19) 0.0 0.0 .
381(20) 0.0 0.0 .
354(19) 0.0 0.0 .
392(20) 0.0 0.0 .
381(20) 0.0 0.0 .
355(19) 0.0 0.0 .
363(19) 0.0 0.0 .
377(19) 0.0 0.0 .
366(19) 0.0 0.0 .
366(19) 0.0 0.0 .
373(19) 0.0 0.0 .
378(19) 0.0 0.0 .
395(20) 0.0 0.0 .
372(19) 0.0 0.0 .
416(20) 0.0 0.0 .
393(20) 0.0 0.0 .
392(20) 0.0 0.0 .
414(20) 0.0 0.0 .
401(20) 0.0 0.0 .
419(20) 0.0 0.0 .
427(21) 0.0 0.0 .
392(20) 0.0 0.0 .
410(20) 0.0 0.0 .
418(20) 0.0 0.0 .
418(20) 0.0 0.0 .
429(21) 0.0 0.0 .
427(21) 0.0 0.0 .
418(20) 0.0 0.0 .
460(21) 0.0 0.0 .
444(21) 0.0 0.0 .
436(21) 0.0 0.0 .
421(21) 0.0 0.0 .
452(21) 0.0 0.0 .
434(21) 0.0 0.0 .
447(21) 0.0 0.0 .
478(22) 0.0 0.0 .
471(22) 0.0 0.0 .
478(22) 0.0 0.0 .
459(21) 0.0 0.0 .
472(22) 0.0 0.0 .
471(22) 0.0 0.0 .
496(22) 0.0 0.0 .
506(22) 0.0 0.0 .
461(21) 0.0 0.0 .
500(22) 0.0 0.0 .
502(22) 0.0 0.0 .
530(23) 0.0 0.0 .
542(23) 0.0 0.0 .
521(23) 0.0 0.0 .
580(24) 0.0 0.0 .
574(24) 0.0 0.0 .
548(23) 0.0 0.0 .
560(24) 0.0 0.0 .
564(24) 0.0 0.0 .
566(24) 0.0 0.0 .
625(25) 0.0 0.0 .
641(25) 0.0 0.0 .
689(26) 0.0 0.0 .
822(29) 0.0 0.0 .
913(30) 0.0 0.0 .
936(31) 0.0 0.0 .
1143(34) 0.0 0.0 .
1287(36) 0.0 0. .
1443(38) 0.0 0. .
1545(39) 0.0 0. .
1740(42) 0.0 0. .
1895(44) 0.0 0. .
2130(46) 0.0 0. .
2373(49) 0.0 0. .
2683(52) 0.0 0. .
2911(54) 0.0 0. .
3198(57) 0.0 0. .
3662(61) 0.0 0. .
3728(61) 0.0 0. .
4433(67) 0.0 0. .
4793(69) 0.0 0. .
5273(73) 0.0 0. .
5911(77) 0.0 0. .
6629(81) 0.0 0. .
7348(86) 0.0 0. .
8191(91) 0.0 0. .
9078(95) 0.0 0. .
9816(99) 0.0 0. .
10610(100) 0.0 0. .
11460(110) 0.0 0. .
12610(110) 0.0 0. .
13170(120) 0.0 0. .
13750(120) 0.0 0. .
14390(120) 0.0 0. .
14980(120) 0.0 0. .
15320(120) 0.0 0. .
15680(130) 0.0 0. .
16280(130) 0.0 0. .
16020(130) 0.0 0. .
15840(130) 0.0 0. .
16270(130) 0.0 0. .
16520(130) 0.0 0. .
16250(130) 0.0 0. .
16520(130) 0.0 0. .
16740(130) 0.0 0. .
16430(130) 0.0 0. .
16730(130) 0.0 0. .
16760(130) 0.0 0. .
17200(130) 0.0 0. .
16980(130) 0.0 0. .
17250(130) 0.0 0. .
16890(130) 0.0 0. .
17090(130) 0.0 0. .
16690(130) 0.0 0. .
17080(130) 0.0 0. .
17770(130) 0.0 0. .
17500(130) 0.0 0. .
16950(130) 0.0 0. .
17080(130) 0.0 0. .
17440(130) 0.0 0. .
17620(130) 0.0 0. .
17370(130) 0.0 0. .
17230(130) 0.0 0. .
17190(130) 0.0 0. .
16780(130) 0.0 0. .
16680(130) 0.0 0. .
17150(130) 0.0 0. .
16330(130) 0.0 0. .
16490(130) 0.0 0. .
16510(130) 0.0 0. .
16150(130) 0.0 0. .
15480(120) 0.0 0. .
15750(130) 0.0 0. .
15800(130) 0.0 0. .
16010(130) 0.0 0. .
15940(130) 0.0 0. .
15730(130) 0.0 0. .
15600(130) 0.0 0. .
14940(120) 0.0 0. .
14880(120) 0.0 0. .
14870(120) 0.0 0. .
14370(120) 0.0 0. .
14150(120) 0.0 0. .
14260(120) 0.0 0. .
13900(120) 0.0 0. .
13790(120) 0.0 0. .
13550(120) 0.0 0. .
13410(120) 0.0 0. .
13210(120) 0.0 0. .
13150(120) 0.0 0. .
13010(110) 0.0 0. .
13040(110) 0.0 0. .
13070(110) 0.0 0. .
12680(110) 0.0 0. .
12590(110) 0.0 0. .
12450(110) 0.0 0. .
12380(110) 0.0 0. .
12390(110) 0.0 0. .
12190(110) 0.0 0. .
12470(110) 0.0 0. .
12150(110) 0.0 0. .
11820(110) 0.0 0. .
11800(110) 0.0 0. .
12020(110) 0.0 0. .
11980(110) 0.0 0. .
11690(110) 0.0 0. .
11570(110) 0.0 0. .
11490(110) 0.0 0. .
11240(110) 0.0 0. .
11470(110) 0.0 0. .
11400(110) 0.0 0. .
11080(110) 0.0 0. .
11120(110) 0.0 0. .
10950(110) 0.0 0. .
10880(100) 0.0 0. .
10910(100) 0.0 0. .
10670(100) 0.0 0. .
10650(100) 0.0 0. .
10410(100) 0.0 0. .
10090(100) 0.0 0. .
10300(100) 0.0 0. .
10230(100) 0.0 0. .
10030(100) 0.0 0. .
9782(99) 0.0 0. .
9694(98) 0.0 0. .
9531(98) 0.0 0. .
9427(97) 0.0 0. .
9492(97) 0.0 0. .
9766(99) 0.0 0. .
9493(97) 0.0 0. .
9375(97) 0.0 0. .
9355(97) 0.0 0. .
9100(95) 0.0 0. .
9077(95) 0.0 0. .
9053(95) 0.0 0. .
8655(93) 0.0 0. .
8749(94) 0.0 0. .
8542(92) 0.0 0. .
8744(94) 0.0 0. .
8542(92) 0.0 0. .
8375(92) 0.0 0. .
8179(90) 0.0 0. .
7956(89) 0.0 0. .
8098(90) 0.0 0. .
8186(90) 0.0 0. .
8326(91) 0.0 0. .
8264(91) 0.0 0. .
7880(89) 0.0 0. .
7938(89) 0.0 0. .
7984(89) 0.0 0. .
8122(90) 0.0 0. .
8155(90) 0.0 0. .
8169(90) 0.0 0. .
7920(89) 0.0 0. .
7621(87) 0.0 0. .
7643(87) 0.0 0. .
7465(86) 0.0 0. .
7509(87) 0.0 0. .
7477(86) 0.0 0. .
7113(84) 0.0 0. .
7009(84) 0.0 0. .
7183(85) 0.0 0. .
7228(85) 0.0 0. .
7063(84) 0.0 0. .
7037(84) 0.0 0. .
6852(83) 0.0 0. .
7028(84) 0.0 0. .
7003(84) 0.0 0. .
6970(83) 0.0 0. .
7145(85) 0.0 0. .
7062(84) 0.0 0. .
6835(83) 0.0 0. .
6865(83) 0.0 0. .
6891(83) 0.0 0. .
6707(82) 0.0 0. .
6903(83) 0.0 0. .
6643(82) 0.0 0. .
6708(82) 0.0 0. .
6702(82) 0.0 0. .
6314(79) 0.0 0. .
6673(82) 0.0 0. .
6707(82) 0.0 0. .
6618(81) 0.0 0. .
6545(81) 0.0 0. .
6346(80) 0.0 0. .
6655(82) 0.0 0. .
6541(81) 0.0 0. .
6494(81) 0.0 0. .
6741(82) 0.0 0. .
6514(81) 0.0 0. .
6479(80) 0.0 0. .
6533(81) 0.0 0. .
6315(79) 0.0 0. .
6343(80) 0.0 0. .
6257(79) 0.0 0. .
6155(78) 0.0 0. .
6222(79) 0.0 0. .
6096(78) 0.0 0. .
6063(78) 0.0 0. .
5872(77) 0.0 0. .
6007(78) 0.0 0. .
6095(78) 0.0 0. .
5891(77) 0.0 0. .
5793(76) 0.0 0. .
5776(76) 0.0 0. .
5816(76) 0.0 0. .
6009(78) 0.0 0. .
5793(76) 0.0 0. .
5700(75) 0.0 0. .
5754(76) 0.0 0. .
5781(76) 0.0 0. .
5747(76) 0.0 0. .
5767(76) 0.0 0. .
5453(74) 0.0 0. .
5366(73) 0.0 0. .
5344(73) 0.0 0. .
5259(73) 0.0 0. .
5339(73) 0.0 0. .
5377(73) 0.0 0. .
5359(73) 0.0 0. .
5149(72) 0.0 0. .
5085(71) 0.0 0. .
5116(72) 0.0 0. .
5302(73) 0.0 0. .
5155(72) 0.0 0. .
5269(73) 0.0 0. .
5367(73) 0.0 0. .
5229(72) 0.0 0. .
5257(73) 0.0 0. .
5185(72) 0.0 0. .
5392(73) 0.0 0. .
5345(73) 0.0 0. .
5130(72) 0.0 0. .
5163(72) 0.0 0. .
5071(71) 0.0 0. .
5127(72) 0.0 0. .
4961(70) 0.0 0. .
5045(71) 0.0 0. .
4992(71) 0.0 0. .
4801(69) 0.0 0. .
4667(68) 0.0 0. .
4738(69) 0.0 0. .
4722(69) 0.0 0. .
4678(68) 0.0 0. .
4635(68) 0.0 0. .
4582(68) 0.0 0. .
4615(68) 0.0 0. .
4605(68) 0.0 0. .
4533(67) 0.0 0. .
4584(68) 0.0 0. .
4657(68) 0.0 0. .
4632(68) 0.0 0. .
4511(67) 0.0 0. .
4486(67) 0.0 0. .
4408(66) 0.0 0. .
4590(68) 0.0 0. .
4483(67) 0.0 0. .
4302(66) 0.0 0. .
4406(66) 0.0 0. .
4370(66) 0.0 0. .
4360(66) 0.0 0. .
4364(66) 0.0 0. .
4316(66) 0.0 0. .
4088(64) 0.0 0. .
4200(65) 0.0 0. .
4315(66) 0.0 0. .
4448(67) 0.0 0. .
4371(66) 0.0 0. .
4143(64) 0.0 0. .
4312(66) 0.0 0. .
4207(65) 0.0 0. .
4287(65) 0.0 0. .
4250(65) 0.0 0. .
4097(64) 0.0 0. .
4077(64) 0.0 0. .
3846(62) 0.0 0. .
3792(62) 0.0 0. .
3980(63) 0.0 0. .
3870(62) 0.0 0. .
3941(63) 0.0 0. .
3717(61) 0.0 0. .
3511(59) 0.0 0. .
3695(61) 0.0 0. .
3873(62) 0.0 0. .
3722(61) 0.0 0. .
3749(61) 0.0 0. .
3783(62) 0.0 0. .
3704(61) 0.0 0. .
3604(60) 0.0 0. .
3513(59) 0.0 0. .
3670(61) 0.0 0. .
3550(60) 0.0 0. .
3311(58) 0.0 0. .
3289(57) 0.0 0. .
3383(58) 0.0 0. .
3191(56) 0.0 0. .
3218(57) 0.0 0. .
3021(55) 0.0 0. .
3011(55) 0.0 0. .
3018(55) 0.0 0. .
2969(54) 0.0 0. .
2975(55) 0.0 0. .
2882(54) 0.0 0. .
2784(53) 0.0 0. .
2801(53) 0.0 0. .
2837(53) 0.0 0. .
2797(53) 0.0 0. .
2847(53) 0.0 0. .
2777(53) 0.0 0. .
2754(52) 0.0 0. .
2853(53) 0.0 0. .
2894(54) 0.0 0. .
2687(52) 0.0 0. .
2689(52) 0.0 0. .
2559(51) 0.0 0. .
2397(49) 0.0 0. .
2389(49) 0.0 0. .
2328(48) 0.0 0. .
2305(48) 0.0 0. .
2288(48) 0.0 0. .
2223(47) 0.0 0. .
2066(45) 0.0 0. .
2105(46) 0.0 0. .
2050(45) 0.0 0. .
2068(45) 0.0 0. .
2079(46) 0.0 0. .
1961(44) 0.0 0. .
2001(45) 0.0 0. .
1980(44) 0.0 0. .
1898(44) 0.0 0. .
1891(43) 0.0 0. .
1880(43) 0.0 0. .
1832(43) 0.0 0. .
1803(42) 0.0 0. .
1745(42) 0.0 0. .
1810(43) 0.0 0. .
1762(42) 0.0 0. .
1753(42) 0.0 0. .
1731(42) 0.0 0. .
1790(42) 0.0 0. .
1631(40) 0.0 0. .
1655(41) 0.0 0. .
1711(41) 0.0 0. .
1631(40) 0.0 0. .
1648(41) 0.0 0. .
1580(40) 0.0 0. .
1597(40) 0.0 0. .
1621(40) 0.0 0. .
1604(40) 0.0 0. .
1671(41) 0.0 0. .
1561(40) 0.0 0. .
1578(40) 0.0 0. .
1526(39) 0.0 0. .
1491(39) 0.0 0. .
1465(38) 0.0 0. .
1468(38) 0.0 0. .
1495(39) 0.0 0. .
1425(38) 0.0 0. .
1401(37) 0.0 0. .
1332(36) 0.0 0. .
1324(36) 0.0 0. .
1305(36) 0.0 0. .
1375(37) 0.0 0. .
1364(37) 0.0 0. .
1290(36) 0.0 0. .
1331(36) 0.0 0. .
1355(37) 0.0 0. .
1328(36) 0.0 0. .
1231(35) 0.0 0. .
1275(36) 0.0 0. .
1215(35) 0.0 0.0 .
1238(35) 0.0 0. .
1220(35) 0.0 0.0 .
1208(35) 0.0 0.0 .
1166(34) 0.0 0.0 .
1202(35) 0.0 0.0 .
1143(34) 0.0 0.0 .
1136(34) 0.0 0.0 .
1082(33) 0.0 0.0 .
1104(33) 0.0 0.0 .
1184(34) 0.0 0.0 .
1106(33) 0.0 0.0 .
1046(32) 0.0 0.0 .
1078(33) 0.0 0.0 .
1124(34) 0.0 0.0 .
1080(33) 0.0 0.0 .
1139(34) 0.0 0.0 .
1091(33) 0.0 0.0 .
1044(32) 0.0 0.0 .
1099(33) 0.0 0.0 .
1137(34) 0.0 0.0 .
1026(32) 0.0 0.0 .
1014(32) 0.0 0.0 .
1002(32) 0.0 0.0 .
936(31) 0.0 0.0 .
1006(32) 0.0 0.0 .
964(31) 0.0 0.0 .
914(30) 0.0 0.0 .
885(30) 0.0 0.0 .
872(30) 0.0 0.0 .
927(30) 0.0 0.0 .
881(30) 0.0 0.0 .
893(30) 0.0 0.0 .
879(30) 0.0 0.0 .
829(29) 0.0 0.0 .
835(29) 0.0 0.0 .
849(29) 0.0 0.0 .
793(28) 0.0 0.0 .
834(29) 0.0 0.0 .
828(29) 0.0 0.0 .
801(28) 0.0 0.0 .
890(30) 0.0 0.0 .
796(28) 0.0 0.0 .
804(28) 0.0 0.0 .
814(29) 0.0 0.0 .
741(27) 0.0 0.0 .
779(28) 0.0 0.0 .
775(28) 0.0 0.0 .
769(28) 0.0 0.0 .
777(28) 0.0 0.0 .
745(27) 0.0 0.0 .
685(26) 0.0 0.0 .
676(26) 0.0 0.0 .
656(26) 0.0 0.0 .
682(26) 0.0 0.0 .
654(26) 0.0 0.0 .
671(26) 0.0 0.0 .
620(25) 0.0 0.0 .
618(25) 0.0 0.0 .
627(25) 0.0 0.0 .
579(24) 0.0 0.0 .
588(24) 0.0 0.0 .
619(25) 0.0 0.0 .
621(25) 0.0 0.0 .
602(25) 0.0 0.0 .
599(24) 0.0 0.0 .
650(25) 0.0 0.0 .
587(24) 0.0 0.0 .
560(24) 0.0 0.0 .
543(23) 0.0 0.0 .
616(25) 0.0 0.0 .
589(24) 0.0 0.0 .
605(25) 0.0 0.0 .
595(24) 0.0 0.0 .
630(25) 0.0 0.0 .
587(24) 0.0 0.0 .
568(24) 0.0 0.0 .
546(23) 0.0 0.0 .
529(23) 0.0 0.0 .
565(24) 0.0 0.0 .
538(23) 0.0 0.0 .
515(23) 0.0 0.0 .
565(24) 0.0 0.0 .
546(23) 0.0 0.0 .
516(23) 0.0 0.0 .
520(23) 0.0 0.0 .
510(23) 0.0 0.0 .
556(24) 0.0 0.0 .
545(23) 0.0 0.0 .
509(23) 0.0 0.0 .
510(23) 0.0 0.0 .
515(23) 0.0 0.0 .
554(24) 0.0 0.0 .
544(23) 0.0 0.0 .
550(23) 0.0 0.0 .
584(24) 0.0 0.0 .
558(24) 0.0 0.0 .
500(22) 0.0 0.0 .
512(23) 0.0 0.0 .
506(22) 0.0 0.0 .
512(23) 0.0 0.0 .
462(21) 0.0 0.0 .
448(21) 0.0 0.0 .
428(21) 0.0 0.0 .
451(21) 0.0 0.0 .
392(20) 0.0 0.0 .
379(19) 0.0 0.0 .
402(20) 0.0 0.0 .
373(19) 0.0 0.0 .
386(20) 0.0 0.0 .
388(20) 0.0 0.0 .
315(18) 0.0 0.0 .
366(19) 0.0 0.0 .
330(18) 0.0 0.0 .
349(19) 0.0 0.0 .
334(18) 0.0 0.0 .
324(18) 0.0 0.0 .
297(17) 0.0 0.0 .
324(18) 0.0 0.0 .
329(18) 0.0 0.0 .
317(18) 0.0 0.0 .
269(16) 0.0 0.0 .
313(18) 0.0 0.0 .
307(18) 0.0 0.0 .
278(17) 0.0 0.0 .
273(17) 0.0 0.0 .
262(16) 0.0 0.0 .
232(15) 0.0 0.0 .
255(16) 0.0 0.0 .
247(16) 0.0 0.0 .
238(15) 0.0 0.0 .
262(16) 0.0 0.0 .
255(16) 0.0 0.0 .
218(15) 0.0 0.0 .
232(15) 0.0 0.0 .
225(15) 0.0 0.0 .
232(15) 0.0 0.0 .
217(15) 0.0 0.0 .
229(15) 0.0 0.0 .
215(15) 0.0 0.0 .
211(15) 0.0 0.0 .
231(15) 0.0 0.0 .
255(16) 0.0 0.0 .
228(15) 0.0 0.0 .
224(15) 0.0 0.0 .
221(15) 0.0 0.0 .
195(14) 0.0 0.0 .
208(14) 0.0 0.0 .
203(14) 0.0 0.0 .
209(14) 0.0 0.0 .
228(15) 0.0 0.0 .
220(15) 0.0 0.0 .
202(14) 0.0 0.0 .
204(14) 0.0 0.0 .
205(14) 0.0 0.0 .
220(15) 0.0 0.0 .
226(15) 0.0 0.0 .
220(15) 0.0 0.0 .
245(16) 0.0 0.0 .
209(14) 0.0 0.0 .
212(15) 0.0 0.0 .
225(15) 0.0 0.0 .
212(15) 0.0 0.0 .
221(15) 0.0 0.0 .
231(15) 0.0 0.0 .
218(15) 0.0 0.0 .
231(15) 0.0 0.0 .
220(15) 0.0 0.0 .
213(15) 0.0 0.0 .
206(14) 0.0 0.0 .
222(15) 0.0 0.0 .
213(15) 0.0 0.0 .
236(15) 0.0 0.0 .
232(15) 0.0 0.0 .
216(15) 0.0 0.0 .
239(15) 0.0 0.0 .
183(14) 0.0 0.0 .
195(14) 0.0 0.0 .
212(15) 0.0 0.0 .
210(14) 0.0 0.0 .
205(14) 0.0 0.0 .
193(14) 0.0 0.0 .
223(15) 0.0 0.0 .
201(14) 0.0 0.0 .
192(14) 0.0 0.0 .
195(14) 0.0 0.0 .
204(14) 0.0 0.0 .
186(14) 0.0 0.0 .
213(15) 0.0 0.0 .
184(14) 0.0 0.0 .
188(14) 0.0 0.0 .
183(14) 0.0 0.0 .
201(14) 0.0 0.0 .
174(13) 0.0 0.0 .
175(13) 0.0 0.0 .
151(12) 0.0 0.0 .
200(14) 0.0 0.0 .
166(13) 0.0 0.0 .
146(12) 0.0 0.0 .
178(13) 0.0 0.0 .
175(13) 0.0 0.0 .
174(13) 0.0 0.0 .
167(13) 0.0 0.0 .
150(12) 0.0 0.0 .
170(13) 0.0 0.0 .
154(12) 0.0 0.0 .
157(13) 0.0 0.0 .
153(12) 0.0 0.0 .
159(13) 0.0 0.0 .
166(13) 0.0 0.0 .
160(13) 0.0 0.0 .
161(13) 0.0 0.0 .
166(13) 0.0 0.0 .
157(13) 0.0 0.0 .
164(13) 0.0 0.0 .
164(13) 0.0 0.0 .
160(13) 0.0 0.0 .
154(12) 0.0 0.0 .
185(14) 0.0 0.0 .
170(13) 0.0 0.0 .
170(13) 0.0 0.0 .
152(12) 0.0 0.0 .
160(13) 0.0 0.0 .
178(13) 0.0 0.0 .
163(13) 0.0 0.0 .
191(14) 0.0 0.0 .
156(12) 0.0 0.0 .
189(14) 0.0 0.0 .
153(12) 0.0 0.0 .
143(12) 0.0 0.0 .
175(13) 0.0 0.0 .
179(13) 0.0 0.0 .
150(12) 0.0 0.0 .
156(12) 0.0 0.0 .
160(13) 0.0 0.0 .
173(13) 0.0 0.0 .
178(13) 0.0 0.0 .
176(13) 0.0 0.0 .
176(13) 0.0 0.0 .
154(12) 0.0 0.0 .
147(12) 0.0 0.0 .
148(12) 0.0 0.0 .
164(13) 0.0 0.0 .
175(13) 0.0 0.0 .
169(13) 0.0 0.0 .
155(12) 0.0 0.0 .
161(13) 0.0 0.0 .
148(12) 0.0 0.0 .
198(14) 0.0 0.0 .
178(13) 0.0 0.0 .
163(13) 0.0 0.0 .
154(12) 0.0 0.0 .
132(11) 0.0 0.0 .
173(13) 0.0 0.0 .
172(13) 0.0 0.0 .
156(12) 0.0 0.0 .
150(12) 0.0 0.0 .
174(13) 0.0 0.0 .
163(13) 0.0 0.0 .
153(12) 0.0 0.0 .
155(12) 0.0 0.0 .
170(13) 0.0 0.0 .
154(12) 0.0 0.0 .
152(12) 0.0 0.0 .
172(13) 0.0 0.0 .
164(13) 0.0 0.0 .
152(12) 0.0 0.0 .
149(12) 0.0 0.0 .
165(13) 0.0 0.0 .
164(13) 0.0 0.0 .
186(14) 0.0 0.0 .
170(13) 0.0 0.0 .
142(12) 0.0 0.0 .
140(12) 0.0 0.0 .
162(13) 0.0 0.0 .
153(12) 0.0 0.0 .
153(12) 0.0 0.0 .
167(13) 0.0 0.0 .
141(12) 0.0 0.0 .
160(13) 0.0 0.0 .
162(13) 0.0 0.0 .
156(12) 0.0 0.0 .
170(13) 0.0 0.0 .
177(13) 0.0 0.0 .
144(12) 0.0 0.0 .
185(14) 0.0 0.0 .
141(12) 0.0 0.0 .
155(12) 0.0 0.0 .
166(13) 0.0 0.0 .
148(12) 0.0 0.0 .
149(12) 0.0 0.0 .
162(13) 0.0 0.0 .
171(13) 0.0 0.0 .
155(12) 0.0 0.0 .
161(13) 0.0 0.0 .
173(13) 0.0 0.0 .
178(13) 0.0 0.0 .
162(13) 0.0 0.0 .
157(13) 0.0 0.0 .
167(13) 0.0 0.0 .
146(12) 0.0 0.0 .
152(12) 0.0 0.0 .
148(12) 0.0 0.0 .
165(13) 0.0 0.0 .
154(12) 0.0 0.0 .
156(12) 0.0 0.0 .
159(13) 0.0 0.0 .
163(13) 0.0 0.0 .
138(12) 0.0 0.0 .
169(13) 0.0 0.0 .
154(12) 0.0 0.0 .
162(13) 0.0 0.0 .
153(12) 0.0 0.0 .
142(12) 0.0 0.0 .
161(13) 0.0 0.0 .
166(13) 0.0 0.0 .
161(13) 0.0 0.0 .
163(13) 0.0 0.0 .
168(13) 0.0 0.0 .
146(12) 0.0 0.0 .
151(12) 0.0 0.0 .
145(12) 0.0 0.0 .
172(13) 0.0 0.0 .
164(13) 0.0 0.0 .
179(13) 0.0 0.0 .
168(13) 0.0 0.0 .
155(12) 0.0 0.0 .
137(12) 0.0 0.0 .
142(12) 0.0 0.0 .
160(13) 0.0 0.0 .
138(12) 0.0 0.0 .
144(12) 0.0 0.0 .
170(13) 0.0 0.0 .
157(13) 0.0 0.0 .
151(12) 0.0 0.0 .
147(12) 0.0 0.0 .
157(13) 0.0 0.0 .
147(12) 0.0 0.0 .
161(13) 0.0 0.0 .
154(12) 0.0 0.0 .
160(13) 0.0 0.0 .
174(13) 0.0 0.0 .
158(13) 0.0 0.0 .
155(12) 0.0 0.0 .
152(12) 0.0 0.0 .
138(12) 0.0 0.0 .
160(13) 0.0 0.0 .
172(13) 0.0 0.0 .
140(12) 0.0 0.0 .
144(12) 0.0 0.0 .
153(12) 0.0 0.0 .
175(13) 0.0 0.0 .
151(12) 0.0 0.0 .
175(13) 0.0 0.0 .
172(13) 0.0 0.0 .
139(12) 0.0 0.0 .
164(13) 0.0 0.0 .
148(12) 0.0 0.0 .
171(13) 0.0 0.0 .
149(12) 0.0 0.0 .
139(12) 0.0 0.0 .
164(13) 0.0 0.0 .
171(13) 0.0 0.0 .
138(12) 0.0 0.0 .
150(12) 0.0 0.0 .
129(11) 0.0 0.0 .
149(12) 0.0 0.0 .
180(13) 0.0 0.0 .
166(13) 0.0 0.0 .
153(12) 0.0 0.0 .
164(13) 0.0 0.0 .
163(13) 0.0 0.0 .
168(13) 0.0 0.0 .
169(13) 0.0 0.0 .
158(13) 0.0 0.0 .
154(12) 0.0 0.0 .
160(13) 0.0 0.0 .
157(13) 0.0 0.0 .
179(13) 0.0 0.0 .
176(13) 0.0 0.0 .
160(13) 0.0 0.0 .
159(13) 0.0 0.0 .
171(13) 0.0 0.0 .
176(13) 0.0 0.0 .
155(12) 0.0 0.0 .
152(12) 0.0 0.0 .
161(13) 0.0 0.0 .
151(12) 0.0 0.0 .
179(13) 0.0 0.0 .
177(13) 0.0 0.0 .
173(13) 0.0 0.0 .
157(13) 0.0 0.0 .
157(13) 0.0 0.0 .
173(13) 0.0 0.0 .
173(13) 0.0 0.0 .
188(14) 0.0 0.0 .
178(13) 0.0 0.0 .
192(14) 0.0 0.0 .
187(14) 0.0 0.0 .
181(13) 0.0 0.0 .
166(13) 0.0 0.0 .
170(13) 0.0 0.0 .
170(13) 0.0 0.0 .
194(14) 0.0 0.0 .
191(14) 0.0 0.0 .
168(13) 0.0 0.0 .
188(14) 0.0 0.0 .
180(13) 0.0 0.0 .
189(14) 0.0 0.0 .
197(14) 0.0 0.0 .
184(14) 0.0 0.0 .
180(13) 0.0 0.0 .
200(14) 0.0 0.0 .
203(14) 0.0 0.0 .
197(14) 0.0 0.0 .
185(14) 0.0 0.0 .
198(14) 0.0 0.0 .
196(14) 0.0 0.0 .
190(14) 0.0 0.0 .
210(14) 0.0 0.0 .
190(14) 0.0 0.0 .
210(14) 0.0 0.0 .
209(14) 0.0 0.0 .
219(15) 0.0 0.0 .
215(15) 0.0 0.0 .
213(15) 0.0 0.0 .
212(15) 0.0 0.0 .
244(16) 0.0 0.0 .
222(15) 0.0 0.0 .
201(14) 0.0 0.0 .
209(14) 0.0 0.0 .
222(15) 0.0 0.0 .
236(15) 0.0 0.0 .
224(15) 0.0 0.0 .
218(15) 0.0 0.0 .
226(15) 0.0 0.0 .
256(16) 0.0 0.0 .
267(16) 0.0 0.0 .
255(16) 0.0 0.0 .
245(16) 0.0 0.0 .
246(16) 0.0 0.0 .
252(16) 0.0 0.0 .
234(15) 0.0 0.0 .
264(16) 0.0 0.0 .
256(16) 0.0 0.0 .
273(17) 0.0 0.0 .
297(17) 0.0 0.0 .
295(17) 0.0 0.0 .
294(17) 0.0 0.0 .
284(17) 0.0 0.0 .
301(17) 0.0 0.0 .
298(17) 0.0 0.0 .
294(17) 0.0 0.0 .
286(17) 0.0 0.0 .
298(17) 0.0 0.0 .
342(18) 0.0 0.0 .
335(18) 0.0 0.0 .
303(17) 0.0 0.0 .
328(18) 0.0 0.0 .
350(19) 0.0 0.0 .
391(20) 0.0 0.0 .
345(19) 0.0 0.0 .
375(19) 0.0 0.0 .
384(20) 0.0 0.0 .
384(20) 0.0 0.0 .
413(20) 0.0 0.0 .
379(19) 0.0 0.0 .
410(20) 0.0 0.0 .
409(20) 0.0 0.0 .
395(20) 0.0 0.0 .
394(20) 0.0 0.0 .
401(20) 0.0 0.0 .
451(21) 0.0 0.0 .
439(21) 0.0 0.0 .
454(21) 0.0 0.0 .
475(22) 0.0 0.0 .
492(22) 0.0 0.0 .
469(22) 0.0 0.0 .
506(22) 0.0 0.0 .
531(23) 0.0 0.0 .
538(23) 0.0 0.0 .
551(23) 0.0 0.0 .
529(23) 0.0 0.0 .
535(23) 0.0 0.0 .
573(24) 0.0 0.0 .
569(24) 0.0 0.0 .
642(25) 0.0 0.0 .
592(24) 0.0 0.0 .
642(25) 0.0 0.0 .
677(26) 0.0 0.0 .
700(26) 0.0 0.0 .
723(27) 0.0 0.0 .
752(27) 0.0 0.0 .
775(28) 0.0 0.0 .
797(28) 0.0 0.0 .
819(29) 0.0 0.0 .
897(30) 0.0 0.0 .
912(30) 0.0 0.0 .
999(32) 0.0 0.0 .
1005(32) 0.0 0.0 .
1074(33) 0.0 0.0 .
1180(34) 0.0 0.0 .
1192(35) 0.0 0.0 .
1303(36) 0.0 0. .
1442(38) 0.0 0. .
1491(39) 0.0 0. .
1655(41) 0.0 0. .
1837(43) 0.0 0. .
2068(45) 0.0 0. .
2306(48) 0.0 0. .
2630(51) 0.0 0. .
2876(54) 0.0 0. .
3240(57) 0.0 0. .
3560(60) 0.0 0. .
3875(62) 0.0 0. .
4106(64) 0.0 0. .
4256(65) 0.0 0. .
4637(68) 0.0 0. .
4899(70) 0.0 0. .
5404(74) 0.0 0. .
6003(77) 0.0 0. .
6579(81) 0.0 0. .
7292(85) 0.0 0. .
8419(92) 0.0 0. .
9484(97) 0.0 0. .
11190(110) 0.0 0. .
13470(120) 0.0 0. .
16400(130) 0.0 0. .
20310(140) 0.0 0. .
26090(160) 0.0 0. .
33770(180) 0.0 0. .
44650(210) 0.0 0. .
58380(240) 0.0 0. .
76290(280) 0.0 0. .
97640(310) 0.0 0. .
123390(350) 0.0 0. .
151430(390) 0.0 0. .
179410(420) 0.0 0. .
202970(450) 0.0 0. .
206670(460) 0.0 0. .
187320(430) 0.0 0. .
150760(390) 0.0 0. .
116710(340) 0.0 0. .
89940(300) 0.0 0. .
69400(260) 0.0 0. .
54020(230) 0.0 0. .
42290(210) 0.0 0. .
33820(180) 0.0 0. .
27420(170) 0.0 0. .
22600(150) 0.0 0. .
18330(140) 0.0 0. .
15310(120) 0.0 0. .
13170(120) 0.0 0. .
11320(110) 0.0 0. .
9690(98) 0.0 0. .
8398(92) 0.0 0. .
7314(86) 0.0 0. .
6442(80) 0.0 0. .
5776(76) 0.0 0. .
5129(72) 0.0 0. .
4622(68) 0.0 0. .
4259(65) 0.0 0. .
3865(62) 0.0 0. .
3505(59) 0.0 0. .
3270(57) 0.0 0. .
2976(55) 0.0 0. .
2777(53) 0.0 0. .
2572(51) 0.0 0. .
2405(49) 0.0 0. .
2273(48) 0.0 0. .
2063(45) 0.0 0. .
2053(45) 0.0 0. .
1791(42) 0.0 0. .
1840(43) 0.0 0. .
1677(41) 0.0 0. .
1626(40) 0.0 0. .
1565(40) 0.0 0. .
1525(39) 0.0 0. .
1330(36) 0.0 0. .
1337(37) 0.0 0. .
1352(37) 0.0 0. .
1231(35) 0.0 0. .
1178(34) 0.0 0.0 .
1194(35) 0.0 0.0 .
1088(33) 0.0 0.0 .
1082(33) 0.0 0.0 .
1078(33) 0.0 0.0 .
1029(32) 0.0 0.0 .
985(31) 0.0 0.0 .
956(31) 0.0 0.0 .
949(31) 0.0 0.0 .
897(30) 0.0 0.0 .
860(29) 0.0 0.0 .
866(29) 0.0 0.0 .
847(29) 0.0 0.0 .
815(29) 0.0 0.0 .
824(29) 0.0 0.0 .
758(28) 0.0 0.0 .
777(28) 0.0 0.0 .
791(28) 0.0 0.0 .
734(27) 0.0 0.0 .
746(27) 0.0 0.0 .
686(26) 0.0 0.0 .
760(28) 0.0 0.0 .
713(27) 0.0 0.0 .
710(27) 0.0 0.0 .
702(26) 0.0 0.0 .
674(26) 0.0 0.0 .
662(26) 0.0 0.0 .
678(26) 0.0 0.0 .
682(26) 0.0 0.0 .
651(26) 0.0 0.0 .
602(25) 0.0 0.0 .
600(24) 0.0 0.0 .
635(25) 0.0 0.0 .
621(25) 0.0 0.0 .
628(25) 0.0 0.0 .
629(25) 0.0 0.0 .
560(24) 0.0 0.0 .
536(23) 0.0 0.0 .
612(25) 0.0 0.0 .
574(24) 0.0 0.0 .
558(24) 0.0 0.0 .
548(23) 0.0 0.0 .
546(23) 0.0 0.0 .
522(23) 0.0 0.0 .
552(23) 0.0 0.0 .
515(23) 0.0 0.0 .
507(23) 0.0 0.0 .
535(23) 0.0 0.0 .
517(23) 0.0 0.0 .
510(23) 0.0 0.0 .
496(22) 0.0 0.0 .
495(22) 0.0 0.0 .
492(22) 0.0 0.0 .
474(22) 0.0 0.0 .
460(21) 0.0 0.0 .
489(22) 0.0 0.0 .
463(22) 0.0 0.0 .
470(22) 0.0 0.0 .
520(23) 0.0 0.0 .
471(22) 0.0 0.0 .
456(21) 0.0 0.0 .
496(22) 0.0 0.0 .
520(23) 0.0 0.0 .
485(22) 0.0 0.0 .
483(22) 0.0 0.0 .
516(23) 0.0 0.0 .
545(23) 0.0 0.0 .
590(24) 0.0 0.0 .
558(24) 0.0 0.0 .
528(23) 0.0 0.0 .
564(24) 0.0 0.0 .
550(23) 0.0 0.0 .
575(24) 0.0 0.0 .
604(25) 0.0 0.0 .
602(25) 0.0 0.0 .
614(25) 0.0 0.0 .
644(25) 0.0 0.0 .
571(24) 0.0 0.0 .
619(25) 0.0 0.0 .
574(24) 0.0 0.0 .
588(24) 0.0 0.0 .
592(24) 0.0 0.0 .
575(24) 0.0 0.0 .
528(23) 0.0 0.0 .
504(22) 0.0 0.0 .
487(22) 0.0 0.0 .
494(22) 0.0 0.0 .
447(21) 0.0 0.0 .
461(21) 0.0 0.0 .
443(21) 0.0 0.0 .
426(21) 0.0 0.0 .
410(20) 0.0 0.0 .
390(20) 0.0 0.0 .
389(20) 0.0 0.0 .
388(20) 0.0 0.0 .
371(19) 0.0 0.0 .
364(19) 0.0 0.0 .
337(18) 0.0 0.0 .
324(18) 0.0 0.0 .
332(18) 0.0 0.0 .
334(18) 0.0 0.0 .
342(18) 0.0 0.0 .
306(17) 0.0 0.0 .
325(18) 0.0 0.0 .
314(18) 0.0 0.0 .
313(18) 0.0 0.0 .
307(18) 0.0 0.0 .
288(17) 0.0 0.0 .
262(16) 0.0 0.0 .
282(17) 0.0 0.0 .
281(17) 0.0 0.0 .
246(16) 0.0 0.0 .
247(16) 0.0 0.0 .
261(16) 0.0 0.0 .
271(16) 0.0 0.0 .
275(17) 0.0 0.0 .
243(16) 0.0 0.0 .
248(16) 0.0 0.0 .
236(15) 0.0 0.0 .
247(16) 0.0 0.0 .
248(16) 0.0 0.0 .
242(16) 0.0 0.0 .
249(16) 0.0 0.0 .
239(15) 0.0 0.0 .
240(15) 0.0 0.0 .
219(15) 0.0 0.0 .
231(15) 0.00433 215.7 2.7
239(15) 0.00418 215.4 2.7
224(15) 0.00446 215.1 2.8
235(15) 0.00426 214.9 2.8
202(14) 0.00495 214.6 2.9
231(15) 0.00433 214.4 2.9
246(16) 0.00407 214.1 3.0
201(14) 0.00498 213.8 3.0
223(15) 0.00448 213.6 3.1
216(15) 0.00463 213.3 3.1
216(15) 0.00463 213.0 3.2
212(15) 0.00472 212.8 3.2
233(15) 0.00429 212.5 3.3
263(16) 0.00380 212.3 3.4
237(15) 0.00422 212.0 3.4
234(15) 0.00427 211.7 3.5
214(15) 0.00467 211.5 3.5
213(15) 0.00469 211.2 3.6
244(16) 0.00410 211.0 3.7
228(15) 0.00439 210.7 3.8
243(16) 0.00412 210.4 3.8
235(15) 0.00426 210.2 3.9
226(15) 0.00442 209.9 4.0
237(15) 0.00422 209.6 4.1
243(16) 0.00412 209.4 4.1
272(16) 0.00368 209.1 4.2
246(16) 0.00407 208.9 4.3
257(16) 0.00389 208.6 4.4
247(16) 0.00405 208.3 4.5
259(16) 0.00386 208.1 4.6
236(15) 0.00424 207.8 4.7
272(16) 0.00368 207.6 4.8
232(15) 0.00431 207.3 4.9
223(15) 0.00448 207.0 5.0
222(15) 0.00450 206.8 5.1
222(15) 0.00450 206.5 5.2
243(16) 0.00412 206.3 5.3
244(16) 0.00410 206.0 5.5
219(15) 0.00457 205.7 5.6
222(15) 0.00450 205.5 5.7
236(15) 0.00424 205.2 5.9
235(15) 0.00426 204.9 6.0
237(15) 0.00422 204.7 6.2
233(15) 0.00429 204.4 6.3
222(15) 0.00450 204.2 6.5
236(15) 0.00424 203.9 6.6
212(15) 0.00472 203.6 6.8
234(15) 0.00427 203.4 7.0
240(15) 0.00417 203.1 7.2
234(15) 0.00427 202.9 7.4
220(15) 0.00455 202.6 7.6
215(15) 0.00465 202.3 7.8
198(14) 0.00505 202.1 8.0
208(14) 0.00481 201.8 8.2
218(15) 0.00459 201.5 8.5
253(16) 0.00395 201.3 8.7
222(15) 0.00450 201.0 9.0
215(15) 0.00465 200.8 9.2
190(14) 0.00526 200.5 9.5
211(15) 0.00474 200.2 9.8
229(15) 0.00437 200.0 10.1
203(14) 0.00493 199.7 10.4
202(14) 0.00495 199.5 10.8
193(14) 0.00518 199.2 11.1
224(15) 0.00446 198.9 11.5
205(14) 0.00488 198.7 11.9
206(14) 0.00485 198.2 12.3
193(14) 0.00518 197.7 12.8
219(15) 0.00457 197.2 13.2
210(14) 0.00476 196.6 13.7
229(15) 0.00437 196.1 14.2
207(14) 0.00483 195.6 14.8
205(14) 0.00488 195.0 15.3
232(15) 0.00431 194.5 16.0
190(14) 0.00526 194.0 16.6
211(15) 0.00474 193.5 17.3
213(15) 0.00469 192.9 18.0
218(15) 0.00459 192.4 18.8
235(15) 0.00426 191.9 19.6
221(15) 0.00452 191.3 20.5
207(14) 0.00483 190.8 21.4
203(14) 0.00493 190.3 22.4
222(15) 0.00450 189.8 23.5
231(15) 0.00433 189.2 24.7
229(15) 0.00437 188.7 25.9
222(15) 0.00450 188.2 27.2
246(16) 0.00407 187.6 28.7
219(15) 0.00457 187.1 30.2
249(16) 0.00402 186.6 31.9
245(16) 0.00408 186.1 33.7
226(15) 0.00442 185.5 35.7
258(16) 0.00388 185.0 37.9
252(16) 0.00397 184.5 40.3
248(16) 0.00403 183.9 42.9
250(16) 0.00400 183.4 45.7
277(17) 0.00361 182.9 48.8
260(16) 0.00385 182.3 52.3
292(17) 0.003425 181.8 56.2
271(16) 0.00369 181.3 60.5
275(17) 0.00364 180.8 65.3
295(17) 0.003390 180.2 70.8
320(18) 0.003125 179.7 77.0
332(18) 0.003012 179.2 84.2
338(18) 0.002959 178.6 92.7
355(19) 0.002817 178.1 102.9
379(19) 0.002639 177.6 115.1
401(20) 0.002494 177.1 130.1
431(21) 0.002320 176.5 148.7
423(21) 0.002364 176.0 172.0
425(21) 0.002353 175.5 201.1
494(22) 0.002024 174.9 237.5
537(23) 0.001862 174.4 282.6
600(24) 0.001667 173.9 337.9
602(25) 0.001661 173.4 404.6
659(26) 0.001517 172.8 483.8
710(27) 0.001408 172.3 575.7
797(28) 0.001255 171.8 679.9
833(29) 0.001200 171.2 794.5
964(31) 0.001037 170.7 916.0
1020(32) 0.000980 170.2 1038.5
1092(33) 0.000916 169.7 1152.9
1107(33) 0.000903 169.1 1247.5
1218(35) 0.000821 168.6 1309.6
1210(35) 0.000826 168.1 1328.8
1190(34) 0.000840 167.5 1301.8
1193(35) 0.000838 167.0 1233.5
1101(33) 0.000908 166.5 1134.6
1036(32) 0.000965 166.0 1018.0
834(29) 0.001199 165.4 895.2
694(26) 0.001441 164.9 774.5
676(26) 0.001479 164.4 661.5
593(24) 0.001686 163.8 559.3
529(23) 0.001890 163.3 469.5
492(22) 0.002033 162.8 392.5
451(21) 0.002217 162.3 327.7
439(21) 0.002278 161.7 274.3
397(20) 0.002519 161.2 230.8
358(19) 0.002793 160.7 195.7
332(18) 0.003012 160.1 167.7
333(18) 0.003003 159.6 145.3
302(17) 0.003311 159.1 127.3
353(19) 0.002833 158.6 112.9
285(17) 0.00351 158.0 101.0
315(18) 0.003175 157.5 91.2
272(16) 0.00368 157.0 83.0
289(17) 0.003460 156.4 75.9
282(17) 0.00355 155.9 69.8
299(17) 0.003344 155.4 64.4
270(16) 0.00370 154.8 59.7
262(16) 0.00382 154.3 55.5
256(16) 0.00391 153.8 51.7
248(16) 0.00403 153.3 48.3
242(16) 0.00413 152.7 45.2
247(16) 0.00405 152.2 42.4
237(15) 0.00422 151.7 39.9
232(15) 0.00431 151.1 37.5
237(15) 0.00422 150.6 35.4
227(15) 0.00441 150.1 33.4
207(14) 0.00483 149.6 31.6
190(14) 0.00526 149.0 30.0
181(13) 0.00552 148.5 28.4
200(14) 0.00500 148.0 27.0
183(14) 0.00546 147.4 25.7
191(14) 0.00524 146.9 24.5
214(15) 0.00467 146.4 23.3
187(14) 0.00535 145.9 22.3
170(13) 0.00588 145.3 21.3
180(13) 0.00556 144.8 20.4
175(13) 0.00571 144.3 19.5
181(13) 0.00552 143.7 18.7
179(13) 0.00559 143.2 17.9
175(13) 0.00571 142.7 17.2
166(13) 0.00602 142.2 16.5
159(13) 0.00629 141.6 15.9
146(12) 0.00685 141.1 15.3
167(13) 0.00599 140.6 14.7
150(12) 0.00667 140.0 14.2
163(13) 0.00614 139.5 13.7
163(13) 0.00614 139.0 13.2
152(12) 0.00658 138.5 12.7
144(12) 0.00694 137.9 12.3
150(12) 0.00667 137.4 11.9
164(13) 0.00610 136.9 11.5
148(12) 0.00676 136.3 11.1
148(12) 0.00676 135.8 10.8
138(12) 0.00725 135.3 10.4
143(12) 0.00699 134.8 10.1
147(12) 0.00680 134.2 9.8
151(12) 0.00662 133.7 9.5
147(12) 0.00680 133.2 9.2
129(11) 0.00775 132.6 9.0
147(12) 0.00680 132.1 8.7
130(11) 0.00769 131.6 8.5
136(12) 0.00735 131.1 8.2
131(11) 0.00763 130.5 8.0
142(12) 0.00704 130.0 7.8
112(11) 0.00893 129.5 7.6
116(11) 0.00862 128.9 7.4
144(12) 0.00694 128.4 7.2
139(12) 0.00719 127.9 7.0
119(11) 0.00840 127.4 6.8
120(11) 0.00833 126.8 6.6
134(12) 0.00746 126.3 6.5
117(11) 0.00855 125.8 6.3
118(11) 0.00847 125.2 6.2
117(11) 0.00855 124.7 6.0
121(11) 0.00826 124.2 5.9
111(11) 0.00901 123.6 5.8
123(11) 0.00813 123.1 5.6
136(12) 0.00735 122.6 5.5
103(10) 0.00971 122.1 5.4
125(11) 0.00800 121.5 5.3
115(11) 0.00870 121.0 5.1
133(12) 0.00752 120.5 5.0
128(11) 0.00781 119.9 4.9
99(10) 0.01010 119.4 4.8
107(10) 0.00935 118.9 4.7
131(11) 0.00763 118.4 4.6
103(10) 0.00971 117.8 4.5
119(11) 0.00840 117.3 4.4
134(12) 0.00746 116.8 4.3
116(11) 0.00862 116.2 4.3
104(10) 0.00962 115.7 4.2
115(11) 0.00870 115.2 4.1
116(11) 0.00862 114.7 4.0
116(11) 0.00862 114.1 3.9
108(10) 0.00926 113.6 3.9
113(11) 0.00885 113.1 3.8
115(11) 0.00870 112.5 3.7
106(10) 0.00943 112.0 3.7
112(11) 0.00893 111.5 3.6
99(10) 0.01010 111.0 3.5
121(11) 0.00826 110.4 3.5
126(11) 0.00794 109.9 3.4
128(11) 0.00781 109.4 3.4
112(11) 0.00893 108.8 3.3
98(10) 0.01020 108.3 3.2
112(11) 0.00893 107.8 3.2
120(11) 0.00833 107.3 3.1
121(11) 0.00826 106.7 3.1
122(11) 0.00820 106.2 3.0
119(11) 0.00840 105.7 3.0
101(10) 0.00990 105.1 2.9
118(11) 0.00847 105.1 2.9
117(11) 0.00855 105.1 2.8
99(10) 0.01010 105.1 2.8
107(10) 0.00935 105.1 2.8
134(12) 0.00746 105.1 2.7
124(11) 0.00806 105.1 2.7
118(11) 0.00847 105.0 2.6
114(11) 0.00877 105.0 2.6
111(11) 0.00901 105.0 2.6
119(11) 0.00840 105.0 2.5
100(10) 0.01000 105.0 2.5
121(11) 0.00826 105.0 2.4
109(10) 0.00917 105.0 2.4
104(10) 0.00962 105.0 2.4
99(10) 0.01010 104.9 2.3
112(11) 0.00893 104.9 2.3
118(11) 0.00847 104.9 2.3
122(11) 0.00820 104.9 2.3
115(11) 0.00870 104.9 2.2
101(10) 0.00990 104.9 2.2
109(10) 0.00917 104.9 2.2
120(11) 0.00833 104.8 2.1
119(11) 0.00840 104.8 2.1
124(11) 0.00806 104.8 2.1
102(10) 0.00980 104.8 2.1
107(10) 0.00935 104.8 2.0
105(10) 0.00952 104.8 2.0
119(11) 0.00840 104.8 2.0
106(10) 0.00943 104.8 2.0
80(9) 0.01250 104.7 1.9
112(11) 0.00893 104.7 1.9
127(11) 0.00787 104.7 1.9
104(10) 0.00962 104.7 1.9
100(10) 0.01000 104.7 1.8
112(11) 0.00893 104.7 1.8
115(11) 0.00870 104.7 1.8
112(11) 0.00893 104.7 1.8
98(10) 0.01020 104.6 1.8
110(10) 0.00909 104.6 1.7
131(11) 0.00763 104.6 1.7
105(10) 0.00952 104.6 1.7
113(11) 0.00885 104.6 1.7
101(10) 0.00990 104.6 1.7
113(11) 0.00885 104.6 1.7
98(10) 0.01020 104.5 1.6
119(11) 0.00840 104.5 1.6
89(9) 0.01124 104.5 1.6
131(11) 0.00763 104.5 1.6
119(11) 0.00840 104.5 1.6
97(10) 0.01031 104.5 1.6
131(11) 0.00763 104.5 1.5
121(11) 0.00826 104.5 1.5
109(10) 0.00917 104.4 1.5
105(10) 0.00952 104.4 1.5
120(11) 0.00833 104.4 1.5
97(10) 0.01031 104.4 1.5
103(10) 0.00971 104.4 1.5
112(11) 0.00893 104.4 1.4
100(10) 0.01000 104.4 1.4
110(10) 0.00909 104.3 1.4
122(11) 0.00820 104.3 1.4
103(10) 0.00971 104.3 1.4
123(11) 0.00813 104.3 1.4
116(11) 0.00862 104.3 1.4
108(10) 0.00926 104.3 1.4
93(10) 0.01075 104.3 1.4
115(11) 0.00870 104.3 1.3
103(10) 0.00971 104.2 1.3
108(10) 0.00926 104.2 1.3
115(11) 0.00870 104.2 1.3
112(11) 0.00893 104.2 1.3
106(10) 0.00943 104.2 1.3
126(11) 0.00794 104.2 1.3
122(11) 0.00820 104.2 1.3
123(11) 0.00813 104.2 1.3
109(10) 0.00917 104.1 1.3
98(10) 0.01020 104.1 1.3
129(11) 0.00775 104.1 1.2
114(11) 0.00877 104.1 1.2
119(11) 0.00840 104.1 1.2
109(10) 0.00917 104.1 1.2
97(10) 0.01031 104.1 1.2
105(10) 0.00952 104.0 1.2
117(11) 0.00855 104.0 1.2
113(11) 0.00885 104.0 1.2
104(10) 0.00962 104.0 1.2
102(10) 0.00980 104.0 1.2
109(10) 0.00917 104.0 1.2
101(10) 0.00990 104.0 1.2
109(10) 0.00917 104.0 1.2
105(10) 0.00952 103.9 1.2
112(11) 0.00893 103.9 1.2
106(10) 0.00943 103.9 1.1
108(10) 0.00926 103.9 1.1
93(10) 0.01075 103.9 1.1
110(10) 0.00909 103.9 1.1
107(10) 0.00935 103.9 1.1
96(10) 0.01042 103.8 1.1
112(11) 0.00893 103.8 1.1
117(11) 0.00855 103.8 1.1
117(11) 0.00855 103.8 1.1
117(11) 0.00855 103.8 1.1
96(10) 0.01042 103.8 1.1
89(9) 0.01124 103.8 1.1
108(10) 0.00926 103.8 1.1
109(10) 0.00917 103.7 1.1
97(10) 0.01031 103.7 1.1
117(11) 0.00855 103.7 1.1
99(10) 0.01010 103.7 1.1
101(10) 0.00990 103.7 1.1
109(10) 0.00917 103.7 1.1
101(10) 0.00990 103.7 1.1
103(10) 0.00971 103.6 1.1
118(11) 0.00847 103.6 1.1
105(10) 0.00952 103.6 1.1
93(10) 0.01075 103.6 1.1
113(11) 0.00885 103.6 1.1
104(10) 0.00962 103.6 1.1
96(10) 0.01042 103.6 1.1
120(11) 0.00833 103.6 1.1
113(11) 0.00885 103.5 1.1
103(10) 0.00971 103.5 1.1
114(11) 0.00877 103.5 1.1
111(11) 0.00901 103.5 1.1
103(10) 0.00971 103.5 1.1
104(10) 0.00962 103.5 1.1
101(10) 0.00990 103.5 1.1
96(10) 0.01042 103.5 1.1
110(10) 0.00909 103.4 1.1
108(10) 0.00926 103.4 1.1
110(10) 0.00909 103.4 1.1
102(10) 0.00980 103.4 1.1
94(10) 0.01064 103.4 1.1
98(10) 0.01020 103.4 1.1
112(11) 0.00893 103.4 1.1
105(10) 0.00952 103.3 1.1
114(11) 0.00877 103.3 1.1
103(10) 0.00971 103.3 1.1
110(10) 0.00909 103.3 1.2
81(9) 0.01235 103.3 1.2
89(9) 0.01124 103.3 1.2
118(11) 0.00847 103.3 1.2
118(11) 0.00847 103.3 1.2
108(10) 0.00926 103.2 1.2
101(10) 0.00990 103.2 1.2
101(10) 0.00990 103.2 1.2
98(10) 0.01020 103.2 1.2
86(9) 0.01163 103.2 1.2
100(10) 0.01000 103.2 1.2
104(10) 0.00962 103.2 1.3
113(11) 0.00885 103.1 1.3
116(11) 0.00862 103.1 1.3
103(10) 0.00971 103.1 1.3
108(10) 0.00926 103.1 1.3
105(10) 0.00952 103.1 1.3
109(10) 0.00917 103.1 1.3
114(11) 0.00877 103.1 1.4
99(10) 0.01010 103.1 1.4
105(10) 0.00952 103.0 1.4
107(10) 0.00935 103.0 1.4
105(10) 0.00952 103.0 1.4
114(11) 0.00877 103.0 1.4
103(10) 0.00971 103.0 1.0
120(11) 0.00833 103.0 1.0
111(11) 0.00901 103.0 1.0
112(11) 0.00893 102.9 1.0
95(10) 0.01053 102.9 1.1
104(10) 0.00962 102.9 1.1
98(10) 0.01020 102.9 1.1
102(10) 0.00980 102.9 1.2
122(11) 0.00820 102.9 1.2
117(11) 0.00855 102.9 1.2
107(10) 0.00935 102.9 1.3
116(11) 0.00862 102.8 1.3
94(10) 0.01064 102.8 1.4
120(11) 0.00833 102.8 1.4
96(10) 0.01042 102.8 1.5
94(10) 0.01064 102.8 1.5
115(11) 0.00870 102.8 1.6
97(10) 0.01031 102.8 1.6
93(10) 0.01075 102.8 1.7
103(10) 0.00971 102.7 1.7
99(10) 0.01010 102.7 1.8
98(10) 0.01020 102.7 1.9
101(10) 0.00990 102.7 2.0
106(10) 0.00943 102.7 2.0
112(11) 0.00893 102.7 2.1
119(11) 0.00840 102.7 2.2
132(11) 0.00758 102.6 2.3
100(10) 0.01000 102.6 2.4
124(11) 0.00806 102.6 2.5
120(11) 0.00833 102.6 2.6
119(11) 0.00840 102.6 2.7
114(11) 0.00877 102.6 2.9
124(11) 0.00806 102.6 3.0
106(10) 0.00943 102.6 3.1
97(10) 0.01031 102.5 3.3
118(11) 0.00847 102.8 3.5
111(11) 0.00901 103.0 3.7
93(10) 0.01075 103.3 3.9
102(10) 0.00980 103.5 4.2
113(11) 0.00885 103.7 4.4
116(11) 0.00862 104.0 4.8
112(11) 0.00893 104.2 5.1
111(11) 0.00901 104.5 5.5
126(11) 0.00794 104.7 6.0
131(11) 0.00763 105.0 6.5
113(11) 0.00885 105.2 7.1
136(12) 0.00735 105.4 7.8
134(12) 0.00746 105.7 8.5
123(11) 0.00813 105.9 9.4
110(10) 0.00909 106.2 10.4
122(11) 0.00820 106.4 11.5
118(11) 0.00847 106.6 12.8
109(10) 0.00917 106.9 14.2
128(11) 0.00781 107.1 15.8
124(11) 0.00806 107.4 17.6
123(11) 0.00813 107.6 19.5
137(12) 0.00730 107.9 21.6
117(11) 0.00855 108.1 23.9
135(12) 0.00741 108.3 26.3
136(12) 0.00735 108.6 29.0
125(11) 0.00800 108.8 31.7
128(11) 0.00781 109.1 34.6
143(12) 0.00699 109.3 37.5
126(11) 0.00794 109.5 40.5
138(12) 0.00725 109.8 43.5
128(11) 0.00781 110.0 46.4
133(12) 0.00752 110.3 49.1
138(12) 0.00725 110.5 51.6
132(11) 0.00758 110.8 53.7
104(10) 0.00962 111.0 55.3
130(11) 0.00769 111.2 56.4
150(12) 0.00667 111.5 56.9
152(12) 0.00658 111.7 56.7
126(11) 0.00794 112.0 55.9
111(11) 0.00901 112.2 54.6
125(11) 0.00800 112.4 52.7
142(12) 0.00704 112.7 50.5
128(11) 0.00781 112.9 47.9
123(11) 0.00813 113.2 45.0
139(12) 0.00719 113.4 42.1
131(11) 0.00763 113.6 39.1
123(11) 0.00813 113.9 36.1
119(11) 0.00840 114.1 33.2
119(11) 0.00840 114.4 30.4
121(11) 0.00826 114.6 27.7
119(11) 0.00840 114.9 25.1
120(11) 0.00833 115.1 22.8
116(11) 0.00862 115.3 20.6
121(11) 0.00826 115.6 18.5
120(11) 0.00833 115.8 16.7
125(11) 0.00800 116.1 15.0
126(11) 0.00794 116.3 13.5
110(10) 0.00909 116.5 12.2
115(11) 0.00870 116.8 11.0
119(11) 0.00840 117.0 9.9
125(11) 0.00800 117.3 9.0
105(10) 0.00952 117.5 8.1
101(10) 0.00990 117.8 7.4
133(12) 0.00752 118.0 6.8
107(10) 0.00935 118.2 6.2
118(11) 0.00847 118.5 5.7
128(11) 0.00781 118.7 5.3
129(11) 0.00775 119.0 4.9
127(11) 0.00787 119.2 4.6
122(11) 0.00820 119.4 4.3
107(10) 0.00935 119.7 4.0
129(11) 0.00775 119.9 3.8
129(11) 0.00775 120.2 3.6
114(11) 0.00877 120.4 3.4
124(11) 0.00806 120.7 3.2
121(11) 0.00826 120.9 3.1
127(11) 0.00787 121.1 2.9
125(11) 0.00800 121.4 2.8
111(11) 0.00901 121.6 2.7
130(11) 0.00769 121.9 2.5
112(11) 0.00893 122.1 10.1
123(11) 0.00813 122.3 10.1
115(11) 0.00870 122.6 10.1
111(11) 0.00901 122.8 10.1
121(11) 0.00826 123.1 10.1
121(11) 0.00826 123.3 10.1
115(11) 0.00870 123.6 10.1
125(11) 0.00800 123.8 10.1
131(11) 0.00763 124.0 10.2
111(11) 0.00901 124.3 10.2
140(12) 0.00714 124.5 10.2
119(11) 0.00840 124.8 10.3
139(12) 0.00719 125.0 10.3
125(11) 0.00800 125.2 10.4
125(11) 0.00800 125.5 10.5
120(11) 0.00833 125.7 10.5
136(12) 0.00735 126.0 10.6
121(11) 0.00826 126.2 10.7
128(11) 0.00781 126.4 10.8
122(11) 0.00820 126.7 10.8
131(11) 0.00763 126.9 10.9
119(11) 0.00840 127.2 11.0
120(11) 0.00833 127.4 11.1
142(12) 0.00704 127.7 11.2
106(10) 0.00943 127.9 11.3
108(10) 0.00926 128.1 11.4
122(11) 0.00820 128.4 11.5
124(11) 0.00806 128.6 11.6
113(11) 0.00885 128.9 11.8
114(11) 0.00877 129.1 11.9
122(11) 0.00820 129.3 12.0
142(12) 0.00704 129.6 12.1
126(11) 0.00794 129.8 12.3
111(11) 0.00901 130.1 12.4
105(10) 0.00952 130.3 12.6
125(11) 0.00800 130.6 12.7
132(11) 0.00758 130.8 12.9
135(12) 0.00741 131.0 13.0
129(11) 0.00775 131.3 13.2
124(11) 0.00806 131.5 13.3
112(11) 0.00893 131.8 13.5
118(11) 0.00847 132.0 13.7
122(11) 0.00820 132.2 13.9
119(11) 0.00840 132.5 14.1
152(12) 0.00658 132.7 14.2
128(11) 0.00781 133.0 14.4
135(12) 0.00741 133.2 14.6
135(12) 0.00741 133.5 14.8
144(12) 0.00694 133.7 15.1
143(12) 0.00699 133.9 15.3
156(12) 0.00641 134.2 15.5
161(13) 0.00621 134.4 15.7
163(13) 0.00614 134.7 16.0
149(12) 0.00671 134.9 16.2
175(13) 0.00571 135.1 16.4
166(13) 0.00602 135.4 16.7
156(12) 0.00641 135.6 17.0
167(13) 0.00599 135.9 17.2
164(13) 0.00610 136.1 17.5
155(12) 0.00645 136.4 17.8
155(12) 0.00645 136.6 18.1
161(13) 0.00621 136.8 18.4
151(12) 0.00662 137.1 18.7
161(13) 0.00621 137.3 19.0
159(13) 0.00629 137.6 19.3
163(13) 0.00614 137.8 19.7
155(12) 0.00645 138.0 20.0
148(12) 0.00676 138.3 20.4
149(12) 0.00671 138.5 20.7
135(12) 0.00741 138.8 21.1
133(12) 0.00752 139.0 21.5
139(12) 0.00719 139.2 21.9
131(11) 0.00763 139.5 22.3
153(12) 0.00654 139.7 22.7
138(12) 0.00725 140.0 23.2
145(12) 0.00690 140.2 23.6
151(12) 0.00662 140.5 24.1
137(12) 0.00730 140.7 24.5
136(12) 0.00735 140.9 25.0
157(13) 0.00637 141.2 25.5
156(12) 0.00641 141.4 26.1
138(12) 0.00725 141.7 26.6
144(12) 0.00694 141.9 27.2
156(12) 0.00641 142.1 27.7
145(12) 0.00690 142.4 28.3
137(12) 0.00730 142.6 28.9
147(12) 0.00680 142.9 29.6
161(13) 0.00621 143.1 30.2
170(13) 0.00588 143.4 30.9
159(13) 0.00629 143.6 31.6
156(12) 0.00641 143.8 32.4
141(12) 0.00709 144.1 33.1
131(11) 0.00763 144.2 33.9
152(12) 0.00658 144.3 34.7
158(13) 0.00633 144.4 35.6
154(12) 0.00649 144.5 36.4
142(12) 0.00704 144.6 37.3
159(13) 0.00629 144.8 38.3
161(13) 0.00621 144.9 39.3
144(12) 0.00694 145.0 40.3
153(12) 0.00654 145.1 41.3
143(12) 0.00699 145.2 42.4
144(12) 0.00694 145.3 43.6
160(13) 0.00625 145.4 44.8
145(12) 0.00690 145.5 46.0
162(13) 0.00617 145.6 47.3
143(12) 0.00699 145.8 48.7
148(12) 0.00676 145.9 50.1
160(13) 0.00625 146.0 51.6
153(12) 0.00654 146.1 53.1
176(13) 0.00568 146.2 54.7
149(12) 0.00671 146.3 56.4
165(13) 0.00606 146.4 58.2
152(12) 0.00658 146.5 60.0
159(13) 0.00629 146.7 62.0
178(13) 0.00562 146.8 64.0
171(13) 0.00585 146.9 66.2
155(12) 0.00645 147.0 68.4
153(12) 0.00654 147.1 70.8
173(13) 0.00578 147.2 73.3
181(13) 0.00552 147.3 75.9
191(14) 0.00524 147.4 78.7
192(14) 0.00521 147.5 81.6
188(14) 0.00532 147.7 84.7
197(14) 0.00508 147.8 88.0
198(14) 0.00505 147.9 91.5
184(14) 0.00543 148.0 95.2
209(14) 0.00478 148.1 99.1
196(14) 0.00510 148.2 103.2
220(15) 0.00455 148.3 107.7
217(15) 0.00461 148.4 112.4
200(14) 0.00500 148.5 117.4
210(14) 0.00476 148.7 122.8
212(15) 0.00472 148.8 128.5
212(15) 0.00472 148.9 134.7
228(15) 0.00439 149.0 141.3
257(16) 0.00389 149.1 148.5
235(15) 0.00426 149.2 156.1
235(15) 0.00426 149.3 164.4
242(16) 0.00413 149.4 173.4
243(16) 0.00412 149.6 183.1
284(17) 0.00352 149.7 193.6
287(17) 0.003484 149.8 205.1
295(17) 0.003390 149.9 217.7
305(17) 0.003279 150.0 231.4
305(17) 0.003279 150.1 246.4
317(18) 0.003155 150.2 263.0
335(18) 0.002985 150.3 281.2
364(19) 0.002747 150.4 301.5
387(20) 0.002584 150.6 323.9
391(20) 0.002558 150.7 349.0
419(20) 0.002387 150.8 377.0
439(21) 0.002278 150.9 408.5
489(22) 0.002045 151.0 444.1
495(22) 0.002020 151.1 484.6
563(24) 0.001776 151.2 530.7
579(24) 0.001727 151.3 583.6
690(26) 0.001449 151.5 644.7
733(27) 0.001364 151.6 715.7
781(28) 0.001280 151.7 799.0
957(31) 0.001045 151.8 897.4
991(31) 0.001009 151.9 1015.5
1208(35) 0.000828 152.0 1158.8
1361(37) 0.000735 152. 1337.
1684(41) 0.000594 152. 1565.
1947(44) 0.000514 152. 1868.
2420(49) 0.000413 152. 2286.
3099(56) 0.0003227 153. 2877.
3824(62) 0.0002615 153. 3723.
5064(71) 0.0001975 153. 4920.
6669(82) 0.0001499 153. 6567.
8945(95) 0.0001118 153. 8734.
11940(110) 0.0000837 153. 11417.
15350(120) 0.0000652 153. 14459.
18930(140) 0.0000528 153. 17421.
20550(140) 0.0000487 153. 19499.
19880(140) 0.0000503 154. 19842.
17920(130) 0.0000558 154. 18283.
14610(120) 0.0000685 154. 15519.
12030(110) 0.0000831 154. 12436.
9501(97) 0.0001053 154. 9600.
7748(88) 0.0001291 154. 7250.
6322(80) 0.0001582 154. 5430.
4939(70) 0.0002025 154. 4089.
4166(65) 0.0002400 154. 3134.
3338(58) 0.0002996 155. 2466.
2848(53) 0.000351 155. 1996.
2438(49) 0.000410 155. 1659.
2047(45) 0.000489 155. 1409.
1756(42) 0.000569 155. 1215.
1472(38) 0.000679 155. 1061.
1347(37) 0.000742 155. 936.
1157(34) 0.000864 155.4 831.2
1023(32) 0.000978 155.5 743.1
977(31) 0.001024 155.6 668.1
817(29) 0.001224 155.7 603.8
745(27) 0.001342 155.8 548.3
720(27) 0.001389 155.9 500.0
665(26) 0.001504 156.0 457.7
654(26) 0.001529 156.1 420.6
574(24) 0.001742 156.3 387.7
519(23) 0.001927 156.4 358.5
492(22) 0.002033 156.5 332.5
501(22) 0.001996 156.6 309.2
440(21) 0.002273 156.7 288.2
444(21) 0.002252 156.8 269.3
403(20) 0.002481 156.9 252.2
382(20) 0.002618 157.0 236.7
381(20) 0.002625 157.2 222.5
359(19) 0.002786 157.3 209.6
368(19) 0.002717 157.4 197.8
362(19) 0.002762 157.5 186.9
338(18) 0.002959 157.6 176.9
316(18) 0.003165 157.7 167.7
348(19) 0.002874 157.8 159.2
328(18) 0.003049 157.9 151.3
301(17) 0.003322 158.0 144.0
293(17) 0.003413 158.2 137.2
287(17) 0.003484 158.3 130.9
290(17) 0.003448 158.4 125.0
303(17) 0.003300 158.5 119.5
322(18) 0.003106 158.6 114.3
295(17) 0.003390 158.7 109.5
277(17) 0.00361 158.8 105.0
275(17) 0.00364 158.9 100.8
296(17) 0.003378 159.1 96.8
284(17) 0.00352 159.2 93.0
253(16) 0.00395 159.3 89.5
243(16) 0.00412 159.4 86.1
260(16) 0.00385 159.5 82.9
262(16) 0.00382 159.6 80.0
269(16) 0.00372 159.7 77.1
286(17) 0.003497 159.8 74.5
255(16) 0.00392 159.9 71.9
265(16) 0.00377 160.1 69.5
263(16) 0.00380 160.2 67.2
271(16) 0.00369 160.3 65.0
269(16) 0.00372 160.4 62.9
253(16) 0.00395 160.5 61.0
273(17) 0.00366 160.6 59.1
281(17) 0.00356 160.7 69.2
247(16) 0.00405 160.8 67.6
254(16) 0.00394 161.0 66.1
207(14) 0.00483 161.1 64.6
253(16) 0.00395 161.2 63.2
244(16) 0.00410 161.3 61.9
237(15) 0.00422 161.4 60.6
249(16) 0.00402 161.5 59.4
216(15) 0.00463 161.6 58.3
216(15) 0.00463 161.7 57.2
218(15) 0.00459 161.8 56.2
195(14) 0.00513 162.0 55.2
211(15) 0.00474 162.1 54.2
221(15) 0.00452 162.2 53.3
195(14) 0.00513 162.3 52.4
221(15) 0.00452 162.4 51.6
186(14) 0.00538 162.5 50.8
181(13) 0.00552 162.6 50.1
190(14) 0.00526 162.7 49.3
185(14) 0.00541 162.9 48.7
172(13) 0.00581 163.0 48.0
197(14) 0.00508 163.1 47.4
173(13) 0.00578 163.2 46.8
183(14) 0.00546 163.3 46.2
177(13) 0.00565 163.4 45.7
175(13) 0.00571 163.5 45.2
167(13) 0.00599 163.6 44.7
172(13) 0.00581 163.7 44.2
181(13) 0.00552 163.9 43.7
171(13) 0.00585 164.0 43.3
175(13) 0.00571 164.1 42.9
161(13) 0.00621 164.2 42.5
168(13) 0.00595 164.3 42.2
178(13) 0.00562 164.4 41.8
175(13) 0.00571 164.5 41.5
182(13) 0.00549 164.6 41.2
164(13) 0.00610 164.8 40.9
169(13) 0.00592 164.9 40.6
150(12) 0.00667 165.0 40.3
176(13) 0.00568 165.1 40.1
149(12) 0.00671 165.2 39.9
175(13) 0.00571 165.3 39.7
172(13) 0.00581 165.4 39.5
164(13) 0.00610 165.5 39.3
183(14) 0.00546 165.6 39.1
173(13) 0.00578 165.8 39.0
179(13) 0.00559 165.9 38.8
160(13) 0.00625 166.0 38.7
176(13) 0.00568 166.1 38.6
179(13) 0.00559 166.2 38.5
173(13) 0.00578 166.3 38.4
164(13) 0.00610 166.4 38.3
172(13) 0.00581 166.5 38.2
166(13) 0.00602 166.7 38.2
154(12) 0.00649 166.8 38.1
156(12) 0.00641 166.9 38.1
181(13) 0.00552 167.0 38.1
165(13) 0.00606 167.1 38.0
160(13) 0.00625 167.2 38.0
160(13) 0.00625 167.3 38.1
169(13) 0.00592 167.4 38.1
160(13) 0.00625 167.5 38.1
179(13) 0.00559 167.7 38.1
174(13) 0.00575 167.8 38.2
174(13) 0.00575 167.9 38.3
181(13) 0.00552 168.0 38.3
178(13) 0.00562 168.1 38.4
158(13) 0.00633 168.2 38.5
203(14) 0.00493 168.3 38.6
195(14) 0.00513 168.4 38.7
175(13) 0.00571 168.6 38.9
183(14) 0.00546 168.7 39.0
168(13) 0.00595 168.8 39.2
182(13) 0.00549 168.9 39.3
177(13) 0.00565 169.0 39.5
173(13) 0.00578 169.1 39.7
172(13) 0.00581 169.2 39.9
158(13) 0.00633 169.3 40.1
191(14) 0.00524 169.4 40.3
156(12) 0.00641 169.6 40.5
189(14) 0.00529 169.7 40.7
189(14) 0.00529 169.8 41.0
165(13) 0.00606 169.9 41.2
178(13) 0.00562 170.0 41.5
186(14) 0.00538 170.1 41.8
185(14) 0.00541 170.3 42.1
167(13) 0.00599 170.5 42.4
175(13) 0.00571 170.8 42.7
174(13) 0.00575 171.0 43.0
163(13) 0.00614 171.3 43.4
160(13) 0.00625 171.6 43.7
177(13) 0.00565 171.8 44.1
161(13) 0.00621 172.1 44.5
177(13) 0.00565 172.3 44.9
185(14) 0.00541 172.6 45.3
193(14) 0.00518 172.9 45.7
177(13) 0.00565 173.1 46.2
188(14) 0.00532 173.4 46.6
179(13) 0.00559 173.6 47.1
198(14) 0.00505 173.9 47.6
174(13) 0.00575 174.1 48.1
157(13) 0.00637 174.4 48.6
182(13) 0.00549 174.7 49.2
186(14) 0.00538 174.9 49.7
165(13) 0.00606 175.2 50.3
164(13) 0.00610 175.4 50.9
155(12) 0.00645 175.7 51.5
181(13) 0.00552 176.0 52.1
199(14) 0.00503 176.2 52.8
197(14) 0.00508 176.5 53.4
205(14) 0.00488 176.7 54.1
178(13) 0.00562 177.0 54.8
210(14) 0.00476 177.2 55.6
212(15) 0.00472 177.5 56.3
203(14) 0.00493 177.8 57.1
195(14) 0.00513 178.0 57.9
200(14) 0.00500 178.3 58.7
196(14) 0.00510 178.5 59.6
200(14) 0.00500 178.8 60.5
227(15) 0.00441 179.1 61.4
196(14) 0.00510 179.3 62.3
230(15) 0.00435 179.6 63.3
199(14) 0.00503 179.8 64.3
214(15) 0.00467 180.1 65.3
234(15) 0.00427 180.3 66.4
235(15) 0.00426 180.6 67.5
226(15) 0.00442 180.9 68.6
241(16) 0.00415 181.1 69.8
220(15) 0.00455 181.4 71.0
228(15) 0.00439 181.6 72.3
225(15) 0.00444 181.9 73.6
240(15) 0.00417 182.2 74.9
201(14) 0.00498 182.4 76.3
218(15) 0.00459 182.7 77.7
236(15) 0.00424 182.9 79.2
245(16) 0.00408 183.2 80.8
271(16) 0.00369 183.5 82.4
288(17) 0.003472 183.7 84.0
273(17) 0.00366 184.0 85.7
263(16) 0.00380 184.2 87.5
262(16) 0.00382 184.5 89.3
264(16) 0.00379 184.7 91.2
276(17) 0.00362 185.0 93.2
259(16) 0.00386 185.3 95.2
279(17) 0.00358 185.5 97.3
297(17) 0.003367 185.8 99.5
284(17) 0.00352 186.0 101.8
284(17) 0.00352 186.3 104.1
312(18) 0.003205 186.6 106.6
299(17) 0.003344 186.8 109.2
306(17) 0.003268 187.1 111.8
301(17) 0.003322 187.3 114.6
315(18) 0.003175 187.6 117.5
294(17) 0.003401 187.8 120.5
314(18) 0.003185 188.1 123.6
336(18) 0.002976 188.4 126.9
312(18) 0.003205 188.6 130.3
334(18) 0.002994 188.9 133.8
351(19) 0.002849 189.1 137.5
336(18) 0.002976 189.4 141.4
348(19) 0.002874 189.7 145.4
338(18) 0.002959 189.9 149.7
339(18) 0.002950 190.2 154.1
343(19) 0.002915 190.4 158.8
350(19) 0.002857 190.7 163.6
366(19) 0.002732 190.9 168.8
372(19) 0.002688 191.2 174.1
429(21) 0.002331 191.5 179.8
403(20) 0.002481 191.7 185.7
391(20) 0.002558 192.0 191.9
449(21) 0.002227 192.2 198.5
478(22) 0.002092 192.5 205.4
455(21) 0.002198 192.8 212.7
506(22) 0.001976 193.0 220.5
490(22) 0.002041 193.3 228.6
499(22) 0.002004 193.5 237.3
504(22) 0.001984 193.8 246.4
488(22) 0.002049 194.1 256.1
491(22) 0.002037 194.3 266.4
518(23) 0.001931 194.6 277.3
473(22) 0.002114 194.8 289.0
484(22) 0.002066 195.1 301.4
470(22) 0.002128 195.3 314.6
504(22) 0.001984 195.6 328.8
518(23) 0.001931 195.9 343.9
514(23) 0.001946 196.1 360.1
531(23) 0.001883 196.4 377.5
499(22) 0.002004 196.6 396.2
536(23) 0.001866 196.9 416.4
548(23) 0.001825 197.2 438.1
567(24) 0.001764 197.4 461.6
585(24) 0.001709 197.7 487.0
604(25) 0.001656 197.9 514.6
614(25) 0.001629 198.2 544.7
639(25) 0.001565 198.4 577.4
668(26) 0.001497 198.7 613.2
677(26) 0.001477 199.0 652.4
745(27) 0.001342 199.2 695.5
772(28) 0.001295 199.5 742.9
813(29) 0.001230 199.7 795.4
851(29) 0.001175 200.0 853.5
929(30) 0.001076 200.3 918.3
1008(32) 0.000992 200.5 990.6
1109(33) 0.000902 200.8 1071.8
1146(34) 0.000873 201.0 1160.1
1276(36) 0.000784 201. 1264.
1400(37) 0.000714 202. 1384.
1534(39) 0.000652 202. 1522.
1692(41) 0.000591 202. 1685.
1952(44) 0.000512 202. 1879.
2187(47) 0.000457 203. 2116.
2462(50) 0.000406 203. 2411.
2784(53) 0.000359 203. 2785.
3241(57) 0.0003085 203. 3265.
3749(61) 0.0002667 204. 3887.
4476(67) 0.0002234 204. 4691.
5448(74) 0.0001836 204. 5722.
6804(82) 0.0001470 204. 7028.
8354(91) 0.0001197 205. 8647.
10580(100) 0.0000945 205. 10606.
13520(120) 0.0000740 205. 12907.
16990(130) 0.0000589 205. 15514.
20960(150) 0.0000477 206. 18330.
25070(160) 0.0000399 206. 21173.
27470(170) 0.0000364 206. 23753.
28740(170) 0.0000348 206. 25675.
28240(170) 0.0000354 207. 26556.
26300(160) 0.0000380 207. 26186.
23710(150) 0.0000422 207. 24657.
20390(140) 0.0000491 207. 22302.
17910(130) 0.0000558 208. 19528.
15180(120) 0.0000659 208. 16674.
13300(120) 0.0000752 208. 13967.
11270(110) 0.0000887 209. 11534.
9826(99) 0.0001018 209. 9434.
8519(92) 0.0001174 209. 7678.
7389(86) 0.0001353 209. 6249.
6366(80) 0.0001571 210. 5112.
5633(75) 0.0001775 210. 4222.
4974(71) 0.0002010 210. 3533.
4286(65) 0.0002333 210. 3002.
3940(63) 0.0002538 211. 2592.
3522(59) 0.0002839 211. 2271.
3216(57) 0.0003109 211. 2016.
2849(53) 0.000351 211. 1810.
2600(51) 0.000385 212. 1641.
2332(48) 0.000429 212. 1500.
2116(46) 0.000473 212. 1381.
1899(44) 0.000527 212. 1280.
1882(43) 0.000531 213. 1195.
1649(41) 0.000606 213. 1123.
1520(39) 0.000658 213. 1065.
1527(39) 0.000655 213. 1018.
1424(38) 0.000702 214. 983.
1402(37) 0.000713 214. 961.
1363(37) 0.000734 214. 950.
1267(36) 0.000789 214. 952.
1253(35) 0.000798 215. 966.
1212(35) 0.000825 215.0 992.2
1220(35) 0.000820 215.3 1029.8
1281(36) 0.000781 216. 1077.
1278(36) 0.000782 216. 1132.
1288(36) 0.000776 216. 1191.
1358(37) 0.000736 216. 1248.
1394(37) 0.000717 217. 1295.
1492(39) 0.000670 217. 1325.
1517(39) 0.000659 217. 1330.
1552(39) 0.000644 217. 1305.
1408(38) 0.000710 218. 1252.
1338(37) 0.000747 218. 1178.
1296(36) 0.000772 218. 1088.
1202(35) 0.000832 218.4 991.0
964(31) 0.001037 218.6 893.5
903(30) 0.001107 218.9 800.0
763(28) 0.001311 219.1 713.4
706(27) 0.001416 219.4 635.1
663(26) 0.001508 219.6 565.9
618(25) 0.001618 219.9 505.6
547(23) 0.001828 220.2 454.0
534(23) 0.001873 220.4 410.2
515(23) 0.001942 220.7 373.4
454(21) 0.002203 220.9 342.4
471(22) 0.002123 221.2 316.5
452(21) 0.002212 221.5 294.6
394(20) 0.002538 221.7 276.0
416(20) 0.002404 222.0 260.0
379(19) 0.002639 222.2 246.1
369(19) 0.002710 222.5 233.8
390(20) 0.002564 222.8 222.9
353(19) 0.002833 223.0 213.0
389(20) 0.002571 223.3 204.0
385(20) 0.002597 223.5 195.8
351(19) 0.002849 223.8 188.2
358(19) 0.002793 224.0 181.2
326(18) 0.003067 224.3 174.6
317(18) 0.003155 224.6 168.5
332(18) 0.003012 224.8 162.7
304(17) 0.003289 225.1 157.3
333(18) 0.003003 225.3 152.2
291(17) 0.003436 225.6 147.5
297(17) 0.003367 225.9 142.9
283(17) 0.00353 226.1 138.7
308(18) 0.003247 226.4 134.6
282(17) 0.00355 226.6 130.8
300(17) 0.003333 226.9 127.2
294(17) 0.003401 227.1 123.7
290(17) 0.003448 227.4 120.4
278(17) 0.00360 227.7 117.3
258(16) 0.00388 227.9 114.3
291(17) 0.003436 228.2 111.5
266(16) 0.00376 228.4 108.8
279(17) 0.00358 228.7 106.2
249(16) 0.00402 229.0 103.7
254(16) 0.00394 229.2 101.4
254(16) 0.00394 229.5 99.1
258(16) 0.00388 229.7 97.0
254(16) 0.00394 230.0 94.9
238(15) 0.00420 230.2 92.9
245(16) 0.00408 230.5 91.0
269(16) 0.00372 230.8 89.2
256(16) 0.00391 231.0 87.5
249(16) 0.00402 231.3 85.8
257(16) 0.00389 231.5 84.2
250(16) 0.00400 231.8 82.7
267(16) 0.00375 232.1 81.2
272(16) 0.00368 232.3 79.8
261(16) 0.00383 232.6 78.5
257(16) 0.00389 232.8 77.2
270(16) 0.00370 233.1 76.0
268(16) 0.00373 233.4 74.8
262(16) 0.00382 233.6 73.7
251(16) 0.00398 233.9 72.6
264(16) 0.00379 234.1 71.6
254(16) 0.00394 234.4 70.6
248(16) 0.00403 234.6 69.7
240(15) 0.00417 234.9 68.8
248(16) 0.00403 235.2 68.0
268(16) 0.00373 235.4 67.2
248(16) 0.00403 235.7 66.4
276(17) 0.00362 235.9 65.7
252(16) 0.00397 236.2 65.1
308(18) 0.003247 236.5 64.5
348(19) 0.002874 236.7 63.9
384(20) 0.002604 237.0 63.3
378(19) 0.002646 237.2 62.9
327(18) 0.003058 237.5 62.4
280(17) 0.00357 237.7 62.0
285(17) 0.00351 238.0 61.7
264(16) 0.00379 238.3 61.4
275(17) 0.00364 238.5 61.1
242(16) 0.00413 238.8 60.9
270(16) 0.00370 239.0 60.7
282(17) 0.00355 239.3 60.6
227(15) 0.00441 239.6 60.6
249(16) 0.00402 239.8 60.6
263(16) 0.00380 240.1 60.6
241(16) 0.00415 240.3 60.7
260(16) 0.00385 240.6 60.9
256(16) 0.00391 240.8 61.2
240(15) 0.00417 241.1 61.5
260(16) 0.00385 241.4 62.0
243(16) 0.00412 241.5 62.5
251(16) 0.00398 241.2 63.1
242(16) 0.00413 240.9 63.8
260(16) 0.00385 240.5 64.6
262(16) 0.00382 240.2 65.5
267(16) 0.00375 239.9 66.6
243(16) 0.00412 239.6 67.8
243(16) 0.00412 239.3 69.2
286(17) 0.003497 239.0 70.7
271(16) 0.00369 238.7 72.5
236(15) 0.00424 238.4 74.5
250(16) 0.00400 238.1 76.7
274(17) 0.00365 237.7 79.3
272(16) 0.00368 237.4 82.1
268(16) 0.00373 237.1 85.4
307(18) 0.003257 236.8 89.1
274(17) 0.00365 236.5 93.3
302(17) 0.003311 236.2 98.1
256(16) 0.00391 235.9 103.6
297(17) 0.003367 235.6 109.9
320(18) 0.003125 235.2 117.2
310(18) 0.003226 234.9 125.7
330(18) 0.003030 234.6 135.6
334(18) 0.002994 234.3 147.2
378(19) 0.002646 234.0 161.0
380(19) 0.002632 233.7 177.5
402(20) 0.002488 233.4 197.4
471(22) 0.002123 233.1 221.7
473(22) 0.002114 232.8 251.8
566(24) 0.001767 232.4 289.8
672(26) 0.001488 232.1 339.2
737(27) 0.001357 231.8 406.0
850(29) 0.001176 231.5 501.3
990(31) 0.001010 231.2 643.3
1304(36) 0.000767 231. 860.
1607(40) 0.000622 231. 1188.
2031(45) 0.000492 230. 1664.
2625(51) 0.000381 230. 2309.
3115(56) 0.0003210 230. 3092.
3865(62) 0.0002587 229. 3866.
4474(67) 0.0002235 229. 4314.
4337(66) 0.0002306 229. 4156.
3794(62) 0.0002636 228. 3499.
2897(54) 0.0003452 228. 2690.
2063(45) 0.000485 228. 1966.
1574(40) 0.000635 227. 1406.
1254(35) 0.000797 227. 1007.
981(31) 0.001019 226.8 738.6
800(28) 0.001250 226.5 562.6
682(26) 0.001466 226.2 446.2
614(25) 0.001629 225.9 366.4
580(24) 0.001724 225.6 308.9
489(22) 0.002045 225.3 265.3
445(21) 0.002247 225.0 231.2
368(19) 0.002717 224.6 203.8
367(19) 0.002725 224.3 181.4
349(19) 0.002865 224.0 162.9
324(18) 0.003086 223.7 147.4
304(17) 0.003289 223.4 134.3
313(18) 0.003195 223.1 123.2
301(17) 0.003322 222.8 113.6
306(17) 0.003268 222.5 105.3
301(17) 0.003322 222.1 98.1
281(17) 0.00356 221.8 91.8
270(16) 0.00370 221.5 86.3
278(17) 0.00360 221.2 81.4
253(16) 0.00395 220.9 77.0
256(16) 0.00391 220.6 73.1
246(16) 0.00407 220.3 69.6
247(16) 0.00405 220.0 66.4
233(15) 0.00429 219.7 63.6
227(15) 0.00441 219.3 61.0
244(16) 0.00410 219.0 58.7
238(15) 0.00420 218.7 56.5
263(16) 0.00380 218.4 54.6
229(15) 0.00437 218.1 52.8
237(15) 0.00422 217.8 51.2
224(15) 0.00446 217.5 49.7
221(15) 0.00452 217.2 48.3
212(15) 0.00472 216.8 47.1
225(15) 0.00444 216.5 45.9
218(15) 0.00459 216.2 44.8
227(15) 0.00441 215.9 43.8
228(15) 0.00439 215.6 42.9
233(15) 0.00429 215.3 42.0
190(14) 0.00526 215.0 41.3
203(14) 0.00493 214.7 40.5
201(14) 0.00498 214.4 39.8
214(15) 0.00467 214.0 39.2
207(14) 0.00483 213.7 38.6
222(15) 0.00450 213.4 38.1
205(14) 0.00488 213.1 37.6
256(16) 0.00391 212.8 37.1
230(15) 0.00435 212.5 36.7
235(15) 0.00426 212.2 36.3
240(15) 0.00417 211.9 36.0
217(15) 0.00461 211.5 35.6
217(15) 0.00461 211.2 35.3
211(15) 0.00474 210.9 35.1
228(15) 0.00439 210.6 34.8
235(15) 0.00426 210.3 34.6
242(16) 0.00413 210.0 34.4
222(15) 0.00450 209.7 34.3
226(15) 0.00442 209.4 34.1
230(15) 0.00435 209.1 34.0
231(15) 0.00433 208.7 33.9
228(15) 0.00439 208.4 33.8
229(15) 0.00437 208.1 33.7
227(15) 0.00441 207.8 33.7
202(14) 0.00495 207.5 33.7
240(15) 0.00417 207.2 33.7
227(15) 0.00441 206.9 33.7
231(15) 0.00433 206.6 33.7
232(15) 0.00431 206.2 33.8
230(15) 0.00435 205.9 33.9
235(15) 0.00426 205.6 33.9
266(16) 0.00376 205.3 34.1
230(15) 0.00435 205.0 34.2
226(15) 0.00442 204.7 34.3
237(15) 0.00422 204.4 34.5
211(15) 0.00474 204.1 34.7
238(15) 0.00420 203.8 34.9
243(16) 0.00412 203.4 35.2
247(16) 0.00405 203.1 35.4
211(15) 0.00474 202.8 35.7
220(15) 0.00455 202.5 36.0
212(15) 0.00472 202.2 36.3
199(14) 0.00503 201.9 36.7
208(14) 0.00481 201.6 37.0
222(15) 0.00450 201.3 37.4
186(14) 0.00538 200.9 37.9
228(15) 0.00439 200.6 38.3
181(13) 0.00552 200.3 38.8
206(14) 0.00485 200.0 39.3
216(15) 0.00463 200.0 39.8
209(14) 0.00478 199.9 40.4
202(14) 0.00495 199.9 41.0
192(14) 0.00521 199.8 41.6
217(15) 0.00461 199.8 42.3
197(14) 0.00508 199.7 43.0
218(15) 0.00459 199.7 43.8
190(14) 0.00526 199.6 44.5
219(15) 0.00457 199.6 45.4
207(14) 0.00483 199.6 46.3
204(14) 0.00490 199.5 47.2
215(15) 0.00465 199.5 48.2
238(15) 0.00420 199.4 49.2
214(15) 0.00467 199.4 50.3
235(15) 0.00426 199.3 51.5
245(16) 0.00408 199.3 52.7
239(15) 0.00418 199.2 54.0
205(14) 0.00488 199.2 55.4
212(15) 0.00472 199.2 56.8
247(16) 0.00405 199.1 58.3
222(15) 0.00450 199.1 60.0
219(15) 0.00457 199.0 61.7
221(15) 0.00452 199.0 63.5
221(15) 0.00452 198.9 65.4
237(15) 0.00422 198.9 67.5
221(15) 0.00452 198.8 69.7
214(15) 0.00467 198.8 72.0
233(15) 0.00429 198.7 74.5
235(15) 0.00426 198.7 77.1
275(17) 0.00364 198.7 79.9
236(15) 0.00424 198.6 82.9
228(15) 0.00439 198.6 86.1
280(17) 0.00357 198.5 89.5
251(16) 0.00398 198.5 93.2
243(16) 0.00412 198.4 97.2
241(16) 0.00415 198.4 101.4
274(17) 0.00365 198.3 106.0
238(15) 0.00420 198.3 110.9
265(16) 0.00377 198.2 116.2
263(16) 0.00380 198.2 122.0
283(17) 0.00353 198.2 128.2
286(17) 0.003497 198.1 135.0
311(18) 0.003215 198.1 142.4
304(17) 0.003289 198.0 150.4
327(18) 0.003058 198.0 159.3
326(18) 0.003067 197.9 169.0
335(18) 0.002985 197.9 179.9
332(18) 0.003012 197.8 191.9
364(19) 0.002747 197.8 205.5
349(19) 0.002865 197.8 220.9
381(20) 0.002625 197.7 238.5
409(20) 0.002445 197.7 258.9
441(21) 0.002268 197.6 282.8
435(21) 0.002299 197.6 311.0
499(22) 0.002004 197.5 344.7
517(23) 0.001934 197.5 385.2
543(23) 0.001842 197.4 434.0
639(25) 0.001565 197.4 492.9
732(27) 0.001366 197.3 563.8
773(28) 0.001294 197.3 649.0
833(29) 0.001200 197.3 750.5
941(31) 0.001063 197.2 870.5
1024(32) 0.000977 197.2 1010.7
1207(35) 0.000829 197.1 1172.4
1374(37) 0.000728 197. 1356.
1614(40) 0.000620 197. 1562.
1966(44) 0.000509 197. 1789.
2242(47) 0.000446 197. 2033.
2595(51) 0.000385 197. 2288.
3005(55) 0.0003328 197. 2547.
3285(57) 0.0003044 197. 2799.
3519(59) 0.0002842 197. 3027.
3553(60) 0.0002815 197. 3215.
3813(62) 0.0002623 197. 3343.
3680(61) 0.0002717 197. 3399.
3469(59) 0.0002883 197. 3375.
3286(57) 0.0003043 197. 3273.
3084(56) 0.0003243 196. 3106.
2856(53) 0.0003501 196. 2892.
2692(52) 0.000371 196. 2647.
2387(49) 0.000419 196. 2390.
2177(47) 0.000459 196. 2131.
2008(45) 0.000498 196. 1882.
1820(43) 0.000549 196. 1648.
1601(40) 0.000625 196. 1434.
1543(39) 0.000648 196. 1241.
1420(38) 0.000704 196. 1070.
1225(35) 0.000816 196.0 921.8
1220(35) 0.000820 196.0 794.1
1068(33) 0.000936 195.9 685.5
1011(32) 0.000989 195.9 594.0
887(30) 0.001127 195.9 517.6
863(29) 0.001159 195.8 454.2
799(28) 0.001252 195.8 401.6
770(28) 0.001299 195.7 357.9
740(27) 0.001351 195.7 321.7
687(26) 0.001456 195.6 291.3
658(26) 0.001520 195.6 265.7
582(24) 0.001718 195.5 244.0
544(23) 0.001838 195.5 225.2
525(23) 0.001905 195.4 208.9
480(22) 0.002083 195.4 194.6
455(21) 0.002198 195.4 181.9
455(21) 0.002198 195.3 170.5
442(21) 0.002262 195.3 160.2
438(21) 0.002283 195.2 150.9
377(19) 0.002653 195.2 142.5
389(20) 0.002571 195.1 134.7
378(19) 0.002646 195.1 127.6
365(19) 0.002740 195.0 121.1
350(19) 0.002857 195.0 115.0
352(19) 0.002841 195.0 109.5
335(18) 0.002985 194.9 104.3
324(18) 0.003086 194.9 99.5
346(19) 0.002890 194.8 95.0
355(19) 0.002817 194.8 90.8
321(18) 0.003115 194.7 82.6
323(18) 0.003096 194.7 78.9
322(18) 0.003106 194.6 75.6
295(17) 0.003390 194.6 72.4
325(18) 0.003077 194.5 69.4
285(17) 0.00351 194.5 66.6
266(16) 0.00376 194.5 64.0
253(16) 0.00395 194.4 61.5
246(16) 0.00407 194.4 59.2
263(16) 0.00380 194.3 57.0
243(16) 0.00412 194.3 54.9
236(15) 0.00424 194.2 53.0
243(16) 0.00412 194.2 51.1
231(15) 0.00433 194.1 49.3
226(15) 0.00442 194.1 47.7
243(16) 0.00412 194.0 46.1
232(15) 0.00431 194.0 44.6
230(15) 0.00435 194.0 43.2
230(15) 0.00435 193.9 41.8
203(14) 0.00493 193.9 40.5
208(14) 0.00481 193.8 39.3
224(15) 0.00446 193.8 38.1
222(15) 0.00450 193.7 36.9
217(15) 0.00461 193.7 35.9
205(14) 0.00488 193.6 34.8
185(14) 0.00541 193.6 33.9
197(14) 0.00508 193.6 32.9
193(14) 0.00518 193.5 32.0
214(15) 0.00467 193.5 31.2
199(14) 0.00503 193.4 30.3
198(14) 0.00505 193.4 29.5
202(14) 0.00495 193.3 28.8
223(15) 0.00448 193.3 28.1
221(15) 0.00452 193.2 27.4
216(15) 0.00463 193.2 26.7
221(15) 0.00452 193.1 26.0
193(14) 0.00518 193.1 25.4
216(15) 0.00463 193.1 24.8
208(14) 0.00481 193.0 24.2
214(15) 0.00467 193.0 23.7
197(14) 0.00508 192.9 23.1
200(14) 0.00500 192.9 22.6
204(14) 0.00490 192.8 22.1
195(14) 0.00513 192.8 21.7
195(14) 0.00513 192.7 21.2
192(14) 0.00521 192.7 20.7
212(15) 0.00472 192.6 20.3
218(15) 0.00459 192.6 19.9
205(14) 0.00488 192.6 19.5
193(14) 0.00518 192.5 19.1
214(15) 0.00467 192.5 18.7
183(14) 0.00546 192.4 18.4
212(15) 0.00472 192.4 18.0
208(14) 0.00481 192.3 17.7
200(14) 0.00500 192.3 17.3
191(14) 0.00524 192.2 17.0
205(14) 0.00488 192.2 16.7
208(14) 0.00481 192.2 16.4
207(14) 0.00483 192.3 16.1
198(14) 0.00505 192.5 15.8
204(14) 0.00490 192.7 15.6
173(13) 0.00578 192.9 15.3
180(13) 0.00556 193.1 15.1
200(14) 0.00500 193.2 14.8
215(15) 0.00465 193.4 14.6
194(14) 0.00515 193.6 14.3
196(14) 0.00510 193.8 14.1
213(15) 0.00469 194.0 13.9
203(14) 0.00493 194.2 13.7
204(14) 0.00490 194.3 13.5
239(15) 0.00418 194.5 13.3
186(14) 0.00538 194.7 13.1
225(15) 0.00444 194.9 12.9
193(14) 0.00518 195.1 12.7
204(14) 0.00490 195.3 12.5
189(14) 0.00529 195.4 12.4
192(14) 0.00521 195.6 12.2
186(14) 0.00538 195.8 12.0
206(14) 0.00485 196.0 11.9
199(14) 0.00503 196.2 11.7
206(14) 0.00485 196.4 11.6
213(15) 0.00469 196.5 11.4
177(13) 0.00565 196.7 11.3
184(14) 0.00543 196.9 11.2
209(14) 0.00478 197.1 11.0
215(15) 0.00465 197.3 10.9
201(14) 0.00498 197.5 10.8
221(15) 0.00452 197.6 10.7
191(14) 0.00524 197.8 10.5
218(15) 0.00459 198.0 10.4
193(14) 0.00518 198.2 10.3
196(14) 0.00510 198.4 10.2
218(15) 0.00459 198.6 10.1
207(14) 0.00483 198.7 10.0
204(14) 0.00490 198.9 9.9
199(14) 0.00503 199.1 9.8
224(15) 0.00446 199.3 9.7
193(14) 0.00518 199.5 9.7
237(15) 0.00422 199.7 9.6
220(15) 0.00455 199.8 9.5
207(14) 0.00483 200.0 9.4
201(14) 0.00498 200.2 9.4
195(14) 0.00513 200.4 9.3
198(14) 0.00505 200.6 9.2
227(15) 0.00441 200.8 9.2
231(15) 0.00433 200.9 9.1
229(15) 0.00437 201.1 9.1
225(15) 0.00444 201.3 9.0
232(15) 0.00431 201.5 9.0
249(16) 0.00402 201.7 8.9
242(16) 0.00413 201.8 8.9
216(15) 0.00463 202.0 8.8
206(14) 0.00485 202.2 8.8
212(15) 0.00472 202.4 8.8
218(15) 0.00459 202.6 8.7
214(15) 0.00467 202.8 8.7
224(15) 0.00446 202.9 8.7
197(14) 0.00508 203.1 8.7
218(15) 0.00459 203.3 8.6
233(15) 0.00429 203.5 8.6
194(14) 0.00515 203.7 8.6
197(14) 0.00508 203.9 8.6
229(15) 0.00437 204.0 8.6
218(15) 0.00459 204.2 8.6
229(15) 0.00437 204.4 8.6
300(17) 0.003333 204.6 8.6
314(18) 0.003185 204.8 8.6
288(17) 0.003472 205.0 8.6
262(16) 0.00382 205.1 8.7
221(15) 0.00452 205.3 8.7
246(16) 0.00407 205.5 8.7
236(15) 0.00424 205.7 8.7
218(15) 0.00459 205.9 8.8
215(15) 0.00465 206.1 8.8
210(14) 0.00476 206.2 8.9
187(14) 0.00535 206.4 8.9
222(15) 0.00450 206.6 9.0
203(14) 0.00493 206.8 9.1
230(15) 0.00435 207.0 9.1
203(14) 0.00493 207.2 9.2
214(15) 0.00467 207.3 9.3
222(15) 0.00450 207.5 9.4
189(14) 0.00529 207.7 9.5
224(15) 0.00446 207.9 9.6
212(15) 0.00472 208.1 9.7
212(15) 0.00472 208.3 9.9
230(15) 0.00435 208.4 10.0
212(15) 0.00472 208.6 10.1
208(14) 0.00481 208.7 10.3
210(14) 0.00476 208.7 10.5
204(14) 0.00490 208.7 10.7
201(14) 0.00498 208.8 10.9
236(15) 0.00424 208.8 11.1
218(15) 0.00459 208.8 11.3
198(14) 0.00505 208.9 11.5
214(15) 0.00467 208.9 11.8
211(15) 0.00474 208.9 12.1
211(15) 0.00474 209.0 12.4
230(15) 0.00435 209.0 12.7
196(14) 0.00510 209.1 13.1
212(15) 0.00472 209.1 13.5
226(15) 0.00442 209.1 13.9
235(15) 0.00426 209.2 14.4
236(15) 0.00424 209.2 15.0
236(15) 0.00424 209.2 15.5
250(16) 0.00400 209.3 16.2
222(15) 0.00450 209.3 16.9
223(15) 0.00448 209.4 17.8
248(16) 0.00403 209.4 18.7
235(15) 0.00426 209.4 19.7
247(16) 0.00405 209.5 20.9
230(15) 0.00435 209.5 22.2
222(15) 0.00450 209.5 23.7
227(15) 0.00441 209.6 25.5
257(16) 0.00389 209.6 27.4
233(15) 0.00429 209.6 29.6
236(15) 0.00424 209.7 32.1
249(16) 0.00402 209.7 34.9
244(16) 0.00410 209.8 38.0
263(16) 0.00380 209.8 41.5
281(17) 0.00356 209.8 45.5
263(16) 0.00380 209.9 49.8
236(15) 0.00424 209.9 54.5
272(16) 0.00368 209.9 59.8
266(16) 0.00376 210.0 65.4
264(16) 0.00379 210.0 71.6
272(16) 0.00368 210.0 78.2
285(17) 0.00351 210.1 85.2
307(18) 0.003257 210.1 92.7
304(17) 0.003289 210.2 100.5
304(17) 0.003289 210.2 108.5
288(17) 0.003472 210.2 116.8
346(19) 0.002890 210.3 125.2
344(19) 0.002907 210.3 133.5
331(18) 0.003021 210.3 141.6
324(18) 0.003086 210.4 149.4
332(18) 0.003012 210.4 156.5
343(19) 0.002915 210.5 162.7
327(18) 0.003058 210.5 167.8
331(18) 0.003021 210.5 171.6
363(19) 0.002755 210.6 174.0
344(19) 0.002907 210.6 174.7
344(19) 0.002907 210.6 173.8
355(19) 0.002817 210.7 171.2
368(19) 0.002717 210.7 167.2
351(19) 0.002849 210.7 161.9
353(19) 0.002833 210.8 155.5
341(18) 0.002933 210.8 148.3
388(20) 0.002577 210.9 140.5
347(19) 0.002882 210.9 132.3
332(18) 0.003012 210.9 123.9
329(18) 0.003039 211.0 115.5
328(18) 0.003049 211.0 107.2
306(17) 0.003268 211.0 99.1
326(18) 0.003067 211.1 91.3
306(17) 0.003268 211.1 83.9
311(18) 0.003215 211.1 76.8
295(17) 0.003390 211.2 70.2
286(17) 0.003497 211.2 64.1
279(17) 0.00358 211.3 58.4
306(17) 0.003268 211.3 53.2
298(17) 0.003356 211.3 48.4
294(17) 0.003401 211.4 44.1
302(17) 0.003311 211.4 40.2
310(18) 0.003226 211.4 36.7
293(17) 0.003413 211.5 33.5
288(17) 0.003472 211.5 30.7
327(18) 0.003058 211.6 28.2
284(17) 0.00352 211.6 26.0
295(17) 0.003390 211.6 24.0
348(19) 0.002874 211.7 22.3
322(18) 0.003106 211.7 20.8
317(18) 0.003155 211.7 19.4
282(17) 0.00355 211.8 18.2
324(18) 0.003086 211.8 17.1
298(17) 0.003356 211.8 16.1
336(18) 0.002976 211.9 15.3
330(18) 0.003030 211.9 14.5
307(18) 0.003257 212.0 13.8
327(18) 0.003058 212.0 13.2
329(18) 0.003039 212.0 12.6
301(17) 0.003322 212.1 12.1
288(17) 0.003472 212.1 11.6
339(18) 0.002950 212.1 11.2
304(17) 0.003289 212.2 10.7
310(18) 0.003226 212.2 10.4
326(18) 0.003067 212.2 10.0
317(18) 0.003155 212.3 9.7
308(18) 0.003247 212.3 9.3
336(18) 0.002976 212.4 9.0
352(19) 0.002841 212.4 8.8
321(18) 0.003115 212.4 8.5
339(18) 0.002950 212.5 8.2
342(18) 0.002924 212.5 8.0
354(19) 0.002825 212.5 7.8
337(18) 0.002967 212.6 7.6
318(18) 0.003145 212.6 7.4
304(17) 0.003289 212.7 7.2
310(18) 0.003226 212.7 7.0
316(18) 0.003165 212.7 6.8
316(18) 0.003165 212.8 6.6
280(17) 0.00357 212.8 6.5
280(17) 0.00357 212.8 6.3
267(16) 0.00375 212.9 6.2
312(18) 0.003205 212.9 6.0
286(17) 0.003497 212.9 5.9
299(17) 0.003344 213.0 5.8
290(17) 0.003448 213.0 5.6
278(17) 0.00360 213.1 5.5
291(17) 0.003436 213.1 5.4
281(17) 0.00356 213.1 5.3
292(17) 0.003425 213.2 5.2
285(17) 0.00351 213.2 5.1
260(16) 0.00385 213.2 5.0
252(16) 0.00397 213.3 4.9
248(16) 0.00403 213.3 4.8
250(16) 0.00400 213.3 4.7
254(16) 0.00394 213.4 4.6
294(17) 0.003401 213.4 4.5
275(17) 0.00364 213.5 4.5
249(16) 0.00402 213.5 4.4
240(15) 0.00417 213.5 4.3
248(16) 0.00403 213.6 4.2
265(16) 0.00377 213.6 4.2
264(16) 0.00379 213.6 4.1
265(16) 0.00377 213.7 4.0
259(16) 0.00386 213.7 4.0
248(16) 0.00403 213.8 3.9
249(16) 0.00402 213.8 3.8
282(17) 0.00355 213.8 3.8
243(16) 0.00412 213.9 3.7
246(16) 0.00407 213.9 3.7
287(17) 0.003484 213.9 3.6
289(17) 0.003460 214.0 3.6
353(19) 0.002833 214.0 3.5
292(17) 0.003425 214.0 3.5
342(18) 0.002924 214.1 3.4
369(19) 0.002710 214.1 3.4
370(19) 0.002703 214.2 3.3
336(18) 0.002976 214.2 3.3
320(18) 0.003125 214.2 3.2
293(17) 0.003413 214.3 3.2
259(16) 0.00386 214.3 3.2
260(16) 0.00385 214.3 3.1
246(16) 0.00407 214.4 3.1
254(16) 0.00394 214.4 3.0
242(16) 0.00413 214.4 3.0
247(16) 0.00405 214.5 3.0
250(16) 0.00400 214.5 2.9
243(16) 0.00412 214.6 2.9
242(16) 0.00413 214.6 2.9
227(15) 0.00441 214.6 2.8
222(15) 0.00450 214.7 2.8
234(15) 0.00427 214.7 2.8
214(15) 0.00467 214.7 2.7
201(14) 0.00498 214.8 2.7
240(15) 0.00417 214.8 2.7
262(16) 0.00382 214.9 2.6
216(15) 0.00463 214.9 2.6
248(16) 0.00403 214.9 2.6
217(15) 0.00461 215.0 2.6
238(15) 0.00420 215.0 2.5
211(15) 0.00474 215.0 2.5
217(15) 0.00461 215.1 2.5
212(15) 0.00472 215.1 2.5
216(15) 0.00463 215.1 2.4
217(15) 0.00461 215.2 2.4
211(15) 0.00474 215.2 2.4
230(15) 0.00435 215.3 2.4
233(15) 0.00429 215.3 2.3
232(15) 0.00431 215.3 2.3
210(14) 0.00476 215.4 2.3
219(15) 0.00457 215.4 2.3
220(15) 0.00455 215.4 2.3
231(15) 0.00433 215.5 2.2
225(15) 0.00444 215.5 2.2
214(15) 0.00467 215.5 2.2
198(14) 0.00505 215.6 2.2
231(15) 0.00433 215.6 2.2
213(15) 0.00469 215.7 2.2
225(15) 0.00444 215.7 2.1
239(15) 0.00418 215.7 2.1
225(15) 0.00444 215.8 2.1
231(15) 0.00433 215.8 2.1
243(16) 0.00412 215.8 2.1
217(15) 0.00461 215.9 2.0
192(14) 0.00521 215.9 2.0
221(15) 0.00452 216.0 2.0
233(15) 0.00429 216.0 2.0
219(15) 0.00457 216.0 2.0
221(15) 0.00452 216.1 2.0
206(14) 0.00485 216.1 2.0
207(14) 0.00483 216.1 1.9
230(15) 0.00435 216.2 1.9
221(15) 0.00452 216.2 1.9
224(15) 0.00446 216.2 1.9
231(15) 0.00433 216.3 1.9
222(15) 0.00450 216.3 1.9
211(15) 0.00474 216.0 1.9
203(14) 0.00493 215.8 1.8
210(14) 0.00476 215.6 1.8
218(15) 0.00459 215.4 1.8
226(15) 0.00442 215.2 1.8
210(14) 0.00476 215.0 1.8
218(15) 0.00459 214.8 1.8
247(16) 0.00405 214.6 1.8
227(15) 0.00441 214.4 1.8
250(16) 0.00400 214.2 1.8
200(14) 0.00500 214.0 1.7
243(16) 0.00412 213.8 1.7
226(15) 0.00442 213.5 1.7
213(15) 0.00469 213.3 1.7
219(15) 0.00457 213.1 1.7
192(14) 0.00521 212.9 1.7
216(15) 0.00463 212.7 1.7
229(15) 0.00437 212.5 1.7
225(15) 0.00444 212.3 1.7
227(15) 0.00441 212.1 1.7
211(15) 0.00474 211.9 1.6
237(15) 0.00422 211.7 1.7
255(16) 0.00392 211.5 1.7
241(16) 0.00415 211.3 1.7
225(15) 0.00444 211.0 1.7
216(15) 0.00463 210.8 1.7
222(15) 0.00450 210.6 1.7
233(15) 0.00429 210.4 1.7
219(15) 0.00457 210.2 1.7
226(15) 0.00442 210.0 1.7
223(15) 0.00448 209.8 1.7
222(15) 0.00450 209.6 1.7
215(15) 0.00465 209.4 1.7
220(15) 0.00455 209.2 1.6
228(15) 0.00439 209.0 1.6
232(15) 0.00431 208.8 1.6
207(14) 0.00483 208.5 1.6
219(15) 0.00457 208.3 1.6
223(15) 0.00448 208.1 1.6
239(15) 0.00418 207.9 1.6
214(15) 0.00467 207.7 1.6
235(15) 0.00426 207.5 1.6
201(14) 0.00498 207.3 1.6
238(15) 0.00420 207.1 1.6
201(14) 0.00498 206.9 1.6
235(15) 0.00426 206.7 1.6
209(14) 0.00478 206.5 1.6
200(14) 0.00500 206.3 1.6
222(15) 0.00450 206.0 1.6
213(15) 0.00469 205.8 1.6
217(15) 0.00461 205.6 1.6
240(15) 0.00417 205.4 1.5
223(15) 0.00448 205.2 1.5
217(15) 0.00461 205.0 1.5
223(15) 0.00448 204.8 1.5
195(14) 0.00513 204.6 1.5
225(15) 0.00444 204.4 1.5
204(14) 0.00490 204.2 1.5
216(15) 0.00463 204.0 1.5
231(15) 0.00433 203.8 1.5
218(15) 0.00459 203.5 1.5
218(15) 0.00459 203.3 1.5
217(15) 0.00461 203.1 1.5
219(15) 0.00457 202.9 1.5
211(15) 0.00474 202.7 1.5
200(14) 0.00500 202.5 1.5
191(14) 0.00524 202.3 1.5
215(15) 0.00465 202.1 1.6
230(15) 0.00435 201.9 1.6
213(15) 0.00469 201.7 1.6
208(14) 0.00481 201.5 1.6
190(14) 0.00526 201.3 2.9
218(15) 0.00459 201.0 2.9
222(15) 0.00450 200.8 2.9
197(14) 0.00508 200.6 2.9
203(14) 0.00493 200.4 2.9
212(15) 0.00472 200.2 2.9
222(15) 0.00450 200.0 2.9
216(15) 0.00463 199.8 2.9
193(14) 0.00518 199.6 2.9
214(15) 0.00467 199.4 2.9
206(14) 0.00485 199.2 2.9
217(15) 0.00461 199.0 2.9
244(16) 0.00410 198.8 2.9
219(15) 0.00457 198.5 3.0
221(15) 0.00452 198.3 3.0
232(15) 0.00431 198.1 3.0
199(14) 0.00503 197.9 3.0
213(15) 0.00469 197.7 3.0
208(14) 0.00481 197.5 3.0
228(15) 0.00439 197.3 3.1
204(14) 0.00490 197.1 3.1
225(15) 0.00444 196.9 3.1
217(15) 0.00461 196.7 3.1
215(15) 0.00465 196.5 3.1
209(14) 0.00478 196.3 3.1
213(15) 0.00469 196.0 3.1
192(14) 0.00521 195.8 3.1
202(14) 0.00495 195.6 3.2
189(14) 0.00529 195.4 3.2
186(14) 0.00538 195.2 3.2
208(14) 0.00481 195.0 3.2
211(15) 0.00474 195.0 3.2
189(14) 0.00529 195.2 3.2
206(14) 0.00485 195.4 3.2
223(15) 0.00448 195.7 3.3
215(15) 0.00465 195.9 3.3
206(14) 0.00485 196.1 3.3
222(15) 0.00450 196.3 3.3
201(14) 0.00498 196.5 3.3
225(15) 0.00444 196.7 3.3
226(15) 0.00442 197.0 3.4
211(15) 0.00474 197.2 3.4
203(14) 0.00493 197.4 3.4
196(14) 0.00510 197.6 3.4
195(14) 0.00513 197.8 3.4
228(15) 0.00439 198.0 3.5
215(15) 0.00465 198.3 3.5
224(15) 0.00446 198.5 3.5
217(15) 0.00461 198.7 3.5
193(14) 0.00518 198.9 3.6
217(15) 0.00461 199.1 3.6
227(15) 0.00441 199.3 3.6
211(15) 0.00474 199.6 3.6
226(15) 0.00442 199.8 3.7
243(16) 0.00412 200.0 5.2
219(15) 0.00457 200.2 5.3
212(15) 0.00472 200.4 5.3
212(15) 0.00472 200.6 5.4
223(15) 0.00448 200.8 5.4
193(14) 0.00518 201.1 5.5
206(14) 0.00485 201.3 5.5
205(14) 0.00488 201.5 5.6
224(15) 0.00446 201.7 5.6
209(14) 0.00478 201.9 5.7
210(14) 0.00476 202.1 5.7
208(14) 0.00481 202.4 5.8
225(15) 0.00444 202.6 5.9
233(15) 0.00429 202.8 5.9
261(16) 0.00383 203.0 6.0
262(16) 0.00382 203.2 6.1
236(15) 0.00424 203.4 6.1
223(15) 0.00448 203.7 6.2
222(15) 0.00450 203.9 6.3
212(15) 0.00472 204.1 6.4
198(14) 0.00505 204.3 6.4
215(15) 0.00465 204.5 6.5
197(14) 0.00508 204.7 6.6
210(14) 0.00476 205.0 6.7
204(14) 0.00490 205.2 6.8
203(14) 0.00493 205.4 6.9
208(14) 0.00481 205.6 7.0
222(15) 0.00450 205.8 7.1
197(14) 0.00508 206.0 7.2
194(14) 0.00515 206.3 7.3
243(16) 0.00412 206.5 7.5
177(13) 0.00565 206.7 7.6
199(14) 0.00503 206.9 7.7
230(15) 0.00435 207.1 7.9
207(14) 0.00483 207.3 8.1
221(15) 0.00452 207.6 8.2
205(14) 0.00488 207.8 8.4
193(14) 0.00518 208.0 8.6
204(14) 0.00490 208.2 8.8
213(15) 0.00469 208.4 9.1
216(15) 0.00463 208.6 9.3
215(15) 0.00465 208.9 9.6
213(15) 0.00469 209.1 9.9
207(14) 0.00483 209.3 10.3
213(15) 0.00469 209.5 10.7
209(14) 0.00478 209.7 11.1
204(14) 0.00490 209.9 11.5
187(14) 0.00535 210.2 12.0
192(14) 0.00521 210.4 12.5
226(15) 0.00442 210.6 13.1
235(15) 0.00426 210.8 13.7
214(15) 0.00467 211.0 14.4
218(15) 0.00459 211.2 15.2
217(15) 0.00461 211.4 15.9
229(15) 0.00437 211.7 16.8
222(15) 0.00450 211.9 17.7
216(15) 0.00463 212.1 18.7
227(15) 0.00441 212.3 19.7
242(16) 0.00413 212.5 20.8
252(16) 0.00397 212.7 21.9
269(16) 0.00372 213.0 23.1
226(15) 0.00442 213.2 24.3
242(16) 0.00413 213.4 25.6
244(16) 0.00410 213.6 26.9
213(15) 0.00469 213.8 28.2
221(15) 0.00452 214.0 29.5
267(16) 0.00375 214.3 30.8
262(16) 0.00382 214.5 32.1
241(16) 0.00415 214.7 33.3
258(16) 0.00388 214.9 34.5
244(16) 0.00410 215.1 35.6
236(15) 0.00424 215.3 36.5
301(17) 0.003322 215.6 37.3
259(16) 0.00386 215.8 38.0
255(16) 0.00392 216.0 38.4
229(15) 0.00437 216.2 38.7
247(16) 0.00405 216.4 38.8
271(16) 0.00369 216.6 38.7
262(16) 0.00382 216.9 38.3
236(15) 0.00424 217.1 37.9
247(16) 0.00405 217.3 37.2
239(15) 0.00418 217.5 36.5
248(16) 0.00403 217.7 35.6
220(15) 0.00455 217.9 34.6
254(16) 0.00394 218.2 33.6
231(15) 0.00433 218.4 32.6
240(15) 0.00417 218.6 31.5
262(16) 0.00382 218.8 30.5
224(15) 0.00446 219.0 29.4
240(15) 0.00417 219.2 28.4
234(15) 0.00427 219.5 27.4
215(15) 0.00465 219.7 26.5
234(15) 0.00427 219.9 25.6
240(15) 0.00417 220.1 24.8
242(16) 0.00413 220.3 24.0
232(15) 0.00431 220.5 23.3
247(16) 0.00405 220.7 22.7
255(16) 0.00392 221.0 22.1
266(16) 0.00376 221.2 21.6
259(16) 0.00386 221.4 21.2
267(16) 0.00375 221.6 20.8
244(16) 0.00410 221.8 20.5
248(16) 0.00403 222.0 20.2
236(15) 0.00424 222.3 20.0
274(17) 0.00365 222.5 19.9
227(15) 0.00441 222.7 19.8
227(15) 0.00441 222.9 19.8
228(15) 0.00439 223.1 19.8
186(14) 0.00538 223.3 19.8
234(15) 0.00427 223.6 19.9
204(14) 0.00490 223.8 20.0
199(14) 0.00503 224.0 20.2
235(15) 0.00426 224.2 20.4
249(16) 0.00402 224.4 20.7
214(15) 0.00467 224.6 21.0
255(16) 0.00392 224.9 21.3
241(16) 0.00415 225.1 21.6
214(15) 0.00467 225.3 22.0
216(15) 0.00463 225.5 22.5
239(15) 0.00418 225.7 22.9
236(15) 0.00424 225.9 23.4
194(14) 0.00515 226.2 23.9
217(15) 0.00461 226.4 24.5
219(15) 0.00457 226.6 25.1
210(14) 0.00476 226.8 25.8
224(15) 0.00446 227.0 26.5
220(15) 0.00455 227.2 27.2
222(15) 0.00450 227.5 28.0
233(15) 0.00429 227.7 28.9
221(15) 0.00452 227.9 29.8
211(15) 0.00474 228.1 30.8
219(15) 0.00457 228.3 31.8
231(15) 0.00433 228.5 32.9
245(16) 0.00408 228.8 34.1
250(16) 0.00400 229.0 35.4
232(15) 0.00431 229.2 36.7
240(15) 0.00417 229.4 38.2
243(16) 0.00412 229.6 39.8
228(15) 0.00439 229.8 41.5
236(15) 0.00424 230.1 43.4
247(16) 0.00405 230.3 45.4
253(16) 0.00395 230.5 47.5
233(15) 0.00429 230.7 49.9
254(16) 0.00394 230.9 52.5
254(16) 0.00394 231.1 55.3
279(17) 0.00358 231.3 58.4
283(17) 0.00353 231.6 61.8
272(16) 0.00368 231.8 65.5
273(17) 0.00366 232.0 69.7
292(17) 0.003425 232.2 74.3
256(16) 0.00391 232.4 79.4
265(16) 0.00377 232.6 85.1
293(17) 0.003413 232.9 91.6
278(17) 0.00360 233.1 98.8
310(18) 0.003226 233.3 107.1
296(17) 0.003378 233.5 116.5
332(18) 0.003012 233.7 127.3
335(18) 0.002985 233.9 139.7
338(18) 0.002959 234.2 154.3
365(19) 0.002740 234.4 171.3
392(20) 0.002551 234.6 191.4
434(21) 0.002304 234.8 215.5
419(20) 0.002387 235.0 244.5
520(23) 0.001923 235.2 280.2
546(23) 0.001832 235.5 325.0
647(25) 0.001546 235.7 383.0
735(27) 0.001361 235.9 461.2
796(28) 0.001256 236.1 571.7
972(31) 0.001029 236.3 733.2
1118(33) 0.000894 236.5 972.7
1376(37) 0.000727 237. 1324.
1821(43) 0.000549 237. 1818.
2273(48) 0.000440 237. 2475.
3085(56) 0.0003241 237. 3273.
3772(61) 0.0002651 238. 4107.
4719(69) 0.0002119 238. 4733.
5173(72) 0.0001933 238. 4849.
4584(68) 0.0002182 238. 4385.
3640(60) 0.0002747 238. 3593.
2810(53) 0.000356 239. 2763.
2209(47) 0.000453 239. 2048.
1728(42) 0.000579 239. 1494.
1448(38) 0.000691 239. 1092.
1162(34) 0.000861 239.6 815.4
1024(32) 0.000977 239.8 628.6
788(28) 0.001269 240.0 501.9
727(27) 0.001376 240.2 413.7
678(26) 0.001475 240.4 349.5
609(25) 0.001642 240.7 300.7
529(23) 0.001890 240.9 262.4
506(22) 0.001976 241.1 231.5
452(21) 0.002212 241.3 206.1
416(20) 0.002404 241.5 185.1
409(20) 0.002445 241.7 167.4
382(20) 0.002618 241.9 152.5
354(19) 0.002825 242.2 139.7
345(19) 0.002899 242.4 128.8
323(18) 0.003096 242.6 119.3
309(18) 0.003236 242.8 111.1
319(18) 0.003135 243.0 104.0
303(17) 0.003300 243.2 97.8
284(17) 0.00352 243.5 92.3
297(17) 0.003367 243.7 87.5
284(17) 0.00352 243.9 83.2
295(17) 0.003390 244.1 79.5
308(18) 0.003247 244.3 76.1
273(17) 0.00366 244.5 73.2
270(16) 0.00370 244.8 70.6
304(17) 0.003289 245.0 68.2
283(17) 0.00353 245.2 66.2
296(17) 0.003378 245.4 64.4
281(17) 0.00356 245.6 62.8
286(17) 0.003497 245.8 61.4
289(17) 0.003460 246.1 60.2
293(17) 0.003413 246.3 59.1
296(17) 0.003378 246.5 58.2
277(17) 0.00361 246.7 57.5
260(16) 0.00385 246.9 56.9
255(16) 0.00392 247.1 56.4
274(17) 0.00365 247.4 56.0
269(16) 0.00372 247.6 55.8
265(16) 0.00377 247.8 55.6
259(16) 0.00386 248.0 55.6
267(16) 0.00375 248.2 55.8
254(16) 0.00394 248.4 56.0
278(17) 0.00360 248.7 56.4
305(17) 0.003279 248.9 57.0
259(16) 0.00386 249.1 57.7
240(15) 0.00417 249.3 58.6
254(16) 0.00394 249.5 59.7
263(16) 0.00380 249.7 61.0
263(16) 0.00380 249.9 62.3
265(16) 0.00377 250.0 63.8
253(16) 0.00395 250.1 65.2
237(15) 0.00422 250.2 66.6
292(17) 0.003425 250.3 67.7
289(17) 0.003460 250.4 68.7
252(16) 0.00397 250.5 69.5
297(17) 0.003367 250.6 70.3
261(16) 0.00383 250.7 71.3
260(16) 0.00385 250.8 72.4
265(16) 0.00377 250.9 73.7
299(17) 0.003344 251.0 75.2
278(17) 0.00360 251.1 77.0
268(16) 0.00373 251.2 79.0
283(17) 0.00353 251.3 81.2
299(17) 0.003344 251.4 83.7
289(17) 0.003460 251.5 86.5
317(18) 0.003155 251.6 89.4
304(17) 0.003289 251.7 92.7
326(18) 0.003067 251.8 96.2
298(17) 0.003356 251.9 100.0
309(18) 0.003236 252.0 104.1
331(18) 0.003021 252.1 108.5
336(18) 0.002976 252.2 113.3
328(18) 0.003049 252.3 118.5
329(18) 0.003039 252.4 124.2
348(19) 0.002874 252.5 130.3
359(19) 0.002786 252.6 137.0
336(18) 0.002976 252.7 144.3
350(19) 0.002857 252.8 152.3
382(20) 0.002618 252.9 161.1
386(20) 0.002591 253.0 170.8
424(21) 0.002358 253.1 181.5
420(20) 0.002381 253.2 193.6
434(21) 0.002304 253.3 207.2
463(22) 0.002160 253.4 222.6
448(21) 0.002232 253.5 240.3
473(22) 0.002114 253.6 260.9
491(22) 0.002037 253.7 285.1
511(23) 0.001957 253.8 313.6
591(24) 0.001692 253.9 347.7
583(24) 0.001715 254.0 388.5
645(25) 0.001550 254.1 437.6
685(26) 0.001460 254.2 496.5
773(28) 0.001294 254.3 567.4
852(29) 0.001174 254.4 651.7
905(30) 0.001105 254.5 752.1
1052(32) 0.000951 254.6 869.9
1103(33) 0.000907 254.7 1006.8
1296(36) 0.000772 255. 1164.
1529(39) 0.000654 255. 1342.
1719(41) 0.000582 255. 1540.
2011(45) 0.000497 255. 1757.
2283(48) 0.000438 255. 1989.
2737(52) 0.000365 255. 2232.
3148(56) 0.0003177 255. 2478.
3461(59) 0.0002889 256. 2715.
3553(60) 0.0002815 256. 2930.
3794(62) 0.0002636 256. 3107.
3672(61) 0.0002723 256. 3229.
3745(61) 0.0002670 256. 3283.
3442(59) 0.0002905 256. 3263.
3167(56) 0.0003158 256. 3171.
2884(54) 0.0003467 256. 3018.
2824(53) 0.000354 256. 2818.
2602(51) 0.000384 256. 2589.
2307(48) 0.000433 257. 2346.
2078(46) 0.000481 257. 2102.
1899(44) 0.000527 257. 1864.
1748(42) 0.000572 257. 1640.
1516(39) 0.000660 257. 1433.
1386(37) 0.000722 257. 1246.
1300(36) 0.000769 257. 1080.
1168(34) 0.000856 257.2 934.2
1097(33) 0.000912 257.3 808.1
1058(33) 0.000945 257.4 700.4
989(31) 0.001011 257.5 609.2
904(30) 0.001106 257.6 532.7
830(29) 0.001205 257.7 469.0
764(28) 0.001309 257.8 416.0
713(27) 0.001403 257.9 372.4
691(26) 0.001447 258.0 335.9
677(26) 0.001477 258.1 305.6
612(25) 0.001634 258.2 280.1
620(25) 0.001613 258.3 258.6
587(24) 0.001704 258.4 240.3
525(23) 0.001905 258.5 224.5
523(23) 0.001912 258.6 210.8
517(23) 0.001934 258.7 198.9
463(22) 0.002160 258.8 188.4
497(22) 0.002012 258.9 179.1
475(22) 0.002105 259.0 170.9
443(21) 0.002257 259.1 163.6
442(21) 0.002262 259.2 157.2
421(21) 0.002375 259.3 151.5
452(21) 0.002212 259.4 146.5
417(20) 0.002398 259.5 142.2
402(20) 0.002488 259.6 138.5
454(21) 0.002203 259.7 135.5
379(19) 0.002639 259.8 133.1
389(20) 0.002571 259.9 131.4
379(19) 0.002639 260.0 130.4
385(20) 0.002597 260.1 130.3
400(20) 0.002500 260.2 130.9
403(20) 0.002481 260.3 132.6
374(19) 0.002674 260.4 135.2
385(20) 0.002597 260.5 139.1
398(20) 0.002513 260.6 144.3
410(20) 0.002439 260.7 150.9
414(20) 0.002415 260.8 159.2
424(21) 0.002358 260.9 169.1
441(21) 0.002268 261.0 180.9
437(21) 0.002288 261.2 194.6
432(21) 0.002315 261.3 210.2
461(21) 0.002169 261.4 227.8
472(22) 0.002119 261.5 247.2
472(22) 0.002119 261.6 268.2
532(23) 0.001880 261.7 290.6
573(24) 0.001745 261.8 313.9
560(24) 0.001786 261.9 337.6
609(25) 0.001642 262.0 360.8
545(23) 0.001835 262.1 382.4
654(26) 0.001529 262.2 401.4
727(27) 0.001376 262.3 416.5
689(26) 0.001451 262.4 426.6
731(27) 0.001368 262.5 430.8
730(27) 0.001370 262.6 429.0
787(28) 0.001271 262.7 421.5
707(27) 0.001414 262.8 409.2
667(26) 0.001499 262.9 393.2
709(27) 0.001410 263.0 374.9
615(25) 0.001626 263.1 355.5
604(25) 0.001656 263.2 336.2
564(24) 0.001773 263.3 317.8
530(23) 0.001887 263.4 300.9
509(23) 0.001965 263.5 286.1
467(22) 0.002141 263.6 273.8
495(22) 0.002020 263.7 264.1
461(21) 0.002169 263.8 257.1
454(21) 0.002203 263.9 252.9
449(21) 0.002227 264.0 251.4
442(21) 0.002262 264.1 252.5
468(22) 0.002137 264.2 256.0
472(22) 0.002119 264.3 261.6
471(22) 0.002123 264.4 269.0
517(23) 0.001934 264.5 277.9
490(22) 0.002041 264.6 287.8
543(23) 0.001842 264.7 298.2
536(23) 0.001866 264.8 308.6
597(24) 0.001675 264.9 318.4
602(25) 0.001661 265.0 327.0
594(24) 0.001684 265.1 333.6
614(25) 0.001629 265.2 337.8
574(24) 0.001742 265.3 339.2
577(24) 0.001733 265.4 337.4
590(24) 0.001695 265.5 332.4
531(23) 0.001883 265.6 324.4
514(23) 0.001946 265.7 313.8
513(23) 0.001949 265.8 301.0
501(22) 0.001996 265.9 286.5
454(21) 0.002203 266.0 270.9
431(21) 0.002320 266.1 254.5
467(22) 0.002141 266.2 238.0
454(21) 0.002203 266.3 221.5
430(21) 0.002326 266.4 205.4
411(20) 0.002433 266.5 190.0
383(20) 0.002611 266.6 175.2
413(20) 0.002421 266.7 161.4
389(20) 0.002571 266.8 148.5
354(19) 0.002825 266.9 136.5
331(18) 0.003021 267.0 125.6
354(19) 0.002825 267.1 115.7
354(19) 0.002825 267.2 106.8
333(18) 0.003003 267.3 98.8
321(18) 0.003115 267.4 91.6
307(18) 0.003257 267.5 85.3
322(18) 0.003106 267.6 79.8
293(17) 0.003413 267.7 75.0
314(18) 0.003185 267.8 70.8
302(17) 0.003311 267.9 67.1
319(18) 0.003135 268.0 64.0
282(17) 0.00355 268.1 61.3
304(17) 0.003289 268.2 59.0
325(18) 0.003077 268.3 57.1
277(17) 0.00361 268.4 55.5
267(16) 0.00375 268.5 54.1
299(17) 0.003344 268.6 53.0
277(17) 0.00361 268.7 52.1
296(17) 0.003378 268.8 51.4
296(17) 0.003378 268.9 50.9
286(17) 0.003497 269.0 50.6
267(16) 0.00375 268.5 50.5
261(16) 0.00383 267.9 50.5
266(16) 0.00376 267.4 50.8
292(17) 0.003425 266.9 51.2
264(16) 0.00379 266.4 52.0
280(17) 0.00357 265.8 53.0
291(17) 0.003436 265.3 54.4
306(17) 0.003268 264.8 56.2
274(17) 0.00365 264.2 58.6
271(16) 0.00369 263.7 61.8
304(17) 0.003289 263.2 66.0
307(18) 0.003257 262.6 71.6
327(18) 0.003058 262.1 79.2
335(18) 0.002985 261.6 89.8
364(19) 0.002747 261.0 105.2
433(21) 0.002309 260.5 129.4
467(22) 0.002141 260.0 169.2
618(25) 0.001618 259.5 235.7
694(26) 0.001441 258.9 342.4
856(29) 0.001168 258.4 497.0
1059(33) 0.000944 257.9 681.5
1056(32) 0.000947 257.3 810.4
1028(32) 0.000973 256.8 772.2
915(30) 0.001093 256.3 603.8
677(26) 0.001477 255.7 424.7
545(23) 0.001835 255.2 288.3
495(22) 0.002020 254.7 198.6
388(20) 0.002577 254.1 143.3
372(19) 0.002688 253.6 109.7
334(18) 0.002994 253.1 88.5
345(19) 0.002899 252.6 74.1
294(17) 0.003401 252.0 63.7
295(17) 0.003390 251.5 55.8
274(17) 0.00365 251.0 49.6
277(17) 0.00361 250.4 44.7
266(16) 0.00376 249.9 40.6
265(16) 0.00377 249.4 37.3
230(15) 0.00435 248.8 34.4
277(17) 0.00361 248.3 32.0
247(16) 0.00405 247.8 30.0
269(16) 0.00372 247.2 28.2
262(16) 0.00382 246.7 26.6
266(16) 0.00376 246.2 25.2
218(15) 0.00459 245.7 24.0
242(16) 0.00413 245.1 22.9
243(16) 0.00412 244.6 21.9
206(14) 0.00485 244.1 20.9
249(16) 0.00402 243.5 20.1
257(16) 0.00389 243.0 19.4
253(16) 0.00395 242.5 18.7
242(16) 0.00413 241.9 18.0
228(15) 0.00439 241.4 17.4
248(16) 0.00403 240.9 16.9
236(15) 0.00424 240.3 16.4
237(15) 0.00422 239.8 15.9
217(15) 0.00461 239.3 15.5
253(16) 0.00395 238.8 15.1
227(15) 0.00441 238.2 14.7
263(16) 0.00380 237.7 14.3
275(17) 0.00364 237.2 14.0
257(16) 0.00389 236.6 13.7
273(17) 0.00366 236.1 13.4
248(16) 0.00403 235.6 13.1
275(17) 0.00364 235.0 12.8
256(16) 0.00391 234.5 12.6
271(16) 0.00369 234.0 12.3
246(16) 0.00407 233.4 12.1
249(16) 0.00402 232.9 11.9
241(16) 0.00415 232.4 11.7
225(15) 0.00444 231.9 11.5
240(15) 0.00417 231.3 11.3
245(16) 0.00408 230.8 11.1
228(15) 0.00439 230.3 10.9
245(16) 0.00408 229.7 10.8
231(15) 0.00433 229.2 10.6
260(16) 0.00385 228.7 10.5
213(15) 0.00469 228.1 10.3
227(15) 0.00441 227.6 10.2
259(16) 0.00386 227.1 10.1
252(16) 0.00397 226.5 9.9
241(16) 0.00415 226.0 9.8
215(15) 0.00465 225.5 9.7
241(16) 0.00415 225.0 9.6
242(16) 0.00413 224.4 9.5
236(15) 0.00424 223.9 9.4
231(15) 0.00433 223.4 9.3
244(16) 0.00410 222.8 9.2
244(16) 0.00410 222.3 9.1
230(15) 0.00435 221.8 9.0
255(16) 0.00392 221.2 9.0
226(15) 0.00442 220.7 8.9
253(16) 0.00395 220.2 8.8
233(15) 0.00429 219.6 8.7
243(16) 0.00412 219.1 8.7
234(15) 0.00427 218.6 8.6
235(15) 0.00426 218.1 8.6
238(15) 0.00420 217.5 8.5
263(16) 0.00380 217.0 8.5
218(15) 0.00459 216.9 8.4
197(14) 0.00508 217.1 8.4
245(16) 0.00408 217.2 8.4
210(14) 0.00476 217.3 8.3
236(15) 0.00424 217.4 8.3
237(15) 0.00422 217.5 8.3
229(15) 0.00437 217.6 8.3
237(15) 0.00422 217.7 8.3
240(15) 0.00417 217.8 8.3
224(15) 0.00446 217.9 8.3
232(15) 0.00431 218.1 8.3
247(16) 0.00405 218.2 8.4
225(15) 0.00444 218.3 8.4
228(15) 0.00439 218.4 8.5
221(15) 0.00452 218.5 8.5
253(16) 0.00395 218.6 8.6
249(16) 0.00402 218.7 8.7
226(15) 0.00442 218.8 8.8
235(15) 0.00426 219.0 8.9
248(16) 0.00403 219.1 9.0
244(16) 0.00410 219.2 9.1
242(16) 0.00413 219.3 9.3
227(15) 0.00441 219.4 9.4
231(15) 0.00433 219.5 9.6
209(14) 0.00478 219.6 9.8
240(15) 0.00417 219.7 9.9
212(15) 0.00472 219.8 10.1
244(16) 0.00410 220.0 10.3
240(15) 0.00417 220.1 10.5
212(15) 0.00472 220.2 10.6
225(15) 0.00444 220.3 10.8
235(15) 0.00426 220.4 11.0
251(16) 0.00398 220.5 11.1
226(15) 0.00442 220.6 11.2
236(15) 0.00424 220.7 11.3
272(16) 0.00368 220.9 11.4
236(15) 0.00424 221.0 11.4
238(15) 0.00420 221.1 11.4
238(15) 0.00420 221.2 11.4
247(16) 0.00405 221.3 11.4
231(15) 0.00433 221.4 11.3
206(14) 0.00485 221.5 11.2
237(15) 0.00422 221.6 11.1
222(15) 0.00450 221.7 11.0
244(16) 0.00410 221.9 10.9
230(15) 0.00435 222.0 10.8
235(15) 0.00426 222.1 10.6
232(15) 0.00431 222.2 10.5
244(16) 0.00410 222.3 10.4
242(16) 0.00413 222.4 10.3
225(15) 0.00444 222.5 10.2
224(15) 0.00446 222.6 10.2
209(14) 0.00478 222.8 10.1
256(16) 0.00391 222.9 10.0
234(15) 0.00427 223.0 10.0
236(15) 0.00424 223.1 10.0
239(15) 0.00418 223.2 10.0
227(15) 0.00441 223.3 10.0
229(15) 0.00437 223.4 10.1
225(15) 0.00444 223.5 10.1
249(16) 0.00402 223.6 10.2
230(15) 0.00435 223.8 10.3
201(14) 0.00498 223.9 10.5
218(15) 0.00459 224.0 10.6
204(14) 0.00490 224.1 10.8
201(14) 0.00498 224.2 11.0
223(15) 0.00448 224.3 11.2
240(15) 0.00417 224.4 11.5
228(15) 0.00439 224.5 11.8
239(15) 0.00418 224.6 12.1
228(15) 0.00439 224.8 12.4
202(14) 0.00495 224.9 12.8
226(15) 0.00442 225.0 13.3
235(15) 0.00426 225.1 13.7
230(15) 0.00435 225.2 14.3
221(15) 0.00452 225.3 14.9
244(16) 0.00410 225.4 15.5
212(15) 0.00472 225.5 16.2
230(15) 0.00435 225.7 17.0
253(16) 0.00395 225.8 18.0
231(15) 0.00433 225.9 19.0
228(15) 0.00439 226.0 20.1
236(15) 0.00424 226.1 21.4
247(16) 0.00405 226.2 22.9
259(16) 0.00386 226.3 24.6
235(15) 0.00426 226.4 26.5
254(16) 0.00394 226.5 28.8
243(16) 0.00412 226.7 31.4
233(15) 0.00429 226.8 34.5
268(16) 0.00373 226.9 38.2
293(17) 0.003413 227.0 42.6
296(17) 0.003378 227.1 47.9
271(16) 0.00369 227.2 54.5
317(18) 0.003155 227.3 62.8
343(19) 0.002915 227.4 73.7
331(18) 0.003021 227.6 88.6
319(18) 0.003135 227.7 109.8
403(20) 0.002481 227.8 141.0
422(21) 0.002370 227.9 186.7
503(22) 0.001988 228.0 252.5
645(25) 0.001550 228.1 343.2
743(27) 0.001346 228.2 460.0
908(30) 0.001101 228.3 597.0
1086(33) 0.000921 228.4 731.9
1185(34) 0.000844 228.6 820.8
1145(34) 0.000873 228.7 819.3
987(31) 0.001013 228.8 728.4
837(29) 0.001195 228.9 592.9
728(27) 0.001374 229.0 456.5
557(24) 0.001795 229.1 340.5
489(22) 0.002045 229.2 250.8
414(20) 0.002415 229.3 185.8
385(20) 0.002597 229.4 140.7
326(18) 0.003067 229.6 110.0
321(18) 0.003115 229.7 89.1
314(18) 0.003185 229.8 74.5
297(17) 0.003367 229.9 63.8
280(17) 0.00357 230.0 55.7
299(17) 0.003344 230.1 49.3
275(17) 0.00364 230.2 44.1
267(16) 0.00375 230.3 39.9
279(17) 0.00358 230.5 36.4
269(16) 0.00372 230.6 33.4
255(16) 0.00392 230.7 30.9
261(16) 0.00383 230.8 28.9
235(15) 0.00426 230.9 27.1
239(15) 0.00418 231.0 25.5
249(16) 0.00402 231.1 24.2
261(16) 0.00383 231.2 23.1
240(15) 0.00417 231.3 22.2
252(16) 0.00397 231.5 21.3
248(16) 0.00403 231.6 20.6
239(15) 0.00418 231.7 20.1
257(16) 0.00389 231.8 19.6
229(15) 0.00437 231.9 19.2
236(15) 0.00424 232.0 18.8
241(16) 0.00415 232.1 18.6
258(16) 0.00388 232.2 18.4
252(16) 0.00397 232.4 18.3
251(16) 0.00398 232.5 18.3
241(16) 0.00415 232.6 18.3
252(16) 0.00397 232.7 18.4
259(16) 0.00386 232.8 18.5
244(16) 0.00410 232.9 18.7
228(15) 0.00439 233.0 19.0
225(15) 0.00444 233.1 19.3
264(16) 0.00379 233.2 19.8
249(16) 0.00402 233.3 20.3
220(15) 0.00455 233.4 20.8
239(15) 0.00418 233.5 21.5
224(15) 0.00446 233.5 22.2
244(16) 0.00410 233.6 23.0
246(16) 0.00407 233.7 23.9
257(16) 0.00389 233.7 24.9
264(16) 0.00379 233.8 26.1
246(16) 0.00407 233.8 27.3
255(16) 0.00392 233.9 28.6
245(16) 0.00408 234.0 30.1
254(16) 0.00394 234.0 31.6
233(15) 0.00429 234.1 33.3
244(16) 0.00410 234.1 35.1
252(16) 0.00397 234.2 37.1
262(16) 0.00382 234.3 39.2
267(16) 0.00375 234.3 41.4
240(15) 0.00417 234.4 43.7
237(15) 0.00422 234.4 46.2
296(17) 0.003378 234.5 48.8
256(16) 0.00391 234.6 51.6
258(16) 0.00388 234.6 54.5
289(17) 0.003460 234.7 57.4
281(17) 0.00356 234.8 60.6
273(17) 0.00366 234.8 63.8
300(17) 0.003333 234.9 67.1
289(17) 0.003460 234.9 70.5
297(17) 0.003367 235.0 73.9
296(17) 0.003378 235.1 77.4
318(18) 0.003145 235.1 80.9
325(18) 0.003077 235.2 84.5
347(19) 0.002882 235.2 88.0
356(19) 0.002809 235.3 91.4
323(18) 0.003096 235.4 94.7
329(18) 0.003039 235.4 97.9
342(18) 0.002924 235.5 101.0
347(19) 0.002882 235.5 103.8
333(18) 0.003003 235.6 106.3
355(19) 0.002817 235.7 108.6
326(18) 0.003067 235.7 110.5
326(18) 0.003067 235.8 112.1
346(19) 0.002890 235.8 113.2
333(18) 0.003003 235.9 114.0
348(19) 0.002874 236.0 114.3
335(18) 0.002985 236.0 114.2
348(19) 0.002874 236.1 113.6
343(19) 0.002915 236.2 112.8
334(18) 0.002994 236.2 111.6
350(19) 0.002857 236.3 110.2
360(19) 0.002778 236.3 108.7
356(19) 0.002809 236.4 107.3
323(18) 0.003096 236.5 106.2
337(18) 0.002967 236.5 105.4
332(18) 0.003012 236.6 105.2
331(18) 0.003021 236.6 105.5
341(18) 0.002933 236.7 105.9
364(19) 0.002747 236.8 105.6
374(19) 0.002674 236.8 103.4
323(18) 0.003096 236.9 98.7
310(18) 0.003226 236.9 92.1
308(18) 0.003247 237.0 84.7
336(18) 0.002976 237.1 77.6
299(17) 0.003344 237.1 71.1
322(18) 0.003106 237.2 65.4
300(17) 0.003333 237.3 60.5
297(17) 0.003367 237.3 56.1
313(18) 0.003195 237.4 52.3
295(17) 0.003390 237.4 48.9
268(16) 0.00373 237.5 45.8
290(17) 0.003448 237.6 42.9
269(16) 0.00372 237.6 40.2
286(17) 0.003497 237.7 37.8
290(17) 0.003448 237.7 35.4
292(17) 0.003425 237.8 33.3
275(17) 0.00364 237.9 31.3
271(16) 0.00369 237.9 29.4
280(17) 0.00357 238.0 27.6
254(16) 0.00394 238.0 26.0
280(17) 0.00357 238.1 24.5
282(17) 0.00355 238.2 23.1
273(17) 0.00366 238.2 21.8
250(16) 0.00400 238.3 20.6
254(16) 0.00394 238.4 19.5
281(17) 0.00356 238.4 18.4
268(16) 0.00373 238.5 17.5
281(17) 0.00356 238.5 16.6
262(16) 0.00382 238.6 15.8
284(17) 0.00352 238.7 15.1
265(16) 0.00377 238.7 14.4
250(16) 0.00400 238.8 13.8
280(17) 0.00357 238.8 13.2
284(17) 0.00352 238.9 12.7
257(16) 0.00389 239.0 12.2
266(16) 0.00376 239.0 11.7
240(15) 0.00417 239.1 11.3
275(17) 0.00364 239.1 10.9
260(16) 0.00385 239.2 10.6
276(17) 0.00362 239.3 10.2
283(17) 0.00353 239.3 9.9
257(16) 0.00389 239.4 9.6
281(17) 0.00356 239.5 9.4
254(16) 0.00394 239.5 9.1
271(16) 0.00369 239.6 8.9
260(16) 0.00385 239.6 8.7
281(17) 0.00356 239.7 8.4
261(16) 0.00383 239.8 8.2
301(17) 0.003322 239.8 8.1
290(17) 0.003448 239.9 7.9
269(16) 0.00372 239.9 7.7
284(17) 0.00352 240.0 7.5
291(17) 0.003436 240.1 7.4
244(16) 0.00410 240.1 7.2
278(17) 0.00360 240.2 7.1
237(15) 0.00422 240.2 7.0
253(16) 0.00395 240.3 6.8
262(16) 0.00382 240.4 6.7
242(16) 0.00413 240.4 6.6
269(16) 0.00372 240.5 6.5
294(17) 0.003401 240.6 6.4
267(16) 0.00375 240.6 6.3
243(16) 0.00412 240.7 6.2
259(16) 0.00386 240.7 6.1
276(17) 0.00362 240.8 6.0
251(16) 0.00398 240.9 5.9
260(16) 0.00385 240.9 5.9
245(16) 0.00408 241.0 5.8
257(16) 0.00389 241.0 5.7
251(16) 0.00398 241.1 5.6
263(16) 0.00380 241.2 5.6
251(16) 0.00398 241.2 5.5
264(16) 0.00379 241.3 5.4
224(15) 0.00446 241.3 5.4
239(15) 0.00418 241.4 5.3
248(16) 0.00403 241.5 5.3
240(15) 0.00417 241.5 5.2
241(16) 0.00415 241.6 5.2
224(15) 0.00446 241.6 5.1
254(16) 0.00394 241.7 5.1
253(16) 0.00395 241.7 5.0
251(16) 0.00398 241.7 5.0
257(16) 0.00389 241.8 5.0
256(16) 0.00391 241.8 4.9
248(16) 0.00403 241.9 4.9
271(16) 0.00369 241.9 4.9
238(15) 0.00420 241.9 4.9
252(16) 0.00397 242.0 4.8
238(15) 0.00420 242.0 4.8
239(15) 0.00418 242.1 4.8
243(16) 0.00412 242.1 4.8
252(16) 0.00397 242.1 4.8
266(16) 0.00376 242.2 4.8
267(16) 0.00375 242.2 4.8
233(15) 0.00429 242.3 4.8
258(16) 0.00388 242.3 4.8
246(16) 0.00407 242.3 4.8
267(16) 0.00375 242.4 4.8
234(15) 0.00427 242.4 4.8
253(16) 0.00395 242.5 4.8
256(16) 0.00391 242.5 4.8
251(16) 0.00398 242.5 4.8
270(16) 0.00370 242.6 4.9
253(16) 0.00395 242.6 4.9
229(15) 0.00437 242.7 4.9
280(17) 0.00357 242.7 5.0
275(17) 0.00364 242.7 5.0
242(16) 0.00413 242.8 5.1
252(16) 0.00397 242.8 5.2
245(16) 0.00408 242.9 5.2
303(17) 0.003300 242.9 5.3
246(16) 0.00407 242.9 5.4
254(16) 0.00394 243.0 5.5
254(16) 0.00394 243.0 5.6
304(17) 0.003289 243.1 5.7
251(16) 0.00398 243.1 5.9
267(16) 0.00375 243.1 6.0
286(17) 0.003497 243.2 6.2
267(16) 0.00375 243.2 6.4
287(17) 0.003484 243.3 6.6
282(17) 0.00355 243.3 6.8
294(17) 0.003401 243.3 7.1
284(17) 0.00352 243.4 7.7
281(17) 0.00356 243.4 8.0
313(18) 0.003195 243.5 8.5
280(17) 0.00357 243.5 9.0
258(16) 0.00388 243.5 9.6
311(18) 0.003215 243.6 10.4
291(17) 0.003436 243.6 11.3
278(17) 0.00360 243.7 12.5
281(17) 0.00356 243.7 13.9
299(17) 0.003344 243.7 15.6
267(16) 0.00375 243.8 17.7
307(18) 0.003257 243.8 20.3
276(17) 0.00362 243.9 23.3
293(17) 0.003413 243.9 26.9
298(17) 0.003356 243.9 31.0
308(18) 0.003247 244.0 35.7
310(18) 0.003226 244.0 40.8
296(17) 0.003378 244.1 46.3
313(18) 0.003195 244.1 52.0
332(18) 0.003012 244.1 57.6
332(18) 0.003012 244.2 62.6
344(19) 0.002907 244.2 66.7
311(18) 0.003215 244.3 69.3
337(18) 0.002967 244.3 70.0
323(18) 0.003096 244.3 68.8
337(18) 0.002967 244.4 65.8
325(18) 0.003077 244.4 61.5
316(18) 0.003165 244.5 56.3
307(18) 0.003257 244.5 50.8
338(18) 0.002959 244.5 45.2
301(17) 0.003322 244.6 39.9
290(17) 0.003448 244.6 35.0
269(16) 0.00372 244.7 30.6
300(17) 0.003333 244.7 26.8
270(16) 0.00370 244.7 23.5
280(17) 0.00357 244.8 20.8
255(16) 0.00392 244.8 18.5
289(17) 0.003460 244.9 16.7
248(16) 0.00403 244.9 15.2
255(16) 0.00392 244.9 14.1
278(17) 0.00360 245.0 13.2
278(17) 0.00360 245.0 12.5
259(16) 0.00386 245.1 12.0
266(16) 0.00376 245.1 11.7
268(16) 0.00373 245.1 11.5
278(17) 0.00360 245.2 11.3
269(16) 0.00372 245.2 11.3
255(16) 0.00392 245.2 11.3
270(16) 0.00370 245.3 11.3
281(17) 0.00356 245.3 11.4
237(15) 0.00422 245.4 12.0
228(15) 0.00439 245.4 12.3
259(16) 0.00386 245.4 12.5
271(16) 0.00369 245.5 12.8
258(16) 0.00388 245.5 13.1
290(17) 0.003448 245.6 13.4
250(16) 0.00400 245.6 13.8
255(16) 0.00392 245.6 14.2
256(16) 0.00391 245.7 14.6
271(16) 0.00369 245.7 15.1
236(15) 0.00424 245.8 15.5
234(15) 0.00427 245.8 16.0
246(16) 0.00407 245.8 16.5
256(16) 0.00391 245.9 17.0
265(16) 0.00377 245.9 17.5
263(16) 0.00380 246.0 18.0
259(16) 0.00386 246.0 18.5
260(16) 0.00385 246.0 18.9
284(17) 0.00352 246.1 19.4
257(16) 0.00389 246.1 19.9
282(17) 0.00355 246.2 20.3
266(16) 0.00376 246.2 20.7
273(17) 0.00366 246.2 21.2
270(16) 0.00370 246.3 21.5
263(16) 0.00380 246.3 21.7
279(17) 0.00358 246.4 21.9
268(16) 0.00373 246.4 22.0
268(16) 0.00373 246.4 22.1
276(17) 0.00362 246.5 22.1
278(17) 0.00360 246.5 22.0
262(16) 0.00382 246.6 21.8
286(17) 0.003497 246.6 21.6
275(17) 0.00364 246.6 21.3
273(17) 0.00366 246.7 21.0
269(16) 0.00372 246.7 20.6
254(16) 0.00394 246.8 20.2
279(17) 0.00358 246.8 19.8
264(16) 0.00379 246.8 19.3
284(17) 0.00352 246.9 18.8
297(17) 0.003367 246.9 18.2
278(17) 0.00360 247.0 17.7
299(17) 0.003344 247.0 17.1
260(16) 0.00385 247.0 16.5
269(16) 0.00372 247.1 16.0
222(15) 0.00450 247.1 15.4
257(16) 0.00389 247.2 14.8
265(16) 0.00377 247.2 14.3
260(16) 0.00385 247.2 13.7
273(17) 0.00366 247.3 13.2
256(16) 0.00391 247.3 12.7
252(16) 0.00397 247.4 12.2
276(17) 0.00362 247.4 11.8
218(15) 0.00459 247.4 11.3
274(17) 0.00365 247.5 10.9
270(16) 0.00370 247.5 10.4
250(16) 0.00400 247.6 10.0
264(16) 0.00379 247.6 9.7
258(16) 0.00388 247.6 9.3
257(16) 0.00389 247.7 9.0
275(17) 0.00364 247.7 8.6
261(16) 0.00383 247.8 8.3
299(17) 0.003344 247.8 8.0
261(16) 0.00383 247.8 8.8
241(16) 0.00415 247.9 8.6
273(17) 0.00366 247.9 8.3
262(16) 0.00382 248.0 8.1
275(17) 0.00364 248.0 8.0
255(16) 0.00392 248.0 7.8
251(16) 0.00398 248.1 7.6
263(16) 0.00380 248.1 7.5
251(16) 0.00398 248.2 7.4
263(16) 0.00380 248.2 7.3
259(16) 0.00386 248.2 7.2
285(17) 0.00351 248.3 7.1
254(16) 0.00394 248.3 7.0
272(16) 0.00368 248.4 6.9
280(17) 0.00357 248.4 6.9
251(16) 0.00398 248.4 6.8
251(16) 0.00398 248.5 6.7
258(16) 0.00388 248.5 6.7
252(16) 0.00397 248.6 6.7
251(16) 0.00398 248.6 6.6
245(16) 0.00408 248.6 6.6
253(16) 0.00395 248.7 6.6
240(15) 0.00417 248.8 6.6
260(16) 0.00385 249.0 6.5
261(16) 0.00383 249.1 6.5
261(16) 0.00383 249.2 6.5
242(16) 0.00413 249.4 6.5
257(16) 0.00389 249.5 6.5
276(17) 0.00362 249.7 6.5
261(16) 0.00383 249.8 6.5
258(16) 0.00388 250.0 6.5
271(16) 0.00369 250.1 6.5
269(16) 0.00372 250.2 6.6
258(16) 0.00388 250.4 6.6
287(17) 0.003484 250.5 6.6
277(17) 0.00361 250.7 6.6
250(16) 0.00400 250.8 6.6
256(16) 0.00391 250.9 6.7
287(17) 0.003484 251.1 6.7
252(16) 0.00397 251.2 6.7
288(17) 0.003472 251.4 6.7
243(16) 0.00412 251.5 6.8
252(16) 0.00397 251.7 6.8
272(16) 0.00368 251.8 6.8
270(16) 0.00370 251.9 6.9
298(17) 0.003356 252.1 6.9
269(16) 0.00372 252.2 7.0
248(16) 0.00403 252.4 7.0
256(16) 0.00391 252.5 7.0
251(16) 0.00398 252.6 7.1
248(16) 0.00403 252.8 7.1
265(16) 0.00377 252.9 7.2
292(17) 0.003425 253.1 7.3
266(16) 0.00376 253.2 7.3
245(16) 0.00408 253.3 7.4
291(17) 0.003436 253.5 7.4
276(17) 0.00362 253.6 7.5
246(16) 0.00407 253.8 7.5
268(16) 0.00373 253.9 7.6
275(17) 0.00364 254.1 7.7
257(16) 0.00389 254.2 7.8
279(17) 0.00358 254.3 7.8
287(17) 0.003484 254.5 7.9
276(17) 0.00362 254.6 8.0
253(16) 0.00395 254.8 8.1
273(17) 0.00366 254.9 8.1
269(16) 0.00372 255.0 8.2
287(17) 0.003484 255.2 8.3
275(17) 0.00364 255.3 8.4
268(16) 0.00373 255.5 8.5
291(17) 0.003436 255.6 8.6
249(16) 0.00402 255.8 8.7
265(16) 0.00377 255.9 8.8
263(16) 0.00380 256.0 8.9
265(16) 0.00377 256.2 9.0
291(17) 0.003436 256.3 9.1
253(16) 0.00395 256.5 9.2
271(16) 0.00369 256.6 9.3
265(16) 0.00377 256.7 9.5
269(16) 0.00372 256.9 9.6
250(16) 0.00400 257.0 9.7
279(17) 0.00358 257.2 9.9
249(16) 0.00402 257.3 10.0
282(17) 0.00355 257.5 10.8
285(17) 0.00351 257.6 10.9
277(17) 0.00361 257.7 11.1
281(17) 0.00356 257.9 11.2
262(16) 0.00382 258.0 11.4
292(17) 0.003425 258.2 11.6
278(17) 0.00360 258.3 11.7
271(16) 0.00369 258.4 11.9
264(16) 0.00379 258.6 12.1
298(17) 0.003356 258.7 12.3
306(17) 0.003268 258.9 12.5
286(17) 0.003497 259.0 12.7
279(17) 0.00358 259.1 13.0
297(17) 0.003367 259.3 13.2
257(16) 0.00389 259.4 13.5
277(17) 0.00361 259.6 13.7
291(17) 0.003436 259.7 14.0
293(17) 0.003413 259.9 14.2
290(17) 0.003448 260.0 14.5
278(17) 0.00360 260.1 14.8
291(17) 0.003436 260.3 15.1
281(17) 0.00356 260.4 15.4
305(17) 0.003279 260.6 15.7
284(17) 0.00352 260.7 16.1
265(16) 0.00377 260.8 16.4
276(17) 0.00362 261.0 16.8
285(17) 0.00351 261.1 17.2
288(17) 0.003472 261.3 17.6
298(17) 0.003356 261.4 18.0
286(17) 0.003497 261.6 18.4
276(17) 0.00362 261.7 18.9
278(17) 0.00360 261.8 19.4
282(17) 0.00355 262.0 19.9
292(17) 0.003425 262.1 20.4
308(18) 0.003247 262.3 21.0
258(16) 0.00388 262.4 21.6
307(18) 0.003257 262.5 22.2
272(16) 0.00368 262.7 22.9
274(17) 0.00365 262.8 23.6
281(17) 0.00356 263.0 24.3
278(17) 0.00360 263.1 25.1
299(17) 0.003344 263.3 25.9
307(18) 0.003257 263.4 26.8
278(17) 0.00360 263.5 27.8
306(17) 0.003268 263.7 28.8
290(17) 0.003448 263.8 29.9
256(16) 0.00391 264.0 31.1
277(17) 0.00361 264.1 32.3
297(17) 0.003367 264.2 33.7
298(17) 0.003356 264.4 35.1
286(17) 0.003497 264.5 36.7
300(17) 0.003333 264.7 38.4
266(16) 0.00376 264.8 40.3
283(17) 0.00353 264.9 42.3
294(17) 0.003401 265.1 44.6
306(17) 0.003268 265.2 47.0
306(17) 0.003268 265.4 49.7
335(18) 0.002985 265.5 52.7
316(18) 0.003165 265.7 56.1
334(18) 0.002994 265.8 59.8
330(18) 0.003030 265.9 64.0
316(18) 0.003165 266.1 68.7
322(18) 0.003106 266.2 74.1
376(19) 0.002660 266.4 80.4
361(19) 0.002770 266.5 87.8
371(19) 0.002695 266.6 96.6
376(19) 0.002660 266.8 107.5
389(20) 0.002571 266.9 121.0
437(21) 0.002288 267.1 138.2
424(21) 0.002358 267.2 160.3
488(22) 0.002049 267.4 188.8
492(22) 0.002033 267.5 225.6
546(23) 0.001832 267.6 272.5
637(25) 0.001570 267.8 331.2
692(26) 0.001445 267.9 403.1
796(28) 0.001256 268.1 488.9
903(30) 0.001107 268.2 587.6
1185(34) 0.000844 268.3 696.5
1315(36) 0.000760 268. 810.
1425(38) 0.000702 269. 917.
1503(39) 0.000665 269. 1004.
1618(40) 0.000618 269. 1054.
1516(39) 0.000660 269. 1057.
1386(37) 0.000722 269. 1010.
1213(35) 0.000824 269.3 927.2
1158(34) 0.000864 269.5 823.6
1030(32) 0.000971 269.6 714.2
923(30) 0.001083 269.8 609.4
849(29) 0.001178 269.9 515.1
742(27) 0.001348 270.0 434.6
730(27) 0.001370 270.2 368.6
646(25) 0.001548 270.3 317.2
638(25) 0.001567 270.5 279.3
581(24) 0.001721 270.6 253.9
561(24) 0.001783 270.7 239.7
573(24) 0.001745 270.9 235.7
568(24) 0.001761 271.0 240.7
619(25) 0.001616 271.2 254.0
602(25) 0.001661 271.3 274.6
654(26) 0.001529 271.5 301.0
682(26) 0.001466 271.6 331.0
674(26) 0.001484 271.7 360.7
779(28) 0.001284 271.9 385.0
766(28) 0.001305 272.0 397.9
751(27) 0.001332 272.2 395.3
756(27) 0.001323 272.3 377.7
669(26) 0.001495 272.4 349.7
631(25) 0.001585 272.6 317.2
559(24) 0.001789 272.7 284.6
539(23) 0.001855 272.9 255.1
505(22) 0.001980 273.0 230.0
482(22) 0.002075 273.2 210.0
451(21) 0.002217 273.3 194.9
453(21) 0.002208 273.4 184.4
488(22) 0.002049 273.6 177.8
417(20) 0.002398 273.7 174.5
432(21) 0.002315 273.9 173.9
427(21) 0.002342 274.0 175.6
421(21) 0.002375 274.1 179.2
430(21) 0.002326 274.3 184.3
472(22) 0.002119 274.4 190.9
464(22) 0.002155 274.6 198.9
433(21) 0.002309 274.7 208.3
460(21) 0.002174 274.8 219.2
465(22) 0.002151 275.0 231.8
525(23) 0.001905 275.1 246.5
519(23) 0.001927 275.3 263.5
528(23) 0.001894 275.4 283.5
589(24) 0.001698 275.6 307.6
587(24) 0.001704 275.7 337.0
627(25) 0.001595 275.8 374.3
694(26) 0.001441 276.0 422.7
760(28) 0.001316 276.1 486.9
810(28) 0.001235 276.3 573.6
962(31) 0.001040 276.4 690.6
1038(32) 0.000963 276.5 847.0
1281(36) 0.000781 277. 1051.
1443(38) 0.000693 277. 1310.
1785(42) 0.000560 277. 1626.
2053(45) 0.000487 277. 1991.
2541(50) 0.000394 277. 2386.
2952(54) 0.0003388 277. 2766.
3288(57) 0.0003041 278. 3061.
3265(57) 0.0003063 278. 3193.
3192(56) 0.0003133 278. 3116.
2743(52) 0.000365 278. 2857.
2477(50) 0.000404 278. 2489.
2130(46) 0.000469 278. 2088.
1892(43) 0.000529 278. 1706.
1572(40) 0.000636 279. 1370.
1443(38) 0.000693 279. 1090.
1257(35) 0.000796 279. 866.
1128(34) 0.000887 279.0 693.3
1013(32) 0.000987 279.1 562.3
860(29) 0.001163 279.2 464.7
826(29) 0.001211 279.4 392.1
769(28) 0.001300 279.5 337.6
684(26) 0.001462 279.7 295.8
635(25) 0.001575 279.8 262.9
624(25) 0.001603 279.9 236.4
569(24) 0.001757 280.1 214.5
591(24) 0.001692 280.2 196.0
532(23) 0.001880 280.4 180.2
509(23) 0.001965 280.5 166.6
512(23) 0.001953 280.6 154.7
480(22) 0.002083 280.8 144.4
497(22) 0.002012 280.9 135.3
456(21) 0.002193 281.1 127.4
457(21) 0.002188 281.2 120.3
425(21) 0.002353 281.4 114.1
398(20) 0.002513 281.5 108.6
430(21) 0.002326 281.6 103.8
428(21) 0.002336 281.8 99.5
386(20) 0.002591 281.9 95.8
406(20) 0.002463 282.1 92.5
375(19) 0.002667 282.2 89.6
408(20) 0.002451 282.3 87.2
376(19) 0.002660 282.5 85.1
389(20) 0.002571 282.6 83.3
409(20) 0.002445 282.8 81.8
353(19) 0.002833 282.9 80.6
392(20) 0.002551 283.1 79.8
371(19) 0.002695 283.2 79.2
402(20) 0.002488 283.3 78.8
366(19) 0.002732 283.5 78.8
384(20) 0.002604 283.6 79.0
359(19) 0.002786 283.8 79.5
377(19) 0.002653 283.9 80.3
392(20) 0.002551 284.0 81.4
382(20) 0.002618 284.2 82.9
382(20) 0.002618 284.3 84.7
414(20) 0.002415 284.5 87.0
420(20) 0.002381 284.6 89.8
385(20) 0.002597 284.8 93.2
437(21) 0.002288 284.9 97.3
437(21) 0.002288 285.0 102.3
460(21) 0.002174 285.2 108.3
423(21) 0.002364 285.3 115.5
448(21) 0.002232 285.5 124.3
440(21) 0.002273 285.6 134.9
478(22) 0.002092 285.7 147.6
500(22) 0.002000 285.9 162.8
549(23) 0.001822 286.0 180.9
580(24) 0.001724 286.2 202.4
574(24) 0.001742 286.3 227.6
588(24) 0.001701 286.4 256.8
622(25) 0.001608 286.6 290.5
644(25) 0.001553 286.7 328.6
734(27) 0.001362 286.9 371.5
719(27) 0.001391 287.0 418.9
762(28) 0.001312 287.2 470.5
835(29) 0.001198 287.3 525.8
867(29) 0.001153 287.4 583.5
972(31) 0.001029 287.6 642.6
941(31) 0.001063 287.7 700.7
1087(33) 0.000920 287.9 755.4
1145(34) 0.000873 288.0 803.4
1154(34) 0.000867 288.1 841.4
1174(34) 0.000852 288.3 866.2
1271(36) 0.000787 288. 875.
1265(36) 0.000791 289. 868.
1272(36) 0.000786 289. 844.
1207(35) 0.000829 288.9 807.4
1200(35) 0.000833 289.0 760.0
1063(33) 0.000941 289.1 705.5
983(31) 0.001017 289.3 647.1
912(30) 0.001096 289.4 587.6
817(29) 0.001224 289.6 529.1
725(27) 0.001379 289.7 473.0
628(25) 0.001592 289.8 420.4
567(24) 0.001764 290.0 371.9
611(25) 0.001637 290.1 328.0
532(23) 0.001880 290.3 288.7
489(22) 0.002045 290.4 253.9
512(23) 0.001953 290.6 223.6
424(21) 0.002358 290.7 197.3
408(20) 0.002451 290.8 174.8
448(21) 0.002232 291.0 155.6
416(20) 0.002404 291.1 139.4
416(20) 0.002404 291.3 125.7
387(20) 0.002584 291.4 114.2
385(20) 0.002597 291.5 104.5
383(20) 0.002611 291.7 96.3
354(19) 0.002825 291.8 89.3
315(18) 0.003175 292.0 83.3
350(19) 0.002857 292.1 78.2
333(18) 0.003003 292.2 73.8
338(18) 0.002959 292.4 69.9
318(18) 0.003145 292.5 66.4
309(18) 0.003236 292.7 63.4
328(18) 0.003049 292.8 60.7
351(19) 0.002849 293.0 58.2
342(18) 0.002924 293.1 56.0
332(18) 0.003012 293.2 53.9
310(18) 0.003226 293.4 52.1
325(18) 0.003077 293.5 50.4
341(18) 0.002933 293.7 48.9
320(18) 0.003125 293.8 47.4
302(17) 0.003311 293.9 46.1
322(18) 0.003106 294.1 44.9
321(18) 0.003115 294.2 43.9
330(18) 0.003030 294.3 42.8
279(17) 0.00358 294.3 41.9
296(17) 0.003378 294.3 41.1
308(18) 0.003247 294.3 40.3
277(17) 0.00361 294.3 39.6
308(18) 0.003247 294.3 39.0
300(17) 0.003333 294.3 38.4
340(18) 0.002941 294.3 37.9
303(17) 0.003300 294.3 37.4
307(18) 0.003257 294.3 37.0
336(18) 0.002976 294.3 36.7
309(18) 0.003236 294.3 36.4
314(18) 0.003185 294.3 36.1
297(17) 0.003367 294.3 35.9
311(18) 0.003215 294.3 35.7
290(17) 0.003448 294.3 35.6
309(18) 0.003236 294.3 35.6
314(18) 0.003185 294.3 35.6
305(17) 0.003279 294.3 35.6
311(18) 0.003215 294.3 35.7
298(17) 0.003356 294.3 35.8
292(17) 0.003425 294.3 36.0
307(18) 0.003257 294.3 36.3
322(18) 0.003106 294.3 36.6
314(18) 0.003185 294.3 37.0
315(18) 0.003175 294.3 37.5
310(18) 0.003226 294.3 38.0
310(18) 0.003226 294.3 38.7
329(18) 0.003039 294.3 39.4
321(18) 0.003115 294.3 40.3
320(18) 0.003125 294.3 41.3
308(18) 0.003247 294.3 42.5
313(18) 0.003195 294.3 43.9
308(18) 0.003247 294.3 45.5
351(19) 0.002849 294.3 47.5
331(18) 0.003021 294.3 49.8
351(19) 0.002849 294.3 52.8
315(18) 0.003175 294.3 56.6
320(18) 0.003125 294.3 61.8
382(20) 0.002618 294.3 69.2
347(19) 0.002882 294.3 79.9
340(18) 0.002941 294.3 95.3
353(19) 0.002833 294.3 117.0
398(20) 0.002513 294.3 145.6
399(20) 0.002506 294.3 180.4
451(21) 0.002217 294.3 216.4
496(22) 0.002016 294.3 242.6
504(22) 0.001984 294.3 245.9
510(23) 0.001961 294.3 225.1
439(21) 0.002278 294.3 192.1
407(20) 0.002457 294.3 159.1
395(20) 0.002532 294.3 131.7
365(19) 0.002740 294.3 111.4
399(20) 0.002506 294.3 97.5
377(19) 0.002653 294.3 88.7
354(19) 0.002825 294.3 83.3
331(18) 0.003021 294.3 80.4
371(19) 0.002695 294.3 78.9
365(19) 0.002740 294.3 78.4
364(19) 0.002747 294.3 78.6
368(19) 0.002717 294.3 79.3
350(19) 0.002857 294.3 80.3
375(19) 0.002667 294.3 81.6
374(19) 0.002674 294.3 83.1
378(19) 0.002646 294.3 84.9
374(19) 0.002674 294.3 86.9
378(19) 0.002646 294.3 89.1
415(20) 0.002410 294.3 91.4
372(19) 0.002688 294.3 93.9
404(20) 0.002475 294.3 96.6
364(19) 0.002747 294.3 99.5
368(19) 0.002717 294.3 102.5
433(21) 0.002309 294.3 105.7
404(20) 0.002475 294.3 109.1
415(20) 0.002410 294.3 112.8
404(20) 0.002475 294.3 116.7
427(21) 0.002342 294.3 120.8
432(21) 0.002315 294.3 125.3
417(20) 0.002398 294.3 130.1
430(21) 0.002326 294.3 135.3
457(21) 0.002188 294.3 140.9
476(22) 0.002101 294.3 147.0
445(21) 0.002247 294.3 153.4
454(21) 0.002203 294.3 160.5
473(22) 0.002114 294.3 168.3
464(22) 0.002155 294.3 176.7
469(22) 0.002132 294.3 185.7
471(22) 0.002123 294.3 195.5
491(22) 0.002037 294.3 206.0
494(22) 0.002024 294.3 217.2
530(23) 0.001887 294.3 229.0
521(23) 0.001919 294.3 241.6
560(24) 0.001786 294.3 254.7
568(24) 0.001761 294.3 268.3
597(24) 0.001675 294.3 282.2
654(26) 0.001529 294.3 296.4
666(26) 0.001501 294.3 310.4
686(26) 0.001458 294.3 324.0
699(26) 0.001431 294.3 337.0
711(27) 0.001406 294.3 348.8
716(27) 0.001397 294.3 359.0
706(27) 0.001416 294.3 367.2
749(27) 0.001335 294.3 372.9
731(27) 0.001368 294.3 375.9
719(27) 0.001391 294.3 376.1
690(26) 0.001449 294.3 373.3
697(26) 0.001435 294.3 367.9
676(26) 0.001479 294.3 360.2
694(26) 0.001441 294.3 350.6
663(26) 0.001508 294.3 339.5
652(26) 0.001534 294.3 327.4
620(25) 0.001613 294.3 314.9
614(25) 0.001629 294.3 302.2
614(25) 0.001629 294.3 289.7
570(24) 0.001754 294.3 277.7
539(23) 0.001855 294.3 266.3
508(23) 0.001968 294.3 255.9
557(24) 0.001795 294.3 246.4
548(23) 0.001825 294.3 238.1
478(22) 0.002092 294.3 231.0
510(23) 0.001961 294.3 225.3
522(23) 0.001916 294.3 221.0
514(23) 0.001946 294.3 218.3
543(23) 0.001842 294.3 217.1
505(22) 0.001980 294.3 217.7
499(22) 0.002004 294.3 220.2
519(23) 0.001927 294.3 224.6
511(23) 0.001957 294.3 231.3
506(22) 0.001976 294.3 240.4
550(23) 0.001818 294.3 252.2
565(24) 0.001770 294.3 267.0
552(23) 0.001812 294.3 284.9
606(25) 0.001650 294.3 306.5
607(25) 0.001647 294.3 332.1
634(25) 0.001577 294.3 361.9
672(26) 0.001488 294.3 396.3
625(25) 0.001600 294.3 435.5
690(26) 0.001449 294.3 480.0
759(28) 0.001318 294.3 529.8
765(28) 0.001307 294.3 585.0
866(29) 0.001155 294.3 645.6
941(31) 0.001063 294.3 711.4
1061(33) 0.000943 294.3 782.2
1100(33) 0.000909 294.3 857.2
1220(35) 0.000820 294.3 935.7
1272(36) 0.000786 294. 1017.
1387(37) 0.000721 294. 1098.
1508(39) 0.000663 294. 1179.
1581(40) 0.000633 294. 1256.
1595(40) 0.000627 294. 1326.
1595(40) 0.000627 294. 1387.
1566(40) 0.000639 294. 1436.
1638(40) 0.000611 294. 1470.
1600(40) 0.000625 294. 1487.
1598(40) 0.000626 294. 1487.
1488(39) 0.000672 294. 1471.
1480(38) 0.000676 294. 1439.
1428(38) 0.000700 294. 1395.
1362(37) 0.000734 294. 1342.
1199(35) 0.000834 294.3 1281.5
1169(34) 0.000855 294.3 1216.9
1178(34) 0.000849 294.3 1149.7
1166(34) 0.000858 294.3 1081.1
1124(34) 0.000890 294.3 1012.0
1049(32) 0.000953 294.3 942.6
1022(32) 0.000978 294.3 873.4
955(31) 0.001047 294.3 804.8
945(31) 0.001058 294.3 737.2
908(30) 0.001101 294.3 671.7
888(30) 0.001126 294.3 608.9
831(29) 0.001203 294.3 549.7
745(27) 0.001342 294.3 494.6
726(27) 0.001377 294.3 444.0
697(26) 0.001435 294.3 398.1
657(26) 0.001522 294.3 356.8
642(25) 0.001558 294.3 320.0
629(25) 0.001590 294.3 287.4
569(24) 0.001757 294.3 258.8
544(23) 0.001838 294.3 233.7
550(23) 0.001818 294.3 211.9
493(22) 0.002028 294.3 193.0
512(23) 0.001953 294.3 176.6
479(22) 0.002088 294.3 162.4
489(22) 0.002045 294.3 150.1
489(22) 0.002045 294.3 139.4
492(22) 0.002033 294.3 130.1
435(21) 0.002299 294.3 121.9
459(21) 0.002179 294.3 114.8
444(21) 0.002252 294.3 108.4
445(21) 0.002247 294.3 102.7
418(20) 0.002392 294.3 97.6
423(21) 0.002364 294.3 93.0
404(20) 0.002475 294.3 88.8
399(20) 0.002506 294.3 85.0
362(19) 0.002762 294.3 81.5
398(20) 0.002513 294.3 78.3
390(20) 0.002564 294.3 75.4
399(20) 0.002506 294.3 72.6
382(20) 0.002618 294.3 70.1
376(19) 0.002660 294.3 67.8
395(20) 0.002532 294.3 65.7
385(20) 0.002597 294.3 63.7
388(20) 0.002577 294.3 61.9
364(19) 0.002747 294.3 60.3
356(19) 0.002809 294.3 58.8
359(19) 0.002786 294.3 57.5
352(19) 0.002841 294.3 56.3
379(19) 0.002639 294.3 55.2
337(18) 0.002967 294.3 54.4
316(18) 0.003165 294.3 53.6
350(19) 0.002857 294.3 53.0
328(18) 0.003049 294.3 52.6
317(18) 0.003155 294.3 52.3
331(18) 0.003021 294.3 52.2
320(18) 0.003125 294.3 52.2
341(18) 0.002933 294.3 52.4
320(18) 0.003125 294.3 52.8
362(19) 0.002762 294.3 53.2
346(19) 0.002890 294.3 53.9
349(19) 0.002865 294.3 54.7
331(18) 0.003021 294.3 55.6
319(18) 0.003135 294.3 56.6
321(18) 0.003115 294.3 57.7
334(18) 0.002994 294.3 59.0
320(18) 0.003125 294.3 60.3
346(19) 0.002890 294.3 61.6
354(19) 0.002825 294.3 63.0
356(19) 0.002809 294.3 64.3
325(18) 0.003077 294.3 65.5
292(17) 0.003425 294.3 66.6
329(18) 0.003039 294.3 67.5
320(18) 0.003125 294.3 68.1
305(17) 0.003279 294.3 68.5
303(17) 0.003300 294.3 68.6
307(18) 0.003257 294.3 68.3
337(18) 0.002967 294.3 67.7
323(18) 0.003096 294.3 66.7
331(18) 0.003021 294.3 65.4
315(18) 0.003175 294.3 63.9
292(17) 0.003425 294.3 62.1
315(18) 0.003175 294.3 60.1
337(18) 0.002967 294.3 58.0
321(18) 0.003115 294.3 55.8
304(17) 0.003289 294.3 53.5
300(17) 0.003333 294.3 51.3
306(17) 0.003268 294.3 49.0
299(17) 0.003344 294.3 46.9
324(18) 0.003086 294.3 44.8
330(18) 0.003030 294.3 42.7
289(17) 0.003460 294.3 40.8
315(18) 0.003175 294.3 39.0
332(18) 0.003012 294.3 37.3
305(17) 0.003279 294.3 35.7
311(18) 0.003215 294.3 34.3
336(18) 0.002976 294.3 32.9
333(18) 0.003003 294.3 31.7
275(17) 0.00364 294.3 30.6
337(18) 0.002967 294.3 29.6
310(18) 0.003226 294.3 28.7
322(18) 0.003106 294.3 27.8
295(17) 0.003390 294.3 27.1
306(17) 0.003268 294.3 26.5
321(18) 0.003115 294.3 25.9
308(18) 0.003247 294.3 25.4
293(17) 0.003413 294.3 25.0
293(17) 0.003413 294.3 24.6
329(18) 0.003039 294.3 24.3
288(17) 0.003472 294.3 24.1
308(18) 0.003247 294.3 23.8
296(17) 0.003378 294.3 23.7
292(17) 0.003425 294.4 23.6
306(17) 0.003268 294.4 23.5
301(17) 0.003322 294.5 23.5
299(17) 0.003344 294.5 23.5
286(17) 0.003497 294.6 23.5
323(18) 0.003096 294.6 23.6
296(17) 0.003378 294.6 23.7
309(18) 0.003236 294.7 23.9
293(17) 0.003413 294.7 24.1
308(18) 0.003247 294.8 24.4
325(18) 0.003077 294.8 24.7
315(18) 0.003175 294.9 25.1
345(19) 0.002899 294.9 25.6
286(17) 0.003497 295.0 26.1
310(18) 0.003226 295.0 26.7
330(18) 0.003030 295.1 27.4
334(18) 0.002994 295.1 28.1
342(18) 0.002924 295.2 29.0
309(18) 0.003236 295.2 30.0
341(18) 0.002933 295.3 31.1
338(18) 0.002959 295.3 32.4
313(18) 0.003195 295.3 33.7
313(18) 0.003195 295.4 35.3
330(18) 0.003030 295.4 37.0
336(18) 0.002976 295.5 38.8
334(18) 0.002994 295.5 40.9
369(19) 0.002710 295.6 43.1
366(19) 0.002732 295.6 45.6
342(18) 0.002924 295.7 48.2
354(19) 0.002825 295.7 51.1
334(18) 0.002994 295.8 54.2
340(18) 0.002941 295.8 57.5
330(18) 0.003030 295.9 61.0
336(18) 0.002976 295.9 64.8
329(18) 0.003039 295.9 68.8
327(18) 0.003058 296.0 73.0
368(19) 0.002717 296.0 77.4
355(19) 0.002817 296.1 82.0
343(19) 0.002915 296.1 86.8
367(19) 0.002725 296.2 91.7
341(18) 0.002933 296.2 96.7
390(20) 0.002564 296.3 101.8
374(19) 0.002674 296.3 106.9
368(19) 0.002717 296.4 112.0
378(19) 0.002646 296.4 117.0
401(20) 0.002494 296.5 121.8
374(19) 0.002674 296.5 126.4
403(20) 0.002481 296.6 130.7
400(20) 0.002500 296.6 134.6
407(20) 0.002457 296.6 138.0
363(19) 0.002755 296.7 140.8
393(20) 0.002545 296.7 142.9
409(20) 0.002445 296.8 144.4
402(20) 0.002488 296.8 145.0
397(20) 0.002519 296.9 145.0
446(21) 0.002242 296.9 144.1
425(21) 0.002353 297.0 142.5
417(20) 0.002398 297.0 140.2
408(20) 0.002451 297.1 137.3
386(20) 0.002591 297.1 133.9
395(20) 0.002532 297.2 130.0
410(20) 0.002439 297.2 125.7
397(20) 0.002519 297.2 121.1
381(20) 0.002625 297.3 116.4
355(19) 0.002817 297.3 111.5
388(20) 0.002577 297.4 106.6
319(18) 0.003135 297.4 101.7
382(20) 0.002618 297.5 96.8
353(19) 0.002833 297.5 92.1
372(19) 0.002688 297.6 87.5
315(18) 0.003175 297.6 83.0
330(18) 0.003030 297.7 78.7
356(19) 0.002809 297.7 74.7
339(18) 0.002950 297.8 70.8
324(18) 0.003086 297.8 67.2
348(19) 0.002874 297.8 63.9
340(18) 0.002941 297.9 60.7
342(18) 0.002924 297.9 57.8
311(18) 0.003215 298.0 55.2
334(18) 0.002994 298.0 52.8
316(18) 0.003165 298.1 50.6
327(18) 0.003058 298.1 48.6
301(17) 0.003322 298.2 46.9
360(19) 0.002778 298.2 45.3
340(18) 0.002941 298.3 44.0
330(18) 0.003030 298.3 42.8
362(19) 0.002762 298.4 41.8
338(18) 0.002959 298.4 41.0
320(18) 0.003125 298.5 40.3
339(18) 0.002950 298.5 39.8
339(18) 0.002950 298.5 39.4
348(19) 0.002874 298.6 39.1
368(19) 0.002717 298.6 38.9
320(18) 0.003125 298.7 38.7
345(19) 0.002899 298.7 38.7
369(19) 0.002710 298.8 38.8
333(18) 0.003003 298.8 38.9
314(18) 0.003185 298.9 39.1
327(18) 0.003058 298.9 39.3
328(18) 0.003049 299.0 39.5
341(18) 0.002933 299.0 39.8
334(18) 0.002994 299.1 40.1
313(18) 0.003195 299.1 40.5
321(18) 0.003115 299.1 40.8
335(18) 0.002985 299.2 41.1
344(19) 0.002907 299.2 41.5
331(18) 0.003021 299.3 41.8
333(18) 0.003003 299.3 42.1
365(19) 0.002740 299.4 42.4
356(19) 0.002809 299.4 42.6
372(19) 0.002688 299.5 42.8
329(18) 0.003039 299.5 43.0
333(18) 0.003003 299.6 43.1
328(18) 0.003049 299.6 43.2
349(19) 0.002865 299.7 43.2
357(19) 0.002801 299.7 43.2
353(19) 0.002833 299.8 43.1
355(19) 0.002817 299.8 42.9
358(19) 0.002793 299.8 42.7
347(19) 0.002882 299.9 42.4
343(19) 0.002915 299.9 42.1
348(19) 0.002874 300.0 41.7
327(18) 0.003058 300.0 41.2
372(19) 0.002688 300.1 40.7
326(18) 0.003067 300.1 40.1
341(18) 0.002933 300.2 39.5
319(18) 0.003135 300.2 38.9
343(19) 0.002915 300.3 38.2
306(17) 0.003268 300.3 37.5
345(19) 0.002899 300.4 36.7
352(19) 0.002841 300.4 35.9
336(18) 0.002976 300.4 35.1
335(18) 0.002985 300.5 34.3
319(18) 0.003135 300.5 33.5
336(18) 0.002976 300.6 32.7
303(17) 0.003300 300.6 31.8
338(18) 0.002959 300.7 31.0
352(19) 0.002841 300.7 30.2
325(18) 0.003077 300.8 29.3
303(17) 0.003300 300.8 28.5
337(18) 0.002967 300.9 27.7
358(19) 0.002793 300.9 26.9
315(18) 0.003175 301.0 26.1
335(18) 0.002985 301.0 25.3
351(19) 0.002849 301.1 24.5
342(18) 0.002924 301.1 23.8
344(19) 0.002907 301.1 23.1
332(18) 0.003012 301.2 22.3
324(18) 0.003086 301.2 21.7
324(18) 0.003086 301.3 21.0
303(17) 0.003300 301.3 20.3
317(18) 0.003155 301.4 19.7
328(18) 0.003049 301.4 19.1
340(18) 0.002941 301.5 18.5
308(18) 0.003247 301.5 17.9
333(18) 0.003003 301.6 17.4
339(18) 0.002950 301.6 16.9
317(18) 0.003155 301.7 16.4
304(17) 0.003289 301.7 15.9
330(18) 0.003030 301.7 15.4
331(18) 0.003021 301.8 15.0
301(17) 0.003322 301.8 14.6
316(18) 0.003165 301.9 14.2
322(18) 0.003106 301.9 13.8
351(19) 0.002849 302.0 13.4
289(17) 0.003460 302.0 13.1
308(18) 0.003247 302.1 12.8
305(17) 0.003279 302.1 12.5
304(17) 0.003289 302.2 12.2
328(18) 0.003049 302.2 11.9
314(18) 0.003185 302.3 11.7
307(18) 0.003257 302.3 11.4
339(18) 0.002950 302.4 11.2
335(18) 0.002985 302.4 11.0
311(18) 0.003215 302.4 10.8
304(17) 0.003289 302.5 10.6
291(17) 0.003436 302.5 10.4
309(18) 0.003236 302.6 10.3
335(18) 0.002985 302.6 10.1
319(18) 0.003135 302.7 10.0
320(18) 0.003125 302.7 9.9
302(17) 0.003311 302.8 9.7
333(18) 0.003003 302.8 9.6
322(18) 0.003106 302.9 9.5
318(18) 0.003145 302.9 9.4
340(18) 0.002941 303.0 9.4
293(17) 0.003413 303.0 9.3
307(18) 0.003257 303.0 9.2
316(18) 0.003165 303.1 9.2
321(18) 0.003115 303.1 9.1
339(18) 0.002950 303.2 9.1
314(18) 0.003185 303.2 9.1
312(18) 0.003205 303.3 9.1
277(17) 0.00361 303.3 9.0
342(18) 0.002924 303.4 9.0
306(17) 0.003268 303.4 9.0
323(18) 0.003096 303.5 9.1
308(18) 0.003247 303.5 9.1
310(18) 0.003226 303.5 9.1
279(17) 0.00358 303.5 9.2
321(18) 0.003115 303.6 9.3
297(17) 0.003367 303.6 9.3
325(18) 0.003077 303.6 9.4
327(18) 0.003058 303.7 9.5
301(17) 0.003322 303.7 9.6
280(17) 0.00357 303.7 9.7
334(18) 0.002994 303.7 9.8
317(18) 0.003155 303.8 10.0
324(18) 0.003086 303.8 10.1
328(18) 0.003049 303.8 10.3
326(18) 0.003067 303.8 10.5
301(17) 0.003322 303.9 10.8
343(19) 0.002915 303.9 11.0
305(17) 0.003279 303.9 11.3
330(18) 0.003030 304.0 11.7
336(18) 0.002976 304.0 12.1
324(18) 0.003086 304.0 12.5
316(18) 0.003165 304.0 13.0
310(18) 0.003226 304.1 13.6
340(18) 0.002941 304.1 14.3
315(18) 0.003175 304.1 15.2
334(18) 0.002994 304.2 16.2
303(17) 0.003300 304.2 17.5
351(19) 0.002849 304.2 19.1
317(18) 0.003155 304.2 21.2
305(17) 0.003279 304.3 23.9
344(19) 0.002907 304.3 27.3
326(18) 0.003067 304.3 31.6
342(18) 0.002924 304.4 37.0
368(19) 0.002717 304.4 43.6
341(18) 0.002933 304.4 51.5
361(19) 0.002770 304.4 60.6
382(20) 0.002618 304.5 70.6
357(19) 0.002801 304.5 81.2
372(19) 0.002688 304.5 91.6
382(20) 0.002618 304.6 100.4
388(20) 0.002577 304.6 106.2
379(19) 0.002639 304.6 107.9
365(19) 0.002740 304.6 105.0
366(19) 0.002732 304.7 98.3
355(19) 0.002817 304.7 89.2
372(19) 0.002688 304.7 79.0
352(19) 0.002841 304.8 68.9
351(19) 0.002849 304.8 59.6
339(18) 0.002950 304.8 51.3
336(18) 0.002976 304.8 44.3
348(19) 0.002874 304.9 38.5
346(19) 0.002890 304.9 33.9
360(19) 0.002778 304.9 30.3
353(19) 0.002833 305.0 27.6
348(19) 0.002874 305.0 25.5
357(19) 0.002801 305.0 24.0
314(18) 0.003185 305.0 22.9
349(19) 0.0 0.0 .
323(18) 0.0 0.0 .
327(18) 0.0 0.0 .
352(19) 0.0 0.0 .
347(19) 0.0 0.0 .
327(18) 0.0 0.0 .
343(19) 0.0 0.0 .
334(18) 0.0 0.0 .
349(19) 0.0 0.0 .
357(19) 0.0 0.0 .
319(18) 0.0 0.0 .
334(18) 0.0 0.0 .
364(19) 0.0 0.0 .
346(19) 0.0 0.0 .
366(19) 0.0 0.0 .
353(19) 0.0 0.0 .
377(19) 0.0 0.0 .
355(19) 0.0 0.0 .
362(19) 0.0 0.0 .
373(19) 0.0 0.0 .
375(19) 0.0 0.0 .
366(19) 0.0 0.0 .
363(19) 0.0 0.0 .
389(20) 0.0 0.0 .
356(19) 0.0 0.0 .
395(20) 0.0 0.0 .
384(20) 0.0 0.0 .
370(19) 0.0 0.0 .
331(18) 0.0 0.0 .
358(19) 0.0 0.0 .
384(20) 0.0 0.0 .
357(19) 0.0 0.0 .
396(20) 0.0 0.0 .
382(20) 0.0 0.0 .
429(21) 0.0 0.0 .
389(20) 0.0 0.0 .
383(20) 0.0 0.0 .
366(19) 0.0 0.0 .
372(19) 0.0 0.0 .
372(19) 0.0 0.0 .
361(19) 0.0 0.0 .
367(19) 0.0 0.0 .
414(20) 0.0 0.0 .
407(20) 0.0 0.0 .
438(21) 0.0 0.0 .
383(20) 0.0 0.0 .
413(20) 0.0 0.0 .
431(21) 0.0 0.0 .
425(21) 0.0 0.0 .
429(21) 0.0 0.0 .
430(21) 0.0 0.0 .
411(20) 0.0 0.0 .
462(21) 0.0 0.0 .
447(21) 0.0 0.0 .
468(22) 0.0 0.0 .
465(22) 0.0 0.0 .
462(21) 0.0 0.0 .
458(21) 0.0 0.0 .
483(22) 0.0 0.0 .
469(22) 0.0 0.0 .
509(23) 0.0 0.0 .
508(23) 0.0 0.0 .
512(23) 0.0 0.0 .
574(24) 0.0 0.0 .
509(23) 0.0 0.0 .
547(23) 0.0 0.0 .
544(23) 0.0 0.0 .
583(24) 0.0 0.0 .
604(25) 0.0 0.0 .
607(25) 0.0 0.0 .
653(26) 0.0 0.0 .
621(25) 0.0 0.0 .
659(26) 0.0 0.0 .
689(26) 0.0 0.0 .
704(27) 0.0 0.0 .
791(28) 0.0 0.0 .
822(29) 0.0 0.0 .
825(29) 0.0 0.0 .
897(30) 0.0 0.0 .
978(31) 0.0 0.0 .
1079(33) 0.0 0.0 .
1181(34) 0.0 0.0 .
1260(35) 0.0 0. .
1409(38) 0.0 0. .
1626(40) 0.0 0. .
1876(43) 0.0 0. .
2087(46) 0.0 0. .
2482(50) 0.0 0. .
3041(55) 0.0 0. .
3566(60) 0.0 0. .
4754(69) 0.0 0. .
6025(78) 0.0 0. .
8213(91) 0.0 0. .
11510(110) 0.0 0. .
17050(130) 0.0 0. .
26960(160) 0.0 0. .
45190(210) 0.0 0. .
76770(280) 0.0 0. .
116140(340) 0.0 0. .
135000(370) 0.0 0. .
108690(330) 0.0 0. .
67110(260) 0.0 0. .
38020(200) 0.0 0. .
23190(150) 0.0 0. .
14670(120) 0.0 0. .
10280(100) 0.0 0. .
7427(86) 0.0 0. .
5599(75) 0.0 0. .
4310(66) 0.0 0. .
3394(58) 0.0 0. .
2830(53) 0.0 0. .
2350(48) 0.0 0. .
2074(46) 0.0 0. .
1812(43) 0.0 0. .
1606(40) 0.0 0. .
1481(38) 0.0 0. .
1304(36) 0.0 0. .
1206(35) 0.0 0.0 .
1137(34) 0.0 0.0 .
1066(33) 0.0 0.0 .
1042(32) 0.0 0.0 .
960(31) 0.0 0.0 .
904(30) 0.0 0.0 .
838(29) 0.0 0.0 .
823(29) 0.0 0.0 .
808(28) 0.0 0.0 .
745(27) 0.0 0.0 .
715(27) 0.0 0.0 .
645(25) 0.0 0.0 .
677(26) 0.0 0.0 .
672(26) 0.0 0.0 .
601(25) 0.0 0.0 .
614(25) 0.0 0.0 .
602(25) 0.0 0.0 .
607(25) 0.0 0.0 .
631(25) 0.0 0.0 .
599(24) 0.0 0.0 .
556(24) 0.0 0.0 .
521(23) 0.0 0.0 .
503(22) 0.0 0.0 .
484(22) 0.0 0.0 .
492(22) 0.0 0.0 .
501(22) 0.0 0.0 .
505(22) 0.0 0.0 .
492(22) 0.0 0.0 .
484(22) 0.0 0.0 .
499(22) 0.0 0.0 .
470(22) 0.0 0.0 .
470(22) 0.0 0.0 .
446(21) 0.0 0.0 .
472(22) 0.0 0.0 .
458(21) 0.0 0.0 .
437(21) 0.0 0.0 .
447(21) 0.0 0.0 .
418(20) 0.0 0.0 .
435(21) 0.0 0.0 .
413(20) 0.0 0.0 .
434(21) 0.0 0.0 .
411(20) 0.0 0.0 .
424(21) 0.0 0.0 .
418(20) 0.0 0.0 .
410(20) 0.0 0.0 .
449(21) 0.0 0.0 .
416(20) 0.0 0.0 .
421(21) 0.0 0.0 .
346(19) 0.0 0.0 .
397(20) 0.0 0.0 .
373(19) 0.0 0.0 .
393(20) 0.0 0.0 .
383(20) 0.0 0.0 .
385(20) 0.0 0.0 .
406(20) 0.0 0.0 .
388(20) 0.0 0.0 .
333(18) 0.0 0.0 .
364(19) 0.0 0.0 .
372(19) 0.0 0.0 .
407(20) 0.0 0.0 .
377(19) 0.0 0.0 .
358(19) 0.0 0.0 .
398(20) 0.0 0.0 .
362(19) 0.0 0.0 .
369(19) 0.002710 310.2 17.1
392(20) 0.002551 310.2 16.7
370(19) 0.002703 310.3 16.2
367(19) 0.002725 310.3 15.8
379(19) 0.002639 310.3 15.4
355(19) 0.002817 310.4 15.0
364(19) 0.002747 310.4 14.6
370(19) 0.002703 310.4 14.3
388(20) 0.002577 310.4 14.0
423(21) 0.002364 310.5 13.7
360(19) 0.002778 310.5 13.5
376(19) 0.002660 310.5 13.3
397(20) 0.002519 310.6 13.1
407(20) 0.002457 310.6 13.0
405(20) 0.002469 310.6 12.8
411(20) 0.002433 310.6 12.8
388(20) 0.002577 310.7 12.7
375(19) 0.002667 310.7 12.7
391(20) 0.002558 310.7 12.7
373(19) 0.002681 310.8 12.8
354(19) 0.002825 310.8 12.9
371(19) 0.002695 310.8 13.0
341(18) 0.002933 310.8 13.1
345(19) 0.002899 310.9 13.2
374(19) 0.002674 310.9 13.4
353(19) 0.002833 310.9 13.5
352(19) 0.002841 311.0 13.7
350(19) 0.002857 311.0 13.8
357(19) 0.002801 311.0 13.9
391(20) 0.002558 311.0 13.9
342(18) 0.002924 311.1 13.8
378(19) 0.002646 311.1 13.7
376(19) 0.002660 311.1 13.6
372(19) 0.002688 311.2 13.4
349(19) 0.002865 311.2 13.1
356(19) 0.002809 311.2 12.8
311(18) 0.003215 311.2 12.4
309(18) 0.003236 311.3 12.1
335(18) 0.002985 311.3 11.7
331(18) 0.003021 311.3 11.3
323(18) 0.003096 311.4 11.0
373(19) 0.002681 311.4 10.6
317(18) 0.003155 311.4 10.3
357(19) 0.002801 311.4 10.0
321(18) 0.003115 311.5 9.7
334(18) 0.002994 311.5 9.5
354(19) 0.002825 311.5 9.2
342(18) 0.002924 311.6 9.0
361(19) 0.002770 311.6 8.8
311(18) 0.003215 311.6 8.6
327(18) 0.003058 311.6 8.5
331(18) 0.003021 311.7 8.3
322(18) 0.003106 311.7 8.7
327(18) 0.003058 311.7 8.6
350(19) 0.002857 311.8 8.5
333(18) 0.003003 311.8 8.4
365(19) 0.002740 311.8 8.3
350(19) 0.002857 311.8 8.2
361(19) 0.002770 311.9 8.2
342(18) 0.002924 311.9 8.1
332(18) 0.003012 311.9 8.1
368(19) 0.002717 312.0 8.1
336(18) 0.002976 312.0 8.0
320(18) 0.003125 312.0 8.0
330(18) 0.003030 312.0 8.0
312(18) 0.003205 312.1 8.0
327(18) 0.003058 312.1 8.0
356(19) 0.002809 312.1 8.0
330(18) 0.003030 312.2 8.0
349(19) 0.002865 312.2 8.0
319(18) 0.003135 312.2 8.0
329(18) 0.003039 312.2 7.9
346(19) 0.002890 312.3 7.9
315(18) 0.003175 312.3 8.0
352(19) 0.002841 312.3 8.0
325(18) 0.003077 312.4 8.0
330(18) 0.003030 312.4 8.0
328(18) 0.003049 312.4 8.0
312(18) 0.003205 312.4 8.0
339(18) 0.002950 312.5 8.0
332(18) 0.003012 312.5 8.0
346(19) 0.002890 312.5 8.0
340(18) 0.002941 312.5 8.1
370(19) 0.002703 312.8 8.1
308(18) 0.003247 313.1 8.1
331(18) 0.003021 313.4 8.1
299(17) 0.003344 313.6 8.1
305(17) 0.003279 313.9 8.2
297(17) 0.003367 314.2 8.2
314(18) 0.003185 314.4 8.2
312(18) 0.003205 314.7 8.3
299(17) 0.003344 315.0 8.3
357(19) 0.002801 315.2 8.3
303(17) 0.003300 315.5 8.4
301(17) 0.003322 315.8 8.4
335(18) 0.002985 316.0 8.5
346(19) 0.002890 316.3 8.5
309(18) 0.003236 316.6 8.7
308(18) 0.003247 316.8 8.8
333(18) 0.003003 317.1 8.8
368(19) 0.002717 317.4 8.9
328(18) 0.003049 317.6 8.9
346(19) 0.002890 317.9 9.0
330(18) 0.003030 318.2 9.0
317(18) 0.003155 318.4 9.1
332(18) 0.003012 318.7 9.1
315(18) 0.003175 319.0 9.2
334(18) 0.002994 319.2 9.3
292(17) 0.003425 319.5 9.4
342(18) 0.002924 319.8 9.4
369(19) 0.002710 320.0 9.5
321(18) 0.003115 320.3 9.6
328(18) 0.003049 320.6 9.7
334(18) 0.002994 320.8 9.8
335(18) 0.002985 321.1 10.0
337(18) 0.002967 321.4 10.1
323(18) 0.003096 321.7 10.2
332(18) 0.003012 321.9 10.3
345(19) 0.002899 322.2 10.4
353(19) 0.002833 322.5 10.5
339(18) 0.002950 322.7 10.6
351(19) 0.002849 323.0 10.8
324(18) 0.003086 323.3 10.9
310(18) 0.003226 323.5 11.0
322(18) 0.003106 323.8 11.2
321(18) 0.003115 324.1 11.3
327(18) 0.003058 324.3 11.5
314(18) 0.003185 324.6 11.6
327(18) 0.003058 324.9 11.8
356(19) 0.002809 325.1 11.9
358(19) 0.002793 325.4 12.1
337(18) 0.002967 325.7 12.3
327(18) 0.003058 325.9 12.5
359(19) 0.002786 326.2 12.6
330(18) 0.003030 326.5 12.8
386(20) 0.002591 326.7 13.0
410(20) 0.002439 327.0 13.2
349(19) 0.002865 327.3 13.4
392(20) 0.002551 327.5 13.6
362(19) 0.002762 327.8 13.8
324(18) 0.003086 328.1 13.9
337(18) 0.002967 328.3 14.1
364(19) 0.002747 328.6 14.3
351(19) 0.002849 328.9 14.5
351(19) 0.002849 329.1 14.6
337(18) 0.002967 329.4 14.8
344(19) 0.002907 329.7 15.0
351(19) 0.002849 329.9 15.1
371(19) 0.002695 330.2 15.3
346(19) 0.002890 330.5 15.5
349(19) 0.002865 330.8 15.6
340(18) 0.002941 331.0 15.8
349(19) 0.002865 331.3 16.0
340(18) 0.002941 331.6 16.2
320(18) 0.003125 331.8 16.4
345(19) 0.002899 332.1 16.6
376(19) 0.002660 332.4 16.8
352(19) 0.002841 332.6 17.0
330(18) 0.003030 332.9 17.2
347(19) 0.002882 333.2 17.5
354(19) 0.002825 333.4 17.7
363(19) 0.002755 333.7 18.0
332(18) 0.003012 334.0 18.3
370(19) 0.002703 334.2 18.6
336(18) 0.002976 334.5 18.9
364(19) 0.002747 334.8 19.2
356(19) 0.002809 335.0 19.6
333(18) 0.003003 335.3 20.0
326(18) 0.003067 335.6 20.3
337(18) 0.002967 335.8 20.7
332(18) 0.003012 336.1 21.2
332(18) 0.003012 336.4 21.6
354(19) 0.002825 336.6 22.1
366(19) 0.002732 336.9 22.5
358(19) 0.002793 337.2 23.0
322(18) 0.003106 337.4 23.6
340(18) 0.002941 337.7 24.1
375(19) 0.002667 338.0 24.7
333(18) 0.003003 338.2 25.3
325(18) 0.003077 338.5 25.9
346(19) 0.002890 338.8 26.5
344(19) 0.002907 339.1 27.2
352(19) 0.002841 339.3 27.9
326(18) 0.003067 339.6 28.6
367(19) 0.002725 339.9 29.4
370(19) 0.002703 340.1 30.2
336(18) 0.002976 340.4 31.0
330(18) 0.003030 340.7 31.9
346(19) 0.002890 340.9 32.7
377(19) 0.002653 341.2 33.7
329(18) 0.003039 341.5 34.6
374(19) 0.002674 341.7 35.6
342(18) 0.002924 342.0 36.7
346(19) 0.002890 342.3 37.8
348(19) 0.002874 342.5 38.9
385(20) 0.002597 342.8 40.1
364(19) 0.002747 343.1 41.3
392(20) 0.002551 343.3 42.5
348(19) 0.002874 343.6 43.9
368(19) 0.002717 343.9 45.2
342(18) 0.002924 344.1 46.7
351(19) 0.002849 344.4 48.2
347(19) 0.002882 344.7 49.7
363(19) 0.002755 344.9 51.3
360(19) 0.002778 345.2 53.0
382(20) 0.002618 345.5 54.8
381(20) 0.002625 345.7 56.6
407(20) 0.002457 346.0 58.5
379(19) 0.002639 346.3 60.5
370(19) 0.002703 346.5 62.6
388(20) 0.002577 346.8 64.8
405(20) 0.002469 347.1 67.1
399(20) 0.002506 347.3 69.5
389(20) 0.002571 347.6 72.0
407(20) 0.002457 347.9 74.7
439(21) 0.002278 348.2 77.5
403(20) 0.002481 348.4 80.4
409(20) 0.002445 348.7 83.5
419(20) 0.002387 349.0 86.8
442(21) 0.002262 349.2 90.2
453(21) 0.002208 349.5 93.9
435(21) 0.002299 349.8 97.8
455(21) 0.002198 350.0 101.9
451(21) 0.002217 350.3 106.3
420(20) 0.002381 350.6 111.1
485(22) 0.002062 350.8 116.2
483(22) 0.002070 351.1 121.6
476(22) 0.002101 351.4 127.5
483(22) 0.002070 351.6 133.9
523(23) 0.001912 351.9 140.9
488(22) 0.002049 352.2 148.5
514(23) 0.001946 352.4 156.9
540(23) 0.001852 352.7 166.1
569(24) 0.001757 353.0 176.5
565(24) 0.001770 353.2 188.2
589(24) 0.001698 353.5 201.7
580(24) 0.001724 353.8 217.3
621(25) 0.001610 354.0 235.6
662(26) 0.001511 354.3 257.5
639(25) 0.001565 354.6 284.1
686(26) 0.001458 354.8 316.4
726(27) 0.001377 355.1 356.3
817(29) 0.001224 355.4 405.2
844(29) 0.001185 355.6 465.3
943(31) 0.001060 355.9 538.5
1015(32) 0.000985 356.2 626.8
1036(32) 0.000965 356.4 732.0
1208(35) 0.000828 356.7 855.2
1332(36) 0.000751 357. 997.
1580(40) 0.000633 357. 1157.
1711(41) 0.000584 358. 1332.
2008(45) 0.000498 358. 1517.
2227(47) 0.000449 358. 1705.
2371(49) 0.000422 358. 1883.
2383(49) 0.000420 359. 2038.
2437(49) 0.000410 359. 2157.
2554(51) 0.000392 359. 2230.
2558(51) 0.000391 359. 2256.
2441(49) 0.000410 360. 2244.
2435(49) 0.000411 360. 2202.
2393(49) 0.000418 360. 2142.
2434(49) 0.000411 360. 2066.
2364(49) 0.000423 361. 1977.
2352(48) 0.000425 361. 1875.
2327(48) 0.000430 361. 1757.
2265(48) 0.000442 362. 1625.
2046(45) 0.000489 362. 1484.
1936(44) 0.000517 362. 1339.
1732(42) 0.000577 362. 1196.
1550(39) 0.000645 363. 1059.
1364(37) 0.000733 363. 931.
1167(34) 0.000857 363.1 815.0
1081(33) 0.000925 363.4 711.0
975(31) 0.001026 363.7 619.2
877(30) 0.001140 363.9 539.0
841(29) 0.001189 364.2 469.8
801(28) 0.001248 364.5 410.6
753(27) 0.001328 364.7 360.3
678(26) 0.001475 365.0 318.0
672(26) 0.001488 365.3 282.4
626(25) 0.001597 365.6 252.7
612(25) 0.001634 365.8 227.7
645(25) 0.001550 366.1 206.8
590(24) 0.001695 366.4 189.1
565(24) 0.001770 366.6 174.1
507(23) 0.001972 366.9 161.2
527(23) 0.001898 367.2 150.0
499(22) 0.002004 367.4 140.2
473(22) 0.002114 367.7 131.6
499(22) 0.002004 368.0 123.9
503(22) 0.001988 368.2 116.9
454(21) 0.002203 368.5 110.7
465(22) 0.002151 368.8 105.1
462(21) 0.002164 369.0 99.9
423(21) 0.002364 369.3 95.2
442(21) 0.002262 369.6 90.8
450(21) 0.002222 369.8 86.8
421(21) 0.002375 370.1 83.2
425(21) 0.002353 370.4 79.8
401(20) 0.002494 370.6 76.6
393(20) 0.002545 370.9 73.8
397(20) 0.002519 371.2 71.2
426(21) 0.002347 371.4 68.7
432(21) 0.002315 371.7 66.5
388(20) 0.002577 372.0 64.4
403(20) 0.002481 372.2 62.5
397(20) 0.002519 372.5 60.7
387(20) 0.002584 372.8 59.2
385(20) 0.002597 373.0 58.2
416(20) 0.002404 373.3 56.9
347(19) 0.002882 373.4 55.7
431(21) 0.002320 373.3 54.7
386(20) 0.002591 373.3 53.8
406(20) 0.002463 373.2 53.1
383(20) 0.002611 373.2 52.5
390(20) 0.002564 373.2 52.1
391(20) 0.002558 373.1 51.8
366(19) 0.002732 373.1 51.7
370(19) 0.002703 373.1 51.8
395(20) 0.002532 373.0 52.0
428(21) 0.002336 373.0 52.6
415(20) 0.002410 373.0 53.4
394(20) 0.002538 372.9 54.5
413(20) 0.002421 372.9 55.9
385(20) 0.002597 372.8 57.9
400(20) 0.002500 372.8 60.6
429(21) 0.002331 372.8 63.9
417(20) 0.002398 372.7 68.1
414(20) 0.002415 372.7 73.9
448(21) 0.002232 372.7 81.7
491(22) 0.002037 372.6 92.8
508(23) 0.001968 372.6 108.4
547(23) 0.001828 372.6 130.3
583(24) 0.001715 372.5 160.5
602(25) 0.001661 372.5 200.7
676(26) 0.001479 372.4 252.1
763(28) 0.001311 372.4 314.1
803(28) 0.001245 372.4 383.2
839(29) 0.001192 372.3 450.9
900(30) 0.001111 372.3 502.3
897(30) 0.001115 372.3 519.9
886(30) 0.001129 372.2 496.6
827(29) 0.001209 372.2 441.5
765(28) 0.001307 372.2 372.3
715(27) 0.001399 372.1 303.0
681(26) 0.001468 372.1 241.6
593(24) 0.001686 372.0 191.0
602(25) 0.001661 372.0 151.4
562(24) 0.001779 372.0 121.6
541(23) 0.001848 371.9 99.9
556(24) 0.001799 371.9 84.2
586(24) 0.001706 371.9 72.9
603(25) 0.001658 371.8 64.6
569(24) 0.001757 371.8 58.3
566(24) 0.001767 371.8 53.4
582(24) 0.001718 371.7 49.4
565(24) 0.001770 371.7 46.1
523(23) 0.001912 371.6 43.4
524(23) 0.001908 371.6 41.1
531(23) 0.001883 371.6 39.1
519(23) 0.001927 371.5 37.3
458(21) 0.002183 371.5 35.8
449(21) 0.002227 371.5 34.5
445(21) 0.002247 371.4 33.3
444(21) 0.002252 371.4 32.3
412(20) 0.002427 371.4 31.4
409(20) 0.002445 371.3 30.6
405(20) 0.002469 371.3 29.9
386(20) 0.002591 371.2 29.2
401(20) 0.002494 371.2 28.7
391(20) 0.002558 371.2 28.2
386(20) 0.002591 371.1 27.7
372(19) 0.002688 371.1 27.3
383(20) 0.002611 371.1 27.0
400(20) 0.002500 371.0 26.7
369(19) 0.002710 371.0 26.4
403(20) 0.002481 371.0 26.2
385(20) 0.002597 370.9 26.0
371(19) 0.002695 370.9 25.8
396(20) 0.002525 370.8 25.7
374(19) 0.002674 370.8 25.5
388(20) 0.002577 370.8 25.4
383(20) 0.002611 370.7 25.4
381(20) 0.002625 370.7 25.3
390(20) 0.002564 370.7 25.3
393(20) 0.002545 370.6 25.3
377(19) 0.002653 370.6 25.3
355(19) 0.002817 370.6 25.4
382(20) 0.002618 370.5 25.4
379(19) 0.002639 370.5 25.5
384(20) 0.002604 370.4 25.6
374(19) 0.002674 370.4 25.7
372(19) 0.002688 370.4 25.8
393(20) 0.002545 370.3 26.0
391(20) 0.002558 370.4 26.1
393(20) 0.002545 370.4 26.3
384(20) 0.002604 370.5 26.5
378(19) 0.002646 370.5 26.7
360(19) 0.002778 370.6 26.9
361(19) 0.002770 370.6 27.2
377(19) 0.002653 370.7 27.4
371(19) 0.002695 370.7 27.7
349(19) 0.002865 370.8 28.0
360(19) 0.002778 370.8 28.3
410(20) 0.002439 370.8 28.6
378(19) 0.002646 370.9 28.9
394(20) 0.002538 370.9 29.2
381(20) 0.002625 371.0 29.6
390(20) 0.002564 371.0 29.9
367(19) 0.002725 371.1 30.3
365(19) 0.002740 371.1 30.7
397(20) 0.002519 371.2 31.1
386(20) 0.002591 371.2 31.5
420(20) 0.002381 371.3 31.9
383(20) 0.002611 371.3 32.3
418(20) 0.002392 371.3 32.8
442(21) 0.002262 371.4 33.2
403(20) 0.002481 371.4 33.7
393(20) 0.002545 371.5 34.1
437(21) 0.002288 371.5 34.6
419(20) 0.002387 371.6 35.1
400(20) 0.002500 371.6 35.6
438(21) 0.002283 371.7 36.1
398(20) 0.002513 371.7 36.6
407(20) 0.002457 371.8 37.1
409(20) 0.002445 371.8 37.6
417(20) 0.002398 371.8 38.1
395(20) 0.002532 371.9 38.6
430(21) 0.002326 371.9 39.2
422(21) 0.002370 372.0 39.7
420(20) 0.002381 372.0 40.2
389(20) 0.002571 372.1 40.8
414(20) 0.002415 372.1 41.3
403(20) 0.002481 372.2 41.9
415(20) 0.002410 372.2 42.5
409(20) 0.002445 372.3 43.1
406(20) 0.002463 372.3 43.7
395(20) 0.002532 372.4 44.3
422(21) 0.002370 372.4 44.9
368(19) 0.002717 372.4 45.5
386(20) 0.002591 372.5 46.2
364(19) 0.002747 372.5 46.9
381(20) 0.002625 372.6 47.6
408(20) 0.002451 372.6 48.4
381(20) 0.002625 372.7 49.2
418(20) 0.002392 372.7 50.1
399(20) 0.002506 372.8 51.0
381(20) 0.002625 372.8 51.9
410(20) 0.002439 372.9 53.0
429(21) 0.002331 372.9 54.1
411(20) 0.002433 372.9 55.3
434(21) 0.002304 373.0 56.6
408(20) 0.002451 373.0 58.0
429(21) 0.002331 373.1 59.5
407(20) 0.002457 373.1 61.2
454(21) 0.002203 373.2 63.1
425(21) 0.002353 373.2 65.2
418(20) 0.002392 373.3 67.4
445(21) 0.002247 373.3 69.9
411(20) 0.002433 373.4 72.7
470(22) 0.002128 373.4 75.7
438(21) 0.002283 373.4 79.2
449(21) 0.002227 373.5 83.1
440(21) 0.002273 373.5 87.4
457(21) 0.002188 373.6 92.3
441(21) 0.002268 373.6 97.8
485(22) 0.002062 373.7 104.1
485(22) 0.002062 373.7 111.3
481(22) 0.002079 373.8 119.5
481(22) 0.002079 373.8 129.0
515(23) 0.001942 373.9 140.1
586(24) 0.001706 373.9 153.1
576(24) 0.001736 374.0 168.5
595(24) 0.001681 374.0 187.1
566(24) 0.001767 374.0 209.9
568(24) 0.001761 374.1 238.9
656(26) 0.001524 374.1 277.3
728(27) 0.001374 374.2 331.2
832(29) 0.001202 374.2 410.8
973(31) 0.001028 374.3 531.9
1161(34) 0.000861 374.3 713.4
1315(36) 0.000760 374. 973.
1682(41) 0.000595 374. 1311.
2149(46) 0.000465 374. 1688.
2608(51) 0.000383 374. 1975.
2575(51) 0.000388 375. 1997.
2358(49) 0.000424 375. 1745.
1955(44) 0.000512 375. 1386.
1637(40) 0.000611 375. 1059.
1406(37) 0.000711 375. 810.
1206(35) 0.000829 374.8 638.8
1097(33) 0.000912 374.8 529.3
1002(32) 0.000998 374.9 462.0
945(31) 0.001058 374.9 420.9
939(31) 0.001065 375.0 395.3
809(28) 0.001236 375.0 378.7
800(28) 0.001250 375.0 367.6
821(29) 0.001218 375.1 360.2
750(27) 0.001333 375.1 355.5
775(28) 0.001290 375.2 352.5
789(28) 0.001267 375.2 351.0
747(27) 0.001339 375.3 350.7
739(27) 0.001353 375.3 351.2
749(27) 0.001335 375.4 352.5
715(27) 0.001399 375.4 354.4
747(27) 0.001339 375.5 356.8
738(27) 0.001355 375.5 359.5
774(28) 0.001292 375.6 362.4
754(27) 0.001326 375.6 365.3
812(28) 0.001232 375.6 368.1
782(28) 0.001279 375.7 370.6
812(28) 0.001232 375.7 372.6
799(28) 0.001252 375.8 374.0
793(28) 0.001261 375.8 374.5
781(28) 0.001280 375.9 374.0
810(28) 0.001235 375.9 372.4
794(28) 0.001259 376.0 369.6
771(28) 0.001297 376.0 365.6
793(28) 0.001261 376.1 360.5
779(28) 0.001284 376.1 354.2
811(28) 0.001233 376.1 346.9
763(28) 0.001311 376.2 338.8
839(29) 0.001192 376.2 330.1
761(28) 0.001314 376.3 320.9
713(27) 0.001403 376.3 311.6
716(27) 0.001397 376.4 302.3
651(26) 0.001536 376.4 293.2
659(26) 0.001517 376.5 284.3
661(26) 0.001513 376.5 275.7
624(25) 0.001603 376.6 267.0
638(25) 0.001567 376.6 257.8
656(26) 0.001524 376.6 247.7
617(25) 0.001621 376.7 236.9
596(24) 0.001678 376.7 225.7
640(25) 0.001563 376.8 214.8
722(27) 0.001385 376.8 204.5
993(32) 0.001007 376.9 195.0
1409(38) 0.000710 377. 186.
776(28) 0.001289 377.0 178.8
695(26) 0.001439 377.0 172.0
598(24) 0.001672 377.1 166.1
511(23) 0.001957 377.1 160.9
559(24) 0.001789 377.2 156.4
565(24) 0.001770 377.2 152.5
533(23) 0.001876 377.2 149.3
529(23) 0.001890 377.3 146.7
531(23) 0.001883 377.3 144.6
564(24) 0.001773 377.4 143.0
536(23) 0.001866 377.4 142.0
513(23) 0.001949 377.5 141.4
558(24) 0.001792 377.5 141.4
526(23) 0.001901 377.6 141.9
626(25) 0.001597 377.6 143.0
594(24) 0.001684 377.7 144.5
579(24) 0.001727 377.7 146.6
600(24) 0.001667 377.7 149.2
622(25) 0.001608 377.8 152.4
718(27) 0.001393 377.8 156.3
687(26) 0.001456 377.9 160.8
640(25) 0.001563 377.9 166.1
635(25) 0.001575 378.0 172.3
654(26) 0.001529 378.0 179.3
673(26) 0.001486 378.1 187.2
650(25) 0.001538 378.1 196.3
699(26) 0.001431 378.2 206.5
627(25) 0.001595 378.2 217.9
679(26) 0.001473 378.2 230.7
705(27) 0.001418 378.3 244.9
709(27) 0.001410 378.3 260.6
712(27) 0.001404 378.4 277.9
739(27) 0.001353 378.4 296.7
711(27) 0.001406 378.5 317.2
750(27) 0.001333 378.5 339.3
767(28) 0.001304 378.6 363.0
810(28) 0.001235 378.6 388.1
799(28) 0.001252 378.7 414.6
827(29) 0.001209 378.7 442.2
865(29) 0.001156 378.8 470.7
903(30) 0.001107 378.8 499.7
903(30) 0.001107 378.8 528.7
945(31) 0.001058 378.9 557.3
957(31) 0.001045 378.9 584.7
1032(32) 0.000969 379.0 610.3
1064(33) 0.000940 379.0 633.3
1109(33) 0.000902 379.1 653.2
1069(33) 0.000935 379.1 669.3
1156(34) 0.000865 379.2 681.5
1114(33) 0.000898 379.2 689.9
1149(34) 0.000870 379.3 694.8
1188(34) 0.000842 379.3 697.2
1178(34) 0.000849 379.3 698.0
1115(33) 0.000897 379.4 698.6
1138(34) 0.000879 379.4 700.4
1115(33) 0.000897 379.5 705.1
1188(34) 0.000842 379.5 714.2
1139(34) 0.000878 379.6 729.4
1165(34) 0.000858 379.6 752.0
1151(34) 0.000869 379.7 783.5
1180(34) 0.000847 379.7 824.9
1228(35) 0.000814 379.8 877.1
1242(35) 0.000805 380. 940.
1388(37) 0.000720 380. 1014.
1407(38) 0.000711 380. 1097.
1580(40) 0.000633 380. 1186.
1625(40) 0.000615 380. 1277.
1757(42) 0.000569 380. 1363.
1871(43) 0.000534 380. 1438.
1865(43) 0.000536 380. 1495.
1879(43) 0.000532 380. 1530.
1912(44) 0.000523 380. 1544.
1925(44) 0.000519 380. 1544.
1917(44) 0.000522 380. 1535.
1941(44) 0.000515 380. 1524.
2017(45) 0.000496 380. 1514.
2040(45) 0.000490 380. 1507.
1987(45) 0.000503 380. 1504.
2019(45) 0.000495 381. 1504.
2034(45) 0.000492 381. 1506.
2000(45) 0.000500 381. 1509.
1991(45) 0.000502 381. 1510.
2022(45) 0.000495 381. 1508.
2011(45) 0.000497 381. 1499.
1894(44) 0.000528 381. 1485.
1792(42) 0.000558 381. 1462.
1807(43) 0.000553 381. 1432.
1686(41) 0.000593 381. 1395.
1681(41) 0.000595 381. 1351.
1695(41) 0.000590 381. 1301.
1587(40) 0.000630 381. 1247.
1547(39) 0.000646 381. 1189.
1534(39) 0.000652 381. 1128.
1486(39) 0.000673 381. 1064.
1435(38) 0.000697 381. 999.
1334(37) 0.000750 381. 933.
1354(37) 0.000739 381. 868.
1262(36) 0.000792 381. 804.
1217(35) 0.000822 381.4 742.1
1176(34) 0.000850 381.5 683.6
1134(34) 0.000882 381.5 628.6
1108(33) 0.000903 381.6 577.3
1040(32) 0.000962 381.6 529.8
1028(32) 0.000973 381.7 486.0
973(31) 0.001028 381.7 446.1
979(31) 0.001021 381.8 409.7
1015(32) 0.000985 381.8 376.6
958(31) 0.001044 381.9 346.8
940(31) 0.001064 381.9 319.9
884(30) 0.001131 382.0 295.8
900(30) 0.001111 382.0 274.1
875(30) 0.001143 382.0 254.8
864(29) 0.001157 382.1 237.5
897(30) 0.001115 382.1 222.1
892(30) 0.001121 382.2 208.4
879(30) 0.001138 382.2 196.1
849(29) 0.0 0.0 .
859(29) 0.0 0.0 .
822(29) 0.0 0.0 .
824(29) 0.0 0.0 .
843(29) 0.0 0.0 .
884(30) 0.0 0.0 .
880(30) 0.0 0.0 .
846(29) 0.0 0.0 .
790(28) 0.0 0.0 .
864(29) 0.0 0.0 .
859(29) 0.0 0.0 .
851(29) 0.0 0.0 .
903(30) 0.0 0.0 .
863(29) 0.0 0.0 .
931(31) 0.0 0.0 .
938(31) 0.0 0.0 .
1008(32) 0.0 0.0 .
1008(32) 0.0 0.0 .
1070(33) 0.0 0.0 .
1115(33) 0.0 0.0 .
1121(33) 0.0 0.0 .
1131(34) 0.0 0.0 .
1170(34) 0.0 0.0 .
1147(34) 0.0 0.0 .
1133(34) 0.0 0.0 .
1093(33) 0.0 0.0 .
1151(34) 0.0 0.0 .
1104(33) 0.0 0.0 .
1196(35) 0.0 0.0 .
1191(35) 0.0 0.0 .
1207(35) 0.0 0.0 .
1231(35) 0.0 0. .
1285(36) 0.0 0. .
1276(36) 0.0 0. .
1350(37) 0.0 0. .
1430(38) 0.0 0. .
1470(38) 0.0 0. .
1569(40) 0.0 0. .
1602(40) 0.0 0. .
1722(41) 0.0 0. .
1901(44) 0.0 0. .
2042(45) 0.0 0. .
2135(46) 0.0 0. .
2373(49) 0.0 0. .
2571(51) 0.0 0. .
2914(54) 0.0 0. .
3175(56) 0.0 0. .
3691(61) 0.0 0. .
4146(64) 0.0 0. .
4759(69) 0.0 0. .
5463(74) 0.0 0. .
6645(82) 0.0 0. .
7998(89) 0.0 0. .
9920(100) 0.0 0. .
12400(110) 0.0 0. .
16040(130) 0.0 0. .
21370(150) 0.0 0. .
29000(170) 0.0 0. .
42180(210) 0.0 0. .
63620(250) 0.0 0. .
102420(320) 0.0 0. .
168030(410) 0.0 0. .
262970(510) 0.0 0. .
345260(590) 0.0 0. .
345080(590) 0.0 0. .
259620(510) 0.0 0. .
162910(400) 0.0 0. .
97410(310) 0.0 0. .
61080(250) 0.0 0. .
40140(200) 0.0 0. .
28190(170) 0.0 0. .
20200(140) 0.0 0. .
15390(120) 0.0 0. .
11950(110) 0.0 0. .
9401(97) 0.0 0. .
7623(87) 0.0 0. .
6271(79) 0.0 0. .
5200(72) 0.0 0. .
4487(67) 0.0 0. .
3833(62) 0.0 0. .
3440(59) 0.0 0. .
3020(55) 0.0 0. .
2645(51) 0.0 0. .
2387(49) 0.0 0. .
2214(47) 0.0 0. .
2031(45) 0.0 0. .
1907(44) 0.0 0. .
1737(42) 0.0 0. .
1597(40) 0.0 0. .
1407(38) 0.0 0. .
1409(38) 0.0 0. .
1273(36) 0.0 0. .
1224(35) 0.0 0.0 .
1097(33) 0.0 0.0 .
1097(33) 0.0 0.0 .
1086(33) 0.0 0.0 .
1038(32) 0.0 0.0 .
956(31) 0.0 0.0 .
905(30) 0.0 0.0 .
938(31) 0.0 0.0 .
858(29) 0.0 0.0 .
809(28) 0.0 0.0 .
836(29) 0.0 0.0 .
831(29) 0.0 0.0 .
795(28) 0.0 0.0 .
775(28) 0.0 0.0 .
766(28) 0.0 0.0 .
726(27) 0.0 0.0 .
722(27) 0.0 0.0 .
713(27) 0.0 0.0 .
728(27) 0.0 0.0 .
715(27) 0.0 0.0 .
642(25) 0.0 0.0 .
704(27) 0.0 0.0 .
663(26) 0.0 0.0 .
677(26) 0.0 0.0 .
639(25) 0.0 0.0 .
660(26) 0.0 0.0 .
624(25) 0.0 0.0 .
642(25) 0.0 0.0 .
640(25) 0.0 0.0 .
624(25) 0.0 0.0 .
606(25) 0.0 0.0 .
608(25) 0.0 0.0 .
616(25) 0.0 0.0 .
629(25) 0.0 0.0 .
577(24) 0.0 0.0 .
595(24) 0.0 0.0 .
571(24) 0.0 0.0 .
572(24) 0.0 0.0 .
557(24) 0.0 0.0 .
592(24) 0.0 0.0 .
521(23) 0.0 0.0 .
554(24) 0.0 0.0 .
561(24) 0.0 0.0 .
551(23) 0.0 0.0 .
526(23) 0.0 0.0 .
497(22) 0.0 0.0 .
513(23) 0.0 0.0 .
502(22) 0.0 0.0 .
502(22) 0.0 0.0 .
498(22) 0.0 0.0 .
528(23) 0.0 0.0 .
534(23) 0.0 0.0 .
475(22) 0.0 0.0 .
509(23) 0.0 0.0 .
459(21) 0.0 0.0 .
495(22) 0.0 0.0 .
488(22) 0.0 0.0 .
457(21) 0.0 0.0 .
478(22) 0.0 0.0 .
438(21) 0.0 0.0 .
467(22) 0.0 0.0 .
458(21) 0.0 0.0 .
476(22) 0.0 0.0 .
475(22) 0.0 0.0 .
450(21) 0.0 0.0 .
484(22) 0.0 0.0 .
469(22) 0.0 0.0 .
461(21) 0.0 0.0 .
455(21) 0.0 0.0 .
446(21) 0.0 0.0 .
456(21) 0.0 0.0 .
492(22) 0.0 0.0 .
466(22) 0.0 0.0 .
438(21) 0.0 0.0 .
464(22) 0.0 0.0 .
474(22) 0.0 0.0 .
475(22) 0.0 0.0 .
505(22) 0.0 0.0 .
437(21) 0.0 0.0 .
453(21) 0.0 0.0 .
454(21) 0.0 0.0 .
445(21) 0.0 0.0 .
471(22) 0.0 0.0 .
465(22) 0.0 0.0 .
473(22) 0.0 0.0 .
451(21) 0.0 0.0 .
447(21) 0.0 0.0 .
426(21) 0.0 0.0 .
467(22) 0.0 0.0 .
436(21) 0.0 0.0 .
407(20) 0.0 0.0 .
432(21) 0.0 0.0 .
395(20) 0.0 0.0 .
408(20) 0.0 0.0 .
422(21) 0.0 0.0 .
424(21) 0.0 0.0 .
427(21) 0.0 0.0 .
420(20) 0.0 0.0 .
447(21) 0.0 0.0 .
419(20) 0.0 0.0 .
394(20) 0.0 0.0 .
404(20) 0.0 0.0 .
417(20) 0.0 0.0 .
402(20) 0.0 0.0 .
434(21) 0.0 0.0 .
395(20) 0.0 0.0 .
381(20) 0.0 0.0 .
407(20) 0.0 0.0 .
402(20) 0.0 0.0 .
403(20) 0.0 0.0 .
390(20) 0.0 0.0 .
424(21) 0.0 0.0 .
428(21) 0.0 0.0 .
416(20) 0.002404 391.6 24.6
370(19) 0.002703 391.7 25.1
401(20) 0.002494 391.7 25.6
401(20) 0.002494 391.8 26.2
404(20) 0.002475 391.8 26.8
376(19) 0.002660 391.9 27.4
389(20) 0.002571 391.9 28.1
428(21) 0.002336 392.0 28.8
392(20) 0.002551 392.0 29.6
403(20) 0.002481 392.1 30.4
380(19) 0.002632 392.1 31.3
408(20) 0.002451 392.2 32.3
423(21) 0.002364 392.2 33.3
404(20) 0.002475 392.3 34.4
382(20) 0.002618 392.4 35.6
414(20) 0.002415 392.4 36.9
403(20) 0.002481 392.5 38.3
400(20) 0.002500 392.5 39.8
406(20) 0.002463 392.6 41.4
427(21) 0.002342 392.6 43.1
420(20) 0.002381 392.7 45.0
417(20) 0.002398 392.7 47.0
416(20) 0.002404 392.8 49.3
429(21) 0.002331 392.8 51.7
399(20) 0.002506 392.9 54.3
422(21) 0.002370 392.9 57.2
404(20) 0.002475 393.0 60.4
413(20) 0.002421 393.0 63.9
460(21) 0.002174 393.1 67.8
433(21) 0.002309 393.1 72.1
465(22) 0.002151 393.2 76.9
461(21) 0.002169 393.2 82.2
485(22) 0.002062 393.3 88.1
460(21) 0.002174 393.3 94.6
456(21) 0.002193 393.4 101.8
470(22) 0.002128 393.4 109.8
502(22) 0.001992 393.5 118.6
494(22) 0.002024 393.5 128.2
517(23) 0.001934 393.6 138.7
492(22) 0.002033 393.6 150.0
496(22) 0.002016 393.7 162.2
534(23) 0.001873 393.7 175.3
533(23) 0.001876 393.8 189.0
572(24) 0.001748 393.8 203.4
569(24) 0.001757 393.9 218.3
620(25) 0.001613 393.9 233.4
607(25) 0.001647 394.0 248.4
594(24) 0.001684 394.0 263.1
604(25) 0.001656 394.1 276.8
674(26) 0.001484 394.1 289.3
668(26) 0.001497 394.2 299.8
704(27) 0.001420 394.2 308.0
685(26) 0.001460 394.3 313.3
745(27) 0.001342 394.3 315.6
651(26) 0.001536 394.4 314.7
668(26) 0.001497 394.4 310.9
668(26) 0.001497 394.5 304.4
671(26) 0.001490 394.5 295.8
646(25) 0.001548 394.6 285.6
643(25) 0.001555 394.6 274.2
683(26) 0.001464 394.7 262.1
621(25) 0.001610 394.7 249.7
646(25) 0.001548 394.8 237.4
594(24) 0.001684 394.8 225.3
587(24) 0.001704 394.9 213.7
584(24) 0.001712 394.9 202.7
596(24) 0.001678 395.0 192.4
572(24) 0.001748 395.0 182.9
566(24) 0.001767 395.1 174.2
511(23) 0.001957 395.1 166.3
551(23) 0.001815 395.2 159.2
547(23) 0.001828 395.2 152.9
504(22) 0.001984 395.3 147.3
497(22) 0.002012 395.3 142.5
501(22) 0.001996 395.4 138.3
488(22) 0.002049 395.4 134.7
515(23) 0.001942 395.5 131.6
503(22) 0.001988 395.5 129.0
505(22) 0.001980 395.6 126.9
454(21) 0.002203 395.6 125.2
508(23) 0.001968 395.7 123.8
495(22) 0.002020 395.7 122.8
515(23) 0.001942 395.8 122.0
474(22) 0.002110 395.8 121.5
425(21) 0.002353 395.9 121.3
467(22) 0.002141 395.9 121.3
490(22) 0.002041 396.0 121.6
468(22) 0.002137 396.0 122.0
514(23) 0.001946 396.1 122.7
479(22) 0.002088 396.1 123.7
485(22) 0.002062 396.2 124.9
482(22) 0.002075 396.2 126.4
486(22) 0.002058 396.3 128.4
473(22) 0.002114 396.3 130.8
512(23) 0.001953 396.4 133.8
501(22) 0.001996 396.4 137.7
535(23) 0.001869 396.5 142.5
570(24) 0.001754 396.5 148.8
563(24) 0.001776 396.6 156.6
590(24) 0.001695 396.7 166.5
613(25) 0.001631 396.7 178.5
645(25) 0.001550 396.8 192.9
642(25) 0.001558 396.8 209.6
681(26) 0.001468 396.9 228.5
699(26) 0.001431 396.9 248.6
770(28) 0.001299 397.0 268.8
795(28) 0.001258 397.0 286.9
858(29) 0.001166 397.1 300.3
868(29) 0.001152 397.1 306.2
845(29) 0.001183 397.2 303.7
789(28) 0.001267 397.2 293.6
750(27) 0.001333 397.3 278.3
678(26) 0.001475 397.3 260.6
700(26) 0.001429 397.4 242.6
604(25) 0.001656 397.4 225.8
614(25) 0.001629 397.5 210.8
593(24) 0.001686 397.5 198.0
610(25) 0.001639 397.6 187.5
581(24) 0.001721 397.6 179.0
608(25) 0.001645 397.7 172.2
580(24) 0.001724 397.7 167.0
562(24) 0.001779 397.8 162.8
574(24) 0.001742 397.8 159.5
562(24) 0.001779 397.9 156.8
584(24) 0.001712 397.9 154.5
519(23) 0.001927 398.0 152.5
555(24) 0.001802 398.0 150.6
547(23) 0.001828 398.1 148.7
505(22) 0.001980 398.1 146.9
541(23) 0.001848 398.2 145.0
520(23) 0.001923 398.2 143.2
483(22) 0.002070 398.3 141.3
495(22) 0.002020 398.3 139.4
515(23) 0.001942 398.4 137.5
488(22) 0.002049 398.4 135.6
491(22) 0.002037 398.5 133.8
474(22) 0.002110 398.5 132.0
507(23) 0.001972 398.6 130.2
489(22) 0.002045 398.6 128.5
467(22) 0.002141 398.7 126.9
497(22) 0.002012 398.7 125.3
474(22) 0.002110 398.8 123.9
475(22) 0.002105 398.8 122.6
514(23) 0.001946 398.9 121.4
464(22) 0.002155 398.9 120.2
446(21) 0.002242 399.0 119.3
482(22) 0.002075 399.0 118.4
435(21) 0.002299 399.1 117.7
435(21) 0.002299 399.1 117.0
442(21) 0.002262 399.2 116.5
488(22) 0.002049 399.2 116.1
452(21) 0.002212 399.3 115.7
484(22) 0.002066 399.3 115.5
491(22) 0.002037 399.4 115.3
459(21) 0.002179 399.4 115.1
453(21) 0.002208 399.5 115.0
473(22) 0.002114 399.5 114.8
464(22) 0.002155 399.6 114.7
456(21) 0.002193 399.6 114.5
474(22) 0.002110 399.7 114.2
456(21) 0.002193 399.7 113.8
488(22) 0.002049 399.8 113.3
430(21) 0.002326 399.8 112.6
468(22) 0.002137 399.9 111.8
486(22) 0.002058 399.9 110.8
486(22) 0.002058 400.0 109.7
441(21) 0.002268 400.0 108.4
464(22) 0.002155 400.1 106.9
460(21) 0.002174 400.1 105.3
479(22) 0.002088 400.2 103.6
434(21) 0.002304 400.2 101.7
435(21) 0.002299 400.3 99.7
449(21) 0.002227 400.3 97.7
474(22) 0.002110 400.4 95.6
427(21) 0.002342 400.4 93.4
443(21) 0.002257 400.5 91.3
438(21) 0.002283 400.5 89.2
464(22) 0.002155 400.6 87.2
428(21) 0.002336 400.6 85.3
430(21) 0.002326 400.7 83.4
422(21) 0.002370 400.7 81.6
409(20) 0.002445 400.2 79.9
419(20) 0.002387 399.5 78.4
432(21) 0.002315 398.8 77.0
420(20) 0.002381 398.1 75.7
429(21) 0.002331 397.4 74.7
392(20) 0.002551 396.7 73.8
426(21) 0.002347 395.9 73.1
409(20) 0.002445 395.2 72.7
406(20) 0.002463 394.5 72.5
424(21) 0.002358 393.8 72.6
420(20) 0.002381 393.1 73.1
426(21) 0.002347 392.4 73.9
434(21) 0.002304 391.7 75.3
454(21) 0.002203 391.0 77.1
460(21) 0.002174 390.2 79.5
430(21) 0.002326 389.5 82.7
472(22) 0.002119 388.8 86.8
453(21) 0.002208 388.1 91.9
504(22) 0.001984 387.4 98.2
495(22) 0.002020 386.7 105.8
514(23) 0.001946 386.0 115.0
568(24) 0.001761 385.3 125.7
528(23) 0.001894 384.5 138.1
578(24) 0.001730 383.8 152.2
580(24) 0.001724 383.1 167.9
611(25) 0.001637 382.4 185.1
635(25) 0.001575 381.7 203.3
699(26) 0.001431 381.0 222.0
684(26) 0.001462 380.3 240.5
690(26) 0.001449 379.6 258.3
762(28) 0.001312 378.8 275.1
740(27) 0.001351 378.1 291.3
747(27) 0.001339 377.4 307.6
744(27) 0.001344 376.7 325.1
777(28) 0.001287 376.0 344.6
773(28) 0.001294 375.3 367.0
889(30) 0.001125 374.6 392.6
839(29) 0.001192 373.9 421.3
941(31) 0.001063 373.1 452.8
1012(32) 0.000988 372.4 486.4
1061(33) 0.000943 371.7 521.1
1096(33) 0.000912 371.0 555.3
1163(34) 0.000860 370.3 587.2
1240(35) 0.000806 370. 615.
1116(33) 0.000896 368.9 635.4
1180(34) 0.000847 368.2 647.5
1243(35) 0.000805 367. 649.
1103(33) 0.000907 366.7 640.8
1062(33) 0.000942 366.0 622.3
1059(33) 0.000944 365.3 595.2
946(31) 0.001057 364.6 561.4
871(30) 0.001148 363.9 523.2
871(30) 0.001148 363.2 482.5
879(30) 0.001138 362.5 440.9
758(28) 0.001319 361.7 399.9
673(26) 0.001486 361.0 360.3
713(27) 0.001403 360.3 322.9
665(26) 0.001504 359.6 288.1
656(26) 0.001524 358.9 256.3
616(25) 0.001623 358.2 227.6
587(24) 0.001704 357.5 201.9
564(24) 0.001773 356.7 179.3
552(23) 0.001812 356.0 159.4
530(23) 0.001887 355.3 142.3
488(22) 0.002049 354.6 127.5
485(22) 0.002062 353.9 114.8
475(22) 0.002105 353.2 104.1
475(22) 0.002105 352.5 95.0
443(21) 0.002257 351.8 87.4
442(21) 0.002262 351.0 80.9
437(21) 0.002288 350.3 75.5
430(21) 0.002326 349.6 70.9
438(21) 0.002283 348.9 67.0
410(20) 0.002439 348.2 63.7
437(21) 0.002288 347.5 61.0
362(19) 0.002762 346.8 58.7
369(19) 0.002710 346.1 56.7
380(19) 0.002632 345.3 55.1
383(20) 0.002611 344.6 53.7
363(19) 0.002755 343.9 52.5
359(19) 0.002786 343.2 51.6
395(20) 0.002532 342.5 50.9
366(19) 0.002732 341.8 50.3
380(19) 0.002632 341.1 49.9
372(19) 0.002688 340.4 49.7
380(19) 0.002632 339.6 49.6
361(19) 0.002770 338.9 49.6
343(19) 0.002915 338.2 49.7
369(19) 0.002710 337.5 50.0
380(19) 0.002632 336.8 50.4
364(19) 0.002747 336.1 50.8
379(19) 0.002639 335.4 51.4
361(19) 0.002770 334.7 52.0
364(19) 0.002747 333.9 52.6
353(19) 0.002833 333.2 53.3
357(19) 0.002801 332.5 54.0
374(19) 0.002674 331.8 54.8
345(19) 0.002899 331.1 55.5
354(19) 0.002825 330.4 56.2
357(19) 0.002801 329.7 56.8
382(20) 0.002618 329.0 57.4
363(19) 0.002755 328.2 57.8
371(19) 0.002695 327.5 58.2
364(19) 0.002747 326.8 58.4
340(18) 0.002941 326.1 58.5
355(19) 0.002817 325.4 58.5
372(19) 0.002688 324.7 58.3
377(19) 0.002653 324.0 57.9
368(19) 0.002717 323.3 57.4
376(19) 0.002660 322.5 56.7
328(18) 0.003049 321.8 55.8
334(18) 0.002994 321.1 54.9
350(19) 0.002857 320.4 53.8
339(18) 0.002950 319.7 52.6
347(19) 0.002882 319.0 51.4
360(19) 0.002778 318.3 50.1
315(18) 0.003175 317.5 48.8
323(18) 0.003096 316.8 47.5
367(19) 0.002725 316.1 46.1
292(17) 0.003425 315.6 44.8
312(18) 0.003205 315.4 43.5
337(18) 0.002967 315.3 42.2
321(18) 0.003115 315.2 40.9
306(17) 0.003268 315.0 39.7
329(18) 0.003039 314.9 38.6
321(18) 0.003115 314.8 37.4
334(18) 0.002994 314.6 36.4
357(19) 0.002801 314.5 35.4
308(18) 0.003247 314.3 34.5
350(19) 0.002857 314.2 33.6
332(18) 0.003012 314.1 32.7
333(18) 0.003003 313.9 32.0
325(18) 0.003077 313.8 31.2
313(18) 0.003195 313.7 30.6
325(18) 0.003077 313.5 30.0
341(18) 0.002933 313.4 29.4
335(18) 0.002985 313.3 28.9
329(18) 0.003039 313.1 28.4
338(18) 0.002959 313.0 28.0
338(18) 0.002959 312.9 27.6
327(18) 0.003058 312.7 27.3
319(18) 0.003135 312.6 27.0
343(19) 0.002915 312.5 26.7
344(19) 0.002907 312.3 26.5
364(19) 0.002747 312.2 26.2
330(18) 0.003030 312.1 26.1
325(18) 0.003077 311.9 25.9
337(18) 0.002967 311.8 25.7
333(18) 0.003003 311.7 25.6
322(18) 0.003106 311.5 25.5
320(18) 0.003125 311.4 25.4
333(18) 0.003003 311.3 25.3
316(18) 0.003165 311.1 25.2
351(19) 0.002849 311.0 25.1
346(19) 0.002890 310.9 25.0
305(17) 0.003279 310.7 24.9
299(17) 0.003344 310.6 24.8
332(18) 0.003012 310.5 24.7
320(18) 0.003125 310.3 24.6
317(18) 0.003155 310.2 24.5
313(18) 0.003195 310.0 24.4
325(18) 0.003077 309.9 24.3
333(18) 0.003003 309.8 24.2
330(18) 0.003030 309.6 24.1
320(18) 0.003125 309.5 24.0
334(18) 0.002994 309.4 23.9
324(18) 0.003086 309.2 23.7
327(18) 0.003058 309.1 23.6
312(18) 0.003205 309.0 23.4
345(19) 0.002899 308.8 23.3
343(19) 0.002915 308.7 23.1
339(18) 0.002950 308.6 22.9
321(18) 0.003115 308.4 22.8
346(19) 0.002890 308.3 22.6
338(18) 0.002959 308.2 22.4
302(17) 0.003311 308.0 22.2
333(18) 0.003003 307.9 22.0
324(18) 0.003086 307.8 21.8
327(18) 0.003058 307.6 21.6
319(18) 0.003135 307.5 21.4
318(18) 0.003145 307.4 21.2
302(17) 0.003311 307.2 21.0
313(18) 0.003195 307.1 20.8
314(18) 0.003185 307.0 20.5
287(17) 0.003484 306.8 20.3
299(17) 0.003344 306.7 20.1
307(18) 0.003257 306.6 19.9
309(18) 0.003236 306.4 19.7
318(18) 0.003145 306.3 19.4
325(18) 0.003077 306.2 19.2
351(19) 0.002849 306.0 19.0
332(18) 0.003012 305.9 18.8
342(18) 0.002924 305.7 18.6
300(17) 0.003333 305.6 18.4
312(18) 0.003205 305.5 18.2
322(18) 0.003106 305.3 17.9
361(19) 0.002770 305.2 17.7
347(19) 0.002882 305.1 17.5
363(19) 0.002755 304.9 17.3
325(18) 0.003077 304.8 17.2
321(18) 0.003115 304.7 17.0
333(18) 0.003003 304.5 16.8
328(18) 0.003049 304.4 16.6
326(18) 0.003067 304.3 16.4
334(18) 0.002994 304.1 16.2
325(18) 0.003077 304.0 16.1
350(19) 0.002857 303.9 15.9
333(18) 0.003003 303.7 15.8
316(18) 0.003165 303.6 15.6
314(18) 0.003185 303.5 15.5
312(18) 0.003205 303.3 15.3
336(18) 0.002976 303.2 15.2
312(18) 0.003205 303.1 15.1
318(18) 0.003145 302.9 14.9
300(17) 0.003333 302.8 14.8
325(18) 0.003077 302.7 14.7
295(17) 0.003390 302.5 14.6
312(18) 0.003205 302.4 14.5
307(18) 0.003257 302.3 14.4
310(18) 0.003226 302.1 14.3
301(17) 0.003322 302.0 14.2
326(18) 0.003067 301.9 14.1
342(18) 0.002924 301.7 14.0
341(18) 0.002933 301.6 14.0
334(18) 0.002994 301.4 13.9
322(18) 0.003106 301.3 13.8
301(17) 0.003322 301.2 13.8
314(18) 0.003185 301.0 13.7
321(18) 0.003115 300.9 13.7
334(18) 0.002994 300.8 13.7
292(17) 0.003425 300.6 13.6
322(18) 0.003106 300.5 13.6
319(18) 0.003135 300.4 13.6
344(19) 0.002907 300.2 13.6
345(19) 0.002899 300.1 13.6
327(18) 0.003058 300.0 13.6
297(17) 0.003367 299.8 13.6
325(18) 0.003077 299.7 13.6
323(18) 0.003096 299.6 13.6
352(19) 0.002841 299.4 13.6
305(17) 0.003279 299.3 13.7
323(18) 0.003096 299.2 13.7
344(19) 0.002907 299.0 13.7
344(19) 0.002907 298.9 13.8
297(17) 0.003367 298.8 13.8
327(18) 0.003058 298.6 14.0
338(18) 0.002959 298.5 14.0
323(18) 0.003096 298.4 14.1
322(18) 0.003106 298.2 14.2
295(17) 0.003390 298.1 14.3
324(18) 0.003086 298.0 14.4
314(18) 0.003185 297.8 14.5
307(18) 0.003257 297.7 14.7
330(18) 0.003030 297.6 14.8
323(18) 0.003096 297.4 14.9
313(18) 0.003195 297.4 15.1
301(17) 0.003322 297.4 15.2
312(18) 0.003205 297.5 15.4
323(18) 0.003096 297.5 15.6
283(17) 0.00353 297.6 15.8
308(18) 0.003247 297.6 16.0
329(18) 0.003039 297.7 16.3
314(18) 0.003185 297.7 16.5
277(17) 0.00361 297.8 16.8
346(19) 0.002890 297.8 17.1
315(18) 0.003175 297.9 17.4
295(17) 0.003390 297.9 17.7
311(18) 0.003215 298.0 18.1
280(17) 0.00357 298.0 18.5
329(18) 0.003039 298.1 18.9
312(18) 0.003205 298.1 19.4
309(18) 0.003236 298.2 19.9
330(18) 0.003030 298.3 20.5
297(17) 0.003367 298.3 21.1
333(18) 0.003003 298.4 21.8
325(18) 0.003077 298.4 22.7
343(19) 0.002915 298.5 23.6
337(18) 0.002967 298.5 24.7
338(18) 0.002959 298.6 26.1
337(18) 0.002967 298.6 27.8
336(18) 0.002976 298.7 29.8
351(19) 0.002849 298.7 32.3
369(19) 0.002710 298.8 35.5
348(19) 0.002874 298.8 39.4
374(19) 0.002674 298.9 44.3
367(19) 0.002725 298.9 50.1
376(19) 0.002660 299.0 57.0
360(19) 0.002778 299.0 65.1
381(20) 0.002625 299.1 74.2
394(20) 0.002538 299.1 84.1
423(21) 0.002364 299.2 94.4
464(22) 0.002155 299.2 104.5
445(21) 0.002247 299.3 113.3
492(22) 0.002033 299.3 119.6
453(21) 0.002208 299.4 122.5
458(21) 0.002183 299.4 121.4
423(21) 0.002364 299.5 116.6
489(22) 0.002045 299.5 109.1
405(20) 0.002469 299.6 100.1
352(19) 0.002841 299.6 90.7
408(20) 0.002451 299.7 81.5
393(20) 0.002545 299.7 73.2
354(19) 0.002825 299.8 65.9
370(19) 0.002703 299.8 59.7
357(19) 0.002801 299.9 54.7
327(18) 0.003058 299.9 50.7
383(20) 0.002611 300.0 47.8
358(19) 0.002793 300.1 45.7
367(19) 0.002725 300.1 44.3
367(19) 0.002725 300.2 43.6
341(18) 0.002933 300.2 43.4
363(19) 0.002755 300.3 43.6
373(19) 0.002681 300.3 44.3
335(18) 0.002985 300.4 45.4
373(19) 0.002681 300.4 46.9
351(19) 0.002849 300.5 48.8
329(18) 0.003039 300.5 51.2
354(19) 0.002825 300.6 53.9
366(19) 0.002732 300.6 57.1
383(20) 0.002611 300.7 60.8
378(19) 0.002646 300.7 65.0
375(19) 0.002667 300.8 69.8
386(20) 0.002591 300.8 75.0
429(21) 0.002331 300.9 80.7
396(20) 0.002525 300.9 86.8
425(21) 0.002353 301.0 93.3
441(21) 0.002268 301.0 100.0
419(20) 0.002387 301.1 106.8
430(21) 0.002326 301.1 113.4
425(21) 0.002353 301.2 119.7
451(21) 0.002217 301.2 125.2
451(21) 0.002217 301.3 129.7
450(21) 0.002222 301.3 133.0
464(22) 0.002155 301.4 134.8
455(21) 0.002198 301.4 135.2
429(21) 0.002331 301.5 134.3
422(21) 0.002370 301.5 132.4
414(20) 0.002415 301.6 129.8
447(21) 0.002237 301.6 126.8
421(21) 0.002375 301.7 123.8
430(21) 0.002326 301.8 121.0
446(21) 0.002242 301.8 118.7
439(21) 0.002278 301.9 116.9
447(21) 0.002237 301.9 115.8
429(21) 0.002331 302.0 115.4
457(21) 0.002188 302.0 115.9
391(20) 0.002558 302.1 117.4
443(21) 0.002257 302.1 119.7
475(22) 0.002105 302.2 122.9
439(21) 0.002278 302.2 127.1
452(21) 0.002212 302.3 132.2
461(21) 0.002169 302.3 138.2
469(22) 0.002132 302.4 145.2
442(21) 0.002262 302.4 153.0
486(22) 0.002058 302.5 161.7
467(22) 0.002141 302.5 171.1
497(22) 0.002012 302.6 181.4
524(23) 0.001908 302.6 192.4
549(23) 0.001822 302.7 204.2
482(22) 0.002075 302.7 216.6
520(23) 0.001923 302.8 229.5
576(24) 0.001736 302.8 243.0
640(25) 0.001563 302.9 256.9
578(24) 0.001730 302.9 271.1
638(25) 0.001567 303.0 285.4
652(26) 0.001534 303.0 299.8
683(26) 0.001464 303.1 314.0
682(26) 0.001466 303.1 327.7
745(27) 0.001342 303.2 340.9
754(27) 0.001326 303.2 353.2
783(28) 0.001277 303.3 364.4
748(27) 0.001337 303.3 374.1
770(28) 0.001299 303.4 382.3
724(27) 0.001381 303.4 388.6
747(27) 0.001339 303.5 392.9
781(28) 0.001280 303.6 395.2
741(27) 0.001350 303.6 395.3
751(27) 0.001332 303.7 393.5
738(27) 0.001355 303.7 389.7
728(27) 0.001374 303.8 384.2
713(27) 0.001403 303.8 377.3
708(27) 0.001412 303.9 369.1
725(27) 0.001379 303.9 360.0
691(26) 0.001447 304.0 350.0
661(26) 0.001513 304.0 339.6
604(25) 0.001656 304.1 328.7
617(25) 0.001621 304.1 317.8
641(25) 0.001560 304.2 306.8
593(24) 0.001686 304.2 295.9
637(25) 0.001570 304.3 285.1
605(25) 0.001653 304.3 274.7
580(24) 0.001724 304.4 264.5
581(24) 0.001721 304.4 254.8
550(23) 0.001818 304.5 245.4
556(24) 0.001799 304.5 236.4
578(24) 0.001730 304.6 227.9
626(25) 0.001597 304.6 219.7
620(25) 0.001613 304.7 212.0
582(24) 0.001718 304.7 204.6
558(24) 0.001792 304.8 197.7
531(23) 0.001883 304.8 191.1
560(24) 0.001786 304.9 184.8
548(23) 0.001825 304.9 178.9
531(23) 0.001883 305.0 173.3
502(22) 0.001992 305.0 167.9
502(22) 0.001992 305.1 162.8
524(23) 0.001908 305.1 157.9
496(22) 0.002016 305.2 153.2
495(22) 0.002020 305.2 148.8
511(23) 0.001957 305.3 144.5
500(22) 0.002000 305.4 140.4
469(22) 0.002132 305.4 136.4
468(22) 0.002137 305.5 132.6
459(21) 0.002179 305.5 128.9
506(22) 0.001976 305.6 125.4
460(21) 0.002174 305.6 121.9
436(21) 0.002294 305.7 118.6
450(21) 0.002222 305.7 115.4
430(21) 0.002326 305.8 112.3
427(21) 0.002342 305.8 109.3
424(21) 0.002358 305.9 106.5
434(21) 0.002304 305.9 103.7
432(21) 0.002315 306.0 101.0
382(20) 0.002618 306.0 98.5
411(20) 0.002433 306.1 96.0
404(20) 0.002475 306.1 93.7
425(21) 0.002353 306.2 91.4
413(20) 0.002421 306.2 89.3
406(20) 0.002463 306.3 87.3
378(19) 0.002646 306.3 85.4
363(19) 0.002755 306.4 83.6
401(20) 0.002494 306.4 82.0
387(20) 0.002584 306.5 80.5
369(19) 0.002710 306.5 79.1
359(19) 0.002786 306.6 77.8
356(19) 0.002809 306.6 76.6
394(20) 0.002538 306.7 75.7
360(19) 0.002778 306.7 74.8
374(19) 0.002674 306.8 74.0
416(20) 0.002404 306.8 73.4
397(20) 0.002519 306.9 72.9
373(19) 0.002681 306.9 72.6
397(20) 0.002519 307.0 72.4
362(19) 0.002762 307.1 72.3
363(19) 0.002755 307.1 72.3
403(20) 0.002481 307.2 72.5
377(19) 0.002653 307.2 72.9
371(19) 0.002695 307.3 73.3
377(19) 0.002653 307.3 73.9
367(19) 0.002725 307.4 74.6
375(19) 0.002667 307.4 75.4
393(20) 0.002545 307.5 76.4
355(19) 0.002817 307.5 77.4
390(20) 0.002564 307.6 78.5
389(20) 0.002571 307.6 79.7
383(20) 0.002611 307.7 81.0
367(19) 0.002725 307.7 82.4
385(20) 0.002597 307.8 83.8
433(21) 0.002309 307.8 85.2
404(20) 0.002475 307.9 86.7
375(19) 0.002667 307.9 88.2
394(20) 0.002538 308.0 89.6
380(19) 0.002632 308.0 91.0
409(20) 0.002445 308.1 92.4
382(20) 0.002618 308.1 93.7
436(21) 0.002294 308.2 94.9
408(20) 0.002451 308.2 96.1
392(20) 0.002551 308.3 97.2
415(20) 0.002410 308.3 98.2
418(20) 0.002392 308.4 99.2
401(20) 0.002494 308.4 100.1
410(20) 0.002439 308.5 100.9
398(20) 0.002513 308.5 101.6
459(21) 0.002179 308.6 102.4
397(20) 0.002519 308.6 103.0
414(20) 0.002415 308.7 103.7
393(20) 0.002545 308.7 104.2
435(21) 0.002299 308.8 104.8
434(21) 0.002304 308.9 105.3
462(21) 0.002164 308.9 105.8
418(20) 0.002392 309.0 106.2
420(20) 0.002381 309.0 106.6
414(20) 0.002415 309.1 106.9
427(21) 0.002342 309.1 107.1
444(21) 0.002252 309.2 107.4
424(21) 0.002358 309.2 107.5
396(20) 0.002525 309.3 107.6
424(21) 0.002358 309.3 107.6
423(21) 0.002364 309.4 107.6
395(20) 0.002532 309.4 107.5
375(19) 0.002667 309.5 107.4
454(21) 0.002203 309.5 107.2
416(20) 0.002404 309.6 106.9
423(21) 0.002364 309.6 106.7
440(21) 0.002273 309.7 106.3
403(20) 0.002481 309.7 106.0
405(20) 0.002469 309.8 105.6
422(21) 0.002370 309.8 105.2
401(20) 0.002494 309.9 104.8
409(20) 0.002445 309.9 104.4
392(20) 0.002551 310.0 104.0
431(21) 0.002320 310.0 103.6
403(20) 0.002481 310.1 103.3
403(20) 0.002481 310.1 103.0
411(20) 0.002433 310.2 102.8
413(20) 0.002421 310.2 102.7
377(19) 0.002653 310.3 102.6
422(21) 0.002370 310.3 102.7
388(20) 0.002577 310.4 103.0
446(21) 0.002242 310.4 103.5
434(21) 0.002304 310.5 104.3
442(21) 0.002262 310.6 105.4
429(21) 0.002331 310.6 107.0
442(21) 0.002262 310.7 109.3
447(21) 0.002237 310.7 112.3
421(21) 0.002375 310.8 116.3
478(22) 0.002092 310.8 121.6
445(21) 0.002247 310.9 128.3
464(22) 0.002155 310.9 136.6
469(22) 0.002132 311.0 146.8
485(22) 0.002062 311.0 158.9
481(22) 0.002079 311.1 172.9
513(23) 0.001949 311.1 188.6
585(24) 0.001709 311.2 205.4
604(25) 0.001656 311.2 222.6
669(26) 0.001495 311.3 238.9
690(26) 0.001449 311.3 252.3
704(27) 0.001420 311.4 261.2
685(26) 0.001460 311.4 263.9
659(26) 0.001517 311.5 260.2
655(26) 0.001527 311.5 250.9
657(26) 0.001522 311.6 237.9
586(24) 0.001706 311.6 223.1
536(23) 0.001866 311.7 208.3
557(24) 0.001795 311.7 194.5
526(23) 0.001901 311.8 182.5
497(22) 0.002012 311.8 172.6
510(23) 0.001961 311.9 164.8
512(23) 0.001953 311.9 159.1
465(22) 0.002151 312.0 155.2
498(22) 0.002008 312.0 152.6
490(22) 0.002041 312.1 150.8
439(21) 0.002278 312.1 149.2
479(22) 0.002088 312.2 147.2
461(21) 0.002169 312.2 144.5
442(21) 0.002262 312.3 141.1
441(21) 0.002268 312.4 137.0
440(21) 0.002273 312.4 132.6
442(21) 0.002262 312.5 128.0
438(21) 0.002283 312.5 123.6
428(21) 0.002336 312.6 119.5
388(20) 0.002577 312.6 115.9
410(20) 0.002439 312.7 112.7
406(20) 0.002463 312.7 110.1
381(20) 0.002625 312.8 107.9
408(20) 0.002451 312.8 106.3
424(21) 0.002358 312.9 105.1
394(20) 0.002538 312.9 104.3
414(20) 0.002415 313.0 103.9
408(20) 0.002451 313.0 103.8
394(20) 0.002538 313.1 104.0
368(19) 0.002717 313.1 104.3
417(20) 0.002398 313.2 104.9
407(20) 0.002457 313.2 105.6
402(20) 0.002488 313.3 106.4
407(20) 0.002457 313.3 107.2
380(19) 0.002632 313.4 108.2
430(21) 0.002326 313.4 109.1
404(20) 0.002475 313.5 110.1
422(21) 0.002370 313.5 111.1
423(21) 0.002364 313.6 112.0
434(21) 0.002304 313.6 113.0
420(20) 0.002381 313.7 113.9
400(20) 0.002500 313.7 114.7
382(20) 0.002618 313.8 115.5
422(21) 0.002370 313.8 116.3
416(20) 0.002404 313.9 117.1
405(20) 0.002469 313.9 118.0
420(20) 0.002381 314.0 118.9
403(20) 0.002481 314.0 119.9
414(20) 0.002415 314.1 121.0
409(20) 0.002445 314.2 122.4
442(21) 0.002262 314.2 124.0
443(21) 0.002257 314.3 125.9
400(20) 0.002500 314.3 128.1
407(20) 0.002457 314.4 130.7
410(20) 0.002439 314.4 133.7
407(20) 0.002457 314.5 137.1
481(22) 0.002079 314.5 140.7
430(21) 0.002326 314.6 144.6
467(22) 0.002141 314.6 148.6
475(22) 0.002105 314.7 152.4
478(22) 0.002092 314.7 156.0
478(22) 0.002092 314.8 159.3
491(22) 0.002037 314.8 162.2
498(22) 0.002008 314.9 165.2
501(22) 0.001996 314.9 168.7
537(23) 0.001862 315.0 173.3
500(22) 0.002000 315.0 179.8
533(23) 0.001876 315.1 188.9
584(24) 0.001712 315.1 200.9
581(24) 0.001721 315.2 216.2
620(25) 0.001613 315.2 234.3
642(25) 0.001558 315.3 254.2
646(25) 0.001548 315.3 273.4
641(25) 0.001560 315.4 288.4
675(26) 0.001481 315.4 295.7
641(25) 0.001560 315.5 294.1
665(26) 0.001504 315.5 285.6
647(25) 0.001546 315.6 273.5
646(25) 0.001548 315.6 260.7
615(25) 0.001626 315.7 248.9
581(24) 0.001721 315.7 238.6
630(25) 0.001587 315.8 230.0
602(25) 0.001661 315.9 222.7
617(25) 0.001621 315.9 216.3
594(24) 0.001684 316.0 210.5
621(25) 0.001610 316.0 205.1
607(25) 0.001647 316.1 199.9
541(23) 0.001848 316.1 194.9
514(23) 0.001946 316.2 190.3
530(23) 0.001887 316.2 186.1
474(22) 0.002110 316.3 182.5
511(23) 0.001957 316.3 179.7
514(23) 0.001946 316.4 177.8
496(22) 0.002016 316.4 177.0
458(21) 0.002183 316.5 177.3
532(23) 0.001880 316.5 178.8
478(22) 0.002092 316.6 181.5
482(22) 0.002075 316.6 185.6
500(22) 0.002000 316.7 190.9
498(22) 0.002008 316.7 197.4
521(23) 0.001919 316.8 205.1
510(23) 0.001961 316.8 214.0
531(23) 0.001883 316.9 223.8
534(23) 0.001873 316.9 234.5
562(24) 0.001779 317.0 245.8
537(23) 0.001862 317.0 257.5
635(25) 0.001575 317.1 269.4
600(24) 0.001667 317.1 281.0
599(24) 0.001669 317.2 292.1
609(25) 0.001642 317.2 302.2
623(25) 0.001605 317.3 310.9
588(24) 0.001701 317.3 317.9
590(24) 0.001695 317.4 322.7
625(25) 0.001600 317.4 325.0
610(25) 0.001639 317.5 324.7
582(24) 0.001718 317.5 321.6
598(24) 0.001672 317.6 315.8
562(24) 0.001779 317.7 307.4
580(24) 0.001724 317.7 296.8
570(24) 0.001754 317.8 284.3
548(23) 0.001825 317.8 270.4
566(24) 0.001767 317.9 255.6
540(23) 0.001852 317.9 240.2
528(23) 0.001894 318.0 224.7
513(23) 0.001949 318.0 209.2
467(22) 0.002141 318.1 194.2
440(21) 0.002273 318.1 179.7
461(21) 0.002169 318.2 166.0
437(21) 0.002288 318.2 153.0
438(21) 0.002283 318.3 140.9
434(21) 0.002304 318.3 129.7
412(20) 0.002427 318.4 119.4
392(20) 0.002551 318.4 110.0
402(20) 0.002488 318.5 101.5
403(20) 0.002481 318.5 93.9
399(20) 0.002506 318.6 87.0
392(20) 0.002551 318.6 81.0
365(19) 0.002740 318.7 75.7
381(20) 0.002625 318.7 71.0
362(19) 0.002762 318.8 66.9
364(19) 0.002747 318.8 63.4
367(19) 0.002725 318.9 60.5
375(19) 0.002667 318.9 57.9
374(19) 0.002674 319.0 55.8
372(19) 0.002688 319.0 54.1
372(19) 0.002688 319.1 52.8
363(19) 0.002755 319.1 51.7
354(19) 0.002825 319.2 50.9
351(19) 0.002849 319.2 50.4
357(19) 0.002801 319.3 50.1
371(19) 0.002695 319.4 50.0
378(19) 0.002646 319.4 50.1
361(19) 0.002770 319.5 50.4
346(19) 0.002890 319.5 50.8
343(19) 0.002915 319.6 51.3
346(19) 0.002890 319.6 51.9
336(18) 0.002976 319.7 52.5
332(18) 0.003012 319.7 53.1
381(20) 0.002625 319.8 53.7
365(19) 0.002740 319.8 54.2
387(20) 0.002584 319.9 54.6
341(18) 0.002933 319.9 54.9
361(19) 0.002770 320.0 55.0
334(18) 0.002994 320.0 54.8
333(18) 0.003003 320.1 54.4
348(19) 0.002874 320.1 53.8
342(18) 0.002924 320.2 53.0
330(18) 0.003030 320.2 52.1
341(18) 0.002933 320.3 50.9
385(20) 0.002597 320.3 49.7
375(19) 0.002667 320.4 48.4
325(18) 0.003077 320.4 47.1
302(17) 0.003311 320.5 45.7
348(19) 0.002874 320.5 44.4
344(19) 0.002907 320.6 43.1
333(18) 0.003003 320.6 41.9
359(19) 0.002786 320.7 40.8
349(19) 0.002865 320.7 39.8
334(18) 0.002994 320.8 38.8
321(18) 0.003115 320.8 38.0
359(19) 0.002786 320.9 37.3
361(19) 0.002770 320.9 36.6
336(18) 0.002976 321.0 36.2
361(19) 0.002770 321.1 35.8
365(19) 0.002740 321.1 35.5
307(18) 0.003257 321.2 35.4
327(18) 0.003058 321.3 35.4
343(19) 0.002915 321.4 35.5
350(19) 0.002857 321.4 35.8
368(19) 0.002717 321.5 36.1
346(19) 0.002890 321.6 36.6
344(19) 0.002907 321.6 37.3
359(19) 0.002786 321.7 38.1
347(19) 0.002882 321.8 39.1
373(19) 0.002681 321.9 40.2
366(19) 0.002732 321.9 41.5
348(19) 0.002874 322.0 43.0
358(19) 0.002793 322.1 44.7
367(19) 0.002725 322.1 46.6
375(19) 0.002667 322.2 48.7
337(18) 0.002967 322.3 51.1
364(19) 0.002747 322.4 53.8
331(18) 0.003021 322.4 56.7
378(19) 0.002646 322.5 60.0
370(19) 0.002703 322.6 63.5
384(20) 0.002604 322.6 67.4
409(20) 0.002445 322.7 71.7
400(20) 0.002500 322.8 76.3
411(20) 0.002433 322.9 81.3
388(20) 0.002577 322.9 86.7
429(21) 0.002331 323.0 92.4
370(19) 0.002703 323.1 98.6
408(20) 0.002451 323.1 105.1
403(20) 0.002481 323.2 112.0
452(21) 0.002212 323.3 119.3
440(21) 0.002273 323.4 126.9
464(22) 0.002155 323.4 134.9
473(22) 0.002114 323.5 143.1
464(22) 0.002155 323.6 151.5
480(22) 0.002083 323.6 160.1
484(22) 0.002066 323.7 168.8
502(22) 0.001992 323.8 177.6
498(22) 0.002008 323.9 186.2
524(23) 0.001908 323.9 194.7
514(23) 0.001946 324.0 202.9
542(23) 0.001845 324.1 210.6
560(24) 0.001786 324.1 217.8
536(23) 0.001866 324.2 224.2
571(24) 0.001751 324.3 229.6
548(23) 0.001825 324.4 234.1
548(23) 0.001825 324.4 237.4
534(23) 0.001873 324.5 239.4
580(24) 0.001724 324.6 240.1
538(23) 0.001859 324.6 239.4
514(23) 0.001946 324.7 237.5
544(23) 0.001838 324.8 234.2
473(22) 0.002114 324.9 229.8
500(22) 0.002000 324.9 224.4
468(22) 0.002137 325.0 218.1
469(22) 0.002132 325.1 211.0
462(21) 0.002164 325.1 203.3
491(22) 0.002037 325.2 195.2
499(22) 0.002004 325.3 186.7
461(21) 0.002169 325.4 178.1
458(21) 0.002183 325.4 169.4
428(21) 0.002336 325.5 160.8
453(21) 0.002208 325.6 152.2
444(21) 0.002252 325.6 143.8
416(20) 0.002404 325.7 135.7
426(21) 0.002347 325.8 127.8
414(20) 0.002415 325.9 120.2
394(20) 0.002538 325.9 113.0
408(20) 0.002451 326.0 106.1
389(20) 0.002571 326.1 99.7
375(19) 0.002667 326.2 93.6
410(20) 0.002439 326.2 87.9
386(20) 0.002591 326.3 82.6
427(21) 0.002342 326.4 77.7
380(19) 0.002632 326.4 73.2
369(19) 0.002710 326.5 69.0
391(20) 0.002558 326.6 65.2
386(20) 0.002591 326.7 61.7
360(19) 0.002778 326.7 58.6
409(20) 0.002445 326.8 55.7
387(20) 0.002584 326.9 53.2
379(19) 0.002639 326.9 50.9
357(19) 0.002801 327.0 48.9
380(19) 0.002632 327.1 47.1
358(19) 0.002793 327.2 45.5
356(19) 0.002809 327.2 44.2
377(19) 0.002653 327.3 43.0
345(19) 0.002899 327.4 42.1
365(19) 0.002740 327.4 41.3
398(20) 0.002513 327.5 40.7
353(19) 0.002833 327.6 40.2
349(19) 0.002865 327.7 39.9
368(19) 0.002717 327.7 39.7
383(20) 0.002611 327.8 39.7
399(20) 0.002506 327.9 39.9
363(19) 0.002755 327.9 40.3
383(20) 0.002611 328.0 40.8
366(19) 0.002732 328.1 41.5
387(20) 0.002584 328.2 42.4
374(19) 0.002674 328.2 43.5
398(20) 0.002513 328.3 44.9
381(20) 0.002625 328.4 46.6
361(19) 0.002770 328.4 48.5
392(20) 0.002551 328.5 50.8
357(19) 0.002801 328.6 53.4
392(20) 0.002551 328.7 56.3
386(20) 0.002591 328.7 59.7
405(20) 0.002469 328.8 63.4
390(20) 0.002564 328.9 67.6
409(20) 0.002445 328.9 72.2
436(21) 0.002294 329.0 77.2
414(20) 0.002415 329.1 82.7
434(21) 0.002304 329.2 88.6
454(21) 0.002203 329.2 94.9
433(21) 0.002309 329.3 101.6
456(21) 0.002193 329.4 108.5
473(22) 0.002114 329.4 115.8
458(21) 0.002183 329.5 123.1
472(22) 0.002119 329.6 130.5
441(21) 0.002268 329.7 137.8
473(22) 0.002114 329.7 144.9
508(23) 0.001968 329.8 151.4
506(22) 0.001976 329.9 157.3
538(23) 0.001859 329.9 162.2
515(23) 0.001942 330.0 166.1
498(22) 0.002008 330.1 168.7
529(23) 0.001890 330.2 169.9
499(22) 0.002004 330.2 169.7
516(23) 0.001938 330.3 168.2
488(22) 0.002049 330.4 165.4
506(22) 0.001976 330.4 161.4
491(22) 0.002037 330.5 156.7
525(23) 0.001905 330.6 151.3
501(22) 0.001996 330.7 145.4
435(21) 0.002299 330.7 139.4
442(21) 0.002262 330.8 133.2
440(21) 0.002273 330.9 127.2
458(21) 0.002183 331.0 121.3
488(22) 0.002049 331.0 115.8
420(20) 0.002381 331.1 110.6
410(20) 0.002439 331.2 105.9
431(21) 0.002320 331.2 101.7
410(20) 0.002439 331.3 97.9
390(20) 0.002564 331.4 94.6
417(20) 0.002398 331.5 91.9
417(20) 0.002398 331.5 89.6
418(20) 0.002392 331.6 87.8
417(20) 0.002398 331.7 86.5
441(21) 0.002268 331.7 85.6
423(21) 0.002364 331.8 85.2
424(21) 0.002358 331.9 85.1
407(20) 0.002457 332.0 85.4
458(21) 0.002183 332.0 86.0
429(21) 0.002331 332.1 86.8
438(21) 0.002283 332.2 87.9
427(21) 0.002342 332.2 89.2
435(21) 0.002299 332.3 90.7
454(21) 0.002203 332.4 92.3
459(21) 0.002179 332.5 94.0
438(21) 0.002283 332.5 95.7
456(21) 0.002193 332.6 97.5
454(21) 0.002203 332.7 99.2
507(23) 0.001972 332.7 100.9
454(21) 0.002203 332.8 102.5
470(22) 0.002128 332.9 103.9
440(21) 0.002273 333.0 105.2
482(22) 0.002075 333.0 106.4
439(21) 0.002278 333.1 107.2
441(21) 0.002268 333.2 107.9
464(22) 0.002155 333.2 108.3
493(22) 0.002028 333.3 108.5
464(22) 0.002155 333.4 108.3
453(21) 0.002208 333.5 108.0
429(21) 0.002331 333.5 107.3
484(22) 0.002066 333.6 106.3
435(21) 0.002299 333.7 105.2
470(22) 0.002128 333.7 103.8
487(22) 0.002053 333.8 102.2
422(21) 0.002370 333.9 100.4
441(21) 0.002268 334.0 98.5
431(21) 0.002320 334.0 96.4
423(21) 0.002364 334.1 94.3
405(20) 0.002469 334.2 92.1
417(20) 0.002398 334.2 89.9
404(20) 0.002475 334.3 87.6
446(21) 0.002242 334.4 85.3
372(19) 0.002688 334.5 83.1
407(20) 0.002457 334.5 80.9
392(20) 0.002551 334.6 78.8
390(20) 0.002564 334.7 76.7
422(21) 0.002370 334.7 74.8
389(20) 0.002571 334.8 72.9
344(19) 0.002907 334.9 71.2
364(19) 0.002747 335.0 69.6
392(20) 0.002551 335.0 68.1
383(20) 0.002611 335.1 66.7
377(19) 0.002653 335.2 65.6
391(20) 0.002558 335.2 64.5
361(19) 0.002770 335.3 63.6
360(19) 0.002778 335.4 62.9
357(19) 0.002801 335.5 62.4
382(20) 0.002618 335.5 62.0
394(20) 0.002538 335.6 61.8
358(19) 0.002793 335.7 61.7
389(20) 0.002571 335.7 61.9
340(18) 0.002941 335.8 62.2
345(19) 0.002899 335.9 62.7
372(19) 0.002688 336.0 63.3
391(20) 0.002558 336.0 64.2
396(20) 0.002525 336.1 65.1
372(19) 0.002688 336.2 66.3
345(19) 0.002899 336.3 67.6
363(19) 0.002755 336.3 69.0
369(19) 0.002710 336.4 70.6
433(21) 0.002309 336.5 72.3
386(20) 0.002591 336.5 74.1
411(20) 0.002433 336.6 76.1
391(20) 0.002558 336.7 78.1
385(20) 0.002597 336.8 80.3
402(20) 0.002488 336.8 82.6
414(20) 0.002415 336.9 84.9
402(20) 0.002488 337.0 87.3
417(20) 0.002398 337.0 89.8
430(21) 0.002326 337.1 92.3
446(21) 0.002242 337.2 94.8
428(21) 0.002336 337.3 97.3
432(21) 0.002315 337.3 99.8
459(21) 0.002179 337.4 102.2
450(21) 0.002222 337.5 104.6
452(21) 0.002212 337.5 106.9
439(21) 0.002278 337.6 109.0
465(22) 0.002151 337.7 111.0
451(21) 0.002217 337.8 112.9
466(22) 0.002146 337.8 114.6
467(22) 0.002141 337.9 116.0
454(21) 0.002203 338.0 117.2
475(22) 0.002105 338.0 118.2
438(21) 0.002283 338.1 118.9
436(21) 0.002294 338.2 119.3
447(21) 0.002237 338.3 119.4
440(21) 0.002273 338.3 119.2
431(21) 0.002320 338.4 118.7
437(21) 0.002288 338.5 118.0
434(21) 0.002304 338.5 116.9
491(22) 0.002037 338.6 115.7
448(21) 0.002232 338.7 114.1
454(21) 0.002203 338.8 112.4
423(21) 0.002364 338.8 110.4
408(20) 0.002451 338.9 108.3
444(21) 0.002252 339.0 106.0
448(21) 0.002232 339.0 103.6
409(20) 0.002445 339.1 101.1
424(21) 0.002358 339.2 98.5
417(20) 0.002398 339.3 95.9
404(20) 0.002475 339.3 93.2
423(21) 0.002364 339.4 90.5
431(21) 0.002320 339.5 87.8
407(20) 0.002457 339.5 85.1
414(20) 0.002415 339.6 82.4
427(21) 0.002342 339.7 79.8
404(20) 0.002475 339.8 77.2
378(19) 0.002646 339.8 74.7
426(21) 0.002347 339.9 72.2
415(20) 0.002410 340.0 69.8
414(20) 0.002415 340.0 67.5
422(21) 0.002370 340.1 65.2
373(19) 0.002681 340.2 63.1
376(19) 0.002660 340.3 61.0
382(20) 0.002618 340.3 59.1
397(20) 0.002519 340.4 57.2
393(20) 0.002545 340.5 55.4
373(19) 0.002681 340.5 53.7
387(20) 0.002584 340.6 52.1
371(19) 0.002695 340.7 50.6
394(20) 0.002538 340.8 49.3
352(19) 0.002841 340.8 48.0
426(21) 0.002347 340.9 46.8
392(20) 0.002551 341.0 45.7
372(19) 0.002688 341.1 44.6
379(19) 0.002639 341.1 43.7
365(19) 0.002740 341.2 42.9
365(19) 0.002740 341.3 42.1
376(19) 0.002660 341.3 41.4
375(19) 0.002667 341.4 40.8
377(19) 0.002653 341.5 40.3
385(20) 0.002597 341.6 39.8
384(20) 0.002604 341.6 39.5
368(19) 0.002717 341.7 39.1
371(19) 0.002695 341.8 38.9
364(19) 0.002747 341.8 38.7
375(19) 0.002667 341.9 38.6
353(19) 0.002833 342.0 38.5
364(19) 0.002747 342.1 38.6
314(18) 0.003185 342.1 38.6
360(19) 0.002778 342.2 38.7
355(19) 0.002817 342.3 38.9
365(19) 0.002740 342.3 39.2
359(19) 0.002786 342.4 39.5
367(19) 0.002725 342.5 39.8
363(19) 0.002755 342.5 40.2
332(18) 0.003012 342.4 40.7
363(19) 0.002755 342.4 41.2
369(19) 0.002710 342.3 41.7
364(19) 0.002747 342.3 42.3
362(19) 0.002762 342.2 43.0
364(19) 0.002747 342.2 43.7
327(18) 0.003058 342.1 44.4
347(19) 0.002882 342.0 45.3
371(19) 0.002695 342.0 46.1
379(19) 0.002639 341.9 47.0
349(19) 0.002865 341.9 47.9
353(19) 0.002833 341.8 48.9
378(19) 0.002646 341.8 49.9
349(19) 0.002865 341.7 51.0
337(18) 0.002967 341.7 52.0
352(19) 0.002841 341.6 53.1
352(19) 0.002841 341.6 54.2
348(19) 0.002874 341.5 55.4
368(19) 0.002717 341.4 56.5
387(20) 0.002584 341.4 57.7
356(19) 0.002809 341.3 58.9
366(19) 0.002732 341.3 60.1
386(20) 0.002591 341.2 61.3
386(20) 0.002591 341.2 62.5
384(20) 0.002604 341.1 63.7
382(20) 0.002618 341.1 65.0
424(21) 0.002358 341.0 66.2
408(20) 0.002451 340.9 67.5
377(19) 0.002653 340.9 68.8
409(20) 0.002445 340.8 70.1
404(20) 0.002475 340.8 71.5
405(20) 0.002469 340.7 72.9
389(20) 0.002571 340.7 74.3
385(20) 0.002597 340.6 75.8
382(20) 0.002618 340.6 77.3
377(19) 0.002653 340.5 78.9
382(20) 0.002618 340.4 80.5
410(20) 0.002439 340.4 82.3
398(20) 0.002513 340.3 84.0
406(20) 0.002463 340.3 85.9
402(20) 0.002488 340.2 87.9
412(20) 0.002427 340.2 89.9
407(20) 0.002457 340.1 92.1
419(20) 0.002387 340.1 94.4
386(20) 0.002591 340.0 96.8
401(20) 0.002494 339.9 99.5
446(21) 0.002242 339.9 102.5
443(21) 0.002257 339.8 106.0
405(20) 0.002469 339.8 110.0
416(20) 0.002404 339.7 115.0
422(21) 0.002370 339.7 121.4
438(21) 0.002283 339.6 129.6
455(21) 0.002198 339.6 140.2
509(23) 0.001965 339.5 153.9
487(22) 0.002053 339.4 171.1
530(23) 0.001887 339.4 191.7
527(23) 0.001898 339.3 215.0
512(23) 0.001953 339.3 239.1
532(23) 0.001880 339.2 260.1
579(24) 0.001727 339.2 272.6
540(23) 0.001852 339.1 272.2
544(23) 0.001838 339.1 259.3
524(23) 0.001908 339.0 238.5
529(23) 0.001890 339.0 215.0
503(22) 0.001988 338.9 192.5
499(22) 0.002004 338.8 172.9
469(22) 0.002132 338.8 156.8
449(21) 0.002227 338.7 144.0
438(21) 0.002283 338.7 134.1
436(21) 0.002294 338.6 126.5
459(21) 0.002179 338.6 120.7
441(21) 0.002268 338.5 116.1
432(21) 0.002315 338.5 112.4
436(21) 0.002294 338.4 109.2
446(21) 0.002242 338.3 106.4
428(21) 0.002336 338.3 103.7
442(21) 0.002262 338.2 101.2
438(21) 0.002283 338.2 98.9
426(21) 0.002347 338.1 96.6
416(20) 0.002404 338.1 94.3
409(20) 0.002445 338.0 92.1
434(21) 0.002304 338.0 90.0
417(20) 0.002398 337.9 87.9
411(20) 0.002433 337.8 85.8
416(20) 0.002404 337.8 83.7
417(20) 0.002398 337.7 81.7
400(20) 0.002500 337.7 79.7
380(19) 0.002632 337.6 77.8
384(20) 0.002604 337.6 75.9
380(19) 0.002632 337.5 74.0
360(19) 0.002778 337.5 72.1
383(20) 0.002611 337.4 70.3
350(19) 0.002857 337.3 68.5
353(19) 0.002833 337.3 66.8
378(19) 0.002646 337.2 65.1
371(19) 0.002695 337.2 63.5
397(20) 0.002519 337.1 61.9
360(19) 0.002778 337.1 60.3
373(19) 0.002681 337.0 58.8
337(18) 0.002967 337.0 57.4
319(18) 0.003135 336.9 56.0
373(19) 0.002681 336.8 54.6
357(19) 0.002801 336.8 53.3
368(19) 0.002717 336.7 52.1
344(19) 0.002907 336.7 50.9
370(19) 0.002703 336.6 49.7
349(19) 0.002865 336.6 48.6
343(19) 0.002915 336.5 47.5
364(19) 0.002747 336.5 46.6
348(19) 0.002874 336.4 45.6
340(18) 0.002941 336.3 44.7
379(19) 0.002639 336.3 43.9
364(19) 0.002747 336.2 43.1
359(19) 0.002786 336.2 42.3
362(19) 0.002762 336.1 41.6
376(19) 0.002660 336.1 41.0
365(19) 0.002740 336.0 40.4
350(19) 0.002857 336.0 39.8
376(19) 0.002660 335.9 39.3
339(18) 0.002950 335.9 38.8
328(18) 0.003049 335.8 38.4
358(19) 0.002793 335.7 38.1
350(19) 0.002857 335.7 37.8
369(19) 0.002710 335.6 37.5
331(18) 0.003021 335.6 37.3
362(19) 0.002762 335.5 37.1
356(19) 0.002809 335.5 37.0
361(19) 0.002770 335.4 37.0
343(19) 0.002915 335.4 37.0
330(18) 0.003030 335.3 37.1
333(18) 0.003003 335.2 37.3
375(19) 0.002667 335.2 37.6
367(19) 0.002725 335.1 37.9
359(19) 0.002786 335.1 38.4
360(19) 0.002778 335.0 39.0
375(19) 0.002667 335.0 39.7
356(19) 0.002809 334.9 40.6
374(19) 0.002674 334.9 41.7
378(19) 0.002646 334.8 43.2
377(19) 0.002653 334.7 45.0
369(19) 0.002710 334.7 47.3
416(20) 0.002404 334.6 50.4
451(21) 0.002217 334.6 54.5
419(20) 0.002387 334.5 60.1
425(21) 0.002353 334.5 67.5
443(21) 0.002257 334.4 77.5
497(22) 0.002012 334.4 90.5
467(22) 0.002141 334.3 107.0
493(22) 0.002028 334.2 127.3
544(23) 0.001838 334.2 151.5
549(23) 0.001822 334.1 178.5
565(24) 0.001770 334.1 206.6
600(24) 0.001667 334.0 232.6
607(25) 0.001647 334.0 251.7
613(25) 0.001631 333.9 259.0
578(24) 0.001730 333.9 252.3
579(24) 0.001727 333.8 233.5
561(24) 0.001783 333.7 207.5
497(22) 0.002012 333.7 179.1
514(23) 0.001946 333.6 151.7
465(22) 0.002151 333.6 127.1
456(21) 0.002193 333.5 106.3
424(21) 0.002358 333.5 89.3
405(20) 0.002469 333.4 75.8
438(21) 0.002283 333.4 65.4
393(20) 0.002545 333.3 57.5
374(19) 0.002674 333.2 51.5
348(19) 0.002874 333.2 47.0
366(19) 0.002732 333.1 43.5
358(19) 0.002793 333.1 40.8
354(19) 0.002825 333.0 38.6
372(19) 0.002688 333.0 36.9
379(19) 0.002639 332.9 35.4
336(18) 0.002976 332.9 34.1
375(19) 0.002667 332.8 32.9
372(19) 0.002688 332.8 32.0
352(19) 0.002841 332.7 31.1
366(19) 0.002732 332.6 30.3
373(19) 0.002681 332.6 29.7
344(19) 0.002907 332.5 29.1
375(19) 0.002667 332.5 28.5
366(19) 0.002732 332.4 28.0
341(18) 0.002933 332.4 27.6
341(18) 0.002933 332.3 27.2
348(19) 0.002874 332.3 26.8
363(19) 0.002755 332.2 26.5
353(19) 0.002833 332.1 26.2
382(20) 0.002618 332.1 26.0
367(19) 0.002725 332.0 25.8
340(18) 0.002941 332.0 25.6
387(20) 0.002584 331.9 25.5
321(18) 0.003115 331.9 25.4
354(19) 0.002825 331.8 25.4
394(20) 0.002538 331.8 25.4
348(19) 0.002874 331.7 25.5
371(19) 0.002695 331.6 25.8
381(20) 0.002625 331.6 26.2
395(20) 0.002532 331.5 26.8
352(19) 0.002841 331.5 27.7
360(19) 0.002778 331.4 29.0
411(20) 0.002433 331.4 30.8
396(20) 0.002525 331.3 33.1
396(20) 0.002525 331.3 36.0
425(21) 0.002353 331.2 39.4
368(19) 0.002717 331.1 43.2
413(20) 0.002421 331.1 47.0
405(20) 0.002469 331.0 50.1
390(20) 0.002564 331.0 51.9
379(19) 0.002639 330.9 51.7
403(20) 0.002481 330.9 49.5
368(19) 0.002717 330.8 46.1
417(20) 0.002398 330.8 42.1
391(20) 0.002558 330.7 38.1
372(19) 0.002688 330.6 34.6
358(19) 0.002793 330.6 31.6
385(20) 0.002597 330.5 29.2
374(19) 0.002674 330.5 27.3
357(19) 0.002801 330.4 25.9
356(19) 0.002809 330.4 24.8
341(18) 0.002933 330.3 24.1
361(19) 0.002770 330.3 23.5
349(19) 0.002865 330.2 23.1
370(19) 0.002703 330.1 22.8
345(19) 0.002899 330.1 22.6
344(19) 0.002907 330.0 22.5
370(19) 0.002703 330.0 22.4
353(19) 0.002833 329.9 22.4
356(19) 0.002809 329.9 22.4
342(18) 0.002924 329.8 22.4
321(18) 0.003115 329.8 22.5
329(18) 0.003039 329.7 22.6
346(19) 0.002890 329.7 22.7
355(19) 0.002817 329.6 22.8
335(18) 0.002985 329.5 23.0
355(19) 0.002817 329.3 23.2
338(18) 0.002959 329.2 23.4
367(19) 0.002725 329.1 23.7
352(19) 0.002841 328.9 23.9
355(19) 0.002817 328.8 24.2
360(19) 0.002778 328.7 24.5
343(19) 0.002915 328.6 24.9
331(18) 0.003021 328.4 25.2
329(18) 0.003039 328.3 25.6
355(19) 0.002817 328.2 26.0
361(19) 0.002770 328.1 26.4
342(18) 0.002924 327.9 26.9
371(19) 0.002695 327.8 27.4
353(19) 0.002833 327.7 27.9
323(18) 0.003096 327.5 28.4
333(18) 0.003003 327.4 29.0
385(20) 0.002597 327.3 29.6
316(18) 0.003165 327.2 30.2
366(19) 0.002732 327.0 30.9
346(19) 0.002890 326.9 31.6
359(19) 0.002786 326.8 32.4
346(19) 0.002890 326.7 33.2
349(19) 0.002865 326.5 34.0
321(18) 0.003115 326.4 34.9
334(18) 0.002994 326.3 35.9
357(19) 0.002801 326.2 37.0
391(20) 0.002558 326.0 38.1
397(20) 0.002519 325.9 39.4
420(20) 0.002381 325.8 40.7
380(19) 0.002632 325.6 42.3
383(20) 0.002611 325.5 43.9
387(20) 0.002584 325.4 45.8
352(19) 0.002841 325.3 47.9
334(18) 0.002994 325.1 50.3
377(19) 0.002653 325.0 53.0
392(20) 0.002551 324.9 56.1
396(20) 0.002525 324.8 59.5
387(20) 0.002584 324.6 63.3
382(20) 0.002618 324.5 67.6
447(21) 0.002237 324.4 72.4
388(20) 0.002577 324.3 77.6
414(20) 0.002415 324.1 83.4
367(19) 0.002725 324.0 89.5
405(20) 0.002469 323.9 96.1
385(20) 0.002597 323.7 102.9
425(21) 0.002353 323.6 109.8
395(20) 0.002532 323.5 116.6
428(21) 0.002336 323.4 123.1
419(20) 0.002387 323.2 128.9
421(21) 0.002375 323.1 134.0
452(21) 0.002212 323.0 137.9
450(21) 0.002222 322.9 140.7
448(21) 0.002232 322.7 142.1
445(21) 0.002247 322.6 142.0
459(21) 0.002179 322.5 140.3
422(21) 0.002370 322.4 137.1
449(21) 0.002227 322.2 132.5
418(20) 0.002392 322.1 126.9
399(20) 0.002506 322.0 120.6
393(20) 0.002545 321.8 114.0
398(20) 0.002513 321.7 107.3
417(20) 0.002398 321.6 100.8
373(19) 0.002681 321.5 94.6
422(21) 0.002370 321.3 88.9
381(20) 0.002625 321.2 83.7
378(19) 0.002646 321.1 79.1
342(18) 0.002924 321.0 74.9
361(19) 0.002770 320.8 71.3
390(20) 0.002564 320.7 68.1
368(19) 0.002717 320.6 65.4
345(19) 0.002899 320.5 63.0
350(19) 0.002857 320.3 61.0
371(19) 0.002695 320.2 59.3
389(20) 0.002571 320.1 57.8
367(19) 0.002725 319.9 56.5
379(19) 0.002639 319.8 55.3
360(19) 0.002778 319.7 54.3
321(18) 0.003115 319.6 53.4
335(18) 0.002985 319.4 52.7
353(19) 0.002833 319.3 52.0
355(19) 0.002817 319.2 51.3
332(18) 0.003012 319.1 50.7
329(18) 0.003039 318.9 50.2
361(19) 0.002770 318.8 49.7
374(19) 0.002674 318.7 49.3
344(19) 0.002907 318.5 48.9
340(18) 0.002941 318.4 48.5
361(19) 0.002770 318.3 48.2
331(18) 0.003021 318.2 47.8
338(18) 0.002959 318.0 47.6
337(18) 0.002967 317.9 47.3
338(18) 0.002959 317.8 47.1
350(19) 0.002857 317.7 46.9
344(19) 0.002907 317.5 46.7
334(18) 0.002994 317.4 46.5
345(19) 0.002899 317.3 46.4
293(17) 0.003413 317.2 46.2
328(18) 0.003049 317.0 46.1
354(19) 0.002825 316.9 46.1
343(19) 0.002915 316.8 46.0
366(19) 0.002732 316.8 45.9
342(18) 0.002924 317.1 45.9
305(17) 0.003279 317.4 45.8
305(17) 0.003279 317.6 45.8
314(18) 0.003185 317.9 45.8
322(18) 0.003106 318.2 45.8
334(18) 0.002994 318.4 45.7
348(19) 0.002874 318.7 45.7
319(18) 0.003135 318.9 45.7
338(18) 0.002959 319.2 45.7
325(18) 0.003077 319.5 45.7
334(18) 0.002994 319.7 45.7
340(18) 0.002941 320.0 45.6
344(19) 0.002907 320.3 45.6
358(19) 0.002793 320.5 45.6
324(18) 0.003086 320.8 45.6
327(18) 0.003058 321.1 45.5
347(19) 0.002882 321.3 45.5
309(18) 0.003236 321.6 45.5
320(18) 0.003125 321.8 45.5
326(18) 0.003067 322.1 45.5
352(19) 0.002841 322.4 45.5
314(18) 0.003185 322.6 45.5
360(19) 0.002778 322.9 45.5
349(19) 0.002865 323.2 45.5
353(19) 0.002833 323.4 45.6
344(19) 0.002907 323.7 45.7
342(18) 0.002924 324.0 45.8
338(18) 0.002959 324.2 45.9
320(18) 0.003125 324.5 46.1
354(19) 0.002825 324.7 46.4
336(18) 0.002976 325.0 46.6
351(19) 0.002849 325.3 47.0
370(19) 0.002703 325.5 47.3
345(19) 0.002899 325.8 47.8
310(18) 0.003226 326.1 48.3
338(18) 0.002959 326.3 48.9
365(19) 0.002740 326.6 49.6
349(19) 0.002865 326.9 50.4
383(20) 0.002611 327.1 51.4
338(18) 0.002959 327.4 52.4
332(18) 0.003012 327.6 53.8
354(19) 0.002825 327.9 55.3
338(18) 0.002959 328.2 57.3
368(19) 0.002717 328.4 59.7
372(19) 0.002688 328.7 62.7
365(19) 0.002740 329.0 66.6
377(19) 0.002653 329.2 71.5
399(20) 0.002506 329.5 77.6
357(19) 0.002801 329.7 85.1
372(19) 0.002688 330.0 94.1
397(20) 0.002519 330.3 104.6
391(20) 0.002558 330.5 116.1
415(20) 0.002410 330.8 128.1
421(21) 0.002375 331.1 139.4
459(21) 0.002179 331.3 148.1
417(20) 0.002398 331.6 152.7
440(21) 0.002273 331.9 152.0
428(21) 0.002336 332.1 146.7
436(21) 0.002294 332.4 138.3
406(20) 0.002463 332.6 128.8
416(20) 0.002404 332.9 119.4
413(20) 0.002421 333.2 111.0
398(20) 0.002513 333.4 104.0
399(20) 0.002506 333.7 98.4
406(20) 0.002463 334.0 94.3
424(21) 0.002358 334.2 91.5
390(20) 0.002564 334.5 89.7
424(21) 0.002358 334.8 88.9
420(20) 0.002381 335.0 88.7
391(20) 0.002558 335.3 89.1
417(20) 0.002398 335.5 89.9
400(20) 0.002500 335.8 91.0
445(21) 0.002247 336.1 92.4
399(20) 0.002506 336.3 94.0
378(19) 0.002646 336.6 95.9
428(21) 0.002336 336.9 97.9
428(21) 0.002336 337.1 100.2
459(21) 0.002179 337.4 102.8
416(20) 0.002404 337.7 105.8
431(21) 0.002320 337.9 109.3
455(21) 0.002198 338.2 113.4
457(21) 0.002188 338.4 118.3
416(20) 0.002404 338.7 124.2
429(21) 0.002331 339.0 131.5
508(23) 0.001968 339.2 140.3
449(21) 0.002227 339.5 151.1
509(23) 0.001965 339.8 164.1
521(23) 0.001919 340.0 179.6
530(23) 0.001887 340.3 197.8
533(23) 0.001876 340.6 218.6
579(24) 0.001727 340.8 242.0
562(24) 0.001779 341.1 267.3
592(24) 0.001689 341.3 293.8
635(25) 0.001575 341.6 319.8
648(25) 0.001543 341.9 343.4
640(25) 0.001563 342.1 361.9
656(26) 0.001524 342.4 372.9
616(25) 0.001623 342.7 375.1
601(25) 0.001664 342.9 368.8
576(24) 0.001736 343.2 356.2
617(25) 0.001621 343.4 340.0
615(25) 0.001626 343.7 323.2
584(24) 0.001712 344.0 307.9
542(23) 0.001845 344.2 295.7
526(23) 0.001901 344.5 287.2
577(24) 0.001733 344.8 282.3
539(23) 0.001855 345.0 280.2
541(23) 0.001848 345.3 279.3
538(23) 0.001859 345.6 277.3
579(24) 0.001727 345.8 272.2
537(23) 0.001862 346.1 262.6
532(23) 0.001880 346.3 248.8
499(22) 0.002004 346.6 232.4
502(22) 0.001992 346.9 215.3
456(21) 0.002193 347.1 198.9
480(22) 0.002083 347.4 184.3
500(22) 0.002000 347.7 171.8
461(21) 0.002169 347.9 161.7
465(22) 0.002151 348.2 154.0
460(21) 0.002174 348.5 148.5
439(21) 0.002278 348.7 144.8
472(22) 0.002119 349.0 142.8
449(21) 0.002227 349.2 142.1
483(22) 0.002070 349.5 142.5
465(22) 0.002151 349.8 143.5
456(21) 0.002193 350.0 145.1
439(21) 0.002278 350.3 147.0
463(22) 0.002160 350.6 149.0
435(21) 0.002299 350.8 151.1
426(21) 0.002347 351.1 153.2
427(21) 0.002342 351.4 155.2
485(22) 0.002062 351.6 157.1
442(21) 0.002262 351.9 158.9
475(22) 0.002105 352.1 160.7
475(22) 0.002105 352.4 162.4
456(21) 0.002193 352.7 163.9
470(22) 0.002128 352.9 165.3
473(22) 0.002114 353.2 166.5
445(21) 0.002247 353.5 167.4
501(22) 0.001996 353.7 167.8
501(22) 0.001996 354.0 167.8
473(22) 0.002114 354.2 167.1
503(22) 0.001988 354.5 165.8
453(21) 0.002208 354.8 163.9
480(22) 0.002083 355.0 161.2
511(23) 0.001957 355.3 158.0
509(23) 0.001965 355.6 154.2
464(22) 0.002155 355.8 149.9
485(22) 0.002062 356.1 145.3
455(21) 0.002198 356.4 140.5
451(21) 0.002217 356.6 135.6
456(21) 0.002193 356.9 130.7
403(20) 0.002481 357.1 125.8
452(21) 0.002212 357.4 121.1
405(20) 0.002469 357.7 116.6
403(20) 0.002481 357.9 112.3
451(21) 0.002217 358.2 108.3
418(20) 0.002392 358.5 104.5
395(20) 0.002532 358.7 101.0
426(21) 0.002347 359.0 97.8
415(20) 0.002410 359.3 94.9
414(20) 0.002415 359.5 92.2
396(20) 0.002525 359.8 89.8
411(20) 0.002433 360.0 87.5
414(20) 0.002415 360.3 85.6
398(20) 0.002513 360.6 83.8
381(20) 0.002625 360.8 82.4
368(19) 0.002717 361.1 81.2
403(20) 0.002481 361.4 80.3
361(19) 0.002770 361.6 79.9
389(20) 0.002571 361.9 80.1
392(20) 0.002551 362.2 80.8
424(21) 0.002358 362.4 82.3
420(20) 0.002381 362.7 84.7
417(20) 0.002398 362.9 88.2
424(21) 0.002358 363.2 93.0
414(20) 0.002415 363.5 99.1
439(21) 0.002278 363.7 106.7
465(22) 0.002151 364.0 116.0
444(21) 0.002252 364.3 126.8
491(22) 0.002037 364.5 139.3
511(23) 0.001957 364.8 153.1
565(24) 0.001770 365.0 168.0
558(24) 0.001792 365.3 183.4
573(24) 0.001745 365.6 198.6
614(25) 0.001629 365.8 212.4
617(25) 0.001621 366.1 223.5
599(24) 0.001669 366.4 230.7
587(24) 0.001704 366.6 232.8
584(24) 0.001712 366.9 229.6
576(24) 0.001736 367.2 221.5
519(23) 0.001927 367.4 209.4
541(23) 0.001848 367.7 194.8
553(24) 0.001808 367.9 178.8
485(22) 0.002062 368.2 162.7
456(21) 0.002193 368.5 147.3
471(22) 0.002123 368.7 132.8
469(22) 0.002132 369.0 119.8
483(22) 0.002070 369.3 108.5
457(21) 0.002188 369.5 98.8
427(21) 0.002342 369.8 90.8
428(21) 0.002336 370.1 84.4
453(21) 0.002208 370.3 79.6
442(21) 0.002262 370.6 76.2
435(21) 0.002299 370.8 74.2
433(21) 0.002309 371.1 73.3
439(21) 0.002278 371.4 73.7
417(20) 0.002398 371.6 75.0
424(21) 0.002358 371.9 77.4
442(21) 0.002262 372.2 80.8
422(21) 0.002370 372.4 85.1
451(21) 0.002217 372.7 90.3
445(21) 0.002247 373.0 96.5
445(21) 0.002247 373.2 103.5
438(21) 0.002283 373.5 111.3
492(22) 0.002033 373.7 119.8
463(22) 0.002160 374.0 129.1
473(22) 0.002114 374.3 138.8
501(22) 0.001996 374.5 148.8
465(22) 0.002151 374.8 159.0
472(22) 0.002119 375.1 168.9
494(22) 0.002024 375.3 178.3
495(22) 0.002020 375.6 186.6
496(22) 0.002016 375.8 193.3
518(23) 0.001931 376.1 198.2
508(23) 0.001968 376.4 200.7
561(24) 0.001783 376.6 200.7
517(23) 0.001934 376.9 198.2
532(23) 0.001880 377.2 193.3
541(23) 0.001848 377.4 186.3
528(23) 0.001894 377.7 177.8
482(22) 0.002075 378.0 168.1
483(22) 0.002070 378.2 157.7
482(22) 0.002075 378.5 146.9
423(21) 0.002364 378.7 136.2
421(21) 0.002375 379.0 125.8
414(20) 0.002415 379.3 115.8
409(20) 0.002445 379.5 106.4
407(20) 0.002457 379.8 97.6
403(20) 0.002481 380.1 89.7
399(20) 0.002506 380.3 82.5
381(20) 0.002625 380.6 76.1
366(19) 0.002732 380.9 70.6
384(20) 0.002604 381.1 65.8
376(19) 0.002660 381.3 61.8
373(19) 0.002681 381.4 58.4
372(19) 0.002688 381.5 55.8
363(19) 0.002755 381.6 53.8
364(19) 0.002747 381.6 52.5
384(20) 0.002604 381.7 51.7
376(19) 0.002660 381.8 51.4
437(21) 0.002288 381.9 51.6
372(19) 0.002688 382.0 52.2
377(19) 0.002653 382.1 53.2
393(20) 0.002545 382.2 54.6
401(20) 0.002494 382.2 56.2
401(20) 0.002494 382.3 58.2
397(20) 0.002519 382.4 60.2
431(21) 0.002320 382.5 62.4
397(20) 0.002519 382.6 64.5
429(21) 0.002331 382.7 66.5
429(21) 0.002331 382.8 68.2
441(21) 0.002268 382.8 69.5
418(20) 0.002392 382.9 70.3
428(21) 0.002336 383.0 70.4
373(19) 0.002681 383.1 69.9
399(20) 0.002506 383.2 68.8
397(20) 0.002519 383.3 67.1
402(20) 0.002488 383.4 65.1
388(20) 0.002577 383.4 62.7
382(20) 0.002618 383.5 60.2
370(19) 0.002703 383.6 57.6
372(19) 0.002688 383.7 55.1
368(19) 0.002717 383.8 52.7
404(20) 0.002475 383.9 50.5
381(20) 0.002625 384.0 48.4
382(20) 0.002618 384.0 46.7
386(20) 0.002591 384.1 45.2
387(20) 0.002584 384.2 44.0
375(19) 0.002667 384.3 43.0
389(20) 0.002571 384.4 42.4
395(20) 0.002532 384.5 42.2
425(21) 0.002353 384.6 42.2
379(19) 0.002639 384.6 42.7
385(20) 0.002597 384.7 43.6
396(20) 0.002525 384.8 45.0
392(20) 0.002551 384.9 47.0
367(19) 0.002725 385.0 49.6
408(20) 0.002451 385.1 52.9
443(21) 0.002257 385.2 57.0
406(20) 0.002463 385.2 62.1
425(21) 0.002353 385.3 68.2
407(20) 0.002457 385.4 75.4
391(20) 0.002558 385.5 83.6
397(20) 0.002519 385.6 92.8
396(20) 0.002525 385.7 103.0
412(20) 0.002427 385.8 113.8
449(21) 0.002227 385.9 124.9
406(20) 0.002463 385.9 135.7
440(21) 0.002273 386.0 145.5
431(21) 0.002320 386.1 153.2
453(21) 0.002208 386.2 158.4
460(21) 0.002174 386.3 160.4
468(22) 0.002137 386.4 159.5
452(21) 0.002212 386.5 156.3
457(21) 0.002188 386.5 151.7
447(21) 0.002237 386.6 146.4
429(21) 0.002331 386.7 141.2
406(20) 0.002463 386.8 136.7
432(21) 0.002315 386.9 133.0
427(21) 0.002342 387.0 130.5
443(21) 0.002257 387.1 129.1
473(22) 0.002114 387.1 128.9
430(21) 0.002326 387.2 129.9
475(22) 0.002105 387.3 132.0
483(22) 0.002070 387.4 134.9
455(21) 0.002198 387.5 138.6
486(22) 0.002058 387.6 143.0
509(23) 0.001965 387.7 147.9
497(22) 0.002012 387.7 153.0
492(22) 0.002033 387.8 158.3
501(22) 0.001996 387.9 163.6
486(22) 0.002058 388.0 168.8
493(22) 0.002028 388.1 173.7
469(22) 0.002132 388.2 178.1
504(22) 0.001984 388.3 181.9
471(22) 0.002123 388.3 185.0
556(24) 0.001799 388.4 187.2
491(22) 0.002037 388.5 188.6
484(22) 0.002066 388.6 188.9
541(23) 0.001848 388.7 188.3
457(21) 0.002188 388.8 186.7
454(21) 0.002203 388.9 184.1
452(21) 0.002212 388.9 180.7
461(21) 0.002169 389.0 176.4
469(22) 0.002132 389.1 171.6
469(22) 0.002132 389.2 166.1
466(22) 0.002146 389.3 160.2
430(21) 0.002326 389.4 154.1
432(21) 0.002315 389.5 147.7
443(21) 0.002257 389.5 141.2
439(21) 0.002278 389.6 134.6
412(20) 0.002427 389.7 128.1
404(20) 0.002475 389.8 121.8
395(20) 0.002532 389.9 115.6
478(22) 0.002092 390.0 109.5
447(21) 0.002237 390.1 103.8
426(21) 0.002347 390.2 98.3
406(20) 0.002463 390.2 93.0
446(21) 0.002242 390.3 88.1
418(20) 0.002392 390.4 83.5
424(21) 0.002358 390.5 79.2
422(21) 0.002370 390.6 75.3
426(21) 0.002347 390.7 71.6
441(21) 0.002268 390.8 68.2
383(20) 0.002611 390.8 65.2
417(20) 0.002398 390.9 62.4
425(21) 0.002353 391.0 59.9
440(21) 0.002273 391.1 57.7
420(20) 0.002381 391.2 55.7
413(20) 0.002421 391.3 53.9
414(20) 0.002415 391.4 52.4
424(21) 0.002358 391.4 51.0
434(21) 0.002304 391.5 49.9
401(20) 0.002494 391.6 48.8
387(20) 0.002584 391.7 48.0
423(21) 0.002364 391.8 47.2
399(20) 0.002506 391.9 46.5
413(20) 0.002421 392.0 46.0
425(21) 0.002353 392.0 45.5
392(20) 0.002551 392.1 45.0
397(20) 0.002519 392.2 44.6
376(19) 0.002660 392.3 44.2
423(21) 0.002364 392.4 43.9
395(20) 0.002532 392.5 43.5
416(20) 0.002404 392.6 43.2
425(21) 0.002353 392.6 42.8
408(20) 0.002451 392.7 42.4
435(21) 0.002299 392.8 42.0
414(20) 0.002415 392.9 41.6
418(20) 0.002392 393.0 41.2
423(21) 0.002364 393.1 40.7
426(21) 0.002347 393.2 40.2
430(21) 0.002326 393.2 39.6
390(20) 0.002564 393.3 39.1
421(21) 0.002375 393.4 38.5
429(21) 0.002331 393.5 37.9
402(20) 0.002488 393.6 37.3
377(19) 0.002653 393.7 36.7
413(20) 0.002421 393.8 36.1
435(21) 0.002299 393.8 35.4
408(20) 0.002451 393.9 34.8
440(21) 0.002273 394.0 34.2
402(20) 0.002488 394.1 33.6
391(20) 0.002558 394.3 33.0
376(19) 0.002660 394.7 32.5
410(20) 0.002439 395.0 31.9
432(21) 0.002315 395.3 31.4
384(20) 0.002604 395.7 30.9
412(20) 0.002427 396.0 30.4
421(21) 0.002375 396.4 30.0
391(20) 0.002558 396.7 29.6
398(20) 0.002513 397.0 29.3
406(20) 0.002463 397.4 29.0
399(20) 0.002506 397.7 28.8
427(21) 0.002342 398.1 28.6
422(21) 0.002370 398.4 28.4
403(20) 0.002481 398.7 28.4
446(21) 0.002242 399.1 28.4
402(20) 0.002488 399.4 28.5
410(20) 0.002439 399.8 28.7
408(20) 0.002451 400.1 29.0
430(21) 0.002326 400.5 29.5
411(20) 0.002433 400.8 30.1
432(21) 0.002315 401.1 30.9
427(21) 0.002342 401.5 32.0
439(21) 0.002278 401.8 33.4
449(21) 0.002227 402.2 35.2
419(20) 0.002387 402.5 37.3
432(21) 0.002315 402.8 40.0
430(21) 0.002326 403.2 43.3
442(21) 0.002262 403.5 47.2
440(21) 0.002273 403.9 51.9
473(22) 0.002114 404.2 57.3
446(21) 0.002242 404.5 63.5
485(22) 0.002062 404.9 70.4
488(22) 0.002049 405.2 78.0
500(22) 0.002000 405.6 86.2
534(23) 0.001873 405.9 94.6
527(23) 0.001898 406.2 102.9
552(23) 0.001812 406.6 110.5
527(23) 0.001898 406.9 116.8
511(23) 0.001957 407.3 121.2
507(23) 0.001972 407.6 123.1
514(23) 0.001946 407.9 122.1
507(23) 0.001972 408.3 118.5
508(23) 0.001968 408.6 112.7
497(22) 0.002012 409.0 105.4
487(22) 0.002053 409.3 97.3
462(21) 0.002164 409.6 89.0
454(21) 0.002203 410.0 80.8
440(21) 0.002273 410.3 73.1
465(22) 0.002151 410.7 66.1
463(22) 0.002160 411.0 59.8
472(22) 0.002119 411.3 54.3
458(21) 0.002183 411.7 49.6
475(22) 0.002105 412.0 45.6
417(20) 0.002398 412.4 42.2
427(21) 0.002342 412.7 39.5
439(21) 0.002278 413.1 37.3
428(21) 0.002336 413.4 35.5
477(22) 0.002096 413.7 34.0
493(22) 0.002028 414.1 32.9
422(21) 0.002370 414.4 32.0
458(21) 0.002183 414.8 31.3
437(21) 0.002288 415.1 30.8
466(22) 0.002146 415.4 30.4
429(21) 0.002331 415.8 30.1
444(21) 0.002252 416.1 29.9
432(21) 0.002315 416.5 29.8
411(20) 0.002433 416.8 29.8
429(21) 0.002331 417.1 29.8
408(20) 0.002451 417.5 29.9
409(20) 0.002445 417.8 30.0
421(21) 0.002375 418.0 30.3
431(21) 0.002320 418.1 30.5
402(20) 0.002488 418.2 30.8
447(21) 0.002237 418.4 31.2
401(20) 0.002494 418.5 31.6
437(21) 0.002288 418.6 32.1
400(20) 0.002500 418.8 32.6
425(21) 0.002353 418.9 33.1
443(21) 0.002257 419.1 33.8
413(20) 0.002421 419.2 34.4
414(20) 0.002415 419.3 35.1
473(22) 0.002114 419.5 35.9
429(21) 0.002331 419.6 36.7
444(21) 0.002252 419.7 37.6
441(21) 0.002268 419.9 38.5
441(21) 0.002268 420.0 39.5
440(21) 0.002273 420.2 40.5
485(22) 0.002062 420.3 41.6
421(21) 0.002375 420.4 42.7
465(22) 0.002151 420.6 44.0
477(22) 0.002096 420.7 45.3
451(21) 0.002217 420.8 46.6
455(21) 0.002198 421.0 48.0
470(22) 0.002128 421.1 49.5
455(21) 0.002198 421.3 51.1
479(22) 0.002088 421.4 52.8
451(21) 0.002217 421.5 54.6
467(22) 0.002141 421.7 56.5
465(22) 0.002151 421.8 58.5
505(22) 0.001980 421.9 60.7
480(22) 0.002083 422.1 63.0
522(23) 0.001916 422.2 65.6
545(23) 0.001835 422.4 68.4
540(23) 0.001852 422.5 71.6
498(22) 0.002008 422.6 75.2
546(23) 0.001832 422.8 79.4
532(23) 0.001880 422.9 84.2
591(24) 0.001692 423.0 89.8
601(25) 0.001664 423.2 96.4
575(24) 0.001739 423.3 104.2
594(24) 0.001684 423.4 113.1
592(24) 0.001689 423.6 123.4
601(25) 0.001664 423.7 135.2
658(26) 0.001520 423.9 148.3
669(26) 0.001495 424.0 162.7
681(26) 0.001468 424.1 178.1
681(26) 0.001468 424.3 193.9
721(27) 0.001387 424.4 209.4
802(28) 0.001247 424.5 223.5
792(28) 0.001263 424.7 234.8
768(28) 0.001302 424.8 242.1
773(28) 0.001294 425.0 244.6
709(27) 0.001410 425.1 242.4
737(27) 0.001357 425.2 236.3
673(26) 0.001486 425.4 227.6
666(26) 0.001501 425.5 217.6
654(26) 0.001529 425.6 207.6
692(26) 0.001445 425.8 198.5
659(26) 0.001517 425.9 190.9
634(25) 0.001577 426.1 185.1
675(26) 0.001481 426.2 181.5
619(25) 0.001616 426.3 180.2
680(26) 0.001471 426.5 181.2
693(26) 0.001443 426.6 184.6
657(26) 0.001522 426.7 190.1
717(27) 0.001395 426.9 197.8
741(27) 0.001350 427.0 207.4
745(27) 0.001342 427.2 218.6
786(28) 0.001272 427.3 231.2
781(28) 0.001280 427.4 244.9
817(29) 0.001224 427.6 259.0
862(29) 0.001160 427.7 272.9
848(29) 0.001179 427.8 285.7
881(30) 0.001135 428.0 296.6
869(29) 0.001151 428.1 304.6
868(29) 0.001152 428.3 308.7
839(29) 0.001192 428.4 308.4
781(28) 0.001280 428.5 303.7
833(29) 0.001200 428.7 294.8
749(27) 0.001335 428.8 282.6
753(27) 0.001328 428.9 268.1
698(26) 0.001433 429.1 252.2
697(26) 0.001435 429.2 235.7
676(26) 0.001479 429.4 219.3
615(25) 0.001626 429.5 203.4
660(26) 0.001515 429.6 188.4
665(26) 0.001504 429.8 174.6
617(25) 0.001621 429.9 161.9
627(25) 0.001595 430.0 150.6
630(25) 0.001587 430.2 140.5
591(24) 0.001692 430.3 131.6
567(24) 0.001764 430.5 123.9
571(24) 0.001751 430.6 117.2
579(24) 0.001727 430.7 111.5
527(23) 0.001898 430.9 106.6
593(24) 0.001686 431.0 102.5
549(23) 0.001822 431.1 99.0
551(23) 0.001815 431.3 96.0
532(23) 0.001880 431.4 93.5
511(23) 0.001957 431.6 91.4
547(23) 0.001828 431.7 89.7
561(24) 0.001783 431.8 88.2
554(24) 0.001805 432.0 87.1
549(23) 0.001822 432.1 86.2
530(23) 0.001887 432.2 85.5
535(23) 0.001869 432.4 85.0
533(23) 0.001876 432.5 84.7
499(22) 0.002004 432.6 84.7
543(23) 0.001842 432.8 84.9
534(23) 0.001873 432.9 85.2
559(24) 0.001789 433.1 85.8
558(24) 0.001792 433.2 86.6
479(22) 0.002088 433.3 87.7
537(23) 0.001862 433.5 88.9
569(24) 0.001757 433.6 90.4
540(23) 0.001852 433.7 92.2
553(24) 0.001808 433.9 94.1
558(24) 0.001792 434.0 96.4
534(23) 0.001873 434.2 98.8
556(24) 0.001799 434.3 101.6
545(23) 0.001835 434.4 104.5
547(23) 0.001828 434.6 107.7
538(23) 0.001859 434.7 111.2
590(24) 0.001695 434.8 114.8
573(24) 0.001745 435.0 118.7
614(25) 0.001629 435.1 122.8
563(24) 0.001776 435.3 127.1
551(23) 0.001815 435.4 131.5
590(24) 0.001695 435.5 136.1
605(25) 0.001653 435.7 140.8
583(24) 0.001715 435.8 145.5
589(24) 0.001698 435.9 150.3
617(25) 0.001621 436.1 155.0
592(24) 0.001689 436.2 159.6
626(25) 0.001597 436.4 164.1
606(25) 0.001650 436.5 168.3
587(24) 0.001704 436.6 172.3
651(26) 0.001536 436.8 176.0
652(26) 0.001534 436.9 179.2
674(26) 0.001484 437.0 182.0
610(25) 0.001639 437.2 184.4
623(25) 0.001605 437.3 186.2
649(25) 0.001541 437.5 187.6
606(25) 0.001650 437.6 188.5
611(25) 0.001637 437.7 188.9
633(25) 0.001580 437.9 188.8
657(26) 0.001522 438.0 188.3
598(24) 0.001672 438.1 187.4
651(26) 0.001536 438.3 186.1
711(27) 0.001406 438.4 184.6
667(26) 0.001499 438.6 182.9
683(26) 0.001464 438.7 181.0
671(26) 0.001490 438.8 178.9
601(25) 0.001664 439.0 176.7
620(25) 0.001613 439.1 174.5
683(26) 0.001464 439.2 172.2
653(26) 0.001531 439.4 170.0
683(26) 0.001464 439.5 167.8
671(26) 0.001490 439.7 165.7
660(26) 0.001515 439.8 163.7
666(26) 0.001501 439.9 161.8
657(26) 0.001522 440.1 160.0
639(25) 0.001565 440.2 158.4
662(26) 0.001511 440.3 156.9
700(26) 0.001429 440.5 155.5
650(25) 0.001538 440.6 154.3
629(25) 0.001590 440.7 153.2
645(25) 0.001550 440.9 152.2
659(26) 0.001517 441.0 151.4
665(26) 0.001504 441.2 150.7
631(25) 0.001585 441.3 150.1
678(26) 0.001475 441.4 149.7
659(26) 0.001517 441.6 149.4
639(25) 0.001565 441.7 149.4
695(26) 0.001439 441.8 149.5
656(26) 0.001524 442.0 149.9
652(26) 0.001534 442.1 150.5
666(26) 0.001501 442.3 151.5
673(26) 0.001486 442.4 153.0
677(26) 0.001477 442.5 155.0
674(26) 0.001484 442.7 157.5
710(27) 0.001408 442.8 160.9
716(27) 0.001397 442.9 165.0
752(27) 0.001330 443.1 170.1
724(27) 0.001381 443.2 176.2
723(27) 0.001383 443.4 183.5
696(26) 0.001437 443.5 191.9
751(27) 0.001332 443.6 201.5
788(28) 0.001269 443.8 212.2
733(27) 0.001364 443.9 224.0
768(28) 0.001302 444.0 236.6
759(28) 0.001318 444.2 249.8
781(28) 0.001280 444.3 263.1
811(28) 0.001233 444.5 275.9
770(28) 0.001299 444.6 287.5
804(28) 0.001244 444.7 296.9
835(29) 0.001198 444.9 303.4
812(28) 0.001232 445.0 306.0
840(29) 0.001190 445.1 304.4
778(28) 0.001285 445.3 298.5
812(28) 0.001232 445.4 288.7
745(27) 0.001342 445.6 275.7
755(27) 0.001324 445.7 260.5
706(27) 0.001416 445.8 243.9
744(27) 0.001344 446.0 226.9
753(27) 0.001328 446.1 209.9
708(27) 0.001412 446.2 193.4
672(26) 0.001488 446.4 177.8
689(26) 0.001451 446.5 163.3
651(26) 0.001536 446.7 150.1
696(26) 0.001437 446.8 138.1
677(26) 0.001477 446.9 127.3
624(25) 0.001603 447.1 117.8
646(25) 0.001548 447.2 109.5
640(25) 0.001563 447.3 102.2
601(25) 0.001664 447.5 95.9
600(24) 0.001667 447.6 90.4
663(26) 0.001508 447.8 85.7
599(24) 0.001669 447.9 81.6
629(25) 0.001590 448.0 78.1
608(25) 0.001645 448.2 75.0
630(25) 0.001587 448.3 72.4
619(25) 0.001616 448.4 70.0
629(25) 0.001590 448.6 67.9
599(24) 0.001669 448.7 66.1
627(25) 0.001595 448.8 64.4
625(25) 0.001600 449.0 63.0
641(25) 0.001560 449.1 61.6
668(26) 0.001497 449.3 60.4
639(25) 0.001565 449.4 59.3
580(24) 0.001724 449.5 58.3
599(24) 0.001669 449.7 57.3
629(25) 0.001590 449.8 56.5
579(24) 0.001727 449.9 55.7
595(24) 0.001681 450.1 55.0
593(24) 0.001686 450.2 54.4
621(25) 0.001610 450.4 53.8
629(25) 0.001590 450.5 53.3
610(25) 0.001639 450.6 52.9
639(25) 0.0 0.0 .
662(26) 0.0 0.0 .
655(26) 0.0 0.0 .
659(26) 0.0 0.0 .
679(26) 0.0 0.0 .
637(25) 0.0 0.0 .
643(25) 0.0 0.0 .
641(25) 0.0 0.0 .
639(25) 0.0 0.0 .
638(25) 0.0 0.0 .
614(25) 0.0 0.0 .
666(26) 0.0 0.0 .
666(26) 0.0 0.0 .
628(25) 0.0 0.0 .
670(26) 0.0 0.0 .
680(26) 0.0 0.0 .
685(26) 0.0 0.0 .
635(25) 0.0 0.0 .
677(26) 0.0 0.0 .
736(27) 0.0 0.0 .
683(26) 0.0 0.0 .
692(26) 0.0 0.0 .
725(27) 0.0 0.0 .
737(27) 0.0 0.0 .
764(28) 0.0 0.0 .
769(28) 0.0 0.0 .
770(28) 0.0 0.0 .
789(28) 0.0 0.0 .
789(28) 0.0 0.0 .
780(28) 0.0 0.0 .
817(29) 0.0 0.0 .
772(28) 0.0 0.0 .
818(29) 0.0 0.0 .
776(28) 0.0 0.0 .
737(27) 0.0 0.0 .
733(27) 0.0 0.0 .
827(29) 0.0 0.0 .
739(27) 0.0 0.0 .
760(28) 0.0 0.0 .
758(28) 0.0 0.0 .
775(28) 0.0 0.0 .
793(28) 0.0 0.0 .
757(28) 0.0 0.0 .
774(28) 0.0 0.0 .
839(29) 0.0 0.0 .
820(29) 0.0 0.0 .
801(28) 0.0 0.0 .
799(28) 0.0 0.0 .
807(28) 0.0 0.0 .
773(28) 0.0 0.0 .
791(28) 0.0 0.0 .
837(29) 0.0 0.0 .
821(29) 0.0 0.0 .
831(29) 0.0 0.0 .
867(29) 0.0 0.0 .
892(30) 0.0 0.0 .
891(30) 0.0 0.0 .
862(29) 0.0 0.0 .
886(30) 0.0 0.0 .
902(30) 0.0 0.0 .
896(30) 0.0 0.0 .
869(29) 0.0 0.0 .
948(31) 0.0 0.0 .
971(31) 0.0 0.0 .
926(30) 0.0 0.0 .
960(31) 0.0 0.0 .
982(31) 0.0 0.0 .
1004(32) 0.0 0.0 .
999(32) 0.0 0.0 .
1037(32) 0.0 0.0 .
1074(33) 0.0 0.0 .
1090(33) 0.0 0.0 .
1085(33) 0.0 0.0 .
1182(34) 0.0 0.0 .
1141(34) 0.0 0.0 .
1203(35) 0.0 0.0 .
1232(35) 0.0 0. .
1209(35) 0.0 0.0 .
1266(36) 0.0 0. .
1279(36) 0.0 0. .
1388(37) 0.0 0. .
1385(37) 0.0 0. .
1321(36) 0.0 0. .
1485(39) 0.0 0. .
1514(39) 0.0 0. .
1546(39) 0.0 0. .
1529(39) 0.0 0. .
1648(41) 0.0 0. .
1697(41) 0.0 0. .
1808(43) 0.0 0. .
1906(44) 0.0 0. .
1881(43) 0.0 0. .
2009(45) 0.0 0. .
2177(47) 0.0 0. .
2183(47) 0.0 0. .
2227(47) 0.0 0. .
2323(48) 0.0 0. .
2435(49) 0.0 0. .
2741(52) 0.0 0. .
2805(53) 0.0 0. .
3002(55) 0.0 0. .
3271(57) 0.0 0. .
3465(59) 0.0 0. .
3654(60) 0.0 0. .
4165(65) 0.0 0. .
4567(68) 0.0 0. .
5029(71) 0.0 0. .
5449(74) 0.0 0. .
5931(77) 0.0 0. .
6923(83) 0.0 0. .
7796(88) 0.0 0. .
8777(94) 0.0 0. .
10020(100) 0.0 0. .
11650(110) 0.0 0. .
13530(120) 0.0 0. .
16150(130) 0.0 0. .
19240(140) 0.0 0. .
23750(150) 0.0 0. .
28720(170) 0.0 0. .
36070(190) 0.0 0. .
45720(210) 0.0 0. .
59530(240) 0.0 0. .
78740(280) 0.0 0. .
106980(330) 0.0 0. .
149780(390) 0.0 0. .
210310(460) 0.0 0. .
290320(540) 0.0 0. .
370340(610) 0.0 0. .
423530(650) 0.0 0. .
430910(660) 0.0 0. .
389620(620) 0.0 0. .
306300(550) 0.0 0. .
219720(470) 0.0 0. .
153180(390) 0.0 0. .
108790(330) 0.0 0. .
78450(280) 0.0 0. .
58830(240) 0.0 0. .
45010(210) 0.0 0. .
35070(190) 0.0 0. .
28160(170) 0.0 0. .
23020(150) 0.0 0. .
18920(140) 0.0 0. .
15980(130) 0.0 0. .
13530(120) 0.0 0. .
11480(110) 0.0 0. .
9900(100) 0.0 0. .
8836(94) 0.0 0. .
7741(88) 0.0 0. .
6900(83) 0.0 0. .
6201(79) 0.0 0. .
5519(74) 0.0 0. .
4981(71) 0.0 0. .
4427(67) 0.0 0. .
4273(65) 0.0 0. .
3985(63) 0.0 0. .
3582(60) 0.0 0. .
3417(58) 0.0 0. .
3155(56) 0.0 0. .
3015(55) 0.0 0. .
2758(53) 0.0 0. .
2611(51) 0.0 0. .
2519(50) 0.0 0. .
2311(48) 0.0 0. .
2269(48) 0.0 0. .
2178(47) 0.0 0. .
2062(45) 0.0 0. .
1923(44) 0.0 0. .
1856(43) 0.0 0. .
1811(43) 0.0 0. .
1778(42) 0.0 0. .
1664(41) 0.0 0. .
1633(40) 0.0 0. .
1526(39) 0.0 0. .
1513(39) 0.0 0. .
1470(38) 0.0 0. .
1429(38) 0.0 0. .
1395(37) 0.0 0. .
1357(37) 0.0 0. .
1315(36) 0.0 0. .
1324(36) 0.0 0. .
1253(35) 0.0 0. .
1249(35) 0.0 0. .
1256(35) 0.0 0. .
1179(34) 0.0 0.0 .
1195(35) 0.0 0.0 .
1169(34) 0.0 0.0 .
1181(34) 0.0 0.0 .
1126(34) 0.0 0.0 .
1137(34) 0.0 0.0 .
1109(33) 0.0 0.0 .
1049(32) 0.0 0.0 .
1054(32) 0.0 0.0 .
1135(34) 0.0 0.0 .
1040(32) 0.0 0.0 .
1043(32) 0.0 0.0 .
1072(33) 0.0 0.0 .
1039(32) 0.0 0.0 .
978(31) 0.0 0.0 .
1011(32) 0.0 0.0 .
976(31) 0.0 0.0 .
1009(32) 0.0 0.0 .
951(31) 0.0 0.0 .
939(31) 0.0 0.0 .
960(31) 0.0 0.0 .
939(31) 0.0 0.0 .
915(30) 0.0 0.0 .
933(31) 0.0 0.0 .
879(30) 0.0 0.0 .
855(29) 0.0 0.0 .
909(30) 0.0 0.0 .
868(29) 0.0 0.0 .
861(29) 0.0 0.0 .
867(29) 0.0 0.0 .
881(30) 0.0 0.0 .
854(29) 0.0 0.0 .
835(29) 0.0 0.0 .
825(29) 0.0 0.0 .
824(29) 0.0 0.0 .
810(28) 0.0 0.0 .
851(29) 0.0 0.0 .
826(29) 0.0 0.0 .
841(29) 0.0 0.0 .
790(28) 0.0 0.0 .
795(28) 0.0 0.0 .
797(28) 0.0 0.0 .
823(29) 0.0 0.0 .
808(28) 0.0 0.0 .
773(28) 0.0 0.0 .
765(28) 0.0 0.0 .
766(28) 0.0 0.0 .
748(27) 0.0 0.0 .
767(28) 0.0 0.0 .
776(28) 0.0 0.0 .
785(28) 0.0 0.0 .
778(28) 0.0 0.0 .
810(28) 0.0 0.0 .
758(28) 0.001319 483.2 33.6
769(28) 0.001300 483.3 33.5
771(28) 0.001297 483.4 33.4
760(28) 0.001316 483.6 33.4
742(27) 0.001348 483.7 33.6
766(28) 0.001305 483.9 33.9
724(27) 0.001381 484.0 34.3
728(27) 0.001374 484.1 34.9
720(27) 0.001389 484.3 35.6
706(27) 0.001416 484.4 36.5
734(27) 0.001362 484.5 37.6
726(27) 0.001377 484.7 39.0
706(27) 0.001416 484.8 40.5
735(27) 0.001361 485.0 42.4
747(27) 0.001339 485.1 44.5
691(26) 0.001447 485.2 46.9
703(27) 0.001422 485.4 49.7
697(26) 0.001435 485.5 52.8
736(27) 0.001359 485.6 56.2
703(27) 0.001422 485.8 60.0
720(27) 0.001389 485.9 64.2
731(27) 0.001368 486.1 68.7
729(27) 0.001372 486.2 73.5
749(27) 0.001335 486.3 78.6
749(27) 0.001335 486.5 84.0
752(27) 0.001330 486.6 89.5
756(27) 0.001323 486.7 95.1
790(28) 0.001266 486.9 100.6
763(28) 0.001311 487.0 106.0
769(28) 0.001300 487.2 111.0
800(28) 0.001250 487.3 115.5
740(27) 0.001351 487.4 119.2
729(27) 0.001372 487.6 122.1
812(28) 0.001232 487.7 123.8
727(27) 0.001376 487.8 124.4
793(28) 0.001261 488.0 123.8
768(28) 0.001302 488.1 122.0
742(27) 0.001348 488.3 119.2
743(27) 0.001346 488.4 115.4
729(27) 0.001372 488.5 110.9
732(27) 0.001366 488.7 106.0
731(27) 0.001368 488.8 100.7
689(26) 0.001451 488.9 95.2
658(26) 0.001520 489.1 89.7
688(26) 0.001453 489.2 84.3
689(26) 0.001451 489.4 79.1
644(25) 0.001553 489.5 74.2
637(25) 0.001570 489.6 69.5
624(25) 0.001603 489.8 65.2
636(25) 0.001572 489.9 61.3
634(25) 0.001577 490.0 57.7
608(25) 0.001645 490.2 54.4
630(25) 0.001587 490.3 51.5
608(25) 0.001645 490.5 49.0
601(25) 0.001664 490.6 46.8
600(24) 0.001667 490.7 44.8
573(24) 0.001745 490.9 43.2
574(24) 0.001742 491.0 41.8
566(24) 0.001767 491.1 40.6
587(24) 0.001704 491.3 39.5
602(25) 0.001661 491.4 38.7
549(23) 0.001822 491.6 37.9
550(23) 0.001818 491.7 37.3
530(23) 0.001887 491.8 36.8
582(24) 0.001718 492.0 36.3
534(23) 0.001873 492.1 35.8
550(23) 0.001818 492.2 35.3
568(24) 0.001761 492.4 34.9
573(24) 0.001745 492.5 34.4
548(23) 0.001825 492.6 34.0
563(24) 0.001776 492.8 33.5
536(23) 0.001866 492.9 33.0
488(22) 0.002049 493.1 32.5
534(23) 0.001873 493.2 32.0
522(23) 0.001916 493.3 31.4
529(23) 0.001890 493.5 30.9
563(24) 0.001776 493.6 30.3
514(23) 0.001946 493.7 29.8
532(23) 0.001880 493.9 29.2
538(23) 0.001859 494.0 28.7
514(23) 0.001946 494.2 28.2
552(23) 0.001812 494.3 27.6
524(23) 0.001908 494.4 27.2
536(23) 0.001866 494.6 26.7
548(23) 0.001825 494.7 26.3
512(23) 0.001953 494.8 25.9
518(23) 0.001931 495.0 25.5
557(24) 0.001795 495.1 25.1
521(23) 0.001919 495.3 24.8
520(23) 0.001923 495.4 24.6
559(24) 0.001789 495.5 24.3
563(24) 0.001776 495.7 24.2
538(23) 0.001859 495.8 24.0
533(23) 0.001876 495.9 23.9
518(23) 0.001931 496.1 23.9
512(23) 0.001953 496.2 23.8
521(23) 0.001919 496.4 23.9
524(23) 0.001908 496.5 23.9
477(22) 0.002096 496.6 24.1
537(23) 0.001862 496.8 24.2
489(22) 0.002045 496.9 24.5
510(23) 0.001961 497.0 24.7
530(23) 0.001887 497.2 25.1
492(22) 0.002033 497.3 25.5
517(23) 0.001934 497.3 25.9
524(23) 0.001908 497.1 26.5
506(22) 0.001976 496.8 27.1
525(23) 0.001905 496.5 27.8
505(22) 0.001980 496.2 28.6
484(22) 0.002066 495.9 29.5
523(23) 0.001912 495.6 30.6
507(23) 0.001972 495.3 31.8
516(23) 0.001938 495.0 33.2
504(22) 0.001984 494.8 34.9
534(23) 0.001873 494.5 36.8
558(24) 0.001792 494.2 38.9
566(24) 0.001767 493.9 41.4
513(23) 0.001949 493.6 44.1
540(23) 0.001852 493.3 47.2
565(24) 0.001770 493.0 50.7
562(24) 0.001779 492.7 54.4
587(24) 0.001704 492.4 58.5
574(24) 0.001742 492.2 62.8
571(24) 0.001751 491.9 67.3
633(25) 0.001580 491.6 71.8
613(25) 0.001631 491.3 76.1
580(24) 0.001724 491.0 80.1
594(24) 0.001684 490.7 83.5
613(25) 0.001631 490.4 86.1
600(24) 0.001667 490.1 87.8
527(23) 0.001898 489.9 88.5
616(25) 0.001623 489.6 88.5
581(24) 0.001721 489.3 87.9
595(24) 0.001681 489.0 86.9
554(24) 0.001805 488.7 85.7
579(24) 0.001727 488.4 84.5
547(23) 0.001828 488.1 83.4
569(24) 0.001757 487.8 82.6
595(24) 0.001681 487.6 82.0
560(24) 0.001786 487.3 81.7
572(24) 0.001748 487.0 81.7
554(24) 0.001805 486.7 82.0
584(24) 0.001712 486.4 82.5
589(24) 0.001698 486.1 83.2
589(24) 0.001698 485.8 84.1
535(23) 0.001869 485.5 85.2
570(24) 0.001754 485.2 86.3
585(24) 0.001709 485.0 87.5
550(23) 0.001818 484.7 88.7
560(24) 0.001786 484.4 89.8
563(24) 0.001776 484.1 90.9
549(23) 0.001822 483.8 91.8
581(24) 0.001721 483.5 92.6
583(24) 0.001715 483.2 93.3
562(24) 0.001779 482.9 93.8
542(23) 0.001845 482.7 94.2
585(24) 0.001709 482.4 94.4
569(24) 0.001757 482.1 94.4
558(24) 0.001792 481.8 94.4
573(24) 0.001745 481.5 94.2
560(24) 0.001786 481.2 93.9
582(24) 0.001718 480.9 93.5
541(23) 0.001848 480.6 93.1
543(23) 0.001842 480.3 92.7
561(24) 0.001783 480.1 92.3
561(24) 0.001783 479.8 92.0
580(24) 0.001724 479.5 91.7
561(24) 0.001783 479.2 91.5
554(24) 0.001805 478.9 91.5
571(24) 0.001751 478.6 91.6
556(24) 0.001799 478.3 91.9
589(24) 0.001698 478.0 92.3
628(25) 0.001592 477.8 93.0
562(24) 0.001779 477.5 93.9
559(24) 0.001789 477.2 95.0
561(24) 0.001783 476.9 96.4
579(24) 0.001727 476.6 97.9
559(24) 0.001789 476.3 99.7
589(24) 0.001698 476.0 101.6
576(24) 0.001736 475.7 103.7
599(24) 0.001669 475.5 105.8
555(24) 0.001802 475.2 107.8
587(24) 0.001704 474.9 109.8
584(24) 0.001712 474.6 111.5
600(24) 0.001667 474.3 112.8
608(25) 0.001645 474.0 113.7
597(24) 0.001675 473.7 113.9
542(23) 0.001845 473.4 113.4
574(24) 0.001742 473.1 112.2
581(24) 0.001721 472.9 110.2
550(23) 0.001818 472.6 107.6
531(23) 0.001883 472.3 104.4
543(23) 0.001842 472.0 100.7
519(23) 0.001927 471.7 96.8
538(23) 0.001859 471.4 92.6
547(23) 0.001828 471.1 88.4
533(23) 0.001876 470.8 84.2
555(24) 0.001802 470.6 80.2
539(23) 0.001855 470.3 76.3
511(23) 0.001957 470.0 72.5
508(23) 0.001968 469.7 69.1
540(23) 0.001852 469.4 65.9
541(23) 0.001848 469.1 63.0
505(22) 0.001980 468.8 60.3
509(23) 0.001965 468.5 58.0
512(23) 0.001953 468.2 55.9
470(22) 0.002128 468.0 54.2
520(23) 0.001923 467.7 52.8
557(24) 0.001795 467.4 51.6
520(23) 0.001923 467.1 50.8
538(23) 0.001859 466.8 50.3
522(23) 0.001916 466.5 50.1
477(22) 0.002096 466.2 50.3
536(23) 0.001866 465.9 50.8
529(23) 0.001890 465.7 51.7
518(23) 0.001931 465.4 53.0
499(22) 0.002004 465.1 54.6
483(22) 0.002070 464.8 56.7
491(22) 0.002037 464.5 59.2
501(22) 0.001996 464.2 62.2
541(23) 0.001848 463.9 65.6
518(23) 0.001931 463.6 69.4
529(23) 0.001890 463.4 73.6
510(23) 0.001961 463.1 78.2
524(23) 0.001908 462.8 83.1
497(22) 0.002012 462.5 88.2
538(23) 0.001859 462.2 93.3
571(24) 0.001751 461.9 98.4
544(23) 0.001838 461.6 103.2
536(23) 0.001866 461.3 107.6
536(23) 0.001866 461.0 111.1
541(23) 0.001848 460.8 113.7
540(23) 0.001852 460.5 115.2
516(23) 0.001938 460.2 115.3
523(23) 0.001912 459.9 114.1
535(23) 0.001869 459.6 111.6
567(24) 0.001764 459.3 108.2
527(23) 0.001898 459.0 103.9
499(22) 0.002004 458.7 99.0
551(23) 0.001815 458.5 93.9
502(22) 0.001992 458.2 88.6
489(22) 0.002045 457.9 83.4
475(22) 0.002105 457.6 78.3
523(23) 0.001912 457.3 73.6
479(22) 0.002088 457.0 69.3
479(22) 0.002088 456.7 65.4
496(22) 0.002016 456.4 62.0
465(22) 0.002151 456.1 59.1
483(22) 0.002070 455.9 56.8
488(22) 0.002049 455.6 55.2
453(21) 0.002208 455.3 54.3
511(23) 0.001957 455.0 54.2
496(22) 0.002016 454.7 54.9
444(21) 0.002252 454.4 56.6
456(21) 0.002193 454.1 59.1
486(22) 0.002058 453.8 62.4
503(22) 0.001988 453.6 66.4
485(22) 0.002062 453.3 70.9
556(24) 0.001799 453.0 75.2
530(23) 0.001887 452.7 78.7
510(23) 0.001961 452.4 80.6
476(22) 0.002101 452.1 80.3
493(22) 0.002028 451.8 77.9
471(22) 0.002123 451.5 74.1
548(23) 0.001825 451.3 69.5
493(22) 0.002028 451.0 64.8
470(22) 0.002128 450.7 60.5
461(21) 0.002169 450.4 56.8
482(22) 0.002075 450.1 53.8
469(22) 0.002132 449.8 51.4
513(23) 0.001949 449.5 49.6
488(22) 0.002049 449.2 48.4
517(23) 0.001934 448.9 47.6
489(22) 0.002045 448.7 47.2
456(21) 0.002193 448.4 47.1
460(21) 0.002174 448.1 47.2
461(21) 0.002169 447.8 47.5
455(21) 0.002198 447.5 47.9
476(22) 0.002101 447.2 48.5
491(22) 0.002037 446.9 49.1
487(22) 0.002053 446.6 49.9
510(23) 0.001961 446.4 50.8
493(22) 0.002028 446.1 51.8
506(22) 0.001976 445.8 52.9
496(22) 0.002016 445.5 54.2
513(23) 0.001949 445.2 55.6
520(23) 0.001923 444.9 57.3
501(22) 0.001996 444.6 59.1
538(23) 0.001859 444.3 61.3
549(23) 0.001822 444.0 63.8
495(22) 0.002020 443.8 66.6
523(23) 0.001912 443.5 70.0
488(22) 0.002049 443.2 74.0
547(23) 0.001828 442.9 78.7
550(23) 0.001818 442.6 84.3
523(23) 0.001912 442.3 90.8
566(24) 0.001767 442.0 98.6
567(24) 0.001764 441.7 107.7
603(25) 0.001658 441.5 118.4
584(24) 0.001712 441.2 130.8
616(25) 0.001623 440.9 145.1
625(25) 0.001600 440.6 161.3
633(25) 0.001580 440.3 179.7
677(26) 0.001477 440.0 200.3
698(26) 0.001433 439.7 223.0
743(27) 0.001346 439.4 247.6
792(28) 0.001263 439.2 274.0
812(28) 0.001232 438.9 301.7
915(30) 0.001093 438.6 330.2
959(31) 0.001043 438.3 358.7
938(31) 0.001066 438.0 386.0
978(31) 0.001022 437.7 410.9
1047(32) 0.000955 437.4 431.9
1043(32) 0.000959 437.1 447.6
1104(33) 0.000906 436.8 456.6
1060(33) 0.000943 436.6 458.2
1033(32) 0.000968 436.3 452.2
979(31) 0.001021 436.0 439.3
952(31) 0.001050 435.7 420.6
887(30) 0.001127 435.4 397.4
857(29) 0.001167 435.1 371.3
753(27) 0.001328 434.8 343.6
739(27) 0.001353 434.5 315.4
752(27) 0.001330 434.3 287.6
703(27) 0.001422 434.0 260.8
637(25) 0.001570 433.7 235.5
686(26) 0.001458 433.4 212.0
655(26) 0.001527 433.1 190.4
622(25) 0.001608 432.8 170.8
566(24) 0.001767 432.5 153.3
577(24) 0.001733 432.2 137.7
562(24) 0.001779 431.9 124.1
557(24) 0.001795 431.7 112.2
498(22) 0.002008 431.4 101.9
511(23) 0.001957 431.1 93.0
521(23) 0.001919 430.8 85.4
507(23) 0.001972 430.5 78.9
526(23) 0.001901 430.2 73.4
479(22) 0.002088 429.9 68.7
484(22) 0.002066 429.6 64.6
486(22) 0.002058 429.4 61.2
476(22) 0.002101 429.1 58.2
498(22) 0.002008 428.8 55.7
483(22) 0.002070 428.5 53.5
502(22) 0.001992 428.2 51.7
495(22) 0.002020 427.9 50.1
437(21) 0.002288 427.6 48.7
488(22) 0.002049 427.3 47.5
449(21) 0.002227 427.1 46.5
499(22) 0.002004 426.8 45.6
472(22) 0.002119 426.5 44.9
467(22) 0.002141 426.2 44.2
438(21) 0.002283 425.9 43.6
444(21) 0.002252 425.6 43.1
432(21) 0.002315 425.3 42.7
426(21) 0.002347 425.0 42.2
465(22) 0.002151 424.7 41.8
463(22) 0.002160 424.5 41.3
446(21) 0.002242 424.2 40.9
425(21) 0.002353 423.9 40.4
453(21) 0.002208 423.6 39.9
439(21) 0.002278 423.3 39.4
436(21) 0.002294 423.0 38.8
453(21) 0.002208 422.7 38.2
439(21) 0.002278 422.4 37.6
436(21) 0.002294 422.2 37.0
459(21) 0.002179 421.9 36.3
454(21) 0.002203 421.6 35.7
447(21) 0.002237 421.3 35.1
406(20) 0.002463 421.0 34.6
482(22) 0.002075 420.7 34.0
420(20) 0.002381 420.4 33.5
467(22) 0.002141 420.1 33.0
472(22) 0.002119 419.8 32.6
456(21) 0.002193 419.6 32.2
441(21) 0.002268 419.3 31.9
405(20) 0.002469 419.0 31.6
433(21) 0.002309 418.7 31.3
444(21) 0.002252 418.4 31.1
444(21) 0.002252 418.1 31.0
455(21) 0.002198 417.8 30.9
444(21) 0.002252 417.5 30.8
443(21) 0.002257 417.3 30.8
426(21) 0.002347 417.0 30.9
445(21) 0.002247 416.7 30.9
440(21) 0.002273 416.4 31.1
446(21) 0.002242 416.1 31.2
416(20) 0.002404 415.8 31.4
434(21) 0.002304 415.5 31.7
444(21) 0.002252 415.2 31.9
430(21) 0.002326 415.0 32.2
432(21) 0.002315 414.7 32.6
437(21) 0.002288 414.4 32.9
436(21) 0.002294 414.1 33.3
464(22) 0.002155 413.8 33.7
445(21) 0.002247 413.5 34.1
424(21) 0.002358 413.6 34.5
462(21) 0.002164 413.7 35.0
400(20) 0.002500 413.7 35.4
412(20) 0.002427 413.8 35.9
469(22) 0.002132 413.9 36.3
462(21) 0.002164 413.9 36.8
486(22) 0.002058 414.0 37.2
477(22) 0.002096 414.1 37.6
437(21) 0.002288 414.1 38.1
457(21) 0.002188 414.2 38.5
460(21) 0.002174 414.3 38.9
445(21) 0.002247 414.4 39.3
437(21) 0.002288 414.4 39.7
460(21) 0.002174 414.5 40.0
394(20) 0.002538 414.6 40.4
456(21) 0.002193 414.6 40.7
432(21) 0.002315 414.7 41.1
453(21) 0.002208 414.8 41.4
474(22) 0.002110 414.9 41.7
452(21) 0.002212 414.9 42.1
474(22) 0.002110 415.0 42.4
461(21) 0.002169 415.1 42.8
478(22) 0.002092 415.1 43.2
455(21) 0.002198 415.2 43.6
471(22) 0.002123 415.3 44.0
494(22) 0.002024 415.3 44.5
472(22) 0.002119 415.4 45.0
435(21) 0.002299 415.5 45.5
434(21) 0.002304 415.6 46.1
471(22) 0.002123 415.6 46.7
466(22) 0.002146 415.7 47.4
455(21) 0.002198 415.8 48.1
428(21) 0.002336 415.8 49.0
470(22) 0.002128 415.9 49.9
461(21) 0.002169 416.0 50.8
421(21) 0.002375 416.1 51.9
449(21) 0.002227 416.1 53.1
489(22) 0.002045 416.2 54.4
465(22) 0.002151 416.3 55.8
474(22) 0.002110 416.3 57.3
514(23) 0.001946 416.4 58.9
454(21) 0.002203 416.5 60.7
469(22) 0.002132 416.5 62.6
476(22) 0.002101 416.6 64.7
464(22) 0.002155 416.7 67.0
477(22) 0.002096 416.8 69.4
478(22) 0.002092 416.8 72.0
491(22) 0.002037 416.9 74.9
486(22) 0.002058 417.0 77.9
463(22) 0.002160 417.0 81.1
442(21) 0.002262 417.1 84.6
484(22) 0.002066 417.2 88.3
469(22) 0.002132 417.2 92.2
543(23) 0.001842 417.3 96.3
488(22) 0.002049 417.4 100.7
514(23) 0.001946 417.5 105.3
520(23) 0.001923 417.5 110.2
487(22) 0.002053 417.6 115.3
529(23) 0.001890 417.7 120.6
552(23) 0.001812 417.7 126.2
542(23) 0.001845 417.8 131.9
583(24) 0.001715 417.9 137.9
570(24) 0.001754 418.0 144.0
580(24) 0.001724 418.0 150.4
601(25) 0.001664 418.1 156.9
637(25) 0.001570 418.2 163.5
636(25) 0.001572 418.2 170.2
645(25) 0.001550 418.3 177.0
630(25) 0.001587 418.4 183.8
630(25) 0.001587 418.4 190.5
649(25) 0.001541 418.5 197.3
653(26) 0.001531 418.6 203.9
622(25) 0.001608 418.7 210.3
687(26) 0.001456 418.7 216.5
666(26) 0.001501 418.8 222.5
687(26) 0.001456 418.9 228.1
672(26) 0.001488 418.9 233.3
714(27) 0.001401 419.0 238.1
676(26) 0.001479 419.1 242.5
671(26) 0.001490 419.2 246.4
709(27) 0.001410 419.2 249.8
680(26) 0.001471 419.3 252.8
676(26) 0.001479 419.4 255.3
691(26) 0.001447 419.4 257.4
664(26) 0.001506 419.5 259.2
674(26) 0.001484 419.6 260.6
663(26) 0.001508 419.6 261.7
676(26) 0.001479 419.7 262.5
631(25) 0.001585 419.8 263.1
709(27) 0.001410 419.9 263.4
666(26) 0.001501 419.9 263.4
685(26) 0.001460 420.0 263.2
690(26) 0.001449 420.1 262.7
675(26) 0.001481 420.1 261.8
676(26) 0.001479 420.2 260.5
665(26) 0.001504 420.3 258.6
648(25) 0.001543 420.4 256.2
679(26) 0.001473 420.4 253.1
640(25) 0.001563 420.5 249.3
675(26) 0.001481 420.6 244.8
666(26) 0.001501 420.6 239.5
604(25) 0.001656 420.7 233.6
594(24) 0.001684 420.8 227.1
639(25) 0.001565 420.8 220.1
654(26) 0.001529 420.9 212.7
618(25) 0.001618 421.0 205.0
590(24) 0.001695 421.1 197.1
612(25) 0.001634 421.1 189.2
562(24) 0.001779 421.2 181.2
574(24) 0.001742 421.3 173.4
558(24) 0.001792 421.3 165.8
540(23) 0.001852 421.4 158.4
563(24) 0.001776 421.5 151.2
562(24) 0.001779 421.6 144.3
539(23) 0.001855 421.6 137.8
511(23) 0.001957 421.7 131.6
546(23) 0.001832 421.8 125.7
518(23) 0.001931 421.8 120.2
515(23) 0.001942 421.9 115.1
489(22) 0.002045 422.0 110.3
495(22) 0.002020 422.0 105.8
495(22) 0.002020 422.1 101.6
480(22) 0.002083 422.2 97.7
497(22) 0.002012 422.3 94.1
447(21) 0.002237 422.3 90.8
488(22) 0.002049 422.4 87.8
490(22) 0.002041 422.5 84.9
438(21) 0.002283 422.5 82.3
439(21) 0.002278 422.6 79.9
479(22) 0.002088 422.7 77.7
479(22) 0.002088 422.8 75.6
465(22) 0.002151 422.8 73.7
445(21) 0.002247 422.9 71.9
457(21) 0.002188 423.0 70.2
436(21) 0.002294 423.0 68.7
433(21) 0.002309 423.1 67.2
442(21) 0.002262 423.2 65.8
472(22) 0.002119 423.2 64.5
452(21) 0.002212 423.3 63.2
460(21) 0.002174 423.4 62.1
438(21) 0.002283 423.5 60.9
457(21) 0.002188 423.5 59.9
452(21) 0.002212 423.6 58.8
438(21) 0.002283 423.7 57.9
428(21) 0.002336 423.7 56.9
453(21) 0.002208 423.8 56.0
454(21) 0.002203 423.9 55.1
424(21) 0.002358 424.0 54.3
446(21) 0.002242 424.0 53.5
397(20) 0.002519 424.1 52.7
415(20) 0.002410 424.2 51.9
432(21) 0.002315 424.2 51.2
457(21) 0.002188 424.2 50.5
411(20) 0.002433 424.1 49.8
450(21) 0.002222 423.9 49.2
437(21) 0.002288 423.8 48.5
434(21) 0.002304 423.6 47.9
439(21) 0.002278 423.5 47.4
430(21) 0.002326 423.3 46.8
426(21) 0.002347 423.2 46.3
450(21) 0.002222 423.0 45.8
439(21) 0.002278 422.9 45.3
396(20) 0.002525 422.7 44.9
417(20) 0.002398 422.6 44.4
412(20) 0.002427 422.5 44.0
432(21) 0.002315 422.3 43.6
422(21) 0.002370 422.2 43.3
454(21) 0.002203 422.0 42.9
449(21) 0.002227 421.9 42.6
423(21) 0.002364 421.7 42.4
432(21) 0.002315 421.6 42.1
415(20) 0.002410 421.4 41.9
447(21) 0.002237 421.3 41.7
435(21) 0.002299 421.1 41.5
420(20) 0.002381 421.0 41.3
436(21) 0.002294 420.9 41.2
453(21) 0.002208 420.7 41.1
433(21) 0.002309 420.6 41.0
429(21) 0.002331 420.4 41.0
437(21) 0.002288 420.3 40.9
436(21) 0.002294 420.1 40.9
424(21) 0.002358 420.0 41.0
452(21) 0.002212 419.8 41.0
418(20) 0.002392 419.7 41.1
470(22) 0.002128 419.6 41.2
434(21) 0.002304 419.4 41.3
421(21) 0.002375 419.3 41.4
439(21) 0.002278 419.1 41.6
398(20) 0.002513 419.0 41.8
424(21) 0.002358 418.8 42.0
424(21) 0.002358 418.7 42.3
449(21) 0.002227 418.5 42.5
421(21) 0.002375 418.4 42.8
460(21) 0.002174 418.2 43.1
451(21) 0.002217 418.1 43.4
462(21) 0.002164 418.0 43.8
449(21) 0.002227 417.8 44.1
416(20) 0.002404 417.7 44.5
443(21) 0.002257 417.5 44.9
453(21) 0.002208 417.4 45.3
443(21) 0.002257 417.2 45.7
437(21) 0.002288 417.1 46.2
439(21) 0.002278 416.9 46.6
434(21) 0.002304 416.8 47.1
437(21) 0.002288 416.6 47.5
456(21) 0.002193 416.5 48.0
436(21) 0.002294 416.4 48.5
494(22) 0.002024 416.2 48.9
453(21) 0.002208 416.1 49.4
471(22) 0.002123 415.9 49.9
435(21) 0.002299 415.8 50.3
408(20) 0.002451 415.6 50.8
422(21) 0.002370 415.5 51.2
449(21) 0.002227 415.3 51.7
410(20) 0.002439 415.2 52.1
446(21) 0.002242 415.1 52.5
444(21) 0.002252 414.9 52.9
452(21) 0.002212 414.8 53.2
419(20) 0.002387 414.6 53.6
435(21) 0.002299 414.5 53.9
437(21) 0.002288 414.3 54.3
447(21) 0.002237 414.2 54.6
436(21) 0.002294 414.0 54.9
425(21) 0.002353 413.9 55.2
472(22) 0.002119 413.7 55.5
442(21) 0.002262 413.6 55.7
458(21) 0.002183 413.5 56.0
408(20) 0.002451 413.3 56.2
412(20) 0.002427 413.2 56.5
444(21) 0.002252 413.0 56.7
472(22) 0.002119 412.9 57.0
455(21) 0.002198 412.7 57.2
427(21) 0.002342 412.6 57.5
418(20) 0.002392 412.4 57.7
449(21) 0.002227 412.3 58.0
417(20) 0.002398 412.1 58.3
462(21) 0.002164 412.0 58.5
437(21) 0.002288 411.9 58.8
419(20) 0.002387 411.7 59.1
454(21) 0.002203 411.6 59.4
422(21) 0.002370 411.4 59.7
473(22) 0.002114 411.3 60.0
462(21) 0.002164 411.1 60.3
443(21) 0.002257 411.0 60.6
451(21) 0.002217 410.8 61.0
462(21) 0.002164 410.7 61.3
430(21) 0.002326 410.6 61.6
410(20) 0.002439 410.4 61.9
483(22) 0.002070 410.3 62.2
449(21) 0.002227 410.1 62.5
425(21) 0.002353 410.0 62.8
441(21) 0.002268 409.8 63.1
454(21) 0.002203 409.7 63.4
445(21) 0.002247 409.5 63.6
428(21) 0.002336 409.4 63.8
453(21) 0.002208 409.2 64.0
447(21) 0.002237 409.1 64.2
443(21) 0.002257 409.0 64.4
460(21) 0.002174 408.8 64.5
453(21) 0.002208 408.7 64.5
462(21) 0.002164 408.5 64.5
442(21) 0.002262 408.4 64.4
450(21) 0.002222 408.2 64.2
445(21) 0.002247 408.1 64.0
422(21) 0.002370 407.9 63.7
447(21) 0.002237 407.8 63.4
428(21) 0.002336 407.6 63.0
426(21) 0.002347 407.5 62.6
438(21) 0.002283 407.4 62.2
451(21) 0.002217 407.2 61.8
431(21) 0.002320 407.1 61.3
442(21) 0.002262 406.9 60.9
415(20) 0.002410 406.8 60.4
408(20) 0.002451 406.6 60.0
430(21) 0.002326 406.5 59.5
440(21) 0.002273 406.3 59.0
454(21) 0.002203 406.2 58.5
456(21) 0.002193 406.1 58.1
451(21) 0.002217 405.9 57.6
421(21) 0.002375 405.8 57.1
451(21) 0.002217 405.6 56.6
436(21) 0.002294 405.5 56.1
454(21) 0.002203 405.3 55.7
451(21) 0.002217 405.2 55.2
443(21) 0.002257 405.0 54.8
407(20) 0.002457 404.9 54.3
443(21) 0.002257 404.7 53.9
403(20) 0.002481 404.6 53.5
397(20) 0.002519 404.5 53.1
427(21) 0.002342 404.3 52.8
451(21) 0.002217 404.2 52.5
451(21) 0.002217 404.0 52.2
437(21) 0.002288 403.9 51.9
441(21) 0.002268 403.7 51.7
451(21) 0.002217 403.6 51.5
434(21) 0.002304 403.4 51.3
410(20) 0.002439 403.3 51.2
423(21) 0.002364 403.1 51.2
417(20) 0.002398 403.0 51.3
410(20) 0.002439 402.9 51.4
409(20) 0.002445 402.7 51.7
432(21) 0.002315 402.6 52.1
430(21) 0.002326 402.4 52.7
431(21) 0.002320 402.3 53.5
450(21) 0.002222 402.1 54.7
453(21) 0.002208 402.0 56.3
456(21) 0.002193 401.8 58.5
441(21) 0.002268 401.7 61.4
440(21) 0.002273 401.5 65.2
463(22) 0.002160 401.4 70.1
486(22) 0.002058 401.3 76.3
466(22) 0.002146 401.1 83.9
483(22) 0.002070 401.0 93.0
506(22) 0.001976 400.8 103.6
515(23) 0.001942 400.7 115.3
535(23) 0.001869 400.5 127.9
531(23) 0.001883 400.4 140.4
538(23) 0.001859 400.2 151.5
542(23) 0.001845 400.1 159.7
502(22) 0.001992 400.0 163.4
533(23) 0.001876 399.8 161.7
536(23) 0.001866 399.7 155.1
449(21) 0.002227 399.5 144.9
495(22) 0.002020 399.4 132.7
485(22) 0.002062 399.2 120.1
476(22) 0.002101 399.1 107.9
471(22) 0.002123 398.9 96.8
478(22) 0.002092 398.8 87.2
454(21) 0.002203 398.6 79.0
447(21) 0.002237 398.5 72.3
413(20) 0.002421 398.4 67.0
387(20) 0.002584 398.2 62.8
452(21) 0.002212 398.1 59.7
409(20) 0.002445 397.9 57.4
466(22) 0.002146 397.8 55.7
423(21) 0.002364 397.6 54.6
478(22) 0.002092 397.5 53.9
472(22) 0.002119 397.3 53.5
460(21) 0.002174 397.2 53.4
428(21) 0.002336 397.0 53.4
436(21) 0.002294 396.9 53.7
410(20) 0.002439 396.8 54.2
435(21) 0.002299 396.6 54.8
428(21) 0.002336 396.5 55.6
430(21) 0.002326 396.3 56.5
428(21) 0.002336 396.2 57.5
429(21) 0.002331 396.0 58.7
450(21) 0.002222 395.9 60.1
453(21) 0.002208 395.7 61.6
421(21) 0.002375 395.6 63.1
436(21) 0.002294 395.5 64.8
461(21) 0.002169 395.3 66.6
401(20) 0.002494 395.2 68.5
398(20) 0.002513 395.0 70.4
467(22) 0.002141 394.9 72.4
451(21) 0.002217 394.7 74.3
461(21) 0.002169 394.6 76.3
472(22) 0.002119 394.4 78.1
442(21) 0.002262 394.3 80.0
455(21) 0.002198 394.1 81.7
495(22) 0.002020 394.0 83.4
475(22) 0.002105 393.9 85.2
460(21) 0.002174 393.7 86.9
482(22) 0.002075 393.6 88.6
490(22) 0.002041 393.4 90.4
506(22) 0.001976 393.3 92.2
519(23) 0.001927 393.1 94.1
469(22) 0.002132 393.0 96.1
495(22) 0.002020 392.8 98.0
491(22) 0.002037 392.7 100.1
506(22) 0.001976 392.5 102.1
515(23) 0.001942 392.4 104.2
496(22) 0.002016 392.3 106.3
516(23) 0.001938 392.1 108.3
519(23) 0.001927 392.0 110.4
475(22) 0.002105 391.8 112.3
490(22) 0.002041 391.7 114.2
501(22) 0.001996 391.5 116.0
515(23) 0.001942 391.4 117.6
524(23) 0.001908 391.2 119.1
519(23) 0.001927 391.1 120.5
546(23) 0.001832 391.0 121.7
533(23) 0.001876 390.8 122.7
494(22) 0.002024 390.7 123.5
545(23) 0.001835 390.5 124.1
517(23) 0.001934 390.4 124.5
526(23) 0.001901 390.2 124.7
539(23) 0.001855 390.1 124.8
522(23) 0.001916 389.9 124.6
532(23) 0.001880 389.8 124.3
533(23) 0.001876 389.6 123.9
507(23) 0.001972 389.5 123.3
494(22) 0.002024 389.4 122.6
500(22) 0.002000 389.2 121.8
481(22) 0.002079 389.1 121.0
498(22) 0.002008 388.9 120.0
476(22) 0.002101 388.8 119.0
549(23) 0.001822 388.6 118.0
504(22) 0.001984 388.5 117.0
521(23) 0.001919 388.3 116.0
498(22) 0.002008 388.2 115.0
503(22) 0.001988 388.0 114.1
507(23) 0.001972 387.9 113.1
522(23) 0.001916 387.8 112.2
508(23) 0.001968 387.6 111.3
481(22) 0.002079 387.5 110.3
503(22) 0.001988 387.3 109.3
492(22) 0.002033 387.2 108.2
495(22) 0.002020 387.0 107.0
474(22) 0.002110 386.9 105.5
455(21) 0.002198 386.7 103.8
464(22) 0.002155 386.6 101.7
500(22) 0.002000 386.5 99.4
468(22) 0.002137 386.3 96.9
463(22) 0.002160 386.2 94.1
481(22) 0.002079 386.0 91.3
473(22) 0.002114 385.9 88.3
475(22) 0.002105 385.7 85.4
439(21) 0.002278 385.6 82.5
460(21) 0.002174 385.4 79.7
470(22) 0.002128 385.3 77.0
469(22) 0.002132 385.1 74.5
445(21) 0.002247 385.0 72.1
462(21) 0.002164 384.9 70.0
433(21) 0.002309 384.7 68.2
463(22) 0.002160 384.6 66.6
454(21) 0.002203 384.4 65.4
436(21) 0.002294 384.3 64.7
497(22) 0.002012 384.1 64.4
471(22) 0.002123 384.0 64.7
424(21) 0.002358 383.8 65.6
442(21) 0.002262 383.7 67.3
437(21) 0.002288 383.5 69.7
434(21) 0.002304 383.4 72.9
466(22) 0.002146 383.3 76.7
472(22) 0.002119 383.1 81.1
475(22) 0.002105 383.0 85.8
451(21) 0.002217 382.8 90.3
464(22) 0.002155 382.7 94.0
476(22) 0.002101 382.5 96.2
462(21) 0.002164 382.4 96.2
476(22) 0.002101 382.2 94.1
453(21) 0.002208 382.1 90.0
420(20) 0.002381 382.0 84.6
435(21) 0.002299 381.8 78.7
428(21) 0.002336 381.7 72.7
423(21) 0.002364 381.5 67.1
419(20) 0.002387 381.4 62.2
439(21) 0.002278 381.2 57.9
429(21) 0.002331 381.1 54.3
437(21) 0.002288 380.9 51.5
447(21) 0.002237 380.8 49.3
416(20) 0.002404 380.6 47.7
406(20) 0.002463 380.5 46.7
418(20) 0.002392 380.4 46.2
405(20) 0.002469 380.2 46.1
429(21) 0.002331 380.1 46.4
445(21) 0.002247 379.9 47.0
429(21) 0.002331 379.8 47.9
391(20) 0.002558 379.6 49.2
429(21) 0.002331 379.5 50.7
445(21) 0.002247 379.3 52.5
450(21) 0.002222 379.2 54.6
428(21) 0.002336 379.0 57.0
415(20) 0.002410 378.9 59.7
405(20) 0.002469 378.8 62.6
435(21) 0.002299 378.6 65.7
440(21) 0.002273 378.5 69.0
451(21) 0.002217 378.3 72.4
404(20) 0.002475 378.2 76.0
447(21) 0.002237 378.0 79.6
477(22) 0.002096 377.9 83.1
420(20) 0.002381 377.7 86.5
448(21) 0.002232 377.6 89.7
454(21) 0.002203 377.5 92.6
493(22) 0.002028 377.3 95.2
443(21) 0.002257 377.2 97.5
462(21) 0.002164 377.0 99.5
501(22) 0.001996 376.9 101.3
490(22) 0.002041 376.7 103.1
460(21) 0.002174 376.6 104.8
464(22) 0.002155 376.4 106.6
485(22) 0.002062 376.3 108.7
450(21) 0.002222 376.1 110.9
494(22) 0.002024 376.0 113.3
508(23) 0.001968 375.9 115.7
487(22) 0.002053 375.7 117.9
514(23) 0.001946 375.6 119.7
511(23) 0.001957 375.4 120.8
477(22) 0.002096 375.3 121.0
492(22) 0.002033 375.1 120.0
496(22) 0.002016 375.0 118.1
502(22) 0.001992 374.8 115.4
493(22) 0.002028 374.7 112.2
463(22) 0.002160 374.5 108.7
449(21) 0.002227 374.4 105.1
477(22) 0.002096 374.3 101.6
461(21) 0.002169 374.1 98.3
462(21) 0.002164 374.0 95.1
491(22) 0.002037 373.8 92.1
481(22) 0.002079 373.7 89.3
446(21) 0.002242 373.5 86.7
471(22) 0.002123 373.4 84.2
455(21) 0.002198 373.2 81.7
454(21) 0.002203 373.1 79.4
442(21) 0.002262 372.9 77.1
483(22) 0.002070 372.8 74.8
441(21) 0.002268 372.7 72.5
437(21) 0.002288 372.5 70.3
446(21) 0.002242 372.4 68.0
446(21) 0.002242 372.2 65.7
436(21) 0.002294 372.1 63.4
423(21) 0.002364 371.9 61.0
405(20) 0.002469 371.8 58.7
421(21) 0.002375 371.6 56.4
420(20) 0.002381 371.5 54.1
430(21) 0.002326 371.4 51.8
397(20) 0.002519 371.2 49.6
415(20) 0.002410 371.1 47.5
439(21) 0.002278 370.9 45.4
395(20) 0.002532 370.8 43.4
429(21) 0.002331 370.6 41.4
415(20) 0.002410 370.5 39.6
434(21) 0.002304 370.3 37.8
418(20) 0.002392 370.2 36.1
394(20) 0.002538 370.0 34.5
412(20) 0.002427 369.9 33.0
413(20) 0.002421 369.8 31.6
426(21) 0.002347 369.6 30.2
390(20) 0.002564 369.5 29.0
385(20) 0.002597 369.3 27.8
388(20) 0.002577 369.2 26.7
407(20) 0.002457 369.0 25.6
408(20) 0.002451 368.9 24.6
399(20) 0.002506 368.7 23.7
402(20) 0.002488 368.6 22.9
395(20) 0.002532 368.4 22.1
431(21) 0.002320 368.3 21.3
413(20) 0.002421 368.2 20.7
464(22) 0.002155 368.0 20.0
495(22) 0.002020 367.9 19.4
436(21) 0.002294 367.7 18.9
428(21) 0.002336 367.6 18.4
404(20) 0.002475 367.4 17.9
418(20) 0.002392 367.3 17.5
419(20) 0.002387 367.1 17.1
402(20) 0.002488 367.0 16.7
395(20) 0.002532 366.9 16.4
378(19) 0.002646 366.7 16.0
375(19) 0.002667 366.6 15.8
385(20) 0.002597 366.4 15.5
410(20) 0.002439 366.3 15.2
372(19) 0.002688 366.1 15.0
413(20) 0.002421 366.0 14.8
406(20) 0.002463 365.8 14.6
416(20) 0.002404 365.7 14.4
375(19) 0.002667 365.5 14.3
404(20) 0.002475 365.4 14.1
387(20) 0.002584 365.3 14.0
407(20) 0.002457 365.1 13.9
362(19) 0.002762 365.0 13.7
364(19) 0.002747 364.8 13.6
366(19) 0.002732 364.7 13.6
382(20) 0.002618 364.5 13.5
373(19) 0.002681 364.4 13.4
356(19) 0.002809 364.2 13.4
367(19) 0.002725 364.1 13.3
376(19) 0.002660 363.9 13.3
345(19) 0.002899 363.8 13.3
390(20) 0.002564 363.7 13.2
390(20) 0.002564 363.5 13.2
382(20) 0.002618 363.4 13.2
399(20) 0.002506 363.2 13.3
382(20) 0.002618 363.1 13.3
370(19) 0.002703 362.9 13.3
387(20) 0.002584 362.8 13.4
370(19) 0.002703 362.6 13.4
391(20) 0.002558 362.5 13.5
378(19) 0.002646 362.4 13.6
361(19) 0.002770 362.2 13.7
390(20) 0.002564 362.1 13.8
392(20) 0.002551 361.9 13.9
359(19) 0.002786 362.0 14.0
344(19) 0.002907 362.2 14.2
379(19) 0.002639 362.5 14.3
352(19) 0.002841 362.7 14.5
387(20) 0.002584 362.9 14.7
351(19) 0.002849 363.1 14.9
381(20) 0.002625 363.3 15.2
347(19) 0.002882 363.5 15.4
378(19) 0.002646 363.7 15.7
369(19) 0.002710 363.9 16.0
404(20) 0.002475 364.1 16.3
371(19) 0.002695 364.4 16.6
403(20) 0.002481 364.6 16.9
392(20) 0.002551 364.8 17.3
405(20) 0.002469 365.0 17.7
392(20) 0.002551 365.2 18.1
387(20) 0.002584 365.4 18.5
400(20) 0.002500 365.6 19.0
425(21) 0.002353 365.8 19.5
415(20) 0.002410 366.0 20.0
431(21) 0.002320 366.2 20.5
414(20) 0.002415 366.5 21.1
437(21) 0.002288 366.7 21.6
478(22) 0.002092 366.9 22.2
413(20) 0.002421 367.1 22.8
474(22) 0.002110 367.3 23.5
481(22) 0.002079 367.5 24.1
435(21) 0.002299 367.7 24.8
403(20) 0.002481 367.9 25.5
431(21) 0.002320 368.1 26.2
411(20) 0.002433 368.4 26.9
434(21) 0.002304 368.6 27.6
425(21) 0.002353 368.8 28.4
399(20) 0.002506 369.0 29.1
432(21) 0.002315 369.2 29.9
417(20) 0.002398 369.4 30.6
430(21) 0.002326 369.6 31.4
417(20) 0.002398 369.8 32.1
433(21) 0.002309 370.0 32.8
439(21) 0.002278 370.2 33.5
403(20) 0.002481 370.5 34.2
388(20) 0.002577 370.7 34.9
382(20) 0.002618 370.9 35.5
430(21) 0.002326 371.1 36.1
409(20) 0.002445 371.3 36.6
421(21) 0.002375 371.5 37.1
387(20) 0.002584 371.7 37.5
401(20) 0.002494 371.9 37.9
438(21) 0.002283 372.1 38.3
402(20) 0.002488 372.3 38.6
383(20) 0.002611 372.6 38.8
420(20) 0.002381 372.8 39.0
449(21) 0.002227 373.0 39.1
402(20) 0.002488 373.2 39.2
416(20) 0.002404 373.4 39.3
389(20) 0.002571 373.6 39.3
410(20) 0.002439 373.8 39.3
393(20) 0.002545 374.0 39.3
404(20) 0.002475 374.2 39.3
419(20) 0.002387 374.5 39.2
395(20) 0.002532 374.7 39.2
410(20) 0.002439 374.9 39.1
401(20) 0.002494 375.1 39.1
409(20) 0.002445 375.3 39.1
428(21) 0.002336 375.5 39.1
389(20) 0.002571 375.7 39.1
402(20) 0.002488 375.9 39.2
399(20) 0.002506 376.1 39.3
408(20) 0.002451 376.3 39.4
392(20) 0.002551 376.6 39.6
382(20) 0.002618 376.8 39.8
414(20) 0.002415 377.0 40.1
412(20) 0.002427 377.2 40.5
430(21) 0.002326 377.4 41.0
422(21) 0.002370 377.6 41.5
421(21) 0.002375 377.8 42.1
396(20) 0.002525 378.0 42.8
417(20) 0.002398 378.2 43.6
407(20) 0.002457 378.5 44.5
405(20) 0.002469 378.7 45.5
403(20) 0.002481 378.9 46.7
421(21) 0.002375 379.1 47.9
427(21) 0.002342 379.3 49.3
393(20) 0.002545 379.5 50.9
420(20) 0.002381 379.7 52.5
432(21) 0.002315 379.9 54.4
426(21) 0.002347 380.1 56.3
439(21) 0.002278 380.3 58.4
413(20) 0.002421 380.6 60.7
470(22) 0.002128 380.8 63.1
384(20) 0.002604 381.0 65.6
449(21) 0.002227 381.2 68.3
431(21) 0.002320 381.4 71.1
446(21) 0.002242 381.6 74.0
460(21) 0.002174 381.8 77.0
415(20) 0.002410 382.0 80.1
436(21) 0.002294 382.2 83.2
439(21) 0.002278 382.4 86.4
433(21) 0.002309 382.7 89.5
456(21) 0.002193 382.9 92.7
456(21) 0.002193 383.1 95.7
441(21) 0.002268 383.3 98.6
471(22) 0.002123 383.5 101.4
471(22) 0.002123 383.7 103.8
520(23) 0.001923 383.9 106.1
491(22) 0.002037 384.1 107.9
479(22) 0.002088 384.3 109.4
477(22) 0.002096 384.6 110.4
465(22) 0.002151 384.8 111.0
473(22) 0.002114 385.0 111.1
496(22) 0.002016 385.2 110.8
482(22) 0.002075 385.4 110.0
508(23) 0.001968 385.6 108.8
463(22) 0.002160 385.8 107.2
472(22) 0.002119 386.0 105.2
519(23) 0.001927 386.2 103.0
472(22) 0.002119 386.4 100.6
526(23) 0.001901 386.7 98.0
480(22) 0.002083 386.9 95.3
459(21) 0.002179 387.1 92.5
467(22) 0.002141 387.3 89.7
461(21) 0.002169 387.5 86.9
487(22) 0.002053 387.7 84.1
456(21) 0.002193 387.9 81.5
508(23) 0.001968 388.1 79.0
436(21) 0.002294 388.3 76.6
466(22) 0.002146 388.6 74.5
467(22) 0.002141 388.8 72.6
453(21) 0.002208 389.0 71.0
459(21) 0.002179 389.2 69.7
441(21) 0.002268 389.4 68.8
450(21) 0.002222 389.6 68.4
450(21) 0.002222 389.8 68.4
456(21) 0.002193 390.0 68.9
478(22) 0.002092 390.2 69.9
483(22) 0.002070 390.4 71.4
486(22) 0.002058 390.7 73.4
441(21) 0.002268 390.9 75.8
473(22) 0.002114 391.1 78.5
443(21) 0.002257 391.3 81.3
467(22) 0.002141 391.5 84.0
455(21) 0.002198 391.7 86.1
481(22) 0.002079 391.9 87.4
470(22) 0.002128 392.1 87.6
500(22) 0.002000 392.3 86.4
485(22) 0.002062 392.5 83.8
444(21) 0.002252 392.8 80.2
410(20) 0.002439 393.0 75.7
426(21) 0.002347 393.2 70.9
457(21) 0.002188 393.4 65.9
426(21) 0.002347 393.6 61.1
414(20) 0.002415 393.8 56.5
443(21) 0.002257 394.0 52.3
464(22) 0.002155 394.2 48.6
431(21) 0.002320 394.4 45.2
435(21) 0.002299 394.7 42.3
426(21) 0.002347 394.9 39.7
395(20) 0.002532 395.1 37.5
392(20) 0.002551 395.3 35.6
387(20) 0.002584 395.5 34.0
375(19) 0.002667 395.7 32.7
425(21) 0.002353 395.9 31.5
418(20) 0.002392 396.1 30.5
426(21) 0.002347 396.3 29.6
383(20) 0.002611 396.5 28.8
433(21) 0.002309 396.8 28.1
391(20) 0.002558 397.0 27.5
411(20) 0.002433 397.2 26.9
408(20) 0.002451 397.4 26.4
410(20) 0.002439 397.6 26.0
411(20) 0.002433 397.8 25.5
406(20) 0.002463 398.0 25.2
443(21) 0.002257 398.2 24.8
437(21) 0.002288 398.4 24.5
426(21) 0.002347 398.7 24.2
392(20) 0.002551 398.9 24.0
436(21) 0.002294 399.1 23.7
408(20) 0.002451 399.3 23.5
395(20) 0.002532 399.5 23.4
387(20) 0.002584 399.7 23.2
391(20) 0.002558 399.9 23.1
406(20) 0.002463 400.1 23.0
395(20) 0.002532 400.3 22.9
404(20) 0.002475 400.5 22.9
397(20) 0.002519 400.6 22.9
392(20) 0.002551 400.5 22.9
392(20) 0.002551 400.4 22.9
391(20) 0.002558 400.3 23.0
410(20) 0.002439 400.3 23.1
375(19) 0.002667 400.2 23.2
395(20) 0.002532 400.1 23.4
388(20) 0.002577 400.0 23.6
389(20) 0.002571 399.9 23.8
390(20) 0.002564 399.8 24.0
412(20) 0.002427 399.7 24.3
393(20) 0.002545 399.6 24.6
409(20) 0.002445 399.6 24.9
395(20) 0.002532 399.5 25.3
420(20) 0.002381 399.4 25.8
423(21) 0.002364 399.3 26.3
405(20) 0.002469 399.2 26.8
434(21) 0.002304 399.1 27.4
438(21) 0.002283 399.0 28.1
396(20) 0.002525 399.0 28.9
383(20) 0.002611 398.9 29.7
441(21) 0.002268 398.8 30.7
423(21) 0.002364 398.7 31.7
422(21) 0.002370 398.6 32.9
443(21) 0.002257 398.5 34.2
421(21) 0.002375 398.4 35.6
425(21) 0.002353 398.3 37.1
415(20) 0.002410 398.3 38.8
416(20) 0.002404 398.2 40.5
470(22) 0.002128 398.1 42.3
442(21) 0.002262 398.0 44.3
413(20) 0.002421 397.9 46.3
437(21) 0.002288 397.8 48.4
451(21) 0.002217 397.7 50.4
433(21) 0.002309 397.6 52.5
456(21) 0.002193 397.6 54.4
433(21) 0.002309 397.5 56.3
429(21) 0.002331 397.4 57.8
429(21) 0.002331 397.3 59.1
435(21) 0.002299 397.2 60.0
478(22) 0.002092 397.1 60.5
484(22) 0.002066 397.0 60.7
457(21) 0.002188 397.0 60.5
461(21) 0.002169 396.9 60.0
455(21) 0.002198 396.8 59.4
439(21) 0.002278 396.7 58.6
455(21) 0.002198 396.6 57.8
436(21) 0.002294 396.5 56.9
455(21) 0.002198 396.4 56.2
466(22) 0.002146 396.3 55.4
443(21) 0.002257 396.3 54.8
439(21) 0.002278 396.2 54.2
465(22) 0.002151 396.1 53.8
465(22) 0.002151 396.0 53.4
453(21) 0.002208 395.9 53.2
502(22) 0.001992 395.8 53.0
447(21) 0.002237 395.7 52.9
453(21) 0.002208 395.6 53.0
443(21) 0.002257 395.6 53.0
452(21) 0.002212 395.5 53.2
496(22) 0.002016 395.4 53.3
492(22) 0.002033 395.3 53.6
476(22) 0.002101 395.2 53.8
492(22) 0.002033 395.1 54.0
434(21) 0.002304 395.0 54.3
459(21) 0.002179 395.0 54.5
442(21) 0.002262 394.9 54.8
493(22) 0.002028 394.8 55.0
475(22) 0.002105 394.7 55.2
488(22) 0.002049 394.6 55.4
446(21) 0.002242 394.5 55.6
471(22) 0.002123 394.4 55.7
450(21) 0.002222 394.3 55.8
482(22) 0.002075 394.3 55.9
462(21) 0.002164 394.2 55.9
474(22) 0.002110 394.1 55.9
483(22) 0.002070 394.0 55.9
489(22) 0.002045 393.9 55.8
467(22) 0.002141 393.8 55.7
515(23) 0.001942 393.7 55.6
460(21) 0.002174 393.6 55.4
491(22) 0.002037 393.6 55.2
506(22) 0.001976 393.5 55.0
459(21) 0.002179 393.4 54.7
433(21) 0.002309 393.3 54.4
485(22) 0.002062 393.2 54.1
449(21) 0.002227 393.1 53.7
450(21) 0.002222 393.0 53.4
453(21) 0.002208 393.0 53.0
467(22) 0.002141 392.9 52.5
440(21) 0.002273 392.8 52.1
465(22) 0.002151 392.7 51.6
490(22) 0.002041 392.6 51.2
456(21) 0.002193 392.5 50.7
468(22) 0.002137 392.4 50.2
459(21) 0.002179 392.3 49.7
462(21) 0.002164 392.3 49.2
466(22) 0.002146 392.2 48.7
438(21) 0.002283 392.1 48.1
431(21) 0.002320 392.0 47.6
438(21) 0.002283 391.9 47.1
489(22) 0.002045 391.8 46.6
420(20) 0.002381 391.7 46.0
414(20) 0.002415 391.6 45.5
465(22) 0.002151 391.6 44.9
454(21) 0.002203 391.5 44.4
480(22) 0.002083 391.4 43.9
458(21) 0.002183 391.3 43.3
430(21) 0.002326 391.2 42.8
448(21) 0.002232 391.1 42.3
414(20) 0.002415 391.0 41.7
450(21) 0.002222 391.0 41.2
446(21) 0.002242 390.9 40.7
439(21) 0.002278 390.8 40.1
428(21) 0.002336 390.7 39.6
436(21) 0.002294 390.6 39.1
449(21) 0.002227 390.5 38.5
456(21) 0.002193 390.4 38.0
443(21) 0.002257 390.3 37.5
429(21) 0.002331 390.3 37.0
472(22) 0.002119 390.2 36.4
480(22) 0.002083 390.1 35.9
424(21) 0.002358 390.0 35.4
474(22) 0.002110 389.9 34.9
460(21) 0.002174 389.8 34.4
446(21) 0.002242 389.7 33.9
459(21) 0.002179 389.6 33.4
433(21) 0.002309 389.6 32.9
458(21) 0.002183 389.5 32.4
440(21) 0.002273 389.4 31.9
468(22) 0.002137 389.3 31.4
476(22) 0.002101 389.2 31.0
418(20) 0.002392 389.1 30.5
444(21) 0.002252 389.0 30.1
427(21) 0.002342 389.0 29.7
457(21) 0.002188 388.9 29.2
438(21) 0.002283 388.8 28.8
438(21) 0.002283 388.7 28.5
437(21) 0.002288 388.6 28.1
435(21) 0.002299 388.5 27.7
479(22) 0.002088 388.4 27.4
478(22) 0.002092 388.3 27.0
475(22) 0.002105 388.3 26.7
463(22) 0.002160 388.2 26.4
415(20) 0.002410 388.1 26.1
471(22) 0.002123 388.0 25.9
445(21) 0.002247 387.9 25.6
449(21) 0.002227 387.8 25.4
456(21) 0.002193 387.7 25.2
465(22) 0.002151 387.6 25.0
496(22) 0.002016 387.6 24.8
466(22) 0.002146 387.5 24.6
484(22) 0.002066 387.4 24.5
454(21) 0.002203 387.3 24.3
463(22) 0.002160 387.2 24.2
469(22) 0.002132 387.1 24.1
494(22) 0.002024 387.0 24.0
458(21) 0.002183 387.0 24.0
497(22) 0.002012 386.9 23.9
501(22) 0.001996 386.8 23.9
456(21) 0.002193 386.7 23.9
471(22) 0.002123 386.6 23.9
498(22) 0.002008 386.5 23.9
494(22) 0.002024 386.4 23.9
493(22) 0.002028 386.3 24.0
473(22) 0.002114 386.3 24.0
488(22) 0.002049 386.2 24.1
507(23) 0.001972 386.1 24.2
502(22) 0.001992 386.0 24.3
466(22) 0.002146 385.9 24.4
492(22) 0.002033 385.8 24.5
491(22) 0.002037 385.7 24.7
466(22) 0.002146 385.6 24.8
514(23) 0.0 0.0 .
530(23) 0.0 0.0 .
519(23) 0.0 0.0 .
552(23) 0.0 0.0 .
552(23) 0.0 0.0 .
529(23) 0.0 0.0 .
564(24) 0.0 0.0 .
586(24) 0.0 0.0 .
578(24) 0.0 0.0 .
590(24) 0.0 0.0 .
574(24) 0.0 0.0 .
624(25) 0.0 0.0 .
592(24) 0.0 0.0 .
585(24) 0.0 0.0 .
624(25) 0.0 0.0 .
617(25) 0.0 0.0 .
651(26) 0.0 0.0 .
638(25) 0.0 0.0 .
633(25) 0.0 0.0 .
627(25) 0.0 0.0 .
626(25) 0.0 0.0 .
678(26) 0.0 0.0 .
685(26) 0.0 0.0 .
671(26) 0.0 0.0 .
708(27) 0.0 0.0 .
713(27) 0.0 0.0 .
787(28) 0.0 0.0 .
772(28) 0.0 0.0 .
827(29) 0.0 0.0 .
822(29) 0.0 0.0 .
848(29) 0.0 0.0 .
907(30) 0.0 0.0 .
884(30) 0.0 0.0 .
975(31) 0.0 0.0 .
1064(33) 0.0 0.0 .
1095(33) 0.0 0.0 .
1149(34) 0.0 0.0 .
1217(35) 0.0 0.0 .
1292(36) 0.0 0. .
1371(37) 0.0 0. .
1518(39) 0.0 0. .
1522(39) 0.0 0. .
1727(42) 0.0 0. .
1833(43) 0.0 0. .
2025(45) 0.0 0. .
2190(47) 0.0 0. .
2533(50) 0.0 0. .
2810(53) 0.0 0. .
3217(57) 0.0 0. .
3622(60) 0.0 0. .
4224(65) 0.0 0. .
4917(70) 0.0 0. .
5758(76) 0.0 0. .
6819(83) 0.0 0. .
8379(92) 0.0 0. .
10230(100) 0.0 0. .
12840(110) 0.0 0. .
16710(130) 0.0 0. .
21810(150) 0.0 0. .
28700(170) 0.0 0. .
38130(200) 0.0 0. .
50230(220) 0.0 0. .
64870(260) 0.0 0. .
76450(280) 0.0 0. .
80930(280) 0.0 0. .
77210(280) 0.0 0. .
66860(260) 0.0 0. .
52400(230) 0.0 0. .
39540(200) 0.0 0. .
29220(170) 0.0 0. .
22200(150) 0.0 0. .
16820(130) 0.0 0. .
13250(120) 0.0 0. .
10300(100) 0.0 0. .
8340(91) 0.0 0. .
6941(83) 0.0 0. .
5860(77) 0.0 0. .
4831(70) 0.0 0. .
4225(65) 0.0 0. .
3495(59) 0.0 0. .
3122(56) 0.0 0. .
2732(52) 0.0 0. .
2443(49) 0.0 0. .
2241(47) 0.0 0. .
2001(45) 0.0 0. .
1872(43) 0.0 0. .
1721(41) 0.0 0. .
1590(40) 0.0 0. .
1426(38) 0.0 0. .
1403(37) 0.0 0. .
1288(36) 0.0 0. .
1225(35) 0.0 0.0 .
1200(35) 0.0 0.0 .
1104(33) 0.0 0.0 .
1111(33) 0.0 0.0 .
1048(32) 0.0 0.0 .
993(32) 0.0 0.0 .
950(31) 0.0 0.0 .
916(30) 0.0 0.0 .
918(30) 0.0 0.0 .
874(30) 0.0 0.0 .
864(29) 0.0 0.0 .
818(29) 0.0 0.0 .
806(28) 0.0 0.0 .
815(29) 0.0 0.0 .
750(27) 0.0 0.0 .
734(27) 0.0 0.0 .
783(28) 0.0 0.0 .
767(28) 0.0 0.0 .
716(27) 0.0 0.0 .
729(27) 0.0 0.0 .
703(27) 0.0 0.0 .
703(27) 0.0 0.0 .
664(26) 0.0 0.0 .
642(25) 0.0 0.0 .
670(26) 0.0 0.0 .
664(26) 0.0 0.0 .
673(26) 0.0 0.0 .
691(26) 0.0 0.0 .
650(25) 0.001538 375.2 84.3
638(25) 0.001567 375.1 83.7
623(25) 0.001605 375.0 82.9
615(25) 0.001626 374.9 82.0
651(26) 0.001536 374.9 80.9
659(26) 0.001517 374.8 79.8
628(25) 0.001592 374.7 78.4
611(25) 0.001637 374.6 77.0
623(25) 0.001605 374.5 75.5
589(24) 0.001698 374.4 73.9
575(24) 0.001739 374.3 72.3
582(24) 0.001718 374.3 70.6
561(24) 0.001783 374.2 69.0
568(24) 0.001761 374.1 67.4
581(24) 0.001721 374.0 65.9
574(24) 0.001742 373.9 64.4
557(24) 0.001795 373.8 63.0
550(23) 0.001818 373.7 61.6
560(24) 0.001786 373.6 60.3
548(23) 0.001825 373.6 59.0
482(22) 0.002075 373.5 57.8
538(23) 0.001859 373.4 56.7
531(23) 0.001883 373.3 55.7
557(24) 0.001795 373.2 54.7
550(23) 0.001818 373.1 53.8
527(23) 0.001898 373.0 52.9
493(22) 0.002028 372.9 52.1
509(23) 0.001965 372.9 51.4
508(23) 0.001968 372.8 50.7
516(23) 0.001938 372.7 50.0
536(23) 0.001866 372.6 49.4
520(23) 0.001923 372.5 48.9
488(22) 0.002049 372.4 48.4
489(22) 0.002045 372.3 47.9
503(22) 0.001988 372.3 47.5
523(23) 0.001912 372.2 47.1
491(22) 0.002037 372.1 46.7
461(21) 0.002169 372.0 46.4
509(23) 0.001965 371.9 46.1
480(22) 0.002083 371.8 45.8
485(22) 0.002062 371.7 45.6
494(22) 0.002024 371.6 45.4
493(22) 0.002028 371.6 45.1
484(22) 0.002066 371.5 44.9
488(22) 0.002049 371.4 44.8
488(22) 0.002049 371.3 44.6
470(22) 0.002128 371.2 44.4
473(22) 0.002114 371.1 44.2
502(22) 0.001992 371.0 44.0
488(22) 0.002049 370.9 43.9
479(22) 0.002088 370.9 43.7
458(21) 0.002183 370.8 43.5
463(22) 0.002160 370.7 43.2
463(22) 0.002160 370.6 43.0
460(21) 0.002174 370.5 42.8
475(22) 0.002105 370.4 42.5
446(21) 0.002242 370.3 42.3
465(22) 0.002151 370.3 42.0
458(21) 0.002183 370.2 41.7
446(21) 0.002242 370.1 41.5
443(21) 0.002257 370.0 41.3
445(21) 0.002247 369.9 41.1
466(22) 0.002146 369.8 40.9
486(22) 0.002058 369.7 40.8
441(21) 0.002268 369.6 40.7
436(21) 0.002294 369.6 40.7
429(21) 0.002331 369.5 40.8
452(21) 0.002212 369.4 41.0
441(21) 0.002268 369.3 41.3
418(20) 0.002392 369.2 41.8
456(21) 0.002193 369.1 42.4
430(21) 0.002326 369.0 43.3
460(21) 0.002174 368.9 44.5
444(21) 0.002252 368.9 45.9
451(21) 0.002217 368.8 47.8
500(22) 0.002000 368.7 50.0
480(22) 0.002083 368.6 52.6
498(22) 0.002008 368.5 55.7
472(22) 0.002119 368.4 59.3
480(22) 0.002083 368.3 63.4
486(22) 0.002058 368.3 68.0
473(22) 0.002114 368.2 73.1
470(22) 0.002128 368.1 78.7
510(23) 0.001961 368.0 84.6
452(21) 0.002212 367.9 90.7
525(23) 0.001905 367.8 96.8
532(23) 0.001880 367.7 102.7
469(22) 0.002132 367.6 108.1
515(23) 0.001942 367.6 112.5
486(22) 0.002058 367.5 115.7
494(22) 0.002024 367.4 117.3
507(23) 0.001972 367.3 117.1
499(22) 0.002004 367.2 115.2
517(23) 0.001934 367.1 111.7
509(23) 0.001965 367.0 106.9
541(23) 0.001848 366.9 101.3
480(22) 0.002083 366.9 95.1
486(22) 0.002058 366.8 88.7
473(22) 0.002114 366.7 82.3
467(22) 0.002141 366.6 76.2
433(21) 0.002309 366.5 70.4
476(22) 0.002101 366.4 65.0
437(21) 0.002288 366.3 60.1
424(21) 0.002358 366.2 55.8
440(21) 0.002273 366.2 52.0
396(20) 0.002525 366.1 48.7
449(21) 0.002227 366.0 45.9
470(22) 0.002128 365.9 43.6
426(21) 0.002347 365.8 41.8
455(21) 0.002198 365.7 40.3
417(20) 0.002398 365.6 39.3
389(20) 0.002571 365.6 38.7
380(19) 0.002632 365.5 38.4
376(19) 0.002660 365.4 38.4
422(21) 0.002370 365.3 38.8
431(21) 0.002320 365.2 39.4
415(20) 0.002410 365.1 40.3
427(21) 0.002342 365.0 41.5
451(21) 0.002217 364.9 42.9
415(20) 0.002410 364.9 44.4
402(20) 0.002488 364.8 46.1
424(21) 0.002358 364.7 47.7
435(21) 0.002299 364.6 49.4
417(20) 0.002398 364.5 50.8
429(21) 0.002331 364.4 52.0
435(21) 0.002299 364.3 52.7
419(20) 0.002387 364.2 52.9
418(20) 0.002392 364.2 52.5
450(21) 0.002222 364.1 51.6
457(21) 0.002188 364.0 50.3
436(21) 0.002294 363.9 48.7
428(21) 0.002336 363.8 46.9
425(21) 0.002353 363.7 44.9
388(20) 0.002577 363.6 43.0
411(20) 0.002433 363.6 41.1
409(20) 0.002445 363.5 39.3
402(20) 0.002488 363.4 37.6
396(20) 0.002525 363.3 36.0
416(20) 0.002404 363.2 34.6
408(20) 0.002451 363.1 33.3
401(20) 0.002494 363.0 32.2
401(20) 0.002494 362.9 31.2
426(21) 0.002347 362.9 30.3
401(20) 0.002494 362.8 29.6
412(20) 0.002427 362.7 28.9
410(20) 0.002439 362.6 28.3
422(21) 0.002370 362.5 27.8
414(20) 0.002415 362.4 27.4
413(20) 0.002421 362.3 27.0
373(19) 0.002681 362.2 26.7
376(19) 0.002660 362.2 26.4
393(20) 0.002545 362.1 26.1
365(19) 0.002740 362.0 25.8
388(20) 0.002577 361.9 25.6
384(20) 0.002604 361.8 25.4
386(20) 0.002591 361.7 25.2
382(20) 0.002618 361.6 25.0
384(20) 0.002604 361.6 24.8
412(20) 0.002427 361.5 24.6
390(20) 0.002564 361.4 24.4
407(20) 0.002457 361.3 24.2
383(20) 0.002611 361.2 24.0
353(19) 0.002833 361.1 23.8
374(19) 0.002674 361.0 23.6
382(20) 0.002618 360.9 23.4
396(20) 0.002525 360.9 23.2
389(20) 0.002571 360.8 22.9
352(19) 0.002841 360.7 22.7
398(20) 0.002513 360.6 22.4
384(20) 0.002604 360.5 22.1
403(20) 0.002481 360.4 21.8
392(20) 0.002551 360.3 21.6
364(19) 0.002747 360.2 21.3
377(19) 0.002653 360.2 21.0
372(19) 0.002688 360.1 20.8
354(19) 0.002825 360.0 20.5
412(20) 0.002427 359.9 20.3
371(19) 0.002695 359.8 20.1
372(19) 0.002688 359.7 19.9
371(19) 0.002695 359.6 19.7
364(19) 0.002747 359.6 19.5
382(20) 0.002618 359.5 19.3
328(18) 0.003049 359.4 19.2
384(20) 0.002604 359.3 19.1
373(19) 0.002681 359.2 19.0
380(19) 0.002632 359.1 18.9
416(20) 0.002404 359.0 18.8
403(20) 0.002481 358.9 18.7
386(20) 0.002591 358.9 18.7
363(19) 0.002755 358.8 18.6
367(19) 0.002725 358.7 18.6
351(19) 0.002849 358.6 18.5
394(20) 0.002538 358.5 18.5
375(19) 0.002667 358.4 18.5
386(20) 0.002591 358.3 18.5
399(20) 0.002506 358.2 18.4
391(20) 0.002558 358.2 18.4
391(20) 0.002558 358.1 18.4
370(19) 0.002703 358.0 18.3
354(19) 0.002825 357.9 18.3
390(20) 0.002564 357.8 18.2
378(19) 0.002646 357.7 18.1
365(19) 0.002740 357.6 18.0
394(20) 0.002538 357.6 17.9
367(19) 0.002725 357.5 17.8
365(19) 0.002740 357.4 17.7
374(19) 0.002674 357.3 17.6
360(19) 0.002778 357.2 17.5
360(19) 0.002778 357.1 17.4
359(19) 0.002786 357.0 17.3
351(19) 0.002849 356.9 17.3
362(19) 0.002762 356.9 17.2
394(20) 0.002538 356.8 17.1
365(19) 0.002740 356.7 17.0
353(19) 0.002833 356.6 17.0
347(19) 0.002882 356.5 16.9
351(19) 0.002849 356.4 16.9
386(20) 0.002591 356.3 16.9
379(19) 0.002639 356.2 16.8
377(19) 0.002653 356.2 16.8
381(20) 0.002625 356.1 16.8
361(19) 0.002770 356.0 16.8
358(19) 0.002793 355.9 16.8
378(19) 0.002646 355.8 16.8
340(18) 0.002941 355.7 16.8
337(18) 0.002967 355.6 16.8
371(19) 0.002695 355.5 16.8
388(20) 0.002577 355.4 16.9
349(19) 0.002865 355.4 16.9
373(19) 0.002681 355.3 16.9
394(20) 0.002538 355.2 17.0
371(19) 0.002695 355.1 17.0
367(19) 0.002725 355.0 17.1
353(19) 0.002833 354.9 17.1
373(19) 0.002681 354.8 17.2
370(19) 0.002703 354.7 17.3
392(20) 0.002551 354.6 17.4
356(19) 0.002809 354.5 17.4
384(20) 0.002604 354.4 17.5
370(19) 0.002703 354.3 17.6
370(19) 0.002703 354.2 17.8
377(19) 0.002653 354.1 17.9
381(20) 0.002625 354.0 18.0
373(19) 0.002681 353.9 18.2
389(20) 0.002571 353.8 18.3
363(19) 0.002755 353.7 18.5
358(19) 0.002793 353.6 18.7
353(19) 0.002833 353.5 18.9
394(20) 0.002538 353.5 19.1
359(19) 0.002786 353.4 19.3
379(19) 0.002639 353.3 19.6
366(19) 0.002732 353.2 19.9
352(19) 0.002841 353.1 20.2
378(19) 0.002646 353.0 20.5
369(19) 0.002710 352.9 20.9
379(19) 0.002639 352.8 21.3
406(20) 0.002463 352.7 21.8
354(19) 0.002825 352.6 22.4
363(19) 0.002755 352.5 23.0
396(20) 0.002525 352.4 23.7
407(20) 0.002457 352.3 24.6
358(19) 0.002793 352.2 25.5
399(20) 0.002506 352.1 26.6
383(20) 0.002611 352.0 27.9
369(19) 0.002710 351.9 29.5
367(19) 0.002725 351.8 31.2
374(19) 0.002674 351.7 33.2
411(20) 0.002433 351.6 35.6
412(20) 0.002427 351.6 38.2
411(20) 0.002433 351.5 41.2
393(20) 0.002545 351.4 44.6
423(21) 0.002364 351.3 48.4
445(21) 0.002247 351.2 52.5
414(20) 0.002415 351.1 57.0
410(20) 0.002439 351.0 61.8
448(21) 0.002232 350.9 67.0
427(21) 0.002342 350.8 72.3
434(21) 0.002304 350.7 77.6
483(22) 0.002070 350.6 82.9
461(21) 0.002169 350.5 88.0
515(23) 0.001942 350.4 92.5
511(23) 0.001957 350.3 96.3
549(23) 0.001822 350.2 99.0
500(22) 0.002000 350.1 100.7
507(23) 0.001972 350.0 101.0
459(21) 0.002179 349.9 100.2
499(22) 0.002004 349.8 98.3
461(21) 0.002169 349.7 95.6
472(22) 0.002119 349.7 92.2
448(21) 0.002232 349.6 88.5
482(22) 0.002075 349.5 84.7
438(21) 0.002283 349.4 81.0
416(20) 0.002404 349.3 77.4
444(21) 0.002252 349.2 74.2
440(21) 0.002273 349.1 71.3
424(21) 0.002358 349.0 68.8
428(21) 0.002336 348.9 66.7
421(21) 0.002375 348.8 64.9
418(20) 0.002392 348.7 63.5
448(21) 0.002232 348.6 62.4
402(20) 0.002488 348.5 61.5
438(21) 0.002283 348.4 60.8
412(20) 0.002427 348.3 60.1
402(20) 0.002488 348.2 59.5
387(20) 0.002584 348.1 58.9
438(21) 0.002283 348.0 58.2
405(20) 0.002469 347.9 57.5
405(20) 0.002469 347.8 56.8
438(21) 0.002283 347.8 56.0
386(20) 0.002591 347.7 55.3
417(20) 0.002398 347.6 54.7
408(20) 0.002451 347.5 54.1
407(20) 0.002457 347.4 53.7
389(20) 0.002571 347.3 53.3
409(20) 0.002445 347.2 53.2
433(21) 0.002309 347.1 53.2
419(20) 0.002387 347.0 53.4
416(20) 0.002404 346.9 53.7
452(21) 0.002212 346.8 54.2
441(21) 0.002268 346.7 54.9
450(21) 0.002222 346.6 55.8
422(21) 0.002370 346.5 56.8
455(21) 0.002198 346.4 58.0
425(21) 0.002353 346.3 59.4
433(21) 0.002309 346.2 60.9
481(22) 0.002079 346.1 62.5
445(21) 0.002247 346.0 64.2
486(22) 0.002058 345.9 66.0
472(22) 0.002119 345.9 67.9
467(22) 0.002141 345.8 69.8
444(21) 0.002252 345.7 71.7
466(22) 0.002146 345.6 73.7
483(22) 0.002070 345.5 75.5
484(22) 0.002066 345.4 77.3
486(22) 0.002058 345.3 78.9
491(22) 0.002037 345.2 80.4
485(22) 0.002062 345.1 81.7
520(23) 0.001923 345.0 82.8
511(23) 0.001957 344.9 83.7
503(22) 0.001988 344.8 84.3
485(22) 0.002062 344.7 84.8
483(22) 0.002070 344.6 85.0
497(22) 0.002012 344.5 85.1
489(22) 0.002045 344.4 85.1
517(23) 0.001934 344.3 85.0
466(22) 0.002146 344.2 84.8
488(22) 0.002049 344.1 84.6
471(22) 0.002123 344.1 84.4
467(22) 0.002141 344.0 84.2
464(22) 0.002155 343.9 84.0
477(22) 0.002096 343.8 84.0
448(21) 0.002232 343.7 84.0
453(21) 0.002208 343.6 84.0
497(22) 0.002012 343.5 84.2
497(22) 0.002012 343.4 84.5
472(22) 0.002119 343.3 84.8
530(23) 0.001887 343.2 85.2
523(23) 0.001912 343.1 85.7
489(22) 0.002045 343.0 86.2
519(23) 0.001927 342.9 86.7
489(22) 0.002045 342.8 87.3
483(22) 0.0 0.0 .
524(23) 0.0 0.0 .
522(23) 0.0 0.0 .
503(22) 0.0 0.0 .
533(23) 0.0 0.0 .
537(23) 0.0 0.0 .
501(22) 0.0 0.0 .
517(23) 0.0 0.0 .
541(23) 0.0 0.0 .
529(23) 0.0 0.0 .
515(23) 0.0 0.0 .
547(23) 0.0 0.0 .
547(23) 0.0 0.0 .
541(23) 0.0 0.0 .
510(23) 0.0 0.0 .
510(23) 0.0 0.0 .
545(23) 0.0 0.0 .
555(24) 0.0 0.0 .
520(23) 0.0 0.0 .
528(23) 0.0 0.0 .
556(24) 0.0 0.0 .
562(24) 0.0 0.0 .
534(23) 0.0 0.0 .
594(24) 0.0 0.0 .
600(24) 0.0 0.0 .
641(25) 0.0 0.0 .
662(26) 0.0 0.0 .
716(27) 0.0 0.0 .
719(27) 0.0 0.0 .
746(27) 0.0 0.0 .
808(28) 0.0 0.0 .
948(31) 0.0 0.0 .
955(31) 0.0 0.0 .
1058(33) 0.0 0.0 .
1253(35) 0.0 0. .
1429(38) 0.0 0. .
1704(41) 0.0 0. .
2156(46) 0.0 0. .
2523(50) 0.0 0. .
3208(57) 0.0 0. .
4237(65) 0.0 0. .
5483(74) 0.0 0. .
6854(83) 0.0 0. .
8215(91) 0.0 0. .
9336(97) 0.0 0. .
8979(95) 0.0 0. .
8229(91) 0.0 0. .
6717(82) 0.0 0. .
5170(72) 0.0 0. .
4050(64) 0.0 0. .
3165(56) 0.0 0. .
2471(50) 0.0 0. .
2004(45) 0.0 0. .
1785(42) 0.0 0. .
1376(37) 0.0 0. .
1209(35) 0.0 0.0 .
1054(32) 0.0 0.0 .
968(31) 0.0 0.0 .
860(29) 0.0 0.0 .
738(27) 0.0 0.0 .
711(27) 0.0 0.0 .
656(26) 0.0 0.0 .
606(25) 0.0 0.0 .
580(24) 0.0 0.0 .
522(23) 0.0 0.0 .
577(24) 0.0 0.0 .
495(22) 0.0 0.0 .
517(23) 0.0 0.0 .
501(22) 0.0 0.0 .
461(21) 0.0 0.0 .
496(22) 0.0 0.0 .
487(22) 0.0 0.0 .
459(21) 0.002179 335.9 28.4
455(21) 0.002198 335.8 28.6
404(20) 0.002475 335.7 28.8
416(20) 0.002404 335.6 29.1
428(21) 0.002336 335.5 29.4
417(20) 0.002398 335.4 29.7
423(21) 0.002364 335.3 30.0
411(20) 0.002433 335.2 30.3
422(21) 0.002370 335.1 30.6
410(20) 0.002439 335.0 30.9
433(21) 0.002309 334.9 31.3
457(21) 0.002188 334.8 31.6
400(20) 0.002500 334.7 32.0
397(20) 0.002519 334.6 32.3
405(20) 0.002469 334.6 32.6
400(20) 0.002500 334.5 33.0
448(21) 0.002232 334.4 33.3
415(20) 0.002410 334.3 33.7
373(19) 0.002681 334.2 34.0
397(20) 0.002519 334.1 34.4
384(20) 0.002604 334.0 34.8
394(20) 0.002538 333.9 35.2
410(20) 0.002439 333.8 35.6
367(19) 0.002725 333.7 36.0
396(20) 0.002525 333.6 36.4
381(20) 0.002625 333.5 36.9
392(20) 0.002551 333.4 37.3
412(20) 0.002427 333.3 37.8
407(20) 0.002457 333.2 38.3
386(20) 0.002591 333.1 38.7
387(20) 0.002584 333.0 39.2
428(21) 0.002336 332.9 39.7
387(20) 0.002584 332.8 40.2
394(20) 0.002538 332.7 40.6
354(19) 0.002825 332.7 41.0
386(20) 0.002591 332.6 41.4
351(19) 0.002849 332.5 41.7
372(19) 0.002688 332.4 42.0
359(19) 0.002786 332.3 42.3
370(19) 0.002703 332.2 42.5
400(20) 0.002500 332.1 42.6
380(19) 0.002632 332.0 42.7
362(19) 0.002762 331.9 42.7
353(19) 0.002833 331.8 42.7
374(19) 0.002674 331.7 42.6
361(19) 0.002770 331.6 42.6
394(20) 0.002538 331.5 42.4
371(19) 0.002695 331.4 42.3
359(19) 0.002786 331.3 42.2
363(19) 0.002755 331.2 42.1
364(19) 0.002747 331.1 41.9
374(19) 0.002674 331.0 41.8
364(19) 0.002747 330.9 41.7
381(20) 0.002625 330.9 41.7
363(19) 0.002755 330.8 41.6
359(19) 0.002786 330.7 41.6
371(19) 0.002695 330.6 41.7
371(19) 0.002695 330.5 41.8
378(19) 0.002646 330.4 41.9
348(19) 0.002874 330.3 42.1
380(19) 0.002632 330.2 42.4
365(19) 0.002740 330.1 42.7
380(19) 0.002632 330.0 43.1
383(20) 0.002611 329.9 43.5
359(19) 0.002786 329.8 44.1
356(19) 0.002809 329.7 44.7
372(19) 0.002688 329.6 45.3
344(19) 0.002907 329.5 46.1
356(19) 0.002809 329.4 46.9
384(20) 0.002604 329.3 47.8
394(20) 0.002538 329.2 48.8
378(19) 0.002646 329.1 49.9
380(19) 0.002632 329.0 51.0
407(20) 0.002457 329.0 52.3
351(19) 0.002849 328.9 53.6
402(20) 0.002488 328.8 54.9
388(20) 0.002577 328.7 56.4
403(20) 0.002481 328.6 57.9
384(20) 0.002604 328.5 59.5
414(20) 0.002415 328.4 61.2
354(19) 0.002825 328.3 62.9
373(19) 0.002681 328.2 64.6
373(19) 0.002681 328.1 66.4
334(18) 0.002994 328.0 68.2
389(20) 0.002571 327.9 70.1
416(20) 0.002404 327.8 71.9
430(21) 0.002326 327.7 73.8
348(19) 0.002874 327.6 75.6
406(20) 0.002463 327.5 77.3
406(20) 0.002463 327.4 79.1
396(20) 0.002525 327.3 80.7
406(20) 0.002463 327.2 82.2
443(21) 0.002257 327.1 83.6
417(20) 0.002398 327.1 84.9
434(21) 0.002304 327.0 86.0
389(20) 0.002571 326.9 87.0
408(20) 0.002451 326.8 87.7
413(20) 0.002421 326.7 88.3
425(21) 0.002353 326.6 88.6
401(20) 0.002494 326.5 88.7
394(20) 0.002538 326.4 88.6
394(20) 0.002538 326.3 88.3
421(21) 0.002375 326.2 87.8
440(21) 0.002273 326.1 87.0
439(21) 0.002278 326.0 86.1
413(20) 0.002421 325.9 85.0
432(21) 0.002315 325.8 83.8
422(21) 0.002370 325.7 82.5
373(19) 0.002681 325.6 81.0
396(20) 0.002525 325.5 79.5
398(20) 0.002513 325.4 77.8
412(20) 0.002427 325.3 76.2
396(20) 0.002525 325.2 74.5
395(20) 0.002532 325.2 72.8
441(21) 0.002268 325.1 71.2
379(19) 0.002639 325.0 69.5
395(20) 0.002532 324.9 67.9
358(19) 0.002793 324.8 66.3
379(19) 0.002639 324.7 64.8
370(19) 0.002703 324.6 63.3
391(20) 0.002558 324.5 61.9
369(19) 0.002710 324.4 60.5
374(19) 0.002674 324.3 59.3
364(19) 0.002747 324.2 58.1
356(19) 0.002809 324.1 57.0
362(19) 0.002762 324.0 56.1
367(19) 0.002725 323.9 55.2
329(18) 0.003039 323.8 54.3
361(19) 0.002770 323.7 53.6
367(19) 0.002725 323.6 53.0
377(19) 0.002653 323.5 52.5
362(19) 0.002762 323.4 52.1
382(20) 0.002618 323.3 51.7
368(19) 0.002717 323.3 51.5
362(19) 0.002762 323.2 51.3
390(20) 0.002564 323.1 51.2
362(19) 0.002762 323.0 51.2
404(20) 0.002475 322.9 51.3
357(19) 0.002801 322.8 51.4
388(20) 0.002577 322.7 51.7
357(19) 0.002801 322.6 51.9
363(19) 0.002755 322.5 52.3
386(20) 0.002591 322.4 52.7
361(19) 0.002770 322.3 53.1
369(19) 0.002710 322.2 53.6
360(19) 0.002778 322.1 54.1
381(20) 0.002625 322.0 54.6
377(19) 0.002653 321.9 55.2
377(19) 0.002653 321.8 55.8
343(19) 0.002915 321.7 56.4
377(19) 0.002653 321.6 57.0
397(20) 0.002519 321.5 57.5
385(20) 0.002597 321.4 58.1
358(19) 0.002793 321.4 58.6
373(19) 0.002681 321.3 59.1
362(19) 0.002762 321.2 59.5
405(20) 0.002469 321.1 59.9
367(19) 0.002725 321.0 60.3
357(19) 0.002801 320.9 60.5
363(19) 0.002755 320.8 60.7
396(20) 0.002525 320.7 60.9
417(20) 0.002398 320.6 61.0
380(19) 0.002632 320.5 61.0
389(20) 0.002571 320.4 60.9
369(19) 0.002710 320.3 60.7
390(20) 0.002564 320.2 60.5
384(20) 0.002604 320.1 60.3
377(19) 0.002653 320.0 60.0
399(20) 0.002506 319.9 59.6
386(20) 0.002591 319.8 59.2
368(19) 0.002717 319.7 58.8
372(19) 0.002688 319.6 58.4
370(19) 0.002703 319.6 57.9
361(19) 0.002770 319.5 57.5
332(18) 0.003012 319.4 57.2
377(19) 0.002653 319.3 56.8
353(19) 0.002833 319.2 56.6
330(18) 0.003030 319.1 56.4
385(20) 0.002597 319.0 56.3
397(20) 0.002519 318.9 56.4
381(20) 0.002625 318.8 56.7
371(19) 0.002695 318.7 57.1
364(19) 0.002747 318.6 57.7
390(20) 0.002564 318.5 58.6
395(20) 0.002532 318.4 59.8
351(19) 0.002849 318.3 61.4
355(19) 0.002817 318.2 63.3
413(20) 0.002421 318.1 65.6
414(20) 0.002415 318.0 68.4
417(20) 0.002398 317.9 71.6
383(20) 0.002611 317.8 75.4
388(20) 0.002577 317.7 79.7
444(21) 0.002252 317.7 84.6
440(21) 0.002273 317.6 90.0
407(20) 0.002457 317.5 95.9
435(21) 0.002299 317.4 102.4
469(22) 0.002132 317.3 109.3
415(20) 0.002410 317.2 116.6
474(22) 0.002110 317.1 124.1
448(21) 0.002232 317.0 131.6
482(22) 0.002075 316.9 139.0
486(22) 0.002058 316.8 146.0
487(22) 0.002053 316.7 152.4
486(22) 0.002058 316.6 157.8
492(22) 0.002033 316.5 162.0
492(22) 0.002033 316.4 164.7
484(22) 0.002066 316.3 165.8
504(22) 0.001984 316.2 165.2
442(21) 0.002262 316.1 162.9
467(22) 0.002141 316.0 159.1
464(22) 0.002155 315.9 153.9
430(21) 0.002326 315.8 147.5
471(22) 0.002123 315.8 140.2
406(20) 0.002463 315.7 132.2
404(20) 0.002475 315.6 124.0
414(20) 0.002415 315.5 115.7
455(21) 0.002198 315.4 107.5
416(20) 0.002404 315.3 99.6
403(20) 0.002481 315.2 92.0
401(20) 0.002494 315.1 84.9
385(20) 0.002597 315.0 78.3
397(20) 0.002519 314.9 72.3
383(20) 0.002611 314.8 66.7
368(19) 0.002717 314.7 61.7
367(19) 0.002725 314.6 57.2
346(19) 0.002890 314.5 53.2
370(19) 0.002703 314.4 49.6
360(19) 0.002778 314.3 46.4
359(19) 0.002786 314.2 43.6
362(19) 0.002762 314.1 41.1
347(19) 0.002882 314.0 38.9
373(19) 0.002681 313.9 36.9
367(19) 0.002725 313.9 35.2
311(18) 0.003215 313.8 33.6
362(19) 0.002762 313.7 32.2
340(18) 0.002941 313.6 30.9
342(18) 0.002924 313.5 29.7
352(19) 0.002841 313.4 28.6
330(18) 0.003030 313.3 27.7
312(18) 0.003205 313.2 26.8
346(19) 0.002890 313.1 25.9
319(18) 0.003135 313.0 25.1
331(18) 0.003021 312.9 24.4
341(18) 0.002933 312.8 23.7
325(18) 0.003077 312.7 23.0
365(19) 0.002740 312.6 22.4
340(18) 0.002941 312.5 21.8
348(19) 0.002874 312.4 21.3
339(18) 0.002950 312.3 20.8
339(18) 0.002950 312.2 20.3
307(18) 0.003257 312.1 19.9
318(18) 0.003145 312.0 19.4
309(18) 0.003236 312.0 19.0
312(18) 0.003205 311.9 18.6
315(18) 0.003175 311.8 18.3
323(18) 0.003096 311.7 17.9
321(18) 0.003115 311.6 17.6
329(18) 0.003039 311.5 17.3
320(18) 0.003125 311.4 17.1
296(17) 0.003378 311.3 16.8
342(18) 0.002924 311.2 16.6
350(19) 0.002857 311.1 16.3
337(18) 0.002967 311.0 16.1
328(18) 0.003049 310.9 15.9
336(18) 0.002976 310.8 15.7
284(17) 0.00352 310.7 15.6
301(17) 0.003322 310.6 15.4
328(18) 0.003049 310.5 15.3
322(18) 0.003106 310.4 15.1
341(18) 0.002933 310.3 15.0
327(18) 0.003058 310.2 14.9
308(18) 0.003247 310.1 14.8
327(18) 0.003058 310.1 14.7
324(18) 0.003086 310.0 14.6
309(18) 0.003236 310.1 14.6
292(17) 0.003425 310.1 14.5
306(17) 0.003268 310.1 14.5
291(17) 0.003436 310.1 14.4
318(18) 0.003145 310.1 14.4
304(17) 0.003289 310.1 14.4
321(18) 0.003115 310.1 14.4
286(17) 0.003497 310.2 14.3
301(17) 0.003322 310.2 14.4
326(18) 0.003067 310.2 14.4
331(18) 0.003021 310.2 14.4
331(18) 0.003021 310.2 14.4
318(18) 0.003145 310.2 14.5
340(18) 0.002941 310.2 14.5
317(18) 0.003155 310.3 14.5
314(18) 0.003185 310.3 14.6
305(17) 0.003279 310.3 14.7
290(17) 0.003448 310.3 14.7
307(18) 0.003257 310.3 14.8
300(17) 0.003333 310.3 14.9
330(18) 0.003030 310.3 15.0
337(18) 0.002967 310.3 15.1
309(18) 0.003236 310.4 15.2
321(18) 0.003115 310.4 15.3
333(18) 0.003003 310.4 15.4
315(18) 0.003175 310.4 15.5
306(17) 0.003268 310.4 15.7
296(17) 0.003378 310.4 15.8
317(18) 0.003155 310.4 16.0
307(18) 0.003257 310.5 16.1
340(18) 0.002941 310.5 16.3
330(18) 0.003030 310.5 16.5
308(18) 0.003247 310.5 16.6
298(17) 0.003356 310.5 16.8
303(17) 0.003300 310.5 17.0
299(17) 0.003344 310.5 17.2
305(17) 0.003279 310.6 17.4
296(17) 0.003378 310.6 17.7
321(18) 0.003115 310.6 17.9
313(18) 0.003195 310.6 18.2
332(18) 0.003012 310.6 18.5
305(17) 0.003279 310.6 18.8
324(18) 0.003086 310.6 19.1
358(19) 0.002793 310.7 19.4
335(18) 0.002985 310.7 19.8
309(18) 0.003236 310.7 20.2
332(18) 0.003012 310.7 20.6
295(17) 0.003390 310.7 21.1
333(18) 0.003003 310.7 21.6
329(18) 0.003039 310.7 22.1
321(18) 0.003115 310.8 22.8
332(18) 0.003012 310.8 23.5
326(18) 0.003067 310.8 24.2
311(18) 0.003215 310.8 25.1
319(18) 0.003135 310.8 26.0
326(18) 0.003067 310.8 27.0
349(19) 0.002865 310.8 28.1
350(19) 0.002857 310.9 29.4
346(19) 0.002890 310.9 30.7
347(19) 0.002882 310.9 32.2
315(18) 0.003175 310.9 33.8
338(18) 0.002959 310.9 35.5
318(18) 0.003145 310.9 37.3
309(18) 0.003236 310.9 39.2
325(18) 0.003077 310.9 41.3
330(18) 0.003030 311.0 43.4
358(19) 0.002793 311.0 45.6
333(18) 0.003003 311.0 47.9
306(17) 0.003268 311.0 50.2
351(19) 0.002849 311.0 52.4
332(18) 0.003012 311.0 54.6
358(19) 0.002793 311.0 56.7
345(19) 0.002899 311.1 58.6
368(19) 0.002717 311.1 60.3
332(18) 0.003012 311.1 61.7
332(18) 0.003012 311.1 62.7
327(18) 0.003058 311.1 63.3
354(19) 0.002825 311.1 63.5
376(19) 0.002660 311.1 63.3
369(19) 0.002710 311.2 62.7
362(19) 0.002762 311.2 61.8
326(18) 0.003067 311.2 60.6
342(18) 0.002924 311.2 59.2
373(19) 0.002681 311.2 57.6
306(17) 0.003268 311.2 56.0
329(18) 0.003039 311.2 54.3
322(18) 0.003106 311.3 52.6
338(18) 0.002959 311.3 51.0
301(17) 0.003322 311.3 49.5
343(19) 0.002915 311.3 48.0
329(18) 0.003039 311.3 46.6
326(18) 0.003067 311.3 45.4
314(18) 0.003185 311.3 44.3
351(19) 0.002849 311.4 43.3
338(18) 0.002959 311.4 42.5
328(18) 0.003049 311.4 41.8
314(18) 0.003185 311.4 41.2
339(18) 0.002950 311.4 40.7
370(19) 0.002703 311.4 40.4
322(18) 0.003106 311.4 40.2
339(18) 0.002950 311.5 40.1
333(18) 0.003003 311.5 40.0
334(18) 0.002994 311.5 40.1
346(19) 0.002890 311.5 40.3
327(18) 0.003058 311.5 40.5
353(19) 0.002833 311.5 40.8
316(18) 0.003165 311.5 41.1
350(19) 0.002857 311.5 41.6
334(18) 0.002994 311.6 42.0
343(19) 0.002915 311.6 42.5
347(19) 0.002882 311.6 43.1
321(18) 0.003115 311.6 43.6
330(18) 0.003030 311.6 44.3
382(20) 0.002618 311.6 44.9
322(18) 0.003106 311.6 45.6
345(19) 0.002899 311.7 46.2
349(19) 0.002865 311.7 46.9
354(19) 0.002825 311.7 47.7
343(19) 0.002915 311.7 48.4
314(18) 0.003185 311.7 49.2
337(18) 0.002967 311.7 49.9
331(18) 0.003021 311.7 50.7
330(18) 0.003030 311.8 51.5
338(18) 0.002959 311.8 52.3
367(19) 0.002725 311.8 53.1
365(19) 0.002740 311.8 53.9
356(19) 0.002809 311.8 54.7
352(19) 0.002841 311.8 55.5
346(19) 0.002890 311.8 56.4
357(19) 0.002801 311.9 57.2
347(19) 0.002882 311.9 58.0
363(19) 0.002755 311.9 58.9
352(19) 0.002841 311.9 59.7
316(18) 0.003165 311.9 60.5
337(18) 0.002967 311.9 61.3
349(19) 0.002865 311.9 62.1
346(19) 0.002890 312.0 62.9
338(18) 0.002959 312.0 63.6
384(20) 0.002604 312.0 64.4
353(19) 0.002833 312.0 65.1
362(19) 0.002762 312.0 65.7
341(18) 0.002933 312.0 66.3
377(19) 0.002653 312.0 66.9
341(18) 0.002933 312.1 67.4
347(19) 0.002882 312.1 67.9
374(19) 0.002674 312.1 68.3
343(19) 0.002915 312.1 68.6
381(20) 0.002625 312.1 68.9
349(19) 0.002865 312.1 69.0
355(19) 0.002817 312.1 69.1
364(19) 0.002747 312.1 69.2
365(19) 0.002740 312.2 69.1
335(18) 0.002985 312.2 68.9
347(19) 0.002882 312.2 68.7
351(19) 0.002849 312.2 68.4
379(19) 0.002639 312.2 68.0
362(19) 0.002762 312.2 67.5
388(20) 0.002577 312.2 66.9
368(19) 0.002717 312.3 66.3
371(19) 0.002695 312.3 65.6
373(19) 0.002681 312.3 64.8
368(19) 0.002717 312.3 64.0
372(19) 0.002688 312.3 63.1
351(19) 0.002849 312.3 62.2
360(19) 0.002778 312.3 61.2
358(19) 0.002793 312.4 60.2
364(19) 0.002747 312.4 59.2
352(19) 0.002841 312.4 58.2
336(18) 0.002976 312.4 57.1
356(19) 0.002809 312.4 56.0
359(19) 0.002786 312.4 54.9
344(19) 0.002907 312.4 53.8
354(19) 0.002825 312.5 52.7
359(19) 0.002786 312.5 51.6
358(19) 0.002793 312.5 50.5
366(19) 0.002732 312.5 49.5
347(19) 0.002882 312.5 48.4
358(19) 0.002793 312.5 47.4
316(18) 0.003165 312.5 46.3
293(17) 0.003413 312.6 45.3
366(19) 0.002732 312.6 44.4
335(18) 0.002985 312.6 43.4
350(19) 0.002857 312.6 42.5
336(18) 0.002976 312.6 41.6
321(18) 0.003115 312.6 40.8
333(18) 0.003003 312.6 39.9
353(19) 0.002833 312.7 39.1
349(19) 0.002865 312.7 38.4
325(18) 0.003077 312.7 37.6
308(18) 0.003247 312.7 37.0
314(18) 0.003185 312.7 36.3
313(18) 0.003195 312.7 35.7
318(18) 0.003145 312.7 35.1
350(19) 0.002857 312.7 34.5
329(18) 0.003039 312.8 34.0
287(17) 0.003484 312.8 33.5
311(18) 0.003215 312.8 33.1
334(18) 0.002994 312.8 32.7
302(17) 0.003311 312.8 32.3
311(18) 0.003215 312.8 31.9
328(18) 0.003049 312.8 31.6
309(18) 0.003236 312.8 31.3
319(18) 0.003135 312.8 31.1
314(18) 0.003185 312.8 30.9
303(17) 0.003300 312.8 30.7
302(17) 0.003311 312.8 30.5
323(18) 0.003096 312.8 30.4
328(18) 0.003049 312.8 30.3
303(17) 0.003300 312.8 30.2
343(19) 0.002915 312.8 30.1
306(17) 0.003268 312.8 30.1
309(18) 0.003236 312.8 30.1
331(18) 0.003021 312.8 30.1
319(18) 0.003135 312.8 30.1
338(18) 0.002959 312.8 30.2
329(18) 0.003039 312.8 30.2
307(18) 0.003257 312.8 30.3
300(17) 0.003333 312.8 30.4
317(18) 0.003155 312.8 30.5
311(18) 0.003215 312.8 30.7
288(17) 0.003472 312.8 30.8
321(18) 0.003115 312.8 31.0
290(17) 0.003448 312.8 31.1
291(17) 0.003436 312.9 31.3
324(18) 0.003086 312.9 31.5
331(18) 0.003021 312.9 31.6
307(18) 0.003257 312.9 31.8
319(18) 0.003135 312.9 32.0
320(18) 0.003125 312.9 32.2
316(18) 0.003165 312.9 32.4
346(19) 0.002890 312.9 32.5
324(18) 0.003086 312.9 32.7
319(18) 0.003135 312.9 32.9
347(19) 0.002882 312.9 33.0
321(18) 0.003115 312.9 33.2
311(18) 0.003215 312.9 33.3
314(18) 0.003185 312.9 33.5
338(18) 0.002959 312.9 33.6
319(18) 0.003135 312.9 33.7
313(18) 0.003195 312.9 33.8
327(18) 0.003058 312.9 33.8
316(18) 0.003165 312.9 33.9
330(18) 0.003030 312.9 33.9
308(18) 0.003247 312.9 33.9
325(18) 0.003077 312.9 33.9
332(18) 0.003012 312.9 33.9
304(17) 0.003289 312.9 33.9
319(18) 0.003135 312.9 33.8
351(19) 0.002849 312.9 33.8
338(18) 0.002959 312.9 33.7
311(18) 0.003215 312.9 33.6
320(18) 0.003125 312.9 33.5
344(19) 0.002907 312.9 33.3
303(17) 0.003300 312.9 33.2
337(18) 0.002967 312.9 33.1
307(18) 0.003257 312.9 32.9
322(18) 0.003106 312.9 32.7
330(18) 0.003030 312.9 32.6
303(17) 0.003300 312.9 32.4
326(18) 0.003067 312.9 32.2
322(18) 0.003106 312.9 32.0
341(18) 0.002933 312.9 31.8
329(18) 0.003039 312.9 31.6
307(18) 0.003257 312.9 31.4
326(18) 0.003067 312.9 31.2
311(18) 0.003215 312.9 31.0
302(17) 0.003311 312.9 30.9
329(18) 0.003039 312.9 30.7
331(18) 0.003021 312.9 30.5
297(17) 0.003367 312.9 30.3
338(18) 0.002959 312.9 30.2
314(18) 0.003185 312.9 30.0
333(18) 0.003003 312.9 29.9
316(18) 0.003165 312.9 29.8
289(17) 0.003460 312.9 29.7
311(18) 0.003215 312.9 29.6
322(18) 0.003106 312.9 29.5
324(18) 0.003086 312.9 29.5
329(18) 0.003039 312.9 29.4
359(19) 0.002786 312.9 29.4
332(18) 0.003012 312.9 29.4
299(17) 0.003344 312.9 29.4
294(17) 0.003401 312.9 29.5
321(18) 0.003115 312.9 29.5
339(18) 0.002950 312.9 29.6
317(18) 0.003155 312.9 29.7
332(18) 0.003012 312.9 29.9
325(18) 0.003077 312.9 30.0
328(18) 0.003049 312.9 30.2
337(18) 0.002967 312.9 30.4
325(18) 0.003077 312.9 30.6
336(18) 0.002976 312.9 30.8
325(18) 0.003077 312.9 31.0
312(18) 0.003205 312.9 31.3
302(17) 0.003311 312.9 31.5
301(17) 0.003322 312.9 31.7
311(18) 0.003215 312.9 32.0
337(18) 0.002967 312.9 32.2
317(18) 0.003155 312.9 32.4
325(18) 0.003077 312.9 32.6
314(18) 0.003185 312.9 32.8
336(18) 0.002976 312.9 33.1
293(17) 0.003413 312.9 33.3
329(18) 0.003039 312.9 33.5
342(18) 0.002924 312.9 33.8
334(18) 0.002994 312.9 34.0
334(18) 0.002994 312.9 34.3
322(18) 0.003106 312.9 34.6
333(18) 0.003003 312.9 34.9
295(17) 0.003390 312.9 35.3
307(18) 0.003257 312.9 35.6
321(18) 0.003115 312.9 36.0
324(18) 0.003086 312.9 36.4
345(19) 0.002899 312.9 36.8
327(18) 0.003058 312.9 37.2
350(19) 0.002857 312.9 37.6
312(18) 0.003205 312.9 38.1
346(19) 0.002890 312.9 38.5
340(18) 0.002941 312.9 39.0
332(18) 0.003012 312.9 39.5
303(17) 0.003300 312.9 39.9
322(18) 0.003106 312.9 40.4
318(18) 0.003145 312.9 40.9
312(18) 0.003205 312.9 41.3
335(18) 0.002985 312.9 41.8
321(18) 0.003115 312.9 42.2
332(18) 0.003012 312.9 42.6
326(18) 0.003067 312.9 43.1
320(18) 0.003125 312.9 43.5
332(18) 0.003012 312.9 43.9
332(18) 0.003012 312.9 44.4
332(18) 0.003012 312.9 44.8
349(19) 0.002865 312.9 45.3
335(18) 0.002985 312.9 45.8
326(18) 0.003067 312.9 46.3
338(18) 0.002959 312.9 46.9
320(18) 0.003125 312.9 47.7
341(18) 0.002933 312.9 48.5
349(19) 0.002865 312.9 49.5
322(18) 0.003106 313.0 50.7
360(19) 0.002778 313.0 52.1
350(19) 0.002857 313.0 53.8
380(19) 0.002632 313.0 55.7
345(19) 0.002899 313.0 57.9
377(19) 0.002653 313.0 60.5
325(18) 0.003077 313.0 63.3
369(19) 0.002710 313.0 66.5
376(19) 0.002660 313.0 69.9
376(19) 0.002660 313.0 73.5
376(19) 0.002660 313.0 77.2
388(20) 0.002577 313.0 80.8
357(19) 0.002801 313.0 84.2
375(19) 0.002667 313.0 87.0
403(20) 0.002481 313.0 89.1
429(21) 0.002331 313.0 90.2
396(20) 0.002525 313.0 90.1
393(20) 0.002545 313.0 88.7
392(20) 0.002551 313.0 86.3
359(19) 0.002786 313.0 83.0
367(19) 0.002725 313.0 79.1
359(19) 0.002786 313.0 74.8
370(19) 0.002703 313.0 70.5
356(19) 0.002809 313.0 66.2
370(19) 0.002703 313.0 62.0
336(18) 0.002976 313.0 58.2
363(19) 0.002755 313.0 54.6
320(18) 0.003125 313.0 51.4
328(18) 0.003049 313.0 48.5
339(18) 0.002950 313.0 45.9
342(18) 0.002924 313.0 43.7
347(19) 0.002882 313.0 41.7
310(18) 0.003226 313.0 40.0
306(17) 0.003268 313.0 38.6
341(18) 0.002933 313.0 37.3
341(18) 0.002933 313.0 36.2
322(18) 0.003106 313.0 35.2
349(19) 0.002865 313.0 34.3
364(19) 0.002747 313.0 33.6
332(18) 0.003012 313.0 32.9
315(18) 0.003175 313.0 32.3
313(18) 0.003195 313.0 31.8
323(18) 0.003096 313.0 31.3
292(17) 0.003425 313.0 30.9
321(18) 0.003115 313.0 30.6
331(18) 0.003021 313.0 30.3
330(18) 0.003030 313.0 30.0
313(18) 0.003195 313.0 29.8
323(18) 0.003096 313.1 29.7
304(17) 0.003289 313.1 29.6
330(18) 0.003030 313.2 29.6
337(18) 0.002967 313.3 29.6
328(18) 0.003049 313.3 29.7
318(18) 0.003145 313.4 29.9
319(18) 0.003135 313.5 30.1
327(18) 0.003058 313.5 30.4
336(18) 0.002976 313.6 30.8
329(18) 0.003039 313.6 31.2
325(18) 0.003077 313.7 31.7
341(18) 0.002933 313.8 32.3
344(19) 0.002907 313.8 32.9
327(18) 0.003058 313.9 33.6
316(18) 0.003165 313.9 34.4
329(18) 0.003039 314.0 35.2
321(18) 0.003115 314.1 36.1
313(18) 0.003195 314.1 37.0
325(18) 0.003077 314.2 37.9
314(18) 0.003185 314.3 38.8
340(18) 0.002941 314.3 39.7
307(18) 0.003257 314.4 40.6
323(18) 0.003096 314.4 41.4
342(18) 0.002924 314.5 42.2
361(19) 0.002770 314.6 42.9
357(19) 0.002801 314.6 43.6
337(18) 0.002967 314.7 44.1
344(19) 0.002907 314.7 44.6
351(19) 0.002849 314.8 45.0
341(18) 0.002933 314.9 45.5
360(19) 0.002778 314.9 46.0
338(18) 0.002959 315.0 46.6
334(18) 0.002994 315.0 47.3
337(18) 0.002967 315.1 48.3
327(18) 0.003058 315.2 49.5
364(19) 0.002747 315.2 51.1
391(20) 0.002558 315.3 53.1
385(20) 0.002597 315.4 55.5
368(19) 0.002717 315.4 58.3
348(19) 0.002874 315.5 61.5
357(19) 0.002801 315.5 64.9
366(19) 0.002732 315.6 68.3
365(19) 0.002740 315.7 71.5
395(20) 0.002532 315.7 74.1
366(19) 0.002732 315.8 75.5
368(19) 0.002717 315.8 75.5
359(19) 0.002786 315.9 73.9
379(19) 0.002639 316.0 70.9
363(19) 0.002755 316.0 67.0
342(18) 0.002924 316.1 62.4
346(19) 0.002890 316.2 57.7
350(19) 0.002857 316.2 53.0
343(19) 0.002915 316.3 48.7
349(19) 0.002865 316.3 44.8
345(19) 0.002899 316.4 41.3
316(18) 0.003165 316.5 38.4
330(18) 0.003030 316.5 35.8
332(18) 0.003012 316.6 33.7
360(19) 0.002778 316.6 32.0
329(18) 0.003039 316.7 30.6
327(18) 0.003058 316.8 29.5
320(18) 0.003125 316.8 28.7
339(18) 0.002950 316.9 28.0
312(18) 0.003205 317.0 27.6
323(18) 0.003096 317.0 27.3
338(18) 0.002959 317.1 27.2
333(18) 0.003003 317.1 27.2
353(19) 0.002833 317.0 27.4
327(18) 0.003058 316.8 27.7
303(17) 0.003300 316.7 28.2
338(18) 0.002959 316.5 28.7
319(18) 0.003135 316.4 29.4
338(18) 0.002959 316.2 30.1
345(19) 0.002899 316.0 31.0
325(18) 0.003077 315.9 31.9
312(18) 0.003205 315.7 32.8
324(18) 0.003086 315.6 33.7
319(18) 0.003135 315.4 34.5
315(18) 0.003175 315.3 35.2
327(18) 0.003058 315.1 35.8
331(18) 0.003021 314.9 36.1
330(18) 0.003030 314.8 36.3
323(18) 0.003096 314.6 36.2
310(18) 0.003226 314.5 36.0
328(18) 0.003049 314.3 35.5
350(19) 0.002857 314.2 34.8
342(18) 0.002924 314.0 34.0
318(18) 0.003145 313.8 33.1
296(17) 0.003378 313.7 32.2
322(18) 0.003106 313.5 31.1
344(19) 0.002907 313.4 30.2
352(19) 0.002841 313.2 29.3
314(18) 0.003185 313.1 28.4
319(18) 0.003135 312.9 27.7
293(17) 0.003413 312.8 27.2
361(19) 0.002770 312.6 26.8
355(19) 0.002817 312.4 26.6
1020(32) 0.000980 312.3 26.7
331(18) 0.003021 312.1 27.0
328(18) 0.003049 312.0 27.5
359(19) 0.002786 311.8 28.4
351(19) 0.002849 311.7 29.5
317(18) 0.003155 311.5 30.9
329(18) 0.003039 311.3 32.7
308(18) 0.003247 311.2 34.7
330(18) 0.003030 311.0 37.0
315(18) 0.003175 310.9 39.4
347(19) 0.002882 310.7 41.8
355(19) 0.002817 310.6 44.1
332(18) 0.003012 310.4 46.0
334(18) 0.002994 310.2 47.2
318(18) 0.003145 310.1 47.7
346(19) 0.002890 309.9 47.2
325(18) 0.003077 309.8 45.8
309(18) 0.003236 309.6 43.8
321(18) 0.003115 309.5 41.3
329(18) 0.003039 309.3 38.7
287(17) 0.003484 309.1 36.0
294(17) 0.003401 309.0 33.5
294(17) 0.003401 308.8 31.1
298(17) 0.003356 308.7 29.0
314(18) 0.003185 308.5 27.1
302(17) 0.003311 308.4 25.5
308(18) 0.003247 308.2 24.2
302(17) 0.003311 308.0 23.1
316(18) 0.003165 307.9 22.1
331(18) 0.003021 307.7 21.4
311(18) 0.003215 307.6 20.8
280(17) 0.00357 307.4 20.3
324(18) 0.003086 307.3 19.9
297(17) 0.003367 307.1 19.6
295(17) 0.003390 307.0 19.4
302(17) 0.003311 306.8 19.2
333(18) 0.003003 306.6 19.0
328(18) 0.003049 306.5 18.9
331(18) 0.003021 306.3 18.8
314(18) 0.003185 306.2 18.7
309(18) 0.003236 306.0 18.7
314(18) 0.003185 305.9 18.6
307(18) 0.003257 305.7 18.6
317(18) 0.003155 305.5 18.6
284(17) 0.00352 305.4 18.7
306(17) 0.003268 305.2 18.7
322(18) 0.003106 305.1 18.8
298(17) 0.003356 304.9 18.9
315(18) 0.003175 304.8 19.0
311(18) 0.003215 304.6 19.1
301(17) 0.003322 304.4 19.2
303(17) 0.003300 304.3 19.3
325(18) 0.003077 304.1 19.5
321(18) 0.003115 304.0 19.6
307(18) 0.003257 303.8 19.7
301(17) 0.003322 303.7 19.9
323(18) 0.003096 303.5 20.1
292(17) 0.003425 303.3 20.2
280(17) 0.00357 303.2 20.5
314(18) 0.003185 303.0 20.7
313(18) 0.003195 302.9 20.9
260(16) 0.00385 302.7 21.2
306(17) 0.003268 302.6 21.5
296(17) 0.003378 302.4 21.8
315(18) 0.003175 302.3 22.2
293(17) 0.003413 302.3 22.6
300(17) 0.003333 302.3 23.0
301(17) 0.003322 302.3 23.4
313(18) 0.003195 302.3 23.9
297(17) 0.003367 302.3 24.4
318(18) 0.003145 302.3 24.9
304(17) 0.003289 302.3 25.4
321(18) 0.003115 302.3 26.0
295(17) 0.003390 302.3 26.6
314(18) 0.003185 302.3 27.3
304(17) 0.003289 302.3 27.9
296(17) 0.003378 302.3 28.6
295(17) 0.003390 302.3 29.3
320(18) 0.003125 302.3 30.1
306(17) 0.003268 302.3 30.9
300(17) 0.003333 302.3 31.7
312(18) 0.003205 302.3 32.5
325(18) 0.003077 302.3 33.4
326(18) 0.003067 302.3 34.3
298(17) 0.003356 302.3 35.2
304(17) 0.003289 302.3 36.2
320(18) 0.003125 302.3 37.2
310(18) 0.003226 302.3 38.2
311(18) 0.003215 302.3 39.3
322(18) 0.003106 302.3 40.5
310(18) 0.003226 302.3 41.7
326(18) 0.003067 302.3 42.9
330(18) 0.003030 302.3 44.2
351(19) 0.002849 302.3 45.5
330(18) 0.003030 302.3 46.9
323(18) 0.003096 302.3 48.3
365(19) 0.002740 302.3 49.7
360(19) 0.002778 302.3 51.2
367(19) 0.002725 302.3 52.6
344(19) 0.002907 302.3 54.0
342(18) 0.002924 302.3 55.4
377(19) 0.002653 302.3 56.7
364(19) 0.002747 302.3 58.0
371(19) 0.002695 302.3 59.2
348(19) 0.002874 302.3 60.3
355(19) 0.002817 302.3 61.3
343(19) . . .
343(19) . . .
349(19) . . .
329(18) . . .
385(20) . . .
367(19) . . .
354(19) . . .
360(19) . . .
347(19) . . .
325(18) . . .
317(18) . . .
358(19) . . .
333(18) . . .
357(19) . . .
352(19) . . .
344(19) . . .
344(19) . . .
335(18) . . .
329(18) . . .
346(19) . . .
312(18) . . .
323(18) . . .
346(19) . . .
338(18) . . .
331(18) . . .
335(18) . . .
337(18) . . .
335(18) . . .
338(18) . . .
329(18) . . .
314(18) . . .
348(19) . . .
339(18) . . .
352(19) . . .
333(18) . . .
319(18) . . .
335(18) . . .
311(18) . . .
330(18) . . .
309(18) . . .
306(17) . . .
327(18) . . .
312(18) . . .
321(18) . . .
315(18) . . .
331(18) . . .
331(18) . . .
315(18) . . .
332(18) . . .
324(18) . . .
288(17) . . .
313(18) . . .
338(18) . . .
291(17) . . .
320(18) . . .
303(17) . . .
316(18) . . .
315(18) . . .
332(18) . . .
328(18) . . .
310(18) . . .
318(18) . . .
288(17) . . .
295(17) . . .
310(18) . . .
297(17) . . .
307(18) . . .
301(17) . . .
299(17) . . .
302(17) . . .
270(16) . . .
318(18) . . .
303(17) . . .
299(17) . . .
313(18) . . .
268(16) . . .
284(17) . . .
290(17) . . .
289(17) . . .
316(18) . . .
311(18) . . .
286(17) . . .
304(17) . . .
299(17) . . .
307(18) . . .
299(17) . . .
286(17) . . .
286(17) . . .
295(17) . . .
291(17) . . .
326(18) . . .
298(17) . . .
292(17) . . .
308(18) . . .
301(17) . . .
301(17) . . .
303(17) . . .
318(18) . . .
311(18) . . .
298(17) . . .
318(18) . . .
273(17) . . .
303(17) . . .
326(18) . . .
324(18) . . .
313(18) . . .
328(18) . . .
321(18) . . .
322(18) . . .
341(18) . . .
325(18) . . .
328(18) . . .
321(18) . . .
313(18) . . .
312(18) . . .
311(18) . . .
301(17) . . .
338(18) . . .
301(17) . . .
309(18) . . .
313(18) . . .
282(17) . . .
290(17) . . .
360(19) . . .
322(18) . . .
334(18) . . .
303(17) . . .
296(17) . . .
308(18) . . .
325(18) . . .
331(18) . . .
334(18) . . .
290(17) . . .
317(18) . . .
307(18) . . .
296(17) . . .
310(18) . . .
310(18) . . .
306(17) . . .
330(18) . . .
305(17) . . .
292(17) . . .
323(18) . . .
298(17) . . .
301(17) . . .
295(17) . . .
320(18) . . .
299(17) . . .
303(17) . . .
322(18) . . .
319(18) . . .
321(18) . . .
306(17) . . .
303(17) . . .
308(18) . . .
281(17) . . .
282(17) . . .
302(17) . . .
298(17) . . .
308(18) . . .
285(17) . . .
303(17) . . .
317(18) . . .
300(17) . . .
313(18) . . .
282(17) . . .
278(17) . . .
304(17) . . .
328(18) . . .
259(16) . . .
283(17) . . .
313(18) . . .
294(17) . . .
273(17) . . .
281(17) . . .
292(17) . . .
274(17) . . .
283(17) . . .
275(17) . . .
294(17) . . .
315(18) . . .
267(16) . . .
279(17) . . .
251(16) . . .
296(17) . . .
285(17) . . .
301(17) . . .
296(17) . . .
295(17) . . .
279(17) . . .
296(17) . . .
317(18) . . .
304(17) . . .
305(17) . . .
295(17) . . .
300(17) . . .
287(17) . . .
331(18) . . .
288(17) . . .
298(17) . . .
297(17) . . .
338(18) . . .
346(19) . . .
288(17) . . .
282(17) . . .
311(18) . . .
308(18) . . .
317(18) . . .
305(17) . . .
312(18) . . .
318(18) . . .
289(17) . . .
324(18) . . .
332(18) . . .
317(18) . . .
290(17) . . .
304(17) . . .
313(18) . . .
341(18) . . .
319(18) . . .
362(19) . . .
354(19) . . .
324(18) . . .
325(18) . . .
321(18) . . .
343(19) . . .
362(19) . . .
338(18) . . .
340(18) . . .
300(17) . . .
324(18) . . .
303(17) . . .
314(18) . . .
289(17) . . .
312(18) . . .
326(18) . . .
324(18) . . .
280(17) . . .
327(18) . . .
298(17) . . .
329(18) . . .
292(17) . . .
314(18) . . .
296(17) . . .
303(17) . . .
311(18) . . .
294(17) . . .
311(18) . . .
296(17) . . .
294(17) . . .
315(18) . . .
290(17) . . .
308(18) . . .
311(18) . . .
291(17) . . .
304(17) . . .
275(17) . . .
293(17) . . .
316(18) . . .
278(17) . . .
310(18) . . .
278(17) . . .
283(17) . . .
286(17) . . .
313(18) . . .
285(17) . . .
270(16) . . .
295(17) . . .
284(17) . . .
289(17) . . .
278(17) . . .
302(17) . . .
283(17) . . .
280(17) . . .
309(18) . . .
300(17) . . .
309(18) . . .
299(17) . . .
268(16) . . .
280(17) . . .
287(17) . . .
270(16) . . .
293(17) . . .
293(17) . . .
277(17) . . .
302(17) . . .
312(18) . . .
315(18) . . .
285(17) . . .
307(18) . . .
302(17) . . .
301(17) . . .
298(17) . . .
277(17) . . .
277(17) . . .
275(17) . . .
307(18) . . .
307(18) . . .
283(17) . . .
280(17) . . .
298(17) . . .
291(17) . . .
299(17) . . .
281(17) . . .
260(16) . . .
297(17) . . .
288(17) . . .
284(17) . . .
293(17) . . .
316(18) . . .
278(17) . . .
262(16) . . .
286(17) . . .
303(17) . . .
306(17) . . .
315(18) . . .
281(17) . . .
305(17) . . .
303(17) . . .
298(17) . . .
297(17) . . .
302(17) . . .
303(17) . . .
296(17) . . .
302(17) . . .
284(17) . . .
297(17) . . .
298(17) . . .
278(17) . . .
300(17) . . .
315(18) . . .
291(17) . . .
294(17) . . .
324(18) . . .
298(17) . . .
285(17) . . .
288(17) . . .
304(17) . . .
269(16) . . .
305(17) . . .
298(17) . . .
304(17) . . .
292(17) . . .
280(17) . . .
276(17) . . .
307(18) . . .
296(17) . . .
297(17) . . .
294(17) . . .
289(17) . . .
315(18) . . .
302(17) . . .
298(17) . . .
309(18) . . .
276(17) . . .
298(17) . . .
273(17) . . .
298(17) . . .
299(17) . . .
287(17) . . .
272(16) . . .
304(17) . . .
312(18) . . .
292(17) . . .
277(17) . . .
299(17) . . .
311(18) . . .
296(17) . . .
312(18) . . .
290(17) . . .
293(17) . . .
305(17) . . .
305(17) . . .
292(17) . . .
303(17) . . .
288(17) . . .
305(17) . . .
299(17) . . .
269(16) . . .
273(17) . . .
282(17) . . .
302(17) . . .
290(17) . . .
291(17) . . .
326(18) . . .
314(18) . . .
295(17) . . .
315(18) . . .
325(18) . . .
295(17) . . .
318(18) . . .
276(17) . . .
320(18) . . .
301(17) . . .
303(17) . . .
331(18) . . .
297(17) . . .
303(17) . . .
340(18) . . .
325(18) . . .
327(18) . . .
313(18) . . .
321(18) . . .
322(18) . . .
366(19) . . .
336(18) . . .
323(18) . . .
318(18) . . .
339(18) . . .
314(18) . . .
311(18) . . .
336(18) . . .
333(18) . . .
323(18) . . .
319(18) . . .
313(18) . . .
360(19) . . .
344(19) . . .
325(18) . . .
325(18) . . .
313(18) . . .
293(17) . . .
291(17) . . .
314(18) . . .
279(17) . . .
300(17) . . .
301(17) . . .
315(18) . . .
336(18) . . .
326(18) . . .
315(18) . . .
294(17) . . .
311(18) . . .
306(17) . . .
301(17) . . .
305(17) . . .
302(17) . . .
298(17) . . .
304(17) . . .
287(17) . . .
280(17) . . .
270(16) . . .
321(18) . . .
290(17) . . .
298(17) . . .
328(18) . . .
292(17) . . .
285(17) . . .
311(18) . . .
309(18) . . .
287(17) . . .
294(17) . . .
288(17) . . .
318(18) . . .
286(17) . . .
319(18) . . .
309(18) . . .
321(18) . . .
308(18) . . .
279(17) . . .
318(18) . . .
337(18) . . .
324(18) . . .
339(18) . . .
322(18) . . .
341(18) . . .
323(18) . . .
334(18) . . .
325(18) . . .
329(18) . . .
327(18) . . .
337(18) . . .
325(18) . . .
309(18) . . .
346(19) . . .
327(18) . . .
325(18) . . .
334(18) . . .
302(17) . . .
331(18) . . .
298(17) . . .
317(18) . . .
326(18) . . .
314(18) . . .
326(18) . . .
321(18) . . .
323(18) . . .
334(18) . . .
338(18) . . .
312(18) . . .
313(18) . . .
327(18) . . .
315(18) . . .
321(18) . . .
320(18) . . .
318(18) . . .
330(18) . . .
297(17) . . .
316(18) . . .
329(18) . . .
340(18) . . .
317(18) . . .
298(17) . . .
311(18) . . .
316(18) . . .
320(18) . . .
319(18) . . .
374(19) . . .
361(19) . . .
356(19) . . .
335(18) . . .
299(17) . . .
304(17) . . .
375(19) . . .
361(19) . . .
359(19) . . .
348(19) . . .
367(19) . . .
367(19) . . .
372(19) . . .
319(18) . . .
335(18) . . .
343(19) . . .
336(18) . . .
324(18) . . .
319(18) . . .
329(18) . . .
334(18) . . .
332(18) . . .
338(18) . . .
316(18) . . .
293(17) . . .
297(17) . . .
324(18) . . .
349(19) . . .
343(19) . . .
321(18) . . .
327(18) . . .
316(18) . . .
304(17) . . .
332(18) . . .
329(18) . . .
335(18) . . .
339(18) . . .
326(18) . . .
309(18) . . .
326(18) . . .
361(19) . . .
323(18) . . .
335(18) . . .
327(18) . . .
355(19) . . .
336(18) . . .
343(19) . . .
347(19) . . .
355(19) . . .
329(18) . . .
334(18) . . .
354(19) . . .
345(19) . . .
371(19) . . .
325(18) . . .
361(19) . . .
378(19) . . .
387(20) . . .
340(18) . . .
373(19) . . .
380(19) . . .
382(20) . . .
352(19) . . .
379(19) . . .
348(19) . . .
380(19) . . .
366(19) . . .
370(19) . . .
358(19) . . .
356(19) . . .
371(19) . . .
311(18) . . .
355(19) . . .
336(18) . . .
348(19) . . .
341(18) . . .
358(19) . . .
340(18) . . .
364(19) . . .
336(18) . . .
301(17) . . .
340(18) . . .
327(18) . . .
339(18) . . .
333(18) . . .
345(19) . . .
314(18) . . .
314(18) . . .
338(18) . . .
326(18) . . .
330(18) . . .
333(18) . . .
337(18) . . .
372(19) . . .
325(18) . . .
324(18) . . .
325(18) . . .
332(18) . . .
328(18) . . .
338(18) . . .
370(19) . . .
327(18) . . .
359(19) . . .
324(18) . . .
303(17) . . .
325(18) . . .
344(19) . . .
318(18) . . .
357(19) . . .
310(18) . . .
363(19) . . .
355(19) . . .
369(19) . . .
331(18) . . .
340(18) . . .
344(19) . . .
340(18) . . .
351(19) . . .
336(18) . . .
355(19) . . .
333(18) . . .
330(18) . . .
330(18) . . .
349(19) . . .
335(18) . . .
322(18) . . .
319(18) . . .
320(18) . . .
299(17) . . .
299(17) . . .
328(18) . . .
334(18) . . .
289(17) . . .
295(17) . . .
331(18) . . .
329(18) . . .
304(17) . . .
365(19) . . .
302(17) . . .
332(18) . . .
360(19) . . .
339(18) . . .
336(18) . . .
320(18) . . .
324(18) . . .
321(18) . . .
318(18) . . .
302(17) . . .
319(18) . . .
349(19) . . .
342(18) . . .
348(19) . . .
345(19) . . .
346(19) . . .
324(18) . . .
342(18) . . .
333(18) . . .
291(17) . . .
334(18) . . .
329(18) . . .
325(18) . . .
337(18) . . .
323(18) . . .
327(18) . . .
342(18) . . .
318(18) . . .
317(18) . . .
302(17) . . .
343(19) . . .
327(18) . . .
312(18) . . .
324(18) . . .
312(18) . . .
332(18) . . .
328(18) . . .
341(18) . . .
313(18) . . .
324(18) . . .
322(18) . . .
337(18) . . .
339(18) . . .
307(18) . . .
348(19) . . .
328(18) . . .
342(18) . . .
319(18) . . .
333(18) . . .
319(18) . . .
370(19) . . .
327(18) . . .
322(18) . . .
347(19) . . .
319(18) . . .
360(19) . . .
383(20) . . .
348(19) . . .
353(19) . . .
349(19) . . .
346(19) . . .
371(19) . . .
341(18) . . .
362(19) . . .
358(19) . . .
364(19) . . .
331(18) . . .
353(19) . . .
369(19) . . .
377(19) . . .
348(19) . . .
387(20) . . .
351(19) . . .
369(19) . . .
362(19) . . .
378(19) . . .
365(19) . . .
363(19) . . .
358(19) . . .
353(19) . . .
392(20) . . .
350(19) . . .
368(19) . . .
372(19) . . .
388(20) . . .
376(19) . . .
365(19) . . .
367(19) . . .
369(19) . . .
374(19) . . .
371(19) . . .
377(19) . . .
356(19) . . .
365(19) . . .
401(20) . . .
382(20) . . .
376(19) . . .
373(19) . . .
430(21) . . .
408(20) . . .
422(21) . . .
431(21) . . .
425(21) . . .
372(19) . . .
412(20) . . .
408(20) . . .
400(20) . . .
421(21) . . .
404(20) . . .
411(20) . . .
404(20) . . .
420(20) . . .
406(20) . . .
435(21) . . .
427(21) . . .
459(21) . . .
425(21) . . .
413(20) . . .
422(21) . . .
447(21) . . .
416(20) . . .
458(21) . . .
427(21) . . .
454(21) . . .
465(22) . . .
459(21) . . .
502(22) . . .
508(23) . . .
522(23) . . .
532(23) . . .
546(23) . . .
573(24) . . .
603(25) . . .
583(24) . . .
580(24) . . .
655(26) . . .
714(27) . . .
720(27) . . .
729(27) . . .
802(28) . . .
867(29) . . .
958(31) . . .
1038(32) . . .
1158(34) . . .
1235(35) . . .
1269(36) . . .
1450(38) . . .
1635(40) . . .
1758(42) . . .
2125(46) . . .
2416(49) . . .
2776(53) . . .
3275(57) . . .
4097(64) . . .
4852(70) . . .
6104(78) . . .
7597(87) . . .
9659(98) . . .
12270(110) . . .
15320(120) . . .
18270(140) . . .
20280(140) . . .
21270(150) . . .
20550(140) . . .
18400(140) . . .
15500(130) . . .
12350(110) . . .
9910(100) . . .
7757(88) . . .
6179(79) . . .
4847(70) . . .
4056(64) . . .
3354(58) . . .
2836(53) . . .
2470(50) . . .
2161(46) . . .
1844(43) . . .
1639(40) . . .
1472(38) . . .
1305(36) . . .
1269(36) . . .
1096(33) . . .
975(31) . . .
916(30) . . .
914(30) . . .
804(28) . . .
766(28) . . .
737(27) . . .
726(27) . . .
651(26) . . .
636(25) . . .
689(26) . . .
595(24) . . .
603(25) . . .
569(24) . . .
551(23) . . .
493(22) . . .
510(23) . . .
560(24) . . .
518(23) . . .
495(22) . . .
491(22) . . .
479(22) . . .
453(21) . . .
451(21) . . .
439(21) . . .
425(21) . . .
440(21) . . .
482(22) . . .
413(20) . . .
431(21) . . .
435(21) . . .
383(20) . . .
391(20) . . .
379(19) . . .
389(20) . . .
426(21) . . .
392(20) . . .
379(19) . . .
366(19) . . .
395(20) . . .
379(19) . . .
369(19) . . .
395(20) . . .
414(20) . . .
378(19) . . .
379(19) . . .
344(19) . . .
367(19) . . .
360(19) . . .
403(20) . . .
378(19) . . .
393(20) . . .
346(19) . . .
374(19) . . .
361(19) . . .
370(19) . . .
367(19) . . .
335(18) . . .
344(19) . . .
358(19) . . .
375(19) . . .
367(19) . . .
350(19) . . .
358(19) . . .
344(19) . . .
356(19) . . .
326(18) . . .
349(19) . . .
383(20) . . .
383(20) . . .
363(19) . . .
353(19) . . .
333(18) . . .
366(19) . . .
366(19) . . .
366(19) . . .
373(19) . . .
353(19) . . .
365(19) . . .
350(19) . . .
376(19) . . .
338(18) . . .
339(18) . . .
344(19) . . .
360(19) . . .
357(19) . . .
359(19) . . .
365(19) . . .
364(19) . . .
372(19) . . .
401(20) . . .
397(20) . . .
381(20) . . .
376(19) . . .
343(19) . . .
395(20) . . .
408(20) . . .
407(20) . . .
375(19) . . .
355(19) . . .
408(20) . . .
372(19) . . .
376(19) . . .
363(19) . . .
372(19) . . .
370(19) . . .
354(19) . . .
345(19) . . .
375(19) . . .
393(20) . . .
366(19) . . .
337(18) . . .
341(18) . . .
366(19) . . .
360(19) . . .
331(18) . . .
341(18) . . .
339(18) . . .
354(19) . . .
321(18) . . .
358(19) . . .
346(19) . . .
345(19) . . .
352(19) . . .
328(18) . . .
341(18) . . .
300(17) . . .
321(18) . . .
325(18) . . .
341(18) . . .
338(18) . . .
345(19) . . .
302(17) . . .
310(18) . . .
317(18) . . .
318(18) . . .
329(18) . . .
331(18) . . .
340(18) . . .
303(17) . . .
339(18) . . .
340(18) . . .
329(18) . . .
319(18) . . .
337(18) . . .
337(18) . . .
320(18) . . .
335(18) . . .
325(18) . . .
328(18) . . .
317(18) . . .
298(17) . . .
324(18) . . .
335(18) . . .
321(18) . . .
332(18) . . .
326(18) . . .
330(18) . . .
327(18) . . .
301(17) . . .
289(17) . . .
342(18) . . .
327(18) . . .
316(18) . . .
319(18) . . .
328(18) . . .
331(18) . . .
322(18) . . .
304(17) . . .
314(18) . . .
333(18) . . .
318(18) . . .
346(19) . . .
356(19) . . .
315(18) . . .
333(18) . . .
337(18) . . .
338(18) . . .
329(18) . . .
306(17) . . .
322(18) . . .
332(18) . . .
328(18) . . .
342(18) . . .
355(19) . . .
350(19) . . .
321(18) . . .
326(18) . . .
325(18) . . .
323(18) . . .
324(18) . . .
327(18) . . .
333(18) . . .
324(18) . . .
343(19) . . .
318(18) . . .
309(18) . . .
341(18) . . .
325(18) . . .
308(18) . . .
320(18) . . .
321(18) . . .
323(18) . . .
346(19) . . .
331(18) . . .
340(18) . . .
307(18) . . .
353(19) . . .
334(18) . . .
336(18) . . .
304(17) . . .
344(19) . . .
353(19) . . .
329(18) . . .
346(19) . . .
321(18) . . .
314(18) . . .
327(18) . . .
316(18) . . .
310(18) . . .
318(18) . . .
333(18) . . .
325(18) . . .
343(19) . . .
291(17) . . .
303(17) . . .
304(17) . . .
340(18) . . .
336(18) . . .
296(17) . . .
309(18) . . .
328(18) . . .
317(18) . . .
331(18) . . .
319(18) . . .
325(18) . . .
321(18) . . .
312(18) . . .
316(18) . . .
312(18) . . .
293(17) . . .
342(18) . . .
327(18) . . .
309(18) . . .
295(17) . . .
319(18) . . .
293(17) . . .
325(18) . . .
314(18) . . .
334(18) . . .
353(19) . . .
320(18) . . .
324(18) . . .
319(18) . . .
322(18) . . .
326(18) . . .
297(17) . . .
310(18) . . .
307(18) . . .
313(18) . . .
345(19) . . .
318(18) . . .
310(18) . . .
332(18) . . .
306(17) . . .
355(19) . . .
316(18) . . .
327(18) . . .
309(18) . . .
348(19) . . .
323(18) . . .
350(19) . . .
328(18) . . .
343(19) . . .
326(18) . . .
367(19) . . .
322(18) . . .
309(18) . . .
346(19) . . .
329(18) . . .
334(18) . . .
352(19) . . .
365(19) . . .
343(19) . . .
318(18) . . .
357(19) . . .
327(18) . . .
330(18) . . .
327(18) . . .
316(18) . . .
357(19) . . .
318(18) . . .
328(18) . . .
341(18) . . .
345(19) . . .
323(18) . . .
329(18) . . .
314(18) . . .
316(18) . . .
326(18) . . .
304(17) . . .
319(18) . . .
311(18) . . .
344(19) . . .
322(18) . . .
296(17) . . .
312(18) . . .
312(18) . . .
364(19) . . .
326(18) . . .
306(17) . . .
315(18) . . .
302(17) . . .
341(18) . . .
318(18) . . .
313(18) . . .
315(18) . . .
290(17) . . .
288(17) . . .
303(17) . . .
340(18) . . .
316(18) . . .
336(18) . . .
330(18) . . .
285(17) . . .
340(18) . . .
313(18) . . .
308(18) . . .
310(18) . . .
320(18) . . .
336(18) . . .
322(18) . . .
287(17) . . .
283(17) . . .
318(18) . . .
294(17) . . .
340(18) . . .
298(17) . . .
294(17) . . .
305(17) . . .
329(18) . . .
314(18) . . .
285(17) . . .
287(17) . . .
299(17) . . .
328(18) . . .
286(17) . . .
329(18) . . .
301(17) . . .
299(17) . . .
319(18) . . .
304(17) . . .
353(19) . . .
303(17) . . .
305(17) . . .
298(17) . . .
317(18) . . .
305(17) . . .
325(18) . . .
318(18) . . .
331(18) . . .
283(17) . . .
306(17) . . .
301(17) . . .
322(18) . . .
323(18) . . .
304(17) . . .
332(18) . . .
324(18) . . .
309(18) . . .
324(18) . . .
317(18) . . .
320(18) . . .
311(18) . . .
321(18) . . .
328(18) . . .
324(18) . . .
343(19) . . .
294(17) . . .
319(18) . . .
309(18) . . .
318(18) . . .
325(18) . . .
327(18) . . .
338(18) . . .
344(19) . . .
347(19) . . .
328(18) . . .
327(18) . . .
317(18) . . .
315(18) . . .
358(19) . . .
312(18) . . .
345(19) . . .
335(18) . . .
349(19) . . .
308(18) . . .
326(18) . . .
330(18) . . .
331(18) . . .
344(19) . . .
311(18) . . .
316(18) . . .
343(19) . . .
322(18) . . .
356(19) . . .
315(18) . . .
349(19) . . .
326(18) . . .
317(18) . . .
326(18) . . .
334(18) . . .
351(19) . . .
353(19) . . .
298(17) . . .
317(18) . . .
292(17) . . .
337(18) . . .
333(18) . . .
304(17) . . .
319(18) . . .
342(18) . . .
344(19) . . .
325(18) . . .
332(18) . . .
312(18) . . .
317(18) . . .
340(18) . . .
341(18) . . .
313(18) . . .
338(18) . . .
330(18) . . .
326(18) . . .
332(18) . . .
314(18) . . .
315(18) . . .
358(19) . . .
328(18) . . .
325(18) . . .
312(18) . . .
339(18) . . .
305(17) . . .
355(19) . . .
304(17) . . .
317(18) . . .
303(17) . . .
305(17) . . .
330(18) . . .
337(18) . . .
333(18) . . .
333(18) . . .
344(19) . . .
326(18) . . .
338(18) . . .
330(18) . . .
306(17) . . .
364(19) . . .
371(19) . . .
326(18) . . .
297(17) . . .
294(17) . . .
311(18) . . .
329(18) . . .
337(18) . . .
334(18) . . .
325(18) . . .
354(19) . . .
347(19) . . .
342(18) . . .
337(18) . . .
357(19) . . .
349(19) . . .
320(18) . . .
320(18) . . .
320(18) . . .
329(18) . . .
359(19) . . .
344(19) . . .
348(19) . . .
353(19) . . .
344(19) . . .
325(18) . . .
322(18) . . .
333(18) . . .
323(18) . . .
318(18) . . .
324(18) . . .
341(18) . . .
330(18) . . .
325(18) . . .
343(19) . . .
341(18) . . .
373(19) . . .
339(18) . . .
332(18) . . .
332(18) . . .
363(19) . . .
318(18) . . .
300(17) . . .
313(18) . . .
321(18) . . .
326(18) . . .
313(18) . . .
318(18) . . .
331(18) . . .
309(18) . . .
335(18) . . .
322(18) . . .
316(18) . . .
350(19) . . .
332(18) . . .
318(18) . . .
327(18) . . .
330(18) . . .
305(17) . . .
321(18) . . .
325(18) . . .
324(18) . . .
312(18) . . .
296(17) . . .
340(18) . . .
302(17) . . .
316(18) . . .
319(18) . . .
305(17) . . .
340(18) . . .
313(18) . . .
361(19) . . .
318(18) . . .
298(17) . . .
336(18) . . .
325(18) . . .
311(18) . . .
323(18) . . .
330(18) . . .
328(18) . . .
321(18) . . .
332(18) . . .
311(18) . . .
306(17) . . .
330(18) . . .
332(18) . . .
305(17) . . .
327(18) . . .
319(18) . . .
341(18) . . .
314(18) . . .
341(18) . . .
346(19) . . .
322(18) . . .
336(18) . . .
316(18) . . .
309(18) . . .
319(18) . . .
287(17) . . .
337(18) . . .
303(17) . . .
331(18) . . .
296(17) . . .
298(17) . . .
299(17) . . .
314(18) . . .
308(18) . . .
332(18) . . .
320(18) . . .
323(18) . . .
302(17) . . .
364(19) . . .
326(18) . . .
331(18) . . .
319(18) . . .
311(18) . . .
316(18) . . .
312(18) . . .
353(19) . . .
294(17) . . .
325(18) . . .
327(18) . . .
331(18) . . .
341(18) . . .
355(19) . . .
353(19) . . .
331(18) . . .
328(18) . . .
342(18) . . .
345(19) . . .
349(19) . . .
363(19) . . .
300(17) . . .
353(19) . . .
336(18) . . .
337(18) . . .
354(19) . . .
332(18) . . .
352(19) . . .
325(18) . . .
368(19) . . .
364(19) . . .
339(18) . . .
303(17) . . .
343(19) . . .
318(18) . . .
347(19) . . .
335(18) . . .
353(19) . . .
332(18) . . .
318(18) . . .
296(17) . . .
324(18) . . .
330(18) . . .
324(18) . . .
351(19) . . .
329(18) . . .
297(17) . . .
333(18) . . .
309(18) . . .
349(19) . . .
340(18) . . .
298(17) . . .
332(18) . . .
341(18) . . .
328(18) . . .
336(18) . . .
321(18) . . .
331(18) . . .
315(18) . . .
295(17) . . .
310(18) . . .
317(18) . . .
320(18) . . .
328(18) . . .
308(18) . . .
337(18) . . .
307(18) . . .
323(18) . . .
322(18) . . .
327(18) . . .
312(18) . . .
347(19) . . .
358(19) . . .
311(18) . . .
346(19) . . .
336(18) . . .
345(19) . . .
335(18) . . .
341(18) . . .
312(18) . . .
329(18) . . .
335(18) . . .
334(18) . . .
326(18) . . .
316(18) . . .
291(17) . . .
327(18) . . .
316(18) . . .
299(17) . . .
333(18) . . .
293(17) . . .
357(19) . . .
311(18) . . .
343(19) . . .
350(19) . . .
326(18) . . .
327(18) . . .
325(18) . . .
323(18) . . .
303(17) . . .
323(18) . . .
313(18) . . .
306(17) . . .
295(17) . . .
330(18) . . .
333(18) . . .
326(18) . . .
325(18) . . .
333(18) . . .
332(18) . . .
308(18) . . .
304(17) . . .
327(18) . . .
319(18) . . .
326(18) . . .
342(18) . . .
355(19) . . .
322(18) . . .
344(19) . . .
321(18) . . .
324(18) . . .
314(18) . . .
324(18) . . .
306(17) . . .
363(19) . . .
316(18) . . .
345(19) . . .
321(18) . . .
328(18) . . .
322(18) . . .
335(18) . . .
351(19) . . .
324(18) . . .
328(18) . . .
316(18) . . .
329(18) . . .
357(19) . . .
345(19) . . .
330(18) . . .
334(18) . . .
329(18) . . .
343(19) . . .
355(19) . . .
325(18) . . .
311(18) . . .
313(18) . . .
327(18) . . .
299(17) . . .
310(18) . . .
369(19) . . .
335(18) . . .
328(18) . . .
324(18) . . .
345(19) . . .
349(19) . . .
311(18) . . .
352(19) . . .
358(19) . . .
324(18) . . .
347(19) . . .
314(18) . . .
339(18) . . .
327(18) . . .
320(18) . . .
348(19) . . .
330(18) . . .
318(18) . . .
342(18) . . .
380(19) . . .
330(18) . . .
346(19) . . .
346(19) . . .
325(18) . . .
325(18) . . .
307(18) . . .
330(18) . . .
323(18) . . .
350(19) . . .
362(19) . . .
324(18) . . .
312(18) . . .
313(18) . . .
342(18) . . .
331(18) . . .
353(19) . . .
349(19) . . .
332(18) . . .
305(17) . . .
334(18) . . .
339(18) . . .
367(19) . . .
313(18) . . .
309(18) . . .
336(18) . . .
327(18) . . .
359(19) . . .
333(18) . . .
343(19) . . .
301(17) . . .
344(19) . . .
330(18) . . .
333(18) . . .
334(18) . . .
339(18) . . .
325(18) . . .
324(18) . . .
353(19) . . .
343(19) . . .
332(18) . . .
350(19) . . .
367(19) . . .
341(18) . . .
340(18) . . .
318(18) . . .
342(18) . . .
317(18) . . .
305(17) . . .
355(19) . . .
322(18) . . .
326(18) . . .
346(19) . . .
342(18) . . .
323(18) . . .
330(18) . . .
340(18) . . .
355(19) . . .
322(18) . . .
361(19) . . .
330(18) . . .
343(19) . . .
316(18) . . .
328(18) . . .
336(18) . . .
369(19) . . .
346(19) . . .
341(18) . . .
300(17) . . .
341(18) . . .
326(18) . . .
327(18) . . .
365(19) . . .
350(19) . . .
330(18) . . .
328(18) . . .
346(19) . . .
334(18) . . .
325(18) . . .
365(19) . . .
339(18) . . .
363(19) . . .
327(18) . . .
337(18) . . .
384(20) . . .
336(18) . . .
364(19) . . .
324(18) . . .
341(18) . . .
350(19) . . .
340(18) . . .
352(19) . . .
357(19) . . .
358(19) . . .
343(19) . . .
351(19) . . .
359(19) . . .
390(20) . . .
332(18) . . .
357(19) . . .
317(18) . . .
361(19) . . .
356(19) . . .
377(19) . . .
362(19) . . .
373(19) . . .
336(18) . . .
362(19) . . .
352(19) . . .
386(20) . . .
368(19) . . .
357(19) . . .
366(19) . . .
325(18) . . .
359(19) . . .
384(20) . . .
360(19) . . .
357(19) . . .
366(19) . . .
352(19) . . .
349(19) . . .
345(19) . . .
323(18) . . .
385(20) . . .
359(19) . . .
339(18) . . .
334(18) . . .
367(19) . . .
337(18) . . .
370(19) . . .
351(19) . . .
387(20) . . .
360(19) . . .
361(19) . . .
405(20) . . .
355(19) . . .
370(19) . . .
358(19) . . .
351(19) . . .
359(19) . . .
350(19) . . .
327(18) . . .
370(19) . . .
354(19) . . .
388(20) . . .
359(19) . . .
369(19) . . .
356(19) . . .
360(19) . . .
403(20) . . .
368(19) . . .
356(19) . . .
362(19) . . .
364(19) . . .
379(19) . . .
361(19) . . .
388(20) . . .
360(19) . . .
364(19) . . .
376(19) . . .
370(19) . . .
383(20) . . .
355(19) . . .
389(20) . . .
374(19) . . .
369(19) . . .
416(20) . . .
356(19) . . .
406(20) . . .
380(19) . . .
346(19) . . .
353(19) . . .
345(19) . . .
355(19) . . .
365(19) . . .
366(19) . . .
360(19) . . .
347(19) . . .
353(19) . . .
375(19) . . .
367(19) . . .
377(19) . . .
383(20) . . .
383(20) . . .
376(19) . . .
384(20) . . .
368(19) . . .
364(19) . . .
366(19) . . .
381(20) . . .
359(19) . . .
386(20) . . .
356(19) . . .
396(20) . . .
350(19) . . .
373(19) . . .
340(18) . . .
366(19) . . .
360(19) . . .
380(19) . . .
393(20) . . .
397(20) . . .
393(20) . . .
362(19) . . .
379(19) . . .
354(19) . . .
362(19) . . .
364(19) . . .
412(20) . . .
364(19) . . .
364(19) . . .
363(19) . . .
358(19) . . .
370(19) . . .
384(20) . . .
369(19) . . .
373(19) . . .
373(19) . . .
387(20) . . .
383(20) . . .
383(20) . . .
383(20) . . .
380(19) . . .
370(19) . . .
364(19) . . .
372(19) . . .
380(19) . . .
373(19) . . .
392(20) . . .
386(20) . . .
347(19) . . .
358(19) . . .
370(19) . . .
373(19) . . .
360(19) . . .
407(20) . . .
391(20) . . .
358(19) . . .
376(19) . . .
364(19) . . .
351(19) . . .
338(18) . . .
395(20) . . .
363(19) . . .
363(19) . . .
369(19) . . .
367(19) . . .
371(19) . . .
367(19) . . .
369(19) . . .
386(20) . . .
393(20) . . .
388(20) . . .
370(19) . . .
380(19) . . .
426(21) . . .
391(20) . . .
383(20) . . .
373(19) . . .
382(20) . . .
397(20) . . .
398(20) . . .
388(20) . . .
392(20) . . .
411(20) . . .
389(20) . . .
393(20) . . .
392(20) . . .
399(20) . . .
376(19) . . .
393(20) . . .
415(20) . . .
404(20) . . .
407(20) . . .
360(19) . . .
369(19) . . .
423(21) . . .
385(20) . . .
389(20) . . .
391(20) . . .
383(20) . . .
401(20) . . .
391(20) . . .
392(20) . . .
381(20) . . .
394(20) . . .
425(21) . . .
407(20) . . .
416(20) . . .
432(21) . . .
434(21) . . .
463(22) . . .
400(20) . . .
451(21) . . .
421(21) . . .
406(20) . . .
432(21) . . .
438(21) . . .
361(19) . . .
424(21) . . .
435(21) . . .
430(21) . . .
447(21) . . .
422(21) . . .
405(20) . . .
436(21) . . .
445(21) . . .
425(21) . . .
430(21) . . .
415(20) . . .
389(20) . . .
418(20) . . .
420(20) . . .
432(21) . . .
430(21) . . .
408(20) . . .
437(21) . . .
463(22) . . .
408(20) . . .
426(21) . . .
433(21) . . .
406(20) . . .
421(21) . . .
424(21) . . .
413(20) . . .
413(20) . . .
441(21) . . .
431(21) . . .
417(20) . . .
440(21) . . .
424(21) . . .
440(21) . . .
431(21) . . .
439(21) . . .
461(21) . . .
453(21) . . .
477(22) . . .
477(22) . . .
450(21) . . .
464(22) . . .
483(22) . . .
452(21) . . .
476(22) . . .
458(21) . . .
487(22) . . .
492(22) . . .
489(22) . . .
489(22) . . .
458(21) . . .
457(21) . . .
479(22) . . .
496(22) . . .
496(22) . . .
501(22) . . .
510(23) . . .
466(22) . . .
540(23) . . .
532(23) . . .
553(24) . . .
556(24) . . .
527(23) . . .
557(24) . . .
542(23) . . .
540(23) . . .
542(23) . . .
569(24) . . .
626(25) . . .
638(25) . . .
639(25) . . .
635(25) . . .
661(26) . . .
729(27) . . .
716(27) . . .
702(26) . . .
730(27) . . .
747(27) . . .
768(28) . . .
847(29) . . .
856(29) . . .
882(30) . . .
955(31) . . .
990(31) . . .
1046(32) . . .
1169(34) . . .
1208(35) . . .
1257(35) . . .
1354(37) . . .
1473(38) . . .
1555(39) . . .
1791(42) . . .
1882(43) . . .
1970(44) . . .
2208(47) . . .
2558(51) . . .
2813(53) . . .
3253(57) . . .
3611(60) . . .
4147(64) . . .
4931(70) . . .
5883(77) . . .
6789(82) . . .
8512(92) . . .
10530(100) . . .
12610(110) . . .
15400(120) . . .
18860(140) . . .
22050(150) . . .
25230(160) . . .
27740(170) . . .
28800(170) . . .
28200(170) . . .
26230(160) . . .
23210(150) . . .
19630(140) . . .
16590(130) . . .
13330(120) . . .
10880(100) . . .
8872(94) . . .
7316(86) . . .
6068(78) . . .
5155(72) . . .
4283(65) . . .
3696(61) . . .
3231(57) . . .
2896(54) . . .
2495(50) . . .
2140(46) . . .
1986(45) . . .
1775(42) . . .
1652(41) . . .
1506(39) . . .
1448(38) . . .
1352(37) . . .
1220(35) . . .
1082(33) . . .
1057(33) . . .
982(31) . . .
950(31) . . .
938(31) . . .
818(29) . . .
824(29) . . .
804(28) . . .
742(27) . . .
722(27) . . .
762(28) . . .
694(26) . . .
693(26) . . .
685(26) . . .
688(26) . . .
649(25) . . .
627(25) . . .
609(25) . . .
578(24) . . .
581(24) . . .
588(24) . . .
619(25) . . .
610(25) . . .
589(24) . . .
596(24) . . .
561(24) . . .
560(24) . . .
515(23) . . .
538(23) . . .
525(23) . . .
539(23) . . .
528(23) . . .
504(22) . . .
505(22) . . .
470(22) . . .
547(23) . . .
458(21) . . .
492(22) . . .
507(23) . . .
459(21) . . .
485(22) . . .
469(22) . . .
459(21) . . .
460(21) . . .
466(22) . . .
462(21) . . .
473(22) . . .
482(22) . . .
478(22) . . .
505(22) . . .
476(22) . . .
482(22) . . .
456(21) . . .
441(21) . . .
456(21) . . .
456(21) . . .
462(21) . . .
494(22) . . .
462(21) . . .
464(22) . . .
500(22) . . .
444(21) . . .
436(21) . . .
464(22) . . .
481(22) . . .
487(22) . . .
456(21) . . .
471(22) . . .
437(21) . . .
418(20) . . .
445(21) . . .
448(21) . . .
474(22) . . .
421(21) . . .
430(21) . . .
429(21) . . .
445(21) . . .
453(21) . . .
432(21) . . .
408(20) . . .
426(21) . . .
448(21) . . .
410(20) . . .
460(21) . . .
466(22) . . .
454(21) . . .
378(19) . . .
444(21) . . .
419(20) . . .
458(21) . . .
453(21) . . .
429(21) . . .
444(21) . . .
424(21) . . .
418(20) . . .
387(20) . . .
427(21) . . .
450(21) . . .
446(21) . . .
422(21) . . .
432(21) . . .
437(21) . . .
445(21) . . .
451(21) . . .
441(21) . . .
429(21) . . .
453(21) . . .
432(21) . . .
454(21) . . .
449(21) . . .
427(21) . . .
486(22) . . .
440(21) . . .
469(22) . . .
435(21) . . .
446(21) . . .
424(21) . . .
418(20) . . .
453(21) . . .
426(21) . . .
469(22) . . .
420(20) . . .
457(21) . . .
438(21) . . .
420(20) . . .
441(21) . . .
471(22) . . .
457(21) . . .
479(22) . . .
479(22) . . .
488(22) . . .
478(22) . . .
471(22) . . .
454(21) . . .
489(22) . . .
456(21) . . .
471(22) . . .
445(21) . . .
478(22) . . .
462(21) . . .
475(22) . . .
494(22) . . .
446(21) . . .
439(21) . . .
449(21) . . .
463(22) . . .
439(21) . . .
460(21) . . .
459(21) . . .
449(21) . . .
482(22) . . .
479(22) . . .
453(21) . . .
480(22) . . .
470(22) . . .
460(21) . . .
453(21) . . .
418(20) . . .
449(21) . . .
421(21) . . .
420(20) . . .
449(21) . . .
445(21) . . .
458(21) . . .
460(21) . . .
430(21) . . .
446(21) . . .
459(21) . . .
450(21) . . .
455(21) . . .
437(21) . . .
420(20) . . .
455(21) . . .
446(21) . . .
399(20) . . .
414(20) . . .
433(21) . . .
436(21) . . .
449(21) . . .
417(20) . . .
404(20) . . .
415(20) . . .
423(21) . . .
405(20) . . .
412(20) . . .
439(21) . . .
419(20) . . .
440(21) . . .
420(20) . . .
412(20) . . .
413(20) . . .
442(21) . . .
452(21) . . .
424(21) . . .
465(22) . . .
453(21) . . .
444(21) . . .
427(21) . . .
406(20) . . .
439(21) . . .
396(20) . . .
443(21) . . .
422(21) . . .
405(20) . . .
429(21) . . .
423(21) . . .
417(20) . . .
440(21) . . .
427(21) . . .
417(20) . . .
444(21) . . .
414(20) . . .
439(21) . . .
422(21) . . .
456(21) . . .
409(20) . . .
439(21) . . .
468(22) . . .
436(21) . . .
460(21) . . .
477(22) . . .
419(20) . . .
447(21) . . .
473(22) . . .
474(22) . . .
466(22) . . .
494(22) . . .
455(21) . . .
427(21) . . .
464(22) . . .
482(22) . . .
450(21) . . .
477(22) . . .
487(22) . . .
457(21) . . .
464(22) . . .
462(21) . . .
458(21) . . .
447(21) . . .
496(22) . . .
479(22) . . .
482(22) . . .
464(22) . . .
491(22) . . .
459(21) . . .
520(23) . . .
452(21) . . .
464(22) . . .
459(21) . . .
472(22) . . .
487(22) . . .
460(21) . . .
472(22) . . .
465(22) . . .
486(22) . . .
451(21) . . .
467(22) . . .
492(22) . . .
494(22) . . .
514(23) . . .
486(22) . . .
483(22) . . .
476(22) . . .
465(22) . . .
462(21) . . .
466(22) . . .
488(22) . . .
527(23) . . .
485(22) . . .
494(22) . . .
501(22) . . .
530(23) . . .
491(22) . . .
533(23) . . .
513(23) . . .
509(23) . . .
502(22) . . .
550(23) . . .
515(23) . . .
494(22) . . .
543(23) . . .
531(23) . . .
569(24) . . .
546(23) . . .
540(23) . . .
547(23) . . .
501(22) . . .
556(24) . . .
520(23) . . .
534(23) . . .
539(23) . . .
543(23) . . .
582(24) . . .
599(24) . . .
589(24) . . .
607(25) . . .
642(25) . . .
633(25) . . .
644(25) . . .
604(25) . . .
617(25) . . .
621(25) . . .
697(26) . . .
693(26) . . .
659(26) . . .
697(26) . . .
707(27) . . .
684(26) . . .
715(27) . . .
725(27) . . .
784(28) . . .
813(29) . . .
838(29) . . .
863(29) . . .
853(29) . . .
940(31) . . .
1000(32) . . .
1020(32) . . .
1134(34) . . .
1145(34) . . .
1188(34) . . .
1272(36) . . .
1423(38) . . .
1462(38) . . .
1601(40) . . .
1744(42) . . .
1842(43) . . .
2092(46) . . .
2214(47) . . .
2502(50) . . .
2885(54) . . .
3116(56) . . .
3561(60) . . .
4060(64) . . .
4612(68) . . .
5478(74) . . .
6335(80) . . .
7618(87) . . .
9224(96) . . .
11010(110) . . .
13810(120) . . .
17280(130) . . .
21060(150) . . .
25170(160) . . .
29140(170) . . .
33160(180) . . .
35140(190) . . .
35900(190) . . .
34550(190) . . .
31920(180) . . .
28150(170) . . .
23350(150) . . .
19080(140) . . .
15530(130) . . .
12610(110) . . .
10080(100) . . .
8463(92) . . .
6950(83) . . .
5856(77) . . .
4954(70) . . .
4303(66) . . .
3798(62) . . .
3248(57) . . .
2881(54) . . .
2481(50) . . .
2219(47) . . .
1920(44) . . .
1880(43) . . .
1754(42) . . .
1602(40) . . .
1480(38) . . .
1311(36) . . .
1253(35) . . .
1214(35) . . .
1057(33) . . .
1062(33) . . .
1001(32) . . .
936(31) . . .
880(30) . . .
881(30) . . .
833(29) . . .
790(28) . . .
778(28) . . .
737(27) . . .
751(27) . . .
720(27) . . .
652(26) . . .
730(27) . . .
683(26) . . .
621(25) . . .
677(26) . . .
632(25) . . .
617(25) . . .
578(24) . . .
590(24) . . .
637(25) . . .
641(25) . . .
530(23) . . .
535(23) . . .
573(24) . . .
573(24) . . .
579(24) . . .
536(23) . . .
539(23) . . .
596(24) . . .
565(24) . . .
521(23) . . .
489(22) . . .
537(23) . . .
496(22) . . .
522(23) . . .
477(22) . . .
537(23) . . .
465(22) . . .
542(23) . . .
508(23) . . .
496(22) . . .
483(22) . . .
481(22) . . .
479(22) . . .
500(22) . . .
477(22) . . .
448(21) . . .
478(22) . . .
480(22) . . .
472(22) . . .
469(22) . . .
513(23) . . .
469(22) . . .
468(22) . . .
446(21) . . .
450(21) . . .
463(22) . . .
459(21) . . .
434(21) . . .
437(21) . . .
413(20) . . .
434(21) . . .
414(20) . . .
456(21) . . .
427(21) . . .
441(21) . . .
448(21) . . .
414(20) . . .
436(21) . . .
441(21) . . .
462(21) . . .
409(20) . . .
417(20) . . .
452(21) . . .
436(21) . . .
406(20) . . .
404(20) . . .
391(20) . . .
418(20) . . .
435(21) . . .
449(21) . . .
402(20) . . .
451(21) . . .
402(20) . . .
404(20) . . .
393(20) . . .
450(21) . . .
422(21) . . .
408(20) . . .
402(20) . . .
439(21) . . .
411(20) . . .
431(21) . . .
383(20) . . .
449(21) . . .
400(20) . . .
401(20) . . .
417(20) . . .
429(21) . . .
414(20) . . .
446(21) . . .
386(20) . . .
405(20) . . .
401(20) . . .
386(20) . . .
398(20) . . .
398(20) . . .
400(20) . . .
380(19) . . .
403(20) . . .
386(20) . . .
409(20) . . .
426(21) . . .
371(19) . . .
387(20) . . .
403(20) . . .
410(20) . . .
395(20) . . .
396(20) . . .
408(20) . . .
380(19) . . .
396(20) . . .
433(21) . . .
405(20) . . .
389(20) . . .
386(20) . . .
383(20) . . .
375(19) . . .
399(20) . . .
400(20) . . .
377(19) . . .
390(20) . . .
399(20) . . .
376(19) . . .
383(20) . . .
431(21) . . .
379(19) . . .
382(20) . . .
365(19) . . .
406(20) . . .
397(20) . . .
412(20) . . .
385(20) . . .
372(19) . . .
347(19) . . .
385(20) . . .
394(20) . . .
376(19) . . .
394(20) . . .
358(19) . . .
362(19) . . .
367(19) . . .
375(19) . . .
376(19) . . .
412(20) . . .
351(19) . . .
377(19) . . .
374(19) . . .
396(20) . . .
382(20) . . .
383(20) . . .
372(19) . . .
386(20) . . .
393(20) . . .
380(19) . . .
360(19) . . .
374(19) . . .
349(19) . . .
402(20) . . .
347(19) . . .
384(20) . . .
355(19) . . .
354(19) . . .
396(20) . . .
379(19) . . .
368(19) . . .
361(19) . . .
349(19) . . .
370(19) . . .
371(19) . . .
407(20) . . .
335(18) . . .
365(19) . . .
356(19) . . .
381(20) . . .
344(19) . . .
383(20) . . .
396(20) . . .
377(19) . . .
375(19) . . .
333(18) . . .
333(18) . . .
403(20) . . .
343(19) . . .
352(19) . . .
407(20) . . .
368(19) . . .
367(19) . . .
349(19) . . .
369(19) . . .
379(19) . . .
354(19) . . .
401(20) . . .
351(19) . . .
350(19) . . .
357(19) . . .
374(19) . . .
375(19) . . .
358(19) . . .
337(18) . . .
348(19) . . .
348(19) . . .
375(19) . . .
315(18) . . .
353(19) . . .
356(19) . . .
356(19) . . .
337(18) . . .
373(19) . . .
358(19) . . .
367(19) . . .
359(19) . . .
321(18) . . .
346(19) . . .
375(19) . . .
371(19) . . .
366(19) . . .
354(19) . . .
358(19) . . .
348(19) . . .
351(19) . . .
365(19) . . .
367(19) . . .
358(19) . . .
338(18) . . .
356(19) . . .
368(19) . . .
328(18) . . .
357(19) . . .
326(18) . . .
337(18) . . .
341(18) . . .
333(18) . . .
372(19) . . .
378(19) . . .
354(19) . . .
322(18) . . .
370(19) . . .
336(18) . . .
339(18) . . .
371(19) . . .
352(19) . . .
338(18) . . .
346(19) . . .
329(18) . . .
332(18) . . .
367(19) . . .
356(19) . . .
341(18) . . .
358(19) . . .
354(19) . . .
340(18) . . .
364(19) . . .
345(19) . . .
302(17) . . .
334(18) . . .
341(18) . . .
350(19) . . .
336(18) . . .
327(18) . . .
344(19) . . .
313(18) . . .
346(19) . . .
348(19) . . .
334(18) . . .
370(19) . . .
363(19) . . .
352(19) . . .
330(18) . . .
317(18) . . .
339(18) . . .
363(19) . . .
332(18) . . .
352(19) . . .
334(18) . . .
367(19) . . .
339(18) . . .
313(18) . . .
311(18) . . .
334(18) . . .
388(20) . . .
353(19) . . .
321(18) . . .
367(19) . . .
326(18) . . .
332(18) . . .
360(19) . . .
346(19) . . .
359(19) . . .
337(18) . . .
342(18) . . .
349(19) . . .
339(18) . . .
379(19) . . .
345(19) . . .
362(19) . . .
354(19) . . .
360(19) . . .
340(18) . . .
351(19) . . .
356(19) . . .
345(19) . . .
343(19) . . .
337(18) . . .
345(19) . . .
345(19) . . .
342(18) . . .
348(19) . . .
348(19) . . .
327(18) . . .
358(19) . . .
319(18) . . .
326(18) . . .
352(19) . . .
376(19) . . .
334(18) . . .
302(17) . . .
347(19) . . .
314(18) . . .
336(18) . . .
344(19) . . .
336(18) . . .
348(19) . . .
352(19) . . .
342(18) . . .
341(18) . . .
336(18) . . .
305(17) . . .
305(17) . . .
317(18) . . .
340(18) . . .
330(18) . . .
318(18) . . .
343(19) . . .
336(18) . . .
329(18) . . .
317(18) . . .
339(18) . . .
327(18) . . .
345(19) . . .
336(18) . . .
332(18) . . .
324(18) . . .
317(18) . . .
296(17) . . .
334(18) . . .
333(18) . . .
334(18) . . .
356(19) . . .
332(18) . . .
319(18) . . .
315(18) . . .
351(19) . . .
312(18) . . .
283(17) . . .
304(17) . . .
299(17) . . .
339(18) . . .
330(18) . . .
332(18) . . .
340(18) . . .
329(18) . . .
328(18) . . .
304(17) . . .
332(18) . . .
341(18) . . .
306(17) . . .
331(18) . . .
334(18) . . .
322(18) . . .
312(18) . . .
348(19) . . .
338(18) . . .
293(17) . . .
343(19) . . .
311(18) . . .
312(18) . . .
345(19) . . .
324(18) . . .
304(17) . . .
309(18) . . .
305(17) . . .
306(17) . . .
315(18) . . .
329(18) . . .
316(18) . . .
314(18) . . .
340(18) . . .
316(18) . . .
333(18) . . .
332(18) . . .
321(18) . . .
313(18) . . .
319(18) . . .
326(18) . . .
319(18) . . .
334(18) . . .
344(19) . . .
338(18) . . .
337(18) . . .
337(18) . . .
332(18) . . .
316(18) . . .
312(18) . . .
333(18) . . .
338(18) . . .
327(18) . . .
336(18) . . .
332(18) . . .
322(18) . . .
309(18) . . .
322(18) . . .
333(18) . . .
309(18) . . .
318(18) . . .
342(18) . . .
346(19) . . .
344(19) . . .
340(18) . . .
321(18) . . .
304(17) . . .
351(19) . . .
327(18) . . .
309(18) . . .
316(18) . . .
287(17) . . .
305(17) . . .
331(18) . . .
327(18) . . .
339(18) . . .
320(18) . . .
311(18) . . .
330(18) . . .
366(19) . . .
312(18) . . .
338(18) . . .
321(18) . . .
360(19) . . .
336(18) . . .
313(18) . . .
331(18) . . .
329(18) . . .
322(18) . . .
305(17) . . .
349(19) . . .
333(18) . . .
338(18) . . .
317(18) . . .
318(18) . . .
311(18) . . .
322(18) . . .
329(18) . . .
331(18) . . .
298(17) . . .
319(18) . . .
278(17) . . .
288(17) . . .
315(18) . . .
330(18) . . .
311(18) . . .
364(19) . . .
306(17) . . .
292(17) . . .
318(18) . . .
351(19) . . .
311(18) . . .
296(17) . . .
319(18) . . .
289(17) . . .
305(17) . . .
319(18) . . .
316(18) . . .
325(18) . . .
308(18) . . .
311(18) . . .
305(17) . . .
305(17) . . .
320(18) . . .
319(18) . . .
312(18) . . .
327(18) . . .
294(17) . . .
331(18) . . .
306(17) . . .
314(18) . . .
298(17) . . .
322(18) . . .
313(18) . . .
291(17) . . .
309(18) . . .
320(18) . . .
322(18) . . .
299(17) . . .
322(18) . . .
307(18) . . .
335(18) . . .
297(17) . . .
311(18) . . .
343(19) . . .
304(17) . . .
259(16) . . .
309(18) . . .
328(18) . . .
320(18) . . .
294(17) . . .
301(17) . . .
310(18) . . .
300(17) . . .
292(17) . . .
275(17) . . .
318(18) . . .
296(17) . . .
322(18) . . .
299(17) . . .
315(18) . . .
306(17) . . .
317(18) . . .
303(17) . . .
319(18) . . .
274(17) . . .
319(18) . . .
314(18) . . .
302(17) . . .
288(17) . . .
314(18) . . .
284(17) . . .
321(18) . . .
333(18) . . .
287(17) . . .
291(17) . . .
305(17) . . .
327(18) . . .
328(18) . . .
305(17) . . .
332(18) . . .
296(17) . . .
334(18) . . .
331(18) . . .
318(18) . . .
286(17) . . .
313(18) . . .
343(19) . . .
320(18) . . .
323(18) . . .
302(17) . . .
312(18) . . .
359(19) . . .
310(18) . . .
314(18) . . .
319(18) . . .
326(18) . . .
314(18) . . .
339(18) . . .
339(18) . . .
333(18) . . .
331(18) . . .
329(18) . . .
276(17) . . .
287(17) . . .
331(18) . . .
338(18) . . .
323(18) . . .
298(17) . . .
315(18) . . .
311(18) . . .
335(18) . . .
311(18) . . .
305(17) . . .
325(18) . . .
333(18) . . .
312(18) . . .
331(18) . . .
332(18) . . .
284(17) . . .
334(18) . . .
316(18) . . .
313(18) . . .
350(19) . . .
304(17) . . .
331(18) . . .
330(18) . . .
299(17) . . .
272(16) . . .
309(18) . . .
325(18) . . .
322(18) . . .
305(17) . . .
282(17) . . .
274(17) . . .
336(18) . . .
311(18) . . .
320(18) . . .
296(17) . . .
307(18) . . .
317(18) . . .
293(17) . . .
284(17) . . .
306(17) . . .
308(18) . . .
313(18) . . .
292(17) . . .
319(18) . . .
334(18) . . .
316(18) . . .
305(17) . . .
301(17) . . .
309(18) . . .
318(18) . . .
313(18) . . .
293(17) . . .
315(18) . . .
297(17) . . .
321(18) . . .
292(17) . . .
317(18) . . .
314(18) . . .
322(18) . . .
337(18) . . .
298(17) . . .
333(18) . . .
298(17) . . .
295(17) . . .
319(18) . . .
302(17) . . .
332(18) . . .
289(17) . . .
330(18) . . .
325(18) . . .
321(18) . . .
293(17) . . .
315(18) . . .
326(18) . . .
336(18) . . .
306(17) . . .
299(17) . . .
309(18) . . .
310(18) . . .
348(19) . . .
316(18) . . .
321(18) . . .
298(17) . . .
308(18) . . .
326(18) . . .
344(19) . . .
302(17) . . .
285(17) . . .
311(18) . . .
314(18) . . .
295(17) . . .
307(18) . . .
309(18) . . .
330(18) . . .
330(18) . . .
343(19) . . .
306(17) . . .
327(18) . . .
318(18) . . .
301(17) . . .
300(17) . . .
322(18) . . .
312(18) . . .
323(18) . . .
292(17) . . .
316(18) . . .
305(17) . . .
300(17) . . .
306(17) . . .
279(17) . . .
294(17) . . .
277(17) . . .
319(18) . . .
315(18) . . .
297(17) . . .
295(17) . . .
340(18) . . .
295(17) . . .
310(18) . . .
323(18) . . .
295(17) . . .
339(18) . . .
298(17) . . .
264(16) . . .
308(18) . . .
310(18) . . .
307(18) . . .
316(18) . . .
308(18) . . .
309(18) . . .
286(17) . . .
303(17) . . .
301(17) . . .
317(18) . . .
311(18) . . .
304(17) . . .
294(17) . . .
296(17) . . .
285(17) . . .
297(17) . . .
321(18) . . .
283(17) . . .
313(18) . . .
313(18) . . .
301(17) . . .
280(17) . . .
302(17) . . .
295(17) . . .
290(17) . . .
288(17) . . .
288(17) . . .
277(17) . . .
301(17) . . .
278(17) . . .
284(17) . . .
307(18) . . .
314(18) . . .
295(17) . . .
292(17) . . .
290(17) . . .
285(17) . . .
304(17) . . .
288(17) . . .
285(17) . . .
291(17) . . .
273(17) . . .
316(18) . . .
272(16) . . .
272(16) . . .
281(17) . . .
296(17) . . .
305(17) . . .
275(17) . . .
294(17) . . .
277(17) . . .
325(18) . . .
281(17) . . .
285(17) . . .
281(17) . . .
292(17) . . .
284(17) . . .
298(17) . . .
291(17) . . .
309(18) . . .
293(17) . . .
300(17) . . .
309(18) . . .
276(17) . . .
314(18) . . .
315(18) . . .
286(17) . . .
314(18) . . .
293(17) . . .
284(17) . . .
287(17) . . .
285(17) . . .
311(18) . . .
293(17) . . .
295(17) . . .
299(17) . . .
283(17) . . .
309(18) . . .
305(17) . . .
271(16) . . .
287(17) . . .
304(17) . . .
293(17) . . .
274(17) . . .
299(17) . . .
281(17) . . .
306(17) . . .
294(17) . . .
308(18) . . .
333(18) . . .
287(17) . . .
287(17) . . .
308(18) . . .
310(18) . . .
309(18) . . .
272(16) . . .
317(18) . . .
317(18) . . .
309(18) . . .
303(17) . . .
288(17) . . .
334(18) . . .
282(17) . . .
310(18) . . .
306(17) . . .
275(17) . . .
302(17) . . .
300(17) . . .
293(17) . . .
286(17) . . .
292(17) . . .
287(17) . . .
294(17) . . .
294(17) . . .
304(17) . . .
276(17) . . .
290(17) . . .
294(17) . . .
310(18) . . .
287(17) . . .
293(17) . . .
288(17) . . .
305(17) . . .
288(17) . . .
274(17) . . .
296(17) . . .
292(17) . . .
294(17) . . .
313(18) . . .
273(17) . . .
288(17) . . .
297(17) . . .
289(17) . . .
282(17) . . .
311(18) . . .
288(17) . . .
299(17) . . .
301(17) . . .
277(17) . . .
315(18) . . .
301(17) . . .
282(17) . . .
319(18) . . .
296(17) . . .
275(17) . . .
289(17) . . .
277(17) . . .
288(17) . . .
288(17) . . .
278(17) . . .
289(17) . . .
312(18) . . .
319(18) . . .
284(17) . . .
307(18) . . .
310(18) . . .
309(18) . . .
266(16) . . .
286(17) . . .
288(17) . . .
266(16) . . .
281(17) . . .
263(16) . . .
295(17) . . .
271(16) . . .
304(17) . . .
278(17) . . .
270(16) . . .
270(16) . . .
293(17) . . .
285(17) . . .
299(17) . . .
267(16) . . .
283(17) . . .
281(17) . . .
286(17) . . .
306(17) . . .
294(17) . . .
271(16) . . .
287(17) . . .
281(17) . . .
288(17) . . .
298(17) . . .
295(17) . . .
280(17) . . .
312(18) . . .
299(17) . . .
265(16) . . .
288(17) . . .
291(17) . . .
299(17) . . .
278(17) . . .
299(17) . . .
275(17) . . .
305(17) . . .
291(17) . . .
298(17) . . .
287(17) . . .
296(17) . . .
323(18) . . .
267(16) . . .
260(16) . . .
266(16) . . .
287(17) . . .
300(17) . . .
310(18) . . .
295(17) . . .
275(17) . . .
292(17) . . .
302(17) . . .
285(17) . . .
315(18) . . .
274(17) . . .
302(17) . . .
282(17) . . .
289(17) . . .
295(17) . . .
296(17) . . .
275(17) . . .
276(17) . . .
307(18) . . .
306(17) . . .
298(17) . . .
306(17) . . .
320(18) . . .
292(17) . . .
259(16) . . .
261(16) . . .
273(17) . . .
272(16) . . .
303(17) . . .
295(17) . . .
295(17) . . .
304(17) . . .
288(17) . . .
262(16) . . .
275(17) . . .
296(17) . . .
269(16) . . .
302(17) . . .
251(16) . . .
276(17) . . .
286(17) . . .
307(18) . . .
281(17) . . .
284(17) . . .
289(17) . . .
289(17) . . .
304(17) . . .
277(17) . . .
281(17) . . .
273(17) . . .
307(18) . . .
294(17) . . .
284(17) . . .
291(17) . . .
294(17) . . .
296(17) . . .
300(17) . . .
286(17) . . .
323(18) . . .
318(18) . . .
318(18) . . .
288(17) . . .
324(18) . . .
294(17) . . .
283(17) . . .
308(18) . . .
302(17) . . .
284(17) . . .
308(18) . . .
326(18) . . .
290(17) . . .
276(17) . . .
302(17) . . .
319(18) . . .
284(17) . . .
334(18) . . .
317(18) . . .
293(17) . . .
317(18) . . .
296(17) . . .
307(18) . . .
306(17) . . .
327(18) . . .
326(18) . . .
351(19) . . .
325(18) . . .
318(18) . . .
317(18) . . .
317(18) . . .
357(19) . . .
349(19) . . .
332(18) . . .
339(18) . . .
331(18) . . .
368(19) . . .
348(19) . . .
341(18) . . .
356(19) . . .
338(18) . . .
328(18) . . .
339(18) . . .
363(19) . . .
305(17) . . .
307(18) . . .
309(18) . . .
330(18) . . .
326(18) . . .
326(18) . . .
321(18) . . .
323(18) . . .
307(18) . . .
313(18) . . .
291(17) . . .
311(18) . . .
315(18) . . .
291(17) . . .
315(18) . . .
293(17) . . .
306(17) . . .
272(16) . . .
326(18) . . .
296(17) . . .
293(17) . . .
307(18) . . .
314(18) . . .
312(18) . . .
269(16) . . .
294(17) . . .
290(17) . . .
323(18) . . .
290(17) . . .
286(17) . . .
285(17) . . .
297(17) . . .
310(18) . . .
284(17) . . .
277(17) . . .
309(18) . . .
307(18) . . .
296(17) . . .
316(18) . . .
285(17) . . .
316(18) . . .
314(18) . . .
290(17) . . .
331(18) . . .
283(17) . . .
296(17) . . .
283(17) . . .
264(16) . . .
284(17) . . .
294(17) . . .
304(17) . . .
300(17) . . .
300(17) . . .
286(17) . . .
297(17) . . .
294(17) . . .
308(18) . . .
302(17) . . .
294(17) . . .
307(18) . . .
302(17) . . .
292(17) . . .
310(18) . . .
292(17) . . .
297(17) . . .
295(17) . . .
299(17) . . .
306(17) . . .
328(18) . . .
309(18) . . .
331(18) . . .
284(17) . . .
310(18) . . .
301(17) . . .
298(17) . . .
319(18) . . .
299(17) . . .
325(18) . . .
301(17) . . .
303(17) . . .
318(18) . . .
306(17) . . .
325(18) . . .
293(17) . . .
318(18) . . .
310(18) . . .
336(18) . . .
349(19) . . .
333(18) . . .
329(18) . . .
336(18) . . .
344(19) . . .
330(18) . . .
347(19) . . .
343(19) . . .
331(18) . . .
353(19) . . .
326(18) . . .
329(18) . . .
337(18) . . .
313(18) . . .
325(18) . . .
376(19) . . .
339(18) . . .
321(18) . . .
346(19) . . .
327(18) . . .
344(19) . . .
330(18) . . .
316(18) . . .
349(19) . . .
333(18) . . .
329(18) . . .
313(18) . . .
324(18) . . .
334(18) . . .
333(18) . . .
313(18) . . .
344(19) . . .
302(17) . . .
315(18) . . .
314(18) . . .
327(18) . . .
305(17) . . .
318(18) . . .
330(18) . . .
318(18) . . .
320(18) . . .
290(17) . . .
320(18) . . .
300(17) . . .
303(17) . . .
333(18) . . .
337(18) . . .
324(18) . . .
316(18) . . .
308(18) . . .
308(18) . . .
304(17) . . .
312(18) . . .
290(17) . . .
322(18) . . .
337(18) . . .
311(18) . . .
324(18) . . .
292(17) . . .
287(17) . . .
311(18) . . .
301(17) . . .
292(17) . . .
314(18) . . .
324(18) . . .
315(18) . . .
300(17) . . .
298(17) . . .
292(17) . . .
294(17) . . .
293(17) . . .
308(18) . . .
320(18) . . .
320(18) . . .
338(18) . . .
298(17) . . .
312(18) . . .
321(18) . . .
274(17) . . .
303(17) . . .
302(17) . . .
303(17) . . .
325(18) . . .
325(18) . . .
300(17) . . .
277(17) . . .
294(17) . . .
311(18) . . .
314(18) . . .
300(17) . . .
310(18) . . .
339(18) . . .
337(18) . . .
286(17) . . .
311(18) . . .
331(18) . . .
296(17) . . .
316(18) . . .
316(18) . . .
334(18) . . .
317(18) . . .
319(18) . . .
270(16) . . .
307(18) . . .
311(18) . . .
299(17) . . .
320(18) . . .
328(18) . . .
273(17) . . .
293(17) . . .
341(18) . . .
311(18) . . .
303(17) . . .
301(17) . . .
293(17) . . .
291(17) . . .
309(18) . . .
316(18) . . .
290(17) . . .
295(17) . . .
284(17) . . .
327(18) . . .
312(18) . . .
305(17) . . .
284(17) . . .
297(17) . . .
297(17) . . .
285(17) . . .
306(17) . . .
314(18) . . .
293(17) . . .
333(18) . . .
318(18) . . .
310(18) . . .
318(18) . . .
298(17) . . .
300(17) . . .
308(18) . . .
300(17) . . .
295(17) . . .
296(17) . . .
314(18) . . .
313(18) . . .
322(18) . . .
302(17) . . .
335(18) . . .
290(17) . . .
290(17) . . .
311(18) . . .
292(17) . . .
311(18) . . .
312(18) . . .
310(18) . . .
303(17) . . .
306(17) . . .
307(18) . . .
319(18) . . .
317(18) . . .
355(19) . . .
305(17) . . .
293(17) . . .
306(17) . . .
311(18) . . .
330(18) . . .
323(18) . . .
313(18) . . .
305(17) . . .
313(18) . . .
331(18) . . .
338(18) . . .
314(18) . . .
310(18) . . .
339(18) . . .
324(18) . . .
325(18) . . .
321(18) . . .
309(18) . . .
317(18) . . .
308(18) . . .
309(18) . . .
336(18) . . .
333(18) . . .
285(17) . . .
297(17) . . .
329(18) . . .
356(19) . . .
321(18) . . .
381(20) . . .
304(17) . . .
292(17) . . .
329(18) . . .
324(18) . . .
325(18) . . .
308(18) . . .
321(18) . . .
326(18) . . .
318(18) . . .
332(18) . . .
312(18) . . .
297(17) . . .
340(18) . . .
332(18) . . .
324(18) . . .
317(18) . . .
341(18) . . .
357(19) . . .
328(18) . . .
310(18) . . .
337(18) . . .
355(19) . . .
339(18) . . .
312(18) . . .
362(19) . . .
369(19) . . .
343(19) . . .
375(19) . . .
362(19) . . .
328(18) . . .
325(18) . . .
340(18) . . .
334(18) . . .
355(19) . . .
370(19) . . .
351(19) . . .
329(18) . . .
318(18) . . .
354(19) . . .
370(19) . . .
366(19) . . .
352(19) . . .
362(19) . . .
356(19) . . .
358(19) . . .
386(20) . . .
369(19) . . .
350(19) . . .
385(20) . . .
373(19) . . .
349(19) . . .
367(19) . . .
374(19) . . .
364(19) . . .
409(20) . . .
401(20) . . .
371(19) . . .
406(20) . . .
386(20) . . .
384(20) . . .
432(21) . . .
420(20) . . .
451(21) . . .
424(21) . . .
420(20) . . .
374(19) . . .
433(21) . . .
442(21) . . .
410(20) . . .
462(21) . . .
465(22) . . .
471(22) . . .
463(22) . . .
441(21) . . .
482(22) . . .
461(21) . . .
495(22) . . .
464(22) . . .
516(23) . . .
507(23) . . .
514(23) . . .
556(24) . . .
535(23) . . .
535(23) . . .
531(23) . . .
597(24) . . .
573(24) . . .
592(24) . . .
670(26) . . .
613(25) . . .
655(26) . . .
697(26) . . .
678(26) . . .
717(27) . . .
764(28) . . .
816(29) . . .
898(30) . . .
881(30) . . .
980(31) . . .
1035(32) . . .
1096(33) . . .
1225(35) . . .
1301(36) . . .
1330(36) . . .
1471(38) . . .
1630(40) . . .
1796(42) . . .
1939(44) . . .
2195(47) . . .
2433(49) . . .
2805(53) . . .
3169(56) . . .
3602(60) . . .
4110(64) . . .
4779(69) . . .
5667(75) . . .
6553(81) . . .
7788(88) . . .
9226(96) . . .
10970(110) . . .
12720(110) . . .
14560(120) . . .
16180(130) . . .
17490(130) . . .
17940(130) . . .
18030(130) . . .
16960(130) . . .
15620(130) . . .
14100(120) . . .
12390(110) . . .
10660(100) . . .
8786(94) . . .
7292(85) . . .
6300(79) . . .
5263(73) . . .
4572(68) . . .
3803(62) . . .
3372(58) . . .
2878(54) . . .
2521(50) . . .
2250(47) . . .
2018(45) . . .
1794(42) . . .
1639(40) . . .
1529(39) . . .
1379(37) . . .
1281(36) . . .
1232(35) . . .
1062(33) . . .
1044(32) . . .
927(30) . . .
850(29) . . .
834(29) . . .
823(29) . . .
723(27) . . .
758(28) . . .
734(27) . . .
657(26) . . .
642(25) . . .
647(25) . . .
596(24) . . .
595(24) . . .
573(24) . . .
535(23) . . .
506(22) . . .
536(23) . . .
538(23) . . .
541(23) . . .
497(22) . . .
506(22) . . .
505(22) . . .
456(21) . . .
452(21) . . .
479(22) . . .
451(21) . . .
420(20) . . .
450(21) . . .
445(21) . . .
427(21) . . .
387(20) . . .
450(21) . . .
405(20) . . .
425(21) . . .
450(21) . . .
420(20) . . .
404(20) . . .
404(20) . . .
386(20) . . .
359(19) . . .
400(20) . . .
392(20) . . .
381(20) . . .
373(19) . . .
378(19) . . .
426(21) . . .
375(19) . . .
384(20) . . .
360(19) . . .
361(19) . . .
370(19) . . .
350(19) . . .
373(19) . . .
361(19) . . .
386(20) . . .
397(20) . . .
387(20) . . .
376(19) . . .
354(19) . . .
368(19) . . .
343(19) . . .
378(19) . . .
361(19) . . .
367(19) . . .
327(18) . . .
385(20) . . .
381(20) . . .
352(19) . . .
357(19) . . .
365(19) . . .
388(20) . . .
326(18) . . .
369(19) . . .
341(18) . . .
365(19) . . .
382(20) . . .
345(19) . . .
318(18) . . .
355(19) . . .
331(18) . . .
343(19) . . .
352(19) . . .
348(19) . . .
319(18) . . .
337(18) . . .
316(18) . . .
351(19) . . .
328(18) . . .
325(18) . . .
324(18) . . .
319(18) . . .
339(18) . . .
331(18) . . .
320(18) . . .
335(18) . . .
304(17) . . .
307(18) . . .
294(17) . . .
329(18) . . .
324(18) . . .
315(18) . . .
333(18) . . .
314(18) . . .
316(18) . . .
335(18) . . .
303(17) . . .
343(19) . . .
307(18) . . .
313(18) . . .
280(17) . . .
326(18) . . .
317(18) . . .
322(18) . . .
329(18) . . .
311(18) . . .
307(18) . . .
335(18) . . .
320(18) . . .
327(18) . . .
314(18) . . .
313(18) . . .
329(18) . . .
326(18) . . .
306(17) . . .
341(18) . . .
309(18) . . .
306(17) . . .
327(18) . . .
314(18) . . .
323(18) . . .
314(18) . . .
312(18) . . .
344(19) . . .
334(18) . . .
317(18) . . .
287(17) . . .
324(18) . . .
296(17) . . .
317(18) . . .
305(17) . . .
314(18) . . .
293(17) . . .
313(18) . . .
306(17) . . .
319(18) . . .
293(17) . . .
306(17) . . .
305(17) . . .
320(18) . . .
314(18) . . .
269(16) . . .
296(17) . . .
333(18) . . .
332(18) . . .
294(17) . . .
302(17) . . .
335(18) . . .
310(18) . . .
312(18) . . .
328(18) . . .
301(17) . . .
315(18) . . .
295(17) . . .
288(17) . . .
333(18) . . .
323(18) . . .
318(18) . . .
324(18) . . .
310(18) . . .
301(17) . . .
284(17) . . .
310(18) . . .
295(17) . . .
284(17) . . .
311(18) . . .
275(17) . . .
287(17) . . .
293(17) . . .
326(18) . . .
321(18) . . .
328(18) . . .
315(18) . . .
281(17) . . .
290(17) . . .
310(18) . . .
321(18) . . .
335(18) . . .
314(18) . . .
303(17) . . .
276(17) . . .
289(17) . . .
323(18) . . .
299(17) . . .
284(17) . . .
343(19) . . .
315(18) . . .
294(17) . . .
297(17) . . .
294(17) . . .
279(17) . . .
308(18) . . .
272(16) . . .
309(18) . . .
290(17) . . .
290(17) . . .
288(17) . . .
292(17) . . .
324(18) . . .
309(18) . . .
312(18) . . .
285(17) . . .
277(17) . . .
288(17) . . .
288(17) . . .
320(18) . . .
297(17) . . .
306(17) . . .
317(18) . . .
278(17) . . .
312(18) . . .
271(16) . . .
293(17) . . .
306(17) . . .
280(17) . . .
275(17) . . .
304(17) . . .
275(17) . . .
280(17) . . .
293(17) . . .
302(17) . . .
305(17) . . .
288(17) . . .
274(17) . . .
267(16) . . .
296(17) . . .
282(17) . . .
258(16) . . .
293(17) . . .
304(17) . . .
299(17) . . .
296(17) . . .
308(18) . . .
315(18) . . .
287(17) . . .
300(17) . . .
289(17) . . .
276(17) . . .
300(17) . . .
271(16) . . .
295(17) . . .
300(17) . . .
306(17) . . .
291(17) . . .
285(17) . . .
306(17) . . .
300(17) . . .
298(17) . . .
271(16) . . .
312(18) . . .
257(16) . . .
292(17) . . .
282(17) . . .
289(17) . . .
257(16) . . .
294(17) . . .
282(17) . . .
271(16) . . .
277(17) . . .
273(17) . . .
275(17) . . .
295(17) . . .
267(16) . . .
282(17) . . .
289(17) . . .
308(18) . . .
294(17) . . .
267(16) . . .
269(16) . . .
305(17) . . .
302(17) . . .
294(17) . . .
263(16) . . .
278(17) . . .
302(17) . . .
274(17) . . .
274(17) . . .
291(17) . . .
270(16) . . .
305(17) . . .
268(16) . . .
312(18) . . .
282(17) . . .
252(16) . . .
281(17) . . .
285(17) . . .
293(17) . . .
294(17) . . .
255(16) . . .
285(17) . . .
284(17) . . .
280(17) . . .
287(17) . . .
293(17) . . .
286(17) . . .
285(17) . . .
282(17) . . .
260(16) . . .
283(17) . . .
287(17) . . .
281(17) . . .
279(17) . . .
283(17) . . .
275(17) . . .
268(16) . . .
274(17) . . .
282(17) . . .
274(17) . . .
258(16) . . .
289(17) . . .
253(16) . . .
267(16) . . .
256(16) . . .
288(17) . . .
286(17) . . .
258(16) . . .
278(17) . . .
285(17) . . .
268(16) . . .
243(16) . . .
264(16) . . .
298(17) . . .
272(16) . . .
286(17) . . .
271(16) . . .
273(17) . . .
290(17) . . .
283(17) . . .
279(17) . . .
291(17) . . .
256(16) . . .
288(17) . . .
270(16) . . .
292(17) . . .
284(17) . . .
294(17) . . .
263(16) . . .
282(17) . . .
261(16) . . .
267(16) . . .
255(16) . . .
285(17) . . .
282(17) . . .
299(17) . . .
269(16) . . .
273(17) . . .
289(17) . . .
271(16) . . .
279(17) . . .
290(17) . . .
251(16) . . .
234(15) . . .
264(16) . . .
281(17) . . .
320(18) . . .
269(16) . . .
276(17) . . .
273(17) . . .
314(18) . . .
283(17) . . .
275(17) . . .
272(16) . . .
275(17) . . .
299(17) . . .
296(17) . . .
281(17) . . .
271(16) . . .
275(17) . . .
268(16) . . .
260(16) . . .
256(16) . . .
275(17) . . .
273(17) . . .
284(17) . . .
266(16) . . .
296(17) . . .
262(16) . . .
292(17) . . .
293(17) . . .
290(17) . . .
281(17) . . .
266(16) . . .
259(16) . . .
282(17) . . .
286(17) . . .
285(17) . . .
302(17) . . .
270(16) . . .
277(17) . . .
299(17) . . .
273(17) . . .
255(16) . . .
280(17) . . .
302(17) . . .
274(17) . . .
271(16) . . .
278(17) . . .
274(17) . . .
259(16) . . .
275(17) . . .
276(17) . . .
276(17) . . .
272(16) . . .
234(15) . . .
288(17) . . .
257(16) . . .
270(16) . . .
293(17) . . .
259(16) . . .
252(16) . . .
282(17) . . .
257(16) . . .
283(17) . . .
271(16) . . .
270(16) . . .
288(17) . . .
255(16) . . .
295(17) . . .
281(17) . . .
259(16) . . .
264(16) . . .
285(17) . . .
274(17) . . .
280(17) . . .
285(17) . . .
269(16) . . .
275(17) . . .
293(17) . . .
266(16) . . .
269(16) . . .
256(16) . . .
262(16) . . .
255(16) . . .
259(16) . . .
274(17) . . .
250(16) . . .
259(16) . . .
268(16) . . .
279(17) . . .
292(17) . . .
258(16) . . .
260(16) . . .
261(16) . . .
283(17) . . .
288(17) . . .
284(17) . . .
256(16) . . .
287(17) . . .
270(16) . . .
272(16) . . .
287(17) . . .
271(16) . . .
249(16) . . .
261(16) . . .
260(16) . . .
227(15) . . .
279(17) . . .
288(17) . . .
265(16) . . .
271(16) . . .
295(17) . . .
269(16) . . .
268(16) . . .
278(17) . . .
280(17) . . .
305(17) . . .
261(16) . . .
281(17) . . .
263(16) . . .
252(16) . . .
263(16) . . .
279(17) . . .
276(17) . . .
263(16) . . .
282(17) . . .
272(16) . . .
275(17) . . .
276(17) . . .
278(17) . . .
272(16) . . .
240(15) . . .
281(17) . . .
255(16) . . .
258(16) . . .
290(17) . . .
267(16) . . .
302(17) . . .
266(16) . . .
282(17) . . .
258(16) . . .
287(17) . . .
274(17) . . .
252(16) . . .
274(17) . . .
260(16) . . .
253(16) . . .
248(16) . . .
281(17) . . .
280(17) . . .
282(17) . . .
293(17) . . .
266(16) . . .
257(16) . . .
266(16) . . .
266(16) . . .
297(17) . . .
250(16) . . .
283(17) . . .
313(18) . . .
288(17) . . .
303(17) . . .
263(16) . . .
295(17) . . .
285(17) . . .
329(18) . . .
283(17) . . .
271(16) . . .
310(18) . . .
307(18) . . .
305(17) . . .
281(17) . . .
317(18) . . .
297(17) . . .
276(17) . . .
286(17) . . .
284(17) . . .
284(17) . . .
288(17) . . .
275(17) . . .
274(17) . . .
324(18) . . .
304(17) . . .
304(17) . . .
254(16) . . .
317(18) . . .
266(16) . . .
306(17) . . .
291(17) . . .
291(17) . . .
277(17) . . .
313(18) . . .
322(18) . . .
305(17) . . .
295(17) . . .
285(17) . . .
309(18) . . .
291(17) . . .
288(17) . . .
294(17) . . .
270(16) . . .
283(17) . . .
253(16) . . .
272(16) . . .
277(17) . . .
275(17) . . .
263(16) . . .
274(17) . . .
292(17) . . .
270(16) . . .
264(16) . . .
265(16) . . .
277(17) . . .
263(16) . . .
281(17) . . .
288(17) . . .
298(17) . . .
307(18) . . .
281(17) . . .
286(17) . . .
295(17) . . .
281(17) . . .
282(17) . . .
275(17) . . .
285(17) . . .
288(17) . . .
284(17) . . .
291(17) . . .
288(17) . . .
276(17) . . .
291(17) . . .
290(17) . . .
288(17) . . .
274(17) . . .
262(16) . . .
293(17) . . .
282(17) . . .
261(16) . . .
263(16) . . .
299(17) . . .
281(17) . . .
287(17) . . .
307(18) . . .
298(17) . . .
315(18) . . .
287(17) . . .
285(17) . . .
286(17) . . .
276(17) . . .
302(17) . . .
279(17) . . .
271(16) . . .
293(17) . . .
283(17) . . .
270(16) . . .
280(17) . . .
306(17) . . .
267(16) . . .
312(18) . . .
283(17) . . .
280(17) . . .
274(17) . . .
282(17) . . .
261(16) . . .
275(17) . . .
265(16) . . .
294(17) . . .
264(16) . . .
276(17) . . .
269(16) . . .
289(17) . . .
294(17) . . .
295(17) . . .
312(18) . . .
292(17) . . .
283(17) . . .
263(16) . . .
265(16) . . .
281(17) . . .
263(16) . . .
288(17) . . .
240(15) . . .
305(17) . . .
287(17) . . .
289(17) . . .
265(16) . . .
262(16) . . .
261(16) . . .
258(16) . . .
244(16) . . .
284(17) . . .
278(17) . . .
273(17) . . .
275(17) . . .
263(16) . . .
266(16) . . .
276(17) . . .
267(16) . . .
250(16) . . .
292(17) . . .
265(16) . . .
297(17) . . .
286(17) . . .
291(17) . . .
292(17) . . .
269(16) . . .
261(16) . . .
262(16) . . .
266(16) . . .
292(17) . . .
287(17) . . .
252(16) . . .
273(17) . . .
281(17) . . .
260(16) . . .
247(16) . . .
267(16) . . .
258(16) . . .
291(17) . . .
276(17) . . .
288(17) . . .
281(17) . . .
273(17) . . .
275(17) . . .
273(17) . . .
262(16) . . .
279(17) . . .
267(16) . . .
254(16) . . .
280(17) . . .
255(16) . . .
272(16) . . .
286(17) . . .
274(17) . . .
270(16) . . .
276(17) . . .
290(17) . . .
290(17) . . .
256(16) . . .
247(16) . . .
292(17) . . .
247(16) . . .
266(16) . . .
252(16) . . .
293(17) . . .
269(16) . . .
267(16) . . .
262(16) . . .
262(16) . . .
250(16) . . .
275(17) . . .
250(16) . . .
263(16) . . .
264(16) . . .
261(16) . . .
257(16) . . .
275(17) . . .
262(16) . . .
250(16) . . .
256(16) . . .
281(17) . . .
283(17) . . .
286(17) . . .
254(16) . . .
264(16) . . .
247(16) . . .
252(16) . . .
275(17) . . .
276(17) . . .
247(16) . . .
262(16) . . .
285(17) . . .
269(16) . . .
269(16) . . .
241(16) . . .
254(16) . . .
278(17) . . .
255(16) . . .
254(16) . . .
260(16) . . .
272(16) . . .
272(16) . . .
276(17) . . .
276(17) . . .
257(16) . . .
277(17) . . .
275(17) . . .
269(16) . . .
268(16) . . .
282(17) . . .
287(17) . . .
241(16) . . .
268(16) . . .
261(16) . . .
255(16) . . .
268(16) . . .
253(16) . . .
269(16) . . .
271(16) . . .
263(16) . . .
250(16) . . .
263(16) . . .
256(16) . . .
253(16) . . .
266(16) . . .
269(16) . . .
281(17) . . .
248(16) . . .
243(16) . . .
281(17) . . .
257(16) . . .
269(16) . . .
279(17) . . .
288(17) . . .
252(16) . . .
250(16) . . .
272(16) . . .
260(16) . . .
266(16) . . .
249(16) . . .
268(16) . . .
269(16) . . .
249(16) . . .
239(15) . . .
256(16) . . .
265(16) . . .
274(17) . . .
268(16) . . .
217(15) . . .
254(16) . . .
268(16) . . .
284(17) . . .
266(16) . . .
270(16) . . .
268(16) . . .
259(16) . . .
281(17) . . .
276(17) . . .
260(16) . . .
276(17) . . .
257(16) . . .
278(17) . . .
239(15) . . .
255(16) . . .
287(17) . . .
278(17) . . .
287(17) . . .
275(17) . . .
280(17) . . .
253(16) . . .
256(16) . . .
229(15) . . .
261(16) . . .
280(17) . . .
284(17) . . .
255(16) . . .
292(17) . . .
246(16) . . .
271(16) . . .
277(17) . . .
274(17) . . .
275(17) . . .
289(17) . . .
271(16) . . .
295(17) . . .
288(17) . . .
277(17) . . .
275(17) . . .
275(17) . . .
268(16) . . .
294(17) . . .
261(16) . . .
274(17) . . .
270(16) . . .
273(17) . . .
258(16) . . .
254(16) . . .
281(17) . . .
275(17) . . .
256(16) . . .
280(17) . . .
272(16) . . .
279(17) . . .
271(16) . . .
270(16) . . .
275(17) . . .
274(17) . . .
259(16) . . .
250(16) . . .
284(17) . . .
280(17) . . .
279(17) . . .
261(16) . . .
266(16) . . .
263(16) . . .
284(17) . . .
251(16) . . .
287(17) . . .
265(16) . . .
306(17) . . .
291(17) . . .
280(17) . . .
279(17) . . .
272(16) . . .
305(17) . . .
257(16) . . .
279(17) . . .
295(17) . . .
277(17) . . .
277(17) . . .
259(16) . . .
268(16) . . .
274(17) . . .
281(17) . . .
280(17) . . .
289(17) . . .
271(16) . . .
297(17) . . .
296(17) . . .
274(17) . . .
261(16) . . .
255(16) . . .
285(17) . . .
312(18) . . .
287(17) . . .
281(17) . . .
316(18) . . .
269(16) . . .
303(17) . . .
302(17) . . .
264(16) . . .
288(17) . . .
276(17) . . .
304(17) . . .
275(17) . . .
299(17) . . .
273(17) . . .
284(17) . . .
295(17) . . .
270(16) . . .
269(16) . . .
302(17) . . .
323(18) . . .
303(17) . . .
317(18) . . .
301(17) . . .
278(17) . . .
303(17) . . .
286(17) . . .
279(17) . . .
277(17) . . .
264(16) . . .
289(17) . . .
319(18) . . .
280(17) . . .
316(18) . . .
300(17) . . .
298(17) . . .
309(18) . . .
303(17) . . .
269(16) . . .
305(17) . . .
292(17) . . .
314(18) . . .
294(17) . . .
306(17) . . .
297(17) . . .
300(17) . . .
344(19) . . .
313(18) . . .
303(17) . . .
328(18) . . .
301(17) . . .
296(17) . . .
299(17) . . .
303(17) . . .
347(19) . . .
287(17) . . .
307(18) . . .
334(18) . . .
318(18) . . .
315(18) . . .
317(18) . . .
302(17) . . .
318(18) . . .
358(19) . . .
315(18) . . .
324(18) . . .
324(18) . . .
379(19) . . .
356(19) . . .
352(19) . . .
380(19) . . .
372(19) . . .
362(19) . . .
390(20) . . .
375(19) . . .
401(20) . . .
424(21) . . .
420(20) . . .
409(20) . . .
453(21) . . .
436(21) . . .
494(22) . . .
523(23) . . .
518(23) . . .
551(23) . . .
572(24) . . .
582(24) . . .
640(25) . . .
650(25) . . .
674(26) . . .
786(28) . . .
858(29) . . .
854(29) . . .
930(30) . . .
1001(32) . . .
1125(34) . . .
1232(35) . . .
1398(37) . . .
1527(39) . . .
1687(41) . . .
1873(43) . . .
2208(47) . . .
2656(52) . . .
2958(54) . . .
3600(60) . . .
4209(65) . . .
4975(71) . . .
5765(76) . . .
6492(81) . . .
7416(86) . . .
7964(89) . . .
8136(90) . . .
8360(91) . . .
7920(89) . . .
7407(86) . . .
6598(81) . . .
5808(76) . . .
5054(71) . . .
4301(66) . . .
3629(60) . . .
3138(56) . . .
2607(51) . . .
2251(47) . . .
2021(45) . . .
1667(41) . . .
1537(39) . . .
1295(36) . . .
1298(36) . . .
1195(35) . . .
955(31) . . .
911(30) . . .
827(29) . . .
789(28) . . .
796(28) . . .
688(26) . . .
674(26) . . .
629(25) . . .
605(25) . . .
553(24) . . .
527(23) . . .
528(23) . . .
505(22) . . .
470(22) . . .
488(22) . . .
446(21) . . .
431(21) . . .
435(21) . . .
433(21) . . .
391(20) . . .
374(19) . . .
358(19) . . .
376(19) . . .
348(19) . . .
353(19) . . .
364(19) . . .
361(19) . . .
388(20) . . .
342(18) . . .
338(18) . . .
343(19) . . .
354(19) . . .
323(18) . . .
318(18) . . .
336(18) . . .
304(17) . . .
320(18) . . .
351(19) . . .
329(18) . . .
324(18) . . .
293(17) . . .
307(18) . . .
304(17) . . .
295(17) . . .
307(18) . . .
306(17) . . .
309(18) . . .
311(18) . . .
285(17) . . .
305(17) . . .
299(17) . . .
280(17) . . .
292(17) . . .
279(17) . . .
300(17) . . .
290(17) . . .
264(16) . . .
285(17) . . .
290(17) . . .
316(18) . . .
288(17) . . .
286(17) . . .
305(17) . . .
289(17) . . .
268(16) . . .
283(17) . . .
283(17) . . .
265(16) . . .
285(17) . . .
285(17) . . .
277(17) . . .
262(16) . . .
284(17) . . .
253(16) . . .
263(16) . . .
296(17) . . .
297(17) . . .
268(16) . . .
280(17) . . .
265(16) . . .
278(17) . . .
272(16) . . .
282(17) . . .
285(17) . . .
291(17) . . .
276(17) . . .
276(17) . . .
276(17) . . .
277(17) . . .
276(17) . . .
277(17) . . .
298(17) . . .
288(17) . . .
269(16) . . .
266(16) . . .
286(17) . . .
265(16) . . .
284(17) . . .
258(16) . . .
289(17) . . .
251(16) . . .
295(17) . . .
292(17) . . .
274(17) . . .
301(17) . . .
275(17) . . .
274(17) . . .
287(17) . . .
275(17) . . .
280(17) . . .
256(16) . . .
283(17) . . .
282(17) . . .
253(16) . . .
288(17) . . .
285(17) . . .
275(17) . . .
257(16) . . .
269(16) . . .
244(16) . . .
285(17) . . .
261(16) . . .
277(17) . . .
269(16) . . .
268(16) . . .
250(16) . . .
246(16) . . .
254(16) . . .
280(17) . . .
268(16) . . .
236(15) . . .
273(17) . . .
260(16) . . .
255(16) . . .
257(16) . . .
264(16) . . .
249(16) . . .
254(16) . . .
224(15) . . .
214(15) . . .
236(15) . . .
252(16) . . .
265(16) . . .
257(16) . . .
226(15) . . .
253(16) . . .
244(16) . . .
243(16) . . .
251(16) . . .
291(17) . . .
259(16) . . .
225(15) . . .
250(16) . . .
238(15) . . .
241(16) . . .
239(15) . . .
252(16) . . .
256(16) . . .
250(16) . . .
249(16) . . .
267(16) . . .
252(16) . . .
258(16) . . .
234(15) . . .
251(16) . . .
235(15) . . .
246(16) . . .
243(16) . . .
243(16) . . .
251(16) . . .
270(16) . . .
274(17) . . .
242(16) . . .
259(16) . . .
246(16) . . .
265(16) . . .
248(16) . . .
268(16) . . .
258(16) . . .
258(16) . . .
280(17) . . .
244(16) . . .
260(16) . . .
240(15) . . .
251(16) . . .
260(16) . . .
231(15) . . .
251(16) . . .
239(15) . . .
254(16) . . .
264(16) . . .
243(16) . . .
255(16) . . .
254(16) . . .
262(16) . . .
251(16) . . .
249(16) . . .
227(15) . . .
235(15) . . .
245(16) . . .
246(16) . . .
243(16) . . .
250(16) . . .
256(16) . . .
244(16) . . .
247(16) . . .
221(15) . . .
268(16) . . .
264(16) . . .
238(15) . . .
259(16) . . .
267(16) . . .
212(15) . . .
244(16) . . .
255(16) . . .
246(16) . . .
234(15) . . .
227(15) . . .
246(16) . . .
251(16) . . .
261(16) . . .
255(16) . . .
270(16) . . .
248(16) . . .
228(15) . . .
250(16) . . .
244(16) . . .
246(16) . . .
273(17) . . .
281(17) . . .
252(16) . . .
262(16) . . .
242(16) . . .
241(16) . . .
227(15) . . .
240(15) . . .
242(16) . . .
246(16) . . .
230(15) . . .
232(15) . . .
222(15) . . .
249(16) . . .
265(16) . . .
234(15) . . .
253(16) . . .
207(14) . . .
234(15) . . .
228(15) . . .
258(16) . . .
225(15) . . .
252(16) . . .
233(15) . . .
244(16) . . .
248(16) . . .
233(15) . . .
222(15) . . .
218(15) . . .
217(15) . . .
263(16) . . .
228(15) . . .
213(15) . . .
272(16) . . .
216(15) . . .
254(16) . . .
250(16) . . .
223(15) . . .
242(16) . . .
220(15) . . .
249(16) . . .
237(15) . . .
249(16) . . .
224(15) . . .
225(15) . . .
249(16) . . .
248(16) . . .
238(15) . . .
257(16) . . .
254(16) . . .
227(15) . . .
247(16) . . .
230(15) . . .
229(15) . . .
216(15) . . .
245(16) . . .
256(16) . . .
226(15) . . .
226(15) . . .
227(15) . . .
250(16) . . .
227(15) . . .
233(15) . . .
258(16) . . .
225(15) . . .
238(15) . . .
232(15) . . .
266(16) . . .
235(15) . . .
227(15) . . .
216(15) . . .
256(16) . . .
235(15) . . .
237(15) . . .
235(15) . . .
230(15) . . .
223(15) . . .
233(15) . . .
225(15) . . .
235(15) . . .
246(16) . . .
226(15) . . .
240(15) . . .
235(15) . . .
228(15) . . .
222(15) . . .
241(16) . . .
234(15) . . .
249(16) . . .
237(15) . . .
242(16) . . .
227(15) . . .
219(15) . . .
242(16) . . .
211(15) . . .
263(16) . . .
228(15) . . .
244(16) . . .
226(15) . . .
260(16) . . .
242(16) . . .
234(15) . . .
242(16) . . .
223(15) . . .
261(16) . . .
234(15) . . .
235(15) . . .
224(15) . . .
252(16) . . .
250(16) . . .
226(15) . . .
239(15) . . .
245(16) . . .
239(15) . . .
232(15) . . .
243(16) . . .
243(16) . . .
237(15) . . .
246(16) . . .
216(15) . . .
262(16) . . .
246(16) . . .
252(16) . . .
243(16) . . .
239(15) . . .
240(15) . . .
258(16) . . .
241(16) . . .
227(15) . . .
214(15) . . .
250(16) . . .
242(16) . . .
251(16) . . .
222(15) . . .
244(16) . . .
212(15) . . .
229(15) . . .
252(16) . . .
233(15) . . .
226(15) . . .
233(15) . . .
236(15) . . .
235(15) . . .
240(15) . . .
227(15) . . .
252(16) . . .
226(15) . . .
253(16) . . .
220(15) . . .
278(17) . . .
245(16) . . .
218(15) . . .
224(15) . . .
209(14) . . .
221(15) . . .
196(14) . . .
227(15) . . .
243(16) . . .
215(15) . . .
226(15) . . .
251(16) . . .
217(15) . . .
222(15) . . .
219(15) . . .
230(15) . . .
214(15) . . .
197(14) . . .
271(16) . . .
226(15) . . .
221(15) . . .
206(14) . . .
246(16) . . .
240(15) . . .
233(15) . . .
230(15) . . .
248(16) . . .
214(15) . . .
217(15) . . .
251(16) . . .
230(15) . . .
249(16) . . .
210(14) . . .
220(15) . . .
231(15) . . .
224(15) . . .
226(15) . . .
226(15) . . .
204(14) . . .
221(15) . . .
238(15) . . .
234(15) . . .
249(16) . . .
243(16) . . .
204(14) . . .
219(15) . . .
235(15) . . .
224(15) . . .
205(14) . . .
230(15) . . .
236(15) . . .
223(15) . . .
243(16) . . .
240(15) . . .
232(15) . . .
242(16) . . .
211(15) . . .
230(15) . . .
229(15) . . .
234(15) . . .
236(15) . . .
219(15) . . .
239(15) . . .
241(16) . . .
232(15) . . .
263(16) . . .
224(15) . . .
237(15) . . .
237(15) . . .
241(16) . . .
243(16) . . .
237(15) . . .
223(15) . . .
238(15) . . .
230(15) . . .
246(16) . . .
240(15) . . .
227(15) . . .
236(15) . . .
248(16) . . .
257(16) . . .
266(16) . . .
228(15) . . .
227(15) . . .
228(15) . . .
218(15) . . .
246(16) . . .
239(15) . . .
231(15) . . .
219(15) . . .
249(16) . . .
261(16) . . .
209(14) . . .
235(15) . . .
248(16) . . .
222(15) . . .
238(15) . . .
256(16) . . .
252(16) . . .
236(15) . . .
239(15) . . .
256(16) . . .
259(16) . . .
239(15) . . .
252(16) . . .
259(16) . . .
219(15) . . .
241(16) . . .
247(16) . . .
242(16) . . .
254(16) . . .
215(15) . . .
238(15) . . .
255(16) . . .
260(16) . . .
243(16) . . .
242(16) . . .
247(16) . . .
266(16) . . .
249(16) . . .
247(16) . . .
271(16) . . .
221(15) . . .
243(16) . . .
253(16) . . .
234(15) . . .
243(16) . . .
269(16) . . .
246(16) . . .
234(15) . . .
230(15) . . .
239(15) . . .
214(15) . . .
227(15) . . .
243(16) . . .
252(16) . . .
237(15) . . .
250(16) . . .
220(15) . . .
237(15) . . .
221(15) . . .
222(15) . . .
250(16) . . .
244(16) . . .
222(15) . . .
223(15) . . .
245(16) . . .
231(15) . . .
233(15) . . .
245(16) . . .
228(15) . . .
233(15) . . .
213(15) . . .
242(16) . . .
229(15) . . .
237(15) . . .
234(15) . . .
220(15) . . .
253(16) . . .
232(15) . . .
219(15) . . .
214(15) . . .
248(16) . . .
237(15) . . .
240(15) . . .
208(14) . . .
221(15) . . .
233(15) . . .
237(15) . . .
231(15) . . .
214(15) . . .
241(16) . . .
233(15) . . .
230(15) . . .
246(16) . . .
229(15) . . .
242(16) . . .
251(16) . . .
199(14) . . .
227(15) . . .
214(15) . . .
202(14) . . .
220(15) . . .
229(15) . . .
219(15) . . .
256(16) . . .
232(15) . . .
229(15) . . .
229(15) . . .
210(14) . . .
225(15) . . .
237(15) . . .
214(15) . . .
221(15) . . .
219(15) . . .
225(15) . . .
211(15) . . .
216(15) . . .
222(15) . . .
229(15) . . .
202(14) . . .
197(14) . . .
224(15) . . .
203(14) . . .
221(15) . . .
223(15) . . .
215(15) . . .
219(15) . . .
214(15) . . .
235(15) . . .
223(15) . . .
235(15) . . .
225(15) . . .
213(15) . . .
198(14) . . .
234(15) . . .
249(16) . . .
218(15) . . .
247(16) . . .
228(15) . . .
246(16) . . .
214(15) . . .
240(15) . . .
231(15) . . .
208(14) . . .
240(15) . . .
245(16) . . .
234(15) . . .
215(15) . . .
215(15) . . .
238(15) . . .
216(15) . . .
223(15) . . .
247(16) . . .
232(15) . . .
203(14) . . .
248(16) . . .
219(15) . . .
240(15) . . .
234(15) . . .
250(16) . . .
241(16) . . .
263(16) . . .
240(15) . . .
225(15) . . .
245(16) . . .
227(15) . . .
241(16) . . .
236(15) . . .
240(15) . . .
249(16) . . .
259(16) . . .
253(16) . . .
257(16) . . .
227(15) . . .
224(15) . . .
232(15) . . .
203(14) . . .
206(14) . . .
248(16) . . .
226(15) . . .
238(15) . . .
238(15) . . .
209(14) . . .
207(14) . . .
217(15) . . .
239(15) . . .
217(15) . . .
217(15) . . .
211(15) . . .
239(15) . . .
205(14) . . .
235(15) . . .
213(15) . . .
207(14) . . .
237(15) . . .
228(15) . . .
244(16) . . .
210(14) . . .
223(15) . . .
222(15) . . .
247(16) . . .
219(15) . . .
236(15) . . .
196(14) . . .
212(15) . . .
219(15) . . .
219(15) . . .
222(15) . . .
212(15) . . .
224(15) . . .
224(15) . . .
209(14) . . .
231(15) . . .
220(15) . . .
222(15) . . .
225(15) . . .
219(15) . . .
221(15) . . .
247(16) . . .
234(15) . . .
237(15) . . .
248(16) . . .
219(15) . . .
255(16) . . .
245(16) . . .
241(16) . . .
213(15) . . .
219(15) . . .
214(15) . . .
229(15) . . .
233(15) . . .
233(15) . . .
221(15) . . .
229(15) . . .
230(15) . . .
226(15) . . .
222(15) . . .
232(15) . . .
216(15) . . .
223(15) . . .
208(14) . . .
215(15) . . .
216(15) . . .
220(15) . . .
219(15) . . .
220(15) . . .
209(14) . . .
220(15) . . .
224(15) . . .
256(16) . . .
208(14) . . .
235(15) . . .
219(15) . . .
219(15) . . .
225(15) . . .
236(15) . . .
238(15) . . .
223(15) . . .
236(15) . . .
224(15) . . .
235(15) . . .
245(16) . . .
218(15) . . .
207(14) . . .
237(15) . . .
232(15) . . .
247(16) . . .
204(14) . . .
243(16) . . .
230(15) . . .
236(15) . . .
224(15) . . .
237(15) . . .
204(14) . . .
270(16) . . .
228(15) . . .
207(14) . . .
222(15) . . .
244(16) . . .
241(16) . . .
239(15) . . .
212(15) . . .
234(15) . . .
256(16) . . .
255(16) . . .
231(15) . . .
222(15) . . .
224(15) . . .
220(15) . . .
211(15) . . .
231(15) . . .
232(15) . . .
225(15) . . .
239(15) . . .
212(15) . . .
224(15) . . .
208(14) . . .
221(15) . . .
230(15) . . .
220(15) . . .
211(15) . . .
232(15) . . .
237(15) . . .
234(15) . . .
202(14) . . .
213(15) . . .
228(15) . . .
223(15) . . .
212(15) . . .
220(15) . . .
209(14) . . .
232(15) . . .
237(15) . . .
202(14) . . .
204(14) . . .
212(15) . . .
208(14) . . .
231(15) . . .
230(15) . . .
210(14) . . .
216(15) . . .
228(15) . . .
216(15) . . .
240(15) . . .
222(15) . . .
215(15) . . .
223(15) . . .
237(15) . . .
215(15) . . .
221(15) . . .
218(15) . . .
240(15) . . .
220(15) . . .
225(15) . . .
207(14) . . .
206(14) . . .
209(14) . . .
225(15) . . .
225(15) . . .
227(15) . . .
243(16) . . .
208(14) . . .
231(15) . . .
208(14) . . .
203(14) . . .
203(14) . . .
215(15) . . .
205(14) . . .
209(14) . . .
226(15) . . .
228(15) . . .
224(15) . . .
185(14) . . .
208(14) . . .
213(15) . . .
210(14) . . .
220(15) . . .
214(15) . . .
247(16) . . .
228(15) . . .
221(15) . . .
198(14) . . .
236(15) . . .
213(15) . . .
219(15) . . .
227(15) . . .
245(16) . . .
191(14) . . .
223(15) . . .
210(14) . . .
199(14) . . .
233(15) . . .
226(15) . . .
210(14) . . .
213(15) . . .
224(15) . . .
187(14) . . .
236(15) . . .
241(16) . . .
219(15) . . .
208(14) . . .
248(16) . . .
215(15) . . .
207(14) . . .
218(15) . . .
230(15) . . .
202(14) . . .
231(15) . . .
219(15) . . .
243(16) . . .
213(15) . . .
209(14) . . .
239(15) . . .
220(15) . . .
211(15) . . .
242(16) . . .
205(14) . . .
230(15) . . .
228(15) . . .
197(14) . . .
241(16) . . .
224(15) . . .
204(14) . . .
210(14) . . .
212(15) . . .
242(16) . . .
214(15) . . .
214(15) . . .
220(15) . . .
217(15) . . .
232(15) . . .
215(15) . . .
213(15) . . .
234(15) . . .
221(15) . . .
223(15) . . .
227(15) . . .
228(15) . . .
221(15) . . .
222(15) . . .
234(15) . . .
215(15) . . .
202(14) . . .
238(15) . . .
196(14) . . .
212(15) . . .
236(15) . . .
218(15) . . .
213(15) . . .
213(15) . . .
219(15) . . .
215(15) . . .
217(15) . . .
229(15) . . .
239(15) . . .
230(15) . . .
210(14) . . .
205(14) . . .
208(14) . . .
244(16) . . .
226(15) . . .
227(15) . . .
202(14) . . .
198(14) . . .
205(14) . . .
231(15) . . .
198(14) . . .
231(15) . . .
206(14) . . .
223(15) . . .
202(14) . . .
222(15) . . .
220(15) . . .
219(15) . . .
217(15) . . .
212(15) . . .
203(14) . . .
207(14) . . .
218(15) . . .
221(15) . . .
223(15) . . .
242(16) . . .
222(15) . . .
223(15) . . .
227(15) . . .
211(15) . . .
228(15) . . .
222(15) . . .
228(15) . . .
215(15) . . .
216(15) . . .
205(14) . . .
225(15) . . .
213(15) . . .
207(14) . . .
196(14) . . .
208(14) . . .
201(14) . . .
212(15) . . .
221(15) . . .
219(15) . . .
254(16) . . .
239(15) . . .
217(15) . . .
212(15) . . .
237(15) . . .
210(14) . . .
215(15) . . .
217(15) . . .
220(15) . . .
220(15) . . .
215(15) . . .
200(14) . . .
252(16) . . .
227(15) . . .
207(14) . . .
220(15) . . .
231(15) . . .
221(15) . . .
230(15) . . .
218(15) . . .
227(15) . . .
211(15) . . .
226(15) . . .
238(15) . . .
209(14) . . .
213(15) . . .
234(15) . . .
218(15) . . .
226(15) . . .
233(15) . . .
216(15) . . .
207(14) . . .
217(15) . . .
221(15) . . .
252(16) . . .
228(15) . . .
235(15) . . .
201(14) . . .
223(15) . . .
230(15) . . .
215(15) . . .
216(15) . . .
206(14) . . .
227(15) . . .
213(15) . . .
212(15) . . .
239(15) . . .
199(14) . . .
249(16) . . .
228(15) . . .
231(15) . . .
265(16) . . .
220(15) . . .
219(15) . . .
213(15) . . .
228(15) . . .
222(15) . . .
238(15) . . .
237(15) . . .
231(15) . . .
225(15) . . .
226(15) . . .
214(15) . . .
227(15) . . .
229(15) . . .
219(15) . . .
194(14) . . .
206(14) . . .
215(15) . . .
241(16) . . .
215(15) . . .
203(14) . . .
234(15) . . .
219(15) . . .
249(16) . . .
243(16) . . .
217(15) . . .
224(15) . . .
221(15) . . .
213(15) . . .
199(14) . . .
219(15) . . .
231(15) . . .
215(15) . . .
221(15) . . .
212(15) . . .
215(15) . . .
247(16) . . .
210(14) . . .
223(15) . . .
214(15) . . .
205(14) . . .
222(15) . . .
206(14) . . .
231(15) . . .
212(15) . . .
218(15) . . .
218(15) . . .
227(15) . . .
212(15) . . .
239(15) . . .
218(15) . . .
219(15) . . .
213(15) . . .
224(15) . . .
227(15) . . .
218(15) . . .
201(14) . . .
214(15) . . .
227(15) . . .
217(15) . . .
224(15) . . .
213(15) . . .
222(15) . . .
222(15) . . .
231(15) . . .
230(15) . . .
221(15) . . .
219(15) . . .
198(14) . . .
213(15) . . .
221(15) . . .
226(15) . . .
230(15) . . .
231(15) . . .
206(14) . . .
227(15) . . .
240(15) . . .
214(15) . . .
225(15) . . .
231(15) . . .
222(15) . . .
209(14) . . .
239(15) . . .
214(15) . . .
223(15) . . .
207(14) . . .
215(15) . . .
206(14) . . .
222(15) . . .
228(15) . . .
225(15) . . .
218(15) . . .
208(14) . . .
235(15) . . .
218(15) . . .
227(15) . . .
245(16) . . .
238(15) . . .
254(16) . . .
235(15) . . .
214(15) . . .
191(14) . . .
191(14) . . .
237(15) . . .
191(14) . . .
240(15) . . .
219(15) . . .
231(15) . . .
244(16) . . .
200(14) . . .
220(15) . . .
233(15) . . .
238(15) . . .
217(15) . . .
205(14) . . .
232(15) . . .
211(15) . . .
211(15) . . .
241(16) . . .
226(15) . . .
212(15) . . .
247(16) . . .
221(15) . . .
209(14) . . .
203(14) . . .
222(15) . . .
222(15) . . .
215(15) . . .
223(15) . . .
237(15) . . .
236(15) . . .
258(16) . . .
237(15) . . .
224(15) . . .
226(15) . . .
222(15) . . .
213(15) . . .
235(15) . . .
241(16) . . .
233(15) . . .
218(15) . . .
222(15) . . .
230(15) . . .
236(15) . . .
220(15) . . .
209(14) . . .
225(15) . . .
223(15) . . .
216(15) . . .
225(15) . . .
231(15) . . .
228(15) . . .
198(14) . . .
220(15) . . .
208(14) . . .
228(15) . . .
230(15) . . .
221(15) . . .
241(16) . . .
221(15) . . .
236(15) . . .
213(15) . . .
217(15) . . .
258(16) . . .
215(15) . . .
223(15) . . .
203(14) . . .
213(15) . . .
213(15) . . .
220(15) . . .
225(15) . . .
209(14) . . .
222(15) . . .
226(15) . . .
230(15) . . .
235(15) . . .
214(15) . . .
239(15) . . .
236(15) . . .
183(14) . . .
217(15) . . .
232(15) . . .
207(14) . . .
227(15) . . .
222(15) . . .
217(15) . . .
236(15) . . .
244(16) . . .
199(14) . . .
227(15) . . .
218(15) . . .
224(15) . . .
230(15) . . .
223(15) . . .
226(15) . . .
237(15) . . .
226(15) . . .
226(15) . . .
239(15) . . .
193(14) . . .
238(15) . . .
218(15) . . .
231(15) . . .
241(16) . . .
245(16) . . .
233(15) . . .
206(14) . . .
246(16) . . .
220(15) . . .
237(15) . . .
242(16) . . .
238(15) . . .
229(15) . . .
248(16) . . .
215(15) . . .
221(15) . . .
260(16) . . .
217(15) . . .
232(15) . . .
225(15) . . .
222(15) . . .
220(15) . . .
206(14) . . .
241(16) . . .
186(14) . . .
224(15) . . .
227(15) . . .
199(14) . . .
226(15) . . .
231(15) . . .
227(15) . . .
244(16) . . .
214(15) . . .
222(15) . . .
228(15) . . .
211(15) . . .
234(15) . . .
213(15) . . .
216(15) . . .
225(15) . . .
212(15) . . .
195(14) . . .
223(15) . . .
230(15) . . .
240(15) . . .
246(16) . . .
212(15) . . .
225(15) . . .
208(14) . . .
212(15) . . .
220(15) . . .
214(15) . . .
252(16) . . .
208(14) . . .
211(15) . . .
209(14) . . .
232(15) . . .
218(15) . . .
249(16) . . .
207(14) . . .
229(15) . . .
219(15) . . .
203(14) . . .
243(16) . . .
238(15) . . .
230(15) . . .
251(16) . . .
247(16) . . .
245(16) . . .
222(15) . . .
216(15) . . .
227(15) . . .
243(16) . . .
221(15) . . .
240(15) . . .
225(15) . . .
235(15) . . .
237(15) . . .
214(15) . . .
215(15) . . .
215(15) . . .
213(15) . . .
227(15) . . .
241(16) . . .
239(15) . . .
215(15) . . .
206(14) . . .
212(15) . . .
236(15) . . .
226(15) . . .
253(16) . . .
239(15) . . .
222(15) . . .
216(15) . . .
251(16) . . .
243(16) . . .
208(14) . . .
229(15) . . .
230(15) . . .
244(16) . . .
242(16) . . .
226(15) . . .
227(15) . . .
227(15) . . .
247(16) . . .
263(16) . . .
234(15) . . .
229(15) . . .
231(15) . . .
233(15) . . .
239(15) . . .
250(16) . . .
235(15) . . .
208(14) . . .
211(15) . . .
220(15) . . .
219(15) . . .
251(16) . . .
249(16) . . .
235(15) . . .
235(15) . . .
233(15) . . .
209(14) . . .
238(15) . . .
236(15) . . .
241(16) . . .
208(14) . . .
247(16) . . .
220(15) . . .
235(15) . . .
236(15) . . .
259(16) . . .
221(15) . . .
250(16) . . .
247(16) . . .
224(15) . . .
224(15) . . .
246(16) . . .
239(15) . . .
226(15) . . .
246(16) . . .
229(15) . . .
199(14) . . .
231(15) . . .
237(15) . . .
231(15) . . .
225(15) . . .
228(15) . . .
229(15) . . .
229(15) . . .
217(15) . . .
225(15) . . .
234(15) . . .
226(15) . . .
216(15) . . .
262(16) . . .
233(15) . . .
253(16) . . .
238(15) . . .
218(15) . . .
241(16) . . .
266(16) . . .
241(16) . . .
240(15) . . .
245(16) . . .
238(15) . . .
237(15) . . .
235(15) . . .
217(15) . . .
238(15) . . .
250(16) . . .
252(16) . . .
244(16) . . .
244(16) . . .
230(15) . . .
223(15) . . .
201(14) . . .
235(15) . . .
240(15) . . .
224(15) . . .
230(15) . . .
241(16) . . .
228(15) . . .
222(15) . . .
245(16) . . .
245(16) . . .
214(15) . . .
242(16) . . .
219(15) . . .
243(16) . . .
252(16) . . .
246(16) . . .
255(16) . . .
255(16) . . .
212(15) . . .
251(16) . . .
214(15) . . .
229(15) . . .
228(15) . . .
242(16) . . .
234(15) . . .
239(15) . . .
248(16) . . .
233(15) . . .
239(15) . . .
263(16) . . .
235(15) . . .
214(15) . . .
256(16) . . .
236(15) . . .
237(15) . . .
228(15) . . .
215(15) . . .
261(16) . . .
241(16) . . .
232(15) . . .
226(15) . . .
260(16) . . .
224(15) . . .
249(16) . . .
229(15) . . .
231(15) . . .
239(15) . . .
250(16) . . .
247(16) . . .
235(15) . . .
222(15) . . .
247(16) . . .
236(15) . . .
249(16) . . .
247(16) . . .
213(15) . . .
233(15) . . .
221(15) . . .
219(15) . . .
247(16) . . .
224(15) . . .
235(15) . . .
243(16) . . .
252(16) . . .
240(15) . . .
246(16) . . .
253(16) . . .
244(16) . . .
251(16) . . .
255(16) . . .
265(16) . . .
269(16) . . .
269(16) . . .
245(16) . . .
261(16) . . .
237(15) . . .
232(15) . . .
230(15) . . .
250(16) . . .
244(16) . . .
268(16) . . .
279(17) . . .
269(16) . . .
223(15) . . .
245(16) . . .
245(16) . . .
265(16) . . .
229(15) . . .
240(15) . . .
252(16) . . .
244(16) . . .
243(16) . . .
255(16) . . .
244(16) . . .
265(16) . . .
255(16) . . .
261(16) . . .
226(15) . . .
252(16) . . .
244(16) . . .
254(16) . . .
213(15) . . .
271(16) . . .
249(16) . . .
230(15) . . .
232(15) . . .
251(16) . . .
243(16) . . .
260(16) . . .
247(16) . . .
251(16) . . .
261(16) . . .
275(17) . . .
249(16) . . .
254(16) . . .
264(16) . . .
267(16) . . .
255(16) . . .
268(16) . . .
268(16) . . .
268(16) . . .
260(16) . . .
228(15) . . .
251(16) . . .
252(16) . . .
230(15) . . .
252(16) . . .
235(15) . . .
285(17) . . .
239(15) . . .
287(17) . . .
253(16) . . .
258(16) . . .
251(16) . . .
282(17) . . .
292(17) . . .
268(16) . . .
264(16) . . .
251(16) . . .
264(16) . . .
264(16) . . .
260(16) . . .
241(16) . . .
277(17) . . .
271(16) . . .
256(16) . . .
260(16) . . .
267(16) . . .
296(17) . . .
281(17) . . .
290(17) . . .
265(16) . . .
292(17) . . .
274(17) . . .
281(17) . . .
274(17) . . .
273(17) . . .
269(16) . . .
271(16) . . .
264(16) . . .
284(17) . . .
291(17) . . .
283(17) . . .
271(16) . . .
310(18) . . .
307(18) . . .
297(17) . . .
307(18) . . .
300(17) . . .
273(17) . . .
280(17) . . .
289(17) . . .
294(17) . . .
299(17) . . .
294(17) . . .
300(17) . . .
333(18) . . .
297(17) . . .
289(17) . . .
294(17) . . .
323(18) . . .
330(18) . . .
314(18) . . .
334(18) . . .
312(18) . . .
304(17) . . .
298(17) . . .
336(18) . . .
333(18) . . .
370(19) . . .
351(19) . . .
352(19) . . .
378(19) . . .
362(19) . . .
352(19) . . .
338(18) . . .
371(19) . . .
375(19) . . .
415(20) . . .
409(20) . . .
412(20) . . .
403(20) . . .
386(20) . . .
420(20) . . .
430(21) . . .
458(21) . . .
443(21) . . .
445(21) . . .
475(22) . . .
513(23) . . .
510(23) . . .
562(24) . . .
597(24) . . .
609(25) . . .
664(26) . . .
714(27) . . .
712(27) . . .
758(28) . . .
849(29) . . .
857(29) . . .
966(31) . . .
983(31) . . .
1138(34) . . .
1261(36) . . .
1345(37) . . .
1535(39) . . .
1708(41) . . .
1925(44) . . .
2259(48) . . .
2557(51) . . .
2893(54) . . .
3317(58) . . .
3900(62) . . .
4351(66) . . .
4959(70) . . .
5480(74) . . .
5950(77) . . .
6411(80) . . .
6705(82) . . .
6881(83) . . .
6892(83) . . .
6793(82) . . .
6492(81) . . .
6115(78) . . .
5527(74) . . .
4832(70) . . .
4291(66) . . .
3718(61) . . .
3229(57) . . .
2823(53) . . .
2507(50) . . .
2105(46) . . .
1904(44) . . .
1679(41) . . .
1450(38) . . .
1357(37) . . .
1193(35) . . .
1103(33) . . .
1012(32) . . .
887(30) . . .
851(29) . . .
837(29) . . .
726(27) . . .
693(26) . . .
692(26) . . .
651(26) . . .
572(24) . . .
570(24) . . .
572(24) . . .
549(23) . . .
510(23) . . .
463(22) . . .
450(21) . . .
440(21) . . .
420(20) . . .
404(20) . . .
428(21) . . .
437(21) . . .
395(20) . . .
369(19) . . .
360(19) . . .
382(20) . . .
354(19) . . .
360(19) . . .
333(18) . . .
345(19) . . .
329(18) . . .
338(18) . . .
333(18) . . .
354(19) . . .
331(18) . . .
316(18) . . .
334(18) . . .
306(17) . . .
313(18) . . .
308(18) . . .
308(18) . . .
292(17) . . .
320(18) . . .
307(18) . . .
297(17) . . .
304(17) . . .
309(18) . . .
275(17) . . .
294(17) . . .
295(17) . . .
267(16) . . .
295(17) . . .
286(17) . . .
285(17) . . .
308(18) . . .
292(17) . . .
273(17) . . .
285(17) . . .
301(17) . . .
285(17) . . .
268(16) . . .
252(16) . . .
286(17) . . .
268(16) . . .
273(17) . . .
279(17) . . .
278(17) . . .
276(17) . . .
287(17) . . .
277(17) . . .
260(16) . . .
273(17) . . .
259(16) . . .
257(16) . . .
283(17) . . .
256(16) . . .
243(16) . . .
266(16) . . .
294(17) . . .
271(16) . . .
289(17) . . .
268(16) . . .
274(17) . . .
247(16) . . .
277(17) . . .
262(16) . . .
265(16) . . .
293(17) . . .
297(17) . . .
263(16) . . .
261(16) . . .
276(17) . . .
297(17) . . .
264(16) . . .
247(16) . . .
270(16) . . .
286(17) . . .
255(16) . . .
256(16) . . .
262(16) . . .
255(16) . . .
244(16) . . .
243(16) . . .
249(16) . . .
251(16) . . .
265(16) . . .
253(16) . . .
268(16) . . .
262(16) . . .
253(16) . . .
262(16) . . .
264(16) . . .
287(17) . . .
254(16) . . .
265(16) . . .
257(16) . . .
254(16) . . .
261(16) . . .
283(17) . . .
267(16) . . .
247(16) . . .
260(16) . . .
257(16) . . .
238(15) . . .
262(16) . . .
267(16) . . .
243(16) . . .
230(15) . . .
248(16) . . .
272(16) . . .
239(15) . . .
245(16) . . .
233(15) . . .
242(16) . . .
225(15) . . .
259(16) . . .
261(16) . . .
255(16) . . .
231(15) . . .
238(15) . . .
231(15) . . .
220(15) . . .
242(16) . . .
248(16) . . .
273(17) . . .
243(16) . . .
268(16) . . .
250(16) . . .
283(17) . . .
271(16) . . .
256(16) . . .
252(16) . . .
273(17) . . .
243(16) . . .
241(16) . . .
251(16) . . .
243(16) . . .
271(16) . . .
247(16) . . .
236(15) . . .
252(16) . . .
230(15) . . .
265(16) . . .
250(16) . . .
266(16) . . .
252(16) . . .
242(16) . . .
258(16) . . .
210(14) . . .
222(15) . . .
243(16) . . .
218(15) . . .
245(16) . . .
261(16) . . .
222(15) . . .
223(15) . . .
229(15) . . .
254(16) . . .
240(15) . . .
235(15) . . .
216(15) . . .
246(16) . . .
237(15) . . .
234(15) . . .
233(15) . . .
238(15) . . .
282(17) . . .
239(15) . . .
257(16) . . .
262(16) . . .
251(16) . . .
241(16) . . .
265(16) . . .
277(17) . . .
241(16) . . .
278(17) . . .
264(16) . . .
238(15) . . .
237(15) . . .
246(16) . . .
231(15) . . .
246(16) . . .
240(15) . . .
202(14) . . .
226(15) . . .
240(15) . . .
241(16) . . .
240(15) . . .
249(16) . . .
243(16) . . .
256(16) . . .
236(15) . . .
244(16) . . .
243(16) . . .
229(15) . . .
246(16) . . .
256(16) . . .
255(16) . . .
251(16) . . .
237(15) . . .
218(15) . . .
246(16) . . .
229(15) . . .
218(15) . . .
225(15) . . .
228(15) . . .
233(15) . . .
247(16) . . .
249(16) . . .
233(15) . . .
233(15) . . .
233(15) . . .
225(15) . . .
232(15) . . .
267(16) . . .
224(15) . . .
222(15) . . .
215(15) . . .
253(16) . . .
242(16) . . .
245(16) . . .
226(15) . . .
249(16) . . .
251(16) . . .
238(15) . . .
252(16) . . .
237(15) . . .
229(15) . . .
251(16) . . .
253(16) . . .
246(16) . . .
235(15) . . .
252(16) . . .
237(15) . . .
256(16) . . .
237(15) . . .
232(15) . . .
274(17) . . .
251(16) . . .
245(16) . . .
233(15) . . .
247(16) . . .
249(16) . . .
240(15) . . .
233(15) . . .
255(16) . . .
215(15) . . .
224(15) . . .
272(16) . . .
248(16) . . .
239(15) . . .
240(15) . . .
249(16) . . .
248(16) . . .
230(15) . . .
235(15) . . .
244(16) . . .
254(16) . . .
254(16) . . .
250(16) . . .
242(16) . . .
250(16) . . .
233(15) . . .
221(15) . . .
258(16) . . .
237(15) . . .
238(15) . . .
248(16) . . .
262(16) . . .
263(16) . . .
232(15) . . .
220(15) . . .
227(15) . . .
257(16) . . .
217(15) . . .
235(15) . . .
241(16) . . .
241(16) . . .
247(16) . . .
253(16) . . .
244(16) . . .
257(16) . . .
243(16) . . .
229(15) . . .
227(15) . . .
222(15) . . .
229(15) . . .
249(16) . . .
243(16) . . .
251(16) . . .
233(15) . . .
232(15) . . .
246(16) . . .
243(16) . . .
230(15) . . .
216(15) . . .
239(15) . . .
259(16) . . .
237(15) . . .
218(15) . . .
237(15) . . .
233(15) . . .
224(15) . . .
239(15) . . .
242(16) . . .
231(15) . . .
235(15) . . .
247(16) . . .
245(16) . . .
246(16) . . .
246(16) . . .
227(15) . . .
239(15) . . .
235(15) . . .
234(15) . . .
250(16) . . .
250(16) . . .
258(16) . . .
264(16) . . .
256(16) . . .
244(16) . . .
240(15) . . .
228(15) . . .
253(16) . . .
240(15) . . .
241(16) . . .
244(16) . . .
237(15) . . .
250(16) . . .
217(15) . . .
236(15) . . .
230(15) . . .
226(15) . . .
242(16) . . .
232(15) . . .
246(16) . . .
241(16) . . .
221(15) . . .
250(16) . . .
242(16) . . .
217(15) . . .
261(16) . . .
233(15) . . .
250(16) . . .
252(16) . . .
280(17) . . .
229(15) . . .
255(16) . . .
246(16) . . .
255(16) . . .
238(15) . . .
224(15) . . .
248(16) . . .
229(15) . . .
230(15) . . .
226(15) . . .
242(16) . . .
243(16) . . .
239(15) . . .
223(15) . . .
239(15) . . .
230(15) . . .
248(16) . . .
211(15) . . .
250(16) . . .
243(16) . . .
245(16) . . .
255(16) . . .
231(15) . . .
232(15) . . .
248(16) . . .
267(16) . . .
237(15) . . .
221(15) . . .
244(16) . . .
241(16) . . .
267(16) . . .
225(15) . . .
242(16) . . .
261(16) . . .
228(15) . . .
237(15) . . .
251(16) . . .
234(15) . . .
243(16) . . .
263(16) . . .
260(16) . . .
246(16) . . .
253(16) . . .
248(16) . . .
251(16) . . .
225(15) . . .
266(16) . . .
221(15) . . .
256(16) . . .
206(14) . . .
245(16) . . .
232(15) . . .
242(16) . . .
238(15) . . .
234(15) . . .
210(14) . . .
210(14) . . .
238(15) . . .
222(15) . . .
234(15) . . .
221(15) . . .
243(16) . . .
240(15) . . .
235(15) . . .
246(16) . . .
226(15) . . .
252(16) . . .
228(15) . . .
228(15) . . .
265(16) . . .
237(15) . . .
251(16) . . .
238(15) . . .
246(16) . . .
245(16) . . .
228(15) . . .
215(15) . . .
252(16) . . .
225(15) . . .
267(16) . . .
230(15) . . .
266(16) . . .
241(16) . . .
244(16) . . .
211(15) . . .
265(16) . . .
254(16) . . .
227(15) . . .
216(15) . . .
239(15) . . .
249(16) . . .
257(16) . . .
247(16) . . .
241(16) . . .
257(16) . . .
226(15) . . .
212(15) . . .
227(15) . . .
244(16) . . .
217(15) . . .
239(15) . . .
222(15) . . .
238(15) . . .
268(16) . . .
242(16) . . .
247(16) . . .
246(16) . . .
242(16) . . .
228(15) . . .
222(15) . . .
248(16) . . .
214(15) . . .
250(16) . . .
235(15) . . .
227(15) . . .
216(15) . . .
244(16) . . .
216(15) . . .
208(14) . . .
226(15) . . .
236(15) . . .
241(16) . . .
269(16) . . .
266(16) . . .
254(16) . . .
251(16) . . .
224(15) . . .
245(16) . . .
257(16) . . .
237(15) . . .
268(16) . . .
242(16) . . .
248(16) . . .
223(15) . . .
240(15) . . .
249(16) . . .
254(16) . . .
237(15) . . .
233(15) . . .
226(15) . . .
231(15) . . .
234(15) . . .
261(16) . . .
228(15) . . .
219(15) . . .
234(15) . . .
216(15) . . .
251(16) . . .
242(16) . . .
238(15) . . .
245(16) . . .
257(16) . . .
231(15) . . .
226(15) . . .
254(16) . . .
232(15) . . .
233(15) . . .
232(15) . . .
223(15) . . .
277(17) . . .
240(15) . . .
249(16) . . .
236(15) . . .
253(16) . . .
225(15) . . .
285(17) . . .
257(16) . . .
236(15) . . .
261(16) . . .
244(16) . . .
246(16) . . .
258(16) . . .
245(16) . . .
229(15) . . .
263(16) . . .
242(16) . . .
242(16) . . .
250(16) . . .
256(16) . . .
248(16) . . .
235(15) . . .
229(15) . . .
218(15) . . .
242(16) . . .
262(16) . . .
249(16) . . .
246(16) . . .
254(16) . . .
247(16) . . .
251(16) . . .
244(16) . . .
250(16) . . .
237(15) . . .
254(16) . . .
245(16) . . .
237(15) . . .
233(15) . . .
241(16) . . .
233(15) . . .
262(16) . . .
259(16) . . .
250(16) . . .
225(15) . . .
252(16) . . .
254(16) . . .
252(16) . . .
261(16) . . .
245(16) . . .
255(16) . . .
266(16) . . .
264(16) . . .
214(15) . . .
241(16) . . .
221(15) . . .
256(16) . . .
244(16) . . .
241(16) . . .
268(16) . . .
239(15) . . .
254(16) . . .
267(16) . . .
257(16) . . .
230(15) . . .
248(16) . . .
249(16) . . .
259(16) . . .
263(16) . . .
257(16) . . .
243(16) . . .
279(17) . . .
215(15) . . .
260(16) . . .
260(16) . . .
265(16) . . .
259(16) . . .
253(16) . . .
238(15) . . .
247(16) . . .
262(16) . . .
246(16) . . .
235(15) . . .
267(16) . . .
214(15) . . .
267(16) . . .
239(15) . . .
277(17) . . .
260(16) . . .
262(16) . . .
262(16) . . .
246(16) . . .
255(16) . . .
261(16) . . .
252(16) . . .
258(16) . . .
252(16) . . .
263(16) . . .
291(17) . . .
284(17) . . .
269(16) . . .
253(16) . . .
266(16) . . .
241(16) . . .
246(16) . . .
261(16) . . .
263(16) . . .
253(16) . . .
256(16) . . .
263(16) . . .
264(16) . . .
256(16) . . .
252(16) . . .
248(16) . . .
247(16) . . .
234(15) . . .
217(15) . . .
265(16) . . .
266(16) . . .
239(15) . . .
252(16) . . .
270(16) . . .
265(16) . . .
258(16) . . .
223(15) . . .
259(16) . . .
276(17) . . .
265(16) . . .
266(16) . . .
259(16) . . .
250(16) . . .
244(16) . . .
269(16) . . .
278(17) . . .
256(16) . . .
287(17) . . .
255(16) . . .
260(16) . . .
272(16) . . .
255(16) . . .
250(16) . . .
265(16) . . .
231(15) . . .
270(16) . . .
245(16) . . .
240(15) . . .
249(16) . . .
244(16) . . .
237(15) . . .
217(15) . . .
252(16) . . .
263(16) . . .
273(17) . . .
242(16) . . .
235(15) . . .
254(16) . . .
244(16) . . .
240(15) . . .
270(16) . . .
266(16) . . .
247(16) . . .
241(16) . . .
234(15) . . .
252(16) . . .
258(16) . . .
283(17) . . .
253(16) . . .
275(17) . . .
227(15) . . .
258(16) . . .
234(15) . . .
273(17) . . .
240(15) . . .
266(16) . . .
254(16) . . .
254(16) . . .
255(16) . . .
267(16) . . .
274(17) . . .
263(16) . . .
272(16) . . .
271(16) . . .
264(16) . . .
273(17) . . .
219(15) . . .
263(16) . . .
278(17) . . .
249(16) . . .
231(15) . . .
301(17) . . .
277(17) . . .
245(16) . . .
260(16) . . .
264(16) . . .
266(16) . . .
263(16) . . .
232(15) . . .
248(16) . . .
267(16) . . .
248(16) . . .
265(16) . . .
270(16) . . .
258(16) . . .
262(16) . . .
252(16) . . .
267(16) . . .
262(16) . . .
232(15) . . .
251(16) . . .
242(16) . . .
256(16) . . .
249(16) . . .
261(16) . . .
273(17) . . .
258(16) . . .
265(16) . . .
283(17) . . .
276(17) . . .
258(16) . . .
297(17) . . .
246(16) . . .
250(16) . . .
252(16) . . .
257(16) . . .
273(17) . . .
273(17) . . .
276(17) . . .
283(17) . . .
258(16) . . .
264(16) . . .
247(16) . . .
271(16) . . .
251(16) . . .
263(16) . . .
279(17) . . .
272(16) . . .
289(17) . . .
263(16) . . .
273(17) . . .
292(17) . . .
266(16) . . .
275(17) . . .
295(17) . . .
239(15) . . .
293(17) . . .
268(16) . . .
279(17) . . .
302(17) . . .
265(16) . . .
254(16) . . .
268(16) . . .
262(16) . . .
260(16) . . .
270(16) . . .
255(16) . . .
260(16) . . .
238(15) . . .
242(16) . . .
256(16) . . .
276(17) . . .
296(17) . . .
263(16) . . .
288(17) . . .
237(15) . . .
295(17) . . .
248(16) . . .
297(17) . . .
288(17) . . .
249(16) . . .
287(17) . . .
267(16) . . .
274(17) . . .
272(16) . . .
275(17) . . .
297(17) . . .
272(16) . . .
273(17) . . .
254(16) . . .
284(17) . . .
274(17) . . .
261(16) . . .
293(17) . . .
280(17) . . .
288(17) . . .
281(17) . . .
272(16) . . .
286(17) . . .
295(17) . . .
282(17) . . .
278(17) . . .
272(16) . . .
283(17) . . .
270(16) . . .
281(17) . . .
267(16) . . .
279(17) . . .
269(16) . . .
274(17) . . .
280(17) . . .
281(17) . . .
272(16) . . .
265(16) . . .
284(17) . . .
309(18) . . .
301(17) . . .
275(17) . . .
294(17) . . .
274(17) . . .
286(17) . . .
276(17) . . .
299(17) . . .
285(17) . . .
280(17) . . .
292(17) . . .
337(18) . . .
275(17) . . .
311(18) . . .
298(17) . . .
312(18) . . .
303(17) . . .
273(17) . . .
316(18) . . .
302(17) . . .
311(18) . . .
331(18) . . .
291(17) . . .
300(17) . . .
323(18) . . .
312(18) . . .
331(18) . . .
300(17) . . .
295(17) . . .
307(18) . . .
306(17) . . .
312(18) . . .
311(18) . . .
350(19) . . .
339(18) . . .
328(18) . . .
365(19) . . .
334(18) . . .
334(18) . . .
376(19) . . .
353(19) . . .
367(19) . . .
377(19) . . .
344(19) . . .
382(20) . . .
376(19) . . .
379(19) . . .
383(20) . . .
370(19) . . .
376(19) . . .
385(20) . . .
394(20) . . .
419(20) . . .
453(21) . . .
431(21) . . .
425(21) . . .
443(21) . . .
429(21) . . .
495(22) . . .
484(22) . . .
478(22) . . .
505(22) . . .
526(23) . . .
533(23) . . .
579(24) . . .
559(24) . . .
640(25) . . .
670(26) . . .
690(26) . . .
660(26) . . .
751(27) . . .
730(27) . . .
796(28) . . .
868(29) . . .
933(31) . . .
961(31) . . .
1079(33) . . .
1142(34) . . .
1207(35) . . .
1297(36) . . .
1464(38) . . .
1541(39) . . .
1682(41) . . .
1917(44) . . .
2068(45) . . .
2426(49) . . .
2644(51) . . .
3039(55) . . .
3379(58) . . .
3826(62) . . .
4436(67) . . .
4966(70) . . .
5559(75) . . .
6295(79) . . .
6885(83) . . .
7432(86) . . .
8037(90) . . .
8198(91) . . .
8477(92) . . .
8434(92) . . .
8146(90) . . .
7691(88) . . .
7096(84) . . .
6459(80) . . .
5732(76) . . .
5159(72) . . .
4557(68) . . .
3868(62) . . .
3354(58) . . .
3018(55) . . .
2625(51) . . .
2363(49) . . .
2128(46) . . .
1880(43) . . .
1672(41) . . .
1539(39) . . .
1459(38) . . .
1309(36) . . .
1220(35) . . .
1102(33) . . .
1062(33) . . .
925(30) . . .
870(29) . . .
853(29) . . .
810(28) . . .
805(28) . . .
685(26) . . .
679(26) . . .
669(26) . . .
605(25) . . .
581(24) . . .
566(24) . . .
527(23) . . .
574(24) . . .
514(23) . . .
480(22) . . .
463(22) . . .
477(22) . . .
443(21) . . .
446(21) . . .
494(22) . . .
403(20) . . .
432(21) . . .
396(20) . . .
403(20) . . .
417(20) . . .
379(19) . . .
363(19) . . .
394(20) . . .
366(19) . . .
350(19) . . .
387(20) . . .
347(19) . . .
405(20) . . .
377(19) . . .
353(19) . . .
364(19) . . .
354(19) . . .
341(18) . . .
348(19) . . .
310(18) . . .
316(18) . . .
309(18) . . .
349(19) . . .
313(18) . . .
313(18) . . .
334(18) . . .
336(18) . . .
317(18) . . .
306(17) . . .
319(18) . . .
303(17) . . .
293(17) . . .
314(18) . . .
305(17) . . .
309(18) . . .
301(17) . . .
322(18) . . .
298(17) . . .
317(18) . . .
280(17) . . .
304(17) . . .
301(17) . . .
300(17) . . .
328(18) . . .
297(17) . . .
291(17) . . .
295(17) . . .
295(17) . . .
318(18) . . .
297(17) . . .
312(18) . . .
326(18) . . .
281(17) . . .
271(16) . . .
277(17) . . .
309(18) . . .
247(16) . . .
279(17) . . .
322(18) . . .
312(18) . . .
280(17) . . .
278(17) . . .
274(17) . . .
287(17) . . .
290(17) . . .
280(17) . . .
301(17) . . .
281(17) . . .
304(17) . . .
306(17) . . .
286(17) . . .
308(18) . . .
300(17) . . .
248(16) . . .
283(17) . . .
297(17) . . .
261(16) . . .
272(16) . . .
295(17) . . .
303(17) . . .
294(17) . . .
322(18) . . .
272(16) . . .
274(17) . . .
273(17) . . .
294(17) . . .
259(16) . . .
288(17) . . .
288(17) . . .
294(17) . . .
267(16) . . .
273(17) . . .
283(17) . . .
278(17) . . .
289(17) . . .
259(16) . . .
292(17) . . .
291(17) . . .
274(17) . . .
275(17) . . .
266(16) . . .
261(16) . . .
281(17) . . .
277(17) . . .
307(18) . . .
236(15) . . .
272(16) . . .
296(17) . . .
294(17) . . .
301(17) . . .
254(16) . . .
286(17) . . .
296(17) . . .
286(17) . . .
307(18) . . .
248(16) . . .
262(16) . . .
270(16) . . .
274(17) . . .
277(17) . . .
263(16) . . .
262(16) . . .
263(16) . . .
276(17) . . .
261(16) . . .
265(16) . . .
266(16) . . .
288(17) . . .
271(16) . . .
252(16) . . .
278(17) . . .
276(17) . . .
269(16) . . .
277(17) . . .
266(16) . . .
249(16) . . .
255(16) . . .
241(16) . . .
264(16) . . .
266(16) . . .
264(16) . . .
237(15) . . .
244(16) . . .
248(16) . . .
259(16) . . .
259(16) . . .
282(17) . . .
258(16) . . .
239(15) . . .
280(17) . . .
254(16) . . .
262(16) . . .
293(17) . . .
280(17) . . .
240(15) . . .
271(16) . . .
279(17) . . .
269(16) . . .
243(16) . . .
249(16) . . .
268(16) . . .
266(16) . . .
280(17) . . .
245(16) . . .
254(16) . . .
266(16) . . .
246(16) . . .
271(16) . . .
251(16) . . .
245(16) . . .
263(16) . . .
279(17) . . .
258(16) . . .
258(16) . . .
280(17) . . .
268(16) . . .
259(16) . . .
290(17) . . .
288(17) . . .
276(17) . . .
279(17) . . .
258(16) . . .
248(16) . . .
268(16) . . .
261(16) . . .
274(17) . . .
289(17) . . .
265(16) . . .
278(17) . . .
280(17) . . .
269(16) . . .
266(16) . . .
258(16) . . .
299(17) . . .
269(16) . . .
285(17) . . .
281(17) . . .
268(16) . . .
289(17) . . .
261(16) . . .
300(17) . . .
259(16) . . .
280(17) . . .
296(17) . . .
293(17) . . .
250(16) . . .
263(16) . . .
280(17) . . .
284(17) . . .
285(17) . . .
294(17) . . .
283(17) . . .
299(17) . . .
289(17) . . .
290(17) . . .
264(16) . . .
306(17) . . .
301(17) . . .
304(17) . . .
319(18) . . .
341(18) . . .
313(18) . . .
338(18) . . .
345(19) . . .
331(18) . . .
315(18) . . .
341(18) . . .
380(19) . . .
335(18) . . .
358(19) . . .
406(20) . . .
358(19) . . .
360(19) . . .
416(20) . . .
416(20) . . .
395(20) . . .
438(21) . . .
471(22) . . .
484(22) . . .
494(22) . . .
457(21) . . .
496(22) . . .
552(23) . . .
556(24) . . .
573(24) . . .
627(25) . . .
700(26) . . .
695(26) . . .
740(27) . . .
794(28) . . .
847(29) . . .
953(31) . . .
1058(33) . . .
1170(34) . . .
1299(36) . . .
1435(38) . . .
1590(40) . . .
1775(42) . . .
2142(46) . . .
2364(49) . . .
2562(51) . . .
2938(54) . . .
3175(56) . . .
3580(60) . . .
3793(62) . . .
4112(64) . . .
4258(65) . . .
4204(65) . . .
4421(66) . . .
4156(64) . . .
3889(62) . . .
3553(60) . . .
3288(57) . . .
2981(55) . . .
2693(52) . . .
2282(48) . . .
2125(46) . . .
1795(42) . . .
1618(40) . . .
1444(38) . . .
1243(35) . . .
1110(33) . . .
1054(32) . . .
928(30) . . .
848(29) . . .
825(29) . . .
749(27) . . .
675(26) . . .
635(25) . . .
594(24) . . .
597(24) . . .
549(23) . . .
530(23) . . .
523(23) . . .
489(22) . . .
441(21) . . .
459(21) . . .
394(20) . . .
420(20) . . .
395(20) . . .
385(20) . . .
389(20) . . .
370(19) . . .
357(19) . . .
350(19) . . .
338(18) . . .
348(19) . . .
346(19) . . .
350(19) . . .
331(18) . . .
334(18) . . .
327(18) . . .
313(18) . . .
321(18) . . .
306(17) . . .
296(17) . . .
300(17) . . .
294(17) . . .
298(17) . . .
293(17) . . .
283(17) . . .
264(16) . . .
300(17) . . .
304(17) . . .
263(16) . . .
285(17) . . .
264(16) . . .
270(16) . . .
310(18) . . .
287(17) . . .
272(16) . . .
283(17) . . .
267(16) . . .
264(16) . . .
269(16) . . .
262(16) . . .
248(16) . . .
284(17) . . .
259(16) . . .
256(16) . . .
236(15) . . .
266(16) . . .
265(16) . . .
239(15) . . .
247(16) . . .
270(16) . . .
244(16) . . .
252(16) . . .
256(16) . . .
260(16) . . .
248(16) . . .
249(16) . . .
254(16) . . .
252(16) . . .
257(16) . . .
241(16) . . .
262(16) . . .
252(16) . . .
261(16) . . .
224(15) . . .
253(16) . . .
238(15) . . .
248(16) . . .
255(16) . . .
253(16) . . .
257(16) . . .
203(14) . . .
242(16) . . .
235(15) . . .
269(16) . . .
250(16) . . .
219(15) . . .
243(16) . . .
235(15) . . .
239(15) . . .
238(15) . . .
264(16) . . .
246(16) . . .
244(16) . . .
268(16) . . .
252(16) . . .
268(16) . . .
231(15) . . .
234(15) . . .
250(16) . . .
234(15) . . .
237(15) . . .
244(16) . . .
235(15) . . .
243(16) . . .
235(15) . . .
222(15) . . .
234(15) . . .
216(15) . . .
251(16) . . .
231(15) . . .
253(16) . . .
238(15) . . .
243(16) . . .
241(16) . . .
243(16) . . .
245(16) . . .
239(15) . . .
228(15) . . .
231(15) . . .
236(15) . . .
225(15) . . .
230(15) . . .
236(15) . . .
232(15) . . .
235(15) . . .
230(15) . . .
234(15) . . .
234(15) . . .
226(15) . . .
230(15) . . .
228(15) . . .
231(15) . . .
244(16) . . .
218(15) . . .
257(16) . . .
242(16) . . .
216(15) . . .
225(15) . . .
236(15) . . .
237(15) . . .
215(15) . . .
222(15) . . .
250(16) . . .
228(15) . . .
250(16) . . .
250(16) . . .
186(14) . . .
224(15) . . .
243(16) . . .
244(16) . . .
214(15) . . .
240(15) . . .
219(15) . . .
230(15) . . .
239(15) . . .
212(15) . . .
241(16) . . .
238(15) . . .
236(15) . . .
232(15) . . .
232(15) . . .
215(15) . . .
226(15) . . .
240(15) . . .
229(15) . . .
237(15) . . .
221(15) . . .
261(16) . . .
225(15) . . .
212(15) . . .
244(16) . . .
231(15) . . .
244(16) . . .
236(15) . . .
239(15) . . .
221(15) . . .
222(15) . . .
207(14) . . .
241(16) . . .
233(15) . . .
226(15) . . .
214(15) . . .
221(15) . . .
223(15) . . .
219(15) . . .
264(16) . . .
228(15) . . .
227(15) . . .
236(15) . . .
217(15) . . .
220(15) . . .
238(15) . . .
225(15) . . .
240(15) . . .
243(16) . . .
205(14) . . .
206(14) . . .
233(15) . . .
234(15) . . .
224(15) . . .
232(15) . . .
211(15) . . .
194(14) . . .
224(15) . . .
207(14) . . .
219(15) . . .
231(15) . . .
232(15) . . .
228(15) . . .
218(15) . . .
237(15) . . .
244(16) . . .
220(15) . . .
206(14) . . .
233(15) . . .
244(16) . . .
237(15) . . .
211(15) . . .
250(16) . . .
218(15) . . .
201(14) . . .
196(14) . . .
239(15) . . .
226(15) . . .
223(15) . . .
213(15) . . .
219(15) . . .
209(14) . . .
227(15) . . .
197(14) . . .
224(15) . . .
195(14) . . .
197(14) . . .
203(14) . . .
199(14) . . .
227(15) . . .
234(15) . . .
208(14) . . .
227(15) . . .
203(14) . . .
235(15) . . .
236(15) . . .
226(15) . . .
229(15) . . .
213(15) . . .
210(14) . . .
227(15) . . .
239(15) . . .
219(15) . . .
212(15) . . .
235(15) . . .
222(15) . . .
216(15) . . .
225(15) . . .
242(16) . . .
224(15) . . .
214(15) . . .
220(15) . . .
231(15) . . .
233(15) . . .
206(14) . . .
213(15) . . .
219(15) . . .
230(15) . . .
227(15) . . .
224(15) . . .
206(14) . . .
212(15) . . .
206(14) . . .
211(15) . . .
189(14) . . .
195(14) . . .
208(14) . . .
205(14) . . .
215(15) . . .
210(14) . . .
214(15) . . .
216(15) . . .
204(14) . . .
220(15) . . .
236(15) . . .
211(15) . . .
209(14) . . .
221(15) . . .
207(14) . . .
224(15) . . .
224(15) . . .
236(15) . . .
208(14) . . .
202(14) . . .
203(14) . . .
207(14) . . .
221(15) . . .
202(14) . . .
212(15) . . .
210(14) . . .
212(15) . . .
201(14) . . .
211(15) . . .
199(14) . . .
229(15) . . .
203(14) . . .
193(14) . . .
215(15) . . .
185(14) . . .
238(15) . . .
226(15) . . .
216(15) . . .
232(15) . . .
230(15) . . .
214(15) . . .
210(14) . . .
215(15) . . .
233(15) . . .
224(15) . . .
245(16) . . .
221(15) . . .
201(14) . . .
204(14) . . .
216(15) . . .
231(15) . . .
211(15) . . .
190(14) . . .
213(15) . . .
211(15) . . .
229(15) . . .
198(14) . . .
225(15) . . .
226(15) . . .
234(15) . . .
241(16) . . .
225(15) . . .
185(14) . . .
223(15) . . .
207(14) . . .
223(15) . . .
219(15) . . .
206(14) . . .
224(15) . . .
199(14) . . .
199(14) . . .
189(14) . . .
191(14) . . .
232(15) . . .
222(15) . . .
212(15) . . .
190(14) . . .
218(15) . . .
222(15) . . .
189(14) . . .
196(14) . . .
218(15) . . .
223(15) . . .
203(14) . . .
203(14) . . .
214(15) . . .
185(14) . . .
198(14) . . .
218(15) . . .
211(15) . . .
207(14) . . .
203(14) . . .
207(14) . . .
195(14) . . .
200(14) . . .
206(14) . . .
195(14) . . .
201(14) . . .
208(14) . . .
188(14) . . .
202(14) . . .
215(15) . . .
207(14) . . .
201(14) . . .
182(13) . . .
209(14) . . .
207(14) . . .
201(14) . . .
200(14) . . .
195(14) . . .
208(14) . . .
207(14) . . .
186(14) . . .
184(14) . . .
212(15) . . .
197(14) . . .
201(14) . . .
197(14) . . .
188(14) . . .
219(15) . . .
202(14) . . .
204(14) . . .
201(14) . . .
199(14) . . .
210(14) . . .
197(14) . . .
201(14) . . .
216(15) . . .
208(14) . . .
216(15) . . .
214(15) . . .
210(14) . . .
193(14) . . .
189(14) . . .
199(14) . . .
199(14) . . .
202(14) . . .
191(14) . . .
198(14) . . .
209(14) . . .
228(15) . . .
194(14) . . .
213(15) . . .
205(14) . . .
196(14) . . .
195(14) . . .
214(15) . . .
205(14) . . .
210(14) . . .
217(15) . . .
185(14) . . .
187(14) . . .
202(14) . . .
203(14) . . .
220(15) . . .
198(14) . . .
199(14) . . .
206(14) . . .
205(14) . . .
197(14) . . .
202(14) . . .
189(14) . . .
198(14) . . .
198(14) . . .
195(14) . . .
206(14) . . .
201(14) . . .
197(14) . . .
199(14) . . .
215(15) . . .
217(15) . . .
198(14) . . .
185(14) . . .
203(14) . . .
191(14) . . .
205(14) . . .
196(14) . . .
208(14) . . .
219(15) . . .
184(14) . . .
186(14) . . .
219(15) . . .
194(14) . . .
196(14) . . .
192(14) . . .
201(14) . . .
199(14) . . .
192(14) . . .
221(15) . . .
211(15) . . .
197(14) . . .
194(14) . . .
217(15) . . .
207(14) . . .
185(14) . . .
205(14) . . .
182(13) . . .
198(14) . . .
214(15) . . .
204(14) . . .
200(14) . . .
184(14) . . .
205(14) . . .
212(15) . . .
178(13) . . .
210(14) . . .
213(15) . . .
203(14) . . .
213(15) . . .
204(14) . . .
189(14) . . .
200(14) . . .
185(14) . . .
229(15) . . .
206(14) . . .
196(14) . . .
178(13) . . .
163(13) . . .
194(14) . . .
206(14) . . .
224(15) . . .
195(14) . . .
208(14) . . .
208(14) . . .
206(14) . . .
202(14) . . .
209(14) . . .
178(13) . . .
176(13) . . .
213(15) . . .
213(15) . . .
198(14) . . .
177(13) . . .
182(13) . . .
187(14) . . .
184(14) . . .
197(14) . . .
198(14) . . .
204(14) . . .
195(14) . . .
215(15) . . .
191(14) . . .
173(13) . . .
190(14) . . .
173(13) . . .
193(14) . . .
190(14) . . .
191(14) . . .
205(14) . . .
186(14) . . .
216(15) . . .
202(14) . . .
187(14) . . .
205(14) . . .
191(14) . . .
196(14) . . .
218(15) . . .
217(15) . . .
202(14) . . .
213(15) . . .
186(14) . . .
212(15) . . .
190(14) . . .
194(14) . . .
208(14) . . .
184(14) . . .
200(14) . . .
199(14) . . .
192(14) . . .
199(14) . . .
193(14) . . .
198(14) . . .
179(13) . . .
201(14) . . .
198(14) . . .
191(14) . . .
198(14) . . .
203(14) . . .
196(14) . . .
208(14) . . .
201(14) . . .
198(14) . . .
189(14) . . .
206(14) . . .
199(14) . . .
217(15) . . .
177(13) . . .
194(14) . . .
201(14) . . .
177(13) . . .
182(13) . . .
211(15) . . .
193(14) . . .
187(14) . . .
208(14) . . .
185(14) . . .
221(15) . . .
210(14) . . .
199(14) . . .
198(14) . . .
188(14) . . .
193(14) . . .
197(14) . . .
223(15) . . .
184(14) . . .
204(14) . . .
190(14) . . .
194(14) . . .
202(14) . . .
180(13) . . .
195(14) . . .
179(13) . . .
194(14) . . .
203(14) . . .
185(14) . . .
196(14) . . .
194(14) . . .
176(13) . . .
192(14) . . .
199(14) . . .
200(14) . . .
185(14) . . .
199(14) . . .
207(14) . . .
214(15) . . .
184(14) . . .
175(13) . . .
163(13) . . .
201(14) . . .
180(13) . . .
197(14) . . .
186(14) . . .
184(14) . . .
208(14) . . .
209(14) . . .
185(14) . . .
200(14) . . .
200(14) . . .
182(13) . . .
182(13) . . .
182(13) . . .
193(14) . . .
207(14) . . .
188(14) . . .
222(15) . . .
205(14) . . .
191(14) . . .
205(14) . . .
212(15) . . .
188(14) . . .
194(14) . . .
190(14) . . .
190(14) . . .
181(13) . . .
181(13) . . .
189(14) . . .
206(14) . . .
188(14) . . .
216(15) . . .
167(13) . . .
200(14) . . .
205(14) . . .
180(13) . . .
164(13) . . .
200(14) . . .
214(15) . . .
195(14) . . .
202(14) . . .
193(14) . . .
183(14) . . .
207(14) . . .
206(14) . . .
179(13) . . .
183(14) . . .
162(13) . . .
189(14) . . .
198(14) . . .
196(14) . . .
214(15) . . .
206(14) . . .
203(14) . . .
214(15) . . .
218(15) . . .
186(14) . . .
191(14) . . .
180(13) . . .
209(14) . . .
181(13) . . .
213(15) . . .
203(14) . . .
198(14) . . .
213(15) . . .
185(14) . . .
196(14) . . .
184(14) . . .
175(13) . . .
226(15) . . .
207(14) . . .
185(14) . . .
177(13) . . .
191(14) . . .
203(14) . . .
209(14) . . .
193(14) . . .
208(14) . . .
188(14) . . .
197(14) . . .
206(14) . . .
214(15) . . .
205(14) . . .
214(15) . . .
174(13) . . .
198(14) . . .
222(15) . . .
201(14) . . .
184(14) . . .
216(15) . . .
201(14) . . .
182(13) . . .
171(13) . . .
212(15) . . .
217(15) . . .
183(14) . . .
173(13) . . .
193(14) . . .
203(14) . . .
197(14) . . .
179(13) . . .
189(14) . . .
179(13) . . .
177(13) . . .
212(15) . . .
206(14) . . .
175(13) . . .
181(13) . . .
177(13) . . .
195(14) . . .
186(14) . . .
184(14) . . .
200(14) . . .
201(14) . . .
200(14) . . .
192(14) . . .
178(13) . . .
197(14) . . .
182(13) . . .
200(14) . . .
173(13) . . .
183(14) . . .
214(15) . . .
223(15) . . .
184(14) . . .
193(14) . . .
177(13) . . .
184(14) . . .
193(14) . . .
208(14) . . .
178(13) . . .
162(13) . . .
188(14) . . .
212(15) . . .
187(14) . . .
191(14) . . .
189(14) . . .
178(13) . . .
179(13) . . .
185(14) . . .
201(14) . . .
190(14) . . .
184(14) . . .
201(14) . . .
174(13) . . .
216(15) . . .
180(13) . . .
210(14) . . .
205(14) . . .
182(13) . . .
178(13) . . .
196(14) . . .
175(13) . . .
174(13) . . .
205(14) . . .
176(13) . . .
200(14) . . .
186(14) . . .
176(13) . . .
184(14) . . .
210(14) . . .
198(14) . . .
199(14) . . .
203(14) . . .
172(13) . . .
201(14) . . .
180(13) . . .
184(14) . . .
226(15) . . .
190(14) . . .
179(13) . . .
194(14) . . .
189(14) . . .
194(14) . . .
210(14) . . .
201(14) . . .
204(14) . . .
192(14) . . .
198(14) . . .
185(14) . . .
186(14) . . .
166(13) . . .
195(14) . . .
188(14) . . .
192(14) . . .
190(14) . . .
212(15) . . .
204(14) . . .
191(14) . . .
181(13) . . .
205(14) . . .
221(15) . . .
191(14) . . .
209(14) . . .
183(14) . . .
198(14) . . .
180(13) . . .
183(14) . . .
188(14) . . .
186(14) . . .
199(14) . . .
192(14) . . .
203(14) . . .
177(13) . . .
194(14) . . .
214(15) . . .
185(14) . . .
200(14) . . .
205(14) . . .
195(14) . . .
202(14) . . .
187(14) . . .
215(15) . . .
209(14) . . .
195(14) . . .
189(14) . . .
223(15) . . .
189(14) . . .
213(15) . . .
182(13) . . .
190(14) . . .
197(14) . . .
191(14) . . .
206(14) . . .
183(14) . . .
193(14) . . .
202(14) . . .
200(14) . . .
215(15) . . .
211(15) . . .
192(14) . . .
184(14) . . .
207(14) . . .
205(14) . . .
200(14) . . .
204(14) . . .
189(14) . . .
186(14) . . .
211(15) . . .
192(14) . . .
164(13) . . .
166(13) . . .
197(14) . . .
199(14) . . .
182(13) . . .
186(14) . . .
200(14) . . .
177(13) . . .
212(15) . . .
183(14) . . .
183(14) . . .
164(13) . . .
223(15) . . .
192(14) . . .
168(13) . . .
191(14) . . .
203(14) . . .
193(14) . . .
190(14) . . .
188(14) . . .
195(14) . . .
193(14) . . .
191(14) . . .
187(14) . . .
192(14) . . .
195(14) . . .
190(14) . . .
209(14) . . .
188(14) . . .
207(14) . . .
203(14) . . .
217(15) . . .
206(14) . . .
205(14) . . .
198(14) . . .
210(14) . . .
196(14) . . .
220(15) . . .
210(14) . . .
186(14) . . .
181(13) . . .
206(14) . . .
190(14) . . .
205(14) . . .
205(14) . . .
198(14) . . .
196(14) . . .
206(14) . . .
188(14) . . .
200(14) . . .
194(14) . . .
194(14) . . .
192(14) . . .
209(14) . . .
180(13) . . .
185(14) . . .
211(15) . . .
200(14) . . .
212(15) . . .
192(14) . . .
220(15) . . .
188(14) . . .
193(14) . . .
210(14) . . .
197(14) . . .
213(15) . . .
206(14) . . .
192(14) . . .
191(14) . . .
182(13) . . .
192(14) . . .
193(14) . . .
202(14) . . .
203(14) . . .
208(14) . . .
192(14) . . .
201(14) . . .
211(15) . . .
223(15) . . .
194(14) . . .
196(14) . . .
178(13) . . .
175(13) . . .
198(14) . . .
192(14) . . .
197(14) . . .
198(14) . . .
173(13) . . .
196(14) . . .
189(14) . . .
213(15) . . .
210(14) . . .
196(14) . . .
184(14) . . .
187(14) . . .
195(14) . . .
210(14) . . .
183(14) . . .
197(14) . . .
189(14) . . .
182(13) . . .
192(14) . . .
197(14) . . .
208(14) . . .
198(14) . . .
206(14) . . .
198(14) . . .
198(14) . . .
196(14) . . .
196(14) . . .
206(14) . . .
200(14) . . .
197(14) . . .
188(14) . . .
174(13) . . .
212(15) . . .
202(14) . . .
209(14) . . .
216(15) . . .
197(14) . . .
198(14) . . .
183(14) . . .
196(14) . . .
194(14) . . .
213(15) . . .
197(14) . . .
200(14) . . .
174(13) . . .
207(14) . . .
202(14) . . .
199(14) . . .
191(14) . . .
202(14) . . .
200(14) . . .
203(14) . . .
190(14) . . .
185(14) . . .
198(14) . . .
190(14) . . .
207(14) . . .
196(14) . . .
197(14) . . .
196(14) . . .
188(14) . . .
196(14) . . .
187(14) . . .
197(14) . . .
172(13) . . .
173(13) . . .
179(13) . . .
196(14) . . .
187(14) . . .
174(13) . . .
165(13) . . .
180(13) . . .
216(15) . . .
197(14) . . .
213(15) . . .
207(14) . . .
196(14) . . .
185(14) . . .
211(15) . . .
207(14) . . .
199(14) . . .
198(14) . . .
224(15) . . .
190(14) . . .
195(14) . . .
195(14) . . .
183(14) . . .
188(14) . . .
227(15) . . .
200(14) . . .
201(14) . . .
200(14) . . .
192(14) . . .
207(14) . . .
203(14) . . .
193(14) . . .
180(13) . . .
191(14) . . .
184(14) . . .
204(14) . . .
195(14) . . .
200(14) . . .
187(14) . . .
223(15) . . .
192(14) . . .
199(14) . . .
203(14) . . .
199(14) . . .
207(14) . . .
192(14) . . .
195(14) . . .
216(15) . . .
220(15) . . .
206(14) . . .
220(15) . . .
210(14) . . .
205(14) . . .
177(13) . . .
194(14) . . .
192(14) . . .
187(14) . . .
197(14) . . .
197(14) . . .
199(14) . . .
183(14) . . .
182(13) . . .
194(14) . . .
206(14) . . .
181(13) . . .
209(14) . . .
189(14) . . .
195(14) . . .
213(15) . . .
211(15) . . .
191(14) . . .
193(14) . . .
192(14) . . .
192(14) . . .
218(15) . . .
206(14) . . .
175(13) . . .
183(14) . . .
183(14) . . .
211(15) . . .
215(15) . . .
209(14) . . .
202(14) . . .
199(14) . . .
218(15) . . .
200(14) . . .
225(15) . . .
197(14) . . .
206(14) . . .
193(14) . . .
204(14) . . .
190(14) . . .
201(14) . . .
200(14) . . .
211(15) . . .
218(15) . . .
205(14) . . .
196(14) . . .
186(14) . . .
228(15) . . .
229(15) . . .
210(14) . . .
182(13) . . .
201(14) . . .
200(14) . . .
207(14) . . .
194(14) . . .
206(14) . . .
199(14) . . .
226(15) . . .
193(14) . . .
205(14) . . .
201(14) . . .
231(15) . . .
210(14) . . .
190(14) . . .
206(14) . . .
201(14) . . .
209(14) . . .
215(15) . . .
192(14) . . .
185(14) . . .
187(14) . . .
215(15) . . .
203(14) . . .
210(14) . . .
204(14) . . .
220(15) . . .
241(16) . . .
204(14) . . .
203(14) . . .
189(14) . . .
175(13) . . .
211(15) . . .
219(15) . . .
218(15) . . .
203(14) . . .
238(15) . . .
212(15) . . .
206(14) . . .
234(15) . . .
221(15) . . .
192(14) . . .
191(14) . . .
211(15) . . .
212(15) . . .
228(15) . . .
217(15) . . .
220(15) . . .
218(15) . . .
232(15) . . .
196(14) . . .
209(14) . . .
252(16) . . .
207(14) . . .
228(15) . . .
222(15) . . .
227(15) . . .
218(15) . . .
236(15) . . .
233(15) . . .
230(15) . . .
231(15) . . .
216(15) . . .
232(15) . . .
215(15) . . .
217(15) . . .
261(16) . . .
239(15) . . .
252(16) . . .
226(15) . . .
240(15) . . .
229(15) . . .
235(15) . . .
234(15) . . .
217(15) . . .
244(16) . . .
244(16) . . .
254(16) . . .
225(15) . . .
242(16) . . .
249(16) . . .
278(17) . . .
280(17) . . .
277(17) . . .
273(17) . . .
298(17) . . .
271(16) . . .
283(17) . . .
361(19) . . .
316(18) . . .
320(18) . . .
320(18) . . .
361(19) . . .
354(19) . . .
397(20) . . .
387(20) . . .
446(21) . . .
459(21) . . .
460(21) . . .
519(23) . . .
547(23) . . .
593(24) . . .
586(24) . . .
690(26) . . .
695(26) . . .
765(28) . . .
830(29) . . .
955(31) . . .
1081(33) . . .
1167(34) . . .
1322(36) . . .
1508(39) . . .
1680(41) . . .
1753(42) . . .
2009(45) . . .
2265(48) . . .
2436(49) . . .
2734(52) . . .
2704(52) . . .
2882(54) . . .
2821(53) . . .
2948(54) . . .
2811(53) . . .
2781(53) . . .
2629(51) . . .
2469(50) . . .
2209(47) . . .
2021(45) . . .
1841(43) . . .
1597(40) . . .
1455(38) . . .
1285(36) . . .
1102(33) . . .
1003(32) . . .
988(31) . . .
848(29) . . .
786(28) . . .
686(26) . . .
645(25) . . .
626(25) . . .
570(24) . . .
520(23) . . .
478(22) . . .
477(22) . . .
421(21) . . .
408(20) . . .
425(21) . . .
392(20) . . .
387(20) . . .
346(19) . . .
347(19) . . .
323(18) . . .
334(18) . . .
343(19) . . .
295(17) . . .
296(17) . . .
279(17) . . .
303(17) . . .
289(17) . . .
255(16) . . .
287(17) . . .
286(17) . . .
260(16) . . .
258(16) . . .
233(15) . . .
244(16) . . .
266(16) . . .
248(16) . . .
239(15) . . .
241(16) . . .
268(16) . . .
239(15) . . .
222(15) . . .
241(16) . . .
224(15) . . .
224(15) . . .
215(15) . . .
228(15) . . .
238(15) . . .
212(15) . . .
215(15) . . .
213(15) . . .
230(15) . . .
222(15) . . .
206(14) . . .
243(16) . . .
218(15) . . .
218(15) . . .
222(15) . . .
223(15) . . .
211(15) . . .
225(15) . . .
214(15) . . .
181(13) . . .
219(15) . . .
203(14) . . .
212(15) . . .
192(14) . . .
190(14) . . .
180(13) . . .
199(14) . . .
208(14) . . .
211(15) . . .
212(15) . . .
199(14) . . .
201(14) . . .
191(14) . . .
222(15) . . .
202(14) . . .
202(14) . . .
176(13) . . .
201(14) . . .
177(13) . . .
216(15) . . .
204(14) . . .
216(15) . . .
219(15) . . .
213(15) . . .
204(14) . . .
178(13) . . .
199(14) . . .
188(14) . . .
201(14) . . .
213(15) . . .
182(13) . . .
188(14) . . .
181(13) . . .
214(15) . . .
205(14) . . .
188(14) . . .
201(14) . . .
193(14) . . .
198(14) . . .
185(14) . . .
191(14) . . .
199(14) . . .
198(14) . . .
202(14) . . .
193(14) . . .
195(14) . . .
211(15) . . .
193(14) . . .
198(14) . . .
205(14) . . .
193(14) . . .
210(14) . . .
198(14) . . .
192(14) . . .
193(14) . . .
200(14) . . .
196(14) . . .
201(14) . . .
204(14) . . .
190(14) . . .
184(14) . . .
198(14) . . .
171(13) . . .
183(14) . . .
186(14) . . .
171(13) . . .
181(13) . . .
196(14) . . .
183(14) . . .
227(15) . . .
209(14) . . .
183(14) . . .
175(13) . . .
184(14) . . .
198(14) . . .
178(13) . . .
181(13) . . .
172(13) . . .
169(13) . . .
190(14) . . .
186(14) . . .
159(13) . . .
201(14) . . .
189(14) . . .
178(13) . . .
182(13) . . .
181(13) . . .
178(13) . . .
199(14) . . .
212(15) . . .
194(14) . . .
192(14) . . .
178(13) . . .
197(14) . . .
179(13) . . .
196(14) . . .
184(14) . . .
195(14) . . .
185(14) . . .
196(14) . . .
193(14) . . .
185(14) . . .
209(14) . . .
182(13) . . .
192(14) . . .
166(13) . . .
176(13) . . .
183(14) . . .
204(14) . . .
165(13) . . .
163(13) . . .
170(13) . . .
186(14) . . .
185(14) . . .
179(13) . . .
179(13) . . .
207(14) . . .
193(14) . . .
196(14) . . .
183(14) . . .
187(14) . . .
198(14) . . .
174(13) . . .
177(13) . . .
198(14) . . .
199(14) . . .
205(14) . . .
181(13) . . .
184(14) . . .
195(14) . . .
173(13) . . .
184(14) . . .
165(13) . . .
189(14) . . .
192(14) . . .
188(14) . . .
177(13) . . .
181(13) . . .
198(14) . . .
185(14) . . .
203(14) . . .
185(14) . . .
179(13) . . .
209(14) . . .
159(13) . . .
188(14) . . .
173(13) . . .
171(13) . . .
182(13) . . .
178(13) . . .
198(14) . . .
186(14) . . .
167(13) . . .
183(14) . . .
200(14) . . .
178(13) . . .
189(14) . . .
194(14) . . .
194(14) . . .
164(13) . . .
185(14) . . .
199(14) . . .
173(13) . . .
167(13) . . .
187(14) . . .
166(13) . . .
173(13) . . .
172(13) . . .
185(14) . . .
156(12) . . .
172(13) . . .
171(13) . . .
174(13) . . .
181(13) . . .
178(13) . . .
174(13) . . .
179(13) . . .
174(13) . . .
184(14) . . .
187(14) . . .
163(13) . . .
172(13) . . .
187(14) . . .
194(14) . . .
191(14) . . .
196(14) . . .
183(14) . . .
189(14) . . .
196(14) . . .
194(14) . . .
193(14) . . .
182(13) . . .
170(13) . . .
173(13) . . .
186(14) . . .
165(13) . . .
168(13) . . .
164(13) . . .
204(14) . . .
185(14) . . .
184(14) . . .
169(13) . . .
189(14) . . .
182(13) . . .
168(13) . . .
179(13) . . .
165(13) . . .
184(14) . . .
170(13) . . .
168(13) . . .
197(14) . . .
181(13) . . .
186(14) . . .
156(12) . . .
173(13) . . .
171(13) . . .
176(13) . . .
163(13) . . .
156(12) . . .
183(14) . . .
177(13) . . .
173(13) . . .
175(13) . . .
180(13) . . .
155(12) . . .
185(14) . . .
194(14) . . .
180(13) . . .
164(13) . . .
164(13) . . .
157(13) . . .
177(13) . . .
177(13) . . .
147(12) . . .
155(12) . . .
164(13) . . .
176(13) . . .
196(14) . . .
174(13) . . .
183(14) . . .
150(12) . . .
167(13) . . .
169(13) . . .
175(13) . . .
165(13) . . .
179(13) . . .
167(13) . . .
217(15) . . .
173(13) . . .
162(13) . . .
179(13) . . .
174(13) . . .
175(13) . . .
170(13) . . .
175(13) . . .
178(13) . . .
192(14) . . .
166(13) . . .
165(13) . . .
196(14) . . .
174(13) . . .
165(13) . . .
174(13) . . .
175(13) . . .
178(13) . . .
183(14) . . .
169(13) . . .
158(13) . . .
165(13) . . .
180(13) . . .
185(14) . . .
178(13) . . .
180(13) . . .
178(13) . . .
204(14) . . .
182(13) . . .
176(13) . . .
167(13) . . .
150(12) . . .
175(13) . . .
151(12) . . .
159(13) . . .
172(13) . . .
152(12) . . .
168(13) . . .
180(13) . . .
172(13) . . .
147(12) . . .
179(13) . . .
182(13) . . .
170(13) . . .
161(13) . . .
169(13) . . .
166(13) . . .
172(13) . . .
164(13) . . .
185(14) . . .
172(13) . . .
187(14) . . .
168(13) . . .
171(13) . . .
186(14) . . .
177(13) . . .
173(13) . . .
193(14) . . .
157(13) . . .
186(14) . . .
179(13) . . .
156(12) . . .
186(14) . . .
169(13) . . .
175(13) . . .
191(14) . . .
186(14) . . .
178(13) . . .
174(13) . . .
162(13) . . .
178(13) . . .
175(13) . . .
157(13) . . .
155(12) . . .
177(13) . . .
168(13) . . .
185(14) . . .
176(13) . . .
192(14) . . .
158(13) . . .
170(13) . . .
168(13) . . .
170(13) . . .
165(13) . . .
170(13) . . .
171(13) . . .
178(13) . . .
154(12) . . .
172(13) . . .
184(14) . . .
175(13) . . .
180(13) . . .
186(14) . . .
175(13) . . .
155(12) . . .
156(12) . . .
194(14) . . .
175(13) . . .
173(13) . . .
153(12) . . .
190(14) . . .
177(13) . . .
164(13) . . .
171(13) . . .
171(13) . . .
168(13) . . .
187(14) . . .
183(14) . . .
169(13) . . .
177(13) . . .
161(13) . . .
184(14) . . .
181(13) . . .
162(13) . . .
157(13) . . .
186(14) . . .
173(13) . . .
191(14) . . .
167(13) . . .
187(14) . . .
174(13) . . .
173(13) . . .
172(13) . . .
172(13) . . .
173(13) . . .
180(13) . . .
165(13) . . .
155(12) . . .
174(13) . . .
173(13) . . .
164(13) . . .
178(13) . . .
175(13) . . .
171(13) . . .
204(14) . . .
159(13) . . .
166(13) . . .
172(13) . . .
167(13) . . .
175(13) . . .
157(13) . . .
166(13) . . .
176(13) . . .
177(13) . . .
178(13) . . .
171(13) . . .
168(13) . . .
179(13) . . .
167(13) . . .
177(13) . . .
181(13) . . .
164(13) . . .
166(13) . . .
185(14) . . .
167(13) . . .
174(13) . . .
181(13) . . .
177(13) . . .
179(13) . . .
164(13) . . .
178(13) . . .
175(13) . . .
178(13) . . .
164(13) . . .
198(14) . . .
175(13) . . .
185(14) . . .
149(12) . . .
158(13) . . .
160(13) . . .
164(13) . . .
174(13) . . .
158(13) . . .
170(13) . . .
158(13) . . .
168(13) . . .
170(13) . . .
157(13) . . .
152(12) . . .
178(13) . . .
192(14) . . .
164(13) . . .
146(12) . . .
172(13) . . .
166(13) . . .
178(13) . . .
185(14) . . .
169(13) . . .
151(12) . . .
167(13) . . .
179(13) . . .
156(12) . . .
181(13) . . .
180(13) . . .
183(14) . . .
160(13) . . .
173(13) . . .
164(13) . . .
178(13) . . .
169(13) . . .
168(13) . . .
154(12) . . .
173(13) . . .
163(13) . . .
172(13) . . .
173(13) . . .
171(13) . . .
177(13) . . .
180(13) . . .
163(13) . . .
172(13) . . .
179(13) . . .
184(14) . . .
179(13) . . .
182(13) . . .
170(13) . . .
175(13) . . .
167(13) . . .
182(13) . . .
166(13) . . .
178(13) . . .
162(13) . . .
190(14) . . .
190(14) . . .
189(14) . . .
197(14) . . .
174(13) . . .
176(13) . . .
180(13) . . .
172(13) . . .
167(13) . . .
178(13) . . .
145(12) . . .
178(13) . . .
159(13) . . .
172(13) . . .
168(13) . . .
164(13) . . .
168(13) . . .
167(13) . . .
157(13) . . .
165(13) . . .
183(14) . . .
159(13) . . .
171(13) . . .
157(13) . . .
172(13) . . .
154(12) . . .
160(13) . . .
153(12) . . .
169(13) . . .
171(13) . . .
174(13) . . .
166(13) . . .
146(12) . . .
186(14) . . .
163(13) . . .
187(14) . . .
160(13) . . .
174(13) . . .
142(12) . . .
177(13) . . .
165(13) . . .
181(13) . . .
151(12) . . .
162(13) . . .
154(12) . . .
161(13) . . .
175(13) . . .
177(13) . . .
156(12) . . .
160(13) . . .
157(13) . . .
150(12) . . .
160(13) . . .
158(13) . . .
158(13) . . .
177(13) . . .
168(13) . . .
156(12) . . .
188(14) . . .
165(13) . . .
168(13) . . .
183(14) . . .
170(13) . . .
157(13) . . .
170(13) . . .
177(13) . . .
174(13) . . .
166(13) . . .
161(13) . . .
180(13) . . .
164(13) . . .
156(12) . . .
177(13) . . .
172(13) . . .
173(13) . . .
174(13) . . .
168(13) . . .
193(14) . . .
170(13) . . .
163(13) . . .
175(13) . . .
186(14) . . .
159(13) . . .
176(13) . . .
163(13) . . .
179(13) . . .
150(12) . . .
156(12) . . .
157(13) . . .
156(12) . . .
151(12) . . .
173(13) . . .
163(13) . . .
153(12) . . .
175(13) . . .
154(12) . . .
172(13) . . .
176(13) . . .
198(14) . . .
172(13) . . .
176(13) . . .
154(12) . . .
160(13) . . .
161(13) . . .
170(13) . . .
177(13) . . .
169(13) . . .
174(13) . . .
165(13) . . .
152(12) . . .
154(12) . . .
182(13) . . .
163(13) . . .
179(13) . . .
177(13) . . .
175(13) . . .
166(13) . . .
189(14) . . .
162(13) . . .
167(13) . . .
172(13) . . .
139(12) . . .
190(14) . . .
165(13) . . .
156(12) . . .
172(13) . . .
186(14) . . .
163(13) . . .
170(13) . . .
166(13) . . .
163(13) . . .
171(13) . . .
166(13) . . .
160(13) . . .
152(12) . . .
170(13) . . .
172(13) . . .
153(12) . . .
161(13) . . .
185(14) . . .
159(13) . . .
162(13) . . .
141(12) . . .
154(12) . . .
180(13) . . .
168(13) . . .
161(13) . . .
161(13) . . .
162(13) . . .
154(12) . . .
156(12) . . .
184(14) . . .
172(13) . . .
164(13) . . .
169(13) . . .
169(13) . . .
177(13) . . .
173(13) . . .
184(14) . . .
192(14) . . .
165(13) . . .
179(13) . . .
170(13) . . .
169(13) . . .
166(13) . . .
169(13) . . .
191(14) . . .
191(14) . . .
167(13) . . .
183(14) . . .
170(13) . . .
150(12) . . .
161(13) . . .
155(12) . . .
176(13) . . .
156(12) . . .
146(12) . . .
174(13) . . .
146(12) . . .
197(14) . . .
186(14) . . .
162(13) . . .
180(13) . . .
171(13) . . .
171(13) . . .
142(12) . . .
148(12) . . .
174(13) . . .
150(12) . . .
153(12) . . .
177(13) . . .
170(13) . . .
139(12) . . .
177(13) . . .
157(13) . . .
183(14) . . .
168(13) . . .
175(13) . . .
180(13) . . .
152(12) . . .
156(12) . . .
174(13) . . .
160(13) . . .
190(14) . . .
163(13) . . .
143(12) . . .
183(14) . . .
176(13) . . .
172(13) . . .
172(13) . . .
171(13) . . .
172(13) . . .
174(13) . . .
164(13) . . .
183(14) . . .
182(13) . . .
179(13) . . .
170(13) . . .
182(13) . . .
163(13) . . .
171(13) . . .
141(12) . . .
179(13) . . .
191(14) . . .
175(13) . . .
168(13) . . .
153(12) . . .
173(13) . . .
190(14) . . .
158(13) . . .
169(13) . . .
181(13) . . .
193(14) . . .
193(14) . . .
165(13) . . .
152(12) . . .
192(14) . . .
177(13) . . .
165(13) . . .
170(13) . . .
151(12) . . .
159(13) . . .
166(13) . . .
159(13) . . .
160(13) . . .
189(14) . . .
180(13) . . .
149(12) . . .
173(13) . . .
166(13) . . .
139(12) . . .
166(13) . . .
215(15) . . .
152(12) . . .
162(13) . . .
152(12) . . .
164(13) . . .
161(13) . . .
176(13) . . .
189(14) . . .
175(13) . . .
193(14) . . .
174(13) . . .
193(14) . . .
163(13) . . .
175(13) . . .
170(13) . . .
170(13) . . .
190(14) . . .
181(13) . . .
148(12) . . .
198(14) . . .
181(13) . . .
198(14) . . .
191(14) . . .
176(13) . . .
192(14) . . .
173(13) . . .
175(13) . . .
179(13) . . .
180(13) . . .
157(13) . . .
182(13) . . .
181(13) . . .
195(14) . . .
160(13) . . .
172(13) . . .
173(13) . . .
179(13) . . .
188(14) . . .
169(13) . . .
174(13) . . .
185(14) . . .
182(13) . . .
165(13) . . .
180(13) . . .
161(13) . . .
162(13) . . .
191(14) . . .
181(13) . . .
197(14) . . .
196(14) . . .
194(14) . . .
203(14) . . .
215(15) . . .
187(14) . . .
192(14) . . .
188(14) . . .
197(14) . . .
192(14) . . .
200(14) . . .
208(14) . . .
206(14) . . .
202(14) . . .
198(14) . . .
191(14) . . .
201(14) . . .
235(15) . . .
212(15) . . .
223(15) . . .
191(14) . . .
212(15) . . .
223(15) . . .
252(16) . . .
199(14) . . .
229(15) . . .
230(15) . . .
212(15) . . .
247(16) . . .
228(15) . . .
246(16) . . .
279(17) . . .
276(17) . . .
274(17) . . .
297(17) . . .
297(17) . . .
316(18) . . .
290(17) . . .
337(18) . . .
301(17) . . .
340(18) . . .
360(19) . . .
358(19) . . .
391(20) . . .
412(20) . . .
466(22) . . .
522(23) . . .
514(23) . . .
559(24) . . .
601(25) . . .
622(25) . . .
739(27) . . .
726(27) . . .
776(28) . . .
846(29) . . .
971(31) . . .
1040(32) . . .
1109(33) . . .
1138(34) . . .
1354(37) . . .
1371(37) . . .
1425(38) . . .
1512(39) . . .
1585(40) . . .
1511(39) . . .
1601(40) . . .
1572(40) . . .
1460(38) . . .
1391(37) . . .
1353(37) . . .
1220(35) . . .
1153(34) . . .
1065(33) . . .
986(31) . . .
886(30) . . .
817(29) . . .
771(28) . . .
679(26) . . .
611(25) . . .
602(25) . . .
548(23) . . .
525(23) . . .
493(22) . . .
432(21) . . .
419(20) . . .
400(20) . . .
355(19) . . .
370(19) . . .
330(18) . . .
347(19) . . .
334(18) . . .
294(17) . . .
290(17) . . .
250(16) . . .
277(17) . . .
266(16) . . .
239(15) . . .
259(16) . . .
215(15) . . .
255(16) . . .
228(15) . . .
233(15) . . .
214(15) . . .
229(15) . . .
220(15) . . .
224(15) . . .
188(14) . . .
203(14) . . .
223(15) . . .
208(14) . . .
196(14) . . .
204(14) . . .
194(14) . . .
189(14) . . .
174(13) . . .
194(14) . . .
176(13) . . .
203(14) . . .
206(14) . . .
205(14) . . .
162(13) . . .
191(14) . . .
169(13) . . .
175(13) . . .
206(14) . . .
187(14) . . .
162(13) . . .
182(13) . . .
197(14) . . .
184(14) . . .
203(14) . . .
174(13) . . .
208(14) . . .
175(13) . . .
165(13) . . .
203(14) . . .
179(13) . . .
185(14) . . .
184(14) . . .
174(13) . . .
184(14) . . .
174(13) . . .
162(13) . . .
197(14) . . .
179(13) . . .
187(14) . . .
177(13) . . .
201(14) . . .
181(13) . . .
165(13) . . .
131(11) . . .
187(14) . . .
161(13) . . .
189(14) . . .
173(13) . . .
149(12) . . .
181(13) . . .
181(13) . . .
168(13) . . .
176(13) . . .
191(14) . . .
209(14) . . .
188(14) . . .
177(13) . . .
163(13) . . .
172(13) . . .
182(13) . . .
168(13) . . .
156(12) . . .
185(14) . . .
163(13) . . .
168(13) . . .
173(13) . . .
185(14) . . .
154(12) . . .
173(13) . . .
170(13) . . .
180(13) . . .
177(13) . . .
167(13) . . .
184(14) . . .
188(14) . . .
181(13) . . .
167(13) . . .
184(14) . . .
157(13) . . .
175(13) . . .
157(13) . . .
154(12) . . .
149(12) . . .
185(14) . . .
176(13) . . .
184(14) . . .
187(14) . . .
162(13) . . .
153(12) . . .
150(12) . . .
175(13) . . .
156(12) . . .
159(13) . . .
185(14) . . .
155(12) . . .
190(14) . . .
166(13) . . .
155(12) . . .
160(13) . . .
155(12) . . .
177(13) . . .
185(14) . . .
145(12) . . .
172(13) . . .
150(12) . . .
174(13) . . .
174(13) . . .
199(14) . . .
184(14) . . .
169(13) . . .
164(13) . . .
177(13) . . .
153(12) . . .
176(13) . . .
170(13) . . .
173(13) . . .
174(13) . . .
169(13) . . .
162(13) . . .
174(13) . . .
165(13) . . .
168(13) . . .
185(14) . . .
175(13) . . .
170(13) . . .
171(13) . . .
170(13) . . .
165(13) . . .
144(12) . . .
144(12) . . .
205(14) . . .
151(12) . . .
168(13) . . .
150(12) . . .
175(13) . . .
162(13) . . .
150(12) . . .
154(12) . . .
187(14) . . .
178(13) . . .
161(13) . . .
152(12) . . .
158(13) . . .
184(14) . . .
163(13) . . .
155(12) . . .
164(13) . . .
167(13) . . .
186(14) . . .
172(13) . . .
179(13) . . .
166(13) . . .
172(13) . . .
170(13) . . .
181(13) . . .
169(13) . . .
141(12) . . .
166(13) . . .
146(12) . . .
178(13) . . .
160(13) . . .
165(13) . . .
166(13) . . .
169(13) . . .
162(13) . . .
154(12) . . .
165(13) . . .
155(12) . . .
169(13) . . .
173(13) . . .
185(14) . . .
161(13) . . .
182(13) . . .
182(13) . . .
175(13) . . .
193(14) . . .
160(13) . . .
172(13) . . .
170(13) . . .
165(13) . . .
187(14) . . .
160(13) . . .
178(13) . . .
185(14) . . .
150(12) . . .
189(14) . . .
155(12) . . .
167(13) . . .
159(13) . . .
175(13) . . .
159(13) . . .
177(13) . . .
164(13) . . .
169(13) . . .
172(13) . . .
178(13) . . .
158(13) . . .
168(13) . . .
175(13) . . .
158(13) . . .
173(13) . . .
181(13) . . .
171(13) . . .
182(13) . . .
192(14) . . .
179(13) . . .
180(13) . . .
175(13) . . .
184(14) . . .
182(13) . . .
177(13) . . .
181(13) . . .
193(14) . . .
212(15) . . .
203(14) . . .
211(15) . . .
203(14) . . .
220(15) . . .
207(14) . . .
208(14) . . .
224(15) . . .
219(15) . . .
187(14) . . .
207(14) . . .
201(14) . . .
215(15) . . .
217(15) . . .
248(16) . . .
226(15) . . .
260(16) . . .
261(16) . . .
235(15) . . .
284(17) . . .
264(16) . . .
269(16) . . .
334(18) . . .
293(17) . . .
314(18) . . .
335(18) . . .
337(18) . . .
377(19) . . .
350(19) . . .
412(20) . . .
434(21) . . .
487(22) . . .
498(22) . . .
565(24) . . .
606(25) . . .
683(26) . . .
749(27) . . .
763(28) . . .
866(29) . . .
961(31) . . .
979(31) . . .
1057(33) . . .
1117(33) . . .
1164(34) . . .
1145(34) . . .
1130(34) . . .
1099(33) . . .
1117(33) . . .
1001(32) . . .
917(30) . . .
898(30) . . .
788(28) . . .
784(28) . . .
720(27) . . .
634(25) . . .
600(24) . . .
580(24) . . .
500(22) . . .
443(21) . . .
437(21) . . .
394(20) . . .
381(20) . . .
361(19) . . .
377(19) . . .
345(19) . . .
306(17) . . .
265(16) . . .
274(17) . . .
266(16) . . .
240(15) . . .
241(16) . . .
243(16) . . .
228(15) . . .
241(16) . . .
243(16) . . .
237(15) . . .
229(15) . . .
199(14) . . .
238(15) . . .
224(15) . . .
229(15) . . .
211(15) . . .
224(15) . . .
189(14) . . .
205(14) . . .
201(14) . . .
197(14) . . .
197(14) . . .
201(14) . . .
197(14) . . .
197(14) . . .
181(13) . . .
165(13) . . .
180(13) . . .
182(13) . . .
163(13) . . .
191(14) . . .
170(13) . . .
179(13) . . .
170(13) . . .
185(14) . . .
179(13) . . .
184(14) . . .
186(14) . . .
172(13) . . .
175(13) . . .
160(13) . . .
178(13) . . .
180(13) . . .
177(13) . . .
170(13) . . .
169(13) . . .
162(13) . . .
164(13) . . .
170(13) . . .
180(13) . . .
152(12) . . .
181(13) . . .
187(14) . . .
165(13) . . .
160(13) . . .
168(13) . . .
197(14) . . .
165(13) . . .
181(13) . . .
165(13) . . .
183(14) . . .
164(13) . . .
193(14) . . .
157(13) . . .
167(13) . . .
165(13) . . .
164(13) . . .
161(13) . . .
169(13) . . .
167(13) . . .
151(12) . . .
147(12) . . .
162(13) . . .
157(13) . . .
145(12) . . .
160(13) . . .
153(12) . . .
168(13) . . .
161(13) . . .
175(13) . . .
153(12) . . .
149(12) . . .
159(13) . . .
173(13) . . .
154(12) . . .
169(13) . . .
160(13) . . .
154(12) . . .
175(13) . . .
158(13) . . .
148(12) . . .
171(13) . . .
176(13) . . .
187(14) . . .
173(13) . . .
179(13) . . .
150(12) . . .
142(12) . . .
168(13) . . .
162(13) . . .
151(12) . . .
147(12) . . .
123(11) . . .
176(13) . . .
153(12) . . .
147(12) . . .
153(12) . . .
160(13) . . .
172(13) . . .
148(12) . . .
190(14) . . .
142(12) . . .
142(12) . . .
152(12) . . .
165(13) . . .
167(13) . . .
156(12) . . .
141(12) . . .
148(12) . . .
136(12) . . .
158(13) . . .
160(13) . . .
157(13) . . .
138(12) . . .
172(13) . . .
153(12) . . .
149(12) . . .
154(12) . . .
124(11) . . .
151(12) . . .
180(13) . . .
130(11) . . .
155(12) . . .
156(12) . . .
149(12) . . .
159(13) . . .
153(12) . . .
160(13) . . .
164(13) . . .
143(12) . . .
147(12) . . .
154(12) . . .
150(12) . . .
136(12) . . .
150(12) . . .
148(12) . . .
160(13) . . .
138(12) . . .
160(13) . . .
166(13) . . .
152(12) . . .
151(12) . . .
134(12) . . .
158(13) . . .
158(13) . . .
138(12) . . .
148(12) . . .
167(13) . . .
161(13) . . .
150(12) . . .
153(12) . . .
154(12) . . .
152(12) . . .
161(13) . . .
166(13) . . .
162(13) . . .
150(12) . . .
154(12) . . .
140(12) . . .
150(12) . . .
152(12) . . .
148(12) . . .
145(12) . . .
144(12) . . .
147(12) . . .
165(13) . . .
177(13) . . .
151(12) . . .
153(12) . . .
142(12) . . .
166(13) . . .
158(13) . . .
156(12) . . .
134(12) . . .
162(13) . . .
163(13) . . .
149(12) . . .
133(12) . . .
144(12) . . .
150(12) . . .
154(12) . . .
145(12) . . .
149(12) . . .
154(12) . . .
144(12) . . .
169(13) . . .
154(12) . . .
165(13) . . .
140(12) . . .
150(12) . . .
166(13) . . .
146(12) . . .
159(13) . . .
147(12) . . .
145(12) . . .
129(11) . . .
144(12) . . .
145(12) . . .
156(12) . . .
138(12) . . .
131(11) . . .
138(12) . . .
157(13) . . .
139(12) . . .
145(12) . . .
140(12) . . .
139(12) . . .
142(12) . . .
151(12) . . .
164(13) . . .
144(12) . . .
131(11) . . .
155(12) . . .
139(12) . . .
160(13) . . .
134(12) . . .
156(12) . . .
139(12) . . .
155(12) . . .
156(12) . . .
153(12) . . .
151(12) . . .
151(12) . . .
146(12) . . .
144(12) . . .
148(12) . . .
138(12) . . .
162(13) . . .
143(12) . . .
172(13) . . .
135(12) . . .
143(12) . . .
152(12) . . .
164(13) . . .
153(12) . . .
163(13) . . .
175(13) . . .
161(13) . . .
145(12) . . .
165(13) . . .
152(12) . . .
138(12) . . .
151(12) . . .
166(13) . . .
144(12) . . .
143(12) . . .
161(13) . . .
139(12) . . .
143(12) . . .
139(12) . . .
146(12) . . .
157(13) . . .
169(13) . . .
150(12) . . .
158(13) . . .
140(12) . . .
148(12) . . .
158(13) . . .
153(12) . . .
138(12) . . .
158(13) . . .
147(12) . . .
154(12) . . .
149(12) . . .
157(13) . . .
171(13) . . .
140(12) . . .
150(12) . . .
157(13) . . .
154(12) . . .
115(11) . . .
145(12) . . .
137(12) . . .
172(13) . . .
149(12) . . .
167(13) . . .
155(12) . . .
154(12) . . .
157(13) . . .
129(11) . . .
142(12) . . .
120(11) . . .
157(13) . . .
161(13) . . .
135(12) . . .
149(12) . . .
138(12) . . .
166(13) . . .
145(12) . . .
150(12) . . .
146(12) . . .
168(13) . . .
158(13) . . .
147(12) . . .
166(13) . . .
149(12) . . .
156(12) . . .
161(13) . . .
176(13) . . .
150(12) . . .
154(12) . . .
132(11) . . .
166(13) . . .
165(13) . . .
140(12) . . .
131(11) . . .
166(13) . . .
152(12) . . .
160(13) . . .
146(12) . . .
150(12) . . .
149(12) . . .
158(13) . . .
145(12) . . .
148(12) . . .
132(11) . . .
167(13) . . .
161(13) . . .
153(12) . . .
135(12) . . .
146(12) . . .
154(12) . . .
155(12) . . .
158(13) . . .
158(13) . . .
149(12) . . .
156(12) . . .
165(13) . . .
132(11) . . .
161(13) . . .
156(12) . . .
160(13) . . .
167(13) . . .
163(13) . . .
138(12) . . .
156(12) . . .
157(13) . . .
162(13) . . .
157(13) . . .
150(12) . . .
151(12) . . .
158(13) . . .
161(13) . . .
172(13) . . .
141(12) . . .
164(13) . . .
146(12) . . .
149(12) . . .
154(12) . . .
151(12) . . .
159(13) . . .
161(13) . . .
156(12) . . .
157(13) . . .
162(13) . . .
165(13) . . .
160(13) . . .
153(12) . . .
153(12) . . .
133(12) . . .
142(12) . . .
153(12) . . .
139(12) . . .
146(12) . . .
132(11) . . .
154(12) . . .
151(12) . . .
151(12) . . .
160(13) . . .
153(12) . . .
146(12) . . .
124(11) . . .
145(12) . . .
136(12) . . .
161(13) . . .
141(12) . . .
140(12) . . .
146(12) . . .
151(12) . . .
156(12) . . .
141(12) . . .
152(12) . . .
148(12) . . .
143(12) . . .
142(12) . . .
153(12) . . .
162(13) . . .
139(12) . . .
150(12) . . .
162(13) . . .
170(13) . . .
150(12) . . .
167(13) . . .
145(12) . . .
146(12) . . .
143(12) . . .
136(12) . . .
164(13) . . .
142(12) . . .
148(12) . . .
150(12) . . .
146(12) . . .
133(12) . . .
146(12) . . .
155(12) . . .
124(11) . . .
154(12) . . .
153(12) . . .
165(13) . . .
142(12) . . .
165(13) . . .
149(12) . . .
138(12) . . .
140(12) . . .
128(11) . . .
161(13) . . .
139(12) . . .
139(12) . . .
146(12) . . .
140(12) . . .
142(12) . . .
143(12) . . .
132(11) . . .
144(12) . . .
145(12) . . .
158(13) . . .
136(12) . . .
157(13) . . .
158(13) . . .
182(13) . . .
162(13) . . .
156(12) . . .
150(12) . . .
143(12) . . .
159(13) . . .
166(13) . . .
146(12) . . .
128(11) . . .
143(12) . . .
150(12) . . .
162(13) . . .
152(12) . . .
162(13) . . .
152(12) . . .
128(11) . . .
142(12) . . .
143(12) . . .
161(13) . . .
185(14) . . .
152(12) . . .
139(12) . . .
155(12) . . .
154(12) . . .
136(12) . . .
155(12) . . .
133(12) . . .
161(13) . . .
133(12) . . .
133(12) . . .
140(12) . . .
161(13) . . .
149(12) . . .
131(11) . . .
151(12) . . .
135(12) . . .
155(12) . . .
133(12) . . .
134(12) . . .
154(12) . . .
155(12) . . .
136(12) . . .
148(12) . . .
151(12) . . .
133(12) . . .
139(12) . . .
137(12) . . .
150(12) . . .
154(12) . . .
128(11) . . .
156(12) . . .
157(13) . . .
129(11) . . .
123(11) . . .
163(13) . . .
140(12) . . .
152(12) . . .
152(12) . . .
142(12) . . .
140(12) . . .
141(12) . . .
158(13) . . .
152(12) . . .
141(12) . . .
139(12) . . .
151(12) . . .
132(11) . . .
130(11) . . .
128(11) . . .
152(12) . . .
138(12) . . .
138(12) . . .
138(12) . . .
162(13) . . .
144(12) . . .
147(12) . . .
134(12) . . .
148(12) . . .
159(13) . . .
146(12) . . .
160(13) . . .
165(13) . . .
154(12) . . .
150(12) . . .
166(13) . . .
148(12) . . .
145(12) . . .
156(12) . . .
131(11) . . .
148(12) . . .
134(12) . . .
161(13) . . .
140(12) . . .
169(13) . . .
148(12) . . .
145(12) . . .
142(12) . . .
157(13) . . .
131(11) . . .
142(12) . . .
148(12) . . .
173(13) . . .
149(12) . . .
140(12) . . .
132(11) . . .
153(12) . . .
150(12) . . .
118(11) . . .
146(12) . . .
159(13) . . .
165(13) . . .
145(12) . . .
177(13) . . .
152(12) . . .
159(13) . . .
132(11) . . .
141(12) . . .
148(12) . . .
150(12) . . .
152(12) . . .
149(12) . . .
146(12) . . .
161(13) . . .
144(12) . . .
133(12) . . .
153(12) . . .
142(12) . . .
156(12) . . .
133(12) . . .
151(12) . . .
125(11) . . .
141(12) . . .
142(12) . . .
149(12) . . .
161(13) . . .
149(12) . . .
153(12) . . .
153(12) . . .
131(11) . . .
146(12) . . .
159(13) . . .
146(12) . . .
136(12) . . .
136(12) . . .
139(12) . . .
156(12) . . .
155(12) . . .
141(12) . . .
163(13) . . .
149(12) . . .
143(12) . . .
133(12) . . .
128(11) . . .
142(12) . . .
151(12) . . .
148(12) . . .
141(12) . . .
167(13) . . .
145(12) . . .
148(12) . . .
134(12) . . .
144(12) . . .
136(12) . . .
173(13) . . .
162(13) . . .
153(12) . . .
159(13) . . .
176(13) . . .
163(13) . . .
131(11) . . .
149(12) . . .
160(13) . . .
153(12) . . .
133(12) . . .
142(12) . . .
146(12) . . .
158(13) . . .
149(12) . . .
154(12) . . .
153(12) . . .
165(13) . . .
154(12) . . .
160(13) . . .
141(12) . . .
132(11) . . .
123(11) . . .
137(12) . . .
140(12) . . .
163(13) . . .
154(12) . . .
157(13) . . .
155(12) . . .
150(12) . . .
169(13) . . .
156(12) . . .
145(12) . . .
142(12) . . .
166(13) . . .
153(12) . . .
148(12) . . .
137(12) . . .
140(12) . . .
138(12) . . .
154(12) . . .
143(12) . . .
150(12) . . .
153(12) . . .
149(12) . . .
143(12) . . .
157(13) . . .
157(13) . . .
148(12) . . .
162(13) . . .
137(12) . . .
149(12) . . .
130(11) . . .
125(11) . . .
140(12) . . .
141(12) . . .
142(12) . . .
159(13) . . .
149(12) . . .
148(12) . . .
155(12) . . .
176(13) . . .
130(11) . . .
128(11) . . .
162(13) . . .
143(12) . . .
142(12) . . .
146(12) . . .
148(12) . . .
147(12) . . .
152(12) . . .
140(12) . . .
159(13) . . .
147(12) . . .
148(12) . . .
161(13) . . .
134(12) . . .
147(12) . . .
137(12) . . .
150(12) . . .
143(12) . . .
138(12) . . .
159(13) . . .
136(12) . . .
152(12) . . .
145(12) . . .
140(12) . . .
139(12) . . .
116(11) . . .
144(12) . . .
136(12) . . .
151(12) . . .
151(12) . . .
146(12) . . .
150(12) . . .
149(12) . . .
150(12) . . .
146(12) . . .
164(13) . . .
169(13) . . .
142(12) . . .
135(12) . . .
134(12) . . .
135(12) . . .
147(12) . . .
154(12) . . .
140(12) . . .
144(12) . . .
169(13) . . .
148(12) . . .
138(12) . . .
140(12) . . .
124(11) . . .
133(12) . . .
145(12) . . .
144(12) . . .
150(12) . . .
146(12) . . .
124(11) . . .
149(12) . . .
137(12) . . .
138(12) . . .
144(12) . . .
127(11) . . .
133(12) . . .
148(12) . . .
151(12) . . .
131(11) . . .
146(12) . . .
141(12) . . .
168(13) . . .
126(11) . . .
152(12) . . .
160(13) . . .
164(13) . . .
135(12) . . .
145(12) . . .
131(11) . . .
129(11) . . .
153(12) . . .
151(12) . . .
140(12) . . .
150(12) . . .
143(12) . . .
126(11) . . .
139(12) . . .
139(12) . . .
159(13) . . .
163(13) . . .
138(12) . . .
152(12) . . .
144(12) . . .
133(12) . . .
159(13) . . .
131(11) . . .
160(13) . . .
139(12) . . .
152(12) . . .
161(13) . . .
137(12) . . .
139(12) . . .
156(12) . . .
134(12) . . .
152(12) . . .
143(12) . . .
166(13) . . .
163(13) . . .
136(12) . . .
123(11) . . .
131(11) . . .
142(12) . . .
159(13) . . .
143(12) . . .
142(12) . . .
155(12) . . .
153(12) . . .
145(12) . . .
135(12) . . .
149(12) . . .
150(12) . . .
151(12) . . .
157(13) . . .
155(12) . . .
152(12) . . .
136(12) . . .
135(12) . . .
135(12) . . .
136(12) . . .
139(12) . . .
149(12) . . .
147(12) . . .
154(12) . . .
148(12) . . .
158(13) . . .
142(12) . . .
139(12) . . .
151(12) . . .
151(12) . . .
138(12) . . .
165(13) . . .
141(12) . . .
114(11) . . .
147(12) . . .
138(12) . . .
146(12) . . .
137(12) . . .
150(12) . . .
139(12) . . .
140(12) . . .
136(12) . . .
142(12) . . .
150(12) . . .
150(12) . . .
132(11) . . .
147(12) . . .
153(12) . . .
146(12) . . .
153(12) . . .
169(13) . . .
151(12) . . .
137(12) . . .
168(13) . . .
155(12) . . .
141(12) . . .
156(12) . . .
148(12) . . .
142(12) . . .
147(12) . . .
169(13) . . .
138(12) . . .
135(12) . . .
158(13) . . .
154(12) . . .
139(12) . . .
129(11) . . .
151(12) . . .
139(12) . . .
141(12) . . .
163(13) . . .
158(13) . . .
147(12) . . .
149(12) . . .
126(11) . . .
139(12) . . .
138(12) . . .
148(12) . . .
133(12) . . .
155(12) . . .
155(12) . . .
142(12) . . .
132(11) . . .
138(12) . . .
150(12) . . .
154(12) . . .
144(12) . . .
147(12) . . .
136(12) . . .
162(13) . . .
160(13) . . .
162(13) . . .
155(12) . . .
137(12) . . .
149(12) . . .
176(13) . . .
165(13) . . .
150(12) . . .
144(12) . . .
151(12) . . .
148(12) . . .
168(13) . . .
124(11) . . .
150(12) . . .
143(12) . . .
162(13) . . .
162(13) . . .
160(13) . . .
174(13) . . .
167(13) . . .
130(11) . . .
124(11) . . .
161(13) . . .
163(13) . . .
135(12) . . .
155(12) . . .
141(12) . . .
157(13) . . .
147(12) . . .
151(12) . . .
156(12) . . .
146(12) . . .
159(13) . . .
157(13) . . .
151(12) . . .
145(12) . . .
161(13) . . .
152(12) . . .
160(13) . . .
136(12) . . .
148(12) . . .
126(11) . . .
158(13) . . .
163(13) . . .
131(11) . . .
144(12) . . .
149(12) . . .
154(12) . . .
146(12) . . .
153(12) . . .
148(12) . . .
165(13) . . .
149(12) . . .
152(12) . . .
144(12) . . .
162(13) . . .
145(12) . . .
147(12) . . .
143(12) . . .
159(13) . . .
143(12) . . .
152(12) . . .
145(12) . . .
133(12) . . .
134(12) . . .
169(13) . . .
140(12) . . .
140(12) . . .
150(12) . . .
135(12) . . .
139(12) . . .
160(13) . . .
154(12) . . .
146(12) . . .
160(13) . . .
138(12) . . .
152(12) . . .
141(12) . . .
142(12) . . .
157(13) . . .
148(12) . . .
145(12) . . .
148(12) . . .
155(12) . . .
144(12) . . .
134(12) . . .
157(13) . . .
156(12) . . .
143(12) . . .
154(12) . . .
137(12) . . .
140(12) . . .
134(12) . . .
138(12) . . .
132(11) . . .
151(12) . . .
139(12) . . .
128(11) . . .
147(12) . . .
152(12) . . .
152(12) . . .
158(13) . . .
162(13) . . .
140(12) . . .
147(12) . . .
162(13) . . .
139(12) . . .
124(11) . . .
134(12) . . .
143(12) . . .
131(11) . . .
128(11) . . .
147(12) . . .
168(13) . . .
143(12) . . .
144(12) . . .
141(12) . . .
140(12) . . .
138(12) . . .
147(12) . . .
143(12) . . .
180(13) . . .
150(12) . . .
140(12) . . .
159(13) . . .
144(12) . . .
145(12) . . .
142(12) . . .
133(12) . . .
135(12) . . .
145(12) . . .
160(13) . . .
133(12) . . .
154(12) . . .
158(13) . . .
139(12) . . .
131(11) . . .
145(12) . . .
133(12) . . .
140(12) . . .
134(12) . . .
181(13) . . .
133(12) . . .
140(12) . . .
140(12) . . .
169(13) . . .
158(13) . . .
126(11) . . .
130(11) . . .
148(12) . . .
133(12) . . .
141(12) . . .
132(11) . . .
163(13) . . .
137(12) . . .
140(12) . . .
174(13) . . .
154(12) . . .
145(12) . . .
155(12) . . .
153(12) . . .
139(12) . . .
164(13) . . .
144(12) . . .
143(12) . . .
128(11) . . .
145(12) . . .
159(13) . . .
154(12) . . .
158(13) . . .
141(12) . . .
133(12) . . .
127(11) . . .
136(12) . . .
131(11) . . .
135(12) . . .
149(12) . . .
164(13) . . .
140(12) . . .
163(13) . . .
138(12) . . .
134(12) . . .
152(12) . . .
146(12) . . .
138(12) . . .
143(12) . . .
142(12) . . .
136(12) . . .
136(12) . . .
158(13) . . .
160(13) . . .
152(12) . . .
149(12) . . .
141(12) . . .
144(12) . . .
139(12) . . .
144(12) . . .
168(13) . . .
145(12) . . .
140(12) . . .
146(12) . . .
143(12) . . .
139(12) . . .
129(11) . . .
157(13) . . .
161(13) . . .
150(12) . . .
145(12) . . .
142(12) . . .
142(12) . . .
142(12) . . .
149(12) . . .
139(12) . . .
147(12) . . .
141(12) . . .
137(12) . . .
157(13) . . .
138(12) . . .
141(12) . . .
134(12) . . .
147(12) . . .
158(13) . . .
142(12) . . .
154(12) . . .
150(12) . . .
154(12) . . .
153(12) . . .
144(12) . . .
137(12) . . .
143(12) . . .
122(11) . . .
157(13) . . .
160(13) . . .
142(12) . . .
159(13) . . .
124(11) . . .
145(12) . . .
149(12) . . .
151(12) . . .
152(12) . . .
161(13) . . .
128(11) . . .
153(12) . . .
152(12) . . .
129(11) . . .
151(12) . . .
159(13) . . .
156(12) . . .
146(12) . . .
149(12) . . .
138(12) . . .
149(12) . . .
156(12) . . .
172(13) . . .
164(13) . . .
161(13) . . .
144(12) . . .
141(12) . . .
132(11) . . .
157(13) . . .
161(13) . . .
163(13) . . .
156(12) . . .
146(12) . . .
157(13) . . .
159(13) . . .
157(13) . . .
143(12) . . .
147(12) . . .
166(13) . . .
141(12) . . .
143(12) . . .
141(12) . . .
150(12) . . .
152(12) . . .
165(13) . . .
137(12) . . .
167(13) . . .
150(12) . . .
154(12) . . .
146(12) . . .
148(12) . . .
148(12) . . .
154(12) . . .
150(12) . . .
146(12) . . .
133(12) . . .
155(12) . . .
130(11) . . .
159(13) . . .
163(13) . . .
158(13) . . .
165(13) . . .
152(12) . . .
173(13) . . .
166(13) . . .
150(12) . . .
156(12) . . .
153(12) . . .
166(13) . . .
156(12) . . .
158(13) . . .
170(13) . . .
167(13) . . .
171(13) . . .
185(14) . . .
170(13) . . .
168(13) . . .
210(14) . . .
206(14) . . .
203(14) . . .
211(15) . . .
217(15) . . .
217(15) . . .
230(15) . . .
238(15) . . .
251(16) . . .
263(16) . . .
254(16) . . .
262(16) . . .
249(16) . . .
239(15) . . .
259(16) . . .
238(15) . . .
225(15) . . .
212(15) . . .
223(15) . . .
187(14) . . .
203(14) . . .
208(14) . . .
193(14) . . .
166(13) . . .
183(14) . . .
181(13) . . .
166(13) . . .
163(13) . . .
145(12) . . .
145(12) . . .
161(13) . . .
151(12) . . .
149(12) . . .
152(12) . . .
150(12) . . .
173(13) . . .
163(13) . . .
153(12) . . .
158(13) . . .
147(12) . . .
167(13) . . .
171(13) . . .
155(12) . . .
140(12) . . .
156(12) . . .
132(11) . . .
160(13) . . .
148(12) . . .
141(12) . . .
148(12) . . .
150(12) . . .
154(12) . . .
152(12) . . .
155(12) . . .
136(12) . . .
165(13) . . .
158(13) . . .
140(12) . . .
144(12) . . .
151(12) . . .
156(12) . . .
150(12) . . .
142(12) . . .
146(12) . . .
154(12) . . .
142(12) . . .
151(12) . . .
147(12) . . .
161(13) . . .
134(12) . . .
127(11) . . .
149(12) . . .
148(12) . . .
142(12) . . .
158(13) . . .
143(12) . . .
131(11) . . .
145(12) . . .
136(12) . . .
154(12) . . .
161(13) . . .
132(11) . . .
150(12) . . .
149(12) . . .
138(12) . . .
145(12) . . .
144(12) . . .
145(12) . . .
149(12) . . .
142(12) . . .
144(12) . . .
147(12) . . .
145(12) . . .
153(12) . . .
124(11) . . .
150(12) . . .
136(12) . . .
143(12) . . .
148(12) . . .
143(12) . . .
140(12) . . .
145(12) . . .
129(11) . . .
137(12) . . .
157(13) . . .
133(12) . . .
149(12) . . .
136(12) . . .
133(12) . . .
147(12) . . .
139(12) . . .
151(12) . . .
139(12) . . .
133(12) . . .
155(12) . . .
154(12) . . .
163(13) . . .
157(13) . . .
145(12) . . .
141(12) . . .
153(12) . . .
162(13) . . .
148(12) . . .
152(12) . . .
144(12) . . .
142(12) . . .
158(13) . . .
141(12) . . .
141(12) . . .
152(12) . . .
134(12) . . .
164(13) . . .
153(12) . . .
132(11) . . .
127(11) . . .
145(12) . . .
145(12) . . .
151(12) . . .
151(12) . . .
150(12) . . .
140(12) . . .
148(12) . . .
161(13) . . .
156(12) . . .
149(12) . . .
140(12) . . .
168(13) . . .
152(12) . . .
153(12) . . .
144(12) . . .
159(13) . . .
145(12) . . .
142(12) . . .
165(13) . . .
148(12) . . .
143(12) . . .
144(12) . . .
148(12) . . .
149(12) . . .
173(13) . . .
161(13) . . .
127(11) . . .
161(13) . . .
142(12) . . .
143(12) . . .
143(12) . . .
161(13) . . .
156(12) . . .
162(13) . . .
157(13) . . .
141(12) . . .
148(12) . . .
158(13) . . .
152(12) . . .
141(12) . . .
144(12) . . .
132(11) . . .
131(11) . . .
160(13) . . .
127(11) . . .
140(12) . . .
134(12) . . .
159(13) . . .
142(12) . . .
158(13) . . .
156(12) . . .
131(11) . . .
153(12) . . .
133(12) . . .
131(11) . . .
148(12) . . .
145(12) . . .
148(12) . . .
152(12) . . .
151(12) . . .
155(12) . . .
152(12) . . .
142(12) . . .
135(12) . . .
143(12) . . .
124(11) . . .
141(12) . . .
151(12) . . .
148(12) . . .
140(12) . . .
163(13) . . .
152(12) . . .
162(13) . . .
161(13) . . .
145(12) . . .
134(12) . . .
140(12) . . .
148(12) . . .
139(12) . . .
128(11) . . .
147(12) . . .
147(12) . . .
148(12) . . .
146(12) . . .
160(13) . . .
150(12) . . .
153(12) . . .
146(12) . . .
165(13) . . .
162(13) . . .
147(12) . . .
140(12) . . .
149(12) . . .
149(12) . . .
146(12) . . .
148(12) . . .
132(11) . . .
160(13) . . .
136(12) . . .
149(12) . . .
145(12) . . .
150(12) . . .
138(12) . . .
147(12) . . .
154(12) . . .
141(12) . . .
142(12) . . .
144(12) . . .
162(13) . . .
151(12) . . .
141(12) . . .
147(12) . . .
131(11) . . .
156(12) . . .
165(13) . . .
144(12) . . .
147(12) . . .
157(13) . . .
151(12) . . .
124(11) . . .
151(12) . . .
156(12) . . .
152(12) . . .
151(12) . . .
132(11) . . .
148(12) . . .
143(12) . . .
139(12) . . .
168(13) . . .
156(12) . . .
127(11) . . .
151(12) . . .
145(12) . . .
147(12) . . .
144(12) . . .
138(12) . . .
152(12) . . .
136(12) . . .
159(13) . . .
142(12) . . .
189(14) . . .
146(12) . . .
132(11) . . .
154(12) . . .
145(12) . . .
157(13) . . .
142(12) . . .
151(12) . . .
167(13) . . .
171(13) . . .
150(12) . . .
132(11) . . .
170(13) . . .
142(12) . . .
154(12) . . .
163(13) . . .
155(12) . . .
142(12) . . .
153(12) . . .
139(12) . . .
148(12) . . .
168(13) . . .
151(12) . . .
166(13) . . .
170(13) . . .
151(12) . . .
152(12) . . .
154(12) . . .
161(13) . . .
168(13) . . .
154(12) . . .
159(13) . . .
156(12) . . .
154(12) . . .
154(12) . . .
155(12) . . .
148(12) . . .
155(12) . . .
148(12) . . .
157(13) . . .
141(12) . . .
145(12) . . .
160(13) . . .
145(12) . . .
147(12) . . .
136(12) . . .
153(12) . . .
168(13) . . .
149(12) . . .
157(13) . . .
144(12) . . .
149(12) . . .
145(12) . . .
127(11) . . .
151(12) . . .
165(13) . . .
158(13) . . .
153(12) . . .
153(12) . . .
142(12) . . .
156(12) . . .
157(13) . . .
147(12) . . .
137(12) . . .
174(13) . . .
150(12) . . .
154(12) . . .
156(12) . . .
164(13) . . .
150(12) . . .
151(12) . . .
152(12) . . .
165(13) . . .
148(12) . . .
156(12) . . .
148(12) . . .
143(12) . . .
155(12) . . .
157(13) . . .
151(12) . . .
170(13) . . .
147(12) . . .
161(13) . . .
149(12) . . .
144(12) . . .
149(12) . . .
165(13) . . .
149(12) . . .
146(12) . . .
154(12) . . .
148(12) . . .
171(13) . . .
154(12) . . .
130(11) . . .
138(12) . . .
157(13) . . .
155(12) . . .
155(12) . . .
143(12) . . .
162(13) . . .
144(12) . . .
144(12) . . .
161(13) . . .
171(13) . . .
156(12) . . .
154(12) . . .
151(12) . . .
153(12) . . .
142(12) . . .
148(12) . . .
145(12) . . .
178(13) . . .
143(12) . . .
158(13) . . .
153(12) . . .
144(12) . . .
158(13) . . .
156(12) . . .
153(12) . . .
172(13) . . .
164(13) . . .
153(12) . . .
164(13) . . .
145(12) . . .
152(12) . . .
129(11) . . .
140(12) . . .
175(13) . . .
148(12) . . .
160(13) . . .
147(12) . . .
153(12) . . .
142(12) . . .
171(13) . . .
154(12) . . .
150(12) . . .
149(12) . . .
163(13) . . .
140(12) . . .
145(12) . . .
157(13) . . .
147(12) . . .
174(13) . . .
186(14) . . .
159(13) . . .
136(12) . . .
147(12) . . .
157(13) . . .
140(12) . . .
140(12) . . .
143(12) . . .
166(13) . . .
153(12) . . .
141(12) . . .
142(12) . . .
150(12) . . .
148(12) . . .
157(13) . . .
140(12) . . .
159(13) . . .
153(12) . . .
150(12) . . .
155(12) . . .
156(12) . . .
147(12) . . .
158(13) . . .
142(12) . . .
156(12) . . .
158(13) . . .
149(12) . . .
144(12) . . .
146(12) . . .
139(12) . . .
150(12) . . .
150(12) . . .
137(12) . . .
153(12) . . .
160(13) . . .
166(13) . . .
142(12) . . .
155(12) . . .
154(12) . . .
159(13) . . .
150(12) . . .
136(12) . . .
169(13) . . .
159(13) . . .
140(12) . . .
158(13) . . .
148(12) . . .
154(12) . . .
156(12) . . .
146(12) . . .
144(12) . . .
152(12) . . .
144(12) . . .
146(12) . . .
146(12) . . .
147(12) . . .
140(12) . . .
167(13) . . .
131(11) . . .
147(12) . . .
138(12) . . .
147(12) . . .
148(12) . . .
152(12) . . .
147(12) . . .
162(13) . . .
156(12) . . .
136(12) . . .
145(12) . . .
150(12) . . .
152(12) . . .
150(12) . . .
127(11) . . .
170(13) . . .
157(13) . . .
150(12) . . .
153(12) . . .
145(12) . . .
158(13) . . .
156(12) . . .
152(12) . . .
152(12) . . .
159(13) . . .
155(12) . . .
157(13) . . .
149(12) . . .
149(12) . . .
143(12) . . .
146(12) . . .
147(12) . . .
138(12) . . .
167(13) . . .
151(12) . . .
139(12) . . .
143(12) . . .
153(12) . . .
150(12) . . .
162(13) . . .
161(13) . . .
129(11) . . .
158(13) . . .
156(12) . . .
148(12) . . .
184(14) . . .
136(12) . . .
151(12) . . .
143(12) . . .
167(13) . . .
166(13) . . .
160(13) . . .
156(12) . . .
143(12) . . .
148(12) . . .
175(13) . . .
158(13) . . .
145(12) . . .
149(12) . . .
163(13) . . .
142(12) . . .
152(12) . . .
151(12) . . .
147(12) . . .
149(12) . . .
162(13) . . .
154(12) . . .
163(13) . . .
156(12) . . .
159(13) . . .
174(13) . . .
168(13) . . .
148(12) . . .
150(12) . . .
151(12) . . .
183(14) . . .
147(12) . . .
145(12) . . .
170(13) . . .
162(13) . . .
149(12) . . .
157(13) . . .
145(12) . . .
150(12) . . .
165(13) . . .
151(12) . . .
144(12) . . .
149(12) . . .
157(13) . . .
132(11) . . .
143(12) . . .
142(12) . . .
140(12) . . .
147(12) . . .
174(13) . . .
164(13) . . .
174(13) . . .
174(13) . . .
164(13) . . .
151(12) . . .
136(12) . . .
151(12) . . .
144(12) . . .
152(12) . . .
172(13) . . .
156(12) . . .
152(12) . . .
146(12) . . .
160(13) . . .
153(12) . . .
167(13) . . .
154(12) . . .
153(12) . . .
167(13) . . .
147(12) . . .
154(12) . . .
164(13) . . .
142(12) . . .
156(12) . . .
147(12) . . .
148(12) . . .
133(12) . . .
154(12) . . .
157(13) . . .
166(13) . . .
159(13) . . .
159(13) . . .
146(12) . . .
169(13) . . .
157(13) . . .
156(12) . . .
156(12) . . .
149(12) . . .
152(12) . . .
153(12) . . .
156(12) . . .
156(12) . . .
165(13) . . .
166(13) . . .
162(13) . . .
153(12) . . .
158(13) . . .
156(12) . . .
152(12) . . .
166(13) . . .
169(13) . . .
160(13) . . .
168(13) . . .
166(13) . . .
161(13) . . .
169(13) . . .
181(13) . . .
154(12) . . .
161(13) . . .
166(13) . . .
158(13) . . .
157(13) . . .
150(12) . . .
165(13) . . .
166(13) . . .
162(13) . . .
152(12) . . .
183(14) . . .
165(13) . . .
151(12) . . .
164(13) . . .
173(13) . . .
160(13) . . .
153(12) . . .
165(13) . . .
144(12) . . .
147(12) . . .
149(12) . . .
161(13) . . .
172(13) . . .
174(13) . . .
161(13) . . .
157(13) . . .
158(13) . . .
158(13) . . .
191(14) . . .
169(13) . . .
172(13) . . .
178(13) . . .
145(12) . . .
149(12) . . .
174(13) . . .
180(13) . . .
178(13) . . .
143(12) . . .
174(13) . . .
158(13) . . .
188(14) . . .
174(13) . . .
167(13) . . .
155(12) . . .
145(12) . . .
155(12) . . .
191(14) . . .
158(13) . . .
147(12) . . .
143(12) . . .
163(13) . . .
171(13) . . .
152(12) . . .
180(13) . . .
163(13) . . .
167(13) . . .
178(13) . . .
173(13) . . .
164(13) . . .
167(13) . . .
173(13) . . .
158(13) . . .
170(13) . . .
186(14) . . .
170(13) . . .
165(13) . . .
174(13) . . .
175(13) . . .
159(13) . . .
153(12) . . .
167(13) . . .
169(13) . . .
166(13) . . .
149(12) . . .
151(12) . . .
152(12) . . .
159(13) . . .
169(13) . . .
165(13) . . .
175(13) . . .
180(13) . . .
162(13) . . .
175(13) . . .
147(12) . . .
178(13) . . .
179(13) . . .
169(13) . . .
176(13) . . .
168(13) . . .
175(13) . . .
172(13) . . .
161(13) . . .
148(12) . . .
145(12) . . .
154(12) . . .
171(13) . . .
179(13) . . .
165(13) . . .
174(13) . . .
158(13) . . .
182(13) . . .
166(13) . . .
175(13) . . .
170(13) . . .
146(12) . . .
149(12) . . .
165(13) . . .
153(12) . . .
172(13) . . .
164(13) . . .
161(13) . . .
154(12) . . .
170(13) . . .
164(13) . . .
186(14) . . .
152(12) . . .
169(13) . . .
159(13) . . .
185(14) . . .
141(12) . . .
187(14) . . .
171(13) . . .
178(13) . . .
171(13) . . .
168(13) . . .
154(12) . . .
167(13) . . .
161(13) . . .
169(13) . . .
196(14) . . .
176(13) . . .
172(13) . . .
161(13) . . .
156(12) . . .
175(13) . . .
171(13) . . .
186(14) . . .
205(14) . . .
172(13) . . .
182(13) . . .
164(13) . . .
161(13) . . .
183(14) . . .
173(13) . . .
184(14) . . .
165(13) . . .
165(13) . . .
160(13) . . .
176(13) . . .
192(14) . . .
189(14) . . .
173(13) . . .
201(14) . . .
160(13) . . .
181(13) . . .
191(14) . . .
187(14) . . .
198(14) . . .
188(14) . . .
168(13) . . .
175(13) . . .
167(13) . . .
181(13) . . .
181(13) . . .
194(14) . . .
186(14) . . .
188(14) . . .
188(14) . . .
176(13) . . .
176(13) . . .
212(15) . . .
195(14) . . .
166(13) . . .
172(13) . . .
190(14) . . .
190(14) . . .
201(14) . . .
186(14) . . .
194(14) . . .
181(13) . . .
195(14) . . .
172(13) . . .
175(13) . . .
201(14) . . .
193(14) . . .
184(14) . . .
193(14) . . .
186(14) . . .
191(14) . . .
167(13) . . .
184(14) . . .
191(14) . . .
190(14) . . .
182(13) . . .
182(13) . . .
193(14) . . .
192(14) . . .
202(14) . . .
183(14) . . .
218(15) . . .
216(15) . . .
198(14) . . .
216(15) . . .
194(14) . . .
206(14) . . .
195(14) . . .
204(14) . . .
207(14) . . .
213(15) . . .
195(14) . . .
217(15) . . .
206(14) . . .
207(14) . . .
237(15) . . .
220(15) . . .
220(15) . . .
218(15) . . .
220(15) . . .
210(14) . . .
238(15) . . .
249(16) . . .
250(16) . . .
228(15) . . .
246(16) . . .
250(16) . . .
265(16) . . .
245(16) . . .
238(15) . . .
260(16) . . .
263(16) . . .
241(16) . . .
268(16) . . .
252(16) . . .
268(16) . . .
291(17) . . .
305(17) . . .
287(17) . . .
315(18) . . .
288(17) . . .
279(17) . . .
308(18) . . .
329(18) . . .
327(18) . . .
343(19) . . .
364(19) . . .
379(19) . . .
382(20) . . .
367(19) . . .
383(20) . . .
429(21) . . .
427(21) . . .
464(22) . . .
457(21) . . .
485(22) . . .
516(23) . . .
541(23) . . .
579(24) . . .
556(24) . . .
619(25) . . .
659(26) . . .
745(27) . . .
777(28) . . .
823(29) . . .
902(30) . . .
965(31) . . .
1080(33) . . .
1132(34) . . .
1219(35) . . .
1385(37) . . .
1450(38) . . .
1509(39) . . .
1785(42) . . .
1885(43) . . .
2050(45) . . .
2202(47) . . .
2422(49) . . .
2450(49) . . .
2596(51) . . .
2836(53) . . .
2863(54) . . .
2958(54) . . .
2917(54) . . .
3087(56) . . .
2970(54) . . .
2971(55) . . .
2824(53) . . .
2704(52) . . .
2532(50) . . .
2369(49) . . .
2158(46) . . .
2085(46) . . .
1849(43) . . .
1740(42) . . .
1624(40) . . .
1476(38) . . .
1290(36) . . .
1245(35) . . .
1136(34) . . .
1009(32) . . .
892(30) . . .
831(29) . . .
812(28) . . .
802(28) . . .
703(27) . . .
665(26) . . .
650(25) . . .
579(24) . . .
542(23) . . .
550(23) . . .
541(23) . . .
485(22) . . .
469(22) . . .
460(21) . . .
403(20) . . .
394(20) . . .
401(20) . . .
366(19) . . .
393(20) . . .
358(19) . . .
326(18) . . .
337(18) . . .
319(18) . . .
305(17) . . .
313(18) . . .
292(17) . . .
283(17) . . .
276(17) . . .
250(16) . . .
270(16) . . .
258(16) . . .
263(16) . . .
259(16) . . .
255(16) . . .
276(17) . . .
273(17) . . .
224(15) . . .
239(15) . . .
231(15) . . .
224(15) . . .
244(16) . . .
230(15) . . .
224(15) . . .
224(15) . . .
231(15) . . .
223(15) . . .
209(14) . . .
206(14) . . .
213(15) . . .
240(15) . . .
238(15) . . .
198(14) . . .
206(14) . . .
200(14) . . .
191(14) . . .
201(14) . . .
202(14) . . .
195(14) . . .
201(14) . . .
237(15) . . .
212(15) . . .
210(14) . . .
211(15) . . .
207(14) . . .
172(13) . . .
194(14) . . .
186(14) . . .
193(14) . . .
203(14) . . .
199(14) . . .
191(14) . . .
196(14) . . .
203(14) . . .
187(14) . . .
210(14) . . .
213(15) . . .
181(13) . . .
194(14) . . .
206(14) . . .
195(14) . . .
182(13) . . .
209(14) . . .
187(14) . . .
201(14) . . .
174(13) . . .
184(14) . . .
188(14) . . .
182(13) . . .
151(12) . . .
195(14) . . .
179(13) . . .
199(14) . . .
206(14) . . .
196(14) . . .
182(13) . . .
178(13) . . .
192(14) . . .
215(15) . . .
174(13) . . .
195(14) . . .
185(14) . . .
186(14) . . .
167(13) . . .
172(13) . . .
187(14) . . .
171(13) . . .
188(14) . . .
190(14) . . .
184(14) . . .
192(14) . . .
175(13) . . .
165(13) . . .
171(13) . . .
170(13) . . .
171(13) . . .
180(13) . . .
191(14) . . .
171(13) . . .
168(13) . . .
186(14) . . .
178(13) . . .
181(13) . . .
178(13) . . .
189(14) . . .
175(13) . . .
171(13) . . .
176(13) . . .
177(13) . . .
192(14) . . .
180(13) . . .
180(13) . . .
179(13) . . .
194(14) . . .
186(14) . . .
170(13) . . .
155(12) . . .
194(14) . . .
180(13) . . .
166(13) . . .
186(14) . . .
182(13) . . .
176(13) . . .
192(14) . . .
165(13) . . .
184(14) . . .
187(14) . . .
163(13) . . .
169(13) . . .
184(14) . . .
155(12) . . .
179(13) . . .
189(14) . . .
177(13) . . .
181(13) . . .
182(13) . . .
194(14) . . .
163(13) . . .
175(13) . . .
156(12) . . .
179(13) . . .
182(13) . . .
191(14) . . .
183(14) . . .
158(13) . . .
188(14) . . .
159(13) . . .
178(13) . . .
145(12) . . .
176(13) . . .
181(13) . . .
181(13) . . .
164(13) . . .
174(13) . . .
162(13) . . .
177(13) . . .
182(13) . . .
181(13) . . .
200(14) . . .
188(14) . . .
190(14) . . .
174(13) . . .
182(13) . . .
166(13) . . .
167(13) . . .
178(13) . . .
196(14) . . .
176(13) . . .
170(13) . . .
182(13) . . .
175(13) . . .
173(13) . . .
167(13) . . .
178(13) . . .
184(14) . . .
185(14) . . .
181(13) . . .
181(13) . . .
213(15) . . .
173(13) . . .
155(12) . . .
195(14) . . .
184(14) . . .
191(14) . . .
189(14) . . .
162(13) . . .
196(14) . . .
184(14) . . .
180(13) . . .
209(14) . . .
176(13) . . .
195(14) . . .
187(14) . . .
177(13) . . .
195(14) . . .
188(14) . . .
197(14) . . .
186(14) . . .
188(14) . . .
187(14) . . .
184(14) . . .
174(13) . . .
177(13) . . .
186(14) . . .
188(14) . . .
205(14) . . .
176(13) . . .
178(13) . . .
185(14) . . .
199(14) . . .
213(15) . . .
186(14) . . .
201(14) . . .
191(14) . . .
219(15) . . .
201(14) . . .
198(14) . . .
213(15) . . .
203(14) . . .
205(14) . . .
212(15) . . .
228(15) . . .
218(15) . . .
214(15) . . .
229(15) . . .
212(15) . . .
242(16) . . .
259(16) . . .
270(16) . . .
233(15) . . .
251(16) . . .
248(16) . . .
242(16) . . .
275(17) . . .
275(17) . . .
326(18) . . .
300(17) . . .
340(18) . . .
320(18) . . .
324(18) . . .
337(18) . . .
366(19) . . .
397(20) . . .
436(21) . . .
442(21) . . .
447(21) . . .
475(22) . . .
520(23) . . .
533(23) . . .
608(25) . . .
652(26) . . .
693(26) . . .
705(27) . . .
808(28) . . .
855(29) . . .
910(30) . . .
1019(32) . . .
1072(33) . . .
1157(34) . . .
1201(35) . . .
1209(35) . . .
1360(37) . . .
1374(37) . . .
1376(37) . . .
1417(38) . . .
1412(38) . . .
1374(37) . . .
1309(36) . . .
1334(37) . . .
1235(35) . . .
1150(34) . . .
1101(33) . . .
1016(32) . . .
945(31) . . .
876(30) . . .
815(29) . . .
753(27) . . .
709(27) . . .
625(25) . . .
595(24) . . .
543(23) . . .
475(22) . . .
488(22) . . .
427(21) . . .
434(21) . . .
405(20) . . .
362(19) . . .
386(20) . . .
366(19) . . .
318(18) . . .
307(18) . . .
292(17) . . .
280(17) . . .
299(17) . . .
285(17) . . .
262(16) . . .
245(16) . . .
257(16) . . .
275(17) . . .
301(17) . . .
262(16) . . .
249(16) . . .
226(15) . . .
215(15) . . .
228(15) . . .
235(15) . . .
193(14) . . .
237(15) . . .
217(15) . . .
202(14) . . .
211(15) . . .
196(14) . . .
205(14) . . .
210(14) . . .
200(14) . . .
203(14) . . .
209(14) . . .
189(14) . . .
208(14) . . .
152(12) . . .
190(14) . . .
197(14) . . .
199(14) . . .
188(14) . . .
188(14) . . .
172(13) . . .
179(13) . . .
198(14) . . .
187(14) . . .
181(13) . . .
195(14) . . .
158(13) . . .
172(13) . . .
201(14) . . .
178(13) . . .
172(13) . . .
181(13) . . .
183(14) . . .
164(13) . . .
163(13) . . .
172(13) . . .
150(12) . . .
167(13) . . .
167(13) . . .
179(13) . . .
172(13) . . .
172(13) . . .
171(13) . . .
179(13) . . .
171(13) . . .
159(13) . . .
147(12) . . .
160(13) . . .
163(13) . . .
180(13) . . .
174(13) . . .
166(13) . . .
159(13) . . .
169(13) . . .
172(13) . . .
163(13) . . .
175(13) . . .
158(13) . . .
178(13) . . .
152(12) . . .
161(13) . . .
151(12) . . .
178(13) . . .
182(13) . . .
167(13) . . .
153(12) . . .
175(13) . . .
160(13) . . .
175(13) . . .
181(13) . . .
166(13) . . .
168(13) . . .
146(12) . . .
152(12) . . .
158(13) . . .
183(14) . . .
148(12) . . .
167(13) . . .
196(14) . . .
169(13) . . .
154(12) . . .
160(13) . . .
163(13) . . .
170(13) . . .
152(12) . . .
160(13) . . .
152(12) . . .
152(12) . . .
163(13) . . .
149(12) . . .
160(13) . . .
162(13) . . .
177(13) . . .
154(12) . . .
162(13) . . .
147(12) . . .
166(13) . . .
167(13) . . .
161(13) . . .
174(13) . . .
180(13) . . .
155(12) . . .
163(13) . . .
167(13) . . .
168(13) . . .
156(12) . . .
145(12) . . .
152(12) . . .
151(12) . . .
173(13) . . .
164(13) . . .
156(12) . . .
158(13) . . .
146(12) . . .
142(12) . . .
146(12) . . .
163(13) . . .
166(13) . . .
145(12) . . .
149(12) . . .
151(12) . . .
148(12) . . .
153(12) . . .
159(13) . . .
151(12) . . .
152(12) . . .
149(12) . . .
161(13) . . .
155(12) . . .
150(12) . . .
169(13) . . .
157(13) . . .
161(13) . . .
150(12) . . .
156(12) . . .
157(13) . . .
140(12) . . .
135(12) . . .
157(13) . . .
151(12) . . .
145(12) . . .
164(13) . . .
152(12) . . .
162(13) . . .
141(12) . . .
154(12) . . .
142(12) . . .
168(13) . . .
170(13) . . .
169(13) . . .
144(12) . . .
138(12) . . .
171(13) . . .
148(12) . . .
184(14) . . .
160(13) . . .
154(12) . . .
150(12) . . .
172(13) . . .
137(12) . . .
142(12) . . .
162(13) . . .
145(12) . . .
159(13) . . .
144(12) . . .
149(12) . . .
153(12) . . .
142(12) . . .
137(12) . . .
161(13) . . .
176(13) . . .
174(13) . . .
163(13) . . .
167(13) . . .
141(12) . . .
153(12) . . .
154(12) . . .
147(12) . . .
149(12) . . .
176(13) . . .
146(12) . . .
162(13) . . .
158(13) . . .
163(13) . . .
168(13) . . .
151(12) . . .
153(12) . . .
150(12) . . .
170(13) . . .
139(12) . . .
161(13) . . .
169(13) . . .
169(13) . . .
168(13) . . .
164(13) . . .
144(12) . . .
149(12) . . .
181(13) . . .
152(12) . . .
152(12) . . .
148(12) . . .
147(12) . . .
162(13) . . .
145(12) . . .
150(12) . . .
171(13) . . .
153(12) . . .
156(12) . . .
134(12) . . .
135(12) . . .
141(12) . . .
153(12) . . .
139(12) . . .
169(13) . . .
140(12) . . .
163(13) . . .
147(12) . . .
153(12) . . .
173(13) . . .
164(13) . . .
161(13) . . .
136(12) . . .
148(12) . . .
166(13) . . .
153(12) . . .
153(12) . . .
135(12) . . .
141(12) . . .
144(12) . . .
161(13) . . .
169(13) . . .
147(12) . . .
150(12) . . .
164(13) . . .
139(12) . . .
135(12) . . .
157(13) . . .
160(13) . . .
156(12) . . .
146(12) . . .
147(12) . . .
157(13) . . .
153(12) . . .
143(12) . . .
154(12) . . .
145(12) . . .
156(12) . . .
156(12) . . .
137(12) . . .
159(13) . . .
148(12) . . .
161(13) . . .
146(12) . . .
146(12) . . .
157(13) . . .
129(11) . . .
135(12) . . .
143(12) . . .
145(12) . . .
150(12) . . .
161(13) . . .
158(13) . . .
149(12) . . .
125(11) . . .
151(12) . . .
152(12) . . .
159(13) . . .
149(12) . . .
148(12) . . .
148(12) . . .
143(12) . . .
144(12) . . .
160(13) . . .
139(12) . . .
155(12) . . .
154(12) . . .
150(12) . . .
139(12) . . .
164(13) . . .
159(13) . . .
139(12) . . .
145(12) . . .
144(12) . . .
137(12) . . .
148(12) . . .
150(12) . . .
143(12) . . .
154(12) . . .
126(11) . . .
128(11) . . .
166(13) . . .
151(12) . . .
156(12) . . .
137(12) . . .
157(13) . . .
149(12) . . .
150(12) . . .
173(13) . . .
174(13) . . .
144(12) . . .
146(12) . . .
147(12) . . .
139(12) . . .
150(12) . . .
134(12) . . .
152(12) . . .
148(12) . . .
141(12) . . .
145(12) . . .
148(12) . . .
144(12) . . .
156(12) . . .
131(11) . . .
157(13) . . .
150(12) . . .
141(12) . . .
124(11) . . .
142(12) . . .
124(11) . . .
140(12) . . .
149(12) . . .
137(12) . . .
158(13) . . .
139(12) . . .
145(12) . . .
155(12) . . .
123(11) . . .
140(12) . . .
140(12) . . .
133(12) . . .
163(13) . . .
150(12) . . .
150(12) . . .
145(12) . . .
144(12) . . .
127(11) . . .
150(12) . . .
146(12) . . .
146(12) . . .
147(12) . . .
156(12) . . .
149(12) . . .
151(12) . . .
144(12) . . .
133(12) . . .
141(12) . . .
146(12) . . .
140(12) . . .
144(12) . . .
147(12) . . .
140(12) . . .
141(12) . . .
140(12) . . .
131(11) . . .
120(11) . . .
138(12) . . .
162(13) . . .
156(12) . . .
125(11) . . .
142(12) . . .
155(12) . . .
154(12) . . .
154(12) . . .
155(12) . . .
139(12) . . .
140(12) . . .
154(12) . . .
161(13) . . .
134(12) . . .
158(13) . . .
154(12) . . .
140(12) . . .
162(13) . . .
147(12) . . .
160(13) . . .
134(12) . . .
154(12) . . .
129(11) . . .
144(12) . . .
162(13) . . .
140(12) . . .
145(12) . . .
148(12) . . .
145(12) . . .
148(12) . . .
132(11) . . .
161(13) . . .
145(12) . . .
147(12) . . .
141(12) . . .
156(12) . . .
155(12) . . .
137(12) . . .
158(13) . . .
144(12) . . .
162(13) . . .
153(12) . . .
143(12) . . .
161(13) . . .
126(11) . . .
156(12) . . .
144(12) . . .
147(12) . . .
159(13) . . .
133(12) . . .
139(12) . . .
155(12) . . .
143(12) . . .
152(12) . . .
144(12) . . .
137(12) . . .
141(12) . . .
156(12) . . .
143(12) . . .
169(13) . . .
156(12) . . .
150(12) . . .
154(12) . . .
149(12) . . .
150(12) . . .
137(12) . . .
129(11) . . .
146(12) . . .
139(12) . . .
153(12) . . .
151(12) . . .
134(12) . . .
136(12) . . .
136(12) . . .
151(12) . . .
150(12) . . .
142(12) . . .
142(12) . . .
129(11) . . .
143(12) . . .
160(13) . . .
150(12) . . .
141(12) . . .
140(12) . . .
138(12) . . .
135(12) . . .
132(11) . . .
139(12) . . .
137(12) . . .
150(12) . . .
153(12) . . .
138(12) . . .
144(12) . . .
148(12) . . .
141(12) . . .
144(12) . . .
142(12) . . .
143(12) . . .
127(11) . . .
147(12) . . .
137(12) . . .
149(12) . . .
155(12) . . .
143(12) . . .
167(13) . . .
128(11) . . .
125(11) . . .
152(12) . . .
143(12) . . .
130(11) . . .
146(12) . . .
141(12) . . .
148(12) . . .
137(12) . . .
143(12) . . .
138(12) . . .
143(12) . . .
122(11) . . .
141(12) . . .
151(12) . . .
135(12) . . .
155(12) . . .
154(12) . . .
152(12) . . .
130(11) . . .
152(12) . . .
132(11) . . .
143(12) . . .
136(12) . . .
124(11) . . .
136(12) . . .
129(11) . . .
135(12) . . .
136(12) . . .
121(11) . . .
136(12) . . .
143(12) . . .
153(12) . . .
151(12) . . .
131(11) . . .
142(12) . . .
134(12) . . .
136(12) . . .
143(12) . . .
142(12) . . .
135(12) . . .
147(12) . . .
155(12) . . .
155(12) . . .
124(11) . . .
143(12) . . .
148(12) . . .
124(11) . . .
133(12) . . .
116(11) . . .
153(12) . . .
167(13) . . .
136(12) . . .
149(12) . . .
138(12) . . .
152(12) . . .
120(11) . . .
144(12) . . .
146(12) . . .
132(11) . . .
143(12) . . .
137(12) . . .
161(13) . . .
149(12) . . .
141(12) . . .
155(12) . . .
167(13) . . .
130(11) . . .
137(12) . . .
157(13) . . .
154(12) . . .
142(12) . . .
139(12) . . .
147(12) . . .
141(12) . . .
136(12) . . .
141(12) . . .
155(12) . . .
139(12) . . .
150(12) . . .
155(12) . . .
140(12) . . .
141(12) . . .
136(12) . . .
141(12) . . .
136(12) . . .
138(12) . . .
146(12) . . .
152(12) . . .
160(13) . . .
138(12) . . .
150(12) . . .
139(12) . . .
144(12) . . .
155(12) . . .
145(12) . . .
137(12) . . .
144(12) . . .
139(12) . . .
139(12) . . .
147(12) . . .
139(12) . . .
147(12) . . .
153(12) . . .
152(12) . . .
125(11) . . .
142(12) . . .
124(11) . . .
119(11) . . .
157(13) . . .
150(12) . . .
134(12) . . .
134(12) . . .
147(12) . . .
148(12) . . .
152(12) . . .
142(12) . . .
142(12) . . .
152(12) . . .
138(12) . . .
133(12) . . .
125(11) . . .
168(13) . . .
152(12) . . .
150(12) . . .
126(11) . . .
143(12) . . .
161(13) . . .
140(12) . . .
133(12) . . .
140(12) . . .
130(11) . . .
144(12) . . .
135(12) . . .
137(12) . . .
147(12) . . .
136(12) . . .
149(12) . . .
134(12) . . .
130(11) . . .
150(12) . . .
133(12) . . .
149(12) . . .
144(12) . . .
151(12) . . .
142(12) . . .
155(12) . . .
134(12) . . .
135(12) . . .
131(11) . . .
132(11) . . .
131(11) . . .
124(11) . . .
153(12) . . .
133(12) . . .
143(12) . . .
141(12) . . .
133(12) . . .
169(13) . . .
142(12) . . .
153(12) . . .
137(12) . . .
136(12) . . .
144(12) . . .
133(12) . . .
139(12) . . .
153(12) . . .
147(12) . . .
156(12) . . .
141(12) . . .
129(11) . . .
146(12) . . .
134(12) . . .
132(11) . . .
143(12) . . .
125(11) . . .
147(12) . . .
138(12) . . .
135(12) . . .
134(12) . . .
147(12) . . .
158(13) . . .
136(12) . . .
147(12) . . .
126(11) . . .
138(12) . . .
131(11) . . .
145(12) . . .
128(11) . . .
126(11) . . .
146(12) . . .
133(12) . . .
146(12) . . .
144(12) . . .
138(12) . . .
161(13) . . .
128(11) . . .
142(12) . . .
153(12) . . .
148(12) . . .
162(13) . . .
138(12) . . .
141(12) . . .
148(12) . . .
156(12) . . .
171(13) . . .
137(12) . . .
159(13) . . .
147(12) . . .
134(12) . . .
140(12) . . .
145(12) . . .
133(12) . . .
134(12) . . .
121(11) . . .
135(12) . . .
136(12) . . .
131(11) . . .
160(13) . . .
139(12) . . .
119(11) . . .
156(12) . . .
130(11) . . .
142(12) . . .
144(12) . . .
129(11) . . .
119(11) . . .
128(11) . . .
136(12) . . .
131(11) . . .
144(12) . . .
135(12) . . .
129(11) . . .
147(12) . . .
154(12) . . .
145(12) . . .
128(11) . . .
144(12) . . .
152(12) . . .
130(11) . . .
126(11) . . .
130(11) . . .
144(12) . . .
136(12) . . .
146(12) . . .
141(12) . . .
148(12) . . .
133(12) . . .
139(12) . . .
149(12) . . .
146(12) . . .
148(12) . . .
135(12) . . .
136(12) . . .
149(12) . . .
149(12) . . .
139(12) . . .
145(12) . . .
142(12) . . .
124(11) . . .
140(12) . . .
149(12) . . .
143(12) . . .
136(12) . . .
150(12) . . .
136(12) . . .
135(12) . . .
142(12) . . .
145(12) . . .
146(12) . . .
145(12) . . .
153(12) . . .
131(11) . . .
136(12) . . .
151(12) . . .
137(12) . . .
128(11) . . .
162(13) . . .
160(13) . . .
167(13) . . .
160(13) . . .
153(12) . . .
142(12) . . .
143(12) . . .
146(12) . . .
139(12) . . .
129(11) . . .
130(11) . . .
136(12) . . .
133(12) . . .
128(11) . . .
161(13) . . .
141(12) . . .
147(12) . . .
138(12) . . .
138(12) . . .
140(12) . . .
127(11) . . .
140(12) . . .
154(12) . . .
135(12) . . .
128(11) . . .
152(12) . . .
158(13) . . .
142(12) . . .
155(12) . . .
131(11) . . .
155(12) . . .
151(12) . . .
136(12) . . .
133(12) . . .
140(12) . . .
148(12) . . .
147(12) . . .
132(11) . . .
125(11) . . .
142(12) . . .
138(12) . . .
139(12) . . .
131(11) . . .
152(12) . . .
135(12) . . .
142(12) . . .
157(13) . . .
141(12) . . .
140(12) . . .
146(12) . . .
150(12) . . .
127(11) . . .
117(11) . . .
146(12) . . .
160(13) . . .
147(12) . . .
127(11) . . .
135(12) . . .
132(11) . . .
136(12) . . .
139(12) . . .
150(12) . . .
159(13) . . .
143(12) . . .
139(12) . . .
134(12) . . .
133(12) . . .
150(12) . . .
154(12) . . .
151(12) . . .
149(12) . . .
118(11) . . .
139(12) . . .
144(12) . . .
136(12) . . .
145(12) . . .
146(12) . . .
143(12) . . .
138(12) . . .
130(11) . . .
134(12) . . .
124(11) . . .
148(12) . . .
137(12) . . .
150(12) . . .
143(12) . . .
134(12) . . .
150(12) . . .
137(12) . . .
144(12) . . .
137(12) . . .
152(12) . . .
137(12) . . .
134(12) . . .
124(11) . . .
138(12) . . .
119(11) . . .
139(12) . . .
153(12) . . .
148(12) . . .
153(12) . . .
134(12) . . .
140(12) . . .
136(12) . . .
123(11) . . .
142(12) . . .
143(12) . . .
141(12) . . .
132(11) . . .
132(11) . . .
160(13) . . .
151(12) . . .
167(13) . . .
129(11) . . .
167(13) . . .
133(12) . . .
143(12) . . .
155(12) . . .
129(11) . . .
131(11) . . .
137(12) . . .
133(12) . . .
145(12) . . .
147(12) . . .
144(12) . . .
138(12) . . .
146(12) . . .
149(12) . . .
123(11) . . .
161(13) . . .
138(12) . . .
156(12) . . .
124(11) . . .
136(12) . . .
140(12) . . .
142(12) . . .
141(12) . . .
128(11) . . .
155(12) . . .
128(11) . . .
152(12) . . .
156(12) . . .
134(12) . . .
125(11) . . .
127(11) . . .
145(12) . . .
147(12) . . .
134(12) . . .
164(13) . . .
143(12) . . .
131(11) . . .
145(12) . . .
130(11) . . .
163(13) . . .
126(11) . . .
149(12) . . .
155(12) . . .
149(12) . . .
156(12) . . .
151(12) . . .
132(11) . . .
126(11) . . .
143(12) . . .
138(12) . . .
140(12) . . .
150(12) . . .
135(12) . . .
165(13) . . .
133(12) . . .
146(12) . . .
121(11) . . .
140(12) . . .
135(12) . . .
148(12) . . .
139(12) . . .
145(12) . . .
152(12) . . .
133(12) . . .
147(12) . . .
154(12) . . .
155(12) . . .
141(12) . . .
151(12) . . .
139(12) . . .
131(11) . . .
142(12) . . .
134(12) . . .
147(12) . . .
139(12) . . .
158(13) . . .
146(12) . . .
141(12) . . .
158(13) . . .
126(11) . . .
154(12) . . .
140(12) . . .
131(11) . . .
133(12) . . .
144(12) . . .
158(13) . . .
145(12) . . .
160(13) . . .
140(12) . . .
141(12) . . .
144(12) . . .
132(11) . . .
137(12) . . .
139(12) . . .
150(12) . . .
146(12) . . .
152(12) . . .
136(12) . . .
157(13) . . .
135(12) . . .
136(12) . . .
146(12) . . .
150(12) . . .
141(12) . . .
140(12) . . .
160(13) . . .
144(12) . . .
146(12) . . .
136(12) . . .
142(12) . . .
144(12) . . .
147(12) . . .
137(12) . . .
156(12) . . .
145(12) . . .
130(11) . . .
155(12) . . .
141(12) . . .
144(12) . . .
147(12) . . .
139(12) . . .
159(13) . . .
132(11) . . .
142(12) . . .
131(11) . . .
157(13) . . .
131(11) . . .
141(12) . . .
148(12) . . .
136(12) . . .
156(12) . . .
134(12) . . .
139(12) . . .
141(12) . . .
150(12) . . .
143(12) . . .
158(13) . . .
153(12) . . .
134(12) . . .
143(12) . . .
124(11) . . .
150(12) . . .
151(12) . . .
149(12) . . .
139(12) . . .
160(13) . . .
135(12) . . .
151(12) . . .
130(11) . . .
150(12) . . .
159(13) . . .
149(12) . . .
134(12) . . .
143(12) . . .
141(12) . . .
133(12) . . .
150(12) . . .
138(12) . . .
148(12) . . .
154(12) . . .
138(12) . . .
162(13) . . .
142(12) . . .
150(12) . . .
133(12) . . .
146(12) . . .
143(12) . . .
159(13) . . .
151(12) . . .
138(12) . . .
141(12) . . .
156(12) . . .
148(12) . . .
141(12) . . .
148(12) . . .
138(12) . . .
142(12) . . .
136(12) . . .
129(11) . . .
128(11) . . .
160(13) . . .
144(12) . . .
141(12) . . .
155(12) . . .
144(12) . . .
142(12) . . .
131(11) . . .
141(12) . . .
127(11) . . .
137(12) . . .
157(13) . . .
134(12) . . .
171(13) . . .
131(11) . . .
151(12) . . .
170(13) . . .
151(12) . . .
140(12) . . .
159(13) . . .
171(13) . . .
168(13) . . .
152(12) . . .
155(12) . . .
135(12) . . .
155(12) . . .
155(12) . . .
135(12) . . .
155(12) . . .
147(12) . . .
148(12) . . .
170(13) . . .
140(12) . . .
144(12) . . .
125(11) . . .
143(12) . . .
158(13) . . .
186(14) . . .
161(13) . . .
161(13) . . .
143(12) . . .
156(12) . . .
146(12) . . .
157(13) . . .
166(13) . . .
135(12) . . .
161(13) . . .
146(12) . . .
147(12) . . .
167(13) . . .
160(13) . . .
151(12) . . .
156(12) . . .
154(12) . . .
157(13) . . .
159(13) . . .
164(13) . . .
162(13) . . .
160(13) . . .
150(12) . . .
141(12) . . .
161(13) . . .
151(12) . . .
186(14) . . .
161(13) . . .
167(13) . . .
175(13) . . .
171(13) . . .
153(12) . . .
163(13) . . .
170(13) . . .
168(13) . . .
166(13) . . .
174(13) . . .
183(14) . . .
159(13) . . .
168(13) . . .
181(13) . . .
192(14) . . .
191(14) . . .
198(14) . . .
175(13) . . .
195(14) . . .
187(14) . . .
183(14) . . .
181(13) . . .
209(14) . . .
204(14) . . .
200(14) . . .
234(15) . . .
207(14) . . .
211(15) . . .
233(15) . . .
205(14) . . .
227(15) . . .
220(15) . . .
238(15) . . .
249(16) . . .
236(15) . . .
213(15) . . .
267(16) . . .
261(16) . . .
289(17) . . .
276(17) . . .
325(18) . . .
316(18) . . .
328(18) . . .
333(18) . . .
359(19) . . .
375(19) . . .
370(19) . . .
397(20) . . .
402(20) . . .
467(22) . . .
435(21) . . .
452(21) . . .
501(22) . . .
530(23) . . .
564(24) . . .
588(24) . . .
619(25) . . .
693(26) . . .
748(27) . . .
753(27) . . .
823(29) . . .
892(30) . . .
932(31) . . .
992(31) . . .
1065(33) . . .
1146(34) . . .
1237(35) . . .
1248(35) . . .
1305(36) . . .
1414(38) . . .
1459(38) . . .
1464(38) . . .
1519(39) . . .
1553(39) . . .
1545(39) . . .
1473(38) . . .
1591(40) . . .
1473(38) . . .
1434(38) . . .
1336(37) . . .
1269(36) . . .
1211(35) . . .
1186(34) . . .
1087(33) . . .
1024(32) . . .
927(30) . . .
888(30) . . .
827(29) . . .
738(27) . . .
711(27) . . .
630(25) . . .
609(25) . . .
582(24) . . .
541(23) . . .
538(23) . . .
468(22) . . .
444(21) . . .
418(20) . . .
396(20) . . .
405(20) . . .
359(19) . . .
327(18) . . .
368(19) . . .
295(17) . . .
291(17) . . .
326(18) . . .
272(16) . . .
272(16) . . .
285(17) . . .
260(16) . . .
253(16) . . .
268(16) . . .
240(15) . . .
270(16) . . .
210(14) . . .
230(15) . . .
237(15) . . .
234(15) . . .
235(15) . . .
224(15) . . .
190(14) . . .
197(14) . . .
209(14) . . .
200(14) . . .
198(14) . . .
207(14) . . .
188(14) . . .
199(14) . . .
174(13) . . .
198(14) . . .
198(14) . . .
194(14) . . .
168(13) . . .
169(13) . . .
182(13) . . .
197(14) . . .
165(13) . . .
191(14) . . .
185(14) . . .
170(13) . . .
185(14) . . .
170(13) . . .
191(14) . . .
169(13) . . .
172(13) . . .
169(13) . . .
162(13) . . .
195(14) . . .
164(13) . . .
162(13) . . .
164(13) . . .
163(13) . . .
191(14) . . .
159(13) . . .
180(13) . . .
155(12) . . .
162(13) . . .
144(12) . . .
153(12) . . .
165(13) . . .
167(13) . . .
144(12) . . .
165(13) . . .
142(12) . . .
161(13) . . .
161(13) . . .
155(12) . . .
162(13) . . .
141(12) . . .
147(12) . . .
147(12) . . .
162(13) . . .
155(12) . . .
132(11) . . .
164(13) . . .
167(13) . . .
135(12) . . .
142(12) . . .
163(13) . . .
155(12) . . .
142(12) . . .
142(12) . . .
153(12) . . .
148(12) . . .
139(12) . . .
162(13) . . .
143(12) . . .
156(12) . . .
135(12) . . .
151(12) . . .
159(13) . . .
159(13) . . .
147(12) . . .
149(12) . . .
143(12) . . .
143(12) . . .
156(12) . . .
144(12) . . .
138(12) . . .
152(12) . . .
141(12) . . .
138(12) . . .
149(12) . . .
147(12) . . .
156(12) . . .
152(12) . . .
148(12) . . .
150(12) . . .
121(11) . . .
145(12) . . .
146(12) . . .
142(12) . . .
146(12) . . .
119(11) . . .
155(12) . . .
153(12) . . .
154(12) . . .
160(13) . . .
138(12) . . .
155(12) . . .
129(11) . . .
168(13) . . .
144(12) . . .
139(12) . . .
155(12) . . .
144(12) . . .
148(12) . . .
132(11) . . .
127(11) . . .
141(12) . . .
140(12) . . .
127(11) . . .
147(12) . . .
135(12) . . .
131(11) . . .
130(11) . . .
140(12) . . .
150(12) . . .
147(12) . . .
143(12) . . .
130(11) . . .
141(12) . . .
132(11) . . .
117(11) . . .
126(11) . . .
166(13) . . .
135(12) . . .
146(12) . . .
130(11) . . .
139(12) . . .
148(12) . . .
154(12) . . .
145(12) . . .
141(12) . . .
145(12) . . .
155(12) . . .
158(13) . . .
139(12) . . .
126(11) . . .
127(11) . . .
137(12) . . .
122(11) . . .
136(12) . . .
137(12) . . .
123(11) . . .
166(13) . . .
150(12) . . .
148(12) . . .
145(12) . . .
143(12) . . .
137(12) . . .
141(12) . . .
142(12) . . .
141(12) . . .
128(11) . . .
146(12) . . .
145(12) . . .
136(12) . . .
148(12) . . .
176(13) . . .
137(12) . . .
129(11) . . .
132(11) . . .
159(13) . . .
139(12) . . .
154(12) . . .
132(11) . . .
128(11) . . .
138(12) . . .
153(12) . . .
148(12) . . .
159(13) . . .
135(12) . . .
140(12) . . .
155(12) . . .
145(12) . . .
131(11) . . .
154(12) . . .
136(12) . . .
132(11) . . .
116(11) . . .
144(12) . . .
145(12) . . .
128(11) . . .
142(12) . . .
142(12) . . .
126(11) . . .
147(12) . . .
134(12) . . .
136(12) . . .
136(12) . . .
146(12) . . .
133(12) . . .
148(12) . . .
135(12) . . .
149(12) . . .
135(12) . . .
150(12) . . .
143(12) . . .
143(12) . . .
125(11) . . .
118(11) . . .
137(12) . . .
145(12) . . .
114(11) . . .
119(11) . . .
151(12) . . .
140(12) . . .
123(11) . . .
134(12) . . .
125(11) . . .
134(12) . . .
134(12) . . .
141(12) . . .
160(13) . . .
130(11) . . .
135(12) . . .
128(11) . . .
135(12) . . .
137(12) . . .
141(12) . . .
135(12) . . .
128(11) . . .
150(12) . . .
144(12) . . .
141(12) . . .
136(12) . . .
133(12) . . .
129(11) . . .
147(12) . . .
140(12) . . .
149(12) . . .
139(12) . . .
139(12) . . .
126(11) . . .
137(12) . . .
143(12) . . .
130(11) . . .
149(12) . . .
143(12) . . .
138(12) . . .
138(12) . . .
136(12) . . .
142(12) . . .
129(11) . . .
144(12) . . .
144(12) . . .
143(12) . . .
137(12) . . .
118(11) . . .
129(11) . . .
132(11) . . .
148(12) . . .
116(11) . . .
124(11) . . .
139(12) . . .
135(12) . . .
147(12) . . .
130(11) . . .
147(12) . . .
120(11) . . .
136(12) . . .
129(11) . . .
124(11) . . .
137(12) . . .
149(12) . . .
119(11) . . .
128(11) . . .
135(12) . . .
135(12) . . .
140(12) . . .
147(12) . . .
121(11) . . .
116(11) . . .
113(11) . . .
147(12) . . .
121(11) . . .
134(12) . . .
132(11) . . .
124(11) . . .
121(11) . . .
136(12) . . .
141(12) . . .
135(12) . . .
118(11) . . .
139(12) . . .
125(11) . . .
141(12) . . .
148(12) . . .
138(12) . . .
151(12) . . .
137(12) . . .
141(12) . . .
141(12) . . .
144(12) . . .
145(12) . . .
132(11) . . .
123(11) . . .
132(11) . . .
136(12) . . .
124(11) . . .
138(12) . . .
130(11) . . .
134(12) . . .
127(11) . . .
109(10) . . .
119(11) . . .
142(12) . . .
139(12) . . .
148(12) . . .
145(12) . . .
141(12) . . .
142(12) . . .
123(11) . . .
118(11) . . .
121(11) . . .
143(12) . . .
120(11) . . .
149(12) . . .
148(12) . . .
142(12) . . .
135(12) . . .
141(12) . . .
131(11) . . .
128(11) . . .
131(11) . . .
122(11) . . .
148(12) . . .
131(11) . . .
132(11) . . .
133(12) . . .
132(11) . . .
135(12) . . .
136(12) . . .
117(11) . . .
137(12) . . .
129(11) . . .
136(12) . . .
129(11) . . .
134(12) . . .
130(11) . . .
133(12) . . .
145(12) . . .
115(11) . . .
140(12) . . .
132(11) . . .
132(11) . . .
112(11) . . .
110(10) . . .
111(11) . . .
139(12) . . .
135(12) . . .
132(11) . . .
131(11) . . .
145(12) . . .
136(12) . . .
138(12) . . .
121(11) . . .
140(12) . . .
124(11) . . .
121(11) . . .
128(11) . . .
141(12) . . .
126(11) . . .
143(12) . . .
141(12) . . .
133(12) . . .
142(12) . . .
142(12) . . .
143(12) . . .
145(12) . . .
135(12) . . .
120(11) . . .
123(11) . . .
120(11) . . .
123(11) . . .
139(12) . . .
145(12) . . .
137(12) . . .
117(11) . . .
137(12) . . .
140(12) . . .
123(11) . . .
131(11) . . .
141(12) . . .
157(13) . . .
144(12) . . .
141(12) . . .
144(12) . . .
127(11) . . .
119(11) . . .
133(12) . . .
143(12) . . .
134(12) . . .
115(11) . . .
131(11) . . .
130(11) . . .
132(11) . . .
106(10) . . .
135(12) . . .
129(11) . . .
146(12) . . .
121(11) . . .
140(12) . . .
119(11) . . .
137(12) . . .
129(11) . . .
131(11) . . .
129(11) . . .
144(12) . . .
127(11) . . .
139(12) . . .
130(11) . . .
150(12) . . .
108(10) . . .
126(11) . . .
127(11) . . .
146(12) . . .
134(12) . . .
134(12) . . .
129(11) . . .
119(11) . . .
115(11) . . .
144(12) . . .
126(11) . . .
129(11) . . .
126(11) . . .
133(12) . . .
124(11) . . .
135(12) . . .
122(11) . . .
118(11) . . .
134(12) . . .
126(11) . . .
125(11) . . .
141(12) . . .
108(10) . . .
126(11) . . .
122(11) . . .
126(11) . . .
133(12) . . .
134(12) . . .
125(11) . . .
116(11) . . .
135(12) . . .
130(11) . . .
152(12) . . .
116(11) . . .
152(12) . . .
133(12) . . .
117(11) . . .
138(12) . . .
136(12) . . .
141(12) . . .
125(11) . . .
110(10) . . .
118(11) . . .
137(12) . . .
134(12) . . .
136(12) . . .
127(11) . . .
136(12) . . .
134(12) . . .
109(10) . . .
121(11) . . .
130(11) . . .
130(11) . . .
120(11) . . .
131(11) . . .
132(11) . . .
131(11) . . .
123(11) . . .
142(12) . . .
138(12) . . .
134(12) . . .
136(12) . . .
139(12) . . .
137(12) . . .
138(12) . . .
137(12) . . .
115(11) . . .
132(11) . . .
142(12) . . .
137(12) . . .
134(12) . . .
127(11) . . .
143(12) . . .
113(11) . . .
118(11) . . .
139(12) . . .
137(12) . . .
127(11) . . .
146(12) . . .
144(12) . . .
123(11) . . .
128(11) . . .
125(11) . . .
114(11) . . .
133(12) . . .
136(12) . . .
142(12) . . .
124(11) . . .
137(12) . . .
136(12) . . .
113(11) . . .
143(12) . . .
115(11) . . .
122(11) . . .
124(11) . . .
138(12) . . .
133(12) . . .
133(12) . . .
147(12) . . .
128(11) . . .
133(12) . . .
123(11) . . .
141(12) . . .
122(11) . . .
127(11) . . .
118(11) . . .
129(11) . . .
131(11) . . .
119(11) . . .
147(12) . . .
135(12) . . .
136(12) . . .
126(11) . . .
120(11) . . .
131(11) . . .
129(11) . . .
122(11) . . .
125(11) . . .
110(10) . . .
111(11) . . .
124(11) . . .
136(12) . . .
139(12) . . .
126(11) . . .
128(11) . . .
103(10) . . .
105(10) . . .
104(10) . . .
131(11) . . .
132(11) . . .
128(11) . . .
134(12) . . .
143(12) . . .
130(11) . . .
128(11) . . .
145(12) . . .
125(11) . . .
136(12) . . .
132(11) . . .
109(10) . . .
112(11) . . .
134(12) . . .
137(12) . . .
124(11) . . .
131(11) . . .
128(11) . . .
117(11) . . .
144(12) . . .
126(11) . . .
126(11) . . .
121(11) . . .
117(11) . . .
123(11) . . .
140(12) . . .
112(11) . . .
126(11) . . .
131(11) . . .
136(12) . . .
139(12) . . .
134(12) . . .
138(12) . . .
123(11) . . .
117(11) . . .
136(12) . . .
132(11) . . .
134(12) . . .
130(11) . . .
135(12) . . .
135(12) . . .
136(12) . . .
139(12) . . .
132(11) . . .
136(12) . . .
125(11) . . .
135(12) . . .
113(11) . . .
128(11) . . .
113(11) . . .
122(11) . . .
126(11) . . .
129(11) . . .
122(11) . . .
111(11) . . .
125(11) . . .
127(11) . . .
133(12) . . .
135(12) . . .
115(11) . . .
126(11) . . .
127(11) . . .
135(12) . . .
120(11) . . .
116(11) . . .
118(11) . . .
142(12) . . .
134(12) . . .
124(11) . . .
129(11) . . .
148(12) . . .
121(11) . . .
122(11) . . .
118(11) . . .
135(12) . . .
128(11) . . .
127(11) . . .
140(12) . . .
132(11) . . .
129(11) . . .
133(12) . . .
128(11) . . .
137(12) . . .
123(11) . . .
122(11) . . .
143(12) . . .
134(12) . . .
134(12) . . .
137(12) . . .
140(12) . . .
128(11) . . .
121(11) . . .
138(12) . . .
132(11) . . .
128(11) . . .
130(11) . . .
122(11) . . .
135(12) . . .
146(12) . . .
121(11) . . .
112(11) . . .
130(11) . . .
126(11) . . .
125(11) . . .
127(11) . . .
126(11) . . .
130(11) . . .
127(11) . . .
132(11) . . .
124(11) . . .
128(11) . . .
117(11) . . .
129(11) . . .
126(11) . . .
144(12) . . .
138(12) . . .
126(11) . . .
122(11) . . .
125(11) . . .
124(11) . . .
113(11) . . .
119(11) . . .
123(11) . . .
132(11) . . .
123(11) . . .
141(12) . . .
136(12) . . .
128(11) . . .
139(12) . . .
130(11) . . .
126(11) . . .
142(12) . . .
143(12) . . .
129(11) . . .
147(12) . . .
124(11) . . .
94(10) . . .
153(12) . . .
126(11) . . .
133(12) . . .
131(11) . . .
148(12) . . .
132(11) . . .
135(12) . . .
116(11) . . .
129(11) . . .
134(12) . . .
136(12) . . .
130(11) . . .
119(11) . . .
134(12) . . .
137(12) . . .
143(12) . . .
142(12) . . .
140(12) . . .
136(12) . . .
143(12) . . .
125(11) . . .
129(11) . . .
155(12) . . .
146(12) . . .
124(11) . . .
127(11) . . .
132(11) . . .
131(11) . . .
146(12) . . .
145(12) . . .
133(12) . . .
134(12) . . .
141(12) . . .
124(11) . . .
137(12) . . .
130(11) . . .
134(12) . . .
130(11) . . .
122(11) . . .
118(11) . . .
147(12) . . .
135(12) . . .
118(11) . . .
145(12) . . .
141(12) . . .
130(11) . . .
143(12) . . .
139(12) . . .
129(11) . . .
120(11) . . .
158(13) . . .
125(11) . . .
122(11) . . .
129(11) . . .
131(11) . . .
140(12) . . .
118(11) . . .
135(12) . . .
141(12) . . .
124(11) . . .
115(11) . . .
133(12) . . .
129(11) . . .
143(12) . . .
130(11) . . .
130(11) . . .
114(11) . . .
133(12) . . .
120(11) . . .
133(12) . . .
131(11) . . .
135(12) . . .
134(12) . . .
119(11) . . .
119(11) . . .
128(11) . . .
129(11) . . .
139(12) . . .
148(12) . . .
141(12) . . .
138(12) . . .
131(11) . . .
120(11) . . .
142(12) . . .
145(12) . . .
130(11) . . .
141(12) . . .
125(11) . . .
118(11) . . .
128(11) . . .
143(12) . . .
127(11) . . .
143(12) . . .
144(12) . . .
140(12) . . .
140(12) . . .
118(11) . . .
146(12) . . .
136(12) . . .
147(12) . . .
143(12) . . .
155(12) . . .
146(12) . . .
146(12) . . .
138(12) . . .
138(12) . . .
129(11) . . .
139(12) . . .
146(12) . . .
131(11) . . .
144(12) . . .
156(12) . . .
140(12) . . .
137(12) . . .
160(13) . . .
124(11) . . .
143(12) . . .
151(12) . . .
132(11) . . .
138(12) . . .
155(12) . . .
171(13) . . .
148(12) . . .
151(12) . . .
160(13) . . .
149(12) . . .
160(13) . . .
142(12) . . .
169(13) . . .
158(13) . . .
137(12) . . .
149(12) . . .
136(12) . . .
135(12) . . .
167(13) . . .
148(12) . . .
167(13) . . .
147(12) . . .
172(13) . . .
167(13) . . .
154(12) . . .
161(13) . . .
174(13) . . .
162(13) . . .
176(13) . . .
163(13) . . .
181(13) . . .
164(13) . . .
175(13) . . .
200(14) . . .
188(14) . . .
192(14) . . .
213(15) . . .
216(15) . . .
196(14) . . .
222(15) . . .
215(15) . . .
219(15) . . .
229(15) . . .
237(15) . . .
239(15) . . .
242(16) . . .
271(16) . . .
276(17) . . .
283(17) . . .
284(17) . . .
308(18) . . .
301(17) . . .
347(19) . . .
349(19) . . .
323(18) . . .
381(20) . . .
381(20) . . .
403(20) . . .
445(21) . . .
459(21) . . .
511(23) . . .
539(23) . . .
576(24) . . .
611(25) . . .
643(25) . . .
702(26) . . .
768(28) . . .
807(28) . . .
853(29) . . .
874(30) . . .
944(31) . . .
999(32) . . .
1047(32) . . .
1014(32) . . .
1070(33) . . .
1038(32) . . .
1032(32) . . .
1007(32) . . .
1115(33) . . .
1027(32) . . .
1021(32) . . .
972(31) . . .
885(30) . . .
918(30) . . .
818(29) . . .
782(28) . . .
752(27) . . .
670(26) . . .
690(26) . . .
598(24) . . .
579(24) . . .
536(23) . . .
480(22) . . .
455(21) . . .
423(21) . . .
403(20) . . .
362(19) . . .
365(19) . . .
347(19) . . .
351(19) . . .
314(18) . . .
317(18) . . .
286(17) . . .
281(17) . . .
258(16) . . .
273(17) . . .
244(16) . . .
236(15) . . .
246(16) . . .
229(15) . . .
201(14) . . .
231(15) . . .
206(14) . . .
207(14) . . .
187(14) . . .
194(14) . . .
197(14) . . .
193(14) . . .
202(14) . . .
175(13) . . .
192(14) . . .
161(13) . . .
170(13) . . .
175(13) . . .
164(13) . . .
156(12) . . .
170(13) . . .
189(14) . . .
147(12) . . .
155(12) . . .
161(13) . . .
152(12) . . .
160(13) . . .
152(12) . . .
168(13) . . .
164(13) . . .
155(12) . . .
152(12) . . .
173(13) . . .
165(13) . . .
149(12) . . .
153(12) . . .
154(12) . . .
157(13) . . .
139(12) . . .
166(13) . . .
143(12) . . .
138(12) . . .
150(12) . . .
142(12) . . .
158(13) . . .
129(11) . . .
132(11) . . .
144(12) . . .
134(12) . . .
140(12) . . .
144(12) . . .
136(12) . . .
151(12) . . .
158(13) . . .
132(11) . . .
147(12) . . .
137(12) . . .
150(12) . . .
122(11) . . .
135(12) . . .
125(11) . . .
123(11) . . .
154(12) . . .
137(12) . . .
148(12) . . .
150(12) . . .
129(11) . . .
130(11) . . .
133(12) . . .
143(12) . . .
141(12) . . .
133(12) . . .
136(12) . . .
150(12) . . .
142(12) . . .
132(11) . . .
144(12) . . .
136(12) . . .
110(10) . . .
116(11) . . .
136(12) . . .
117(11) . . .
135(12) . . .
122(11) . . .
136(12) . . .
129(11) . . .
114(11) . . .
119(11) . . .
136(12) . . .
133(12) . . .
153(12) . . .
122(11) . . .
135(12) . . .
116(11) . . .
136(12) . . .
133(12) . . .
133(12) . . .
129(11) . . .
115(11) . . .
125(11) . . .
155(12) . . .
132(11) . . .
117(11) . . .
120(11) . . .
150(12) . . .
127(11) . . .
117(11) . . .
118(11) . . .
132(11) . . .
134(12) . . .
151(12) . . .
117(11) . . .
137(12) . . .
143(12) . . .
128(11) . . .
130(11) . . .
121(11) . . .
125(11) . . .
126(11) . . .
133(12) . . .
127(11) . . .
116(11) . . .
129(11) . . .
126(11) . . .
128(11) . . .
131(11) . . .
133(12) . . .
140(12) . . .
141(12) . . .
142(12) . . .
138(12) . . .
130(11) . . .
116(11) . . .
119(11) . . .
116(11) . . .
127(11) . . .
105(10) . . .
121(11) . . .
132(11) . . .
120(11) . . .
117(11) . . .
131(11) . . .
124(11) . . .
134(12) . . .
110(10) . . .
125(11) . . .
117(11) . . .
123(11) . . .
128(11) . . .
107(10) . . .
118(11) . . .
132(11) . . .
154(12) . . .
128(11) . . .
122(11) . . .
126(11) . . .
124(11) . . .
127(11) . . .
93(10) . . .
113(11) . . .
118(11) . . .
126(11) . . .
131(11) . . .
104(10) . . .
119(11) . . .
115(11) . . .
120(11) . . .
108(10) . . .
117(11) . . .
131(11) . . .
121(11) . . .
129(11) . . .
119(11) . . .
134(12) . . .
117(11) . . .
119(11) . . .
124(11) . . .
112(11) . . .
122(11) . . .
131(11) . . .
130(11) . . .
127(11) . . .
111(11) . . .
133(12) . . .
129(11) . . .
127(11) . . .
121(11) . . .
123(11) . . .
116(11) . . .
110(10) . . .
124(11) . . .
126(11) . . .
125(11) . . .
121(11) . . .
128(11) . . .
114(11) . . .
120(11) . . .
118(11) . . .
102(10) . . .
116(11) . . .
114(11) . . .
133(12) . . .
118(11) . . .
127(11) . . .
129(11) . . .
127(11) . . .
135(12) . . .
125(11) . . .
105(10) . . .
114(11) . . .
125(11) . . .
132(11) . . .
111(11) . . .
121(11) . . .
110(10) . . .
126(11) . . .
128(11) . . .
128(11) . . .
94(10) . . .
124(11) . . .
126(11) . . .
110(10) . . .
104(10) . . .
114(11) . . .
148(12) . . .
129(11) . . .
109(10) . . .
122(11) . . .
100(10) . . .
111(11) . . .
116(11) . . .
111(11) . . .
124(11) . . .
119(11) . . .
114(11) . . .
122(11) . . .
110(10) . . .
105(10) . . .
114(11) . . .
111(11) . . .
117(11) . . .
127(11) . . .
119(11) . . .
116(11) . . .
122(11) . . .
124(11) . . .
112(11) . . .
111(11) . . .
112(11) . . .
110(10) . . .
116(11) . . .
122(11) . . .
110(10) . . .
127(11) . . .
109(10) . . .
132(11) . . .
104(10) . . .
117(11) . . .
124(11) . . .
113(11) . . .
134(12) . . .
118(11) . . .
136(12) . . .
117(11) . . .
119(11) . . .
111(11) . . .
132(11) . . .
130(11) . . .
117(11) . . .
130(11) . . .
108(10) . . .
111(11) . . .
126(11) . . .
119(11) . . .
109(10) . . .
112(11) . . .
116(11) . . .
123(11) . . .
118(11) . . .
118(11) . . .
128(11) . . .
115(11) . . .
112(11) . . .
110(10) . . .
125(11) . . .
116(11) . . .
101(10) . . .
103(10) . . .
116(11) . . .
145(12) . . .
130(11) . . .
125(11) . . .
125(11) . . .
116(11) . . .
126(11) . . .
114(11) . . .
129(11) . . .
111(11) . . .
106(10) . . .
117(11) . . .
136(12) . . .
131(11) . . .
131(11) . . .
120(11) . . .
119(11) . . .
134(12) . . .
111(11) . . .
103(10) . . .
111(11) . . .
126(11) . . .
113(11) . . .
108(10) . . .
116(11) . . .
118(11) . . .
122(11) . . .
126(11) . . .
116(11) . . .
120(11) . . .
121(11) . . .
103(10) . . .
136(12) . . .
111(11) . . .
116(11) . . .
116(11) . . .
119(11) . . .
132(11) . . .
109(10) . . .
118(11) . . .
121(11) . . .
97(10) . . .
110(10) . . .
120(11) . . .
119(11) . . .
122(11) . . .
124(11) . . .
111(11) . . .
113(11) . . .
119(11) . . .
103(10) . . .
120(11) . . .
112(11) . . .
103(10) . . .
122(11) . . .
109(10) . . .
110(10) . . .
118(11) . . .
129(11) . . .
114(11) . . .
113(11) . . .
112(11) . . .
117(11) . . .
111(11) . . .
119(11) . . .
117(11) . . .
116(11) . . .
108(10) . . .
111(11) . . .
111(11) . . .
111(11) . . .
106(10) . . .
110(10) . . .
113(11) . . .
104(10) . . .
111(11) . . .
141(12) . . .
117(11) . . .
109(10) . . .
110(10) . . .
117(11) . . .
114(11) . . .
98(10) . . .
116(11) . . .
112(11) . . .
104(10) . . .
117(11) . . .
118(11) . . .
117(11) . . .
114(11) . . .
115(11) . . .
117(11) . . .
102(10) . . .
129(11) . . .
102(10) . . .
120(11) . . .
98(10) . . .
101(10) . . .
127(11) . . .
123(11) . . .
112(11) . . .
117(11) . . .
121(11) . . .
105(10) . . .
131(11) . . .
114(11) . . .
121(11) . . .
99(10) . . .
97(10) . . .
101(10) . . .
129(11) . . .
119(11) . . .
104(10) . . .
110(10) . . .
102(10) . . .
135(12) . . .
104(10) . . .
119(11) . . .
112(11) . . .
102(10) . . .
117(11) . . .
99(10) . . .
108(10) . . .
112(11) . . .
118(11) . . .
118(11) . . .
111(11) . . .
117(11) . . .
101(10) . . .
104(10) . . .
102(10) . . .
112(11) . . .
104(10) . . .
108(10) . . .
105(10) . . .
118(11) . . .
115(11) . . .
113(11) . . .
117(11) . . .
136(12) . . .
107(10) . . .
105(10) . . .
117(11) . . .
129(11) . . .
115(11) . . .
110(10) . . .
114(11) . . .
112(11) . . .
116(11) . . .
101(10) . . .
114(11) . . .
117(11) . . .
102(10) . . .
117(11) . . .
97(10) . . .
106(10) . . .
107(10) . . .
132(11) . . .
109(10) . . .
114(11) . . .
107(10) . . .
104(10) . . .
112(11) . . .
110(10) . . .
111(11) . . .
113(11) . . .
116(11) . . .
118(11) . . .
110(10) . . .
114(11) . . .
102(10) . . .
102(10) . . .
114(11) . . .
111(11) . . .
109(10) . . .
109(10) . . .
119(11) . . .
121(11) . . .
130(11) . . .
103(10) . . .
109(10) . . .
118(11) . . .
124(11) . . .
98(10) . . .
99(10) . . .
109(10) . . .
115(11) . . .
115(11) . . .
97(10) . . .
107(10) . . .
84(9) . . .
98(10) . . .
96(10) . . .
109(10) . . .
103(10) . . .
112(11) . . .
128(11) . . .
111(11) . . .
111(11) . . .
112(11) . . .
115(11) . . .
120(11) . . .
103(10) . . .
114(11) . . .
117(11) . . .
132(11) . . .
113(11) . . .
88(9) . . .
118(11) . . .
115(11) . . .
109(10) . . .
115(11) . . .
103(10) . . .
125(11) . . .
106(10) . . .
111(11) . . .
125(11) . . .
112(11) . . .
101(10) . . .
119(11) . . .
105(10) . . .
99(10) . . .
112(11) . . .
111(11) . . .
110(10) . . .
120(11) . . .
110(10) . . .
116(11) . . .
109(10) . . .
112(11) . . .
117(11) . . .
112(11) . . .
112(11) . . .
99(10) . . .
120(11) . . .
116(11) . . .
124(11) . . .
109(10) . . .
115(11) . . .
106(10) . . .
98(10) . . .
105(10) . . .
104(10) . . .
109(10) . . .
107(10) . . .
104(10) . . .
105(10) . . .
122(11) . . .
116(11) . . .
90(9) . . .
126(11) . . .
112(11) . . .
121(11) . . .
119(11) . . .
113(11) . . .
114(11) . . .
108(10) . . .
112(11) . . .
95(10) . . .
91(10) . . .
107(10) . . .
104(10) . . .
99(10) . . .
105(10) . . .
108(10) . . .
111(11) . . .
114(11) . . .
106(10) . . .
116(11) . . .
116(11) . . .
113(11) . . .
107(10) . . .
120(11) . . .
105(10) . . .
111(11) . . .
103(10) . . .
109(10) . . .
123(11) . . .
116(11) . . .
101(10) . . .
120(11) . . .
110(10) . . .
109(10) . . .
103(10) . . .
108(10) . . .
108(10) . . .
109(10) . . .
113(11) . . .
127(11) . . .
99(10) . . .
98(10) . . .
115(11) . . .
105(10) . . .
92(10) . . .
122(11) . . .
122(11) . . .
112(11) . . .
104(10) . . .
115(11) . . .
99(10) . . .
103(10) . . .
124(11) . . .
130(11) . . .
89(9) . . .
112(11) . . .
102(10) . . .
111(11) . . .
109(10) . . .
104(10) . . .
131(11) . . .
122(11) . . .
102(10) . . .
109(10) . . .
113(11) . . .
116(11) . . .
105(10) . . .
125(11) . . .
88(9) . . .
121(11) . . .
105(10) . . .
115(11) . . .
115(11) . . .
98(10) . . .
98(10) . . .
109(10) . . .
107(10) . . .
113(11) . . .
106(10) . . .
105(10) . . .
100(10) . . .
97(10) . . .
110(10) . . .
124(11) . . .
117(11) . . .
105(10) . . .
117(11) . . .
112(11) . . .
108(10) . . .
105(10) . . .
126(11) . . .
119(11) . . .
120(11) . . .
117(11) . . .
103(10) . . .
103(10) . . .
115(11) . . .
112(11) . . .
103(10) . . .
108(10) . . .
102(10) . . .
123(11) . . .
114(11) . . .
115(11) . . .
111(11) . . .
108(10) . . .
110(10) . . .
102(10) . . .
103(10) . . .
100(10) . . .
122(11) . . .
104(10) . . .
89(9) . . .
114(11) . . .
112(11) . . .
98(10) . . .
104(10) . . .
105(10) . . .
115(11) . . .
103(10) . . .
122(11) . . .
116(11) . . .
97(10) . . .
117(11) . . .
106(10) . . .
104(10) . . .
130(11) . . .
114(11) . . .
127(11) . . .
106(10) . . .
108(10) . . .
102(10) . . .
107(10) . . .
122(11) . . .
89(9) . . .
113(11) . . .
94(10) . . .
118(11) . . .
91(10) . . .
118(11) . . .
123(11) . . .
114(11) . . .
117(11) . . .
114(11) . . .
110(10) . . .
106(10) . . .
116(11) . . .
102(10) . . .
108(10) . . .
97(10) . . .
121(11) . . .
120(11) . . .
104(10) . . .
119(11) . . .
94(10) . . .
91(10) . . .
106(10) . . .
115(11) . . .
101(10) . . .
110(10) . . .
107(10) . . .
109(10) . . .
99(10) . . .
97(10) . . .
119(11) . . .
101(10) . . .
97(10) . . .
105(10) . . .
112(11) . . .
111(11) . . .
111(11) . . .
98(10) . . .
103(10) . . .
113(11) . . .
107(10) . . .
100(10) . . .
102(10) . . .
104(10) . . .
113(11) . . .
116(11) . . .
101(10) . . .
103(10) . . .
127(11) . . .
123(11) . . .
105(10) . . .
101(10) . . .
112(11) . . .
137(12) . . .
121(11) . . .
108(10) . . .
110(10) . . .
123(11) . . .
107(10) . . .
104(10) . . .
99(10) . . .
111(11) . . .
110(10) . . .
126(11) . . .
113(11) . . .
108(10) . . .
100(10) . . .
112(11) . . .
108(10) . . .
126(11) . . .
99(10) . . .
115(11) . . .
107(10) . . .
103(10) . . .
109(10) . . .
107(10) . . .
119(11) . . .
110(10) . . .
92(10) . . .
102(10) . . .
121(11) . . .
118(11) . . .
103(10) . . .
102(10) . . .
117(11) . . .
93(10) . . .
102(10) . . .
113(11) . . .
97(10) . . .
105(10) . . .
127(11) . . .
91(10) . . .
107(10) . . .
106(10) . . .
106(10) . . .
112(11) . . .
109(10) . . .
104(10) . . .
94(10) . . .
101(10) . . .
110(10) . . .
104(10) . . .
110(10) . . .
103(10) . . .
107(10) . . .
94(10) . . .
108(10) . . .
104(10) . . .
105(10) . . .
107(10) . . .
98(10) . . .
86(9) . . .
116(11) . . .
118(11) . . .
100(10) . . .
104(10) . . .
100(10) . . .
101(10) . . .
99(10) . . .
106(10) . . .
106(10) . . .
113(11) . . .
106(10) . . .
102(10) . . .
104(10) . . .
109(10) . . .
93(10) . . .
81(9) . . .
110(10) . . .
122(11) . . .
105(10) . . .
102(10) . . .
94(10) . . .
105(10) . . .
108(10) . . .
103(10) . . .
94(10) . . .
108(10) . . .
94(10) . . .
108(10) . . .
101(10) . . .
107(10) . . .
104(10) . . .
110(10) . . .
105(10) . . .
102(10) . . .
114(11) . . .
120(11) . . .
86(9) . . .
98(10) . . .
79(9) . . .
121(11) . . .
110(10) . . .
96(10) . . .
102(10) . . .
95(10) . . .
108(10) . . .
97(10) . . .
122(11) . . .
108(10) . . .
108(10) . . .
102(10) . . .
119(11) . . .
111(11) . . .
93(10) . . .
107(10) . . .
112(11) . . .
95(10) . . .
111(11) . . .
118(11) . . .
107(10) . . .
101(10) . . .
110(10) . . .
103(10) . . .
112(11) . . .
114(11) . . .
118(11) . . .
108(10) . . .
103(10) . . .
95(10) . . .
126(11) . . .
111(11) . . .
103(10) . . .
109(10) . . .
100(10) . . .
110(10) . . .
104(10) . . .
93(10) . . .
101(10) . . .
113(11) . . .
102(10) . . .
96(10) . . .
90(9) . . .
106(10) . . .
94(10) . . .
103(10) . . .
108(10) . . .
94(10) . . .
112(11) . . .
88(9) . . .
115(11) . . .
105(10) . . .
112(11) . . .
115(11) . . .
89(9) . . .
103(10) . . .
104(10) . . .
94(10) . . .
101(10) . . .
100(10) . . .
105(10) . . .
113(11) . . .
114(11) . . .
112(11) . . .
94(10) . . .
105(10) . . .
107(10) . . .
107(10) . . .
104(10) . . .
109(10) . . .
92(10) . . .
108(10) . . .
92(10) . . .
115(11) . . .
107(10) . . .
101(10) . . .
111(11) . . .
107(10) . . .
116(11) . . .
112(11) . . .
110(10) . . .
102(10) . . .
104(10) . . .
88(9) . . .
99(10) . . .
88(9) . . .
114(11) . . .
105(10) . . .
99(10) . . .
101(10) . . .
100(10) . . .
99(10) . . .
105(10) . . .
103(10) . . .
106(10) . . .
102(10) . . .
101(10) . . .
102(10) . . .
114(11) . . .
103(10) . . .
89(9) . . .
117(11) . . .
113(11) . . .
108(10) . . .
99(10) . . .
119(11) . . .
132(11) . . .
101(10) . . .
110(10) . . .
100(10) . . .
115(11) . . .
102(10) . . .
100(10) . . .
104(10) . . .
92(10) . . .
104(10) . . .
107(10) . . .
101(10) . . .
106(10) . . .
102(10) . . .
98(10) . . .
106(10) . . .
89(9) . . .
115(11) . . .
97(10) . . .
90(9) . . .
99(10) . . .
125(11) . . .
102(10) . . .
112(11) . . .
110(10) . . .
106(10) . . .
112(11) . . .
97(10) . . .
99(10) . . .
95(10) . . .
104(10) . . .
98(10) . . .
102(10) . . .
118(11) . . .
114(11) . . .
98(10) . . .
114(11) . . .
119(11) . . .
119(11) . . .
111(11) . . .
98(10) . . .
130(11) . . .
111(11) . . .
105(10) . . .
103(10) . . .
105(10) . . .
108(10) . . .
98(10) . . .
100(10) . . .
93(10) . . .
91(10) . . .
110(10) . . .
124(11) . . .
89(9) . . .
121(11) . . .
90(9) . . .
111(11) . . .
97(10) . . .
105(10) . . .
115(11) . . .
107(10) . . .
101(10) . . .
105(10) . . .
113(11) . . .
86(9) . . .
79(9) . . .
90(9) . . .
103(10) . . .
114(11) . . .
117(11) . . .
108(10) . . .
97(10) . . .
88(9) . . .
124(11) . . .
102(10) . . .
96(10) . . .
111(11) . . .
104(10) . . .
104(10) . . .
106(10) . . .
109(10) . . .
127(11) . . .
112(11) . . .
109(10) . . .
107(10) . . .
107(10) . . .
98(10) . . .
99(10) . . .
104(10) . . .
94(10) . . .
100(10) . . .
102(10) . . .
119(11) . . .
110(10) . . .
119(11) . . .
105(10) . . .
103(10) . . .
108(10) . . .
100(10) . . .
102(10) . . .
100(10) . . .
99(10) . . .
114(11) . . .
96(10) . . .
109(10) . . .
103(10) . . .
114(11) . . .
109(10) . . .
103(10) . . .
109(10) . . .
104(10) . . .
95(10) . . .
99(10) . . .
112(11) . . .
97(10) . . .
103(10) . . .
109(10) . . .
94(10) . . .
108(10) . . .
116(11) . . .
96(10) . . .
99(10) . . .
109(10) . . .
93(10) . . .
89(9) . . .
105(10) . . .
116(11) . . .
104(10) . . .
114(11) . . .
98(10) . . .
101(10) . . .
105(10) . . .
89(9) . . .
94(10) . . .
105(10) . . .
107(10) . . .
125(11) . . .
112(11) . . .
97(10) . . .
94(10) . . .
107(10) . . .
112(11) . . .
102(10) . . .
107(10) . . .
101(10) . . .
102(10) . . .
105(10) . . .
108(10) . . .
109(10) . . .
97(10) . . .
93(10) . . .
110(10) . . .
91(10) . . .
99(10) . . .
92(10) . . .
101(10) . . .
90(9) . . .
86(9) . . .
110(10) . . .
109(10) . . .
121(11) . . .
95(10) . . .
123(11) . . .
109(10) . . .
103(10) . . .
99(10) . . .
94(10) . . .
97(10) . . .
111(11) . . .
99(10) . . .
91(10) . . .
90(9) . . .
86(9) . . .
90(9) . . .
108(10) . . .
106(10) . . .
124(11) . . .
123(11) . . .
110(10) . . .
111(11) . . .
110(10) . . .
98(10) . . .
112(11) . . .
107(10) . . .
96(10) . . .
101(10) . . .
104(10) . . .
114(11) . . .
108(10) . . .
106(10) . . .
115(11) . . .
92(10) . . .
100(10) . . .
118(11) . . .
93(10) . . .
100(10) . . .
97(10) . . .
88(9) . . .
101(10) . . .
100(10) . . .
97(10) . . .
100(10) . . .
116(11) . . .
112(11) . . .
93(10) . . .
105(10) . . .
111(11) . . .
111(11) . . .
102(10) . . .
100(10) . . .
91(10) . . .
93(10) . . .
91(10) . . .
99(10) . . .
101(10) . . .
119(11) . . .
111(11) . . .
109(10) . . .
97(10) . . .
99(10) . . .
114(11) . . .
102(10) . . .
123(11) . . .
86(9) . . .
103(10) . . .
107(10) . . .
104(10) . . .
107(10) . . .
98(10) . . .
105(10) . . .
101(10) . . .
99(10) . . .
106(10) . . .
86(9) . . .
106(10) . . .
97(10) . . .
110(10) . . .
110(10) . . .
99(10) . . .
105(10) . . .
101(10) . . .
105(10) . . .
98(10) . . .
99(10) . . .
104(10) . . .
104(10) . . .
85(9) . . .
94(10) . . .
94(10) . . .
113(11) . . .
116(11) . . .
96(10) . . .
88(9) . . .
105(10) . . .
96(10) . . .
112(11) . . .
102(10) . . .
101(10) . . .
100(10) . . .
107(10) . . .
106(10) . . .
94(10) . . .
95(10) . . .
99(10) . . .
108(10) . . .
100(10) . . .
95(10) . . .
98(10) . . .
111(11) . . .
107(10) . . .
93(10) . . .
102(10) . . .
109(10) . . .
106(10) . . .
106(10) . . .
92(10) . . .
111(11) . . .
103(10) . . .
100(10) . . .
98(10) . . .
86(9) . . .
85(9) . . .
101(10) . . .
91(10) . . .
103(10) . . .
109(10) . . .
107(10) . . .
105(10) . . .
108(10) . . .
106(10) . . .
94(10) . . .
108(10) . . .
109(10) . . .
96(10) . . .
120(11) . . .
101(10) . . .
94(10) . . .
94(10) . . .
106(10) . . .
100(10) . . .
110(10) . . .
105(10) . . .
105(10) . . .
104(10) . . .
100(10) . . .
106(10) . . .
106(10) . . .
115(11) . . .
102(10) . . .
103(10) . . .
95(10) . . .
103(10) . . .
109(10) . . .
90(9) . . .
96(10) . . .
89(9) . . .
90(9) . . .
110(10) . . .
99(10) . . .
87(9) . . .
94(10) . . .
106(10) . . .
97(10) . . .
95(10) . . .
99(10) . . .
113(11) . . .
89(9) . . .
104(10) . . .
95(10) . . .
121(11) . . .
101(10) . . .
108(10) . . .
113(11) . . .
87(9) . . .
103(10) . . .
114(11) . . .
95(10) . . .
99(10) . . .
98(10) . . .
90(9) . . .
104(10) . . .
96(10) . . .
100(10) . . .
91(10) . . .
98(10) . . .
103(10) . . .
95(10) . . .
85(9) . . .
107(10) . . .
103(10) . . .
101(10) . . .
103(10) . . .
93(10) . . .
105(10) . . .
121(11) . . .
92(10) . . .
97(10) . . .
101(10) . . .
81(9) . . .
99(10) . . .
110(10) . . .
96(10) . . .
108(10) . . .
96(10) . . .
97(10) . . .
100(10) . . .
93(10) . . .
103(10) . . .
96(10) . . .
99(10) . . .
90(9) . . .
96(10) . . .
90(9) . . .
99(10) . . .
112(11) . . .
95(10) . . .
89(9) . . .
98(10) . . .
109(10) . . .
109(10) . . .
110(10) . . .
117(11) . . .
128(11) . . .
103(10) . . .
104(10) . . .
82(9) . . .
112(11) . . .
105(10) . . .
95(10) . . .
108(10) . . .
101(10) . . .
117(11) . . .
82(9) . . .
102(10) . . .
97(10) . . .
99(10) . . .
97(10) . . .
92(10) . . .
110(10) . . .
91(10) . . .
97(10) . . .
109(10) . . .
109(10) . . .
106(10) . . .
99(10) . . .
106(10) . . .
105(10) . . .
112(11) . . .
100(10) . . .
96(10) . . .
116(11) . . .
103(10) . . .
99(10) . . .
98(10) . . .
100(10) . . .
97(10) . . .
105(10) . . .
105(10) . . .
113(11) . . .
107(10) . . .
79(9) . . .
101(10) . . .
96(10) . . .
120(11) . . .
85(9) . . .
97(10) . . .
95(10) . . .
94(10) . . .
107(10) . . .
87(9) . . .
102(10) . . .
91(10) . . .
83(9) . . .
102(10) . . .
106(10) . . .
103(10) . . .
114(11) . . .
104(10) . . .
116(11) . . .
103(10) . . .
101(10) . . .
99(10) . . .
110(10) . . .
103(10) . . .
105(10) . . .
103(10) . . .
102(10) . . .
108(10) . . .
97(10) . . .
115(11) . . .
108(10) . . .
106(10) . . .
109(10) . . .
108(10) . . .
101(10) . . .
103(10) . . .
94(10) . . .
110(10) . . .
109(10) . . .
98(10) . . .
91(10) . . .
104(10) . . .
108(10) . . .
101(10) . . .
91(10) . . .
109(10) . . .
103(10) . . .
98(10) . . .
101(10) . . .
110(10) . . .
110(10) . . .
101(10) . . .
116(11) . . .
132(11) . . .
114(11) . . .
106(10) . . .
117(11) . . .
96(10) . . .
100(10) . . .
91(10) . . .
121(11) . . .
98(10) . . .
102(10) . . .
102(10) . . .
103(10) . . .
105(10) . . .
120(11) . . .
108(10) . . .
118(11) . . .
104(10) . . .
106(10) . . .
118(11) . . .
93(10) . . .
113(11) . . .
109(10) . . .
108(10) . . .
107(10) . . .
114(11) . . .
104(10) . . .
94(10) . . .
112(11) . . .
111(11) . . .
91(10) . . .
95(10) . . .
104(10) . . .
126(11) . . .
107(10) . . .
96(10) . . .
111(11) . . .
103(10) . . .
114(11) . . .
112(11) . . .
107(10) . . .
105(10) . . .
116(11) . . .
104(10) . . .
114(11) . . .
97(10) . . .
94(10) . . .
114(11) . . .
103(10) . . .
87(9) . . .
101(10) . . .
89(9) . . .
103(10) . . .
97(10) . . .
96(10) . . .
95(10) . . .
112(11) . . .
103(10) . . .
106(10) . . .
114(11) . . .
110(10) . . .
106(10) . . .
114(11) . . .
121(11) . . .
101(10) . . .
98(10) . . .
118(11) . . .
106(10) . . .
120(11) . . .
101(10) . . .
97(10) . . .
126(11) . . .
121(11) . . .
120(11) . . .
101(10) . . .
106(10) . . .
111(11) . . .
132(11) . . .
107(10) . . .
121(11) . . .
107(10) . . .
103(10) . . .
117(11) . . .
129(11) . . .
120(11) . . .
102(10) . . .
125(11) . . .
109(10) . . .
110(10) . . .
98(10) . . .
118(11) . . .
133(12) . . .
117(11) . . .
114(11) . . .
121(11) . . .
131(11) . . .
130(11) . . .
128(11) . . .
112(11) . . .
137(12) . . .
131(11) . . .
147(12) . . .
126(11) . . .
129(11) . . .
125(11) . . .
131(11) . . .
144(12) . . .
135(12) . . .
173(13) . . .
137(12) . . .
139(12) . . .
165(13) . . .
157(13) . . .
156(12) . . .
178(13) . . .
174(13) . . .
187(14) . . .
171(13) . . .
192(14) . . .
184(14) . . .
199(14) . . .
215(15) . . .
199(14) . . .
235(15) . . .
236(15) . . .
227(15) . . .
242(16) . . .
263(16) . . .
258(16) . . .
259(16) . . .
283(17) . . .
289(17) . . .
267(16) . . .
289(17) . . .
273(17) . . .
242(16) . . .
297(17) . . .
287(17) . . .
285(17) . . .
277(17) . . .
278(17) . . .
284(17) . . .
257(16) . . .
248(16) . . .
253(16) . . .
224(15) . . .
232(15) . . .
211(15) . . .
218(15) . . .
218(15) . . .
202(14) . . .
211(15) . . .
195(14) . . .
189(14) . . .
196(14) . . .
173(13) . . .
142(12) . . .
160(13) . . .
142(12) . . .
151(12) . . .
159(13) . . .
150(12) . . .
144(12) . . .
154(12) . . .
136(12) . . .
138(12) . . .
125(11) . . .
124(11) . . .
126(11) . . .
134(12) . . .
112(11) . . .
120(11) . . .
124(11) . . .
134(12) . . .
108(10) . . .
131(11) . . .
123(11) . . .
107(10) . . .
110(10) . . .
115(11) . . .
119(11) . . .
118(11) . . .
125(11) . . .
124(11) . . .
124(11) . . .
115(11) . . .
112(11) . . .
123(11) . . .
114(11) . . .
112(11) . . .
104(10) . . .
101(10) . . .
115(11) . . .
114(11) . . .
108(10) . . .
99(10) . . .
106(10) . . .
113(11) . . .
111(11) . . .
106(10) . . .
111(11) . . .
110(10) . . .
121(11) . . .
124(11) . . .
98(10) . . .
107(10) . . .
104(10) . . .
97(10) . . .
108(10) . . .
104(10) . . .
120(11) . . .
94(10) . . .
99(10) . . .
106(10) . . .
98(10) . . .
115(11) . . .
109(10) . . .
96(10) . . .
119(11) . . .
96(10) . . .
104(10) . . .
105(10) . . .
106(10) . . .
110(10) . . .
96(10) . . .
110(10) . . .
109(10) . . .
88(9) . . .
96(10) . . .
111(11) . . .
101(10) . . .
89(9) . . .
106(10) . . .
111(11) . . .
101(10) . . .
100(10) . . .
105(10) . . .
124(11) . . .
115(11) . . .
109(10) . . .
116(11) . . .
113(11) . . .
104(10) . . .
101(10) . . .
108(10) . . .
102(10) . . .
90(9) . . .
107(10) . . .
109(10) . . .
91(10) . . .
94(10) . . .
96(10) . . .
110(10) . . .
109(10) . . .
112(11) . . .
99(10) . . .
102(10) . . .
99(10) . . .
104(10) . . .
104(10) . . .
110(10) . . .
105(10) . . .
94(10) . . .
95(10) . . .
103(10) . . .
108(10) . . .
116(11) . . .
95(10) . . .
92(10) . . .
95(10) . . .
118(11) . . .
98(10) . . .
99(10) . . .
92(10) . . .
113(11) . . .
84(9) . . .
83(9) . . .
109(10) . . .
101(10) . . .
93(10) . . .
88(9) . . .
85(9) . . .
97(10) . . .
103(10) . . .
96(10) . . .
115(11) . . .
110(10) . . .
88(9) . . .
87(9) . . .
100(10) . . .
101(10) . . .
96(10) . . .
105(10) . . .
108(10) . . .
109(10) . . .
102(10) . . .
89(9) . . .
112(11) . . .
94(10) . . .
116(11) . . .
84(9) . . .
104(10) . . .
94(10) . . .
119(11) . . .
95(10) . . .
98(10) . . .
104(10) . . .
95(10) . . .
115(11) . . .
104(10) . . .
95(10) . . .
99(10) . . .
100(10) . . .
94(10) . . .
96(10) . . .
103(10) . . .
102(10) . . .
84(9) . . .
112(11) . . .
85(9) . . .
103(10) . . .
110(10) . . .
114(11) . . .
93(10) . . .
100(10) . . .
107(10) . . .
116(11) . . .
108(10) . . .
91(10) . . .
107(10) . . .
104(10) . . .
91(10) . . .
96(10) . . .
106(10) . . .
105(10) . . .
101(10) . . .
75(9) . . .
106(10) . . .
102(10) . . .
105(10) . . .
106(10) . . .
103(10) . . .
120(11) . . .
84(9) . . .
94(10) . . .
87(9) . . .
86(9) . . .
105(10) . . .
92(10) . . .
97(10) . . .
108(10) . . .
98(10) . . .
103(10) . . .
76(9) . . .
84(9) . . .
99(10) . . .
107(10) . . .
97(10) . . .
95(10) . . .
110(10) . . .
94(10) . . .
101(10) . . .
99(10) . . .
91(10) . . .
97(10) . . .
105(10) . . .
98(10) . . .
95(10) . . .
113(11) . . .
95(10) . . .
107(10) . . .
107(10) . . .
84(9) . . .
98(10) . . .
88(9) . . .
88(9) . . .
92(10) . . .
111(11) . . .
102(10) . . .
94(10) . . .
107(10) . . .
106(10) . . .
101(10) . . .
99(10) . . .
99(10) . . .
99(10) . . .
116(11) . . .
92(10) . . .
103(10) . . .
83(9) . . .
99(10) . . .
101(10) . . .
95(10) . . .
107(10) . . .
110(10) . . .
88(9) . . .
111(11) . . .
107(10) . . .
112(11) . . .
91(10) . . .
105(10) . . .
98(10) . . .
107(10) . . .
90(9) . . .
93(10) . . .
111(11) . . .
103(10) . . .
98(10) . . .
102(10) . . .
109(10) . . .
101(10) . . .
84(9) . . .
97(10) . . .
104(10) . . .
97(10) . . .
94(10) . . .
107(10) . . .
99(10) . . .
107(10) . . .
113(11) . . .
104(10) . . .
103(10) . . .
95(10) . . .
103(10) . . .
97(10) . . .
98(10) . . .
94(10) . . .
104(10) . . .
82(9) . . .
92(10) . . .
97(10) . . .
94(10) . . .
97(10) . . .
102(10) . . .
101(10) . . .
99(10) . . .
102(10) . . .
83(9) . . .
80(9) . . .
107(10) . . .
85(9) . . .
99(10) . . .
94(10) . . .
99(10) . . .
87(9) . . .
90(9) . . .
105(10) . . .
115(11) . . .
82(9) . . .
92(10) . . .
92(10) . . .
113(11) . . .
102(10) . . .
88(9) . . .
111(11) . . .
107(10) . . .
102(10) . . .
106(10) . . .
103(10) . . .
100(10) . . .
116(11) . . .
104(10) . . .
112(11) . . .
109(10) . . .
93(10) . . .
100(10) . . .
108(10) . . .
111(11) . . .
107(10) . . .
93(10) . . .
94(10) . . .
105(10) . . .
106(10) . . .
91(10) . . .
114(11) . . .
108(10) . . .
113(11) . . .
99(10) . . .
103(10) . . .
106(10) . . .
96(10) . . .
114(11) . . .
97(10) . . .
83(9) . . .
92(10) . . .
96(10) . . .
90(9) . . .
98(10) . . .
104(10) . . .
97(10) . . .
96(10) . . .
96(10) . . .
107(10) . . .
112(11) . . .
110(10) . . .
81(9) . . .
95(10) . . .
100(10) . . .
99(10) . . .
95(10) . . .
98(10) . . .
93(10) . . .
99(10) . . .
94(10) . . .
99(10) . . .
91(10) . . .
90(9) . . .
101(10) . . .
93(10) . . .
115(11) . . .
98(10) . . .
107(10) . . .
116(11) . . .
94(10) . . .
93(10) . . .
92(10) . . .
102(10) . . .
88(9) . . .
84(9) . . .
100(10) . . .
96(10) . . .
113(11) . . .
95(10) . . .
99(10) . . .
99(10) . . .
101(10) . . .
100(10) . . .
89(9) . . .
98(10) . . .
104(10) . . .
103(10) . . .
106(10) . . .
106(10) . . .
87(9) . . .
114(11) . . .
91(10) . . .
99(10) . . .
96(10) . . .
100(10) . . .
105(10) . . .
104(10) . . .
99(10) . . .
110(10) . . .
136(12) . . .
99(10) . . .
95(10) . . .
83(9) . . .
99(10) . . .
103(10) . . .
101(10) . . .
98(10) . . .
84(9) . . .
105(10) . . .
100(10) . . .
93(10) . . .
105(10) . . .
122(11) . . .
105(10) . . .
110(10) . . .
83(9) . . .
104(10) . . .
95(10) . . .
94(10) . . .
108(10) . . .
84(9) . . .
107(10) . . .
95(10) . . .
109(10) . . .
95(10) . . .
108(10) . . .
98(10) . . .
97(10) . . .
92(10) . . .
102(10) . . .
116(11) . . .
92(10) . . .
91(10) . . .
84(9) . . .
95(10) . . .
103(10) . . .
111(11) . . .
99(10) . . .
98(10) . . .
110(10) . . .
98(10) . . .
109(10) . . .
104(10) . . .
90(9) . . .
95(10) . . .
97(10) . . .
109(10) . . .
105(10) . . .
96(10) . . .
81(9) . . .
89(9) . . .
99(10) . . .
94(10) . . .
101(10) . . .
102(10) . . .
94(10) . . .
103(10) . . .
95(10) . . .
95(10) . . .
109(10) . . .
97(10) . . .
107(10) . . .
94(10) . . .
117(11) . . .
86(9) . . .
96(10) . . .
90(9) . . .
82(9) . . .
103(10) . . .
96(10) . . .
115(11) . . .
96(10) . . .
109(10) . . .
82(9) . . .
82(9) . . .
95(10) . . .
100(10) . . .
94(10) . . .
96(10) . . .
108(10) . . .
107(10) . . .
108(10) . . .
79(9) . . .
111(11) . . .
104(10) . . .
106(10) . . .
91(10) . . .
93(10) . . .
111(11) . . .
87(9) . . .
102(10) . . .
111(11) . . .
102(10) . . .
113(11) . . .
100(10) . . .
90(9) . . .
94(10) . . .
115(11) . . .
94(10) . . .
103(10) . . .
118(11) . . .
100(10) . . .
92(10) . . .
98(10) . . .
113(11) . . .
107(10) . . .
107(10) . . .
93(10) . . .
95(10) . . .
90(9) . . .
103(10) . . .
107(10) . . .
99(10) . . .
91(10) . . .
130(11) . . .
91(10) . . .
100(10) . . .
91(10) . . .
95(10) . . .
100(10) . . .
96(10) . . .
104(10) . . .
98(10) . . .
117(11) . . .
91(10) . . .
90(9) . . .
93(10) . . .
101(10) . . .
92(10) . . .
94(10) . . .
94(10) . . .
106(10) . . .
92(10) . . .
80(9) . . .
91(10) . . .
88(9) . . .
101(10) . . .
97(10) . . .
94(10) . . .
100(10) . . .
93(10) . . .
98(10) . . .
103(10) . . .
109(10) . . .
109(10) . . .
102(10) . . .
105(10) . . .
95(10) . . .
98(10) . . .
84(9) . . .
105(10) . . .
119(11) . . .
100(10) . . .
97(10) . . .
101(10) . . .
120(11) . . .
95(10) . . .
93(10) . . .
113(11) . . .
104(10) . . .
106(10) . . .
94(10) . . .
116(11) . . .
104(10) . . .
100(10) . . .
86(9) . . .
99(10) . . .
95(10) . . .
85(9) . . .
90(9) . . .
92(10) . . .
91(10) . . .
98(10) . . .
92(10) . . .
103(10) . . .
105(10) . . .
102(10) . . .
92(10) . . .
103(10) . . .
105(10) . . .
103(10) . . .
95(10) . . .
93(10) . . .
96(10) . . .
110(10) . . .
100(10) . . .
96(10) . . .
102(10) . . .
104(10) . . .
108(10) . . .
97(10) . . .
89(9) . . .
105(10) . . .
94(10) . . .
99(10) . . .
83(9) . . .
96(10) . . .
86(9) . . .
106(10) . . .
117(11) . . .
83(9) . . .
98(10) . . .
111(11) . . .
100(10) . . .
90(9) . . .
97(10) . . .
94(10) . . .
103(10) . . .
91(10) . . .
87(9) . . .
98(10) . . .
88(9) . . .
99(10) . . .
101(10) . . .
105(10) . . .
97(10) . . .
96(10) . . .
102(10) . . .
89(9) . . .
106(10) . . .
90(9) . . .
95(10) . . .
114(11) . . .
97(10) . . .
102(10) . . .
103(10) . . .
97(10) . . .
104(10) . . .
112(11) . . .
106(10) . . .
99(10) . . .
108(10) . . .
97(10) . . .
99(10) . . .
97(10) . . .
93(10) . . .
93(10) . . .
96(10) . . .
100(10) . . .
96(10) . . .
101(10) . . .
92(10) . . .
88(9) . . .
104(10) . . .
103(10) . . .
100(10) . . .
89(9) . . .
92(10) . . .
94(10) . . .
97(10) . . .
111(11) . . .
88(9) . . .
103(10) . . .
98(10) . . .
91(10) . . .
86(9) . . .
104(10) . . .
97(10) . . .
110(10) . . .
103(10) . . .
80(9) . . .
107(10) . . .
96(10) . . .
102(10) . . .
90(9) . . .
84(9) . . .
92(10) . . .
92(10) . . .
131(11) . . .
107(10) . . .
98(10) . . .
95(10) . . .
99(10) . . .
105(10) . . .
118(11) . . .
107(10) . . .
100(10) . . .
100(10) . . .
103(10) . . .
102(10) . . .
101(10) . . .
102(10) . . .
91(10) . . .
128(11) . . .
116(11) . . .
93(10) . . .
93(10) . . .
104(10) . . .
90(9) . . .
95(10) . . .
92(10) . . .
99(10) . . .
106(10) . . .
112(11) . . .
82(9) . . .
93(10) . . .
120(11) . . .
88(9) . . .
106(10) . . .
96(10) . . .
119(11) . . .
92(10) . . .
99(10) . . .
101(10) . . .
98(10) . . .
93(10) . . .
108(10) . . .
101(10) . . .
111(11) . . .
106(10) . . .
105(10) . . .
123(11) . . .
105(10) . . .
99(10) . . .
99(10) . . .
109(10) . . .
100(10) . . .
98(10) . . .
92(10) . . .
87(9) . . .
93(10) . . .
95(10) . . .
106(10) . . .
99(10) . . .
94(10) . . .
88(9) . . .
109(10) . . .
104(10) . . .
86(9) . . .
99(10) . . .
100(10) . . .
101(10) . . .
102(10) . . .
108(10) . . .
100(10) . . .
98(10) . . .
90(9) . . .
103(10) . . .
94(10) . . .
102(10) . . .
91(10) . . .
109(10) . . .
92(10) . . .
94(10) . . .
104(10) . . .
90(9) . . .
98(10) . . .
105(10) . . .
92(10) . . .
106(10) . . .
89(9) . . .
103(10) . . .
117(11) . . .
102(10) . . .
99(10) . . .
90(9) . . .
107(10) . . .
98(10) . . .
104(10) . . .
97(10) . . .
98(10) . . .
102(10) . . .
92(10) . . .
91(10) . . .
98(10) . . .
111(11) . . .
106(10) . . .
90(9) . . .
103(10) . . .
133(12) . . .
102(10) . . .
99(10) . . .
103(10) . . .
83(9) . . .
83(9) . . .
107(10) . . .
90(9) . . .
110(10) . . .
105(10) . . .
93(10) . . .
104(10) . . .
120(11) . . .
106(10) . . .
102(10) . . .
100(10) . . .
108(10) . . .
81(9) . . .
95(10) . . .
83(9) . . .
107(10) . . .
115(11) . . .
105(10) . . .
91(10) . . .
104(10) . . .
118(11) . . .
103(10) . . .
92(10) . . .
104(10) . . .
102(10) . . .
111(11) . . .
116(11) . . .
101(10) . . .
104(10) . . .
95(10) . . .
89(9) . . .
115(11) . . .
100(10) . . .
110(10) . . .
120(11) . . .
83(9) . . .
107(10) . . .
118(11) . . .
95(10) . . .
98(10) . . .
97(10) . . .
93(10) . . .
109(10) . . .
111(11) . . .
102(10) . . .
100(10) . . .
113(11) . . .
104(10) . . .
92(10) . . .
92(10) . . .
101(10) . . .
107(10) . . .
102(10) . . .
110(10) . . .
100(10) . . .
91(10) . . .
104(10) . . .
106(10) . . .
112(11) . . .
83(9) . . .
97(10) . . .
104(10) . . .
110(10) . . .
103(10) . . .
110(10) . . .
105(10) . . .
94(10) . . .
105(10) . . .
121(11) . . .
101(10) . . .
97(10) . . .
95(10) . . .
99(10) . . .
115(11) . . .
112(11) . . .
96(10) . . .
93(10) . . .
92(10) . . .
113(11) . . .
104(10) . . .
113(11) . . .
103(10) . . .
103(10) . . .
96(10) . . .
92(10) . . .
111(11) . . .
118(11) . . .
118(11) . . .
94(10) . . .
111(11) . . .
106(10) . . .
105(10) . . .
108(10) . . .
118(11) . . .
109(10) . . .
135(12) . . .
129(11) . . .
120(11) . . .
114(11) . . .
108(10) . . .
112(11) . . .
115(11) . . .
107(10) . . .
112(11) . . .
121(11) . . .
103(10) . . .
113(11) . . .
112(11) . . .
109(10) . . .
111(11) . . .
117(11) . . .
121(11) . . .
114(11) . . .
126(11) . . .
120(11) . . .
113(11) . . .
105(10) . . .
124(11) . . .
127(11) . . .
111(11) . . .
115(11) . . .
103(10) . . .
119(11) . . .
121(11) . . .
110(10) . . .
118(11) . . .
111(11) . . .
110(10) . . .
117(11) . . .
110(10) . . .
111(11) . . .
139(12) . . .
107(10) . . .
109(10) . . .
114(11) . . .
106(10) . . .
113(11) . . .
109(10) . . .
132(11) . . .
118(11) . . .
124(11) . . .
125(11) . . .
123(11) . . .
131(11) . . .
135(12) . . .
124(11) . . .
118(11) . . .
130(11) . . .
135(12) . . .
124(11) . . .
147(12) . . .
137(12) . . .
158(13) . . .
129(11) . . .
148(12) . . .
135(12) . . .
155(12) . . .
168(13) . . .
176(13) . . .
179(13) . . .
173(13) . . .
149(12) . . .
162(13) . . .
185(14) . . .
185(14) . . .
211(15) . . .
216(15) . . .
206(14) . . .
238(15) . . .
222(15) . . .
261(16) . . .
258(16) . . .
246(16) . . .
279(17) . . .
299(17) . . .
291(17) . . .
316(18) . . .
300(17) . . .
310(18) . . .
305(17) . . .
351(19) . . .
309(18) . . .
328(18) . . .
301(17) . . .
353(19) . . .
325(18) . . .
314(18) . . .
307(18) . . .
322(18) . . .
313(18) . . .
281(17) . . .
289(17) . . .
282(17) . . .
269(16) . . .
282(17) . . .
245(16) . . .
268(16) . . .
221(15) . . .
217(15) . . .
236(15) . . .
236(15) . . .
199(14) . . .
193(14) . . .
196(14) . . .
189(14) . . .
165(13) . . .
189(14) . . .
171(13) . . .
169(13) . . .
153(12) . . .
167(13) . . .
158(13) . . .
137(12) . . .
155(12) . . .
143(12) . . .
153(12) . . .
149(12) . . .
146(12) . . .
146(12) . . .
140(12) . . .
125(11) . . .
133(12) . . .
135(12) . . .
140(12) . . .
121(11) . . .
120(11) . . .
118(11) . . .
124(11) . . .
150(12) . . .
137(12) . . .
121(11) . . .
116(11) . . .
119(11) . . .
119(11) . . .
113(11) . . .
149(12) . . .
112(11) . . .
131(11) . . .
106(10) . . .
112(11) . . .
111(11) . . .
108(10) . . .
99(10) . . .
125(11) . . .
116(11) . . .
126(11) . . .
116(11) . . .
114(11) . . .
116(11) . . .
132(11) . . .
120(11) . . .
115(11) . . .
111(11) . . .
123(11) . . .
105(10) . . .
120(11) . . .
97(10) . . .
93(10) . . .
111(11) . . .
108(10) . . .
122(11) . . .
108(10) . . .
110(10) . . .
110(10) . . .
112(11) . . .
118(11) . . .
117(11) . . .
107(10) . . .
130(11) . . .
96(10) . . .
116(11) . . .
107(10) . . .
103(10) . . .
109(10) . . .
116(11) . . .
104(10) . . .
115(11) . . .
112(11) . . .
96(10) . . .
118(11) . . .
102(10) . . .
112(11) . . .
112(11) . . .
124(11) . . .
103(10) . . .
97(10) . . .
106(10) . . .
105(10) . . .
97(10) . . .
94(10) . . .
106(10) . . .
109(10) . . .
104(10) . . .
119(11) . . .
116(11) . . .
98(10) . . .
115(11) . . .
96(10) . . .
116(11) . . .
105(10) . . .
106(10) . . .
102(10) . . .
88(9) . . .
108(10) . . .
113(11) . . .
91(10) . . .
105(10) . . .
100(10) . . .
109(10) . . .
104(10) . . .
106(10) . . .
111(11) . . .
93(10) . . .
102(10) . . .
113(11) . . .
110(10) . . .
97(10) . . .
97(10) . . .
115(11) . . .
121(11) . . .
95(10) . . .
105(10) . . .
107(10) . . .
100(10) . . .
112(11) . . .
101(10) . . .
109(10) . . .
93(10) . . .
111(11) . . .
105(10) . . .
105(10) . . .
95(10) . . .
114(11) . . .
117(11) . . .
115(11) . . .
96(10) . . .
108(10) . . .
111(11) . . .
97(10) . . .
105(10) . . .
110(10) . . .
95(10) . . .
115(11) . . .
104(10) . . .
115(11) . . .
109(10) . . .
110(10) . . .
94(10) . . .
112(11) . . .
101(10) . . .
112(11) . . .
98(10) . . .
119(11) . . .
98(10) . . .
121(11) . . .
117(11) . . .
108(10) . . .
95(10) . . .
123(11) . . .
109(10) . . .
107(10) . . .
113(11) . . .
109(10) . . .
114(11) . . .
124(11) . . .
100(10) . . .
95(10) . . .
110(10) . . .
92(10) . . .
108(10) . . .
102(10) . . .
108(10) . . .
119(11) . . .
134(12) . . .
114(11) . . .
115(11) . . .
112(11) . . .
109(10) . . .
87(9) . . .
99(10) . . .
119(11) . . .
104(10) . . .
108(10) . . .
113(11) . . .
117(11) . . .
118(11) . . .
106(10) . . .
99(10) . . .
114(11) . . .
115(11) . . .
97(10) . . .
105(10) . . .
98(10) . . .
115(11) . . .
115(11) . . .
112(11) . . .
113(11) . . .
114(11) . . .
114(11) . . .
100(10) . . .
102(10) . . .
116(11) . . .
101(10) . . .
121(11) . . .
102(10) . . .
124(11) . . .
120(11) . . .
108(10) . . .
95(10) . . .
103(10) . . .
114(11) . . .
101(10) . . .
122(11) . . .
114(11) . . .
110(10) . . .
104(10) . . .
116(11) . . .
110(10) . . .
128(11) . . .
124(11) . . .
120(11) . . .
119(11) . . .
112(11) . . .
97(10) . . .
121(11) . . .
114(11) . . .
104(10) . . .
108(10) . . .
109(10) . . .
110(10) . . .
113(11) . . .
105(10) . . .
104(10) . . .
116(11) . . .
117(11) . . .
124(11) . . .
118(11) . . .
100(10) . . .
115(11) . . .
130(11) . . .
115(11) . . .
118(11) . . .
112(11) . . .
116(11) . . .
103(10) . . .
129(11) . . .
134(12) . . .
116(11) . . .
131(11) . . .
113(11) . . .
125(11) . . .
123(11) . . .
103(10) . . .
134(12) . . .
123(11) . . .
118(11) . . .
141(12) . . .
144(12) . . .
106(10) . . .
127(11) . . .
145(12) . . .
140(12) . . .
141(12) . . .
147(12) . . .
158(13) . . .
145(12) . . .
157(13) . . .
149(12) . . .
139(12) . . .
148(12) . . .
132(11) . . .
154(12) . . .
145(12) . . .
155(12) . . .
142(12) . . .
162(13) . . .
165(13) . . .
178(13) . . .
186(14) . . .
180(13) . . .
190(14) . . .
191(14) . . .
201(14) . . .
192(14) . . .
223(15) . . .
206(14) . . .
218(15) . . .
226(15) . . .
235(15) . . .
253(16) . . .
253(16) . . .
265(16) . . .
272(16) . . .
308(18) . . .
318(18) . . .
326(18) . . .
363(19) . . .
362(19) . . .
379(19) . . .
409(20) . . .
417(20) . . .
430(21) . . .
447(21) . . .
464(22) . . .
510(23) . . .
512(23) . . .
527(23) . . .
540(23) . . .
564(24) . . .
554(24) . . .
577(24) . . .
594(24) . . .
561(24) . . .
604(25) . . .
590(24) . . .
624(25) . . .
572(24) . . .
580(24) . . .
536(23) . . .
542(23) . . .
472(22) . . .
502(22) . . .
467(22) . . .
448(21) . . .
460(21) . . .
403(20) . . .
388(20) . . .
394(20) . . .
353(19) . . .
358(19) . . .
335(18) . . .
334(18) . . .
292(17) . . .
310(18) . . .
253(16) . . .
275(17) . . .
261(16) . . .
234(15) . . .
216(15) . . .
202(14) . . .
211(15) . . .
216(15) . . .
204(14) . . .
179(13) . . .
197(14) . . .
197(14) . . .
209(14) . . .
174(13) . . .
159(13) . . .
168(13) . . .
171(13) . . .
163(13) . . .
154(12) . . .
155(12) . . .
158(13) . . .
136(12) . . .
148(12) . . .
157(13) . . .
161(13) . . .
138(12) . . .
138(12) . . .
134(12) . . .
138(12) . . .
146(12) . . .
139(12) . . .
155(12) . . .
128(11) . . .
118(11) . . .
125(11) . . .
122(11) . . .
122(11) . . .
130(11) . . .
143(12) . . .
136(12) . . .
120(11) . . .
137(12) . . .
133(12) . . .
109(10) . . .
124(11) . . .
108(10) . . .
126(11) . . .
111(11) . . .
116(11) . . .
103(10) . . .
103(10) . . .
108(10) . . .
111(11) . . .
114(11) . . .
109(10) . . .
114(11) . . .
127(11) . . .
102(10) . . .
110(10) . . .
87(9) . . .
115(11) . . .
111(11) . . .
113(11) . . .
120(11) . . .
118(11) . . .
111(11) . . .
110(10) . . .
117(11) . . .
134(12) . . .
108(10) . . .
104(10) . . .
118(11) . . .
122(11) . . .
117(11) . . .
117(11) . . .
90(9) . . .
102(10) . . .
120(11) . . .
107(10) . . .
110(10) . . .
109(10) . . .
111(11) . . .
102(10) . . .
103(10) . . .
109(10) . . .
107(10) . . .
88(9) . . .
101(10) . . .
114(11) . . .
114(11) . . .
117(11) . . .
94(10) . . .
97(10) . . .
113(11) . . .
110(10) . . .
105(10) . . .
109(10) . . .
96(10) . . .
103(10) . . .
95(10) . . .
96(10) . . .
118(11) . . .
99(10) . . .
104(10) . . .
112(11) . . .
116(11) . . .
96(10) . . .
112(11) . . .
92(10) . . .
93(10) . . .
99(10) . . .
103(10) . . .
102(10) . . .
92(10) . . .
115(11) . . .
108(10) . . .
134(12) . . .
101(10) . . .
108(10) . . .
96(10) . . .
92(10) . . .
110(10) . . .
113(11) . . .
105(10) . . .
102(10) . . .
100(10) . . .
109(10) . . .
90(9) . . .
109(10) . . .
103(10) . . .
102(10) . . .
95(10) . . .
99(10) . . .
104(10) . . .
105(10) . . .
115(11) . . .
103(10) . . .
117(11) . . .
109(10) . . .
107(10) . . .
105(10) . . .
87(9) . . .
99(10) . . .
101(10) . . .
100(10) . . .
101(10) . . .
104(10) . . .
111(11) . . .
94(10) . . .
119(11) . . .
113(11) . . .
93(10) . . .
106(10) . . .
91(10) . . .
98(10) . . .
87(9) . . .
101(10) . . .
87(9) . . .
92(10) . . .
101(10) . . .
103(10) . . .
94(10) . . .
105(10) . . .
97(10) . . .
95(10) . . .
96(10) . . .
101(10) . . .
115(11) . . .
94(10) . . .
109(10) . . .
108(10) . . .
95(10) . . .
113(11) . . .
77(9) . . .
101(10) . . .
98(10) . . .
109(10) . . .
111(11) . . .
102(10) . . .
84(9) . . .
102(10) . . .
103(10) . . .
89(9) . . .
97(10) . . .
114(11) . . .
104(10) . . .
107(10) . . .
102(10) . . .
104(10) . . .
91(10) . . .
101(10) . . .
107(10) . . .
90(9) . . .
93(10) . . .
88(9) . . .
93(10) . . .
101(10) . . .
103(10) . . .
96(10) . . .
109(10) . . .
113(11) . . .
100(10) . . .
95(10) . . .
95(10) . . .
99(10) . . .
107(10) . . .
104(10) . . .
95(10) . . .
103(10) . . .
91(10) . . .
109(10) . . .
104(10) . . .
102(10) . . .
90(9) . . .
89(9) . . .
92(10) . . .
102(10) . . .
106(10) . . .
115(11) . . .
96(10) . . .
99(10) . . .
113(11) . . .
104(10) . . .
89(9) . . .
115(11) . . .
103(10) . . .
106(10) . . .
121(11) . . .
95(10) . . .
101(10) . . .
103(10) . . .
89(9) . . .
89(9) . . .
97(10) . . .
103(10) . . .
118(11) . . .
92(10) . . .
98(10) . . .
89(9) . . .
91(10) . . .
86(9) . . .
90(9) . . .
106(10) . . .
102(10) . . .
105(10) . . .
94(10) . . .
103(10) . . .
98(10) . . .
87(9) . . .
96(10) . . .
104(10) . . .
101(10) . . .
107(10) . . .
100(10) . . .
107(10) . . .
97(10) . . .
104(10) . . .
92(10) . . .
99(10) . . .
96(10) . . .
103(10) . . .
96(10) . . .
90(9) . . .
89(9) . . .
98(10) . . .
111(11) . . .
97(10) . . .
91(10) . . .
98(10) . . .
111(11) . . .
100(10) . . .
95(10) . . .
114(11) . . .
111(11) . . .
95(10) . . .
114(11) . . .
111(11) . . .
103(10) . . .
107(10) . . .
105(10) . . .
108(10) . . .
101(10) . . .
102(10) . . .
94(10) . . .
84(9) . . .
99(10) . . .
93(10) . . .
117(11) . . .
93(10) . . .
110(10) . . .
97(10) . . .
118(11) . . .
93(10) . . .
107(10) . . .
91(10) . . .
86(9) . . .
107(10) . . .
97(10) . . .
108(10) . . .
108(10) . . .
100(10) . . .
97(10) . . .
102(10) . . .
104(10) . . .
96(10) . . .
84(9) . . .
107(10) . . .
102(10) . . .
97(10) . . .
97(10) . . .
89(9) . . .
106(10) . . .
113(11) . . .
90(9) . . .
86(9) . . .
82(9) . . .
102(10) . . .
96(10) . . .
94(10) . . .
85(9) . . .
118(11) . . .
96(10) . . .
92(10) . . .
96(10) . . .
105(10) . . .
95(10) . . .
104(10) . . .
98(10) . . .
86(9) . . .
105(10) . . .
95(10) . . .
106(10) . . .
88(9) . . .
93(10) . . .
102(10) . . .
101(10) . . .
92(10) . . .
102(10) . . .
103(10) . . .
93(10) . . .
100(10) . . .
96(10) . . .
102(10) . . .
108(10) . . .
95(10) . . .
82(9) . . .
80(9) . . .
104(10) . . .
99(10) . . .
102(10) . . .
101(10) . . .
110(10) . . .
106(10) . . .
99(10) . . .
109(10) . . .
95(10) . . .
92(10) . . .
96(10) . . .
99(10) . . .
100(10) . . .
99(10) . . .
106(10) . . .
111(11) . . .
122(11) . . .
113(11) . . .
94(10) . . .
103(10) . . .
108(10) . . .
89(9) . . .
97(10) . . .
91(10) . . .
93(10) . . .
102(10) . . .
85(9) . . .
112(11) . . .
107(10) . . .
114(11) . . .
86(9) . . .
88(9) . . .
97(10) . . .
101(10) . . .
96(10) . . .
100(10) . . .
99(10) . . .
110(10) . . .
92(10) . . .
95(10) . . .
100(10) . . .
105(10) . . .
86(9) . . .
108(10) . . .
99(10) . . .
100(10) . . .
86(9) . . .
99(10) . . .
100(10) . . .
96(10) . . .
95(10) . . .
102(10) . . .
108(10) . . .
104(10) . . .
102(10) . . .
114(11) . . .
109(10) . . .
92(10) . . .
108(10) . . .
108(10) . . .
99(10) . . .
89(9) . . .
86(9) . . .
92(10) . . .
95(10) . . .
105(10) . . .
104(10) . . .
101(10) . . .
102(10) . . .
92(10) . . .
85(9) . . .
105(10) . . .
93(10) . . .
101(10) . . .
120(11) . . .
86(9) . . .
91(10) . . .
86(9) . . .
95(10) . . .
83(9) . . .
97(10) . . .
103(10) . . .
107(10) . . .
97(10) . . .
90(9) . . .
96(10) . . .
104(10) . . .
89(9) . . .
95(10) . . .
87(9) . . .
89(9) . . .
93(10) . . .
94(10) . . .
101(10) . . .
101(10) . . .
109(10) . . .
106(10) . . .
109(10) . . .
106(10) . . .
107(10) . . .
92(10) . . .
105(10) . . .
116(11) . . .
84(9) . . .
98(10) . . .
95(10) . . .
107(10) . . .
98(10) . . .
109(10) . . .
96(10) . . .
96(10) . . .
89(9) . . .
104(10) . . .
94(10) . . .
92(10) . . .
90(9) . . .
98(10) . . .
93(10) . . .
91(10) . . .
91(10) . . .
93(10) . . .
97(10) . . .
88(9) . . .
84(9) . . .
106(10) . . .
96(10) . . .
86(9) . . .
98(10) . . .
91(10) . . .
100(10) . . .
103(10) . . .
99(10) . . .
98(10) . . .
110(10) . . .
88(9) . . .
98(10) . . .
94(10) . . .
97(10) . . .
105(10) . . .
91(10) . . .
90(9) . . .
101(10) . . .
111(11) . . .
89(9) . . .
90(9) . . .
98(10) . . .
88(9) . . .
103(10) . . .
88(9) . . .
100(10) . . .
109(10) . . .
92(10) . . .
92(10) . . .
90(9) . . .
98(10) . . .
102(10) . . .
91(10) . . .
106(10) . . .
108(10) . . .
107(10) . . .
90(9) . . .
108(10) . . .
102(10) . . .
88(9) . . .
95(10) . . .
87(9) . . .
87(9) . . .
93(10) . . .
101(10) . . .
99(10) . . .
90(9) . . .
106(10) . . .
99(10) . . .
90(9) . . .
94(10) . . .
95(10) . . .
109(10) . . .
93(10) . . .
106(10) . . .
120(11) . . .
107(10) . . .
96(10) . . .
96(10) . . .
110(10) . . .
104(10) . . .
107(10) . . .
107(10) . . .
94(10) . . .
96(10) . . .
100(10) . . .
80(9) . . .
94(10) . . .
102(10) . . .
84(9) . . .
98(10) . . .
109(10) . . .
91(10) . . .
94(10) . . .
84(9) . . .
107(10) . . .
95(10) . . .
94(10) . . .
102(10) . . .
106(10) . . .
91(10) . . .
101(10) . . .
87(9) . . .
98(10) . . .
102(10) . . .
101(10) . . .
103(10) . . .
109(10) . . .
91(10) . . .
93(10) . . .
112(11) . . .
93(10) . . .
106(10) . . .
98(10) . . .
97(10) . . .
106(10) . . .
103(10) . . .
103(10) . . .
102(10) . . .
102(10) . . .
106(10) . . .
96(10) . . .
85(9) . . .
80(9) . . .
96(10) . . .
93(10) . . .
104(10) . . .
97(10) . . .
81(9) . . .
100(10) . . .
112(11) . . .
89(9) . . .
79(9) . . .
102(10) . . .
91(10) . . .
104(10) . . .
102(10) . . .
95(10) . . .
90(9) . . .
80(9) . . .
95(10) . . .
94(10) . . .
96(10) . . .
101(10) . . .
88(9) . . .
103(10) . . .
111(11) . . .
105(10) . . .
105(10) . . .
94(10) . . .
83(9) . . .
95(10) . . .
96(10) . . .
89(9) . . .
97(10) . . .
91(10) . . .
95(10) . . .
96(10) . . .
111(11) . . .
114(11) . . .
88(9) . . .
108(10) . . .
96(10) . . .
103(10) . . .
105(10) . . .
94(10) . . .
95(10) . . .
105(10) . . .
85(9) . . .
108(10) . . .
107(10) . . .
110(10) . . .
110(10) . . .
92(10) . . .
89(9) . . .
89(9) . . .
96(10) . . .
98(10) . . .
96(10) . . .
100(10) . . .
97(10) . . .
93(10) . . .
99(10) . . .
92(10) . . .
100(10) . . .
97(10) . . .
102(10) . . .
104(10) . . .
92(10) . . .
91(10) . . .
98(10) . . .
88(9) . . .
104(10) . . .
90(9) . . .
99(10) . . .
99(10) . . .
98(10) . . .
94(10) . . .
101(10) . . .
87(9) . . .
90(9) . . .
85(9) . . .
88(9) . . .
118(11) . . .
97(10) . . .
88(9) . . .
92(10) . . .
101(10) . . .
91(10) . . .
95(10) . . .
78(9) . . .
107(10) . . .
92(10) . . .
95(10) . . .
109(10) . . .
81(9) . . .
97(10) . . .
84(9) . . .
105(10) . . .
90(9) . . .
94(10) . . .
89(9) . . .
107(10) . . .
114(11) . . .
101(10) . . .
103(10) . . .
98(10) . . .
85(9) . . .
108(10) . . .
107(10) . . .
112(11) . . .
110(10) . . .
117(11) . . .
92(10) . . .
97(10) . . .
101(10) . . .
95(10) . . .
110(10) . . .
91(10) . . .
82(9) . . .
95(10) . . .
83(9) . . .
97(10) . . .
103(10) . . .
91(10) . . .
83(9) . . .
107(10) . . .
87(9) . . .
103(10) . . .
114(11) . . .
99(10) . . .
113(11) . . .
97(10) . . .
108(10) . . .
98(10) . . .
105(10) . . .
107(10) . . .
96(10) . . .
89(9) . . .
85(9) . . .
81(9) . . .
105(10) . . .
103(10) . . .
104(10) . . .
106(10) . . .
82(9) . . .
112(11) . . .
98(10) . . .
91(10) . . .
83(9) . . .
88(9) . . .
92(10) . . .
107(10) . . .
99(10) . . .
103(10) . . .
95(10) . . .
101(10) . . .
92(10) . . .
106(10) . . .
84(9) . . .
111(11) . . .
114(11) . . .
101(10) . . .
98(10) . . .
92(10) . . .
97(10) . . .
100(10) . . .
94(10) . . .
115(11) . . .
116(11) . . .
93(10) . . .
95(10) . . .
107(10) . . .
97(10) . . .
95(10) . . .
89(9) . . .
108(10) . . .
88(9) . . .
118(11) . . .
96(10) . . .
106(10) . . .
92(10) . . .
90(9) . . .
100(10) . . .
104(10) . . .
95(10) . . .
105(10) . . .
90(9) . . .
91(10) . . .
88(9) . . .
123(11) . . .
103(10) . . .
80(9) . . .
92(10) . . .
104(10) . . .
119(11) . . .
100(10) . . .
93(10) . . .
102(10) . . .
109(10) . . .
88(9) . . .
98(10) . . .
105(10) . . .
107(10) . . .
107(10) . . .
106(10) . . .
94(10) . . .
85(9) . . .
100(10) . . .
107(10) . . .
103(10) . . .
99(10) . . .
92(10) . . .
97(10) . . .
102(10) . . .
105(10) . . .
102(10) . . .
96(10) . . .
100(10) . . .
117(11) . . .
89(9) . . .
104(10) . . .
96(10) . . .
94(10) . . .
109(10) . . .
96(10) . . .
95(10) . . .
91(10) . . .
89(9) . . .
89(9) . . .
90(9) . . .
99(10) . . .
101(10) . . .
99(10) . . .
98(10) . . .
98(10) . . .
95(10) . . .
115(11) . . .
98(10) . . .
97(10) . . .
85(9) . . .
98(10) . . .
94(10) . . .
97(10) . . .
104(10) . . .
112(11) . . .
91(10) . . .
94(10) . . .
93(10) . . .
88(9) . . .
87(9) . . .
114(11) . . .
101(10) . . .
107(10) . . .
104(10) . . .
100(10) . . .
102(10) . . .
92(10) . . .
106(10) . . .
78(9) . . .
103(10) . . .
90(9) . . .
80(9) . . .
99(10) . . .
110(10) . . .
94(10) . . .
101(10) . . .
88(9) . . .
93(10) . . .
83(9) . . .
98(10) . . .
97(10) . . .
106(10) . . .
99(10) . . .
103(10) . . .
101(10) . . .
102(10) . . .
107(10) . . .
104(10) . . .
95(10) . . .
89(9) . . .
101(10) . . .
112(11) . . .
101(10) . . .
80(9) . . .
100(10) . . .
99(10) . . .
111(11) . . .
95(10) . . .
87(9) . . .
103(10) . . .
92(10) . . .
96(10) . . .
85(9) . . .
85(9) . . .
101(10) . . .
110(10) . . .
112(11) . . .
101(10) . . .
115(11) . . .
118(11) . . .
89(9) . . .
110(10) . . .
97(10) . . .
90(9) . . .
88(9) . . .
91(10) . . .
118(11) . . .
103(10) . . .
115(11) . . .
96(10) . . .
96(10) . . .
102(10) . . .
104(10) . . .
104(10) . . .
108(10) . . .
102(10) . . .
104(10) . . .
97(10) . . .
100(10) . . .
100(10) . . .
104(10) . . .
90(9) . . .
92(10) . . .
93(10) . . .
98(10) . . .
104(10) . . .
103(10) . . .
91(10) . . .
93(10) . . .
92(10) . . .
111(11) . . .
105(10) . . .
94(10) . . .
112(11) . . .
98(10) . . .
105(10) . . .
95(10) . . .
95(10) . . .
92(10) . . .
100(10) . . .
105(10) . . .
89(9) . . .
105(10) . . .
108(10) . . .
88(9) . . .
117(11) . . .
96(10) . . .
102(10) . . .
109(10) . . .
104(10) . . .
103(10) . . .
97(10) . . .
94(10) . . .
98(10) . . .
108(10) . . .
112(11) . . .
100(10) . . .
110(10) . . .
106(10) . . .
102(10) . . .
100(10) . . .
91(10) . . .
88(9) . . .
85(9) . . .
105(10) . . .
109(10) . . .
104(10) . . .
102(10) . . .
111(11) . . .
120(11) . . .
100(10) . . .
111(11) . . .
96(10) . . .
105(10) . . .
108(10) . . .
111(11) . . .
105(10) . . .
93(10) . . .
87(9) . . .
112(11) . . .
107(10) . . .
115(11) . . .
104(10) . . .
100(10) . . .
107(10) . . .
100(10) . . .
110(10) . . .
90(9) . . .
97(10) . . .
105(10) . . .
108(10) . . .
97(10) . . .
100(10) . . .
100(10) . . .
96(10) . . .
109(10) . . .
102(10) . . .
107(10) . . .
96(10) . . .
93(10) . . .
77(9) . . .
85(9) . . .
96(10) . . .
99(10) . . .
105(10) . . .
97(10) . . .
102(10) . . .
98(10) . . .
96(10) . . .
106(10) . . .
102(10) . . .
97(10) . . .
102(10) . . .
94(10) . . .
100(10) . . .
92(10) . . .
88(9) . . .
100(10) . . .
93(10) . . .
91(10) . . .
96(10) . . .
88(9) . . .
90(9) . . .
87(9) . . .
108(10) . . .
95(10) . . .
106(10) . . .
106(10) . . .
92(10) . . .
82(9) . . .
115(11) . . .
95(10) . . .
113(11) . . .
109(10) . . .
92(10) . . .
103(10) . . .
104(10) . . .
89(9) . . .
108(10) . . .
97(10) . . .
106(10) . . .
115(11) . . .
114(11) . . .
97(10) . . .
95(10) . . .
109(10) . . .
121(11) . . .
122(11) . . .
100(10) . . .
101(10) . . .
111(11) . . .
100(10) . . .
82(9) . . .
102(10) . . .
98(10) . . .
90(9) . . .
99(10) . . .
91(10) . . .
100(10) . . .
110(10) . . .
107(10) . . .
97(10) . . .
87(9) . . .
102(10) . . .
98(10) . . .
84(9) . . .
99(10) . . .
110(10) . . .
87(9) . . .
109(10) . . .
104(10) . . .
108(10) . . .
93(10) . . .
86(9) . . .
120(11) . . .
108(10) . . .
100(10) . . .
105(10) . . .
117(11) . . .
111(11) . . .
89(9) . . .
99(10) . . .
112(11) . . .
76(9) . . .
92(10) . . .
99(10) . . .
100(10) . . .
114(11) . . .
93(10) . . .
110(10) . . .
92(10) . . .
88(9) . . .
110(10) . . .
89(9) . . .
100(10) . . .
97(10) . . .
114(11) . . .
109(10) . . .
116(11) . . .
94(10) . . .
111(11) . . .
97(10) . . .
100(10) . . .
112(11) . . .
93(10) . . .
106(10) . . .
92(10) . . .
120(11) . . .
101(10) . . .
92(10) . . .
99(10) . . .
99(10) . . .
100(10) . . .
112(11) . . .
108(10) . . .
103(10) . . .
95(10) . . .
108(10) . . .
118(11) . . .
104(10) . . .
105(10) . . .
104(10) . . .
124(11) . . .
117(11) . . .
97(10) . . .
94(10) . . .
108(10) . . .
104(10) . . .
110(10) . . .
110(10) . . .
109(10) . . .
119(11) . . .
106(10) . . .
110(10) . . .
106(10) . . .
107(10) . . .
112(11) . . .
110(10) . . .
114(11) . . .
98(10) . . .
107(10) . . .
99(10) . . .
98(10) . . .
106(10) . . .
115(11) . . .
115(11) . . .
94(10) . . .
92(10) . . .
102(10) . . .
116(11) . . .
108(10) . . .
117(11) . . .
96(10) . . .
107(10) . . .
87(9) . . .
109(10) . . .
87(9) . . .
102(10) . . .
84(9) . . .
116(11) . . .
100(10) . . .
93(10) . . .
94(10) . . .
120(11) . . .
91(10) . . .
103(10) . . .
114(11) . . .
101(10) . . .
102(10) . . .
104(10) . . .
99(10) . . .
97(10) . . .
117(11) . . .
100(10) . . .
102(10) . . .
96(10) . . .
100(10) . . .
110(10) . . .
97(10) . . .
107(10) . . .
108(10) . . .
116(11) . . .
107(10) . . .
98(10) . . .
118(11) . . .
119(11) . . .
109(10) . . .
113(11) . . .
103(10) . . .
103(10) . . .
115(11) . . .
117(11) . . .
106(10) . . .
108(10) . . .
98(10) . . .
116(11) . . .
97(10) . . .
105(10) . . .
111(11) . . .
115(11) . . .
115(11) . . .
113(11) . . .
112(11) . . .
96(10) . . .
97(10) . . .
108(10) . . .
129(11) . . .
110(10) . . .
115(11) . . .
122(11) . . .
101(10) . . .
101(10) . . .
95(10) . . .
96(10) . . .
100(10) . . .
98(10) . . .
93(10) . . .
101(10) . . .
118(11) . . .
111(11) . . .
99(10) . . .
115(11) . . .
117(11) . . .
95(10) . . .
103(10) . . .
103(10) . . .
107(10) . . .
96(10) . . .
110(10) . . .
117(11) . . .
113(11) . . .
99(10) . . .
104(10) . . .
95(10) . . .
116(11) . . .
132(11) . . .
112(11) . . .
112(11) . . .
110(10) . . .
118(11) . . .
98(10) . . .
115(11) . . .
117(11) . . .
109(10) . . .
119(11) . . .
115(11) . . .
109(10) . . .
114(11) . . .
116(11) . . .
110(10) . . .
112(11) . . .
113(11) . . .
132(11) . . .
128(11) . . .
103(10) . . .
127(11) . . .
97(10) . . .
108(10) . . .
108(10) . . .
123(11) . . .
117(11) . . .
89(9) . . .
97(10) . . .
106(10) . . .
112(11) . . .
122(11) . . .
117(11) . . .
101(10) . . .
115(11) . . .
113(11) . . .
121(11) . . .
111(11) . . .
117(11) . . .
127(11) . . .
124(11) . . .
118(11) . . .
110(10) . . .
119(11) . . .
126(11) . . .
129(11) . . .
133(12) . . .
128(11) . . .
116(11) . . .
102(10) . . .
111(11) . . .
125(11) . . .
139(12) . . .
120(11) . . .
121(11) . . .
129(11) . . .
122(11) . . .
137(12) . . .
131(11) . . .
129(11) . . .
133(12) . . .
117(11) . . .
155(12) . . .
131(11) . . .
115(11) . . .
134(12) . . .
121(11) . . .
133(12) . . .
144(12) . . .
140(12) . . .
129(11) . . .
147(12) . . .
138(12) . . .
145(12) . . .
142(12) . . .
122(11) . . .
141(12) . . .
165(13) . . .
147(12) . . .
152(12) . . .
158(13) . . .
168(13) . . .
136(12) . . .
160(13) . . .
151(12) . . .
168(13) . . .
168(13) . . .
152(12) . . .
177(13) . . .
163(13) . . .
180(13) . . .
206(14) . . .
195(14) . . .
192(14) . . .
206(14) . . .
214(15) . . .
195(14) . . .
225(15) . . .
214(15) . . .
221(15) . . .
246(16) . . .
253(16) . . .
263(16) . . .
262(16) . . .
297(17) . . .
272(16) . . .
307(18) . . .
326(18) . . .
323(18) . . .
371(19) . . .
326(18) . . .
371(19) . . .
385(20) . . .
357(19) . . .
407(20) . . .
442(21) . . .
487(22) . . .
504(22) . . .
514(23) . . .
525(23) . . .
522(23) . . .
512(23) . . .
569(24) . . .
536(23) . . .
517(23) . . .
533(23) . . .
564(24) . . .
499(22) . . .
559(24) . . .
543(23) . . .
499(22) . . .
520(23) . . .
517(23) . . .
478(22) . . .
477(22) . . .
458(21) . . .
464(22) . . .
417(20) . . .
402(20) . . .
420(20) . . .
402(20) . . .
379(19) . . .
349(19) . . .
340(18) . . .
335(18) . . .
304(17) . . .
317(18) . . .
304(17) . . .
272(16) . . .
271(16) . . .
259(16) . . .
267(16) . . .
231(15) . . .
274(17) . . .
235(15) . . .
218(15) . . .
204(14) . . .
176(13) . . .
177(13) . . .
197(14) . . .
205(14) . . .
156(12) . . .
183(14) . . .
185(14) . . .
159(13) . . .
129(11) . . .
160(13) . . .
167(13) . . .
187(14) . . .
153(12) . . .
153(12) . . .
140(12) . . .
145(12) . . .
160(13) . . .
149(12) . . .
143(12) . . .
143(12) . . .
139(12) . . .
131(11) . . .
144(12) . . .
130(11) . . .
133(12) . . .
134(12) . . .
150(12) . . .
144(12) . . .
141(12) . . .
127(11) . . .
136(12) . . .
118(11) . . .
108(10) . . .
123(11) . . .
132(11) . . .
118(11) . . .
119(11) . . .
129(11) . . .
131(11) . . .
139(12) . . .
120(11) . . .
120(11) . . .
108(10) . . .
123(11) . . .
131(11) . . .
120(11) . . .
130(11) . . .
106(10) . . .
143(12) . . .
128(11) . . .
111(11) . . .
136(12) . . .
126(11) . . .
113(11) . . .
111(11) . . .
106(10) . . .
114(11) . . .
120(11) . . .
122(11) . . .
103(10) . . .
108(10) . . .
123(11) . . .
112(11) . . .
110(10) . . .
118(11) . . .
125(11) . . .
110(10) . . .
122(11) . . .
119(11) . . .
96(10) . . .
107(10) . . .
115(11) . . .
89(9) . . .
100(10) . . .
105(10) . . .
123(11) . . .
111(11) . . .
118(11) . . .
128(11) . . .
120(11) . . .
110(10) . . .
99(10) . . .
109(10) . . .
116(11) . . .
99(10) . . .
104(10) . . .
128(11) . . .
119(11) . . .
95(10) . . .
119(11) . . .
105(10) . . .
89(9) . . .
98(10) . . .
95(10) . . .
103(10) . . .
96(10) . . .
116(11) . . .
109(10) . . .
110(10) . . .
82(9) . . .
102(10) . . .
111(11) . . .
97(10) . . .
98(10) . . .
100(10) . . .
125(11) . . .
128(11) . . .
118(11) . . .
110(10) . . .
103(10) . . .
106(10) . . .
111(11) . . .
116(11) . . .
106(10) . . .
118(11) . . .
92(10) . . .
112(11) . . .
118(11) . . .
99(10) . . .
114(11) . . .
117(11) . . .
110(10) . . .
91(10) . . .
116(11) . . .
103(10) . . .
107(10) . . .
107(10) . . .
103(10) . . .
112(11) . . .
111(11) . . .
96(10) . . .
101(10) . . .
99(10) . . .
106(10) . . .
127(11) . . .
106(10) . . .
115(11) . . .
112(11) . . .
105(10) . . .
103(10) . . .
124(11) . . .
116(11) . . .
119(11) . . .
102(10) . . .
114(11) . . .
123(11) . . .
108(10) . . .
112(11) . . .
99(10) . . .
103(10) . . .
102(10) . . .
125(11) . . .
108(10) . . .
103(10) . . .
101(10) . . .
93(10) . . .
83(9) . . .
120(11) . . .
87(9) . . .
102(10) . . .
109(10) . . .
102(10) . . .
113(11) . . .
108(10) . . .
94(10) . . .
97(10) . . .
99(10) . . .
102(10) . . .
132(11) . . .
107(10) . . .
116(11) . . .
109(10) . . .
94(10) . . .
111(11) . . .
88(9) . . .
121(11) . . .
101(10) . . .
117(11) . . .
119(11) . . .
102(10) . . .
100(10) . . .
117(11) . . .
86(9) . . .
107(10) . . .
125(11) . . .
113(11) . . .
117(11) . . .
106(10) . . .
121(11) . . .
107(10) . . .
105(10) . . .
106(10) . . .
111(11) . . .
114(11) . . .
120(11) . . .
103(10) . . .
106(10) . . .
105(10) . . .
120(11) . . .
92(10) . . .
113(11) . . .
109(10) . . .
108(10) . . .
118(11) . . .
96(10) . . .
98(10) . . .
105(10) . . .
89(9) . . .
119(11) . . .
113(11) . . .
105(10) . . .
107(10) . . .
105(10) . . .
112(11) . . .
98(10) . . .
98(10) . . .
117(11) . . .
108(10) . . .
110(10) . . .
112(11) . . .
90(9) . . .
107(10) . . .
98(10) . . .
89(9) . . .
93(10) . . .
96(10) . . .
104(10) . . .
110(10) . . .
98(10) . . .
109(10) . . .
103(10) . . .
98(10) . . .
109(10) . . .
96(10) . . .
104(10) . . .
103(10) . . .
106(10) . . .
118(11) . . .
104(10) . . .
109(10) . . .
108(10) . . .
104(10) . . .
99(10) . . .
96(10) . . .
102(10) . . .
109(10) . . .
89(9) . . .
95(10) . . .
104(10) . . .
100(10) . . .
103(10) . . .
116(11) . . .
108(10) . . .
111(11) . . .
99(10) . . .
96(10) . . .
109(10) . . .
98(10) . . .
112(11) . . .
111(11) . . .
105(10) . . .
104(10) . . .
99(10) . . .
102(10) . . .
116(11) . . .
107(10) . . .
98(10) . . .
99(10) . . .
100(10) . . .
103(10) . . .
97(10) . . .
90(9) . . .
109(10) . . .
117(11) . . .
107(10) . . .
110(10) . . .
100(10) . . .
95(10) . . .
110(10) . . .
94(10) . . .
99(10) . . .
103(10) . . .
86(9) . . .
107(10) . . .
111(11) . . .
94(10) . . .
111(11) . . .
101(10) . . .
111(11) . . .
101(10) . . .
126(11) . . .
107(10) . . .
98(10) . . .
118(11) . . .
96(10) . . .
110(10) . . .
112(11) . . .
120(11) . . .
126(11) . . .
113(11) . . .
111(11) . . .
95(10) . . .
107(10) . . .
107(10) . . .
114(11) . . .
97(10) . . .
110(10) . . .
109(10) . . .
107(10) . . .
106(10) . . .
109(10) . . .
111(11) . . .
101(10) . . .
97(10) . . .
110(10) . . .
89(9) . . .
100(10) . . .
132(11) . . .
105(10) . . .
101(10) . . .
112(11) . . .
114(11) . . .
92(10) . . .
96(10) . . .
110(10) . . .
103(10) . . .
94(10) . . .
93(10) . . .
101(10) . . .
101(10) . . .
100(10) . . .
99(10) . . .
95(10) . . .
111(11) . . .
101(10) . . .
110(10) . . .
102(10) . . .
116(11) . . .
110(10) . . .
105(10) . . .
103(10) . . .
109(10) . . .
98(10) . . .
102(10) . . .
99(10) . . .
77(9) . . .
97(10) . . .
113(11) . . .
100(10) . . .
112(11) . . .
100(10) . . .
103(10) . . .
108(10) . . .
117(11) . . .
125(11) . . .
107(10) . . .
107(10) . . .
118(11) . . .
105(10) . . .
90(9) . . .
96(10) . . .
104(10) . . .
105(10) . . .
104(10) . . .
112(11) . . .
111(11) . . .
105(10) . . .
108(10) . . .
120(11) . . .
103(10) . . .
106(10) . . .
97(10) . . .
99(10) . . .
93(10) . . .
85(9) . . .
108(10) . . .
108(10) . . .
120(11) . . .
91(10) . . .
92(10) . . .
96(10) . . .
113(11) . . .
99(10) . . .
90(9) . . .
106(10) . . .
111(11) . . .
96(10) . . .
101(10) . . .
103(10) . . .
89(9) . . .
104(10) . . .
100(10) . . .
95(10) . . .
108(10) . . .
108(10) . . .
97(10) . . .
98(10) . . .
100(10) . . .
106(10) . . .
120(11) . . .
109(10) . . .
135(12) . . .
106(10) . . .
118(11) . . .
110(10) . . .
101(10) . . .
101(10) . . .
94(10) . . .
108(10) . . .
106(10) . . .
100(10) . . .
98(10) . . .
99(10) . . .
110(10) . . .
113(11) . . .
100(10) . . .
89(9) . . .
97(10) . . .
97(10) . . .
91(10) . . .
123(11) . . .
117(11) . . .
104(10) . . .
105(10) . . .
108(10) . . .
113(11) . . .
116(11) . . .
116(11) . . .
114(11) . . .
106(10) . . .
103(10) . . .
113(11) . . .
105(10) . . .
87(9) . . .
96(10) . . .
101(10) . . .
115(11) . . .
102(10) . . .
105(10) . . .
111(11) . . .
116(11) . . .
96(10) . . .
117(11) . . .
105(10) . . .
104(10) . . .
103(10) . . .
104(10) . . .
103(10) . . .
105(10) . . .
101(10) . . .
99(10) . . .
106(10) . . .
112(11) . . .
101(10) . . .
96(10) . . .
95(10) . . .
110(10) . . .
108(10) . . .
99(10) . . .
86(9) . . .
94(10) . . .
100(10) . . .
108(10) . . .
102(10) . . .
110(10) . . .
115(11) . . .
111(11) . . .
95(10) . . .
90(9) . . .
103(10) . . .
112(11) . . .
119(11) . . .
110(10) . . .
107(10) . . .
104(10) . . .
88(9) . . .
107(10) . . .
111(11) . . .
106(10) . . .
93(10) . . .
98(10) . . .
92(10) . . .
107(10) . . .
99(10) . . .
123(11) . . .
97(10) . . .
114(11) . . .
102(10) . . .
104(10) . . .
111(11) . . .
120(11) . . .
110(10) . . .
106(10) . . .
101(10) . . .
99(10) . . .
94(10) . . .
99(10) . . .
101(10) . . .
107(10) . . .
111(11) . . .
127(11) . . .
116(11) . . .
114(11) . . .
118(11) . . .
99(10) . . .
111(11) . . .
114(11) . . .
110(10) . . .
119(11) . . .
96(10) . . .
114(11) . . .
108(10) . . .
111(11) . . .
122(11) . . .
103(10) . . .
101(10) . . .
112(11) . . .
138(12) . . .
106(10) . . .
111(11) . . .
99(10) . . .
90(9) . . .
98(10) . . .
105(10) . . .
101(10) . . .
108(10) . . .
116(11) . . .
100(10) . . .
114(11) . . .
101(10) . . .
117(11) . . .
105(10) . . .
95(10) . . .
113(11) . . .
110(10) . . .
108(10) . . .
99(10) . . .
95(10) . . .
124(11) . . .
105(10) . . .
113(11) . . .
90(9) . . .
101(10) . . .
112(11) . . .
101(10) . . .
112(11) . . .
95(10) . . .
105(10) . . .
104(10) . . .
103(10) . . .
95(10) . . .
100(10) . . .
91(10) . . .
101(10) . . .
96(10) . . .
94(10) . . .
109(10) . . .
100(10) . . .
113(11) . . .
101(10) . . .
99(10) . . .
102(10) . . .
120(11) . . .
99(10) . . .
122(11) . . .
102(10) . . .
106(10) . . .
112(11) . . .
114(11) . . .
104(10) . . .
105(10) . . .
95(10) . . .
108(10) . . .
109(10) . . .
96(10) . . .
87(9) . . .
104(10) . . .
93(10) . . .
107(10) . . .
98(10) . . .
122(11) . . .
103(10) . . .
104(10) . . .
104(10) . . .
92(10) . . .
111(11) . . .
106(10) . . .
111(11) . . .
124(11) . . .
130(11) . . .
104(10) . . .
120(11) . . .
112(11) . . .
112(11) . . .
113(11) . . .
117(11) . . .
103(10) . . .
106(10) . . .
111(11) . . .
91(10) . . .
108(10) . . .
101(10) . . .
113(11) . . .
107(10) . . .
117(11) . . .
107(10) . . .
114(11) . . .
85(9) . . .
106(10) . . .
117(11) . . .
99(10) . . .
105(10) . . .
91(10) . . .
102(10) . . .
112(11) . . .
111(11) . . .
120(11) . . .
111(11) . . .
97(10) . . .
105(10) . . .
108(10) . . .
118(11) . . .
111(11) . . .
104(10) . . .
115(11) . . .
96(10) . . .
97(10) . . .
113(11) . . .
93(10) . . .
121(11) . . .
110(10) . . .
121(11) . . .
110(10) . . .
106(10) . . .
106(10) . . .
118(11) . . .
103(10) . . .
117(11) . . .
112(11) . . .
116(11) . . .
113(11) . . .
105(10) . . .
103(10) . . .
93(10) . . .
122(11) . . .
97(10) . . .
112(11) . . .
99(10) . . .
115(11) . . .
111(11) . . .
114(11) . . .
108(10) . . .
107(10) . . .
109(10) . . .
95(10) . . .
118(11) . . .
98(10) . . .
106(10) . . .
107(10) . . .
95(10) . . .
105(10) . . .
113(11) . . .
101(10) . . .
119(11) . . .
101(10) . . .
110(10) . . .
108(10) . . .
111(11) . . .
102(10) . . .
117(11) . . .
124(11) . . .
118(11) . . .
101(10) . . .
107(10) . . .
111(11) . . .
102(10) . . .
104(10) . . .
92(10) . . .
101(10) . . .
94(10) . . .
104(10) . . .
115(11) . . .
116(11) . . .
101(10) . . .
122(11) . . .
111(11) . . .
105(10) . . .
120(11) . . .
93(10) . . .
134(12) . . .
98(10) . . .
105(10) . . .
105(10) . . .
112(11) . . .
107(10) . . .
126(11) . . .
97(10) . . .
104(10) . . .
102(10) . . .
110(10) . . .
113(11) . . .
101(10) . . .
105(10) . . .
110(10) . . .
90(9) . . .
97(10) . . .
111(11) . . .
117(11) . . .
106(10) . . .
106(10) . . .
102(10) . . .
108(10) . . .
102(10) . . .
106(10) . . .
110(10) . . .
114(11) . . .
109(10) . . .
109(10) . . .
121(11) . . .
101(10) . . .
125(11) . . .
115(11) . . .
106(10) . . .
104(10) . . .
103(10) . . .
108(10) . . .
98(10) . . .
105(10) . . .
102(10) . . .
116(11) . . .
120(11) . . .
101(10) . . .
113(11) . . .
93(10) . . .
121(11) . . .
113(11) . . .
88(9) . . .
112(11) . . .
100(10) . . .
112(11) . . .
101(10) . . .
106(10) . . .
121(11) . . .
116(11) . . .
100(10) . . .
124(11) . . .
116(11) . . .
99(10) . . .
102(10) . . .
125(11) . . .
100(10) . . .
110(10) . . .
109(10) . . .
108(10) . . .
86(9) . . .
98(10) . . .
122(11) . . .
110(10) . . .
101(10) . . .
129(11) . . .
126(11) . . .
110(10) . . .
116(11) . . .
102(10) . . .
126(11) . . .
113(11) . . .
117(11) . . .
107(10) . . .
124(11) . . .
99(10) . . .
92(10) . . .
108(10) . . .
110(10) . . .
116(11) . . .
117(11) . . .
112(11) . . .
110(10) . . .
98(10) . . .
106(10) . . .
114(11) . . .
89(9) . . .
109(10) . . .
102(10) . . .
109(10) . . .
102(10) . . .
119(11) . . .
110(10) . . .
115(11) . . .
122(11) . . .
113(11) . . .
114(11) . . .
119(11) . . .
117(11) . . .
113(11) . . .
92(10) . . .
117(11) . . .
115(11) . . .
108(10) . . .
112(11) . . .
138(12) . . .
107(10) . . .
111(11) . . .
112(11) . . .
110(10) . . .
112(11) . . .
108(10) . . .
112(11) . . .
85(9) . . .
118(11) . . .
108(10) . . .
107(10) . . .
113(11) . . .
86(9) . . .
93(10) . . .
93(10) . . .
123(11) . . .
124(11) . . .
117(11) . . .
118(11) . . .
120(11) . . .
90(9) . . .
111(11) . . .
107(10) . . .
120(11) . . .
117(11) . . .
123(11) . . .
90(9) . . .
114(11) . . .
106(10) . . .
97(10) . . .
104(10) . . .
114(11) . . .
118(11) . . .
106(10) . . .
113(11) . . .
119(11) . . .
105(10) . . .
101(10) . . .
122(11) . . .
122(11) . . .
92(10) . . .
107(10) . . .
109(10) . . .
103(10) . . .
123(11) . . .
116(11) . . .
104(10) . . .
128(11) . . .
108(10) . . .
111(11) . . .
101(10) . . .
118(11) . . .
111(11) . . .
111(11) . . .
94(10) . . .
122(11) . . .
105(10) . . .
120(11) . . .
119(11) . . .
106(10) . . .
124(11) . . .
120(11) . . .
110(10) . . .
114(11) . . .
110(10) . . .
104(10) . . .
117(11) . . .
107(10) . . .
124(11) . . .
99(10) . . .
106(10) . . .
118(11) . . .
103(10) . . .
111(11) . . .
111(11) . . .
111(11) . . .
107(10) . . .
114(11) . . .
121(11) . . .
113(11) . . .
130(11) . . .
120(11) . . .
101(10) . . .
120(11) . . .
121(11) . . .
111(11) . . .
130(11) . . .
130(11) . . .
119(11) . . .
142(12) . . .
114(11) . . .
145(12) . . .
114(11) . . .
112(11) . . .
118(11) . . .
128(11) . . .
117(11) . . .
118(11) . . .
113(11) . . .
116(11) . . .
109(10) . . .
114(11) . . .
125(11) . . .
133(12) . . .
104(10) . . .
127(11) . . .
117(11) . . .
102(10) . . .
127(11) . . .
106(10) . . .
120(11) . . .
114(11) . . .
105(10) . . .
116(11) . . .
112(11) . . .
131(11) . . .
124(11) . . .
116(11) . . .
107(10) . . .
116(11) . . .
111(11) . . .
147(12) . . .
119(11) . . .
129(11) . . .
115(11) . . .
119(11) . . .
114(11) . . .
98(10) . . .
112(11) . . .
124(11) . . .
133(12) . . .
118(11) . . .
125(11) . . .
149(12) . . .
133(12) . . .
118(11) . . .
121(11) . . .
132(11) . . .
135(12) . . .
142(12) . . .
146(12) . . .
120(11) . . .
158(13) . . .
135(12) . . .
122(11) . . .
98(10) . . .
126(11) . . .
123(11) . . .
132(11) . . .
130(11) . . .
117(11) . . .
139(12) . . .
130(11) . . .
117(11) . . .
138(12) . . .
138(12) . . .
142(12) . . .
125(11) . . .
151(12) . . .
129(11) . . .
129(11) . . .
120(11) . . .
116(11) . . .
136(12) . . .
155(12) . . .
171(13) . . .
142(12) . . .
151(12) . . .
175(13) . . .
150(12) . . .
151(12) . . .
142(12) . . .
149(12) . . .
155(12) . . .
149(12) . . .
162(13) . . .
142(12) . . .
164(13) . . .
171(13) . . .
150(12) . . .
167(13) . . .
168(13) . . .
201(14) . . .
167(13) . . .
174(13) . . .
184(14) . . .
173(13) . . .
197(14) . . .
179(13) . . .
185(14) . . .
193(14) . . .
195(14) . . .
216(15) . . .
217(15) . . .
218(15) . . .
212(15) . . .
236(15) . . .
212(15) . . .
256(16) . . .
234(15) . . .
268(16) . . .
248(16) . . .
250(16) . . .
273(17) . . .
277(17) . . .
307(18) . . .
303(17) . . .
350(19) . . .
342(18) . . .
338(18) . . .
334(18) . . .
346(19) . . .
385(20) . . .
370(19) . . .
413(20) . . .
438(21) . . .
423(21) . . .
420(20) . . .
510(23) . . .
502(22) . . .
511(23) . . .
532(23) . . .
586(24) . . .
627(25) . . .
625(25) . . .
640(25) . . .
682(26) . . .
631(25) . . .
641(25) . . .
670(26) . . .
710(27) . . .
740(27) . . .
722(27) . . .
662(26) . . .
667(26) . . .
703(27) . . .
720(27) . . .
731(27) . . .
676(26) . . .
666(26) . . .
703(27) . . .
623(25) . . .
612(25) . . .
610(25) . . .
579(24) . . .
597(24) . . .
547(23) . . .
545(23) . . .
516(23) . . .
518(23) . . .
493(22) . . .
511(23) . . .
440(21) . . .
427(21) . . .
377(19) . . .
387(20) . . .
399(20) . . .
376(19) . . .
368(19) . . .
349(19) . . .
341(18) . . .
321(18) . . .
319(18) . . .
319(18) . . .
299(17) . . .
276(17) . . .
294(17) . . .
278(17) . . .
266(16) . . .
264(16) . . .
225(15) . . .
233(15) . . .
229(15) . . .
213(15) . . .
226(15) . . .
185(14) . . .
201(14) . . .
225(15) . . .
192(14) . . .
201(14) . . .
197(14) . . .
187(14) . . .
183(14) . . .
181(13) . . .
170(13) . . .
170(13) . . .
172(13) . . .
192(14) . . .
187(14) . . .
161(13) . . .
172(13) . . .
170(13) . . .
164(13) . . .
154(12) . . .
141(12) . . .
162(13) . . .
156(12) . . .
135(12) . . .
149(12) . . .
141(12) . . .
156(12) . . .
145(12) . . .
149(12) . . .
156(12) . . .
155(12) . . .
137(12) . . .
136(12) . . .
143(12) . . .
142(12) . . .
150(12) . . .
154(12) . . .
145(12) . . .
131(11) . . .
123(11) . . .
145(12) . . .
130(11) . . .
145(12) . . .
125(11) . . .
142(12) . . .
136(12) . . .
114(11) . . .
134(12) . . .
146(12) . . .
139(12) . . .
113(11) . . .
127(11) . . .
109(10) . . .
125(11) . . .
142(12) . . .
133(12) . . .
146(12) . . .
102(10) . . .
122(11) . . .
114(11) . . .
120(11) . . .
113(11) . . .
118(11) . . .
122(11) . . .
125(11) . . .
117(11) . . .
129(11) . . .
121(11) . . .
116(11) . . .
105(10) . . .
115(11) . . .
128(11) . . .
129(11) . . .
121(11) . . .
112(11) . . .
127(11) . . .
126(11) . . .
113(11) . . .
115(11) . . .
109(10) . . .
138(12) . . .
102(10) . . .
127(11) . . .
139(12) . . .
124(11) . . .
121(11) . . .
124(11) . . .
113(11) . . .
115(11) . . .
120(11) . . .
112(11) . . .
121(11) . . .
122(11) . . .
127(11) . . .
123(11) . . .
130(11) . . .
124(11) . . .
148(12) . . .
126(11) . . .
129(11) . . .
116(11) . . .
115(11) . . .
116(11) . . .
104(10) . . .
108(10) . . .
123(11) . . .
118(11) . . .
131(11) . . .
124(11) . . .
125(11) . . .
106(10) . . .
109(10) . . .
126(11) . . .
128(11) . . .
114(11) . . .
133(12) . . .
91(10) . . .
116(11) . . .
120(11) . . .
116(11) . . .
112(11) . . .
114(11) . . .
106(10) . . .
118(11) . . .
141(12) . . .
110(10) . . .
127(11) . . .
113(11) . . .
107(10) . . .
114(11) . . .
110(10) . . .
102(10) . . .
116(11) . . .
115(11) . . .
98(10) . . .
111(11) . . .
89(9) . . .
122(11) . . .
103(10) . . .
102(10) . . .
115(11) . . .
110(10) . . .
116(11) . . .
117(11) . . .
115(11) . . .
113(11) . . .
109(10) . . .
107(10) . . .
103(10) . . .
113(11) . . .
112(11) . . .
107(10) . . .
113(11) . . .
116(11) . . .
107(10) . . .
132(11) . . .
114(11) . . .
94(10) . . .
122(11) . . .
108(10) . . .
116(11) . . .
101(10) . . .
113(11) . . .
99(10) . . .
120(11) . . .
110(10) . . .
120(11) . . .
110(10) . . .
106(10) . . .
124(11) . . .
130(11) . . .
92(10) . . .
111(11) . . .
94(10) . . .
109(10) . . .
91(10) . . .
125(11) . . .
136(12) . . .
107(10) . . .
112(11) . . .
104(10) . . .
106(10) . . .
103(10) . . .
116(11) . . .
123(11) . . .
110(10) . . .
118(11) . . .
119(11) . . .
115(11) . . .
113(11) . . .
100(10) . . .
111(11) . . .
120(11) . . .
91(10) . . .
113(11) . . .
118(11) . . .
112(11) . . .
113(11) . . .
114(11) . . .
115(11) . . .
118(11) . . .
102(10) . . .
109(10) . . .
111(11) . . .
111(11) . . .
119(11) . . .
119(11) . . .
108(10) . . .
133(12) . . .
112(11) . . .
105(10) . . .
110(10) . . .
107(10) . . .
103(10) . . .
131(11) . . .
109(10) . . .
125(11) . . .
110(10) . . .
110(10) . . .
112(11) . . .
103(10) . . .
114(11) . . .
128(11) . . .
114(11) . . .
102(10) . . .
106(10) . . .
118(11) . . .
110(10) . . .
112(11) . . .
106(10) . . .
118(11) . . .
107(10) . . .
129(11) . . .
113(11) . . .
98(10) . . .
113(11) . . .
122(11) . . .
109(10) . . .
121(11) . . .
98(10) . . .
97(10) . . .
114(11) . . .
113(11) . . .
111(11) . . .
112(11) . . .
113(11) . . .
113(11) . . .
123(11) . . .
120(11) . . .
122(11) . . .
109(10) . . .
106(10) . . .
94(10) . . .
119(11) . . .
114(11) . . .
128(11) . . .
136(12) . . .
123(11) . . .
107(10) . . .
113(11) . . .
119(11) . . .
122(11) . . .
92(10) . . .
117(11) . . .
148(12) . . .
114(11) . . .
114(11) . . .
138(12) . . .
119(11) . . .
111(11) . . .
128(11) . . .
138(12) . . .
128(11) . . .
138(12) . . .
139(12) . . .
123(11) . . .
118(11) . . .
125(11) . . .
134(12) . . .
136(12) . . .
126(11) . . .
114(11) . . .
118(11) . . .
125(11) . . .
153(12) . . .
143(12) . . .
137(12) . . .
129(11) . . .
144(12) . . .
123(11) . . .
159(13) . . .
151(12) . . .
146(12) . . .
155(12) . . .
160(13) . . .
151(12) . . .
140(12) . . .
171(13) . . .
151(12) . . .
165(13) . . .
179(13) . . .
185(14) . . .
157(13) . . .
195(14) . . .
178(13) . . .
186(14) . . .
192(14) . . .
206(14) . . .
196(14) . . .
208(14) . . .
219(15) . . .
216(15) . . .
208(14) . . .
244(16) . . .
230(15) . . .
249(16) . . .
261(16) . . .
254(16) . . .
276(17) . . .
289(17) . . .
267(16) . . .
257(16) . . .
270(16) . . .
289(17) . . .
304(17) . . .
278(17) . . .
291(17) . . .
267(16) . . .
323(18) . . .
283(17) . . .
283(17) . . .
286(17) . . .
280(17) . . .
318(18) . . .
278(17) . . .
281(17) . . .
259(16) . . .
272(16) . . .
281(17) . . .
263(16) . . .
255(16) . . .
242(16) . . .
263(16) . . .
240(15) . . .
216(15) . . .
215(15) . . .
230(15) . . .
191(14) . . .
216(15) . . .
223(15) . . .
198(14) . . .
193(14) . . .
207(14) . . .
170(13) . . .
179(13) . . .
136(12) . . .
161(13) . . .
189(14) . . .
176(13) . . .
170(13) . . .
161(13) . . .
162(13) . . .
164(13) . . .
173(13) . . .
135(12) . . .
140(12) . . .
146(12) . . .
128(11) . . .
141(12) . . .
141(12) . . .
134(12) . . .
138(12) . . .
132(11) . . .
135(12) . . .
136(12) . . .
141(12) . . .
120(11) . . .
138(12) . . .
146(12) . . .
135(12) . . .
122(11) . . .
129(11) . . .
107(10) . . .
121(11) . . .
122(11) . . .
106(10) . . .
108(10) . . .
106(10) . . .
115(11) . . .
112(11) . . .
127(11) . . .
113(11) . . .
118(11) . . .
126(11) . . .
126(11) . . .
120(11) . . .
122(11) . . .
131(11) . . .
117(11) . . .
118(11) . . .
107(10) . . .
128(11) . . .
117(11) . . .
106(10) . . .
113(11) . . .
116(11) . . .
108(10) . . .
114(11) . . .
114(11) . . .
117(11) . . .
113(11) . . .
109(10) . . .
120(11) . . .
134(12) . . .
122(11) . . .
117(11) . . .
120(11) . . .
109(10) . . .
116(11) . . .
113(11) . . .
91(10) . . .
129(11) . . .
109(10) . . .
98(10) . . .
121(11) . . .
119(11) . . .
126(11) . . .
102(10) . . .
112(11) . . .
114(11) . . .
130(11) . . .
109(10) . . .
127(11) . . .
128(11) . . .
103(10) . . .
84(9) . . .
105(10) . . .
110(10) . . .
103(10) . . .
106(10) . . .
116(11) . . .
105(10) . . .
122(11) . . .
118(11) . . .
105(10) . . .
107(10) . . .
107(10) . . .
100(10) . . .
102(10) . . .
98(10) . . .
135(12) . . .
102(10) . . .
101(10) . . .
94(10) . . .
109(10) . . .
126(11) . . .
113(11) . . .
97(10) . . .
114(11) . . .
83(9) . . .
101(10) . . .
108(10) . . .
96(10) . . .
110(10) . . .
120(11) . . .
102(10) . . .
116(11) . . .
96(10) . . .
110(10) . . .
108(10) . . .
105(10) . . .
102(10) . . .
105(10) . . .
114(11) . . .
88(9) . . .
118(11) . . .
88(9) . . .
105(10) . . .
110(10) . . .
95(10) . . .
104(10) . . .
106(10) . . .
103(10) . . .
125(11) . . .
105(10) . . .
106(10) . . .
119(11) . . .
107(10) . . .
103(10) . . .
107(10) . . .
87(9) . . .
102(10) . . .
110(10) . . .
104(10) . . .
113(11) . . .
104(10) . . .
101(10) . . .
112(11) . . .
124(11) . . .
123(11) . . .
110(10) . . .
104(10) . . .
105(10) . . .
101(10) . . .
122(11) . . .
128(11) . . .
107(10) . . .
95(10) . . .
90(9) . . .
111(11) . . .
109(10) . . .
101(10) . . .
102(10) . . .
98(10) . . .
116(11) . . .
89(9) . . .
118(11) . . .
113(11) . . .
103(10) . . .
100(10) . . .
93(10) . . .
124(11) . . .
108(10) . . .
113(11) . . .
96(10) . . .
106(10) . . .
94(10) . . .
106(10) . . .
89(9) . . .
103(10) . . .
97(10) . . .
108(10) . . .
95(10) . . .
99(10) . . .
110(10) . . .
123(11) . . .
93(10) . . .
112(11) . . .
116(11) . . .
105(10) . . .
109(10) . . .
106(10) . . .
98(10) . . .
121(11) . . .
101(10) . . .
91(10) . . .
103(10) . . .
108(10) . . .
106(10) . . .
98(10) . . .
99(10) . . .
99(10) . . .
98(10) . . .
117(11) . . .
90(9) . . .
91(10) . . .
91(10) . . .
111(11) . . .
118(11) . . .
104(10) . . .
109(10) . . .
101(10) . . .
114(11) . . .
96(10) . . .
96(10) . . .
100(10) . . .
102(10) . . .
93(10) . . .
104(10) . . .
95(10) . . .
101(10) . . .
100(10) . . .
117(11) . . .
87(9) . . .
95(10) . . .
106(10) . . .
88(9) . . .
101(10) . . .
90(9) . . .
104(10) . . .
95(10) . . .
111(11) . . .
113(11) . . .
96(10) . . .
111(11) . . .
108(10) . . .
107(10) . . .
108(10) . . .
104(10) . . .
113(11) . . .
105(10) . . .
111(11) . . .
115(11) . . .
109(10) . . .
106(10) . . .
119(11) . . .
120(11) . . .
102(10) . . .
100(10) . . .
101(10) . . .
124(11) . . .
121(11) . . .
109(10) . . .
130(11) . . .
108(10) . . .
99(10) . . .
111(11) . . .
109(10) . . .
101(10) . . .
114(11) . . .
102(10) . . .
106(10) . . .
99(10) . . .
93(10) . . .
103(10) . . .
99(10) . . .
92(10) . . .
99(10) . . .
104(10) . . .
95(10) . . .
104(10) . . .
109(10) . . .
113(11) . . .
109(10) . . .
102(10) . . .
105(10) . . .
107(10) . . .
110(10) . . .
112(11) . . .
89(9) . . .
108(10) . . .
90(9) . . .
100(10) . . .
103(10) . . .
113(11) . . .
108(10) . . .
108(10) . . .
103(10) . . .
85(9) . . .
88(9) . . .
99(10) . . .
105(10) . . .
87(9) . . .
112(11) . . .
110(10) . . .
104(10) . . .
103(10) . . .
118(11) . . .
104(10) . . .
100(10) . . .
89(9) . . .
105(10) . . .
95(10) . . .
97(10) . . .
97(10) . . .
101(10) . . .
107(10) . . .
99(10) . . .
97(10) . . .
115(11) . . .
100(10) . . .
95(10) . . .
106(10) . . .
95(10) . . .
96(10) . . .
103(10) . . .
108(10) . . .
111(11) . . .
130(11) . . .
121(11) . . .
100(10) . . .
102(10) . . .
108(10) . . .
105(10) . . .
92(10) . . .
98(10) . . .
107(10) . . .
99(10) . . .
98(10) . . .
103(10) . . .
104(10) . . .
99(10) . . .
95(10) . . .
114(11) . . .
107(10) . . .
100(10) . . .
107(10) . . .
112(11) . . .
99(10) . . .
102(10) . . .
115(11) . . .
100(10) . . .
122(11) . . .
104(10) . . .
103(10) . . .
90(9) . . .
103(10) . . .
94(10) . . .
106(10) . . .
91(10) . . .
91(10) . . .
94(10) . . .
108(10) . . .
99(10) . . .
103(10) . . .
104(10) . . .
87(9) . . .
96(10) . . .
87(9) . . .
100(10) . . .
104(10) . . .
96(10) . . .
99(10) . . .
116(11) . . .
91(10) . . .
107(10) . . .
111(11) . . .
91(10) . . .
91(10) . . .
100(10) . . .
109(10) . . .
113(11) . . .
98(10) . . .
101(10) . . .
99(10) . . .
116(11) . . .
114(11) . . .
101(10) . . .
115(11) . . .
112(11) . . .
110(10) . . .
106(10) . . .
99(10) . . .
104(10) . . .
95(10) . . .
110(10) . . .
129(11) . . .
85(9) . . .
98(10) . . .
100(10) . . .
112(11) . . .
94(10) . . .
97(10) . . .
98(10) . . .
99(10) . . .
86(9) . . .
111(11) . . .
118(11) . . .
123(11) . . .
99(10) . . .
111(11) . . .
104(10) . . .
107(10) . . .
91(10) . . .
105(10) . . .
103(10) . . .
104(10) . . .
108(10) . . .
94(10) . . .
98(10) . . .
104(10) . . .
95(10) . . .
99(10) . . .
94(10) . . .
94(10) . . .
108(10) . . .
103(10) . . .
100(10) . . .
99(10) . . .
89(9) . . .
83(9) . . .
92(10) . . .
85(9) . . .
106(10) . . .
86(9) . . .
112(11) . . .
111(11) . . .
97(10) . . .
111(11) . . .
93(10) . . .
88(9) . . .
94(10) . . .
99(10) . . .
82(9) . . .
95(10) . . .
106(10) . . .
103(10) . . .
112(11) . . .
104(10) . . .
105(10) . . .
104(10) . . .
104(10) . . .
96(10) . . .
93(10) . . .
103(10) . . .
101(10) . . .
100(10) . . .
91(10) . . .
102(10) . . .
100(10) . . .
110(10) . . .
93(10) . . .
100(10) . . .
102(10) . . .
102(10) . . .
101(10) . . .
115(11) . . .
107(10) . . .
102(10) . . .
96(10) . . .
91(10) . . .
87(9) . . .
106(10) . . .
92(10) . . .
112(11) . . .
101(10) . . .
83(9) . . .
99(10) . . .
107(10) . . .
98(10) . . .
102(10) . . .
110(10) . . .
113(11) . . .
94(10) . . .
98(10) . . .
92(10) . . .
100(10) . . .
99(10) . . .
102(10) . . .
107(10) . . .
88(9) . . .
109(10) . . .
103(10) . . .
107(10) . . .
112(11) . . .
96(10) . . .
89(9) . . .
102(10) . . .
108(10) . . .
106(10) . . .
95(10) . . .
88(9) . . .
99(10) . . .
109(10) . . .
105(10) . . .
96(10) . . .
99(10) . . .
109(10) . . .
114(11) . . .
105(10) . . .
119(11) . . .
94(10) . . .
89(9) . . .
111(11) . . .
101(10) . . .
90(9) . . .
98(10) . . .
103(10) . . .
110(10) . . .
107(10) . . .
92(10) . . .
111(11) . . .
89(9) . . .
114(11) . . .
109(10) . . .
81(9) . . .
95(10) . . .
96(10) . . .
101(10) . . .
94(10) . . .
106(10) . . .
113(11) . . .
103(10) . . .
107(10) . . .
91(10) . . .
96(10) . . .
94(10) . . .
88(9) . . .
102(10) . . .
92(10) . . .
98(10) . . .
98(10) . . .
89(9) . . .
125(11) . . .
97(10) . . .
93(10) . . .
106(10) . . .
107(10) . . .
109(10) . . .
106(10) . . .
95(10) . . .
87(9) . . .
110(10) . . .
90(9) . . .
97(10) . . .
102(10) . . .
105(10) . . .
95(10) . . .
107(10) . . .
96(10) . . .
114(11) . . .
95(10) . . .
99(10) . . .
94(10) . . .
116(11) . . .
105(10) . . .
110(10) . . .
96(10) . . .
98(10) . . .
108(10) . . .
100(10) . . .
97(10) . . .
100(10) . . .
103(10) . . .
95(10) . . .
99(10) . . .
105(10) . . .
95(10) . . .
99(10) . . .
108(10) . . .
100(10) . . .
110(10) . . .
108(10) . . .
110(10) . . .
102(10) . . .
95(10) . . .
101(10) . . .
98(10) . . .
114(11) . . .
98(10) . . .
99(10) . . .
103(10) . . .
84(9) . . .
101(10) . . .
94(10) . . .
101(10) . . .
103(10) . . .
100(10) . . .
98(10) . . .
98(10) . . .
108(10) . . .
93(10) . . .
96(10) . . .
105(10) . . .
106(10) . . .
111(11) . . .
101(10) . . .
80(9) . . .
94(10) . . .
112(11) . . .
107(10) . . .
99(10) . . .
93(10) . . .
96(10) . . .
108(10) . . .
100(10) . . .
103(10) . . .
93(10) . . .
104(10) . . .
115(11) . . .
120(11) . . .
105(10) . . .
115(11) . . .
99(10) . . .
105(10) . . .
99(10) . . .
91(10) . . .
114(11) . . .
102(10) . . .
105(10) . . .
98(10) . . .
106(10) . . .
92(10) . . .
115(11) . . .
90(9) . . .
93(10) . . .
99(10) . . .
95(10) . . .
105(10) . . .
105(10) . . .
96(10) . . .
98(10) . . .
109(10) . . .
94(10) . . .
99(10) . . .
106(10) . . .
113(11) . . .
102(10) . . .
89(9) . . .
111(11) . . .
93(10) . . .
109(10) . . .
102(10) . . .
103(10) . . .
107(10) . . .
113(11) . . .
105(10) . . .
87(9) . . .
107(10) . . .
95(10) . . .
99(10) . . .
110(10) . . .
91(10) . . .
86(9) . . .
88(9) . . .
103(10) . . .
97(10) . . .
84(9) . . .
94(10) . . .
105(10) . . .
111(11) . . .
110(10) . . .
120(11) . . .
103(10) . . .
109(10) . . .
99(10) . . .
111(11) . . .
84(9) . . .
100(10) . . .
102(10) . . .
106(10) . . .
101(10) . . .
108(10) . . .
88(9) . . .
119(11) . . .
90(9) . . .
88(9) . . .
101(10) . . .
97(10) . . .
97(10) . . .
86(9) . . .
111(11) . . .
100(10) . . .
111(11) . . .
105(10) . . .
95(10) . . .
105(10) . . .
95(10) . . .
99(10) . . .
102(10) . . .
98(10) . . .
96(10) . . .
104(10) . . .
108(10) . . .
101(10) . . .
87(9) . . .
89(9) . . .
102(10) . . .
91(10) . . .
102(10) . . .
112(11) . . .
110(10) . . .
105(10) . . .
97(10) . . .
100(10) . . .
115(11) . . .
87(9) . . .
110(10) . . .
104(10) . . .
101(10) . . .
93(10) . . .
86(9) . . .
84(9) . . .
95(10) . . .
100(10) . . .
96(10) . . .
112(11) . . .
102(10) . . .
103(10) . . .
96(10) . . .
116(11) . . .
108(10) . . .
104(10) . . .
93(10) . . .
82(9) . . .
103(10) . . .
101(10) . . .
105(10) . . .
94(10) . . .
87(9) . . .
88(9) . . .
96(10) . . .
107(10) . . .
92(10) . . .
118(11) . . .
92(10) . . .
90(9) . . .
89(9) . . .
117(11) . . .
88(9) . . .
88(9) . . .
87(9) . . .
99(10) . . .
97(10) . . .
106(10) . . .
94(10) . . .
96(10) . . .
106(10) . . .
95(10) . . .
93(10) . . .
97(10) . . .
95(10) . . .
93(10) . . .
94(10) . . .
110(10) . . .
107(10) . . .
100(10) . . .
117(11) . . .
80(9) . . .
95(10) . . .
100(10) . . .
98(10) . . .
100(10) . . .
90(9) . . .
104(10) . . .
103(10) . . .
91(10) . . .
94(10) . . .
104(10) . . .
92(10) . . .
95(10) . . .
96(10) . . .
111(11) . . .
90(9) . . .
106(10) . . .
100(10) . . .
98(10) . . .
97(10) . . .
82(9) . . .
93(10) . . .
96(10) . . .
111(11) . . .
105(10) . . .
107(10) . . .
92(10) . . .
103(10) . . .
106(10) . . .
105(10) . . .
93(10) . . .
119(11) . . .
122(11) . . .
112(11) . . .
106(10) . . .
100(10) . . .
99(10) . . .
91(10) . . .
119(11) . . .
95(10) . . .
91(10) . . .
109(10) . . .
97(10) . . .
102(10) . . .
98(10) . . .
102(10) . . .
100(10) . . .
86(9) . . .
89(9) . . .
120(11) . . .
98(10) . . .
93(10) . . .
98(10) . . .
98(10) . . .
91(10) . . .
92(10) . . .
109(10) . . .
91(10) . . .
109(10) . . .
103(10) . . .
91(10) . . .
96(10) . . .
94(10) . . .
96(10) . . .
91(10) . . .
79(9) . . .
101(10) . . .
101(10) . . .
111(11) . . .
105(10) . . .
96(10) . . .
101(10) . . .
92(10) . . .
96(10) . . .
103(10) . . .
109(10) . . .
109(10) . . .
105(10) . . .
117(11) . . .
112(11) . . .
102(10) . . .
97(10) . . .
88(9) . . .
99(10) . . .
88(9) . . .
96(10) . . .
100(10) . . .
97(10) . . .
91(10) . . .
87(9) . . .
95(10) . . .
98(10) . . .
80(9) . . .
105(10) . . .
107(10) . . .
95(10) . . .
101(10) . . .
99(10) . . .
94(10) . . .
107(10) . . .
94(10) . . .
99(10) . . .
89(9) . . .
117(11) . . .
101(10) . . .
103(10) . . .
107(10) . . .
90(9) . . .
82(9) . . .
95(10) . . .
109(10) . . .
109(10) . . .
101(10) . . .
98(10) . . .
95(10) . . .
98(10) . . .
90(9) . . .
101(10) . . .
99(10) . . .
81(9) . . .
100(10) . . .
99(10) . . .
93(10) . . .
75(9) . . .
120(11) . . .
106(10) . . .
103(10) . . .
107(10) . . .
97(10) . . .
95(10) . . .
88(9) . . .
112(11) . . .
97(10) . . .
98(10) . . .
108(10) . . .
98(10) . . .
104(10) . . .
114(11) . . .
93(10) . . .
101(10) . . .
82(9) . . .
108(10) . . .
99(10) . . .
93(10) . . .
98(10) . . .
96(10) . . .
96(10) . . .
116(11) . . .
89(9) . . .
104(10) . . .
97(10) . . .
83(9) . . .
98(10) . . .
92(10) . . .
103(10) . . .
83(9) . . .
97(10) . . .
125(11) . . .
84(9) . . .
116(11) . . .
101(10) . . .
95(10) . . .
104(10) . . .
109(10) . . .
99(10) . . .
86(9) . . .
97(10) . . .
85(9) . . .
93(10) . . .
103(10) . . .
114(11) . . .
99(10) . . .
92(10) . . .
99(10) . . .
97(10) . . .
109(10) . . .
109(10) . . .
112(11) . . .
107(10) . . .
104(10) . . .
121(11) . . .
95(10) . . .
97(10) . . .
101(10) . . .
86(9) . . .
98(10) . . .
90(9) . . .
90(9) . . .
105(10) . . .
107(10) . . .
106(10) . . .
109(10) . . .
96(10) . . .
97(10) . . .
93(10) . . .
101(10) . . .
94(10) . . .
112(11) . . .
96(10) . . .
94(10) . . .
106(10) . . .
99(10) . . .
109(10) . . .
92(10) . . .
104(10) . . .
89(9) . . .
103(10) . . .
96(10) . . .
104(10) . . .
109(10) . . .
108(10) . . .
104(10) . . .
94(10) . . .
105(10) . . .
93(10) . . .
101(10) . . .
91(10) . . .
85(9) . . .
95(10) . . .
106(10) . . .
97(10) . . .
97(10) . . .
102(10) . . .
106(10) . . .
90(9) . . .
97(10) . . .
100(10) . . .
100(10) . . .
110(10) . . .
101(10) . . .
92(10) . . .
94(10) . . .
93(10) . . .
107(10) . . .
103(10) . . .
100(10) . . .
109(10) . . .
98(10) . . .
109(10) . . .
108(10) . . .
88(9) . . .
97(10) . . .
92(10) . . .
99(10) . . .
118(11) . . .
89(9) . . .
105(10) . . .
112(11) . . .
100(10) . . .
111(11) . . .
75(9) . . .
99(10) . . .
103(10) . . .
95(10) . . .
95(10) . . .
94(10) . . .
89(9) . . .
105(10) . . .
99(10) . . .
109(10) . . .
99(10) . . .
100(10) . . .
84(9) . . .
89(9) . . .
108(10) . . .
120(11) . . .
99(10) . . .
104(10) . . .
114(11) . . .
102(10) . . .
83(9) . . .
95(10) . . .
87(9) . . .
93(10) . . .
105(10) . . .
109(10) . . .
96(10) . . .
88(9) . . .
96(10) . . .
86(9) . . .
92(10) . . .
100(10) . . .
105(10) . . .
99(10) . . .
119(11) . . .
104(10) . . .
90(9) . . .
94(10) . . .
113(11) . . .
110(10) . . .
89(9) . . .
85(9) . . .
98(10) . . .
98(10) . . .
114(11) . . .
108(10) . . .
113(11) . . .
102(10) . . .
122(11) . . .
85(9) . . .
106(10) . . .
96(10) . . .
99(10) . . .
88(9) . . .
109(10) . . .
90(9) . . .
98(10) . . .
83(9) . . .
95(10) . . .
102(10) . . .
113(11) . . .
110(10) . . .
98(10) . . .
101(10) . . .
94(10) . . .
105(10) . . .
96(10) . . .
84(9) . . .
99(10) . . .
117(11) . . .
106(10) . . .
107(10) . . .
82(9) . . .
97(10) . . .
107(10) . . .
92(10) . . .
103(10) . . .
105(10) . . .
87(9) . . .
97(10) . . .
90(9) . . .
100(10) . . .
102(10) . . .
102(10) . . .
90(9) . . .
97(10) . . .
103(10) . . .
101(10) . . .
96(10) . . .
89(9) . . .
95(10) . . .
93(10) . . .
109(10) . . .
91(10) . . .
103(10) . . .
100(10) . . .
113(11) . . .
103(10) . . .
91(10) . . .
98(10) . . .
91(10) . . .
84(9) . . .
109(10) . . .
97(10) . . .
93(10) . . .
105(10) . . .
108(10) . . .
92(10) . . .
92(10) . . .
107(10) . . .
102(10) . . .
83(9) . . .
88(9) . . .
111(11) . . .
108(10) . . .
121(11) . . .
94(10) . . .
92(10) . . .
86(9) . . .
102(10) . . .
95(10) . . .
105(10) . . .
99(10) . . .
90(9) . . .
81(9) . . .
106(10) . . .
93(10) . . .
110(10) . . .
102(10) . . .
98(10) . . .
90(9) . . .
104(10) . . .
105(10) . . .
107(10) . . .
102(10) . . .
92(10) . . .
86(9) . . .
97(10) . . .
89(9) . . .
87(9) . . .
90(9) . . .
93(10) . . .
108(10) . . .
92(10) . . .
100(10) . . .
98(10) . . .
89(9) . . .
92(10) . . .
109(10) . . .
95(10) . . .
90(9) . . .
87(9) . . .
103(10) . . .
103(10) . . .
89(9) . . .
85(9) . . .
88(9) . . .
87(9) . . .
119(11) . . .
105(10) . . .
109(10) . . .
110(10) . . .
96(10) . . .
84(9) . . .
110(10) . . .
102(10) . . .
94(10) . . .
105(10) . . .
98(10) . . .
83(9) . . .
94(10) . . .
121(11) . . .
100(10) . . .
91(10) . . .
99(10) . . .
102(10) . . .
113(11) . . .
102(10) . . .
101(10) . . .
84(9) . . .
96(10) . . .
104(10) . . .
99(10) . . .
102(10) . . .
111(11) . . .
109(10) . . .
87(9) . . .
95(10) . . .
108(10) . . .
85(9) . . .
100(10) . . .
107(10) . . .
94(10) . . .
98(10) . . .
104(10) . . .
115(11) . . .
102(10) . . .
105(10) . . .
95(10) . . .
111(11) . . .
99(10) . . .
99(10) . . .
107(10) . . .
90(9) . . .
100(10) . . .
98(10) . . .
104(10) . . .
90(9) . . .
99(10) . . .
101(10) . . .
113(11) . . .
81(9) . . .
80(9) . . .
106(10) . . .
92(10) . . .
98(10) . . .
104(10) . . .
98(10) . . .
100(10) . . .
101(10) . . .
84(9) . . .
99(10) . . .
101(10) . . .
97(10) . . .
105(10) . . .
99(10) . . .
89(9) . . .
84(9) . . .
100(10) . . .
94(10) . . .
91(10) . . .
99(10) . . .
86(9) . . .
93(10) . . .
99(10) . . .
95(10) . . .
109(10) . . .
96(10) . . .
82(9) . . .
110(10) . . .
107(10) . . .
91(10) . . .
98(10) . . .
88(9) . . .
92(10) . . .
101(10) . . .
93(10) . . .
115(11) . . .
103(10) . . .
84(9) . . .
92(10) . . .
110(10) . . .
125(11) . . .
93(10) . . .
89(9) . . .
109(10) . . .
103(10) . . .
130(11) . . .
113(11) . . .
101(10) . . .
101(10) . . .
100(10) . . .
92(10) . . .
99(10) . . .
101(10) . . .
94(10) . . .
101(10) . . .
105(10) . . .
115(11) . . .
105(10) . . .
113(11) . . .
120(11) . . .
97(10) . . .
98(10) . . .
99(10) . . .
100(10) . . .
102(10) . . .
102(10) . . .
82(9) . . .
106(10) . . .
88(9) . . .
119(11) . . .
103(10) . . .
105(10) . . .
95(10) . . .
102(10) . . .
105(10) . . .
85(9) . . .
88(9) . . .
120(11) . . .
106(10) . . .
108(10) . . .
108(10) . . .
90(9) . . .
95(10) . . .
97(10) . . .
97(10) . . .
120(11) . . .
109(10) . . .
103(10) . . .
88(9) . . .
96(10) . . .
98(10) . . .
86(9) . . .
92(10) . . .
87(9) . . .
94(10) . . .
95(10) . . .
81(9) . . .
88(9) . . .
102(10) . . .
108(10) . . .
105(10) . . .
100(10) . . .
113(11) . . .
91(10) . . .
107(10) . . .
83(9) . . .
90(9) . . .
103(10) . . .
91(10) . . .
94(10) . . .
103(10) . . .
101(10) . . .
101(10) . . .
94(10) . . .
105(10) . . .
102(10) . . .
90(9) . . .
89(9) . . .
85(9) . . .
102(10) . . .
105(10) . . .
118(11) . . .
88(9) . . .
100(10) . . .
102(10) . . .
92(10) . . .
86(9) . . .
106(10) . . .
105(10) . . .
100(10) . . .
106(10) . . .
114(11) . . .
99(10) . . .
97(10) . . .
94(10) . . .
109(10) . . .
108(10) . . .
102(10) . . .
106(10) . . .
112(11) . . .
96(10) . . .
92(10) . . .
92(10) . . .
106(10) . . .
100(10) . . .
93(10) . . .
108(10) . . .
112(11) . . .
105(10) . . .
105(10) . . .
97(10) . . .
101(10) . . .
95(10) . . .
106(10) . . .
103(10) . . .
88(9) . . .
103(10) . . .
94(10) . . .
103(10) . . .
107(10) . . .
98(10) . . .
108(10) . . .
106(10) . . .
107(10) . . .
101(10) . . .
100(10) . . .
92(10) . . .
98(10) . . .
92(10) . . .
106(10) . . .
107(10) . . .
88(9) . . .
82(9) . . .
97(10) . . .
109(10) . . .
114(11) . . .
80(9) . . .
100(10) . . .
97(10) . . .
121(11) . . .
100(10) . . .
105(10) . . .
110(10) . . .
105(10) . . .
110(10) . . .
101(10) . . .
105(10) . . .
107(10) . . .
109(10) . . .
112(11) . . .
104(10) . . .
102(10) . . .
117(11) . . .
112(11) . . .
101(10) . . .
93(10) . . .
100(10) . . .
102(10) . . .
111(11) . . .
102(10) . . .
113(11) . . .
102(10) . . .
108(10) . . .
105(10) . . .
93(10) . . .
99(10) . . .
101(10) . . .
102(10) . . .
115(11) . . .
116(11) . . .
98(10) . . .
99(10) . . .
111(11) . . .
108(10) . . .
105(10) . . .
112(11) . . .
115(11) . . .
122(11) . . .
93(10) . . .
124(11) . . .
108(10) . . .
106(10) . . .
102(10) . . .
93(10) . . .
105(10) . . .
111(11) . . .
105(10) . . .
89(9) . . .
115(11) . . .
120(11) . . .
107(10) . . .
122(11) . . .
110(10) . . .
127(11) . . .
93(10) . . .
110(10) . . .
112(11) . . .
128(11) . . .
116(11) . . .
101(10) . . .
117(11) . . .
115(11) . . .
124(11) . . .
111(11) . . .
113(11) . . .
128(11) . . .
110(10) . . .
115(11) . . .
134(12) . . .
126(11) . . .
116(11) . . .
129(11) . . .
122(11) . . .
128(11) . . .
142(12) . . .
134(12) . . .
122(11) . . .
131(11) . . .
134(12) . . .
122(11) . . .
128(11) . . .
130(11) . . .
110(10) . . .
128(11) . . .
148(12) . . .
133(12) . . .
149(12) . . .
137(12) . . .
140(12) . . .
126(11) . . .
135(12) . . .
160(13) . . .
156(12) . . .
143(12) . . .
160(13) . . .
154(12) . . .
169(13) . . .
164(13) . . .
175(13) . . .
164(13) . . .
174(13) . . .
201(14) . . .
210(14) . . .
201(14) . . .
185(14) . . .
189(14) . . .
182(13) . . .
188(14) . . .
217(15) . . .
221(15) . . .
238(15) . . .
237(15) . . .
249(16) . . .
245(16) . . .
238(15) . . .
242(16) . . .
271(16) . . .
258(16) . . .
248(16) . . .
263(16) . . .
258(16) . . .
250(16) . . .
251(16) . . .
262(16) . . .
280(17) . . .
235(15) . . .
232(15) . . .
259(16) . . .
259(16) . . .
232(15) . . .
243(16) . . .
264(16) . . .
218(15) . . .
247(16) . . .
252(16) . . .
228(15) . . .
222(15) . . .
220(15) . . .
210(14) . . .
196(14) . . .
219(15) . . .
170(13) . . .
183(14) . . .
189(14) . . .
171(13) . . .
181(13) . . .
178(13) . . .
188(14) . . .
153(12) . . .
164(13) . . .
162(13) . . .
166(13) . . .
155(12) . . .
138(12) . . .
149(12) . . .
153(12) . . .
151(12) . . .
133(12) . . .
116(11) . . .
136(12) . . .
134(12) . . .
161(13) . . .
134(12) . . .
134(12) . . .
115(11) . . .
140(12) . . .
136(12) . . .
127(11) . . .
132(11) . . .
137(12) . . .
132(11) . . .
140(12) . . .
131(11) . . .
116(11) . . .
127(11) . . .
128(11) . . .
122(11) . . .
108(10) . . .
109(10) . . .
100(10) . . .
106(10) . . .
113(11) . . .
130(11) . . .
123(11) . . .
119(11) . . .
112(11) . . .
105(10) . . .
113(11) . . .
91(10) . . .
93(10) . . .
120(11) . . .
117(11) . . .
106(10) . . .
113(11) . . .
112(11) . . .
99(10) . . .
100(10) . . .
106(10) . . .
113(11) . . .
102(10) . . .
109(10) . . .
103(10) . . .
104(10) . . .
102(10) . . .
119(11) . . .
115(11) . . .
107(10) . . .
107(10) . . .
112(11) . . .
110(10) . . .
101(10) . . .
115(11) . . .
107(10) . . .
106(10) . . .
115(11) . . .
109(10) . . .
109(10) . . .
90(9) . . .
99(10) . . .
103(10) . . .
101(10) . . .
116(11) . . .
105(10) . . .
99(10) . . .
116(11) . . .
75(9) . . .
89(9) . . .
107(10) . . .
118(11) . . .
95(10) . . .
95(10) . . .
85(9) . . .
107(10) . . .
94(10) . . .
93(10) . . .
108(10) . . .
97(10) . . .
92(10) . . .
99(10) . . .
101(10) . . .
100(10) . . .
106(10) . . .
105(10) . . .
108(10) . . .
108(10) . . .
100(10) . . .
103(10) . . .
102(10) . . .
94(10) . . .
103(10) . . .
104(10) . . .
105(10) . . .
92(10) . . .
111(11) . . .
97(10) . . .
94(10) . . .
104(10) . . .
98(10) . . .
86(9) . . .
94(10) . . .
89(9) . . .
102(10) . . .
122(11) . . .
118(11) . . .
101(10) . . .
87(9) . . .
89(9) . . .
109(10) . . .
102(10) . . .
91(10) . . .
101(10) . . .
99(10) . . .
129(11) . . .
108(10) . . .
99(10) . . .
86(9) . . .
92(10) . . .
106(10) . . .
104(10) . . .
89(9) . . .
87(9) . . .
104(10) . . .
97(10) . . .
95(10) . . .
93(10) . . .
89(9) . . .
102(10) . . .
106(10) . . .
104(10) . . .
108(10) . . .
108(10) . . .
100(10) . . .
99(10) . . .
120(11) . . .
101(10) . . .
97(10) . . .
112(11) . . .
118(11) . . .
99(10) . . .
92(10) . . .
82(9) . . .
101(10) . . .
102(10) . . .
92(10) . . .
80(9) . . .
89(9) . . .
106(10) . . .
106(10) . . .
92(10) . . .
106(10) . . .
106(10) . . .
94(10) . . .
91(10) . . .
98(10) . . .
94(10) . . .
109(10) . . .
122(11) . . .
87(9) . . .
99(10) . . .
109(10) . . .
94(10) . . .
88(9) . . .
95(10) . . .
90(9) . . .
105(10) . . .
91(10) . . .
102(10) . . .
92(10) . . .
104(10) . . .
107(10) . . .
84(9) . . .
88(9) . . .
107(10) . . .
94(10) . . .
92(10) . . .
87(9) . . .
99(10) . . .
94(10) . . .
109(10) . . .
108(10) . . .
93(10) . . .
106(10) . . .
89(9) . . .
89(9) . . .
109(10) . . .
99(10) . . .
103(10) . . .
104(10) . . .
96(10) . . .
106(10) . . .
94(10) . . .
93(10) . . .
96(10) . . .
102(10) . . .
101(10) . . .
92(10) . . .
97(10) . . .
93(10) . . .
108(10) . . .
101(10) . . .
103(10) . . .
97(10) . . .
105(10) . . .
103(10) . . .
97(10) . . .
106(10) . . .
105(10) . . .
97(10) . . .
101(10) . . .
91(10) . . .
92(10) . . .
91(10) . . .
107(10) . . .
96(10) . . .
92(10) . . .
86(9) . . .
103(10) . . .
105(10) . . .
109(10) . . .
90(9) . . .
104(10) . . .
95(10) . . .
96(10) . . .
88(9) . . .
100(10) . . .
91(10) . . .
82(9) . . .
103(10) . . .
105(10) . . .
99(10) . . .
107(10) . . .
102(10) . . .
103(10) . . .
101(10) . . .
89(9) . . .
90(9) . . .
101(10) . . .
97(10) . . .
93(10) . . .
88(9) . . .
97(10) . . .
82(9) . . .
85(9) . . .
102(10) . . .
100(10) . . .
89(9) . . .
93(10) . . .
96(10) . . .
106(10) . . .
94(10) . . .
94(10) . . .
107(10) . . .
94(10) . . .
85(9) . . .
98(10) . . .
103(10) . . .
95(10) . . .
101(10) . . .
92(10) . . .
95(10) . . .
103(10) . . .
99(10) . . .
105(10) . . .
82(9) . . .
94(10) . . .
110(10) . . .
95(10) . . .
92(10) . . .
101(10) . . .
102(10) . . .
101(10) . . .
102(10) . . .
94(10) . . .
94(10) . . .
90(9) . . .
110(10) . . .
99(10) . . .
104(10) . . .
104(10) . . .
98(10) . . .
93(10) . . .
97(10) . . .
85(9) . . .
103(10) . . .
98(10) . . .
84(9) . . .
99(10) . . .
105(10) . . .
91(10) . . .
101(10) . . .
100(10) . . .
98(10) . . .
85(9) . . .
91(10) . . .
89(9) . . .
98(10) . . .
104(10) . . .
104(10) . . .
83(9) . . .
111(11) . . .
106(10) . . .
115(11) . . .
98(10) . . .
97(10) . . .
95(10) . . .
98(10) . . .
96(10) . . .
103(10) . . .
122(11) . . .
114(11) . . .
98(10) . . .
95(10) . . .
101(10) . . .
98(10) . . .
106(10) . . .
98(10) . . .
98(10) . . .
100(10) . . .
112(11) . . .
97(10) . . .
92(10) . . .
106(10) . . .
88(9) . . .
102(10) . . .
115(11) . . .
94(10) . . .
100(10) . . .
93(10) . . .
108(10) . . .
91(10) . . .
78(9) . . .
123(11) . . .
93(10) . . .
99(10) . . .
99(10) . . .
106(10) . . .
93(10) . . .
98(10) . . .
111(11) . . .
101(10) . . .
96(10) . . .
92(10) . . .
98(10) . . .
96(10) . . .
103(10) . . .
99(10) . . .
96(10) . . .
92(10) . . .
87(9) . . .
105(10) . . .
114(11) . . .
86(9) . . .
93(10) . . .
97(10) . . .
102(10) . . .
94(10) . . .
92(10) . . .
90(9) . . .
92(10) . . .
99(10) . . .
88(9) . . .
107(10) . . .
108(10) . . .
102(10) . . .
97(10) . . .
103(10) . . .
106(10) . . .
100(10) . . .
100(10) . . .
87(9) . . .
98(10) . . .
87(9) . . .
101(10) . . .
86(9) . . .
103(10) . . .
89(9) . . .
100(10) . . .
107(10) . . .
102(10) . . .
100(10) . . .
89(9) . . .
103(10) . . .
89(9) . . .
104(10) . . .
80(9) . . .
87(9) . . .
93(10) . . .
86(9) . . .
84(9) . . .
105(10) . . .
104(10) . . .
105(10) . . .
81(9) . . .
89(9) . . .
87(9) . . .
88(9) . . .
83(9) . . .
97(10) . . .
90(9) . . .
101(10) . . .
102(10) . . .
100(10) . . .
95(10) . . .
106(10) . . .
93(10) . . .
96(10) . . .
104(10) . . .
110(10) . . .
102(10) . . .
94(10) . . .
95(10) . . .
109(10) . . .
83(9) . . .
90(9) . . .
110(10) . . .
82(9) . . .
103(10) . . .
98(10) . . .
87(9) . . .
99(10) . . .
97(10) . . .
102(10) . . .
98(10) . . .
84(9) . . .
105(10) . . .
91(10) . . .
85(9) . . .
88(9) . . .
94(10) . . .
117(11) . . .
90(9) . . .
85(9) . . .
96(10) . . .
90(9) . . .
103(10) . . .
98(10) . . .
81(9) . . .
77(9) . . .
88(9) . . .
94(10) . . .
107(10) . . .
117(11) . . .
95(10) . . .
90(9) . . .
112(11) . . .
103(10) . . .
86(9) . . .
108(10) . . .
100(10) . . .
100(10) . . .
96(10) . . .
104(10) . . .
103(10) . . .
83(9) . . .
94(10) . . .
106(10) . . .
95(10) . . .
86(9) . . .
110(10) . . .
98(10) . . .
95(10) . . .
90(9) . . .
91(10) . . .
82(9) . . .
93(10) . . .
88(9) . . .
83(9) . . .
99(10) . . .
96(10) . . .
95(10) . . .
87(9) . . .
98(10) . . .
108(10) . . .
91(10) . . .
94(10) . . .
93(10) . . .
99(10) . . .
92(10) . . .
96(10) . . .
90(9) . . .
91(10) . . .
98(10) . . .
94(10) . . .
92(10) . . .
105(10) . . .
89(9) . . .
98(10) . . .
88(9) . . .
97(10) . . .
95(10) . . .
90(9) . . .
93(10) . . .
96(10) . . .
110(10) . . .
88(9) . . .
116(11) . . .
106(10) . . .
99(10) . . .
94(10) . . .
94(10) . . .
99(10) . . .
91(10) . . .
88(9) . . .
89(9) . . .
94(10) . . .
94(10) . . .
102(10) . . .
100(10) . . .
94(10) . . .
85(9) . . .
95(10) . . .
98(10) . . .
79(9) . . .
93(10) . . .
106(10) . . .
106(10) . . .
84(9) . . .
92(10) . . .
95(10) . . .
105(10) . . .
103(10) . . .
88(9) . . .
92(10) . . .
103(10) . . .
112(11) . . .
100(10) . . .
109(10) . . .
92(10) . . .
93(10) . . .
90(9) . . .
111(11) . . .
109(10) . . .
106(10) . . .
107(10) . . .
113(11) . . .
94(10) . . .
102(10) . . .
99(10) . . .
105(10) . . .
96(10) . . .
105(10) . . .
96(10) . . .
103(10) . . .
84(9) . . .
101(10) . . .
106(10) . . .
105(10) . . .
98(10) . . .
85(9) . . .
90(9) . . .
91(10) . . .
109(10) . . .
92(10) . . .
91(10) . . .
91(10) . . .
92(10) . . .
97(10) . . .
96(10) . . .
93(10) . . .
98(10) . . .
92(10) . . .
96(10) . . .
91(10) . . .
94(10) . . .
82(9) . . .
93(10) . . .
107(10) . . .
111(11) . . .
98(10) . . .
91(10) . . .
88(9) . . .
106(10) . . .
102(10) . . .
97(10) . . .
92(10) . . .
84(9) . . .
101(10) . . .
102(10) . . .
103(10) . . .
87(9) . . .
86(9) . . .
102(10) . . .
102(10) . . .
93(10) . . .
96(10) . . .
99(10) . . .
93(10) . . .
108(10) . . .
109(10) . . .
101(10) . . .
96(10) . . .
96(10) . . .
97(10) . . .
103(10) . . .
104(10) . . .
82(9) . . .
99(10) . . .
92(10) . . .
91(10) . . .
88(9) . . .
98(10) . . .
101(10) . . .
92(10) . . .
89(9) . . .
97(10) . . .
92(10) . . .
90(9) . . .
89(9) . . .
87(9) . . .
99(10) . . .
99(10) . . .
98(10) . . .
88(9) . . .
97(10) . . .
91(10) . . .
94(10) . . .
94(10) . . .
114(11) . . .
92(10) . . .
96(10) . . .
113(11) . . .
90(9) . . .
106(10) . . .
90(9) . . .
77(9) . . .
90(9) . . .
99(10) . . .
96(10) . . .
72(8) . . .
89(9) . . .
96(10) . . .
89(9) . . .
93(10) . . .
73(9) . . .
106(10) . . .
106(10) . . .
103(10) . . .
98(10) . . .
100(10) . . .
107(10) . . .
103(10) . . .
93(10) . . .
88(9) . . .
97(10) . . .
100(10) . . .
98(10) . . .
96(10) . . .
83(9) . . .
87(9) . . .
101(10) . . .
95(10) . . .
112(11) . . .
95(10) . . .
95(10) . . .
107(10) . . .
107(10) . . .
97(10) . . .
99(10) . . .
102(10) . . .
99(10) . . .
102(10) . . .
97(10) . . .
97(10) . . .
94(10) . . .
90(9) . . .
124(11) . . .
98(10) . . .
107(10) . . .
101(10) . . .
105(10) . . .
93(10) . . .
99(10) . . .
82(9) . . .
85(9) . . .
106(10) . . .
99(10) . . .
85(9) . . .
100(10) . . .
93(10) . . .
82(9) . . .
105(10) . . .
106(10) . . .
93(10) . . .
104(10) . . .
85(9) . . .
93(10) . . .
108(10) . . .
88(9) . . .
110(10) . . .
83(9) . . .
90(9) . . .
106(10) . . .
92(10) . . .
98(10) . . .
113(11) . . .
89(9) . . .
91(10) . . .
93(10) . . .
95(10) . . .
99(10) . . .
85(9) . . .
94(10) . . .
93(10) . . .
103(10) . . .
96(10) . . .
103(10) . . .
99(10) . . .
106(10) . . .
76(9) . . .
94(10) . . .
109(10) . . .
104(10) . . .
112(11) . . .
104(10) . . .
81(9) . . .
94(10) . . .
96(10) . . .
89(9) . . .
119(11) . . .
94(10) . . .
84(9) . . .
97(10) . . .
89(9) . . .
105(10) . . .
95(10) . . .
102(10) . . .
102(10) . . .
87(9) . . .
91(10) . . .
89(9) . . .
94(10) . . .
100(10) . . .
104(10) . . .
101(10) . . .
89(9) . . .
98(10) . . .
95(10) . . .
84(9) . . .
103(10) . . .
100(10) . . .
95(10) . . .
99(10) . . .
91(10) . . .
106(10) . . .
92(10) . . .
104(10) . . .
87(9) . . .
97(10) . . .
84(9) . . .
111(11) . . .
99(10) . . .
89(9) . . .
110(10) . . .
107(10) . . .
103(10) . . .
88(9) . . .
91(10) . . .
107(10) . . .
104(10) . . .
99(10) . . .
98(10) . . .
96(10) . . .
106(10) . . .
93(10) . . .
123(11) . . .
102(10) . . .
81(9) . . .
91(10) . . .
95(10) . . .
90(9) . . .
107(10) . . .
100(10) . . .
97(10) . . .
100(10) . . .
101(10) . . .
89(9) . . .
92(10) . . .
104(10) . . .
90(9) . . .
94(10) . . .
95(10) . . .
99(10) . . .
98(10) . . .
107(10) . . .
98(10) . . .
102(10) . . .
119(11) . . .
93(10) . . .
116(11) . . .
87(9) . . .
72(8) . . .
103(10) . . .
96(10) . . .
95(10) . . .
89(9) . . .
79(9) . . .
102(10) . . .
109(10) . . .
101(10) . . .
97(10) . . .
96(10) . . .
79(9) . . .
103(10) . . .
91(10) . . .
92(10) . . .
95(10) . . .
98(10) . . .
93(10) . . .
84(9) . . .
108(10) . . .
101(10) . . .
98(10) . . .
111(11) . . .
110(10) . . .
91(10) . . .
105(10) . . .
104(10) . . .
107(10) . . .
88(9) . . .
94(10) . . .
103(10) . . .
98(10) . . .
97(10) . . .
110(10) . . .
103(10) . . .
93(10) . . .
92(10) . . .
107(10) . . .
92(10) . . .
104(10) . . .
93(10) . . .
92(10) . . .
88(9) . . .
97(10) . . .
107(10) . . .
98(10) . . .
96(10) . . .
105(10) . . .
95(10) . . .
89(9) . . .
96(10) . . .
106(10) . . .
95(10) . . .
95(10) . . .
108(10) . . .
99(10) . . .
92(10) . . .
91(10) . . .
98(10) . . .
102(10) . . .
87(9) . . .
87(9) . . .
98(10) . . .
91(10) . . .
91(10) . . .
93(10) . . .
99(10) . . .
92(10) . . .
80(9) . . .
103(10) . . .
103(10) . . .
87(9) . . .
90(9) . . .
84(9) . . .
101(10) . . .
96(10) . . .
111(11) . . .
97(10) . . .
104(10) . . .
105(10) . . .
102(10) . . .
97(10) . . .
102(10) . . .
102(10) . . .
100(10) . . .
87(9) . . .
93(10) . . .
98(10) . . .
96(10) . . .
91(10) . . .
99(10) . . .
118(11) . . .
103(10) . . .
85(9) . . .
98(10) . . .
96(10) . . .
81(9) . . .
88(9) . . .
98(10) . . .
90(9) . . .
98(10) . . .
92(10) . . .
101(10) . . .
93(10) . . .
99(10) . . .
108(10) . . .
95(10) . . .
88(9) . . .
82(9) . . .
97(10) . . .
107(10) . . .
78(9) . . .
97(10) . . .
96(10) . . .
90(9) . . .
98(10) . . .
85(9) . . .
93(10) . . .
87(9) . . .
92(10) . . .
92(10) . . .
105(10) . . .
98(10) . . .
86(9) . . .
79(9) . . .
84(9) . . .
115(11) . . .
97(10) . . .
91(10) . . .
94(10) . . .
100(10) . . .
100(10) . . .
97(10) . . .
90(9) . . .
98(10) . . .
107(10) . . .
98(10) . . .
96(10) . . .
97(10) . . .
104(10) . . .
91(10) . . .
102(10) . . .
105(10) . . .
84(9) . . .
110(10) . . .
105(10) . . .
106(10) . . .
104(10) . . .
88(9) . . .
97(10) . . .
97(10) . . .
92(10) . . .
106(10) . . .
94(10) . . .
114(11) . . .
97(10) . . .
97(10) . . .
88(9) . . .
90(9) . . .
97(10) . . .
87(9) . . .
94(10) . . .
113(11) . . .
101(10) . . .
97(10) . . .
101(10) . . .
113(11) . . .
121(11) . . .
102(10) . . .
99(10) . . .
101(10) . . .
99(10) . . .
100(10) . . .
104(10) . . .
92(10) . . .
94(10) . . .
93(10) . . .
93(10) . . .
93(10) . . .
86(9) . . .
100(10) . . .
91(10) . . .
96(10) . . .
83(9) . . .
104(10) . . .
95(10) . . .
91(10) . . .
96(10) . . .
106(10) . . .
106(10) . . .
90(9) . . .
102(10) . . .
99(10) . . .
117(11) . . .
108(10) . . .
105(10) . . .
97(10) . . .
102(10) . . .
99(10) . . .
93(10) . . .
104(10) . . .
95(10) . . .
90(9) . . .
102(10) . . .
110(10) . . .
86(9) . . .
98(10) . . .
87(9) . . .
107(10) . . .
111(11) . . .
118(11) . . .
94(10) . . .
114(11) . . .
103(10) . . .
99(10) . . .
116(11) . . .
100(10) . . .
100(10) . . .
110(10) . . .
107(10) . . .
96(10) . . .
99(10) . . .
114(11) . . .
108(10) . . .
98(10) . . .
116(11) . . .
97(10) . . .
99(10) . . .
111(11) . . .
84(9) . . .
89(9) . . .
101(10) . . .
97(10) . . .
86(9) . . .
97(10) . . .
107(10) . . .
107(10) . . .
109(10) . . .
97(10) . . .
107(10) . . .
103(10) . . .
93(10) . . .
92(10) . . .
94(10) . . .
103(10) . . .
90(9) . . .
108(10) . . .
107(10) . . .
111(11) . . .
96(10) . . .
105(10) . . .
101(10) . . .
78(9) . . .
92(10) . . .
89(9) . . .
94(10) . . .
98(10) . . .
104(10) . . .
110(10) . . .
100(10) . . .
101(10) . . .
91(10) . . .
110(10) . . .
98(10) . . .
104(10) . . .
94(10) . . .
97(10) . . .
100(10) . . .
91(10) . . .
116(11) . . .
98(10) . . .
103(10) . . .
105(10) . . .
88(9) . . .
120(11) . . .
79(9) . . .
108(10) . . .
106(10) . . .
106(10) . . .
113(11) . . .
113(11) . . .
104(10) . . .
107(10) . . .
106(10) . . .
94(10) . . .
94(10) . . .
79(9) . . .
98(10) . . .
91(10) . . .
93(10) . . .
96(10) . . .
94(10) . . .
100(10) . . .
109(10) . . .
102(10) . . .
103(10) . . .
110(10) . . .
96(10) . . .
91(10) . . .
96(10) . . .
95(10) . . .
92(10) . . .
120(11) . . .
101(10) . . .
105(10) . . .
116(11) . . .
89(9) . . .
97(10) . . .
117(11) . . .
103(10) . . .
98(10) . . .
107(10) . . .
103(10) . . .
110(10) . . .
101(10) . . .
120(11) . . .
98(10) . . .
132(11) . . .
120(11) . . .
114(11) . . .
110(10) . . .
117(11) . . .
113(11) . . .
109(10) . . .
96(10) . . .
108(10) . . .
106(10) . . .
100(10) . . .
110(10) . . .
106(10) . . .
113(11) . . .
110(10) . . .
107(10) . . .
110(10) . . .
126(11) . . .
110(10) . . .
102(10) . . .
111(11) . . .
107(10) . . .
128(11) . . .
126(11) . . .
132(11) . . .
129(11) . . .
119(11) . . .
108(10) . . .
119(11) . . .
114(11) . . .
132(11) . . .
100(10) . . .
115(11) . . .
109(10) . . .
117(11) . . .
121(11) . . .
126(11) . . .
137(12) . . .
126(11) . . .
135(12) . . .
132(11) . . .
141(12) . . .
118(11) . . .
121(11) . . .
136(12) . . .
126(11) . . .
124(11) . . .
124(11) . . .
119(11) . . .
136(12) . . .
140(12) . . .
135(12) . . .
115(11) . . .
127(11) . . .
131(11) . . .
133(12) . . .
123(11) . . .
123(11) . . .
132(11) . . .
148(12) . . .
146(12) . . .
141(12) . . .
137(12) . . .
158(13) . . .
128(11) . . .
131(11) . . .
156(12) . . .
146(12) . . .
163(13) . . .
152(12) . . .
149(12) . . .
160(13) . . .
169(13) . . .
163(13) . . .
169(13) . . .
161(13) . . .
175(13) . . .
199(14) . . .
178(13) . . .
192(14) . . .
176(13) . . .
169(13) . . .
185(14) . . .
202(14) . . .
211(15) . . .
207(14) . . .
200(14) . . .
223(15) . . .
232(15) . . .
224(15) . . .
233(15) . . .
242(16) . . .
220(15) . . .
249(16) . . .
250(16) . . .
251(16) . . .
261(16) . . .
304(17) . . .
275(17) . . .
303(17) . . .
295(17) . . .
298(17) . . .
298(17) . . .
316(18) . . .
350(19) . . .
358(19) . . .
335(18) . . .
329(18) . . .
355(19) . . .
365(19) . . .
369(19) . . .
370(19) . . .
338(18) . . .
356(19) . . .
390(20) . . .
395(20) . . .
401(20) . . .
409(20) . . .
420(20) . . .
393(20) . . .
461(21) . . .
455(21) . . .
447(21) . . .
401(20) . . .
393(20) . . .
436(21) . . .
397(20) . . .
408(20) . . .
419(20) . . .
398(20) . . .
418(20) . . .
433(21) . . .
423(21) . . .
417(20) . . .
395(20) . . .
393(20) . . .
389(20) . . .
381(20) . . .
376(19) . . .
394(20) . . .
337(18) . . .
323(18) . . .
330(18) . . .
331(18) . . .
325(18) . . .
322(18) . . .
291(17) . . .
313(18) . . .
253(16) . . .
299(17) . . .
255(16) . . .
290(17) . . .
275(17) . . .
259(16) . . .
265(16) . . .
245(16) . . .
218(15) . . .
238(15) . . .
249(16) . . .
199(14) . . .
215(15) . . .
205(14) . . .
216(15) . . .
214(15) . . .
211(15) . . .
184(14) . . .
181(13) . . .
204(14) . . .
176(13) . . .
165(13) . . .
169(13) . . .
181(13) . . .
186(14) . . .
163(13) . . .
159(13) . . .
160(13) . . .
151(12) . . .
151(12) . . .
153(12) . . .
149(12) . . .
162(13) . . .
156(12) . . .
142(12) . . .
133(12) . . .
147(12) . . .
146(12) . . .
149(12) . . .
134(12) . . .
136(12) . . .
126(11) . . .
137(12) . . .
144(12) . . .
151(12) . . .
126(11) . . .
132(11) . . .
143(12) . . .
133(12) . . .
117(11) . . .
123(11) . . .
140(12) . . .
114(11) . . .
114(11) . . .
121(11) . . .
118(11) . . .
137(12) . . .
114(11) . . .
138(12) . . .
132(11) . . .
137(12) . . .
119(11) . . .
121(11) . . .
113(11) . . .
131(11) . . .
126(11) . . .
122(11) . . .
123(11) . . .
113(11) . . .
125(11) . . .
117(11) . . .
117(11) . . .
119(11) . . .
112(11) . . .
118(11) . . .
123(11) . . .
106(10) . . .
106(10) . . .
132(11) . . .
125(11) . . .
115(11) . . .
110(10) . . .
109(10) . . .
113(11) . . .
124(11) . . .
125(11) . . .
127(11) . . .
105(10) . . .
113(11) . . .
101(10) . . .
97(10) . . .
102(10) . . .
103(10) . . .
100(10) . . .
112(11) . . .
111(11) . . .
94(10) . . .
94(10) . . .
119(11) . . .
111(11) . . .
116(11) . . .
110(10) . . .
87(9) . . .
122(11) . . .
108(10) . . .
122(11) . . .
112(11) . . .
117(11) . . .
100(10) . . .
99(10) . . .
114(11) . . .
109(10) . . .
113(11) . . .
89(9) . . .
94(10) . . .
102(10) . . .
112(11) . . .
102(10) . . .
101(10) . . .
95(10) . . .
101(10) . . .
97(10) . . .
101(10) . . .
97(10) . . .
91(10) . . .
100(10) . . .
108(10) . . .
97(10) . . .
93(10) . . .
105(10) . . .
107(10) . . .
109(10) . . .
85(9) . . .
113(11) . . .
90(9) . . .
87(9) . . .
103(10) . . .
99(10) . . .
118(11) . . .
99(10) . . .
116(11) . . .
94(10) . . .
102(10) . . .
115(11) . . .
108(10) . . .
119(11) . . .
107(10) . . .
104(10) . . .
100(10) . . .
101(10) . . .
127(11) . . .
87(9) . . .
98(10) . . .
105(10) . . .
111(11) . . .
104(10) . . .
102(10) . . .
98(10) . . .
107(10) . . .
103(10) . . .
89(9) . . .
96(10) . . .
100(10) . . .
108(10) . . .
96(10) . . .
113(11) . . .
87(9) . . .
120(11) . . .
109(10) . . .
103(10) . . .
88(9) . . .
92(10) . . .
108(10) . . .
108(10) . . .
104(10) . . .
109(10) . . .
104(10) . . .
112(11) . . .
91(10) . . .
127(11) . . .
96(10) . . .
98(10) . . .
95(10) . . .
100(10) . . .
99(10) . . .
105(10) . . .
88(9) . . .
106(10) . . .
105(10) . . .
103(10) . . .
103(10) . . .
104(10) . . .
93(10) . . .
94(10) . . .
107(10) . . .
108(10) . . .
95(10) . . .
109(10) . . .
108(10) . . .
104(10) . . .
96(10) . . .
108(10) . . .
88(9) . . .
88(9) . . .
107(10) . . .
117(11) . . .
98(10) . . .
101(10) . . .
96(10) . . .
101(10) . . .
108(10) . . .
103(10) . . .
97(10) . . .
105(10) . . .
109(10) . . .
87(9) . . .
104(10) . . .
105(10) . . .
93(10) . . .
104(10) . . .
98(10) . . .
96(10) . . .
96(10) . . .
86(9) . . .
96(10) . . .
114(11) . . .
105(10) . . .
88(9) . . .
111(11) . . .
116(11) . . .
89(9) . . .
110(10) . . .
113(11) . . .
107(10) . . .
82(9) . . .
92(10) . . .
106(10) . . .
114(11) . . .
91(10) . . .
85(9) . . .
101(10) . . .
93(10) . . .
85(9) . . .
100(10) . . .
100(10) . . .
103(10) . . .
100(10) . . .
100(10) . . .
93(10) . . .
101(10) . . .
107(10) . . .
98(10) . . .
112(11) . . .
120(11) . . .
91(10) . . .
108(10) . . .
114(11) . . .
96(10) . . .
90(9) . . .
96(10) . . .
109(10) . . .
105(10) . . .
95(10) . . .
104(10) . . .
101(10) . . .
122(11) . . .
100(10) . . .
91(10) . . .
116(11) . . .
91(10) . . .
94(10) . . .
94(10) . . .
109(10) . . .
105(10) . . .
97(10) . . .
92(10) . . .
107(10) . . .
99(10) . . .
97(10) . . .
105(10) . . .
90(9) . . .
104(10) . . .
107(10) . . .
105(10) . . .
106(10) . . .
101(10) . . .
107(10) . . .
108(10) . . .
115(11) . . .
97(10) . . .
109(10) . . .
117(11) . . .
117(11) . . .
85(9) . . .
89(9) . . .
110(10) . . .
104(10) . . .
85(9) . . .
113(11) . . .
95(10) . . .
107(10) . . .
114(11) . . .
117(11) . . .
97(10) . . .
101(10) . . .
105(10) . . .
114(11) . . .
101(10) . . .
109(10) . . .
92(10) . . .
108(10) . . .
84(9) . . .
102(10) . . .
109(10) . . .
102(10) . . .
112(11) . . .
110(10) . . .
97(10) . . .
108(10) . . .
121(11) . . .
101(10) . . .
92(10) . . .
92(10) . . .
111(11) . . .
93(10) . . .
89(9) . . .
110(10) . . .
113(11) . . .
103(10) . . .
110(10) . . .
122(11) . . .
109(10) . . .
125(11) . . .
79(9) . . .
101(10) . . .
90(9) . . .
110(10) . . .
122(11) . . .
118(11) . . .
110(10) . . .
104(10) . . .
121(11) . . .
113(11) . . .
117(11) . . .
121(11) . . .
119(11) . . .
113(11) . . .
110(10) . . .
127(11) . . .
123(11) . . .
105(10) . . .
129(11) . . .
111(11) . . .
121(11) . . .
113(11) . . .
122(11) . . .
135(12) . . .
119(11) . . .
107(10) . . .
141(12) . . .
147(12) . . .
116(11) . . .
121(11) . . .
129(11) . . .
123(11) . . .
141(12) . . .
142(12) . . .
131(11) . . .
139(12) . . .
132(11) . . .
126(11) . . .
131(11) . . .
142(12) . . .
120(11) . . .
115(11) . . .
137(12) . . .
143(12) . . .
140(12) . . .
128(11) . . .
139(12) . . .
151(12) . . .
139(12) . . .
142(12) . . .
133(12) . . .
157(13) . . .
147(12) . . .
155(12) . . .
146(12) . . .
160(13) . . .
166(13) . . .
155(12) . . .
180(13) . . .
172(13) . . .
180(13) . . .
193(14) . . .
182(13) . . .
203(14) . . .
193(14) . . .
205(14) . . .
204(14) . . .
180(13) . . .
217(15) . . .
208(14) . . .
224(15) . . .
232(15) . . .
234(15) . . .
217(15) . . .
233(15) . . .
219(15) . . .
234(15) . . .
277(17) . . .
246(16) . . .
238(15) . . .
249(16) . . .
250(16) . . .
260(16) . . .
264(16) . . .
278(17) . . .
274(17) . . .
260(16) . . .
277(17) . . .
253(16) . . .
278(17) . . .
285(17) . . .
283(17) . . .
289(17) . . .
268(16) . . .
275(17) . . .
278(17) . . .
301(17) . . .
275(17) . . .
271(16) . . .
280(17) . . .
262(16) . . .
268(16) . . .
256(16) . . .
253(16) . . .
235(15) . . .
274(17) . . .
263(16) . . .
243(16) . . .
258(16) . . .
245(16) . . .
229(15) . . .
238(15) . . .
225(15) . . .
242(16) . . .
249(16) . . .
238(15) . . .
185(14) . . .
223(15) . . .
206(14) . . .
213(15) . . .
224(15) . . .
190(14) . . .
192(14) . . .
189(14) . . .
171(13) . . .
200(14) . . .
175(13) . . .
151(12) . . .
149(12) . . .
159(13) . . .
170(13) . . .
139(12) . . .
167(13) . . .
160(13) . . .
145(12) . . .
152(12) . . .
147(12) . . .
137(12) . . .
143(12) . . .
132(11) . . .
148(12) . . .
144(12) . . .
145(12) . . .
119(11) . . .
125(11) . . .
132(11) . . .
149(12) . . .
133(12) . . .
123(11) . . .
136(12) . . .
127(11) . . .
117(11) . . .
135(12) . . .
116(11) . . .
126(11) . . .
115(11) . . .
112(11) . . .
114(11) . . .
121(11) . . .
109(10) . . .
145(12) . . .
121(11) . . .
113(11) . . .
123(11) . . .
116(11) . . .
101(10) . . .
102(10) . . .
102(10) . . .
100(10) . . .
110(10) . . .
112(11) . . .
125(11) . . .
132(11) . . .
127(11) . . .
104(10) . . .
115(11) . . .
92(10) . . .
116(11) . . .
90(9) . . .
107(10) . . .
96(10) . . .
105(10) . . .
110(10) . . .
114(11) . . .
96(10) . . .
112(11) . . .
107(10) . . .
121(11) . . .
111(11) . . .
107(10) . . .
96(10) . . .
117(11) . . .
112(11) . . .
105(10) . . .
104(10) . . .
118(11) . . .
101(10) . . .
105(10) . . .
111(11) . . .
89(9) . . .
118(11) . . .
113(11) . . .
105(10) . . .
112(11) . . .
104(10) . . .
90(9) . . .
92(10) . . .
108(10) . . .
117(11) . . .
83(9) . . .
84(9) . . .
96(10) . . .
115(11) . . .
109(10) . . .
103(10) . . .
103(10) . . .
88(9) . . .
104(10) . . .
116(11) . . .
103(10) . . .
86(9) . . .
95(10) . . .
111(11) . . .
81(9) . . .
101(10) . . .
79(9) . . .
92(10) . . .
91(10) . . .
105(10) . . .
116(11) . . .
93(10) . . .
110(10) . . .
99(10) . . .
103(10) . . .
100(10) . . .
88(9) . . .
97(10) . . .
86(9) . . .
100(10) . . .
94(10) . . .
95(10) . . .
87(9) . . .
86(9) . . .
120(11) . . .
85(9) . . .
92(10) . . .
100(10) . . .
77(9) . . .
83(9) . . .
88(9) . . .
88(9) . . .
95(10) . . .
86(9) . . .
94(10) . . .
108(10) . . .
74(9) . . .
91(10) . . .
81(9) . . .
93(10) . . .
104(10) . . .
98(10) . . .
110(10) . . .
101(10) . . .
100(10) . . .
106(10) . . .
92(10) . . .
99(10) . . .
94(10) . . .
108(10) . . .
103(10) . . .
92(10) . . .
80(9) . . .
103(10) . . .
84(9) . . .
89(9) . . .
99(10) . . .
90(9) . . .
111(11) . . .
91(10) . . .
88(9) . . .
101(10) . . .
86(9) . . .
88(9) . . .
80(9) . . .
99(10) . . .
111(11) . . .
105(10) . . .
96(10) . . .
89(9) . . .
98(10) . . .
100(10) . . .
105(10) . . .
89(9) . . .
94(10) . . .
100(10) . . .
85(9) . . .
95(10) . . .
81(9) . . .
79(9) . . .
91(10) . . .
93(10) . . .
109(10) . . .
90(9) . . .
92(10) . . .
97(10) . . .
93(10) . . .
90(9) . . .
108(10) . . .
102(10) . . .
88(9) . . .
88(9) . . .
93(10) . . .
96(10) . . .
107(10) . . .
105(10) . . .
92(10) . . .
88(9) . . .
91(10) . . .
97(10) . . .
86(9) . . .
95(10) . . .
69(8) . . .
93(10) . . .
93(10) . . .
95(10) . . .
81(9) . . .
93(10) . . .
103(10) . . .
93(10) . . .
85(9) . . .
106(10) . . .
97(10) . . .
89(9) . . .
91(10) . . .
83(9) . . .
107(10) . . .
88(9) . . .
98(10) . . .
99(10) . . .
100(10) . . .
87(9) . . .
85(9) . . .
93(10) . . .
94(10) . . .
81(9) . . .
117(11) . . .
78(9) . . .
106(10) . . .
98(10) . . .
84(9) . . .
88(9) . . .
93(10) . . .
102(10) . . .
111(11) . . .
86(9) . . .
107(10) . . .
104(10) . . .
84(9) . . .
99(10) . . .
93(10) . . .
91(10) . . .
92(10) . . .
96(10) . . .
103(10) . . .
87(9) . . .
88(9) . . .
83(9) . . .
95(10) . . .
91(10) . . .
99(10) . . .
99(10) . . .
90(9) . . .
94(10) . . .
114(11) . . .
98(10) . . .
102(10) . . .
103(10) . . .
104(10) . . .
102(10) . . .
100(10) . . .
101(10) . . .
91(10) . . .
100(10) . . .
101(10) . . .
98(10) . . .
95(10) . . .
97(10) . . .
91(10) . . .
73(9) . . .
90(9) . . .
85(9) . . .
98(10) . . .
97(10) . . .
83(9) . . .
106(10) . . .
101(10) . . .
86(9) . . .
100(10) . . .
78(9) . . .
88(9) . . .
85(9) . . .
89(9) . . .
80(9) . . .
85(9) . . .
91(10) . . .
84(9) . . .
92(10) . . .
82(9) . . .
91(10) . . .
87(9) . . .
100(10) . . .
93(10) . . .
104(10) . . .
87(9) . . .
69(8) . . .
80(9) . . .
86(9) . . .
95(10) . . .
103(10) . . .
96(10) . . .
94(10) . . .
86(9) . . .
99(10) . . .
93(10) . . .
93(10) . . .
83(9) . . .
82(9) . . .
106(10) . . .
93(10) . . .
79(9) . . .
108(10) . . .
84(9) . . .
90(9) . . .
87(9) . . .
97(10) . . .
98(10) . . .
84(9) . . .
99(10) . . .
83(9) . . .
80(9) . . .
93(10) . . .
86(9) . . .
100(10) . . .
100(10) . . .
104(10) . . .
102(10) . . .
111(11) . . .
95(10) . . .
97(10) . . .
86(9) . . .
93(10) . . .
113(11) . . .
80(9) . . .
96(10) . . .
91(10) . . .
90(9) . . .
104(10) . . .
79(9) . . .
83(9) . . .
96(10) . . .
92(10) . . .
110(10) . . .
105(10) . . .
78(9) . . .
78(9) . . .
107(10) . . .
103(10) . . .
90(9) . . .
86(9) . . .
84(9) . . .
86(9) . . .
91(10) . . .
93(10) . . .
85(9) . . .
99(10) . . .
98(10) . . .
77(9) . . .
93(10) . . .
85(9) . . .
98(10) . . .
101(10) . . .
100(10) . . .
100(10) . . .
99(10) . . .
89(9) . . .
90(9) . . .
89(9) . . .
97(10) . . .
94(10) . . .
96(10) . . .
77(9) . . .
83(9) . . .
83(9) . . .
83(9) . . .
90(9) . . .
90(9) . . .
86(9) . . .
103(10) . . .
84(9) . . .
97(10) . . .
93(10) . . .
85(9) . . .
94(10) . . .
91(10) . . .
99(10) . . .
103(10) . . .
105(10) . . .
95(10) . . .
89(9) . . .
81(9) . . .
79(9) . . .
93(10) . . .
94(10) . . .
88(9) . . .
86(9) . . .
85(9) . . .
70(8) . . .
89(9) . . .
87(9) . . .
93(10) . . .
84(9) . . .
76(9) . . .
95(10) . . .
99(10) . . .
91(10) . . .
100(10) . . .
85(9) . . .
91(10) . . .
82(9) . . .
109(10) . . .
87(9) . . .
91(10) . . .
85(9) . . .
87(9) . . .
76(9) . . .
80(9) . . .
87(9) . . .
82(9) . . .
97(10) . . .
89(9) . . .
88(9) . . .
81(9) . . .
94(10) . . .
97(10) . . .
73(9) . . .
83(9) . . .
96(10) . . .
90(9) . . .
95(10) . . .
104(10) . . .
82(9) . . .
90(9) . . .
79(9) . . .
86(9) . . .
84(9) . . .
83(9) . . .
89(9) . . .
91(10) . . .
92(10) . . .
75(9) . . .
98(10) . . .
86(9) . . .
85(9) . . .
87(9) . . .
83(9) . . .
87(9) . . .
80(9) . . .
83(9) . . .
80(9) . . .
93(10) . . .
92(10) . . .
79(9) . . .
79(9) . . .
92(10) . . .
91(10) . . .
79(9) . . .
81(9) . . .
102(10) . . .
97(10) . . .
99(10) . . .
105(10) . . .
92(10) . . .
82(9) . . .
96(10) . . .
93(10) . . .
89(9) . . .
88(9) . . .
80(9) . . .
96(10) . . .
85(9) . . .
106(10) . . .
102(10) . . .
101(10) . . .
80(9) . . .
90(9) . . .
91(10) . . .
97(10) . . .
85(9) . . .
85(9) . . .
97(10) . . .
90(9) . . .
77(9) . . .
76(9) . . .
91(10) . . .
92(10) . . .
81(9) . . .
83(9) . . .
91(10) . . .
88(9) . . .
88(9) . . .
87(9) . . .
103(10) . . .
102(10) . . .
88(9) . . .
102(10) . . .
91(10) . . .
96(10) . . .
76(9) . . .
86(9) . . .
83(9) . . .
81(9) . . .
75(9) . . .
103(10) . . .
105(10) . . .
96(10) . . .
96(10) . . .
82(9) . . .
86(9) . . .
101(10) . . .
99(10) . . .
91(10) . . .
82(9) . . .
83(9) . . .
90(9) . . .
100(10) . . .
88(9) . . .
90(9) . . .
76(9) . . .
97(10) . . .
94(10) . . .
109(10) . . .
97(10) . . .
90(9) . . .
89(9) . . .
87(9) . . .
89(9) . . .
102(10) . . .
94(10) . . .
81(9) . . .
83(9) . . .
83(9) . . .
96(10) . . .
97(10) . . .
92(10) . . .
88(9) . . .
92(10) . . .
94(10) . . .
89(9) . . .
93(10) . . .
95(10) . . .
78(9) . . .
79(9) . . .
94(10) . . .
73(9) . . .
98(10) . . .
80(9) . . .
81(9) . . .
82(9) . . .
103(10) . . .
97(10) . . .
85(9) . . .
104(10) . . .
98(10) . . .
88(9) . . .
83(9) . . .
80(9) . . .
91(10) . . .
112(11) . . .
77(9) . . .
88(9) . . .
97(10) . . .
85(9) . . .
83(9) . . .
85(9) . . .
99(10) . . .
93(10) . . .
104(10) . . .
113(11) . . .
76(9) . . .
72(8) . . .
96(10) . . .
91(10) . . .
94(10) . . .
108(10) . . .
86(9) . . .
98(10) . . .
97(10) . . .
99(10) . . .
85(9) . . .
91(10) . . .
93(10) . . .
82(9) . . .
96(10) . . .
90(9) . . .
92(10) . . .
72(8) . . .
85(9) . . .
84(9) . . .
100(10) . . .
85(9) . . .
104(10) . . .
83(9) . . .
97(10) . . .
78(9) . . .
80(9) . . .
112(11) . . .
88(9) . . .
97(10) . . .
83(9) . . .
89(9) . . .
99(10) . . .
91(10) . . .
86(9) . . .
91(10) . . .
82(9) . . .
78(9) . . .
95(10) . . .
96(10) . . .
85(9) . . .
83(9) . . .
101(10) . . .
89(9) . . .
81(9) . . .
96(10) . . .
92(10) . . .
82(9) . . .
89(9) . . .
81(9) . . .
85(9) . . .
94(10) . . .
87(9) . . .
82(9) . . .
79(9) . . .
88(9) . . .
90(9) . . .
99(10) . . .
87(9) . . .
89(9) . . .
95(10) . . .
78(9) . . .
83(9) . . .
87(9) . . .
79(9) . . .
95(10) . . .
109(10) . . .
108(10) . . .
99(10) . . .
82(9) . . .
99(10) . . .
100(10) . . .
78(9) . . .
84(9) . . .
86(9) . . .
92(10) . . .
80(9) . . .
82(9) . . .
85(9) . . .
88(9) . . .
90(9) . . .
92(10) . . .
94(10) . . .
88(9) . . .
89(9) . . .
99(10) . . .
88(9) . . .
89(9) . . .
84(9) . . .
88(9) . . .
85(9) . . .
79(9) . . .
89(9) . . .
92(10) . . .
79(9) . . .
86(9) . . .
86(9) . . .
89(9) . . .
76(9) . . .
77(9) . . .
84(9) . . .
85(9) . . .
79(9) . . .
87(9) . . .
88(9) . . .
93(10) . . .
93(10) . . .
87(9) . . .
89(9) . . .
83(9) . . .
81(9) . . .
82(9) . . .
79(9) . . .
77(9) . . .
79(9) . . .
79(9) . . .
83(9) . . .
95(10) . . .
84(9) . . .
95(10) . . .
93(10) . . .
88(9) . . .
98(10) . . .
93(10) . . .
83(9) . . .
96(10) . . .
96(10) . . .
69(8) . . .
80(9) . . .
91(10) . . .
96(10) . . .
97(10) . . .
90(9) . . .
87(9) . . .
85(9) . . .
92(10) . . .
104(10) . . .
91(10) . . .
83(9) . . .
80(9) . . .
92(10) . . .
86(9) . . .
84(9) . . .
85(9) . . .
100(10) . . .
86(9) . . .
85(9) . . .
100(10) . . .
90(9) . . .
74(9) . . .
92(10) . . .
77(9) . . .
100(10) . . .
88(9) . . .
80(9) . . .
89(9) . . .
91(10) . . .
77(9) . . .
82(9) . . .
94(10) . . .
81(9) . . .
90(9) . . .
88(9) . . .
110(10) . . .
80(9) . . .
94(10) . . .
90(9) . . .
83(9) . . .
86(9) . . .
85(9) . . .
79(9) . . .
92(10) . . .
102(10) . . .
79(9) . . .
85(9) . . .
87(9) . . .
80(9) . . .
84(9) . . .
107(10) . . .
95(10) . . .
88(9) . . .
77(9) . . .
90(9) . . .
85(9) . . .
94(10) . . .
74(9) . . .
82(9) . . .
98(10) . . .
92(10) . . .
100(10) . . .
82(9) . . .
80(9) . . .
77(9) . . .
89(9) . . .
83(9) . . .
85(9) . . .
92(10) . . .
84(9) . . .
85(9) . . .
95(10) . . .
73(9) . . .
94(10) . . .
86(9) . . .
95(10) . . .
93(10) . . .
95(10) . . .
92(10) . . .
74(9) . . .
77(9) . . .
74(9) . . .
92(10) . . .
81(9) . . .
92(10) . . .
94(10) . . .
91(10) . . .
86(9) . . .
88(9) . . .
98(10) . . .
83(9) . . .
82(9) . . .
109(10) . . .
80(9) . . .
88(9) . . .
81(9) . . .
110(10) . . .
72(8) . . .
92(10) . . .
91(10) . . .
106(10) . . .
90(9) . . .
94(10) . . .
76(9) . . .
90(9) . . .
89(9) . . .
83(9) . . .
105(10) . . .
102(10) . . .
90(9) . . .
97(10) . . .
87(9) . . .
83(9) . . .
87(9) . . .
70(8) . . .
73(9) . . .
96(10) . . .
76(9) . . .
95(10) . . .
87(9) . . .
86(9) . . .
90(9) . . .
87(9) . . .
82(9) . . .
82(9) . . .
95(10) . . .
95(10) . . .
85(9) . . .
91(10) . . .
93(10) . . .
88(9) . . .
77(9) . . .
86(9) . . .
71(8) . . .
72(8) . . .
77(9) . . .
94(10) . . .
85(9) . . .
92(10) . . .
91(10) . . .
76(9) . . .
88(9) . . .
87(9) . . .
85(9) . . .
84(9) . . .
74(9) . . .
84(9) . . .
89(9) . . .
73(9) . . .
73(9) . . .
86(9) . . .
94(10) . . .
78(9) . . .
100(10) . . .
85(9) . . .
74(9) . . .
78(9) . . .
90(9) . . .
83(9) . . .
90(9) . . .
86(9) . . .
81(9) . . .
78(9) . . .
80(9) . . .
84(9) . . .
81(9) . . .
101(10) . . .
99(10) . . .
90(9) . . .
65(8) . . .
80(9) . . .
86(9) . . .
83(9) . . .
94(10) . . .
86(9) . . .
87(9) . . .
93(10) . . .
80(9) . . .
83(9) . . .
80(9) . . .
90(9) . . .
77(9) . . .
95(10) . . .
82(9) . . .
82(9) . . .
73(9) . . .
80(9) . . .
82(9) . . .
106(10) . . .
75(9) . . .
93(10) . . .
97(10) . . .
84(9) . . .
104(10) . . .
90(9) . . .
93(10) . . .
95(10) . . .
102(10) . . .
81(9) . . .
78(9) . . .
91(10) . . .
86(9) . . .
83(9) . . .
91(10) . . .
86(9) . . .
96(10) . . .
78(9) . . .
87(9) . . .
76(9) . . .
79(9) . . .
91(10) . . .
89(9) . . .
83(9) . . .
70(8) . . .
79(9) . . .
82(9) . . .
91(10) . . .
87(9) . . .
76(9) . . .
82(9) . . .
87(9) . . .
87(9) . . .
89(9) . . .
72(8) . . .
87(9) . . .
82(9) . . .
84(9) . . .
81(9) . . .
91(10) . . .
87(9) . . .
73(9) . . .
84(9) . . .
95(10) . . .
81(9) . . .
80(9) . . .
91(10) . . .
83(9) . . .
79(9) . . .
96(10) . . .
96(10) . . .
103(10) . . .
79(9) . . .
83(9) . . .
80(9) . . .
87(9) . . .
101(10) . . .
94(10) . . .
82(9) . . .
74(9) . . .
88(9) . . .
67(8) . . .
80(9) . . .
79(9) . . .
80(9) . . .
83(9) . . .
95(10) . . .
101(10) . . .
92(10) . . .
86(9) . . .
95(10) . . .
75(9) . . .
83(9) . . .
79(9) . . .
94(10) . . .
94(10) . . .
81(9) . . .
92(10) . . .
90(9) . . .
84(9) . . .
72(8) . . .
79(9) . . .
85(9) . . .
85(9) . . .
102(10) . . .
101(10) . . .
94(10) . . .
100(10) . . .
92(10) . . .
69(8) . . .
89(9) . . .
75(9) . . .
79(9) . . .
92(10) . . .
88(9) . . .
93(10) . . .
97(10) . . .
78(9) . . .
77(9) . . .
83(9) . . .
75(9) . . .
88(9) . . .
72(8) . . .
72(8) . . .
80(9) . . .
83(9) . . .
80(9) . . .
88(9) . . .
78(9) . . .
89(9) . . .
93(10) . . .
81(9) . . .
86(9) . . .
107(10) . . .
92(10) . . .
90(9) . . .
81(9) . . .
81(9) . . .
80(9) . . .
79(9) . . .
86(9) . . .
101(10) . . .
80(9) . . .
84(9) . . .
73(9) . . .
79(9) . . .
103(10) . . .
89(9) . . .
72(8) . . .
72(8) . . .
96(10) . . .
81(9) . . .
71(8) . . .
75(9) . . .
85(9) . . .
81(9) . . .
71(8) . . .
76(9) . . .
89(9) . . .
82(9) . . .
89(9) . . .
104(10) . . .
110(10) . . .
90(9) . . .
78(9) . . .
83(9) . . .
101(10) . . .
95(10) . . .
102(10) . . .
76(9) . . .
94(10) . . .
83(9) . . .
84(9) . . .
73(9) . . .
87(9) . . .
89(9) . . .
84(9) . . .
88(9) . . .
85(9) . . .
84(9) . . .
80(9) . . .
71(8) . . .
73(9) . . .
81(9) . . .
80(9) . . .
87(9) . . .
88(9) . . .
91(10) . . .
82(9) . . .
82(9) . . .
93(10) . . .
83(9) . . .
68(8) . . .
80(9) . . .
79(9) . . .
104(10) . . .
83(9) . . .
89(9) . . .
69(8) . . .
78(9) . . .
87(9) . . .
77(9) . . .
69(8) . . .
96(10) . . .
74(9) . . .
71(8) . . .
84(9) . . .
68(8) . . .
77(9) . . .
82(9) . . .
81(9) . . .
84(9) . . .
76(9) . . .
79(9) . . .
71(8) . . .
95(10) . . .
88(9) . . .
92(10) . . .
93(10) . . .
85(9) . . .
75(9) . . .
87(9) . . .
74(9) . . .
84(9) . . .
96(10) . . .
81(9) . . .
81(9) . . .
88(9) . . .
87(9) . . .
92(10) . . .
71(8) . . .
75(9) . . .
88(9) . . .
85(9) . . .
91(10) . . .
81(9) . . .
81(9) . . .
70(8) . . .
102(10) . . .
82(9) . . .
76(9) . . .
79(9) . . .
79(9) . . .
105(10) . . .
85(9) . . .
89(9) . . .
82(9) . . .
78(9) . . .
99(10) . . .
76(9) . . .
94(10) . . .
85(9) . . .
89(9) . . .
73(9) . . .
79(9) . . .
90(9) . . .
92(10) . . .
90(9) . . .
89(9) . . .
87(9) . . .
82(9) . . .
82(9) . . .
85(9) . . .
86(9) . . .
87(9) . . .
106(10) . . .
86(9) . . .
93(10) . . .
92(10) . . .
80(9) . . .
70(8) . . .
91(10) . . .
86(9) . . .
87(9) . . .
91(10) . . .
81(9) . . .
76(9) . . .
93(10) . . .
102(10) . . .
89(9) . . .
82(9) . . .
92(10) . . .
66(8) . . .
90(9) . . .
103(10) . . .
95(10) . . .
76(9) . . .
68(8) . . .
84(9) . . .
77(9) . . .
85(9) . . .
76(9) . . .
85(9) . . .
76(9) . . .
86(9) . . .
86(9) . . .
72(8) . . .
76(9) . . .
80(9) . . .
83(9) . . .
79(9) . . .
92(10) . . .
82(9) . . .
94(10) . . .
82(9) . . .
104(10) . . .
77(9) . . .
91(10) . . .
81(9) . . .
89(9) . . .
91(10) . . .
88(9) . . .
99(10) . . .
77(9) . . .
95(10) . . .
73(9) . . .
81(9) . . .
86(9) . . .
59(8) . . .
81(9) . . .
95(10) . . .
91(10) . . .
79(9) . . .
98(10) . . .
94(10) . . .
72(8) . . .
85(9) . . .
94(10) . . .
95(10) . . .
86(9) . . .
95(10) . . .
77(9) . . .
84(9) . . .
79(9) . . .
105(10) . . .
96(10) . . .
95(10) . . .
82(9) . . .
87(9) . . .
83(9) . . .
90(9) . . .
81(9) . . .
85(9) . . .
94(10) . . .
63(8) . . .
86(9) . . .
72(8) . . .
87(9) . . .
91(10) . . .
87(9) . . .
81(9) . . .
92(10) . . .
80(9) . . .
93(10) . . .
78(9) . . .
92(10) . . .
68(8) . . .
84(9) . . .
87(9) . . .
96(10) . . .
88(9) . . .
90(9) . . .
93(10) . . .
74(9) . . .
79(9) . . .
84(9) . . .
90(9) . . .
84(9) . . .
96(10) . . .
89(9) . . .
85(9) . . .
84(9) . . .
76(9) . . .
79(9) . . .
85(9) . . .
70(8) . . .
71(8) . . .
93(10) . . .
87(9) . . .
79(9) . . .
89(9) . . .
75(9) . . .
81(9) . . .
95(10) . . .
88(9) . . .
72(8) . . .
95(10) . . .
78(9) . . .
95(10) . . .
85(9) . . .
80(9) . . .
75(9) . . .
100(10) . . .
81(9) . . .
103(10) . . .
91(10) . . .
93(10) . . .
86(9) . . .
88(9) . . .
82(9) . . .
73(9) . . .
87(9) . . .
87(9) . . .
91(10) . . .
88(9) . . .
88(9) . . .
91(10) . . .
85(9) . . .
89(9) . . .
80(9) . . .
92(10) . . .
75(9) . . .
76(9) . . .
96(10) . . .
85(9) . . .
90(9) . . .
89(9) . . .
80(9) . . .
66(8) . . .
71(8) . . .
81(9) . . .
86(9) . . .
87(9) . . .
83(9) . . .
89(9) . . .
80(9) . . .
95(10) . . .
94(10) . . .
84(9) . . .
90(9) . . .
91(10) . . .
81(9) . . .
97(10) . . .
73(9) . . .
91(10) . . .
87(9) . . .
80(9) . . .
76(9) . . .
77(9) . . .
78(9) . . .
93(10) . . .
79(9) . . .
91(10) . . .
82(9) . . .
91(10) . . .
82(9) . . .
80(9) . . .
82(9) . . .
82(9) . . .
74(9) . . .
86(9) . . .
70(8) . . .
82(9) . . .
92(10) . . .
90(9) . . .
91(10) . . .
78(9) . . .
77(9) . . .
98(10) . . .
85(9) . . .
82(9) . . .
91(10) . . .
84(9) . . .
91(10) . . .
86(9) . . .
79(9) . . .
77(9) . . .
89(9) . . .
96(10) . . .
92(10) . . .
91(10) . . .
76(9) . . .
84(9) . . .
99(10) . . .
77(9) . . .
94(10) . . .
66(8) . . .
75(9) . . .
86(9) . . .
74(9) . . .
87(9) . . .
91(10) . . .
79(9) . . .
99(10) . . .
91(10) . . .
84(9) . . .
81(9) . . .
84(9) . . .
76(9) . . .
86(9) . . .
81(9) . . .
74(9) . . .
90(9) . . .
78(9) . . .
95(10) . . .
77(9) . . .
91(10) . . .
84(9) . . .
69(8) . . .
102(10) . . .
85(9) . . .
72(8) . . .
77(9) . . .
78(9) . . .
76(9) . . .
71(8) . . .
75(9) . . .
79(9) . . .
90(9) . . .
73(9) . . .
74(9) . . .
76(9) . . .
88(9) . . .
77(9) . . .
83(9) . . .
87(9) . . .
81(9) . . .
84(9) . . .
82(9) . . .
81(9) . . .
69(8) . . .
81(9) . . .
72(8) . . .
92(10) . . .
80(9) . . .
91(10) . . .
79(9) . . .
89(9) . . .
76(9) . . .
84(9) . . .
72(8) . . .
99(10) . . .
90(9) . . .
87(9) . . .
83(9) . . .
72(8) . . .
81(9) . . .
80(9) . . .
85(9) . . .
91(10) . . .
87(9) . . .
80(9) . . .
79(9) . . .
75(9) . . .
82(9) . . .
70(8) . . .
78(9) . . .
104(10) . . .
77(9) . . .
76(9) . . .
88(9) . . .
86(9) . . .
88(9) . . .
82(9) . . .
96(10) . . .
94(10) . . .
90(9) . . .
77(9) . . .
74(9) . . .
70(8) . . .
70(8) . . .
77(9) . . .
97(10) . . .
84(9) . . .
81(9) . . .
81(9) . . .
98(10) . . .
91(10) . . .
79(9) . . .
77(9) . . .
84(9) . . .
85(9) . . .
80(9) . . .
81(9) . . .
72(8) . . .
67(8) . . .
81(9) . . .
90(9) . . .
98(10) . . .
80(9) . . .
74(9) . . .
71(8) . . .
65(8) . . .
86(9) . . .
92(10) . . .
85(9) . . .
79(9) . . .
87(9) . . .
69(8) . . .
76(9) . . .
98(10) . . .
81(9) . . .
82(9) . . .
82(9) . . .
82(9) . . .
85(9) . . .
85(9) . . .
88(9) . . .
71(8) . . .
103(10) . . .
84(9) . . .
69(8) . . .
97(10) . . .
80(9) . . .
86(9) . . .
75(9) . . .
87(9) . . .
77(9) . . .
86(9) . . .
94(10) . . .
80(9) . . .
98(10) . . .
71(8) . . .
71(8) . . .
66(8) . . .
82(9) . . .
84(9) . . .
86(9) . . .
89(9) . . .
87(9) . . .
74(9) . . .
70(8) . . .
90(9) . . .
89(9) . . .
84(9) . . .
91(10) . . .
80(9) . . .
80(9) . . .
86(9) . . .
86(9) . . .
82(9) . . .
77(9) . . .
65(8) . . .
85(9) . . .
94(10) . . .
97(10) . . .
86(9) . . .
85(9) . . .
85(9) . . .
90(9) . . .
75(9) . . .
92(10) . . .
74(9) . . .
70(8) . . .
80(9) . . .
78(9) . . .
91(10) . . .
85(9) . . .
76(9) . . .
85(9) . . .
88(9) . . .
81(9) . . .
81(9) . . .
70(8) . . .
81(9) . . .
89(9) . . .
88(9) . . .
89(9) . . .
81(9) . . .
79(9) . . .
96(10) . . .
87(9) . . .
87(9) . . .
88(9) . . .
94(10) . . .
83(9) . . .
86(9) . . .
76(9) . . .
84(9) . . .
78(9) . . .
99(10) . . .
86(9) . . .
72(8) . . .
73(9) . . .
96(10) . . .
86(9) . . .
78(9) . . .
76(9) . . .
70(8) . . .
81(9) . . .
78(9) . . .
74(9) . . .
82(9) . . .
85(9) . . .
75(9) . . .
70(8) . . .
86(9) . . .
99(10) . . .
90(9) . . .
104(10) . . .
80(9) . . .
72(8) . . .
75(9) . . .
82(9) . . .
83(9) . . .
76(9) . . .
79(9) . . .
73(9) . . .
83(9) . . .
73(9) . . .
85(9) . . .
68(8) . . .
79(9) . . .
82(9) . . .
69(8) . . .
78(9) . . .
74(9) . . .
78(9) . . .
77(9) . . .
100(10) . . .
83(9) . . .
76(9) . . .
83(9) . . .
68(8) . . .
88(9) . . .
78(9) . . .
79(9) . . .
81(9) . . .
83(9) . . .
87(9) . . .
80(9) . . .
80(9) . . .
76(9) . . .
83(9) . . .
89(9) . . .
89(9) . . .
92(10) . . .
82(9) . . .
89(9) . . .
76(9) . . .
68(8) . . .
76(9) . . .
83(9) . . .
88(9) . . .
71(8) . . .
80(9) . . .
74(9) . . .
80(9) . . .
75(9) . . .
83(9) . . .
72(8) . . .
97(10) . . .
71(8) . . .
80(9) . . .
76(9) . . .
79(9) . . .
81(9) . . .
83(9) . . .
86(9) . . .
74(9) . . .
83(9) . . .
92(10) . . .
92(10) . . .
89(9) . . .
77(9) . . .
80(9) . . .
75(9) . . .
83(9) . . .
82(9) . . .
74(9) . . .
84(9) . . .
88(9) . . .
89(9) . . .
82(9) . . .
91(10) . . .
84(9) . . .
85(9) . . .
94(10) . . .
98(10) . . .
90(9) . . .
82(9) . . .
92(10) . . .
78(9) . . .
82(9) . . .
65(8) . . .
88(9) . . .
92(10) . . .
92(10) . . .
89(9) . . .
82(9) . . .
70(8) . . .
104(10) . . .
81(9) . . .
88(9) . . .
100(10) . . .
72(8) . . .
81(9) . . .
85(9) . . .
83(9) . . .
73(9) . . .
78(9) . . .
69(8) . . .
71(8) . . .
88(9) . . .
71(8) . . .
101(10) . . .
72(8) . . .
92(10) . . .
86(9) . . .
76(9) . . .
94(10) . . .
75(9) . . .
79(9) . . .
77(9) . . .
88(9) . . .
79(9) . . .
87(9) . . .
97(10) . . .
71(8) . . .
71(8) . . .
79(9) . . .
80(9) . . .
85(9) . . .
94(10) . . .
77(9) . . .
68(8) . . .
89(9) . . .
84(9) . . .
84(9) . . .
82(9) . . .
91(10) . . .
86(9) . . .
82(9) . . .
78(9) . . .
76(9) . . .
82(9) . . .
84(9) . . .
80(9) . . .
85(9) . . .
70(8) . . .
86(9) . . .
69(8) . . .
72(8) . . .
71(8) . . .
75(9) . . .
93(10) . . .
72(8) . . .
82(9) . . .
92(10) . . .
97(10) . . .
87(9) . . .
92(10) . . .
95(10) . . .
81(9) . . .
98(10) . . .
70(8) . . .
75(9) . . .
81(9) . . .
77(9) . . .
91(10) . . .
92(10) . . .
95(10) . . .
91(10) . . .
77(9) . . .
72(8) . . .
82(9) . . .
70(8) . . .
75(9) . . .
87(9) . . .
81(9) . . .
91(10) . . .
88(9) . . .
89(9) . . .
86(9) . . .
92(10) . . .
81(9) . . .
86(9) . . .
93(10) . . .
97(10) . . .
89(9) . . .
79(9) . . .
77(9) . . .
80(9) . . .
88(9) . . .
74(9) . . .
88(9) . . .
83(9) . . .
87(9) . . .
73(9) . . .
72(8) . . .
87(9) . . .
78(9) . . .
79(9) . . .
89(9) . . .
61(8) . . .
75(9) . . .
76(9) . . .
81(9) . . .
76(9) . . .
85(9) . . .
75(9) . . .
77(9) . . .
70(8) . . .
73(9) . . .
71(8) . . .
83(9) . . .
74(9) . . .
90(9) . . .
81(9) . . .
83(9) . . .
77(9) . . .
79(9) . . .
79(9) . . .
84(9) . . .
86(9) . . .
89(9) . . .
92(10) . . .
84(9) . . .
77(9) . . .
91(10) . . .
91(10) . . .
82(9) . . .
83(9) . . .
93(10) . . .
85(9) . . .
80(9) . . .
77(9) . . .
80(9) . . .
79(9) . . .
70(8) . . .
82(9) . . .
73(9) . . .
77(9) . . .
90(9) . . .
83(9) . . .
88(9) . . .
74(9) . . .
85(9) . . .
89(9) . . .
85(9) . . .
71(8) . . .
78(9) . . .
85(9) . . .
89(9) . . .
64(8) . . .
75(9) . . .
77(9) . . .
80(9) . . .
91(10) . . .
80(9) . . .
72(8) . . .
82(9) . . .
86(9) . . .
79(9) . . .
84(9) . . .
90(9) . . .
82(9) . . .
71(8) . . .
93(10) . . .
77(9) . . .
73(9) . . .
83(9) . . .
75(9) . . .
96(10) . . .
87(9) . . .
82(9) . . .
83(9) . . .
82(9) . . .
77(9) . . .
74(9) . . .
82(9) . . .
79(9) . . .
79(9) . . .
84(9) . . .
91(10) . . .
103(10) . . .
86(9) . . .
83(9) . . .
104(10) . . .
83(9) . . .
78(9) . . .
77(9) . . .
80(9) . . .
82(9) . . .
80(9) . . .
64(8) . . .
88(9) . . .
67(8) . . .
72(8) . . .
96(10) . . .
78(9) . . .
75(9) . . .
93(10) . . .
86(9) . . .
91(10) . . .
82(9) . . .
83(9) . . .
76(9) . . .
77(9) . . .
77(9) . . .
80(9) . . .
65(8) . . .
89(9) . . .
76(9) . . .
76(9) . . .
81(9) . . .
79(9) . . .
75(9) . . .
89(9) . . .
87(9) . . .
79(9) . . .
77(9) . . .
60(8) . . .
82(9) . . .
80(9) . . .
81(9) . . .
75(9) . . .
77(9) . . .
86(9) . . .
75(9) . . .
81(9) . . .
90(9) . . .
88(9) . . .
81(9) . . .
74(9) . . .
102(10) . . .
107(10) . . .
105(10) . . .
89(9) . . .
70(8) . . .
80(9) . . .
77(9) . . .
89(9) . . .
82(9) . . .
83(9) . . .
94(10) . . .
92(10) . . .
92(10) . . .
81(9) . . .
89(9) . . .
82(9) . . .
75(9) . . .
94(10) . . .
87(9) . . .
95(10) . . .
76(9) . . .
99(10) . . .
96(10) . . .
99(10) . . .
84(9) . . .
92(10) . . .
81(9) . . .
87(9) . . .
84(9) . . .
79(9) . . .
100(10) . . .
91(10) . . .
77(9) . . .
87(9) . . .
98(10) . . .
82(9) . . .
83(9) . . .
89(9) . . .
88(9) . . .
77(9) . . .
89(9) . . .
87(9) . . .
84(9) . . .
81(9) . . .
93(10) . . .
85(9) . . .
88(9) . . .
96(10) . . .
89(9) . . .
90(9) . . .
96(10) . . .
105(10) . . .
98(10) . . .
96(10) . . .
97(10) . . .
94(10) . . .
81(9) . . .
97(10) . . .
95(10) . . .
92(10) . . .
89(9) . . .
84(9) . . .
94(10) . . .
94(10) . . .
82(9) . . .
87(9) . . .
91(10) . . .
116(11) . . .
110(10) . . .
79(9) . . .
97(10) . . .
98(10) . . .
90(9) . . .
90(9) . . .
94(10) . . .
99(10) . . .
104(10) . . .
98(10) . . .
104(10) . . .
118(11) . . .
80(9) . . .
110(10) . . .
90(9) . . .
104(10) . . .
95(10) . . .
92(10) . . .
113(11) . . .
106(10) . . .
110(10) . . .
115(11) . . .
103(10) . . .
107(10) . . .
101(10) . . .
106(10) . . .
96(10) . . .
95(10) . . .
110(10) . . .
94(10) . . .
91(10) . . .
114(11) . . .
118(11) . . .
102(10) . . .
95(10) . . .
108(10) . . .
94(10) . . .
109(10) . . .
103(10) . . .
89(9) . . .
106(10) . . .
104(10) . . .
84(9) . . .
107(10) . . .
86(9) . . .
101(10) . . .
90(9) . . .
91(10) . . .
107(10) . . .
92(10) . . .
107(10) . . .
101(10) . . .
85(9) . . .
97(10) . . .
86(9) . . .
99(10) . . .
106(10) . . .
103(10) . . .
108(10) . . .
96(10) . . .
68(8) . . .
96(10) . . .
95(10) . . .
103(10) . . .
81(9) . . .
95(10) . . .
76(9) . . .
92(10) . . .
87(9) . . .
96(10) . . .
105(10) . . .
95(10) . . .
83(9) . . .
83(9) . . .
99(10) . . .
86(9) . . .
100(10) . . .
108(10) . . .
82(9) . . .
80(9) . . .
90(9) . . .
72(8) . . .
73(9) . . .
86(9) . . .
93(10) . . .
83(9) . . .
97(10) . . .
103(10) . . .
88(9) . . .
87(9) . . .
91(10) . . .
92(10) . . .
90(9) . . .
82(9) . . .
72(8) . . .
87(9) . . .
86(9) . . .
92(10) . . .
87(9) . . .
97(10) . . .
89(9) . . .
81(9) . . .
97(10) . . .
83(9) . . .
76(9) . . .
73(9) . . .
85(9) . . .
73(9) . . .
89(9) . . .
76(9) . . .
76(9) . . .
78(9) . . .
75(9) . . .
86(9) . . .
81(9) . . .
84(9) . . .
85(9) . . .
70(8) . . .
83(9) . . .
90(9) . . .
86(9) . . .
93(10) . . .
79(9) . . .
82(9) . . .
79(9) . . .
70(8) . . .
84(9) . . .
91(10) . . .
88(9) . . .
94(10) . . .
83(9) . . .
90(9) . . .
89(9) . . .
82(9) . . .
86(9) . . .
89(9) . . .
88(9) . . .
82(9) . . .
69(8) . . .
91(10) . . .
80(9) . . .
75(9) . . .
67(8) . . .
69(8) . . .
79(9) . . .
85(9) . . .
74(9) . . .
75(9) . . .
82(9) . . .
69(8) . . .
87(9) . . .
82(9) . . .
95(10) . . .
89(9) . . .
83(9) . . .
70(8) . . .
74(9) . . .
80(9) . . .
82(9) . . .
84(9) . . .
79(9) . . .
79(9) . . .
71(8) . . .
85(9) . . .
84(9) . . .
80(9) . . .
76(9) . . .
79(9) . . .
75(9) . . .
89(9) . . .
79(9) . . .
79(9) . . .
66(8) . . .
73(9) . . .
86(9) . . .
86(9) . . .
78(9) . . .
74(9) . . .
80(9) . . .
77(9) . . .
73(9) . . .
89(9) . . .
73(9) . . .
88(9) . . .
86(9) . . .
77(9) . . .
78(9) . . .
85(9) . . .
78(9) . . .
87(9) . . .
75(9) . . .
73(9) . . .
80(9) . . .
79(9) . . .
90(9) . . .
67(8) . . .
79(9) . . .
90(9) . . .
99(10) . . .
79(9) . . .
86(9) . . .
95(10) . . .
81(9) . . .
82(9) . . .
85(9) . . .
87(9) . . .
84(9) . . .
75(9) . . .
69(8) . . .
87(9) . . .
84(9) . . .
83(9) . . .
82(9) . . .
90(9) . . .
81(9) . . .
95(10) . . .
84(9) . . .
75(9) . . .
89(9) . . .
84(9) . . .
78(9) . . .
72(8) . . .
89(9) . . .
89(9) . . .
93(10) . . .
90(9) . . .
83(9) . . .
87(9) . . .
86(9) . . .
74(9) . . .
81(9) . . .
84(9) . . .
79(9) . . .
66(8) . . .
71(8) . . .
83(9) . . .
93(10) . . .
85(9) . . .
85(9) . . .
75(9) . . .
83(9) . . .
97(10) . . .
96(10) . . .
90(9) . . .
74(9) . . .
83(9) . . .
85(9) . . .
95(10) . . .
71(8) . . .
93(10) . . .
99(10) . . .
87(9) . . .
83(9) . . .
77(9) . . .
72(8) . . .
80(9) . . .
89(9) . . .
84(9) . . .
82(9) . . .
77(9) . . .
69(8) . . .
74(9) . . .
84(9) . . .
70(8) . . .
77(9) . . .
92(10) . . .
88(9) . . .
82(9) . . .
78(9) . . .
82(9) . . .
82(9) . . .
82(9) . . .
73(9) . . .
87(9) . . .
81(9) . . .
68(8) . . .
95(10) . . .
74(9) . . .
74(9) . . .
86(9) . . .
72(8) . . .
83(9) . . .
85(9) . . .
82(9) . . .
75(9) . . .
88(9) . . .
84(9) . . .
90(9) . . .
85(9) . . .
69(8) . . .
95(10) . . .
82(9) . . .
79(9) . . .
86(9) . . .
74(9) . . .
84(9) . . .
85(9) . . .
86(9) . . .
80(9) . . .
97(10) . . .
89(9) . . .
87(9) . . .
83(9) . . .
68(8) . . .
86(9) . . .
81(9) . . .
78(9) . . .
93(10) . . .
83(9) . . .
84(9) . . .
84(9) . . .
84(9) . . .
70(8) . . .
83(9) . . .
93(10) . . .
88(9) . . .
76(9) . . .
86(9) . . .
75(9) . . .
80(9) . . .
79(9) . . .
91(10) . . .
77(9) . . .
81(9) . . .
83(9) . . .
76(9) . . .
74(9) . . .
98(10) . . .
73(9) . . .
93(10) . . .
89(9) . . .
81(9) . . .
82(9) . . .
72(8) . . .
70(8) . . .
103(10) . . .
85(9) . . .
88(9) . . .
93(10) . . .
82(9) . . .
71(8) . . .
79(9) . . .
85(9) . . .
63(8) . . .
83(9) . . .
74(9) . . .
76(9) . . .
74(9) . . .
90(9) . . .
88(9) . . .
74(9) . . .
83(9) . . .
72(8) . . .
91(10) . . .
87(9) . . .
70(8) . . .
68(8) . . .
78(9) . . .
89(9) . . .
84(9) . . .
78(9) . . .
86(9) . . .
87(9) . . .
74(9) . . .
82(9) . . .
79(9) . . .
76(9) . . .
93(10) . . .
78(9) . . .
84(9) . . .
89(9) . . .
82(9) . . .
79(9) . . .
86(9) . . .
76(9) . . .
73(9) . . .
76(9) . . .
75(9) . . .
64(8) . . .
67(8) . . .
70(8) . . .
69(8) . . .
75(9) . . .
71(8) . . .
94(10) . . .
80(9) . . .
88(9) . . .
80(9) . . .
74(9) . . .
83(9) . . .
70(8) . . .
74(9) . . .
76(9) . . .
74(9) . . .
90(9) . . .
71(8) . . .
87(9) . . .
78(9) . . .
79(9) . . .
63(8) . . .
74(9) . . .
84(9) . . .
95(10) . . .
65(8) . . .
72(8) . . .
78(9) . . .
84(9) . . .
73(9) . . .
84(9) . . .
79(9) . . .
91(10) . . .
86(9) . . .
90(9) . . .
69(8) . . .
93(10) . . .
74(9) . . .
77(9) . . .
78(9) . . .
93(10) . . .
73(9) . . .
71(8) . . .
80(9) . . .
73(9) . . .
83(9) . . .
77(9) . . .
73(9) . . .
86(9) . . .
92(10) . . .
86(9) . . .
79(9) . . .
80(9) . . .
85(9) . . .
73(9) . . .
82(9) . . .
86(9) . . .
74(9) . . .
76(9) . . .
85(9) . . .
97(10) . . .
65(8) . . .
81(9) . . .
73(9) . . .
69(8) . . .
71(8) . . .
74(9) . . .
79(9) . . .
79(9) . . .
82(9) . . .
82(9) . . .
74(9) . . .
83(9) . . .
77(9) . . .
73(9) . . .
85(9) . . .
70(8) . . .
81(9) . . .
95(10) . . .
74(9) . . .
72(8) . . .
88(9) . . .
84(9) . . .
86(9) . . .
85(9) . . .
81(9) . . .
84(9) . . .
87(9) . . .
75(9) . . .
88(9) . . .
77(9) . . .
76(9) . . .
76(9) . . .
82(9) . . .
72(8) . . .
77(9) . . .
70(8) . . .
101(10) . . .
84(9) . . .
85(9) . . .
93(10) . . .
82(9) . . .
84(9) . . .
84(9) . . .
100(10) . . .
79(9) . . .
79(9) . . .
72(8) . . .
69(8) . . .
85(9) . . .
84(9) . . .
82(9) . . .
87(9) . . .
78(9) . . .
79(9) . . .
77(9) . . .
74(9) . . .
79(9) . . .
85(9) . . .
98(10) . . .
82(9) . . .
88(9) . . .
78(9) . . .
78(9) . . .
70(8) . . .
79(9) . . .
82(9) . . .
81(9) . . .
80(9) . . .
106(10) . . .
82(9) . . .
78(9) . . .
80(9) . . .
86(9) . . .
69(8) . . .
78(9) . . .
78(9) . . .
64(8) . . .
82(9) . . .
82(9) . . .
73(9) . . .
78(9) . . .
78(9) . . .
89(9) . . .
70(8) . . .
73(9) . . .
71(8) . . .
80(9) . . .
92(10) . . .
81(9) . . .
85(9) . . .
82(9) . . .
80(9) . . .
87(9) . . .
69(8) . . .
74(9) . . .
62(8) . . .
71(8) . . .
73(9) . . .
91(10) . . .
79(9) . . .
86(9) . . .
84(9) . . .
87(9) . . .
69(8) . . .
82(9) . . .
89(9) . . .
76(9) . . .
85(9) . . .
87(9) . . .
77(9) . . .
102(10) . . .
75(9) . . .
81(9) . . .
75(9) . . .
73(9) . . .
82(9) . . .
84(9) . . .
93(10) . . .
68(8) . . .
97(10) . . .
77(9) . . .
77(9) . . .
72(8) . . .
77(9) . . .
81(9) . . .
72(8) . . .
76(9) . . .
64(8) . . .
83(9) . . .
89(9) . . .
79(9) . . .
82(9) . . .
70(8) . . .
74(9) . . .
93(10) . . .
78(9) . . .
79(9) . . .
77(9) . . .
78(9) . . .
85(9) . . .
92(10) . . .
83(9) . . .
87(9) . . .
88(9) . . .
76(9) . . .
92(10) . . .
79(9) . . .
90(9) . . .
78(9) . . .
71(8) . . .
75(9) . . .
79(9) . . .
68(8) . . .
85(9) . . .
86(9) . . .
66(8) . . .
86(9) . . .
91(10) . . .
86(9) . . .
72(8) . . .
83(9) . . .
72(8) . . .
78(9) . . .
83(9) . . .
70(8) . . .
92(10) . . .
96(10) . . .
82(9) . . .
80(9) . . .
74(9) . . .
76(9) . . .
82(9) . . .
81(9) . . .
80(9) . . .
77(9) . . .
70(8) . . .
76(9) . . .
77(9) . . .
78(9) . . .
78(9) . . .
72(8) . . .
75(9) . . .
78(9) . . .
84(9) . . .
73(9) . . .
89(9) . . .
76(9) . . .
77(9) . . .
69(8) . . .
69(8) . . .
82(9) . . .
80(9) . . .
73(9) . . .
74(9) . . .
90(9) . . .
79(9) . . .
85(9) . . .
87(9) . . .
71(8) . . .
88(9) . . .
80(9) . . .
64(8) . . .
85(9) . . .
86(9) . . .
76(9) . . .
79(9) . . .
82(9) . . .
67(8) . . .
82(9) . . .
79(9) . . .
73(9) . . .
75(9) . . .
79(9) . . .
79(9) . . .
92(10) . . .
67(8) . . .
82(9) . . .
76(9) . . .
64(8) . . .
79(9) . . .
77(9) . . .
72(8) . . .
84(9) . . .
82(9) . . .
75(9) . . .
69(8) . . .
77(9) . . .
90(9) . . .
88(9) . . .
81(9) . . .
77(9) . . .
91(10) . . .
85(9) . . .
71(8) . . .
67(8) . . .
74(9) . . .
79(9) . . .
87(9) . . .
76(9) . . .
74(9) . . .
87(9) . . .
87(9) . . .
77(9) . . .
83(9) . . .
69(8) . . .
80(9) . . .
80(9) . . .
91(10) . . .
64(8) . . .
88(9) . . .
91(10) . . .
74(9) . . .
82(9) . . .
83(9) . . .
99(10) . . .
77(9) . . .
91(10) . . .
85(9) . . .
69(8) . . .
77(9) . . .
71(8) . . .
73(9) . . .
75(9) . . .
74(9) . . .
76(9) . . .
78(9) . . .
74(9) . . .
89(9) . . .
80(9) . . .
80(9) . . .
71(8) . . .
84(9) . . .
85(9) . . .
86(9) . . .
74(9) . . .
73(9) . . .
93(10) . . .
90(9) . . .
82(9) . . .
88(9) . . .
80(9) . . .
80(9) . . .
69(8) . . .
80(9) . . .
73(9) . . .
83(9) . . .
71(8) . . .
69(8) . . .
72(8) . . .
86(9) . . .
71(8) . . .
67(8) . . .
91(10) . . .
84(9) . . .
69(8) . . .
87(9) . . .
79(9) . . .
80(9) . . .
82(9) . . .
86(9) . . .
85(9) . . .
77(9) . . .
80(9) . . .
79(9) . . .
87(9) . . .
87(9) . . .
92(10) . . .
84(9) . . .
97(10) . . .
79(9) . . .
75(9) . . .
74(9) . . .
19(4) . . .
0.00(10) . . .
0.00(10) . . .
0.00(10) . . .
0.0(10) . . .
loop_
_refln_index_h
_refln_index_k
_refln_index_l
_refln_observed_status
_refln_F_squared_meas
_refln_F_squared_calc
_refln_phase_calc
_refln_d_spacing
_gsas_i100_meas
0 2 0 o 1515.352 1488.145 180.00 8.20103 5.80
0 0 2 o 106.744 171.317 180.00 6.59151 0.26
1 0 1 o 13263.331 13202.408 0.00 5.87587 52.17
0 3 1 o 1352.845 1455.454 180.00 5.05026 3.93
0 2 2 o 33239.195 32645.006 0.00 5.13771 100.00
0 1 3 o 0.033 0.020 180.00 4.24464 0.00
1 1 2 o 3929.671 3840.840 0.00 4.47469 17.95
0 4 0 o 2546.585 1438.160 0.00 4.10052 2.44
1 2 1 o 1726.045 1787.661 0.00 4.77643 8.98
1 0 3 o 184.649 184.985 180.00 3.65159 0.28
0 0 4 o 174.986 241.992 180.00 3.29576 0.11
1 2 3 o 714.226 844.421 0.00 3.33585 1.82
1 4 1 o 806.204 841.495 180.00 3.36266 2.08
0 3 3 o 12585.974 12858.754 0.00 3.42514 16.87
0 2 4 o 1326.023 1241.755 0.00 3.05806 1.42
0 5 1 o 37.129 31.277 180.00 3.18334 0.04
1 3 2 o 3646.541 3961.369 0.00 3.54264 10.46
0 4 2 o 4.546 13.365 0.00 3.48178 0.01
1 1 4 o 156.900 121.354 0.00 2.89897 0.30
2 0 0 o 2300.010 2255.346 180.00 3.28197 1.42
0 1 5 o 1794.965 1830.367 180.00 2.60319 1.39
0 6 0 o 2202.052 2100.427 0.00 2.73368 0.94
2 1 1 o 940.803 881.001 180.00 3.12637 2.10
2 2 0 o 62.127 58.023 0.00 3.04703 0.07
2 0 2 o 511.546 309.462 0.00 2.93794 0.51
1 0 5 o 819.637 814.969 180.00 2.44661 0.56
1 3 4 o 33.498 32.823 0.00 2.59301 0.05
1 5 2 o 3062.375 2953.861 180.00 2.68073 5.04
2 2 2 o 2450.339 2134.942 180.00 2.76582 4.29
2 1 3 o 1247.802 1192.987 0.00 2.59638 1.93
2 3 1 o 667.321 576.909 0.00 2.75192 1.16
0 0 6 o 2759.502 2898.675 0.00 2.19717 0.77
1 4 3 o 5656.940 5715.185 0.00 2.72702 9.64
0 6 2 o 278.351 485.074 0.00 2.52513 0.20
1 6 1 o 744.485 974.280 0.00 2.47857 1.05
0 4 4 o 11498.391 12638.972 0.00 2.56886 8.70
2 4 0 o 1351.511 1473.656 180.00 2.56231 1.02
0 2 6 o 388.704 449.275 180.00 2.12232 0.20
0 5 3 o 442.772 579.342 180.00 2.62873 0.35
1 1 6 o 1311.146 1129.966 180.00 2.06693 1.29
2 2 4 o 15.225 11.684 0.00 2.23735 0.02
2 4 2 o 242.561 279.433 180.00 2.38822 0.32
2 5 1 o 102.653 30.457 0.00 2.28503 0.12
0 8 0 o 132.346 107.976 0.00 2.05026 0.03
0 1 7 o 641.947 775.247 0.00 1.87100 0.26
1 7 2 o 3375.760 2835.843 0.00 2.09260 3.40
1 4 5 o 98.659 88.518 180.00 2.10104 0.10
2 6 0 o 2546.972 2263.664 180.00 2.10048 1.29
1 0 7 o 1211.404 1081.936 0.00 1.81025 0.46
1 3 6 o 785.473 881.116 0.00 1.94696 0.69
1 6 3 o 4976.448 4828.106 180.00 2.18838 5.48
1 5 4 o 6470.364 6386.689 0.00 2.19159 7.15
0 4 6 o 1912.945 2180.084 180.00 1.93667 0.83
1 8 1 o 546.152 629.483 180.00 1.93580 0.47
0 5 5 o 25241.115 22970.965 0.00 2.05509 12.28
0 8 2 o 1751.696 2122.205 180.00 1.95774 0.77
0 3 7 o 1256.114 1208.797 0.00 1.78061 0.46
0 7 3 o 7604.616 6897.530 0.00 2.06758 3.75
3 0 1 o 3144.117 2607.324 180.00 2.15845 1.69
1 2 7 o 1238.930 1213.898 180.00 1.76770 0.90
2 0 6 o 26.819 23.401 180.00 1.82579 0.01
0 0 8 o 31.948 45.130 180.00 1.64788 0.01
0 9 1 o 4757.091 4200.682 0.00 1.80528 1.79
2 3 5 o 587.919 924.629 0.00 1.92399 0.50
3 2 1 o 60.438 46.230 0.00 2.08737 0.06
0 6 4 o 8266.788 7446.178 180.00 2.10408 4.21
3 1 2 o 3122.139 3009.757 180.00 2.06012 3.05
2 5 3 o 181.226 163.433 0.00 2.05173 0.18
2 7 1 o 298.763 488.351 180.00 1.88736 0.25
2 2 6 o 1270.607 1226.800 180.00 1.78216 0.93
3 0 3 o 2776.386 3227.117 0.00 1.95862 1.23
0 2 8 o 728.558 761.083 180.00 1.61559 0.22
1 1 8 o 689.097 948.713 0.00 1.59075 0.41
3 2 3 o 4929.818 4437.000 180.00 1.90505 4.13
3 3 2 o 889.563 754.642 0.00 1.94126 0.77
2 8 0 o 11.831 13.498 0.00 1.73885 0.00
2 1 7 o 208.945 259.623 0.00 1.62542 0.13
3 1 4 o 4389.631 3880.824 0.00 1.81170 3.33
1 5 6 o 996.744 1045.752 0.00 1.75877 0.71
3 4 1 o 665.362 588.918 180.00 1.91000 0.56
0 10 0 o 8653.825 11722.689 180.00 1.64021 1.35
1 8 3 o 229.346 225.406 0.00 1.78774 0.17
1 4 7 o 137.337 199.272 180.00 1.65605 0.09
1 9 2 o 24.541 24.118 0.00 1.69684 0.02
0 1 9 o 2420.569 1623.262 0.00 1.45897 0.60
1 6 5 o 743.421 657.810 0.00 1.82309 0.57
2 4 6 o 2008.651 2324.921 0.00 1.66793 1.30
1 7 4 o 651.441 523.508 180.00 1.83367 0.51
1 3 8 o 23.670 49.575 0.00 1.53407 0.01
3 0 5 o 3372.212 3376.638 180.00 1.68374 1.11
0 9 3 o 66.539 66.743 180.00 1.68342 0.02
0 4 8 o 26.675 64.706 180.00 1.52903 0.01
0 5 7 o 1.635 2.371 0.00 1.63327 0.00
1 10 1 o 281.386 540.840 180.00 1.57981 0.16
2 5 5 o 2549.736 2771.100 180.00 1.74179 1.79
0 6 6 o 5954.315 6815.535 0.00 1.71257 2.02
0 10 2 o 734.461 973.292 0.00 1.59167 0.22
2 3 7 o 1738.963 2370.567 180.00 1.56510 0.99
2 7 3 o 1431.085 1277.861 180.00 1.74938 1.01
2 8 2 o 33.942 36.357 180.00 1.68133 0.02
0 8 4 o 1120.223 1243.768 0.00 1.74089 0.39
2 0 8 o 1074.128 889.182 180.00 1.47267 0.27
3 3 4 o 200.047 298.851 180.00 1.72927 0.14
2 6 4 o 1242.714 1014.312 0.00 1.77132 0.90
3 5 2 o 372.907 359.997 0.00 1.75457 0.27
3 4 3 o 311.099 300.386 180.00 1.76736 0.23
1 2 9 o 145.055 55.420 180.00 1.40838 0.07
2 9 1 o 15.582 31.253 180.00 1.58178 0.01
3 2 5 o 129.350 208.880 0.00 1.64933 0.08
3 6 1 o 1742.354 1680.779 180.00 1.69405 1.16
0 7 5 o 1395.192 1192.616 180.00 1.75146 0.50
0 11 1 o 6923.509 5848.710 180.00 1.48165 1.77
3 1 6 o 73.697 105.344 180.00 1.54349 0.04
0 0 10 o 3424.897 5741.479 180.00 1.31830 0.35
1 6 7 o 305.246 592.830 0.00 1.50932 0.16
2 10 0 o 86.990 69.407 0.00 1.46718 0.02
3 4 5 o 37.493 52.463 180.00 1.55754 0.02
1 10 3 o 2.802 3.747 180.00 1.49620 0.00
0 2 10 o 39.088 46.702 0.00 1.30159 0.01
4 0 0 o 2586.567 3194.130 0.00 1.64098 0.40
1 9 4 o 226.628 360.947 0.00 1.54977 0.13
3 3 6 o 8.847 11.220 0.00 1.49156 0.00
4 1 1 o 1373.182 1268.775 0.00 1.62045 0.84
2 5 7 o 3527.810 2516.175 0.00 1.46221 1.76
3 7 2 o 1150.623 1652.478 180.00 1.55410 0.65
2 1 9 o 1077.065 1617.211 180.00 1.33318 0.45
1 1 10 o 37.294 37.509 0.00 1.28850 0.01
3 5 4 o 365.504 443.249 180.00 1.59338 0.22
4 0 2 o 135.701 169.445 180.00 1.59238 0.04
3 6 3 o 340.051 430.279 0.00 1.59214 0.20
1 4 9 o 5.739 6.609 0.00 1.34993 0.00
1 7 6 o 379.760 534.890 0.00 1.55701 0.21
4 2 0 o 439.716 328.999 180.00 1.60909 0.13
0 12 0 o 3203.524 3422.937 0.00 1.36684 0.35
2 4 8 o 2088.111 2108.460 180.00 1.38599 0.94
3 2 7 o 26.758 10.356 0.00 1.40622 0.01
2 6 6 o 1578.764 3224.900 180.00 1.51829 0.85
2 9 3 o 66.373 84.786 0.00 1.49787 0.03
0 5 9 o 1.936 2.409 180.00 1.33750 0.00
2 8 4 o 1275.281 2126.924 180.00 1.53792 0.70
3 8 1 o 6.597 5.731 0.00 1.48653 0.00
0 11 3 o 2490.719 630.431 0.00 1.41202 0.58
0 10 4 o 38.476 32.167 180.00 1.46841 0.01
0 6 8 o 11.218 3.069 180.00 1.41129 0.00
1 8 5 o 367.647 560.605 180.00 1.57144 0.21
4 2 2 o 1624.397 2048.503 0.00 1.56319 0.92
4 3 1 o 674.876 922.207 180.00 1.56066 0.38
1 3 10 o 8.117 8.668 180.00 1.25782 0.00
2 3 9 o 767.456 869.160 0.00 1.29929 0.31
2 7 5 o 1447.841 1709.311 0.00 1.54519 0.81
4 1 3 o 141.630 499.262 180.00 1.53059 0.08
0 7 7 o 5767.316 4764.665 0.00 1.46792 1.45
1 12 1 o 6.320 11.095 180.00 1.33129 0.00
4 4 0 o 689.900 1838.455 0.00 1.52352 0.19
0 12 2 o 3577.272 4221.406 180.00 1.33837 0.75
0 1 11 o 2053.326 1660.113 180.00 1.19527 0.35
0 4 10 o 3.798 4.356 180.00 1.25504 0.00
0 9 5 o 807.199 933.561 0.00 1.49917 0.21
2 11 1 o 246.391 287.217 0.00 1.35041 0.11
3 1 8 o 812.705 1287.830 180.00 1.31209 0.33
4 0 4 o 1103.634 947.888 0.00 1.46897 0.28
0 8 6 o 831.168 962.730 180.00 1.49900 0.22
1 0 11 o 1181.324 928.601 180.00 1.17897 0.20
4 4 2 o 1753.620 1334.259 180.00 1.48438 0.90
4 3 3 o 3001.194 2322.576 0.00 1.47991 1.53
2 2 10 o 2432.954 1166.126 180.00 1.20992 0.84
4 5 1 o 3462.898 2476.490 0.00 1.45859 1.72
3 5 6 o 696.060 394.186 180.00 1.40171 0.32
1 2 11 o 1.422 0.984 0.00 1.16697 0.00
3 4 7 o 230.276 259.886 0.00 1.34802 0.10
0 13 1 o 2505.861 2865.795 0.00 1.25596 0.47
4 1 5 o 1101.823 1101.937 0.00 1.38819 0.50
3 9 2 o 65.956 79.403 180.00 1.36975 0.03
0 3 11 o 297.494 205.793 0.00 1.17066 0.05
3 3 8 o 86.851 69.889 180.00 1.27974 0.03
1 7 8 o 314.904 594.043 0.00 1.32037 0.13
4 6 0 o 9080.511 3389.625 180.00 1.40696 2.11
1 6 9 o 150.884 118.050 180.00 1.26684 0.06
1 11 4 o 11.063 24.625 180.00 1.33033 0.00
1 12 3 o 94.639 76.750 180.00 1.28010 0.04
2 6 8 o 2535.952 2675.098 0.00 1.29651 1.00
2 12 0 o 544.953 543.930 180.00 1.26179 0.10
0 0 12 o 80.993 151.869 0.00 1.09859 0.01
3 10 1 o 58.670 79.903 0.00 1.30593 0.02
2 5 9 o 2545.049 1930.708 180.00 1.23860 0.92
1 5 10 o 42.074 26.332 0.00 1.20252 0.01
4 0 6 o 705.764 1228.979 180.00 1.31476 0.14
4 4 4 o 844.415 935.997 0.00 1.38291 0.38
2 11 3 o 992.140 1042.848 180.00 1.29707 0.39
2 10 4 o 619.251 639.746 0.00 1.34037 0.26
2 7 7 o 3490.875 3647.665 180.00 1.33999 1.47
4 3 5 o 82.809 94.409 180.00 1.35004 0.04
2 1 11 o 864.818 1526.854 0.00 1.12311 0.26
1 10 5 o 331.753 311.924 0.00 1.36238 0.14
2 4 10 o 1174.219 801.252 0.00 1.17225 0.38
4 5 3 o 544.170 475.858 180.00 1.39202 0.25
1 8 7 o 173.909 228.805 0.00 1.35700 0.08
2 12 2 o 1077.657 849.762 0.00 1.23928 0.39
3 2 9 o 638.556 371.549 180.00 1.20401 0.22
4 2 6 o 293.754 311.411 0.00 1.29819 0.12
4 6 2 o 910.957 1291.521 0.00 1.37596 0.40
1 4 11 o 16.118 27.285 180.00 1.13306 0.00
0 12 4 o 91.835 92.908 180.00 1.26257 0.02
0 7 9 o 583.488 551.146 0.00 1.24206 0.11
2 9 5 o 3705.811 3211.261 180.00 1.36364 1.62
4 7 1 o 1944.647 2195.560 180.00 1.33720 0.82
0 2 12 o 1068.098 1879.611 180.00 1.08886 0.15
0 14 0 o 3818.486 2556.175 180.00 1.17158 0.31
0 6 10 o 516.221 497.629 180.00 1.18744 0.09
2 8 6 o 2889.191 2512.513 0.00 1.36351 1.26
1 9 6 o 228.324 344.833 180.00 1.37175 0.10
1 1 12 o 207.286 439.415 180.00 1.08116 0.06
0 13 3 o 1726.640 715.626 180.00 1.21270 0.30
0 11 5 o 701.519 721.711 0.00 1.29792 0.14
0 8 8 o 835.147 847.353 0.00 1.28443 0.16
0 5 11 o 123.053 212.988 0.00 1.12569 0.02
4 1 7 o 736.869 418.365 180.00 1.23370 0.27
2 3 11 o 436.720 903.448 180.00 1.10262 0.13
4 8 0 o 1762.893 1588.174 0.00 1.28116 0.34
1 14 1 o 27.639 29.341 0.00 1.14896 0.01
3 6 7 o 869.919 713.753 180.00 1.26527 0.33
3 1 10 o 328.266 569.571 0.00 1.12651 0.10
2 13 1 o 1697.850 1137.398 180.00 1.17300 0.56
3 10 3 o 459.914 513.702 180.00 1.25751 0.17
0 14 2 o 494.427 506.335 0.00 1.15350 0.08
3 9 4 o 45.838 51.286 180.00 1.28881 0.02
0 9 7 o 4.369 7.499 0.00 1.30965 0.00
4 4 6 o 18.803 26.695 180.00 1.25198 0.01
3 11 2 o 1286.969 512.909 0.00 1.21119 0.45
0 10 6 o 10.532 18.772 180.00 1.31436 0.00
4 5 5 o 566.757 546.950 0.00 1.28233 0.22
3 7 6 o 62.750 65.653 0.00 1.29297 0.02
3 8 5 o 82.620 100.292 180.00 1.30119 0.03
4 7 3 o 816.103 878.800 0.00 1.28535 0.32
4 6 4 o 249.198 261.228 180.00 1.29398 0.10
4 8 2 o 1533.911 1716.710 180.00 1.25762 0.57
5 0 1 o 1846.280 2394.566 0.00 1.30633 0.37
3 3 10 o 49.485 117.640 180.00 1.10584 0.01
4 3 7 o 384.383 186.283 0.00 1.20670 0.13
4 0 8 o 107.554 70.771 0.00 1.16278 0.02
5 1 2 o 548.467 551.398 0.00 1.28355 0.21
5 2 1 o 497.597 570.031 0.00 1.29006 0.20
4 2 8 o 279.790 296.799 180.00 1.15127 0.09
2 7 9 o 95.658 66.869 0.00 1.16165 0.03
0 15 1 o 348.684 558.018 180.00 1.08973 0.05
1 13 4 o 37.210 30.581 180.00 1.15977 0.01
1 7 10 o 71.366 134.280 180.00 1.13173 0.02
1 8 9 o 897.781 581.565 0.00 1.17268 0.29
2 6 10 o 1.945 4.578 180.00 1.11660 0.00
3 12 1 o 235.100 239.551 180.00 1.15478 0.07
1 12 5 o 27.945 26.849 180.00 1.19325 0.01
5 0 3 o 1.820 2.061 0.00 1.25786 0.00
1 6 11 o 14.855 34.650 0.00 1.08258 0.00
2 12 4 o 40.308 30.103 0.00 1.17838 0.01
2 13 3 o 40.363 60.631 180.00 1.13753 0.01
2 8 8 o 262.045 218.737 180.00 1.19609 0.09
2 11 5 o 362.303 166.937 180.00 1.20696 0.13
2 14 0 o 847.559 1788.931 0.00 1.10338 0.12
5 3 2 o 523.419 635.387 0.00 1.25322 0.19
1 14 3 o 29.730 79.314 180.00 1.11557 0.01
5 2 3 o 371.150 401.176 0.00 1.24332 0.14
5 4 1 o 6.793 8.711 180.00 1.24469 0.00
1 9 8 o 99.277 69.760 0.00 1.20164 0.03
4 1 9 o 34.059 52.347 0.00 1.09034 0.01
2 14 2 o 1.737 2.838 0.00 1.08824 0.00
3 6 9 o 483.139 1531.482 0.00 1.11195 0.14
1 11 6 o 599.483 208.160 0.00 1.21257 0.21
4 10 0 o 1752.844 1428.778 180.00 1.16008 0.28
0 8 10 o 55.682 161.251 0.00 1.10886 0.01
4 5 7 o 173.935 170.344 0.00 1.15761 0.06
4 4 8 o 4.046 7.852 180.00 1.11867 0.00
5 0 5 o 60.245 38.177 180.00 1.17517 0.01
0 14 4 o 257.850 557.717 180.00 1.10390 0.04
4 6 6 o 1.470 1.437 0.00 1.18485 0.00
0 13 5 o 32.265 46.047 180.00 1.13810 0.00
3 7 8 o 1983.177 2101.918 180.00 1.14762 0.62
3 12 3 o 1723.557 2837.872 0.00 1.12089 0.52
4 8 4 o 34.976 34.180 0.00 1.19411 0.01
5 4 3 o 2144.343 1511.175 0.00 1.20255 0.74
4 9 3 o 500.421 313.422 180.00 1.17507 0.16
3 11 4 o 2651.051 2747.404 180.00 1.15415 0.84
4 10 2 o 267.663 282.320 0.00 1.14252 0.08
0 9 9 o 843.995 921.328 0.00 1.14171 0.13
5 2 5 o 396.158 202.729 0.00 1.16329 0.13
5 3 4 o 33.512 35.141 0.00 1.19034 0.01
5 5 2 o 566.190 439.237 180.00 1.19850 0.19
4 7 5 o 45.218 35.190 0.00 1.19750 0.02
3 10 5 o 964.565 590.755 0.00 1.17489 0.32
0 12 6 o 497.270 398.562 0.00 1.16059 0.08
5 6 1 o 506.832 407.352 0.00 1.17866 0.17
5 1 6 o 119.030 196.984 180.00 1.12430 0.04
3 9 6 o 1873.890 1430.213 180.00 1.18088 0.62
4 11 1 o 208.002 393.952 180.00 1.09971 0.06
0 10 8 o 30.138 16.578 180.00 1.16250 0.00
5 4 5 o 2.986 5.360 180.00 1.12970 0.00
5 5 4 o 2023.114 2024.308 0.00 1.14315 0.63
5 3 6 o 185.436 396.438 0.00 1.10375 0.05
5 6 3 o 925.585 949.331 180.00 1.14269 0.29
5 7 2 o 553.761 1023.093 0.00 1.12838 0.17
4 10 4 o 170.924 280.969 180.00 1.09427 0.05
4 7 7 o 24.655 41.252 0.00 1.09406 0.01
5 8 1 o 95.680 156.618 180.00 1.10170 0.03
2 12 6 o 39.645 64.478 0.00 1.09419 0.01
4 9 5 o 16.156 51.375 0.00 1.10682 0.00
4 8 6 o 0.665 2.092 0.00 1.10675 0.00
2 10 8 o 310.608 558.474 0.00 1.09579 0.09
1 12 7 o 122.079 216.953 0.00 1.09082 0.03
2 11 7 o 663.415 949.877 180.00 1.10126 0.19
5 7 4 o 7.045 24.640 180.00 1.08183 0.00
6 0 0 o 1724.182 2593.783 0.00 1.09399 0.12
5 6 5 o 153.647 225.667 0.00 1.07964 0.04
1 11 8 o 119.232 154.907 180.00 1.09029 0.03
6 1 1 o 263.899 475.441 0.00 1.08784 0.07
6 2 0 o 2.084 10.478 0.00 1.08438 0.00
