#------------------------------------------------------------------------------
#$Date: 2016-03-21 01:21:50 +0200 (Mon, 21 Mar 2016) $
#$Revision: 178377 $
#$URL: svn://www.crystallography.net/cod/cif/4/00/20/4002097.cif $
#------------------------------------------------------------------------------
#
# This file is available in the Crystallography Open Database (COD),
# http://www.crystallography.net/
#
# All data on this site have been placed in the public domain by the
# contributors.
#
data_4002097
loop_
_publ_author_name
'Nanthamathee, Chompoonoot'
'Ling, Sanliang'
'Slater, Ben'
'Attfield, Martin P.'
_publ_section_title
;
 Contradistinct Thermoresponsive Behavior of Isostructural MIL-53 Type
 Metal--Organic Frameworks by Modifying the Framework Inorganic Anion
;
_journal_name_full               'Chemistry of Materials'
_journal_page_first              141223143002002
_journal_paper_doi               10.1021/cm503311x
_journal_year                    2014
_chemical_formula_sum            'C8 Al F O4'
_chemical_formula_weight         206.06
_chemical_name_systematic        ' ?'
_space_group_IT_number           15
_symmetry_cell_setting           monoclinic
_symmetry_space_group_name_Hall  '-I 2b'
_symmetry_space_group_name_H-M   'I 1 1 2/b'
_audit_creation_date             2014-08-28T13:10
_audit_creation_method           'from EXP file using GSAS2CIF'
_audit_update_record
' 2014-08-28T13:10  Initial CIF as created by GSAS2CIF'
_cell_angle_alpha                90.0
_cell_angle_beta                 90.0
_cell_angle_gamma                90.5028(23)
_cell_formula_units_Z            4
_cell_length_a                   6.55814(17)
_cell_length_b                   16.4250(6)
_cell_length_c                   13.1592(6)
_cell_volume                     1417.42(9)
_computing_structure_refinement  GSAS
_diffrn_radiation_polarisn_ratio 0.95
_diffrn_radiation_probe          x-ray
_diffrn_radiation_wavelength     0.825993
_exptl_absorpt_correction_T_max  1.00000
_exptl_absorpt_correction_T_min  1.00000
_exptl_absorpt_process_details
;   GSAS Absorption/surface roughness correction: function number 0
 No correction is applied.
;
_pd_block_id                     2014-08-28T13:10|100K|175K|Synchrotron_I11
_pd_calc_method                  'Rietveld Refinement'
_pd_instr_location               ' ?'
_pd_meas_2theta_range_inc        0.003
_pd_meas_2theta_range_max        149.9955
_pd_meas_2theta_range_min        0.0015
_pd_meas_number_of_points        49999
_pd_phase_name                   300K
_pd_proc_2theta_range_inc        0.003
_pd_proc_2theta_range_max        150.00475
_pd_proc_2theta_range_min        0.010754
_pd_proc_info_datetime           2014-08-28T13:10:53
_pd_proc_info_excluded_regions   ' ?'
_pd_proc_ls_background_function
;   GSAS Background function number 1 with  2 terms.
 Shifted Chebyshev function of 1st kind
      1:    0.00000     2:    0.00000    
;
_pd_proc_ls_peak_cutoff          0.00001
_pd_proc_ls_profile_function
;
 CW Profile function number 4 with  21 terms
 Pseudovoigt profile coefficients as parameterized in
 P. Thompson, D.E. Cox & J.B. Hastings (1987). J. Appl. Cryst.,20,79-83.
 Asymmetry correction of L.W. Finger, D.E. Cox & A. P. Jephcoat (1994).
 J. Appl. Cryst.,27,892-900.
 Microstrain broadening by P.W. Stephens,  (1999). J. Appl. Cryst.,32,281-289.
 Peak tails are ignored  where the intensity is below 0.0000 times the peak
   Aniso. broadening axis   1.0   0.0   1.0
;
_pd_proc_ls_prof_R_factor        0.0315
_pd_proc_ls_prof_wR_expected     0.0236
_pd_proc_ls_prof_wR_factor       0.0406
_pd_proc_number_of_points        49999
_pd_spec_mounting                ' ?'
_refine_ls_goodness_of_fit_all   1.72
_refine_ls_matrix_type           full
_refine_ls_number_parameters     41
_refine_ls_number_restraints     0
_refine_ls_R_Fsqd_factor         0.24379
_refine_ls_shift/su_max          0.02
_refine_ls_shift/su_mean         0.00
_reflns_d_resolution_high        1.207
_reflns_d_resolution_low         8.212
_reflns_limit_h_max              5
_reflns_limit_h_min              -5
_reflns_limit_k_max              14
_reflns_limit_k_min              0
_reflns_limit_l_max              12
_reflns_limit_l_min              0
_reflns_number_total             420
_cod_data_source_file            alf100K.cif
_cod_data_source_block           100K_publ
_cod_depositor_comments
;
The following automatic conversions were performed:

'_geom_bond_publ_flag' value 'N' changed to 'n' according to
/home/saulius/struct/COD-crude-data--automatic-downloads/rss-feeds/ACS/lib/dictionaries/cif_core.dic
dictionary named 'cif_core.dic' version 2.4.2 from 2011-04-26 (22
times).

'_geom_angle_publ_flag' value 'N' changed to 'n' according
to
/home/saulius/struct/COD-crude-data--automatic-downloads/rss-feeds/ACS/lib/dictionaries/cif_core.dic
dictionary named 'cif_core.dic' version 2.4.2 from 2011-04-26 (26
times).

Automatic conversion script
Id: cif_fix_values 2935 2014-11-11 08:27:57Z andrius 
;
_cod_original_cell_volume        1417.42(8)
_cod_database_code               4002097
#BEGIN Tags that were not found in dictionaries:
_gsas_exptl_extinct_corr_t_min   1.00000
_gsas_exptl_extinct_corr_t_max   1.00000
#END Tags that were not found in dictionaries
loop_
_symmetry_equiv_pos_site_id
_symmetry_equiv_pos_as_xyz
1 +x,+y,+z
2 -x,-y+1/2,+z
-1 -x,-y,-z
-2 +x,+y+1/2,-z
101 +x+1/2,+y+1/2,+z+1/2
102 -x+1/2,-y,+z+1/2
-101 -x+1/2,-y+1/2,-z+1/2
-102 +x+1/2,+y,-z+1/2
loop_
_atom_site_type_symbol
_atom_site_label
_atom_site_fract_x
_atom_site_fract_y
_atom_site_fract_z
_atom_site_occupancy
_atom_site_thermal_displace_type
_atom_site_U_iso_or_equiv
_atom_site_symmetry_multiplicity
Al Al1 0.25 0.25 0.75 1.0 Uiso 0.0314(21) 4
F F1 0.0 0.25 0.6912(6) 1.0 Uiso 0.0164(14) 4
O O1 0.1605(11) 0.1731(4) 0.8484(7) 1.0 Uiso 0.0164(14) 8
O O2 -0.1802(11) 0.6614(4) -0.8318(8) 1.0 Uiso 0.0164(14) 8
C C3 -0.1929(21) 0.0248(9) -0.0476(10) 1.0 Uiso 0.0156(24) 8
C C2 0.0045(26) 0.0660(7) 0.9436(9) 1.0 Uiso 0.0156(24) 8
C C1 -0.0081(23) 0.1350(7) 0.8655(10) 1.0 Uiso 0.0156(24) 8
C C4 0.1977(21) 0.5399(9) -0.9757(12) 1.0 Uiso 0.0156(24) 8
loop_
_atom_type_symbol
_atom_type_number_in_cell
_atom_type_scat_dispersion_real
_atom_type_scat_dispersion_imag
_atom_type_scat_Cromer_Mann_a1
_atom_type_scat_Cromer_Mann_a2
_atom_type_scat_Cromer_Mann_a3
_atom_type_scat_Cromer_Mann_a4
_atom_type_scat_Cromer_Mann_b1
_atom_type_scat_Cromer_Mann_b2
_atom_type_scat_Cromer_Mann_b3
_atom_type_scat_Cromer_Mann_b4
_atom_type_scat_Cromer_Mann_c
_atom_type_scat_source
Al 4.0 0.000 0.000 6.42020 3.03870 1.90020 0.74260 1.59360 31.5472 1.96460
85.0886 1.11510 International_Tables_Vol_C
F 4.0 0.000 0.000 3.53920 10.2825 2.64120 4.29440 1.51700 0.26150 1.02430
26.1476 0.27760 International_Tables_Vol_C
O 16.0 0.000 0.000 3.04850 13.2771 2.28680 5.70110 1.54630 0.32390 0.86700
32.9089 0.25080 International_Tables_Vol_C
C 32.0 0.000 0.000 2.31000 20.8439 1.02000 10.2075 1.58860 0.56870 0.86500
51.6512 0.21560 International_Tables_Vol_C
loop_
_geom_angle_atom_site_label_1
_geom_angle_atom_site_label_2
_geom_angle_atom_site_label_3
_geom_angle
_geom_angle_site_symmetry_1
_geom_angle_site_symmetry_3
_geom_angle_publ_flag
F1 Al1 F1 180.0 1_555 -101_566 n
F1 Al1 O1 90.96(27) 1_555 1_555 n
F1 Al1 O1 89.04(27) 1_555 -101_445 n
F1 Al1 O2 91.05(27) 1_555 -1_565 n
F1 Al1 O2 88.95(27) 1_555 101_546 n
F1 Al1 O1 89.04(27) -101_445 1_555 n
F1 Al1 O1 90.96(27) -101_445 -101_445 n
F1 Al1 O2 88.95(27) -101_445 -1_565 n
F1 Al1 O2 91.05(27) -101_445 101_546 n
O1 Al1 O1 180.0 1_555 -101_445 n
O1 Al1 O2 92.79(34) 1_555 -1_565 n
O1 Al1 O2 87.21(34) 1_555 101_546 n
O1 Al1 O2 87.21(34) -101_445 -1_565 n
O1 Al1 O2 92.79(34) -101_445 101_546 n
O2 Al1 O2 180.0 -1_565 101_546 n
Al1 F1 Al1 129.5(5) 1_555 2_555 n
Al1 O1 C1 134.7(9) 1_555 1_555 n
Al1 O2 C1 132.8(8) -1_565 -2_565 n
C2 C3 C4 114.4(13) 1_554 2_556 n
C3 C2 C1 110.0(14) 1_556 1_555 n
C3 C2 C4 129.2(10) 1_556 -2_555 n
C1 C2 C4 118.8(14) 1_555 -2_555 n
O1 C1 O2 121.8(10) 1_555 -2_444 n
O1 C1 C2 115.2(13) 1_555 1_555 n
O2 C1 C2 122.1(13) -2_555 1_555 n
C3 C4 C2 114.4(12) 2_554 -2_565 n
loop_
_geom_bond_atom_site_label_1
_geom_bond_atom_site_label_2
_geom_bond_distance
_geom_bond_site_symmetry_2
_geom_bond_publ_flag
Al1 F1 1.8129(35) 1_555 n
Al1 F1 1.8129(35) -101_445 n
Al1 O1 1.898(8) 1_555 n
Al1 O1 1.898(8) -101_445 n
Al1 O2 1.871(7) -1_565 n
Al1 O2 1.871(7) 101_546 n
F1 Al1 1.8129(35) 1_555 n
F1 Al1 1.8129(35) 2_555 n
O1 Al1 1.898(8) 1_555 n
O1 C1 1.285(13) 1_555 n
O2 Al1 1.871(7) -1_565 n
O2 C1 1.291(12) -2_555 n
C3 C2 1.461(15) 1_554 n
C3 C4 1.423(10) 2_556 n
C2 C3 1.461(15) 1_556 n
C2 C1 1.533(10) 1_555 n
C2 C4 1.406(15) -2_545 n
C1 O1 1.285(13) 1_555 n
C1 O2 1.291(12) -2_545 n
C1 C2 1.533(10) 1_555 n
C4 C3 1.423(10) 2_554 n
C4 C2 1.406(15) -2_555 n
loop_
_pd_meas_intensity_total
_pd_proc_ls_weight
_pd_proc_intensity_bkg_calc
_pd_calc_intensity_total
21.7(24) 0.0 0.00 .
25.9(27) 0.0 0.00 .
24.1(27) 0.0 0.00 .
28.5(30) 0.0 0.00 .
51(4) 0.0 0.0 .
191(7) 0.0 0.0 .
148(7) 0.0 0.0 .
974(17) 0.0 0.0 .
1699(22) 0.0 0.0 .
3157(30) 0.0 0.0 .
3626(31) 0.0 0.0 .
3595(32) 0.0 0.0 .
3538(33) 0.0 0.0 .
1163(18) 0.0 0.0 .
109(5) 0.0 0.0 .
63(4) 0.0 0.0 .
52(4) 0.0 0.0 .
45(4) 0.0 0.0 .
46(4) 0.0 0.0 .
66(4) 0.0 0.0 .
243(8) 0.0 0.0 .
379(10) 0.0 0.0 .
797(16) 0.0 0.0 .
1011(17) 0.0 0.0 .
1061(17) 0.0 0.0 .
1278(19) 0.0 0.0 .
1395(20) 0.0 0.0 .
1541(22) 0.0 0.0 .
1832(23) 0.0 0.0 .
1865(22) 0.0 0.0 .
2060(24) 0.0 0.0 .
2092(24) 0.0 0.0 .
1854(24) 0.0 0.0 .
1636(22) 0.0 0.0 .
1149(18) 0.0 0.0 .
641(14) 0.0 0.0 .
333(10) 0.0 0.0 .
227(8) 0.0 0.0 .
131(6) 0.0 0.0 .
76(5) 0.0 0.0 .
40.4(34) 0.0 0.00 .
34.8(32) 0.0 0.00 .
31.1(29) 0.0 0.00 .
31.9(32) 0.0 0.00 .
36.8(31) 0.0 0.00 .
25.1(27) 0.0 0.00 .
26.9(27) 0.0 0.00 .
34.8(33) 0.0 0.00 .
22.7(25) 0.0 0.00 .
29.2(29) 0.0 0.00 .
33.4(30) 0.0 0.00 .
27.2(27) 0.0 0.00 .
22.5(27) 0.0 0.00 .
25.6(28) 0.0 0.00 .
39.7(32) 0.0 0.00 .
40(4) 0.0 0.0 .
32.3(33) 0.0 0.00 .
29.4(28) 0.0 0.00 .
38.0(32) 0.0 0.00 .
30.7(30) 0.0 0.00 .
32.8(31) 0.0 0.00 .
33.3(32) 0.0 0.00 .
29.4(28) 0.0 0.00 .
35.8(32) 0.0 0.00 .
33.7(31) 0.0 0.00 .
37.7(33) 0.0 0.00 .
37.6(32) 0.0 0.00 .
36.3(32) 0.0 0.00 .
33.0(30) 0.0 0.00 .
30.6(29) 0.0 0.00 .
31.9(31) 0.0 0.00 .
27.1(30) 0.0 0.00 .
41(4) 0.0 0.0 .
30.2(31) 0.0 0.00 .
38.5(34) 0.0 0.00 .
26.6(28) 0.0 0.00 .
38.0(34) 0.0 0.00 .
42.1(35) 0.0 0.00 .
38.4(32) 0.0 0.00 .
34.3(30) 0.0 0.00 .
26.3(28) 0.0 0.00 .
32.4(32) 0.0 0.00 .
42.0(35) 0.0 0.00 .
39.7(32) 0.0 0.00 .
34.0(31) 0.0 0.00 .
32.9(30) 0.0 0.00 .
27.5(29) 0.0 0.00 .
30.6(29) 0.0 0.00 .
39.7(33) 0.0 0.00 .
40.3(33) 0.0 0.00 .
42(4) 0.0 0.0 .
54(4) 0.0 0.0 .
38.6(33) 0.0 0.00 .
56(4) 0.0 0.0 .
50(4) 0.0 0.0 .
71(5) 0.0 0.0 .
73(5) 0.0 0.0 .
78(5) 0.0 0.0 .
78(5) 0.0 0.0 .
97(5) 0.0 0.0 .
111(6) 0.0 0.0 .
108(6) 0.0 0.0 .
124(6) 0.0 0.0 .
129(6) 0.0 0.0 .
133(6) 0.0 0.0 .
140(6) 0.0 0.0 .
156(7) 0.0 0.0 .
157(7) 0.0 0.0 .
159(7) 0.0 0.0 .
186(7) 0.0 0.0 .
205(8) 0.0 0.0 .
210(8) 0.0 0.0 .
219(8) 0.0 0.0 .
231(8) 0.0 0.0 .
217(8) 0.0 0.0 .
236(8) 0.0 0.0 .
252(9) 0.0 0.0 .
254(8) 0.0 0.0 .
251(8) 0.0 0.0 .
281(9) 0.0 0.0 .
289(9) 0.0 0.0 .
297(9) 0.0 0.0 .
316(9) 0.0 0.0 .
308(9) 0.0 0.0 .
320(10) 0.0 0.0 .
309(9) 0.0 0.0 .
335(10) 0.0 0.0 .
350(10) 0.0 0.0 .
368(10) 0.0 0.0 .
365(10) 0.0 0.0 .
374(11) 0.0 0.0 .
379(10) 0.0 0.0 .
390(10) 0.0 0.0 .
385(10) 0.0 0.0 .
383(10) 0.0 0.0 .
425(11) 0.0 0.0 .
421(11) 0.0 0.0 .
441(11) 0.0 0.0 .
403(10) 0.0 0.0 .
473(12) 0.0 0.0 .
448(12) 0.0 0.0 .
488(12) 0.0 0.0 .
456(11) 0.0 0.0 .
467(11) 0.0 0.0 .
464(12) 0.0 0.0 .
468(12) 0.0 0.0 .
504(12) 0.0 0.0 .
497(12) 0.0 0.0 .
490(12) 0.0 0.0 .
503(12) 0.0 0.0 .
499(12) 0.0 0.0 .
505(12) 0.0 0.0 .
509(12) 0.0 0.0 .
535(12) 0.0 0.0 .
557(13) 0.0 0.0 .
532(12) 0.0 0.0 .
532(12) 0.0 0.0 .
527(12) 0.0 0.0 .
549(13) 0.0 0.0 .
561(13) 0.0 0.0 .
560(13) 0.0 0.0 .
553(12) 0.0 0.0 .
557(12) 0.0 0.0 .
540(13) 0.0 0.0 .
577(13) 0.0 0.0 .
593(13) 0.0 0.0 .
595(13) 0.0 0.0 .
583(12) 0.0 0.0 .
580(13) 0.0 0.0 .
585(13) 0.0 0.0 .
609(13) 0.0 0.0 .
628(13) 0.0 0.0 .
585(13) 0.0 0.0 .
589(13) 0.0 0.0 .
596(14) 0.0 0.0 .
597(13) 0.0 0.0 .
606(13) 0.0 0.0 .
594(13) 0.0 0.0 .
581(13) 0.0 0.0 .
612(14) 0.0 0.0 .
613(13) 0.0 0.0 .
601(13) 0.0 0.0 .
595(13) 0.0 0.0 .
643(14) 0.0 0.0 .
637(14) 0.0 0.0 .
656(14) 0.0 0.0 .
639(13) 0.0 0.0 .
669(13) 0.0 0.0 .
646(14) 0.0 0.0 .
644(14) 0.0 0.0 .
659(14) 0.0 0.0 .
664(13) 0.0 0.0 .
688(14) 0.0 0.0 .
688(14) 0.0 0.0 .
652(14) 0.0 0.0 .
640(14) 0.0 0.0 .
632(13) 0.0 0.0 .
651(13) 0.0 0.0 .
683(14) 0.0 0.0 .
693(14) 0.0 0.0 .
654(14) 0.0 0.0 .
694(14) 0.0 0.0 .
727(14) 0.0 0.0 .
698(14) 0.0 0.0 .
651(14) 0.0 0.0 .
680(14) 0.0 0.0 .
722(14) 0.0 0.0 .
718(14) 0.0 0.0 .
699(14) 0.0 0.0 .
702(14) 0.0 0.0 .
706(14) 0.0 0.0 .
721(14) 0.0 0.0 .
703(14) 0.0 0.0 .
725(15) 0.0 0.0 .
735(15) 0.0 0.0 .
747(14) 0.0 0.0 .
786(15) 0.0 0.0 .
697(14) 0.0 0.0 .
744(15) 0.0 0.0 .
739(15) 0.0 0.0 .
740(14) 0.0 0.0 .
720(14) 0.0 0.0 .
744(15) 0.0 0.0 .
767(15) 0.0 0.0 .
729(14) 0.0 0.0 .
739(14) 0.0 0.0 .
793(15) 0.0 0.0 .
770(15) 0.0 0.0 .
746(15) 0.0 0.0 .
788(15) 0.0 0.0 .
792(15) 0.0 0.0 .
778(15) 0.0 0.0 .
792(15) 0.0 0.0 .
791(16) 0.0 0.0 .
820(15) 0.0 0.0 .
827(15) 0.0 0.0 .
807(15) 0.0 0.0 .
828(16) 0.0 0.0 .
790(16) 0.0 0.0 .
810(15) 0.0 0.0 .
813(15) 0.0 0.0 .
828(15) 0.0 0.0 .
795(15) 0.0 0.0 .
803(15) 0.0 0.0 .
800(15) 0.0 0.0 .
855(15) 0.0 0.0 .
814(15) 0.0 0.0 .
801(15) 0.0 0.0 .
821(16) 0.0 0.0 .
871(16) 0.0 0.0 .
876(15) 0.0 0.0 .
925(16) 0.0 0.0 .
852(16) 0.0 0.0 .
867(16) 0.0 0.0 .
844(15) 0.0 0.0 .
851(15) 0.0 0.0 .
871(16) 0.0 0.0 .
884(16) 0.0 0.0 .
861(16) 0.0 0.0 .
887(16) 0.0 0.0 .
906(16) 0.0 0.0 .
865(16) 0.0 0.0 .
885(16) 0.0 0.0 .
867(16) 0.0 0.0 .
880(16) 0.0 0.0 .
902(16) 0.0 0.0 .
856(16) 0.0 0.0 .
883(16) 0.0 0.0 .
875(16) 0.0 0.0 .
869(15) 0.0 0.0 .
870(15) 0.0 0.0 .
853(15) 0.0 0.0 .
899(16) 0.0 0.0 .
919(16) 0.0 0.0 .
893(16) 0.0 0.0 .
870(15) 0.0 0.0 .
906(16) 0.0 0.0 .
924(17) 0.0 0.0 .
897(16) 0.0 0.0 .
867(15) 0.0 0.0 .
917(16) 0.0 0.0 .
912(16) 0.0 0.0 .
908(17) 0.0 0.0 .
903(16) 0.0 0.0 .
893(15) 0.0 0.0 .
917(16) 0.0 0.0 .
898(16) 0.0 0.0 .
944(17) 0.0 0.0 .
946(17) 0.0 0.0 .
935(16) 0.0 0.0 .
968(16) 0.0 0.0 .
925(17) 0.0 0.0 .
930(17) 0.0 0.0 .
895(16) 0.0 0.0 .
963(16) 0.0 0.0 .
886(16) 0.0 0.0 .
924(17) 0.0 0.0 .
915(16) 0.0 0.0 .
987(17) 0.0 0.0 .
975(16) 0.0 0.0 .
973(17) 0.0 0.0 .
945(17) 0.0 0.0 .
926(17) 0.0 0.0 .
946(16) 0.0 0.0 .
979(16) 0.0 0.0 .
973(17) 0.0 0.0 .
977(17) 0.0 0.0 .
1003(17) 0.0 0.0 .
973(16) 0.0 0.0 .
956(16) 0.0 0.0 .
969(17) 0.0 0.0 .
1000(17) 0.0 0.0 .
1003(17) 0.0 0.0 .
993(17) 0.0 0.0 .
1021(17) 0.0 0.0 .
1007(17) 0.0 0.0 .
1019(17) 0.0 0.0 .
993(17) 0.0 0.0 .
992(16) 0.0 0.0 .
965(16) 0.0 0.0 .
988(17) 0.0 0.0 .
1024(18) 0.0 0.0 .
1078(18) 0.0 0.0 .
1030(17) 0.0 0.0 .
1091(17) 0.0 0.0 .
1052(17) 0.0 0.0 .
1056(18) 0.0 0.0 .
1029(17) 0.0 0.0 .
1055(17) 0.0 0.0 .
997(16) 0.0 0.0 .
1072(18) 0.0 0.0 .
1017(18) 0.0 0.0 .
1044(17) 0.0 0.0 .
1031(17) 0.0 0.0 .
1080(17) 0.0 0.0 .
1040(17) 0.0 0.0 .
1124(19) 0.0 0.0 .
1093(18) 0.0 0.0 .
1083(17) 0.0 0.0 .
1081(17) 0.0 0.0 .
1074(17) 0.0 0.0 .
1076(18) 0.0 0.0 .
1172(19) 0.0 0.0 .
1073(17) 0.0 0.0 .
1101(17) 0.0 0.0 .
1140(18) 0.0 0.0 .
1153(19) 0.0 0.0 .
1162(18) 0.0 0.0 .
1137(18) 0.0 0.0 .
1087(17) 0.0 0.0 .
1132(18) 0.0 0.0 .
1184(19) 0.0 0.0 .
1150(18) 0.0 0.0 .
1116(17) 0.0 0.0 .
1168(18) 0.0 0.0 .
1120(18) 0.0 0.0 .
1193(19) 0.0 0.0 .
1147(18) 0.0 0.0 .
1184(18) 0.0 0.0 .
1201(18) 0.0 0.0 .
1180(19) 0.0 0.0 .
1174(18) 0.0 0.0 .
1243(19) 0.0 0.0 .
1160(18) 0.0 0.0 .
1192(19) 0.0 0.0 .
1172(19) 0.0 0.0 .
1170(18) 0.0 0.0 .
1141(18) 0.0 0.0 .
1218(18) 0.0 0.0 .
1253(19) 0.0 0.0 .
1191(19) 0.0 0.0 .
1252(19) 0.0 0.0 .
1235(18) 0.0 0.0 .
1218(18) 0.0 0.0 .
1204(19) 0.0 0.0 .
1246(20) 0.0 0.0 .
1250(19) 0.0 0.0 .
1225(18) 0.0 0.0 .
1236(18) 0.0 0.0 .
1222(19) 0.0 0.0 .
1265(20) 0.0 0.0 .
1206(19) 0.0 0.0 .
1271(19) 0.0 0.0 .
1279(19) 0.0 0.0 .
1259(19) 0.0 0.0 .
1248(20) 0.0 0.0 .
1282(19) 0.0 0.0 .
1247(18) 0.0 0.0 .
1272(19) 0.0 0.0 .
1275(19) 0.0 0.0 .
1276(19) 0.0 0.0 .
1347(20) 0.0 0.0 .
1362(19) 0.0 0.0 .
1288(19) 0.0 0.0 .
1338(20) 0.0 0.0 .
1255(19) 0.0 0.0 .
1308(20) 0.0 0.0 .
1307(19) 0.0 0.0 .
1305(19) 0.0 0.0 .
1337(20) 0.0 0.0 .
1305(20) 0.0 0.0 .
1296(19) 0.0 0.0 .
1318(19) 0.0 0.0 .
1318(19) 0.0 0.0 .
1352(20) 0.0 0.0 .
1348(20) 0.0 0.0 .
1307(19) 0.0 0.0 .
1372(19) 0.0 0.0 .
1350(20) 0.0 0.0 .
1319(20) 0.0 0.0 .
1379(20) 0.0 0.0 .
1333(19) 0.0 0.0 .
1338(19) 0.0 0.0 .
1354(20) 0.0 0.0 .
1347(20) 0.0 0.0 .
1399(20) 0.0 0.0 .
1370(19) 0.0 0.0 .
1362(19) 0.0 0.0 .
1412(20) 0.0 0.0 .
1433(21) 0.0 0.0 .
1364(20) 0.0 0.0 .
1372(19) 0.0 0.0 .
1483(20) 0.0 0.0 .
1404(20) 0.0 0.0 .
1389(21) 0.0 0.0 .
1386(20) 0.0 0.0 .
1359(19) 0.0 0.0 .
1375(19) 0.0 0.0 .
1371(20) 0.0 0.0 .
1387(21) 0.0 0.0 .
1413(20) 0.0 0.0 .
1421(20) 0.0 0.0 .
1427(20) 0.0 0.0 .
1414(20) 0.0 0.0 .
1382(21) 0.0 0.0 .
1356(20) 0.0 0.0 .
1403(19) 0.0 0.0 .
1434(20) 0.0 0.0 .
1369(20) 0.0 0.0 .
1417(21) 0.0 0.0 .
1410(20) 0.0 0.0 .
1485(20) 0.0 0.0 .
1449(20) 0.0 0.0 .
1441(20) 0.0 0.0 .
1520(21) 0.0 0.0 .
1490(21) 0.0 0.0 .
1403(19) 0.0 0.0 .
1447(20) 0.0 0.0 .
1383(20) 0.0 0.0 .
1451(21) 0.0 0.0 .
1445(20) 0.0 0.0 .
1417(20) 0.0 0.0 .
1439(20) 0.0 0.0 .
1452(21) 0.0 0.0 .
1441(21) 0.0 0.0 .
1461(20) 0.0 0.0 .
1407(19) 0.0 0.0 .
1445(20) 0.0 0.0 .
1480(21) 0.0 0.0 .
1448(21) 0.0 0.0 .
1437(20) 0.0 0.0 .
1493(20) 0.0 0.0 .
1434(20) 0.0 0.0 .
1478(21) 0.0 0.0 .
1455(20) 0.0 0.0 .
1424(20) 0.0 0.0 .
1395(19) 0.0 0.0 .
1467(21) 0.0 0.0 .
1415(20) 0.0 0.0 .
1420(20) 0.0 0.0 .
1448(20) 0.0 0.0 .
1479(20) 0.0 0.0 .
1462(21) 0.0 0.0 .
1420(21) 0.0 0.0 .
1441(20) 0.0 0.0 .
1486(20) 0.0 0.0 .
1412(20) 0.0 0.0 .
1442(20) 0.0 0.0 .
1451(21) 0.0 0.0 .
1422(20) 0.0 0.0 .
1418(20) 0.0 0.0 .
1428(20) 0.0 0.0 .
1458(20) 0.0 0.0 .
1449(21) 0.0 0.0 .
1431(20) 0.0 0.0 .
1428(20) 0.0 0.0 .
1434(20) 0.0 0.0 .
1480(20) 0.0 0.0 .
1435(21) 0.0 0.0 .
1423(20) 0.0 0.0 .
1471(20) 0.0 0.0 .
1471(20) 0.0 0.0 .
1438(20) 0.0 0.0 .
1474(21) 0.0 0.0 .
1440(20) 0.0 0.0 .
1441(20) 0.0 0.0 .
1440(20) 0.0 0.0 .
1437(20) 0.0 0.0 .
1430(20) 0.0 0.0 .
1471(21) 0.0 0.0 .
1474(20) 0.0 0.0 .
1466(20) 0.0 0.0 .
1462(21) 0.0 0.0 .
1466(21) 0.0 0.0 .
1397(20) 0.0 0.0 .
1474(20) 0.0 0.0 .
1404(20) 0.0 0.0 .
1419(20) 0.0 0.0 .
1478(21) 0.0 0.0 .
1446(20) 0.0 0.0 .
1445(20) 0.0 0.0 .
1474(21) 0.0 0.0 .
1473(21) 0.0 0.0 .
1467(21) 0.0 0.0 .
1410(20) 0.0 0.0 .
1447(20) 0.0 0.0 .
1421(20) 0.0 0.0 .
1373(20) 0.0 0.0 .
1413(20) 0.0 0.0 .
1413(20) 0.0 0.0 .
1413(19) 0.0 0.0 .
1397(20) 0.0 0.0 .
1433(21) 0.0 0.0 .
1435(20) 0.0 0.0 .
1411(20) 0.0 0.0 .
1457(20) 0.0 0.0 .
1421(20) 0.0 0.0 .
1436(21) 0.0 0.0 .
1395(20) 0.0 0.0 .
1419(20) 0.0 0.0 .
1492(20) 0.0 0.0 .
1465(20) 0.0 0.0 .
1456(21) 0.0 0.0 .
1427(20) 0.0 0.0 .
1487(20) 0.0 0.0 .
1437(20) 0.0 0.0 .
1358(20) 0.0 0.0 .
1429(21) 0.0 0.0 .
1386(20) 0.0 0.0 .
1450(20) 0.0 0.0 .
1412(20) 0.0 0.0 .
1434(20) 0.0 0.0 .
1408(21) 0.0 0.0 .
1381(20) 0.0 0.0 .
1431(20) 0.0 0.0 .
1386(20) 0.0 0.0 .
1359(20) 0.0 0.0 .
1393(20) 0.0 0.0 .
1438(21) 0.0 0.0 .
1431(20) 0.0 0.0 .
1381(20) 0.0 0.0 .
1401(20) 0.0 0.0 .
1416(20) 0.0 0.0 .
1372(20) 0.0 0.0 .
1418(20) 0.0 0.0 .
1430(20) 0.0 0.0 .
1427(20) 0.0 0.0 .
1401(20) 0.0 0.0 .
1354(19) 0.0 0.0 .
1417(20) 0.0 0.0 .
1407(20) 0.0 0.0 .
1403(21) 0.0 0.0 .
1341(20) 0.0 0.0 .
1467(20) 0.0 0.0 .
1439(20) 0.0 0.0 .
1392(20) 0.0 0.0 .
1396(20) 0.0 0.0 .
1431(20) 0.0 0.0 .
1420(20) 0.0 0.0 .
1423(20) 0.0 0.0 .
1404(20) 0.0 0.0 .
1402(21) 0.0 0.0 .
1396(20) 0.0 0.0 .
1384(19) 0.0 0.0 .
1395(19) 0.0 0.0 .
1430(20) 0.0 0.0 .
1364(20) 0.0 0.0 .
1399(20) 0.0 0.0 .
1393(19) 0.0 0.0 .
1402(19) 0.0 0.0 .
1388(20) 0.0 0.0 .
1386(21) 0.0 0.0 .
1382(20) 0.0 0.0 .
1374(19) 0.0 0.0 .
1427(20) 0.0 0.0 .
1456(20) 0.0 0.0 .
1439(21) 0.0 0.0 .
1376(20) 0.0 0.0 .
1414(20) 0.0 0.0 .
1403(20) 0.0 0.0 .
1363(20) 0.0 0.0 .
1359(20) 0.0 0.0 .
1384(20) 0.0 0.0 .
1412(20) 0.0 0.0 .
1425(20) 0.0 0.0 .
1399(20) 0.0 0.0 .
1431(21) 0.0 0.0 .
1375(20) 0.0 0.0 .
1418(20) 0.0 0.0 .
1424(20) 0.0 0.0 .
1348(20) 0.0 0.0 .
1345(20) 0.0 0.0 .
1406(20) 0.0 0.0 .
1387(19) 0.0 0.0 .
1392(20) 0.0 0.0 .
1364(20) 0.0 0.0 .
1389(20) 0.0 0.0 .
1361(19) 0.0 0.0 .
1401(19) 0.0 0.0 .
1316(19) 0.0 0.0 .
1383(20) 0.0 0.0 .
1334(19) 0.0 0.0 .
1417(20) 0.0 0.0 .
1370(19) 0.0 0.0 .
1391(20) 0.0 0.0 .
1315(20) 0.0 0.0 .
1370(20) 0.0 0.0 .
1410(20) 0.0 0.0 .
1378(19) 0.0 0.0 .
1396(20) 0.0 0.0 .
1381(20) 0.0 0.0 .
1361(20) 0.0 0.0 .
1323(19) 0.0 0.0 .
1361(19) 0.0 0.0 .
1333(19) 0.0 0.0 .
1377(21) 0.0 0.0 .
1367(20) 0.0 0.0 .
1392(19) 0.0 0.0 .
1393(19) 0.0 0.0 .
1369(20) 0.0 0.0 .
1383(21) 0.0 0.0 .
1344(19) 0.0 0.0 .
1374(19) 0.0 0.0 .
1351(19) 0.0 0.0 .
1331(19) 0.0 0.0 .
1330(20) 0.0 0.0 .
1393(20) 0.0 0.0 .
1358(19) 0.0 0.0 .
1363(19) 0.0 0.0 .
1333(19) 0.0 0.0 .
1312(20) 0.0 0.0 .
1395(20) 0.0 0.0 .
1344(19) 0.0 0.0 .
1358(19) 0.0 0.0 .
1344(19) 0.0 0.0 .
1332(20) 0.0 0.0 .
1295(19) 0.0 0.0 .
1267(18) 0.0 0.0 .
1309(19) 0.0 0.0 .
1339(20) 0.0 0.0 .
1338(20) 0.0 0.0 .
1366(20) 0.0 0.0 .
1346(19) 0.0 0.0 .
1311(19) 0.0 0.0 .
1321(20) 0.0 0.0 .
1354(20) 0.0 0.0 .
1332(19) 0.0 0.0 .
1302(19) 0.0 0.0 .
1334(20) 0.0 0.0 .
1347(20) 0.0 0.0 .
1307(19) 0.0 0.0 .
1340(19) 0.0 0.0 .
1279(19) 0.0 0.0 .
1279(19) 0.0 0.0 .
1318(20) 0.0 0.0 .
1309(19) 0.0 0.0 .
1262(19) 0.0 0.0 .
1342(19) 0.0 0.0 .
1285(19) 0.0 0.0 .
1294(20) 0.0 0.0 .
1303(20) 0.0 0.0 .
1342(19) 0.0 0.0 .
1329(19) 0.0 0.0 .
1310(19) 0.0 0.0 .
1295(20) 0.0 0.0 .
1258(19) 0.0 0.0 .
1295(19) 0.0 0.0 .
1275(19) 0.0 0.0 .
1319(19) 0.0 0.0 .
1281(20) 0.0 0.0 .
1319(20) 0.0 0.0 .
1302(19) 0.0 0.0 .
1264(18) 0.0 0.0 .
1275(19) 0.0 0.0 .
1282(20) 0.0 0.0 .
1322(20) 0.0 0.0 .
1278(19) 0.0 0.0 .
1319(19) 0.0 0.0 .
1305(19) 0.0 0.0 .
1267(20) 0.0 0.0 .
1210(19) 0.0 0.0 .
1227(18) 0.0 0.0 .
1288(19) 0.0 0.0 .
1290(19) 0.0 0.0 .
1278(19) 0.0 0.0 .
1282(19) 0.0 0.0 .
1249(18) 0.0 0.0 .
1313(19) 0.0 0.0 .
1334(20) 0.0 0.0 .
1273(19) 0.0 0.0 .
1270(19) 0.0 0.0 .
1260(18) 0.0 0.0 .
1297(19) 0.0 0.0 .
1267(19) 0.0 0.0 .
1228(19) 0.0 0.0 .
1224(19) 0.0 0.0 .
1276(19) 0.0 0.0 .
1275(19) 0.0 0.0 .
1279(20) 0.0 0.0 .
1249(19) 0.0 0.0 .
1295(19) 0.0 0.0 .
1256(18) 0.0 0.0 .
1246(19) 0.0 0.0 .
1267(19) 0.0 0.0 .
1266(19) 0.0 0.0 .
1300(19) 0.0 0.0 .
1274(18) 0.0 0.0 .
1271(19) 0.0 0.0 .
1282(20) 0.0 0.0 .
1195(18) 0.0 0.0 .
1234(18) 0.0 0.0 .
1301(19) 0.0 0.0 .
1262(19) 0.0 0.0 .
1233(19) 0.0 0.0 .
1285(19) 0.0 0.0 .
1284(19) 0.0 0.0 .
1278(19) 0.0 0.0 .
1254(19) 0.0 0.0 .
1255(20) 0.0 0.0 .
1225(19) 0.0 0.0 .
1239(18) 0.0 0.0 .
1216(18) 0.0 0.0 .
1257(19) 0.0 0.0 .
1252(20) 0.0 0.0 .
1200(19) 0.0 0.0 .
1255(18) 0.0 0.0 .
1263(19) 0.0 0.0 .
1282(19) 0.0 0.0 .
1243(19) 0.0 0.0 .
1241(19) 0.0 0.0 .
1197(18) 0.0 0.0 .
1227(18) 0.0 0.0 .
1250(19) 0.0 0.0 .
1241(19) 0.0 0.0 .
1232(19) 0.0 0.0 .
1211(18) 0.0 0.0 .
1188(18) 0.0 0.0 .
1209(19) 0.0 0.0 .
1235(19) 0.0 0.0 .
1226(19) 0.0 0.0 .
1225(18) 0.0 0.0 .
1185(18) 0.0 0.0 .
1254(19) 0.0 0.0 .
1222(19) 0.0 0.0 .
1213(19) 0.0 0.0 .
1192(18) 0.0 0.0 .
1194(18) 0.0 0.0 .
1192(19) 0.0 0.0 .
1216(19) 0.0 0.0 .
1222(19) 0.0 0.0 .
1222(18) 0.0 0.0 .
1207(18) 0.0 0.0 .
1217(19) 0.0 0.0 .
1186(18) 0.0 0.0 .
1203(18) 0.0 0.0 .
1182(18) 0.0 0.0 .
1199(19) 0.0 0.0 .
1214(19) 0.0 0.0 .
1202(19) 0.0 0.0 .
1191(18) 0.0 0.0 .
1198(18) 0.0 0.0 .
1213(19) 0.0 0.0 .
1202(19) 0.0 0.0 .
1251(19) 0.0 0.0 .
1247(18) 0.0 0.0 .
1230(18) 0.0 0.0 .
1203(18) 0.0 0.0 .
1215(20) 0.0 0.0 .
1188(19) 0.0 0.0 .
1244(18) 0.0 0.0 .
1225(18) 0.0 0.0 .
1201(19) 0.0 0.0 .
1164(19) 0.0 0.0 .
1156(18) 0.0 0.0 .
1163(18) 0.0 0.0 .
1133(18) 0.0 0.0 .
1199(19) 0.0 0.0 .
1190(19) 0.0 0.0 .
1157(18) 0.0 0.0 .
1151(18) 0.0 0.0 .
1112(17) 0.0 0.0 .
1169(18) 0.0 0.0 .
1190(19) 0.0 0.0 .
1152(18) 0.0 0.0 .
1135(18) 0.0 0.0 .
1141(18) 0.0 0.0 .
1200(19) 0.0 0.0 .
1208(19) 0.0 0.0 .
1195(19) 0.0 0.0 .
1142(18) 0.0 0.0 .
1149(18) 0.0 0.0 .
1134(18) 0.0 0.0 .
1149(19) 0.0 0.0 .
1149(18) 0.0 0.0 .
1217(18) 0.0 0.0 .
1165(18) 0.0 0.0 .
1174(19) 0.0 0.0 .
1177(19) 0.0 0.0 .
1190(18) 0.0 0.0 .
1123(17) 0.0 0.0 .
1221(19) 0.0 0.0 .
1201(19) 0.0 0.0 .
1174(18) 0.0 0.0 .
1191(18) 0.0 0.0 .
1185(18) 0.0 0.0 .
1184(19) 0.0 0.0 .
1162(19) 0.0 0.0 .
1184(19) 0.0 0.0 .
1148(18) 0.0 0.0 .
1142(18) 0.0 0.0 .
1115(18) 0.0 0.0 .
1205(19) 0.0 0.0 .
1177(18) 0.0 0.0 .
1167(18) 0.0 0.0 .
1131(17) 0.0 0.0 .
1150(18) 0.0 0.0 .
1175(19) 0.0 0.0 .
1235(19) 0.0 0.0 .
1189(18) 0.0 0.0 .
1143(18) 0.0 0.0 .
1170(18) 0.0 0.0 .
1199(19) 0.0 0.0 .
1140(18) 0.0 0.0 .
1150(18) 0.0 0.0 .
1123(17) 0.0 0.0 .
1155(18) 0.0 0.0 .
1133(19) 0.0 0.0 .
1179(18) 0.0 0.0 .
1119(17) 0.0 0.0 .
1157(18) 0.0 0.0 .
1162(18) 0.0 0.0 .
1120(18) 0.0 0.0 .
1128(18) 0.0 0.0 .
1099(17) 0.0 0.0 .
1118(17) 0.0 0.0 .
1127(18) 0.0 0.0 .
1131(18) 0.0 0.0 .
1177(19) 0.0 0.0 .
1174(18) 0.0 0.0 .
1127(18) 0.0 0.0 .
1200(19) 0.0 0.0 .
1118(18) 0.0 0.0 .
1151(18) 0.0 0.0 .
1136(17) 0.0 0.0 .
1122(18) 0.0 0.0 .
1131(18) 0.0 0.0 .
1073(18) 0.0 0.0 .
1054(17) 0.0 0.0 .
1121(17) 0.0 0.0 .
1115(18) 0.0 0.0 .
1126(18) 0.0 0.0 .
1126(18) 0.0 0.0 .
1127(18) 0.0 0.0 .
1121(17) 0.0 0.0 .
1121(18) 0.0 0.0 .
1120(18) 0.0 0.0 .
1133(18) 0.0 0.0 .
1146(18) 0.0 0.0 .
1115(17) 0.0 0.0 .
1102(18) 0.0 0.0 .
1149(19) 0.0 0.0 .
1106(18) 0.0 0.0 .
1113(17) 0.0 0.0 .
1098(17) 0.0 0.0 .
1135(18) 0.0 0.0 .
1095(18) 0.0 0.0 .
1102(18) 0.0 0.0 .
1113(17) 0.0 0.0 .
1116(17) 0.0 0.0 .
1104(18) 0.0 0.0 .
1120(19) 0.0 0.0 .
1148(18) 0.0 0.0 .
1106(17) 0.0 0.0 .
1072(17) 0.0 0.0 .
1130(18) 0.0 0.0 .
1121(19) 0.0 0.0 .
1112(18) 0.0 0.0 .
1107(17) 0.0 0.0 .
1110(17) 0.0 0.0 .
1107(18) 0.0 0.0 .
1093(18) 0.0 0.0 .
1099(18) 0.0 0.0 .
1092(17) 0.0 0.0 .
1087(17) 0.0 0.0 .
1065(18) 0.0 0.0 .
1126(18) 0.0 0.0 .
1077(18) 0.0 0.0 .
1111(17) 0.0 0.0 .
1091(17) 0.0 0.0 .
1084(18) 0.0 0.0 .
1078(18) 0.0 0.0 .
1136(18) 0.0 0.0 .
1086(17) 0.0 0.0 .
1105(18) 0.0 0.0 .
1100(18) 0.0 0.0 .
1102(18) 0.0 0.0 .
1085(18) 0.0 0.0 .
1110(17) 0.0 0.0 .
1113(18) 0.0 0.0 .
1129(18) 0.0 0.0 .
1093(18) 0.0 0.0 .
1089(17) 0.0 0.0 .
1076(17) 0.0 0.0 .
1098(18) 0.0 0.0 .
1012(17) 0.0 0.0 .
1032(17) 0.0 0.0 .
1050(17) 0.0 0.0 .
1080(17) 0.0 0.0 .
1056(17) 0.0 0.0 .
1051(18) 0.0 0.0 .
1090(18) 0.0 0.0 .
1119(18) 0.0 0.0 .
1068(17) 0.0 0.0 .
1077(18) 0.0 0.0 .
1081(18) 0.0 0.0 .
1100(18) 0.0 0.0 .
1069(17) 0.0 0.0 .
1060(17) 0.0 0.0 .
1080(18) 0.0 0.0 .
1117(19) 0.0 0.0 .
1068(17) 0.0 0.0 .
1064(17) 0.0 0.0 .
1106(17) 0.0 0.0 .
1056(17) 0.0 0.0 .
1067(18) 0.0 0.0 .
1096(18) 0.0 0.0 .
1115(17) 0.0 0.0 .
1097(17) 0.0 0.0 .
1095(18) 0.0 0.0 .
1074(18) 0.0 0.0 .
1064(17) 0.0 0.0 .
1031(17) 0.0 0.0 .
1037(17) 0.0 0.0 .
1060(17) 0.0 0.0 .
1091(18) 0.0 0.0 .
1047(17) 0.0 0.0 .
1083(17) 0.0 0.0 .
1037(17) 0.0 0.0 .
1100(18) 0.0 0.0 .
983(17) 0.0 0.0 .
1050(17) 0.0 0.0 .
1039(17) 0.0 0.0 .
1125(18) 0.0 0.0 .
1021(17) 0.0 0.0 .
1083(18) 0.0 0.0 .
1054(17) 0.0 0.0 .
1044(17) 0.0 0.0 .
1033(17) 0.0 0.0 .
1052(18) 0.0 0.0 .
1056(18) 0.0 0.0 .
1020(17) 0.0 0.0 .
1050(17) 0.0 0.0 .
1069(18) 0.0 0.0 .
1028(18) 0.0 0.0 .
978(17) 0.0 0.0 .
1009(17) 0.0 0.0 .
1031(17) 0.0 0.0 .
1000(17) 0.0 0.0 .
1058(18) 0.0 0.0 .
1051(17) 0.0 0.0 .
1056(17) 0.0 0.0 .
1063(17) 0.0 0.0 .
1078(18) 0.0 0.0 .
1076(18) 0.0 0.0 .
1038(17) 0.0 0.0 .
1046(17) 0.0 0.0 .
1057(17) 0.0 0.0 .
1040(17) 0.0 0.0 .
1038(18) 0.0 0.0 .
1050(17) 0.0 0.0 .
1021(17) 0.0 0.0 .
1000(16) 0.0 0.0 .
1022(17) 0.0 0.0 .
987(18) 0.0 0.0 .
1020(17) 0.0 0.0 .
1010(17) 0.0 0.0 .
1052(17) 0.0 0.0 .
1048(17) 0.0 0.0 .
1012(18) 0.0 0.0 .
1012(17) 0.0 0.0 .
1038(17) 0.0 0.0 .
1042(17) 0.0 0.0 .
1038(17) 0.0 0.0 .
1050(18) 0.0 0.0 .
1008(17) 0.0 0.0 .
982(16) 0.0 0.0 .
1000(17) 0.0 0.0 .
1039(17) 0.0 0.0 .
966(17) 0.0 0.0 .
974(17) 0.0 0.0 .
987(16) 0.0 0.0 .
1046(17) 0.0 0.0 .
973(17) 0.0 0.0 .
1001(17) 0.0 0.0 .
1033(17) 0.0 0.0 .
1051(17) 0.0 0.0 .
1042(17) 0.0 0.0 .
1027(18) 0.0 0.0 .
1027(17) 0.0 0.0 .
1097(18) 0.0 0.0 .
965(16) 0.0 0.0 .
1041(17) 0.0 0.0 .
987(17) 0.0 0.0 .
1005(17) 0.0 0.0 .
1000(17) 0.0 0.0 .
1005(16) 0.0 0.0 .
955(17) 0.0 0.0 .
1025(17) 0.0 0.0 .
1030(17) 0.0 0.0 .
982(16) 0.0 0.0 .
967(16) 0.0 0.0 .
980(17) 0.0 0.0 .
986(17) 0.0 0.0 .
993(17) 0.0 0.0 .
1009(17) 0.0 0.0 .
983(16) 0.0 0.0 .
991(17) 0.0 0.0 .
1021(18) 0.0 0.0 .
1032(17) 0.0 0.0 .
977(16) 0.0 0.0 .
1002(16) 0.0 0.0 .
1018(17) 0.0 0.0 .
1000(18) 0.0 0.0 .
997(17) 0.0 0.0 .
1004(16) 0.0 0.0 .
977(16) 0.0 0.0 .
1022(17) 0.0 0.0 .
1007(18) 0.0 0.0 .
1000(17) 0.0 0.0 .
980(16) 0.0 0.0 .
995(17) 0.0 0.0 .
989(17) 0.0 0.0 .
953(17) 0.0 0.0 .
1022(17) 0.0 0.0 .
971(16) 0.0 0.0 .
950(16) 0.0 0.0 .
953(17) 0.0 0.0 .
964(17) 0.0 0.0 .
955(17) 0.0 0.0 .
950(16) 0.0 0.0 .
978(17) 0.0 0.0 .
959(17) 0.0 0.0 .
975(17) 0.0 0.0 .
998(17) 0.0 0.0 .
1003(16) 0.0 0.0 .
961(16) 0.0 0.0 .
986(17) 0.0 0.0 .
962(17) 0.0 0.0 .
968(17) 0.0 0.0 .
969(16) 0.0 0.0 .
986(17) 0.0 0.0 .
939(17) 0.0 0.0 .
968(17) 0.0 0.0 .
972(16) 0.0 0.0 .
961(16) 0.0 0.0 .
929(16) 0.0 0.0 .
934(17) 0.0 0.0 .
960(17) 0.0 0.0 .
936(16) 0.0 0.0 .
968(16) 0.0 0.0 .
950(17) 0.0 0.0 .
964(17) 0.0 0.0 .
970(17) 0.0 0.0 .
966(16) 0.0 0.0 .
993(16) 0.0 0.0 .
965(17) 0.0 0.0 .
916(17) 0.0 0.0 .
976(17) 0.0 0.0 .
952(16) 0.0 0.0 .
936(16) 0.0 0.0 .
959(17) 0.0 0.0 .
947(17) 0.0 0.0 .
931(16) 0.0 0.0 .
968(16) 0.0 0.0 .
928(16) 0.0 0.0 .
929(16) 0.0 0.0 .
946(17) 0.0 0.0 .
924(16) 0.0 0.0 .
975(16) 0.0 0.0 .
952(16) 0.0 0.0 .
994(17) 0.0 0.0 .
959(17) 0.0 0.0 .
913(16) 0.0 0.0 .
891(16) 0.0 0.0 .
957(16) 0.0 0.0 .
902(16) 0.0 0.0 .
927(17) 0.0 0.0 .
988(17) 0.0 0.0 .
957(16) 0.0 0.0 .
941(16) 0.0 0.0 .
953(17) 0.0 0.0 .
962(17) 0.0 0.0 .
905(16) 0.0 0.0 .
933(16) 0.0 0.0 .
956(16) 0.0 0.0 .
901(16) 0.0 0.0 .
972(17) 0.0 0.0 .
958(16) 0.0 0.0 .
936(16) 0.0 0.0 .
971(16) 0.0 0.0 .
927(17) 0.0 0.0 .
922(16) 0.0 0.0 .
931(16) 0.0 0.0 .
934(16) 0.0 0.0 .
926(16) 0.0 0.0 .
924(16) 0.0 0.0 .
974(17) 0.0 0.0 .
899(16) 0.0 0.0 .
956(16) 0.0 0.0 .
919(16) 0.0 0.0 .
918(17) 0.0 0.0 .
924(16) 0.0 0.0 .
905(16) 0.0 0.0 .
895(15) 0.0 0.0 .
909(16) 0.0 0.0 .
913(17) 0.0 0.0 .
912(16) 0.0 0.0 .
934(16) 0.0 0.0 .
935(16) 0.0 0.0 .
906(16) 0.0 0.0 .
900(17) 0.0 0.0 .
904(16) 0.0 0.0 .
912(16) 0.0 0.0 .
879(15) 0.0 0.0 .
873(16) 0.0 0.0 .
908(17) 0.0 0.0 .
969(17) 0.0 0.0 .
909(16) 0.0 0.0 .
894(16) 0.0 0.0 .
897(16) 0.0 0.0 .
912(17) 0.0 0.0 .
884(16) 0.0 0.0 .
933(16) 0.0 0.0 .
944(16) 0.0 0.0 .
916(16) 0.0 0.0 .
916(17) 0.0 0.0 .
946(16) 0.0 0.0 .
919(16) 0.0 0.0 .
897(16) 0.0 0.0 .
904(16) 0.0 0.0 .
904(17) 0.0 0.0 .
894(16) 0.0 0.0 .
850(15) 0.0 0.0 .
870(16) 0.0 0.0 .
878(16) 0.0 0.0 .
894(16) 0.0 0.0 .
920(16) 0.0 0.0 .
887(15) 0.0 0.0 .
893(16) 0.0 0.0 .
897(16) 0.0 0.0 .
882(16) 0.0 0.0 .
878(16) 0.0 0.0 .
914(16) 0.0 0.0 .
886(16) 0.0 0.0 .
873(16) 0.0 0.0 .
874(16) 0.0 0.0 .
865(15) 0.0 0.0 .
885(15) 0.0 0.0 .
901(16) 0.0 0.0 .
893(16) 0.0 0.0 .
900(16) 0.0 0.0 .
940(16) 0.0 0.0 .
883(15) 0.0 0.0 .
913(16) 0.0 0.0 .
908(17) 0.0 0.0 .
897(16) 0.0 0.0 .
887(15) 0.0 0.0 .
858(15) 0.0 0.0 .
858(16) 0.0 0.0 .
890(17) 0.0 0.0 .
869(16) 0.0 0.0 .
860(15) 0.0 0.0 .
879(15) 0.0 0.0 .
892(16) 0.0 0.0 .
935(17) 0.0 0.0 .
882(16) 0.0 0.0 .
895(15) 0.0 0.0 .
892(16) 0.0 0.0 .
872(16) 0.0 0.0 .
867(16) 0.0 0.0 .
837(16) 0.0 0.0 .
884(15) 0.0 0.0 .
898(16) 0.0 0.0 .
879(16) 0.0 0.0 .
931(17) 0.0 0.0 .
870(16) 0.0 0.0 .
889(16) 0.0 0.0 .
864(15) 0.0 0.0 .
876(16) 0.0 0.0 .
906(17) 0.0 0.0 .
914(16) 0.0 0.0 .
843(15) 0.0 0.0 .
864(15) 0.0 0.0 .
892(16) 0.0 0.0 .
912(16) 0.0 0.0 .
928(16) 0.0 0.0 .
881(15) 0.0 0.0 .
856(16) 0.0 0.0 .
875(16) 0.0 0.0 .
867(16) 0.0 0.0 .
901(16) 0.0 0.0 .
901(16) 0.0 0.0 .
845(15) 0.0 0.0 .
901(16) 0.0 0.0 .
850(16) 0.0 0.0 .
854(15) 0.0 0.0 .
872(15) 0.0 0.0 .
889(16) 0.0 0.0 .
840(16) 0.0 0.0 .
857(16) 0.0 0.0 .
882(16) 0.0 0.0 .
893(15) 0.0 0.0 .
857(16) 0.0 0.0 .
852(16) 0.0 0.0 .
870(16) 0.0 0.0 .
909(16) 0.0 0.0 .
873(15) 0.0 0.0 .
884(16) 0.0 0.0 .
876(16) 0.0 0.0 .
866(16) 0.0 0.0 .
844(15) 0.0 0.0 .
872(15) 0.0 0.0 .
874(16) 0.0 0.0 .
889(17) 0.0 0.0 .
851(16) 0.0 0.0 .
864(15) 0.0 0.0 .
868(15) 0.0 0.0 .
861(16) 0.0 0.0 .
861(16) 0.0 0.0 .
812(15) 0.0 0.0 .
857(15) 0.0 0.0 .
857(15) 0.0 0.0 .
824(15) 0.0 0.0 .
885(16) 0.0 0.0 .
906(16) 0.0 0.0 .
872(15) 0.0 0.0 .
879(16) 0.0 0.0 .
813(15) 0.0 0.0 .
846(16) 0.0 0.0 .
856(16) 0.0 0.0 .
871(15) 0.0 0.0 .
879(16) 0.0 0.0 .
832(15) 0.0 0.0 .
816(15) 0.0 0.0 .
865(16) 0.0 0.0 .
857(15) 0.0 0.0 .
837(15) 0.0 0.0 .
881(16) 0.0 0.0 .
854(16) 0.0 0.0 .
891(16) 0.0 0.0 .
874(15) 0.0 0.0 .
867(15) 0.0 0.0 .
868(16) 0.0 0.0 .
840(16) 0.0 0.0 .
845(15) 0.0 0.0 .
803(15) 0.0 0.0 .
828(15) 0.0 0.0 .
850(16) 0.0 0.0 .
865(16) 0.0 0.0 .
827(15) 0.0 0.0 .
861(15) 0.0 0.0 .
854(16) 0.0 0.0 .
821(16) 0.0 0.0 .
831(15) 0.0 0.0 .
848(15) 0.0 0.0 .
819(15) 0.0 0.0 .
881(16) 0.0 0.0 .
862(16) 0.0 0.0 .
815(15) 0.0 0.0 .
834(15) 0.0 0.0 .
878(15) 0.0 0.0 .
868(16) 0.0 0.0 .
851(16) 0.0 0.0 .
834(16) 0.0 0.0 .
853(15) 0.0 0.0 .
874(15) 0.0 0.0 .
855(16) 0.0 0.0 .
816(16) 0.0 0.0 .
856(16) 0.0 0.0 .
791(15) 0.0 0.0 .
849(15) 0.0 0.0 .
830(15) 0.0 0.0 .
859(16) 0.0 0.0 .
878(16) 0.0 0.0 .
848(15) 0.0 0.0 .
816(15) 0.0 0.0 .
830(15) 0.0 0.0 .
850(16) 0.0 0.0 .
854(16) 0.0 0.0 .
812(15) 0.0 0.0 .
781(15) 0.0 0.0 .
819(15) 0.0 0.0 .
853(16) 0.0 0.0 .
850(16) 0.0 0.0 .
832(15) 0.0 0.0 .
893(16) 0.0 0.0 .
861(16) 0.0 0.0 .
817(15) 0.0 0.0 .
846(16) 0.0 0.0 .
818(15) 0.0 0.0 .
869(16) 0.0 0.0 .
872(16) 0.0 0.0 .
788(15) 0.0 0.0 .
842(15) 0.0 0.0 .
840(15) 0.0 0.0 .
796(15) 0.0 0.0 .
816(16) 0.0 0.0 .
867(16) 0.0 0.0 .
823(15) 0.0 0.0 .
859(15) 0.0 0.0 .
834(15) 0.0 0.0 .
832(16) 0.0 0.0 .
833(15) 0.0 0.0 .
843(15) 0.0 0.0 .
791(15) 0.0 0.0 .
850(16) 0.0 0.0 .
830(16) 0.0 0.0 .
829(15) 0.0 0.0 .
832(15) 0.0 0.0 .
817(15) 0.0 0.0 .
818(15) 0.0 0.0 .
878(16) 0.0 0.0 .
858(16) 0.0 0.0 .
852(15) 0.0 0.0 .
852(15) 0.0 0.0 .
852(16) 0.0 0.0 .
841(16) 0.0 0.0 .
836(15) 0.0 0.0 .
841(15) 0.0 0.0 .
826(15) 0.0 0.0 .
780(15) 0.0 0.0 .
851(16) 0.0 0.0 .
828(15) 0.0 0.0 .
837(15) 0.0 0.0 .
860(15) 0.0 0.0 .
809(15) 0.0 0.0 .
790(15) 0.0 0.0 .
811(15) 0.0 0.0 .
815(15) 0.0 0.0 .
853(15) 0.0 0.0 .
827(16) 0.0 0.0 .
816(16) 0.0 0.0 .
777(15) 0.0 0.0 .
865(15) 0.0 0.0 .
855(15) 0.0 0.0 .
812(15) 0.0 0.0 .
831(16) 0.0 0.0 .
817(15) 0.0 0.0 .
801(15) 0.0 0.0 .
805(15) 0.0 0.0 .
832(16) 0.0 0.0 .
822(15) 0.0 0.0 .
850(15) 0.0 0.0 .
789(15) 0.0 0.0 .
817(15) 0.0 0.0 .
793(15) 0.0 0.0 .
864(16) 0.0 0.0 .
839(15) 0.0 0.0 .
802(15) 0.0 0.0 .
810(15) 0.0 0.0 .
838(16) 0.0 0.0 .
861(16) 0.0 0.0 .
796(15) 0.0 0.0 .
813(15) 0.0 0.0 .
797(15) 0.0 0.0 .
832(16) 0.0 0.0 .
805(15) 0.0 0.0 .
777(15) 0.0 0.0 .
799(15) 0.0 0.0 .
820(15) 0.0 0.0 .
829(16) 0.0 0.0 .
810(15) 0.0 0.0 .
804(15) 0.0 0.0 .
842(15) 0.0 0.0 .
807(15) 0.0 0.0 .
843(16) 0.0 0.0 .
858(16) 0.0 0.0 .
848(15) 0.0 0.0 .
818(15) 0.0 0.0 .
824(16) 0.0 0.0 .
851(16) 0.0 0.0 .
857(16) 0.0 0.0 .
827(15) 0.0 0.0 .
842(15) 0.0 0.0 .
861(16) 0.0 0.0 .
814(15) 0.0 0.0 .
865(16) 0.0 0.0 .
820(15) 0.0 0.0 .
827(15) 0.0 0.0 .
785(15) 0.0 0.0 .
824(16) 0.0 0.0 .
806(15) 0.0 0.0 .
823(15) 0.0 0.0 .
828(15) 0.0 0.0 .
825(15) 0.0 0.0 .
828(16) 0.0 0.0 .
819(15) 0.0 0.0 .
802(15) 0.0 0.0 .
808(15) 0.0 0.0 .
833(16) 0.0 0.0 .
829(15) 0.0 0.0 .
830(15) 0.0 0.0 .
835(15) 0.0 0.0 .
855(16) 0.0 0.0 .
846(16) 0.0 0.0 .
824(15) 0.0 0.0 .
800(15) 0.0 0.0 .
833(15) 0.0 0.0 .
828(16) 0.0 0.0 .
842(16) 0.0 0.0 .
817(15) 0.0 0.0 .
844(15) 0.0 0.0 .
808(15) 0.0 0.0 .
846(16) 0.0 0.0 .
817(16) 0.0 0.0 .
823(15) 0.0 0.0 .
829(15) 0.0 0.0 .
836(15) 0.0 0.0 .
809(15) 0.0 0.0 .
847(16) 0.0 0.0 .
837(15) 0.0 0.0 .
845(15) 0.0 0.0 .
839(15) 0.0 0.0 .
814(15) 0.0 0.0 .
827(16) 0.0 0.0 .
816(15) 0.0 0.0 .
829(15) 0.0 0.0 .
833(15) 0.0 0.0 .
874(16) 0.0 0.0 .
847(16) 0.0 0.0 .
846(16) 0.0 0.0 .
853(15) 0.0 0.0 .
849(15) 0.0 0.0 .
832(15) 0.0 0.0 .
821(16) 0.0 0.0 .
826(15) 0.0 0.0 .
846(15) 0.0 0.0 .
822(15) 0.0 0.0 .
845(16) 0.0 0.0 .
818(16) 0.0 0.0 .
868(16) 0.0 0.0 .
876(15) 0.0 0.0 .
829(15) 0.0 0.0 .
830(15) 0.0 0.0 .
870(16) 0.0 0.0 .
863(16) 0.0 0.0 .
880(15) 0.0 0.0 .
828(15) 0.0 0.0 .
847(16) 0.0 0.0 .
864(16) 0.0 0.0 .
879(16) 0.0 0.0 .
823(15) 0.0 0.0 .
922(16) 0.0 0.0 .
899(16) 0.0 0.0 .
856(16) 0.0 0.0 .
825(15) 0.0 0.0 .
884(15) 0.0 0.0 .
886(16) 0.0 0.0 .
949(17) 0.0 0.0 .
897(16) 0.0 0.0 .
926(16) 0.0 0.0 .
910(16) 0.0 0.0 .
916(16) 0.0 0.0 .
910(16) 0.0 0.0 .
918(16) 0.0 0.0 .
965(16) 0.0 0.0 .
928(16) 0.0 0.0 .
904(16) 0.0 0.0 .
919(17) 0.0 0.0 .
949(17) 0.0 0.0 .
983(16) 0.0 0.0 .
971(16) 0.0 0.0 .
994(17) 0.0 0.0 .
1013(18) 0.0 0.0 .
1061(17) 0.0 0.0 .
1057(17) 0.0 0.0 .
1070(17) 0.0 0.0 .
1117(18) 0.0 0.0 .
1169(19) 0.0 0.0 .
1159(18) 0.0 0.0 .
1183(18) 0.0 0.0 .
1177(18) 0.0 0.0 .
1218(19) 0.0 0.0 .
1246(19) 0.0 0.0 .
1309(19) 0.0 0.0 .
1331(19) 0.0 0.0 .
1421(20) 0.0 0.0 .
1480(21) 0.0 0.0 .
1464(21) 0.0 0.0 .
1535(21) 0.0 0.0 .
1563(21) 0.0 0.0 .
1656(21) 0.0 0.0 .
1700(22) 0.0 0.0 .
1741(23) 0.0 0.0 .
1860(23) 0.0 0.0 .
1932(23) 0.0 0.0 .
1979(23) 0.0 0.0 .
2166(25) 0.0 0.0 .
2325(26) 0.0 0.0 .
2561(27) 0.0 0.0 .
2798(27) 0.0 0.0 .
3025(29) 0.0 0.0 .
3511(32) 0.0 0.0 .
4070(35) 0.0 0.0 .
4616(36) 0.0 0. .
5488(39) 0.0 0. .
6360(43) 0.0 0. .
7287(46) 0.0 0. .
8282(49) 0.0 0. .
9374(52) 0.0 0. .
10784(54) 0.0 0. .
12018(60) 0.0 0. .
13097(63) 0.0 0. .
14531(66) 0.0 0. .
16102(67) 0.0 0. .
17386(69) 0.0 0. .
19350(76) 0.0 0. .
21247(81) 0.0 0. .
23790(84) 0.0 0. .
26722(87) 0.0 0. .
30580(93) 0.0 0. .
34370(100) 0.0 0. .
38120(110) 0.0 0. .
41290(110) 0.0 0. .
41680(110) 0.0 0. .
37930(110) 0.0 0. .
31367(98) 0.0 0. .
25240(90) 0.0 0. .
20304(77) 0.0 0. .
16522(68) 0.0 0. .
13587(62) 0.0 0. .
11188(57) 0.0 0. .
9473(54) 0.0 0. .
7998(48) 0.0 0. .
6853(43) 0.0 0. .
5848(40) 0.0 0. .
5122(39) 0.0 0. .
4562(37) 0.0 0. .
3984(34) 0.0 0.0 .
3614(31) 0.0 0.0 .
3240(30) 0.0 0.0 .
2971(29) 0.0 0.0 .
2695(28) 0.0 0.0 .
2481(27) 0.0 0.0 .
2299(25) 0.0 0.0 .
2139(24) 0.0 0.0 .
1956(24) 0.0 0.0 .
1868(23) 0.0 0.0 .
1812(23) 0.0 0.0 .
1699(21) 0.0 0.0 .
1640(22) 0.0 0.0 .
1552(21) 0.0 0.0 .
1440(21) 0.0 0.0 .
1387(20) 0.0 0.0 .
1446(20) 0.0 0.0 .
1289(19) 0.0 0.0 .
1351(20) 0.0 0.0 .
1206(19) 0.0 0.0 .
1214(19) 0.0 0.0 .
1185(18) 0.0 0.0 .
1158(18) 0.0 0.0 .
1135(18) 0.0 0.0 .
1111(18) 0.0 0.0 .
1093(17) 0.0 0.0 .
1058(17) 0.0 0.0 .
1045(17) 0.0 0.0 .
1073(18) 0.0 0.0 .
1005(17) 0.0 0.0 .
996(16) 0.0 0.0 .
1008(16) 0.0 0.0 .
965(17) 0.0 0.0 .
938(17) 0.0 0.0 .
985(17) 0.0 0.0 .
952(16) 0.0 0.0 .
942(16) 0.0 0.0 .
921(16) 0.0 0.0 .
906(17) 0.0 0.0 .
912(16) 0.0 0.0 .
884(15) 0.0 0.0 .
911(16) 0.0 0.0 .
936(16) 0.0 0.0 .
866(16) 0.0 0.0 .
883(16) 0.0 0.0 .
929(16) 0.0 0.0 .
855(15) 0.0 0.0 .
880(16) 0.0 0.0 .
854(16) 0.0 0.0 .
861(16) 0.0 0.0 .
879(15) 0.0 0.0 .
894(16) 0.0 0.0 .
839(15) 0.0 0.0 .
883(16) 0.0 0.0 .
830(16) 0.0 0.0 .
822(15) 0.0 0.0 .
839(16) 0.0 0.0 .
870(16) 0.0 0.0 .
853(16) 0.0 0.0 .
811(15) 0.0 0.0 .
853(15) 0.0 0.0 .
852(16) 0.0 0.0 .
834(16) 0.0 0.0 .
825(16) 0.0 0.0 .
815(15) 0.0 0.0 .
806(15) 0.0 0.0 .
818(15) 0.0 0.0 .
829(16) 0.0 0.0 .
799(15) 0.0 0.0 .
792(15) 0.0 0.0 .
810(15) 0.0 0.0 .
828(15) 0.0 0.0 .
807(16) 0.0 0.0 .
808(15) 0.0 0.0 .
763(15) 0.0 0.0 .
811(15) 0.0 0.0 .
795(15) 0.0 0.0 .
781(15) 0.0 0.0 .
750(15) 0.0 0.0 .
711(14) 0.0 0.0 .
767(14) 0.0 0.0 .
814(15) 0.0 0.0 .
801(16) 0.0 0.0 .
745(15) 0.0 0.0 .
787(15) 0.0 0.0 .
776(15) 0.0 0.0 .
765(15) 0.0 0.0 .
762(15) 0.0 0.0 .
790(15) 0.0 0.0 .
789(15) 0.0 0.0 .
776(14) 0.0 0.0 .
763(15) 0.0 0.0 .
792(16) 0.0 0.0 .
796(15) 0.0 0.0 .
733(14) 0.0 0.0 .
766(14) 0.0 0.0 .
766(15) 0.0 0.0 .
796(16) 0.0 0.0 .
821(16) 0.0 0.0 .
749(14) 0.0 0.0 .
744(14) 0.0 0.0 .
778(15) 0.0 0.0 .
785(15) 0.0 0.0 .
765(15) 0.0 0.0 .
764(14) 0.0 0.0 .
772(15) 0.0 0.0 .
788(15) 0.0 0.0 .
761(15) 0.0 0.0 .
747(15) 0.0 0.0 .
769(14) 0.0 0.0 .
760(15) 0.0 0.0 .
810(16) 0.0 0.0 .
772(15) 0.0 0.0 .
780(15) 0.0 0.0 .
761(14) 0.0 0.0 .
769(15) 0.0 0.0 .
754(15) 0.0 0.0 .
771(15) 0.0 0.0 .
739(14) 0.0 0.0 .
735(14) 0.0 0.0 .
765(15) 0.0 0.0 .
779(15) 0.0 0.0 .
763(15) 0.0 0.0 .
794(15) 0.0 0.0 .
746(14) 0.0 0.0 .
809(16) 0.0 0.0 .
752(15) 0.0 0.0 .
752(15) 0.0 0.0 .
766(14) 0.0 0.0 .
765(14) 0.0 0.0 .
776(15) 0.0 0.0 .
764(15) 0.0 0.0 .
719(14) 0.0 0.0 .
757(14) 0.0 0.0 .
774(14) 0.0 0.0 .
754(15) 0.0 0.0 .
709(15) 0.0 0.0 .
731(14) 0.0 0.0 .
703(14) 0.0 0.0 .
752(14) 0.0 0.0 .
711(14) 0.0 0.0 .
743(15) 0.0 0.0 .
706(14) 0.0 0.0 .
762(14) 0.0 0.0 .
741(14) 0.0 0.0 .
748(15) 0.0 0.0 .
762(15) 0.0 0.0 .
755(15) 0.0 0.0 .
751(14) 0.0 0.0 .
759(14) 0.0 0.0 .
739(15) 0.0 0.0 .
740(15) 0.0 0.0 .
736(15) 0.0 0.0 .
743(14) 0.0 0.0 .
757(14) 0.0 0.0 .
712(14) 0.0 0.0 .
744(15) 0.0 0.0 .
749(15) 0.0 0.0 .
732(14) 0.0 0.0 .
684(14) 0.0 0.0 .
742(15) 0.0 0.0 .
722(15) 0.0 0.0 .
702(14) 0.0 0.0 .
723(14) 0.0 0.0 .
697(14) 0.0 0.0 .
694(14) 0.0 0.0 .
743(15) 0.0 0.0 .
721(14) 0.0 0.0 .
754(14) 0.0 0.0 .
725(14) 0.0 0.0 .
709(15) 0.0 0.0 .
700(14) 0.0 0.0 .
728(14) 0.0 0.0 .
711(14) 0.0 0.0 .
684(14) 0.0 0.0 .
726(15) 0.0 0.0 .
712(14) 0.0 0.0 .
711(14) 0.00503 708.0 24.1
729(14) 0.00511 708.0 23.8
731(14) 0.00476 707.9 23.6
704(14) 0.00480 707.8 23.4
752(15) 0.00451 707.6 23.1
698(14) 0.00527 707.4 22.9
732(14) 0.00505 707.3 22.7
713(14) 0.00489 707.1 22.5
688(15) 0.00472 706.9 22.3
721(14) 0.00476 706.7 22.1
725(14) 0.00510 706.6 21.9
697(14) 0.00532 706.4 21.7
697(14) 0.00476 706.2 21.5
690(15) 0.00467 706.0 21.3
710(14) 0.00491 705.9 21.1
729(14) 0.00509 705.7 20.9
719(14) 0.00515 705.5 20.7
701(14) 0.00491 705.3 20.5
707(15) 0.00467 705.2 20.3
760(15) 0.00452 705.0 20.2
754(14) 0.00495 704.8 20.0
727(14) 0.00496 704.6 19.8
719(14) 0.00491 704.5 19.6
673(14) 0.00490 704.3 19.5
698(14) 0.00481 704.1 19.3
699(14) 0.00533 703.9 19.1
717(14) 0.00501 703.8 19.0
737(15) 0.00470 703.6 18.8
715(15) 0.00470 703.4 18.7
719(14) 0.00487 703.2 18.5
700(14) 0.00531 703.1 18.4
719(14) 0.00493 702.9 18.2
730(15) 0.00467 702.7 18.1
672(14) 0.00502 702.5 17.9
681(14) 0.00511 702.4 17.8
710(14) 0.00517 702.2 17.6
681(14) 0.00519 702.0 17.5
691(14) 0.00487 701.8 17.4
691(14) 0.00497 701.7 17.2
692(14) 0.00523 701.5 17.1
724(14) 0.00507 701.3 17.0
704(14) 0.00507 701.1 16.8
716(15) 0.00474 701.0 16.7
697(14) 0.00477 700.8 16.6
687(14) 0.00520 700.6 16.5
694(14) 0.00536 700.5 16.3
694(14) 0.00490 700.3 16.2
710(15) 0.00470 700.1 16.1
708(15) 0.00472 699.9 16.0
699(14) 0.00514 699.8 15.9
668(13) 0.00554 699.6 15.8
730(15) 0.00462 699.4 15.7
699(14) 0.00479 699.2 15.6
711(14) 0.00486 699.1 15.4
728(14) 0.00504 698.9 15.3
669(13) 0.00554 698.7 15.2
665(14) 0.00525 698.5 15.1
669(14) 0.00495 698.4 15.0
740(14) 0.00477 698.2 14.9
722(14) 0.00516 698.0 14.8
696(14) 0.00537 697.8 14.7
720(14) 0.00481 697.7 14.7
702(15) 0.00459 697.5 14.6
687(14) 0.00515 697.3 14.5
722(14) 0.00515 697.1 14.4
722(14) 0.00513 697.0 14.3
689(14) 0.00514 696.8 14.2
673(14) 0.00495 696.6 14.1
703(14) 0.00506 696.4 14.0
669(13) 0.00558 696.3 14.0
665(13) 0.00557 696.1 13.9
681(14) 0.00499 695.9 13.8
713(15) 0.00465 695.7 13.7
716(14) 0.00485 695.6 13.7
694(14) 0.00541 695.4 13.6
677(14) 0.00529 695.2 13.5
660(14) 0.00521 695.0 13.4
690(15) 0.00471 694.9 13.4
696(14) 0.00481 694.7 13.3
711(14) 0.00522 694.5 13.2
707(14) 0.00506 694.3 13.2
752(15) 0.00445 694.2 13.1
696(14) 0.00494 694.0 13.0
729(14) 0.00478 693.8 13.0
705(14) 0.00527 693.6 12.9
684(14) 0.00532 693.5 12.9
719(15) 0.00470 693.3 12.8
668(14) 0.00514 693.1 12.8
670(14) 0.00526 693.0 12.7
707(14) 0.00526 692.8 12.7
694(14) 0.00518 692.6 12.6
677(14) 0.00510 692.4 12.6
677(14) 0.00504 692.3 12.5
717(14) 0.00490 692.1 12.5
673(13) 0.00549 691.9 12.4
667(14) 0.00512 691.7 12.4
677(14) 0.00497 691.6 12.3
691(14) 0.00496 691.4 12.3
700(14) 0.00513 691.2 12.3
700(14) 0.00531 691.0 12.2
669(14) 0.00521 690.9 12.2
697(15) 0.00475 690.7 12.2
687(14) 0.00512 690.5 12.1
664(13) 0.00552 690.3 12.1
683(14) 0.00544 690.2 12.1
707(14) 0.00490 690.0 12.1
664(14) 0.00506 689.8 12.1
668(14) 0.00523 689.6 12.0
681(14) 0.00542 689.5 12.0
693(14) 0.00534 689.3 12.0
726(14) 0.00478 689.1 12.0
684(14) 0.00486 688.9 12.0
670(14) 0.00527 688.8 12.0
686(14) 0.00532 688.6 12.0
673(14) 0.00546 688.4 12.0
662(14) 0.00530 688.2 12.0
703(15) 0.00467 688.1 12.0
701(14) 0.00509 687.9 12.0
705(14) 0.00530 687.7 12.0
699(14) 0.00524 687.5 12.0
665(14) 0.00531 687.4 12.0
694(15) 0.00473 687.2 12.1
711(14) 0.00476 687.0 12.1
694(14) 0.00537 686.8 12.1
657(14) 0.00546 686.7 12.2
674(14) 0.00514 686.5 12.2
679(14) 0.00498 686.3 12.2
692(14) 0.00502 686.2 12.3
663(13) 0.00560 686.0 12.3
697(14) 0.00518 685.8 12.4
684(14) 0.00509 685.6 12.5
697(15) 0.00475 685.5 12.5
713(14) 0.00481 685.3 12.6
708(14) 0.00527 685.1 12.7
684(14) 0.00520 684.9 12.8
673(14) 0.00508 684.8 12.9
660(14) 0.00515 684.6 13.0
651(14) 0.00528 684.4 13.1
684(14) 0.00540 684.2 13.2
658(14) 0.00539 684.1 13.4
692(14) 0.00494 683.9 13.5
704(14) 0.00499 683.7 13.7
675(14) 0.00524 683.5 13.8
693(14) 0.00536 683.4 14.0
709(14) 0.00478 683.2 14.2
725(15) 0.00465 683.0 14.4
684(14) 0.00508 682.8 14.6
692(14) 0.00530 682.7 14.9
672(13) 0.00551 682.5 15.1
710(14) 0.00493 682.3 15.4
696(14) 0.00480 682.1 15.7
678(14) 0.00519 682.0 16.1
731(14) 0.00493 681.8 16.4
669(13) 0.00554 681.6 16.8
649(14) 0.00541 681.4 17.2
657(14) 0.00508 681.3 17.7
697(14) 0.00494 681.1 18.1
695(14) 0.00530 680.9 18.7
697(14) 0.00532 680.7 19.3
717(14) 0.00477 680.6 19.9
695(15) 0.00470 680.4 20.6
669(14) 0.00527 680.2 21.3
687(14) 0.00537 680.0 22.1
709(14) 0.00524 679.9 23.0
705(14) 0.00492 679.7 24.0
695(15) 0.00464 679.5 25.1
704(14) 0.00492 679.4 26.3
670(13) 0.00556 679.2 27.7
691(14) 0.00528 679.0 29.2
741(15) 0.00468 678.8 30.9
737(15) 0.00449 678.7 32.8
723(14) 0.00476 678.5 35.1
733(14) 0.00510 678.3 37.6
734(14) 0.00499 678.1 40.6
739(15) 0.00472 678.0 44.1
772(15) 0.00419 677.8 48.2
725(14) 0.00482 677.6 53.1
778(14) 0.00481 677.4 59.0
779(15) 0.00464 677.3 66.0
758(15) 0.00454 677.1 74.3
779(15) 0.00420 676.9 84.1
774(15) 0.00447 676.7 95.7
794(15) 0.00467 676.6 109.3
783(15) 0.00459 676.4 125.0
794(15) 0.00438 676.2 142.9
848(16) 0.00393 676.0 163.2
844(16) 0.00405 675.9 185.5
888(15) 0.00419 675.7 209.7
910(16) 0.00391 675.5 234.9
860(16) 0.00401 675.3 260.1
880(16) 0.00393 675.2 283.6
954(17) 0.00367 675.0 303.3
963(16) 0.00388 674.8 316.9
909(16) 0.00382 674.6 322.6
927(17) 0.00361 674.5 319.4
882(16) 0.00399 674.3 308.0
891(16) 0.00406 674.1 289.8
911(16) 0.00404 673.9 267.1
853(16) 0.00401 673.8 242.2
824(16) 0.00404 673.6 216.8
786(15) 0.00437 673.4 192.2
760(15) 0.00472 673.2 169.2
761(14) 0.00490 673.1 148.2
746(15) 0.00464 672.9 129.5
749(15) 0.00451 672.7 113.1
731(15) 0.00475 672.5 98.9
732(14) 0.00501 672.4 86.6
739(14) 0.00502 672.2 76.2
698(14) 0.00513 672.0 67.4
692(14) 0.00478 671.9 60.0
714(14) 0.00482 671.7 53.8
669(13) 0.00553 671.5 48.6
668(13) 0.00550 671.3 44.2
707(14) 0.00481 671.2 40.4
684(15) 0.00467 671.0 37.2
706(14) 0.00496 670.8 34.5
752(14) 0.00490 670.6 32.1
690(14) 0.00528 670.5 30.1
708(14) 0.00491 670.3 28.2
707(15) 0.00470 670.1 26.6
676(14) 0.00512 669.9 25.1
668(13) 0.00551 669.8 23.8
688(14) 0.00537 669.6 22.6
673(14) 0.00502 669.4 21.5
647(14) 0.00512 669.2 20.6
641(14) 0.00543 669.1 19.7
694(14) 0.00536 668.9 18.8
676(14) 0.00536 668.7 18.1
672(14) 0.00510 668.5 17.4
665(14) 0.00510 668.4 16.7
683(14) 0.00508 668.2 16.1
661(13) 0.00562 668.0 15.5
655(13) 0.00556 667.8 15.0
677(14) 0.00525 667.7 14.5
700(14) 0.00497 667.5 14.1
680(14) 0.00508 667.3 13.6
656(13) 0.00565 667.1 13.2
702(14) 0.00496 667.0 12.9
711(15) 0.00474 666.8 12.5
661(14) 0.00519 666.6 12.2
640(13) 0.00559 666.4 11.9
672(13) 0.00551 666.3 11.6
646(14) 0.00546 666.1 11.3
639(14) 0.00533 665.9 11.0
676(14) 0.00503 665.7 10.8
681(14) 0.00523 665.6 10.6
625(13) 0.00597 665.4 10.3
672(14) 0.00508 665.2 10.1
638(14) 0.00536 665.1 9.9
701(14) 0.00492 664.9 9.7
694(14) 0.00520 664.7 9.5
686(14) 0.00544 664.5 9.4
680(14) 0.00505 664.4 9.2
637(14) 0.00516 664.2 9.0
663(14) 0.00532 664.0 8.9
699(14) 0.00528 663.8 8.7
682(14) 0.00543 663.7 8.6
665(14) 0.00530 663.5 8.5
718(15) 0.00438 663.3 8.3
655(14) 0.00541 663.1 8.2
664(13) 0.00554 663.0 8.1
685(14) 0.00544 662.8 8.0
686(14) 0.00492 662.6 7.9
640(14) 0.00496 662.4 7.7
678(14) 0.00521 662.3 7.6
712(14) 0.00522 662.1 7.5
687(14) 0.00536 661.9 7.4
671(14) 0.00514 661.7 7.4
656(14) 0.00498 661.6 7.3
664(14) 0.00529 661.4 7.2
665(13) 0.00566 661.2 7.1
674(14) 0.00547 661.0 7.0
647(14) 0.00545 660.9 6.9
629(14) 0.00532 660.7 6.9
659(14) 0.00526 660.5 6.8
685(14) 0.00545 660.3 6.7
685(14) 0.00531 660.2 6.6
670(14) 0.00522 660.0 6.6
664(14) 0.00508 659.8 6.5
675(14) 0.00504 659.6 6.4
676(13) 0.00552 659.5 6.4
653(13) 0.00549 659.3 6.3
665(14) 0.00515 659.1 6.3
663(14) 0.00501 658.9 6.2
664(14) 0.00531 658.8 6.1
650(13) 0.00569 658.6 6.1
668(14) 0.00538 658.4 6.0
677(14) 0.00511 658.2 6.0
662(14) 0.00522 658.1 5.9
691(14) 0.00501 657.9 5.9
668(13) 0.00559 657.9 5.8
678(14) 0.00515 657.8 5.8
662(14) 0.00508 657.7 5.7
648(14) 0.00537 657.7 5.7
697(14) 0.00515 657.6 5.7
672(14) 0.00548 657.6 5.6
680(14) 0.00510 657.5 5.6
643(14) 0.00529 657.4 5.5
653(14) 0.00521 657.4 5.5
677(14) 0.00531 657.3 5.5
651(13) 0.00571 657.2 5.4
680(14) 0.00502 657.2 5.4
671(14) 0.00490 657.1 5.3
654(14) 0.00535 657.1 5.3
667(14) 0.00543 657.0 5.3
674(13) 0.00554 656.9 5.2
665(14) 0.00529 656.9 5.2
663(14) 0.00503 656.8 5.2
700(14) 0.00491 656.8 5.1
702(14) 0.00522 656.7 5.1
625(13) 0.00595 656.6 5.1
656(14) 0.00526 656.6 5.0
642(14) 0.00511 656.5 5.0
646(14) 0.00534 656.5 5.0
660(13) 0.00559 656.4 4.9
620(13) 0.00602 656.3 4.9
650(14) 0.00546 656.3 4.9
705(15) 0.00455 656.2 4.9
699(14) 0.00484 656.2 4.8
645(13) 0.00577 656.1 4.8
665(13) 0.00561 656.0 4.8
633(13) 0.00557 656.0 4.8
656(14) 0.00510 655.9 4.7
650(14) 0.00544 655.8 4.7
669(13) 0.00558 655.8 4.7
621(13) 0.00585 655.7 4.6
643(14) 0.00547 655.7 4.6
670(14) 0.00501 655.6 4.6
651(14) 0.00530 655.5 4.6
644(13) 0.00578 655.5 4.6
668(14) 0.00542 655.4 4.5
676(14) 0.00503 655.4 4.5
645(14) 0.00512 655.3 4.5
663(14) 0.00513 655.2 4.5
699(14) 0.00532 655.2 4.4
703(14) 0.00512 655.1 4.4
682(14) 0.00483 655.1 4.4
661(14) 0.00501 655.0 4.4
659(14) 0.00525 654.9 4.4
626(13) 0.00596 654.9 4.3
681(14) 0.00514 654.8 4.3
661(14) 0.00526 654.8 4.3
625(13) 0.00569 654.7 4.3
661(14) 0.00536 654.6 4.3
672(13) 0.00557 654.6 4.2
665(14) 0.00522 654.5 4.2
672(14) 0.00504 654.4 4.2
637(13) 0.00550 654.4 4.2
644(14) 0.00537 654.3 4.2
649(13) 0.00579 654.3 4.2
626(14) 0.00546 654.2 4.1
630(14) 0.00531 654.1 4.1
675(14) 0.00517 654.1 4.1
667(14) 0.00546 654.0 4.1
647(13) 0.00581 654.0 4.1
656(14) 0.00543 653.9 4.1
660(14) 0.00495 653.8 4.0
659(14) 0.00521 653.8 4.0
641(13) 0.00574 653.7 4.0
659(13) 0.00569 653.7 4.0
623(13) 0.00549 653.6 4.0
618(14) 0.00528 653.5 4.0
663(14) 0.00517 653.5 3.9
641(13) 0.00578 653.4 3.9
662(13) 0.00558 653.3 3.9
653(13) 0.00549 653.3 3.9
698(15) 0.00462 653.2 3.9
667(14) 0.00517 653.2 3.9
644(13) 0.00576 653.1 3.9
615(13) 0.00600 653.0 3.8
653(14) 0.00527 653.0 3.8
657(14) 0.00492 652.9 3.8
609(13) 0.00569 652.9 3.8
669(13) 0.00554 652.8 3.8
672(13) 0.00550 652.7 3.8
672(14) 0.00513 652.7 3.8
644(14) 0.00514 652.6 3.8
634(14) 0.00537 652.6 3.7
656(13) 0.00565 652.5 3.7
658(14) 0.00545 652.4 3.7
619(13) 0.00569 652.4 3.7
687(14) 0.00481 652.3 3.7
617(13) 0.00572 652.3 3.7
645(13) 0.00575 652.2 3.7
639(13) 0.00573 652.1 3.7
657(14) 0.00521 652.1 3.6
636(14) 0.00542 652.0 3.6
665(14) 0.00529 651.9 3.6
633(13) 0.00589 651.9 3.6
622(13) 0.00576 651.8 3.6
654(14) 0.00515 651.8 3.6
628(13) 0.00554 651.7 3.6
666(14) 0.00537 651.6 3.6
624(13) 0.00597 651.6 3.6
632(14) 0.00541 651.5 3.6
653(14) 0.00520 651.5 3.5
645(14) 0.00544 651.4 3.5
629(13) 0.00568 651.3 3.5
624(13) 0.00594 651.3 3.5
622(13) 0.00558 651.2 3.5
695(15) 0.00466 651.2 3.5
699(14) 0.00484 651.1 3.5
661(14) 0.00544 651.0 3.5
607(13) 0.00614 651.0 3.5
653(14) 0.00536 650.9 3.5
691(15) 0.00471 650.9 3.4
636(13) 0.00566 650.8 3.4
656(13) 0.00561 650.7 3.4
616(13) 0.00602 650.7 3.4
627(13) 0.00564 650.6 3.4
640(14) 0.00497 650.5 3.4
632(13) 0.00554 650.5 3.4
644(13) 0.00573 650.4 3.4
611(13) 0.00601 650.4 3.4
667(14) 0.00502 650.3 3.4
630(14) 0.00516 650.2 3.4
633(13) 0.00550 650.2 3.4
627(13) 0.00587 650.1 3.3
607(13) 0.00609 650.1 3.3
647(14) 0.00524 650.0 3.3
642(14) 0.00505 649.9 3.3
660(14) 0.00533 649.9 3.3
652(13) 0.00573 649.8 3.3
669(14) 0.00543 649.8 3.3
636(14) 0.00547 649.7 3.3
637(14) 0.00521 649.6 3.3
629(13) 0.00559 649.6 3.3
621(13) 0.00596 649.5 3.3
659(13) 0.00554 649.4 3.3
685(14) 0.00505 649.4 3.3
677(14) 0.00485 649.3 3.2
616(13) 0.00564 649.3 3.2
640(13) 0.00579 649.2 3.2
671(14) 0.00533 649.1 3.2
666(14) 0.00512 649.1 3.2
647(14) 0.00520 649.0 3.2
634(13) 0.00554 649.0 3.2
607(13) 0.00614 648.9 3.2
637(13) 0.00554 648.8 3.2
641(14) 0.00536 648.8 3.2
641(14) 0.00535 648.7 3.2
662(14) 0.00530 648.7 3.2
663(13) 0.00559 648.6 3.2
645(14) 0.00547 648.5 3.2
650(14) 0.00523 648.5 3.2
638(14) 0.00536 648.4 3.1
632(13) 0.00571 648.4 3.1
671(13) 0.00550 648.3 3.1
621(13) 0.00555 648.2 3.1
633(14) 0.00527 648.2 3.1
636(14) 0.00537 648.1 3.1
658(14) 0.00545 648.0 3.1
659(13) 0.00569 648.0 3.1
621(13) 0.00572 647.9 3.1
631(14) 0.00519 647.9 3.1
638(14) 0.00543 647.8 3.1
653(13) 0.00555 647.7 3.1
638(13) 0.00587 647.7 3.1
628(14) 0.00547 647.6 3.1
609(14) 0.00538 647.6 3.1
615(13) 0.00573 647.5 3.1
637(13) 0.00567 647.4 3.1
637(13) 0.00587 647.4 3.1
639(14) 0.00539 647.3 3.1
633(14) 0.00506 647.3 3.0
654(14) 0.00528 647.2 3.0
636(13) 0.00584 647.1 3.0
645(13) 0.00570 647.1 3.0
639(14) 0.00546 647.0 3.0
611(14) 0.00542 647.0 3.0
653(14) 0.00524 646.9 3.0
646(13) 0.00568 646.8 3.0
659(13) 0.00564 646.8 3.0
650(14) 0.00542 646.7 3.0
673(14) 0.00487 646.6 3.0
652(14) 0.00523 646.6 3.0
651(13) 0.00574 646.5 3.0
653(13) 0.00559 646.5 3.0
645(14) 0.00535 646.4 3.0
647(14) 0.00500 646.3 3.0
639(14) 0.00530 646.3 3.0
652(13) 0.00567 646.2 3.0
630(13) 0.00579 646.2 3.0
622(13) 0.00566 646.1 3.0
662(14) 0.00505 646.0 3.0
647(14) 0.00546 646.0 3.0
658(13) 0.00564 645.9 3.0
671(14) 0.00531 645.9 3.0
612(13) 0.00575 645.8 3.0
648(14) 0.00509 645.7 3.0
651(14) 0.00540 645.7 2.9
642(13) 0.00578 645.6 2.9
684(14) 0.00501 645.5 2.9
639(14) 0.00532 645.5 2.9
641(14) 0.00540 645.4 2.9
634(13) 0.00575 645.4 2.9
628(13) 0.00589 645.3 2.9
668(14) 0.00516 645.2 2.9
640(14) 0.00532 645.2 2.9
665(14) 0.00516 645.1 2.9
638(13) 0.00559 645.1 2.9
676(14) 0.00547 645.0 2.9
610(13) 0.00565 644.9 2.9
644(14) 0.00512 644.9 2.9
663(14) 0.00520 644.8 2.9
640(13) 0.00561 644.8 2.9
612(13) 0.00603 644.7 2.9
642(14) 0.00543 644.6 2.9
635(14) 0.00525 644.6 2.9
654(14) 0.00533 644.5 2.9
668(13) 0.00551 644.5 2.9
671(13) 0.00558 644.4 2.9
629(14) 0.00547 644.3 2.9
641(14) 0.00505 644.3 2.9
650(14) 0.00529 644.2 2.9
633(13) 0.00587 644.1 2.9
630(13) 0.00582 644.1 2.9
650(13) 0.00549 644.0 2.9
656(14) 0.00512 644.0 2.9
662(14) 0.00537 643.9 2.9
658(13) 0.00566 643.8 2.9
652(13) 0.00566 643.8 2.9
624(13) 0.00565 643.7 2.9
630(14) 0.00514 643.7 2.9
663(14) 0.00519 643.7 2.9
653(13) 0.00572 643.7 2.9
648(13) 0.00570 643.7 2.9
660(14) 0.00533 643.8 2.9
653(14) 0.00517 643.8 2.9
610(13) 0.00573 643.8 2.9
653(13) 0.00567 643.9 2.9
633(13) 0.00573 643.9 2.9
678(14) 0.00493 644.0 2.9
599(13) 0.00552 644.0 2.9
627(14) 0.00538 644.0 2.9
689(14) 0.00538 644.1 2.9
703(14) 0.00503 644.1 2.9
668(14) 0.00521 644.1 2.9
643(14) 0.00537 644.2 2.9
640(14) 0.00546 644.2 2.9
656(13) 0.00569 644.2 2.9
651(14) 0.00533 644.3 2.9
647(14) 0.00530 644.3 2.9
674(14) 0.00503 644.3 2.9
619(13) 0.00578 644.4 2.9
643(13) 0.00578 644.4 2.9
658(14) 0.00533 644.4 2.9
664(14) 0.00511 644.5 2.9
644(14) 0.00529 644.5 2.9
635(13) 0.00572 644.5 2.9
673(14) 0.00546 644.6 2.9
659(14) 0.00532 644.6 2.9
674(14) 0.00495 644.6 2.9
668(14) 0.00515 644.7 2.9
639(13) 0.00563 644.7 2.9
653(13) 0.00567 644.7 2.9
651(14) 0.00541 644.8 2.9
634(14) 0.00527 644.8 2.9
629(13) 0.00560 644.8 2.9
620(13) 0.00599 644.9 3.0
639(13) 0.00580 644.9 3.0
678(14) 0.00508 644.9 3.0
646(14) 0.00511 645.0 3.0
638(14) 0.00539 645.0 3.0
637(13) 0.00577 645.0 3.0
635(13) 0.00587 645.1 3.0
619(13) 0.00549 645.1 3.0
640(14) 0.00500 645.1 3.0
643(14) 0.00548 645.2 3.0
632(13) 0.00588 645.2 3.0
659(13) 0.00564 645.2 3.0
631(13) 0.00551 645.3 3.0
641(14) 0.00492 645.3 3.0
633(14) 0.00539 645.3 3.0
667(13) 0.00562 645.4 3.0
633(13) 0.00568 645.4 3.0
630(13) 0.00550 645.4 3.0
640(14) 0.00500 645.5 3.1
616(14) 0.00545 645.5 3.1
673(13) 0.00555 645.5 3.1
618(13) 0.00577 645.6 3.1
645(14) 0.00525 645.6 3.1
620(14) 0.00548 645.6 3.1
656(14) 0.00527 645.7 3.1
613(13) 0.00601 645.7 3.1
664(14) 0.00534 645.8 3.1
632(13) 0.00550 645.8 3.1
660(14) 0.00517 645.8 3.2
676(14) 0.00521 645.9 3.2
643(13) 0.00582 645.9 3.2
611(13) 0.00593 645.9 3.2
644(14) 0.00523 646.0 3.2
627(14) 0.00544 646.0 3.2
627(13) 0.00574 646.0 3.2
637(13) 0.00582 646.1 3.2
613(13) 0.00575 646.1 3.3
627(14) 0.00538 646.1 3.3
649(14) 0.00525 646.2 3.3
623(13) 0.00575 646.2 3.3
648(13) 0.00578 646.2 3.3
645(14) 0.00542 646.3 3.3
641(14) 0.00524 646.3 3.4
632(14) 0.00548 646.3 3.4
618(13) 0.00586 646.4 3.4
637(13) 0.00585 646.4 3.4
656(14) 0.00534 646.4 3.5
618(14) 0.00545 646.5 3.5
628(13) 0.00567 646.5 3.5
662(13) 0.00555 646.5 3.5
640(13) 0.00581 646.6 3.6
639(13) 0.00553 646.6 3.6
666(14) 0.00485 646.6 3.6
666(14) 0.00519 646.7 3.7
615(13) 0.00603 646.7 3.7
644(13) 0.00579 646.7 3.7
622(13) 0.00577 646.8 3.8
643(14) 0.00505 646.8 3.8
659(14) 0.00523 646.8 3.8
661(13) 0.00562 646.9 3.9
667(13) 0.00552 646.9 3.9
656(14) 0.00533 646.9 4.0
663(14) 0.00486 647.0 4.0
628(14) 0.00543 647.0 4.1
647(13) 0.00570 647.0 4.1
641(13) 0.00570 647.1 4.2
622(13) 0.00569 647.1 4.3
671(14) 0.00488 647.1 4.3
646(14) 0.00538 647.2 4.4
613(13) 0.00598 647.2 4.5
632(13) 0.00574 647.2 4.6
626(13) 0.00553 647.3 4.6
642(14) 0.00527 647.3 4.7
619(13) 0.00553 647.3 4.8
649(13) 0.00569 647.4 4.9
643(13) 0.00564 647.4 5.1
640(14) 0.00530 647.4 5.2
624(13) 0.00550 647.5 5.3
613(13) 0.00578 647.5 5.5
660(13) 0.00562 647.6 5.6
669(14) 0.00519 647.6 5.8
633(14) 0.00539 647.6 6.0
659(14) 0.00516 647.7 6.2
641(13) 0.00551 647.7 6.4
643(13) 0.00582 647.7 6.6
627(13) 0.00565 647.8 6.9
619(13) 0.00553 647.8 7.2
635(13) 0.00549 647.8 7.5
607(13) 0.00601 647.9 7.9
642(13) 0.00579 647.9 8.3
652(14) 0.00527 647.9 8.7
675(14) 0.00494 648.0 9.3
654(14) 0.00541 648.0 9.8
656(13) 0.00553 648.0 10.4
668(13) 0.00555 648.1 11.1
635(14) 0.00532 648.1 11.9
615(14) 0.00546 648.1 12.8
626(13) 0.00566 648.2 13.8
634(13) 0.00585 648.2 14.8
623(13) 0.00596 648.2 16.0
640(14) 0.00528 648.3 17.3
648(14) 0.00507 648.3 18.6
637(13) 0.00558 648.3 20.1
629(13) 0.00588 648.4 21.7
664(13) 0.00555 648.4 23.3
633(14) 0.00548 648.4 25.0
644(14) 0.00503 648.5 26.7
646(14) 0.00540 648.5 28.3
624(13) 0.00593 648.5 29.7
636(13) 0.00573 648.6 30.9
626(13) 0.00565 648.6 31.8
698(15) 0.00462 648.6 32.2
641(14) 0.00538 648.7 32.3
638(13) 0.00582 648.7 31.9
636(13) 0.00578 648.7 31.1
661(14) 0.00522 648.8 30.0
645(14) 0.00510 648.8 28.6
652(14) 0.00526 648.8 27.0
653(13) 0.00566 648.9 25.4
651(13) 0.00559 648.9 23.7
655(14) 0.00511 648.9 22.1
637(14) 0.00503 649.0 20.5
652(14) 0.00519 649.0 19.0
635(13) 0.00582 649.0 17.6
645(13) 0.00556 649.1 16.3
655(14) 0.00537 649.1 15.2
639(14) 0.00533 649.1 14.1
681(14) 0.00499 649.2 13.1
643(13) 0.00572 649.2 12.3
654(14) 0.00544 649.3 11.5
635(13) 0.00549 649.3 10.8
638(14) 0.00538 649.3 10.2
650(14) 0.00532 649.4 9.6
662(13) 0.00563 649.4 9.1
636(13) 0.00553 649.4 8.6
646(14) 0.00521 649.5 8.2
644(14) 0.00532 649.5 7.9
650(14) 0.00545 649.5 7.6
648(13) 0.00571 649.6 7.3
646(14) 0.00542 649.6 7.0
653(14) 0.00512 649.6 6.8
624(14) 0.00547 649.7 6.6
606(13) 0.00593 649.7 6.4
643(13) 0.00580 649.7 6.2
633(14) 0.00531 649.8 6.1
654(14) 0.00507 649.8 5.9
616(13) 0.00560 649.8 5.8
637(13) 0.00565 649.9 5.7
626(13) 0.00591 649.9 5.6
637(14) 0.00539 649.9 5.4
632(14) 0.00525 650.0 5.4
644(13) 0.00552 650.0 5.3
670(13) 0.00552 650.0 5.2
643(13) 0.00574 650.1 5.1
656(14) 0.00524 650.1 5.0
622(14) 0.00529 650.1 5.0
676(14) 0.00513 650.2 4.9
651(13) 0.00565 650.2 4.9
650(13) 0.00566 650.2 4.8
656(13) 0.00551 650.3 4.8
653(14) 0.00502 650.3 4.7
652(14) 0.00532 650.3 4.7
654(13) 0.00563 650.4 4.7
643(13) 0.00575 650.4 4.6
664(14) 0.00530 650.4 4.6
659(14) 0.00510 650.5 4.6
649(14) 0.00545 650.5 4.5
634(13) 0.00590 650.5 4.5
628(13) 0.00580 650.6 4.5
640(13) 0.00562 650.6 4.5
625(14) 0.00543 650.6 4.5
666(14) 0.00521 650.7 4.4
669(13) 0.00557 650.7 4.4
607(13) 0.00593 650.7 4.4
619(14) 0.00545 650.8 4.4
625(14) 0.00536 650.8 4.4
635(13) 0.00560 650.8 4.4
605(13) 0.00614 650.9 4.4
631(13) 0.00565 650.9 4.4
647(14) 0.00543 650.9 4.4
668(14) 0.00513 651.0 4.4
633(13) 0.00570 651.0 4.4
670(13) 0.00553 651.1 4.4
640(13) 0.00555 651.1 4.4
670(14) 0.00507 651.1 4.4
658(14) 0.00532 651.2 4.4
660(14) 0.00537 651.2 4.4
633(13) 0.00592 651.2 4.4
647(14) 0.00532 651.3 4.4
649(14) 0.00517 651.3 4.4
611(13) 0.00561 651.3 4.4
641(13) 0.00564 651.4 4.4
649(13) 0.00577 651.4 4.4
610(13) 0.00565 651.4 4.4
643(14) 0.00516 651.5 4.4
650(14) 0.00525 651.5 4.4
679(14) 0.00532 651.5 4.4
654(13) 0.00573 651.6 4.4
650(14) 0.00534 651.6 4.5
642(14) 0.00528 651.6 4.5
645(14) 0.00540 651.7 4.5
645(13) 0.00562 651.7 4.5
627(13) 0.00593 651.7 4.5
672(14) 0.00506 651.8 4.5
650(14) 0.00489 651.8 4.5
630(14) 0.00549 651.8 4.6
625(13) 0.00580 651.9 4.6
620(13) 0.00604 651.9 4.6
637(14) 0.00546 651.9 4.6
654(14) 0.00492 652.0 4.6
621(13) 0.00562 652.0 4.6
649(13) 0.00577 652.0 4.7
676(13) 0.00549 652.1 4.7
680(14) 0.00515 652.1 4.7
672(14) 0.00489 652.1 4.7
644(14) 0.00541 652.2 4.8
650(13) 0.00567 652.2 4.8
657(13) 0.00558 652.2 4.8
636(13) 0.00557 652.3 4.8
649(14) 0.00508 652.3 4.9
671(14) 0.00514 652.3 4.9
651(13) 0.00569 652.4 4.9
645(13) 0.00562 652.4 4.9
643(14) 0.00539 652.4 5.0
667(14) 0.00501 652.5 5.0
652(14) 0.00516 652.5 5.0
657(13) 0.00568 652.5 5.0
650(13) 0.00555 652.6 5.1
693(14) 0.00484 652.6 5.1
672(14) 0.00498 652.6 5.1
638(13) 0.00549 652.7 5.2
625(13) 0.00592 652.7 5.2
654(14) 0.00544 652.7 5.2
644(14) 0.00529 652.8 5.3
634(14) 0.00534 652.8 5.3
649(14) 0.00541 652.9 5.3
630(13) 0.00588 652.9 5.4
610(13) 0.00582 652.9 5.4
645(14) 0.00521 653.0 5.5
670(14) 0.00512 653.0 5.5
661(13) 0.00549 653.0 5.5
675(14) 0.00548 653.1 5.6
607(13) 0.00554 653.1 5.6
643(14) 0.00531 653.1 5.7
689(14) 0.00508 653.2 5.7
617(13) 0.00598 653.2 5.8
632(13) 0.00591 653.2 5.8
647(14) 0.00537 653.3 5.9
659(14) 0.00497 653.3 5.9
653(14) 0.00523 653.3 5.9
666(14) 0.00543 653.4 6.0
675(13) 0.00555 653.4 6.1
638(13) 0.00549 653.4 6.1
661(14) 0.00492 653.5 6.2
625(13) 0.00549 653.5 6.2
629(13) 0.00580 653.5 6.3
686(14) 0.00539 653.6 6.3
681(14) 0.00511 653.6 6.4
681(15) 0.00475 653.6 6.4
666(14) 0.00513 653.7 6.5
685(14) 0.00540 653.9 6.6
651(13) 0.00569 654.1 6.6
691(14) 0.00513 654.2 6.7
677(14) 0.00486 654.4 6.8
657(14) 0.00541 654.6 6.8
632(13) 0.00597 654.7 6.9
668(14) 0.00542 654.9 7.0
630(13) 0.00561 655.1 7.1
631(14) 0.00534 655.2 7.1
658(14) 0.00535 655.4 7.2
612(13) 0.00609 655.6 7.3
657(13) 0.00555 655.7 7.4
683(14) 0.00508 655.9 7.4
672(14) 0.00498 656.1 7.5
679(14) 0.00494 656.2 7.6
676(13) 0.00550 656.4 7.7
631(13) 0.00576 656.6 7.8
647(14) 0.00544 656.7 7.9
655(14) 0.00511 656.9 8.0
646(14) 0.00539 657.1 8.1
645(13) 0.00579 657.2 8.2
668(14) 0.00527 657.4 8.3
649(14) 0.00537 657.6 8.4
670(14) 0.00503 657.7 8.5
654(14) 0.00525 657.9 8.6
633(13) 0.00589 658.1 8.7
625(13) 0.00572 658.2 8.8
655(14) 0.00519 658.4 9.0
658(14) 0.00523 658.6 9.1
649(14) 0.00547 658.7 9.2
641(13) 0.00579 658.9 9.3
667(14) 0.00515 659.1 9.5
681(14) 0.00501 659.2 9.6
658(14) 0.00524 659.4 9.7
664(14) 0.00542 659.6 9.9
638(13) 0.00585 659.7 10.0
661(14) 0.00536 659.9 10.2
680(14) 0.00482 660.1 10.3
643(14) 0.00540 660.2 10.5
629(13) 0.00572 660.4 10.7
619(13) 0.00599 660.6 10.8
654(14) 0.00536 660.7 11.0
634(14) 0.00519 660.9 11.2
638(14) 0.00542 661.1 11.4
663(13) 0.00549 661.2 11.6
679(14) 0.00544 661.4 11.8
661(14) 0.00541 661.6 12.0
636(14) 0.00533 661.7 12.2
646(14) 0.00530 661.9 12.4
675(14) 0.00539 662.1 12.6
649(13) 0.00575 662.2 12.9
641(14) 0.00536 662.4 13.1
645(14) 0.00505 662.6 13.3
662(14) 0.00523 662.7 13.6
644(13) 0.00578 662.9 13.9
685(14) 0.00535 663.1 14.1
652(14) 0.00544 663.2 14.4
682(14) 0.00483 663.4 14.7
625(13) 0.00555 663.6 15.0
622(13) 0.00602 663.7 15.3
665(13) 0.00555 663.9 15.7
704(14) 0.00479 664.1 16.0
677(14) 0.00496 664.2 16.3
640(14) 0.00532 664.4 16.7
638(13) 0.00586 664.6 17.1
671(14) 0.00541 664.7 17.5
656(14) 0.00523 664.9 17.9
671(14) 0.00489 665.1 18.3
658(14) 0.00528 665.2 18.7
658(13) 0.00565 665.4 19.2
690(14) 0.00522 665.6 19.7
689(14) 0.00498 665.7 20.2
676(14) 0.00498 665.9 20.7
658(14) 0.00533 666.1 21.2
696(14) 0.00531 666.2 21.8
688(14) 0.00510 666.4 22.4
676(14) 0.00501 666.6 23.0
662(14) 0.00515 666.7 23.6
674(14) 0.00521 666.9 24.3
667(13) 0.00561 667.1 25.0
656(14) 0.00519 667.2 25.7
676(14) 0.00486 667.4 26.5
662(14) 0.00531 667.6 27.3
671(14) 0.00543 667.7 28.1
682(14) 0.00543 667.9 29.0
693(14) 0.00494 668.1 30.0
673(14) 0.00511 668.2 31.0
683(14) 0.00505 668.4 32.0
699(14) 0.00518 668.6 33.1
671(13) 0.00552 668.7 34.3
647(14) 0.00538 668.9 35.5
671(14) 0.00495 669.1 36.8
689(14) 0.00515 669.2 38.2
703(14) 0.00525 669.4 39.6
700(14) 0.00530 669.6 41.2
687(14) 0.00498 669.7 42.8
663(14) 0.00497 669.9 44.5
680(14) 0.00513 670.1 46.4
725(14) 0.00513 670.2 48.4
689(14) 0.00535 670.4 50.5
707(14) 0.00487 670.6 52.8
651(14) 0.00511 670.7 55.2
717(14) 0.00484 670.9 57.8
706(14) 0.00530 671.1 60.6
698(14) 0.00526 671.2 63.6
646(14) 0.00545 671.4 66.9
682(15) 0.00473 671.6 70.4
690(14) 0.00508 671.7 74.2
702(14) 0.00526 671.9 78.3
703(14) 0.00526 672.1 82.8
722(14) 0.00490 672.2 87.7
740(15) 0.00443 672.4 93.0
748(15) 0.00452 672.6 98.9
706(14) 0.00526 672.7 105.3
741(14) 0.00485 672.9 112.4
713(14) 0.00480 673.1 120.3
747(15) 0.00435 673.2 128.9
725(14) 0.00481 673.4 138.6
772(14) 0.00477 673.6 149.4
764(14) 0.00478 673.7 161.5
834(16) 0.00412 673.9 175.1
811(15) 0.00422 674.1 190.6
817(15) 0.00425 674.2 208.3
837(15) 0.00445 674.4 228.8
920(16) 0.00388 674.6 252.8
961(17) 0.00355 674.7 281.3
950(17) 0.00355 674.9 315.9
1026(17) 0.003454 675.1 358.6
1115(17) 0.003352 675.2 412.4
1176(19) 0.002915 675.4 481.1
1315(20) 0.002540 675.6 569.6
1447(20) 0.002380 675.7 683.9
1587(21) 0.002266 675.9 830.6
1844(22) 0.002014 676.1 1016.6
1996(24) 0.001729 676.2 1248.2
2283(26) 0.001457 676.4 1530.0
2648(28) 0.001303 676.6 1862.9
2867(28) 0.001265 676.7 2243.4
3167(29) 0.001170 676.9 2658.7
3500(32) 0.000990 677.1 3084.0
3935(35) 0.000836 677.2 3477.7
4391(36) 0.000786 677. 3781.
4644(36) 0.000783 678. 3935.
4789(36) 0.000770 678. 3902.
4672(37) 0.000733 678. 3690.
4057(35) 0.000819 678.1 3347.1
3593(32) 0.000975 678.2 2936.7
3116(29) 0.001185 678.4 2510.9
2616(27) 0.001409 678.6 2105.8
2308(26) 0.001520 678.7 1741.0
2071(25) 0.001557 678.9 1425.7
1876(23) 0.001845 679.1 1161.9
1686(21) 0.002203 679.2 946.9
1539(21) 0.002371 679.4 775.4
1371(20) 0.002547 679.6 640.8
1261(20) 0.002558 679.7 536.2
1206(19) 0.002919 679.9 455.3
1124(17) 0.003289 680.1 392.3
1125(18) 0.003234 680.2 342.8
1006(17) 0.003463 680.4 303.3
958(17) 0.003441 680.6 271.0
956(17) 0.00361 680.7 244.2
875(15) 0.00426 680.9 221.6
889(16) 0.00403 681.1 202.2
892(16) 0.00391 681.2 185.3
843(16) 0.00399 681.4 170.5
805(15) 0.00433 681.6 157.4
814(15) 0.00458 681.7 145.8
781(15) 0.00458 681.9 135.5
788(15) 0.00431 682.1 126.2
798(15) 0.00417 682.2 117.8
766(15) 0.00463 682.4 110.3
748(14) 0.00496 682.6 103.4
762(15) 0.00465 682.7 97.2
774(15) 0.00441 682.9 91.6
719(14) 0.00476 683.1 86.4
726(14) 0.00477 683.2 81.7
723(14) 0.00517 683.4 77.3
716(14) 0.00496 683.6 73.3
719(15) 0.00469 683.7 69.7
730(15) 0.00470 683.9 66.3
734(14) 0.00491 684.1 63.1
723(14) 0.00511 684.2 60.2
750(15) 0.00460 684.4 57.5
721(15) 0.00461 684.6 54.9
731(15) 0.00469 684.7 52.6
712(14) 0.00505 684.9 50.4
684(14) 0.00548 685.1 48.3
703(14) 0.00476 685.2 46.4
702(15) 0.00473 685.4 44.6
721(14) 0.00480 685.6 42.9
704(14) 0.00521 685.7 41.3
722(14) 0.00516 685.9 39.8
681(14) 0.00499 686.1 38.4
678(14) 0.00483 686.2 37.1
700(14) 0.00491 686.4 35.8
697(14) 0.00528 686.6 34.7
732(14) 0.00509 686.7 33.5
684(14) 0.00518 686.9 32.5
685(15) 0.00468 687.1 31.5
713(14) 0.00483 687.2 30.5
689(14) 0.00537 687.4 29.6
695(14) 0.00532 687.6 28.8
693(14) 0.00505 687.7 27.9
715(15) 0.00452 687.9 27.2
696(14) 0.00507 688.1 26.4
690(14) 0.00532 688.2 25.7
717(14) 0.00510 688.4 25.0
706(14) 0.00500 688.6 24.4
719(15) 0.00449 688.7 23.8
673(14) 0.00520 688.9 23.2
707(14) 0.00527 689.1 22.6
686(14) 0.00523 689.2 22.1
704(14) 0.00490 689.4 21.6
685(14) 0.00492 689.6 21.1
670(14) 0.00525 689.7 20.6
680(13) 0.00549 689.9 20.2
691(14) 0.00518 690.1 19.8
691(14) 0.00489 690.2 19.3
688(14) 0.00484 690.4 18.9
661(14) 0.00529 690.6 18.6
677(14) 0.00546 690.7 18.2
707(14) 0.00492 690.9 17.8
671(14) 0.00509 691.1 17.5
666(14) 0.00530 691.2 17.2
679(14) 0.00531 691.4 16.9
680(14) 0.00544 691.6 16.6
675(14) 0.00524 691.7 16.3
705(14) 0.00486 691.9 16.0
697(14) 0.00499 692.1 15.7
651(14) 0.00545 692.2 15.5
687(14) 0.00542 692.4 15.2
684(14) 0.00499 692.6 15.0
714(15) 0.00460 692.7 14.7
687(14) 0.00490 692.9 14.5
710(14) 0.00497 693.1 14.3
711(14) 0.00524 693.2 14.1
702(14) 0.00495 693.4 13.9
677(14) 0.00509 693.6 13.7
714(14) 0.00477 693.7 13.5
672(13) 0.00550 693.9 13.3
686(14) 0.00546 694.1 13.2
681(14) 0.00508 694.2 13.0
717(15) 0.00457 694.4 12.8
717(14) 0.00478 694.6 12.7
651(13) 0.00555 694.7 12.5
720(14) 0.00517 694.9 12.4
722(14) 0.00486 695.1 12.2
716(15) 0.00441 695.2 12.1
680(14) 0.00514 695.4 12.0
680(14) 0.00545 695.6 11.8
671(13) 0.00552 695.7 11.7
696(14) 0.00507 695.9 11.6
731(15) 0.00435 696.1 11.5
687(14) 0.00514 696.2 11.4
667(13) 0.00564 696.4 11.3
666(14) 0.00545 696.6 11.2
703(14) 0.00500 696.7 11.1
701(15) 0.00474 696.9 11.0
702(14) 0.00508 697.1 10.9
718(14) 0.00517 697.2 10.8
665(13) 0.00558 697.4 10.7
732(15) 0.00471 697.6 10.6
696(14) 0.00476 697.7 10.5
702(14) 0.00482 697.9 10.5
704(14) 0.00529 698.1 10.4
696(14) 0.00523 698.2 10.3
698(14) 0.00506 698.4 10.2
714(15) 0.00473 698.6 10.2
731(15) 0.00460 698.7 10.1
691(14) 0.00539 698.9 10.0
695(14) 0.00517 699.1 10.0
732(15) 0.00458 699.2 9.9
683(14) 0.00496 699.4 9.9
709(14) 0.00498 699.6 9.8
694(14) 0.00535 699.7 9.8
683(14) 0.00519 699.9 9.7
691(14) 0.00478 700.1 9.7
686(14) 0.00498 700.2 9.6
676(14) 0.00525 700.4 9.6
668(13) 0.00551 700.6 9.5
688(14) 0.00502 700.7 9.5
699(14) 0.00487 700.9 9.5
687(14) 0.00497 701.1 9.4
658(13) 0.00559 701.2 9.4
695(14) 0.00536 701.4 9.4
662(14) 0.00521 701.6 9.3
711(15) 0.00458 701.7 9.3
654(14) 0.00543 701.9 9.3
708(14) 0.00508 702.1 9.3
694(14) 0.00537 702.2 9.2
668(14) 0.00525 702.4 9.2
722(15) 0.00442 702.6 9.2
671(14) 0.00517 702.7 9.2
719(14) 0.00514 702.9 9.2
702(14) 0.00531 703.1 9.2
692(14) 0.00508 703.2 9.1
668(14) 0.00499 703.4 9.1
687(14) 0.00502 703.6 9.1
695(14) 0.00527 703.7 9.1
663(13) 0.00561 703.9 9.1
709(14) 0.00491 704.1 9.1
696(15) 0.00464 704.2 9.1
689(14) 0.00511 704.4 9.1
749(14) 0.00494 704.6 9.1
707(14) 0.00523 704.7 9.1
694(14) 0.00495 704.9 9.1
695(15) 0.00456 705.1 9.1
655(14) 0.00531 705.2 9.1
723(14) 0.00520 705.4 9.1
743(14) 0.00497 705.6 9.1
711(14) 0.00492 705.7 9.1
683(14) 0.00493 705.9 9.1
680(14) 0.00514 706.1 9.1
689(14) 0.00542 706.2 9.1
706(14) 0.00518 706.4 9.1
682(14) 0.00508 706.6 9.2
670(14) 0.00512 706.7 9.2
695(14) 0.00489 706.9 9.2
706(14) 0.00525 707.1 9.2
712(14) 0.00495 707.2 9.2
706(14) 0.00488 707.4 9.3
697(14) 0.00493 707.6 9.3
704(14) 0.00494 707.7 9.3
713(14) 0.00521 707.9 9.3
701(14) 0.00492 708.3 9.4
697(14) 0.00480 708.7 9.4
697(14) 0.00493 709.1 9.4
679(14) 0.00515 709.5 9.4
715(14) 0.00518 710.0 9.5
729(15) 0.00475 710.4 9.5
721(15) 0.00458 710.8 9.5
685(14) 0.00497 711.2 9.6
705(14) 0.00507 711.6 9.6
670(13) 0.00561 712.1 9.6
659(14) 0.00516 712.5 9.7
699(15) 0.00468 712.9 9.7
713(14) 0.00484 713.3 9.8
729(14) 0.00500 713.7 9.8
731(14) 0.00505 714.2 9.9
713(15) 0.00475 714.6 9.9
691(14) 0.00482 715.0 10.0
730(15) 0.00471 715.4 10.0
745(14) 0.00489 715.8 10.1
704(14) 0.00532 716.3 10.1
692(14) 0.00504 716.7 10.2
735(15) 0.00440 717.1 10.2
704(14) 0.00500 717.5 10.3
709(14) 0.00519 717.9 10.3
698(14) 0.00529 718.4 10.4
686(14) 0.00505 718.8 10.5
722(15) 0.00445 719.2 10.5
731(14) 0.00484 719.6 10.6
742(14) 0.00497 720.0 10.7
739(14) 0.00500 720.5 10.7
752(15) 0.00456 720.9 10.8
719(15) 0.00445 721.3 10.9
685(14) 0.00509 721.7 11.0
726(14) 0.00514 722.1 11.0
730(14) 0.00499 722.6 11.1
709(14) 0.00503 723.0 11.2
751(15) 0.00433 723.4 11.3
712(14) 0.00485 723.8 11.4
766(14) 0.00484 724.2 11.4
750(14) 0.00489 724.7 11.5
740(15) 0.00472 725.1 11.6
688(14) 0.00484 725.5 11.7
736(15) 0.00471 725.9 11.8
728(14) 0.00509 726.3 11.9
738(14) 0.00489 726.8 12.0
733(15) 0.00471 727.2 12.1
729(15) 0.00472 727.6 12.2
719(14) 0.00491 728.0 12.3
701(14) 0.00528 728.4 12.4
730(14) 0.00486 728.9 12.6
733(15) 0.00471 729.3 12.7
715(14) 0.00480 729.7 12.8
731(14) 0.00476 730.1 12.9
734(14) 0.00504 730.5 13.0
731(15) 0.00467 731.0 13.2
726(15) 0.00462 731.4 13.3
747(15) 0.00453 731.8 13.4
682(14) 0.00534 732.2 13.6
702(14) 0.00528 732.6 13.7
702(14) 0.00491 733.1 13.9
731(15) 0.00471 733.5 14.0
746(15) 0.00459 733.9 14.2
707(14) 0.00512 734.3 14.3
728(14) 0.00512 734.7 14.5
747(15) 0.00466 735.2 14.6
727(15) 0.00457 735.6 14.8
751(15) 0.00453 736.0 15.0
711(14) 0.00516 736.4 15.1
745(14) 0.00497 736.8 15.3
703(14) 0.00506 737.3 15.5
726(15) 0.00462 737.7 15.7
767(15) 0.00451 738.1 15.9
740(14) 0.00496 738.5 16.1
728(14) 0.00515 738.9 16.3
734(15) 0.00467 739.4 16.5
767(16) 0.00408 739.8 16.7
713(14) 0.00486 740.2 16.9
734(14) 0.00501 740.6 17.1
715(14) 0.00516 741.0 17.4
734(14) 0.00481 741.5 17.6
752(15) 0.00430 741.9 17.8
735(15) 0.00475 742.3 18.1
747(14) 0.00499 742.7 18.3
746(14) 0.00486 743.1 18.6
757(15) 0.00453 743.6 18.9
736(15) 0.00453 744.0 19.1
737(14) 0.00481 744.4 19.4
743(14) 0.00502 744.8 19.7
698(14) 0.00520 745.2 20.0
751(15) 0.00454 745.7 20.3
744(15) 0.00437 746.1 20.6
715(15) 0.00470 746.5 20.9
778(14) 0.00480 746.9 21.3
767(15) 0.00466 747.3 21.6
722(15) 0.00471 747.8 22.0
725(14) 0.00479 748.2 22.3
778(15) 0.00453 748.6 22.7
749(14) 0.00500 749.0 23.1
754(15) 0.00474 749.4 23.4
721(15) 0.00470 749.9 23.9
696(14) 0.00498 750.3 24.3
763(15) 0.00464 750.7 24.7
742(14) 0.00501 751.1 25.1
767(15) 0.00455 751.5 25.6
759(15) 0.00444 752.0 26.1
725(14) 0.00483 752.4 26.5
740(14) 0.00477 752.8 27.0
775(14) 0.00478 753.2 27.5
745(15) 0.00469 753.6 28.1
737(15) 0.00457 754.1 28.6
771(15) 0.00451 754.5 29.2
761(14) 0.00482 754.9 29.8
799(15) 0.00464 755.3 30.4
771(15) 0.00456 755.7 31.0
747(15) 0.00454 756.2 31.6
759(15) 0.00458 756.6 32.3
746(14) 0.00491 757.0 33.0
747(14) 0.00498 757.4 33.7
747(15) 0.00467 757.8 34.4
786(16) 0.00406 758.3 35.2
759(15) 0.00459 758.7 36.0
784(15) 0.00470 759.1 36.8
793(15) 0.00464 759.5 37.7
792(15) 0.00420 759.9 38.5
748(15) 0.00432 760.4 39.5
792(15) 0.00441 760.8 40.4
768(14) 0.00484 761.2 41.4
769(14) 0.00481 761.6 42.4
776(15) 0.00448 762.0 43.5
799(16) 0.00408 762.5 44.6
804(15) 0.00436 762.9 45.8
808(15) 0.00463 763.3 47.0
811(15) 0.00447 763.7 48.2
786(15) 0.00442 764.1 49.6
806(16) 0.00403 764.6 50.9
819(16) 0.00413 765.0 52.3
832(15) 0.00448 765.4 53.8
793(15) 0.00466 765.8 55.4
794(15) 0.00439 766.2 57.0
792(15) 0.00420 766.7 58.7
776(15) 0.00452 767.1 60.5
825(15) 0.00449 767.5 62.4
826(15) 0.00434 767.9 64.4
798(15) 0.00433 768.3 66.4
782(15) 0.00431 768.8 68.6
810(15) 0.00432 769.2 70.9
814(15) 0.00458 769.6 73.2
784(15) 0.00457 770.0 75.8
826(16) 0.00412 770.4 78.4
804(15) 0.00433 770.9 81.2
804(15) 0.00443 771.3 84.2
824(15) 0.00454 771.7 87.3
849(16) 0.00415 772.1 90.6
865(16) 0.00392 772.5 94.1
790(15) 0.00442 773.0 97.8
864(16) 0.00415 773.4 101.8
844(15) 0.00443 773.8 106.0
819(15) 0.00424 774.2 110.4
857(16) 0.00398 774.6 115.2
865(16) 0.00401 775.1 120.2
862(15) 0.00418 775.5 125.6
826(15) 0.00448 775.9 131.4
870(16) 0.00398 776.3 137.6
882(16) 0.00375 776.7 144.3
875(16) 0.00400 777.2 151.4
871(15) 0.00421 777.6 159.1
917(16) 0.00402 778.0 167.4
859(16) 0.00409 778.4 176.3
834(16) 0.00408 778.8 186.0
905(16) 0.00379 779.3 196.6
921(16) 0.00390 779.7 208.0
934(16) 0.00397 780.1 220.4
957(17) 0.00359 780.5 234.1
919(17) 0.00358 780.9 248.9
957(16) 0.00369 781.4 265.3
973(16) 0.00379 781.8 283.3
1022(17) 0.00363 782.2 303.2
1033(17) 0.003411 782.6 325.3
1060(18) 0.003023 783.0 349.8
1022(17) 0.003428 783.5 377.2
1106(17) 0.003345 783.9 408.1
1130(18) 0.003257 784.3 443.1
1164(18) 0.002965 784.7 483.0
1201(19) 0.002750 785.2 528.9
1324(20) 0.002566 785.6 582.4
1361(19) 0.002724 786.0 645.4
1506(20) 0.002434 786.4 720.4
1530(21) 0.002266 786.8 810.5
1662(22) 0.001982 787.3 919.7
1821(23) 0.001875 787.7 1052.8
2014(23) 0.001844 788.1 1215.5
2161(24) 0.001685 788.5 1413.6
2555(28) 0.001320 788.9 1654.0
2743(29) 0.001217 789.4 1943.0
3224(31) 0.001037 789.8 2286.5
3539(31) 0.001044 790.2 2688.9
3972(33) 0.000900 790.6 3151.0
4508(36) 0.000753 791. 3669.
4938(38) 0.000682 791. 4231.
5658(41) 0.000598 792. 4812.
6227(41) 0.000593 792. 5369.
6734(44) 0.000519 793. 5842.
7296(46) 0.000463 793. 6160.
7525(47) 0.000444 794. 6267.
7172(45) 0.000491 794. 6140.
6627(42) 0.000555 794. 5806.
5937(41) 0.000581 795. 5323.
5224(40) 0.000640 795. 4762.
4668(37) 0.000727 796. 4182.
4156(34) 0.000867 796.1 3623.5
3685(32) 0.000995 796.5 3110.1
3322(31) 0.001024 796.9 2653.6
3064(30) 0.001076 797.3 2257.0
2802(28) 0.001244 797.8 1919.0
2556(27) 0.001423 798.2 1634.9
2421(26) 0.001514 798.6 1398.9
2245(26) 0.001526 799.0 1204.6
2088(25) 0.001559 799.4 1045.4
1955(24) 0.001761 799.9 915.1
1835(22) 0.001976 800.3 808.3
1759(22) 0.002098 800.7 720.3
1681(22) 0.002066 801.1 647.2
1604(22) 0.002042 801.5 585.8
1581(21) 0.002251 802.0 533.8
1450(20) 0.002518 802.4 489.3
1371(19) 0.002697 802.8 450.7
1298(19) 0.002682 803.2 417.2
1249(20) 0.002603 803.6 387.8
1242(19) 0.002825 804.1 361.8
1179(18) 0.003136 804.5 338.9
1249(18) 0.002927 804.9 318.6
1150(18) 0.003044 805.3 300.7
1151(19) 0.002819 805.7 284.9
1170(18) 0.002954 806.2 271.0
1108(17) 0.003373 806.6 259.0
1100(17) 0.003339 807.0 248.8
1062(18) 0.003228 807.4 240.3
1026(18) 0.003246 807.8 233.5
1028(17) 0.003409 808.3 228.5
1050(17) 0.00358 808.7 225.4
1003(17) 0.00365 809.1 224.2
1055(17) 0.003272 809.5 225.0
1024(17) 0.003322 809.9 227.9
1057(17) 0.003312 810.4 232.9
1044(17) 0.00356 810.8 240.1
1085(17) 0.003312 811.2 249.4
1058(17) 0.003279 811.6 260.5
1075(18) 0.003125 812.0 272.7
1100(18) 0.003187 812.5 285.3
1099(17) 0.003381 812.9 296.7
1074(17) 0.003327 813.3 305.2
1079(18) 0.003165 813.7 309.0
1042(18) 0.003258 814.1 306.8
1043(17) 0.003388 814.6 298.2
1090(17) 0.003403 815.0 284.1
1057(17) 0.003325 815.4 266.1
1084(18) 0.003128 815.8 246.0
1085(18) 0.003153 816.2 225.4
1001(17) 0.00365 816.7 205.3
957(16) 0.00387 817.1 186.6
912(16) 0.00378 817.5 169.4
916(17) 0.00361 817.9 154.1
924(17) 0.00362 818.3 140.6
886(16) 0.00413 818.8 128.7
893(15) 0.00416 819.2 118.4
903(16) 0.00377 819.6 109.4
891(16) 0.00377 820.0 101.6
897(16) 0.00387 820.4 94.9
886(16) 0.00411 820.9 89.0
870(15) 0.00428 821.3 83.9
866(16) 0.00406 821.7 79.4
882(16) 0.00379 822.1 75.4
899(16) 0.00388 822.5 71.9
880(15) 0.00422 823.0 68.7
904(16) 0.00411 823.4 65.8
847(16) 0.00412 823.8 63.1
844(16) 0.00383 824.2 60.7
851(16) 0.00406 824.6 58.4
839(15) 0.00440 825.1 56.3
840(15) 0.00440 825.5 54.4
880(16) 0.00401 825.9 52.6
844(16) 0.00396 826.3 50.9
890(16) 0.00396 826.7 49.3
878(15) 0.00426 827.2 47.7
884(16) 0.00416 827.6 46.3
841(15) 0.00419 828.0 45.0
863(16) 0.00385 828.4 43.7
904(16) 0.00384 828.8 42.5
849(15) 0.00437 829.3 41.4
842(15) 0.00426 829.7 40.3
848(16) 0.00410 830.1 39.2
860(16) 0.00381 830.5 38.2
871(16) 0.00390 830.9 37.3
820(15) 0.00450 831.4 36.4
845(15) 0.00426 831.8 35.5
885(16) 0.00386 832.2 34.7
817(15) 0.00421 832.6 33.9
858(16) 0.00400 833.0 33.2
859(15) 0.00432 833.5 32.4
833(15) 0.00424 833.9 31.8
880(16) 0.00380 834.3 31.1
845(16) 0.00407 834.7 30.4
864(16) 0.00406 835.1 29.8
832(15) 0.00448 835.6 29.2
820(15) 0.00437 836.0 28.7
829(16) 0.00414 836.4 28.1
839(16) 0.00408 836.8 27.6
869(16) 0.00408 837.2 27.1
824(15) 0.00451 837.7 26.6
856(16) 0.00399 838.1 26.1
819(16) 0.00416 838.5 25.6
874(16) 0.00393 838.9 25.2
825(15) 0.00445 839.3 24.8
799(15) 0.00462 839.8 24.3
856(16) 0.00408 840.2 24.0
865(16) 0.00394 840.6 23.6
842(16) 0.00412 841.0 23.2
861(15) 0.00423 841.4 22.8
839(15) 0.00446 841.9 22.5
840(16) 0.00411 842.3 22.1
866(16) 0.00380 842.7 21.8
839(15) 0.00418 843.1 21.5
852(15) 0.00429 843.5 21.2
857(15) 0.00434 844.0 20.9
873(16) 0.00402 844.4 20.6
848(16) 0.00382 844.8 20.4
808(15) 0.00433 845.2 20.1
871(15) 0.00425 845.6 19.8
863(15) 0.00428 846.1 19.6
854(16) 0.00407 846.5 19.3
839(16) 0.00394 846.9 19.1
845(16) 0.00411 847.3 18.9
871(15) 0.00425 847.7 18.7
855(15) 0.00428 848.2 18.5
851(16) 0.00412 848.6 18.3
893(17) 0.00366 849.0 18.1
858(16) 0.00409 849.4 17.9
872(15) 0.00428 849.8 17.7
864(15) 0.00423 850.3 17.5
817(15) 0.00424 850.7 17.4
848(16) 0.00386 851.1 17.2
820(15) 0.00429 851.5 17.1
865(15) 0.00429 851.9 16.9
868(15) 0.00417 852.4 16.8
848(16) 0.00412 852.8 16.6
844(16) 0.00392 853.2 16.5
813(15) 0.00421 853.6 16.4
865(15) 0.00432 854.0 16.3
885(16) 0.00395 854.5 16.2
846(16) 0.00405 854.9 16.1
842(16) 0.00411 855.3 16.0
863(16) 0.00405 855.7 15.9
843(15) 0.00441 856.1 15.8
873(16) 0.00394 856.6 15.8
879(16) 0.00391 857.0 15.7
850(16) 0.00408 857.4 15.6
845(15) 0.00425 857.8 15.6
856(15) 0.00435 858.2 15.5
845(16) 0.00414 858.7 15.5
836(16) 0.00410 859.1 15.5
850(16) 0.00408 859.6 15.4
882(16) 0.00407 860.1 15.4
877(15) 0.00423 860.7 15.4
837(15) 0.00424 861.3 15.4
891(16) 0.00373 861.8 15.4
883(16) 0.00391 862.4 15.4
880(16) 0.00409 862.9 15.5
911(16) 0.00409 863.5 15.5
837(16) 0.00415 864.1 15.6
889(16) 0.00372 864.6 15.6
881(16) 0.00404 865.2 15.7
927(16) 0.00399 865.7 15.8
889(15) 0.00418 866.3 15.9
880(16) 0.00393 866.9 16.0
910(17) 0.00352 867.4 16.1
864(16) 0.00404 868.0 16.2
884(16) 0.00415 868.5 16.4
901(16) 0.00412 869.1 16.6
853(15) 0.00420 869.7 16.8
840(16) 0.00392 870.2 17.0
854(16) 0.00407 870.8 17.2
850(15) 0.00432 871.3 17.4
878(15) 0.00422 871.9 17.7
893(16) 0.00386 872.5 18.0
880(17) 0.00361 873.0 18.4
853(16) 0.00407 873.6 18.7
896(16) 0.00414 874.1 19.1
896(16) 0.00407 874.7 19.6
872(16) 0.00395 875.3 20.1
871(16) 0.00384 875.8 20.6
911(16) 0.00374 876.4 21.2
872(15) 0.00427 876.9 21.9
883(16) 0.00410 877.5 22.6
885(16) 0.00395 878.1 23.4
865(16) 0.00389 878.6 24.2
907(16) 0.00369 879.2 25.2
853(15) 0.00434 879.7 26.3
888(16) 0.00402 880.3 27.5
923(16) 0.00368 880.9 28.8
875(16) 0.00389 881.4 30.3
923(16) 0.00379 882.0 32.0
897(16) 0.00416 882.5 33.9
896(16) 0.00395 883.1 36.1
878(16) 0.00394 883.7 38.6
930(16) 0.00376 884.2 41.5
949(16) 0.00380 884.8 44.9
940(16) 0.00395 885.3 48.9
930(16) 0.00385 885.9 53.8
938(16) 0.00368 886.5 59.8
914(16) 0.00379 887.0 67.3
959(16) 0.00373 887.6 76.8
1000(16) 0.00370 888.1 89.0
1005(17) 0.003425 888.7 104.8
1022(17) 0.003305 889.2 124.9
1015(17) 0.003407 889.8 150.2
1071(17) 0.003350 890.4 181.7
1094(17) 0.003405 890.9 219.9
1173(18) 0.002950 891.5 264.7
1243(19) 0.002686 892.0 315.5
1273(19) 0.002700 892.6 370.2
1320(19) 0.002738 893.2 424.5
1362(19) 0.002721 893.7 471.6
1407(20) 0.002453 894.3 503.0
1447(21) 0.002234 894.8 511.4
1414(20) 0.002459 895.4 494.9
1377(19) 0.002679 896.0 457.8
1270(19) 0.002913 896.5 408.5
1226(19) 0.002862 897.1 355.2
1102(18) 0.002986 897.6 303.6
1136(18) 0.003053 898.2 257.2
1088(17) 0.003371 898.8 217.3
1067(17) 0.003458 899.3 184.7
1146(18) 0.002994 899.9 159.0
1068(18) 0.003051 900.4 139.8
1011(17) 0.003382 901.0 126.4
998(16) 0.00372 901.6 118.1
1011(17) 0.00366 902.1 114.3
990(17) 0.00356 902.7 114.7
1012(18) 0.003226 903.2 118.9
1029(17) 0.003328 903.8 126.7
1032(17) 0.00362 904.4 138.1
1069(17) 0.003415 904.9 152.7
1095(18) 0.003169 905.5 170.3
1140(18) 0.002947 906.0 190.1
1151(18) 0.003039 906.6 210.7
1114(17) 0.003334 907.2 230.0
1149(18) 0.003112 907.7 245.0
1164(18) 0.002989 908.3 252.6
1152(19) 0.002895 908.8 250.6
1140(18) 0.003077 909.4 239.2
1132(17) 0.003266 910.0 220.6
1132(18) 0.003159 910.5 198.0
1047(17) 0.003275 911.1 174.1
1026(17) 0.003344 911.6 150.9
1030(17) 0.003438 912.2 129.7
961(16) 0.00388 912.8 111.0
923(16) 0.00384 913.3 94.9
962(17) 0.00357 913.9 81.4
980(17) 0.00354 914.4 70.2
994(17) 0.00357 915.0 61.0
966(16) 0.00387 915.6 53.5
947(17) 0.00362 916.1 47.5
925(17) 0.00360 916.7 42.6
901(16) 0.00393 917.2 38.6
959(16) 0.00378 917.8 35.3
907(16) 0.00407 918.4 32.5
869(16) 0.00401 918.9 30.2
960(17) 0.003449 919.5 28.2
973(17) 0.003503 920.0 26.4
930(16) 0.00390 920.6 24.9
916(16) 0.00404 921.2 23.5
912(16) 0.00373 921.7 22.3
902(17) 0.00362 922.3 21.2
928(16) 0.00376 922.8 20.3
943(16) 0.00387 923.4 19.4
904(16) 0.00411 924.0 18.6
930(16) 0.00371 924.5 17.8
920(17) 0.00357 925.1 17.2
967(17) 0.00357 925.6 16.5
939(16) 0.00391 926.2 16.0
920(16) 0.00399 926.8 15.4
936(16) 0.00378 927.3 15.0
987(17) 0.003366 927.9 14.5
953(16) 0.00378 928.4 14.1
981(16) 0.00378 929.0 13.7
963(16) 0.00384 929.6 13.4
898(16) 0.00394 930.1 13.0
971(17) 0.003363 930.7 12.7
949(17) 0.00362 931.2 12.4
942(16) 0.00395 931.8 12.1
955(16) 0.00380 932.4 11.9
924(16) 0.00377 932.9 11.6
934(17) 0.00360 933.5 11.4
947(17) 0.00364 934.0 11.2
898(16) 0.00412 934.6 11.0
882(16) 0.00415 935.2 10.8
962(17) 0.00359 935.7 10.6
961(17) 0.003483 936.3 10.5
956(17) 0.00357 936.8 10.3
918(16) 0.00405 937.4 10.2
913(16) 0.00399 938.0 10.0
920(16) 0.00376 938.5 9.9
927(16) 0.00368 939.1 9.8
910(16) 0.00386 939.6 9.7
919(16) 0.00405 940.2 9.5
931(16) 0.00376 940.8 9.4
927(17) 0.00366 941.3 9.3
917(16) 0.00378 941.9 9.2
911(16) 0.00394 942.4 9.2
946(16) 0.00396 943.0 9.1
968(17) 0.00362 943.5 9.0
931(17) 0.00362 944.1 8.9
935(17) 0.00361 944.7 8.9
961(16) 0.00372 945.2 8.8
959(16) 0.00389 945.8 8.7
927(16) 0.00377 946.3 8.7
1010(18) 0.003249 946.9 8.6
1018(17) 0.003342 947.5 8.6
933(16) 0.00389 948.0 8.5
943(16) 0.00394 948.6 8.5
974(17) 0.00352 949.1 8.4
950(17) 0.003482 949.7 8.4
941(16) 0.00373 950.3 8.4
915(16) 0.00401 950.8 8.4
962(16) 0.00386 951.4 8.3
999(17) 0.003419 951.9 8.3
926(17) 0.00355 952.5 8.3
931(16) 0.00378 953.1 8.3
909(16) 0.00408 953.6 8.3
963(16) 0.00385 954.2 8.2
952(17) 0.00360 954.7 8.2
931(17) 0.003471 955.3 8.2
962(17) 0.00354 955.9 8.2
939(16) 0.00396 956.4 8.2
956(16) 0.00383 957.0 8.2
946(16) 0.00372 957.5 8.2
984(17) 0.003370 958.1 8.2
966(16) 0.00372 958.7 8.3
936(16) 0.00398 959.2 8.3
946(16) 0.00390 959.8 8.3
954(17) 0.00361 960.3 8.3
976(17) 0.003324 960.9 8.3
945(17) 0.00365 961.5 8.3
966(16) 0.00384 962.0 8.4
964(16) 0.00380 962.6 8.4
958(17) 0.00363 963.1 8.4
922(17) 0.00366 963.7 8.5
963(17) 0.00355 964.3 8.5
947(16) 0.00395 964.8 8.5
983(17) 0.00366 965.4 8.6
995(17) 0.003502 965.9 8.6
947(17) 0.00361 966.5 8.7
979(17) 0.00361 967.1 8.7
958(16) 0.00388 967.6 8.8
973(17) 0.00363 968.2 8.9
985(17) 0.00351 968.7 8.9
979(17) 0.00353 969.3 9.0
981(17) 0.00354 969.9 9.1
974(16) 0.00381 970.4 9.1
1007(17) 0.003472 970.9 9.2
955(17) 0.00357 971.4 9.3
986(17) 0.003475 971.9 9.4
983(16) 0.00368 972.4 9.5
971(16) 0.00380 972.8 9.6
954(17) 0.00357 973.3 9.7
970(17) 0.003396 973.8 9.8
983(17) 0.003489 974.3 9.9
982(16) 0.00371 974.7 10.0
1022(17) 0.00364 975.2 10.1
1016(17) 0.003417 975.7 10.2
981(17) 0.003401 976.2 10.3
940(16) 0.00373 976.7 10.5
967(16) 0.00387 977.1 10.6
1021(17) 0.00361 977.6 10.8
974(17) 0.00358 978.1 10.9
982(17) 0.003274 978.6 11.1
998(17) 0.003411 979.0 11.2
958(16) 0.00385 979.5 11.4
969(16) 0.00382 980.0 11.6
937(16) 0.00373 980.5 11.8
982(18) 0.003174 980.9 12.0
967(17) 0.00361 981.4 12.2
1002(16) 0.00369 981.9 12.4
988(16) 0.00372 982.4 12.6
997(17) 0.003443 982.8 12.8
972(17) 0.003437 983.3 13.1
954(16) 0.00371 983.8 13.3
979(16) 0.00379 984.3 13.6
958(16) 0.00383 984.7 13.9
985(17) 0.00352 985.2 14.2
969(17) 0.003389 985.7 14.5
979(17) 0.00355 986.2 14.8
981(16) 0.00380 986.6 15.1
1000(17) 0.00364 987.1 15.5
1008(17) 0.003366 987.6 15.8
994(17) 0.003312 988.1 16.2
954(17) 0.00360 988.6 16.6
979(16) 0.00376 989.0 17.0
995(17) 0.00367 989.5 17.5
1036(18) 0.003249 990.0 18.0
1002(17) 0.003349 990.5 18.5
1032(17) 0.003359 990.9 19.0
983(16) 0.00379 991.4 19.5
990(17) 0.00352 991.9 20.1
1002(17) 0.003411 992.4 20.7
1009(17) 0.003353 992.8 21.4
1003(17) 0.00353 993.3 22.1
965(16) 0.00386 993.8 22.8
1012(17) 0.003419 994.3 23.5
1016(17) 0.003286 994.7 24.4
1063(18) 0.003215 995.2 25.2
991(17) 0.00364 995.7 26.1
1014(17) 0.00366 996.2 27.1
1030(17) 0.003422 996.6 28.2
1045(18) 0.003194 997.1 29.3
1025(17) 0.003350 997.6 30.5
1016(17) 0.00360 998.1 31.7
1027(17) 0.00362 998.5 33.1
1014(17) 0.003389 999.0 34.5
1019(17) 0.003292 999.5 36.1
1088(18) 0.003214 1000.0 37.8
1020(17) 0.00362 1000.5 39.6
1059(17) 0.00351 1000.9 41.6
1044(17) 0.003315 1001.4 43.7
1001(17) 0.003321 1001.9 46.0
985(17) 0.00354 1002.4 48.5
1006(17) 0.00364 1002.8 51.2
1060(17) 0.00353 1003.3 54.2
1057(17) 0.003270 1003.8 57.5
1008(18) 0.003257 1004.3 61.1
1083(18) 0.003199 1004.7 65.0
1083(17) 0.003401 1005.2 69.4
1101(17) 0.003387 1005.7 74.2
1064(17) 0.003290 1006.2 79.7
1084(18) 0.002945 1006.6 85.8
1094(18) 0.003226 1007.1 92.7
1113(17) 0.003348 1007.6 100.6
1109(17) 0.003308 1008.1 109.6
1107(18) 0.003113 1008.5 120.0
1107(18) 0.002995 1009.0 132.0
1109(18) 0.003167 1009.5 145.9
1205(18) 0.003097 1010.0 162.1
1197(18) 0.003003 1010.5 181.0
1184(18) 0.002946 1010.9 203.0
1262(20) 0.002620 1011.4 228.5
1248(19) 0.002745 1011.9 258.0
1307(19) 0.002829 1012.4 291.9
1373(20) 0.002599 1012.8 330.6
1386(20) 0.002503 1013.3 374.2
1437(21) 0.002311 1013.8 422.9
1477(21) 0.002364 1014.3 475.9
1564(21) 0.002374 1014.7 532.3
1655(22) 0.002149 1015.2 589.8
1633(22) 0.002106 1015.7 645.4
1677(22) 0.002034 1016.2 694.6
1798(23) 0.001957 1016.6 733.1
1838(22) 0.002023 1017.1 756.8
1832(23) 0.001911 1017.6 763.9
1741(23) 0.001941 1018.1 755.4
1700(22) 0.002015 1018.5 734.6
1699(22) 0.002095 1019.0 706.1
1611(21) 0.002303 1019.5 674.4
1698(22) 0.001995 1020.0 642.8
1635(22) 0.002115 1020.4 613.3
1620(22) 0.002158 1020.9 586.6
1572(21) 0.002283 1021.4 562.1
1551(20) 0.002392 1021.9 538.2
1531(21) 0.002263 1022.4 513.4
1548(22) 0.002157 1022.8 486.2
1542(21) 0.002235 1023.3 456.1
1424(20) 0.002531 1023.8 423.4
1467(20) 0.002534 1024.3 389.0
1498(21) 0.002309 1024.7 354.3
1353(20) 0.002425 1025.2 320.6
1303(19) 0.002698 1025.7 288.6
1374(19) 0.002669 1026.2 259.2
1285(19) 0.002882 1026.6 232.4
1257(19) 0.002824 1027.1 208.5
1254(20) 0.002521 1027.6 187.2
1203(19) 0.002876 1028.1 168.4
1245(18) 0.002971 1028.5 151.8
1200(18) 0.003117 1029.0 137.3
1208(19) 0.002808 1029.5 124.6
1213(19) 0.002657 1030.0 113.5
1222(19) 0.002855 1030.4 103.7
1180(18) 0.003141 1030.9 95.2
1193(18) 0.003043 1031.4 87.7
1143(18) 0.003027 1031.9 81.1
1194(19) 0.002694 1032.3 75.2
1140(18) 0.003064 1032.8 70.0
1170(18) 0.003169 1033.3 65.4
1150(18) 0.003185 1033.8 61.2
1150(18) 0.003060 1034.3 57.4
1113(18) 0.003042 1034.7 54.0
1091(18) 0.003191 1035.2 51.0
1171(18) 0.003162 1035.7 48.1
1165(18) 0.003077 1036.2 45.6
1153(18) 0.003050 1036.6 43.2
1115(18) 0.003039 1037.1 41.0
1108(18) 0.003113 1037.6 39.0
1077(17) 0.003445 1038.1 37.2
1058(17) 0.003289 1038.5 35.4
1088(18) 0.003196 1039.0 33.8
1116(18) 0.003052 1039.5 32.3
1090(18) 0.003229 1040.0 31.0
1102(17) 0.003365 1040.4 29.7
1098(18) 0.003259 1040.9 28.4
1111(18) 0.003143 1041.4 27.3
1096(18) 0.003072 1041.9 26.2
1075(17) 0.003334 1042.3 25.2
1080(17) 0.003432 1042.8 24.3
1043(17) 0.003345 1043.3 23.4
1073(18) 0.003140 1043.8 22.6
1058(17) 0.003273 1044.2 21.8
1097(17) 0.003273 1044.7 21.0
1087(17) 0.003422 1045.2 20.3
1071(18) 0.003211 1045.7 19.7
1090(18) 0.002985 1046.2 19.0
1086(18) 0.003188 1046.6 18.4
1090(17) 0.003297 1047.1 17.9
1074(17) 0.003447 1047.6 17.3
1099(18) 0.003144 1048.1 16.8
1025(18) 0.003234 1048.5 16.3
1058(18) 0.003245 1049.0 15.9
1066(17) 0.003416 1049.5 15.4
1038(17) 0.00360 1050.0 15.0
1090(18) 0.003124 1050.4 14.6
1093(18) 0.002945 1050.9 14.2
1092(18) 0.003218 1051.4 13.8
1114(17) 0.003299 1051.9 13.5
1087(17) 0.003403 1052.3 13.1
1052(17) 0.003279 1052.8 12.8
1066(18) 0.003005 1053.3 12.5
1073(17) 0.003288 1053.8 12.2
1068(17) 0.003472 1054.2 11.9
1062(17) 0.003454 1054.7 11.6
1089(18) 0.003129 1055.2 11.4
1063(18) 0.003021 1055.7 11.1
1072(18) 0.003185 1056.2 10.9
1084(17) 0.003453 1056.6 10.6
1040(17) 0.00351 1057.1 10.4
1062(18) 0.003253 1057.6 10.2
1032(18) 0.003191 1058.1 10.0
1043(17) 0.003358 1058.5 9.8
1107(17) 0.003351 1059.0 9.6
1076(17) 0.003404 1059.5 9.4
1081(18) 0.003197 1060.0 9.2
1053(18) 0.003125 1060.4 9.0
1024(17) 0.003345 1060.9 8.8
1036(17) 0.00357 1061.4 8.7
1104(18) 0.003257 1061.9 8.5
1078(18) 0.003218 1062.3 8.4
1076(18) 0.003164 1062.8 8.2
1044(17) 0.003309 1063.3 8.1
1015(16) 0.00368 1063.8 7.9
1055(17) 0.003319 1064.2 7.8
1047(18) 0.003222 1064.7 7.7
1061(18) 0.003236 1065.2 7.5
1047(17) 0.003408 1065.7 7.4
1096(17) 0.003414 1066.1 7.3
1080(18) 0.003223 1066.6 7.2
1068(18) 0.003145 1067.1 7.0
1045(18) 0.003248 1067.6 6.9
1088(18) 0.003258 1068.1 6.8
1067(17) 0.003493 1068.5 6.7
1074(18) 0.003181 1069.0 6.6
1073(18) 0.003117 1069.5 6.5
1118(18) 0.003056 1070.0 6.4
1079(17) 0.003368 1070.4 6.3
1085(17) 0.003443 1070.9 6.3
1064(18) 0.003251 1071.4 6.2
1031(17) 0.003269 1071.9 6.1
1049(17) 0.003344 1072.3 6.0
1076(17) 0.003382 1072.8 5.9
1066(17) 0.003492 1073.3 5.8
1091(18) 0.003231 1073.8 5.8
1048(18) 0.003187 1074.2 5.7
1095(18) 0.003208 1074.7 5.6
1132(17) 0.003268 1075.2 5.5
1085(17) 0.003399 1075.7 5.5
1077(18) 0.003216 1076.1 5.4
1052(18) 0.003077 1076.6 5.3
1085(18) 0.003175 1077.1 5.3
1078(17) 0.003464 1077.6 5.2
1120(18) 0.003240 1078.0 5.2
1112(18) 0.003143 1078.5 5.1
1066(18) 0.003086 1079.0 5.0
1079(18) 0.003181 1079.5 5.0
1068(17) 0.003498 1080.0 4.9
1063(17) 0.003407 1080.4 4.9
1069(18) 0.003185 1080.9 4.8
1030(18) 0.003168 1081.4 4.8
1099(18) 0.003108 1081.9 4.7
1056(17) 0.00353 1082.3 4.7
1143(18) 0.003142 1082.8 4.6
1092(18) 0.003246 1083.3 4.6
1075(18) 0.003148 1083.8 4.5
1108(18) 0.003069 1084.2 4.5
1087(17) 0.003410 1084.7 4.5
1097(18) 0.003265 1085.2 4.4
1109(18) 0.003095 1085.7 4.4
1074(18) 0.003115 1086.1 4.3
1067(17) 0.003302 1086.6 4.3
1139(17) 0.003278 1087.1 4.3
1076(17) 0.003281 1087.6 4.2
1079(18) 0.003111 1088.0 4.2
1063(18) 0.003175 1088.5 4.2
1061(17) 0.003351 1089.0 4.1
1148(18) 0.003239 1089.5 4.1
1111(18) 0.003194 1090.0 4.1
1080(18) 0.003182 1090.4 4.0
1153(18) 0.002995 1090.9 4.0
1068(17) 0.003339 1091.4 4.0
1097(17) 0.003386 1091.9 3.9
1081(18) 0.003207 1092.3 3.9
1089(18) 0.003100 1092.8 3.9
1088(18) 0.003227 1093.3 3.9
1104(17) 0.003328 1093.8 3.9
1080(17) 0.003446 1094.2 3.8
1107(18) 0.003058 1094.7 3.8
1100(18) 0.002971 1095.2 3.8
1081(18) 0.003210 1095.7 3.8
1108(17) 0.003337 1096.1 3.8
1127(17) 0.003304 1096.6 3.7
1114(18) 0.003100 1097.1 3.7
1081(18) 0.003003 1097.6 3.7
1071(18) 0.003231 1098.0 3.7
1105(17) 0.003325 1098.5 3.7
1167(18) 0.003159 1099.0 3.7
1126(18) 0.003085 1099.5 3.7
1101(19) 0.002897 1099.9 3.7
1098(18) 0.003189 1100.4 3.7
1155(18) 0.003189 1100.9 3.7
1155(18) 0.003215 1101.4 3.7
1126(18) 0.003081 1101.9 3.7
1081(18) 0.002981 1102.1 3.7
1128(18) 0.003071 1102.2 3.7
1156(18) 0.003219 1102.3 3.8
1150(18) 0.003138 1102.4 3.8
1085(17) 0.003307 1102.5 3.8
1109(18) 0.002933 1102.5 3.8
1084(18) 0.003171 1102.6 3.9
1068(17) 0.003470 1102.7 3.9
1035(17) 0.003475 1102.8 4.0
1084(18) 0.003199 1102.9 4.0
1104(18) 0.003008 1102.9 4.1
1082(18) 0.003223 1103.0 4.1
1136(18) 0.003206 1103.1 4.2
1115(18) 0.003248 1103.2 4.2
1191(19) 0.002881 1103.3 4.3
1143(18) 0.002980 1103.3 4.3
1081(18) 0.003255 1103.4 4.4
1070(17) 0.003391 1103.5 4.4
1085(17) 0.003274 1103.6 4.5
1139(19) 0.002911 1103.7 4.5
1138(18) 0.003008 1103.7 4.5
1130(18) 0.003127 1103.8 4.5
1110(17) 0.003305 1103.9 4.5
1111(18) 0.003157 1104.0 4.4
1079(18) 0.003156 1104.1 4.4
1122(18) 0.003097 1104.1 4.3
1112(18) 0.003162 1104.2 4.2
1104(17) 0.003327 1104.3 4.2
1150(18) 0.002965 1104.4 4.1
1141(19) 0.002887 1104.5 4.0
1111(18) 0.003113 1104.6 3.9
1085(17) 0.003309 1104.6 3.8
1146(18) 0.003237 1104.7 3.8
1117(18) 0.003093 1104.8 3.7
1116(18) 0.002998 1104.9 3.6
1122(18) 0.003038 1105.0 3.5
1113(18) 0.003225 1105.0 3.5
1176(18) 0.003144 1105.1 3.4
1120(18) 0.003076 1105.2 3.4
1121(18) 0.002947 1105.3 3.3
1091(18) 0.003249 1105.4 3.3
1131(18) 0.003253 1105.4 3.2
1107(17) 0.003324 1105.5 3.2
1125(18) 0.003053 1105.6 3.2
1134(19) 0.002911 1105.7 3.1
1128(18) 0.003069 1105.8 3.1
1165(18) 0.003126 1105.8 3.1
1133(18) 0.003265 1105.9 3.0
1158(18) 0.003012 1106.0 3.0
1154(19) 0.002843 1106.1 3.0
1097(18) 0.003232 1106.2 3.0
1150(18) 0.003222 1106.2 3.0
1152(18) 0.003185 1106.3 3.0
1171(18) 0.002976 1106.4 2.9
1138(19) 0.002874 1106.5 2.9
1119(18) 0.003112 1106.6 2.9
1108(17) 0.003366 1106.7 2.9
1080(17) 0.003350 1106.7 2.9
1076(18) 0.003234 1106.8 2.9
1107(18) 0.002985 1106.9 2.9
1092(18) 0.003150 1107.0 2.9
1110(17) 0.003315 1107.1 2.9
1153(18) 0.003105 1107.1 2.9
1100(18) 0.003149 1107.2 2.9
1112(18) 0.002999 1107.3 2.9
1130(18) 0.003034 1107.4 2.9
1130(17) 0.003278 1107.5 2.9
1127(18) 0.003181 1107.5 2.9
1160(18) 0.002962 1107.6 2.9
1125(18) 0.003063 1107.7 2.9
1082(17) 0.003299 1107.8 2.9
1077(17) 0.003460 1107.9 2.9
1142(18) 0.003076 1107.9 2.9
1099(18) 0.003125 1108.0 3.0
1100(18) 0.003090 1108.1 3.0
1088(17) 0.003291 1108.2 3.0
1131(17) 0.003289 1108.3 3.0
1135(18) 0.003078 1108.3 3.0
1110(18) 0.003086 1108.4 3.0
1166(18) 0.002950 1108.5 3.1
1105(18) 0.003257 1108.6 3.1
1094(17) 0.003389 1108.7 3.1
1164(18) 0.002953 1108.8 3.1
1127(18) 0.003051 1108.8 3.2
1149(18) 0.003016 1108.9 3.2
1122(18) 0.003265 1109.0 3.2
1092(17) 0.003418 1109.1 3.3
1132(18) 0.003040 1109.2 3.3
1152(19) 0.002830 1109.2 3.3
1098(18) 0.003222 1109.3 3.4
1118(18) 0.003252 1109.4 3.4
1135(17) 0.003280 1109.5 3.5
1121(18) 0.003123 1109.6 3.5
1100(18) 0.003008 1109.6 3.6
1162(18) 0.003019 1109.7 3.7
1092(17) 0.003380 1109.8 3.7
1181(18) 0.003149 1109.9 3.8
1116(18) 0.003143 1110.0 3.9
1140(19) 0.002807 1110.0 4.0
1156(18) 0.003010 1110.1 4.1
1087(17) 0.003410 1110.2 4.1
1189(18) 0.003079 1110.3 4.3
1155(18) 0.003053 1110.4 4.4
1172(19) 0.002740 1110.4 4.5
1132(18) 0.003058 1110.5 4.6
1099(17) 0.003386 1110.6 4.8
1088(17) 0.003353 1110.7 4.9
1108(18) 0.003142 1110.8 5.1
1099(18) 0.003021 1110.9 5.2
1139(18) 0.003016 1110.9 5.4
1136(17) 0.003277 1111.0 5.7
1145(18) 0.003194 1111.1 5.9
1159(18) 0.003044 1111.2 6.1
1129(18) 0.003021 1111.3 6.4
1147(18) 0.002947 1111.3 6.7
1095(17) 0.003401 1111.4 7.1
1181(18) 0.003038 1111.5 7.4
1142(18) 0.003035 1111.6 7.9
1124(18) 0.003030 1111.7 8.3
1137(18) 0.003118 1111.7 8.8
1139(18) 0.003254 1111.8 9.4
1133(18) 0.003137 1111.9 10.0
1088(18) 0.003190 1112.0 10.8
1139(18) 0.003011 1112.1 11.5
1154(18) 0.003105 1112.1 12.4
1114(17) 0.003335 1112.2 13.4
1080(18) 0.003262 1112.3 14.5
1136(18) 0.002953 1112.4 15.6
1105(18) 0.003071 1112.5 16.9
1139(18) 0.003104 1112.5 18.4
1163(18) 0.003190 1112.6 19.9
1141(18) 0.003050 1112.7 21.6
1158(19) 0.002879 1112.8 23.4
1135(18) 0.003080 1112.9 25.2
1114(17) 0.003286 1112.9 27.1
1175(18) 0.003179 1113.0 29.1
1143(18) 0.003063 1113.1 30.9
1188(19) 0.002738 1113.2 32.6
1114(18) 0.003181 1113.3 34.0
1153(18) 0.003200 1113.4 35.1
1224(18) 0.003047 1113.4 35.7
1195(18) 0.002971 1113.5 35.9
1165(19) 0.002760 1113.6 35.5
1129(18) 0.003035 1113.7 34.7
1110(17) 0.003329 1113.8 33.5
1150(18) 0.003229 1113.8 32.0
1166(18) 0.002968 1113.9 30.2
1192(19) 0.002705 1114.0 28.4
1186(19) 0.002917 1114.1 26.4
1121(17) 0.003309 1114.2 24.5
1131(17) 0.003294 1114.2 22.7
1150(18) 0.003033 1114.3 20.9
1140(19) 0.002896 1114.4 19.3
1177(18) 0.002928 1114.5 17.8
1129(17) 0.003302 1114.6 16.4
1101(17) 0.003361 1114.6 15.1
1162(18) 0.003022 1114.7 13.9
1140(19) 0.002888 1114.8 12.9
1148(18) 0.003005 1114.9 11.9
1107(17) 0.003364 1115.0 11.1
1109(17) 0.003268 1115.0 10.3
1129(18) 0.003045 1115.1 9.6
1139(19) 0.002916 1115.2 9.0
1140(18) 0.003045 1115.3 8.4
1114(17) 0.003315 1115.4 7.9
1114(18) 0.003206 1115.5 7.5
1111(18) 0.003176 1115.5 7.1
1188(19) 0.002822 1115.6 6.7
1150(18) 0.003044 1115.7 6.4
1136(17) 0.003266 1115.8 6.0
1093(17) 0.003285 1115.9 5.8
1115(18) 0.003094 1115.9 5.5
1112(18) 0.003058 1116.0 5.3
1057(17) 0.003340 1116.1 5.1
1120(17) 0.003302 1116.2 4.9
1151(18) 0.003064 1116.3 4.7
1094(18) 0.003102 1116.3 4.5
1138(18) 0.003031 1116.4 4.3
1092(17) 0.003376 1116.5 4.2
1117(17) 0.003324 1116.6 4.1
1084(18) 0.003199 1116.7 3.9
1122(18) 0.003033 1116.7 3.8
1152(18) 0.003039 1116.8 3.7
1131(18) 0.003192 1116.9 3.6
1096(17) 0.003374 1117.0 3.5
1125(18) 0.003032 1117.1 3.4
1122(18) 0.003037 1117.1 3.3
1185(19) 0.002918 1117.2 3.2
1169(18) 0.003126 1117.3 3.2
1117(17) 0.003320 1117.4 3.1
1133(18) 0.003055 1117.5 3.0
1147(19) 0.002893 1117.6 3.0
1166(18) 0.002987 1117.6 2.9
1087(17) 0.003398 1117.7 2.8
1096(17) 0.003388 1117.8 2.8
1150(18) 0.003012 1117.9 2.7
1117(19) 0.002829 1118.0 2.7
1083(18) 0.003223 1118.0 2.6
1151(18) 0.003200 1118.1 2.6
1147(18) 0.003251 1118.2 2.5
1113(18) 0.003161 1118.3 2.5
1122(19) 0.002905 1118.4 2.5
1107(18) 0.003210 1118.4 2.4
1111(17) 0.003324 1118.5 2.4
1146(18) 0.003262 1118.6 2.3
1097(18) 0.003193 1118.7 2.3
1113(18) 0.002934 1118.8 2.3
1127(18) 0.003085 1118.8 2.2
1157(18) 0.003203 1118.9 2.2
1119(17) 0.003272 1119.0 2.2
1136(18) 0.003023 1119.1 2.2
1076(18) 0.003088 1119.2 2.1
1107(18) 0.003119 1119.2 2.1
1101(17) 0.003375 1119.3 2.1
1159(18) 0.003110 1119.4 2.1
1171(18) 0.002944 1119.5 2.0
1114(18) 0.003017 1119.6 2.0
1099(18) 0.003162 1119.7 2.0
1181(18) 0.003162 1119.7 2.0
1150(18) 0.003064 1119.8 2.0
1144(18) 0.003008 1119.9 1.9
1133(18) 0.003046 1120.0 1.9
1152(18) 0.003063 1120.1 1.9
1116(17) 0.003340 1120.1 1.9
1115(18) 0.003169 1120.2 1.9
1096(18) 0.003096 1120.3 1.8
1077(18) 0.003196 1120.4 1.8
1120(18) 0.003164 1120.5 1.8
1142(18) 0.003253 1120.5 1.8
1100(18) 0.003172 1120.6 1.8
1064(18) 0.003251 1120.4 1.8
1113(18) 0.003152 1120.0 1.8
1148(18) 0.003197 1119.6 1.7
1165(18) 0.003190 1119.1 1.7
1152(18) 0.002948 1118.7 1.7
1106(18) 0.002982 1118.3 1.7
1090(18) 0.003194 1117.9 1.7
1186(18) 0.003037 1117.4 1.7
1109(17) 0.003335 1117.0 1.7
1118(18) 0.003134 1116.6 1.7
1145(19) 0.002859 1116.1 1.7
1124(18) 0.003061 1115.7 1.6
1146(18) 0.003203 1115.3 1.6
1148(18) 0.003236 1114.8 1.6
1115(18) 0.003124 1114.4 1.6
1170(19) 0.002659 1114.0 1.6
1104(18) 0.003084 1113.5 1.6
1105(17) 0.003369 1113.1 1.6
1133(18) 0.003255 1112.7 1.6
1137(18) 0.003009 1112.2 1.6
1129(19) 0.002866 1111.8 1.6
1109(18) 0.003198 1111.4 1.6
1097(17) 0.003352 1110.9 1.6
1154(18) 0.003208 1110.5 1.5
1130(18) 0.003066 1110.1 1.5
1156(19) 0.002791 1109.7 1.5
1141(18) 0.003045 1109.2 1.5
1078(17) 0.003439 1108.8 1.5
1131(18) 0.003237 1108.4 1.5
1128(18) 0.003076 1107.9 1.5
1137(18) 0.002930 1107.5 1.5
1137(18) 0.003011 1107.1 1.5
1098(17) 0.003378 1106.6 1.5
1172(18) 0.003076 1106.2 1.5
1137(18) 0.003065 1105.8 1.5
1178(19) 0.002877 1105.3 1.5
1145(18) 0.002975 1104.9 1.5
1138(18) 0.003264 1104.5 1.5
1094(17) 0.003279 1104.0 1.4
1150(18) 0.002957 1103.6 1.4
1152(18) 0.002930 1103.2 1.4
1112(18) 0.003134 1102.7 1.4
1112(17) 0.003368 1102.3 1.4
1104(18) 0.003215 1101.9 1.4
1103(18) 0.003139 1101.5 1.4
1105(18) 0.003110 1101.0 1.4
1120(18) 0.003149 1100.6 1.4
1127(17) 0.003310 1100.2 1.4
1142(18) 0.003030 1099.7 1.4
1114(18) 0.003030 1099.3 1.4
1153(18) 0.002972 1098.9 1.4
1117(18) 0.003215 1098.4 1.4
1068(17) 0.003485 1098.0 1.4
1116(18) 0.003008 1097.6 1.4
1063(18) 0.003197 1097.1 1.4
1116(18) 0.003131 1096.7 1.4
1123(18) 0.003186 1096.3 1.4
1105(17) 0.003365 1095.8 1.4
1114(18) 0.003137 1095.4 1.4
1104(18) 0.002991 1095.0 1.4
1088(18) 0.003254 1094.5 1.4
1089(17) 0.003391 1094.1 1.4
1130(17) 0.003285 1093.7 1.3
1132(18) 0.003063 1093.2 1.3
1160(19) 0.002835 1092.8 1.3
1165(18) 0.003004 1092.4 1.3
1130(17) 0.003295 1092.0 1.3
1113(17) 0.003299 1091.5 1.3
1118(18) 0.003131 1091.1 1.3
1091(18) 0.002932 1090.7 1.3
1139(18) 0.003063 1090.2 1.3
1121(17) 0.003304 1089.8 1.3
1075(17) 0.003406 1089.4 1.3
1071(18) 0.003247 1088.9 1.3
1121(19) 0.002901 1088.5 1.3
1121(18) 0.003089 1088.1 1.3
1075(17) 0.003456 1087.6 1.3
1099(17) 0.003331 1087.2 1.3
1097(18) 0.003179 1086.8 1.3
1121(18) 0.002927 1086.3 1.3
1103(18) 0.003215 1085.9 1.3
1094(17) 0.003407 1085.5 1.3
1148(18) 0.003113 1085.0 1.3
1146(18) 0.003013 1084.6 1.3
1141(19) 0.002886 1084.2 1.3
1116(18) 0.003110 1083.8 1.3
1115(17) 0.003323 1083.3 1.3
1102(18) 0.003263 1082.9 1.3
1085(18) 0.003214 1082.5 1.3
1097(18) 0.003086 1082.0 1.3
1080(18) 0.003209 1081.6 1.3
1110(17) 0.003365 1081.2 1.3
1100(18) 0.003211 1080.7 1.3
1085(18) 0.003201 1080.3 1.3
1108(18) 0.003119 1079.9 1.3
1109(18) 0.003167 1079.4 1.3
1122(17) 0.003305 1079.0 1.3
1154(18) 0.003022 1078.6 1.3
1076(18) 0.003176 1078.1 1.3
1134(18) 0.002996 1077.7 1.3
1120(18) 0.003183 1077.3 1.3
1084(17) 0.003441 1076.8 1.3
1140(18) 0.003057 1076.4 1.3
1127(18) 0.003024 1076.0 1.3
1161(19) 0.002898 1075.5 1.3
1112(17) 0.003287 1075.1 1.3
1082(17) 0.003437 1074.7 1.3
1143(18) 0.002998 1074.3 1.3
1040(18) 0.003245 1073.8 1.3
1092(18) 0.003178 1073.4 1.3
1035(17) 0.00354 1073.0 1.3
1098(17) 0.003390 1072.5 1.3
1118(18) 0.003104 1072.1 1.3
1084(18) 0.003067 1071.7 1.3
1082(18) 0.003237 1071.2 1.2
1107(17) 0.003313 1070.8 1.2
1095(17) 0.003387 1070.4 1.2
1108(18) 0.003144 1069.9 1.2
1081(18) 0.003024 1069.5 1.2
1070(17) 0.003285 1069.1 1.2
1045(17) 0.00356 1068.6 1.2
1108(17) 0.003305 1068.2 1.2
1119(18) 0.003146 1067.8 1.2
1069(18) 0.003055 1067.3 1.2
1099(18) 0.003128 1066.9 1.2
1112(17) 0.003358 1066.5 1.2
1098(17) 0.003344 1066.1 1.2
1087(18) 0.003246 1065.6 1.2
1052(18) 0.003113 1065.2 1.2
1032(17) 0.003316 1064.8 1.2
1132(17) 0.003274 1064.3 1.2
1084(17) 0.003368 1063.9 1.2
1070(18) 0.003242 1063.5 1.2
1096(18) 0.003160 1063.0 1.2
1085(18) 0.003265 1062.6 1.2
1137(17) 0.003290 1062.2 1.2
1064(17) 0.003421 1061.7 1.2
1100(18) 0.003148 1061.3 1.2
1020(17) 0.003303 1060.9 1.2
1062(18) 0.003194 1060.4 1.2
1049(17) 0.00354 1060.0 1.2
1108(18) 0.003216 1059.6 1.2
1073(18) 0.003213 1059.1 1.2
1040(17) 0.003318 1058.7 1.2
1071(17) 0.003359 1058.3 1.2
1087(17) 0.003445 1057.9 1.2
1116(18) 0.003116 1057.4 1.2
1079(18) 0.003122 1057.0 1.2
1062(18) 0.003211 1056.6 1.2
1113(18) 0.003213 1056.1 1.2
1053(17) 0.00353 1055.7 1.2
1056(18) 0.003249 1055.3 1.2
1019(17) 0.003298 1054.8 1.2
1012(17) 0.003449 1054.4 1.2
1078(17) 0.003394 1054.0 1.2
1059(17) 0.003504 1053.5 1.2
1025(17) 0.003385 1053.1 1.2
1086(18) 0.003043 1052.7 1.2
1068(18) 0.003219 1052.2 1.2
1064(17) 0.003472 1051.8 1.2
1020(17) 0.00365 1051.4 1.2
1059(17) 0.003293 1050.9 1.2
1035(18) 0.003202 1050.5 1.2
1039(17) 0.003326 1050.1 1.2
1040(17) 0.00356 1049.6 1.2
1077(17) 0.003440 1049.2 1.2
1077(18) 0.003219 1048.8 1.2
1075(18) 0.002993 1048.4 1.2
1087(18) 0.003173 1047.9 1.2
1079(17) 0.003371 1047.5 1.2
1107(17) 0.003314 1047.1 1.2
1064(17) 0.003277 1046.6 1.2
1013(18) 0.003231 1046.2 1.2
1046(17) 0.003329 1045.8 1.2
1081(17) 0.003403 1045.3 1.2
1050(17) 0.00352 1044.9 1.2
1074(18) 0.003194 1044.5 1.3
1044(18) 0.003150 1044.0 1.3
1088(18) 0.003150 1043.6 1.3
1040(17) 0.00356 1043.2 1.3
1044(17) 0.003489 1042.7 1.3
1075(18) 0.003174 1042.3 1.3
1031(18) 0.003259 1041.9 1.3
1051(18) 0.003252 1041.4 1.3
999(16) 0.00374 1041.0 1.3
1041(17) 0.003453 1040.6 1.3
1050(17) 0.003331 1040.2 1.3
1046(18) 0.003233 1039.7 1.3
1073(18) 0.003231 1039.3 1.3
1048(17) 0.00354 1038.9 1.3
1046(17) 0.003444 1038.4 1.3
1084(18) 0.003182 1038.0 1.3
1067(18) 0.003199 1037.6 1.3
1031(17) 0.003456 1037.1 1.3
1088(17) 0.003407 1036.7 1.3
1104(18) 0.003212 1036.3 1.3
1048(17) 0.003317 1035.8 1.3
1045(17) 0.003288 1035.4 1.3
1078(17) 0.003365 1035.0 1.3
1085(17) 0.003427 1034.5 1.3
1091(18) 0.003165 1034.1 1.3
1060(18) 0.003194 1033.7 1.3
1050(17) 0.003326 1033.2 1.3
1035(17) 0.003476 1032.8 1.3
1083(17) 0.003434 1032.4 1.3
1075(18) 0.003202 1031.9 1.3
1050(18) 0.003243 1031.5 1.3
1063(17) 0.003304 1031.1 1.3
1086(17) 0.003327 1030.7 1.3
1017(17) 0.00366 1030.2 1.3
1066(17) 0.003289 1029.8 1.3
1043(18) 0.003222 1029.4 1.3
1036(17) 0.003435 1028.9 1.3
1048(17) 0.003471 1028.5 1.3
1036(17) 0.00360 1028.1 1.3
1062(17) 0.003274 1027.6 1.3
1067(18) 0.003038 1027.2 1.3
1068(18) 0.003263 1026.8 1.3
1037(17) 0.00354 1026.3 1.3
1055(17) 0.00351 1025.9 1.3
1004(17) 0.00354 1025.5 1.3
1065(18) 0.002968 1025.0 1.3
1032(17) 0.003421 1024.6 1.3
1041(17) 0.00359 1024.2 1.3
1041(17) 0.00358 1023.7 1.3
1044(17) 0.003340 1023.3 1.3
1048(18) 0.003116 1022.9 1.3
1022(17) 0.003462 1022.5 1.3
994(16) 0.00375 1022.0 1.3
1035(17) 0.00353 1021.6 1.3
1046(17) 0.003328 1021.2 1.4
1011(18) 0.003264 1020.7 1.4
985(17) 0.00352 1020.3 1.4
991(16) 0.00379 1019.9 1.4
1012(17) 0.00362 1019.4 1.4
1023(17) 0.003383 1019.0 1.4
1052(18) 0.003191 1018.6 1.4
1020(17) 0.003404 1018.1 1.4
1063(17) 0.00351 1017.7 1.4
1029(17) 0.003499 1017.3 1.4
1039(18) 0.003257 1016.8 1.4
990(17) 0.003443 1016.4 1.4
1026(17) 0.003418 1016.0 1.4
1019(17) 0.00367 1015.5 1.4
1048(17) 0.003395 1015.1 1.4
1055(18) 0.003247 1014.7 1.4
1043(17) 0.003323 1014.3 1.4
1017(17) 0.003474 1013.8 1.4
1024(17) 0.00364 1013.4 1.4
1021(17) 0.003444 1013.0 1.4
1027(17) 0.003297 1012.5 1.4
1044(18) 0.003262 1012.1 1.4
1013(17) 0.00359 1011.7 1.4
1025(17) 0.00363 1011.2 1.4
1030(18) 0.003246 1010.8 1.4
1010(17) 0.003310 1010.4 1.4
1022(17) 0.003339 1009.9 1.4
998(16) 0.00368 1009.5 1.5
1035(17) 0.00360 1009.1 1.5
1008(17) 0.003471 1008.6 1.5
1029(18) 0.003212 1008.2 1.5
994(17) 0.00357 1007.8 1.5
1016(17) 0.00359 1007.3 1.5
1000(16) 0.00370 1006.9 1.5
1001(17) 0.003483 1006.5 1.5
1037(18) 0.003056 1006.0 1.5
1031(17) 0.003345 1005.6 1.5
1024(17) 0.00356 1005.2 1.5
1038(17) 0.00361 1004.7 1.5
1018(17) 0.003424 1004.1 1.5
992(18) 0.003234 1003.6 1.5
1034(17) 0.003330 1003.0 1.5
992(16) 0.00374 1002.5 1.5
1013(17) 0.00363 1001.9 1.5
990(17) 0.00357 1001.4 1.5
1030(18) 0.003150 1000.8 1.6
1024(17) 0.003441 1000.3 1.6
1066(17) 0.003499 999.7 1.6
1037(17) 0.00354 999.2 1.6
1005(17) 0.003494 998.6 1.6
1018(18) 0.003230 998.1 1.6
963(17) 0.00363 997.5 1.6
1000(16) 0.00372 997.0 1.6
1025(17) 0.00354 996.4 1.6
989(17) 0.00351 995.9 1.6
1008(18) 0.003205 995.3 1.6
1007(17) 0.003429 994.7 1.6
989(16) 0.00376 994.2 1.6
1032(17) 0.00354 993.6 1.6
996(17) 0.003419 993.1 1.7
998(17) 0.003313 992.5 1.7
932(16) 0.00377 992.0 1.7
941(16) 0.00393 991.4 1.7
968(17) 0.00367 990.9 1.7
1034(18) 0.003241 990.3 1.7
983(17) 0.003441 989.8 1.7
952(16) 0.00372 989.2 1.7
1037(17) 0.00357 988.7 1.7
1011(17) 0.003472 988.1 1.7
967(17) 0.00352 987.6 1.7
975(17) 0.003474 987.0 1.7
1006(17) 0.00353 986.5 1.8
970(16) 0.00380 985.9 1.8
970(17) 0.00357 985.4 1.8
960(17) 0.003503 984.8 1.8
1027(18) 0.003265 984.2 1.8
997(17) 0.00363 983.7 1.8
989(16) 0.00376 983.1 1.8
974(17) 0.00355 982.6 1.8
975(17) 0.003385 982.0 1.8
951(16) 0.00369 981.5 1.9
964(16) 0.00382 980.9 1.9
961(16) 0.00388 980.4 1.9
975(17) 0.00352 979.8 1.9
1000(17) 0.003312 979.3 1.9
1017(17) 0.003384 978.7 1.9
1001(16) 0.00371 978.2 1.9
988(16) 0.00375 977.6 2.0
967(17) 0.00357 977.1 2.0
960(17) 0.003341 976.5 2.0
955(17) 0.00362 976.0 2.0
946(16) 0.00393 975.4 2.0
947(16) 0.00391 974.9 2.0
992(17) 0.003465 974.3 2.0
958(17) 0.003421 973.8 2.1
987(17) 0.00352 973.2 2.1
1005(16) 0.00372 972.6 2.1
984(16) 0.00373 972.1 2.1
1000(17) 0.003469 971.5 2.1
986(17) 0.003371 971.0 2.2
992(17) 0.00354 970.4 2.2
967(16) 0.00386 969.9 2.2
998(17) 0.00362 969.3 2.2
959(17) 0.00363 968.8 2.2
941(17) 0.00354 968.2 2.3
990(17) 0.00351 967.7 2.3
960(16) 0.00387 967.1 2.3
945(16) 0.00385 966.6 2.3
996(17) 0.003488 966.0 2.4
1003(17) 0.003324 965.5 2.4
970(17) 0.00355 964.9 2.4
927(16) 0.00399 964.4 2.4
937(16) 0.00384 963.8 2.5
930(16) 0.00369 963.3 2.5
958(17) 0.00352 962.7 2.5
985(17) 0.00355 962.1 2.6
993(16) 0.00377 961.6 2.6
969(17) 0.00363 961.0 2.6
971(17) 0.00361 960.5 2.7
982(17) 0.003467 959.9 2.7
923(16) 0.00386 959.4 2.8
926(16) 0.00401 958.8 2.8
934(16) 0.00377 958.3 2.9
944(17) 0.00354 957.7 2.9
902(16) 0.00380 957.2 3.0
968(16) 0.00376 956.6 3.0
930(16) 0.00397 956.1 3.1
929(17) 0.00362 955.5 3.1
950(17) 0.003487 955.0 3.2
970(17) 0.00357 954.4 3.2
963(16) 0.00376 953.9 3.3
938(16) 0.00396 953.3 3.4
985(17) 0.00357 952.8 3.5
979(17) 0.003409 952.2 3.5
998(17) 0.003485 951.6 3.6
960(16) 0.00385 951.1 3.7
971(16) 0.00383 950.5 3.8
983(17) 0.00351 950.0 3.9
945(17) 0.003380 949.4 4.0
954(17) 0.00365 948.9 4.2
970(16) 0.00384 948.3 4.3
1003(17) 0.00361 947.8 4.4
939(16) 0.00373 947.2 4.6
934(17) 0.003490 946.7 4.8
987(17) 0.003460 946.1 4.9
980(16) 0.00376 945.6 5.1
948(16) 0.00389 945.0 5.4
920(16) 0.00376 944.5 5.6
919(17) 0.00357 943.9 5.8
935(16) 0.00371 943.4 6.1
944(16) 0.00393 942.8 6.4
946(16) 0.00385 942.3 6.7
916(16) 0.00382 941.7 7.1
944(17) 0.00356 941.1 7.5
949(17) 0.00358 940.6 7.9
951(16) 0.00392 940.0 8.4
951(16) 0.00377 939.5 8.8
964(17) 0.00357 938.9 9.4
980(17) 0.003381 938.4 9.9
979(17) 0.003504 937.8 10.5
976(16) 0.00382 937.3 11.1
945(16) 0.00382 936.7 11.6
931(16) 0.00370 936.2 12.2
922(16) 0.00377 935.6 12.8
934(16) 0.00377 935.1 13.3
935(16) 0.00398 934.5 13.8
967(17) 0.00361 934.0 14.2
960(17) 0.00358 933.4 14.5
943(16) 0.00370 932.9 14.6
965(16) 0.00368 932.3 14.6
948(16) 0.00392 931.8 14.5
941(16) 0.00371 931.2 14.3
941(17) 0.00360 930.7 14.0
936(16) 0.00370 930.1 13.6
907(16) 0.00394 929.5 13.1
907(16) 0.00410 929.0 12.6
928(16) 0.00373 928.4 12.1
914(17) 0.00366 927.9 11.6
935(17) 0.00364 927.3 11.0
932(16) 0.00388 926.8 10.5
949(16) 0.00390 926.2 10.1
932(17) 0.00367 925.7 9.6
959(17) 0.003428 925.1 9.2
917(16) 0.00386 924.6 8.8
922(16) 0.00393 924.0 8.5
935(16) 0.00398 923.5 8.2
942(16) 0.00369 922.9 7.9
929(17) 0.003460 922.4 7.6
915(16) 0.00375 921.8 7.4
941(16) 0.00391 921.3 7.2
919(16) 0.00401 920.7 7.0
881(16) 0.00395 920.2 6.9
939(17) 0.003358 919.6 6.7
934(16) 0.00368 919.0 6.6
928(16) 0.00400 918.5 6.5
911(16) 0.00404 917.9 6.4
921(16) 0.00386 917.4 6.4
980(18) 0.003221 916.8 6.3
917(16) 0.00375 916.3 6.2
896(15) 0.00416 915.7 6.2
939(16) 0.00386 915.2 6.2
918(16) 0.00381 914.6 6.2
936(17) 0.00352 914.1 6.2
958(16) 0.00369 913.5 6.2
911(16) 0.00406 913.0 6.2
924(16) 0.00388 912.4 6.2
927(16) 0.00373 911.9 6.2
951(17) 0.003491 911.3 6.3
982(17) 0.00358 910.8 6.3
937(16) 0.00393 910.2 6.4
902(16) 0.00400 909.7 6.4
873(16) 0.00391 909.1 6.5
891(16) 0.00379 908.5 6.5
917(16) 0.00386 908.0 6.6
930(16) 0.00398 907.4 6.7
950(16) 0.00372 906.9 6.8
911(16) 0.00375 906.3 6.9
913(16) 0.00380 905.8 7.0
900(16) 0.00397 905.2 7.1
881(15) 0.00421 904.7 7.2
918(16) 0.00386 904.1 7.3
918(16) 0.00375 903.6 7.5
917(16) 0.00380 903.0 7.6
864(15) 0.00419 902.5 7.8
862(15) 0.00432 901.9 7.9
926(17) 0.00367 901.4 8.1
883(16) 0.00391 900.8 8.3
939(17) 0.00366 900.3 8.5
917(16) 0.00392 899.7 8.7
889(15) 0.00420 899.2 8.9
919(16) 0.00374 898.6 9.1
876(16) 0.00374 898.0 9.3
890(16) 0.00389 897.5 9.6
909(16) 0.00403 896.9 9.9
928(16) 0.00399 896.4 10.1
904(16) 0.00387 895.8 10.4
895(17) 0.00365 895.3 10.8
895(16) 0.00390 894.7 11.1
877(15) 0.00422 894.2 11.5
878(15) 0.00428 893.6 11.9
899(16) 0.00380 893.1 12.3
928(17) 0.003446 892.5 12.7
901(16) 0.00396 892.0 13.2
869(15) 0.00429 891.4 13.7
906(16) 0.00407 890.9 14.2
917(16) 0.00376 890.3 14.8
883(16) 0.00371 889.8 15.4
913(16) 0.00375 889.2 16.1
917(16) 0.00404 888.7 16.8
925(16) 0.00401 888.1 17.6
920(16) 0.00382 887.6 18.5
846(16) 0.00395 887.0 19.4
921(16) 0.00368 886.4 20.4
894(15) 0.00417 885.9 21.5
930(16) 0.00388 885.3 22.7
882(16) 0.00395 884.8 24.0
880(16) 0.00377 884.2 25.5
900(16) 0.00386 883.7 27.1
946(16) 0.00395 883.1 28.9
882(16) 0.00407 882.6 31.0
893(16) 0.00386 882.0 33.2
891(16) 0.00383 881.5 35.7
888(16) 0.00398 880.9 38.6
896(16) 0.00415 880.4 41.9
925(16) 0.00387 879.8 45.6
935(17) 0.00364 879.3 50.0
969(17) 0.00352 878.7 55.1
924(16) 0.00385 878.2 61.2
918(16) 0.00405 877.6 68.6
952(17) 0.00365 877.1 77.8
933(16) 0.00368 876.5 89.4
966(17) 0.00354 875.9 104.2
942(16) 0.00385 875.4 123.1
1063(17) 0.00351 874.8 147.5
1065(18) 0.003247 874.3 178.4
1043(18) 0.003176 873.7 217.2
1057(17) 0.003266 873.2 264.8
1175(18) 0.003104 872.6 321.6
1241(18) 0.002999 872.1 387.1
1280(19) 0.002722 871.5 458.7
1358(20) 0.002467 871.0 531.0
1403(20) 0.002453 870.4 594.5
1488(20) 0.002444 869.9 636.8
1581(21) 0.002340 869.3 647.1
1511(21) 0.002306 868.8 622.6
1454(21) 0.002254 868.2 570.7
1314(19) 0.002681 867.7 503.6
1237(18) 0.002949 867.1 432.7
1200(18) 0.003088 866.6 365.7
1112(18) 0.003103 866.0 306.4
1112(19) 0.002908 865.4 256.4
1042(17) 0.003343 864.9 215.8
1057(17) 0.003431 864.3 184.0
1028(17) 0.00360 863.8 159.8
1055(18) 0.003245 863.2 142.3
1025(18) 0.003135 862.7 130.3
961(17) 0.00365 862.1 122.9
975(16) 0.00382 861.6 119.6
990(16) 0.00370 861.0 119.8
970(17) 0.00363 860.5 123.4
1019(18) 0.003206 859.9 130.4
1057(17) 0.003334 859.4 141.0
1059(17) 0.00352 858.8 155.2
1009(17) 0.00363 858.3 173.2
1034(17) 0.003311 857.7 194.9
1006(18) 0.003257 857.2 220.1
1092(18) 0.003085 856.6 247.8
1098(17) 0.003384 856.1 276.0
1121(18) 0.003257 855.5 301.8
1162(18) 0.002979 855.0 320.9
1098(18) 0.003044 854.4 329.5
1127(18) 0.003099 853.8 325.2
1129(17) 0.003291 853.3 308.7
1124(18) 0.003142 852.7 283.3
1078(18) 0.003202 852.2 253.2
1049(17) 0.003279 851.6 222.0
1083(18) 0.003256 851.1 192.3
992(16) 0.00375 850.5 165.3
964(17) 0.00362 850.0 141.6
959(17) 0.00354 849.4 121.3
950(17) 0.00361 848.9 104.2
948(16) 0.00377 848.3 90.0
924(16) 0.00403 847.8 78.3
894(16) 0.00395 847.2 68.8
915(16) 0.00371 846.7 60.9
919(16) 0.00372 846.1 54.5
932(16) 0.00385 845.6 49.3
900(16) 0.00413 845.0 44.9
918(16) 0.00376 844.5 41.2
871(16) 0.00396 843.9 38.1
887(16) 0.00394 843.3 35.4
869(15) 0.00416 842.8 33.0
864(15) 0.00432 842.2 31.0
883(16) 0.00376 841.7 29.2
818(16) 0.00404 841.1 27.6
821(15) 0.00420 840.6 26.2
858(15) 0.00432 840.0 24.9
823(15) 0.00454 839.5 23.8
882(16) 0.00389 838.9 22.7
850(16) 0.00382 838.4 21.8
866(16) 0.00399 837.8 21.0
847(15) 0.00437 837.3 20.2
848(15) 0.00438 836.7 19.5
870(16) 0.00399 836.2 18.9
866(16) 0.00371 835.6 18.3
849(16) 0.00410 835.1 17.8
866(15) 0.00424 834.5 17.3
859(15) 0.00433 834.0 16.9
861(16) 0.00403 833.4 16.5
818(16) 0.00402 832.8 16.1
832(16) 0.00413 832.3 15.8
860(15) 0.00434 831.7 15.5
853(15) 0.00433 831.2 15.3
816(15) 0.00435 830.6 15.0
841(16) 0.00398 830.1 14.8
881(16) 0.00384 829.5 14.7
835(15) 0.00446 829.0 14.5
833(15) 0.00437 828.4 14.4
822(15) 0.00419 827.9 14.3
813(16) 0.00405 827.3 14.2
811(15) 0.00426 826.8 14.1
809(15) 0.00461 826.2 14.1
854(15) 0.00426 825.7 14.1
842(16) 0.00405 825.1 14.1
845(16) 0.00400 824.6 14.1
863(16) 0.00412 824.0 14.2
843(15) 0.00440 823.5 14.3
841(15) 0.00418 822.9 14.5
865(16) 0.00387 822.3 14.6
801(15) 0.00425 821.8 14.8
825(15) 0.00435 821.2 15.0
824(15) 0.00454 820.7 15.1
779(15) 0.00454 820.1 15.2
824(15) 0.00420 819.6 15.2
859(16) 0.00396 819.1 15.2
826(15) 0.00435 818.6 15.2
830(15) 0.00448 818.1 15.2
848(16) 0.00408 817.7 15.2
853(16) 0.00385 817.2 15.2
848(16) 0.00409 816.7 15.3
822(15) 0.00444 816.2 15.4
828(15) 0.00449 815.8 15.5
834(15) 0.00425 815.3 15.6
874(16) 0.00377 814.8 15.8
817(15) 0.00429 814.3 16.0
808(15) 0.00454 813.9 16.2
846(15) 0.00441 813.4 16.5
838(16) 0.00405 812.9 16.8
799(16) 0.00406 812.4 17.1
824(15) 0.00427 812.0 17.4
801(15) 0.00462 811.5 17.7
835(15) 0.00448 811.0 18.1
845(16) 0.00408 810.5 18.5
828(16) 0.00392 810.1 18.9
815(15) 0.00433 809.6 19.4
823(15) 0.00450 809.1 19.8
801(15) 0.00456 808.7 20.3
878(16) 0.00395 808.2 20.9
818(16) 0.00405 807.7 21.5
783(15) 0.00449 807.2 22.1
805(15) 0.00464 806.8 22.7
800(15) 0.00460 806.3 23.4
856(16) 0.00403 805.8 24.1
841(16) 0.00400 805.3 24.9
828(15) 0.00422 804.9 25.8
798(15) 0.00468 804.4 26.6
777(15) 0.00458 803.9 27.6
817(16) 0.00416 803.4 28.6
810(15) 0.00418 803.0 29.7
834(15) 0.00418 802.5 30.9
850(15) 0.00433 802.0 32.1
801(15) 0.00451 801.6 33.4
796(15) 0.00438 801.1 34.9
850(16) 0.00394 800.6 36.4
853(16) 0.00409 800.1 38.0
866(15) 0.00433 799.7 39.8
834(15) 0.00429 799.2 41.8
822(15) 0.00421 798.7 43.8
817(15) 0.00417 798.2 46.1
829(15) 0.00426 797.8 48.6
825(15) 0.00450 797.3 51.2
835(15) 0.00428 796.8 54.2
840(16) 0.00410 796.3 57.3
875(16) 0.00396 795.9 60.8
829(15) 0.00438 795.4 64.7
842(15) 0.00441 794.9 68.9
852(16) 0.00400 794.4 73.6
861(16) 0.00391 794.0 78.9
856(16) 0.00406 793.5 84.7
854(15) 0.00423 793.0 91.3
902(16) 0.00411 792.6 98.7
874(16) 0.00401 792.1 107.1
888(16) 0.00372 791.6 116.7
898(16) 0.00386 791.1 127.7
939(16) 0.00387 790.7 140.5
954(16) 0.00392 790.2 155.2
995(17) 0.00352 789.7 172.3
978(17) 0.003390 789.2 192.3
999(17) 0.003505 788.8 215.5
1006(17) 0.00365 788.3 242.5
1080(17) 0.003459 787.8 273.8
1099(18) 0.003193 787.3 309.9
1115(18) 0.002931 786.9 351.3
1183(18) 0.002989 786.4 398.5
1278(19) 0.002918 785.9 451.4
1383(19) 0.002690 785.5 510.0
1391(20) 0.002505 785.0 573.3
1457(21) 0.002254 784.5 639.5
1514(21) 0.002306 784.0 705.5
1610(21) 0.002300 783.6 766.5
1654(21) 0.002208 783.1 816.8
1779(23) 0.001921 782.6 850.4
1684(23) 0.001963 782.1 862.5
1594(21) 0.002187 781.7 851.2
1541(20) 0.002416 781.2 818.4
1496(20) 0.002426 780.7 768.6
1425(20) 0.002471 780.2 707.9
1402(21) 0.002376 779.8 642.1
1349(20) 0.002570 779.3 576.0
1284(19) 0.002904 778.8 512.6
1238(19) 0.002913 778.3 453.9
1174(18) 0.002967 777.9 400.8
1120(18) 0.002991 777.4 353.6
1132(18) 0.003019 776.9 312.1
1046(17) 0.00358 776.5 275.9
1071(18) 0.003239 776.0 244.6
1062(18) 0.003134 775.5 217.5
997(17) 0.003410 775.0 194.3
987(17) 0.00356 774.6 174.4
972(16) 0.00383 774.1 157.3
972(17) 0.00361 773.6 142.6
950(17) 0.00363 773.1 129.9
928(17) 0.00364 772.7 119.0
891(16) 0.00401 772.2 109.4
918(16) 0.00405 771.7 101.1
886(16) 0.00395 771.2 93.8
917(16) 0.00373 770.8 87.4
932(16) 0.00368 770.3 81.7
881(16) 0.00410 769.8 76.6
886(15) 0.00418 769.4 72.1
818(15) 0.00432 768.9 68.0
839(16) 0.00404 768.4 64.4
859(16) 0.00400 767.9 61.1
861(15) 0.00422 767.5 58.1
877(15) 0.00426 767.0 55.5
865(16) 0.00403 766.5 53.0
843(16) 0.00396 766.0 50.9
832(15) 0.00426 765.6 48.9
871(15) 0.00422 765.1 47.2
853(15) 0.00435 764.6 45.6
808(15) 0.00443 764.1 44.2
843(16) 0.00386 763.7 43.0
865(16) 0.00402 763.2 42.0
816(15) 0.00447 762.7 41.1
786(15) 0.00475 762.2 40.4
784(15) 0.00442 761.8 39.8
782(16) 0.00411 761.3 39.4
761(15) 0.00459 760.8 39.2
775(14) 0.00483 760.4 39.1
784(15) 0.00466 759.9 39.2
849(16) 0.00398 759.4 39.6
832(16) 0.00399 758.9 40.1
824(15) 0.00425 758.5 40.8
812(15) 0.00461 758.0 41.8
773(15) 0.00473 757.5 43.0
801(15) 0.00430 757.0 44.4
818(16) 0.00410 756.6 46.2
806(15) 0.00431 756.1 48.1
794(15) 0.00473 755.6 50.3
784(15) 0.00457 755.1 52.6
796(15) 0.00421 754.7 55.1
772(15) 0.00425 754.2 57.6
784(15) 0.00449 753.7 59.9
817(15) 0.00451 753.2 61.8
807(15) 0.00450 752.8 63.3
798(15) 0.00438 752.3 64.0
800(15) 0.00429 751.8 64.0
811(15) 0.00437 751.4 63.3
761(14) 0.00490 750.9 61.9
769(15) 0.00467 750.4 59.9
785(15) 0.00439 749.9 57.7
813(15) 0.00427 749.5 55.2
794(15) 0.00454 749.0 52.8
779(14) 0.00480 748.5 50.5
814(16) 0.00415 748.0 48.4
778(15) 0.00436 747.6 46.6
780(15) 0.00442 747.1 45.1
761(15) 0.00475 746.6 43.8
791(15) 0.00469 746.1 42.9
787(15) 0.00438 745.7 42.3
787(15) 0.00423 745.2 42.0
787(15) 0.00433 744.7 42.1
804(15) 0.00451 744.3 42.5
766(14) 0.00490 743.8 43.2
767(15) 0.00454 743.3 44.3
771(15) 0.00436 742.8 45.7
751(15) 0.00466 742.4 47.6
814(15) 0.00454 741.9 49.9
774(14) 0.00478 741.4 52.6
783(15) 0.00453 740.9 55.8
796(16) 0.00413 740.5 59.5
812(15) 0.00432 740.0 63.7
803(15) 0.00460 739.5 68.4
790(15) 0.00470 739.0 73.6
783(15) 0.00446 738.6 79.1
834(16) 0.00395 738.1 84.9
790(15) 0.00445 737.6 90.7
821(15) 0.00447 737.1 96.3
822(15) 0.00449 736.7 101.3
856(16) 0.00408 736.2 105.3
822(16) 0.00402 735.7 108.1
851(16) 0.00408 735.3 109.5
846(15) 0.00438 734.8 109.7
782(15) 0.00464 734.3 108.7
821(15) 0.00435 733.8 107.1
852(16) 0.00397 733.4 105.0
856(16) 0.00412 732.9 103.1
828(15) 0.00452 732.4 101.5
824(15) 0.00437 731.9 100.4
828(16) 0.00415 731.5 100.2
817(16) 0.00405 731.0 100.7
805(15) 0.00425 730.5 102.1
824(15) 0.00454 730.0 104.2
817(15) 0.00438 729.6 107.1
808(15) 0.00422 729.1 110.5
867(16) 0.00382 728.6 114.1
869(16) 0.00394 728.2 117.7
845(15) 0.00439 727.7 120.8
865(16) 0.00398 727.2 123.1
839(16) 0.00405 726.7 124.2
827(16) 0.00413 726.3 123.8
843(15) 0.00423 725.8 121.8
862(15) 0.00434 725.3 118.3
863(16) 0.00399 724.8 113.4
842(16) 0.00400 724.4 107.6
832(15) 0.00421 723.9 101.2
804(15) 0.00455 723.4 94.5
827(15) 0.00451 722.9 87.9
812(15) 0.00430 722.5 81.4
814(16) 0.00399 722.0 75.4
777(15) 0.00446 721.5 69.8
772(15) 0.00474 721.0 64.7
814(15) 0.00454 720.6 60.0
783(15) 0.00434 720.1 55.8
772(15) 0.00425 719.6 52.0
751(15) 0.00458 719.2 48.6
742(14) 0.00494 718.7 45.5
738(14) 0.00501 718.2 42.6
743(14) 0.00476 717.7 40.0
719(15) 0.00466 717.3 37.5
754(15) 0.00457 716.8 35.2
725(14) 0.00506 716.3 33.1
730(14) 0.00515 715.8 31.1
751(15) 0.00464 715.4 29.2
717(15) 0.00455 714.9 27.5
740(15) 0.00467 714.4 26.0
722(14) 0.00510 713.9 24.5
745(14) 0.00501 713.5 23.2
756(15) 0.00463 713.0 22.0
746(15) 0.00437 712.5 20.9
708(14) 0.00491 712.1 19.8
728(14) 0.00508 711.6 18.9
771(15) 0.00472 711.1 18.1
736(15) 0.00472 710.6 17.3
730(15) 0.00464 710.2 16.6
732(14) 0.00483 709.7 15.9
742(14) 0.00506 709.2 15.3
717(14) 0.00513 708.7 14.8
753(15) 0.00462 708.3 14.3
727(15) 0.00474 707.8 13.8
714(14) 0.00493 707.3 13.4
710(14) 0.00526 706.8 13.0
727(14) 0.00497 706.4 12.6
696(14) 0.00495 705.9 12.3
707(15) 0.00475 705.4 12.0
722(14) 0.00483 704.9 11.7
695(14) 0.00536 704.5 11.5
701(14) 0.00517 704.0 11.3
713(15) 0.00474 703.5 11.1
721(15) 0.00472 703.1 10.9
691(14) 0.00512 702.6 10.7
715(14) 0.00522 702.1 10.6
704(14) 0.00493 701.6 10.5
732(15) 0.00474 701.2 10.4
742(15) 0.00463 700.7 10.3
706(14) 0.00511 700.2 10.3
740(14) 0.00503 699.7 10.2
725(15) 0.00475 699.3 10.2
678(14) 0.00490 698.8 10.2
680(14) 0.00508 698.3 10.3
681(14) 0.00523 697.8 10.3
675(13) 0.00550 697.4 10.4
703(14) 0.00486 696.9 10.5
707(15) 0.00472 696.4 10.7
726(14) 0.00478 696.0 10.8
697(14) 0.00526 695.5 11.1
681(14) 0.00547 695.0 11.3
658(14) 0.00541 694.5 11.6
695(15) 0.00470 694.1 12.0
708(14) 0.00493 693.6 12.5
717(14) 0.00517 693.1 13.0
684(14) 0.00547 692.6 13.7
718(14) 0.00487 692.2 14.6
709(15) 0.00458 691.7 15.6
680(14) 0.00510 691.2 17.1
721(14) 0.00507 690.7 19.1
720(14) 0.00517 690.3 21.8
752(15) 0.00459 689.8 25.8
742(15) 0.00439 689.3 31.5
732(14) 0.00480 688.8 39.5
764(14) 0.00490 688.4 50.3
785(15) 0.00470 687.9 64.4
788(15) 0.00439 687.4 81.7
815(16) 0.00396 687.0 101.4
815(15) 0.00427 686.5 121.5
817(15) 0.00459 686.0 138.5
844(15) 0.00437 685.5 147.5
877(16) 0.00395 685.1 145.1
857(16) 0.00387 684.6 132.3
790(15) 0.00445 684.1 113.4
777(14) 0.00477 683.6 92.9
728(14) 0.00498 683.2 73.8
748(15) 0.00465 682.7 57.5
720(15) 0.00472 682.2 44.5
667(14) 0.00525 681.7 34.6
701(14) 0.00531 681.3 27.4
700(14) 0.00510 680.8 22.2
697(14) 0.00487 680.3 18.6
688(14) 0.00495 679.8 15.9
693(14) 0.00504 679.4 14.0
699(14) 0.00536 678.9 12.6
712(14) 0.00500 678.4 11.4
687(14) 0.00480 678.0 10.5
669(14) 0.00513 677.5 9.7
698(14) 0.00509 677.0 9.0
688(14) 0.00538 676.5 8.4
665(14) 0.00526 676.1 7.9
693(15) 0.00464 675.6 7.5
681(14) 0.00491 675.1 7.1
661(14) 0.00547 674.6 6.8
692(14) 0.00541 674.2 6.5
657(14) 0.00508 673.7 6.2
667(14) 0.00494 673.2 5.9
738(15) 0.00454 672.7 5.7
703(14) 0.00521 672.3 5.5
711(14) 0.00525 671.8 5.3
667(14) 0.00526 671.3 5.1
688(14) 0.00480 670.9 5.0
638(13) 0.00558 670.4 4.8
614(13) 0.00600 669.9 4.7
650(13) 0.00573 669.4 4.6
642(13) 0.00553 669.0 4.5
683(15) 0.00471 668.5 4.4
695(14) 0.00498 668.0 4.2
673(14) 0.00544 667.5 4.2
626(13) 0.00590 667.1 4.1
670(14) 0.00527 666.6 4.0
643(14) 0.00511 666.1 3.9
655(14) 0.00533 665.6 3.8
706(14) 0.00522 665.2 3.7
656(13) 0.00571 664.7 3.7
666(14) 0.00544 664.2 3.6
662(14) 0.00495 663.7 3.6
661(14) 0.00529 663.3 3.5
636(13) 0.00584 662.8 3.4
627(13) 0.00582 662.3 3.4
646(14) 0.00541 661.9 3.3
672(14) 0.00495 661.4 3.3
656(14) 0.00526 660.9 3.2
648(13) 0.00574 660.4 3.2
649(13) 0.00553 660.0 3.2
669(14) 0.00519 659.5 3.1
671(14) 0.00496 659.0 3.1
661(14) 0.00526 658.5 3.0
699(14) 0.00534 658.1 3.0
658(14) 0.00543 657.6 3.0
702(14) 0.00485 657.1 2.9
654(14) 0.00547 656.6 2.9
671(14) 0.00526 656.2 2.9
628(13) 0.00591 655.7 2.8
635(13) 0.00560 655.2 2.8
676(14) 0.00505 654.8 2.8
681(14) 0.00506 654.3 2.8
643(13) 0.00558 653.8 2.7
645(13) 0.00577 653.3 2.7
655(14) 0.00518 652.9 2.7
681(14) 0.00483 652.4 2.7
651(14) 0.00540 651.9 2.6
699(14) 0.00518 651.4 2.6
656(13) 0.00563 651.0 2.6
668(14) 0.00512 650.5 2.6
644(14) 0.00513 650.0 2.5
687(14) 0.00495 649.5 2.5
693(14) 0.00523 649.1 2.5
677(13) 0.00553 648.6 2.5
665(14) 0.00529 648.1 2.5
650(14) 0.00511 647.6 2.5
663(14) 0.00515 647.2 2.4
662(13) 0.00560 646.7 2.4
703(14) 0.00528 646.2 2.4
648(14) 0.00543 645.8 2.4
669(14) 0.00477 645.3 2.4
676(14) 0.00509 644.8 2.4
634(13) 0.00577 644.3 2.4
636(13) 0.00582 643.9 2.3
657(14) 0.00530 643.4 2.3
617(14) 0.00526 642.9 2.3
587(13) 0.00595 642.4 2.3
658(13) 0.00557 642.0 2.3
681(14) 0.00545 641.5 2.3
634(13) 0.00560 641.0 2.3
660(14) 0.00496 640.5 2.3
635(14) 0.00542 640.1 2.3
629(13) 0.00589 639.6 2.3
671(14) 0.00538 639.1 2.2
650(14) 0.00538 638.7 2.2
643(14) 0.00516 638.2 2.2
644(14) 0.00518 637.7 2.2
635(13) 0.00580 637.2 2.2
640(13) 0.00573 636.8 2.2
622(13) 0.00562 636.3 2.2
635(14) 0.00526 635.8 2.2
616(13) 0.00557 635.3 2.2
637(13) 0.00584 634.9 2.2
614(13) 0.00587 634.4 2.2
631(14) 0.00543 633.9 2.2
666(14) 0.00494 633.4 2.2
664(14) 0.00510 633.0 2.2
623(13) 0.00597 632.5 2.2
670(14) 0.00521 632.0 2.3
645(14) 0.00536 631.5 2.3
642(14) 0.00533 631.1 2.3
659(14) 0.00540 630.6 2.3
626(13) 0.00595 630.1 2.3
680(14) 0.00527 629.7 2.3
644(14) 0.00544 629.2 2.4
641(14) 0.00529 628.7 2.4
640(13) 0.00554 628.2 2.4
603(13) 0.00616 627.8 2.4
633(14) 0.00546 627.3 2.5
626(14) 0.00531 626.8 2.5
631(14) 0.00537 626.3 2.6
632(13) 0.00567 625.9 2.6
636(13) 0.00587 625.4 2.7
588(13) 0.00587 624.9 2.7
625(14) 0.00515 624.4 2.8
594(13) 0.00586 624.0 2.9
629(13) 0.00580 623.5 2.9
618(13) 0.00600 623.0 3.0
644(14) 0.00543 622.6 3.1
618(14) 0.00527 622.1 3.2
648(14) 0.00529 621.6 3.3
641(13) 0.00566 621.1 3.3
616(13) 0.00603 620.7 3.4
608(13) 0.00572 620.2 3.4
655(14) 0.00482 619.7 3.5
649(14) 0.00539 619.2 3.5
647(13) 0.00577 618.8 3.5
599(13) 0.00620 618.3 3.5
604(13) 0.00570 617.8 3.4
644(14) 0.00507 617.3 3.4
603(13) 0.00606 616.9 3.3
598(13) 0.00617 616.4 3.2
606(13) 0.00600 615.9 3.1
635(13) 0.00550 615.4 3.0
609(13) 0.00553 615.0 3.0
645(14) 0.00516 614.5 2.9
645(13) 0.00574 614.0 2.8
631(13) 0.00578 613.6 2.8
607(13) 0.00563 613.1 2.7
659(14) 0.00501 612.6 2.6
623(13) 0.00554 612.1 2.6
631(13) 0.00587 611.7 2.5
637(13) 0.00569 611.2 2.5
614(13) 0.00560 610.7 2.5
611(13) 0.00572 610.2 2.4
585(13) 0.00604 609.8 2.4
606(13) 0.00612 609.3 2.4
618(13) 0.00573 609.1 2.4
670(14) 0.00502 608.8 2.3
647(14) 0.00529 608.5 2.3
643(13) 0.00551 608.2 2.3
616(13) 0.00608 608.0 2.3
576(13) 0.00617 607.7 2.3
603(13) 0.00562 607.4 2.3
611(13) 0.00566 607.2 2.3
649(14) 0.00536 606.9 2.3
608(13) 0.00608 606.6 2.3
579(13) 0.00598 606.4 2.3
625(14) 0.00523 606.1 2.3
622(13) 0.00558 605.8 2.3
595(13) 0.00606 605.5 2.3
588(13) 0.00626 605.3 2.3
597(13) 0.00574 605.0 2.3
622(14) 0.00526 604.7 2.4
636(14) 0.00535 604.5 2.4
614(13) 0.00594 604.2 2.4
571(12) 0.00657 603.9 2.4
606(13) 0.00566 603.7 2.4
593(13) 0.00552 603.4 2.5
624(13) 0.00550 603.1 2.5
591(13) 0.00617 602.8 2.5
604(13) 0.00615 602.6 2.5
582(13) 0.00586 602.3 2.6
591(14) 0.00543 602.0 2.6
621(13) 0.00549 601.8 2.6
593(13) 0.00624 601.5 2.7
617(13) 0.00599 601.2 2.7
630(14) 0.00548 601.0 2.8
628(14) 0.00525 600.7 2.8
628(13) 0.00552 600.4 2.9
604(13) 0.00614 600.1 2.9
595(13) 0.00619 599.9 3.0
597(13) 0.00586 599.6 3.0
592(13) 0.00567 599.3 3.1
612(13) 0.00562 599.1 3.2
618(13) 0.00602 598.8 3.3
572(12) 0.00641 598.5 3.3
604(13) 0.00568 598.3 3.4
587(13) 0.00576 598.0 3.5
622(14) 0.00547 597.7 3.6
555(12) 0.00673 597.4 3.8
604(13) 0.00594 597.2 3.9
580(13) 0.00603 596.9 4.0
629(14) 0.00514 596.6 4.2
598(13) 0.00595 596.4 4.4
615(13) 0.00606 596.1 4.6
609(13) 0.00585 595.8 4.8
605(13) 0.00573 595.6 5.0
600(13) 0.00565 595.3 5.3
625(13) 0.00553 595.0 5.6
598(13) 0.00619 594.7 5.9
598(13) 0.00591 594.5 6.3
629(14) 0.00533 594.2 6.7
585(13) 0.00585 593.9 7.2
595(13) 0.00596 593.7 7.8
588(13) 0.00624 593.4 8.5
603(13) 0.00575 593.1 9.4
590(13) 0.00563 592.8 10.6
572(13) 0.00613 592.6 12.1
598(13) 0.00599 592.3 14.1
639(13) 0.00578 592.0 16.9
645(14) 0.00527 591.8 20.6
607(14) 0.00545 591.5 25.5
623(13) 0.00568 591.2 31.6
656(13) 0.00552 591.0 39.1
651(13) 0.00561 590.7 47.6
670(14) 0.00524 590.4 56.5
654(14) 0.00508 590.1 64.5
636(13) 0.00557 589.9 69.7
666(14) 0.00548 589.6 70.8
634(13) 0.00592 589.3 67.7
640(14) 0.00532 589.1 62.0
655(14) 0.00504 588.8 55.7
669(14) 0.00525 588.5 50.1
690(14) 0.00536 588.3 46.1
679(13) 0.00550 588.0 44.1
662(14) 0.00527 587.7 44.2
657(14) 0.00486 587.4 46.5
678(14) 0.00506 587.2 50.6
670(13) 0.00553 586.9 56.6
683(14) 0.00540 586.6 63.9
672(14) 0.00526 586.4 72.2
722(15) 0.00463 586.1 80.4
711(14) 0.00499 585.8 87.5
701(14) 0.00527 585.6 91.8
701(14) 0.00523 585.3 92.3
719(14) 0.00486 585.0 88.7
702(15) 0.00471 584.7 81.9
695(14) 0.00492 584.5 73.1
700(14) 0.00531 584.2 63.8
684(14) 0.00541 583.9 54.7
653(14) 0.00539 583.7 46.4
655(14) 0.00516 583.4 39.2
635(14) 0.00540 583.1 33.1
623(13) 0.00594 582.9 28.0
610(13) 0.00575 582.6 23.9
591(13) 0.00572 582.3 20.5
600(13) 0.00566 582.0 17.8
608(13) 0.00586 581.8 15.7
591(13) 0.00633 581.5 13.9
567(13) 0.00625 581.2 12.5
575(13) 0.00598 581.0 11.4
583(13) 0.00594 580.7 10.4
606(13) 0.00592 580.4 9.6
557(12) 0.00669 580.2 8.9
568(13) 0.00607 579.9 8.3
560(13) 0.00607 579.6 7.8
571(13) 0.00590 579.3 7.4
568(13) 0.00638 579.1 7.0
571(12) 0.00646 578.8 6.7
603(13) 0.00568 578.5 6.3
597(13) 0.00559 578.3 6.1
613(13) 0.00570 578.0 5.8
596(13) 0.00624 577.7 5.6
573(12) 0.00647 577.5 5.4
602(13) 0.00580 577.2 5.3
600(13) 0.00559 576.9 5.1
608(13) 0.00562 576.6 5.0
574(13) 0.00635 576.4 4.9
561(12) 0.00670 576.1 4.8
582(13) 0.00592 575.8 4.7
585(13) 0.00552 575.6 4.6
559(13) 0.00631 575.3 4.5
591(13) 0.00620 575.0 4.4
575(12) 0.00646 574.8 4.4
599(13) 0.00581 574.5 4.3
555(13) 0.00593 574.2 4.3
575(13) 0.00610 573.9 4.3
569(12) 0.00648 573.7 4.2
572(12) 0.00650 573.4 4.2
594(13) 0.00594 573.1 4.2
589(13) 0.00564 572.9 4.2
606(13) 0.00575 572.6 4.2
573(12) 0.00647 572.3 4.2
559(12) 0.00662 572.1 4.2
562(13) 0.00637 571.8 4.3
591(13) 0.00552 571.5 4.3
608(13) 0.00555 571.2 4.3
573(12) 0.00648 571.0 4.4
577(13) 0.00636 570.7 4.4
543(13) 0.00624 570.4 4.5
559(13) 0.00602 570.2 4.5
556(13) 0.00626 569.9 4.6
583(13) 0.00629 569.6 4.6
563(12) 0.00645 569.4 4.7
584(13) 0.00594 569.1 4.8
587(13) 0.00568 568.8 4.9
598(13) 0.00575 568.5 5.0
583(12) 0.00640 568.3 5.1
582(13) 0.00610 568.0 5.2
576(13) 0.00587 567.7 5.4
573(13) 0.00608 567.5 5.5
590(13) 0.00598 567.2 5.6
561(12) 0.00666 566.9 5.8
594(13) 0.00592 566.6 6.0
597(13) 0.00568 566.4 6.2
569(13) 0.00583 566.1 6.4
568(13) 0.00616 565.8 6.6
563(12) 0.00662 565.6 6.8
589(13) 0.00574 565.3 7.1
577(13) 0.00573 565.0 7.3
593(13) 0.00571 564.8 7.6
566(13) 0.00640 564.5 7.9
556(12) 0.00669 564.2 8.3
576(13) 0.00604 563.9 8.6
600(14) 0.00544 563.7 9.0
560(13) 0.00610 563.4 9.5
581(13) 0.00622 563.1 9.9
565(12) 0.00664 562.9 10.4
557(13) 0.00626 562.6 11.0
561(13) 0.00582 562.3 11.5
593(13) 0.00583 562.1 12.2
595(13) 0.00620 561.8 12.8
599(13) 0.00607 561.5 13.6
569(13) 0.00622 561.2 14.3
559(13) 0.00577 561.0 15.2
580(13) 0.00606 560.7 16.1
605(13) 0.00600 560.4 17.0
548(12) 0.00678 560.2 18.0
566(13) 0.00613 559.9 19.1
554(13) 0.00601 559.6 20.3
583(13) 0.00591 559.4 21.5
586(13) 0.00636 559.1 22.8
616(13) 0.00584 558.8 24.2
582(13) 0.00608 558.5 25.6
602(14) 0.00537 558.3 27.0
571(13) 0.00607 558.0 28.5
561(12) 0.00665 557.7 30.0
604(13) 0.00585 557.5 31.4
608(13) 0.00557 557.2 32.7
572(13) 0.00587 556.9 33.9
587(13) 0.00585 556.7 34.7
596(13) 0.00625 556.4 35.1
602(13) 0.00599 556.1 35.1
588(13) 0.00598 555.8 34.7
587(13) 0.00582 555.6 33.9
565(13) 0.00609 555.3 32.9
563(12) 0.00665 555.0 31.7
573(13) 0.00629 554.8 30.4
526(12) 0.00665 554.5 29.1
554(13) 0.00616 554.2 27.7
588(13) 0.00606 554.0 26.4
603(13) 0.00611 553.7 25.0
596(13) 0.00579 553.4 23.7
561(13) 0.00598 553.1 22.4
566(13) 0.00591 552.9 21.1
608(13) 0.00573 552.6 19.9
551(12) 0.00673 552.3 18.8
573(13) 0.00593 552.1 17.7
551(13) 0.00626 551.8 16.7
583(13) 0.00587 551.5 15.8
561(12) 0.00645 551.3 14.9
583(12) 0.00643 551.0 14.1
591(13) 0.00586 550.7 13.3
557(13) 0.00599 550.4 12.6
545(12) 0.00644 550.2 11.9
558(12) 0.00655 549.9 11.3
552(12) 0.00670 549.6 10.7
541(12) 0.00644 549.4 10.2
597(14) 0.00542 549.1 9.7
538(12) 0.00658 548.8 9.3
587(13) 0.00627 548.6 8.9
566(12) 0.00650 548.3 8.5
558(13) 0.00631 548.0 8.1
579(13) 0.00566 547.7 7.8
587(13) 0.00597 547.5 7.4
577(13) 0.00635 547.2 7.1
524(12) 0.00704 546.9 6.8
522(12) 0.00675 546.7 6.5
538(13) 0.00609 546.4 6.2
553(13) 0.00636 546.1 6.0
541(12) 0.00695 545.9 5.7
552(12) 0.00667 545.6 5.5
565(13) 0.00622 545.3 5.3
603(14) 0.00540 545.0 5.1
552(13) 0.00624 544.8 4.9
570(12) 0.00653 544.5 4.8
543(12) 0.00685 544.2 4.6
549(13) 0.00616 544.0 4.4
565(13) 0.00579 543.7 4.3
549(13) 0.00621 543.4 4.2
536(12) 0.00691 543.2 4.1
572(13) 0.00617 542.9 3.9
556(13) 0.00611 542.6 3.8
547(13) 0.00614 542.3 3.7
548(13) 0.00640 542.1 3.6
532(12) 0.00694 541.8 3.5
538(12) 0.00676 541.5 3.4
544(13) 0.00635 541.3 3.4
549(13) 0.00609 541.0 3.3
558(13) 0.00611 540.7 3.2
543(12) 0.00687 540.5 3.1
552(12) 0.00658 540.2 3.1
516(12) 0.00661 539.9 3.0
544(13) 0.00619 539.6 2.9
537(12) 0.00661 539.4 2.9
565(12) 0.00656 539.1 2.8
544(13) 0.00629 538.8 2.7
531(13) 0.00631 538.6 2.7
529(12) 0.00647 538.3 2.6
546(12) 0.00647 538.0 2.6
541(12) 0.00691 537.7 2.5
563(13) 0.00614 537.5 2.5
568(13) 0.00588 537.2 2.5
557(13) 0.00625 536.9 2.4
533(12) 0.00690 536.7 2.4
545(12) 0.00679 536.4 2.3
544(13) 0.00615 536.1 2.3
520(12) 0.00645 535.9 2.3
548(13) 0.00634 535.6 2.2
554(12) 0.00642 535.3 2.2
535(12) 0.00702 535.0 2.2
524(12) 0.00663 534.8 2.1
522(13) 0.00621 534.5 2.1
524(12) 0.00686 534.2 2.1
514(12) 0.00724 534.0 2.0
528(12) 0.00698 533.7 2.0
545(12) 0.00644 533.4 2.0
558(13) 0.00572 533.2 2.0
536(12) 0.00643 532.9 1.9
510(12) 0.00732 532.6 1.9
555(12) 0.00657 532.3 1.9
555(13) 0.00609 532.1 1.9
538(13) 0.00599 531.8 1.9
523(12) 0.00674 531.5 1.8
552(12) 0.00677 531.3 1.8
549(12) 0.00652 531.0 1.8
546(13) 0.00633 530.7 1.8
541(13) 0.00629 530.5 1.8
558(13) 0.00626 530.2 1.8
533(12) 0.00696 529.9 1.7
516(12) 0.00716 529.6 1.7
559(13) 0.00601 529.4 1.7
528(12) 0.00655 529.1 1.7
550(12) 0.00640 528.8 1.7
492(11) 0.00757 528.6 1.7
531(12) 0.00697 528.3 1.6
537(12) 0.00668 528.0 1.6
527(12) 0.00643 527.8 1.6
514(12) 0.00689 527.5 1.6
546(12) 0.00682 527.2 1.6
514(12) 0.00691 526.9 1.6
536(12) 0.00660 526.7 1.6
549(13) 0.00640 526.4 1.6
557(12) 0.00645 526.2 1.6
533(12) 0.00695 526.0 1.5
516(12) 0.00696 525.8 1.5
550(13) 0.00610 525.5 1.5
511(12) 0.00694 525.3 1.5
542(12) 0.00674 525.1 1.5
520(12) 0.00714 524.9 1.5
544(13) 0.00634 524.6 1.5
501(12) 0.00698 524.4 1.5
538(12) 0.00654 524.2 1.5
514(12) 0.00722 523.9 1.5
537(12) 0.00694 523.7 1.5
539(12) 0.00644 523.5 1.5
526(13) 0.00631 523.3 1.5
537(13) 0.00627 523.0 1.5
491(11) 0.00762 522.8 1.4
515(12) 0.00728 522.6 1.4
561(13) 0.00608 522.4 1.4
507(12) 0.00651 522.1 1.4
504(12) 0.00696 521.9 1.4
542(12) 0.00687 521.7 1.4
517(12) 0.00725 521.5 1.4
538(12) 0.00656 521.2 1.4
519(13) 0.00633 521.0 1.4
542(13) 0.00627 520.8 1.4
543(12) 0.00688 520.6 1.4
516(12) 0.00713 520.3 1.4
529(12) 0.00641 520.1 1.4
538(13) 0.00604 519.9 1.4
521(12) 0.00668 519.7 1.4
536(12) 0.00701 519.4 1.4
525(12) 0.00704 519.2 1.4
531(12) 0.00662 519.0 1.4
516(12) 0.00653 518.8 1.4
513(12) 0.00683 518.5 1.4
517(12) 0.00719 518.3 1.4
517(12) 0.00712 518.1 1.4
511(12) 0.00711 517.9 1.4
543(13) 0.00624 517.6 1.4
526(13) 0.00640 517.4 1.4
489(11) 0.00762 517.2 1.4
494(12) 0.00715 517.0 1.4
547(13) 0.00626 516.7 1.4
524(12) 0.00648 516.5 1.4
512(12) 0.00665 516.3 1.4
510(12) 0.00722 516.1 1.4
521(12) 0.00681 515.8 1.4
529(12) 0.00656 515.6 1.4
504(12) 0.00686 515.4 1.4
481(12) 0.00742 515.2 1.4
567(12) 0.00661 514.9 1.4
541(13) 0.00639 514.7 1.4
523(12) 0.00655 514.5 1.5
526(12) 0.00658 514.3 1.5
514(12) 0.00710 514.0 1.5
513(12) 0.00723 513.8 1.5
517(12) 0.00662 513.6 1.5
501(12) 0.00664 513.4 1.5
528(12) 0.00652 513.1 1.5
535(12) 0.00679 512.9 1.5
517(12) 0.00721 512.7 1.5
491(12) 0.00708 512.5 1.6
490(12) 0.00682 512.2 1.6
556(13) 0.00626 512.0 1.6
519(12) 0.00710 511.8 1.6
518(12) 0.00716 511.6 1.6
514(12) 0.00679 511.3 1.7
535(13) 0.00607 511.1 1.7
540(12) 0.00645 510.9 1.7
528(12) 0.00705 510.7 1.8
531(12) 0.00700 510.4 1.8
505(12) 0.00691 510.2 1.8
513(13) 0.00639 510.0 1.9
480(12) 0.00728 509.8 1.9
509(12) 0.00732 509.5 2.0
504(12) 0.00742 509.3 2.0
509(12) 0.00676 509.1 2.1
508(13) 0.00621 508.9 2.2
502(12) 0.00699 508.6 2.3
506(12) 0.00732 508.4 2.4
505(12) 0.00741 508.2 2.5
531(12) 0.00665 508.0 2.6
520(13) 0.00636 507.7 2.7
513(12) 0.00652 507.5 2.9
512(12) 0.00721 507.3 3.1
527(12) 0.00686 507.1 3.3
536(12) 0.00641 506.8 3.6
543(13) 0.00609 506.6 3.9
523(12) 0.00654 506.4 4.3
513(12) 0.00723 506.2 4.7
480(11) 0.00767 505.9 5.3
474(12) 0.00741 505.7 5.9
519(12) 0.00652 505.5 6.6
538(12) 0.00652 505.3 7.4
491(11) 0.00762 505.0 8.3
522(12) 0.00677 504.8 9.4
518(12) 0.00647 504.6 10.4
511(12) 0.00657 504.4 11.5
523(12) 0.00671 504.1 12.5
521(12) 0.00714 503.9 13.3
524(12) 0.00689 503.7 13.8
540(13) 0.00635 503.5 13.9
541(12) 0.00648 503.2 13.6
512(12) 0.00718 503.0 12.9
532(12) 0.00699 502.8 12.0
496(12) 0.00687 502.6 11.0
503(12) 0.00657 502.3 9.9
543(13) 0.00610 502.1 8.9
510(12) 0.00728 501.9 7.9
502(12) 0.00739 501.7 7.0
486(12) 0.00728 501.4 6.3
525(13) 0.00614 501.2 5.6
486(12) 0.00722 501.0 5.1
478(11) 0.00767 500.8 4.6
490(11) 0.00760 500.5 4.2
510(12) 0.00687 500.3 3.8
498(12) 0.00671 500.1 3.6
513(12) 0.00677 499.8 3.3
480(12) 0.00756 499.6 3.1
528(12) 0.00698 499.4 3.0
511(12) 0.00672 499.2 2.8
470(12) 0.00704 498.9 2.7
498(12) 0.00708 498.7 2.6
516(12) 0.00713 498.5 2.5
466(11) 0.00795 498.3 2.4
502(12) 0.00700 498.0 2.4
521(13) 0.00619 497.8 2.3
493(12) 0.00703 497.6 2.3
504(12) 0.00734 497.4 2.2
502(12) 0.00736 497.1 2.2
493(12) 0.00702 496.9 2.2
507(12) 0.00647 496.7 2.1
484(12) 0.00737 496.5 2.1
506(12) 0.00733 496.2 2.1
505(12) 0.00721 496.0 2.1
518(12) 0.00652 495.8 2.1
507(12) 0.00662 495.6 2.1
503(12) 0.00701 495.3 2.1
501(12) 0.00746 495.1 2.1
509(12) 0.00710 494.9 2.1
490(12) 0.00729 494.7 2.1
538(13) 0.00620 494.4 2.1
504(12) 0.00697 494.2 2.2
541(12) 0.00691 494.0 2.2
493(12) 0.00727 493.8 2.2
498(12) 0.00705 493.5 2.2
489(12) 0.00706 493.3 2.3
472(11) 0.00757 493.1 2.3
508(12) 0.00732 492.9 2.3
484(12) 0.00727 492.6 2.4
497(12) 0.00683 492.4 2.4
504(12) 0.00694 492.2 2.5
520(12) 0.00692 492.0 2.6
503(12) 0.00739 491.7 2.6
483(12) 0.00716 491.5 2.7
484(12) 0.00699 491.3 2.8
496(12) 0.00717 491.1 2.9
508(12) 0.00712 490.8 2.9
502(12) 0.00743 490.6 3.0
530(12) 0.00642 490.4 3.1
470(12) 0.00708 490.2 3.2
495(12) 0.00680 489.9 3.4
489(12) 0.00752 489.7 3.5
502(12) 0.00743 489.5 3.6
495(12) 0.00706 489.3 3.7
503(12) 0.00661 489.0 3.8
497(12) 0.00719 488.8 3.9
503(12) 0.00739 488.6 4.0
487(11) 0.00766 488.4 4.2
519(12) 0.00670 488.1 4.3
518(13) 0.00628 487.9 4.3
502(12) 0.00679 487.7 4.4
498(12) 0.00743 487.5 4.5
485(11) 0.00768 487.2 4.5
485(12) 0.00736 487.0 4.6
504(13) 0.00628 486.8 4.6
492(12) 0.00708 486.6 4.6
530(12) 0.00706 486.3 4.5
490(11) 0.00758 486.1 4.5
516(12) 0.00672 485.9 4.5
528(13) 0.00609 485.7 4.4
473(12) 0.00737 485.4 4.3
473(11) 0.00792 485.2 4.2
504(12) 0.00736 485.0 4.1
496(12) 0.00722 484.8 4.0
474(12) 0.00735 484.5 3.9
497(12) 0.00711 484.3 3.8
499(12) 0.00752 484.1 3.7
473(12) 0.00744 483.9 3.5
470(12) 0.00717 483.6 3.4
477(12) 0.00712 483.4 3.3
478(12) 0.00725 483.2 3.2
480(11) 0.00787 483.0 3.1
491(12) 0.00711 482.7 3.0
492(12) 0.00691 482.5 2.9
469(12) 0.00732 482.3 2.8
481(12) 0.00741 482.1 2.7
485(11) 0.00769 481.8 2.7
508(12) 0.00679 481.6 2.6
521(12) 0.00656 481.4 2.5
515(12) 0.00659 481.2 2.4
447(11) 0.00778 480.9 2.4
458(11) 0.00816 480.7 2.3
506(12) 0.00672 480.5 2.3
480(12) 0.00709 480.3 2.2
498(12) 0.00693 480.0 2.2
462(11) 0.00761 479.8 2.1
476(11) 0.00779 479.6 2.1
465(12) 0.00718 479.4 2.1
488(12) 0.00673 479.1 2.0
457(12) 0.00753 478.9 2.0
458(11) 0.00776 478.7 2.0
523(12) 0.00701 478.5 1.9
490(12) 0.00701 478.2 1.9
499(12) 0.00664 478.0 1.9
460(11) 0.00783 477.8 1.9
482(11) 0.00766 477.6 1.9
501(12) 0.00750 477.3 1.8
457(11) 0.00764 477.1 1.8
474(12) 0.00679 476.9 1.8
480(12) 0.00719 476.7 1.8
486(11) 0.00760 476.4 1.8
505(12) 0.00718 476.2 1.8
500(12) 0.00716 476.0 1.8
495(12) 0.00650 475.7 1.7
481(12) 0.00705 475.5 1.7
454(11) 0.00813 475.3 1.7
467(11) 0.00804 475.1 1.7
489(12) 0.00708 474.8 1.7
469(12) 0.00704 474.6 1.7
445(11) 0.00802 474.4 1.7
499(12) 0.00745 474.2 1.7
492(12) 0.00738 473.9 1.7
500(12) 0.00670 473.7 1.7
489(12) 0.00672 473.5 1.7
496(12) 0.00694 473.3 1.7
491(11) 0.00763 473.0 1.7
484(12) 0.00747 472.8 1.7
485(12) 0.00731 472.6 1.7
484(12) 0.00702 472.4 1.7
485(12) 0.00702 472.1 1.7
482(11) 0.00770 471.9 1.7
499(12) 0.00723 471.7 1.7
489(12) 0.00720 471.5 1.7
477(12) 0.00722 471.2 1.7
449(11) 0.00789 471.0 1.7
459(11) 0.00811 470.8 1.7
459(11) 0.00762 470.6 1.7
488(12) 0.00690 470.3 1.7
452(11) 0.00759 470.1 1.7
448(11) 0.00801 469.9 1.7
471(11) 0.00787 469.7 1.7
471(12) 0.00743 469.4 1.7
482(12) 0.00685 469.2 1.7
484(12) 0.00702 469.0 1.7
448(11) 0.00796 468.8 1.7
474(11) 0.00782 468.5 1.7
451(11) 0.00774 468.3 1.7
466(12) 0.00717 468.1 1.7
472(12) 0.00752 467.9 1.7
496(12) 0.00740 467.6 1.7
467(11) 0.00794 467.4 1.7
446(11) 0.00802 467.2 1.7
477(12) 0.00673 467.0 1.7
499(12) 0.00679 466.7 1.8
468(11) 0.00772 466.5 1.8
476(11) 0.00789 466.3 1.8
465(12) 0.00749 466.1 1.8
472(12) 0.00667 465.8 1.8
447(11) 0.00779 465.6 1.8
459(11) 0.00806 465.4 1.8
471(11) 0.00798 465.2 1.8
461(11) 0.00763 464.9 1.8
502(13) 0.00627 464.7 1.8
475(12) 0.00745 464.5 1.8
462(11) 0.00796 464.3 1.8
498(12) 0.00737 464.0 1.8
478(12) 0.00714 463.8 1.9
475(12) 0.00675 463.6 1.9
477(12) 0.00716 463.5 1.9
466(11) 0.00795 463.4 1.9
462(11) 0.00791 463.2 1.9
451(11) 0.00785 463.1 1.9
483(12) 0.00688 463.0 1.9
473(12) 0.00728 462.9 1.9
440(11) 0.00855 462.7 1.9
464(11) 0.00794 462.6 1.9
470(12) 0.00749 462.5 2.0
449(11) 0.00776 462.3 2.0
470(12) 0.00754 462.2 2.0
487(11) 0.00769 462.1 2.0
478(12) 0.00746 461.9 2.0
462(12) 0.00749 461.8 2.0
467(12) 0.00701 461.7 2.0
472(12) 0.00723 461.6 2.0
447(11) 0.00836 461.4 2.1
444(11) 0.00804 461.3 2.1
471(12) 0.00735 461.2 2.1
486(12) 0.00712 461.0 2.1
468(11) 0.00762 460.9 2.1
452(11) 0.00814 460.8 2.1
510(12) 0.00686 460.6 2.2
481(12) 0.00704 460.5 2.2
463(12) 0.00731 460.4 2.2
488(12) 0.00734 460.3 2.2
479(11) 0.00778 460.1 2.2
461(11) 0.00761 460.0 2.2
454(11) 0.00757 459.9 2.3
461(11) 0.00760 459.7 2.3
446(11) 0.00829 459.6 2.3
460(11) 0.00808 459.5 2.3
427(11) 0.00818 459.3 2.3
470(12) 0.00708 459.2 2.3
486(12) 0.00718 459.1 2.4
463(11) 0.00786 459.0 2.4
458(11) 0.00812 458.8 2.4
429(11) 0.00794 458.7 2.4
455(12) 0.00703 458.6 2.5
449(11) 0.00759 458.4 2.5
440(11) 0.00854 458.3 2.5
466(11) 0.00805 458.2 2.5
459(11) 0.00775 458.0 2.5
484(12) 0.00674 457.9 2.6
463(11) 0.00768 457.8 2.6
490(12) 0.00753 457.7 2.6
431(11) 0.00857 457.5 2.7
473(12) 0.00733 457.4 2.7
459(12) 0.00711 457.3 2.7
481(12) 0.00729 457.1 2.7
473(11) 0.00782 457.0 2.8
446(11) 0.00829 456.9 2.8
444(11) 0.00796 456.7 2.8
465(12) 0.00706 456.6 2.9
474(12) 0.00753 456.5 2.9
450(11) 0.00820 456.4 2.9
470(11) 0.00772 456.2 3.0
481(12) 0.00710 456.1 3.0
478(12) 0.00672 456.0 3.0
446(11) 0.00789 455.8 3.1
447(11) 0.00834 455.7 3.1
459(11) 0.00767 455.6 3.1
486(12) 0.00712 455.4 3.2
477(12) 0.00700 455.3 3.2
443(11) 0.00772 455.2 3.3
444(11) 0.00841 455.1 3.3
459(11) 0.00786 454.9 3.3
464(11) 0.00759 454.8 3.4
456(11) 0.00758 454.7 3.4
418(11) 0.00835 454.5 3.5
461(11) 0.00808 454.4 3.5
457(11) 0.00768 454.3 3.6
470(12) 0.00709 454.1 3.6
471(12) 0.00719 454.0 3.7
475(12) 0.00750 453.9 3.7
456(11) 0.00812 453.8 3.8
430(11) 0.00810 453.6 3.9
469(12) 0.00718 453.5 3.9
468(12) 0.00730 453.4 4.0
437(11) 0.00839 453.2 4.0
446(11) 0.00836 453.1 4.1
463(11) 0.00759 453.0 4.2
464(12) 0.00728 452.8 4.2
460(12) 0.00754 452.7 4.3
461(11) 0.00790 452.6 4.4
451(11) 0.00827 452.5 4.5
480(12) 0.00726 452.3 4.6
450(12) 0.00752 452.2 4.6
463(11) 0.00760 452.1 4.7
482(11) 0.00767 451.9 4.8
450(11) 0.00827 451.8 4.9
443(11) 0.00786 451.7 5.0
438(12) 0.00747 451.5 5.1
446(11) 0.00765 451.4 5.2
454(11) 0.00816 451.3 5.3
464(11) 0.00806 451.2 5.4
458(11) 0.00758 451.0 5.6
438(12) 0.00741 450.9 5.7
447(11) 0.00770 450.8 5.8
446(11) 0.00828 450.6 6.0
441(11) 0.00841 450.5 6.1
444(11) 0.00797 450.4 6.3
454(12) 0.00705 450.2 6.4
455(12) 0.00746 450.1 6.6
467(11) 0.00787 450.0 6.8
476(11) 0.00765 449.9 7.0
488(12) 0.00717 449.7 7.2
436(11) 0.00785 449.6 7.4
431(11) 0.00806 449.5 7.6
455(11) 0.00831 449.3 7.8
467(11) 0.00771 449.2 8.1
453(11) 0.00762 449.1 8.3
462(12) 0.00722 448.9 8.6
452(11) 0.00765 448.8 8.9
471(11) 0.00785 448.7 9.2
430(11) 0.00829 448.6 9.6
427(11) 0.00833 448.4 10.0
451(12) 0.00754 448.3 10.4
455(11) 0.00759 448.2 10.8
499(12) 0.00742 448.0 11.3
476(11) 0.00761 447.9 11.8
471(12) 0.00730 447.8 12.4
472(12) 0.00702 447.6 13.0
457(12) 0.00753 447.5 13.7
472(11) 0.00796 447.4 14.5
491(12) 0.00693 447.2 15.4
455(12) 0.00736 447.1 16.4
460(12) 0.00737 447.0 17.6
455(11) 0.00786 446.9 18.9
458(11) 0.00811 446.7 20.5
462(12) 0.00745 446.6 22.4
454(12) 0.00712 446.5 24.7
498(12) 0.00692 446.3 27.5
513(12) 0.00691 446.2 30.9
460(11) 0.00816 446.1 35.0
495(12) 0.00701 445.9 39.9
510(12) 0.00659 445.8 45.7
507(12) 0.00689 445.7 52.6
542(12) 0.00674 445.6 60.5
516(12) 0.00712 445.4 69.2
537(12) 0.00642 445.3 78.5
524(13) 0.00631 445.2 87.7
581(13) 0.00585 445.0 95.8
569(12) 0.00642 444.9 101.5
560(12) 0.00653 444.8 103.9
566(13) 0.00605 444.6 102.6
546(13) 0.00581 444.5 98.4
539(13) 0.00637 444.4 92.3
545(12) 0.00678 444.3 85.6
535(12) 0.00679 444.1 79.3
541(12) 0.00641 444.0 73.9
523(13) 0.00615 443.9 69.8
548(13) 0.00616 443.7 67.1
514(12) 0.00729 443.6 65.9
508(12) 0.00714 443.5 66.2
527(12) 0.00659 443.3 68.0
536(13) 0.00615 443.2 71.2
544(13) 0.00634 443.1 75.8
556(12) 0.00664 443.0 81.8
544(12) 0.00683 442.8 88.8
564(13) 0.00614 442.7 96.8
554(13) 0.00609 442.6 105.5
601(13) 0.00561 442.4 114.2
571(12) 0.00649 442.3 122.8
557(12) 0.00653 442.2 130.9
584(13) 0.00569 442.0 138.6
591(13) 0.00561 441.9 146.2
590(13) 0.00584 441.8 153.9
589(13) 0.00631 441.7 161.7
627(13) 0.00573 441.5 169.4
626(14) 0.00531 441.4 176.1
628(14) 0.00548 441.3 180.8
638(14) 0.00548 441.1 182.5
624(13) 0.00594 441.0 180.3
660(14) 0.00535 440.9 174.3
615(13) 0.00550 440.7 165.0
613(14) 0.00548 440.6 153.5
577(13) 0.00618 440.5 140.8
606(13) 0.00612 440.4 128.1
566(13) 0.00623 440.2 115.8
519(12) 0.00663 440.1 104.6
535(12) 0.00646 440.0 94.5
552(12) 0.00644 439.8 85.7
570(12) 0.00654 439.7 78.1
534(12) 0.00670 439.6 71.7
509(12) 0.00666 439.4 66.3
520(12) 0.00663 439.3 61.9
472(11) 0.00789 439.2 58.4
464(11) 0.00802 439.1 55.6
521(12) 0.00658 438.9 53.6
486(12) 0.00703 438.8 52.1
495(12) 0.00714 438.7 51.2
511(12) 0.00708 438.5 50.8
514(12) 0.00728 438.4 50.9
518(12) 0.00667 438.3 51.4
504(13) 0.00636 438.1 52.4
492(12) 0.00713 438.0 53.8
484(11) 0.00767 437.9 55.7
506(12) 0.00720 437.8 58.0
519(12) 0.00678 437.6 60.7
525(13) 0.00614 437.5 63.9
514(12) 0.00691 437.4 67.5
505(12) 0.00734 437.2 71.6
508(12) 0.00720 437.1 75.9
503(12) 0.00690 437.0 80.6
524(13) 0.00624 436.8 85.5
524(12) 0.00668 436.7 90.7
536(12) 0.00697 436.6 96.3
548(12) 0.00660 436.5 102.7
557(13) 0.00619 436.3 110.1
562(13) 0.00578 436.2 119.3
552(13) 0.00628 436.1 130.9
593(13) 0.00629 435.9 145.7
603(13) 0.00598 435.8 164.5
590(13) 0.00571 435.7 188.1
624(14) 0.00533 435.5 217.1
674(14) 0.00519 435.4 252.1
675(13) 0.00552 435.3 293.0
719(14) 0.00503 435.2 339.3
780(15) 0.00443 435.0 389.1
869(16) 0.00391 434.9 438.6
892(16) 0.00400 434.8 481.6
945(16) 0.00394 434.6 510.6
1017(17) 0.003481 434.5 518.8
950(17) 0.00361 434.4 504.2
868(16) 0.00399 434.2 470.3
823(15) 0.00435 434.1 424.2
769(14) 0.00485 434.0 373.5
738(15) 0.00473 433.9 323.8
706(14) 0.00479 433.7 278.2
666(14) 0.00520 433.6 238.3
672(14) 0.00532 433.5 204.7
629(13) 0.00592 433.3 177.1
648(14) 0.00534 433.2 155.1
605(13) 0.00550 433.1 138.1
597(13) 0.00585 432.9 125.4
626(13) 0.00579 432.8 116.4
587(13) 0.00638 432.7 110.6
578(13) 0.00580 432.6 107.6
583(13) 0.00560 432.4 107.1
571(13) 0.00602 432.3 109.0
550(12) 0.00668 432.2 113.1
567(12) 0.00664 432.0 119.5
564(13) 0.00626 431.9 128.1
545(13) 0.00599 431.8 138.9
563(13) 0.00624 431.6 151.7
580(12) 0.00640 431.5 166.1
594(13) 0.00622 431.4 181.6
622(13) 0.00570 431.3 196.8
607(13) 0.00556 431.1 210.1
610(13) 0.00573 431.0 219.5
633(13) 0.00591 430.9 223.2
627(13) 0.00590 430.7 220.2
636(14) 0.00543 430.6 210.9
614(14) 0.00544 430.5 196.6
617(13) 0.00578 430.3 179.5
585(13) 0.00640 430.2 161.3
559(12) 0.00643 430.1 143.4
547(12) 0.00646 430.0 126.6
556(13) 0.00593 429.8 111.5
562(13) 0.00605 429.7 98.2
509(12) 0.00735 429.6 86.6
494(12) 0.00737 429.4 76.7
533(12) 0.00664 429.3 68.3
523(13) 0.00632 429.2 61.2
481(12) 0.00720 429.0 55.3
493(12) 0.00746 428.9 50.3
473(11) 0.00766 428.8 46.1
492(12) 0.00706 428.7 42.6
460(12) 0.00747 428.5 39.6
445(11) 0.00785 428.4 37.2
478(11) 0.00783 428.3 35.0
470(12) 0.00747 428.1 33.2
441(11) 0.00794 428.0 31.7
468(12) 0.00712 427.9 30.3
445(11) 0.00802 427.7 29.2
468(11) 0.00797 427.6 28.2
445(11) 0.00773 427.5 27.3
437(11) 0.00776 427.4 26.6
464(12) 0.00735 427.2 26.0
490(12) 0.00735 427.1 25.5
454(11) 0.00832 427.0 25.1
452(11) 0.00757 426.8 24.8
454(12) 0.00731 426.7 24.5
438(11) 0.00776 426.6 24.4
416(11) 0.00868 426.4 24.4
461(11) 0.00804 426.3 24.4
429(11) 0.00799 426.2 24.6
461(12) 0.00716 426.1 24.8
456(11) 0.00792 425.9 25.1
435(11) 0.00848 425.8 25.6
469(11) 0.00785 425.7 26.1
459(11) 0.00768 425.5 26.8
461(12) 0.00692 425.4 27.6
457(12) 0.00746 425.3 28.6
454(11) 0.00805 425.1 29.8
436(11) 0.00856 425.0 31.2
473(12) 0.00713 424.9 32.8
465(12) 0.00696 424.8 34.6
455(11) 0.00764 424.6 36.8
488(12) 0.00749 424.5 39.3
492(12) 0.00754 424.4 42.2
456(11) 0.00790 424.2 45.5
475(12) 0.00687 424.1 49.3
470(11) 0.00761 424.0 53.6
488(11) 0.00758 423.8 58.5
484(11) 0.00762 423.7 64.0
502(12) 0.00696 423.6 70.2
502(12) 0.00669 423.5 76.9
507(12) 0.00690 423.3 84.3
530(12) 0.00701 423.2 92.1
551(12) 0.00665 423.1 100.1
513(12) 0.00676 422.9 108.0
550(13) 0.00604 422.8 115.4
546(12) 0.00653 422.7 121.7
555(12) 0.00670 422.5 126.4
548(12) 0.00672 422.4 128.9
534(13) 0.00639 422.3 129.0
555(13) 0.00611 422.2 126.7
556(13) 0.00623 422.0 122.3
503(12) 0.00739 421.9 116.3
547(12) 0.00643 421.8 109.3
533(12) 0.00648 421.6 101.8
513(12) 0.00690 421.5 94.2
497(12) 0.00704 421.4 86.9
488(11) 0.00761 421.2 80.1
496(12) 0.00720 421.1 74.0
492(12) 0.00671 421.0 68.5
487(12) 0.00696 420.9 63.7
523(12) 0.00682 420.7 59.7
469(11) 0.00796 420.6 56.3
466(12) 0.00726 420.5 53.5
481(12) 0.00676 420.3 51.4
446(11) 0.00784 420.2 49.9
482(11) 0.00760 420.1 48.9
498(12) 0.00740 419.9 48.6
479(12) 0.00735 419.8 48.7
511(12) 0.00649 419.7 49.5
508(12) 0.00681 419.6 50.8
476(11) 0.00779 419.4 52.7
477(11) 0.00784 419.3 55.1
496(12) 0.00704 419.2 58.2
482(12) 0.00668 419.0 61.8
441(11) 0.00789 418.9 66.0
475(11) 0.00780 418.8 70.7
507(12) 0.00729 418.6 75.9
480(12) 0.00724 418.5 81.2
495(12) 0.00646 418.4 86.5
544(13) 0.00625 418.3 91.4
519(12) 0.00709 418.1 95.5
537(12) 0.00690 418.0 98.3
536(12) 0.00652 417.9 99.5
558(13) 0.00571 417.7 98.8
538(12) 0.00641 417.6 96.3
511(12) 0.00724 417.5 92.2
508(12) 0.00716 417.3 87.0
482(12) 0.00736 417.2 81.0
515(12) 0.00644 417.1 74.8
502(12) 0.00704 417.0 68.5
484(11) 0.00770 416.8 62.4
443(11) 0.00830 416.7 56.8
435(11) 0.00807 416.6 51.6
462(12) 0.00735 416.4 46.8
489(12) 0.00706 416.3 42.6
467(11) 0.00798 416.2 38.8
427(11) 0.00856 416.0 35.5
435(11) 0.00806 415.9 32.5
422(11) 0.00811 415.8 29.9
445(11) 0.00792 415.6 27.6
451(11) 0.00827 415.5 25.6
403(11) 0.00877 415.4 23.8
444(11) 0.00772 415.3 22.2
437(11) 0.00800 415.1 20.8
446(11) 0.00797 415.0 19.6
428(11) 0.00872 414.9 18.5
465(12) 0.00746 414.7 17.5
431(11) 0.00785 414.6 16.6
415(11) 0.00815 414.5 15.9
432(11) 0.00796 414.3 15.1
425(11) 0.00878 414.2 14.5
402(11) 0.00880 414.1 13.9
426(11) 0.00798 414.0 13.4
414(11) 0.00842 413.8 12.9
414(11) 0.00869 413.7 12.4
405(10) 0.00922 413.6 12.0
413(11) 0.00852 413.4 11.7
427(11) 0.00783 413.3 11.3
426(11) 0.00826 413.2 11.0
409(10) 0.00915 413.0 10.7
418(11) 0.00889 412.9 10.4
425(11) 0.00811 412.8 10.1
425(11) 0.00793 412.7 9.9
390(11) 0.00904 412.5 9.7
401(10) 0.00921 412.4 9.5
406(10) 0.00913 412.3 9.3
406(11) 0.00848 412.1 9.1
396(11) 0.00801 412.0 8.9
416(11) 0.00845 411.9 8.8
435(11) 0.00852 411.7 8.6
429(11) 0.00867 411.6 8.5
424(11) 0.00824 411.5 8.4
421(11) 0.00776 411.4 8.2
401(11) 0.00859 411.2 8.1
430(11) 0.00872 411.1 8.0
406(11) 0.00907 411.0 7.9
409(11) 0.00851 410.8 7.9
418(11) 0.00798 410.7 7.8
444(11) 0.00777 410.6 7.7
401(10) 0.00932 410.5 7.6
408(11) 0.00894 410.4 7.6
383(10) 0.00921 410.3 7.5
412(11) 0.00814 410.2 7.5
425(11) 0.00788 410.0 7.4
425(11) 0.00881 409.9 7.4
419(11) 0.00875 409.8 7.4
417(11) 0.00832 409.7 7.3
413(11) 0.00816 409.6 7.3
413(11) 0.00843 409.5 7.3
416(11) 0.00893 409.4 7.3
418(11) 0.00869 409.2 7.3
402(11) 0.00892 409.1 7.3
428(11) 0.00788 409.0 7.3
425(11) 0.00819 408.9 7.3
439(11) 0.00854 408.8 7.3
429(11) 0.00800 408.7 7.3
418(11) 0.00812 408.6 7.4
389(10) 0.00910 408.5 7.4
414(11) 0.00844 408.3 7.4
412(11) 0.00905 408.2 7.5
415(11) 0.00805 408.1 7.5
397(11) 0.00863 408.0 7.6
406(11) 0.00865 407.9 7.7
422(11) 0.00860 407.8 7.8
410(10) 0.00911 407.7 7.9
405(11) 0.00854 407.5 8.0
434(11) 0.00771 407.4 8.1
435(11) 0.00789 407.3 8.3
395(10) 0.00924 407.2 8.5
421(11) 0.00887 407.1 8.7
407(11) 0.00850 407.0 9.0
437(12) 0.00721 406.9 9.3
413(11) 0.00834 406.7 9.7
420(11) 0.00854 406.6 10.3
434(11) 0.00861 406.5 11.1
444(11) 0.00784 406.4 12.2
430(12) 0.00755 406.3 13.6
432(11) 0.00807 406.2 15.5
434(11) 0.00851 406.1 18.0
427(11) 0.00865 405.9 21.0
420(11) 0.00834 405.8 24.6
430(12) 0.00755 405.7 28.5
454(12) 0.00754 405.6 32.3
425(11) 0.00876 405.5 35.3
452(11) 0.00800 405.4 36.7
439(11) 0.00802 405.3 36.0
442(12) 0.00740 405.2 33.6
454(11) 0.00789 405.0 30.1
434(11) 0.00861 404.9 26.4
433(11) 0.00851 404.8 22.9
434(11) 0.00818 404.7 19.9
434(11) 0.00770 404.6 17.5
425(11) 0.00822 404.5 15.6
392(10) 0.00947 404.4 14.2
411(11) 0.00860 404.2 13.3
399(11) 0.00881 404.1 12.7
394(11) 0.00858 404.0 12.3
410(11) 0.00836 403.9 12.0
445(11) 0.00829 403.8 11.9
410(11) 0.00877 403.7 11.8
383(11) 0.00856 403.6 11.8
396(11) 0.00846 403.4 11.9
402(11) 0.00887 403.3 11.9
413(11) 0.00907 403.2 12.0
403(11) 0.00900 403.1 12.2
382(10) 0.00907 403.0 12.3
390(10) 0.00908 402.9 12.5
422(11) 0.00849 402.8 12.7
422(11) 0.00888 402.6 13.0
380(10) 0.00918 402.5 13.2
399(11) 0.00812 402.4 13.5
398(11) 0.00872 402.3 13.8
425(11) 0.00838 402.2 14.1
413(11) 0.00903 402.1 14.4
429(11) 0.00800 402.0 14.7
424(11) 0.00784 401.9 15.1
396(11) 0.00872 401.7 15.5
438(11) 0.00810 401.6 15.9
424(11) 0.00877 401.5 16.4
420(11) 0.00844 401.4 16.9
425(11) 0.00793 401.3 17.4
407(11) 0.00868 401.2 17.9
420(11) 0.00830 401.1 18.5
396(10) 0.00951 400.9 19.1
405(11) 0.00878 400.8 19.7
402(11) 0.00830 400.7 20.4
389(11) 0.00887 400.6 21.1
398(10) 0.00925 400.5 21.9
409(10) 0.00912 400.4 22.7
415(11) 0.00838 400.3 23.6
430(12) 0.00751 400.1 24.5
420(11) 0.00848 400.0 25.4
443(11) 0.00831 399.9 26.5
409(11) 0.00901 399.8 27.5
430(11) 0.00811 399.7 28.7
426(12) 0.00751 399.6 29.9
421(11) 0.00830 399.5 31.3
422(11) 0.00874 399.3 32.7
435(11) 0.00854 399.2 34.2
418(11) 0.00839 399.1 35.8
409(11) 0.00819 399.0 37.5
450(11) 0.00756 398.9 39.3
431(11) 0.00864 398.8 41.3
428(11) 0.00845 398.7 43.3
434(11) 0.00794 398.6 45.6
440(11) 0.00760 398.4 48.0
466(12) 0.00745 398.3 50.5
469(11) 0.00789 398.2 53.2
455(11) 0.00793 398.1 56.2
438(11) 0.00776 398.0 59.3
468(12) 0.00717 397.9 62.6
487(12) 0.00714 397.8 66.2
471(11) 0.00786 397.6 69.9
475(11) 0.00762 397.5 73.9
487(12) 0.00723 397.4 78.1
485(12) 0.00718 397.3 82.3
497(12) 0.00711 397.2 86.7
518(12) 0.00716 397.1 91.0
488(12) 0.00713 397.0 95.2
542(13) 0.00614 396.8 99.0
514(12) 0.00671 396.7 102.3
492(12) 0.00734 396.6 105.0
525(12) 0.00704 396.5 107.0
511(12) 0.00687 396.4 108.2
509(12) 0.00662 396.3 108.6
509(12) 0.00682 396.2 108.4
530(12) 0.00682 396.0 107.8
536(12) 0.00691 395.9 106.7
504(12) 0.00695 395.8 105.5
505(12) 0.00672 395.7 104.2
522(12) 0.00686 395.6 102.8
511(12) 0.00726 395.5 101.4
477(11) 0.00774 395.4 99.9
483(12) 0.00735 395.3 98.3
507(12) 0.00654 395.1 96.6
506(12) 0.00697 395.0 94.6
496(12) 0.00747 394.9 92.4
497(12) 0.00747 394.8 89.9
502(12) 0.00685 394.7 87.2
496(12) 0.00645 394.6 84.4
488(12) 0.00716 394.5 81.5
483(11) 0.00772 394.3 78.7
481(11) 0.00773 394.2 75.9
487(12) 0.00698 394.1 73.3
462(12) 0.00691 394.0 70.8
480(12) 0.00717 393.9 68.5
465(11) 0.00793 393.8 66.5
447(11) 0.00829 393.7 64.6
470(12) 0.00749 393.5 62.9
464(12) 0.00707 393.4 61.5
451(11) 0.00789 393.3 60.3
453(11) 0.00824 393.2 59.3
480(11) 0.00764 393.1 58.5
469(12) 0.00735 393.0 58.0
442(11) 0.00765 392.9 57.8
455(11) 0.00777 392.7 57.8
461(11) 0.00809 392.6 58.1
434(11) 0.00844 392.5 58.7
437(11) 0.00812 392.4 59.6
475(12) 0.00721 392.3 60.8
455(11) 0.00759 392.2 62.4
456(11) 0.00807 392.1 64.3
450(11) 0.00808 392.0 66.7
482(12) 0.00725 391.8 69.4
489(12) 0.00692 391.7 72.6
451(11) 0.00788 391.6 76.4
445(11) 0.00833 391.5 80.6
470(12) 0.00747 391.4 85.5
468(12) 0.00743 391.3 91.0
497(12) 0.00698 391.2 97.2
490(12) 0.00737 391.0 104.1
492(12) 0.00753 390.9 111.7
496(12) 0.00717 390.8 120.0
515(12) 0.00684 390.7 129.1
514(12) 0.00687 390.6 138.8
524(12) 0.00689 390.5 149.1
531(12) 0.00703 390.4 160.1
546(13) 0.00635 390.2 171.9
539(12) 0.00654 390.1 184.4
622(13) 0.00561 390.0 197.9
606(13) 0.00607 389.9 212.6
589(13) 0.00632 389.8 228.6
596(13) 0.00597 389.7 246.0
636(14) 0.00515 389.6 264.8
736(15) 0.00447 389.4 284.6
687(14) 0.00525 389.3 305.0
706(14) 0.00527 389.2 325.1
717(14) 0.00484 389.1 343.7
729(15) 0.00441 389.0 359.6
737(15) 0.00460 388.9 371.3
748(14) 0.00496 388.8 377.5
734(14) 0.00503 388.7 377.5
727(14) 0.00479 388.5 371.2
700(15) 0.00452 388.4 359.0
685(14) 0.00505 388.3 342.1
672(13) 0.00556 388.2 321.7
622(13) 0.00584 388.1 299.3
609(13) 0.00552 388.0 276.2
588(13) 0.00552 387.9 253.2
594(13) 0.00585 387.7 231.1
580(13) 0.00640 387.6 210.3
570(12) 0.00645 387.5 191.1
574(13) 0.00607 387.4 173.6
507(12) 0.00673 387.3 157.8
521(12) 0.00671 387.2 143.5
509(12) 0.00729 387.1 130.8
511(12) 0.00719 386.9 119.5
499(12) 0.00691 386.8 109.5
484(12) 0.00692 386.7 100.7
479(12) 0.00710 386.6 93.0
451(11) 0.00828 386.5 86.1
467(11) 0.00758 386.4 80.2
483(12) 0.00714 386.3 74.9
475(12) 0.00717 386.1 70.4
477(12) 0.00706 386.0 66.4
475(11) 0.00783 385.9 63.0
488(12) 0.00730 385.8 60.1
480(12) 0.00702 385.7 57.6
471(12) 0.00728 385.6 55.6
439(11) 0.00824 385.5 53.9
440(11) 0.00848 385.4 52.5
440(11) 0.00786 385.2 51.4
476(12) 0.00702 385.1 50.6
464(12) 0.00743 385.0 50.0
452(11) 0.00799 384.9 49.5
453(11) 0.00820 384.8 49.2
413(11) 0.00853 384.7 48.9
465(12) 0.00708 384.6 48.6
432(11) 0.00792 384.4 48.1
440(11) 0.00813 384.3 47.4
423(11) 0.00879 384.2 46.4
437(11) 0.00795 384.1 45.2
450(12) 0.00726 384.0 43.7
435(11) 0.00832 383.9 41.9
455(11) 0.00801 383.8 40.0
419(11) 0.00892 383.6 38.0
393(11) 0.00867 383.5 36.0
403(11) 0.00792 383.4 34.0
409(11) 0.00843 383.3 32.1
427(11) 0.00881 383.2 30.3
409(11) 0.00901 383.1 28.6
423(11) 0.00794 383.0 27.0
395(11) 0.00842 382.8 25.6
431(11) 0.00790 382.7 24.2
409(10) 0.00914 382.6 23.0
394(10) 0.00943 382.5 21.8
389(11) 0.00884 382.4 20.8
387(11) 0.00863 382.3 19.9
418(11) 0.00829 382.2 19.0
396(10) 0.00944 382.1 18.2
390(10) 0.00948 381.9 17.5
365(10) 0.00969 381.8 16.8
371(11) 0.00887 381.7 16.2
395(11) 0.00856 381.6 15.7
388(10) 0.00950 381.5 15.1
371(10) 0.00971 381.4 14.7
415(11) 0.00807 381.3 14.2
394(11) 0.00831 381.1 13.8
429(11) 0.00806 381.0 13.4
400(10) 0.00930 380.9 13.1
386(10) 0.00920 380.8 12.8
394(11) 0.00878 380.7 12.5
374(10) 0.00919 380.6 12.2
393(11) 0.00903 380.5 12.0
391(10) 0.00948 380.3 11.7
395(11) 0.00886 380.2 11.5
386(11) 0.00860 380.1 11.3
357(10) 0.00945 380.0 11.2
385(11) 0.00881 379.9 11.0
378(10) 0.00987 379.8 10.9
396(11) 0.00853 379.7 10.8
376(11) 0.00889 379.5 10.7
395(11) 0.00855 379.4 10.6
374(10) 0.00967 379.3 10.6
388(10) 0.00956 379.2 10.6
395(11) 0.00854 379.1 10.6
391(11) 0.00849 379.0 10.6
387(11) 0.00892 378.9 10.7
375(10) 0.00973 378.8 10.8
364(10) 0.01030 378.6 10.9
358(10) 0.00973 378.5 11.0
376(11) 0.00877 378.4 11.2
378(10) 0.00934 378.3 11.3
399(10) 0.00910 378.2 11.5
360(10) 0.01037 378.1 11.7
361(10) 0.00987 378.0 11.8
366(11) 0.00865 377.8 11.9
389(11) 0.00887 377.7 12.0
397(10) 0.00927 377.6 12.1
434(11) 0.00860 377.5 12.0
395(11) 0.00897 377.4 11.9
383(11) 0.00855 377.3 11.7
385(11) 0.00884 377.2 11.5
374(10) 0.00992 377.0 11.2
379(10) 0.00978 376.9 10.9
407(11) 0.00839 376.8 10.5
381(11) 0.00870 376.7 10.2
357(10) 0.00977 376.6 9.8
384(10) 0.00964 376.5 9.5
394(10) 0.00932 376.4 9.1
376(10) 0.00920 376.2 8.8
367(11) 0.00885 376.1 8.5
364(10) 0.00957 376.0 8.2
391(10) 0.00944 375.9 8.0
404(11) 0.00896 375.8 7.7
385(10) 0.00909 375.7 7.5
381(11) 0.00863 375.6 7.3
366(10) 0.00959 375.5 7.1
356(10) 0.01047 375.3 7.0
378(10) 0.00946 375.2 6.8
372(10) 0.00940 375.1 6.7
388(11) 0.00866 375.0 6.5
391(11) 0.00871 374.9 6.4
369(10) 0.01009 374.8 6.3
391(11) 0.00899 374.7 6.2
362(10) 0.00938 374.5 6.1
357(10) 0.00993 374.4 6.1
387(10) 0.00936 374.3 6.0
408(10) 0.00910 374.2 5.9
357(10) 0.00984 374.1 5.9
366(10) 0.00925 374.0 5.8
398(11) 0.00844 373.9 5.8
375(10) 0.00978 373.7 5.8
371(10) 0.01005 373.6 5.7
349(10) 0.00994 373.5 5.7
386(11) 0.00846 373.4 5.7
367(10) 0.00939 373.3 5.7
387(10) 0.00920 373.2 5.6
398(10) 0.00923 373.1 5.6
335(10) 0.01068 372.9 5.6
351(10) 0.00936 372.8 5.6
369(10) 0.00958 372.7 5.6
360(10) 0.01019 372.6 5.7
382(10) 0.00974 372.5 5.7
383(10) 0.00923 372.4 5.7
384(11) 0.00835 372.3 5.7
363(10) 0.00981 372.2 5.7
382(10) 0.00965 372.0 5.8
375(10) 0.00992 371.9 5.8
365(10) 0.00975 371.8 5.9
380(11) 0.00844 371.7 5.9
356(10) 0.01002 371.6 6.0
364(10) 0.01024 371.5 6.1
377(10) 0.00962 371.4 6.1
364(10) 0.00967 371.2 6.2
385(11) 0.00855 371.1 6.3
402(11) 0.00870 371.0 6.4
367(10) 0.01002 370.9 6.5
392(10) 0.00936 370.8 6.6
384(11) 0.00893 370.7 6.7
371(11) 0.00893 370.6 6.9
395(11) 0.00897 370.4 7.0
410(11) 0.00903 370.3 7.2
379(10) 0.00957 370.2 7.4
341(10) 0.01031 370.1 7.6
371(10) 0.00916 370.0 7.8
393(11) 0.00897 369.9 8.0
374(10) 0.00988 369.8 8.3
371(10) 0.00961 369.6 8.6
383(11) 0.00887 369.5 8.9
353(10) 0.00995 369.4 9.2
392(11) 0.00903 369.3 9.6
379(10) 0.00982 369.2 9.9
349(10) 0.00998 369.1 10.4
365(11) 0.00905 369.0 10.8
370(11) 0.00903 368.9 11.3
390(10) 0.00923 368.7 11.9
367(10) 0.01030 368.6 12.5
386(11) 0.00892 368.5 13.1
367(10) 0.00924 368.4 13.8
369(10) 0.00913 368.3 14.6
393(11) 0.00906 368.2 15.4
376(10) 0.00990 368.1 16.3
415(11) 0.00820 367.9 17.2
372(10) 0.00931 367.8 18.2
388(11) 0.00902 367.7 19.3
394(10) 0.00912 367.6 20.5
361(10) 0.01028 367.5 21.7
386(10) 0.00907 367.4 22.9
396(11) 0.00839 367.3 24.2
391(11) 0.00879 367.1 25.5
385(10) 0.00946 367.0 26.8
387(10) 0.00958 366.9 28.0
413(11) 0.00819 366.8 29.2
351(10) 0.00947 366.7 30.3
346(10) 0.01018 366.6 31.2
394(10) 0.00930 366.5 32.0
378(10) 0.00971 366.3 32.5
409(11) 0.00848 366.2 32.8
387(11) 0.00852 366.1 32.8
390(11) 0.00894 366.0 32.5
388(10) 0.00963 365.9 32.0
379(10) 0.00962 365.8 31.3
398(11) 0.00855 365.7 30.4
390(11) 0.00849 365.6 29.3
376(10) 0.00933 365.4 28.1
390(10) 0.00948 365.3 26.8
387(10) 0.00951 365.2 25.5
397(11) 0.00855 365.1 24.2
384(11) 0.00853 365.0 22.9
420(11) 0.00802 364.9 21.7
381(10) 0.00970 364.8 20.5
365(10) 0.00996 364.6 19.3
381(11) 0.00903 364.5 18.2
373(11) 0.00899 364.4 17.2
370(10) 0.00943 364.3 16.2
395(10) 0.00951 364.2 15.4
365(10) 0.01005 364.1 14.5
391(11) 0.00891 364.0 13.8
370(10) 0.00942 363.8 13.1
380(11) 0.00887 363.7 12.4
408(11) 0.00903 363.6 11.9
381(10) 0.00935 363.5 11.3
353(10) 0.01005 363.4 10.8
370(10) 0.00922 363.3 10.4
358(10) 0.00967 363.2 10.0
348(10) 0.01071 363.0 9.6
379(10) 0.00927 362.9 9.3
398(11) 0.00839 362.8 9.0
358(10) 0.00961 362.7 8.7
372(10) 0.00940 362.6 8.4
389(10) 0.00957 362.5 8.2
357(10) 0.00995 362.4 8.0
383(11) 0.00891 362.3 7.8
372(10) 0.00925 362.1 7.6
372(10) 0.00948 362.0 7.4
347(10) 0.01061 361.9 7.2
351(10) 0.00996 361.8 7.1
385(11) 0.00882 361.7 6.9
379(10) 0.00934 361.6 6.7
382(10) 0.00941 361.5 6.6
368(10) 0.01002 361.3 6.4
369(10) 0.00966 361.2 6.2
372(11) 0.00891 361.1 6.1
370(10) 0.00954 361.0 5.9
361(10) 0.01018 360.9 5.8
370(10) 0.01010 360.8 5.6
348(10) 0.00982 360.7 5.5
378(11) 0.00838 360.5 5.4
390(11) 0.00890 360.4 5.3
366(10) 0.01031 360.3 5.1
340(10) 0.01091 360.2 5.0
387(11) 0.00882 360.1 4.9
379(11) 0.00847 360.0 4.8
341(10) 0.01048 359.9 4.7
366(10) 0.01012 359.7 4.7
358(10) 0.01024 359.6 4.6
356(10) 0.00965 359.5 4.5
344(10) 0.00948 359.4 4.5
358(10) 0.00969 359.3 4.4
372(10) 0.00998 359.2 4.4
335(10) 0.01072 359.1 4.3
347(10) 0.00980 359.0 4.3
354(10) 0.00933 358.8 4.2
353(10) 0.00974 358.7 4.2
335(9) 0.01117 358.6 4.2
374(10) 0.00956 358.5 4.2
350(10) 0.00970 358.4 4.1
349(10) 0.00958 358.3 4.1
369(10) 0.00932 358.2 4.1
366(10) 0.01014 358.0 4.1
332(10) 0.01091 357.9 4.1
336(10) 0.01033 357.8 4.1
367(11) 0.00895 357.7 4.1
374(11) 0.00896 357.6 4.1
355(10) 0.01066 357.5 4.1
367(10) 0.00966 357.4 4.2
353(10) 0.00946 357.2 4.2
351(10) 0.00991 357.1 4.2
387(10) 0.00912 357.0 4.3
341(10) 0.01086 356.9 4.3
365(10) 0.00961 356.8 4.3
347(10) 0.00981 356.7 4.4
366(10) 0.00986 356.6 4.4
376(10) 0.00986 356.5 4.5
338(10) 0.01099 356.3 4.6
348(10) 0.00994 356.2 4.6
382(11) 0.00866 356.1 4.7
350(10) 0.01007 356.0 4.8
360(10) 0.01007 355.9 4.9
333(9) 0.01123 355.8 5.0
350(10) 0.01001 355.7 5.1
353(10) 0.00969 355.5 5.2
374(10) 0.00947 355.4 5.3
355(10) 0.01038 355.3 5.4
356(10) 0.01043 355.2 5.6
370(10) 0.00941 355.1 5.7
335(10) 0.00974 355.0 5.8
341(10) 0.00970 354.9 6.0
358(10) 0.01020 354.7 6.2
383(10) 0.00972 354.6 6.3
392(11) 0.00888 354.5 6.5
382(11) 0.00862 354.4 6.7
359(10) 0.00976 354.3 6.9
355(10) 0.01057 354.2 7.1
364(10) 0.01011 354.1 7.3
346(10) 0.01002 353.9 7.5
341(10) 0.00973 353.8 7.7
356(10) 0.00959 353.7 7.9
355(10) 0.01061 353.6 8.1
349(10) 0.01035 353.5 8.3
334(10) 0.01061 353.4 8.5
375(11) 0.00893 353.3 8.6
368(10) 0.00942 353.2 8.8
352(10) 0.01058 353.0 8.9
350(10) 0.01054 352.9 9.0
376(11) 0.00897 352.8 9.1
384(11) 0.00852 352.7 9.2
364(10) 0.00961 352.6 9.2
356(10) 0.01046 352.5 9.3
358(10) 0.01001 352.4 9.2
358(10) 0.00948 352.2 9.2
345(10) 0.00957 352.1 9.1
363(11) 0.00902 352.0 9.0
360(10) 0.01039 351.9 8.9
359(10) 0.01002 351.8 8.8
369(10) 0.00936 351.7 8.6
347(10) 0.00975 351.6 8.4
334(10) 0.01024 351.4 8.2
374(10) 0.00997 351.3 8.0
347(10) 0.01025 351.2 7.8
340(10) 0.01017 351.1 7.6
369(10) 0.00919 351.0 7.4
341(10) 0.01021 350.9 7.1
362(10) 0.01023 350.8 6.9
362(10) 0.00971 350.6 6.7
371(10) 0.00931 350.5 6.5
340(10) 0.01062 350.4 6.3
348(10) 0.01058 350.3 6.1
362(10) 0.01036 350.2 5.9
343(10) 0.01042 350.1 5.7
347(10) 0.00938 350.0 5.5
338(10) 0.01024 349.9 5.3
355(10) 0.01046 349.7 5.2
359(10) 0.01035 349.6 5.0
384(11) 0.00878 349.5 4.9
358(11) 0.00904 349.4 4.7
351(10) 0.00999 349.3 4.6
345(10) 0.01087 349.2 4.5
364(10) 0.01024 349.1 4.3
349(10) 0.00991 348.9 4.2
362(11) 0.00858 348.8 4.1
332(10) 0.01067 348.7 4.0
366(10) 0.01012 348.6 3.9
345(10) 0.01069 348.5 3.8
353(10) 0.00957 348.4 3.7
344(10) 0.00945 348.3 3.6
379(10) 0.00925 348.1 3.5
352(10) 0.01059 348.0 3.5
356(10) 0.01042 347.9 3.4
355(10) 0.00985 347.8 3.3
362(11) 0.00902 347.7 3.3
348(10) 0.00989 347.6 3.2
351(10) 0.01063 347.5 3.1
362(10) 0.01006 347.3 3.1
381(11) 0.00880 347.2 3.0
349(10) 0.00961 347.1 3.0
354(10) 0.00958 347.0 2.9
326(9) 0.01131 346.9 2.9
365(10) 0.00988 346.8 2.8
355(10) 0.00956 346.7 2.8
356(10) 0.00920 346.6 2.8
370(10) 0.00911 346.4 2.7
352(10) 0.01056 346.3 2.7
365(10) 0.00975 346.2 2.7
349(10) 0.00988 346.1 2.6
338(10) 0.01002 346.0 2.6
338(10) 0.01044 345.9 2.6
330(9) 0.01129 345.8 2.5
343(10) 0.01052 345.6 2.5
340(10) 0.01031 345.5 2.5
380(11) 0.00868 345.4 2.5
334(10) 0.01071 345.3 2.5
342(10) 0.01079 345.2 2.4
353(10) 0.00990 345.1 2.4
353(10) 0.00970 345.0 2.4
338(10) 0.01017 344.8 2.4
371(10) 0.00962 344.7 2.4
363(10) 0.01029 344.6 2.4
364(10) 0.00921 344.5 2.3
347(10) 0.00961 344.4 2.3
354(10) 0.00973 344.3 2.3
355(10) 0.01024 344.2 2.3
361(10) 0.01025 344.0 2.3
354(10) 0.00977 343.9 2.3
340(10) 0.00997 343.8 2.3
355(10) 0.00989 343.7 2.3
363(10) 0.01012 343.6 2.3
362(10) 0.01037 343.5 2.3
342(10) 0.01024 343.4 2.3
323(10) 0.00985 343.3 2.3
333(10) 0.01006 343.1 2.3
335(10) 0.01087 343.0 2.3
349(10) 0.01053 342.9 2.3
356(10) 0.00950 342.8 2.3
326(10) 0.00976 342.7 2.3
335(10) 0.01052 342.6 2.3
357(10) 0.01048 342.5 2.3
359(10) 0.01016 342.3 2.3
347(10) 0.01000 342.2 2.3
337(10) 0.00962 342.1 2.4
358(10) 0.00979 342.0 2.4
349(10) 0.01078 341.9 2.4
326(9) 0.01114 341.8 2.4
326(10) 0.01045 341.7 2.4
336(10) 0.00966 341.5 2.5
361(10) 0.00971 341.4 2.5
318(9) 0.01179 341.3 2.5
358(10) 0.01006 341.2 2.6
315(9) 0.01112 341.1 2.6
327(10) 0.01041 341.0 2.6
356(10) 0.00987 340.9 2.7
327(9) 0.01145 340.8 2.8
329(9) 0.01124 340.7 2.8
353(10) 0.00985 340.6 2.9
363(11) 0.00890 340.6 3.0
331(10) 0.01055 340.5 3.1
313(9) 0.01182 340.4 3.2
337(10) 0.01054 340.3 3.3
324(10) 0.01080 340.3 3.5
344(10) 0.00993 340.2 3.7
364(10) 0.00957 340.1 3.9
332(9) 0.01120 340.0 4.1
337(10) 0.01031 340.0 4.4
346(10) 0.00951 339.9 4.8
349(10) 0.00986 339.8 5.2
330(10) 0.01073 339.7 5.6
341(10) 0.01092 339.7 6.1
383(10) 0.00907 339.6 6.7
337(10) 0.01012 339.5 7.3
346(10) 0.01004 339.4 7.9
361(10) 0.00975 339.4 8.6
328(9) 0.01138 339.3 9.2
363(10) 0.00931 339.2 9.7
325(10) 0.01063 339.1 10.1
357(10) 0.00975 339.0 10.2
346(10) 0.01063 339.0 10.2
333(9) 0.01112 338.9 9.9
350(10) 0.00992 338.8 9.4
348(10) 0.00931 338.7 8.9
380(11) 0.00889 338.7 8.3
349(10) 0.01068 338.6 7.7
327(9) 0.01121 338.5 7.1
341(10) 0.01025 338.4 6.6
348(10) 0.00911 338.4 6.2
340(10) 0.00982 338.3 5.7
348(10) 0.01069 338.2 5.4
335(10) 0.01093 338.1 5.1
351(10) 0.00938 338.1 4.9
335(10) 0.00957 338.0 4.7
342(10) 0.01021 337.9 4.5
348(10) 0.01072 337.8 4.4
354(10) 0.01037 337.8 4.4
326(10) 0.01089 337.7 4.3
319(10) 0.01055 337.6 4.3
371(11) 0.00907 337.5 4.3
344(10) 0.01072 337.5 4.3
352(10) 0.01015 337.4 4.3
332(10) 0.01058 337.3 4.4
330(10) 0.01014 337.2 4.5
351(10) 0.00993 337.2 4.6
362(10) 0.01021 337.1 4.7
326(9) 0.01128 337.0 4.8
335(10) 0.01015 336.9 5.0
360(10) 0.00928 336.9 5.2
352(10) 0.00991 336.8 5.4
342(10) 0.01093 336.7 5.7
342(10) 0.01060 336.6 6.0
344(10) 0.01007 336.5 6.3
332(10) 0.01049 336.5 6.7
338(10) 0.01077 336.4 7.2
330(9) 0.01141 336.3 7.7
347(10) 0.00985 336.2 8.3
344(10) 0.01006 336.2 9.0
368(10) 0.00908 336.1 9.7
339(10) 0.01038 336.0 10.6
337(10) 0.01093 335.9 11.5
331(10) 0.01060 335.9 12.6
368(10) 0.00932 335.8 13.7
350(10) 0.00993 335.7 14.9
319(9) 0.01152 335.6 16.1
329(9) 0.01136 335.6 17.2
359(10) 0.00944 335.5 18.3
369(11) 0.00891 335.4 19.2
375(10) 0.00953 335.3 19.9
362(10) 0.01014 335.3 20.3
377(10) 0.00986 335.2 20.4
357(10) 0.00986 335.1 20.2
365(11) 0.00906 335.0 19.8
352(10) 0.01036 335.0 19.3
356(10) 0.01032 334.9 18.7
344(10) 0.01090 334.8 18.1
354(10) 0.00995 334.7 17.5
352(11) 0.00900 334.7 17.0
349(10) 0.00998 334.6 16.6
361(10) 0.01009 334.5 16.1
347(10) 0.01061 334.4 15.7
342(10) 0.01013 334.3 15.2
368(11) 0.00895 334.3 14.7
338(10) 0.01031 334.2 14.0
348(10) 0.01049 334.1 13.4
357(10) 0.01013 334.0 12.7
351(10) 0.00995 334.0 12.0
338(10) 0.00971 333.9 11.4
345(10) 0.00993 333.8 10.8
356(10) 0.01041 333.7 10.3
364(10) 0.01016 333.7 9.8
334(10) 0.01017 333.6 9.4
311(10) 0.01099 333.5 9.0
327(10) 0.01079 333.4 8.7
332(9) 0.01115 333.4 8.5
363(10) 0.01005 333.3 8.3
337(10) 0.01043 333.2 8.1
342(10) 0.00959 333.1 8.0
331(10) 0.01047 333.1 7.9
336(10) 0.01106 333.0 7.9
356(10) 0.01008 332.9 8.0
331(10) 0.01084 332.8 8.0
320(10) 0.01072 332.8 8.2
341(10) 0.01026 332.7 8.3
351(10) 0.01063 332.6 8.6
330(10) 0.01064 332.5 8.9
332(10) 0.01048 332.5 9.2
333(10) 0.01048 332.4 9.6
328(10) 0.01092 332.3 10.1
337(9) 0.01113 332.2 10.6
328(10) 0.01059 332.2 11.2
344(10) 0.00941 332.1 11.9
339(10) 0.01023 332.0 12.5
333(10) 0.01104 331.9 13.2
337(9) 0.01112 331.8 13.9
330(10) 0.01021 331.8 14.5
328(10) 0.01017 331.7 15.0
352(10) 0.00987 331.6 15.4
340(10) 0.01105 331.5 15.5
346(10) 0.01066 331.5 15.5
330(10) 0.01046 331.4 15.2
327(10) 0.00999 331.3 14.8
335(10) 0.01057 331.2 14.2
359(10) 0.00997 331.2 13.6
337(10) 0.01105 331.1 12.9
337(10) 0.01036 331.0 12.2
336(10) 0.00958 330.9 11.5
346(10) 0.01017 330.9 10.9
362(10) 0.01007 330.8 10.3
340(10) 0.01085 330.7 9.8
338(10) 0.01023 330.6 9.3
344(10) 0.00940 330.6 8.9
325(10) 0.01072 330.5 8.6
327(9) 0.01142 330.4 8.3
331(9) 0.01113 330.3 8.0
347(10) 0.00993 330.3 7.8
321(10) 0.01045 330.2 7.6
336(10) 0.01009 330.1 7.5
317(9) 0.01179 330.0 7.4
347(10) 0.01060 330.0 7.3
339(10) 0.01040 329.9 7.3
343(10) 0.00963 329.8 7.3
360(10) 0.00940 329.7 7.3
325(9) 0.01156 329.6 7.3
348(10) 0.01069 329.6 7.4
333(10) 0.01034 329.5 7.5
344(10) 0.00958 329.4 7.6
340(10) 0.01038 329.3 7.7
378(10) 0.00990 329.3 7.8
334(10) 0.01090 329.2 8.0
368(10) 0.00925 329.1 8.1
345(10) 0.00981 329.0 8.3
314(9) 0.01147 329.0 8.5
353(10) 0.01063 328.9 8.8
339(10) 0.01064 328.8 9.0
330(10) 0.01053 328.7 9.3
321(10) 0.01074 328.7 9.5
355(10) 0.00993 328.6 9.8
323(9) 0.01151 328.5 10.2
331(10) 0.01042 328.4 10.5
336(10) 0.01035 328.4 10.8
349(10) 0.01000 328.3 11.2
356(10) 0.01004 328.2 11.6
351(10) 0.01061 328.1 12.0
314(10) 0.01102 328.1 12.4
328(10) 0.01021 328.0 12.8
315(10) 0.01098 327.9 13.2
333(9) 0.01114 327.8 13.7
357(10) 0.01032 327.8 14.1
323(10) 0.01084 327.7 14.5
354(10) 0.00908 327.6 15.0
370(10) 0.00910 327.5 15.4
343(10) 0.01072 327.5 15.8
338(10) 0.01103 327.4 16.3
329(10) 0.01062 327.3 16.7
348(11) 0.00900 327.2 17.0
335(10) 0.01020 327.1 17.4
323(9) 0.01151 327.1 17.7
369(10) 0.01013 327.0 18.0
353(10) 0.00989 326.9 18.2
358(11) 0.00870 326.8 18.5
335(10) 0.01039 326.8 18.6
332(9) 0.01136 326.7 18.7
347(10) 0.01033 326.6 18.8
351(10) 0.00980 326.5 18.8
329(10) 0.01035 326.5 18.8
360(10) 0.00970 326.4 18.7
336(9) 0.01119 326.3 18.6
334(9) 0.01110 326.2 18.4
333(10) 0.01044 326.2 18.3
350(10) 0.00922 326.1 18.1
338(10) 0.01032 326.0 17.9
345(10) 0.01067 325.9 17.6
337(10) 0.01089 325.9 17.4
325(10) 0.01097 325.8 17.2
363(10) 0.00932 325.7 17.0
330(10) 0.01076 325.6 16.8
335(10) 0.01108 325.6 16.7
366(10) 0.00996 325.5 16.6
337(10) 0.01034 325.4 16.5
339(10) 0.01027 325.3 16.4
333(10) 0.01064 325.3 16.4
317(9) 0.01162 325.2 16.4
312(9) 0.01175 325.1 16.5
339(10) 0.00991 325.0 16.7
319(10) 0.01074 325.0 16.8
346(10) 0.01012 324.9 17.1
349(10) 0.01053 324.8 17.4
343(10) 0.00992 324.7 17.8
357(10) 0.00958 324.6 18.2
357(10) 0.01012 324.6 18.7
361(10) 0.00976 324.5 19.3
327(9) 0.01140 324.4 19.9
351(10) 0.00994 324.3 20.6
326(10) 0.01028 324.3 21.5
337(10) 0.01009 324.2 22.4
357(10) 0.01034 324.1 23.4
377(10) 0.00986 324.0 24.4
364(10) 0.00962 324.0 25.6
354(10) 0.00953 323.9 26.9
367(10) 0.00956 323.8 28.2
370(10) 0.01011 323.7 29.6
330(9) 0.01127 323.7 31.1
362(10) 0.00951 323.6 32.6
350(10) 0.00927 323.5 34.1
360(10) 0.00979 323.4 35.6
359(10) 0.01023 323.4 37.1
341(10) 0.01096 323.3 38.5
362(10) 0.00993 323.2 39.7
386(11) 0.00834 323.1 40.7
357(10) 0.01015 323.1 41.5
375(10) 0.00987 323.0 42.1
374(10) 0.00996 322.9 42.3
371(10) 0.00937 322.8 42.2
348(10) 0.00951 322.8 41.8
366(10) 0.00949 322.7 41.1
370(10) 0.00995 322.6 40.2
339(10) 0.01095 322.5 39.0
346(10) 0.01003 322.4 37.6
370(11) 0.00895 322.4 36.1
365(10) 0.00962 322.3 34.5
339(10) 0.01098 322.2 32.9
356(10) 0.01017 322.1 31.2
359(10) 0.00945 322.1 29.5
365(10) 0.00914 322.0 27.9
354(10) 0.00971 321.9 26.4
337(10) 0.01087 321.8 24.9
351(10) 0.01039 321.8 23.5
343(10) 0.01024 321.7 22.2
342(10) 0.01001 321.6 20.9
328(10) 0.01066 321.5 19.8
356(10) 0.01051 321.5 18.7
349(10) 0.01016 321.4 17.7
357(10) 0.00940 321.3 16.8
333(10) 0.01035 321.2 15.9
337(10) 0.01032 321.2 15.1
350(10) 0.01057 321.1 14.4
363(10) 0.00945 321.0 13.7
358(10) 0.00927 320.9 13.1
350(10) 0.00961 320.9 12.6
343(10) 0.01064 320.8 12.0
349(10) 0.01058 320.7 11.6
322(10) 0.01073 320.6 11.1
333(10) 0.00996 320.6 10.7
348(10) 0.00953 320.5 10.3
349(10) 0.01012 320.4 10.0
347(10) 0.01076 320.3 9.6
338(10) 0.01032 320.3 9.3
354(10) 0.00932 320.2 9.0
358(10) 0.00958 320.1 8.7
345(10) 0.01048 320.0 8.5
332(9) 0.01122 319.9 8.2
321(10) 0.01095 319.9 8.0
327(10) 0.00976 319.8 7.7
322(10) 0.01089 319.7 7.5
346(10) 0.01060 319.6 7.2
305(9) 0.01240 319.6 7.0
324(10) 0.01058 319.5 6.8
315(10) 0.01019 319.4 6.6
321(10) 0.01084 319.3 6.4
324(9) 0.01165 319.3 6.2
331(9) 0.01126 319.2 6.0
314(9) 0.01124 319.1 5.8
343(10) 0.00919 319.0 5.7
318(10) 0.01096 319.0 5.5
296(9) 0.01262 318.9 5.4
307(9) 0.01206 318.8 5.2
327(10) 0.01036 318.7 5.1
304(10) 0.01077 318.7 4.9
325(10) 0.01065 318.6 4.8
314(9) 0.01186 318.5 4.7
299(9) 0.01208 318.4 4.6
303(9) 0.01126 318.4 4.5
315(10) 0.01086 318.3 4.4
315(9) 0.01122 318.2 4.3
306(9) 0.01217 318.1 4.2
321(10) 0.01107 318.1 4.1
314(10) 0.01045 318.0 4.0
343(11) 0.00894 317.9 3.9
311(10) 0.01089 317.8 3.9
315(9) 0.01202 317.7 3.8
348(10) 0.01016 317.7 3.7
327(10) 0.01051 317.6 3.7
322(10) 0.01039 317.5 3.6
308(9) 0.01175 317.4 3.6
311(9) 0.01198 317.4 3.5
292(9) 0.01226 317.3 3.5
312(10) 0.01073 317.2 3.4
326(10) 0.01071 317.1 3.4
327(10) 0.01062 317.1 3.3
324(9) 0.01138 317.0 3.3
312(10) 0.01095 316.9 3.2
337(10) 0.00986 316.8 3.2
318(9) 0.01121 316.8 3.2
313(9) 0.01138 316.7 3.1
306(9) 0.01221 316.6 3.1
305(9) 0.01128 316.5 3.1
315(10) 0.01064 316.5 3.0
308(9) 0.01131 316.4 3.0
290(9) 0.01230 316.3 3.0
319(9) 0.01162 316.2 2.9
303(9) 0.01182 316.2 2.9
319(10) 0.01026 316.1 2.9
305(9) 0.01165 316.0 2.9
339(10) 0.01086 315.9 2.8
322(9) 0.01146 315.9 2.8
309(9) 0.01136 315.8 2.8
319(10) 0.01005 315.7 2.8
303(9) 0.01175 315.6 2.8
302(9) 0.01231 315.6 2.8
305(9) 0.01219 315.5 2.8
332(10) 0.01021 315.4 2.7
277(9) 0.01246 315.3 2.7
323(10) 0.01056 315.2 2.7
313(9) 0.01182 315.2 2.7
305(9) 0.01203 315.1 2.7
310(9) 0.01134 315.0 2.7
310(10) 0.01075 314.9 2.7
318(10) 0.01095 314.9 2.7
308(9) 0.01218 314.8 2.7
331(10) 0.01106 314.7 2.7
282(9) 0.01276 314.6 2.7
281(9) 0.01240 314.6 2.8
316(10) 0.01085 314.5 2.8
308(9) 0.01210 314.4 2.8
302(9) 0.01203 314.3 2.8
329(10) 0.01048 314.3 2.8
299(9) 0.01110 314.2 2.9
320(10) 0.01023 314.1 2.9
308(9) 0.01212 314.0 2.9
302(9) 0.01200 314.0 3.0
333(10) 0.01020 313.9 3.0
316(10) 0.01043 313.8 3.1
314(9) 0.01122 313.7 3.2
302(9) 0.01223 313.7 3.2
317(10) 0.01037 313.6 3.3
304(9) 0.01124 313.5 3.4
332(10) 0.01041 313.4 3.5
324(10) 0.01072 313.4 3.6
314(9) 0.01170 313.3 3.8
300(9) 0.01201 313.2 3.9
304(10) 0.01072 313.1 4.1
323(10) 0.01059 313.1 4.2
336(10) 0.01047 313.0 4.4
321(9) 0.01158 312.9 4.6
307(9) 0.01139 312.8 4.8
312(10) 0.01062 312.7 5.0
313(10) 0.01107 312.7 5.3
318(9) 0.01131 312.6 5.5
331(9) 0.01123 312.5 5.7
318(10) 0.01097 312.4 5.9
311(10) 0.01091 312.4 6.1
316(10) 0.01101 312.3 6.2
316(9) 0.01166 312.2 6.3
328(9) 0.01134 312.1 6.3
305(9) 0.01152 312.1 6.3
315(10) 0.01049 312.0 6.2
337(10) 0.01046 311.9 6.1
334(9) 0.01121 311.8 5.9
326(9) 0.01130 311.8 5.7
305(9) 0.01156 311.7 5.5
318(10) 0.01042 311.6 5.2
299(9) 0.01190 311.5 5.0
313(9) 0.01170 311.5 4.8
312(9) 0.01161 311.4 4.6
309(9) 0.01158 311.3 4.4
325(10) 0.00993 311.2 4.2
294(9) 0.01175 311.2 4.0
307(9) 0.01223 311.1 3.8
327(9) 0.01123 311.0 3.7
347(10) 0.00981 310.9 3.5
332(10) 0.00981 310.9 3.4
313(10) 0.01060 310.8 3.3
312(9) 0.01189 310.7 3.2
301(9) 0.01228 310.6 3.1
314(9) 0.01120 310.5 3.0
331(10) 0.01046 310.5 2.9
327(10) 0.01081 310.4 2.9
341(10) 0.01082 310.3 2.8
317(9) 0.01160 310.2 2.8
336(10) 0.01008 310.2 2.7
319(10) 0.01051 310.1 2.7
302(9) 0.01204 310.0 2.6
314(9) 0.01183 309.9 2.6
316(9) 0.01141 309.9 2.6
314(10) 0.01064 309.8 2.5
301(9) 0.01141 309.7 2.5
322(10) 0.01104 309.6 2.5
324(9) 0.01130 309.6 2.5
309(9) 0.01133 309.5 2.4
341(10) 0.00967 309.4 2.4
329(10) 0.01046 309.3 2.4
310(9) 0.01148 309.3 2.4
312(9) 0.01187 309.2 2.4
302(9) 0.01167 309.1 2.4
299(9) 0.01134 309.0 2.4
308(10) 0.01093 309.0 2.4
304(9) 0.01196 308.9 2.3
307(9) 0.01190 308.8 2.3
335(10) 0.01003 308.7 2.3
316(10) 0.01056 308.7 2.3
313(9) 0.01131 308.6 2.3
304(9) 0.01210 308.5 2.3
324(9) 0.01149 308.4 2.3
307(9) 0.01158 308.4 2.3
300(10) 0.01074 308.3 2.3
299(9) 0.01161 308.2 2.3
307(9) 0.01194 308.1 2.3
270(9) 0.01377 308.0 2.3
303(9) 0.01118 308.0 2.3
289(10) 0.01079 307.9 2.3
303(10) 0.01090 307.8 2.3
293(9) 0.01239 307.7 2.3
322(9) 0.01147 307.7 2.3
335(10) 0.01052 307.6 2.3
291(9) 0.01143 307.5 2.3
324(10) 0.01040 307.4 2.3
309(9) 0.01174 307.4 2.3
321(9) 0.01155 307.3 2.4
332(10) 0.01018 307.2 2.4
330(10) 0.00994 307.1 2.4
320(10) 0.01090 307.1 2.4
289(9) 0.01288 307.0 2.4
298(9) 0.01214 306.9 2.4
305(9) 0.01138 306.8 2.4
320(10) 0.01057 306.8 2.4
312(10) 0.01085 306.7 2.4
304(9) 0.01223 306.6 2.4
312(9) 0.01161 306.5 2.4
303(9) 0.01160 306.5 2.4
314(10) 0.01070 306.4 2.4
317(9) 0.01110 306.3 2.5
296(9) 0.01250 306.2 2.5
301(9) 0.01171 306.2 2.5
302(9) 0.01175 306.1 2.5
319(10) 0.01072 306.0 2.5
312(9) 0.01158 305.9 2.5
313(9) 0.01174 305.8 2.5
309(9) 0.01157 305.8 2.5
296(9) 0.01147 305.7 2.6
301(9) 0.01142 305.6 2.6
321(9) 0.01136 305.5 2.6
291(9) 0.01295 305.5 2.6
315(9) 0.01115 305.4 2.6
306(9) 0.01111 305.3 2.6
294(9) 0.01205 305.2 2.7
285(9) 0.01262 305.2 2.7
324(9) 0.01135 305.2 2.7
319(10) 0.01071 305.3 2.7
299(10) 0.01107 305.3 2.7
346(10) 0.00943 305.3 2.7
321(9) 0.01144 305.4 2.8
322(9) 0.01156 305.4 2.8
315(10) 0.01106 305.4 2.8
307(10) 0.01089 305.5 2.8
330(10) 0.01089 305.5 2.9
328(9) 0.01142 305.5 2.9
308(9) 0.01182 305.6 2.9
328(10) 0.01020 305.6 2.9
322(10) 0.00979 305.6 3.0
316(10) 0.01106 305.7 3.0
304(9) 0.01226 305.7 3.0
288(9) 0.01272 305.7 3.0
279(9) 0.01263 305.8 3.1
326(10) 0.00982 305.8 3.1
328(10) 0.01064 305.9 3.1
283(9) 0.01311 305.9 3.2
329(9) 0.01125 305.9 3.2
319(10) 0.01106 306.0 3.2
325(10) 0.01012 306.0 3.3
323(10) 0.01090 306.0 3.3
314(9) 0.01175 306.1 3.3
311(9) 0.01165 306.1 3.4
301(9) 0.01157 306.1 3.4
310(10) 0.01106 306.2 3.4
323(9) 0.01116 306.2 3.5
293(9) 0.01265 306.2 3.5
307(9) 0.01173 306.3 3.6
315(10) 0.01105 306.3 3.6
344(10) 0.00950 306.3 3.6
315(10) 0.01103 306.4 3.7
302(9) 0.01231 306.4 3.7
313(9) 0.01141 306.4 3.8
316(10) 0.01070 306.5 3.8
314(9) 0.01109 306.5 3.9
308(9) 0.01148 306.5 3.9
309(9) 0.01206 306.6 4.0
312(10) 0.01106 306.6 4.0
322(10) 0.01051 306.7 4.1
305(9) 0.01125 306.7 4.1
304(9) 0.01139 306.7 4.2
316(9) 0.01178 306.8 4.3
294(9) 0.01173 306.8 4.3
294(9) 0.01138 306.8 4.4
296(9) 0.01157 306.9 4.4
306(9) 0.01165 306.9 4.5
297(9) 0.01256 306.9 4.5
305(10) 0.01085 307.0 4.5
299(9) 0.01130 307.0 4.6
289(9) 0.01258 307.0 4.6
340(10) 0.01096 307.1 4.7
315(9) 0.01181 307.1 4.7
328(10) 0.01024 307.1 4.7
314(10) 0.01040 307.2 4.8
333(10) 0.01040 307.2 4.8
297(9) 0.01259 307.2 4.9
289(9) 0.01283 307.3 4.9
309(10) 0.01103 307.3 4.9
336(10) 0.00933 307.4 5.0
315(9) 0.01126 307.4 5.0
324(9) 0.01155 307.4 5.1
321(9) 0.01143 307.5 5.2
319(10) 0.01095 307.5 5.2
293(9) 0.01148 307.5 5.3
299(9) 0.01145 307.6 5.3
318(9) 0.01191 307.6 5.4
327(9) 0.01122 307.6 5.5
341(10) 0.01025 307.7 5.6
301(10) 0.01095 307.7 5.6
319(10) 0.01108 307.7 5.7
334(9) 0.01120 307.8 5.8
317(9) 0.01147 307.8 5.9
301(9) 0.01207 307.8 6.0
310(10) 0.01057 307.9 6.1
315(10) 0.01048 307.9 6.2
316(9) 0.01170 307.9 6.3
288(9) 0.01250 308.0 6.4
313(10) 0.01098 308.0 6.5
320(10) 0.01042 308.1 6.6
321(10) 0.01088 308.1 6.7
286(9) 0.01297 308.1 6.8
313(9) 0.01144 308.2 7.0
307(10) 0.01106 308.2 7.1
329(10) 0.00996 308.2 7.2
329(10) 0.01062 308.3 7.4
338(9) 0.01111 308.3 7.5
309(9) 0.01144 308.3 7.6
319(10) 0.01049 308.4 7.8
286(9) 0.01172 308.4 8.0
314(9) 0.01109 308.4 8.1
290(9) 0.01296 308.5 8.3
321(10) 0.01093 308.5 8.5
292(9) 0.01151 308.5 8.7
305(9) 0.01125 308.6 8.9
307(9) 0.01169 308.6 9.1
320(9) 0.01164 308.6 9.3
279(9) 0.01262 308.7 9.5
328(10) 0.00981 308.7 9.7
312(9) 0.01124 308.8 9.9
334(10) 0.01094 308.8 10.2
328(9) 0.01145 308.8 10.4
321(10) 0.01080 308.9 10.7
313(10) 0.01092 308.9 11.0
285(9) 0.01276 308.9 11.3
302(9) 0.01227 309.0 11.6
301(9) 0.01244 309.0 11.9
312(9) 0.01135 309.0 12.2
314(10) 0.00997 309.1 12.6
289(9) 0.01200 309.1 12.9
328(10) 0.01100 309.1 13.3
352(10) 0.01039 309.2 13.7
309(9) 0.01136 309.2 14.2
305(10) 0.01097 309.2 14.6
310(9) 0.01144 309.3 15.1
324(9) 0.01139 309.3 15.6
312(9) 0.01188 309.3 16.1
318(10) 0.01096 309.4 16.6
303(9) 0.01129 309.4 17.2
325(10) 0.01084 309.5 17.8
317(9) 0.01171 309.5 18.4
313(9) 0.01187 309.5 19.1
331(10) 0.01023 309.6 19.9
334(10) 0.00962 309.6 20.6
311(9) 0.01135 309.6 21.4
320(9) 0.01174 309.7 22.3
320(9) 0.01120 309.7 23.2
310(10) 0.01092 309.7 24.2
303(10) 0.01106 309.8 25.3
330(10) 0.00993 309.8 26.4
328(9) 0.01152 309.8 27.7
322(9) 0.01116 309.9 29.0
366(10) 0.00919 309.9 30.4
338(10) 0.01048 309.9 31.9
365(10) 0.00973 310.0 33.6
319(9) 0.01185 310.0 35.3
340(10) 0.01050 310.0 37.3
360(10) 0.00925 310.1 39.4
364(11) 0.00907 310.1 41.8
368(10) 0.00985 310.2 44.3
364(10) 0.01016 310.2 47.2
372(10) 0.00935 310.2 50.3
367(10) 0.00911 310.3 53.9
351(10) 0.00983 310.3 57.9
406(11) 0.00884 310.3 62.4
404(10) 0.00922 310.4 67.7
389(11) 0.00880 310.4 73.7
410(11) 0.00805 310.4 80.7
417(11) 0.00823 310.5 89.0
418(11) 0.00870 310.5 98.6
440(11) 0.00853 310.5 110.0
427(11) 0.00808 310.6 123.3
474(12) 0.00684 310.6 139.0
474(12) 0.00750 310.6 157.3
484(11) 0.00759 310.7 178.4
516(12) 0.00721 310.7 202.6
514(12) 0.00702 310.7 230.0
569(13) 0.00588 310.8 260.5
610(13) 0.00588 310.8 293.8
640(13) 0.00583 310.9 329.0
702(14) 0.00531 310.9 364.7
766(15) 0.00457 310.9 398.7
779(16) 0.00411 311.0 428.4
796(15) 0.00439 311.0 450.7
781(15) 0.00473 311.0 463.2
819(15) 0.00455 311.1 465.0
743(15) 0.00470 311.1 456.2
719(15) 0.00445 311.1 438.5
692(14) 0.00497 311.2 414.2
683(14) 0.00546 311.2 385.7
677(14) 0.00544 311.2 355.0
625(13) 0.00563 311.3 324.2
595(13) 0.00555 311.3 294.6
559(13) 0.00622 311.3 267.2
554(12) 0.00673 311.4 242.6
549(12) 0.00652 311.4 221.2
550(12) 0.00645 311.4 203.0
537(13) 0.00617 311.5 187.9
517(12) 0.00643 311.5 175.9
495(12) 0.00751 311.6 166.8
489(12) 0.00718 311.6 160.4
484(12) 0.00700 311.6 156.6
515(13) 0.00619 311.7 155.0
523(12) 0.00680 311.7 155.7
529(12) 0.00701 311.7 158.4
473(12) 0.00742 311.8 163.0
460(12) 0.00740 311.8 169.2
520(12) 0.00645 311.8 176.7
482(12) 0.00747 311.9 185.1
497(12) 0.00747 311.9 193.9
490(12) 0.00729 311.9 202.3
530(13) 0.00630 312.0 209.5
509(12) 0.00679 312.0 215.1
511(12) 0.00700 312.0 218.6
534(12) 0.00697 312.1 220.0
514(12) 0.00679 312.1 219.5
494(12) 0.00679 312.1 217.7
515(12) 0.00664 312.2 214.9
504(12) 0.00728 312.2 211.3
518(12) 0.00714 312.3 206.8
524(12) 0.00646 312.3 201.2
511(12) 0.00641 312.3 194.1
474(12) 0.00752 312.4 185.5
512(12) 0.00701 312.4 175.3
486(11) 0.00764 312.4 164.0
529(12) 0.00661 312.5 151.9
478(12) 0.00689 312.5 139.5
442(11) 0.00765 312.5 127.4
450(11) 0.00819 312.6 115.8
430(11) 0.00860 312.6 105.1
428(11) 0.00816 312.6 95.2
441(12) 0.00695 312.7 86.3
381(10) 0.00927 312.7 78.3
373(10) 0.00986 312.7 71.2
386(10) 0.00959 312.8 65.0
366(10) 0.00933 312.8 59.4
369(11) 0.00896 312.8 54.6
364(10) 0.00954 312.9 50.3
359(10) 0.01050 312.9 46.5
349(10) 0.01048 313.0 43.2
352(10) 0.01012 313.0 40.2
343(10) 0.00970 313.0 37.7
326(10) 0.01041 313.1 35.3
361(10) 0.01036 313.1 33.3
360(10) 0.01006 313.1 31.4
347(10) 0.00986 313.2 29.8
331(10) 0.01024 313.2 28.3
334(10) 0.01028 313.2 26.9
321(9) 0.01157 313.3 25.7
356(10) 0.00990 313.3 24.5
368(10) 0.00929 313.3 23.5
362(10) 0.00914 313.4 22.5
318(10) 0.01077 313.4 21.6
332(9) 0.01125 313.4 20.8
336(10) 0.01088 313.5 20.1
327(10) 0.01063 313.5 19.3
316(10) 0.01106 313.5 18.7
323(9) 0.01127 313.6 18.1
316(9) 0.01162 313.6 17.5
315(9) 0.01113 313.7 16.9
321(10) 0.01052 313.7 16.4
317(10) 0.01083 313.7 16.0
315(9) 0.01108 313.8 15.5
322(9) 0.01148 313.8 15.1
312(10) 0.01082 313.8 14.7
309(10) 0.01081 313.9 14.4
306(9) 0.01119 313.9 14.0
322(9) 0.01109 313.9 13.7
332(9) 0.01123 314.0 13.4
317(10) 0.01067 314.0 13.1
326(10) 0.01021 314.0 12.9
315(9) 0.01144 314.1 12.6
344(10) 0.01062 314.1 12.4
300(9) 0.01209 314.1 12.2
325(10) 0.01066 314.2 12.0
336(10) 0.00990 314.2 11.8
332(10) 0.01038 314.2 11.7
319(9) 0.01133 314.3 11.5
320(9) 0.01149 314.3 11.4
298(9) 0.01176 314.3 11.3
319(10) 0.01025 314.4 11.2
315(9) 0.01122 314.4 11.1
312(9) 0.01157 314.5 11.1
328(9) 0.01137 314.5 11.0
322(10) 0.01064 314.5 11.0
329(10) 0.00958 314.6 11.0
340(10) 0.01003 314.6 11.0
333(9) 0.01113 314.6 11.1
346(10) 0.01075 314.7 11.1
339(10) 0.00985 314.7 11.2
327(10) 0.00989 314.7 11.4
329(10) 0.01037 314.8 11.5
309(9) 0.01201 314.8 11.7
309(9) 0.01197 314.8 12.0
316(10) 0.01073 314.9 12.3
316(10) 0.01008 314.9 12.6
338(10) 0.00973 314.9 13.1
331(9) 0.01118 315.0 13.6
325(9) 0.01128 315.0 14.3
310(10) 0.01096 315.0 15.1
332(10) 0.00986 315.1 16.2
335(10) 0.01034 315.1 17.6
353(10) 0.01064 315.2 19.3
372(10) 0.00982 315.2 21.6
364(10) 0.00945 315.2 24.6
343(10) 0.00988 315.3 28.4
351(10) 0.00979 315.3 33.2
366(10) 0.01018 315.3 39.1
377(10) 0.00930 315.4 46.2
383(11) 0.00852 315.4 54.6
382(11) 0.00899 315.4 64.1
390(10) 0.00908 315.5 74.4
393(10) 0.00958 315.5 85.0
411(11) 0.00855 315.5 94.7
418(11) 0.00788 315.6 102.3
387(11) 0.00870 315.6 106.4
413(11) 0.00876 315.6 106.0
432(11) 0.00856 315.7 101.2
424(11) 0.00816 315.7 93.0
368(10) 0.00924 315.7 83.0
400(11) 0.00849 315.8 72.3
408(11) 0.00900 315.8 62.0
365(10) 0.01018 315.9 52.5
358(10) 0.00991 315.9 44.3
371(11) 0.00871 315.9 37.2
345(10) 0.01026 316.0 31.4
331(10) 0.01106 316.0 26.7
311(9) 0.01202 316.0 22.9
305(10) 0.01095 316.1 19.9
333(10) 0.00972 316.1 17.6
342(10) 0.01010 316.1 15.8
366(10) 0.01006 316.2 14.4
353(10) 0.01022 316.2 13.2
332(10) 0.01052 316.2 12.3
325(10) 0.00985 316.3 11.5
333(10) 0.01052 316.3 10.9
290(9) 0.01285 316.3 10.3
313(9) 0.01197 316.4 9.8
317(9) 0.01119 316.4 9.4
320(10) 0.01038 316.4 9.0
332(10) 0.01070 316.5 8.7
307(9) 0.01223 316.5 8.4
318(9) 0.01139 316.6 8.1
322(10) 0.01020 316.6 7.9
338(10) 0.00992 316.6 7.7
343(10) 0.00992 316.7 7.5
304(9) 0.01221 316.7 7.3
312(9) 0.01158 316.7 7.1
347(10) 0.00994 316.8 7.0
297(9) 0.01183 316.8 6.9
329(10) 0.01031 316.8 6.7
347(10) 0.01075 316.9 6.6
315(9) 0.01122 316.9 6.5
313(10) 0.01092 316.9 6.4
322(10) 0.01041 317.0 6.3
332(10) 0.01041 317.0 6.2
340(10) 0.01088 317.0 6.2
316(9) 0.01129 317.1 6.1
301(9) 0.01117 317.1 6.0
321(10) 0.01058 317.1 6.0
301(9) 0.01182 317.2 5.9
314(9) 0.01173 317.2 5.9
319(10) 0.01095 317.3 5.8
334(10) 0.00999 317.3 5.8
317(9) 0.01110 317.3 5.8
323(9) 0.01110 317.4 5.7
303(9) 0.01233 317.4 5.7
300(9) 0.01131 317.4 5.7
323(10) 0.01010 317.5 5.6
312(10) 0.01103 317.5 5.6
335(10) 0.01068 317.5 5.6
325(9) 0.01146 317.6 5.6
295(9) 0.01156 317.6 5.6
320(10) 0.01013 317.6 5.6
315(9) 0.01127 317.7 5.6
318(9) 0.01146 317.7 5.5
328(9) 0.01147 317.7 5.5
314(9) 0.01127 317.8 5.5
287(9) 0.01157 317.8 5.5
329(10) 0.01045 317.8 5.6
331(9) 0.01123 317.9 5.6
345(10) 0.01069 317.9 5.6
313(9) 0.01146 318.0 5.6
335(10) 0.00958 318.0 5.6
323(10) 0.01091 318.0 5.6
305(9) 0.01234 318.1 5.6
305(9) 0.01180 318.1 5.6
300(9) 0.01168 318.1 5.7
298(9) 0.01152 318.2 5.7
335(10) 0.01042 318.2 5.7
344(10) 0.01091 318.2 5.7
315(9) 0.01143 318.3 5.8
316(10) 0.01093 318.3 5.8
317(10) 0.01050 318.3 5.8
318(10) 0.01059 318.4 5.9
304(9) 0.01195 318.5 5.9
324(9) 0.01132 318.5 5.9
321(10) 0.01074 318.6 6.0
316(10) 0.01010 318.6 6.0
302(9) 0.01154 318.7 6.1
328(9) 0.01135 318.7 6.1
310(9) 0.01144 318.8 6.2
317(10) 0.01075 318.8 6.2
351(10) 0.00939 318.9 6.3
319(9) 0.01127 318.9 6.4
323(9) 0.01151 319.0 6.4
302(9) 0.01172 319.0 6.5
314(9) 0.01132 319.1 6.6
323(10) 0.01082 319.2 6.6
314(9) 0.01163 319.2 6.7
354(10) 0.01058 319.3 6.8
350(10) 0.00967 319.3 6.9
337(10) 0.01003 319.4 7.0
313(10) 0.01094 319.4 7.1
311(9) 0.01193 319.5 7.2
342(10) 0.01075 319.5 7.3
328(10) 0.01048 319.6 7.4
324(10) 0.01077 319.6 7.5
312(9) 0.01139 319.7 7.6
330(10) 0.01076 319.7 7.7
321(9) 0.01164 319.8 7.9
340(10) 0.01031 319.9 8.0
332(10) 0.01005 319.9 8.1
305(9) 0.01148 320.0 8.3
307(9) 0.01182 320.0 8.4
323(9) 0.01155 320.1 8.6
298(9) 0.01203 320.1 8.7
355(11) 0.00883 320.2 8.9
312(9) 0.01137 320.2 9.1
313(9) 0.01182 320.3 9.2
338(9) 0.01111 320.3 9.4
335(10) 0.01069 320.4 9.6
331(10) 0.00985 320.4 9.8
346(10) 0.00989 320.5 10.0
342(10) 0.01087 320.6 10.2
317(9) 0.01152 320.6 10.4
283(9) 0.01243 320.7 10.6
329(10) 0.00971 320.7 10.8
335(10) 0.01034 320.8 11.0
344(10) 0.01076 320.8 11.2
334(10) 0.01095 320.9 11.5
318(9) 0.01118 320.9 11.7
331(10) 0.00974 321.0 11.9
318(10) 0.01064 321.0 12.1
323(9) 0.01159 321.1 12.4
329(10) 0.01092 321.1 12.6
318(10) 0.01091 321.2 12.8
327(10) 0.01012 321.3 13.1
319(10) 0.01081 321.3 13.3
311(9) 0.01206 321.4 13.6
350(10) 0.01032 321.4 13.8
345(10) 0.01012 321.5 14.1
352(10) 0.00956 321.5 14.4
330(10) 0.01036 321.6 14.6
318(9) 0.01162 321.6 14.9
324(10) 0.01094 321.7 15.3
323(10) 0.01092 321.7 15.6
347(10) 0.01002 321.8 15.9
333(10) 0.01064 321.9 16.3
313(9) 0.01190 321.9 16.7
336(10) 0.01057 322.0 17.1
338(10) 0.01040 322.0 17.6
328(10) 0.01023 322.1 18.1
327(10) 0.01078 322.1 18.6
353(10) 0.01060 322.2 19.1
353(10) 0.00978 322.2 19.7
348(10) 0.01009 322.3 20.4
353(10) 0.00992 322.3 21.0
343(10) 0.01061 322.4 21.7
370(10) 0.00994 322.4 22.5
340(10) 0.00995 322.5 23.2
368(11) 0.00898 322.6 24.0
357(10) 0.00956 322.6 24.9
354(10) 0.01021 322.7 25.7
339(10) 0.01104 322.7 26.5
333(10) 0.01009 322.8 27.4
337(10) 0.00947 322.8 28.2
328(10) 0.01065 322.9 29.1
368(10) 0.00987 322.9 30.0
364(10) 0.01023 323.0 30.9
366(10) 0.00918 323.0 31.8
351(10) 0.00908 323.1 32.8
374(10) 0.00931 323.1 33.9
352(10) 0.01036 323.2 35.1
389(10) 0.00957 323.3 36.4
385(10) 0.00909 323.3 38.1
360(10) 0.00912 323.4 40.1
358(10) 0.00984 323.4 42.7
367(10) 0.01008 323.5 46.2
358(10) 0.01037 323.5 51.3
390(11) 0.00887 323.6 58.8
410(11) 0.00789 323.6 70.3
416(11) 0.00836 323.7 87.5
451(11) 0.00822 323.7 112.4
469(11) 0.00780 323.8 146.7
486(12) 0.00749 323.8 191.3
551(13) 0.00600 323.9 245.0
603(13) 0.00572 324.0 304.8
653(13) 0.00570 324.0 363.9
711(14) 0.00509 324.1 413.0
763(15) 0.00459 324.1 441.1
870(16) 0.00386 324.2 440.5
797(15) 0.00449 324.2 412.0
730(14) 0.00508 324.3 364.5
679(14) 0.00523 324.3 309.1
614(13) 0.00569 324.4 254.5
547(13) 0.00624 324.4 206.7
516(12) 0.00687 324.5 168.4
510(12) 0.00727 324.5 140.4
471(12) 0.00751 324.6 121.4
508(12) 0.00663 324.7 109.6
474(12) 0.00732 324.7 103.1
461(11) 0.00764 324.8 99.9
470(11) 0.00793 324.8 98.8
470(12) 0.00747 324.9 98.8
451(12) 0.00747 324.9 99.2
442(11) 0.00770 325.0 99.7
425(11) 0.00857 325.0 100.1
433(11) 0.00853 325.1 100.2
458(12) 0.00729 325.1 100.1
436(12) 0.00743 325.2 99.7
426(11) 0.00809 325.2 99.0
439(11) 0.00833 325.3 98.1
450(11) 0.00831 325.4 96.9
435(11) 0.00801 325.4 95.7
445(12) 0.00752 325.5 94.4
409(11) 0.00858 325.5 93.0
415(11) 0.00864 325.6 91.7
423(11) 0.00893 325.6 90.3
412(11) 0.00833 325.7 89.0
386(11) 0.00851 325.7 87.8
387(11) 0.00899 325.8 86.6
410(11) 0.00904 325.8 85.6
405(10) 0.00929 325.9 84.6
382(11) 0.00907 325.9 83.7
384(11) 0.00874 326.0 82.9
395(11) 0.00880 326.1 82.1
391(10) 0.00955 326.1 81.5
393(10) 0.00927 326.2 80.9
403(11) 0.00863 326.2 80.3
400(11) 0.00816 326.3 79.6
384(10) 0.00911 326.3 78.9
381(10) 0.00987 326.4 78.2
400(10) 0.00909 326.4 77.3
406(11) 0.00859 326.5 76.2
389(11) 0.00865 326.5 75.0
398(11) 0.00854 326.6 73.7
403(10) 0.00918 326.6 72.2
370(10) 0.00949 326.7 70.6
383(10) 0.00907 326.8 68.9
386(11) 0.00872 326.8 67.1
380(11) 0.00891 326.9 65.2
383(10) 0.00968 326.9 63.1
371(10) 0.00967 327.0 60.9
382(11) 0.00876 327.0 58.6
374(11) 0.00906 327.1 56.3
360(10) 0.00958 327.1 54.0
387(10) 0.00951 327.2 51.7
388(10) 0.00918 327.2 49.5
333(10) 0.01036 327.3 47.3
332(10) 0.01035 327.3 45.3
321(9) 0.01129 327.4 43.4
344(10) 0.01080 327.5 41.6
373(10) 0.00909 327.5 39.9
362(10) 0.00929 327.6 38.3
356(10) 0.00949 327.6 36.8
344(10) 0.01004 327.7 35.5
336(10) 0.01099 327.7 34.2
375(10) 0.00953 327.8 33.1
354(10) 0.00962 327.8 32.0
355(10) 0.00970 327.9 31.1
327(9) 0.01112 327.9 30.2
337(9) 0.01113 328.0 29.4
359(10) 0.00959 328.0 28.7
317(9) 0.01133 328.1 28.1
348(10) 0.00994 328.2 27.5
375(10) 0.00970 328.2 27.0
339(10) 0.01105 328.3 26.6
354(10) 0.00932 328.3 26.2
348(10) 0.00942 328.2 25.9
354(10) 0.00990 328.2 25.6
363(10) 0.01000 328.1 25.4
318(9) 0.01188 328.1 25.3
341(10) 0.00986 328.0 25.1
358(11) 0.00899 327.9 25.1
343(10) 0.01029 327.9 25.0
332(9) 0.01111 327.8 25.0
346(10) 0.01043 327.8 25.1
328(10) 0.01074 327.7 25.1
357(10) 0.00915 327.6 25.2
350(10) 0.01021 327.6 25.4
341(10) 0.01095 327.5 25.6
318(9) 0.01141 327.5 25.8
360(10) 0.00938 327.4 26.1
339(10) 0.00976 327.3 26.5
354(10) 0.00982 327.3 26.9
323(9) 0.01151 327.2 27.3
360(10) 0.00998 327.2 27.8
338(10) 0.01032 327.1 28.4
335(10) 0.01010 327.0 29.0
359(10) 0.00959 327.0 29.7
319(9) 0.01162 326.9 30.5
351(10) 0.01010 326.9 31.4
350(10) 0.00976 326.8 32.3
362(10) 0.00940 326.7 33.4
385(10) 0.00909 326.7 34.6
373(10) 0.00995 326.6 35.9
371(10) 0.00946 326.6 37.4
373(10) 0.00925 326.5 39.0
374(11) 0.00901 326.4 40.9
356(10) 0.00989 326.4 42.9
389(10) 0.00950 326.3 45.2
380(11) 0.00905 326.3 47.7
392(11) 0.00868 326.2 50.5
365(10) 0.00985 326.1 53.6
385(10) 0.00924 326.1 57.1
365(10) 0.01005 326.0 61.0
420(11) 0.00786 326.0 65.2
368(10) 0.00934 325.9 69.9
379(10) 0.00928 325.8 75.0
395(10) 0.00918 325.8 80.5
413(11) 0.00898 325.7 86.5
412(11) 0.00822 325.7 92.9
419(11) 0.00798 325.6 99.6
414(11) 0.00842 325.5 106.5
428(11) 0.00858 325.5 113.5
460(11) 0.00820 325.4 120.3
440(11) 0.00791 325.4 126.6
459(12) 0.00694 325.3 132.2
469(12) 0.00738 325.3 136.7
474(11) 0.00789 325.2 139.8
500(12) 0.00732 325.1 141.3
476(12) 0.00720 325.1 141.3
465(12) 0.00699 325.0 139.8
466(11) 0.00761 325.0 137.0
470(11) 0.00794 324.9 133.3
473(11) 0.00780 324.8 129.0
447(11) 0.00788 324.8 124.3
463(12) 0.00703 324.7 119.7
439(11) 0.00809 324.7 115.2
419(11) 0.00889 324.6 111.0
436(11) 0.00826 324.5 107.2
404(11) 0.00848 324.5 104.0
400(11) 0.00814 324.4 101.3
418(11) 0.00811 324.4 99.2
410(10) 0.00913 324.3 97.7
446(11) 0.00797 324.2 96.9
433(11) 0.00801 324.2 96.7
446(12) 0.00705 324.1 97.2
391(11) 0.00892 324.1 98.5
416(11) 0.00891 324.0 100.6
408(11) 0.00872 323.9 103.7
430(11) 0.00804 323.9 107.8
471(12) 0.00684 323.8 112.9
467(12) 0.00720 323.8 119.3
447(11) 0.00822 323.7 126.9
466(11) 0.00772 323.6 135.8
458(12) 0.00728 323.6 146.0
481(12) 0.00693 323.5 157.3
498(12) 0.00699 323.5 169.4
498(12) 0.00747 323.4 182.0
534(12) 0.00661 323.3 194.1
514(12) 0.00656 323.3 205.0
571(13) 0.00580 323.2 213.7
571(13) 0.00627 323.2 219.5
522(12) 0.00706 323.1 222.6
547(13) 0.00624 323.0 223.4
547(13) 0.00597 323.0 223.0
560(13) 0.00624 322.9 222.5
570(13) 0.00639 322.9 222.8
542(12) 0.00679 322.8 224.6
562(13) 0.00606 322.7 228.2
559(13) 0.00598 322.7 233.9
575(13) 0.00613 322.6 241.8
584(13) 0.00619 322.6 251.9
632(13) 0.00589 322.5 264.0
661(14) 0.00518 322.4 277.9
635(14) 0.00521 322.4 293.1
683(14) 0.00504 322.3 309.3
706(14) 0.00504 322.3 325.7
682(14) 0.00549 322.2 341.9
733(15) 0.00475 322.1 357.3
748(15) 0.00435 322.1 371.5
757(15) 0.00458 322.0 384.0
752(14) 0.00486 322.0 394.3
775(14) 0.00488 321.9 401.9
762(15) 0.00456 321.8 406.3
736(15) 0.00436 321.8 407.0
684(14) 0.00497 321.7 403.7
720(14) 0.00517 321.7 396.5
709(14) 0.00510 321.6 385.5
665(14) 0.00515 321.5 371.2
639(14) 0.00514 321.5 354.4
607(13) 0.00576 321.4 335.8
627(13) 0.00600 321.4 316.0
591(13) 0.00615 321.3 295.8
569(13) 0.00606 321.2 275.7
541(13) 0.00640 321.2 256.1
564(13) 0.00584 321.1 237.3
541(12) 0.00692 321.1 219.6
490(12) 0.00745 321.0 203.0
521(12) 0.00664 320.9 187.5
521(13) 0.00630 320.9 173.2
487(12) 0.00713 320.8 160.1
446(11) 0.00835 320.8 148.1
463(11) 0.00785 320.7 137.2
451(12) 0.00749 320.6 127.2
460(12) 0.00729 320.6 118.2
433(11) 0.00814 320.5 109.9
421(11) 0.00883 320.5 102.5
451(11) 0.00783 320.4 95.8
421(11) 0.00785 320.3 89.7
403(11) 0.00858 320.3 84.2
435(11) 0.00831 320.2 79.3
413(11) 0.00902 320.2 74.8
392(10) 0.00911 320.1 70.7
414(11) 0.00804 320.0 67.1
383(10) 0.00918 320.0 63.8
369(10) 0.00969 319.9 60.7
397(10) 0.00930 319.9 58.0
402(11) 0.00839 319.8 55.5
402(11) 0.00825 319.8 53.2
354(10) 0.00986 319.7 51.1
385(10) 0.00922 319.6 49.1
374(10) 0.01004 319.6 47.3
388(11) 0.00894 319.5 45.5
382(11) 0.00855 319.5 43.8
376(10) 0.00925 319.4 42.2
332(10) 0.01068 319.3 40.7
348(10) 0.01078 319.3 39.2
368(10) 0.00920 319.2 37.9
373(11) 0.00892 319.2 36.6
389(11) 0.00903 319.1 35.3
406(10) 0.00908 319.0 34.2
379(10) 0.00972 319.0 33.1
371(10) 0.00931 318.9 32.1
373(11) 0.00844 318.9 31.2
347(10) 0.01037 318.8 30.4
349(10) 0.01066 318.7 29.6
363(10) 0.01020 318.7 28.9
341(10) 0.00983 318.6 28.2
328(10) 0.00962 318.6 27.6
339(10) 0.01028 318.5 27.1
353(10) 0.01061 318.4 26.5
348(10) 0.01042 318.4 26.1
336(10) 0.01030 318.3 25.6
351(10) 0.00952 318.3 25.2
334(10) 0.01027 318.2 24.8
366(10) 0.01023 318.1 24.5
347(10) 0.01066 318.1 24.2
332(10) 0.01055 318.0 23.8
349(10) 0.00943 318.0 23.5
352(10) 0.00945 317.9 23.2
338(9) 0.01118 317.8 22.9
333(10) 0.01091 317.8 22.7
347(10) 0.00969 317.7 22.4
333(10) 0.01013 317.7 22.1
333(10) 0.01067 317.6 21.8
360(10) 0.01039 317.5 21.5
362(10) 0.00966 317.5 21.2
349(10) 0.00958 317.4 20.9
332(10) 0.01023 317.4 20.5
323(10) 0.01098 317.3 20.2
343(10) 0.01096 317.2 19.8
323(9) 0.01123 317.2 19.5
352(10) 0.00934 317.1 19.1
326(10) 0.01042 317.1 18.7
323(10) 0.01104 317.0 18.4
343(10) 0.01072 316.9 18.0
347(10) 0.00995 316.9 17.7
357(10) 0.00943 316.8 17.3
328(10) 0.01084 316.8 17.0
340(10) 0.01061 316.7 16.7
327(9) 0.01135 316.6 16.4
351(10) 0.01005 316.6 16.1
325(10) 0.01009 316.5 15.8
334(10) 0.01063 316.5 15.6
319(9) 0.01164 316.4 15.4
324(9) 0.01147 316.3 15.2
302(9) 0.01123 316.3 15.0
316(10) 0.00993 316.2 14.8
339(10) 0.01020 316.2 14.7
341(10) 0.01096 316.1 14.6
315(9) 0.01190 316.0 14.5
340(10) 0.01009 316.0 14.5
333(10) 0.01019 315.9 14.4
345(10) 0.01049 315.9 14.4
335(10) 0.01093 315.8 14.4
354(10) 0.01073 315.7 14.5
341(10) 0.01054 315.7 14.5
312(10) 0.01064 315.6 14.5
346(10) 0.00969 315.6 14.5
331(9) 0.01128 315.5 14.4
354(10) 0.01021 315.4 14.4
302(9) 0.01214 315.4 14.3
320(10) 0.01054 315.3 14.2
313(9) 0.01117 315.3 14.1
326(9) 0.01143 315.2 14.0
344(10) 0.01073 315.1 13.9
348(10) 0.00971 315.1 13.8
342(10) 0.00947 315.0 13.7
330(10) 0.01068 315.0 13.7
316(9) 0.01188 314.9 13.7
356(10) 0.01010 314.8 13.7
325(10) 0.01108 314.8 13.7
339(10) 0.01008 314.7 13.8
345(10) 0.01033 314.7 14.0
305(9) 0.01211 314.6 14.2
335(10) 0.01065 314.5 14.4
305(9) 0.01136 314.5 14.7
321(10) 0.01006 314.4 15.1
320(10) 0.01080 314.4 15.5
307(9) 0.01213 314.3 15.9
316(10) 0.01106 314.2 16.5
321(10) 0.01075 314.2 17.1
355(10) 0.00946 314.1 17.9
338(10) 0.01029 314.1 18.7
327(9) 0.01144 314.0 19.6
353(10) 0.00999 314.0 20.6
343(10) 0.00987 313.9 21.8
338(10) 0.01006 313.8 23.0
353(10) 0.01026 313.8 24.4
329(9) 0.01123 313.7 25.9
342(10) 0.00992 313.7 27.6
345(10) 0.00971 313.6 29.4
334(10) 0.01057 313.5 31.3
329(9) 0.01116 313.5 33.3
340(10) 0.01108 313.4 35.4
368(10) 0.00937 313.4 37.5
367(11) 0.00869 313.3 39.6
362(10) 0.00938 313.2 41.6
343(10) 0.01059 313.2 43.4
362(10) 0.01025 313.1 45.0
375(10) 0.00945 313.1 46.1
400(11) 0.00815 313.0 46.8
395(11) 0.00896 312.9 47.1
366(10) 0.01010 312.9 46.8
370(10) 0.01002 312.8 46.1
355(10) 0.00979 312.8 44.9
347(10) 0.00909 312.7 43.4
366(10) 0.00955 312.6 41.6
328(9) 0.01137 312.6 39.7
324(10) 0.01098 312.5 37.7
353(10) 0.00986 312.5 35.7
344(10) 0.00997 312.4 33.8
344(10) 0.01041 312.3 32.0
357(10) 0.01041 312.3 30.3
311(9) 0.01187 312.2 28.7
332(10) 0.01058 312.2 27.3
349(10) 0.00996 312.1 26.0
335(10) 0.01084 312.0 24.9
322(9) 0.01145 312.0 24.0
329(9) 0.01121 311.9 23.1
327(10) 0.01048 311.9 22.4
319(10) 0.01052 311.8 21.8
344(10) 0.01020 311.7 21.2
338(10) 0.01099 311.7 20.7
340(10) 0.01077 311.6 20.3
346(10) 0.00974 311.6 19.9
316(10) 0.01087 311.5 19.4
322(10) 0.01060 311.4 19.0
318(9) 0.01183 311.4 18.5
310(9) 0.01140 311.3 17.9
304(9) 0.01158 311.3 17.3
342(10) 0.01004 311.2 16.7
330(9) 0.01116 311.1 16.1
322(9) 0.01153 311.1 15.4
314(10) 0.01083 311.0 14.8
326(10) 0.01034 311.0 14.1
342(10) 0.00998 310.9 13.5
355(10) 0.00993 310.8 12.9
340(10) 0.01093 310.8 12.4
338(10) 0.01020 310.7 11.8
315(10) 0.01041 310.7 11.3
347(10) 0.00964 310.6 10.8
323(10) 0.01099 310.5 10.4
331(9) 0.01119 310.5 10.0
307(9) 0.01185 310.4 9.6
343(10) 0.00957 310.4 9.3
330(10) 0.01034 310.3 9.0
314(9) 0.01162 310.2 8.7
324(9) 0.01161 310.2 8.4
327(10) 0.01061 310.1 8.2
309(10) 0.01068 310.1 8.0
333(10) 0.01052 310.0 7.8
333(10) 0.01103 309.9 7.6
315(9) 0.01184 309.9 7.4
312(9) 0.01123 309.8 7.3
324(10) 0.00956 309.8 7.1
321(10) 0.01095 309.7 7.0
323(9) 0.01158 309.6 6.9
308(9) 0.01204 309.6 6.8
315(10) 0.01077 309.5 6.7
299(9) 0.01134 309.5 6.6
330(10) 0.01026 309.4 6.6
308(9) 0.01184 309.3 6.5
313(9) 0.01174 309.3 6.5
297(9) 0.01172 309.2 6.4
315(10) 0.01071 309.2 6.4
329(10) 0.01072 309.1 6.4
333(9) 0.01135 309.0 6.4
343(10) 0.01051 309.0 6.4
303(9) 0.01176 308.9 6.4
330(10) 0.01017 308.9 6.4
330(10) 0.01060 308.8 6.5
298(9) 0.01233 308.7 6.5
303(9) 0.01177 308.7 6.6
279(9) 0.01236 308.6 6.7
290(9) 0.01210 308.6 6.8
323(10) 0.01037 308.5 6.9
320(9) 0.01157 308.4 7.1
326(10) 0.01092 308.4 7.2
308(10) 0.01098 308.3 7.4
306(9) 0.01122 308.3 7.6
288(9) 0.01252 308.3 7.8
316(9) 0.01192 308.2 8.0
285(9) 0.01254 308.2 8.2
299(9) 0.01122 308.1 8.4
312(9) 0.01118 308.1 8.6
318(9) 0.01153 308.1 8.8
315(9) 0.01181 308.0 9.0
319(10) 0.01078 308.0 9.1
334(10) 0.00981 308.0 9.2
323(10) 0.01053 307.9 9.2
333(9) 0.01116 307.9 9.2
303(9) 0.01221 307.9 9.2
328(10) 0.01051 307.8 9.0
325(10) 0.01011 307.8 8.9
317(10) 0.01104 307.7 8.7
320(9) 0.01133 307.7 8.4
317(9) 0.01165 307.7 8.2
323(10) 0.01086 307.6 7.9
318(10) 0.01028 307.6 7.7
321(10) 0.01090 307.6 7.4
291(9) 0.01267 307.5 7.2
298(9) 0.01247 307.5 6.9
297(9) 0.01198 307.4 6.7
323(10) 0.00993 307.4 6.5
316(10) 0.01090 307.4 6.3
294(9) 0.01250 307.3 6.1
307(9) 0.01206 307.3 5.9
318(10) 0.01083 307.3 5.8
332(10) 0.00966 307.2 5.7
329(10) 0.01080 307.2 5.5
326(9) 0.01127 307.2 5.4
328(9) 0.01128 307.1 5.3
309(10) 0.01090 307.1 5.2
310(10) 0.01056 307.0 5.1
307(9) 0.01134 307.0 5.1
339(10) 0.01094 307.0 5.0
300(9) 0.01165 306.9 4.9
305(10) 0.01084 306.9 4.9
309(10) 0.01072 306.9 4.8
325(10) 0.01060 306.8 4.8
292(9) 0.01268 306.8 4.8
312(9) 0.01168 306.8 4.7
324(10) 0.01011 306.7 4.7
296(9) 0.01139 306.7 4.7
281(9) 0.01228 306.6 4.7
334(9) 0.01113 306.6 4.6
323(10) 0.01081 306.6 4.6
310(9) 0.01113 306.5 4.6
324(10) 0.01025 306.5 4.6
308(9) 0.01142 306.5 4.6
338(10) 0.01107 306.4 4.6
316(9) 0.01118 306.4 4.6
315(10) 0.01094 306.4 4.6
332(10) 0.01020 306.3 4.6
315(9) 0.01132 306.3 4.6
303(9) 0.01227 306.2 4.6
315(10) 0.01099 306.2 4.6
350(10) 0.00956 306.2 4.6
332(10) 0.01076 306.1 4.6
320(10) 0.01089 306.1 4.6
313(9) 0.01214 306.1 4.7
336(10) 0.01022 306.0 4.7
329(10) 0.00960 306.0 4.7
293(9) 0.01189 305.9 4.7
298(9) 0.01202 305.9 4.7
294(9) 0.01269 305.9 4.8
328(10) 0.01050 305.8 4.8
323(10) 0.01014 305.8 4.8
320(10) 0.01070 305.8 4.9
322(9) 0.01141 305.7 4.9
318(9) 0.01186 305.7 4.9
308(9) 0.01117 305.7 5.0
308(10) 0.01042 305.6 5.0
306(9) 0.01144 305.6 5.0
308(9) 0.01187 305.5 5.1
314(9) 0.01165 305.5 5.1
320(10) 0.01088 305.5 5.2
285(9) 0.01155 305.4 5.2
294(9) 0.01160 305.4 5.3
303(9) 0.01233 305.4 5.3
332(9) 0.01109 305.3 5.4
323(10) 0.01065 305.3 5.5
316(10) 0.00999 305.3 5.5
312(10) 0.01071 305.2 5.6
320(9) 0.01168 305.2 5.7
318(9) 0.01167 305.1 5.7
322(10) 0.01034 305.1 5.8
302(9) 0.01119 305.1 5.9
347(10) 0.01005 305.0 6.0
312(9) 0.01180 305.0 6.1
314(9) 0.01152 305.0 6.2
307(9) 0.01131 304.9 6.3
326(10) 0.01000 304.9 6.4
298(9) 0.01162 304.9 6.5
301(9) 0.01242 304.8 6.6
327(10) 0.01080 304.8 6.7
348(10) 0.01000 304.7 6.8
323(9) 0.01117 304.7 6.9
318(9) 0.01126 304.7 7.1
353(10) 0.01046 304.6 7.2
352(10) 0.00991 304.6 7.4
316(10) 0.01063 304.6 7.5
325(10) 0.01068 304.5 7.7
342(10) 0.01046 304.5 7.9
334(9) 0.01112 304.4 8.1
350(10) 0.00982 304.4 8.2
326(10) 0.01032 304.4 8.5
307(9) 0.01165 304.3 8.7
324(10) 0.01090 304.3 8.9
334(9) 0.01127 304.3 9.1
337(10) 0.00996 304.2 9.4
341(10) 0.00944 304.2 9.7
312(9) 0.01138 304.2 10.0
312(9) 0.01172 304.1 10.3
335(10) 0.01106 304.1 10.6
336(10) 0.01016 304.0 10.9
318(10) 0.01051 304.0 11.3
325(10) 0.01025 304.0 11.7
304(9) 0.01179 303.9 12.1
328(9) 0.01117 303.9 12.5
330(10) 0.01033 303.9 13.0
334(10) 0.00928 303.8 13.5
322(10) 0.01052 303.8 14.1
333(10) 0.01096 303.8 14.6
311(9) 0.01198 303.7 15.2
324(10) 0.01088 303.7 15.9
352(11) 0.00905 303.6 16.6
328(10) 0.01040 303.6 17.3
330(9) 0.01119 303.6 18.1
318(9) 0.01179 303.5 19.0
316(9) 0.01111 303.5 19.9
320(10) 0.01011 303.5 20.9
306(9) 0.01157 303.4 21.9
364(10) 0.01020 303.4 23.0
330(10) 0.01107 303.4 24.1
342(10) 0.01001 303.3 25.4
314(10) 0.01064 303.3 26.7
354(10) 0.00953 303.2 28.0
355(10) 0.01040 303.2 29.5
347(10) 0.01035 303.2 31.0
344(10) 0.01004 303.1 32.5
349(10) 0.00975 303.1 34.1
333(10) 0.01020 303.1 35.8
368(10) 0.01004 303.0 37.5
350(10) 0.01005 303.0 39.2
352(10) 0.00978 302.9 41.0
358(10) 0.00944 302.9 42.8
341(10) 0.01029 302.9 44.5
350(10) 0.01068 302.8 46.3
359(10) 0.00981 302.8 48.0
352(10) 0.00958 302.8 49.8
350(10) 0.01031 302.7 51.5
378(10) 0.00975 302.7 53.3
384(10) 0.00968 302.7 55.1
365(10) 0.00978 302.6 56.9
369(10) 0.00930 302.6 58.8
365(10) 0.00973 302.5 60.8
384(10) 0.00950 302.5 62.8
367(10) 0.00998 302.5 64.8
373(11) 0.00901 302.4 66.8
379(11) 0.00877 302.4 68.6
376(10) 0.00907 302.4 70.3
351(10) 0.01046 302.3 71.5
357(10) 0.01049 302.3 72.2
355(10) 0.01004 302.3 72.2
387(11) 0.00835 302.2 71.5
371(10) 0.00924 302.2 70.1
378(10) 0.00981 302.1 68.0
388(10) 0.00953 302.1 65.3
373(10) 0.00934 302.1 62.3
355(11) 0.00890 302.0 59.0
341(10) 0.01002 302.0 55.6
339(10) 0.01094 302.0 52.3
350(10) 0.01053 301.9 49.1
357(10) 0.00952 301.9 46.0
324(10) 0.01020 301.9 43.2
351(10) 0.00969 301.8 40.7
323(9) 0.01166 301.8 38.3
341(10) 0.01072 301.7 36.2
354(10) 0.00987 301.7 34.4
335(10) 0.00962 301.7 32.8
343(10) 0.00986 301.6 31.4
328(9) 0.01135 301.6 30.1
325(9) 0.01140 301.6 29.1
342(10) 0.01051 301.5 28.3
328(10) 0.01044 301.5 27.6
338(10) 0.01043 301.5 27.0
340(10) 0.01101 301.4 26.6
317(9) 0.01138 301.4 26.3
333(10) 0.00996 301.3 26.1
325(10) 0.01016 301.3 26.1
332(10) 0.01042 301.3 26.2
337(10) 0.01094 301.2 26.3
342(10) 0.01074 301.2 26.7
362(10) 0.00937 301.2 27.1
328(10) 0.01018 301.1 27.7
334(10) 0.01013 301.1 28.4
317(9) 0.01167 301.0 29.3
320(9) 0.01122 301.0 30.4
352(10) 0.00945 301.0 31.8
360(10) 0.00947 300.9 33.4
347(10) 0.01013 300.9 35.3
332(9) 0.01117 300.9 37.5
359(10) 0.00967 300.8 40.0
352(10) 0.00967 300.8 42.9
362(10) 0.00972 300.8 46.1
380(10) 0.00938 300.7 49.6
356(10) 0.01046 300.7 53.2
366(10) 0.00927 300.6 57.0
391(11) 0.00846 300.6 60.6
404(11) 0.00879 300.6 63.8
394(10) 0.00923 300.5 66.2
403(10) 0.00924 300.5 67.7
389(10) 0.00912 300.5 68.0
369(11) 0.00894 300.4 67.2
363(10) 0.00940 300.4 65.6
385(10) 0.00948 300.4 63.3
358(10) 0.01032 300.3 60.7
338(10) 0.01023 300.3 58.0
362(11) 0.00902 300.2 55.5
375(10) 0.00912 300.2 53.1
354(10) 0.01031 300.2 50.9
361(10) 0.01033 300.1 48.9
341(10) 0.01018 300.1 47.2
345(10) 0.00924 300.1 45.7
341(10) 0.01008 300.0 44.5
352(10) 0.01053 300.0 43.4
362(10) 0.01030 300.0 42.4
340(10) 0.01016 299.9 41.6
346(10) 0.00917 299.9 40.9
344(10) 0.01004 299.8 40.3
350(10) 0.01071 299.8 39.7
356(10) 0.01033 299.8 39.3
337(10) 0.01076 299.7 38.9
344(10) 0.00971 299.7 38.5
346(10) 0.01009 299.7 38.2
335(10) 0.01099 299.6 38.0
361(10) 0.01004 299.6 37.9
341(10) 0.01040 299.5 37.9
344(10) 0.00977 299.5 37.9
366(11) 0.00902 299.5 38.0
356(10) 0.01059 299.4 38.2
342(10) 0.01049 299.4 38.5
337(10) 0.01013 299.4 38.9
354(10) 0.00951 299.3 39.4
355(10) 0.00982 299.3 40.0
359(10) 0.01048 299.3 40.7
341(10) 0.01047 299.2 41.5
356(10) 0.00991 299.2 42.3
339(10) 0.01050 299.1 43.2
344(10) 0.01047 299.1 44.2
358(10) 0.01048 299.1 45.2
384(10) 0.00908 299.0 46.3
357(10) 0.00982 299.0 47.2
366(10) 0.00950 299.0 48.1
369(10) 0.00985 298.9 48.9
392(10) 0.00949 298.9 49.5
368(10) 0.00945 298.9 49.9
379(11) 0.00851 298.8 49.9
350(10) 0.00999 298.8 49.7
369(10) 0.00967 298.7 49.1
369(10) 0.01016 298.7 48.3
344(10) 0.00977 298.7 47.3
353(10) 0.00923 298.6 46.1
340(10) 0.01052 298.6 44.8
348(10) 0.01032 298.6 43.4
342(10) 0.01093 298.5 41.9
334(10) 0.01073 298.5 40.5
351(10) 0.00942 298.5 39.0
355(10) 0.00992 298.4 37.6
340(10) 0.01103 298.4 36.2
342(10) 0.01084 298.3 34.9
338(10) 0.01040 298.3 33.7
335(10) 0.00965 298.3 32.5
333(10) 0.01028 298.2 31.4
304(9) 0.01228 298.2 30.4
344(10) 0.01076 298.2 29.5
355(10) 0.00966 298.1 28.6
320(10) 0.01039 298.1 27.8
344(10) 0.00986 298.0 27.1
323(9) 0.01145 298.0 26.4
328(9) 0.01117 298.0 25.9
334(10) 0.01038 297.9 25.3
348(10) 0.00949 297.9 24.9
332(10) 0.01059 297.9 24.5
327(9) 0.01129 297.8 24.2
330(10) 0.01084 297.8 23.9
351(10) 0.00959 297.8 23.7
326(10) 0.01042 297.7 23.5
312(9) 0.01128 297.7 23.4
321(9) 0.01159 297.6 23.3
338(10) 0.01045 297.6 23.2
338(10) 0.01021 297.6 23.1
344(10) 0.00971 297.5 23.1
334(10) 0.01071 297.5 23.1
294(9) 0.01273 297.5 23.0
314(10) 0.01080 297.4 22.9
303(9) 0.01119 297.4 22.9
336(10) 0.01020 297.4 22.8
329(10) 0.01074 297.3 22.6
299(9) 0.01252 297.3 22.5
337(10) 0.00992 297.2 22.3
343(10) 0.00940 297.2 22.1
316(10) 0.01096 297.2 21.9
346(10) 0.01046 297.1 21.7
312(9) 0.01182 297.1 21.6
328(10) 0.01092 297.1 21.4
331(10) 0.01036 297.0 21.2
306(9) 0.01155 297.0 21.1
345(10) 0.01010 297.0 21.0
328(9) 0.01137 296.9 21.0
322(10) 0.01079 296.9 20.9
333(10) 0.01006 296.8 21.0
348(10) 0.00995 296.8 21.1
344(10) 0.01056 296.8 21.2
336(9) 0.01113 296.7 21.4
319(10) 0.01067 296.7 21.7
326(10) 0.00986 296.7 22.0
325(10) 0.01098 296.6 22.4
309(9) 0.01205 296.6 22.9
326(9) 0.01126 296.5 23.4
330(10) 0.01016 296.5 24.0
326(10) 0.01004 296.5 24.7
343(10) 0.00988 296.4 25.5
370(10) 0.01010 296.4 26.3
346(10) 0.01063 296.4 27.2
331(10) 0.01070 296.3 28.3
356(11) 0.00902 296.3 29.4
345(10) 0.01013 296.3 30.6
327(9) 0.01145 296.2 31.9
354(10) 0.01037 296.2 33.3
310(9) 0.01141 296.1 34.8
354(10) 0.00935 296.1 36.4
368(10) 0.00945 296.1 38.0
346(10) 0.01071 296.0 39.5
365(10) 0.01011 296.0 41.0
341(10) 0.01017 296.0 42.3
368(11) 0.00890 295.9 43.3
350(10) 0.00992 295.9 43.9
368(10) 0.00999 295.9 44.0
376(10) 0.00959 295.8 43.6
354(10) 0.00990 295.8 42.7
354(10) 0.00928 295.7 41.4
326(10) 0.01091 295.7 39.9
357(10) 0.01039 295.7 38.2
329(10) 0.01104 295.6 36.4
337(10) 0.01008 295.6 34.7
321(10) 0.01089 295.6 33.1
358(10) 0.00995 295.5 31.6
354(10) 0.01060 295.5 30.3
334(10) 0.01044 295.5 29.2
307(9) 0.01125 295.4 28.3
357(10) 0.00924 295.4 27.5
345(10) 0.01036 295.3 27.0
334(10) 0.01108 295.3 26.7
322(10) 0.01103 295.3 26.6
317(10) 0.01058 295.2 26.7
339(10) 0.00998 295.2 27.0
350(10) 0.01028 295.2 27.6
322(9) 0.01152 295.1 28.4
317(10) 0.01096 295.1 29.4
361(11) 0.00901 295.0 30.8
330(10) 0.01078 295.0 32.5
324(9) 0.01140 295.0 34.5
330(9) 0.01127 294.9 36.9
346(10) 0.01005 294.9 39.8
359(10) 0.00921 294.9 43.2
353(10) 0.00989 294.8 47.1
361(10) 0.01013 294.8 51.6
387(10) 0.00970 294.8 56.7
370(10) 0.00949 294.7 62.4
373(11) 0.00874 294.7 68.9
390(11) 0.00894 294.6 75.9
390(10) 0.00949 294.6 83.5
427(11) 0.00873 294.6 91.6
436(11) 0.00779 294.5 99.8
413(11) 0.00807 294.5 108.1
470(12) 0.00754 294.5 115.8
456(11) 0.00810 294.4 122.5
450(11) 0.00829 294.4 127.6
475(12) 0.00711 294.4 130.7
477(12) 0.00665 294.3 131.4
426(11) 0.00849 294.3 129.8
433(11) 0.00853 294.2 126.0
437(11) 0.00836 294.2 120.5
403(11) 0.00848 294.2 113.9
430(11) 0.00761 294.1 106.7
423(11) 0.00830 294.1 99.4
392(10) 0.00957 294.1 92.4
426(11) 0.00829 294.0 85.7
376(10) 0.00931 294.0 79.8
402(11) 0.00814 294.0 74.5
393(11) 0.00866 293.9 70.0
392(10) 0.00948 293.9 66.3
407(11) 0.00889 293.8 63.2
407(11) 0.00845 293.8 60.9
392(11) 0.00875 293.8 59.2
397(11) 0.00871 293.7 58.1
371(10) 0.00991 293.7 57.6
374(10) 0.00945 293.7 57.5
373(10) 0.00909 293.6 57.8
368(10) 0.00956 293.6 58.4
399(11) 0.00867 293.6 59.4
355(10) 0.01042 293.5 60.6
359(10) 0.00992 293.5 61.9
371(10) 0.00929 293.4 63.4
396(11) 0.00852 293.4 64.9
404(11) 0.00879 293.4 66.1
358(10) 0.01033 293.3 67.1
411(11) 0.00815 293.3 67.7
408(11) 0.00835 293.3 67.6
405(11) 0.00838 293.2 66.9
409(11) 0.00891 293.2 65.6
357(10) 0.01038 293.1 63.6
373(10) 0.00927 293.1 61.1
380(11) 0.00855 293.1 58.2
365(10) 0.00939 293.0 55.0
356(10) 0.01023 293.0 51.7
344(10) 0.01058 293.0 48.4
349(10) 0.01016 292.9 45.1
335(10) 0.00996 292.9 42.0
350(10) 0.00966 292.9 39.0
362(10) 0.01041 292.8 36.3
335(10) 0.01095 292.8 33.8
342(10) 0.01008 292.7 31.4
345(10) 0.00910 292.7 29.3
309(9) 0.01134 292.7 27.3
344(10) 0.01086 292.6 25.6
318(9) 0.01163 292.6 24.0
305(9) 0.01137 292.6 22.5
290(9) 0.01122 292.5 21.2
311(10) 0.01103 292.5 20.0
303(9) 0.01222 292.5 18.9
342(10) 0.01036 292.4 17.9
325(10) 0.01072 292.4 17.1
296(9) 0.01139 292.3 16.3
306(9) 0.01126 292.3 15.5
308(9) 0.01188 292.3 14.9
293(9) 0.01238 292.2 14.3
305(9) 0.01132 292.2 13.7
291(9) 0.01163 292.2 13.2
298(9) 0.01178 292.1 12.8
288(9) 0.01292 292.1 12.3
320(9) 0.01123 292.1 12.0
293(9) 0.01173 292.0 11.6
295(9) 0.01133 292.0 11.3
316(9) 0.01114 291.9 11.0
276(9) 0.01334 291.9 10.7
306(9) 0.01158 291.9 10.5
337(10) 0.00976 291.8 10.3
301(9) 0.01114 291.8 10.1
304(9) 0.01163 291.8 9.9
312(9) 0.01197 291.7 9.7
311(9) 0.01112 291.7 9.6
306(9) 0.01110 291.6 9.5
319(10) 0.01090 291.6 9.4
312(9) 0.01125 291.6 9.3
310(9) 0.01180 291.5 9.2
294(9) 0.01140 291.5 9.1
289(9) 0.01148 291.5 9.1
307(10) 0.01107 291.4 9.1
309(9) 0.01164 291.4 9.1
317(9) 0.01167 291.4 9.1
288(9) 0.01180 291.3 9.1
310(10) 0.01089 291.3 9.1
313(9) 0.01122 291.2 9.2
313(9) 0.01152 291.2 9.3
305(9) 0.01229 291.2 9.4
289(9) 0.01190 291.1 9.5
311(10) 0.01069 291.1 9.6
318(10) 0.01090 291.1 9.8
315(9) 0.01144 291.0 10.0
279(9) 0.01344 291.0 10.2
319(10) 0.01062 291.0 10.4
314(10) 0.01006 290.9 10.6
308(9) 0.01133 290.9 10.9
313(9) 0.01168 290.8 11.2
308(9) 0.01163 290.8 11.6
290(9) 0.01182 290.8 11.9
295(10) 0.01059 290.7 12.3
294(9) 0.01191 290.7 12.7
318(9) 0.01168 290.7 13.2
312(9) 0.01196 290.6 13.7
313(10) 0.01097 290.6 14.2
315(10) 0.01015 290.6 14.7
284(9) 0.01238 290.5 15.3
296(9) 0.01248 290.5 15.9
310(9) 0.01212 290.4 16.5
299(9) 0.01133 290.4 17.1
275(9) 0.01216 290.4 17.7
305(9) 0.01114 290.3 18.2
315(9) 0.01178 290.3 18.8
327(10) 0.01093 290.3 19.3
286(9) 0.01225 290.2 19.7
300(10) 0.01073 290.2 20.1
283(9) 0.01226 290.1 20.3
293(9) 0.01275 290.1 20.5
299(9) 0.01155 290.1 20.6
292(9) 0.01168 290.0 20.5
278(9) 0.01301 290.0 20.4
316(9) 0.01134 290.0 20.1
320(9) 0.01168 289.9 19.8
330(10) 0.01083 289.9 19.4
292(9) 0.01173 289.9 18.9
292(9) 0.01161 289.8 18.3
316(9) 0.01152 289.8 17.8
324(9) 0.01153 289.7 17.2
312(9) 0.01119 289.7 16.6
337(10) 0.00992 289.7 16.0
286(9) 0.01236 289.6 15.4
306(9) 0.01177 289.6 14.8
291(9) 0.01277 289.6 14.3
312(10) 0.01094 289.5 13.7
270(9) 0.01294 289.5 13.2
297(9) 0.01151 289.5 12.8
301(9) 0.01226 289.4 12.3
277(9) 0.01348 289.4 11.9
301(10) 0.01081 289.3 11.5
271(9) 0.01253 289.3 11.2
303(9) 0.01128 289.3 10.9
300(9) 0.01224 289.2 10.6
275(9) 0.01356 289.2 10.3
298(9) 0.01219 289.2 10.1
295(9) 0.01146 289.1 9.8
295(9) 0.01213 289.1 9.6
303(9) 0.01221 289.1 9.5
295(9) 0.01224 289.0 9.3
304(9) 0.01112 289.0 9.2
303(10) 0.01048 288.9 9.1
292(9) 0.01215 288.9 9.0
284(9) 0.01289 288.9 8.9
308(9) 0.01215 288.8 8.8
298(9) 0.01205 288.8 8.7
313(10) 0.01030 288.8 8.7
297(9) 0.01124 288.7 8.7
280(9) 0.01333 288.7 8.6
292(9) 0.01262 288.6 8.6
297(9) 0.01166 288.6 8.6
289(9) 0.01154 288.6 8.6
301(10) 0.01096 288.5 8.6
306(9) 0.01196 288.5 8.6
292(9) 0.01275 288.5 8.6
292(9) 0.01175 288.4 8.7
294(9) 0.01140 288.4 8.7
302(9) 0.01125 288.4 8.7
307(9) 0.01212 288.3 8.7
304(9) 0.01150 288.3 8.8
285(9) 0.01209 288.2 8.8
262(9) 0.01280 288.2 8.8
314(9) 0.01119 288.2 8.8
315(9) 0.01179 288.1 8.8
306(9) 0.01181 288.1 8.8
297(9) 0.01182 288.1 8.8
307(10) 0.01087 288.0 8.8
278(9) 0.01278 288.0 8.8
297(9) 0.01254 288.0 8.8
289(9) 0.01199 287.9 8.8
274(9) 0.01275 287.9 8.8
293(9) 0.01208 287.8 8.7
282(9) 0.01283 287.8 8.7
282(9) 0.01305 287.8 8.6
298(9) 0.01191 287.7 8.5
293(9) 0.01158 287.7 8.5
291(9) 0.01188 287.7 8.4
297(9) 0.01219 287.6 8.3
290(9) 0.01281 287.6 8.2
292(9) 0.01220 287.6 8.1
319(10) 0.01006 287.5 8.0
266(9) 0.01273 287.5 7.9
269(9) 0.01371 287.4 7.8
321(9) 0.01134 287.4 7.6
300(9) 0.01168 287.4 7.5
310(10) 0.01057 287.3 7.4
326(10) 0.01056 287.3 7.3
288(9) 0.01303 287.3 7.1
297(9) 0.01241 287.2 7.0
274(9) 0.01279 287.2 6.9
281(10) 0.01094 287.1 6.8
274(9) 0.01231 287.1 6.6
282(9) 0.01308 287.1 6.5
299(9) 0.01217 287.0 6.4
295(9) 0.01156 287.0 6.3
272(9) 0.01224 287.0 6.2
278(9) 0.01308 286.9 6.1
316(9) 0.01166 286.9 5.9
284(9) 0.01328 286.9 5.8
292(9) 0.01207 286.9 5.7
313(10) 0.01036 286.9 5.6
303(9) 0.01153 286.9 5.5
290(9) 0.01280 286.9 5.4
275(9) 0.01337 286.9 5.3
282(9) 0.01245 286.9 5.2
302(10) 0.01076 286.9 5.2
286(9) 0.01190 286.9 5.1
266(8) 0.01407 286.9 5.0
297(9) 0.01206 286.9 4.9
297(9) 0.01112 286.9 4.8
288(9) 0.01133 287.0 4.8
302(9) 0.01153 287.0 4.7
318(9) 0.01166 287.0 4.6
286(9) 0.01287 287.0 4.6
301(9) 0.01161 287.0 4.5
275(9) 0.01245 287.0 4.4
298(9) 0.01175 287.0 4.4
252(8) 0.01489 287.0 4.3
297(9) 0.01167 287.0 4.3
290(9) 0.01110 287.0 4.2
307(10) 0.01076 287.0 4.2
288(9) 0.01222 287.0 4.1
293(9) 0.01255 287.0 4.1
282(9) 0.01244 287.0 4.0
292(9) 0.01138 287.0 4.0
272(9) 0.01239 287.0 4.0
297(9) 0.01198 287.0 3.9
290(9) 0.01295 287.0 3.9
278(9) 0.01283 287.0 3.8
294(10) 0.01100 287.0 3.8
291(9) 0.01164 287.0 3.8
280(9) 0.01299 287.0 3.8
303(9) 0.01232 287.0 3.7
300(9) 0.01134 287.0 3.7
292(10) 0.01087 287.1 3.7
280(9) 0.01287 287.1 3.7
307(9) 0.01169 287.1 3.6
304(9) 0.01245 287.1 3.6
309(9) 0.01134 287.1 3.6
282(9) 0.01174 287.1 3.6
292(9) 0.01165 287.1 3.6
281(9) 0.01331 287.1 3.5
300(9) 0.01244 287.1 3.5
307(9) 0.01162 287.1 3.5
276(9) 0.01240 287.1 3.5
297(9) 0.01176 287.1 3.5
299(9) 0.01248 287.1 3.5
281(9) 0.01318 287.1 3.5
268(9) 0.01272 287.1 3.5
270(9) 0.01218 287.1 3.5
277(9) 0.01304 287.1 3.5
281(9) 0.01330 287.1 3.5
298(9) 0.01239 287.1 3.5
302(9) 0.01122 287.1 3.5
292(9) 0.01141 287.1 3.5
285(9) 0.01225 287.1 3.5
287(9) 0.01287 287.1 3.5
304(9) 0.01207 287.1 3.5
282(9) 0.01259 287.1 3.5
275(9) 0.01234 287.2 3.5
295(9) 0.01169 287.2 3.5
266(8) 0.01395 287.2 3.5
289(9) 0.01272 287.2 3.5
304(10) 0.01094 287.2 3.5
265(9) 0.01285 287.2 3.5
261(9) 0.01376 287.2 3.5
282(9) 0.01316 287.2 3.6
278(9) 0.01304 287.2 3.6
285(9) 0.01195 287.2 3.6
292(9) 0.01162 287.2 3.6
297(9) 0.01182 287.2 3.6
272(9) 0.01375 287.2 3.7
308(10) 0.01089 287.2 3.7
298(9) 0.01150 287.2 3.7
311(10) 0.01105 287.2 3.8
293(9) 0.01223 287.2 3.8
287(9) 0.01301 287.2 3.8
270(9) 0.01250 287.2 3.9
278(9) 0.01222 287.2 3.9
293(9) 0.01199 287.2 4.0
291(9) 0.01251 287.2 4.0
273(9) 0.01371 287.2 4.1
282(9) 0.01234 287.2 4.1
283(9) 0.01170 287.3 4.2
301(9) 0.01176 287.3 4.3
285(9) 0.01309 287.3 4.3
294(9) 0.01262 287.3 4.4
311(10) 0.01095 287.3 4.5
282(9) 0.01119 287.3 4.6
301(9) 0.01139 287.3 4.8
298(9) 0.01245 287.3 4.9
286(9) 0.01295 287.3 5.0
296(9) 0.01148 287.3 5.2
281(9) 0.01155 287.3 5.4
305(9) 0.01142 287.3 5.7
301(9) 0.01248 287.3 6.0
287(9) 0.01258 287.3 6.3
282(9) 0.01200 287.3 6.7
298(10) 0.01094 287.3 7.2
312(9) 0.01137 287.3 7.7
321(9) 0.01160 287.3 8.3
328(10) 0.01099 287.3 9.0
322(10) 0.01074 287.3 9.9
292(9) 0.01171 287.3 10.8
292(9) 0.01176 287.3 11.8
297(9) 0.01245 287.3 12.9
319(9) 0.01166 287.3 14.1
297(9) 0.01173 287.3 15.4
304(9) 0.01127 287.4 16.6
292(9) 0.01204 287.4 17.7
303(9) 0.01219 287.4 18.7
300(9) 0.01214 287.4 19.4
319(10) 0.01043 287.4 19.7
312(10) 0.01080 287.4 19.7
315(10) 0.01103 287.4 19.3
295(9) 0.01269 287.4 18.6
329(10) 0.01067 287.4 17.7
314(10) 0.01096 287.4 16.7
306(9) 0.01126 287.4 15.6
314(9) 0.01132 287.4 14.5
305(9) 0.01218 287.4 13.5
292(9) 0.01170 287.4 12.6
295(9) 0.01132 287.4 11.7
304(9) 0.01140 287.4 11.0
304(9) 0.01178 287.4 10.4
292(9) 0.01270 287.4 9.9
309(10) 0.01103 287.4 9.5
295(9) 0.01160 287.4 9.3
289(9) 0.01185 287.4 9.1
275(9) 0.01314 287.4 9.0
303(9) 0.01221 287.4 8.9
311(9) 0.01123 287.4 9.0
294(9) 0.01140 287.5 9.2
274(9) 0.01293 287.5 9.4
301(9) 0.01236 287.5 9.7
314(9) 0.01164 287.5 10.0
296(9) 0.01155 287.5 10.4
297(10) 0.01069 287.5 10.9
290(9) 0.01155 287.5 11.5
296(9) 0.01208 287.5 12.1
289(9) 0.01285 287.5 12.8
295(9) 0.01143 287.5 13.5
316(10) 0.00970 287.5 14.2
294(9) 0.01180 287.5 14.9
293(9) 0.01254 287.5 15.5
298(9) 0.01267 287.5 16.0
290(9) 0.01190 287.5 16.4
300(9) 0.01110 287.5 16.6
313(9) 0.01113 287.5 16.7
299(9) 0.01253 287.5 16.8
318(10) 0.01094 287.5 16.8
318(10) 0.01076 287.5 16.8
288(9) 0.01187 287.5 16.8
313(10) 0.01072 287.5 16.9
293(9) 0.01261 287.5 17.2
290(9) 0.01263 287.5 17.6
298(9) 0.01123 287.5 18.1
304(9) 0.01126 287.6 18.9
321(10) 0.01067 287.6 19.8
286(9) 0.01296 287.6 21.0
329(10) 0.01076 287.6 22.3
316(9) 0.01108 287.6 23.8
334(10) 0.01031 287.6 25.5
300(9) 0.01192 287.6 27.4
311(9) 0.01196 287.6 29.4
294(9) 0.01229 287.6 31.5
313(10) 0.01091 287.6 33.6
309(10) 0.01108 287.6 35.5
313(10) 0.01099 287.6 37.2
309(9) 0.01214 287.6 38.5
330(10) 0.01057 287.6 39.4
320(10) 0.01079 287.6 39.6
325(10) 0.01048 287.6 39.3
322(10) 0.01107 287.6 38.4
311(9) 0.01199 287.6 37.0
309(10) 0.01106 287.6 35.3
313(10) 0.01017 287.6 33.4
284(9) 0.01273 287.6 31.4
313(9) 0.01148 287.6 29.5
311(9) 0.01202 287.6 27.6
319(10) 0.01103 287.6 25.8
304(9) 0.01117 287.7 24.2
282(9) 0.01237 287.7 22.7
290(9) 0.01247 287.7 21.5
309(9) 0.01207 287.7 20.4
304(9) 0.01160 287.7 19.4
279(9) 0.01187 287.7 18.6
303(9) 0.01159 287.7 18.0
287(9) 0.01290 287.7 17.4
284(9) 0.01313 287.7 17.1
295(9) 0.01192 287.7 16.8
322(10) 0.00987 287.7 16.6
308(9) 0.01156 287.7 16.5
312(9) 0.01197 287.7 16.5
294(9) 0.01261 287.7 16.5
303(9) 0.01161 287.7 16.6
321(10) 0.00989 287.7 16.8
301(9) 0.01148 287.7 16.9
286(9) 0.01293 287.7 17.1
296(9) 0.01255 287.7 17.3
306(10) 0.01100 287.7 17.5
302(10) 0.01085 287.7 17.7
313(10) 0.01085 287.7 17.9
290(9) 0.01283 287.7 18.1
314(9) 0.01162 287.7 18.4
318(10) 0.01066 287.7 18.6
295(9) 0.01109 287.8 18.9
292(9) 0.01166 287.8 19.3
290(9) 0.01277 287.8 19.6
287(9) 0.01258 287.8 20.1
333(10) 0.01036 287.8 20.6
322(10) 0.01087 287.8 21.1
321(10) 0.01089 287.8 21.7
312(9) 0.01186 287.8 22.4
321(9) 0.01118 287.8 23.2
335(10) 0.01008 287.8 24.1
292(9) 0.01190 287.8 25.0
310(9) 0.01141 287.8 26.0
305(9) 0.01222 287.8 27.2
317(10) 0.01079 287.8 28.4
312(10) 0.01074 287.8 29.8
314(10) 0.01098 287.8 31.2
306(9) 0.01165 287.8 32.9
279(9) 0.01323 287.8 34.6
335(10) 0.01031 287.8 36.5
333(10) 0.00996 287.8 38.6
338(10) 0.01011 287.8 40.8
336(10) 0.01066 287.8 43.2
344(10) 0.01082 287.8 45.8
335(10) 0.01020 287.8 48.5
345(10) 0.00936 287.9 51.5
339(10) 0.01038 287.9 54.5
358(10) 0.01004 287.9 57.8
336(9) 0.01118 287.9 61.1
343(10) 0.01013 287.9 64.6
369(11) 0.00891 287.9 68.1
367(10) 0.00984 287.9 71.7
377(10) 0.00975 287.9 75.1
394(10) 0.00945 287.9 78.4
395(11) 0.00863 287.9 81.6
392(11) 0.00807 287.9 84.4
383(10) 0.00907 287.9 87.0
371(10) 0.01001 287.9 89.3
373(10) 0.00996 287.9 91.2
363(10) 0.00983 287.9 92.8
358(11) 0.00900 287.9 94.1
372(11) 0.00895 287.9 95.2
370(10) 0.00992 287.9 96.1
381(10) 0.00979 287.9 96.8
382(10) 0.00948 287.9 97.3
392(11) 0.00845 287.9 97.7
368(10) 0.00975 287.9 98.0
384(10) 0.00970 287.9 98.0
377(10) 0.00973 287.9 97.8
384(10) 0.00921 287.9 97.2
380(11) 0.00859 288.0 96.4
383(10) 0.00927 288.0 95.2
376(10) 0.00994 288.0 93.7
389(11) 0.00901 288.0 91.8
408(11) 0.00817 288.0 89.5
384(11) 0.00863 288.0 87.0
357(10) 0.00960 288.0 84.3
358(10) 0.01039 288.0 81.4
351(10) 0.00988 288.0 78.4
332(10) 0.01029 288.0 75.3
357(10) 0.00957 288.0 72.1
384(10) 0.00921 288.0 69.0
354(10) 0.01056 288.0 66.0
348(10) 0.00980 288.0 63.0
333(10) 0.01033 288.0 60.1
374(10) 0.00920 288.0 57.3
357(10) 0.01008 288.0 54.7
324(9) 0.01145 288.0 52.1
353(10) 0.00971 288.0 49.7
325(10) 0.01062 288.0 47.4
321(10) 0.01101 288.0 45.2
331(10) 0.01081 288.0 43.1
337(10) 0.01097 288.0 41.1
322(10) 0.01053 288.0 39.3
335(10) 0.00964 288.1 37.5
318(9) 0.01112 288.1 35.9
325(9) 0.01117 288.1 34.4
305(9) 0.01214 288.1 32.9
339(10) 0.01013 288.1 31.6
328(10) 0.01012 288.1 30.3
329(10) 0.01050 288.1 29.1
315(9) 0.01159 288.1 28.0
315(9) 0.01175 288.1 26.9
330(10) 0.01026 288.1 26.0
306(10) 0.01054 288.1 25.0
323(10) 0.01026 288.1 24.2
290(9) 0.01257 288.1 23.3
296(9) 0.01243 288.1 22.6
295(9) 0.01218 288.1 21.9
323(10) 0.00981 288.1 21.2
291(9) 0.01206 288.1 20.6
323(9) 0.01153 288.1 20.0
314(9) 0.01196 288.1 19.4
311(10) 0.01092 288.1 18.9
319(10) 0.01039 288.1 18.4
293(9) 0.01206 288.1 18.0
276(9) 0.01355 288.1 17.6
287(9) 0.01268 288.1 17.2
294(9) 0.01180 288.1 16.8
295(9) 0.01157 288.2 16.5
296(9) 0.01230 288.2 16.2
320(9) 0.01161 288.2 15.9
304(9) 0.01197 288.2 15.7
295(9) 0.01211 288.2 15.5
309(10) 0.01066 288.2 15.3
312(10) 0.01073 288.2 15.1
273(9) 0.01377 288.2 15.0
293(9) 0.01209 288.2 14.9
311(9) 0.01116 288.2 14.8
314(10) 0.01088 288.2 14.7
320(10) 0.01096 288.2 14.7
310(9) 0.01207 288.2 14.6
278(9) 0.01279 288.2 14.6
301(9) 0.01152 288.2 14.7
322(10) 0.01068 288.2 14.7
304(9) 0.01208 288.2 14.8
306(9) 0.01212 288.2 14.9
296(9) 0.01203 288.2 15.0
296(9) 0.01147 288.2 15.2
303(9) 0.01130 288.2 15.3
293(9) 0.01267 288.2 15.5
309(9) 0.01198 288.2 15.7
325(10) 0.01038 288.2 15.8
293(9) 0.01161 288.3 16.0
281(9) 0.01246 288.3 16.1
282(9) 0.01289 288.3 16.2
288(9) 0.01291 288.3 16.3
271(9) 0.01291 288.3 16.3
309(10) 0.01063 288.3 16.3
301(9) 0.01157 288.3 16.3
294(9) 0.01223 288.3 16.2
277(9) 0.01317 288.3 16.1
282(9) 0.01248 288.3 15.9
287(9) 0.01129 288.3 15.7
278(9) 0.01241 288.3 15.5
264(8) 0.01401 288.3 15.2
295(9) 0.01235 288.3 15.0
299(9) 0.01134 288.3 14.8
304(10) 0.01057 288.3 14.6
316(9) 0.01120 288.3 14.3
301(9) 0.01231 288.3 14.2
288(9) 0.01288 288.3 14.0
291(9) 0.01198 288.3 13.8
285(9) 0.01109 288.2 13.7
269(9) 0.01294 288.2 13.6
284(9) 0.01321 288.2 13.5
284(9) 0.01260 288.1 13.4
300(9) 0.01143 288.1 13.4
276(9) 0.01211 288.1 13.4
286(9) 0.01216 288.0 13.4
288(9) 0.01295 288.0 13.4
291(9) 0.01285 288.0 13.5
285(9) 0.01193 287.9 13.6
277(9) 0.01200 287.9 13.7
296(9) 0.01183 287.9 13.8
304(9) 0.01212 287.8 14.0
307(9) 0.01183 287.8 14.1
284(9) 0.01241 287.8 14.3
310(10) 0.01079 287.7 14.5
293(9) 0.01190 287.7 14.8
288(9) 0.01292 287.7 15.0
288(9) 0.01225 287.6 15.3
297(9) 0.01160 287.6 15.6
309(10) 0.01069 287.6 15.9
303(9) 0.01156 287.5 16.2
320(9) 0.01156 287.5 16.6
289(9) 0.01202 287.5 16.9
305(10) 0.01077 287.4 17.3
284(9) 0.01184 287.4 17.7
264(9) 0.01318 287.4 18.1
284(9) 0.01319 287.3 18.5
292(9) 0.01212 287.3 18.9
300(9) 0.01109 287.3 19.4
290(9) 0.01199 287.2 19.9
290(9) 0.01266 287.2 20.3
320(9) 0.01160 287.2 20.8
297(10) 0.01100 287.1 21.3
298(10) 0.01085 287.1 21.8
291(9) 0.01221 287.1 22.3
327(9) 0.01134 287.0 22.8
337(10) 0.01095 287.0 23.3
309(9) 0.01133 287.0 23.8
313(10) 0.01057 286.9 24.3
282(9) 0.01238 286.9 24.7
306(9) 0.01180 286.9 25.2
297(9) 0.01232 286.8 25.7
309(10) 0.01108 286.8 26.2
318(10) 0.00998 286.8 26.6
309(10) 0.01078 286.7 27.0
308(9) 0.01216 286.7 27.5
305(9) 0.01216 286.7 27.9
292(9) 0.01174 286.6 28.4
288(10) 0.01101 286.6 28.8
308(9) 0.01117 286.6 29.3
324(9) 0.01170 286.5 29.8
286(9) 0.01313 286.5 30.2
324(10) 0.01018 286.5 30.8
322(10) 0.00994 286.4 31.3
308(9) 0.01111 286.4 31.9
326(9) 0.01156 286.4 32.5
338(10) 0.01040 286.3 33.2
342(10) 0.01009 286.3 33.8
299(9) 0.01139 286.3 34.6
304(9) 0.01118 286.2 35.3
305(9) 0.01204 286.2 36.1
352(10) 0.01042 286.2 36.8
316(9) 0.01128 286.1 37.6
320(10) 0.01056 286.1 38.2
319(10) 0.01097 286.1 38.7
339(10) 0.01102 286.0 39.1
336(10) 0.01026 286.0 39.2
324(10) 0.01065 286.0 39.0
333(10) 0.01019 285.9 38.5
308(9) 0.01153 285.9 37.7
319(9) 0.01169 285.9 36.7
302(9) 0.01215 285.8 35.5
312(9) 0.01121 285.8 34.3
323(10) 0.01065 285.8 32.9
318(9) 0.01122 285.7 31.7
302(9) 0.01237 285.7 30.4
323(10) 0.01037 285.7 29.2
324(10) 0.01013 285.6 28.1
338(10) 0.01005 285.6 27.1
316(9) 0.01121 285.6 26.2
297(9) 0.01255 285.5 25.4
326(10) 0.01074 285.5 24.7
307(10) 0.01097 285.5 24.1
304(9) 0.01155 285.4 23.6
315(9) 0.01123 285.4 23.1
312(9) 0.01200 285.4 22.8
330(10) 0.01060 285.3 22.5
289(9) 0.01157 285.3 22.2
308(9) 0.01134 285.3 22.0
315(9) 0.01177 285.2 21.9
326(9) 0.01116 285.2 21.8
297(9) 0.01199 285.2 21.7
326(10) 0.00955 285.1 21.6
310(10) 0.01108 285.1 21.5
313(9) 0.01158 285.1 21.5
304(9) 0.01228 285.0 21.5
309(9) 0.01119 285.0 21.5
322(10) 0.01019 285.0 21.5
314(10) 0.01053 284.9 21.6
280(9) 0.01327 284.9 21.7
313(9) 0.01176 284.9 21.9
308(9) 0.01123 284.8 22.1
279(9) 0.01197 284.8 22.4
300(10) 0.01090 284.8 22.8
288(9) 0.01293 284.7 23.2
320(10) 0.01096 284.7 23.7
304(9) 0.01140 284.7 24.2
322(10) 0.01007 284.6 24.9
302(9) 0.01115 284.6 25.6
312(9) 0.01188 284.6 26.4
314(9) 0.01151 284.5 27.3
331(10) 0.01031 284.5 28.3
309(10) 0.01105 284.5 29.3
314(9) 0.01149 284.4 30.5
310(9) 0.01185 284.4 31.7
342(10) 0.01031 284.4 32.9
308(9) 0.01124 284.3 34.2
332(10) 0.00983 284.3 35.6
304(9) 0.01173 284.3 36.9
334(10) 0.01095 284.2 38.1
342(10) 0.00995 284.2 39.3
353(10) 0.00947 284.2 40.3
373(10) 0.00915 284.1 41.1
374(10) 0.00939 284.1 41.7
345(10) 0.01058 284.1 42.1
345(10) 0.01010 284.0 42.2
349(10) 0.00976 284.0 42.1
350(10) 0.00967 284.0 41.9
357(10) 0.00992 283.9 41.5
348(10) 0.01060 283.9 41.1
312(9) 0.01123 283.9 40.7
312(10) 0.01091 283.8 40.2
346(10) 0.00979 283.8 39.8
333(10) 0.01081 283.8 39.5
325(9) 0.01161 283.7 39.2
340(10) 0.01027 283.7 39.1
337(10) 0.00993 283.7 39.0
328(10) 0.01047 283.6 39.0
332(10) 0.01087 283.6 39.1
329(9) 0.01142 283.6 39.3
316(10) 0.01095 283.5 39.6
343(10) 0.00971 283.5 40.0
339(10) 0.01013 283.5 40.4
312(9) 0.01185 283.4 40.9
298(9) 0.01227 283.4 41.4
327(10) 0.01091 283.4 41.9
331(10) 0.00991 283.3 42.4
296(9) 0.01193 283.3 42.8
315(9) 0.01186 283.3 43.2
318(9) 0.01144 283.2 43.5
350(10) 0.00971 283.2 43.6
339(10) 0.00974 283.2 43.7
329(10) 0.01037 283.1 43.7
329(9) 0.01121 283.1 43.5
322(9) 0.01134 283.1 43.3
323(10) 0.01088 283.0 43.0
310(10) 0.01089 283.0 42.6
347(10) 0.00972 283.0 42.2
329(9) 0.01131 282.9 41.7
315(9) 0.01163 282.9 41.1
313(10) 0.01107 282.9 40.6
316(10) 0.01060 282.8 40.0
329(10) 0.01047 282.8 39.5
322(9) 0.01165 282.8 39.0
307(9) 0.01173 282.7 38.5
330(10) 0.01032 282.7 38.0
319(10) 0.01092 282.7 37.6
310(9) 0.01153 282.6 37.3
341(10) 0.01090 282.6 36.9
308(9) 0.01162 282.6 36.6
301(9) 0.01180 282.5 36.2
323(10) 0.01036 282.5 35.8
309(9) 0.01109 282.5 35.4
307(9) 0.01228 282.4 34.9
283(9) 0.01242 282.4 34.3
306(10) 0.01091 282.4 33.6
336(10) 0.01014 282.3 32.8
306(9) 0.01183 282.3 32.0
305(9) 0.01209 282.3 31.1
327(10) 0.01045 282.3 30.3
277(9) 0.01246 282.2 29.5
302(9) 0.01116 282.2 28.7
321(9) 0.01135 282.2 28.0
317(9) 0.01163 282.1 27.5
297(9) 0.01180 282.1 27.1
302(10) 0.01084 282.1 27.0
306(9) 0.01114 282.0 27.0
307(9) 0.01206 282.0 27.3
340(10) 0.01107 282.0 27.9
305(9) 0.01144 281.9 28.8
329(10) 0.00970 281.9 29.9
322(10) 0.01070 281.9 31.3
327(9) 0.01113 281.8 32.9
335(9) 0.01110 281.8 34.6
325(10) 0.01080 281.8 36.2
343(10) 0.00968 281.7 37.7
366(10) 0.00929 281.7 38.8
350(10) 0.01057 281.7 39.3
345(10) 0.01082 281.6 39.1
335(10) 0.01041 281.6 38.2
328(10) 0.01021 281.6 36.8
314(9) 0.01133 281.5 35.1
320(9) 0.01163 281.5 33.2
317(9) 0.01147 281.5 31.2
344(10) 0.00985 281.4 29.5
330(10) 0.00978 281.4 27.9
314(10) 0.01053 281.4 26.6
306(9) 0.01210 281.3 25.5
342(10) 0.01056 281.3 24.7
317(10) 0.01106 281.3 24.2
310(10) 0.01091 281.2 23.9
309(9) 0.01114 281.2 23.9
311(9) 0.01195 281.2 24.0
295(9) 0.01214 281.1 24.3
326(10) 0.01034 281.1 24.7
337(10) 0.00987 281.1 25.2
331(10) 0.01060 281.0 25.8
329(9) 0.01130 281.0 26.4
324(9) 0.01125 281.0 27.1
306(9) 0.01110 280.9 27.8
331(10) 0.01033 280.9 28.5
317(9) 0.01136 280.9 29.2
344(10) 0.01088 280.8 30.0
350(10) 0.00987 280.8 30.8
335(10) 0.00995 280.8 31.7
327(10) 0.01065 280.7 32.6
339(10) 0.01051 280.7 33.5
295(9) 0.01258 280.7 34.6
329(10) 0.01056 280.6 35.6
321(10) 0.01073 280.6 36.7
350(10) 0.00953 280.6 37.8
324(9) 0.01114 280.5 38.8
335(9) 0.01109 280.5 39.8
319(10) 0.01073 280.5 40.8
344(10) 0.00960 280.4 41.6
301(9) 0.01194 280.4 42.3
341(10) 0.01060 280.4 42.9
334(9) 0.01114 280.3 43.3
330(10) 0.01029 280.3 43.6
327(10) 0.00967 280.3 43.7
307(9) 0.01169 280.2 43.7
333(9) 0.01115 280.2 43.5
314(9) 0.01195 280.2 43.3
329(10) 0.01025 280.1 43.0
334(10) 0.00981 280.1 42.6
342(10) 0.01072 280.1 42.1
356(10) 0.01045 280.0 41.6
317(9) 0.01175 280.0 41.0
330(10) 0.01064 280.0 40.3
302(10) 0.01092 279.9 39.6
323(10) 0.01091 279.9 38.8
343(10) 0.01090 279.9 37.9
343(10) 0.01036 279.8 37.0
340(10) 0.01013 279.8 36.2
334(10) 0.00982 279.8 35.4
324(10) 0.01088 279.7 34.7
288(9) 0.01293 279.7 34.1
300(9) 0.01218 279.7 33.7
298(9) 0.01175 279.6 33.5
284(9) 0.01201 279.6 33.4
311(9) 0.01156 279.6 33.5
323(9) 0.01170 279.5 33.8
316(9) 0.01128 279.5 34.3
325(10) 0.01053 279.5 35.0
319(10) 0.01025 279.4 35.8
293(9) 0.01180 279.4 36.8
301(9) 0.01232 279.4 38.0
307(9) 0.01201 279.3 39.3
324(10) 0.01060 279.3 40.7
324(10) 0.01045 279.3 42.2
327(10) 0.01079 279.2 43.7
355(10) 0.01050 279.2 45.3
335(10) 0.01057 279.2 46.7
321(10) 0.01077 279.1 48.1
318(10) 0.01064 279.1 49.3
327(10) 0.01100 279.1 50.3
329(9) 0.01140 279.0 50.9
335(10) 0.01012 279.0 51.3
325(10) 0.01001 279.0 51.3
325(10) 0.01074 278.9 51.0
320(9) 0.01139 278.9 50.3
312(9) 0.01186 278.9 49.3
330(10) 0.01063 278.8 48.1
353(10) 0.00945 278.8 46.6
329(10) 0.01089 278.8 45.0
338(10) 0.01071 278.7 43.4
325(9) 0.01148 278.7 41.7
331(10) 0.01040 278.7 40.0
287(9) 0.01168 278.6 38.3
308(9) 0.01160 278.6 36.8
327(9) 0.01123 278.6 35.3
294(9) 0.01277 278.5 33.9
319(10) 0.01068 278.5 32.7
304(10) 0.01046 278.5 31.6
294(9) 0.01153 278.4 30.6
297(9) 0.01268 278.4 29.8
321(9) 0.01158 278.4 29.0
315(10) 0.01089 278.3 28.4
298(10) 0.01080 278.3 27.8
315(10) 0.01080 278.3 27.3
308(9) 0.01205 278.2 26.8
303(9) 0.01207 278.2 26.4
308(10) 0.01093 278.2 25.9
296(10) 0.01069 278.1 25.3
311(10) 0.01097 278.1 24.7
311(9) 0.01200 278.1 24.1
290(9) 0.01293 278.0 23.3
298(9) 0.01152 278.0 22.5
307(10) 0.01067 278.0 21.6
302(9) 0.01112 277.9 20.7
301(9) 0.01234 277.9 19.7
284(9) 0.01283 277.9 18.8
283(9) 0.01257 277.8 17.9
312(10) 0.01079 277.8 17.0
300(9) 0.01177 277.8 16.2
295(9) 0.01258 277.7 15.4
295(9) 0.01209 277.7 14.7
290(9) 0.01173 277.7 14.0
288(9) 0.01184 277.6 13.4
291(9) 0.01209 277.6 12.8
285(9) 0.01300 277.6 12.2
286(9) 0.01198 277.5 11.7
280(9) 0.01168 277.5 11.3
284(9) 0.01169 277.5 10.9
291(9) 0.01223 277.4 10.5
274(9) 0.01355 277.4 10.2
263(9) 0.01305 277.4 9.9
268(9) 0.01194 277.3 9.6
256(9) 0.01339 277.3 9.3
276(9) 0.01283 277.3 9.1
283(9) 0.01341 277.2 8.9
264(9) 0.01369 277.2 8.7
313(10) 0.01067 277.2 8.6
284(9) 0.01223 277.1 8.4
287(9) 0.01254 277.1 8.3
277(9) 0.01321 277.1 8.2
300(9) 0.01153 277.0 8.1
287(9) 0.01136 277.0 8.0
268(9) 0.01290 277.0 7.9
279(9) 0.01306 276.9 7.8
286(9) 0.01313 276.9 7.7
292(9) 0.01228 276.9 7.7
279(9) 0.01135 276.9 7.6
278(9) 0.01242 276.9 7.6
284(9) 0.01309 276.9 7.6
267(8) 0.01412 276.9 7.5
262(9) 0.01321 276.9 7.5
279(9) 0.01136 276.9 7.5
280(9) 0.01241 276.9 7.5
287(9) 0.01297 276.9 7.5
293(9) 0.01243 276.9 7.5
281(9) 0.01205 276.9 7.5
249(9) 0.01326 276.9 7.5
268(9) 0.01275 276.9 7.5
290(9) 0.01280 276.8 7.5
269(9) 0.01370 276.8 7.6
283(9) 0.01217 276.8 7.6
276(9) 0.01200 276.8 7.7
286(9) 0.01270 276.8 7.7
293(9) 0.01263 276.8 7.8
285(9) 0.01277 276.8 7.9
312(10) 0.01071 276.8 8.0
289(9) 0.01130 276.8 8.1
287(9) 0.01235 276.8 8.2
287(9) 0.01294 276.8 8.3
292(9) 0.01224 276.8 8.4
270(9) 0.01326 276.8 8.5
298(9) 0.01163 276.8 8.7
279(9) 0.01244 276.8 8.9
317(9) 0.01171 276.8 9.0
295(9) 0.01228 276.8 9.2
294(9) 0.01140 276.8 9.5
301(9) 0.01116 276.8 9.7
298(9) 0.01200 276.8 9.9
293(9) 0.01260 276.8 10.2
283(9) 0.01219 276.8 10.5
277(9) 0.01193 276.8 10.8
264(9) 0.01327 276.8 11.2
292(9) 0.01211 276.8 11.6
290(9) 0.01272 276.8 12.0
289(9) 0.01184 276.8 12.5
280(9) 0.01196 276.7 12.9
287(9) 0.01207 276.7 13.5
289(9) 0.01249 276.7 14.1
291(9) 0.01264 276.7 14.7
305(9) 0.01148 276.7 15.4
315(10) 0.01066 276.7 16.2
316(10) 0.01100 276.7 17.0
294(9) 0.01244 276.7 17.9
286(9) 0.01294 276.7 18.9
294(9) 0.01187 276.7 20.0
326(10) 0.01002 276.7 21.1
331(10) 0.01066 276.7 22.4
316(9) 0.01163 276.7 23.7
292(9) 0.01254 276.7 25.2
289(9) 0.01187 276.7 26.8
305(10) 0.01074 276.7 28.5
316(10) 0.01088 276.7 30.3
284(9) 0.01303 276.7 32.3
328(9) 0.01125 276.7 34.3
310(9) 0.01140 276.7 36.5
320(10) 0.01035 276.7 38.8
331(10) 0.01059 276.7 41.2
329(9) 0.01119 276.7 43.6
342(10) 0.01071 276.7 46.1
329(10) 0.01056 276.7 48.5
347(10) 0.00935 276.7 51.0
328(10) 0.01062 276.7 53.3
337(10) 0.01086 276.6 55.4
327(9) 0.01117 276.6 57.3
346(10) 0.01011 276.6 58.8
356(10) 0.00922 276.6 60.0
342(10) 0.01015 276.6 60.7
361(10) 0.01020 276.6 61.0
348(10) 0.01029 276.6 60.8
315(10) 0.01108 276.6 60.1
318(10) 0.01059 276.6 59.0
319(10) 0.01064 276.6 57.5
326(9) 0.01136 276.6 55.6
312(9) 0.01136 276.6 53.6
325(10) 0.01046 276.6 51.3
318(10) 0.01087 276.6 49.0
327(10) 0.01084 276.6 46.6
289(9) 0.01271 276.6 44.1
317(9) 0.01127 276.6 41.8
337(10) 0.01030 276.6 39.5
343(10) 0.00996 276.6 37.3
304(9) 0.01171 276.6 35.2
298(9) 0.01251 276.6 33.2
304(9) 0.01174 276.6 31.3
309(9) 0.01117 276.6 29.6
300(9) 0.01191 276.6 28.0
305(9) 0.01164 276.6 26.5
309(9) 0.01203 276.6 25.1
308(9) 0.01117 276.6 23.8
316(10) 0.01051 276.5 22.7
292(9) 0.01221 276.5 21.7
289(9) 0.01269 276.5 20.7
296(9) 0.01261 276.5 19.9
337(10) 0.01035 276.5 19.1
321(10) 0.01070 276.5 18.5
303(9) 0.01198 276.5 17.9
276(9) 0.01354 276.5 17.4
287(9) 0.01315 276.5 17.0
282(9) 0.01251 276.5 16.6
269(9) 0.01241 276.5 16.4
298(9) 0.01187 276.5 16.1
282(9) 0.01318 276.5 16.0
274(9) 0.01363 276.5 15.9
292(9) 0.01199 276.5 15.9
306(10) 0.01048 276.5 15.9
319(10) 0.01082 276.5 16.0
319(9) 0.01147 276.5 16.2
297(9) 0.01237 276.5 16.5
289(9) 0.01248 276.5 16.7
300(10) 0.01094 276.5 17.1
306(9) 0.01111 276.5 17.5
312(9) 0.01188 276.5 18.0
313(9) 0.01150 276.5 18.5
308(10) 0.01082 276.5 19.1
311(10) 0.01036 276.5 19.8
291(9) 0.01169 276.5 20.4
289(9) 0.01288 276.4 21.2
262(9) 0.01384 276.4 21.9
301(9) 0.01125 276.4 22.6
303(10) 0.01108 276.4 23.4
298(9) 0.01167 276.4 24.0
312(9) 0.01201 276.4 24.6
317(10) 0.01096 276.4 25.2
320(10) 0.01076 276.4 25.6
306(10) 0.01091 276.4 25.8
287(9) 0.01219 276.4 25.9
293(9) 0.01278 276.4 25.8
298(9) 0.01208 276.4 25.6
321(10) 0.01050 276.4 25.2
311(9) 0.01133 276.4 24.6
309(9) 0.01128 276.4 23.9
303(9) 0.01237 276.4 23.1
302(9) 0.01136 276.4 22.3
292(9) 0.01161 276.4 21.4
286(9) 0.01181 276.4 20.5
311(9) 0.01141 276.4 19.5
297(9) 0.01263 276.4 18.6
290(9) 0.01172 276.4 17.8
284(9) 0.01196 276.4 16.9
277(9) 0.01232 276.4 16.1
270(9) 0.01317 276.4 15.4
292(9) 0.01287 276.4 14.7
291(9) 0.01190 276.4 14.0
307(10) 0.01063 276.4 13.4
288(9) 0.01218 276.3 12.8
271(9) 0.01351 276.3 12.3
276(9) 0.01334 276.3 11.8
289(9) 0.01214 276.3 11.4
297(9) 0.01120 276.3 11.0
286(9) 0.01244 276.3 10.7
290(9) 0.01288 276.3 10.4
308(9) 0.01197 276.3 10.1
286(9) 0.01188 276.3 9.8
296(10) 0.01038 276.3 9.6
287(9) 0.01180 276.3 9.4
281(9) 0.01284 276.3 9.2
271(9) 0.01368 276.3 9.0
301(9) 0.01160 276.3 8.9
285(9) 0.01175 276.3 8.8
281(9) 0.01208 276.3 8.7
279(9) 0.01352 276.3 8.6
272(9) 0.01326 276.3 8.5
281(9) 0.01206 276.3 8.5
280(9) 0.01198 276.3 8.5
306(9) 0.01148 276.3 8.5
314(9) 0.01181 276.3 8.4
300(9) 0.01203 276.3 8.5
308(10) 0.01086 276.3 8.5
288(9) 0.01170 276.3 8.5
279(9) 0.01208 276.3 8.6
289(9) 0.01277 276.3 8.6
295(9) 0.01219 276.2 8.7
292(9) 0.01195 276.2 8.8
275(9) 0.01256 276.2 9.0
273(9) 0.01272 276.2 9.1
267(8) 0.01388 276.2 9.2
297(9) 0.01165 276.2 9.4
279(9) 0.01217 276.2 9.6
297(9) 0.01111 276.2 9.8
271(9) 0.01352 276.2 10.1
291(9) 0.01271 276.2 10.3
283(9) 0.01189 276.2 10.6
284(9) 0.01157 276.2 11.0
265(9) 0.01320 276.2 11.3
315(9) 0.01152 276.2 11.7
280(9) 0.01305 276.2 12.1
268(9) 0.01305 276.2 12.6
290(9) 0.01127 276.2 13.1
277(9) 0.01247 276.2 13.6
301(9) 0.01197 276.2 14.2
306(9) 0.01226 276.2 14.8
301(9) 0.01149 276.2 15.5
297(9) 0.01112 276.2 16.2
318(10) 0.01069 276.2 17.0
297(9) 0.01255 276.2 17.8
311(9) 0.01188 276.2 18.6
304(9) 0.01111 276.2 19.5
333(10) 0.00958 276.2 20.3
282(9) 0.01257 276.1 21.3
304(9) 0.01209 276.1 22.2
298(9) 0.01246 276.1 23.1
303(9) 0.01137 276.1 23.9
319(10) 0.00997 276.1 24.8
328(10) 0.01046 276.1 25.6
327(9) 0.01131 276.1 26.3
322(9) 0.01129 276.1 26.9
303(9) 0.01196 276.1 27.4
303(10) 0.01072 276.1 27.8
332(10) 0.01023 276.1 28.0
334(10) 0.01087 276.1 28.2
325(10) 0.01098 276.1 28.4
332(10) 0.01012 276.1 28.4
331(10) 0.00979 276.1 28.4
328(10) 0.01078 276.1 28.3
304(9) 0.01222 276.1 28.3
306(9) 0.01141 276.1 28.2
302(9) 0.01153 276.1 28.2
316(10) 0.01044 276.1 28.2
319(10) 0.01092 276.1 28.2
322(9) 0.01152 276.1 28.3
301(9) 0.01201 276.1 28.4
289(9) 0.01193 276.1 28.6
343(10) 0.00949 276.1 28.9
299(9) 0.01204 276.1 29.2
312(9) 0.01206 276.1 29.5
304(9) 0.01162 276.0 29.9
325(10) 0.01067 276.0 30.3
319(10) 0.01059 276.0 30.8
325(10) 0.01054 276.0 31.2
317(9) 0.01164 276.0 31.7
333(10) 0.01041 276.0 32.1
305(10) 0.01104 276.0 32.5
305(9) 0.01141 276.0 32.9
318(9) 0.01147 276.0 33.1
335(10) 0.01107 276.0 33.3
339(10) 0.00980 276.0 33.4
305(9) 0.01122 276.0 33.3
312(9) 0.01119 276.0 33.2
337(10) 0.01084 276.0 32.9
302(9) 0.01236 276.0 32.5
300(9) 0.01155 276.0 31.9
306(10) 0.01090 276.0 31.3
299(9) 0.01203 276.0 30.6
317(9) 0.01149 276.0 29.8
293(9) 0.01272 276.0 28.9
296(9) 0.01165 276.0 28.0
291(9) 0.01143 276.0 27.1
330(10) 0.01028 276.0 26.2
315(9) 0.01176 276.0 25.2
305(9) 0.01215 276.0 24.3
308(9) 0.01118 276.0 23.4
290(10) 0.01106 276.0 22.6
305(10) 0.01087 275.9 21.7
296(9) 0.01272 275.9 20.9
293(9) 0.01255 275.9 20.2
301(9) 0.01174 275.9 19.5
283(9) 0.01176 275.9 18.8
265(9) 0.01323 275.9 18.2
315(9) 0.01152 275.9 17.7
292(9) 0.01245 275.9 17.1
288(9) 0.01209 275.9 16.7
298(10) 0.01083 275.9 16.2
297(9) 0.01163 275.9 15.8
297(9) 0.01237 275.9 15.4
310(9) 0.01168 275.9 15.1
289(9) 0.01225 275.9 14.8
300(9) 0.01118 275.9 14.5
287(9) 0.01259 275.9 14.2
274(9) 0.01365 275.9 14.0
300(9) 0.01165 275.9 13.8
290(9) 0.01224 275.9 13.6
280(9) 0.01227 275.9 13.4
300(9) 0.01149 275.9 13.3
265(8) 0.01414 275.9 13.2
286(9) 0.01244 275.9 13.1
307(9) 0.01112 275.9 13.0
307(10) 0.01093 275.9 13.0
292(9) 0.01206 275.9 13.0
289(9) 0.01280 275.9 13.0
295(9) 0.01183 275.8 13.0
286(9) 0.01172 275.8 13.0
289(9) 0.01200 275.8 13.1
289(9) 0.01224 275.8 13.2
342(10) 0.01087 275.8 13.4
306(9) 0.01168 275.8 13.5
306(9) 0.01118 275.8 13.7
305(9) 0.01147 275.8 13.9
285(9) 0.01285 275.8 14.2
292(9) 0.01286 275.8 14.5
277(9) 0.01255 275.8 14.8
291(9) 0.01158 275.8 15.1
321(10) 0.01083 275.8 15.5
288(9) 0.01286 275.8 15.9
290(9) 0.01297 275.8 16.3
302(9) 0.01164 275.8 16.7
298(10) 0.01091 275.8 17.2
289(9) 0.01198 275.8 17.7
296(9) 0.01236 275.8 18.2
294(9) 0.01269 275.8 18.7
285(9) 0.01252 275.8 19.2
307(10) 0.01051 275.8 19.7
288(9) 0.01247 275.8 20.1
307(9) 0.01202 275.8 20.6
297(9) 0.01244 275.8 21.0
281(9) 0.01290 275.8 21.4
305(10) 0.01041 275.8 21.7
285(9) 0.01224 275.7 22.0
285(9) 0.01303 275.7 22.2
279(9) 0.01308 275.7 22.3
281(9) 0.01271 275.7 22.4
309(10) 0.01056 275.7 22.4
316(10) 0.01085 275.7 22.4
299(9) 0.01252 275.7 22.2
314(9) 0.01144 275.7 22.0
281(9) 0.01309 275.7 21.8
309(10) 0.01055 275.7 21.6
304(9) 0.01111 275.7 21.3
289(9) 0.01285 275.7 20.9
325(10) 0.01095 275.7 20.6
291(9) 0.01231 275.7 20.3
294(9) 0.01153 275.7 20.0
312(9) 0.01122 275.7 19.7
288(9) 0.01295 275.7 19.4
294(9) 0.01199 275.7 19.1
322(10) 0.01027 275.7 18.8
291(9) 0.01124 275.7 18.6
277(9) 0.01294 275.7 18.4
288(9) 0.01301 275.7 18.3
294(9) 0.01203 275.7 18.1
318(10) 0.01027 275.7 18.0
297(9) 0.01135 275.7 17.9
294(9) 0.01199 275.7 17.9
311(9) 0.01188 275.7 17.9
270(9) 0.01294 275.6 17.8
297(10) 0.01087 275.6 17.8
298(9) 0.01134 275.6 17.9
307(9) 0.01149 275.6 17.9
297(9) 0.01272 275.6 17.9
301(9) 0.01135 275.6 17.9
305(9) 0.01118 275.6 17.9
294(9) 0.01233 275.6 17.9
290(9) 0.01255 275.6 17.8
290(9) 0.01303 275.6 17.7
293(9) 0.01208 275.6 17.6
313(10) 0.01039 275.6 17.5
293(9) 0.01183 275.6 17.3
292(9) 0.01251 275.6 17.1
275(9) 0.01341 275.6 16.9
287(9) 0.01234 275.6 16.6
287(9) 0.01171 275.6 16.3
315(10) 0.01094 275.6 16.0
313(9) 0.01178 275.6 15.7
286(9) 0.01276 275.6 15.3
259(9) 0.01351 275.6 15.0
279(9) 0.01135 275.6 14.6
278(9) 0.01242 275.6 14.2
295(9) 0.01267 275.6 13.9
298(9) 0.01241 275.6 13.5
299(9) 0.01165 275.6 13.1
275(9) 0.01213 275.6 12.8
280(9) 0.01199 275.5 12.5
278(9) 0.01331 275.5 12.2
287(9) 0.01263 275.5 11.9
300(9) 0.01149 275.5 11.6
273(9) 0.01193 275.5 11.3
269(9) 0.01291 275.5 11.1
286(9) 0.01319 275.5 10.8
292(9) 0.01257 275.5 10.6
328(10) 0.01029 275.5 10.4
290(9) 0.01127 275.5 10.2
286(9) 0.01194 275.5 10.0
260(8) 0.01414 275.5 9.9
292(9) 0.01271 275.5 9.7
322(10) 0.01067 275.5 9.6
276(9) 0.01240 275.5 9.5
309(10) 0.01100 275.5 9.4
272(9) 0.01369 275.5 9.3
283(9) 0.01257 275.5 9.2
311(10) 0.01078 275.5 9.2
288(9) 0.01184 275.5 9.1
305(9) 0.01167 275.5 9.0
294(9) 0.01260 275.5 9.0
295(9) 0.01195 275.5 9.0
293(9) 0.01136 275.5 8.9
287(9) 0.01172 275.5 8.9
268(9) 0.01381 275.5 8.9
312(9) 0.01159 275.5 8.9
270(9) 0.01306 275.5 8.9
296(9) 0.01118 275.6 8.9
285(9) 0.01202 275.6 8.9
283(9) 0.01269 275.6 8.9
279(9) 0.01335 275.6 8.9
278(9) 0.01247 275.6 9.0
294(9) 0.01121 275.6 9.0
289(9) 0.01249 275.6 9.0
301(9) 0.01204 275.6 9.0
295(9) 0.01273 275.7 9.1
252(8) 0.01400 275.7 9.1
287(10) 0.01098 275.7 9.2
278(9) 0.01229 275.7 9.2
258(8) 0.01439 275.7 9.3
293(9) 0.01267 275.7 9.3
281(9) 0.01217 275.7 9.4
283(9) 0.01129 275.8 9.5
296(9) 0.01177 275.8 9.6
267(9) 0.01373 275.8 9.6
290(9) 0.01244 275.8 9.7
267(9) 0.01295 275.8 9.8
269(9) 0.01193 275.8 9.9
278(9) 0.01255 275.8 10.0
286(9) 0.01289 275.8 10.2
310(9) 0.01169 275.9 10.3
313(10) 0.01106 275.9 10.4
293(9) 0.01197 275.9 10.6
284(9) 0.01231 275.9 10.7
253(8) 0.01452 275.9 10.9
298(9) 0.01179 275.9 11.0
292(9) 0.01146 275.9 11.2
311(10) 0.01036 275.9 11.4
287(9) 0.01166 276.0 11.6
288(9) 0.01285 276.0 11.8
293(9) 0.01178 276.0 12.0
288(9) 0.01261 276.0 12.1
285(9) 0.01206 276.0 12.3
274(9) 0.01288 276.0 12.6
299(9) 0.01246 276.0 12.8
308(9) 0.01197 276.0 13.0
301(9) 0.01141 276.1 13.2
307(10) 0.01069 276.1 13.4
288(9) 0.01211 276.1 13.6
283(9) 0.01315 276.1 13.9
272(9) 0.01336 276.1 14.1
304(9) 0.01120 276.1 14.4
285(9) 0.01204 276.1 14.7
268(9) 0.01352 276.2 15.0
299(9) 0.01249 276.2 15.3
303(9) 0.01144 276.2 15.7
290(9) 0.01163 276.2 16.0
290(9) 0.01186 276.2 16.4
306(9) 0.01173 276.2 16.8
298(9) 0.01230 276.2 17.3
305(9) 0.01140 276.2 17.7
295(9) 0.01143 276.3 18.2
309(10) 0.01094 276.3 18.7
305(9) 0.01201 276.3 19.2
305(9) 0.01208 276.3 19.8
312(10) 0.01102 276.3 20.3
304(10) 0.01069 276.3 20.9
297(9) 0.01181 276.3 21.5
312(9) 0.01185 276.3 22.1
309(9) 0.01211 276.4 22.7
320(10) 0.01103 276.4 23.3
327(10) 0.01007 276.4 24.0
296(9) 0.01193 276.4 24.6
312(9) 0.01185 276.4 25.2
298(9) 0.01248 276.4 25.9
284(9) 0.01243 276.4 26.5
319(10) 0.00976 276.4 27.1
299(9) 0.01173 276.5 27.7
298(9) 0.01246 276.5 28.2
303(9) 0.01220 276.5 28.8
287(9) 0.01231 276.5 29.3
305(10) 0.01072 276.5 29.8
294(9) 0.01180 276.5 30.2
322(9) 0.01171 276.5 30.6
306(9) 0.01157 276.6 31.0
323(10) 0.01040 276.6 31.4
325(10) 0.01014 276.6 31.8
291(9) 0.01240 276.6 32.2
318(9) 0.01184 276.6 32.7
314(9) 0.01123 276.6 33.2
301(9) 0.01148 276.6 33.8
320(10) 0.01046 276.6 34.6
338(10) 0.00998 276.7 35.5
306(9) 0.01219 276.7 36.7
318(9) 0.01138 276.7 38.2
334(10) 0.01053 276.7 39.8
318(10) 0.01087 276.7 41.8
323(10) 0.01035 276.7 44.0
318(9) 0.01168 276.7 46.4
334(10) 0.01049 276.7 48.8
326(10) 0.00998 276.8 51.3
309(10) 0.01080 276.8 53.6
326(10) 0.01071 276.8 55.4
323(9) 0.01156 276.8 56.6
342(10) 0.00999 276.8 56.8
314(10) 0.01092 276.8 56.1
326(10) 0.01072 276.8 54.3
313(9) 0.01175 276.8 51.8
300(9) 0.01223 276.9 48.6
318(10) 0.01071 276.9 45.0
300(10) 0.01101 276.9 41.3
307(9) 0.01127 276.9 37.7
316(9) 0.01156 276.9 34.2
315(9) 0.01171 276.9 30.9
310(10) 0.01095 276.9 28.0
291(10) 0.01101 277.0 25.4
305(9) 0.01163 277.0 23.1
295(9) 0.01225 277.0 21.1
309(9) 0.01199 277.0 19.4
291(9) 0.01210 277.0 18.0
275(9) 0.01134 277.0 16.7
266(9) 0.01299 277.0 15.7
291(9) 0.01278 277.0 14.8
266(8) 0.01403 277.1 14.0
291(9) 0.01210 277.1 13.3
302(10) 0.01085 277.1 12.8
324(10) 0.01011 277.1 12.2
313(9) 0.01204 277.1 11.8
287(9) 0.01267 277.1 11.3
265(9) 0.01316 277.1 10.9
302(10) 0.01089 277.1 10.6
288(9) 0.01232 277.2 10.2
262(8) 0.01417 277.2 9.9
298(9) 0.01232 277.2 9.6
295(9) 0.01215 277.2 9.4
268(9) 0.01286 277.2 9.1
268(9) 0.01323 277.2 8.9
277(9) 0.01342 277.2 8.6
312(9) 0.01165 277.2 8.4
282(9) 0.01211 277.3 8.2
284(9) 0.01209 277.3 8.0
324(10) 0.01066 277.3 7.8
302(9) 0.01230 277.3 7.7
278(9) 0.01319 277.3 7.5
284(9) 0.01179 277.3 7.4
267(9) 0.01276 277.3 7.2
291(9) 0.01224 277.4 7.1
293(9) 0.01275 277.4 7.0
289(9) 0.01269 277.4 6.9
286(9) 0.01180 277.4 6.8
296(9) 0.01146 277.4 6.6
292(9) 0.01234 277.4 6.6
262(8) 0.01417 277.4 6.5
273(9) 0.01209 277.4 6.4
273(9) 0.01186 277.5 6.3
279(9) 0.01231 277.5 6.2
296(9) 0.01227 277.5 6.2
295(9) 0.01264 277.5 6.1
261(9) 0.01341 277.5 6.0
304(10) 0.01074 277.5 6.0
286(9) 0.01240 277.5 5.9
289(9) 0.01244 277.5 5.9
304(9) 0.01207 277.6 5.9
289(9) 0.01223 277.6 5.8
308(10) 0.01050 277.6 5.8
264(9) 0.01369 277.6 5.8
269(9) 0.01379 277.6 5.8
280(9) 0.01348 277.6 5.8
281(9) 0.01199 277.6 5.7
289(9) 0.01134 277.6 5.7
275(9) 0.01236 277.7 5.7
263(8) 0.01415 277.7 5.7
263(8) 0.01424 277.7 5.7
240(8) 0.01500 277.7 5.8
275(9) 0.01179 277.7 5.8
301(9) 0.01190 277.7 5.8
293(9) 0.01279 277.7 5.8
293(9) 0.01232 277.8 5.8
279(9) 0.01203 277.8 5.9
282(9) 0.01125 277.8 5.9
260(8) 0.01389 277.8 6.0
276(9) 0.01355 277.8 6.0
266(9) 0.01353 277.8 6.0
289(9) 0.01222 277.8 6.1
278(9) 0.01269 277.8 6.2
294(9) 0.01187 277.9 6.2
315(9) 0.01141 277.9 6.3
281(9) 0.01337 277.9 6.4
289(9) 0.01206 277.9 6.4
282(9) 0.01215 277.9 6.5
292(9) 0.01203 277.9 6.6
297(9) 0.01249 277.9 6.7
263(9) 0.01377 277.9 6.7
304(9) 0.01138 278.0 6.8
286(9) 0.01189 278.0 6.9
299(9) 0.01123 278.0 7.0
295(9) 0.01265 278.0 7.1
291(9) 0.01201 278.0 7.2
275(9) 0.01233 278.0 7.3
288(9) 0.01187 278.0 7.4
308(9) 0.01137 278.0 7.6
300(9) 0.01248 278.1 7.7
264(9) 0.01362 278.1 7.9
294(9) 0.01130 278.1 8.1
266(9) 0.01332 278.1 8.3
271(9) 0.01286 278.1 8.6
296(9) 0.01255 278.1 8.9
325(10) 0.01069 278.1 9.3
297(10) 0.01108 278.2 9.9
292(9) 0.01157 278.2 10.6
279(9) 0.01283 278.2 11.4
289(9) 0.01299 278.2 12.5
311(9) 0.01120 278.2 13.7
284(9) 0.01151 278.2 15.2
293(9) 0.01209 278.2 16.8
292(9) 0.01274 278.2 18.7
307(9) 0.01208 278.3 20.7
287(9) 0.01244 278.3 22.8
287(9) 0.01141 278.3 24.9
293(9) 0.01207 278.3 26.8
312(9) 0.01170 278.3 28.5
316(9) 0.01177 278.3 29.7
329(10) 0.01052 278.3 30.4
300(10) 0.01038 278.3 30.5
310(10) 0.01066 278.4 30.2
315(9) 0.01175 278.4 29.6
311(9) 0.01181 278.4 28.9
294(9) 0.01164 278.4 28.2
313(10) 0.01050 278.4 27.7
320(10) 0.01085 278.4 27.4
295(9) 0.01268 278.4 27.4
286(9) 0.01287 278.4 27.6
318(10) 0.01042 278.5 28.2
306(10) 0.01038 278.5 29.1
306(9) 0.01144 278.5 30.1
324(9) 0.01141 278.5 31.1
317(9) 0.01134 278.5 32.1
300(9) 0.01161 278.5 32.9
302(9) 0.01147 278.5 33.4
320(10) 0.01039 278.6 33.4
302(9) 0.01230 278.6 32.9
317(9) 0.01129 278.6 31.9
311(10) 0.01101 278.6 30.5
293(9) 0.01158 278.6 28.8
297(9) 0.01190 278.6 26.9
288(9) 0.01293 278.6 25.0
303(9) 0.01191 278.6 23.0
294(9) 0.01181 278.7 21.1
285(9) 0.01213 278.7 19.3
276(9) 0.01247 278.7 17.6
310(9) 0.01204 278.7 16.1
318(10) 0.01067 278.7 14.7
298(9) 0.01144 278.7 13.5
287(9) 0.01133 278.7 12.5
291(9) 0.01226 278.7 11.5
300(9) 0.01237 278.8 10.7
307(10) 0.01066 278.8 10.0
280(9) 0.01199 278.8 9.5
277(9) 0.01208 278.8 9.0
274(9) 0.01304 278.8 8.6
284(9) 0.01315 278.8 8.2
290(9) 0.01217 278.8 7.9
300(9) 0.01134 278.8 7.6
310(10) 0.01096 278.9 7.4
284(9) 0.01289 278.9 7.2
282(9) 0.01336 278.9 7.1
275(9) 0.01277 278.9 6.9
286(9) 0.01122 278.9 6.8
279(9) 0.01234 278.9 6.7
276(9) 0.01347 278.9 6.6
282(9) 0.01295 279.0 6.5
280(9) 0.01201 279.0 6.5
301(10) 0.01072 279.0 6.5
295(9) 0.01198 279.0 6.4
305(9) 0.01197 279.0 6.5
276(9) 0.01336 279.0 6.5
295(9) 0.01164 279.0 6.5
301(10) 0.01067 279.0 6.6
283(9) 0.01249 279.1 6.7
295(9) 0.01264 279.1 6.8
294(9) 0.01250 279.1 6.8
273(9) 0.01296 279.1 6.9
312(10) 0.01035 279.1 7.0
274(9) 0.01288 279.1 7.0
262(8) 0.01430 279.1 6.9
296(9) 0.01249 279.1 6.8
313(10) 0.01073 279.2 6.6
276(9) 0.01240 279.2 6.5
264(9) 0.01328 279.2 6.3
279(9) 0.01336 279.2 6.1
281(9) 0.01268 279.2 5.9
279(9) 0.01224 279.2 5.7
275(9) 0.01229 279.2 5.5
273(9) 0.01254 279.3 5.3
307(9) 0.01227 279.3 5.2
287(9) 0.01235 279.3 5.1
284(9) 0.01163 279.3 5.0
271(9) 0.01236 279.3 5.0
284(9) 0.01223 279.3 4.9
257(8) 0.01435 279.3 4.9
305(9) 0.01191 279.3 4.9
294(9) 0.01195 279.4 4.9
275(9) 0.01327 279.4 4.9
284(9) 0.01215 279.4 4.9
286(9) 0.01308 279.4 4.9
286(9) 0.01208 279.4 4.9
286(9) 0.01153 279.4 5.0
300(9) 0.01150 279.4 5.1
313(9) 0.01156 279.4 5.1
295(9) 0.01271 279.5 5.2
280(9) 0.01234 279.5 5.3
280(9) 0.01201 279.5 5.4
298(9) 0.01165 279.5 5.5
285(9) 0.01277 279.5 5.6
284(9) 0.01319 279.5 5.7
287(9) 0.01216 279.5 5.7
288(9) 0.01141 279.5 5.8
283(9) 0.01259 279.6 5.8
273(9) 0.01378 279.6 5.8
296(9) 0.01241 279.6 5.8
298(9) 0.01150 279.6 5.8
294(10) 0.01093 279.6 5.7
293(9) 0.01163 279.6 5.7
277(9) 0.01347 279.6 5.6
288(9) 0.01297 279.7 5.5
302(9) 0.01168 279.7 5.4
283(9) 0.01165 279.7 5.3
275(9) 0.01228 279.7 5.3
269(8) 0.01395 279.7 5.2
305(9) 0.01189 279.7 5.1
316(9) 0.01119 279.7 5.1
282(9) 0.01183 279.7 5.1
289(9) 0.01208 279.8 5.0
261(8) 0.01443 279.8 5.0
269(9) 0.01359 279.9 5.0
280(9) 0.01226 280.0 5.0
268(9) 0.01236 280.1 5.1
285(9) 0.01214 280.2 5.1
293(9) 0.01259 280.2 5.1
310(9) 0.01157 280.3 5.2
276(9) 0.01240 280.4 5.3
291(9) 0.01124 280.5 5.3
296(9) 0.01172 280.6 5.4
300(9) 0.01238 280.7 5.5
303(9) 0.01146 280.8 5.6
296(9) 0.01126 280.8 5.8
270(9) 0.01282 280.9 5.9
283(9) 0.01197 281.0 6.1
287(9) 0.01297 281.1 6.3
276(9) 0.01281 281.2 6.5
292(9) 0.01144 281.3 6.7
299(9) 0.01119 281.4 6.9
279(9) 0.01271 281.5 7.2
288(9) 0.01278 281.5 7.5
301(9) 0.01132 281.6 7.8
289(9) 0.01163 281.7 8.1
264(9) 0.01318 281.8 8.5
302(9) 0.01203 281.9 8.9
279(9) 0.01338 282.0 9.3
301(9) 0.01161 282.1 9.7
312(10) 0.01071 282.1 10.1
281(9) 0.01258 282.2 10.5
284(9) 0.01301 282.3 10.9
279(9) 0.01307 282.4 11.2
278(9) 0.01271 282.5 11.5
279(9) 0.01172 282.6 11.8
285(9) 0.01211 282.7 11.9
311(9) 0.01171 282.8 12.1
287(9) 0.01301 282.8 12.1
268(9) 0.01304 282.9 12.1
258(9) 0.01292 283.0 12.1
295(9) 0.01168 283.1 12.0
301(9) 0.01235 283.2 11.9
304(9) 0.01211 283.3 11.9
287(9) 0.01272 283.4 11.8
278(9) 0.01202 283.4 11.7
299(9) 0.01162 283.5 11.6
272(9) 0.01379 283.6 11.6
258(8) 0.01418 283.7 11.6
281(9) 0.01255 283.8 11.6
285(9) 0.01160 283.9 11.6
286(9) 0.01302 284.0 11.6
304(9) 0.01194 284.1 11.7
301(9) 0.01171 284.1 11.8
292(9) 0.01154 284.2 11.9
299(9) 0.01176 284.3 12.0
313(9) 0.01182 284.4 12.1
284(9) 0.01301 284.5 12.2
286(9) 0.01192 284.6 12.4
282(9) 0.01114 284.7 12.5
306(10) 0.01098 284.8 12.7
303(9) 0.01218 284.8 12.8
267(9) 0.01345 284.9 12.9
269(9) 0.01243 285.0 13.1
274(9) 0.01197 285.1 13.2
287(9) 0.01242 285.2 13.4
299(9) 0.01259 285.3 13.6
317(9) 0.01142 285.4 13.7
302(9) 0.01151 285.4 13.9
280(9) 0.01237 285.5 14.1
291(9) 0.01207 285.6 14.3
284(9) 0.01309 285.7 14.5
302(9) 0.01183 285.8 14.8
316(10) 0.01088 285.9 15.0
292(9) 0.01213 286.0 15.2
288(9) 0.01272 286.1 15.5
314(9) 0.01186 286.1 15.7
314(10) 0.01072 286.2 15.9
311(10) 0.01042 286.3 16.1
303(10) 0.01092 286.4 16.2
313(9) 0.01129 286.5 16.4
290(9) 0.01292 286.6 16.5
295(9) 0.01213 286.7 16.6
288(9) 0.01152 286.7 16.7
302(10) 0.01099 286.8 16.8
275(9) 0.01306 286.9 16.9
283(9) 0.01303 287.0 17.0
301(9) 0.01127 287.1 17.1
330(11) 0.00899 287.2 17.3
302(9) 0.01135 287.3 17.5
304(9) 0.01206 287.4 17.7
302(9) 0.01215 287.4 17.9
315(10) 0.01093 287.5 18.2
281(9) 0.01143 287.6 18.4
303(10) 0.01108 287.7 18.7
296(9) 0.01243 287.8 19.0
337(10) 0.01104 287.9 19.3
321(10) 0.01063 288.0 19.6
306(10) 0.01064 288.1 19.9
304(9) 0.01163 288.1 20.2
288(9) 0.01284 288.2 20.4
300(9) 0.01204 288.3 20.6
306(9) 0.01118 288.4 20.8
301(10) 0.01091 288.5 21.0
275(9) 0.01264 288.6 21.1
294(9) 0.01271 288.7 21.3
313(9) 0.01168 288.7 21.3
315(10) 0.01086 288.8 21.4
297(9) 0.01112 288.9 21.3
283(9) 0.01185 289.0 21.3
292(9) 0.01263 289.1 21.2
290(9) 0.01264 289.2 21.0
311(9) 0.01135 289.3 20.8
297(9) 0.01168 289.4 20.5
322(10) 0.01059 289.4 20.2
317(9) 0.01185 289.5 19.8
308(9) 0.01143 289.6 19.4
310(10) 0.01089 289.7 19.0
293(9) 0.01179 289.8 18.5
292(9) 0.01205 289.9 18.1
278(9) 0.01342 290.0 17.6
281(9) 0.01256 290.0 17.1
285(9) 0.01165 290.1 16.6
286(9) 0.01198 290.2 16.2
302(9) 0.01182 290.3 15.7
300(9) 0.01236 290.4 15.3
303(9) 0.01183 290.5 14.8
312(10) 0.01076 290.6 14.4
284(9) 0.01241 290.7 14.0
286(9) 0.01295 290.7 13.6
304(9) 0.01201 290.8 13.2
296(9) 0.01179 290.9 12.9
282(9) 0.01210 290.9 12.5
288(9) 0.01232 291.0 12.2
271(9) 0.01367 291.0 11.9
318(9) 0.01143 291.0 11.6
288(9) 0.01222 291.0 11.3
286(9) 0.01164 291.0 11.0
306(9) 0.01128 291.0 10.8
278(9) 0.01345 291.1 10.5
280(9) 0.01344 291.1 10.3
290(9) 0.01150 291.1 10.1
284(10) 0.01087 291.1 9.9
283(9) 0.01222 291.1 9.7
301(9) 0.01217 291.1 9.6
291(9) 0.01253 291.2 9.4
307(9) 0.01139 291.2 9.2
299(10) 0.01102 291.2 9.1
297(9) 0.01195 291.2 9.0
290(9) 0.01294 291.2 8.9
262(8) 0.01405 291.2 8.8
291(9) 0.01203 291.2 8.7
311(10) 0.01003 291.3 8.6
272(9) 0.01259 291.3 8.5
290(9) 0.01284 291.3 8.4
326(9) 0.01111 291.3 8.3
280(9) 0.01275 291.3 8.3
277(9) 0.01188 291.3 8.2
281(9) 0.01219 291.4 8.2
279(9) 0.01354 291.4 8.2
282(9) 0.01300 291.4 8.1
271(9) 0.01284 291.4 8.1
301(10) 0.01080 291.4 8.1
286(9) 0.01183 291.4 8.1
294(9) 0.01271 291.5 8.1
272(9) 0.01334 291.5 8.2
299(9) 0.01156 291.5 8.2
276(9) 0.01235 291.5 8.3
285(9) 0.01221 291.5 8.4
310(9) 0.01190 291.5 8.5
306(9) 0.01146 291.6 8.6
304(9) 0.01160 291.6 8.8
310(10) 0.01107 291.6 9.0
307(9) 0.01153 291.6 9.3
267(8) 0.01388 291.6 9.7
307(9) 0.01159 291.6 10.1
309(10) 0.01089 291.7 10.6
291(9) 0.01153 291.7 11.2
272(9) 0.01341 291.7 11.8
319(9) 0.01171 291.7 12.5
298(9) 0.01139 291.7 13.3
288(9) 0.01177 291.7 14.2
314(10) 0.01089 291.7 15.1
300(9) 0.01185 291.8 15.9
296(9) 0.01237 291.8 16.7
302(10) 0.01091 291.8 17.5
277(9) 0.01215 291.8 18.0
293(9) 0.01202 291.8 18.4
315(9) 0.01165 291.8 18.5
296(9) 0.01262 291.9 18.3
302(9) 0.01143 291.9 18.0
293(10) 0.01101 291.9 17.4
318(10) 0.01093 291.9 16.8
293(9) 0.01262 291.9 16.0
275(9) 0.01357 291.9 15.3
285(9) 0.01230 292.0 14.5
286(10) 0.01094 292.0 13.9
287(9) 0.01216 292.0 13.3
283(9) 0.01310 292.0 12.7
279(9) 0.01273 292.0 12.3
269(9) 0.01307 292.0 12.0
315(10) 0.01011 292.1 11.7
291(9) 0.01185 292.1 11.5
287(9) 0.01307 292.1 11.5
315(9) 0.01166 292.1 11.5
313(9) 0.01120 292.1 11.6
282(9) 0.01162 292.1 11.7
267(9) 0.01302 292.2 11.9
282(9) 0.01314 292.2 12.2
266(9) 0.01382 292.2 12.6
287(9) 0.01249 292.2 13.0
306(9) 0.01135 292.2 13.5
289(9) 0.01241 292.2 14.0
298(9) 0.01249 292.2 14.6
280(9) 0.01303 292.3 15.2
304(9) 0.01149 292.3 15.8
305(10) 0.01091 292.3 16.5
300(9) 0.01169 292.3 17.2
311(9) 0.01193 292.3 17.8
303(9) 0.01206 292.3 18.4
293(9) 0.01222 292.4 18.9
306(10) 0.01097 292.4 19.3
317(10) 0.01089 292.4 19.6
329(9) 0.01118 292.4 19.9
307(9) 0.01126 292.4 20.0
290(9) 0.01132 292.4 20.2
284(9) 0.01203 292.5 20.2
301(9) 0.01209 292.5 20.3
296(9) 0.01252 292.5 20.4
307(10) 0.01096 292.5 20.6
300(9) 0.01121 292.5 20.8
326(10) 0.01031 292.5 21.0
298(9) 0.01224 292.6 21.4
310(9) 0.01222 292.6 21.8
325(10) 0.01081 292.6 22.3
347(10) 0.00923 292.6 22.9
293(9) 0.01183 292.6 23.6
300(9) 0.01212 292.6 24.5
295(9) 0.01281 292.7 25.5
308(10) 0.01105 292.7 26.7
314(10) 0.01042 292.7 28.0
317(10) 0.01106 292.7 29.5
346(10) 0.01056 292.7 31.2
337(10) 0.01099 292.7 33.2
336(10) 0.01017 292.7 35.3
331(10) 0.00946 292.8 37.6
331(10) 0.01046 292.8 40.1
327(9) 0.01132 292.8 42.7
318(9) 0.01163 292.8 45.4
347(10) 0.00992 292.8 48.0
332(10) 0.00994 292.8 50.6
307(9) 0.01168 292.9 52.9
306(9) 0.01203 292.9 54.9
365(10) 0.01010 292.9 56.4
360(10) 0.00933 292.9 57.4
325(10) 0.01031 292.9 57.9
329(10) 0.01028 292.9 58.0
321(9) 0.01151 293.0 57.7
322(9) 0.01129 293.0 57.2
322(10) 0.01102 293.0 56.5
357(11) 0.00907 293.0 55.6
337(10) 0.01058 293.0 54.7
343(10) 0.01083 293.0 53.8
343(10) 0.01036 293.1 52.9
328(10) 0.01018 293.1 52.1
315(10) 0.01100 293.1 51.5
354(10) 0.00980 293.1 51.2
325(9) 0.01139 293.1 51.1
315(9) 0.01167 293.1 51.3
321(10) 0.01073 293.2 51.7
323(10) 0.01034 293.2 52.4
314(9) 0.01128 293.2 53.4
325(9) 0.01150 293.2 54.6
325(10) 0.01089 293.2 56.1
341(10) 0.00975 293.2 57.7
361(10) 0.00942 293.2 59.5
357(10) 0.00985 293.3 61.4
372(10) 0.01012 293.3 63.3
338(10) 0.01004 293.3 65.3
327(10) 0.01023 293.3 67.3
333(10) 0.01039 293.3 69.3
324(9) 0.01139 293.3 71.2
317(9) 0.01163 293.4 72.8
334(10) 0.01028 293.4 74.2
383(11) 0.00852 293.4 75.3
395(11) 0.00846 293.4 75.9
365(10) 0.00987 293.4 76.1
355(10) 0.01050 293.4 75.7
360(10) 0.00983 293.5 74.7
356(10) 0.00920 293.5 73.3
344(10) 0.00973 293.5 71.3
328(9) 0.01135 293.5 69.0
329(9) 0.01133 293.5 66.4
329(10) 0.01081 293.5 63.6
361(11) 0.00859 293.6 60.7
338(10) 0.01056 293.6 57.7
317(9) 0.01178 293.6 54.8
304(9) 0.01209 293.6 52.0
325(10) 0.01050 293.6 49.3
313(10) 0.01056 293.6 46.8
339(10) 0.01007 293.7 44.4
340(10) 0.01094 293.7 42.3
321(9) 0.01123 293.7 40.4
349(10) 0.00993 293.7 38.7
319(10) 0.01011 293.7 37.2
326(10) 0.01043 293.7 35.8
299(9) 0.01259 293.7 34.7
298(9) 0.01190 293.8 33.6
313(10) 0.01032 293.8 32.7
332(10) 0.00968 293.8 31.8
317(10) 0.01060 293.8 31.0
301(9) 0.01203 293.8 30.2
324(9) 0.01129 293.8 29.4
334(10) 0.01030 293.9 28.7
347(10) 0.00983 293.9 28.0
311(9) 0.01122 293.9 27.4
294(9) 0.01265 293.9 26.8
304(9) 0.01191 293.9 26.2
284(9) 0.01236 293.9 25.7
306(9) 0.01115 294.0 25.2
323(10) 0.01080 294.0 24.7
299(9) 0.01241 294.0 24.3
302(9) 0.01182 294.0 23.9
334(10) 0.01052 294.0 23.6
280(9) 0.01298 294.0 23.2
300(9) 0.01156 294.1 22.8
332(9) 0.01117 294.1 22.5
304(9) 0.01112 294.1 22.1
311(10) 0.01084 294.1 21.8
298(9) 0.01146 294.1 21.4
295(9) 0.01171 294.1 21.1
318(9) 0.01173 294.1 20.8
319(10) 0.01073 294.2 20.5
284(9) 0.01205 294.2 20.2
307(9) 0.01140 294.2 20.0
286(9) 0.01273 294.2 19.8
326(9) 0.01142 294.2 19.7
295(9) 0.01190 294.2 19.7
300(9) 0.01126 294.3 19.8
339(10) 0.01009 294.3 19.9
310(9) 0.01197 294.3 20.2
299(9) 0.01228 294.3 20.6
326(10) 0.01054 294.3 21.1
321(10) 0.01011 294.3 21.7
288(9) 0.01230 294.4 22.5
309(9) 0.01198 294.4 23.3
322(9) 0.01147 294.4 24.3
335(10) 0.01042 294.4 25.4
323(10) 0.01012 294.4 26.5
332(10) 0.01065 294.4 27.8
308(9) 0.01208 294.5 29.1
308(9) 0.01191 294.5 30.3
321(10) 0.01089 294.5 31.6
336(10) 0.00975 294.5 32.7
350(10) 0.00965 294.5 33.7
330(9) 0.01131 294.5 34.4
338(10) 0.01075 294.6 34.9
331(10) 0.01034 294.6 35.1
334(10) 0.00967 294.6 35.0
320(10) 0.01044 294.6 34.7
329(9) 0.01138 294.6 34.2
330(10) 0.01105 294.6 33.5
312(9) 0.01124 294.6 32.6
307(10) 0.01105 294.7 31.7
330(10) 0.01082 294.7 30.8
315(9) 0.01169 294.7 29.8
330(10) 0.01073 294.7 28.8
323(10) 0.01102 294.7 27.8
323(10) 0.01051 294.7 26.8
313(9) 0.01127 294.8 25.9
329(9) 0.01125 294.8 25.0
325(9) 0.01114 294.8 24.2
312(10) 0.01060 294.8 23.4
315(10) 0.01089 294.8 22.7
320(9) 0.01128 294.8 22.1
322(9) 0.01147 294.9 21.6
301(9) 0.01154 294.9 21.2
333(10) 0.01036 294.9 20.8
332(10) 0.01059 294.9 20.6
303(9) 0.01208 294.9 20.4
310(9) 0.01189 294.9 20.4
311(9) 0.01119 295.0 20.4
320(10) 0.01010 295.0 20.6
331(10) 0.01005 295.0 20.8
314(9) 0.01168 295.0 21.2
310(9) 0.01199 295.0 21.6
310(10) 0.01062 295.0 22.1
317(10) 0.00995 295.1 22.7
311(10) 0.01102 295.1 23.4
318(9) 0.01170 295.1 24.1
319(9) 0.01159 295.1 25.0
339(10) 0.01029 295.1 25.8
310(10) 0.01085 295.1 26.7
326(10) 0.01058 295.1 27.5
330(9) 0.01114 295.2 28.3
321(9) 0.01159 295.2 29.1
319(9) 0.01138 295.2 29.7
307(10) 0.01059 295.2 30.2
307(9) 0.01132 295.2 30.6
321(9) 0.01161 295.2 30.9
335(10) 0.01063 295.3 31.1
306(9) 0.01162 295.3 31.1
285(9) 0.01182 295.3 31.1
332(10) 0.01028 295.3 31.0
333(9) 0.01118 295.3 30.8
311(9) 0.01181 295.3 30.6
325(10) 0.01077 295.4 30.5
317(10) 0.01040 295.4 30.3
308(10) 0.01096 295.4 30.1
324(9) 0.01163 295.4 29.9
327(10) 0.01081 295.4 29.7
305(9) 0.01170 295.4 29.4
293(9) 0.01207 295.5 29.0
316(10) 0.01097 295.5 28.5
340(10) 0.01099 295.5 27.9
356(10) 0.01002 295.5 27.1
320(10) 0.01095 295.5 26.3
330(10) 0.00998 295.5 25.4
331(10) 0.01046 295.6 24.4
317(9) 0.01184 295.6 23.3
333(10) 0.01074 295.6 22.3
355(10) 0.00970 295.6 21.2
327(10) 0.01076 295.6 20.2
358(10) 0.00979 295.6 19.2
330(9) 0.01122 295.6 18.2
286(9) 0.01284 295.7 17.4
305(9) 0.01138 295.7 16.5
331(10) 0.01057 295.7 15.8
296(9) 0.01220 295.7 15.1
280(9) 0.01321 295.7 14.5
311(9) 0.01128 295.7 13.9
295(9) 0.01149 295.8 13.5
297(9) 0.01195 295.8 13.0
299(9) 0.01241 295.8 12.7
309(9) 0.01194 295.8 12.4
288(9) 0.01263 295.8 12.2
292(9) 0.01153 295.8 12.0
299(9) 0.01170 295.9 11.9
298(9) 0.01229 295.9 11.8
296(9) 0.01252 295.9 11.8
314(10) 0.01075 295.9 11.8
284(10) 0.01097 295.9 11.9
298(9) 0.01149 295.9 12.1
325(9) 0.01129 296.0 12.3
310(9) 0.01200 296.0 12.6
319(10) 0.01079 296.0 12.9
299(10) 0.01071 296.0 13.3
281(9) 0.01268 296.0 13.7
293(9) 0.01265 296.0 14.2
311(9) 0.01194 296.1 14.8
330(10) 0.01093 296.1 15.4
314(10) 0.01037 296.1 16.0
322(10) 0.01068 296.1 16.7
337(10) 0.01107 296.1 17.5
311(9) 0.01162 296.1 18.2
309(10) 0.01105 296.1 19.0
311(10) 0.01074 296.2 19.8
314(9) 0.01116 296.2 20.6
302(9) 0.01241 296.2 21.4
317(9) 0.01151 296.2 22.1
289(9) 0.01224 296.2 22.7
304(9) 0.01141 296.2 23.2
317(9) 0.01130 296.3 23.6
323(9) 0.01160 296.3 23.8
324(9) 0.01140 296.3 23.9
308(9) 0.01110 296.3 23.8
318(10) 0.01082 296.3 23.5
328(10) 0.01102 296.3 23.2
323(9) 0.01144 296.4 22.7
318(9) 0.01126 296.4 22.2
329(10) 0.01042 296.4 21.6
313(10) 0.01076 296.4 21.1
304(9) 0.01136 296.4 20.5
286(9) 0.01308 296.4 20.0
314(10) 0.01094 296.5 19.5
295(9) 0.01136 296.5 19.0
292(9) 0.01192 296.5 18.7
311(9) 0.01154 296.5 18.4
305(9) 0.01219 296.5 18.1
300(9) 0.01176 296.5 18.0
336(10) 0.01007 296.6 17.9
298(9) 0.01183 296.6 17.8
319(9) 0.01118 296.6 17.7
305(9) 0.01214 296.6 17.7
301(9) 0.01139 296.6 17.7
309(10) 0.01029 296.6 17.6
297(9) 0.01149 296.6 17.5
301(9) 0.01193 296.7 17.3
312(9) 0.01188 296.7 17.2
346(10) 0.00991 296.7 16.9
299(10) 0.01072 296.7 16.7
288(9) 0.01126 296.7 16.5
283(9) 0.01311 296.7 16.3
315(9) 0.01187 296.8 16.1
309(10) 0.01080 296.8 16.0
307(10) 0.01031 296.8 15.9
304(9) 0.01130 296.8 15.9
295(9) 0.01245 296.8 15.9
318(9) 0.01146 296.8 16.0
322(10) 0.01093 296.9 16.1
335(10) 0.00962 296.9 16.3
311(9) 0.01109 296.9 16.4
297(9) 0.01244 296.9 16.5
298(9) 0.01224 296.9 16.6
294(10) 0.01102 296.9 16.6
277(9) 0.01182 297.0 16.6
313(10) 0.01098 297.0 16.5
308(9) 0.01187 297.0 16.2
307(9) 0.01179 297.0 15.9
289(9) 0.01206 297.0 15.5
319(10) 0.01042 297.0 15.0
309(9) 0.01123 297.1 14.4
294(9) 0.01235 297.1 13.8
314(9) 0.01157 297.1 13.2
340(10) 0.00985 297.1 12.6
317(10) 0.01019 297.1 12.1
297(9) 0.01185 297.1 11.5
304(9) 0.01224 297.1 11.0
298(9) 0.01172 297.2 10.6
263(9) 0.01275 297.2 10.2
286(9) 0.01168 297.2 9.8
302(9) 0.01182 297.2 9.5
296(9) 0.01247 297.2 9.2
277(9) 0.01250 297.2 9.0
277(9) 0.01152 297.3 8.8
284(9) 0.01181 297.3 8.7
317(10) 0.01106 297.3 8.6
305(9) 0.01220 297.3 8.5
290(9) 0.01171 297.3 8.5
297(9) 0.01151 297.3 8.5
313(10) 0.01099 297.4 8.6
289(9) 0.01282 297.4 8.7
277(9) 0.01325 297.4 8.8
312(9) 0.01121 297.4 8.9
299(10) 0.01106 297.4 9.1
284(9) 0.01234 297.5 9.3
294(9) 0.01234 297.5 9.5
307(9) 0.01213 297.5 9.8
298(9) 0.01179 297.5 10.1
293(9) 0.01122 297.5 10.4
288(9) 0.01222 297.6 10.7
296(9) 0.01252 297.6 11.1
302(9) 0.01248 297.6 11.4
307(9) 0.01145 297.6 11.8
303(9) 0.01113 297.6 12.3
289(9) 0.01244 297.7 12.7
297(9) 0.01253 297.7 13.1
295(9) 0.01255 297.7 13.5
294(9) 0.01195 297.7 13.9
306(10) 0.01068 297.7 14.3
320(10) 0.01094 297.8 14.7
322(9) 0.01166 297.8 15.0
315(9) 0.01189 297.8 15.3
328(10) 0.01049 297.8 15.6
300(10) 0.01107 297.8 15.8
311(9) 0.01127 297.9 15.9
282(9) 0.01315 297.9 16.1
302(9) 0.01223 297.9 16.2
292(9) 0.01206 297.9 16.3
304(10) 0.01077 297.9 16.4
304(10) 0.01082 298.0 16.6
323(9) 0.01156 298.0 16.7
308(9) 0.01187 298.0 16.8
294(9) 0.01189 298.0 17.0
290(9) 0.01173 298.0 17.2
291(9) 0.01158 298.1 17.4
304(9) 0.01218 298.1 17.6
337(10) 0.01083 298.1 17.9
308(9) 0.01123 298.1 18.1
292(9) 0.01185 298.1 18.4
322(10) 0.01075 298.2 18.6
298(9) 0.01241 298.2 18.8
324(9) 0.01118 298.2 19.1
319(10) 0.01104 298.2 19.3
311(10) 0.01085 298.2 19.4
276(9) 0.01300 298.3 19.6
308(9) 0.01220 298.3 19.8
308(9) 0.01146 298.3 20.0
318(10) 0.01056 298.3 20.2
332(10) 0.01035 298.3 20.4
327(10) 0.01103 298.4 20.7
322(9) 0.01143 298.4 21.0
287(9) 0.01218 298.4 21.4
304(9) 0.01145 298.4 21.9
314(9) 0.01137 298.4 22.4
313(9) 0.01172 298.5 23.0
290(9) 0.01284 298.5 23.6
297(9) 0.01155 298.5 24.4
307(10) 0.01076 298.5 25.1
324(10) 0.01077 298.5 26.0
328(10) 0.01101 298.6 26.9
313(9) 0.01184 298.6 27.8
305(9) 0.01174 298.6 28.7
365(11) 0.00863 298.6 29.7
353(10) 0.00955 298.6 30.6
299(9) 0.01252 298.7 31.5
295(9) 0.01228 298.7 32.4
317(10) 0.01064 298.7 33.1
335(10) 0.00930 298.7 33.8
314(10) 0.01100 298.7 34.3
331(9) 0.01109 298.8 34.7
319(9) 0.01161 298.8 35.0
333(10) 0.01015 298.8 35.0
304(9) 0.01124 298.8 34.9
345(10) 0.01031 298.8 34.7
339(9) 0.01114 298.9 34.3
331(10) 0.01098 298.9 33.7
349(10) 0.01001 298.9 33.1
337(10) 0.01000 298.9 32.4
343(10) 0.01028 298.9 31.6
319(9) 0.01163 298.9 30.8
329(9) 0.01118 299.0 30.0
307(9) 0.01135 299.0 29.2
300(10) 0.01081 299.0 28.4
321(10) 0.01078 299.0 27.6
323(9) 0.01141 299.0 26.8
330(10) 0.01097 299.1 26.1
333(10) 0.01009 299.1 25.5
321(10) 0.01031 299.1 24.9
291(9) 0.01184 299.1 24.3
309(9) 0.01197 299.1 23.8
320(10) 0.01088 299.2 23.3
314(10) 0.01099 299.2 22.9
305(9) 0.01161 299.2 22.5
307(9) 0.01171 299.2 22.1
312(9) 0.01197 299.2 21.8
314(10) 0.01088 299.3 21.4
327(10) 0.01013 299.3 21.1
322(10) 0.01064 299.3 20.8
310(9) 0.01195 299.3 20.4
311(9) 0.01195 299.3 20.1
321(10) 0.01075 299.4 19.7
324(10) 0.01045 299.4 19.3
322(10) 0.01095 299.4 18.9
354(10) 0.01014 299.4 18.5
325(9) 0.01144 299.4 18.0
318(10) 0.01091 299.5 17.6
313(10) 0.01058 299.5 17.1
304(9) 0.01153 299.5 16.6
320(9) 0.01154 299.5 16.1
303(9) 0.01235 299.5 15.6
322(10) 0.01039 299.6 15.1
325(10) 0.01002 299.6 14.7
307(10) 0.01090 299.6 14.2
299(9) 0.01248 299.6 13.7
295(9) 0.01250 299.6 13.3
315(9) 0.01120 299.7 12.9
326(10) 0.00967 299.7 12.4
292(9) 0.01168 299.7 12.1
317(9) 0.01148 299.7 11.7
335(9) 0.01110 299.7 11.3
299(9) 0.01152 299.8 11.0
280(9) 0.01172 299.8 10.7
311(10) 0.01098 299.8 10.4
304(9) 0.01233 299.8 10.1
310(9) 0.01162 299.8 9.9
322(10) 0.01061 299.9 9.6
321(10) 0.00985 299.9 9.4
298(9) 0.01171 299.9 9.2
311(9) 0.01192 299.9 9.0
319(9) 0.01143 299.9 8.9
322(10) 0.01041 300.0 8.7
327(10) 0.00997 300.0 8.6
314(10) 0.01107 300.0 8.4
285(9) 0.01309 300.0 8.3
296(9) 0.01209 300.0 8.2
318(10) 0.01050 300.1 8.1
298(9) 0.01123 300.1 8.1
311(10) 0.01068 300.1 8.0
304(9) 0.01219 300.1 7.9
284(9) 0.01269 300.1 7.9
291(9) 0.01221 300.2 7.8
281(9) 0.01255 300.2 7.8
303(9) 0.01190 300.2 7.8
304(9) 0.01212 300.2 7.7
302(9) 0.01156 300.2 7.7
303(9) 0.01113 300.3 7.6
322(10) 0.01053 300.3 7.6
307(9) 0.01188 300.3 7.6
291(9) 0.01262 300.3 7.6
291(9) 0.01156 300.3 7.6
272(9) 0.01285 300.4 7.5
310(10) 0.01099 300.4 7.6
304(9) 0.01204 300.4 7.6
321(9) 0.01162 300.4 7.6
332(10) 0.01034 300.4 7.7
306(10) 0.01104 300.5 7.8
306(9) 0.01147 300.5 7.9
314(9) 0.01165 300.5 8.1
327(9) 0.01119 300.5 8.3
302(9) 0.01158 300.5 8.6
309(10) 0.01046 300.6 8.9
309(10) 0.01101 300.6 9.3
315(9) 0.01178 300.6 9.8
331(9) 0.01108 300.6 10.3
322(9) 0.01113 300.6 10.9
319(10) 0.01026 300.6 11.6
327(10) 0.01056 300.7 12.3
323(9) 0.01165 300.7 13.1
294(9) 0.01263 300.7 14.0
334(10) 0.01020 300.7 14.8
315(10) 0.01042 300.7 15.7
332(10) 0.01054 300.8 16.6
341(10) 0.01089 300.8 17.4
312(9) 0.01180 300.8 18.1
335(10) 0.01023 300.8 18.7
311(10) 0.01059 300.8 19.2
327(10) 0.01048 300.9 19.6
327(9) 0.01139 300.9 19.7
324(9) 0.01126 300.9 19.7
316(9) 0.01114 300.9 19.5
311(10) 0.01060 300.9 19.1
325(10) 0.01045 301.0 18.5
327(9) 0.01140 301.0 17.7
313(9) 0.01158 301.0 16.9
332(10) 0.01034 301.0 15.9
334(10) 0.00986 301.0 15.0
304(9) 0.01169 301.1 14.0
306(9) 0.01206 301.1 13.1
308(10) 0.01101 301.1 12.2
293(9) 0.01183 301.1 11.4
313(10) 0.01082 301.1 10.6
342(10) 0.01015 301.2 10.0
304(9) 0.01220 301.2 9.4
302(9) 0.01192 301.2 8.8
313(10) 0.01092 301.2 8.4
343(10) 0.00963 301.2 8.0
332(10) 0.01083 301.3 7.7
289(9) 0.01277 301.3 7.4
315(9) 0.01113 301.3 7.2
308(9) 0.01110 301.3 7.0
314(10) 0.01090 301.3 6.8
295(9) 0.01210 301.4 6.7
308(9) 0.01207 301.4 6.6
287(9) 0.01236 301.4 6.6
321(10) 0.00999 301.4 6.5
302(9) 0.01167 301.4 6.5
309(9) 0.01176 301.5 6.5
279(9) 0.01322 301.5 6.5
327(10) 0.01053 301.5 6.5
325(10) 0.01079 301.5 6.5
332(10) 0.01017 301.5 6.5
296(9) 0.01246 301.6 6.5
332(9) 0.01137 301.6 6.5
310(9) 0.01110 301.6 6.5
313(10) 0.01023 301.6 6.6
288(9) 0.01172 301.6 6.6
317(9) 0.01167 301.7 6.6
320(9) 0.01148 301.7 6.7
302(9) 0.01158 301.7 6.7
305(10) 0.01030 301.7 6.7
276(9) 0.01293 301.7 6.8
291(9) 0.01269 301.8 6.8
302(9) 0.01222 301.8 6.8
329(10) 0.01022 301.8 6.9
303(9) 0.01146 301.8 7.0
307(9) 0.01172 301.8 7.0
294(9) 0.01253 301.9 7.1
303(9) 0.01228 301.9 7.1
305(9) 0.01160 301.9 7.2
307(10) 0.01080 301.9 7.3
288(9) 0.01250 301.9 7.4
321(9) 0.01157 302.0 7.5
310(9) 0.01208 302.0 7.6
328(10) 0.01051 302.0 7.8
307(10) 0.01106 302.0 7.9
303(9) 0.01129 302.0 8.1
308(9) 0.01209 302.1 8.2
337(10) 0.01018 302.1 8.4
310(10) 0.01103 302.1 8.6
301(9) 0.01153 302.1 8.9
287(9) 0.01201 302.1 9.2
298(9) 0.01240 302.2 9.5
318(9) 0.01110 302.2 9.8
335(10) 0.00996 302.2 10.2
343(10) 0.00999 302.2 10.7
315(9) 0.01148 302.2 11.1
309(9) 0.01206 302.2 11.7
307(10) 0.01101 302.3 12.3
324(10) 0.01035 302.3 13.0
318(10) 0.01082 302.3 13.7
315(9) 0.01154 302.3 14.5
323(9) 0.01152 302.3 15.4
311(9) 0.01145 302.4 16.3
326(10) 0.01045 302.4 17.3
328(10) 0.01083 302.4 18.3
340(10) 0.01062 302.4 19.3
300(9) 0.01234 302.4 20.4
336(10) 0.01004 302.5 21.4
316(10) 0.01033 302.5 22.4
328(10) 0.01039 302.5 23.3
352(10) 0.01030 302.5 24.0
364(10) 0.01012 302.5 24.6
365(10) 0.00960 302.6 25.0
335(10) 0.01008 302.6 25.2
327(10) 0.01101 302.6 25.2
346(10) 0.01047 302.6 25.0
351(10) 0.01070 302.6 24.8
359(10) 0.00931 302.7 24.5
325(10) 0.00995 302.7 24.1
321(9) 0.01131 302.7 23.8
330(10) 0.01091 302.7 23.4
306(9) 0.01204 302.7 23.1
309(9) 0.01148 302.8 22.9
326(10) 0.00990 302.8 22.7
326(10) 0.01072 302.8 22.6
314(9) 0.01179 302.8 22.6
324(10) 0.01104 302.8 22.6
315(9) 0.01113 302.9 22.7
318(10) 0.01034 302.9 22.8
297(9) 0.01158 302.9 23.0
297(9) 0.01251 302.9 23.3
322(9) 0.01127 302.9 23.5
351(10) 0.00993 303.0 23.9
344(10) 0.00987 303.0 24.3
328(10) 0.01071 303.0 24.7
336(9) 0.01116 303.0 25.1
349(10) 0.01024 303.0 25.6
349(10) 0.00987 303.1 26.1
333(10) 0.01028 303.1 26.7
354(10) 0.00966 303.1 27.2
316(9) 0.01167 303.1 27.8
334(10) 0.01057 303.1 28.5
338(10) 0.01003 303.2 29.1
334(10) 0.01006 303.2 29.8
334(10) 0.01061 303.2 30.6
322(9) 0.01151 303.2 31.4
342(10) 0.01001 303.2 32.2
360(10) 0.00945 303.3 33.0
353(10) 0.00997 303.3 33.9
324(9) 0.01125 303.3 34.7
335(10) 0.01100 303.3 35.5
344(10) 0.01035 303.3 36.2
374(11) 0.00894 303.4 36.9
370(10) 0.00911 303.4 37.4
353(10) 0.01059 303.4 37.7
346(10) 0.01065 303.4 37.7
350(10) 0.00975 303.4 37.6
360(10) 0.00914 303.5 37.3
344(10) 0.01043 303.5 36.7
349(10) 0.01064 303.5 36.1
331(9) 0.01127 303.5 35.3
350(10) 0.00987 303.5 34.5
357(10) 0.00916 303.6 33.6
322(10) 0.01086 303.6 32.9
344(10) 0.01064 303.6 32.1
334(9) 0.01123 303.6 31.5
360(10) 0.00947 303.6 30.9
355(11) 0.00900 303.7 30.4
322(10) 0.01092 303.7 30.0
328(9) 0.01139 303.7 29.7
346(10) 0.01084 303.7 29.4
348(10) 0.00966 303.7 29.2
338(10) 0.00995 303.8 29.1
349(10) 0.00975 303.8 28.9
318(9) 0.01142 303.8 28.8
308(9) 0.01216 303.8 28.7
327(10) 0.01067 303.8 28.6
345(10) 0.00929 303.8 28.5
339(10) 0.00990 303.9 28.4
354(10) 0.01055 303.9 28.3
343(10) 0.01056 303.9 28.2
314(9) 0.01140 303.9 28.2
326(10) 0.01053 303.9 28.2
349(10) 0.00996 304.0 28.3
333(9) 0.01111 304.0 28.5
339(10) 0.01089 304.0 28.8
314(10) 0.01089 304.0 29.3
329(10) 0.01009 304.0 29.8
342(10) 0.00998 304.1 30.4
339(10) 0.01092 304.1 31.2
335(10) 0.01094 304.1 32.1
362(10) 0.00942 304.1 33.1
323(10) 0.01069 304.1 34.3
335(10) 0.01048 304.2 35.5
361(10) 0.01036 304.2 36.7
348(10) 0.01036 304.2 38.1
348(10) 0.00967 304.2 39.4
338(10) 0.01018 304.2 40.7
369(10) 0.00962 304.3 41.8
360(10) 0.01027 304.3 42.9
367(10) 0.00926 304.3 43.7
351(10) 0.00963 304.3 44.3
351(10) 0.00980 304.3 44.7
333(10) 0.01089 304.4 44.6
356(10) 0.01045 304.4 44.3
352(10) 0.00971 304.4 43.7
347(10) 0.00908 304.4 42.7
345(10) 0.00956 304.4 41.6
367(10) 0.01005 304.5 40.2
338(10) 0.01093 304.5 38.8
344(10) 0.00976 304.5 37.2
329(10) 0.01008 304.5 35.6
345(10) 0.01030 304.5 34.0
347(10) 0.01066 304.6 32.5
331(9) 0.01129 304.6 31.0
351(10) 0.00988 304.6 29.6
349(10) 0.00914 304.6 28.2
346(10) 0.01027 304.6 27.0
320(9) 0.01154 304.7 25.9
330(9) 0.01122 304.7 24.8
337(10) 0.01032 304.7 23.9
329(10) 0.01010 304.7 23.1
332(10) 0.01057 304.7 22.3
335(9) 0.01114 304.8 21.7
343(10) 0.01075 304.8 21.1
310(9) 0.01132 304.8 20.7
330(10) 0.00966 304.8 20.3
323(10) 0.01081 304.8 20.0
334(9) 0.01116 304.9 19.8
318(9) 0.01113 304.9 19.6
300(9) 0.01167 304.9 19.5
318(10) 0.01052 304.9 19.5
326(10) 0.01056 304.9 19.6
304(9) 0.01233 305.0 19.7
310(9) 0.01170 305.0 19.8
315(10) 0.01098 305.0 20.0
339(10) 0.00979 305.0 20.3
328(10) 0.01057 305.0 20.6
308(9) 0.01201 305.1 21.0
302(9) 0.01191 305.1 21.4
325(10) 0.01075 305.1 21.9
333(10) 0.01002 305.1 22.4
329(10) 0.01073 305.1 23.0
330(9) 0.01126 305.2 23.7
307(9) 0.01125 305.2 24.4
327(10) 0.01038 305.2 25.1
335(10) 0.01007 305.2 25.9
332(10) 0.01068 305.2 26.8
338(10) 0.01107 305.3 27.7
356(10) 0.00988 305.3 28.6
359(10) 0.00920 305.3 29.6
311(10) 0.01105 305.3 30.7
330(10) 0.01045 305.3 31.8
352(10) 0.01060 305.4 33.0
318(10) 0.01044 305.4 34.2
348(10) 0.00967 305.4 35.4
343(10) 0.01007 305.4 36.6
357(10) 0.01018 305.4 37.9
334(9) 0.01116 305.5 39.1
337(10) 0.01024 305.5 40.3
328(10) 0.01000 305.5 41.4
351(10) 0.00991 305.5 42.5
337(10) 0.01094 305.5 43.5
348(10) 0.01057 305.5 44.3
352(10) 0.00959 305.6 45.0
342(10) 0.00947 305.6 45.5
358(10) 0.00983 305.6 45.8
343(10) 0.01078 305.6 46.0
368(10) 0.01005 305.6 46.0
354(10) 0.00986 305.7 45.8
359(11) 0.00884 305.7 45.6
340(10) 0.01063 305.7 45.2
317(9) 0.01176 305.7 44.7
361(10) 0.01006 305.7 44.2
357(10) 0.00983 305.8 43.6
331(10) 0.01016 305.8 43.1
359(10) 0.00969 305.8 42.5
346(10) 0.01056 305.8 42.0
356(10) 0.01036 305.8 41.6
348(10) 0.00990 305.9 41.3
335(10) 0.00973 305.9 41.0
353(10) 0.00958 305.9 40.9
359(10) 0.01037 305.9 40.8
342(10) 0.01058 305.9 40.9
342(10) 0.01037 306.0 41.0
364(10) 0.00942 306.0 41.3
343(10) 0.01031 306.0 41.6
318(9) 0.01159 306.0 42.1
363(10) 0.01006 306.0 42.6
371(10) 0.00937 306.1 43.1
370(10) 0.00913 306.1 43.8
355(10) 0.01017 306.1 44.4
383(10) 0.00982 306.1 45.0
358(10) 0.01005 306.1 45.5
355(10) 0.00992 306.2 46.0
346(10) 0.01005 306.2 46.4
358(10) 0.00982 306.2 46.5
373(10) 0.00998 306.2 46.5
365(10) 0.00969 306.2 46.3
359(10) 0.00935 306.3 45.9
339(10) 0.01015 306.3 45.2
360(10) 0.01016 306.3 44.3
351(10) 0.01047 306.3 43.3
363(10) 0.00945 306.3 42.1
327(10) 0.01070 306.4 40.8
373(10) 0.00927 306.4 39.5
363(10) 0.00987 306.4 38.1
343(10) 0.01088 306.4 36.8
310(9) 0.01109 306.4 35.5
325(10) 0.01006 306.5 34.2
327(10) 0.01038 306.5 33.0
342(10) 0.01077 306.5 31.8
344(10) 0.01082 306.5 30.8
330(10) 0.01049 306.5 29.8
304(10) 0.01088 306.6 28.8
333(10) 0.01052 306.6 28.0
342(10) 0.01078 306.6 27.3
340(10) 0.01089 306.6 26.6
324(10) 0.01059 306.6 26.0
336(10) 0.00945 306.7 25.4
340(10) 0.01036 306.7 24.9
330(9) 0.01129 306.7 24.5
321(9) 0.01161 306.7 24.1
318(9) 0.01129 306.7 23.8
344(10) 0.00929 306.8 23.5
351(10) 0.00979 306.8 23.3
337(10) 0.01089 306.8 23.1
331(10) 0.01100 306.8 22.9
331(10) 0.01038 306.8 22.8
344(10) 0.00941 306.9 22.6
344(10) 0.01004 306.9 22.5
356(10) 0.01057 306.9 22.3
324(9) 0.01114 306.9 22.2
324(10) 0.01044 306.9 22.1
339(10) 0.00982 307.0 21.9
338(10) 0.01022 307.0 21.8
338(9) 0.01113 307.0 21.6
322(10) 0.01071 307.0 21.5
303(9) 0.01146 307.0 21.3
346(10) 0.00934 307.1 21.1
312(10) 0.01098 307.1 20.9
291(9) 0.01294 307.1 20.7
322(10) 0.01098 307.1 20.6
310(9) 0.01122 307.1 20.4
327(10) 0.01062 307.1 20.2
312(9) 0.01130 307.2 20.0
330(9) 0.01122 307.2 19.9
332(10) 0.01060 307.2 19.7
305(9) 0.01122 307.2 19.6
322(10) 0.01032 307.2 19.4
314(9) 0.01125 307.3 19.3
315(9) 0.01152 307.3 19.3
323(10) 0.01064 307.3 19.2
318(10) 0.01046 307.3 19.2
300(9) 0.01119 307.3 19.2
330(10) 0.01098 307.4 19.3
326(9) 0.01132 307.4 19.3
349(10) 0.00969 307.4 19.5
326(10) 0.01030 307.4 19.6
305(9) 0.01148 307.4 19.8
314(9) 0.01175 307.5 20.0
316(9) 0.01167 307.5 20.3
371(11) 0.00903 307.5 20.6
349(10) 0.00937 307.5 20.9
293(9) 0.01234 307.5 21.3
317(9) 0.01167 307.6 21.7
337(10) 0.01102 307.6 22.2
369(11) 0.00905 307.6 22.6
318(10) 0.01029 307.6 23.0
339(10) 0.01007 307.6 23.5
322(9) 0.01135 307.7 23.9
303(9) 0.01226 307.7 24.3
371(10) 0.00920 307.7 24.7
326(10) 0.01001 307.7 25.0
304(9) 0.01156 307.7 25.2
365(10) 0.01018 307.8 25.3
341(10) 0.01081 307.8 25.3
345(10) 0.01017 307.8 25.2
339(10) 0.00931 307.8 25.0
314(10) 0.01060 307.8 24.7
326(9) 0.01130 307.9 24.3
335(10) 0.01107 307.9 23.8
334(10) 0.01045 307.9 23.3
330(10) 0.01039 307.9 22.7
350(10) 0.00993 307.9 22.1
341(10) 0.01086 308.0 21.5
320(9) 0.01110 308.0 20.8
321(10) 0.01037 308.0 20.2
307(10) 0.01060 308.0 19.6
325(10) 0.00996 308.0 19.1
333(9) 0.01113 308.1 18.5
314(9) 0.01113 308.1 18.0
332(10) 0.00977 308.1 17.6
332(10) 0.01020 308.1 17.1
316(9) 0.01169 308.1 16.7
304(9) 0.01219 308.2 16.3
331(10) 0.01004 308.2 16.0
336(10) 0.01031 308.2 15.7
326(10) 0.01067 308.2 15.4
298(9) 0.01214 308.2 15.2
312(9) 0.01191 308.3 15.0
314(9) 0.01117 308.3 14.8
323(10) 0.01051 308.3 14.7
335(10) 0.01015 308.3 14.5
350(10) 0.01032 308.3 14.4
336(9) 0.01109 308.4 14.3
329(10) 0.01069 308.4 14.3
319(10) 0.01103 308.4 14.2
337(10) 0.01040 308.4 14.2
323(9) 0.01120 308.4 14.2
330(9) 0.01115 308.5 14.2
311(9) 0.01134 308.5 14.2
314(10) 0.01069 308.5 14.2
320(10) 0.01088 308.5 14.3
344(10) 0.01083 308.5 14.3
344(10) 0.01080 308.6 14.4
329(10) 0.01078 308.6 14.5
318(10) 0.00998 308.6 14.6
334(10) 0.00987 308.6 14.6
313(9) 0.01198 308.6 14.7
312(9) 0.01192 308.7 14.8
321(9) 0.01137 308.7 14.9
342(10) 0.00968 308.7 14.9
320(9) 0.01116 308.7 15.0
315(9) 0.01180 308.7 14.9
306(9) 0.01208 308.7 14.9
310(9) 0.01119 308.8 14.8
316(10) 0.01088 308.8 14.7
320(9) 0.01110 308.8 14.6
315(9) 0.01182 308.8 14.4
330(10) 0.01103 308.8 14.2
288(9) 0.01267 308.9 13.9
309(10) 0.01065 308.9 13.6
317(10) 0.01089 308.9 13.4
323(9) 0.01152 308.9 13.1
302(9) 0.01205 308.9 12.8
345(10) 0.00992 309.0 12.6
324(10) 0.01064 309.0 12.3
325(10) 0.01054 309.0 12.1
320(9) 0.01142 309.0 11.9
342(10) 0.01056 309.0 11.7
325(10) 0.01069 309.1 11.5
315(10) 0.01080 309.1 11.4
328(10) 0.01079 309.1 11.3
349(10) 0.01063 309.1 11.2
312(9) 0.01159 309.1 11.1
330(10) 0.01015 309.2 11.1
309(9) 0.01126 309.2 11.0
323(10) 0.01096 309.2 11.0
333(9) 0.01120 309.2 11.0
321(10) 0.01087 309.2 11.0
319(10) 0.01059 309.3 11.1
302(9) 0.01168 309.3 11.1
319(9) 0.01160 309.3 11.1
303(9) 0.01234 309.3 11.1
339(10) 0.01000 309.3 11.1
340(10) 0.00984 309.4 11.0
333(10) 0.01084 309.4 10.9
343(10) 0.01072 309.4 10.8
320(9) 0.01155 309.4 10.7
320(9) 0.01127 309.4 10.6
322(10) 0.01094 309.5 10.4
327(10) 0.01074 309.5 10.2
313(9) 0.01168 309.5 9.9
303(9) 0.01236 309.5 9.7
318(10) 0.01096 309.5 9.5
330(10) 0.00978 309.6 9.2
320(10) 0.01092 309.6 9.0
307(9) 0.01161 309.6 8.8
329(9) 0.01114 309.6 8.5
331(10) 0.01051 309.6 8.3
331(10) 0.00938 309.7 8.1
324(10) 0.01061 309.7 7.9
300(9) 0.01231 309.7 7.7
323(9) 0.01141 309.7 7.6
316(9) 0.01125 309.7 7.4
293(9) 0.01162 309.8 7.3
320(10) 0.01047 309.8 7.1
311(9) 0.01184 309.8 7.0
337(10) 0.01091 309.8 6.9
300(9) 0.01138 309.8 6.8
292(9) 0.01129 309.9 6.7
301(9) 0.01117 309.9 6.7
325(9) 0.01137 309.9 6.6
308(9) 0.01211 309.9 6.6
325(10) 0.01087 309.9 6.5
327(10) 0.01013 310.0 6.5
307(9) 0.01111 310.0 6.4
308(9) 0.01213 310.0 6.4
319(10) 0.01094 310.0 6.4
320(10) 0.01054 310.0 6.4
317(10) 0.01084 310.1 6.4
319(10) 0.01088 310.1 6.4
313(9) 0.01178 310.1 6.3
329(10) 0.01061 310.1 6.3
317(10) 0.01062 310.0 6.3
325(10) 0.01022 310.0 6.3
296(9) 0.01215 310.0 6.3
283(9) 0.01315 310.0 6.3
315(9) 0.01114 309.9 6.2
306(10) 0.01093 309.9 6.2
299(9) 0.01145 309.9 6.1
307(9) 0.01195 309.9 6.1
327(9) 0.01115 309.8 6.0
308(10) 0.01076 309.8 6.0
307(10) 0.01083 309.8 5.9
296(9) 0.01191 309.8 5.9
312(9) 0.01165 309.7 5.8
309(9) 0.01192 309.7 5.7
330(10) 0.01046 309.7 5.7
325(10) 0.00968 309.7 5.6
288(9) 0.01186 309.6 5.5
306(9) 0.01154 309.6 5.5
336(10) 0.01106 309.6 5.4
319(10) 0.01078 309.6 5.3
322(10) 0.00971 309.5 5.3
315(9) 0.01119 309.5 5.2
298(9) 0.01223 309.5 5.2
298(9) 0.01229 309.5 5.1
336(10) 0.00983 309.4 5.1
309(10) 0.01045 309.4 5.1
302(10) 0.01093 309.4 5.0
313(9) 0.01187 309.4 5.0
289(9) 0.01281 309.3 5.0
299(10) 0.01095 309.3 4.9
302(10) 0.01108 309.3 4.9
311(9) 0.01142 309.3 4.9
328(9) 0.01134 309.2 4.9
294(9) 0.01260 309.2 4.9
302(9) 0.01122 309.2 4.9
284(10) 0.01089 309.2 4.8
303(9) 0.01132 309.1 4.8
321(9) 0.01147 309.1 4.8
290(9) 0.01241 309.1 4.8
331(10) 0.01020 309.1 4.8
297(9) 0.01125 309.1 4.9
335(10) 0.01013 309.0 4.9
318(9) 0.01174 309.0 4.9
303(9) 0.01187 309.0 4.9
300(9) 0.01123 309.0 4.9
301(10) 0.01079 308.9 4.9
308(10) 0.01090 308.9 5.0
312(9) 0.01196 308.9 5.0
317(9) 0.01111 308.9 5.0
314(10) 0.01063 308.8 5.1
315(10) 0.01054 308.8 5.1
312(9) 0.01149 308.8 5.2
316(9) 0.01183 308.8 5.2
334(10) 0.01039 308.7 5.3
333(10) 0.01031 308.7 5.3
318(10) 0.01084 308.7 5.4
308(9) 0.01191 308.7 5.4
320(9) 0.01136 308.6 5.5
292(9) 0.01198 308.6 5.6
331(10) 0.01024 308.6 5.7
330(10) 0.00998 308.6 5.7
305(9) 0.01182 308.5 5.8
329(9) 0.01142 308.5 5.9
295(9) 0.01197 308.5 6.0
313(10) 0.01035 308.5 6.1
302(9) 0.01189 308.4 6.2
322(9) 0.01110 308.4 6.3
331(9) 0.01124 308.4 6.4
302(9) 0.01131 308.4 6.4
289(9) 0.01161 308.3 6.5
305(9) 0.01137 308.3 6.6
321(9) 0.01145 308.3 6.7
322(9) 0.01154 308.3 6.8
320(10) 0.01100 308.2 6.9
315(10) 0.01077 308.2 7.0
301(9) 0.01196 308.2 7.1
315(9) 0.01194 308.2 7.2
310(9) 0.01185 308.1 7.3
318(10) 0.01092 308.1 7.4
314(10) 0.00990 308.1 7.4
294(9) 0.01177 308.1 7.5
322(9) 0.01150 308.0 7.6
319(9) 0.01165 308.0 7.7
325(10) 0.01075 308.0 7.7
336(10) 0.00934 308.0 7.8
317(10) 0.01082 307.9 7.9
325(9) 0.01152 307.9 8.0
324(9) 0.01108 307.9 8.1
327(10) 0.01056 307.9 8.1
336(10) 0.00990 307.8 8.2
313(10) 0.01096 307.8 8.3
283(9) 0.01295 307.8 8.4
312(9) 0.01133 307.8 8.5
321(10) 0.01099 307.7 8.6
302(9) 0.01125 307.7 8.7
300(9) 0.01123 307.7 8.7
299(9) 0.01245 307.7 8.8
330(10) 0.01071 307.6 8.9
287(9) 0.01201 307.6 9.0
306(10) 0.01085 307.6 9.1
294(9) 0.01191 307.6 9.2
315(9) 0.01174 307.5 9.3
308(9) 0.01142 307.5 9.5
304(10) 0.01084 307.5 9.6
321(10) 0.01046 307.5 9.7
316(9) 0.01162 307.4 9.8
332(9) 0.01119 307.4 9.9
323(10) 0.01106 307.4 10.0
302(9) 0.01152 307.4 10.2
339(10) 0.01006 307.4 10.3
317(9) 0.01167 307.3 10.5
314(9) 0.01177 307.3 10.6
313(10) 0.01073 307.3 10.8
304(9) 0.01143 307.3 11.0
322(10) 0.01077 307.2 11.1
313(9) 0.01193 307.2 11.3
333(9) 0.01113 307.2 11.5
311(9) 0.01136 307.2 11.7
317(10) 0.01063 307.1 11.9
292(9) 0.01223 307.1 12.0
308(9) 0.01167 307.1 12.2
307(9) 0.01213 307.1 12.4
326(10) 0.01084 307.0 12.5
315(10) 0.01042 307.0 12.7
337(10) 0.01001 307.0 12.7
306(9) 0.01196 307.0 12.8
313(9) 0.01169 306.9 12.8
309(9) 0.01142 306.9 12.8
302(10) 0.01071 306.9 12.7
316(10) 0.01103 306.9 12.6
323(9) 0.01152 306.8 12.5
330(10) 0.01107 306.8 12.3
316(9) 0.01117 306.8 12.1
308(10) 0.01065 306.8 11.8
297(9) 0.01200 306.7 11.5
303(9) 0.01237 306.7 11.2
309(9) 0.01153 306.7 10.9
318(9) 0.01111 306.7 10.6
307(10) 0.01076 306.6 10.3
294(9) 0.01146 306.6 9.9
319(9) 0.01173 306.6 9.6
298(9) 0.01192 306.6 9.3
291(9) 0.01216 306.5 9.0
297(9) 0.01112 306.5 8.7
298(9) 0.01143 306.5 8.5
310(9) 0.01179 306.5 8.2
331(9) 0.01128 306.4 8.0
299(9) 0.01159 306.4 7.8
297(9) 0.01111 306.4 7.6
316(10) 0.01073 306.4 7.4
305(9) 0.01225 306.3 7.2
291(9) 0.01208 306.3 7.1
305(9) 0.01108 306.3 6.9
294(9) 0.01199 306.3 6.8
309(9) 0.01118 306.2 6.7
320(9) 0.01161 306.2 6.6
328(10) 0.01057 306.2 6.5
299(9) 0.01151 306.2 6.4
293(9) 0.01175 306.1 6.4
323(9) 0.01120 306.1 6.3
335(10) 0.01106 306.1 6.3
328(10) 0.01063 306.1 6.3
313(10) 0.01056 306.0 6.2
293(9) 0.01204 306.0 6.2
328(10) 0.01096 306.0 6.3
310(9) 0.01202 306.0 6.3
282(9) 0.01204 305.9 6.3
295(10) 0.01093 305.9 6.4
296(9) 0.01177 305.9 6.4
314(9) 0.01158 305.9 6.5
317(9) 0.01160 305.8 6.6
319(10) 0.01098 305.8 6.6
308(10) 0.01090 305.8 6.7
315(10) 0.01107 305.8 6.9
327(9) 0.01116 305.7 7.0
335(10) 0.01086 305.7 7.1
318(9) 0.01115 305.7 7.3
349(10) 0.00917 305.7 7.5
335(10) 0.01030 305.7 7.7
297(9) 0.01270 305.6 7.9
308(9) 0.01201 305.6 8.1
319(10) 0.01103 305.6 8.3
324(10) 0.01013 305.6 8.6
319(10) 0.01086 305.5 8.9
312(9) 0.01195 305.5 9.2
323(9) 0.01117 305.5 9.6
304(9) 0.01142 305.5 9.9
309(10) 0.01062 305.4 10.3
343(10) 0.01010 305.4 10.7
315(9) 0.01186 305.4 11.1
308(9) 0.01180 305.4 11.6
316(9) 0.01143 305.3 12.1
331(10) 0.00992 305.3 12.6
305(9) 0.01145 305.3 13.2
330(9) 0.01132 305.3 13.7
307(9) 0.01151 305.2 14.3
324(10) 0.01047 305.2 14.9
337(10) 0.00990 305.2 15.6
324(10) 0.01067 305.2 16.2
335(10) 0.01106 305.1 16.9
329(10) 0.01066 305.1 17.6
329(10) 0.01041 305.1 18.2
358(10) 0.00923 305.1 18.9
340(10) 0.01020 305.0 19.5
320(9) 0.01159 305.0 20.1
344(10) 0.01014 305.0 20.6
354(10) 0.00950 305.0 21.0
336(10) 0.01026 304.9 21.4
340(10) 0.01040 304.9 21.6
325(9) 0.01128 304.9 21.7
326(10) 0.01083 304.9 21.7
325(10) 0.01051 304.8 21.6
346(10) 0.00992 304.8 21.3
331(10) 0.01103 304.8 21.0
329(9) 0.01136 304.8 20.5
318(10) 0.01082 304.7 20.0
327(10) 0.00993 304.7 19.4
322(10) 0.01094 304.7 18.7
333(10) 0.01103 304.7 18.1
337(9) 0.01116 304.6 17.4
328(10) 0.01082 304.6 16.6
302(10) 0.01062 304.6 15.9
300(9) 0.01127 304.6 15.2
316(9) 0.01165 304.5 14.6
283(9) 0.01298 304.5 13.9
287(9) 0.01259 304.5 13.3
300(10) 0.01094 304.5 12.7
315(9) 0.01128 304.4 12.1
307(9) 0.01194 304.4 11.6
316(9) 0.01159 304.4 11.0
307(9) 0.01117 304.4 10.6
300(9) 0.01111 304.3 10.1
329(10) 0.01019 304.3 9.7
304(9) 0.01218 304.3 9.3
291(9) 0.01276 304.3 9.0
295(9) 0.01182 304.2 8.7
290(9) 0.01157 304.2 8.4
312(9) 0.01123 304.2 8.1
306(9) 0.01206 304.2 7.9
327(9) 0.01117 304.1 7.6
297(9) 0.01247 304.1 7.4
323(10) 0.01034 304.1 7.2
313(10) 0.01051 304.1 7.1
308(9) 0.01208 304.1 6.9
337(10) 0.01065 304.0 6.8
299(9) 0.01179 304.0 6.7
319(10) 0.01055 304.0 6.6
314(10) 0.01085 304.0 6.5
303(9) 0.01216 303.9 6.4
281(9) 0.01280 303.9 6.4
312(10) 0.01075 303.9 6.3
322(10) 0.01077 303.9 6.3
329(10) 0.01074 303.8 6.2
290(9) 0.01265 303.8 6.2
323(10) 0.01094 303.8 6.2
306(9) 0.01121 303.8 6.2
285(9) 0.01271 303.7 6.2
322(9) 0.01130 303.7 6.2
312(9) 0.01197 303.7 6.2
296(9) 0.01170 303.7 6.2
280(9) 0.01246 303.6 6.3
311(9) 0.01114 303.6 6.3
306(9) 0.01192 303.6 6.3
310(9) 0.01213 303.6 6.4
285(9) 0.01197 303.5 6.5
310(10) 0.01075 303.5 6.5
300(9) 0.01223 303.5 6.6
300(9) 0.01212 303.5 6.7
308(9) 0.01225 303.4 6.8
293(9) 0.01172 303.4 6.9
306(10) 0.01076 303.4 7.0
316(9) 0.01121 303.4 7.1
324(9) 0.01144 303.3 7.2
295(9) 0.01240 303.3 7.3
316(10) 0.01052 303.3 7.4
285(9) 0.01159 303.3 7.5
318(10) 0.01058 303.2 7.7
298(9) 0.01234 303.2 7.8
297(9) 0.01236 303.2 7.9
308(9) 0.01118 303.2 8.1
285(9) 0.01188 303.1 8.2
324(10) 0.01102 303.1 8.4
315(9) 0.01165 303.1 8.5
309(9) 0.01214 303.1 8.7
343(10) 0.01002 303.0 8.9
326(10) 0.01017 303.0 9.1
326(10) 0.01071 303.0 9.2
301(9) 0.01237 303.0 9.4
325(9) 0.01111 302.9 9.7
322(10) 0.01076 302.9 9.9
298(9) 0.01141 302.9 10.1
319(10) 0.01048 302.9 10.3
302(9) 0.01251 302.8 10.5
323(9) 0.01117 302.8 10.8
322(10) 0.01064 302.8 11.0
312(10) 0.01080 302.8 11.1
303(9) 0.01140 302.7 11.3
305(9) 0.01220 302.7 11.4
330(9) 0.01118 302.7 11.5
320(9) 0.01155 302.7 11.6
347(10) 0.00960 302.6 11.6
309(9) 0.01140 302.6 11.6
290(9) 0.01285 302.6 11.5
284(9) 0.01273 302.6 11.4
351(10) 0.00975 302.5 11.2
299(9) 0.01158 302.5 11.1
308(9) 0.01137 302.5 10.8
290(9) 0.01282 302.5 10.6
310(10) 0.01105 302.4 10.4
313(10) 0.01063 302.4 10.1
310(10) 0.01093 302.4 9.8
306(9) 0.01190 302.4 9.5
292(9) 0.01245 302.4 9.3
306(9) 0.01136 302.3 9.0
318(10) 0.01045 302.3 8.8
295(9) 0.01200 302.3 8.5
285(9) 0.01297 302.3 8.3
308(9) 0.01209 302.2 8.1
305(9) 0.01128 302.2 7.9
281(9) 0.01196 302.2 7.8
309(9) 0.01133 302.2 7.6
308(9) 0.01185 302.1 7.5
306(9) 0.01224 302.1 7.3
302(10) 0.01102 302.1 7.3
293(10) 0.01091 302.1 7.2
294(9) 0.01164 302.0 7.1
281(9) 0.01292 302.0 7.1
327(9) 0.01144 302.0 7.1
320(10) 0.01106 302.0 7.1
282(9) 0.01192 301.9 7.1
319(10) 0.01087 301.9 7.1
320(9) 0.01157 301.9 7.1
332(10) 0.01086 301.9 7.2
311(10) 0.01087 301.8 7.3
278(9) 0.01185 301.8 7.4
318(10) 0.01082 301.8 7.5
321(9) 0.01137 301.8 7.6
307(9) 0.01221 301.7 7.8
333(10) 0.01012 301.7 7.9
328(10) 0.00975 301.7 8.1
320(10) 0.01097 301.7 8.2
297(9) 0.01250 301.6 8.4
300(9) 0.01204 301.6 8.5
302(9) 0.01176 301.6 8.7
322(10) 0.01046 301.6 8.8
302(9) 0.01159 301.5 8.8
297(9) 0.01251 301.5 8.9
333(10) 0.01091 301.5 8.8
322(9) 0.01120 301.5 8.8
317(10) 0.01102 301.4 8.7
283(9) 0.01234 301.4 8.6
306(9) 0.01222 301.4 8.4
299(9) 0.01194 301.4 8.2
273(9) 0.01300 301.3 8.0
292(9) 0.01145 301.3 7.8
268(9) 0.01313 301.3 7.6
308(9) 0.01193 301.3 7.4
308(9) 0.01141 301.2 7.2
334(10) 0.01038 301.2 7.0
327(10) 0.01023 301.2 6.9
293(9) 0.01242 301.2 6.7
327(9) 0.01140 301.2 6.6
311(10) 0.01094 301.2 6.5
328(10) 0.00994 301.2 6.4
292(9) 0.01197 301.2 6.3
318(10) 0.01101 301.2 6.2
299(9) 0.01246 301.2 6.2
310(9) 0.01145 301.2 6.1
309(10) 0.01069 301.2 6.1
294(9) 0.01212 301.2 6.1
316(9) 0.01153 301.2 6.1
302(9) 0.01218 301.2 6.1
303(9) 0.01127 301.2 6.2
287(9) 0.01197 301.2 6.2
302(9) 0.01141 301.2 6.3
297(9) 0.01246 301.2 6.3
313(9) 0.01197 301.2 6.4
295(9) 0.01129 301.2 6.5
326(10) 0.00990 301.2 6.6
304(9) 0.01179 301.2 6.7
332(9) 0.01137 301.2 6.8
321(9) 0.01130 301.2 6.9
306(9) 0.01124 301.2 7.1
316(10) 0.01054 301.2 7.2
334(10) 0.01026 301.2 7.4
313(9) 0.01176 301.2 7.5
316(9) 0.01193 301.2 7.7
314(9) 0.01125 301.2 7.9
313(10) 0.01014 301.2 8.1
323(10) 0.01072 301.2 8.3
308(9) 0.01217 301.2 8.5
309(9) 0.01164 301.2 8.8
304(9) 0.01148 301.2 9.0
325(10) 0.00988 301.2 9.3
289(9) 0.01187 301.2 9.6
307(9) 0.01221 301.2 9.9
310(9) 0.01177 301.2 10.2
330(10) 0.01022 301.2 10.6
305(10) 0.01085 301.2 10.9
319(10) 0.01095 301.2 11.3
333(9) 0.01125 301.2 11.7
317(9) 0.01110 301.2 12.2
296(9) 0.01180 301.2 12.6
277(9) 0.01250 301.2 13.1
322(9) 0.01112 301.2 13.6
364(10) 0.01030 301.2 14.1
344(10) 0.01034 301.2 14.6
317(10) 0.01098 301.2 15.2
315(10) 0.01099 301.2 15.7
326(10) 0.01086 301.2 16.3
339(10) 0.01092 301.2 16.9
325(10) 0.01055 301.2 17.5
314(10) 0.01075 301.2 18.1
327(10) 0.01060 301.2 18.7
333(10) 0.01079 301.2 19.4
355(10) 0.01049 301.2 20.0
348(10) 0.00994 301.2 20.6
326(10) 0.00985 301.2 21.2
318(10) 0.01073 301.2 21.8
316(9) 0.01163 301.2 22.4
348(10) 0.01068 301.2 22.9
348(10) 0.00963 301.2 23.5
343(10) 0.00932 301.2 24.0
334(10) 0.01053 301.2 24.5
369(10) 0.01006 301.2 24.9
363(10) 0.01003 301.2 25.3
341(10) 0.00987 301.2 25.7
366(11) 0.00828 301.2 26.0
331(10) 0.01063 301.2 26.3
350(10) 0.01067 301.2 26.5
327(9) 0.01119 301.2 26.7
337(10) 0.01063 301.2 26.8
350(11) 0.00898 301.2 26.9
346(10) 0.00997 301.2 26.8
323(9) 0.01159 301.2 26.7
340(10) 0.01079 301.2 26.6
341(10) 0.01016 301.2 26.3
319(10) 0.01040 301.2 26.0
337(10) 0.01022 301.2 25.6
331(9) 0.01128 301.2 25.2
344(10) 0.01059 301.2 24.7
333(10) 0.01082 301.2 24.2
345(10) 0.01013 301.2 23.7
329(10) 0.01078 301.2 23.2
323(9) 0.01153 301.2 22.7
336(10) 0.01068 301.2 22.2
317(10) 0.01102 301.2 21.7
335(10) 0.01026 301.2 21.3
339(10) 0.01019 301.2 20.9
351(10) 0.01070 301.2 20.5
322(10) 0.01101 301.2 20.1
316(9) 0.01110 301.2 19.8
323(10) 0.01014 301.2 19.5
327(10) 0.01075 301.2 19.3
302(9) 0.01228 301.2 19.0
335(10) 0.01040 301.2 18.9
321(10) 0.01046 301.2 18.7
329(10) 0.01014 301.2 18.6
310(9) 0.01176 301.2 18.5
309(9) 0.01197 301.2 18.4
343(10) 0.01040 301.2 18.4
335(10) 0.01005 301.2 18.4
359(10) 0.00917 301.2 18.5
343(10) 0.01031 301.2 18.6
340(10) 0.01105 301.2 18.7
330(10) 0.01057 301.2 18.8
321(10) 0.01047 301.2 19.0
331(10) 0.01024 301.2 19.2
329(10) 0.01094 301.2 19.4
319(9) 0.01165 301.2 19.6
308(9) 0.01110 301.2 19.8
331(10) 0.00994 301.2 20.0
311(9) 0.01151 301.2 20.3
313(9) 0.01181 301.2 20.5
326(9) 0.01139 301.2 20.7
305(9) 0.01204 301.2 20.8
325(10) 0.00999 301.2 21.0
297(9) 0.01157 301.2 21.1
298(9) 0.01230 301.2 21.2
338(10) 0.01072 301.2 21.2
330(10) 0.01063 301.2 21.3
327(10) 0.01008 301.2 21.3
334(10) 0.01052 301.2 21.3
331(9) 0.01135 301.2 21.4
325(9) 0.01134 301.2 21.4
330(10) 0.01098 301.2 21.5
342(10) 0.00984 301.2 21.5
332(10) 0.01060 301.2 21.6
315(9) 0.01178 301.2 21.6
309(9) 0.01193 301.2 21.7
325(10) 0.01065 301.2 21.7
344(10) 0.00941 301.2 21.7
311(10) 0.01104 301.2 21.7
334(9) 0.01114 301.2 21.6
315(9) 0.01139 301.2 21.4
340(10) 0.00961 301.2 21.2
305(10) 0.01087 301.2 20.9
338(10) 0.01008 301.2 20.5
316(9) 0.01159 301.2 20.1
335(10) 0.01043 301.2 19.6
306(9) 0.01174 301.2 19.1
292(9) 0.01182 301.2 18.6
332(10) 0.01059 301.2 18.0
332(9) 0.01117 301.2 17.4
328(10) 0.01074 301.2 16.8
299(9) 0.01140 301.2 16.2
297(9) 0.01153 301.2 15.6
343(10) 0.01034 301.2 15.1
322(9) 0.01148 301.2 14.5
313(10) 0.01079 301.2 14.0
311(10) 0.01039 301.2 13.5
320(10) 0.01062 301.2 13.1
317(9) 0.01135 301.2 12.7
312(9) 0.01195 301.2 12.3
306(9) 0.01143 301.2 12.0
310(10) 0.01066 301.2 11.7
300(9) 0.01185 301.2 11.5
317(9) 0.01122 301.2 11.3
317(9) 0.01166 301.2 11.1
318(10) 0.01095 301.2 11.0
306(9) 0.01116 301.2 10.9
314(9) 0.01130 301.2 10.9
322(9) 0.01135 301.2 11.0
295(9) 0.01258 301.2 11.1
291(9) 0.01208 301.2 11.3
312(10) 0.01017 301.2 11.5
321(10) 0.01047 301.2 11.8
330(9) 0.01139 301.2 12.1
296(9) 0.01251 301.2 12.5
327(10) 0.01045 301.2 12.9
309(10) 0.01025 301.2 13.3
320(10) 0.01095 301.2 13.7
337(10) 0.01099 301.2 14.1
306(9) 0.01183 301.2 14.5
310(9) 0.01131 301.2 14.8
330(10) 0.00984 301.2 15.0
309(9) 0.01144 301.2 15.1
341(10) 0.01076 301.2 15.2
311(9) 0.01180 301.2 15.1
333(10) 0.01039 301.2 15.0
309(10) 0.01087 301.2 14.8
324(10) 0.01053 301.2 14.6
315(9) 0.01183 301.2 14.3
314(9) 0.01164 301.2 14.1
314(10) 0.01088 301.2 13.9
313(10) 0.01074 301.2 13.8
313(9) 0.01112 301.2 13.7
304(9) 0.01229 301.2 13.6
310(9) 0.01125 301.2 13.7
304(9) 0.01170 301.2 13.7
317(10) 0.01082 301.2 13.9
309(9) 0.01144 301.2 14.1
329(9) 0.01136 301.2 14.4
324(9) 0.01110 301.2 14.7
317(10) 0.01051 301.2 15.1
332(10) 0.01013 301.2 15.5
317(9) 0.01126 301.2 16.0
315(9) 0.01179 301.2 16.6
331(10) 0.01048 301.2 17.2
314(10) 0.01104 301.2 17.8
330(10) 0.01047 301.2 18.5
321(9) 0.01117 301.2 19.2
320(9) 0.01168 301.2 19.9
300(9) 0.01180 301.2 20.6
342(10) 0.00961 301.2 21.4
304(9) 0.01131 301.2 22.1
353(10) 0.01023 301.2 22.9
333(9) 0.01111 301.2 23.6
334(10) 0.01051 301.2 24.4
330(10) 0.00996 301.2 25.1
331(10) 0.01068 301.2 25.8
320(9) 0.01150 301.2 26.6
320(9) 0.01181 301.2 27.3
338(10) 0.00996 301.2 28.2
349(10) 0.00933 301.2 29.1
333(10) 0.01035 301.2 30.0
344(10) 0.01077 301.2 31.1
369(10) 0.00988 301.2 32.3
343(10) 0.00992 301.2 33.6
337(10) 0.00932 301.2 35.0
355(10) 0.00937 301.2 36.6
360(10) 0.01030 301.2 38.3
362(10) 0.01010 301.2 40.0
361(10) 0.00940 301.2 41.9
348(10) 0.00913 301.2 43.8
349(10) 0.00981 301.2 45.7
355(10) 0.01043 301.2 47.6
354(10) 0.01050 301.2 49.4
381(10) 0.00914 301.2 51.1
375(11) 0.00865 301.2 52.6
340(10) 0.01028 301.2 53.9
364(10) 0.01008 301.2 55.1
374(10) 0.00990 301.2 55.9
377(11) 0.00879 301.2 56.6
391(11) 0.00854 301.2 57.0
368(10) 0.00966 301.2 57.1
352(10) 0.01050 301.2 56.9
386(10) 0.00946 301.2 56.5
380(11) 0.00899 301.2 55.8
368(11) 0.00865 301.2 54.9
340(10) 0.01005 301.2 53.6
370(10) 0.01005 301.2 52.2
349(10) 0.01006 301.2 50.5
331(10) 0.01047 301.2 48.6
345(10) 0.01000 301.2 46.6
338(10) 0.01069 301.2 44.5
382(10) 0.00966 301.2 42.5
367(10) 0.00964 301.2 40.4
364(10) 0.00925 301.2 38.4
364(10) 0.00908 301.2 36.4
341(10) 0.01023 301.2 34.6
326(9) 0.01135 301.2 32.8
326(10) 0.01078 301.2 31.1
318(10) 0.01076 301.2 29.6
334(10) 0.01022 301.2 28.1
343(10) 0.01022 301.2 26.8
337(10) 0.01103 301.2 25.5
330(10) 0.01072 301.2 24.4
327(10) 0.01023 301.2 23.4
315(9) 0.01152 301.2 22.4
331(10) 0.01093 301.2 21.6
311(9) 0.01179 301.2 20.9
297(9) 0.01204 301.2 20.3
304(10) 0.01071 301.2 19.8
295(9) 0.01166 301.2 19.3
307(9) 0.01226 301.2 19.0
324(9) 0.01139 301.2 18.8
311(9) 0.01157 301.2 18.6
330(10) 0.00988 301.2 18.6
320(10) 0.01091 301.2 18.6
322(9) 0.01148 301.2 18.8
323(9) 0.01141 301.2 19.0
319(10) 0.01080 301.2 19.3
323(10) 0.00971 301.2 19.8
317(10) 0.01085 301.2 20.3
309(9) 0.01193 301.2 21.0
334(10) 0.01099 301.2 21.7
332(10) 0.01043 301.2 22.6
340(10) 0.00952 301.2 23.6
328(10) 0.01051 301.2 24.7
303(9) 0.01241 301.2 25.9
334(10) 0.01074 301.2 27.2
324(10) 0.01049 301.2 28.7
343(10) 0.00963 301.2 30.2
319(10) 0.01057 301.2 31.9
328(9) 0.01125 301.2 33.7
320(9) 0.01145 301.2 35.5
317(10) 0.01104 301.2 37.5
349(10) 0.00933 301.2 39.4
318(10) 0.01103 301.2 41.4
368(10) 0.01012 301.2 43.3
341(10) 0.01070 301.2 45.2
331(10) 0.01059 301.2 46.9
354(10) 0.00942 301.2 48.4
378(10) 0.00908 301.2 49.7
358(10) 0.01028 301.2 50.8
356(10) 0.00989 301.2 51.5
388(11) 0.00848 301.2 51.8
366(10) 0.00941 301.2 51.8
397(11) 0.00900 301.2 51.4
390(10) 0.00957 301.2 50.8
358(10) 0.00997 301.2 49.8
382(11) 0.00861 301.2 48.6
376(10) 0.00918 301.2 47.2
353(10) 0.01017 301.2 45.6
371(10) 0.00999 301.2 44.0
348(10) 0.00998 301.2 42.3
361(10) 0.00928 301.2 40.6
359(10) 0.00916 301.2 38.9
343(10) 0.01042 301.2 37.3
324(9) 0.01142 301.2 35.6
344(10) 0.01012 301.2 34.0
330(10) 0.00980 301.2 32.5
328(10) 0.01032 301.2 31.0
326(9) 0.01148 301.2 29.5
325(9) 0.01132 301.2 28.1
316(10) 0.01070 301.2 26.7
304(10) 0.01047 301.2 25.4
322(10) 0.01041 301.2 24.1
311(9) 0.01179 301.2 22.8
327(9) 0.01116 301.1 21.6
311(9) 0.01155 301.1 20.5
336(10) 0.00952 301.1 19.4
300(9) 0.01178 301.1 18.4
307(9) 0.01234 301.1 17.5
317(9) 0.01152 301.1 16.6
325(10) 0.01069 301.1 15.8
335(10) 0.00937 301.1 15.0
299(9) 0.01169 301.1 14.3
299(9) 0.01233 301.1 13.7
311(9) 0.01208 301.1 13.1
334(10) 0.01071 301.1 12.5
305(10) 0.01042 301.1 12.0
298(10) 0.01097 301.1 11.5
291(9) 0.01278 301.1 11.1
296(9) 0.01209 301.1 10.7
304(9) 0.01141 301.1 10.4
331(10) 0.01017 301.1 10.0
333(10) 0.00995 301.1 9.7
322(9) 0.01170 301.1 9.5
313(9) 0.01155 301.1 9.2
315(9) 0.01124 301.1 9.0
314(10) 0.01056 301.1 8.8
296(9) 0.01166 301.1 8.6
321(9) 0.01169 301.1 8.4
310(9) 0.01134 301.1 8.3
305(9) 0.01127 301.1 8.1
311(9) 0.01114 301.1 8.0
319(9) 0.01124 301.1 7.9
311(9) 0.01188 301.1 7.8
321(10) 0.01084 301.1 7.7
290(9) 0.01145 301.1 7.6
293(9) 0.01170 301.1 7.6
290(9) 0.01237 301.1 7.5
306(9) 0.01210 301.1 7.5
287(9) 0.01200 301.1 7.4
298(9) 0.01153 301.1 7.4
300(9) 0.01194 301.1 7.4
300(9) 0.01175 301.1 7.4
337(10) 0.01082 301.1 7.4
309(10) 0.01098 301.1 7.4
330(10) 0.01004 301.1 7.4
320(10) 0.01078 301.1 7.4
307(9) 0.01192 301.1 7.5
317(9) 0.01167 301.1 7.5
317(9) 0.01129 301.1 7.6
306(10) 0.01088 301.1 7.6
300(9) 0.01149 301.1 7.7
313(9) 0.01172 301.1 7.7
305(9) 0.01236 301.1 7.8
296(9) 0.01183 301.1 7.9
292(10) 0.01105 301.1 8.0
295(9) 0.01164 301.1 8.0
308(9) 0.01202 301.1 8.1
299(9) 0.01235 301.1 8.2
313(9) 0.01118 301.1 8.3
336(10) 0.00927 301.1 8.4
325(10) 0.01045 301.1 8.4
315(9) 0.01161 301.1 8.5
314(9) 0.01160 301.1 8.6
319(9) 0.01121 301.1 8.6
337(10) 0.00998 301.1 8.7
317(10) 0.01103 301.1 8.8
332(9) 0.01130 301.1 8.8
308(9) 0.01125 301.1 8.9
320(10) 0.01074 301.1 9.0
324(10) 0.01042 301.1 9.0
341(10) 0.01013 301.1 9.1
319(9) 0.01165 301.1 9.2
307(9) 0.01170 301.1 9.3
306(9) 0.01144 301.1 9.4
315(10) 0.01087 301.1 9.5
309(9) 0.01139 301.1 9.7
299(9) 0.01253 301.1 9.8
300(9) 0.01174 301.1 9.9
305(9) 0.01122 301.1 10.1
310(10) 0.01093 301.1 10.2
295(9) 0.01237 301.1 10.4
332(9) 0.01111 301.1 10.6
318(9) 0.01113 301.1 10.8
313(10) 0.01079 301.1 11.0
324(10) 0.01074 301.1 11.2
308(9) 0.01170 301.1 11.5
343(10) 0.01068 301.1 11.7
331(10) 0.01039 301.1 11.9
313(10) 0.01105 301.1 12.2
322(10) 0.01084 301.1 12.5
307(9) 0.01207 301.1 12.8
303(9) 0.01223 301.1 13.1
300(9) 0.01167 301.1 13.4
313(10) 0.01074 301.1 13.7
326(10) 0.01057 301.1 14.1
347(10) 0.01058 301.1 14.4
313(9) 0.01196 301.1 14.8
337(10) 0.01031 301.1 15.2
342(10) 0.00959 301.1 15.6
330(10) 0.01039 301.1 16.0
323(9) 0.01145 301.1 16.5
307(9) 0.01199 301.1 16.9
323(10) 0.01032 301.1 17.4
292(9) 0.01146 301.1 17.9
322(10) 0.01074 301.1 18.4
318(9) 0.01146 301.1 18.9
330(9) 0.01113 301.1 19.5
316(9) 0.01131 301.1 20.1
343(10) 0.00960 301.1 20.7
324(10) 0.01102 301.1 21.3
357(10) 0.01024 301.1 21.9
334(9) 0.01113 301.1 22.5
350(10) 0.00978 301.1 23.2
338(10) 0.00964 301.1 23.8
345(10) 0.01004 301.1 24.4
322(9) 0.01145 301.1 25.1
330(9) 0.01114 301.1 25.7
337(10) 0.01066 301.1 26.4
353(10) 0.00948 301.1 27.0
357(10) 0.00980 301.1 27.7
365(10) 0.01023 301.1 28.4
325(9) 0.01130 301.1 29.0
345(10) 0.00985 301.1 29.7
333(10) 0.00985 301.1 30.4
327(10) 0.01074 301.1 31.2
334(9) 0.01113 301.1 31.9
328(10) 0.01078 301.1 32.7
331(10) 0.01053 301.1 33.5
340(10) 0.00986 301.1 34.4
346(10) 0.01021 301.1 35.2
355(10) 0.01048 301.1 36.1
346(10) 0.01008 301.1 37.0
357(10) 0.00922 301.1 37.9
369(10) 0.00927 301.1 38.8
340(10) 0.01054 301.1 39.6
353(10) 0.01066 301.1 40.4
357(10) 0.00965 301.1 41.1
353(10) 0.00975 301.1 41.8
344(10) 0.01042 301.1 42.3
394(10) 0.00919 301.1 42.8
370(10) 0.01006 301.1 43.1
348(10) 0.00984 301.1 43.3
323(10) 0.01055 301.1 43.3
360(10) 0.00948 301.1 43.3
354(10) 0.01003 301.1 43.1
343(10) 0.01086 301.1 42.8
353(10) 0.00977 301.1 42.4
332(10) 0.01026 301.1 41.9
350(10) 0.00944 301.1 41.3
325(9) 0.01140 301.1 40.7
368(10) 0.01001 301.1 40.0
369(10) 0.00930 301.1 39.3
319(10) 0.01021 301.1 38.6
317(10) 0.01083 301.1 37.9
333(10) 0.01107 301.1 37.2
317(9) 0.01170 301.1 36.5
317(9) 0.01150 301.1 35.9
344(10) 0.00932 301.1 35.2
332(10) 0.01073 301.1 34.6
369(10) 0.01007 301.1 34.1
330(10) 0.01101 301.1 33.5
327(10) 0.01087 301.1 33.0
342(10) 0.00947 301.1 32.6
329(10) 0.01066 301.1 32.2
341(10) 0.01095 301.1 31.8
330(10) 0.01077 301.1 31.5
365(10) 0.00959 301.1 31.2
349(10) 0.00977 301.1 31.0
341(10) 0.01018 301.1 30.8
343(10) 0.01088 301.1 30.6
317(9) 0.01129 301.1 30.5
333(10) 0.01005 301.1 30.5
316(10) 0.01051 301.1 30.5
303(9) 0.01168 301.1 30.5
315(9) 0.01177 301.1 30.6
374(10) 0.00942 301.1 30.7
369(10) 0.00932 301.1 30.9
351(10) 0.00951 301.1 31.1
324(10) 0.01062 301.1 31.4
336(9) 0.01111 301.1 31.7
322(9) 0.01129 301.1 32.0
313(9) 0.01126 301.1 32.4
359(10) 0.00925 301.1 32.8
339(10) 0.01049 301.1 33.3
347(10) 0.01064 301.1 33.7
318(10) 0.01106 301.1 34.2
350(10) 0.00950 301.1 34.6
349(10) 0.01012 301.1 35.0
329(9) 0.01117 301.1 35.4
358(10) 0.01027 301.1 35.7
363(10) 0.00943 301.1 36.0
350(10) 0.00944 301.1 36.3
329(10) 0.01067 301.1 36.4
349(10) 0.01065 301.1 36.5
347(10) 0.01067 301.1 36.4
347(10) 0.01028 301.1 36.3
354(10) 0.00945 301.1 36.1
334(10) 0.01076 301.1 35.7
355(10) 0.01036 301.1 35.3
313(9) 0.01190 301.1 34.8
365(10) 0.00972 301.1 34.2
348(10) 0.00933 301.1 33.5
323(10) 0.01078 301.1 32.8
335(10) 0.01104 301.1 32.1
320(9) 0.01151 301.1 31.3
334(10) 0.01069 301.1 30.5
344(10) 0.00927 301.1 29.7
332(10) 0.01073 301.1 28.9
358(10) 0.01015 301.1 28.2
313(9) 0.01177 301.1 27.4
332(10) 0.00990 301.1 26.7
306(10) 0.01041 301.1 26.0
337(10) 0.01009 301.1 25.3
315(9) 0.01194 301.1 24.7
339(10) 0.01074 301.1 24.1
329(10) 0.01048 301.1 23.6
342(10) 0.00969 301.1 23.1
308(10) 0.01088 301.1 22.6
292(9) 0.01237 301.1 22.2
332(10) 0.01082 301.1 21.8
316(9) 0.01136 301.1 21.5
345(10) 0.00958 301.1 21.2
324(10) 0.01046 301.1 20.9
304(9) 0.01221 301.1 20.7
298(9) 0.01234 301.1 20.5
334(10) 0.01011 301.1 20.4
309(9) 0.01112 301.1 20.3
307(10) 0.01088 301.1 20.2
290(9) 0.01291 301.1 20.1
321(10) 0.01084 301.1 20.1
314(10) 0.01084 301.1 20.1
326(10) 0.01060 301.1 20.1
338(10) 0.01032 301.1 20.1
314(9) 0.01176 301.1 20.1
357(10) 0.00982 301.1 20.1
325(10) 0.01030 301.1 20.2
314(10) 0.01107 301.1 20.2
336(10) 0.01067 301.1 20.2
342(10) 0.01084 301.1 20.1
318(9) 0.01121 301.1 20.1
345(10) 0.00933 301.1 20.0
343(10) 0.01009 301.1 19.9
324(9) 0.01120 301.1 19.8
329(9) 0.01122 301.1 19.6
331(10) 0.01076 301.1 19.4
312(10) 0.01095 301.1 19.2
331(10) 0.01062 301.1 19.0
333(9) 0.01110 301.1 18.7
337(10) 0.01101 301.1 18.4
323(10) 0.01106 301.1 18.2
327(10) 0.01005 301.1 17.9
329(10) 0.01057 301.1 17.6
332(9) 0.01121 301.1 17.3
307(9) 0.01206 301.1 16.9
325(10) 0.01100 301.1 16.6
314(10) 0.01061 301.1 16.3
311(10) 0.01040 301.1 16.0
294(9) 0.01260 301.1 15.7
289(9) 0.01283 301.1 15.4
313(10) 0.01089 301.1 15.1
325(10) 0.01002 301.1 14.8
309(9) 0.01147 301.1 14.5
300(9) 0.01239 301.1 14.2
303(9) 0.01197 301.1 13.9
303(9) 0.01142 301.1 13.6
319(10) 0.01012 301.1 13.4
304(10) 0.01095 301.1 13.1
305(9) 0.01208 301.1 12.8
321(9) 0.01142 301.1 12.5
290(9) 0.01215 301.1 12.2
307(10) 0.01060 301.1 11.9
315(10) 0.01085 301.1 11.7
312(9) 0.01191 301.1 11.4
310(9) 0.01177 301.1 11.2
311(10) 0.01094 301.1 10.9
293(9) 0.01160 301.1 10.7
299(9) 0.01197 301.1 10.4
293(9) 0.01274 301.1 10.2
310(9) 0.01151 301.1 10.0
310(9) 0.01138 301.1 9.8
311(9) 0.01139 301.1 9.6
290(9) 0.01251 301.1 9.4
310(9) 0.01195 301.1 9.2
301(9) 0.01174 301.1 9.1
292(9) 0.01196 301.1 8.9
316(10) 0.01047 301.1 8.8
314(9) 0.01142 301.1 8.6
314(9) 0.01185 301.1 8.5
307(9) 0.01144 301.1 8.3
328(10) 0.00983 301.1 8.2
304(9) 0.01123 301.1 8.1
300(9) 0.01208 301.1 8.0
293(9) 0.01271 301.1 7.9
311(10) 0.01093 301.1 7.8
291(9) 0.01112 301.1 7.7
320(10) 0.01070 301.1 7.7
314(9) 0.01185 301.1 7.6
303(9) 0.01227 301.1 7.5
289(9) 0.01192 301.1 7.5
285(9) 0.01117 301.1 7.4
287(9) 0.01177 301.1 7.4
287(9) 0.01284 301.1 7.3
286(9) 0.01318 301.1 7.3
321(10) 0.01087 301.1 7.3
301(10) 0.01082 301.1 7.2
307(10) 0.01092 301.1 7.2
311(9) 0.01185 301.1 7.2
308(9) 0.01206 301.1 7.2
316(10) 0.01105 301.1 7.2
305(10) 0.01091 301.1 7.2
315(10) 0.01091 301.1 7.2
322(9) 0.01145 301.1 7.3
303(9) 0.01230 301.1 7.3
303(9) 0.01147 301.1 7.3
281(9) 0.01154 301.1 7.4
282(9) 0.01220 301.1 7.4
267(9) 0.01383 301.1 7.5
301(9) 0.01219 301.1 7.5
322(10) 0.01076 301.1 7.6
293(9) 0.01174 301.1 7.7
282(9) 0.01232 301.1 7.7
308(9) 0.01213 301.1 7.8
320(9) 0.01147 301.1 7.9
301(9) 0.01151 301.1 8.0
304(9) 0.01145 301.1 8.1
319(10) 0.01098 301.1 8.2
288(9) 0.01277 301.1 8.3
280(9) 0.01292 301.1 8.4
336(10) 0.00996 301.1 8.6
301(9) 0.01145 301.1 8.7
255(8) 0.01395 301.1 8.8
300(9) 0.01227 301.1 8.9
302(9) 0.01160 301.1 9.1
307(10) 0.01083 301.0 9.2
312(10) 0.01072 301.0 9.3
305(9) 0.01201 301.0 9.4
281(9) 0.01323 301.0 9.5
314(10) 0.01090 301.0 9.7
294(9) 0.01182 301.0 9.8
289(9) 0.01230 301.0 9.9
284(9) 0.01295 301.0 9.9
299(9) 0.01231 301.0 10.0
290(9) 0.01148 301.0 10.1
309(10) 0.01072 301.0 10.1
302(9) 0.01133 301.0 10.2
281(9) 0.01325 301.0 10.2
303(9) 0.01212 300.9 10.2
288(9) 0.01263 300.9 10.2
322(10) 0.01009 300.9 10.2
306(9) 0.01113 300.9 10.2
286(9) 0.01292 300.9 10.2
330(9) 0.01118 300.9 10.1
308(9) 0.01144 300.9 10.1
300(10) 0.01096 300.9 10.1
311(9) 0.01120 300.9 10.0
310(9) 0.01194 300.9 10.0
309(9) 0.01204 300.9 9.9
318(10) 0.01036 300.9 9.9
283(9) 0.01158 300.9 9.9
275(9) 0.01263 300.9 9.8
312(9) 0.01172 300.8 9.8
325(9) 0.01141 300.8 9.8
320(10) 0.01099 300.8 9.7
309(10) 0.01069 300.8 9.7
297(9) 0.01189 300.8 9.7
322(9) 0.01167 300.8 9.7
305(9) 0.01219 300.8 9.6
321(10) 0.01100 300.8 9.6
308(9) 0.01110 300.8 9.6
311(9) 0.01114 300.8 9.6
318(9) 0.01164 300.8 9.6
309(9) 0.01167 300.8 9.7
289(9) 0.01204 300.8 9.7
326(10) 0.00985 300.7 9.7
302(9) 0.01187 300.7 9.7
317(9) 0.01172 300.7 9.7
297(9) 0.01195 300.7 9.8
322(10) 0.01063 300.7 9.8
285(9) 0.01263 300.7 9.8
315(10) 0.01097 300.7 9.9
310(9) 0.01194 300.7 9.9
306(9) 0.01171 300.7 10.0
314(9) 0.01123 300.7 10.1
294(9) 0.01204 300.7 10.2
282(9) 0.01249 300.7 10.2
295(9) 0.01257 300.7 10.3
310(9) 0.01133 300.6 10.4
292(9) 0.01146 300.6 10.5
308(10) 0.01087 300.6 10.7
324(10) 0.01085 300.6 10.8
325(9) 0.01154 300.6 10.9
301(9) 0.01151 300.6 11.1
313(10) 0.01079 300.6 11.2
311(9) 0.01129 300.6 11.4
317(9) 0.01157 300.6 11.6
313(9) 0.01210 300.6 11.7
325(10) 0.01032 300.6 11.9
289(9) 0.01125 300.6 12.1
295(9) 0.01181 300.6 12.2
320(9) 0.01138 300.5 12.3
301(9) 0.01237 300.5 12.4
320(10) 0.01096 300.5 12.5
313(9) 0.01114 300.5 12.6
334(10) 0.01063 300.5 12.6
282(9) 0.01327 300.5 12.6
302(9) 0.01199 300.5 12.6
304(9) 0.01144 300.5 12.6
318(10) 0.00969 300.5 12.6
318(10) 0.01056 300.5 12.6
347(10) 0.01066 300.5 12.5
302(9) 0.01218 300.5 12.5
303(9) 0.01146 300.5 12.5
320(10) 0.00998 300.4 12.4
295(9) 0.01177 300.4 12.4
299(9) 0.01249 300.4 12.3
310(9) 0.01133 300.4 12.3
293(9) 0.01170 300.4 12.3
325(10) 0.01004 300.4 12.2
331(10) 0.01040 300.4 12.2
315(9) 0.01178 300.4 12.1
296(9) 0.01239 300.4 12.1
320(10) 0.01086 300.4 12.0
305(9) 0.01141 300.4 12.0
325(10) 0.01067 300.4 11.9
295(9) 0.01254 300.4 11.8
301(9) 0.01159 300.4 11.8
319(10) 0.01088 300.3 11.7
324(10) 0.01042 300.3 11.7
293(9) 0.01175 300.3 11.6
299(9) 0.01250 300.3 11.6
315(9) 0.01112 300.3 11.5
305(9) 0.01146 300.3 11.4
335(10) 0.01039 300.3 11.4
318(9) 0.01116 300.3 11.3
278(9) 0.01341 300.3 11.3
277(9) 0.01309 300.3 11.2
327(10) 0.01013 300.3 11.2
342(10) 0.00986 300.3 11.2
321(10) 0.01094 300.3 11.1
304(9) 0.01225 300.2 11.1
315(9) 0.01112 300.2 11.0
327(10) 0.01017 300.2 11.0
319(10) 0.01093 300.2 10.9
298(9) 0.01202 300.2 10.9
312(9) 0.01184 300.2 10.9
308(9) 0.01144 300.2 10.8
313(10) 0.01079 300.2 10.8
320(10) 0.01105 300.2 10.7
308(9) 0.01172 300.2 10.7
290(9) 0.01274 300.2 10.6
306(9) 0.01142 300.2 10.6
286(9) 0.01211 300.2 10.5
313(9) 0.01129 300.1 10.5
310(9) 0.01206 300.1 10.4
315(9) 0.01190 300.1 10.4
302(9) 0.01162 300.1 10.4
334(10) 0.00918 300.1 10.3
320(10) 0.01095 300.1 10.3
299(9) 0.01243 300.1 10.2
304(9) 0.01216 300.1 10.2
319(10) 0.01068 300.1 10.2
320(10) 0.01031 300.1 10.2
319(9) 0.01115 300.1 10.2
303(9) 0.01236 300.1 10.2
321(9) 0.01123 300.1 10.2
304(9) 0.01159 300.0 10.3
335(10) 0.00964 300.0 10.4
302(9) 0.01180 300.0 10.5
329(9) 0.01134 300.0 10.6
322(9) 0.01144 300.0 10.8
314(9) 0.01111 300.0 11.1
301(9) 0.01122 300.0 11.4
314(10) 0.01084 300.0 11.8
295(9) 0.01243 300.0 12.2
335(10) 0.01070 300.0 12.8
317(9) 0.01136 300.0 13.4
313(10) 0.01098 300.0 14.2
301(9) 0.01137 300.0 15.0
285(9) 0.01300 299.9 16.0
320(9) 0.01114 299.9 17.2
311(9) 0.01112 299.9 18.5
323(10) 0.01070 299.9 19.9
339(10) 0.01030 299.9 21.4
326(9) 0.01132 299.9 23.0
302(9) 0.01116 299.9 24.8
307(10) 0.01060 299.9 26.6
331(10) 0.01041 299.9 28.4
336(10) 0.01061 299.9 30.2
325(9) 0.01128 299.9 31.9
314(9) 0.01117 299.9 33.6
304(10) 0.01088 299.9 34.9
310(10) 0.01068 299.9 36.1
304(9) 0.01213 299.8 36.8
325(9) 0.01133 299.8 37.2
343(10) 0.01032 299.8 37.1
321(10) 0.01063 299.8 36.7
335(10) 0.01021 299.8 35.8
335(10) 0.01100 299.8 34.7
321(9) 0.01159 299.8 33.3
302(9) 0.01148 299.8 31.8
322(10) 0.01030 299.8 30.2
321(10) 0.01099 299.8 28.5
334(10) 0.01072 299.8 26.9
331(9) 0.01137 299.8 25.4
311(9) 0.01112 299.8 23.9
309(10) 0.01051 299.7 22.5
343(10) 0.00990 299.7 21.3
324(9) 0.01148 299.7 20.2
319(9) 0.01141 299.7 19.2
357(10) 0.00983 299.7 18.4
337(10) 0.00980 299.7 17.7
318(10) 0.01090 299.7 17.1
319(9) 0.01168 299.7 16.6
308(9) 0.01199 299.7 16.3
326(10) 0.01056 299.7 16.0
309(10) 0.01084 299.7 15.8
281(9) 0.01293 299.7 15.7
328(9) 0.01128 299.7 15.6
315(9) 0.01149 299.6 15.6
310(9) 0.01162 299.6 15.6
339(10) 0.00972 299.6 15.6
338(10) 0.01034 299.6 15.7
306(9) 0.01201 299.6 15.8
308(9) 0.01150 299.6 15.9
301(9) 0.01191 299.6 16.0
327(10) 0.01021 299.6 16.2
310(9) 0.01158 299.6 16.3
319(9) 0.01157 299.6 16.4
336(10) 0.01068 299.6 16.6
320(10) 0.01029 299.6 16.7
314(10) 0.01073 299.6 16.9
305(9) 0.01177 299.5 17.1
327(9) 0.01140 299.5 17.2
311(9) 0.01148 299.5 17.4
320(10) 0.01083 299.5 17.6
311(9) 0.01129 299.5 17.8
331(10) 0.01100 299.5 18.0
327(9) 0.01122 299.5 18.3
323(10) 0.01072 299.5 18.5
323(10) 0.01045 299.5 18.8
298(9) 0.01176 299.5 19.0
337(10) 0.01060 299.5 19.3
292(9) 0.01276 299.5 19.7
306(9) 0.01147 299.5 20.0
288(9) 0.01192 299.4 20.4
324(10) 0.01080 299.4 20.7
319(9) 0.01162 299.4 21.1
330(9) 0.01130 299.4 21.6
320(9) 0.01108 299.4 22.0
285(9) 0.01166 299.4 22.4
303(9) 0.01148 299.4 22.9
320(9) 0.01126 299.4 23.4
322(9) 0.01158 299.4 23.9
321(10) 0.01106 299.4 24.4
317(10) 0.01058 299.4 24.9
333(10) 0.01049 299.4 25.4
344(10) 0.01066 299.4 25.9
360(10) 0.01020 299.4 26.3
319(10) 0.01058 299.3 26.8
324(10) 0.00971 299.3 27.3
334(10) 0.01064 299.3 27.7
334(9) 0.01109 299.3 28.1
341(10) 0.01051 299.3 28.5
340(10) 0.01055 299.3 28.8
343(10) 0.00986 299.3 29.1
355(10) 0.00962 299.3 29.3
339(10) 0.01076 299.3 29.5
316(9) 0.01169 299.3 29.6
334(10) 0.01056 299.3 29.7
339(10) 0.00944 299.3 29.7
361(10) 0.00937 299.3 29.7
307(9) 0.01203 299.2 29.6
334(10) 0.01082 299.2 29.4
308(9) 0.01192 299.2 29.2
334(10) 0.01038 299.2 29.0
336(10) 0.01034 299.2 28.8
319(9) 0.01171 299.2 28.5
319(9) 0.01139 299.2 28.2
299(9) 0.01207 299.2 27.9
333(10) 0.01004 299.2 27.6
311(9) 0.01151 299.2 27.3
323(9) 0.01154 299.2 27.0
320(10) 0.01092 299.2 26.6
301(9) 0.01168 299.2 26.4
344(10) 0.00974 299.1 26.1
341(10) 0.01083 299.1 25.8
346(10) 0.01069 299.1 25.6
312(9) 0.01133 299.1 25.3
334(10) 0.01019 299.1 25.1
328(10) 0.01020 299.1 24.9
301(9) 0.01182 299.1 24.8
322(9) 0.01154 299.1 24.6
291(9) 0.01186 299.1 24.5
337(10) 0.00972 299.1 24.4
335(10) 0.01057 299.1 24.3
321(9) 0.01144 299.1 24.2
307(9) 0.01197 299.1 24.1
317(10) 0.01092 299.0 24.0
327(10) 0.01037 299.0 23.9
341(10) 0.01029 299.0 23.9
329(9) 0.01126 299.0 23.8
346(10) 0.01063 299.0 23.7
310(9) 0.01127 299.0 23.6
296(10) 0.01102 299.0 23.5
304(9) 0.01142 299.0 23.4
324(9) 0.01116 299.0 23.2
320(9) 0.01156 299.0 23.1
344(10) 0.01000 299.0 22.9
298(10) 0.01083 299.0 22.7
310(10) 0.01101 299.0 22.4
334(9) 0.01124 298.9 22.2
310(9) 0.01168 298.9 21.9
309(9) 0.01147 298.9 21.7
325(10) 0.01027 298.9 21.4
342(10) 0.01035 298.9 21.1
338(10) 0.01092 298.9 20.8
312(9) 0.01195 298.9 20.6
333(10) 0.01032 298.9 20.4
316(10) 0.01064 298.9 20.1
348(10) 0.00957 298.9 20.0
309(9) 0.01200 298.9 19.8
310(9) 0.01146 298.9 19.7
296(9) 0.01172 298.9 19.7
309(10) 0.01090 298.9 19.7
340(10) 0.00989 298.8 19.8
317(9) 0.01161 298.8 20.0
336(10) 0.01087 298.8 20.2
320(10) 0.01065 298.8 20.4
306(10) 0.01061 298.8 20.7
303(9) 0.01207 298.8 21.0
339(10) 0.01082 298.8 21.4
314(9) 0.01144 298.8 21.7
319(10) 0.01061 298.8 22.0
304(9) 0.01156 298.8 22.3
295(9) 0.01208 298.8 22.5
336(10) 0.01103 298.8 22.6
344(10) 0.01023 298.8 22.6
303(9) 0.01122 298.7 22.4
298(10) 0.01102 298.7 22.2
322(10) 0.01076 298.7 21.9
319(9) 0.01167 298.7 21.5
301(9) 0.01126 298.7 21.0
323(10) 0.00993 298.7 20.5
321(10) 0.01047 298.7 20.0
319(9) 0.01156 298.7 19.5
332(9) 0.01136 298.7 19.1
330(10) 0.01036 298.7 18.7
317(10) 0.01074 298.7 18.3
287(9) 0.01249 298.7 18.0
313(9) 0.01147 298.7 17.7
339(10) 0.01099 298.6 17.5
313(10) 0.01095 298.6 17.3
300(10) 0.01069 298.6 17.2
328(10) 0.01039 298.6 17.2
313(9) 0.01186 298.6 17.2
329(9) 0.01127 298.6 17.3
343(10) 0.01034 298.6 17.4
315(10) 0.01043 298.6 17.6
291(9) 0.01205 298.6 17.9
302(9) 0.01238 298.6 18.1
321(9) 0.01136 298.6 18.4
309(9) 0.01151 298.6 18.8
292(9) 0.01153 298.6 19.1
313(10) 0.01089 298.5 19.5
332(9) 0.01123 298.5 19.9
298(9) 0.01234 298.5 20.3
338(10) 0.00963 298.5 20.6
327(10) 0.00984 298.5 20.9
314(10) 0.01077 298.5 21.2
309(9) 0.01206 298.5 21.4
313(9) 0.01164 298.5 21.6
315(9) 0.01112 298.5 21.6
322(10) 0.01004 298.5 21.6
336(10) 0.00983 298.5 21.5
329(9) 0.01120 298.5 21.4
301(9) 0.01176 298.5 21.1
330(10) 0.01001 298.5 20.8
299(9) 0.01124 298.4 20.5
323(10) 0.01068 298.4 20.2
313(9) 0.01167 298.4 19.8
336(10) 0.01064 298.4 19.4
314(10) 0.01105 298.4 19.0
315(10) 0.01071 298.4 18.7
308(9) 0.01123 298.4 18.3
280(9) 0.01316 298.4 18.0
316(9) 0.01119 298.4 17.7
302(9) 0.01124 298.4 17.4
276(9) 0.01284 298.4 17.2
300(9) 0.01222 298.4 16.9
306(9) 0.01205 298.4 16.8
318(10) 0.01050 298.3 16.6
340(10) 0.00947 298.3 16.5
288(9) 0.01207 298.3 16.5
306(9) 0.01125 298.3 16.5
306(9) 0.01205 298.3 16.5
335(10) 0.01014 298.3 16.5
314(10) 0.01048 298.3 16.6
319(10) 0.01060 298.3 16.7
326(10) 0.01100 298.3 16.8
299(9) 0.01245 298.3 17.0
303(9) 0.01179 298.3 17.2
295(9) 0.01157 298.3 17.4
312(9) 0.01143 298.3 17.7
305(9) 0.01216 298.2 17.9
304(9) 0.01240 298.2 18.2
312(10) 0.01093 298.2 18.4
285(9) 0.01122 298.2 18.7
288(9) 0.01209 298.2 18.9
322(9) 0.01110 298.2 19.0
319(9) 0.01164 298.2 19.1
305(9) 0.01137 298.2 19.2
295(10) 0.01091 298.2 19.1
313(10) 0.01076 298.2 19.0
313(9) 0.01192 298.2 18.8
295(9) 0.01265 298.2 18.6
301(9) 0.01206 298.2 18.3
341(10) 0.00929 298.1 17.9
317(10) 0.01098 298.1 17.6
323(9) 0.01142 298.1 17.2
339(10) 0.01102 298.1 16.9
307(9) 0.01176 298.1 16.6
313(10) 0.01043 298.1 16.3
324(10) 0.01067 298.1 16.0
336(9) 0.01111 298.1 15.8
315(9) 0.01177 298.1 15.6
312(9) 0.01120 298.1 15.4
302(9) 0.01139 298.1 15.2
298(9) 0.01171 298.1 15.1
289(9) 0.01273 298.1 14.9
320(9) 0.01120 298.0 14.8
316(10) 0.01084 298.0 14.6
324(10) 0.01024 298.0 14.5
301(9) 0.01192 298.0 14.3
344(10) 0.01073 298.0 14.2
304(9) 0.01111 298.0 14.1
308(10) 0.01073 298.0 14.0
307(10) 0.01083 298.0 13.8
288(9) 0.01191 298.0 13.7
288(9) 0.01297 298.0 13.6
297(9) 0.01166 298.0 13.5
297(9) 0.01182 298.0 13.5
292(9) 0.01209 298.0 13.4
312(9) 0.01148 298.0 13.3
319(9) 0.01157 297.9 13.3
305(9) 0.01157 297.9 13.2
325(10) 0.00990 297.9 13.2
306(9) 0.01128 297.9 13.1
308(9) 0.01214 297.9 13.1
300(9) 0.01245 297.9 13.1
296(9) 0.01146 297.9 13.1
287(9) 0.01144 297.9 13.1
316(9) 0.01113 297.9 13.1
328(10) 0.01089 297.9 13.1
313(9) 0.01197 297.9 13.1
298(9) 0.01184 297.9 13.1
304(10) 0.01083 297.9 13.2
321(10) 0.01060 297.8 13.2
289(9) 0.01280 297.8 13.3
302(9) 0.01181 297.8 13.3
322(10) 0.01055 297.8 13.3
327(10) 0.00991 297.8 13.3
327(10) 0.01068 297.8 13.3
307(9) 0.01203 297.8 13.3
300(9) 0.01220 297.8 13.3
306(9) 0.01132 297.8 13.2
312(10) 0.01023 297.8 13.1
307(9) 0.01124 297.8 13.0
322(9) 0.01162 297.8 12.8
299(9) 0.01214 297.8 12.7
303(9) 0.01122 297.7 12.5
301(9) 0.01138 297.7 12.2
287(9) 0.01258 297.7 12.0
309(9) 0.01213 297.7 11.8
289(9) 0.01245 297.7 11.5
293(9) 0.01190 297.7 11.3
308(10) 0.01071 297.7 11.0
303(9) 0.01139 297.7 10.8
291(9) 0.01284 297.7 10.5
317(9) 0.01126 297.7 10.3
322(10) 0.01064 297.7 10.0
309(9) 0.01125 297.7 9.8
322(10) 0.01105 297.7 9.5
307(9) 0.01222 297.6 9.3
289(9) 0.01190 297.6 9.1
300(10) 0.01084 297.6 8.9
302(9) 0.01129 297.6 8.7
312(9) 0.01159 297.6 8.5
314(9) 0.01182 297.6 8.3
316(10) 0.01091 297.6 8.1
304(9) 0.01136 297.6 7.9
304(9) 0.01138 297.6 7.7
308(9) 0.01165 297.6 7.5
273(9) 0.01365 297.6 7.3
301(9) 0.01149 297.6 7.1
301(9) 0.01119 297.6 6.9
311(10) 0.01099 297.5 6.8
298(9) 0.01180 297.5 6.6
317(9) 0.01167 297.5 6.4
301(9) 0.01176 297.5 6.3
307(10) 0.01056 297.5 6.1
287(9) 0.01277 297.5 5.9
314(9) 0.01172 297.5 5.8
312(9) 0.01219 297.5 5.7
291(9) 0.01189 297.5 5.5
336(10) 0.00928 297.5 5.4
312(10) 0.01097 297.5 5.3
289(9) 0.01270 297.5 5.2
305(9) 0.01209 297.5 5.0
294(9) 0.01201 297.5 4.9
292(10) 0.01105 297.4 4.8
302(9) 0.01151 297.4 4.7
320(9) 0.01168 297.4 4.7
304(9) 0.01201 297.4 4.6
264(9) 0.01367 297.4 4.5
310(10) 0.01051 297.4 4.4
295(9) 0.01180 297.4 4.3
288(9) 0.01300 297.4 4.3
301(9) 0.01210 297.4 4.2
276(9) 0.01271 297.4 4.2
294(9) 0.01136 297.4 4.1
306(9) 0.01166 297.4 4.1
312(9) 0.01172 297.4 4.0
305(9) 0.01201 297.3 4.0
286(9) 0.01218 297.3 3.9
271(9) 0.01235 297.3 3.9
299(10) 0.01100 297.3 3.9
284(9) 0.01305 297.3 3.8
295(9) 0.01217 297.3 3.8
296(9) 0.01176 297.3 3.8
310(10) 0.01104 297.3 3.8
292(9) 0.01211 297.3 3.8
323(9) 0.01147 297.3 3.8
270(9) 0.01305 297.3 3.7
289(9) 0.01155 297.3 3.7
297(9) 0.01163 297.3 3.7
281(9) 0.01235 297.3 3.7
281(9) 0.01314 297.3 3.7
296(9) 0.01216 297.3 3.7
274(9) 0.01297 297.3 3.8
291(9) 0.01153 297.3 3.8
291(9) 0.01220 297.3 3.8
293(9) 0.01270 297.3 3.8
307(10) 0.01107 297.3 3.8
292(9) 0.01144 297.3 3.8
290(9) 0.01169 297.3 3.9
312(9) 0.01155 297.3 3.9
307(9) 0.01216 297.4 3.9
309(9) 0.01122 297.4 4.0
291(9) 0.01135 297.4 4.0
315(10) 0.01058 297.4 4.1
297(9) 0.01225 297.4 4.1
285(9) 0.01326 297.4 4.2
307(9) 0.01117 297.4 4.2
284(9) 0.01184 297.4 4.3
295(9) 0.01159 297.4 4.3
288(9) 0.01231 297.4 4.4
292(9) 0.01287 297.4 4.5
304(9) 0.01158 297.4 4.6
316(10) 0.00967 297.4 4.6
261(9) 0.01324 297.4 4.7
276(9) 0.01362 297.4 4.8
303(9) 0.01227 297.4 4.9
290(9) 0.01192 297.4 5.0
293(10) 0.01064 297.4 5.1
295(9) 0.01168 297.4 5.2
305(9) 0.01215 297.4 5.3
322(9) 0.01140 297.4 5.4
289(9) 0.01188 297.4 5.5
279(9) 0.01124 297.4 5.6
304(9) 0.01132 297.4 5.7
302(9) 0.01230 297.4 5.8
315(9) 0.01152 297.4 5.8
310(10) 0.01097 297.4 5.9
308(10) 0.01078 297.4 6.0
313(10) 0.01101 297.4 6.1
309(9) 0.01206 297.4 6.2
313(9) 0.01155 297.4 6.2
291(9) 0.01195 297.4 6.3
280(9) 0.01232 297.4 6.4
306(9) 0.01117 297.4 6.4
292(9) 0.01268 297.5 6.5
301(9) 0.01155 297.5 6.5
279(9) 0.01230 297.5 6.6
300(9) 0.01158 297.5 6.7
318(9) 0.01114 297.5 6.7
308(9) 0.01202 297.5 6.8
299(9) 0.01185 297.5 6.9
283(9) 0.01211 297.5 6.9
310(9) 0.01108 297.5 7.0
321(10) 0.01106 297.5 7.1
318(9) 0.01180 297.5 7.2
283(9) 0.01214 297.5 7.4
294(9) 0.01118 297.5 7.5
299(9) 0.01190 297.5 7.7
302(9) 0.01210 297.5 7.8
308(9) 0.01198 297.5 8.0
318(10) 0.01079 297.5 8.2
321(10) 0.01022 297.5 8.4
296(9) 0.01240 297.5 8.6
302(9) 0.01237 297.5 8.9
265(8) 0.01424 297.5 9.1
306(10) 0.01095 297.5 9.4
305(10) 0.01100 297.5 9.7
337(10) 0.01033 297.5 10.0
321(9) 0.01116 297.5 10.3
303(9) 0.01220 297.5 10.7
300(9) 0.01175 297.5 11.0
323(10) 0.01004 297.5 11.4
284(9) 0.01237 297.5 11.8
301(9) 0.01222 297.5 12.1
283(9) 0.01335 297.5 12.5
301(9) 0.01152 297.5 12.9
330(10) 0.01001 297.5 13.3
301(9) 0.01176 297.5 13.7
287(9) 0.01256 297.5 14.1
316(9) 0.01158 297.6 14.4
340(10) 0.00996 297.6 14.7
300(10) 0.01098 297.6 15.0
316(9) 0.01119 297.6 15.3
351(10) 0.01058 297.6 15.5
289(9) 0.01258 297.6 15.6
301(9) 0.01176 297.6 15.8
303(9) 0.01127 297.6 15.8
298(9) 0.01124 297.6 15.8
315(9) 0.01191 297.6 15.8
329(10) 0.01106 297.6 15.7
310(10) 0.01093 297.6 15.5
311(10) 0.01070 297.6 15.4
317(10) 0.01062 297.6 15.1
314(9) 0.01175 297.6 14.9
307(9) 0.01159 297.6 14.6
315(10) 0.01069 297.6 14.3
298(9) 0.01110 297.6 14.1
291(9) 0.01207 297.6 13.7
311(9) 0.01199 297.6 13.4
292(9) 0.01208 297.6 13.1
299(9) 0.01143 297.6 12.9
304(9) 0.01138 297.6 12.6
273(9) 0.01308 297.6 12.3
299(9) 0.01249 297.6 12.0
303(9) 0.01132 297.6 11.8
312(10) 0.01072 297.6 11.5
298(9) 0.01178 297.6 11.3
305(9) 0.01186 297.6 11.1
291(9) 0.01257 297.6 10.9
298(9) 0.01172 297.6 10.7
325(10) 0.01010 297.6 10.6
308(9) 0.01148 297.6 10.4
318(9) 0.01138 297.6 10.3
301(9) 0.01251 297.7 10.2
284(9) 0.01200 297.7 10.1
308(10) 0.01042 297.7 10.0
319(9) 0.01133 297.7 9.9
341(10) 0.01055 297.7 9.9
309(9) 0.01205 297.7 9.8
292(9) 0.01153 297.7 9.8
305(10) 0.01063 297.7 9.7
292(9) 0.01260 297.7 9.7
300(9) 0.01248 297.7 9.7
330(9) 0.01137 297.7 9.7
302(9) 0.01150 297.7 9.7
295(10) 0.01084 297.7 9.7
295(9) 0.01170 297.7 9.7
293(9) 0.01245 297.7 9.7
296(9) 0.01243 297.7 9.7
318(10) 0.01105 297.7 9.7
312(10) 0.01051 297.7 9.7
311(10) 0.01101 297.7 9.7
301(9) 0.01216 297.7 9.7
301(9) 0.01231 297.7 9.7
300(9) 0.01176 297.7 9.7
302(10) 0.01086 297.7 9.7
301(10) 0.01108 297.7 9.7
329(9) 0.01134 297.7 9.7
313(9) 0.01154 297.7 9.7
322(10) 0.01044 297.7 9.7
294(9) 0.01130 297.7 9.7
340(10) 0.01000 297.7 9.7
304(9) 0.01207 297.7 9.7
301(9) 0.01200 297.7 9.7
304(9) 0.01144 297.7 9.7
298(9) 0.01139 297.7 9.7
317(10) 0.01103 297.7 9.7
274(9) 0.01346 297.7 9.7
306(9) 0.01165 297.8 9.7
310(9) 0.01141 297.8 9.7
308(9) 0.01167 297.8 9.7
319(9) 0.01123 297.8 9.7
280(9) 0.01325 297.8 9.7
324(10) 0.01023 297.8 9.7
315(10) 0.01070 297.8 9.8
299(9) 0.01196 297.8 9.9
278(9) 0.01332 297.8 9.9
289(9) 0.01286 297.8 10.0
313(10) 0.01099 297.8 10.1
297(9) 0.01128 297.8 10.3
321(10) 0.01031 297.8 10.4
305(9) 0.01190 297.8 10.6
313(9) 0.01195 297.8 10.8
308(10) 0.01100 297.8 11.0
301(10) 0.01038 297.8 11.2
302(9) 0.01145 297.8 11.4
307(9) 0.01184 297.8 11.7
322(9) 0.01130 297.8 11.9
313(9) 0.01109 297.8 12.1
279(9) 0.01215 297.8 12.3
286(9) 0.01256 297.8 12.5
313(9) 0.01182 297.8 12.7
341(10) 0.01096 297.8 12.8
329(10) 0.01011 297.8 13.0
295(10) 0.01076 297.8 13.1
320(10) 0.01058 297.8 13.1
299(9) 0.01251 297.8 13.2
314(9) 0.01151 297.8 13.2
325(10) 0.01011 297.8 13.3
318(10) 0.01024 297.8 13.3
310(9) 0.01137 297.8 13.3
304(9) 0.01236 297.8 13.4
302(9) 0.01211 297.9 13.4
313(9) 0.01113 297.9 13.4
294(9) 0.01153 297.9 13.5
315(10) 0.01062 297.9 13.5
295(9) 0.01249 297.9 13.5
292(9) 0.01243 297.9 13.6
319(10) 0.01073 297.9 13.6
295(9) 0.01155 297.9 13.6
299(9) 0.01155 297.9 13.6
329(9) 0.01134 297.9 13.6
307(9) 0.01199 297.9 13.6
294(9) 0.01162 297.9 13.6
287(9) 0.01191 297.9 13.6
322(10) 0.01107 297.9 13.6
355(10) 0.01050 297.9 13.6
311(9) 0.01123 297.9 13.5
322(10) 0.01048 297.9 13.5
325(10) 0.01033 297.9 13.4
307(9) 0.01162 297.9 13.4
306(9) 0.01221 297.9 13.4
313(9) 0.01118 297.9 13.4
317(10) 0.01038 297.9 13.4
318(10) 0.01091 297.9 13.4
322(9) 0.01126 297.9 13.4
312(9) 0.01190 297.9 13.5
298(9) 0.01176 297.9 13.5
296(9) 0.01146 297.9 13.6
307(9) 0.01149 297.9 13.8
328(9) 0.01111 297.9 13.9
316(9) 0.01178 297.9 14.1
300(9) 0.01160 297.9 14.2
301(10) 0.01074 297.9 14.4
292(9) 0.01194 297.9 14.7
308(9) 0.01159 297.9 14.9
298(9) 0.01263 297.9 15.1
307(9) 0.01141 298.0 15.3
320(10) 0.00981 298.0 15.4
282(9) 0.01226 298.0 15.6
306(9) 0.01187 298.0 15.6
292(9) 0.01271 298.0 15.7
307(9) 0.01123 298.0 15.6
298(10) 0.01080 298.0 15.5
312(9) 0.01117 298.0 15.3
300(9) 0.01211 298.0 15.1
317(9) 0.01181 298.0 14.8
297(9) 0.01213 298.0 14.4
318(10) 0.01023 298.0 14.0
295(9) 0.01190 298.0 13.6
299(9) 0.01235 298.0 13.1
309(9) 0.01192 298.0 12.6
320(10) 0.01092 298.0 12.1
324(10) 0.01021 298.0 11.7
327(10) 0.01060 298.0 11.2
321(9) 0.01140 298.0 10.8
298(9) 0.01193 298.0 10.3
304(10) 0.01072 298.0 9.9
296(9) 0.01113 298.0 9.5
286(9) 0.01234 298.0 9.2
282(9) 0.01314 298.0 8.8
300(9) 0.01203 298.0 8.5
296(9) 0.01157 298.0 8.3
304(10) 0.01086 298.0 8.0
293(9) 0.01188 298.0 7.8
305(9) 0.01212 298.0 7.6
303(9) 0.01181 298.0 7.4
291(9) 0.01217 298.0 7.2
288(9) 0.01223 298.0 7.1
297(9) 0.01198 298.0 6.9
304(9) 0.01231 298.0 6.8
298(9) 0.01153 298.1 6.7
298(9) 0.01142 298.1 6.6
287(9) 0.01238 298.1 6.6
285(9) 0.01183 298.1 6.5
282(9) 0.01332 298.1 6.5
293(9) 0.01192 298.1 6.5
301(9) 0.01126 298.1 6.4
303(10) 0.01107 298.1 6.4
300(9) 0.01204 298.1 6.4
316(9) 0.01164 298.1 6.5
327(10) 0.01032 298.1 6.5
285(9) 0.01163 298.1 6.6
288(9) 0.01185 298.1 6.6
301(9) 0.01179 298.1 6.7
311(9) 0.01199 298.1 6.8
299(9) 0.01149 298.1 6.9
312(10) 0.01076 298.1 7.1
314(9) 0.01152 298.1 7.2
309(9) 0.01179 298.1 7.4
263(8) 0.01419 298.1 7.7
292(9) 0.01195 298.1 7.9
297(9) 0.01125 298.1 8.2
302(9) 0.01180 298.1 8.5
321(9) 0.01151 298.1 8.8
294(9) 0.01249 298.1 9.1
298(9) 0.01215 298.1 9.5
304(9) 0.01145 298.1 9.9
297(9) 0.01163 298.1 10.3
294(9) 0.01251 298.1 10.7
286(9) 0.01295 298.1 11.1
290(9) 0.01151 298.1 11.5
319(10) 0.00998 298.1 11.9
302(9) 0.01148 298.1 12.3
292(9) 0.01287 298.1 12.6
309(9) 0.01173 298.1 12.9
317(10) 0.01082 298.2 13.2
305(10) 0.01076 298.2 13.4
290(9) 0.01175 298.2 13.5
327(9) 0.01130 298.2 13.5
312(9) 0.01124 298.2 13.5
284(9) 0.01219 298.2 13.4
315(10) 0.01041 298.2 13.3
289(9) 0.01209 298.2 13.1
301(9) 0.01250 298.2 12.9
286(9) 0.01250 298.2 12.7
310(9) 0.01118 298.2 12.4
302(9) 0.01113 298.2 12.2
285(9) 0.01233 298.2 12.0
278(9) 0.01349 298.2 11.8
306(9) 0.01144 298.2 11.6
299(9) 0.01178 298.2 11.5
300(9) 0.01181 298.2 11.4
328(10) 0.01089 298.2 11.3
314(9) 0.01196 298.2 11.2
288(9) 0.01218 298.2 11.2
304(10) 0.01065 298.2 11.2
284(9) 0.01220 298.2 11.2
300(9) 0.01195 298.2 11.2
296(9) 0.01263 298.2 11.3
352(10) 0.00981 298.2 11.4
314(10) 0.01088 298.2 11.6
307(10) 0.01103 298.2 11.7
307(9) 0.01190 298.2 11.9
304(9) 0.01230 298.2 12.0
296(9) 0.01201 298.2 12.2
313(10) 0.01037 298.2 12.4
297(9) 0.01131 298.2 12.6
288(9) 0.01262 298.2 12.8
291(9) 0.01241 298.2 13.0
285(9) 0.01132 298.3 13.2
267(9) 0.01210 298.3 13.4
300(9) 0.01171 298.3 13.6
314(9) 0.01185 298.3 13.8
290(9) 0.01290 298.3 13.9
304(9) 0.01151 298.3 14.1
322(10) 0.01019 298.3 14.2
343(10) 0.01000 298.3 14.4
314(9) 0.01188 298.3 14.5
322(9) 0.01141 298.3 14.7
304(9) 0.01138 298.3 14.8
349(10) 0.00930 298.3 14.9
331(10) 0.01062 298.3 15.0
325(9) 0.01147 298.3 15.2
319(9) 0.01164 298.3 15.3
287(9) 0.01186 298.3 15.4
277(9) 0.01229 298.3 15.5
319(10) 0.01080 298.3 15.6
324(9) 0.01152 298.3 15.8
312(9) 0.01182 298.3 15.9
324(10) 0.01047 298.3 16.0
300(10) 0.01050 298.3 16.1
318(10) 0.01023 298.3 16.2
321(9) 0.01167 298.3 16.3
333(9) 0.01115 298.3 16.4
338(10) 0.01022 298.3 16.5
292(9) 0.01160 298.3 16.6
305(9) 0.01140 298.3 16.6
300(9) 0.01234 298.3 16.7
310(9) 0.01141 298.3 16.7
317(10) 0.01077 298.3 16.8
293(9) 0.01175 298.3 16.8
324(9) 0.01109 298.3 16.9
303(9) 0.01227 298.3 16.9
314(9) 0.01151 298.3 16.9
305(10) 0.01092 298.4 16.9
331(10) 0.00998 298.4 16.9
313(9) 0.01140 298.4 16.9
319(9) 0.01156 298.4 16.9
302(9) 0.01125 298.4 16.8
308(10) 0.01069 298.4 16.8
312(10) 0.01094 298.4 16.7
294(9) 0.01256 298.4 16.6
327(9) 0.01130 298.4 16.5
294(9) 0.01152 298.4 16.5
326(10) 0.00984 298.4 16.3
309(9) 0.01131 298.4 16.2
307(9) 0.01198 298.4 16.1
320(9) 0.01156 298.4 15.9
308(9) 0.01112 298.4 15.8
326(10) 0.00978 298.4 15.6
328(10) 0.01087 298.4 15.5
317(9) 0.01148 298.4 15.3
313(9) 0.01189 298.4 15.1
289(9) 0.01222 298.4 14.9
327(10) 0.00955 298.4 14.7
308(9) 0.01128 298.4 14.5
323(9) 0.01114 298.4 14.3
304(9) 0.01239 298.4 14.0
306(9) 0.01147 298.4 13.8
339(10) 0.00944 298.4 13.6
324(10) 0.01072 298.4 13.4
297(9) 0.01245 298.4 13.1
305(9) 0.01183 298.4 12.9
292(9) 0.01159 298.4 12.7
272(9) 0.01244 298.4 12.5
285(9) 0.01189 298.4 12.2
307(9) 0.01223 298.4 12.0
286(9) 0.01242 298.4 11.8
341(10) 0.00986 298.4 11.6
306(10) 0.01093 298.5 11.4
295(9) 0.01182 298.5 11.2
292(9) 0.01283 298.5 11.0
308(9) 0.01134 298.5 10.8
315(10) 0.01065 298.5 10.6
315(10) 0.01033 298.5 10.4
308(10) 0.01094 298.5 10.2
289(9) 0.01294 298.5 10.0
296(9) 0.01162 298.5 9.8
293(9) 0.01157 298.5 9.7
294(9) 0.01141 298.5 9.5
279(9) 0.01298 298.5 9.3
332(9) 0.01121 298.5 9.2
308(9) 0.01161 298.5 9.0
310(10) 0.01049 298.5 8.9
292(9) 0.01154 298.5 8.7
289(9) 0.01239 298.5 8.5
296(9) 0.01257 298.5 8.4
323(10) 0.01086 298.5 8.2
305(10) 0.01094 298.5 8.1
290(9) 0.01201 298.5 7.9
315(9) 0.01142 298.5 7.8
285(9) 0.01315 298.5 7.7
306(9) 0.01117 298.5 7.5
324(10) 0.01071 298.5 7.4
322(10) 0.01070 298.5 7.2
305(9) 0.01170 298.5 7.1
300(9) 0.01210 298.5 7.0
271(9) 0.01287 298.5 6.8
316(10) 0.01011 298.5 6.7
305(9) 0.01142 298.5 6.6
304(9) 0.01215 298.5 6.4
300(9) 0.01225 298.5 6.3
301(9) 0.01133 298.5 6.2
265(9) 0.01282 298.6 6.1
313(10) 0.01091 298.6 6.0
309(9) 0.01208 298.6 5.8
307(9) 0.01217 298.6 5.7
320(10) 0.01094 298.6 5.6
295(9) 0.01125 298.6 5.5
283(9) 0.01268 298.6 5.4
308(9) 0.01199 298.6 5.3
312(9) 0.01182 298.6 5.3
300(9) 0.01164 298.6 5.2
281(9) 0.01178 298.6 5.1
290(9) 0.01219 298.6 5.0
309(9) 0.01215 298.6 4.9
276(9) 0.01315 298.6 4.9
281(9) 0.01253 298.6 4.8
292(9) 0.01141 298.6 4.7
287(9) 0.01204 298.6 4.6
272(9) 0.01363 298.6 4.6
282(9) 0.01267 298.6 4.5
306(9) 0.01119 298.6 4.5
326(10) 0.01061 298.6 4.4
304(9) 0.01164 298.6 4.4
313(9) 0.01187 298.6 4.3
289(9) 0.01174 298.6 4.3
267(9) 0.01293 298.6 4.2
310(10) 0.01079 298.6 4.2
302(9) 0.01165 298.6 4.1
299(9) 0.01247 298.6 4.1
320(10) 0.01099 298.6 4.1
294(9) 0.01183 298.6 4.0
280(9) 0.01279 298.6 4.0
306(9) 0.01181 298.6 4.0
284(9) 0.01306 298.6 4.0
293(9) 0.01190 298.6 3.9
287(9) 0.01161 298.6 3.9
289(9) 0.01206 298.7 3.9
296(9) 0.01206 298.7 3.9
298(9) 0.01228 298.7 3.9
309(10) 0.01079 298.7 3.9
289(9) 0.01192 298.7 3.8
294(9) 0.01199 298.7 3.8
304(9) 0.01219 298.7 3.8
318(9) 0.01165 298.7 3.8
297(9) 0.01135 298.7 3.8
287(9) 0.01166 298.7 3.8
310(10) 0.01090 298.7 3.8
310(9) 0.01170 298.7 3.8
298(9) 0.01254 298.7 3.8
295(9) 0.01168 298.7 3.8
292(9) 0.01156 298.7 3.8
298(9) 0.01144 298.7 3.8
318(9) 0.01154 298.7 3.8
298(9) 0.01258 298.7 3.8
295(9) 0.01161 298.7 3.9
255(9) 0.01301 298.7 3.9
281(9) 0.01229 298.7 3.9
268(8) 0.01391 298.7 3.9
290(9) 0.01244 298.7 3.9
297(9) 0.01187 298.7 4.0
306(10) 0.01042 298.7 4.0
308(9) 0.01127 298.7 4.0
315(9) 0.01187 298.7 4.0
297(9) 0.01233 298.7 4.1
307(9) 0.01111 298.7 4.1
293(10) 0.01106 298.7 4.1
296(9) 0.01133 298.7 4.2
291(9) 0.01277 298.7 4.2
301(9) 0.01204 298.7 4.3
299(9) 0.01158 298.7 4.3
332(10) 0.00950 298.8 4.4
309(10) 0.01066 298.8 4.4
301(9) 0.01217 298.8 4.5
303(9) 0.01198 298.8 4.5
262(9) 0.01323 298.8 4.6
251(9) 0.01347 298.8 4.7
277(9) 0.01215 298.8 4.8
299(9) 0.01248 298.8 4.8
301(9) 0.01199 298.8 4.9
295(9) 0.01142 298.8 5.0
315(10) 0.01077 298.8 5.1
275(9) 0.01277 298.8 5.2
280(9) 0.01332 298.8 5.3
300(9) 0.01164 298.8 5.4
282(9) 0.01249 298.8 5.5
305(9) 0.01151 298.8 5.6
307(9) 0.01189 298.8 5.7
297(9) 0.01263 298.8 5.8
320(10) 0.01054 298.8 5.9
309(10) 0.01101 298.8 6.0
296(9) 0.01175 298.8 6.1
308(9) 0.01182 298.8 6.2
319(9) 0.01161 298.8 6.3
320(10) 0.01106 298.8 6.4
297(9) 0.01111 298.8 6.5
291(9) 0.01161 298.8 6.6
308(9) 0.01116 298.8 6.7
305(9) 0.01209 298.8 6.8
309(9) 0.01109 298.8 6.9
303(10) 0.01044 298.8 7.0
304(9) 0.01156 298.8 7.1
324(9) 0.01120 298.8 7.2
281(9) 0.01344 298.8 7.3
302(9) 0.01153 298.8 7.5
307(10) 0.01067 298.8 7.6
305(9) 0.01146 298.9 7.7
296(9) 0.01261 298.9 7.9
323(9) 0.01140 298.9 8.0
300(9) 0.01129 298.9 8.2
303(10) 0.01031 298.9 8.3
302(9) 0.01136 298.9 8.5
311(9) 0.01188 298.9 8.7
284(9) 0.01303 298.9 8.9
303(9) 0.01158 298.9 9.0
313(10) 0.01058 298.9 9.2
303(9) 0.01188 298.9 9.4
303(9) 0.01213 298.9 9.6
299(9) 0.01245 298.9 9.8
329(10) 0.01073 298.9 10.0
300(9) 0.01121 298.9 10.2
298(9) 0.01190 298.9 10.4
311(9) 0.01200 298.9 10.6
300(9) 0.01190 298.9 10.8
298(9) 0.01161 298.9 11.0
295(9) 0.01166 298.9 11.2
312(9) 0.01165 298.9 11.3
298(9) 0.01255 298.9 11.5
293(9) 0.01230 298.9 11.6
304(9) 0.01113 298.9 11.7
273(9) 0.01244 298.9 11.8
305(10) 0.01097 298.9 11.9
297(9) 0.01268 298.9 12.0
308(9) 0.01112 298.9 12.0
317(10) 0.01097 298.9 12.0
327(10) 0.01056 298.9 12.0
315(9) 0.01167 298.9 12.0
337(10) 0.01100 298.9 12.0
293(9) 0.01188 298.9 12.0
299(9) 0.01114 298.9 12.0
291(9) 0.01208 299.0 11.9
320(9) 0.01129 299.0 11.9
316(9) 0.01163 299.0 11.9
315(9) 0.01123 299.0 11.8
291(9) 0.01139 299.0 11.8
318(10) 0.01023 299.0 11.8
293(9) 0.01242 299.0 11.7
312(9) 0.01184 299.0 11.7
280(9) 0.01243 299.0 11.7
291(9) 0.01110 299.0 11.7
288(9) 0.01255 299.0 11.7
292(9) 0.01283 299.0 11.7
305(9) 0.01206 299.0 11.8
325(10) 0.01084 299.0 11.8
312(10) 0.01043 299.0 11.8
297(9) 0.01193 299.0 11.9
329(9) 0.01112 299.0 11.9
306(9) 0.01203 299.0 12.0
305(10) 0.01106 299.0 12.0
322(10) 0.00979 299.0 12.0
310(9) 0.01121 299.0 12.0
312(9) 0.01191 299.0 12.1
307(9) 0.01192 299.0 12.0
303(9) 0.01121 299.0 12.0
311(9) 0.01125 299.0 12.0
306(9) 0.01156 299.0 11.9
270(9) 0.01377 299.0 11.9
311(9) 0.01159 299.0 11.8
306(9) 0.01164 299.0 11.7
319(10) 0.01075 299.0 11.7
314(9) 0.01124 299.0 11.6
291(9) 0.01279 299.0 11.5
289(9) 0.01208 299.0 11.5
291(9) 0.01161 299.0 11.5
310(10) 0.01071 299.0 11.4
288(9) 0.01229 299.1 11.4
286(9) 0.01320 299.1 11.4
303(9) 0.01158 299.1 11.5
308(9) 0.01112 299.1 11.5
304(9) 0.01127 299.1 11.6
284(9) 0.01263 299.1 11.6
301(9) 0.01226 299.1 11.7
312(10) 0.01107 299.1 11.8
303(9) 0.01122 299.1 11.9
311(10) 0.01075 299.1 12.0
282(9) 0.01289 299.1 12.0
283(9) 0.01300 299.1 12.1
308(10) 0.01108 299.1 12.2
316(10) 0.01043 299.1 12.2
303(9) 0.01153 299.1 12.3
287(9) 0.01253 299.1 12.3
307(9) 0.01219 299.1 12.2
329(10) 0.01043 299.1 12.2
304(10) 0.01078 299.1 12.1
292(9) 0.01194 299.1 12.0
280(9) 0.01340 299.1 11.9
325(9) 0.01136 299.1 11.8
277(9) 0.01276 299.1 11.6
296(10) 0.01104 299.1 11.5
304(9) 0.01160 299.1 11.3
297(9) 0.01223 299.1 11.1
313(9) 0.01207 299.1 10.9
293(9) 0.01227 299.1 10.7
311(10) 0.01012 299.1 10.5
294(9) 0.01178 299.1 10.3
323(9) 0.01153 299.1 10.2
278(9) 0.01345 299.1 10.0
300(9) 0.01123 299.1 9.9
311(10) 0.01050 299.1 9.7
322(10) 0.01077 299.2 9.6
311(9) 0.01215 299.2 9.5
308(9) 0.01158 299.2 9.4
293(9) 0.01191 299.2 9.3
280(9) 0.01224 299.2 9.2
311(9) 0.01133 299.2 9.2
307(9) 0.01205 299.2 9.2
319(9) 0.01153 299.2 9.1
298(9) 0.01197 299.2 9.1
302(9) 0.01110 299.2 9.1
287(9) 0.01217 299.2 9.1
308(9) 0.01208 299.2 9.2
317(9) 0.01120 299.2 9.2
304(9) 0.01152 299.2 9.2
317(10) 0.01055 299.2 9.3
300(9) 0.01153 299.2 9.4
316(9) 0.01168 299.2 9.4
291(9) 0.01249 299.2 9.5
308(9) 0.01115 299.2 9.6
319(10) 0.01072 299.2 9.7
327(10) 0.01042 299.2 9.7
302(9) 0.01239 299.2 9.8
312(9) 0.01133 299.2 9.9
321(10) 0.01080 299.2 10.1
305(9) 0.01207 299.2 10.2
316(9) 0.01139 299.2 10.3
284(9) 0.01314 299.2 10.4
306(9) 0.01147 299.2 10.6
308(10) 0.01090 299.2 10.7
316(9) 0.01116 299.2 10.8
296(9) 0.01242 299.2 11.0
301(9) 0.01227 299.2 11.1
301(9) 0.01119 299.2 11.3
322(10) 0.01009 299.2 11.4
307(9) 0.01121 299.2 11.6
315(9) 0.01113 299.3 11.7
315(9) 0.01178 299.3 11.9
298(9) 0.01155 299.3 12.0
296(10) 0.01096 299.3 12.1
300(9) 0.01162 299.3 12.3
296(9) 0.01236 299.3 12.4
292(9) 0.01259 299.3 12.5
297(9) 0.01158 299.3 12.6
309(10) 0.01051 299.3 12.7
321(10) 0.01085 299.3 12.8
303(9) 0.01224 299.3 12.8
301(9) 0.01218 299.3 12.9
291(9) 0.01214 299.3 13.0
286(10) 0.01080 299.3 13.0
287(9) 0.01178 299.3 13.0
292(9) 0.01294 299.3 13.1
291(9) 0.01208 299.3 13.1
305(9) 0.01131 299.3 13.1
312(10) 0.01068 299.3 13.2
315(10) 0.01057 299.3 13.2
303(9) 0.01224 299.3 13.2
316(9) 0.01149 299.3 13.2
278(9) 0.01277 299.3 13.2
313(10) 0.01040 299.3 13.2
286(9) 0.01214 299.3 13.2
310(9) 0.01199 299.3 13.3
309(9) 0.01133 299.3 13.3
288(9) 0.01170 299.3 13.3
305(10) 0.01064 299.3 13.3
307(9) . . .
314(9) . . .
328(10) . . .
279(9) . . .
302(10) . . .
285(9) . . .
296(9) . . .
282(9) . . .
300(9) . . .
309(10) . . .
291(9) . . .
306(9) . . .
314(10) . . .
321(10) . . .
315(9) . . .
323(10) . . .
307(9) . . .
298(9) . . .
293(9) . . .
286(9) . . .
264(9) . . .
305(9) . . .
302(9) . . .
300(10) . . .
324(10) . . .
287(9) . . .
297(9) . . .
305(9) . . .
298(9) . . .
304(9) . . .
312(9) . . .
293(9) . . .
310(10) . . .
292(9) . . .
291(9) . . .
319(9) . . .
314(9) . . .
284(9) . . .
297(10) . . .
276(9) . . .
313(9) . . .
291(9) . . .
295(9) . . .
289(9) . . .
300(9) . . .
294(9) . . .
309(9) . . .
297(9) . . .
307(10) . . .
287(9) . . .
289(9) . . .
286(9) . . .
318(10) . . .
314(10) . . .
284(9) . . .
295(9) . . .
318(10) . . .
320(10) . . .
308(10) . . .
318(9) . . .
280(9) . . .
309(10) . . .
291(9) . . .
289(9) . . .
297(9) . . .
285(9) . . .
287(9) . . .
309(10) . . .
303(9) . . .
313(9) . . .
309(9) . . .
282(9) . . .
304(10) . . .
316(10) . . .
260(9) . . .
303(9) . . .
285(9) . . .
275(9) . . .
310(9) . . .
305(9) . . .
284(9) . . .
276(9) . . .
282(9) . . .
320(10) . . .
299(9) . . .
293(9) . . .
281(9) . . .
290(9) . . .
301(9) . . .
283(9) . . .
302(9) . . .
298(9) . . .
301(9) . . .
317(10) . . .
312(9) . . .
322(10) . . .
315(9) . . .
317(10) . . .
287(9) . . .
311(9) . . .
323(10) . . .
289(9) . . .
283(9) . . .
304(9) . . .
308(9) . . .
321(9) . . .
331(10) . . .
299(9) . . .
297(9) . . .
286(9) . . .
291(9) . . .
280(9) . . .
286(9) . . .
265(9) . . .
290(9) . . .
297(9) . . .
271(9) . . .
278(9) . . .
274(9) . . .
292(9) . . .
303(9) . . .
297(9) . . .
289(9) . . .
313(9) . . .
283(9) . . .
283(9) . . .
317(10) . . .
271(9) . . .
287(9) . . .
299(9) . . .
279(9) . . .
281(9) . . .
271(9) . . .
277(9) . . .
274(9) . . .
295(9) . . .
284(9) . . .
311(9) . . .
312(9) . . .
297(9) . . .
284(9) . . .
273(9) . . .
293(9) . . .
287(9) . . .
312(9) . . .
299(9) . . .
309(10) . . .
307(10) . . .
321(9) . . .
276(9) . . .
279(9) . . .
279(9) . . .
293(9) . . .
296(9) . . .
280(9) . . .
307(10) . . .
264(9) . . .
280(9) . . .
300(9) . . .
317(9) . . .
299(9) . . .
282(9) . . .
300(9) . . .
288(9) . . .
287(9) . . .
285(9) . . .
291(9) . . .
288(9) . . .
299(9) . . .
292(9) . . .
267(9) . . .
288(9) . . .
292(9) . . .
286(9) . . .
294(9) . . .
297(10) . . .
297(9) . . .
274(9) . . .
308(9) . . .
304(9) . . .
298(10) . . .
273(9) . . .
257(8) . . .
300(9) . . .
298(9) . . .
272(9) . . .
284(9) . . .
273(9) . . .
285(9) . . .
279(9) . . .
317(10) . . .
297(9) . . .
269(9) . . .
265(8) . . .
266(9) . . .
253(8) . . .
282(9) . . .
281(9) . . .
287(9) . . .
262(9) . . .
271(9) . . .
289(9) . . .
269(8) . . .
289(9) . . .
307(10) . . .
259(9) . . .
290(9) . . .
288(9) . . .
279(9) . . .
311(10) . . .
274(9) . . .
246(8) . . .
284(9) . . .
265(9) . . .
265(9) . . .
291(9) . . .
284(9) . . .
273(9) . . .
291(9) . . .
270(9) . . .
277(9) . . .
276(9) . . .
274(9) . . .
280(9) . . .
280(9) . . .
301(9) . . .
284(9) . . .
295(9) . . .
293(9) . . .
279(9) . . .
292(9) . . .
266(8) . . .
282(9) . . .
291(9) . . .
304(10) . . .
274(9) . . .
285(9) . . .
298(9) . . .
311(9) . . .
305(10) . . .
265(9) . . .
276(9) . . .
278(9) . . .
297(9) . . .
276(9) . . .
284(9) . . .
273(9) . . .
276(9) . . .
283(9) . . .
305(10) . . .
281(9) . . .
262(8) . . .
270(9) . . .
307(9) . . .
285(9) . . .
312(10) . . .
293(9) . . .
286(9) . . .
312(9) . . .
312(10) . . .
293(9) . . .
310(9) . . .
291(9) . . .
298(9) . . .
336(10) . . .
287(9) . . .
308(9) . . .
302(9) . . .
318(10) . . .
290(9) . . .
312(9) . . .
278(9) . . .
306(9) . . .
305(10) . . .
287(9) . . .
275(9) . . .
274(9) . . .
277(9) . . .
270(9) . . .
274(9) . . .
305(9) . . .
298(9) . . .
318(9) . . .
270(9) . . .
281(9) . . .
283(9) . . .
295(9) . . .
291(9) . . .
275(9) . . .
285(9) . . .
256(8) . . .
264(8) . . .
281(9) . . .
280(9) . . .
293(9) . . .
271(9) . . .
298(9) . . .
296(9) . . .
282(9) . . .
277(9) . . .
284(9) . . .
293(9) . . .
267(9) . . .
267(9) . . .
263(9) . . .
277(9) . . .
290(9) . . .
290(9) . . .
301(9) . . .
309(9) . . .
313(9) . . .
291(9) . . .
287(9) . . .
290(9) . . .
280(9) . . .
270(9) . . .
289(9) . . .
270(9) . . .
296(9) . . .
299(9) . . .
303(9) . . .
284(9) . . .
306(10) . . .
296(9) . . .
279(9) . . .
284(9) . . .
281(9) . . .
280(9) . . .
294(9) . . .
285(9) . . .
294(9) . . .
311(9) . . .
310(10) . . .
299(9) . . .
284(9) . . .
307(9) . . .
299(9) . . .
311(10) . . .
275(9) . . .
277(9) . . .
308(9) . . .
297(9) . . .
298(10) . . .
295(9) . . .
288(9) . . .
292(9) . . .
297(9) . . .
289(9) . . .
292(9) . . .
287(9) . . .
272(9) . . .
265(9) . . .
289(9) . . .
287(9) . . .
292(9) . . .
277(9) . . .
294(9) . . .
296(9) . . .
296(9) . . .
316(9) . . .
302(9) . . .
293(9) . . .
317(9) . . .
336(10) . . .
298(9) . . .
284(9) . . .
307(10) . . .
284(9) . . .
284(9) . . .
276(9) . . .
282(9) . . .
304(10) . . .
280(9) . . .
276(9) . . .
298(9) . . .
320(10) . . .
289(9) . . .
274(9) . . .
300(9) . . .
287(9) . . .
300(9) . . .
299(10) . . .
308(9) . . .
304(9) . . .
308(9) . . .
286(9) . . .
289(10) . . .
283(9) . . .
294(9) . . .
298(9) . . .
311(10) . . .
288(9) . . .
310(9) . . .
290(9) . . .
285(9) . . .
309(9) . . .
278(9) . . .
319(10) . . .
309(9) . . .
303(9) . . .
295(9) . . .
283(9) . . .
301(9) . . .
286(9) . . .
287(9) . . .
278(9) . . .
295(9) . . .
282(9) . . .
311(9) . . .
326(10) . . .
287(9) . . .
299(9) . . .
293(9) . . .
279(9) . . .
278(9) . . .
278(9) . . .
280(9) . . .
283(9) . . .
301(9) . . .
294(9) . . .
270(9) . . .
278(9) . . .
306(9) . . .
308(9) . . .
310(10) . . .
300(10) . . .
322(10) . . .
261(8) . . .
312(9) . . .
293(9) . . .
299(9) . . .
307(9) . . .
289(9) . . .
304(9) . . .
289(9) . . .
274(9) . . .
303(9) . . .
314(9) . . .
298(9) . . .
268(9) . . .
285(9) . . .
296(9) . . .
299(9) . . .
287(9) . . .
276(9) . . .
281(9) . . .
303(9) . . .
273(9) . . .
284(9) . . .
297(9) . . .
302(10) . . .
301(9) . . .
285(9) . . .
273(9) . . .
295(9) . . .
276(9) . . .
286(9) . . .
278(9) . . .
244(8) . . .
280(9) . . .
274(9) . . .
260(9) . . .
287(9) . . .
284(9) . . .
304(10) . . .
269(9) . . .
274(9) . . .
269(9) . . .
287(9) . . .
279(9) . . .
286(9) . . .
313(9) . . .
278(9) . . .
276(9) . . .
287(9) . . .
263(9) . . .
286(9) . . .
269(9) . . .
271(9) . . .
245(9) . . .
266(9) . . .
260(8) . . .
281(9) . . .
312(10) . . .
274(9) . . .
277(9) . . .
266(8) . . .
264(8) . . .
281(9) . . .
263(9) . . .
274(9) . . .
264(8) . . .
252(8) . . .
270(9) . . .
262(9) . . .
272(9) . . .
267(8) . . .
262(9) . . .
270(9) . . .
272(9) . . .
284(9) . . .
282(9) . . .
252(8) . . .
252(9) . . .
262(9) . . .
263(9) . . .
290(9) . . .
256(8) . . .
293(9) . . .
259(9) . . .
259(9) . . .
260(8) . . .
248(8) . . .
256(9) . . .
280(9) . . .
269(9) . . .
266(8) . . .
272(9) . . .
289(9) . . .
282(9) . . .
277(9) . . .
277(9) . . .
293(9) . . .
260(9) . . .
275(9) . . .
272(9) . . .
257(8) . . .
257(9) . . .
268(9) . . .
255(9) . . .
258(8) . . .
244(8) . . .
272(9) . . .
255(9) . . .
274(9) . . .
253(8) . . .
246(8) . . .
243(8) . . .
271(9) . . .
269(9) . . .
278(9) . . .
238(8) . . .
274(9) . . .
262(9) . . .
272(9) . . .
260(8) . . .
257(8) . . .
272(9) . . .
272(9) . . .
270(9) . . .
265(8) . . .
264(9) . . .
262(9) . . .
274(9) . . .
270(9) . . .
259(8) . . .
272(9) . . .
261(9) . . .
270(9) . . .
249(8) . . .
263(8) . . .
266(9) . . .
245(9) . . .
254(9) . . .
242(8) . . .
273(9) . . .
272(9) . . .
280(9) . . .
258(9) . . .
290(9) . . .
267(9) . . .
253(9) . . .
253(9) . . .
258(9) . . .
260(9) . . .
253(8) . . .
257(9) . . .
263(9) . . .
279(9) . . .
269(9) . . .
264(8) . . .
293(10) . . .
251(9) . . .
267(9) . . .
259(8) . . .
273(9) . . .
293(10) . . .
272(9) . . .
263(9) . . .
246(8) . . .
259(8) . . .
256(9) . . .
252(9) . . .
261(9) . . .
230(8) . . .
248(8) . . .
262(9) . . .
253(9) . . .
263(9) . . .
261(8) . . .
248(8) . . .
264(9) . . .
251(9) . . .
259(9) . . .
241(8) . . .
244(8) . . .
236(8) . . .
235(8) . . .
264(9) . . .
279(9) . . .
265(8) . . .
247(8) . . .
249(9) . . .
258(9) . . .
263(8) . . .
258(8) . . .
266(9) . . .
251(8) . . .
262(8) . . .
254(8) . . .
259(9) . . .
254(9) . . .
264(9) . . .
270(9) . . .
253(8) . . .
264(9) . . .
260(9) . . .
256(9) . . .
267(9) . . .
274(9) . . .
247(8) . . .
237(9) . . .
262(9) . . .
263(8) . . .
259(8) . . .
250(8) . . .
253(9) . . .
270(9) . . .
241(8) . . .
266(9) . . .
234(8) . . .
241(8) . . .
260(9) . . .
260(8) . . .
248(8) . . .
264(9) . . .
247(9) . . .
252(9) . . .
257(8) . . .
253(8) . . .
269(9) . . .
249(8) . . .
272(9) . . .
277(9) . . .
251(9) . . .
243(8) . . .
251(9) . . .
244(8) . . .
265(8) . . .
250(8) . . .
251(9) . . .
234(8) . . .
252(8) . . .
266(8) . . .
235(8) . . .
250(9) . . .
252(9) . . .
257(8) . . .
268(9) . . .
267(9) . . .
251(8) . . .
275(9) . . .
265(9) . . .
289(9) . . .
263(9) . . .
267(9) . . .
241(8) . . .
277(9) . . .
257(8) . . .
261(9) . . .
252(9) . . .
264(9) . . .
271(9) . . .
274(9) . . .
282(9) . . .
248(9) . . .
263(9) . . .
274(9) . . .
267(9) . . .
263(9) . . .
256(9) . . .
256(9) . . .
265(9) . . .
263(8) . . .
263(9) . . .
272(9) . . .
282(9) . . .
268(9) . . .
240(8) . . .
273(9) . . .
269(9) . . .
260(9) . . .
243(8) . . .
273(9) . . .
259(9) . . .
263(9) . . .
266(9) . . .
246(8) . . .
282(9) . . .
255(8) . . .
268(9) . . .
234(8) . . .
256(8) . . .
264(9) . . .
261(9) . . .
271(9) . . .
282(9) . . .
259(8) . . .
276(9) . . .
253(8) . . .
268(9) . . .
254(8) . . .
256(8) . . .
245(8) . . .
230(8) . . .
239(8) . . .
249(8) . . .
255(8) . . .
264(9) . . .
258(9) . . .
283(9) . . .
270(9) . . .
256(8) . . .
252(8) . . .
262(9) . . .
251(9) . . .
246(8) . . .
265(8) . . .
276(9) . . .
244(9) . . .
237(8) . . .
242(8) . . .
250(8) . . .
263(9) . . .
259(9) . . .
252(8) . . .
240(8) . . .
254(8) . . .
265(9) . . .
261(9) . . .
273(9) . . .
235(8) . . .
243(8) . . .
255(9) . . .
257(9) . . .
236(8) . . .
261(8) . . .
263(8) . . .
272(9) . . .
248(8) . . .
268(9) . . .
260(8) . . .
228(8) . . .
247(9) . . .
251(8) . . .
255(9) . . .
240(8) . . .
245(9) . . .
249(9) . . .
237(8) . . .
278(9) . . .
238(8) . . .
272(9) . . .
237(8) . . .
231(8) . . .
257(8) . . .
251(8) . . .
238(8) . . .
219(8) . . .
236(8) . . .
241(8) . . .
238(8) . . .
253(9) . . .
225(8) . . .
230(8) . . .
234(8) . . .
248(8) . . .
253(9) . . .
247(9) . . .
260(9) . . .
246(8) . . .
238(8) . . .
253(9) . . .
249(9) . . .
241(8) . . .
239(8) . . .
225(8) . . .
230(8) . . .
240(8) . . .
253(8) . . .
260(8) . . .
249(8) . . .
236(8) . . .
237(8) . . .
231(8) . . .
248(8) . . .
230(8) . . .
223(8) . . .
232(8) . . .
232(8) . . .
243(8) . . .
230(8) . . .
228(8) . . .
243(9) . . .
240(8) . . .
239(8) . . .
269(9) . . .
257(9) . . .
243(8) . . .
252(8) . . .
251(8) . . .
250(9) . . .
246(9) . . .
240(8) . . .
239(8) . . .
245(8) . . .
236(8) . . .
247(8) . . .
245(8) . . .
256(8) . . .
253(8) . . .
245(8) . . .
253(9) . . .
260(9) . . .
267(8) . . .
254(8) . . .
258(9) . . .
254(9) . . .
238(8) . . .
243(8) . . .
248(8) . . .
235(8) . . .
243(9) . . .
232(8) . . .
229(8) . . .
278(9) . . .
236(8) . . .
222(8) . . .
253(8) . . .
249(8) . . .
240(8) . . .
243(8) . . .
258(9) . . .
244(8) . . .
257(8) . . .
269(9) . . .
238(8) . . .
242(8) . . .
238(8) . . .
215(8) . . .
207(8) . . .
237(8) . . .
229(8) . . .
221(8) . . .
236(8) . . .
238(8) . . .
230(8) . . .
227(8) . . .
220(8) . . .
227(8) . . .
250(8) . . .
216(8) . . .
224(8) . . .
220(8) . . .
234(8) . . .
221(8) . . .
218(8) . . .
243(8) . . .
219(8) . . .
223(8) . . .
211(8) . . .
223(8) . . .
229(8) . . .
226(8) . . .
237(8) . . .
228(8) . . .
213(8) . . .
227(8) . . .
225(8) . . .
227(8) . . .
223(8) . . .
221(8) . . .
221(8) . . .
214(8) . . .
218(8) . . .
212(8) . . .
216(8) . . .
254(9) . . .
238(8) . . .
227(8) . . .
228(8) . . .
212(8) . . .
207(8) . . .
231(8) . . .
224(8) . . .
229(8) . . .
228(8) . . .
231(8) . . .
232(8) . . .
231(8) . . .
224(8) . . .
216(8) . . .
239(8) . . .
223(8) . . .
215(8) . . .
228(8) . . .
223(8) . . .
224(8) . . .
237(8) . . .
246(8) . . .
217(8) . . .
227(8) . . .
226(8) . . .
223(8) . . .
221(8) . . .
235(8) . . .
252(9) . . .
243(8) . . .
241(8) . . .
227(8) . . .
211(8) . . .
226(8) . . .
212(8) . . .
219(8) . . .
231(8) . . .
228(8) . . .
227(8) . . .
236(8) . . .
228(8) . . .
226(8) . . .
237(9) . . .
230(8) . . .
235(8) . . .
218(8) . . .
240(8) . . .
251(9) . . .
214(8) . . .
228(8) . . .
233(8) . . .
216(8) . . .
229(9) . . .
215(8) . . .
219(8) . . .
219(8) . . .
238(8) . . .
217(8) . . .
228(8) . . .
227(8) . . .
205(8) . . .
213(8) . . .
204(8) . . .
231(8) . . .
218(8) . . .
229(8) . . .
222(8) . . .
215(8) . . .
208(8) . . .
216(8) . . .
213(8) . . .
211(8) . . .
221(8) . . .
230(8) . . .
237(8) . . .
234(9) . . .
214(8) . . .
200(7) . . .
204(7) . . .
232(8) . . .
234(8) . . .
220(8) . . .
228(8) . . .
213(8) . . .
210(8) . . .
204(8) . . .
219(8) . . .
214(8) . . .
214(8) . . .
239(8) . . .
245(8) . . .
239(9) . . .
227(8) . . .
212(8) . . .
217(8) . . .
227(8) . . .
217(8) . . .
227(8) . . .
226(8) . . .
227(8) . . .
221(8) . . .
212(8) . . .
197(7) . . .
213(8) . . .
232(8) . . .
204(8) . . .
222(8) . . .
204(8) . . .
207(7) . . .
226(8) . . .
224(8) . . .
238(8) . . .
227(8) . . .
231(8) . . .
240(8) . . .
201(7) . . .
219(8) . . .
229(8) . . .
244(8) . . .
228(8) . . .
234(8) . . .
237(9) . . .
220(8) . . .
212(8) . . .
211(8) . . .
240(8) . . .
228(8) . . .
218(8) . . .
240(8) . . .
228(8) . . .
225(8) . . .
230(8) . . .
221(8) . . .
217(8) . . .
236(8) . . .
206(8) . . .
240(8) . . .
245(8) . . .
227(8) . . .
245(8) . . .
199(8) . . .
227(8) . . .
216(8) . . .
197(7) . . .
207(8) . . .
215(8) . . .
228(8) . . .
237(8) . . .
237(8) . . .
244(8) . . .
230(8) . . .
219(8) . . .
217(8) . . .
203(7) . . .
235(8) . . .
232(8) . . .
227(8) . . .
211(8) . . .
233(8) . . .
228(8) . . .
209(8) . . .
213(8) . . .
236(8) . . .
213(8) . . .
215(8) . . .
244(8) . . .
201(7) . . .
225(8) . . .
191(7) . . .
207(8) . . .
228(8) . . .
215(8) . . .
224(8) . . .
221(8) . . .
221(8) . . .
201(8) . . .
211(8) . . .
216(8) . . .
212(8) . . .
222(8) . . .
216(8) . . .
239(8) . . .
234(8) . . .
198(8) . . .
210(8) . . .
212(8) . . .
207(7) . . .
226(8) . . .
211(8) . . .
229(9) . . .
214(8) . . .
202(7) . . .
222(8) . . .
233(8) . . .
201(8) . . .
219(8) . . .
216(8) . . .
203(7) . . .
211(8) . . .
208(8) . . .
224(8) . . .
221(8) . . .
209(7) . . .
207(8) . . .
217(8) . . .
220(8) . . .
213(7) . . .
213(8) . . .
203(8) . . .
208(8) . . .
227(8) . . .
208(7) . . .
231(8) . . .
220(8) . . .
223(8) . . .
224(8) . . .
223(8) . . .
225(8) . . .
223(8) . . .
210(8) . . .
227(8) . . .
220(8) . . .
221(8) . . .
230(8) . . .
206(7) . . .
215(8) . . .
219(8) . . .
237(8) . . .
234(8) . . .
217(8) . . .
227(8) . . .
213(8) . . .
236(8) . . .
212(8) . . .
210(8) . . .
215(8) . . .
202(7) . . .
211(8) . . .
214(8) . . .
207(8) . . .
210(8) . . .
216(8) . . .
230(8) . . .
219(8) . . .
218(8) . . .
224(8) . . .
207(7) . . .
202(8) . . .
205(8) . . .
221(8) . . .
204(7) . . .
219(8) . . .
203(8) . . .
221(8) . . .
213(8) . . .
218(8) . . .
218(8) . . .
223(8) . . .
195(8) . . .
194(7) . . .
210(8) . . .
218(8) . . .
200(7) . . .
215(8) . . .
215(8) . . .
212(8) . . .
225(8) . . .
214(8) . . .
188(7) . . .
217(8) . . .
209(8) . . .
217(8) . . .
204(8) . . .
220(8) . . .
220(8) . . .
217(8) . . .
217(8) . . .
201(7) . . .
206(8) . . .
213(8) . . .
214(8) . . .
242(8) . . .
211(8) . . .
204(8) . . .
213(8) . . .
216(8) . . .
181(7) . . .
214(8) . . .
188(7) . . .
200(7) . . .
222(8) . . .
229(8) . . .
214(8) . . .
227(8) . . .
217(8) . . .
218(8) . . .
186(7) . . .
211(8) . . .
201(8) . . .
188(7) . . .
225(8) . . .
209(8) . . .
203(8) . . .
213(8) . . .
231(8) . . .
194(7) . . .
200(8) . . .
199(8) . . .
196(7) . . .
201(7) . . .
198(7) . . .
194(8) . . .
207(8) . . .
211(8) . . .
213(8) . . .
195(7) . . .
215(8) . . .
224(8) . . .
222(8) . . .
211(8) . . .
205(8) . . .
213(8) . . .
223(8) . . .
208(8) . . .
228(8) . . .
224(8) . . .
217(8) . . .
199(8) . . .
216(8) . . .
206(7) . . .
213(8) . . .
225(8) . . .
206(8) . . .
193(7) . . .
210(8) . . .
206(8) . . .
206(8) . . .
219(8) . . .
201(7) . . .
209(8) . . .
189(7) . . .
205(8) . . .
197(7) . . .
202(7) . . .
215(8) . . .
194(8) . . .
196(8) . . .
196(8) . . .
197(7) . . .
202(7) . . .
212(8) . . .
196(8) . . .
186(7) . . .
236(8) . . .
218(8) . . .
196(8) . . .
209(8) . . .
227(8) . . .
230(8) . . .
197(7) . . .
197(8) . . .
216(8) . . .
217(8) . . .
212(8) . . .
207(8) . . .
201(8) . . .
227(8) . . .
226(8) . . .
211(8) . . .
204(8) . . .
211(8) . . .
200(8) . . .
198(8) . . .
208(7) . . .
205(8) . . .
197(8) . . .
189(7) . . .
204(7) . . .
203(7) . . .
212(8) . . .
214(8) . . .
209(8) . . .
218(8) . . .
216(8) . . .
208(8) . . .
236(9) . . .
214(8) . . .
199(7) . . .
208(8) . . .
211(8) . . .
187(8) . . .
188(7) . . .
199(7) . . .
212(8) . . .
214(8) . . .
215(8) . . .
210(8) . . .
199(7) . . .
215(8) . . .
222(8) . . .
202(8) . . .
214(8) . . .
211(8) . . .
218(8) . . .
194(7) . . .
216(8) . . .
220(8) . . .
238(8) . . .
214(8) . . .
224(8) . . .
221(8) . . .
226(8) . . .
209(8) . . .
227(8) . . .
220(8) . . .
207(8) . . .
217(8) . . .
210(8) . . .
211(8) . . .
219(8) . . .
190(7) . . .
213(8) . . .
193(7) . . .
203(7) . . .
225(8) . . .
215(8) . . .
206(8) . . .
180(7) . . .
202(8) . . .
231(9) . . .
214(8) . . .
205(7) . . .
204(7) . . .
210(8) . . .
207(8) . . .
209(8) . . .
201(7) . . .
204(7) . . .
217(8) . . .
198(8) . . .
199(8) . . .
187(7) . . .
217(8) . . .
191(7) . . .
199(8) . . .
198(8) . . .
193(7) . . .
218(8) . . .
211(8) . . .
204(8) . . .
205(8) . . .
197(7) . . .
209(8) . . .
214(8) . . .
191(7) . . .
209(8) . . .
212(8) . . .
195(7) . . .
190(7) . . .
202(8) . . .
198(8) . . .
203(7) . . .
187(7) . . .
200(8) . . .
195(7) . . .
205(8) . . .
196(7) . . .
191(7) . . .
197(8) . . .
197(8) . . .
216(8) . . .
205(7) . . .
206(8) . . .
209(8) . . .
201(8) . . .
198(7) . . .
193(7) . . .
197(8) . . .
229(8) . . .
212(8) . . .
199(7) . . .
221(8) . . .
201(8) . . .
218(8) . . .
209(8) . . .
210(8) . . .
238(8) . . .
225(8) . . .
217(8) . . .
218(8) . . .
214(8) . . .
206(7) . . .
191(7) . . .
180(7) . . .
215(8) . . .
212(8) . . .
185(7) . . .
196(7) . . .
192(8) . . .
194(7) . . .
219(8) . . .
202(7) . . .
185(7) . . .
190(7) . . .
201(7) . . .
179(7) . . .
197(7) . . .
199(8) . . .
204(8) . . .
207(8) . . .
173(7) . . .
175(7) . . .
196(7) . . .
203(8) . . .
207(8) . . .
180(7) . . .
191(7) . . .
186(7) . . .
190(7) . . .
214(8) . . .
195(7) . . .
194(7) . . .
205(8) . . .
189(7) . . .
209(8) . . .
209(8) . . .
205(8) . . .
196(8) . . .
193(7) . . .
187(7) . . .
205(7) . . .
203(8) . . .
197(8) . . .
205(8) . . .
203(7) . . .
188(7) . . .
203(8) . . .
191(8) . . .
208(8) . . .
195(7) . . .
202(7) . . .
208(8) . . .
206(8) . . .
192(8) . . .
186(7) . . .
206(8) . . .
210(8) . . .
195(8) . . .
205(8) . . .
186(7) . . .
191(7) . . .
209(8) . . .
190(8) . . .
185(7) . . .
204(7) . . .
193(7) . . .
192(7) . . .
199(8) . . .
186(8) . . .
216(8) . . .
226(8) . . .
199(8) . . .
196(8) . . .
205(8) . . .
210(8) . . .
202(8) . . .
197(8) . . .
212(8) . . .
211(8) . . .
207(7) . . .
214(8) . . .
213(8) . . .
212(8) . . .
218(8) . . .
203(7) . . .
213(8) . . .
218(8) . . .
206(8) . . .
215(8) . . .
208(7) . . .
196(7) . . .
219(8) . . .
209(8) . . .
182(7) . . .
194(7) . . .
211(8) . . .
190(8) . . .
186(7) . . .
195(7) . . .
194(7) . . .
198(8) . . .
198(8) . . .
190(7) . . .
185(7) . . .
179(7) . . .
211(8) . . .
191(8) . . .
191(7) . . .
199(7) . . .
201(7) . . .
194(8) . . .
202(8) . . .
205(8) . . .
195(7) . . .
209(8) . . .
220(8) . . .
198(8) . . .
191(7) . . .
197(7) . . .
194(7) . . .
202(8) . . .
205(8) . . .
182(7) . . .
188(7) . . .
204(8) . . .
201(8) . . .
214(8) . . .
210(8) . . .
176(7) . . .
191(7) . . .
188(7) . . .
199(8) . . .
202(8) . . .
176(7) . . .
189(7) . . .
191(8) . . .
198(8) . . .
205(8) . . .
176(7) . . .
180(7) . . .
194(8) . . .
203(8) . . .
201(7) . . .
194(7) . . .
183(8) . . .
203(8) . . .
189(7) . . .
180(7) . . .
181(7) . . .
181(7) . . .
196(8) . . .
190(8) . . .
199(7) . . .
192(7) . . .
195(7) . . .
187(8) . . .
205(8) . . .
219(8) . . .
177(7) . . .
197(7) . . .
190(7) . . .
204(8) . . .
196(7) . . .
188(7) . . .
197(7) . . .
211(8) . . .
189(8) . . .
183(7) . . .
197(7) . . .
196(8) . . .
177(7) . . .
201(8) . . .
203(7) . . .
173(7) . . .
191(7) . . .
204(8) . . .
188(7) . . .
205(7) . . .
183(7) . . .
185(7) . . .
196(8) . . .
177(7) . . .
185(7) . . .
193(7) . . .
223(8) . . .
210(8) . . .
191(7) . . .
197(7) . . .
197(7) . . .
190(7) . . .
193(7) . . .
198(7) . . .
168(7) . . .
183(7) . . .
201(8) . . .
188(7) . . .
184(7) . . .
206(7) . . .
195(7) . . .
180(8) . . .
185(7) . . .
196(7) . . .
186(7) . . .
225(8) . . .
210(8) . . .
200(8) . . .
186(7) . . .
195(7) . . .
206(8) . . .
205(8) . . .
192(8) . . .
182(7) . . .
183(7) . . .
209(8) . . .
187(7) . . .
175(7) . . .
176(7) . . .
177(7) . . .
199(8) . . .
204(8) . . .
186(7) . . .
200(7) . . .
202(7) . . .
192(7) . . .
196(8) . . .
199(8) . . .
189(7) . . .
193(7) . . .
185(7) . . .
176(7) . . .
209(8) . . .
194(7) . . .
186(7) . . .
198(8) . . .
193(8) . . .
183(7) . . .
171(7) . . .
191(8) . . .
191(8) . . .
194(7) . . .
191(7) . . .
203(7) . . .
191(8) . . .
181(7) . . .
173(7) . . .
191(7) . . .
203(7) . . .
199(8) . . .
181(7) . . .
165(7) . . .
197(7) . . .
200(7) . . .
190(7) . . .
194(8) . . .
201(8) . . .
189(7) . . .
183(7) . . .
180(7) . . .
180(7) . . .
203(8) . . .
187(7) . . .
190(7) . . .
193(8) . . .
182(8) . . .
206(8) . . .
194(7) . . .
202(7) . . .
185(7) . . .
205(8) . . .
175(7) . . .
178(7) . . .
178(7) . . .
155(7) . . .
180(7) . . .
189(7) . . .
188(7) . . .
195(7) . . .
199(8) . . .
173(7) . . .
185(7) . . .
180(7) . . .
198(7) . . .
188(7) . . .
185(7) . . .
183(7) . . .
180(7) . . .
172(7) . . .
193(8) . . .
185(7) . . .
179(7) . . .
184(7) . . .
194(8) . . .
196(8) . . .
200(8) . . .
171(7) . . .
180(7) . . .
199(8) . . .
200(8) . . .
174(7) . . .
183(7) . . .
177(7) . . .
192(7) . . .
206(8) . . .
177(7) . . .
208(8) . . .
195(7) . . .
154(7) . . .
186(8) . . .
203(8) . . .
212(8) . . .
187(7) . . .
198(8) . . .
200(8) . . .
193(7) . . .
202(7) . . .
193(7) . . .
190(7) . . .
187(8) . . .
190(7) . . .
187(7) . . .
192(7) . . .
189(7) . . .
204(8) . . .
196(8) . . .
185(7) . . .
176(7) . . .
188(7) . . .
195(8) . . .
194(7) . . .
200(7) . . .
176(7) . . .
199(8) . . .
182(7) . . .
202(8) . . .
204(7) . . .
219(8) . . .
207(8) . . .
189(7) . . .
190(7) . . .
187(7) . . .
188(7) . . .
193(7) . . .
210(8) . . .
183(7) . . .
187(7) . . .
195(7) . . .
196(8) . . .
180(7) . . .
192(7) . . .
197(7) . . .
185(7) . . .
191(8) . . .
189(7) . . .
198(7) . . .
183(7) . . .
170(7) . . .
192(8) . . .
177(7) . . .
186(7) . . .
181(7) . . .
209(8) . . .
184(8) . . .
174(7) . . .
191(7) . . .
185(7) . . .
186(8) . . .
202(8) . . .
189(7) . . .
194(7) . . .
183(7) . . .
204(8) . . .
167(7) . . .
180(7) . . .
197(7) . . .
181(7) . . .
197(8) . . .
185(7) . . .
174(7) . . .
192(7) . . .
178(7) . . .
193(7) . . .
199(8) . . .
197(7) . . .
190(7) . . .
185(7) . . .
186(7) . . .
186(7) . . .
189(7) . . .
193(7) . . .
186(8) . . .
190(8) . . .
183(7) . . .
205(8) . . .
191(7) . . .
187(7) . . .
185(8) . . .
186(7) . . .
184(7) . . .
182(7) . . .
179(7) . . .
194(8) . . .
182(7) . . .
201(7) . . .
206(8) . . .
189(7) . . .
190(8) . . .
199(7) . . .
174(7) . . .
179(7) . . .
181(7) . . .
198(8) . . .
169(7) . . .
187(7) . . .
188(7) . . .
189(7) . . .
170(7) . . .
166(7) . . .
185(7) . . .
182(7) . . .
191(8) . . .
163(7) . . .
170(7) . . .
177(7) . . .
183(7) . . .
187(8) . . .
186(7) . . .
192(7) . . .
182(7) . . .
189(7) . . .
204(8) . . .
200(8) . . .
180(7) . . .
190(7) . . .
188(7) . . .
192(8) . . .
186(7) . . .
182(7) . . .
170(7) . . .
184(7) . . .
172(7) . . .
185(7) . . .
192(7) . . .
189(7) . . .
185(7) . . .
199(8) . . .
184(7) . . .
178(7) . . .
186(7) . . .
168(7) . . .
196(8) . . .
204(8) . . .
190(7) . . .
178(7) . . .
181(7) . . .
184(8) . . .
186(7) . . .
184(7) . . .
182(7) . . .
196(7) . . .
197(8) . . .
191(7) . . .
197(7) . . .
173(7) . . .
183(7) . . .
187(8) . . .
194(7) . . .
196(7) . . .
203(7) . . .
186(7) . . .
183(7) . . .
179(7) . . .
179(7) . . .
185(7) . . .
189(7) . . .
182(7) . . .
201(8) . . .
185(7) . . .
195(7) . . .
183(7) . . .
182(7) . . .
193(8) . . .
208(7) . . .
196(7) . . .
195(7) . . .
187(7) . . .
190(7) . . .
194(7) . . .
185(7) . . .
190(8) . . .
169(7) . . .
191(7) . . .
182(7) . . .
168(7) . . .
169(7) . . .
178(7) . . .
176(7) . . .
176(7) . . .
178(7) . . .
185(7) . . .
197(8) . . .
207(7) . . .
171(7) . . .
179(7) . . .
188(8) . . .
196(8) . . .
156(6) . . .
168(7) . . .
198(8) . . .
180(8) . . .
186(8) . . .
174(7) . . .
189(7) . . .
186(7) . . .
186(7) . . .
178(7) . . .
183(7) . . .
186(7) . . .
165(7) . . .
197(8) . . .
184(7) . . .
171(7) . . .
194(7) . . .
191(7) . . .
179(7) . . .
192(8) . . .
196(7) . . .
183(7) . . .
180(7) . . .
185(7) . . .
194(7) . . .
188(7) . . .
181(7) . . .
189(7) . . .
198(8) . . .
189(7) . . .
200(7) . . .
172(7) . . .
167(7) . . .
157(7) . . .
188(7) . . .
166(7) . . .
197(7) . . .
195(8) . . .
197(8) . . .
178(7) . . .
176(7) . . .
175(7) . . .
179(7) . . .
183(7) . . .
205(7) . . .
181(7) . . .
162(7) . . .
172(7) . . .
190(7) . . .
192(7) . . .
195(7) . . .
176(7) . . .
185(8) . . .
177(7) . . .
168(7) . . .
178(7) . . .
170(7) . . .
189(8) . . .
176(7) . . .
188(7) . . .
163(7) . . .
158(7) . . .
183(7) . . .
193(7) . . .
172(7) . . .
194(7) . . .
197(8) . . .
209(8) . . .
182(7) . . .
169(7) . . .
177(7) . . .
192(8) . . .
181(7) . . .
183(7) . . .
175(7) . . .
178(7) . . .
200(8) . . .
198(8) . . .
194(7) . . .
174(7) . . .
181(7) . . .
187(7) . . .
197(8) . . .
196(7) . . .
198(7) . . .
173(7) . . .
189(8) . . .
169(7) . . .
187(7) . . .
192(7) . . .
191(8) . . .
183(7) . . .
200(7) . . .
195(7) . . .
180(7) . . .
197(7) . . .
196(8) . . .
184(7) . . .
178(7) . . .
181(7) . . .
192(8) . . .
169(7) . . .
187(7) . . .
185(7) . . .
181(7) . . .
196(7) . . .
189(8) . . .
166(7) . . .
173(7) . . .
174(7) . . .
172(7) . . .
181(7) . . .
169(7) . . .
176(7) . . .
194(7) . . .
190(7) . . .
177(7) . . .
179(7) . . .
174(7) . . .
167(7) . . .
190(7) . . .
198(8) . . .
186(8) . . .
184(7) . . .
184(7) . . .
182(7) . . .
185(7) . . .
172(7) . . .
151(6) . . .
181(7) . . .
190(7) . . .
165(7) . . .
171(7) . . .
200(7) . . .
180(7) . . .
176(7) . . .
206(8) . . .
160(7) . . .
183(7) . . .
184(7) . . .
174(7) . . .
176(7) . . .
179(7) . . .
181(7) . . .
172(7) . . .
177(7) . . .
177(7) . . .
189(7) . . .
174(7) . . .
184(7) . . .
182(7) . . .
185(7) . . .
195(7) . . .
178(7) . . .
192(7) . . .
191(8) . . .
199(8) . . .
174(7) . . .
185(7) . . .
178(7) . . .
193(8) . . .
178(7) . . .
178(7) . . .
192(7) . . .
179(7) . . .
185(7) . . .
183(7) . . .
170(7) . . .
183(7) . . .
181(7) . . .
156(7) . . .
176(7) . . .
163(7) . . .
187(7) . . .
184(7) . . .
179(7) . . .
178(7) . . .
176(7) . . .
179(7) . . .
185(8) . . .
157(7) . . .
166(7) . . .
181(7) . . .
165(7) . . .
188(8) . . .
187(8) . . .
187(7) . . .
158(7) . . .
168(7) . . .
177(7) . . .
176(7) . . .
180(7) . . .
166(7) . . .
181(7) . . .
189(8) . . .
175(7) . . .
179(7) . . .
174(7) . . .
174(7) . . .
187(8) . . .
168(7) . . .
183(7) . . .
188(7) . . .
194(8) . . .
181(8) . . .
177(8) . . .
159(7) . . .
175(7) . . .
181(7) . . .
185(7) . . .
179(7) . . .
168(7) . . .
171(7) . . .
200(8) . . .
189(7) . . .
194(7) . . .
183(7) . . .
198(7) . . .
168(7) . . .
179(7) . . .
176(7) . . .
168(7) . . .
178(7) . . .
172(7) . . .
189(8) . . .
159(7) . . .
192(7) . . .
167(7) . . .
186(7) . . .
179(7) . . .
141(6) . . .
184(7) . . .
169(7) . . .
166(7) . . .
186(7) . . .
189(7) . . .
186(7) . . .
183(7) . . .
179(7) . . .
171(7) . . .
168(7) . . .
196(7) . . .
185(7) . . .
174(7) . . .
163(7) . . .
160(7) . . .
172(7) . . .
171(7) . . .
171(7) . . .
171(7) . . .
165(7) . . .
151(6) . . .
180(7) . . .
169(7) . . .
173(7) . . .
187(7) . . .
175(7) . . .
169(7) . . .
171(7) . . .
194(7) . . .
181(7) . . .
181(7) . . .
178(7) . . .
183(7) . . .
185(7) . . .
188(7) . . .
191(7) . . .
170(7) . . .
183(8) . . .
172(7) . . .
170(7) . . .
162(7) . . .
164(7) . . .
185(8) . . .
177(7) . . .
160(7) . . .
152(7) . . .
156(7) . . .
183(7) . . .
194(7) . . .
191(7) . . .
170(7) . . .
169(7) . . .
169(7) . . .
173(7) . . .
180(7) . . .
172(7) . . .
175(7) . . .
181(7) . . .
191(7) . . .
181(7) . . .
185(7) . . .
173(7) . . .
176(7) . . .
186(7) . . .
175(7) . . .
192(7) . . .
185(7) . . .
172(7) . . .
164(7) . . .
174(7) . . .
165(7) . . .
165(7) . . .
161(7) . . .
174(7) . . .
172(7) . . .
154(7) . . .
181(7) . . .
153(6) . . .
180(7) . . .
168(7) . . .
182(7) . . .
175(7) . . .
181(7) . . .
184(7) . . .
181(7) . . .
191(7) . . .
187(7) . . .
164(7) . . .
172(7) . . .
181(7) . . .
161(7) . . .
175(7) . . .
172(7) . . .
184(7) . . .
180(7) . . .
171(7) . . .
154(7) . . .
172(7) . . .
148(6) . . .
168(7) . . .
184(7) . . .
186(7) . . .
181(7) . . .
186(7) . . .
187(7) . . .
186(7) . . .
178(7) . . .
168(7) . . .
177(7) . . .
182(7) . . .
184(7) . . .
166(7) . . .
157(7) . . .
183(7) . . .
201(8) . . .
171(7) . . .
163(7) . . .
167(7) . . .
153(6) . . .
168(7) . . .
178(7) . . .
173(7) . . .
174(7) . . .
177(7) . . .
196(8) . . .
207(8) . . .
182(7) . . .
183(7) . . .
166(7) . . .
187(7) . . .
189(8) . . .
166(7) . . .
193(7) . . .
186(7) . . .
181(7) . . .
175(7) . . .
196(8) . . .
180(7) . . .
203(7) . . .
175(7) . . .
177(7) . . .
183(7) . . .
182(7) . . .
191(7) . . .
173(7) . . .
182(7) . . .
185(7) . . .
155(6) . . .
167(7) . . .
165(7) . . .
174(7) . . .
165(7) . . .
195(7) . . .
172(7) . . .
176(7) . . .
169(7) . . .
177(7) . . .
187(7) . . .
179(7) . . .
181(7) . . .
171(7) . . .
175(7) . . .
201(7) . . .
171(7) . . .
194(8) . . .
193(7) . . .
193(7) . . .
184(7) . . .
193(7) . . .
179(7) . . .
171(7) . . .
174(7) . . .
162(7) . . .
179(7) . . .
181(7) . . .
214(8) . . .
168(7) . . .
177(7) . . .
170(7) . . .
182(7) . . .
198(8) . . .
193(7) . . .
182(7) . . .
171(7) . . .
197(8) . . .
188(8) . . .
183(7) . . .
181(7) . . .
168(7) . . .
183(7) . . .
173(7) . . .
192(7) . . .
186(7) . . .
186(7) . . .
183(7) . . .
213(8) . . .
198(7) . . .
174(7) . . .
185(7) . . .
168(7) . . .
198(7) . . .
194(7) . . .
162(7) . . .
170(7) . . .
179(7) . . .
177(7) . . .
171(7) . . .
184(7) . . .
165(7) . . .
173(7) . . .
172(7) . . .
178(7) . . .
175(7) . . .
175(7) . . .
178(7) . . .
172(7) . . .
183(7) . . .
186(7) . . .
174(7) . . .
169(7) . . .
188(7) . . .
170(7) . . .
182(7) . . .
180(8) . . .
180(7) . . .
166(7) . . .
186(7) . . .
158(7) . . .
165(7) . . .
170(7) . . .
188(7) . . .
189(7) . . .
186(7) . . .
186(8) . . .
163(7) . . .
177(7) . . .
178(7) . . .
182(7) . . .
169(7) . . .
192(8) . . .
192(7) . . .
178(7) . . .
170(7) . . .
186(7) . . .
167(7) . . .
176(7) . . .
162(7) . . .
182(7) . . .
175(7) . . .
188(7) . . .
188(7) . . .
188(8) . . .
166(7) . . .
178(7) . . .
177(7) . . .
203(7) . . .
177(7) . . .
165(7) . . .
188(7) . . .
171(7) . . .
175(7) . . .
197(8) . . .
176(7) . . .
182(7) . . .
188(7) . . .
189(7) . . .
193(8) . . .
183(7) . . .
198(8) . . .
193(7) . . .
188(7) . . .
183(8) . . .
176(7) . . .
178(7) . . .
188(7) . . .
185(7) . . .
189(8) . . .
186(8) . . .
171(7) . . .
186(7) . . .
187(7) . . .
197(8) . . .
183(7) . . .
168(7) . . .
179(7) . . .
198(7) . . .
189(7) . . .
192(8) . . .
194(8) . . .
197(7) . . .
195(7) . . .
213(8) . . .
198(8) . . .
194(7) . . .
186(7) . . .
166(7) . . .
186(8) . . .
197(8) . . .
195(7) . . .
184(7) . . .
199(8) . . .
188(7) . . .
194(8) . . .
198(7) . . .
191(7) . . .
187(7) . . .
182(7) . . .
181(7) . . .
187(7) . . .
176(7) . . .
181(7) . . .
200(8) . . .
193(7) . . .
172(7) . . .
180(7) . . .
187(7) . . .
161(7) . . .
180(7) . . .
178(7) . . .
182(7) . . .
194(7) . . .
173(7) . . .
172(7) . . .
187(7) . . .
183(7) . . .
170(7) . . .
174(8) . . .
165(7) . . .
171(7) . . .
182(7) . . .
178(7) . . .
184(7) . . .
182(7) . . .
195(7) . . .
200(7) . . .
187(7) . . .
182(7) . . .
177(7) . . .
174(7) . . .
176(7) . . .
186(7) . . .
195(7) . . .
199(7) . . .
212(8) . . .
190(7) . . .
184(7) . . .
181(7) . . .
169(7) . . .
183(7) . . .
185(7) . . .
196(8) . . .
158(7) . . .
168(7) . . .
175(7) . . .
167(7) . . .
179(7) . . .
172(7) . . .
154(6) . . .
175(7) . . .
173(7) . . .
174(7) . . .
177(7) . . .
169(7) . . .
178(7) . . .
174(7) . . .
177(7) . . .
180(7) . . .
197(7) . . .
176(7) . . .
193(8) . . .
178(7) . . .
158(7) . . .
168(7) . . .
189(7) . . .
193(7) . . .
192(8) . . .
182(7) . . .
181(7) . . .
184(7) . . .
202(8) . . .
173(7) . . .
186(7) . . .
183(7) . . .
164(7) . . .
170(7) . . .
184(7) . . .
196(8) . . .
184(7) . . .
168(7) . . .
165(7) . . .
180(7) . . .
182(7) . . .
181(7) . . .
176(7) . . .
191(7) . . .
171(7) . . .
176(7) . . .
165(7) . . .
195(7) . . .
179(7) . . .
197(8) . . .
168(7) . . .
168(7) . . .
174(7) . . .
175(7) . . .
187(7) . . .
188(7) . . .
185(7) . . .
181(7) . . .
189(8) . . .
170(7) . . .
162(7) . . .
173(7) . . .
179(7) . . .
181(7) . . .
178(7) . . .
179(7) . . .
176(7) . . .
198(8) . . .
213(8) . . .
189(7) . . .
178(7) . . .
190(7) . . .
179(7) . . .
177(7) . . .
189(7) . . .
202(7) . . .
170(7) . . .
191(7) . . .
191(8) . . .
184(7) . . .
162(7) . . .
193(7) . . .
176(7) . . .
185(7) . . .
193(8) . . .
195(7) . . .
171(7) . . .
168(7) . . .
185(8) . . .
179(7) . . .
178(7) . . .
171(7) . . .
192(7) . . .
183(7) . . .
184(7) . . .
198(7) . . .
184(7) . . .
164(7) . . .
173(7) . . .
157(7) . . .
185(7) . . .
184(7) . . .
173(7) . . .
174(7) . . .
173(7) . . .
170(7) . . .
163(7) . . .
182(7) . . .
189(8) . . .
177(7) . . .
183(7) . . .
208(8) . . .
196(8) . . .
170(7) . . .
201(7) . . .
173(7) . . .
168(7) . . .
167(7) . . .
178(7) . . .
174(7) . . .
175(7) . . .
181(7) . . .
178(7) . . .
187(7) . . .
154(7) . . .
152(6) . . .
180(7) . . .
191(8) . . .
166(7) . . .
177(7) . . .
177(7) . . .
160(7) . . .
180(8) . . .
178(7) . . .
171(7) . . .
192(7) . . .
174(7) . . .
174(7) . . .
188(8) . . .
180(7) . . .
188(7) . . .
161(7) . . .
179(7) . . .
186(7) . . .
178(7) . . .
191(7) . . .
162(7) . . .
179(7) . . .
160(7) . . .
160(7) . . .
163(7) . . .
172(7) . . .
173(7) . . .
164(7) . . .
159(7) . . .
172(7) . . .
173(7) . . .
189(7) . . .
187(7) . . .
184(7) . . .
170(7) . . .
175(7) . . .
165(7) . . .
181(7) . . .
182(7) . . .
175(7) . . .
174(7) . . .
171(7) . . .
170(7) . . .
157(7) . . .
178(7) . . .
166(7) . . .
163(7) . . .
174(7) . . .
169(7) . . .
175(7) . . .
181(8) . . .
164(7) . . .
189(7) . . .
181(7) . . .
177(7) . . .
174(7) . . .
165(7) . . .
170(7) . . .
162(7) . . .
181(7) . . .
175(7) . . .
173(7) . . .
196(7) . . .
169(7) . . .
176(7) . . .
184(7) . . .
186(7) . . .
191(7) . . .
173(7) . . .
157(7) . . .
178(7) . . .
171(7) . . .
178(7) . . .
180(7) . . .
166(7) . . .
166(7) . . .
163(7) . . .
173(7) . . .
167(7) . . .
172(7) . . .
163(7) . . .
161(7) . . .
180(7) . . .
194(8) . . .
169(7) . . .
157(7) . . .
179(7) . . .
172(7) . . .
194(8) . . .
181(7) . . .
173(7) . . .
165(7) . . .
179(7) . . .
178(7) . . .
177(7) . . .
186(7) . . .
185(7) . . .
161(6) . . .
174(7) . . .
166(7) . . .
172(7) . . .
179(7) . . .
174(7) . . .
163(7) . . .
184(8) . . .
174(7) . . .
181(7) . . .
153(7) . . .
180(7) . . .
174(7) . . .
188(7) . . .
168(7) . . .
161(7) . . .
173(7) . . .
167(7) . . .
194(8) . . .
188(7) . . .
186(7) . . .
180(7) . . .
165(7) . . .
162(7) . . .
161(7) . . .
174(7) . . .
170(7) . . .
179(7) . . .
173(7) . . .
177(7) . . .
165(7) . . .
190(7) . . .
178(7) . . .
198(7) . . .
179(7) . . .
163(7) . . .
169(7) . . .
172(7) . . .
178(7) . . .
166(7) . . .
170(7) . . .
168(7) . . .
192(7) . . .
177(7) . . .
174(7) . . .
164(7) . . .
185(7) . . .
194(7) . . .
194(7) . . .
182(7) . . .
183(7) . . .
175(7) . . .
162(7) . . .
171(7) . . .
187(7) . . .
165(7) . . .
180(8) . . .
169(7) . . .
170(7) . . .
190(7) . . .
185(7) . . .
158(7) . . .
187(7) . . .
165(7) . . .
181(7) . . .
163(7) . . .
177(7) . . .
184(7) . . .
165(7) . . .
193(7) . . .
170(7) . . .
186(7) . . .
197(8) . . .
170(7) . . .
169(7) . . .
189(7) . . .
193(7) . . .
211(8) . . .
186(7) . . .
188(7) . . .
178(7) . . .
176(7) . . .
188(7) . . .
179(7) . . .
182(7) . . .
193(8) . . .
180(7) . . .
181(7) . . .
181(7) . . .
176(7) . . .
190(8) . . .
197(7) . . .
191(7) . . .
189(7) . . .
198(7) . . .
195(8) . . .
200(8) . . .
183(7) . . .
209(8) . . .
190(7) . . .
186(7) . . .
199(8) . . .
184(7) . . .
180(7) . . .
174(7) . . .
180(7) . . .
187(7) . . .
189(7) . . .
183(7) . . .
177(7) . . .
181(7) . . .
188(7) . . .
183(7) . . .
174(7) . . .
184(7) . . .
187(8) . . .
206(8) . . .
186(7) . . .
193(7) . . .
189(7) . . .
177(7) . . .
178(7) . . .
187(7) . . .
185(7) . . .
181(7) . . .
171(7) . . .
192(7) . . .
184(7) . . .
167(7) . . .
184(8) . . .
167(7) . . .
181(7) . . .
175(7) . . .
178(7) . . .
182(7) . . .
192(7) . . .
173(7) . . .
181(7) . . .
164(7) . . .
155(7) . . .
167(7) . . .
168(7) . . .
186(7) . . .
194(7) . . .
182(7) . . .
184(7) . . .
196(7) . . .
181(7) . . .
174(7) . . .
194(8) . . .
176(7) . . .
179(7) . . .
200(7) . . .
176(7) . . .
176(7) . . .
192(7) . . .
201(7) . . .
186(7) . . .
174(7) . . .
171(7) . . .
186(7) . . .
177(7) . . .
180(7) . . .
176(7) . . .
180(7) . . .
184(7) . . .
175(7) . . .
169(7) . . .
181(7) . . .
185(8) . . .
176(7) . . .
165(7) . . .
171(7) . . .
167(7) . . .
175(7) . . .
177(7) . . .
162(7) . . .
165(7) . . .
174(7) . . .
162(7) . . .
172(7) . . .
188(7) . . .
154(7) . . .
176(7) . . .
187(7) . . .
178(7) . . .
163(7) . . .
169(7) . . .
161(7) . . .
175(7) . . .
196(7) . . .
168(7) . . .
174(7) . . .
157(7) . . .
183(7) . . .
172(7) . . .
166(7) . . .
188(7) . . .
188(8) . . .
167(7) . . .
179(7) . . .
168(7) . . .
169(7) . . .
184(8) . . .
170(7) . . .
167(7) . . .
183(7) . . .
189(7) . . .
190(8) . . .
187(7) . . .
167(7) . . .
177(7) . . .
167(7) . . .
164(7) . . .
164(7) . . .
168(7) . . .
190(7) . . .
164(7) . . .
176(7) . . .
171(7) . . .
190(7) . . .
164(7) . . .
166(7) . . .
195(8) . . .
185(7) . . .
179(7) . . .
175(7) . . .
180(7) . . .
177(7) . . .
175(7) . . .
176(7) . . .
184(7) . . .
168(7) . . .
167(7) . . .
177(7) . . .
152(6) . . .
181(7) . . .
174(7) . . .
171(7) . . .
164(7) . . .
180(7) . . .
174(7) . . .
160(7) . . .
174(7) . . .
177(7) . . .
170(7) . . .
162(7) . . .
176(7) . . .
199(8) . . .
162(7) . . .
161(7) . . .
176(7) . . .
161(7) . . .
173(7) . . .
175(7) . . .
163(7) . . .
183(7) . . .
160(7) . . .
174(7) . . .
186(7) . . .
153(6) . . .
169(7) . . .
177(7) . . .
164(7) . . .
177(7) . . .
157(7) . . .
175(7) . . .
168(7) . . .
168(7) . . .
183(7) . . .
161(7) . . .
190(8) . . .
186(7) . . .
176(7) . . .
146(6) . . .
189(7) . . .
187(8) . . .
170(7) . . .
160(7) . . .
160(7) . . .
180(7) . . .
156(7) . . .
174(7) . . .
161(7) . . .
188(7) . . .
190(7) . . .
178(7) . . .
169(7) . . .
171(7) . . .
192(7) . . .
172(7) . . .
167(7) . . .
168(7) . . .
179(7) . . .
162(7) . . .
153(6) . . .
180(7) . . .
159(7) . . .
172(7) . . .
168(7) . . .
165(7) . . .
169(7) . . .
182(7) . . .
177(7) . . .
185(7) . . .
176(7) . . .
167(7) . . .
172(7) . . .
176(7) . . .
166(7) . . .
171(7) . . .
182(8) . . .
189(8) . . .
153(6) . . .
178(7) . . .
184(7) . . .
198(8) . . .
188(7) . . .
186(7) . . .
163(7) . . .
168(7) . . .
169(7) . . .
185(7) . . .
186(7) . . .
186(7) . . .
172(7) . . .
184(7) . . .
180(7) . . .
170(7) . . .
174(7) . . .
168(7) . . .
184(8) . . .
173(7) . . .
188(7) . . .
185(7) . . .
190(7) . . .
174(7) . . .
189(7) . . .
184(7) . . .
172(7) . . .
170(7) . . .
184(7) . . .
174(7) . . .
164(7) . . .
166(7) . . .
163(7) . . .
180(7) . . .
190(7) . . .
173(7) . . .
190(7) . . .
173(7) . . .
182(7) . . .
179(7) . . .
158(7) . . .
163(7) . . .
191(8) . . .
183(7) . . .
182(7) . . .
178(7) . . .
182(7) . . .
184(8) . . .
160(7) . . .
154(6) . . .
171(7) . . .
183(7) . . .
189(8) . . .
164(7) . . .
174(7) . . .
190(7) . . .
174(7) . . .
172(7) . . .
181(7) . . .
157(7) . . .
169(7) . . .
178(7) . . .
185(7) . . .
193(7) . . .
181(7) . . .
184(7) . . .
181(7) . . .
189(8) . . .
179(7) . . .
171(7) . . .
165(7) . . .
183(7) . . .
177(7) . . .
178(7) . . .
171(7) . . .
186(8) . . .
177(7) . . .
177(7) . . .
172(7) . . .
164(7) . . .
182(7) . . .
173(7) . . .
168(7) . . .
167(7) . . .
172(7) . . .
174(7) . . .
189(8) . . .
189(7) . . .
191(7) . . .
180(7) . . .
166(7) . . .
176(7) . . .
158(7) . . .
180(7) . . .
168(7) . . .
167(7) . . .
181(7) . . .
159(7) . . .
153(6) . . .
179(7) . . .
174(7) . . .
178(7) . . .
156(7) . . .
175(7) . . .
192(7) . . .
167(7) . . .
170(7) . . .
186(7) . . .
162(7) . . .
159(7) . . .
169(7) . . .
179(7) . . .
187(7) . . .
168(7) . . .
173(7) . . .
150(7) . . .
170(7) . . .
164(7) . . .
164(7) . . .
169(7) . . .
167(7) . . .
158(7) . . .
166(7) . . .
169(7) . . .
181(7) . . .
189(8) . . .
168(7) . . .
158(7) . . .
157(7) . . .
179(7) . . .
171(7) . . .
165(7) . . .
159(7) . . .
173(7) . . .
178(7) . . .
175(8) . . .
142(6) . . .
171(7) . . .
164(7) . . .
163(7) . . .
167(7) . . .
163(7) . . .
159(6) . . .
165(7) . . .
177(7) . . .
162(7) . . .
158(7) . . .
169(7) . . .
183(7) . . .
171(7) . . .
176(7) . . .
191(7) . . .
175(7) . . .
175(7) . . .
186(7) . . .
173(7) . . .
160(7) . . .
169(7) . . .
164(7) . . .
161(7) . . .
162(7) . . .
178(7) . . .
163(7) . . .
167(7) . . .
163(7) . . .
170(7) . . .
167(7) . . .
163(7) . . .
179(7) . . .
172(7) . . .
173(7) . . .
174(7) . . .
185(7) . . .
171(7) . . .
195(8) . . .
202(8) . . .
165(7) . . .
163(7) . . .
196(8) . . .
166(7) . . .
164(7) . . .
166(7) . . .
155(6) . . .
180(7) . . .
167(7) . . .
168(7) . . .
168(7) . . .
164(7) . . .
182(7) . . .
178(7) . . .
162(7) . . .
191(7) . . .
169(7) . . .
187(8) . . .
193(8) . . .
182(7) . . .
180(7) . . .
156(7) . . .
146(6) . . .
173(7) . . .
160(7) . . .
172(7) . . .
179(7) . . .
176(7) . . .
166(7) . . .
177(7) . . .
177(7) . . .
171(7) . . .
184(7) . . .
176(7) . . .
161(7) . . .
154(6) . . .
177(7) . . .
173(7) . . .
172(7) . . .
167(7) . . .
191(7) . . .
176(7) . . .
183(7) . . .
198(7) . . .
173(7) . . .
165(7) . . .
162(7) . . .
162(7) . . .
153(7) . . .
160(7) . . .
169(7) . . .
179(7) . . .
178(7) . . .
160(7) . . .
169(7) . . .
170(7) . . .
174(7) . . .
151(7) . . .
164(7) . . .
179(7) . . .
154(7) . . .
169(7) . . .
178(7) . . .
163(7) . . .
166(7) . . .
164(7) . . .
156(7) . . .
172(7) . . .
164(7) . . .
177(7) . . .
165(7) . . .
148(6) . . .
159(7) . . .
181(7) . . .
173(7) . . .
168(7) . . .
170(7) . . .
168(7) . . .
175(7) . . .
180(7) . . .
190(7) . . .
174(7) . . .
186(8) . . .
172(7) . . .
167(7) . . .
158(7) . . .
185(7) . . .
160(7) . . .
164(7) . . .
190(7) . . .
177(7) . . .
174(7) . . .
150(7) . . .
161(7) . . .
157(7) . . .
180(7) . . .
186(7) . . .
157(7) . . .
166(7) . . .
152(6) . . .
161(7) . . .
171(7) . . .
183(7) . . .
166(7) . . .
162(7) . . .
173(7) . . .
158(7) . . .
177(7) . . .
163(7) . . .
149(6) . . .
176(7) . . .
176(7) . . .
175(7) . . .
153(6) . . .
165(7) . . .
153(7) . . .
179(8) . . .
187(7) . . .
163(7) . . .
173(7) . . .
171(7) . . .
168(7) . . .
166(7) . . .
172(7) . . .
172(7) . . .
163(7) . . .
177(7) . . .
167(7) . . .
172(7) . . .
170(7) . . .
163(7) . . .
170(7) . . .
175(7) . . .
174(7) . . .
180(7) . . .
178(7) . . .
181(7) . . .
174(7) . . .
168(7) . . .
156(7) . . .
165(7) . . .
154(7) . . .
158(7) . . .
166(7) . . .
163(7) . . .
162(7) . . .
165(7) . . .
145(6) . . .
157(6) . . .
176(7) . . .
165(7) . . .
174(7) . . .
166(7) . . .
178(7) . . .
191(8) . . .
157(7) . . .
166(7) . . .
170(7) . . .
151(6) . . .
161(7) . . .
162(7) . . .
179(7) . . .
173(7) . . .
172(7) . . .
164(7) . . .
174(7) . . .
150(7) . . .
160(7) . . .
149(6) . . .
168(7) . . .
159(7) . . .
155(7) . . .
173(7) . . .
182(7) . . .
178(7) . . .
170(7) . . .
176(7) . . .
157(7) . . .
176(7) . . .
168(7) . . .
152(7) . . .
162(7) . . .
151(6) . . .
170(7) . . .
157(7) . . .
164(7) . . .
158(7) . . .
179(7) . . .
178(7) . . .
173(7) . . .
168(7) . . .
179(7) . . .
182(7) . . .
171(7) . . .
170(7) . . .
160(7) . . .
152(7) . . .
176(7) . . .
170(7) . . .
156(7) . . .
162(7) . . .
162(7) . . .
154(6) . . .
164(7) . . .
163(7) . . .
154(7) . . .
150(6) . . .
170(7) . . .
169(7) . . .
157(7) . . .
158(7) . . .
158(7) . . .
156(7) . . .
156(7) . . .
175(7) . . .
179(7) . . .
191(7) . . .
164(7) . . .
170(7) . . .
165(7) . . .
175(7) . . .
164(7) . . .
157(7) . . .
174(7) . . .
179(7) . . .
175(7) . . .
180(7) . . .
182(7) . . .
172(7) . . .
167(7) . . .
152(7) . . .
166(7) . . .
174(7) . . .
172(7) . . .
180(7) . . .
180(7) . . .
169(7) . . .
164(7) . . .
185(7) . . .
162(7) . . .
165(7) . . .
174(7) . . .
172(7) . . .
188(7) . . .
189(8) . . .
165(7) . . .
172(7) . . .
160(7) . . .
170(7) . . .
185(7) . . .
189(7) . . .
176(7) . . .
163(7) . . .
177(7) . . .
181(7) . . .
187(7) . . .
185(7) . . .
188(7) . . .
168(7) . . .
181(7) . . .
177(7) . . .
172(7) . . .
164(7) . . .
149(7) . . .
160(7) . . .
161(7) . . .
178(7) . . .
169(7) . . .
163(7) . . .
163(7) . . .
180(7) . . .
166(7) . . .
174(7) . . .
171(7) . . .
151(7) . . .
185(7) . . .
172(7) . . .
177(7) . . .
172(7) . . .
167(7) . . .
182(7) . . .
153(6) . . .
162(7) . . .
161(7) . . .
168(7) . . .
178(7) . . .
152(6) . . .
173(7) . . .
178(7) . . .
175(7) . . .
170(7) . . .
168(7) . . .
192(8) . . .
172(7) . . .
159(7) . . .
160(7) . . .
170(7) . . .
163(7) . . .
154(6) . . .
179(7) . . .
153(6) . . .
166(7) . . .
194(8) . . .
180(7) . . .
170(7) . . .
169(7) . . .
149(6) . . .
180(7) . . .
181(7) . . .
163(7) . . .
153(7) . . .
189(7) . . .
159(7) . . .
165(7) . . .
146(6) . . .
153(7) . . .
143(6) . . .
166(7) . . .
158(7) . . .
153(6) . . .
181(7) . . .
176(7) . . .
149(7) . . .
172(7) . . .
167(7) . . .
163(7) . . .
199(8) . . .
163(7) . . .
181(7) . . .
194(7) . . .
177(7) . . .
174(7) . . .
165(7) . . .
150(6) . . .
160(7) . . .
177(7) . . .
158(7) . . .
169(7) . . .
173(7) . . .
181(7) . . .
164(7) . . .
165(7) . . .
169(7) . . .
152(6) . . .
148(6) . . .
172(7) . . .
192(8) . . .
175(7) . . .
178(7) . . .
161(7) . . .
170(7) . . .
168(7) . . .
176(7) . . .
173(7) . . .
184(7) . . .
189(7) . . .
162(7) . . .
154(7) . . .
148(6) . . .
154(6) . . .
150(7) . . .
179(7) . . .
153(7) . . .
169(7) . . .
177(7) . . .
173(7) . . .
167(7) . . .
175(7) . . .
177(7) . . .
162(7) . . .
175(7) . . .
187(8) . . .
160(7) . . .
155(6) . . .
184(7) . . .
139(6) . . .
170(7) . . .
147(7) . . .
140(6) . . .
173(7) . . .
157(7) . . .
167(7) . . .
160(7) . . .
160(7) . . .
165(7) . . .
159(7) . . .
161(7) . . .
178(7) . . .
168(7) . . .
171(7) . . .
157(7) . . .
159(7) . . .
185(7) . . .
169(7) . . .
161(7) . . .
164(7) . . .
175(7) . . .
193(7) . . .
160(7) . . .
163(7) . . .
160(7) . . .
170(7) . . .
163(7) . . .
161(7) . . .
159(7) . . .
170(7) . . .
159(7) . . .
161(7) . . .
179(7) . . .
166(7) . . .
162(7) . . .
165(7) . . .
172(7) . . .
170(7) . . .
199(7) . . .
176(7) . . .
149(6) . . .
178(7) . . .
148(6) . . .
152(7) . . .
182(8) . . .
157(7) . . .
166(7) . . .
167(7) . . .
169(7) . . .
187(8) . . .
160(7) . . .
157(6) . . .
167(7) . . .
199(8) . . .
166(7) . . .
162(7) . . .
172(7) . . .
164(7) . . .
165(7) . . .
158(7) . . .
153(7) . . .
162(7) . . .
151(7) . . .
153(7) . . .
151(7) . . .
177(7) . . .
166(7) . . .
158(7) . . .
178(7) . . .
200(8) . . .
169(7) . . .
165(7) . . .
158(7) . . .
158(7) . . .
170(7) . . .
162(7) . . .
159(7) . . .
167(7) . . .
158(7) . . .
161(7) . . .
159(7) . . .
161(7) . . .
175(7) . . .
151(7) . . .
173(7) . . .
151(6) . . .
146(6) . . .
176(7) . . .
151(7) . . .
164(7) . . .
166(7) . . .
181(7) . . .
139(6) . . .
166(7) . . .
157(7) . . .
184(7) . . .
170(7) . . .
171(7) . . .
194(8) . . .
176(7) . . .
163(7) . . .
147(6) . . .
161(7) . . .
193(8) . . .
167(7) . . .
171(7) . . .
162(7) . . .
152(7) . . .
163(7) . . .
151(7) . . .
164(7) . . .
171(7) . . .
176(7) . . .
163(7) . . .
167(7) . . .
150(6) . . .
161(7) . . .
164(7) . . .
169(7) . . .
153(7) . . .
157(6) . . .
160(7) . . .
168(7) . . .
166(7) . . .
150(6) . . .
174(7) . . .
165(7) . . .
149(7) . . .
153(7) . . .
154(7) . . .
165(7) . . .
178(7) . . .
162(7) . . .
155(7) . . .
140(6) . . .
175(7) . . .
169(7) . . .
155(7) . . .
161(7) . . .
139(6) . . .
174(7) . . .
162(7) . . .
173(7) . . .
171(7) . . .
158(7) . . .
160(7) . . .
174(7) . . .
167(7) . . .
185(7) . . .
166(7) . . .
169(7) . . .
159(7) . . .
163(7) . . .
187(8) . . .
171(7) . . .
157(7) . . .
168(7) . . .
147(7) . . .
158(7) . . .
166(7) . . .
160(7) . . .
166(7) . . .
168(7) . . .
157(7) . . .
161(7) . . .
167(7) . . .
160(7) . . .
162(7) . . .
172(7) . . .
154(6) . . .
163(7) . . .
160(7) . . .
155(7) . . .
159(7) . . .
162(7) . . .
159(7) . . .
154(7) . . .
166(7) . . .
165(7) . . .
147(6) . . .
169(7) . . .
160(7) . . .
172(7) . . .
181(7) . . .
173(7) . . .
144(6) . . .
156(7) . . .
152(7) . . .
155(6) . . .
160(7) . . .
160(7) . . .
155(7) . . .
159(7) . . .
166(7) . . .
182(7) . . .
169(7) . . .
160(7) . . .
163(7) . . .
159(7) . . .
169(7) . . .
152(6) . . .
149(7) . . .
143(7) . . .
160(7) . . .
158(7) . . .
161(7) . . .
175(8) . . .
172(7) . . .
155(6) . . .
170(7) . . .
163(7) . . .
157(7) . . .
172(7) . . .
167(7) . . .
145(6) . . .
161(7) . . .
164(7) . . .
154(7) . . .
164(7) . . .
151(7) . . .
150(7) . . .
158(7) . . .
160(7) . . .
158(7) . . .
169(7) . . .
166(7) . . .
152(7) . . .
172(7) . . .
147(6) . . .
153(7) . . .
156(7) . . .
150(7) . . .
148(6) . . .
150(6) . . .
157(7) . . .
170(7) . . .
172(7) . . .
153(6) . . .
145(6) . . .
153(7) . . .
153(7) . . .
155(7) . . .
167(7) . . .
159(7) . . .
154(7) . . .
172(7) . . .
161(7) . . .
148(6) . . .
170(7) . . .
169(7) . . .
167(7) . . .
159(7) . . .
148(6) . . .
153(6) . . .
170(7) . . .
180(7) . . .
172(7) . . .
171(7) . . .
162(7) . . .
158(7) . . .
158(7) . . .
166(7) . . .
162(7) . . .
153(7) . . .
174(7) . . .
160(7) . . .
157(7) . . .
166(7) . . .
154(7) . . .
170(7) . . .
173(7) . . .
169(7) . . .
175(7) . . .
176(7) . . .
172(7) . . .
167(7) . . .
161(7) . . .
169(7) . . .
154(7) . . .
156(7) . . .
148(7) . . .
143(6) . . .
158(7) . . .
162(7) . . .
153(7) . . .
149(7) . . .
165(7) . . .
189(7) . . .
154(7) . . .
172(7) . . .
156(7) . . .
149(6) . . .
152(6) . . .
163(7) . . .
151(7) . . .
172(7) . . .
174(7) . . .
169(7) . . .
159(7) . . .
152(7) . . .
181(7) . . .
171(7) . . .
161(7) . . .
155(7) . . .
152(7) . . .
166(7) . . .
153(6) . . .
163(7) . . .
144(6) . . .
168(7) . . .
165(7) . . .
168(7) . . .
157(7) . . .
151(7) . . .
143(6) . . .
173(7) . . .
146(6) . . .
168(7) . . .
138(6) . . .
151(7) . . .
163(7) . . .
153(6) . . .
165(7) . . .
148(6) . . .
169(7) . . .
148(6) . . .
167(7) . . .
144(6) . . .
167(7) . . .
164(7) . . .
160(7) . . .
162(7) . . .
176(7) . . .
161(7) . . .
143(6) . . .
155(7) . . .
153(6) . . .
158(7) . . .
167(7) . . .
142(6) . . .
159(7) . . .
170(7) . . .
169(7) . . .
168(7) . . .
150(6) . . .
164(7) . . .
155(7) . . .
142(6) . . .
158(7) . . .
175(7) . . .
169(7) . . .
164(7) . . .
169(7) . . .
179(7) . . .
154(7) . . .
157(6) . . .
168(7) . . .
170(7) . . .
168(7) . . .
166(7) . . .
177(7) . . .
144(6) . . .
158(7) . . .
170(7) . . .
162(7) . . .
160(7) . . .
169(7) . . .
173(7) . . .
159(7) . . .
168(7) . . .
183(7) . . .
157(7) . . .
159(7) . . .
160(7) . . .
177(7) . . .
168(7) . . .
180(7) . . .
162(7) . . .
161(7) . . .
155(7) . . .
146(6) . . .
175(7) . . .
171(7) . . .
179(7) . . .
161(7) . . .
177(7) . . .
159(7) . . .
155(7) . . .
172(7) . . .
178(7) . . .
164(7) . . .
174(7) . . .
154(7) . . .
173(7) . . .
163(7) . . .
148(6) . . .
162(7) . . .
159(7) . . .
169(7) . . .
163(7) . . .
157(7) . . .
154(7) . . .
165(7) . . .
179(7) . . .
168(7) . . .
142(6) . . .
149(7) . . .
162(7) . . .
161(7) . . .
173(7) . . .
175(7) . . .
148(6) . . .
166(7) . . .
162(7) . . .
163(7) . . .
158(7) . . .
149(6) . . .
158(7) . . .
181(7) . . .
160(7) . . .
163(7) . . .
154(7) . . .
157(7) . . .
172(7) . . .
160(7) . . .
177(7) . . .
164(7) . . .
156(7) . . .
157(7) . . .
162(7) . . .
169(7) . . .
140(6) . . .
156(7) . . .
149(6) . . .
155(6) . . .
146(6) . . .
175(7) . . .
159(7) . . .
148(6) . . .
156(6) . . .
153(7) . . .
149(7) . . .
158(7) . . .
176(7) . . .
157(7) . . .
151(7) . . .
149(7) . . .
161(7) . . .
159(7) . . .
147(6) . . .
146(6) . . .
164(7) . . .
172(7) . . .
167(7) . . .
139(6) . . .
173(7) . . .
161(7) . . .
155(7) . . .
160(7) . . .
150(6) . . .
143(6) . . .
150(7) . . .
165(7) . . .
177(7) . . .
149(6) . . .
167(7) . . .
189(8) . . .
166(7) . . .
147(6) . . .
161(7) . . .
143(6) . . .
160(7) . . .
159(7) . . .
171(7) . . .
161(7) . . .
177(7) . . .
150(6) . . .
155(7) . . .
167(7) . . .
169(7) . . .
153(7) . . .
146(7) . . .
165(7) . . .
166(7) . . .
161(7) . . .
138(6) . . .
167(7) . . .
183(7) . . .
171(7) . . .
155(7) . . .
167(7) . . .
170(7) . . .
179(7) . . .
167(7) . . .
151(7) . . .
171(7) . . .
161(7) . . .
160(7) . . .
149(6) . . .
149(6) . . .
160(7) . . .
169(7) . . .
165(7) . . .
143(6) . . .
174(7) . . .
153(7) . . .
146(7) . . .
158(6) . . .
169(7) . . .
153(7) . . .
155(7) . . .
144(6) . . .
151(6) . . .
161(7) . . .
157(7) . . .
156(7) . . .
166(7) . . .
147(6) . . .
153(7) . . .
160(7) . . .
131(6) . . .
156(7) . . .
168(7) . . .
157(7) . . .
138(6) . . .
159(7) . . .
154(7) . . .
176(7) . . .
164(7) . . .
148(7) . . .
169(7) . . .
174(7) . . .
164(7) . . .
151(7) . . .
148(7) . . .
146(7) . . .
166(7) . . .
145(6) . . .
166(7) . . .
163(7) . . .
170(7) . . .
167(7) . . .
128(6) . . .
153(7) . . .
163(7) . . .
162(7) . . .
141(6) . . .
155(7) . . .
153(7) . . .
164(7) . . .
157(7) . . .
159(6) . . .
155(6) . . .
156(6) . . .
158(7) . . .
166(7) . . .
141(6) . . .
150(6) . . .
163(7) . . .
144(6) . . .
157(7) . . .
161(7) . . .
145(6) . . .
147(7) . . .
164(7) . . .
157(7) . . .
150(6) . . .
167(7) . . .
163(7) . . .
158(7) . . .
156(7) . . .
151(6) . . .
160(7) . . .
166(7) . . .
165(7) . . .
156(7) . . .
165(7) . . .
162(7) . . .
159(7) . . .
153(7) . . .
161(7) . . .
166(7) . . .
148(7) . . .
147(7) . . .
160(7) . . .
179(7) . . .
151(6) . . .
160(7) . . .
154(7) . . .
190(8) . . .
180(7) . . .
175(7) . . .
161(7) . . .
150(7) . . .
167(7) . . .
150(6) . . .
164(7) . . .
174(7) . . .
172(7) . . .
152(7) . . .
142(6) . . .
148(6) . . .
147(6) . . .
151(7) . . .
161(7) . . .
159(7) . . .
153(7) . . .
152(7) . . .
150(7) . . .
156(7) . . .
145(6) . . .
134(6) . . .
156(7) . . .
167(7) . . .
160(7) . . .
148(6) . . .
150(7) . . .
141(7) . . .
160(7) . . .
168(7) . . .
143(6) . . .
146(6) . . .
164(7) . . .
165(7) . . .
160(7) . . .
160(7) . . .
173(7) . . .
155(7) . . .
149(7) . . .
149(6) . . .
156(6) . . .
165(7) . . .
155(7) . . .
159(7) . . .
166(7) . . .
156(6) . . .
153(7) . . .
161(7) . . .
160(7) . . .
164(7) . . .
145(6) . . .
169(7) . . .
159(7) . . .
166(7) . . .
157(7) . . .
168(7) . . .
186(7) . . .
156(7) . . .
147(6) . . .
151(6) . . .
147(6) . . .
148(7) . . .
140(6) . . .
159(7) . . .
145(6) . . .
156(7) . . .
141(6) . . .
158(7) . . .
160(7) . . .
155(6) . . .
158(7) . . .
149(6) . . .
159(7) . . .
150(7) . . .
164(7) . . .
154(6) . . .
148(6) . . .
139(6) . . .
151(7) . . .
161(7) . . .
162(7) . . .
156(7) . . .
157(7) . . .
160(7) . . .
162(7) . . .
145(7) . . .
160(7) . . .
161(7) . . .
141(6) . . .
160(7) . . .
156(7) . . .
145(6) . . .
142(6) . . .
170(7) . . .
169(7) . . .
160(7) . . .
155(7) . . .
167(7) . . .
160(7) . . .
156(7) . . .
141(6) . . .
154(7) . . .
163(7) . . .
142(6) . . .
142(6) . . .
146(7) . . .
162(7) . . .
155(7) . . .
148(6) . . .
136(6) . . .
162(7) . . .
160(7) . . .
150(7) . . .
146(6) . . .
141(6) . . .
142(6) . . .
155(7) . . .
141(6) . . .
146(6) . . .
152(6) . . .
153(7) . . .
142(7) . . .
146(6) . . .
152(6) . . .
158(7) . . .
173(7) . . .
146(6) . . .
146(6) . . .
161(7) . . .
160(7) . . .
151(7) . . .
149(7) . . .
170(7) . . .
138(6) . . .
157(7) . . .
152(7) . . .
165(7) . . .
174(7) . . .
168(7) . . .
158(7) . . .
151(7) . . .
163(7) . . .
144(6) . . .
145(6) . . .
144(6) . . .
166(7) . . .
168(7) . . .
156(6) . . .
159(7) . . .
172(7) . . .
146(7) . . .
149(6) . . .
158(7) . . .
165(7) . . .
148(6) . . .
137(6) . . .
155(7) . . .
129(6) . . .
149(6) . . .
141(6) . . .
154(7) . . .
151(6) . . .
152(6) . . .
166(7) . . .
150(6) . . .
163(7) . . .
160(7) . . .
167(7) . . .
168(7) . . .
140(6) . . .
156(7) . . .
171(7) . . .
139(6) . . .
140(6) . . .
148(7) . . .
172(7) . . .
164(7) . . .
147(6) . . .
147(7) . . .
159(7) . . .
148(6) . . .
160(7) . . .
151(6) . . .
152(6) . . .
154(7) . . .
145(6) . . .
141(6) . . .
164(7) . . .
163(7) . . .
145(7) . . .
148(7) . . .
146(6) . . .
161(7) . . .
153(7) . . .
148(7) . . .
149(7) . . .
151(7) . . .
148(6) . . .
159(7) . . .
157(7) . . .
156(7) . . .
158(7) . . .
155(7) . . .
161(7) . . .
166(7) . . .
147(6) . . .
173(7) . . .
151(6) . . .
166(7) . . .
123(6) . . .
146(7) . . .
138(6) . . .
145(6) . . .
149(7) . . .
141(6) . . .
155(7) . . .
156(7) . . .
152(6) . . .
160(7) . . .
159(7) . . .
152(7) . . .
162(7) . . .
148(6) . . .
141(6) . . .
136(6) . . .
155(7) . . .
170(7) . . .
154(6) . . .
174(7) . . .
166(7) . . .
156(7) . . .
151(6) . . .
154(7) . . .
135(6) . . .
145(6) . . .
142(6) . . .
149(6) . . .
155(7) . . .
155(7) . . .
158(7) . . .
169(7) . . .
145(6) . . .
153(7) . . .
140(6) . . .
144(7) . . .
139(6) . . .
148(6) . . .
160(7) . . .
173(7) . . .
162(7) . . .
164(7) . . .
151(6) . . .
156(7) . . .
149(7) . . .
155(7) . . .
146(6) . . .
151(6) . . .
148(7) . . .
150(7) . . .
144(6) . . .
151(6) . . .
141(6) . . .
165(7) . . .
152(7) . . .
162(7) . . .
141(6) . . .
156(7) . . .
142(6) . . .
163(7) . . .
151(7) . . .
146(6) . . .
165(7) . . .
144(6) . . .
148(7) . . .
145(7) . . .
165(7) . . .
133(6) . . .
157(7) . . .
156(7) . . .
148(6) . . .
150(6) . . .
143(6) . . .
153(7) . . .
161(7) . . .
167(7) . . .
158(7) . . .
154(7) . . .
148(7) . . .
135(6) . . .
158(7) . . .
153(6) . . .
163(7) . . .
157(7) . . .
153(7) . . .
151(6) . . .
158(7) . . .
154(6) . . .
162(7) . . .
152(6) . . .
177(7) . . .
163(7) . . .
159(7) . . .
163(7) . . .
163(7) . . .
166(7) . . .
177(7) . . .
167(7) . . .
153(7) . . .
138(6) . . .
153(7) . . .
150(6) . . .
160(7) . . .
146(7) . . .
142(6) . . .
157(7) . . .
140(6) . . .
152(7) . . .
165(7) . . .
152(6) . . .
166(7) . . .
164(7) . . .
157(7) . . .
183(7) . . .
150(6) . . .
156(6) . . .
153(7) . . .
158(7) . . .
133(6) . . .
146(7) . . .
140(6) . . .
137(6) . . .
149(7) . . .
157(7) . . .
144(6) . . .
155(6) . . .
155(7) . . .
157(7) . . .
144(7) . . .
146(6) . . .
134(6) . . .
158(7) . . .
150(7) . . .
149(7) . . .
141(6) . . .
154(6) . . .
157(7) . . .
155(7) . . .
163(7) . . .
135(6) . . .
154(6) . . .
148(6) . . .
150(7) . . .
151(7) . . .
158(7) . . .
147(6) . . .
141(6) . . .
143(6) . . .
141(6) . . .
152(6) . . .
161(7) . . .
174(7) . . .
145(7) . . .
149(7) . . .
155(7) . . .
151(6) . . .
153(7) . . .
140(6) . . .
171(7) . . .
161(7) . . .
159(7) . . .
141(6) . . .
153(7) . . .
170(7) . . .
147(6) . . .
153(7) . . .
169(7) . . .
140(6) . . .
148(6) . . .
151(6) . . .
155(7) . . .
143(7) . . .
149(7) . . .
132(6) . . .
146(6) . . .
156(7) . . .
141(6) . . .
142(7) . . .
147(7) . . .
159(7) . . .
132(6) . . .
148(7) . . .
160(7) . . .
145(6) . . .
151(6) . . .
151(6) . . .
143(6) . . .
155(7) . . .
140(6) . . .
155(6) . . .
162(7) . . .
161(7) . . .
155(7) . . .
174(7) . . .
164(7) . . .
162(7) . . .
132(6) . . .
167(7) . . .
136(6) . . .
167(7) . . .
147(7) . . .
138(7) . . .
136(6) . . .
150(6) . . .
153(6) . . .
162(7) . . .
148(7) . . .
156(7) . . .
159(7) . . .
163(7) . . .
161(7) . . .
149(7) . . .
148(6) . . .
158(7) . . .
168(7) . . .
163(7) . . .
159(7) . . .
169(7) . . .
152(6) . . .
156(7) . . .
139(6) . . .
166(7) . . .
167(7) . . .
151(6) . . .
162(7) . . .
161(7) . . .
156(7) . . .
170(7) . . .
162(7) . . .
161(7) . . .
170(7) . . .
158(7) . . .
152(6) . . .
161(7) . . .
167(7) . . .
149(7) . . .
158(7) . . .
148(6) . . .
153(6) . . .
169(7) . . .
154(7) . . .
140(6) . . .
163(7) . . .
148(6) . . .
158(7) . . .
162(7) . . .
152(7) . . .
166(7) . . .
140(6) . . .
163(7) . . .
166(7) . . .
160(7) . . .
150(6) . . .
155(6) . . .
165(7) . . .
148(7) . . .
150(7) . . .
147(6) . . .
162(7) . . .
144(6) . . .
147(7) . . .
149(7) . . .
154(6) . . .
145(6) . . .
153(7) . . .
165(7) . . .
145(6) . . .
163(7) . . .
161(7) . . .
157(7) . . .
153(7) . . .
165(7) . . .
153(6) . . .
157(7) . . .
136(6) . . .
153(7) . . .
146(6) . . .
160(7) . . .
158(7) . . .
148(7) . . .
167(7) . . .
141(6) . . .
147(6) . . .
145(6) . . .
154(7) . . .
153(6) . . .
169(7) . . .
151(6) . . .
154(7) . . .
153(7) . . .
155(7) . . .
147(6) . . .
152(6) . . .
168(7) . . .
153(7) . . .
144(6) . . .
163(7) . . .
158(6) . . .
169(7) . . .
149(7) . . .
157(7) . . .
168(7) . . .
160(7) . . .
151(7) . . .
144(7) . . .
155(7) . . .
146(6) . . .
160(7) . . .
159(7) . . .
161(7) . . .
174(7) . . .
157(7) . . .
162(7) . . .
156(7) . . .
158(7) . . .
159(7) . . .
154(6) . . .
149(6) . . .
163(7) . . .
152(7) . . .
145(7) . . .
164(7) . . .
151(6) . . .
159(7) . . .
152(7) . . .
144(6) . . .
154(6) . . .
143(7) . . .
132(6) . . .
163(7) . . .
142(6) . . .
158(7) . . .
150(6) . . .
159(7) . . .
139(6) . . .
149(7) . . .
164(7) . . .
165(7) . . .
158(7) . . .
149(7) . . .
146(6) . . .
146(6) . . .
156(7) . . .
150(7) . . .
154(7) . . .
158(7) . . .
136(6) . . .
151(7) . . .
152(7) . . .
147(6) . . .
159(7) . . .
171(7) . . .
142(6) . . .
147(7) . . .
137(6) . . .
162(7) . . .
164(7) . . .
144(6) . . .
154(7) . . .
145(6) . . .
145(6) . . .
132(6) . . .
138(6) . . .
133(6) . . .
148(7) . . .
141(6) . . .
149(6) . . .
144(7) . . .
143(7) . . .
149(7) . . .
138(6) . . .
133(6) . . .
153(7) . . .
135(6) . . .
140(7) . . .
147(6) . . .
158(7) . . .
156(7) . . .
144(7) . . .
155(7) . . .
140(6) . . .
134(6) . . .
155(7) . . .
149(7) . . .
155(7) . . .
155(6) . . .
140(6) . . .
152(7) . . .
163(7) . . .
131(6) . . .
143(6) . . .
132(6) . . .
135(6) . . .
142(7) . . .
143(6) . . .
140(6) . . .
150(7) . . .
139(6) . . .
154(7) . . .
145(6) . . .
151(6) . . .
145(6) . . .
157(7) . . .
164(7) . . .
150(6) . . .
142(6) . . .
131(6) . . .
140(6) . . .
146(6) . . .
152(6) . . .
145(6) . . .
147(7) . . .
151(7) . . .
163(7) . . .
155(7) . . .
144(6) . . .
151(7) . . .
150(7) . . .
151(7) . . .
159(7) . . .
138(6) . . .
162(7) . . .
155(7) . . .
143(6) . . .
137(6) . . .
124(6) . . .
147(7) . . .
159(7) . . .
164(7) . . .
162(7) . . .
144(6) . . .
139(6) . . .
151(7) . . .
153(7) . . .
142(6) . . .
149(7) . . .
147(7) . . .
136(6) . . .
122(6) . . .
145(6) . . .
153(7) . . .
131(6) . . .
142(6) . . .
148(6) . . .
157(7) . . .
148(7) . . .
136(6) . . .
133(6) . . .
155(6) . . .
148(6) . . .
146(6) . . .
160(7) . . .
146(6) . . .
144(6) . . .
137(6) . . .
153(7) . . .
131(6) . . .
138(6) . . .
143(6) . . .
143(6) . . .
157(7) . . .
150(7) . . .
145(6) . . .
140(6) . . .
139(6) . . .
127(6) . . .
144(7) . . .
131(6) . . .
148(6) . . .
141(6) . . .
142(6) . . .
148(7) . . .
151(7) . . .
154(6) . . .
125(6) . . .
158(7) . . .
142(6) . . .
145(6) . . .
157(7) . . .
138(6) . . .
156(7) . . .
142(6) . . .
129(6) . . .
143(6) . . .
149(7) . . .
150(7) . . .
150(7) . . .
152(7) . . .
133(6) . . .
139(6) . . .
133(6) . . .
142(7) . . .
131(6) . . .
133(6) . . .
145(7) . . .
134(6) . . .
141(6) . . .
147(6) . . .
154(6) . . .
132(6) . . .
143(7) . . .
143(6) . . .
145(6) . . .
138(6) . . .
128(6) . . .
150(7) . . .
144(6) . . .
146(6) . . .
166(7) . . .
148(6) . . .
153(7) . . .
161(7) . . .
150(6) . . .
134(6) . . .
124(6) . . .
129(6) . . .
146(6) . . .
150(6) . . .
157(7) . . .
144(6) . . .
123(6) . . .
138(6) . . .
144(6) . . .
146(6) . . .
151(7) . . .
145(7) . . .
131(6) . . .
124(6) . . .
143(6) . . .
148(7) . . .
141(6) . . .
144(6) . . .
131(6) . . .
147(7) . . .
141(6) . . .
131(6) . . .
149(6) . . .
143(6) . . .
140(6) . . .
129(6) . . .
145(6) . . .
133(6) . . .
140(6) . . .
136(6) . . .
138(6) . . .
141(6) . . .
140(6) . . .
145(6) . . .
142(6) . . .
161(7) . . .
143(6) . . .
131(6) . . .
138(6) . . .
136(6) . . .
156(7) . . .
140(6) . . .
131(6) . . .
131(6) . . .
134(6) . . .
142(7) . . .
137(6) . . .
133(6) . . .
143(6) . . .
144(6) . . .
150(7) . . .
138(6) . . .
155(6) . . .
153(6) . . .
134(6) . . .
146(7) . . .
134(6) . . .
157(7) . . .
130(6) . . .
137(6) . . .
124(6) . . .
139(6) . . .
149(6) . . .
154(7) . . .
131(6) . . .
143(7) . . .
139(6) . . .
134(6) . . .
142(6) . . .
141(7) . . .
139(7) . . .
132(6) . . .
149(6) . . .
153(7) . . .
131(6) . . .
146(7) . . .
143(6) . . .
144(6) . . .
151(7) . . .
135(6) . . .
147(6) . . .
151(6) . . .
159(7) . . .
141(6) . . .
165(7) . . .
150(7) . . .
138(6) . . .
148(6) . . .
132(6) . . .
131(6) . . .
145(6) . . .
133(6) . . .
138(6) . . .
138(6) . . .
144(7) . . .
147(7) . . .
123(6) . . .
131(6) . . .
149(7) . . .
136(6) . . .
155(7) . . .
170(7) . . .
130(6) . . .
138(6) . . .
158(7) . . .
154(6) . . .
158(7) . . .
141(6) . . .
136(6) . . .
137(6) . . .
134(6) . . .
140(6) . . .
152(6) . . .
139(6) . . .
151(7) . . .
168(7) . . .
164(7) . . .
152(6) . . .
141(6) . . .
129(6) . . .
153(7) . . .
154(6) . . .
136(6) . . .
133(6) . . .
151(7) . . .
159(7) . . .
155(6) . . .
128(6) . . .
144(6) . . .
151(7) . . .
127(6) . . .
154(6) . . .
148(7) . . .
139(7) . . .
156(7) . . .
156(7) . . .
146(6) . . .
137(6) . . .
147(7) . . .
138(6) . . .
136(6) . . .
168(7) . . .
134(6) . . .
146(7) . . .
152(7) . . .
153(6) . . .
139(6) . . .
134(6) . . .
139(7) . . .
149(7) . . .
163(7) . . .
126(6) . . .
141(6) . . .
123(6) . . .
154(7) . . .
155(6) . . .
129(6) . . .
139(6) . . .
133(6) . . .
135(6) . . .
137(6) . . .
150(6) . . .
142(6) . . .
150(7) . . .
150(7) . . .
141(6) . . .
143(6) . . .
151(7) . . .
129(6) . . .
157(7) . . .
131(6) . . .
165(7) . . .
146(7) . . .
144(6) . . .
154(7) . . .
147(6) . . .
146(7) . . .
135(7) . . .
142(7) . . .
146(6) . . .
137(6) . . .
135(6) . . .
141(7) . . .
144(6) . . .
148(6) . . .
133(6) . . .
137(6) . . .
139(7) . . .
153(7) . . .
136(6) . . .
154(6) . . .
130(6) . . .
122(6) . . .
142(7) . . .
156(6) . . .
142(6) . . .
156(7) . . .
147(7) . . .
140(6) . . .
150(6) . . .
138(6) . . .
146(7) . . .
156(7) . . .
141(6) . . .
139(6) . . .
150(6) . . .
122(6) . . .
147(7) . . .
140(6) . . .
157(7) . . .
142(6) . . .
140(7) . . .
135(6) . . .
153(7) . . .
127(6) . . .
124(6) . . .
127(6) . . .
140(6) . . .
137(6) . . .
135(6) . . .
143(6) . . .
144(6) . . .
149(7) . . .
154(7) . . .
142(6) . . .
138(6) . . .
146(7) . . .
137(6) . . .
143(6) . . .
146(6) . . .
150(7) . . .
140(7) . . .
119(6) . . .
146(6) . . .
149(6) . . .
147(6) . . .
168(7) . . .
140(6) . . .
136(6) . . .
143(6) . . .
130(6) . . .
132(6) . . .
142(6) . . .
144(6) . . .
152(6) . . .
143(6) . . .
152(7) . . .
159(7) . . .
150(6) . . .
150(6) . . .
134(6) . . .
145(7) . . .
155(7) . . .
154(6) . . .
145(6) . . .
147(7) . . .
139(6) . . .
144(7) . . .
125(6) . . .
126(6) . . .
137(6) . . .
132(6) . . .
126(6) . . .
142(6) . . .
156(7) . . .
150(7) . . .
136(6) . . .
137(6) . . .
141(6) . . .
138(6) . . .
131(6) . . .
136(6) . . .
153(7) . . .
146(6) . . .
128(6) . . .
124(6) . . .
135(6) . . .
124(6) . . .
161(7) . . .
141(6) . . .
140(7) . . .
149(7) . . .
134(6) . . .
139(6) . . .
141(6) . . .
140(7) . . .
137(6) . . .
147(6) . . .
131(6) . . .
138(6) . . .
142(7) . . .
143(6) . . .
151(6) . . .
143(6) . . .
140(6) . . .
152(7) . . .
134(6) . . .
140(6) . . .
147(6) . . .
142(6) . . .
141(6) . . .
153(7) . . .
151(6) . . .
138(6) . . .
141(6) . . .
147(7) . . .
144(6) . . .
144(6) . . .
144(6) . . .
140(6) . . .
149(6) . . .
146(7) . . .
141(6) . . .
126(6) . . .
133(6) . . .
136(6) . . .
144(6) . . .
144(6) . . .
145(6) . . .
130(6) . . .
137(6) . . .
141(6) . . .
133(6) . . .
150(7) . . .
155(7) . . .
146(7) . . .
122(6) . . .
142(6) . . .
150(7) . . .
127(6) . . .
134(6) . . .
125(6) . . .
149(6) . . .
142(6) . . .
135(6) . . .
142(6) . . .
137(6) . . .
141(6) . . .
127(6) . . .
147(7) . . .
136(6) . . .
122(6) . . .
137(6) . . .
139(6) . . .
124(6) . . .
138(6) . . .
150(6) . . .
154(6) . . .
145(6) . . .
135(7) . . .
147(7) . . .
146(6) . . .
126(6) . . .
144(7) . . .
130(6) . . .
130(6) . . .
125(6) . . .
129(6) . . .
148(7) . . .
152(7) . . .
139(6) . . .
137(6) . . .
138(6) . . .
144(7) . . .
148(7) . . .
141(6) . . .
133(6) . . .
167(7) . . .
120(6) . . .
112(6) . . .
144(7) . . .
140(6) . . .
118(6) . . .
134(6) . . .
159(7) . . .
142(6) . . .
129(6) . . .
146(6) . . .
146(7) . . .
129(6) . . .
139(6) . . .
140(6) . . .
149(6) . . .
136(6) . . .
129(6) . . .
154(6) . . .
135(6) . . .
133(6) . . .
129(6) . . .
146(6) . . .
143(6) . . .
142(6) . . .
137(6) . . .
150(7) . . .
156(7) . . .
141(6) . . .
123(6) . . .
141(7) . . .
148(7) . . .
129(6) . . .
141(6) . . .
150(6) . . .
151(7) . . .
137(7) . . .
129(6) . . .
149(6) . . .
125(6) . . .
121(6) . . .
130(6) . . .
139(6) . . .
132(6) . . .
137(6) . . .
148(7) . . .
139(6) . . .
127(6) . . .
142(6) . . .
132(6) . . .
140(6) . . .
149(7) . . .
120(6) . . .
129(6) . . .
126(6) . . .
142(7) . . .
123(6) . . .
129(6) . . .
125(6) . . .
124(6) . . .
147(7) . . .
151(7) . . .
131(6) . . .
119(6) . . .
125(6) . . .
134(6) . . .
119(6) . . .
131(6) . . .
139(6) . . .
140(6) . . .
139(7) . . .
140(6) . . .
120(6) . . .
134(6) . . .
137(6) . . .
144(7) . . .
142(6) . . .
141(6) . . .
144(6) . . .
119(6) . . .
143(7) . . .
126(6) . . .
159(6) . . .
135(6) . . .
136(6) . . .
134(6) . . .
153(7) . . .
141(6) . . .
136(6) . . .
131(6) . . .
132(6) . . .
141(6) . . .
141(6) . . .
143(6) . . .
144(6) . . .
141(6) . . .
149(6) . . .
147(6) . . .
135(6) . . .
138(6) . . .
157(7) . . .
137(6) . . .
143(6) . . .
145(6) . . .
125(6) . . .
125(6) . . .
138(6) . . .
143(6) . . .
126(6) . . .
139(7) . . .
129(6) . . .
137(6) . . .
129(6) . . .
122(6) . . .
112(6) . . .
135(6) . . .
135(6) . . .
137(6) . . .
143(6) . . .
140(7) . . .
143(7) . . .
129(6) . . .
139(6) . . .
136(6) . . .
136(6) . . .
132(6) . . .
123(6) . . .
130(6) . . .
123(6) . . .
149(7) . . .
145(6) . . .
147(6) . . .
138(6) . . .
143(7) . . .
134(6) . . .
150(7) . . .
140(6) . . .
128(6) . . .
127(6) . . .
145(6) . . .
151(7) . . .
140(6) . . .
144(6) . . .
135(6) . . .
137(6) . . .
149(7) . . .
131(6) . . .
131(6) . . .
136(6) . . .
136(6) . . .
134(6) . . .
136(6) . . .
139(6) . . .
125(6) . . .
118(6) . . .
130(6) . . .
147(6) . . .
136(6) . . .
134(6) . . .
134(6) . . .
144(6) . . .
154(6) . . .
140(6) . . .
153(7) . . .
142(6) . . .
154(7) . . .
147(6) . . .
145(6) . . .
129(6) . . .
131(6) . . .
129(6) . . .
142(6) . . .
134(6) . . .
129(6) . . .
136(6) . . .
133(6) . . .
133(6) . . .
137(6) . . .
139(6) . . .
140(7) . . .
136(6) . . .
128(6) . . .
129(6) . . .
135(6) . . .
145(7) . . .
128(6) . . .
159(7) . . .
135(6) . . .
143(7) . . .
119(6) . . .
120(6) . . .
128(6) . . .
127(6) . . .
136(6) . . .
130(6) . . .
139(6) . . .
133(6) . . .
134(6) . . .
121(6) . . .
129(6) . . .
124(6) . . .
130(6) . . .
131(6) . . .
129(6) . . .
134(6) . . .
140(6) . . .
126(6) . . .
122(6) . . .
148(7) . . .
139(6) . . .
131(6) . . .
127(6) . . .
122(6) . . .
134(6) . . .
119(6) . . .
136(6) . . .
144(6) . . .
146(7) . . .
140(6) . . .
147(6) . . .
161(7) . . .
133(6) . . .
141(6) . . .
159(7) . . .
135(6) . . .
155(7) . . .
136(6) . . .
150(7) . . .
131(6) . . .
133(6) . . .
135(6) . . .
139(7) . . .
127(6) . . .
128(6) . . .
149(6) . . .
123(6) . . .
138(6) . . .
121(6) . . .
142(6) . . .
139(6) . . .
130(6) . . .
127(6) . . .
125(6) . . .
136(6) . . .
126(6) . . .
132(6) . . .
143(7) . . .
131(6) . . .
114(6) . . .
134(6) . . .
136(6) . . .
141(7) . . .
144(6) . . .
136(6) . . .
143(6) . . .
146(7) . . .
128(6) . . .
118(6) . . .
130(6) . . .
139(6) . . .
132(6) . . .
137(6) . . .
136(6) . . .
144(6) . . .
147(6) . . .
143(6) . . .
145(7) . . .
141(6) . . .
146(6) . . .
134(6) . . .
143(6) . . .
133(6) . . .
142(6) . . .
127(6) . . .
136(6) . . .
141(6) . . .
130(6) . . .
146(7) . . .
142(6) . . .
141(6) . . .
131(6) . . .
120(6) . . .
124(6) . . .
141(6) . . .
132(6) . . .
131(6) . . .
145(7) . . .
138(6) . . .
148(6) . . .
135(6) . . .
134(6) . . .
147(7) . . .
146(6) . . .
130(6) . . .
132(6) . . .
145(7) . . .
135(6) . . .
154(7) . . .
131(6) . . .
135(6) . . .
145(7) . . .
122(6) . . .
134(6) . . .
128(6) . . .
131(6) . . .
135(6) . . .
135(6) . . .
129(6) . . .
122(6) . . .
130(6) . . .
140(7) . . .
135(6) . . .
143(6) . . .
126(6) . . .
113(6) . . .
135(6) . . .
155(7) . . .
140(6) . . .
116(6) . . .
131(6) . . .
146(7) . . .
115(6) . . .
148(6) . . .
150(7) . . .
130(6) . . .
123(6) . . .
137(6) . . .
135(6) . . .
148(6) . . .
140(6) . . .
147(7) . . .
129(6) . . .
131(6) . . .
118(6) . . .
127(6) . . .
149(7) . . .
126(6) . . .
152(6) . . .
137(6) . . .
136(6) . . .
136(6) . . .
135(6) . . .
117(6) . . .
119(6) . . .
121(6) . . .
140(7) . . .
136(6) . . .
119(6) . . .
127(6) . . .
139(6) . . .
120(6) . . .
139(6) . . .
145(6) . . .
118(6) . . .
140(6) . . .
140(6) . . .
148(7) . . .
127(6) . . .
138(6) . . .
142(7) . . .
130(6) . . .
125(6) . . .
130(6) . . .
133(6) . . .
142(7) . . .
139(6) . . .
125(6) . . .
135(6) . . .
125(6) . . .
137(6) . . .
132(6) . . .
149(6) . . .
127(6) . . .
126(6) . . .
147(7) . . .
128(6) . . .
144(6) . . .
129(6) . . .
122(6) . . .
137(7) . . .
132(6) . . .
147(6) . . .
140(6) . . .
125(6) . . .
127(6) . . .
128(6) . . .
122(6) . . .
141(6) . . .
143(6) . . .
142(7) . . .
128(6) . . .
145(6) . . .
148(6) . . .
137(6) . . .
136(6) . . .
138(6) . . .
128(6) . . .
123(6) . . .
127(6) . . .
145(7) . . .
142(6) . . .
132(6) . . .
124(6) . . .
135(6) . . .
130(6) . . .
146(6) . . .
135(6) . . .
158(7) . . .
128(6) . . .
147(7) . . .
139(6) . . .
134(6) . . .
123(6) . . .
138(7) . . .
147(6) . . .
146(6) . . .
146(6) . . .
123(6) . . .
125(6) . . .
136(6) . . .
132(6) . . .
147(6) . . .
149(6) . . .
147(7) . . .
149(7) . . .
138(6) . . .
149(7) . . .
140(7) . . .
133(7) . . .
126(6) . . .
128(6) . . .
133(6) . . .
148(6) . . .
129(6) . . .
143(6) . . .
126(6) . . .
143(6) . . .
127(6) . . .
143(7) . . .
142(6) . . .
133(6) . . .
118(6) . . .
131(6) . . .
132(6) . . .
128(6) . . .
132(6) . . .
135(6) . . .
151(7) . . .
153(7) . . .
137(6) . . .
158(6) . . .
133(6) . . .
153(7) . . .
131(6) . . .
129(6) . . .
140(6) . . .
132(6) . . .
137(6) . . .
120(6) . . .
116(6) . . .
141(6) . . .
124(6) . . .
130(6) . . .
115(6) . . .
131(6) . . .
122(6) . . .
126(6) . . .
141(7) . . .
130(6) . . .
119(6) . . .
111(5) . . .
140(7) . . .
126(6) . . .
128(6) . . .
152(6) . . .
130(6) . . .
128(6) . . .
130(6) . . .
145(7) . . .
123(6) . . .
133(6) . . .
129(6) . . .
123(6) . . .
121(6) . . .
132(6) . . .
137(6) . . .
137(6) . . .
129(6) . . .
113(6) . . .
103(5) . . .
111(5) . . .
136(6) . . .
131(6) . . .
120(6) . . .
144(6) . . .
132(6) . . .
134(6) . . .
130(6) . . .
123(6) . . .
136(6) . . .
120(6) . . .
124(6) . . .
140(6) . . .
124(6) . . .
135(6) . . .
137(6) . . .
130(6) . . .
127(6) . . .
134(6) . . .
148(6) . . .
145(6) . . .
134(6) . . .
126(6) . . .
118(6) . . .
119(6) . . .
137(6) . . .
142(6) . . .
147(6) . . .
141(6) . . .
138(6) . . .
132(6) . . .
137(6) . . .
139(6) . . .
146(6) . . .
120(6) . . .
139(6) . . .
144(7) . . .
135(6) . . .
146(6) . . .
138(6) . . .
137(6) . . .
136(7) . . .
125(6) . . .
136(6) . . .
141(6) . . .
146(7) . . .
144(7) . . .
123(6) . . .
129(6) . . .
134(6) . . .
135(6) . . .
130(6) . . .
136(6) . . .
117(6) . . .
128(6) . . .
133(6) . . .
141(7) . . .
146(7) . . .
140(6) . . .
117(6) . . .
100(5) . . .
129(6) . . .
122(6) . . .
122(6) . . .
128(6) . . .
138(6) . . .
130(6) . . .
128(6) . . .
124(6) . . .
137(6) . . .
139(6) . . .
121(6) . . .
148(6) . . .
127(6) . . .
120(6) . . .
125(6) . . .
119(6) . . .
143(6) . . .
130(6) . . .
132(6) . . .
132(6) . . .
129(6) . . .
133(6) . . .
138(6) . . .
132(6) . . .
141(7) . . .
135(6) . . .
137(6) . . .
134(6) . . .
130(6) . . .
127(6) . . .
160(7) . . .
140(6) . . .
145(6) . . .
133(6) . . .
121(6) . . .
134(6) . . .
119(6) . . .
141(6) . . .
135(6) . . .
139(7) . . .
129(6) . . .
130(6) . . .
132(6) . . .
113(6) . . .
137(7) . . .
129(6) . . .
150(6) . . .
135(6) . . .
135(6) . . .
139(6) . . .
123(6) . . .
121(6) . . .
129(6) . . .
140(6) . . .
100(5) . . .
114(6) . . .
124(6) . . .
147(7) . . .
132(6) . . .
135(6) . . .
145(6) . . .
140(6) . . .
131(6) . . .
134(6) . . .
123(6) . . .
131(6) . . .
125(6) . . .
127(6) . . .
121(6) . . .
151(7) . . .
118(6) . . .
127(6) . . .
139(6) . . .
126(6) . . .
128(6) . . .
132(6) . . .
127(6) . . .
121(6) . . .
122(6) . . .
128(6) . . .
127(6) . . .
147(6) . . .
139(6) . . .
125(6) . . .
130(6) . . .
128(6) . . .
127(6) . . .
131(6) . . .
138(7) . . .
108(5) . . .
128(6) . . .
131(6) . . .
127(6) . . .
119(6) . . .
145(7) . . .
147(6) . . .
134(6) . . .
145(7) . . .
121(6) . . .
106(5) . . .
119(6) . . .
119(6) . . .
127(6) . . .
137(6) . . .
123(6) . . .
144(6) . . .
135(6) . . .
126(6) . . .
112(6) . . .
133(6) . . .
137(6) . . .
112(6) . . .
118(6) . . .
135(6) . . .
126(6) . . .
128(6) . . .
123(6) . . .
131(6) . . .
121(6) . . .
132(6) . . .
125(6) . . .
114(6) . . .
120(6) . . .
121(6) . . .
133(6) . . .
120(6) . . .
135(6) . . .
134(6) . . .
135(6) . . .
131(6) . . .
126(6) . . .
125(6) . . .
137(6) . . .
122(6) . . .
134(6) . . .
131(6) . . .
134(6) . . .
148(6) . . .
162(7) . . .
131(6) . . .
120(6) . . .
137(6) . . .
128(6) . . .
132(6) . . .
144(6) . . .
124(6) . . .
119(6) . . .
136(7) . . .
138(6) . . .
134(6) . . .
135(6) . . .
129(6) . . .
119(6) . . .
138(6) . . .
125(6) . . .
120(6) . . .
118(6) . . .
143(6) . . .
122(6) . . .
126(6) . . .
131(6) . . .
143(7) . . .
122(6) . . .
118(6) . . .
141(6) . . .
123(6) . . .
127(6) . . .
121(6) . . .
109(5) . . .
135(6) . . .
136(6) . . .
123(6) . . .
123(6) . . .
137(6) . . .
147(6) . . .
128(6) . . .
126(6) . . .
135(6) . . .
139(6) . . .
134(6) . . .
130(6) . . .
116(6) . . .
123(6) . . .
122(6) . . .
120(6) . . .
122(6) . . .
133(6) . . .
142(7) . . .
137(6) . . .
125(6) . . .
130(6) . . .
127(6) . . .
151(6) . . .
136(6) . . .
116(6) . . .
147(7) . . .
127(6) . . .
125(6) . . .
125(6) . . .
119(6) . . .
115(6) . . .
130(6) . . .
136(6) . . .
130(6) . . .
117(6) . . .
126(6) . . .
144(7) . . .
128(6) . . .
132(6) . . .
137(6) . . .
124(6) . . .
137(6) . . .
132(6) . . .
131(6) . . .
118(6) . . .
117(6) . . .
138(6) . . .
144(6) . . .
125(6) . . .
133(6) . . .
126(6) . . .
128(6) . . .
114(6) . . .
120(6) . . .
118(6) . . .
123(6) . . .
133(6) . . .
137(6) . . .
135(6) . . .
146(7) . . .
123(6) . . .
133(6) . . .
142(6) . . .
124(6) . . .
139(6) . . .
135(6) . . .
130(6) . . .
152(6) . . .
131(6) . . .
124(6) . . .
134(6) . . .
126(6) . . .
146(6) . . .
123(6) . . .
139(6) . . .
127(6) . . .
128(6) . . .
137(6) . . .
152(6) . . .
158(7) . . .
135(6) . . .
148(7) . . .
147(6) . . .
138(6) . . .
136(6) . . .
132(6) . . .
141(6) . . .
120(6) . . .
134(6) . . .
127(6) . . .
128(6) . . .
133(6) . . .
129(6) . . .
138(7) . . .
131(6) . . .
113(6) . . .
132(6) . . .
122(6) . . .
131(6) . . .
121(6) . . .
136(6) . . .
130(6) . . .
130(6) . . .
153(7) . . .
139(7) . . .
149(7) . . .
133(6) . . .
146(6) . . .
152(7) . . .
137(6) . . .
130(6) . . .
126(6) . . .
143(6) . . .
131(6) . . .
129(6) . . .
135(6) . . .
132(6) . . .
142(6) . . .
138(6) . . .
134(6) . . .
128(6) . . .
147(6) . . .
133(6) . . .
127(6) . . .
126(6) . . .
151(7) . . .
141(6) . . .
140(6) . . .
119(6) . . .
134(6) . . .
148(6) . . .
142(6) . . .
143(6) . . .
135(6) . . .
140(6) . . .
140(6) . . .
130(6) . . .
134(6) . . .
119(6) . . .
103(6) . . .
119(6) . . .
140(6) . . .
132(6) . . .
131(6) . . .
140(7) . . .
139(6) . . .
130(6) . . .
132(6) . . .
132(6) . . .
141(6) . . .
123(6) . . .
111(5) . . .
131(6) . . .
132(6) . . .
137(6) . . .
144(6) . . .
126(6) . . .
131(6) . . .
128(6) . . .
144(6) . . .
128(6) . . .
121(6) . . .
137(6) . . .
128(6) . . .
139(6) . . .
146(6) . . .
136(6) . . .
140(6) . . .
127(6) . . .
142(6) . . .
130(6) . . .
135(6) . . .
129(6) . . .
155(7) . . .
130(6) . . .
144(6) . . .
130(6) . . .
130(6) . . .
128(6) . . .
123(6) . . .
144(6) . . .
141(6) . . .
129(6) . . .
132(6) . . .
138(6) . . .
138(6) . . .
139(6) . . .
129(6) . . .
129(6) . . .
148(7) . . .
142(6) . . .
137(6) . . .
140(6) . . .
135(6) . . .
131(6) . . .
129(6) . . .
120(6) . . .
116(6) . . .
148(7) . . .
130(6) . . .
129(6) . . .
140(6) . . .
138(6) . . .
130(6) . . .
127(6) . . .
128(6) . . .
111(6) . . .
138(7) . . .
127(6) . . .
122(6) . . .
136(6) . . .
132(6) . . .
138(7) . . .
137(6) . . .
148(6) . . .
141(6) . . .
151(7) . . .
144(7) . . .
149(7) . . .
150(6) . . .
138(6) . . .
138(6) . . .
137(6) . . .
141(6) . . .
137(6) . . .
133(6) . . .
137(6) . . .
138(6) . . .
160(7) . . .
126(6) . . .
125(6) . . .
136(6) . . .
121(6) . . .
151(7) . . .
124(6) . . .
136(6) . . .
144(7) . . .
123(6) . . .
129(6) . . .
133(6) . . .
138(6) . . .
123(6) . . .
127(6) . . .
118(6) . . .
126(6) . . .
128(6) . . .
125(6) . . .
124(6) . . .
142(6) . . .
149(6) . . .
139(6) . . .
126(6) . . .
126(6) . . .
126(6) . . .
140(6) . . .
134(6) . . .
152(7) . . .
131(6) . . .
132(6) . . .
131(6) . . .
140(6) . . .
139(6) . . .
155(7) . . .
125(6) . . .
141(6) . . .
129(6) . . .
131(6) . . .
130(6) . . .
131(6) . . .
134(6) . . .
135(6) . . .
126(6) . . .
150(7) . . .
130(6) . . .
118(6) . . .
143(6) . . .
133(6) . . .
128(6) . . .
124(6) . . .
146(6) . . .
134(6) . . .
132(6) . . .
132(7) . . .
131(6) . . .
115(6) . . .
153(7) . . .
128(6) . . .
134(6) . . .
132(6) . . .
135(6) . . .
143(7) . . .
148(7) . . .
143(6) . . .
137(6) . . .
115(6) . . .
138(7) . . .
145(6) . . .
139(6) . . .
149(6) . . .
128(6) . . .
136(6) . . .
131(6) . . .
134(6) . . .
133(6) . . .
143(6) . . .
158(7) . . .
142(6) . . .
127(6) . . .
128(6) . . .
145(7) . . .
137(6) . . .
114(6) . . .
133(6) . . .
133(6) . . .
110(5) . . .
128(6) . . .
121(6) . . .
129(6) . . .
144(6) . . .
141(6) . . .
133(6) . . .
124(6) . . .
127(6) . . .
128(6) . . .
120(6) . . .
131(6) . . .
137(6) . . .
124(6) . . .
140(6) . . .
125(6) . . .
143(6) . . .
129(6) . . .
144(6) . . .
141(6) . . .
136(6) . . .
139(6) . . .
127(6) . . .
128(6) . . .
142(7) . . .
122(6) . . .
132(6) . . .
134(6) . . .
131(6) . . .
125(6) . . .
139(7) . . .
137(6) . . .
135(6) . . .
132(6) . . .
154(7) . . .
132(6) . . .
137(6) . . .
147(6) . . .
136(6) . . .
128(6) . . .
131(6) . . .
124(6) . . .
113(6) . . .
132(6) . . .
130(6) . . .
130(6) . . .
133(6) . . .
133(6) . . .
137(6) . . .
127(6) . . .
136(7) . . .
132(6) . . .
132(6) . . .
134(6) . . .
133(6) . . .
137(6) . . .
135(6) . . .
130(6) . . .
146(6) . . .
156(7) . . .
130(6) . . .
109(6) . . .
130(6) . . .
117(6) . . .
136(6) . . .
128(6) . . .
121(6) . . .
126(6) . . .
128(6) . . .
141(6) . . .
137(6) . . .
130(6) . . .
130(6) . . .
145(6) . . .
134(6) . . .
124(6) . . .
142(6) . . .
136(6) . . .
138(6) . . .
143(7) . . .
138(6) . . .
141(6) . . .
122(6) . . .
132(6) . . .
141(7) . . .
131(6) . . .
146(6) . . .
145(6) . . .
143(7) . . .
135(6) . . .
136(6) . . .
125(6) . . .
122(6) . . .
135(6) . . .
143(7) . . .
144(6) . . .
133(6) . . .
143(6) . . .
130(6) . . .
118(6) . . .
117(6) . . .
111(5) . . .
131(6) . . .
138(6) . . .
141(7) . . .
149(7) . . .
136(6) . . .
150(6) . . .
148(7) . . .
124(6) . . .
127(6) . . .
146(6) . . .
116(6) . . .
131(6) . . .
116(6) . . .
143(6) . . .
141(6) . . .
133(6) . . .
145(7) . . .
133(6) . . .
137(6) . . .
134(6) . . .
141(6) . . .
136(6) . . .
124(6) . . .
127(6) . . .
115(6) . . .
136(6) . . .
124(6) . . .
123(6) . . .
142(6) . . .
150(6) . . .
129(6) . . .
131(6) . . .
133(6) . . .
132(6) . . .
132(6) . . .
144(6) . . .
145(6) . . .
149(6) . . .
139(6) . . .
121(6) . . .
138(6) . . .
137(6) . . .
135(6) . . .
133(6) . . .
139(6) . . .
146(6) . . .
126(6) . . .
127(6) . . .
121(6) . . .
124(6) . . .
121(6) . . .
135(6) . . .
140(6) . . .
135(6) . . .
148(6) . . .
140(6) . . .
126(6) . . .
139(6) . . .
148(6) . . .
140(6) . . .
138(6) . . .
138(6) . . .
146(6) . . .
140(6) . . .
139(6) . . .
134(6) . . .
124(6) . . .
119(6) . . .
119(6) . . .
133(6) . . .
139(6) . . .
145(7) . . .
143(6) . . .
138(6) . . .
116(6) . . .
138(7) . . .
138(6) . . .
114(5) . . .
132(6) . . .
132(6) . . .
123(6) . . .
126(6) . . .
141(6) . . .
146(6) . . .
130(6) . . .
123(6) . . .
147(6) . . .
133(6) . . .
158(7) . . .
130(6) . . .
134(6) . . .
132(6) . . .
133(6) . . .
133(6) . . .
138(6) . . .
150(7) . . .
136(6) . . .
137(6) . . .
146(6) . . .
139(6) . . .
142(7) . . .
126(6) . . .
122(6) . . .
121(6) . . .
125(6) . . .
134(6) . . .
130(6) . . .
129(6) . . .
131(6) . . .
141(6) . . .
116(6) . . .
125(6) . . .
134(6) . . .
138(6) . . .
106(5) . . .
121(6) . . .
145(6) . . .
132(6) . . .
131(6) . . .
139(6) . . .
129(6) . . .
131(6) . . .
137(6) . . .
136(6) . . .
122(6) . . .
117(6) . . .
117(6) . . .
129(6) . . .
129(6) . . .
126(6) . . .
132(6) . . .
132(6) . . .
142(6) . . .
126(6) . . .
120(6) . . .
137(6) . . .
123(6) . . .
114(6) . . .
133(6) . . .
138(7) . . .
130(6) . . .
125(6) . . .
136(6) . . .
141(6) . . .
136(7) . . .
133(6) . . .
123(6) . . .
130(6) . . .
146(7) . . .
140(6) . . .
136(6) . . .
122(6) . . .
126(6) . . .
137(7) . . .
127(6) . . .
114(6) . . .
131(6) . . .
128(6) . . .
133(6) . . .
130(6) . . .
122(6) . . .
115(6) . . .
125(6) . . .
131(6) . . .
135(6) . . .
132(6) . . .
138(6) . . .
148(6) . . .
150(7) . . .
138(6) . . .
129(6) . . .
127(6) . . .
137(6) . . .
121(6) . . .
120(6) . . .
121(6) . . .
106(5) . . .
126(6) . . .
136(7) . . .
125(6) . . .
132(6) . . .
129(6) . . .
133(6) . . .
140(7) . . .
132(6) . . .
147(6) . . .
131(6) . . .
136(6) . . .
128(6) . . .
129(6) . . .
122(6) . . .
141(6) . . .
129(6) . . .
146(7) . . .
129(6) . . .
128(6) . . .
156(6) . . .
149(7) . . .
148(7) . . .
138(6) . . .
140(6) . . .
122(6) . . .
118(6) . . .
134(6) . . .
131(6) . . .
161(7) . . .
145(6) . . .
124(6) . . .
126(6) . . .
133(6) . . .
136(6) . . .
129(6) . . .
131(6) . . .
144(7) . . .
132(6) . . .
120(6) . . .
106(5) . . .
104(5) . . .
131(6) . . .
126(6) . . .
137(6) . . .
118(6) . . .
134(6) . . .
126(6) . . .
124(6) . . .
145(6) . . .
143(7) . . .
128(6) . . .
125(6) . . .
132(6) . . .
135(6) . . .
122(6) . . .
144(7) . . .
130(6) . . .
133(6) . . .
127(6) . . .
129(6) . . .
120(6) . . .
110(6) . . .
124(6) . . .
135(6) . . .
136(6) . . .
130(6) . . .
135(6) . . .
130(6) . . .
117(6) . . .
128(6) . . .
136(6) . . .
114(6) . . .
141(6) . . .
139(6) . . .
115(6) . . .
122(6) . . .
133(6) . . .
131(6) . . .
125(6) . . .
144(6) . . .
136(6) . . .
126(6) . . .
127(6) . . .
142(6) . . .
137(6) . . .
142(6) . . .
148(6) . . .
124(6) . . .
127(6) . . .
126(6) . . .
127(6) . . .
132(6) . . .
136(6) . . .
130(6) . . .
126(6) . . .
110(6) . . .
127(6) . . .
130(6) . . .
135(6) . . .
130(6) . . .
127(6) . . .
131(6) . . .
121(6) . . .
150(7) . . .
126(6) . . .
124(6) . . .
132(6) . . .
122(6) . . .
120(6) . . .
122(6) . . .
134(6) . . .
121(6) . . .
125(6) . . .
123(6) . . .
131(6) . . .
119(6) . . .
123(6) . . .
123(6) . . .
121(6) . . .
126(6) . . .
120(6) . . .
117(6) . . .
116(6) . . .
133(6) . . .
134(6) . . .
127(6) . . .
115(6) . . .
113(6) . . .
127(6) . . .
122(6) . . .
129(6) . . .
123(6) . . .
127(6) . . .
114(6) . . .
126(6) . . .
118(6) . . .
121(6) . . .
115(6) . . .
124(6) . . .
134(6) . . .
112(6) . . .
108(6) . . .
120(6) . . .
113(6) . . .
120(6) . . .
119(6) . . .
132(6) . . .
132(6) . . .
116(6) . . .
129(6) . . .
106(5) . . .
122(6) . . .
118(6) . . .
113(6) . . .
128(6) . . .
113(6) . . .
101(5) . . .
116(6) . . .
122(6) . . .
118(6) . . .
120(6) . . .
122(6) . . .
122(6) . . .
133(6) . . .
133(6) . . .
116(6) . . .
120(6) . . .
125(6) . . .
148(6) . . .
112(6) . . .
114(6) . . .
131(6) . . .
137(6) . . .
119(6) . . .
116(6) . . .
115(6) . . .
116(6) . . .
120(6) . . .
119(6) . . .
136(6) . . .
128(6) . . .
124(6) . . .
126(6) . . .
131(6) . . .
122(6) . . .
126(6) . . .
131(7) . . .
120(6) . . .
139(6) . . .
108(5) . . .
124(6) . . .
133(6) . . .
128(6) . . .
120(6) . . .
131(6) . . .
129(6) . . .
122(6) . . .
116(6) . . .
117(6) . . .
128(6) . . .
132(6) . . .
122(6) . . .
135(6) . . .
135(6) . . .
126(6) . . .
150(7) . . .
132(6) . . .
124(6) . . .
119(6) . . .
116(6) . . .
115(6) . . .
136(6) . . .
103(5) . . .
152(7) . . .
120(6) . . .
115(6) . . .
126(6) . . .
124(6) . . .
122(6) . . .
115(6) . . .
126(6) . . .
124(6) . . .
119(6) . . .
118(6) . . .
133(7) . . .
136(6) . . .
121(6) . . .
128(6) . . .
114(6) . . .
118(6) . . .
123(6) . . .
126(6) . . .
129(6) . . .
121(6) . . .
125(6) . . .
134(6) . . .
132(6) . . .
109(5) . . .
117(6) . . .
106(6) . . .
113(6) . . .
122(6) . . .
106(6) . . .
119(6) . . .
134(6) . . .
117(6) . . .
126(6) . . .
107(5) . . .
113(6) . . .
139(6) . . .
115(6) . . .
112(5) . . .
113(6) . . .
128(6) . . .
121(6) . . .
109(6) . . .
116(6) . . .
117(6) . . .
124(6) . . .
125(6) . . .
136(6) . . .
125(6) . . .
135(6) . . .
123(6) . . .
124(6) . . .
118(6) . . .
126(6) . . .
117(6) . . .
129(6) . . .
133(6) . . .
132(6) . . .
115(6) . . .
121(6) . . .
116(6) . . .
111(6) . . .
115(6) . . .
135(6) . . .
113(6) . . .
129(7) . . .
124(6) . . .
114(6) . . .
114(6) . . .
123(6) . . .
127(6) . . .
129(6) . . .
115(6) . . .
119(6) . . .
125(6) . . .
139(6) . . .
131(6) . . .
126(6) . . .
117(6) . . .
116(6) . . .
126(6) . . .
115(6) . . .
126(6) . . .
107(6) . . .
114(6) . . .
129(6) . . .
116(6) . . .
113(6) . . .
126(6) . . .
118(6) . . .
122(6) . . .
120(6) . . .
127(6) . . .
112(6) . . .
122(6) . . .
120(6) . . .
121(6) . . .
117(6) . . .
121(6) . . .
112(6) . . .
127(6) . . .
116(6) . . .
143(6) . . .
122(6) . . .
125(6) . . .
126(6) . . .
119(6) . . .
135(6) . . .
108(5) . . .
117(6) . . .
115(6) . . .
120(6) . . .
136(6) . . .
110(6) . . .
114(6) . . .
116(6) . . .
127(6) . . .
118(6) . . .
125(6) . . .
117(6) . . .
131(7) . . .
111(5) . . .
123(6) . . .
123(6) . . .
135(6) . . .
127(6) . . .
123(6) . . .
135(6) . . .
130(6) . . .
131(6) . . .
119(6) . . .
137(6) . . .
121(6) . . .
122(6) . . .
121(6) . . .
123(6) . . .
112(5) . . .
122(6) . . .
127(6) . . .
111(6) . . .
115(6) . . .
114(6) . . .
138(7) . . .
112(6) . . .
133(6) . . .
122(6) . . .
126(6) . . .
124(6) . . .
133(6) . . .
124(6) . . .
133(6) . . .
127(6) . . .
128(6) . . .
133(7) . . .
123(6) . . .
128(6) . . .
108(5) . . .
136(6) . . .
113(6) . . .
114(6) . . .
129(6) . . .
126(6) . . .
124(6) . . .
144(7) . . .
111(6) . . .
114(6) . . .
115(6) . . .
112(6) . . .
120(6) . . .
122(6) . . .
128(6) . . .
131(6) . . .
128(6) . . .
136(6) . . .
126(6) . . .
125(6) . . .
117(6) . . .
114(6) . . .
122(6) . . .
120(6) . . .
129(6) . . .
136(6) . . .
128(6) . . .
119(6) . . .
122(6) . . .
131(6) . . .
119(6) . . .
135(6) . . .
130(6) . . .
130(6) . . .
114(6) . . .
134(6) . . .
132(6) . . .
122(6) . . .
145(6) . . .
125(6) . . .
129(6) . . .
134(6) . . .
132(6) . . .
130(6) . . .
137(6) . . .
125(6) . . .
118(6) . . .
135(6) . . .
111(5) . . .
121(6) . . .
110(6) . . .
123(6) . . .
111(5) . . .
126(6) . . .
117(6) . . .
136(6) . . .
119(6) . . .
118(6) . . .
117(6) . . .
119(6) . . .
142(6) . . .
131(6) . . .
125(6) . . .
124(6) . . .
125(6) . . .
123(6) . . .
134(6) . . .
126(6) . . .
114(6) . . .
127(6) . . .
126(6) . . .
128(6) . . .
117(6) . . .
130(6) . . .
140(6) . . .
122(6) . . .
127(6) . . .
113(6) . . .
132(6) . . .
125(6) . . .
139(7) . . .
123(6) . . .
119(6) . . .
128(6) . . .
128(6) . . .
126(6) . . .
129(6) . . .
125(6) . . .
127(6) . . .
104(5) . . .
115(6) . . .
125(6) . . .
142(6) . . .
128(6) . . .
137(6) . . .
126(6) . . .
127(6) . . .
127(6) . . .
136(6) . . .
131(6) . . .
118(6) . . .
113(6) . . .
118(6) . . .
114(6) . . .
122(6) . . .
124(6) . . .
129(6) . . .
138(6) . . .
124(6) . . .
113(6) . . .
130(7) . . .
122(6) . . .
120(6) . . .
125(6) . . .
118(6) . . .
135(6) . . .
125(6) . . .
133(6) . . .
120(6) . . .
123(6) . . .
114(6) . . .
127(6) . . .
128(6) . . .
108(5) . . .
118(6) . . .
126(6) . . .
121(6) . . .
124(6) . . .
140(6) . . .
113(6) . . .
115(6) . . .
115(6) . . .
128(6) . . .
130(6) . . .
133(6) . . .
129(6) . . .
139(6) . . .
118(6) . . .
127(6) . . .
121(6) . . .
139(7) . . .
133(6) . . .
111(6) . . .
124(6) . . .
130(6) . . .
117(6) . . .
119(6) . . .
126(6) . . .
113(6) . . .
125(6) . . .
126(6) . . .
114(6) . . .
124(6) . . .
101(5) . . .
120(6) . . .
117(6) . . .
123(6) . . .
126(6) . . .
103(5) . . .
125(6) . . .
120(6) . . .
126(6) . . .
124(6) . . .
122(6) . . .
142(7) . . .
120(6) . . .
122(6) . . .
135(6) . . .
118(6) . . .
111(6) . . .
123(6) . . .
117(6) . . .
132(6) . . .
121(6) . . .
107(6) . . .
126(6) . . .
139(6) . . .
114(6) . . .
133(6) . . .
131(6) . . .
121(6) . . .
122(6) . . .
139(6) . . .
132(6) . . .
107(5) . . .
120(6) . . .
123(6) . . .
97(5) . . .
126(6) . . .
130(6) . . .
115(6) . . .
114(6) . . .
135(6) . . .
126(6) . . .
143(6) . . .
129(6) . . .
131(6) . . .
138(6) . . .
125(6) . . .
129(6) . . .
128(6) . . .
134(6) . . .
122(6) . . .
116(6) . . .
124(6) . . .
127(6) . . .
128(6) . . .
139(6) . . .
129(6) . . .
129(6) . . .
114(6) . . .
136(6) . . .
130(6) . . .
140(6) . . .
129(6) . . .
113(5) . . .
112(6) . . .
110(6) . . .
134(6) . . .
139(6) . . .
124(6) . . .
120(6) . . .
125(6) . . .
122(6) . . .
124(6) . . .
132(6) . . .
137(6) . . .
122(6) . . .
111(6) . . .
141(6) . . .
112(6) . . .
123(6) . . .
120(6) . . .
132(6) . . .
138(6) . . .
122(6) . . .
114(6) . . .
130(6) . . .
106(5) . . .
122(6) . . .
114(6) . . .
116(6) . . .
120(6) . . .
114(6) . . .
121(6) . . .
135(6) . . .
116(6) . . .
113(6) . . .
126(6) . . .
132(6) . . .
117(6) . . .
122(6) . . .
119(6) . . .
119(6) . . .
123(6) . . .
138(6) . . .
118(6) . . .
131(6) . . .
119(6) . . .
141(6) . . .
125(6) . . .
122(6) . . .
115(6) . . .
120(6) . . .
115(6) . . .
121(6) . . .
135(6) . . .
108(5) . . .
131(6) . . .
114(6) . . .
119(6) . . .
117(6) . . .
123(6) . . .
125(6) . . .
123(6) . . .
141(6) . . .
124(6) . . .
141(6) . . .
147(6) . . .
116(6) . . .
126(6) . . .
120(6) . . .
130(6) . . .
125(6) . . .
113(5) . . .
121(6) . . .
117(6) . . .
129(6) . . .
138(6) . . .
131(6) . . .
118(6) . . .
120(6) . . .
110(6) . . .
116(6) . . .
138(6) . . .
130(6) . . .
117(6) . . .
123(6) . . .
124(6) . . .
124(6) . . .
126(6) . . .
115(6) . . .
127(6) . . .
128(6) . . .
107(5) . . .
114(6) . . .
136(6) . . .
136(6) . . .
118(6) . . .
114(6) . . .
118(6) . . .
131(6) . . .
134(6) . . .
119(6) . . .
117(6) . . .
112(6) . . .
122(6) . . .
136(6) . . .
126(6) . . .
115(6) . . .
120(6) . . .
125(6) . . .
139(6) . . .
126(6) . . .
134(6) . . .
118(6) . . .
130(6) . . .
123(6) . . .
129(6) . . .
125(6) . . .
131(6) . . .
122(6) . . .
120(6) . . .
133(6) . . .
123(6) . . .
139(7) . . .
120(6) . . .
125(6) . . .
121(6) . . .
116(6) . . .
119(6) . . .
120(6) . . .
126(6) . . .
124(6) . . .
112(6) . . .
104(5) . . .
126(6) . . .
120(6) . . .
129(6) . . .
136(6) . . .
121(6) . . .
108(6) . . .
123(6) . . .
115(6) . . .
128(6) . . .
130(6) . . .
117(6) . . .
110(5) . . .
125(6) . . .
118(6) . . .
145(7) . . .
115(6) . . .
121(6) . . .
110(6) . . .
127(6) . . .
132(6) . . .
134(6) . . .
123(6) . . .
121(6) . . .
106(5) . . .
129(6) . . .
113(6) . . .
125(6) . . .
128(6) . . .
121(6) . . .
125(6) . . .
130(6) . . .
116(6) . . .
131(6) . . .
114(6) . . .
120(6) . . .
130(6) . . .
119(6) . . .
122(6) . . .
117(6) . . .
115(6) . . .
114(6) . . .
126(6) . . .
117(6) . . .
124(6) . . .
124(6) . . .
114(6) . . .
99(5) . . .
133(6) . . .
121(6) . . .
135(6) . . .
133(6) . . .
138(6) . . .
123(6) . . .
119(6) . . .
136(6) . . .
143(6) . . .
132(6) . . .
132(6) . . .
115(6) . . .
128(6) . . .
124(6) . . .
116(6) . . .
133(6) . . .
119(6) . . .
134(6) . . .
118(6) . . .
117(6) . . .
136(6) . . .
124(6) . . .
118(6) . . .
128(6) . . .
142(6) . . .
123(6) . . .
123(6) . . .
118(6) . . .
120(6) . . .
131(6) . . .
132(6) . . .
127(6) . . .
133(6) . . .
127(6) . . .
123(6) . . .
122(6) . . .
116(6) . . .
133(6) . . .
139(6) . . .
126(6) . . .
140(6) . . .
128(6) . . .
122(6) . . .
130(6) . . .
135(7) . . .
127(6) . . .
130(6) . . .
126(6) . . .
127(6) . . .
111(6) . . .
108(6) . . .
133(6) . . .
129(6) . . .
131(6) . . .
138(6) . . .
130(6) . . .
127(6) . . .
119(6) . . .
132(6) . . .
133(6) . . .
133(6) . . .
137(6) . . .
138(6) . . .
130(6) . . .
135(6) . . .
122(6) . . .
116(6) . . .
130(6) . . .
134(6) . . .
134(6) . . .
138(7) . . .
129(6) . . .
122(6) . . .
113(6) . . .
133(6) . . .
128(6) . . .
123(6) . . .
125(6) . . .
129(6) . . .
135(6) . . .
143(7) . . .
129(6) . . .
116(6) . . .
127(6) . . .
129(6) . . .
128(6) . . .
121(6) . . .
137(6) . . .
116(6) . . .
132(6) . . .
140(6) . . .
128(6) . . .
129(6) . . .
138(6) . . .
116(6) . . .
137(6) . . .
129(6) . . .
136(6) . . .
136(6) . . .
135(7) . . .
138(6) . . .
149(6) . . .
113(6) . . .
142(7) . . .
129(6) . . .
120(6) . . .
133(6) . . .
131(6) . . .
134(6) . . .
125(6) . . .
124(6) . . .
135(6) . . .
126(6) . . .
137(6) . . .
119(6) . . .
118(6) . . .
144(6) . . .
153(6) . . .
130(6) . . .
131(6) . . .
133(6) . . .
140(6) . . .
129(6) . . .
113(6) . . .
124(6) . . .
135(6) . . .
136(6) . . .
126(6) . . .
120(6) . . .
124(6) . . .
127(6) . . .
143(6) . . .
140(6) . . .
126(6) . . .
132(6) . . .
125(6) . . .
130(6) . . .
132(6) . . .
144(7) . . .
147(7) . . .
129(6) . . .
126(6) . . .
126(6) . . .
135(6) . . .
129(6) . . .
134(6) . . .
137(6) . . .
118(6) . . .
124(6) . . .
119(6) . . .
134(6) . . .
158(7) . . .
128(6) . . .
119(6) . . .
140(7) . . .
136(6) . . .
138(6) . . .
148(7) . . .
136(6) . . .
141(6) . . .
123(6) . . .
147(6) . . .
126(6) . . .
133(6) . . .
146(6) . . .
139(6) . . .
136(6) . . .
135(6) . . .
138(7) . . .
144(6) . . .
131(6) . . .
138(6) . . .
125(6) . . .
131(6) . . .
130(6) . . .
120(6) . . .
125(6) . . .
138(7) . . .
136(6) . . .
153(7) . . .
121(6) . . .
146(6) . . .
136(6) . . .
130(6) . . .
146(6) . . .
128(6) . . .
128(6) . . .
124(6) . . .
132(6) . . .
126(6) . . .
136(6) . . .
119(6) . . .
123(6) . . .
119(6) . . .
123(6) . . .
153(6) . . .
144(6) . . .
133(6) . . .
125(6) . . .
125(6) . . .
138(6) . . .
138(6) . . .
122(6) . . .
125(6) . . .
136(6) . . .
134(6) . . .
152(7) . . .
126(6) . . .
144(7) . . .
137(6) . . .
126(6) . . .
128(6) . . .
132(7) . . .
126(6) . . .
121(6) . . .
128(6) . . .
131(6) . . .
121(6) . . .
124(6) . . .
135(6) . . .
119(6) . . .
130(6) . . .
130(6) . . .
142(6) . . .
125(6) . . .
137(6) . . .
142(6) . . .
132(6) . . .
126(6) . . .
117(6) . . .
130(6) . . .
137(6) . . .
128(6) . . .
109(5) . . .
140(6) . . .
132(6) . . .
132(6) . . .
110(6) . . .
119(6) . . .
130(6) . . .
141(6) . . .
124(6) . . .
120(6) . . .
141(6) . . .
129(6) . . .
139(6) . . .
131(6) . . .
121(6) . . .
120(6) . . .
129(6) . . .
114(6) . . .
128(6) . . .
119(6) . . .
138(6) . . .
144(6) . . .
137(6) . . .
142(7) . . .
131(6) . . .
133(6) . . .
129(6) . . .
128(6) . . .
128(6) . . .
114(6) . . .
118(6) . . .
119(6) . . .
119(6) . . .
129(6) . . .
135(6) . . .
140(6) . . .
130(6) . . .
135(6) . . .
123(6) . . .
125(6) . . .
123(6) . . .
136(6) . . .
124(6) . . .
138(7) . . .
133(6) . . .
130(6) . . .
131(6) . . .
114(6) . . .
120(6) . . .
114(6) . . .
128(6) . . .
135(6) . . .
125(6) . . .
149(7) . . .
136(6) . . .
137(6) . . .
119(6) . . .
116(6) . . .
134(6) . . .
128(6) . . .
131(6) . . .
121(6) . . .
117(6) . . .
123(6) . . .
122(6) . . .
133(6) . . .
124(6) . . .
119(6) . . .
131(6) . . .
145(6) . . .
140(6) . . .
132(6) . . .
127(6) . . .
118(6) . . .
111(5) . . .
127(6) . . .
131(6) . . .
139(7) . . .
118(6) . . .
129(6) . . .
122(6) . . .
126(6) . . .
142(7) . . .
143(7) . . .
130(6) . . .
120(6) . . .
133(6) . . .
132(6) . . .
131(6) . . .
124(6) . . .
134(6) . . .
127(6) . . .
137(7) . . .
128(6) . . .
138(6) . . .
128(6) . . .
107(5) . . .
127(6) . . .
128(6) . . .
129(6) . . .
143(6) . . .
114(6) . . .
123(6) . . .
133(6) . . .
114(6) . . .
129(6) . . .
125(6) . . .
129(6) . . .
118(6) . . .
130(6) . . .
129(6) . . .
130(6) . . .
123(6) . . .
120(6) . . .
134(6) . . .
123(6) . . .
123(6) . . .
130(6) . . .
118(6) . . .
133(6) . . .
133(6) . . .
131(6) . . .
115(6) . . .
139(6) . . .
137(6) . . .
129(6) . . .
129(6) . . .
128(6) . . .
124(6) . . .
138(6) . . .
120(6) . . .
112(6) . . .
126(6) . . .
121(6) . . .
126(6) . . .
112(6) . . .
109(6) . . .
138(6) . . .
126(6) . . .
121(6) . . .
126(6) . . .
130(6) . . .
124(6) . . .
131(6) . . .
128(6) . . .
109(6) . . .
117(6) . . .
114(6) . . .
114(6) . . .
117(6) . . .
117(6) . . .
128(6) . . .
112(6) . . .
118(6) . . .
124(6) . . .
123(6) . . .
106(5) . . .
125(6) . . .
113(5) . . .
126(6) . . .
117(6) . . .
131(6) . . .
117(6) . . .
126(6) . . .
120(6) . . .
120(6) . . .
118(6) . . .
114(6) . . .
134(6) . . .
124(6) . . .
127(6) . . .
111(5) . . .
124(6) . . .
122(6) . . .
137(6) . . .
132(6) . . .
118(6) . . .
125(6) . . .
135(6) . . .
134(6) . . .
115(6) . . .
117(6) . . .
113(5) . . .
123(6) . . .
125(6) . . .
119(6) . . .
126(6) . . .
116(6) . . .
113(6) . . .
117(6) . . .
124(6) . . .
115(6) . . .
122(6) . . .
120(6) . . .
122(6) . . .
122(6) . . .
123(6) . . .
126(6) . . .
130(6) . . .
126(6) . . .
131(6) . . .
128(6) . . .
124(6) . . .
119(6) . . .
119(6) . . .
136(6) . . .
133(6) . . .
115(6) . . .
123(6) . . .
128(6) . . .
119(6) . . .
126(6) . . .
123(6) . . .
126(6) . . .
142(7) . . .
139(6) . . .
128(6) . . .
132(6) . . .
129(6) . . .
128(6) . . .
128(6) . . .
122(6) . . .
119(6) . . .
120(6) . . .
120(6) . . .
118(6) . . .
133(6) . . .
123(6) . . .
138(6) . . .
132(6) . . .
128(6) . . .
120(6) . . .
127(6) . . .
131(6) . . .
123(6) . . .
127(6) . . .
133(6) . . .
114(5) . . .
127(6) . . .
121(6) . . .
118(6) . . .
115(6) . . .
135(6) . . .
113(6) . . .
118(6) . . .
121(6) . . .
131(6) . . .
129(6) . . .
127(6) . . .
120(6) . . .
123(6) . . .
128(6) . . .
120(6) . . .
138(6) . . .
119(6) . . .
109(6) . . .
117(6) . . .
124(6) . . .
129(6) . . .
135(6) . . .
133(6) . . .
121(6) . . .
125(6) . . .
115(6) . . .
122(6) . . .
131(6) . . .
118(6) . . .
119(6) . . .
130(6) . . .
124(6) . . .
119(6) . . .
137(6) . . .
123(6) . . .
132(7) . . .
115(6) . . .
117(6) . . .
114(6) . . .
138(6) . . .
143(7) . . .
125(6) . . .
125(6) . . .
121(6) . . .
131(6) . . .
128(6) . . .
127(6) . . .
136(6) . . .
131(6) . . .
142(7) . . .
133(6) . . .
128(6) . . .
122(6) . . .
126(6) . . .
134(6) . . .
140(6) . . .
134(6) . . .
112(6) . . .
137(6) . . .
142(6) . . .
136(6) . . .
116(6) . . .
130(6) . . .
126(6) . . .
128(6) . . .
123(6) . . .
127(6) . . .
122(6) . . .
128(6) . . .
137(6) . . .
119(6) . . .
121(6) . . .
135(6) . . .
137(6) . . .
134(6) . . .
124(6) . . .
127(6) . . .
117(6) . . .
132(6) . . .
129(6) . . .
133(6) . . .
119(6) . . .
121(6) . . .
126(6) . . .
131(7) . . .
124(6) . . .
127(6) . . .
119(6) . . .
119(6) . . .
128(6) . . .
128(6) . . .
135(6) . . .
125(6) . . .
126(6) . . .
124(6) . . .
117(6) . . .
133(6) . . .
129(6) . . .
123(6) . . .
126(6) . . .
134(6) . . .
143(6) . . .
120(6) . . .
131(6) . . .
140(7) . . .
122(6) . . .
117(6) . . .
122(6) . . .
147(7) . . .
130(6) . . .
132(6) . . .
128(6) . . .
120(6) . . .
129(6) . . .
136(6) . . .
142(6) . . .
147(6) . . .
133(6) . . .
117(6) . . .
120(6) . . .
119(6) . . .
121(6) . . .
126(6) . . .
115(6) . . .
128(6) . . .
122(6) . . .
125(6) . . .
128(6) . . .
110(5) . . .
122(6) . . .
128(6) . . .
123(6) . . .
130(6) . . .
132(6) . . .
113(6) . . .
138(6) . . .
136(6) . . .
125(6) . . .
111(6) . . .
143(7) . . .
137(6) . . .
130(6) . . .
150(7) . . .
137(7) . . .
116(6) . . .
115(6) . . .
121(6) . . .
137(6) . . .
115(6) . . .
130(6) . . .
134(6) . . .
120(6) . . .
98(5) . . .
110(6) . . .
110(6) . . .
125(6) . . .
115(6) . . .
130(6) . . .
134(6) . . .
137(6) . . .
125(6) . . .
134(6) . . .
127(6) . . .
117(6) . . .
142(7) . . .
119(6) . . .
120(6) . . .
128(6) . . .
118(6) . . .
140(6) . . .
125(6) . . .
136(6) . . .
116(6) . . .
125(6) . . .
123(6) . . .
119(6) . . .
110(6) . . .
117(6) . . .
122(6) . . .
104(5) . . .
133(6) . . .
130(6) . . .
120(6) . . .
128(6) . . .
131(6) . . .
135(6) . . .
133(6) . . .
113(6) . . .
124(6) . . .
128(6) . . .
127(6) . . .
130(6) . . .
114(6) . . .
113(6) . . .
134(6) . . .
122(6) . . .
116(6) . . .
120(6) . . .
111(6) . . .
126(6) . . .
111(5) . . .
126(6) . . .
127(6) . . .
134(6) . . .
123(6) . . .
125(6) . . .
115(6) . . .
121(6) . . .
122(6) . . .
126(6) . . .
134(6) . . .
121(6) . . .
128(6) . . .
117(6) . . .
108(5) . . .
144(6) . . .
132(6) . . .
120(6) . . .
120(6) . . .
134(6) . . .
125(6) . . .
116(6) . . .
136(6) . . .
122(6) . . .
128(6) . . .
117(6) . . .
120(6) . . .
133(6) . . .
126(6) . . .
135(6) . . .
121(6) . . .
112(6) . . .
108(5) . . .
124(6) . . .
113(6) . . .
121(6) . . .
119(6) . . .
115(6) . . .
120(6) . . .
125(6) . . .
121(6) . . .
121(6) . . .
129(6) . . .
127(6) . . .
130(6) . . .
123(6) . . .
147(7) . . .
127(6) . . .
127(6) . . .
109(5) . . .
121(6) . . .
110(6) . . .
133(6) . . .
135(6) . . .
117(6) . . .
119(6) . . .
125(6) . . .
122(6) . . .
140(6) . . .
132(6) . . .
121(6) . . .
118(6) . . .
128(6) . . .
135(6) . . .
107(5) . . .
125(6) . . .
127(6) . . .
125(6) . . .
127(6) . . .
140(6) . . .
129(6) . . .
140(6) . . .
113(6) . . .
115(6) . . .
129(6) . . .
136(6) . . .
122(6) . . .
119(6) . . .
129(6) . . .
125(6) . . .
121(6) . . .
119(6) . . .
129(6) . . .
133(6) . . .
123(6) . . .
117(6) . . .
122(6) . . .
114(6) . . .
126(6) . . .
129(6) . . .
123(6) . . .
136(6) . . .
119(6) . . .
138(6) . . .
118(6) . . .
117(6) . . .
131(6) . . .
122(6) . . .
127(6) . . .
130(6) . . .
132(6) . . .
112(6) . . .
134(6) . . .
124(6) . . .
110(6) . . .
125(6) . . .
114(6) . . .
114(6) . . .
128(6) . . .
126(6) . . .
114(6) . . .
134(6) . . .
131(6) . . .
121(6) . . .
126(6) . . .
118(6) . . .
131(6) . . .
137(6) . . .
123(6) . . .
145(6) . . .
123(6) . . .
127(6) . . .
139(6) . . .
113(6) . . .
122(6) . . .
133(6) . . .
128(6) . . .
101(5) . . .
134(6) . . .
135(6) . . .
119(6) . . .
119(6) . . .
131(6) . . .
129(6) . . .
136(6) . . .
149(7) . . .
127(6) . . .
119(6) . . .
125(6) . . .
121(6) . . .
123(6) . . .
118(6) . . .
116(6) . . .
105(5) . . .
137(7) . . .
121(6) . . .
119(6) . . .
128(6) . . .
142(6) . . .
131(6) . . .
118(6) . . .
132(6) . . .
127(6) . . .
134(6) . . .
122(6) . . .
139(6) . . .
130(6) . . .
129(6) . . .
119(6) . . .
127(6) . . .
123(6) . . .
132(6) . . .
129(6) . . .
133(6) . . .
134(6) . . .
141(6) . . .
129(6) . . .
113(6) . . .
125(6) . . .
124(6) . . .
122(6) . . .
131(6) . . .
130(6) . . .
138(6) . . .
128(6) . . .
115(6) . . .
110(5) . . .
121(6) . . .
136(6) . . .
122(6) . . .
117(6) . . .
138(6) . . .
115(6) . . .
125(6) . . .
126(6) . . .
119(6) . . .
123(6) . . .
102(5) . . .
128(7) . . .
127(6) . . .
132(6) . . .
128(6) . . .
117(6) . . .
120(6) . . .
125(6) . . .
117(6) . . .
125(6) . . .
120(6) . . .
118(6) . . .
122(6) . . .
131(6) . . .
118(6) . . .
129(6) . . .
116(6) . . .
114(6) . . .
114(6) . . .
115(6) . . .
112(6) . . .
127(6) . . .
128(6) . . .
132(6) . . .
128(6) . . .
110(6) . . .
123(6) . . .
122(6) . . .
124(6) . . .
124(6) . . .
117(6) . . .
111(6) . . .
118(6) . . .
125(6) . . .
135(6) . . .
125(6) . . .
121(6) . . .
122(6) . . .
113(6) . . .
131(6) . . .
125(6) . . .
128(6) . . .
130(6) . . .
133(6) . . .
136(6) . . .
124(6) . . .
98(5) . . .
124(6) . . .
133(6) . . .
132(6) . . .
121(6) . . .
121(6) . . .
137(6) . . .
118(6) . . .
110(6) . . .
116(6) . . .
123(6) . . .
129(6) . . .
120(6) . . .
119(6) . . .
111(6) . . .
118(6) . . .
128(6) . . .
116(6) . . .
115(6) . . .
130(6) . . .
119(6) . . .
107(5) . . .
125(6) . . .
111(6) . . .
115(6) . . .
125(6) . . .
123(6) . . .
132(6) . . .
123(6) . . .
118(6) . . .
128(6) . . .
134(6) . . .
118(6) . . .
116(6) . . .
124(6) . . .
115(6) . . .
123(6) . . .
121(6) . . .
126(6) . . .
126(6) . . .
123(6) . . .
122(6) . . .
120(6) . . .
111(6) . . .
126(6) . . .
119(6) . . .
137(6) . . .
143(6) . . .
136(6) . . .
135(6) . . .
132(6) . . .
123(6) . . .
119(6) . . .
135(7) . . .
123(6) . . .
108(6) . . .
124(6) . . .
113(6) . . .
111(6) . . .
119(6) . . .
128(6) . . .
116(6) . . .
136(6) . . .
125(6) . . .
131(6) . . .
124(6) . . .
153(7) . . .
119(6) . . .
139(7) . . .
118(6) . . .
121(6) . . .
118(6) . . .
128(6) . . .
124(6) . . .
135(6) . . .
126(6) . . .
122(6) . . .
111(6) . . .
122(6) . . .
117(6) . . .
117(6) . . .
106(5) . . .
120(6) . . .
115(6) . . .
139(6) . . .
124(6) . . .
125(6) . . .
130(6) . . .
133(6) . . .
133(6) . . .
110(5) . . .
120(6) . . .
122(6) . . .
115(6) . . .
120(6) . . .
123(6) . . .
113(6) . . .
130(6) . . .
133(6) . . .
127(6) . . .
125(6) . . .
124(6) . . .
120(6) . . .
131(6) . . .
130(6) . . .
118(6) . . .
135(6) . . .
128(6) . . .
119(6) . . .
125(6) . . .
136(6) . . .
136(6) . . .
125(6) . . .
118(6) . . .
121(6) . . .
134(6) . . .
142(7) . . .
132(6) . . .
131(6) . . .
135(6) . . .
134(6) . . .
114(6) . . .
123(6) . . .
120(6) . . .
113(6) . . .
129(6) . . .
121(6) . . .
125(6) . . .
112(6) . . .
113(6) . . .
144(6) . . .
128(6) . . .
125(6) . . .
116(6) . . .
126(6) . . .
127(6) . . .
120(6) . . .
128(6) . . .
118(6) . . .
132(6) . . .
124(6) . . .
123(6) . . .
122(6) . . .
129(6) . . .
118(6) . . .
129(6) . . .
111(6) . . .
127(6) . . .
117(6) . . .
107(5) . . .
114(6) . . .
113(6) . . .
121(6) . . .
112(6) . . .
124(6) . . .
116(6) . . .
124(6) . . .
130(6) . . .
113(6) . . .
110(5) . . .
117(6) . . .
111(6) . . .
115(6) . . .
130(6) . . .
113(6) . . .
129(6) . . .
149(7) . . .
121(6) . . .
118(6) . . .
130(6) . . .
127(6) . . .
109(6) . . .
109(6) . . .
117(6) . . .
111(5) . . .
118(6) . . .
121(6) . . .
123(6) . . .
125(6) . . .
117(6) . . .
128(6) . . .
124(6) . . .
119(6) . . .
112(6) . . .
125(6) . . .
129(6) . . .
134(6) . . .
121(6) . . .
123(6) . . .
134(6) . . .
124(6) . . .
123(6) . . .
118(6) . . .
132(6) . . .
123(6) . . .
123(6) . . .
114(6) . . .
119(6) . . .
125(6) . . .
121(6) . . .
124(6) . . .
121(6) . . .
118(6) . . .
104(5) . . .
121(6) . . .
108(6) . . .
112(6) . . .
107(5) . . .
131(6) . . .
132(6) . . .
124(6) . . .
112(6) . . .
123(6) . . .
115(6) . . .
114(6) . . .
125(6) . . .
138(6) . . .
106(5) . . .
107(5) . . .
114(6) . . .
119(6) . . .
106(6) . . .
104(5) . . .
103(5) . . .
122(6) . . .
108(6) . . .
112(6) . . .
129(6) . . .
131(6) . . .
120(6) . . .
118(6) . . .
108(6) . . .
127(6) . . .
126(6) . . .
119(6) . . .
133(7) . . .
117(6) . . .
120(6) . . .
123(6) . . .
114(6) . . .
120(6) . . .
128(6) . . .
119(6) . . .
121(6) . . .
119(6) . . .
126(6) . . .
120(6) . . .
126(6) . . .
128(6) . . .
125(6) . . .
125(6) . . .
119(6) . . .
123(6) . . .
132(6) . . .
132(6) . . .
120(6) . . .
125(6) . . .
133(6) . . .
135(6) . . .
132(6) . . .
127(6) . . .
119(6) . . .
117(6) . . .
145(6) . . .
119(6) . . .
121(6) . . .
125(6) . . .
123(6) . . .
136(6) . . .
102(5) . . .
120(6) . . .
114(6) . . .
123(6) . . .
128(6) . . .
128(6) . . .
139(6) . . .
126(6) . . .
129(6) . . .
125(6) . . .
104(6) . . .
124(6) . . .
122(6) . . .
113(6) . . .
120(6) . . .
124(6) . . .
115(6) . . .
116(6) . . .
136(6) . . .
114(6) . . .
109(6) . . .
131(6) . . .
131(6) . . .
116(6) . . .
129(6) . . .
123(6) . . .
126(6) . . .
128(6) . . .
106(5) . . .
131(6) . . .
127(6) . . .
118(6) . . .
118(6) . . .
124(6) . . .
117(6) . . .
110(5) . . .
118(6) . . .
128(6) . . .
124(6) . . .
119(6) . . .
124(6) . . .
122(6) . . .
127(6) . . .
126(6) . . .
117(6) . . .
124(6) . . .
109(5) . . .
127(6) . . .
127(6) . . .
136(7) . . .
119(6) . . .
113(6) . . .
118(6) . . .
130(6) . . .
108(6) . . .
121(6) . . .
138(6) . . .
119(6) . . .
121(6) . . .
110(6) . . .
116(6) . . .
114(6) . . .
117(6) . . .
124(6) . . .
134(6) . . .
132(6) . . .
138(6) . . .
110(5) . . .
121(6) . . .
122(6) . . .
112(6) . . .
112(5) . . .
124(6) . . .
135(6) . . .
127(6) . . .
132(6) . . .
123(6) . . .
133(6) . . .
139(7) . . .
129(6) . . .
133(6) . . .
121(6) . . .
117(6) . . .
118(6) . . .
123(6) . . .
133(6) . . .
122(6) . . .
136(6) . . .
127(6) . . .
113(6) . . .
118(6) . . .
121(6) . . .
111(6) . . .
126(6) . . .
126(6) . . .
108(5) . . .
118(6) . . .
115(6) . . .
108(6) . . .
105(5) . . .
121(6) . . .
132(6) . . .
119(6) . . .
129(6) . . .
122(6) . . .
115(6) . . .
115(6) . . .
122(6) . . .
115(6) . . .
130(6) . . .
133(6) . . .
124(6) . . .
110(6) . . .
128(6) . . .
111(6) . . .
118(6) . . .
118(6) . . .
102(5) . . .
113(6) . . .
111(6) . . .
127(6) . . .
130(6) . . .
126(6) . . .
122(6) . . .
118(6) . . .
135(6) . . .
123(6) . . .
128(6) . . .
125(6) . . .
122(6) . . .
130(6) . . .
117(6) . . .
113(6) . . .
116(6) . . .
108(5) . . .
112(6) . . .
120(6) . . .
119(6) . . .
122(6) . . .
116(6) . . .
128(6) . . .
111(6) . . .
123(6) . . .
122(6) . . .
113(6) . . .
112(6) . . .
119(6) . . .
125(6) . . .
115(6) . . .
133(6) . . .
109(5) . . .
113(6) . . .
130(6) . . .
136(6) . . .
119(6) . . .
110(5) . . .
116(6) . . .
108(6) . . .
100(5) . . .
131(6) . . .
114(6) . . .
127(6) . . .
128(6) . . .
112(6) . . .
134(6) . . .
116(6) . . .
138(6) . . .
110(6) . . .
116(6) . . .
119(6) . . .
128(6) . . .
125(6) . . .
113(6) . . .
123(6) . . .
121(6) . . .
124(6) . . .
126(6) . . .
119(6) . . .
132(6) . . .
119(6) . . .
111(6) . . .
133(6) . . .
123(6) . . .
108(6) . . .
116(6) . . .
100(5) . . .
122(6) . . .
120(6) . . .
131(6) . . .
126(6) . . .
121(6) . . .
116(6) . . .
132(6) . . .
118(6) . . .
137(6) . . .
122(6) . . .
109(6) . . .
112(6) . . .
130(6) . . .
131(6) . . .
119(6) . . .
120(6) . . .
127(6) . . .
135(6) . . .
133(6) . . .
125(6) . . .
111(6) . . .
132(6) . . .
131(6) . . .
140(6) . . .
126(6) . . .
123(6) . . .
128(6) . . .
126(6) . . .
107(5) . . .
110(6) . . .
110(6) . . .
125(6) . . .
116(6) . . .
120(6) . . .
126(6) . . .
127(6) . . .
119(6) . . .
134(6) . . .
127(6) . . .
118(6) . . .
117(6) . . .
112(6) . . .
117(6) . . .
123(6) . . .
133(6) . . .
138(6) . . .
105(5) . . .
107(5) . . .
119(6) . . .
132(6) . . .
128(6) . . .
123(6) . . .
121(6) . . .
118(6) . . .
127(7) . . .
110(6) . . .
125(6) . . .
131(6) . . .
111(6) . . .
114(6) . . .
124(6) . . .
114(6) . . .
115(6) . . .
125(6) . . .
128(6) . . .
113(6) . . .
126(6) . . .
122(6) . . .
127(6) . . .
107(5) . . .
118(6) . . .
126(6) . . .
127(6) . . .
131(6) . . .
114(6) . . .
124(6) . . .
123(6) . . .
113(6) . . .
120(6) . . .
118(6) . . .
116(6) . . .
110(5) . . .
117(6) . . .
117(6) . . .
121(6) . . .
126(6) . . .
139(6) . . .
122(6) . . .
122(6) . . .
127(6) . . .
137(6) . . .
121(6) . . .
120(6) . . .
118(6) . . .
116(6) . . .
115(6) . . .
129(6) . . .
119(6) . . .
120(6) . . .
118(6) . . .
113(6) . . .
125(6) . . .
109(6) . . .
114(6) . . .
131(6) . . .
127(6) . . .
126(6) . . .
109(5) . . .
106(6) . . .
125(6) . . .
127(6) . . .
126(6) . . .
117(6) . . .
121(6) . . .
101(5) . . .
121(6) . . .
122(6) . . .
131(6) . . .
131(6) . . .
112(6) . . .
107(5) . . .
122(6) . . .
134(6) . . .
132(6) . . .
135(6) . . .
124(6) . . .
117(6) . . .
111(6) . . .
119(6) . . .
111(6) . . .
107(5) . . .
114(6) . . .
113(6) . . .
134(6) . . .
111(6) . . .
113(6) . . .
113(6) . . .
130(6) . . .
122(6) . . .
121(6) . . .
133(6) . . .
129(6) . . .
119(6) . . .
114(6) . . .
102(5) . . .
96(5) . . .
116(6) . . .
129(6) . . .
106(5) . . .
110(6) . . .
118(6) . . .
123(6) . . .
123(6) . . .
114(6) . . .
111(5) . . .
112(6) . . .
131(6) . . .
121(6) . . .
113(6) . . .
140(6) . . .
122(6) . . .
117(6) . . .
113(6) . . .
127(6) . . .
130(6) . . .
123(6) . . .
107(5) . . .
118(6) . . .
119(6) . . .
104(5) . . .
118(6) . . .
115(6) . . .
106(6) . . .
121(6) . . .
129(6) . . .
110(5) . . .
127(6) . . .
101(6) . . .
115(6) . . .
119(6) . . .
117(6) . . .
114(6) . . .
111(6) . . .
105(5) . . .
120(6) . . .
112(6) . . .
105(6) . . .
112(6) . . .
110(6) . . .
125(6) . . .
125(6) . . .
110(6) . . .
110(6) . . .
120(6) . . .
115(6) . . .
115(6) . . .
119(6) . . .
123(6) . . .
121(6) . . .
118(6) . . .
116(6) . . .
117(6) . . .
119(6) . . .
133(6) . . .
116(6) . . .
98(5) . . .
129(6) . . .
124(6) . . .
118(6) . . .
124(6) . . .
125(6) . . .
109(6) . . .
118(6) . . .
105(5) . . .
111(6) . . .
122(6) . . .
123(6) . . .
115(6) . . .
101(5) . . .
105(5) . . .
108(6) . . .
116(6) . . .
108(6) . . .
116(6) . . .
125(6) . . .
130(6) . . .
130(6) . . .
118(6) . . .
130(6) . . .
117(6) . . .
106(5) . . .
111(6) . . .
125(6) . . .
116(6) . . .
114(6) . . .
124(6) . . .
121(6) . . .
114(6) . . .
121(6) . . .
117(6) . . .
131(6) . . .
121(6) . . .
113(6) . . .
114(6) . . .
119(6) . . .
111(6) . . .
120(6) . . .
118(6) . . .
118(6) . . .
112(6) . . .
117(6) . . .
123(6) . . .
130(6) . . .
127(6) . . .
114(6) . . .
116(6) . . .
107(5) . . .
119(6) . . .
115(6) . . .
119(6) . . .
113(6) . . .
113(6) . . .
124(6) . . .
118(6) . . .
121(6) . . .
100(6) . . .
112(6) . . .
115(6) . . .
125(6) . . .
127(6) . . .
125(6) . . .
121(6) . . .
120(6) . . .
114(6) . . .
134(6) . . .
138(7) . . .
127(6) . . .
126(6) . . .
110(6) . . .
117(6) . . .
106(6) . . .
126(6) . . .
126(6) . . .
127(6) . . .
120(6) . . .
129(6) . . .
115(6) . . .
112(5) . . .
105(5) . . .
123(6) . . .
126(6) . . .
114(6) . . .
109(5) . . .
117(6) . . .
108(6) . . .
116(6) . . .
118(6) . . .
135(6) . . .
111(6) . . .
110(6) . . .
115(6) . . .
128(6) . . .
123(6) . . .
115(6) . . .
110(6) . . .
110(6) . . .
124(6) . . .
125(6) . . .
124(6) . . .
111(6) . . .
125(6) . . .
112(5) . . .
129(6) . . .
121(6) . . .
113(6) . . .
110(5) . . .
133(6) . . .
116(6) . . .
118(6) . . .
116(6) . . .
115(6) . . .
101(5) . . .
119(6) . . .
115(6) . . .
118(6) . . .
98(5) . . .
116(6) . . .
103(5) . . .
112(6) . . .
124(6) . . .
137(6) . . .
108(5) . . .
104(5) . . .
116(6) . . .
114(6) . . .
113(6) . . .
102(5) . . .
110(6) . . .
122(6) . . .
126(6) . . .
117(6) . . .
120(6) . . .
111(6) . . .
123(6) . . .
113(6) . . .
116(6) . . .
104(5) . . .
109(6) . . .
113(6) . . .
124(6) . . .
121(6) . . .
105(5) . . .
123(6) . . .
123(6) . . .
122(6) . . .
118(6) . . .
116(6) . . .
108(6) . . .
112(6) . . .
115(6) . . .
110(5) . . .
116(6) . . .
124(6) . . .
108(6) . . .
117(6) . . .
109(6) . . .
99(5) . . .
126(6) . . .
118(6) . . .
125(6) . . .
130(6) . . .
126(6) . . .
131(6) . . .
126(6) . . .
118(6) . . .
118(6) . . .
105(5) . . .
117(6) . . .
108(6) . . .
118(6) . . .
114(6) . . .
127(6) . . .
111(6) . . .
109(6) . . .
115(6) . . .
121(6) . . .
119(6) . . .
117(6) . . .
119(6) . . .
134(6) . . .
108(5) . . .
128(6) . . .
106(5) . . .
114(6) . . .
115(6) . . .
112(6) . . .
124(6) . . .
111(6) . . .
120(6) . . .
118(6) . . .
106(5) . . .
105(6) . . .
117(6) . . .
128(6) . . .
118(6) . . .
93(5) . . .
107(6) . . .
111(6) . . .
103(5) . . .
109(5) . . .
138(6) . . .
132(6) . . .
128(6) . . .
118(6) . . .
122(6) . . .
111(5) . . .
127(6) . . .
109(6) . . .
101(5) . . .
129(6) . . .
127(6) . . .
106(5) . . .
122(6) . . .
102(6) . . .
109(5) . . .
121(6) . . .
117(6) . . .
120(6) . . .
126(6) . . .
123(6) . . .
127(6) . . .
120(6) . . .
129(6) . . .
112(6) . . .
114(6) . . .
119(6) . . .
116(6) . . .
131(6) . . .
112(6) . . .
117(6) . . .
113(6) . . .
112(6) . . .
121(6) . . .
144(7) . . .
116(6) . . .
111(6) . . .
116(6) . . .
116(6) . . .
113(6) . . .
112(6) . . .
115(6) . . .
116(6) . . .
122(6) . . .
113(6) . . .
115(6) . . .
113(6) . . .
122(6) . . .
114(6) . . .
117(6) . . .
119(6) . . .
115(6) . . .
114(6) . . .
114(6) . . .
116(6) . . .
106(5) . . .
114(6) . . .
107(6) . . .
106(5) . . .
117(6) . . .
121(6) . . .
110(6) . . .
108(6) . . .
117(6) . . .
121(6) . . .
102(5) . . .
113(6) . . .
103(5) . . .
116(6) . . .
97(5) . . .
114(6) . . .
115(6) . . .
115(6) . . .
112(6) . . .
117(6) . . .
124(6) . . .
126(6) . . .
124(6) . . .
110(6) . . .
118(6) . . .
117(6) . . .
113(6) . . .
103(5) . . .
109(6) . . .
123(6) . . .
113(6) . . .
112(6) . . .
106(5) . . .
117(6) . . .
122(6) . . .
109(6) . . .
115(6) . . .
121(6) . . .
113(6) . . .
118(6) . . .
117(6) . . .
122(6) . . .
119(6) . . .
109(5) . . .
115(6) . . .
121(6) . . .
114(6) . . .
114(6) . . .
113(6) . . .
107(5) . . .
123(6) . . .
117(6) . . .
113(6) . . .
105(5) . . .
105(5) . . .
118(6) . . .
100(6) . . .
115(6) . . .
111(5) . . .
111(5) . . .
100(5) . . .
107(6) . . .
116(6) . . .
122(6) . . .
122(6) . . .
124(6) . . .
103(5) . . .
114(6) . . .
124(6) . . .
113(6) . . .
112(6) . . .
106(6) . . .
109(6) . . .
103(5) . . .
106(5) . . .
103(5) . . .
116(6) . . .
118(6) . . .
116(6) . . .
106(6) . . .
113(6) . . .
111(6) . . .
109(5) . . .
112(5) . . .
111(6) . . .
111(6) . . .
110(6) . . .
111(5) . . .
116(6) . . .
110(6) . . .
111(6) . . .
95(5) . . .
102(5) . . .
128(6) . . .
116(6) . . .
109(6) . . .
110(6) . . .
110(6) . . .
108(5) . . .
117(6) . . .
105(6) . . .
90(5) . . .
119(6) . . .
106(5) . . .
115(6) . . .
121(6) . . .
132(6) . . .
113(5) . . .
110(5) . . .
104(5) . . .
100(5) . . .
103(6) . . .
117(6) . . .
109(5) . . .
114(6) . . .
115(6) . . .
112(6) . . .
118(6) . . .
118(6) . . .
119(6) . . .
111(6) . . .
116(6) . . .
113(6) . . .
95(5) . . .
111(6) . . .
121(6) . . .
108(6) . . .
102(5) . . .
119(6) . . .
108(6) . . .
106(6) . . .
110(6) . . .
127(6) . . .
107(6) . . .
115(6) . . .
119(6) . . .
120(6) . . .
119(6) . . .
111(6) . . .
109(6) . . .
110(5) . . .
117(6) . . .
112(5) . . .
100(5) . . .
108(6) . . .
111(6) . . .
109(5) . . .
96(5) . . .
114(6) . . .
109(6) . . .
107(6) . . .
108(5) . . .
129(6) . . .
118(6) . . .
116(6) . . .
118(6) . . .
120(6) . . .
117(6) . . .
97(5) . . .
91(5) . . .
109(6) . . .
108(5) . . .
113(6) . . .
109(6) . . .
108(6) . . .
116(6) . . .
119(6) . . .
121(6) . . .
127(6) . . .
123(6) . . .
121(6) . . .
99(5) . . .
125(6) . . .
111(6) . . .
115(6) . . .
119(6) . . .
111(5) . . .
118(6) . . .
110(6) . . .
108(6) . . .
120(6) . . .
108(5) . . .
119(6) . . .
102(5) . . .
115(6) . . .
112(6) . . .
111(5) . . .
103(5) . . .
122(6) . . .
106(6) . . .
96(5) . . .
104(5) . . .
106(6) . . .
111(6) . . .
114(6) . . .
108(6) . . .
103(5) . . .
121(6) . . .
102(6) . . .
117(6) . . .
117(6) . . .
119(6) . . .
122(6) . . .
130(7) . . .
114(6) . . .
107(5) . . .
114(6) . . .
107(6) . . .
100(6) . . .
110(6) . . .
116(6) . . .
125(6) . . .
111(6) . . .
115(6) . . .
113(6) . . .
122(6) . . .
125(6) . . .
128(6) . . .
126(6) . . .
119(6) . . .
116(6) . . .
109(6) . . .
134(6) . . .
117(6) . . .
106(5) . . .
106(5) . . .
114(6) . . .
121(6) . . .
108(6) . . .
108(6) . . .
104(5) . . .
98(5) . . .
120(6) . . .
112(6) . . .
106(5) . . .
111(5) . . .
119(6) . . .
115(6) . . .
120(6) . . .
134(6) . . .
107(5) . . .
100(5) . . .
113(6) . . .
115(6) . . .
121(6) . . .
124(6) . . .
111(6) . . .
119(6) . . .
119(6) . . .
112(6) . . .
109(5) . . .
116(6) . . .
106(6) . . .
98(5) . . .
111(5) . . .
118(6) . . .
118(6) . . .
95(5) . . .
110(6) . . .
120(6) . . .
103(5) . . .
117(6) . . .
113(6) . . .
110(6) . . .
114(5) . . .
126(6) . . .
117(6) . . .
111(6) . . .
120(6) . . .
126(6) . . .
114(6) . . .
109(6) . . .
100(5) . . .
116(6) . . .
98(5) . . .
104(5) . . .
124(6) . . .
107(6) . . .
99(5) . . .
106(5) . . .
114(6) . . .
116(6) . . .
106(5) . . .
110(6) . . .
102(5) . . .
114(6) . . .
97(5) . . .
122(6) . . .
112(6) . . .
119(6) . . .
116(6) . . .
123(6) . . .
113(6) . . .
110(5) . . .
113(5) . . .
122(6) . . .
119(6) . . .
114(6) . . .
110(5) . . .
116(6) . . .
119(6) . . .
116(6) . . .
126(6) . . .
116(6) . . .
127(6) . . .
120(6) . . .
118(6) . . .
113(6) . . .
99(5) . . .
107(5) . . .
116(6) . . .
121(6) . . .
119(6) . . .
106(5) . . .
114(6) . . .
111(6) . . .
96(5) . . .
116(6) . . .
109(5) . . .
117(6) . . .
107(6) . . .
128(6) . . .
126(6) . . .
109(5) . . .
108(6) . . .
106(6) . . .
110(6) . . .
121(6) . . .
124(6) . . .
115(6) . . .
117(6) . . .
107(5) . . .
116(6) . . .
109(5) . . .
106(5) . . .
122(6) . . .
116(6) . . .
105(5) . . .
107(5) . . .
126(6) . . .
121(6) . . .
107(6) . . .
118(6) . . .
123(6) . . .
117(6) . . .
108(5) . . .
113(6) . . .
112(6) . . .
112(6) . . .
93(5) . . .
103(6) . . .
112(6) . . .
93(5) . . .
123(6) . . .
103(5) . . .
116(6) . . .
120(6) . . .
127(6) . . .
126(6) . . .
106(6) . . .
103(6) . . .
115(6) . . .
119(6) . . .
106(5) . . .
107(6) . . .
124(6) . . .
112(6) . . .
106(5) . . .
125(6) . . .
97(5) . . .
111(6) . . .
118(6) . . .
107(5) . . .
113(6) . . .
106(6) . . .
99(5) . . .
113(6) . . .
109(5) . . .
114(6) . . .
111(6) . . .
113(6) . . .
112(6) . . .
108(5) . . .
102(5) . . .
109(6) . . .
97(5) . . .
107(6) . . .
115(6) . . .
101(5) . . .
99(5) . . .
126(6) . . .
103(5) . . .
120(6) . . .
109(6) . . .
110(6) . . .
102(6) . . .
117(6) . . .
124(6) . . .
124(6) . . .
122(6) . . .
117(6) . . .
108(5) . . .
120(6) . . .
109(5) . . .
126(6) . . .
113(6) . . .
113(5) . . .
96(5) . . .
118(6) . . .
122(6) . . .
116(6) . . .
105(5) . . .
117(6) . . .
109(6) . . .
116(6) . . .
122(6) . . .
125(6) . . .
109(5) . . .
96(5) . . .
112(6) . . .
124(6) . . .
106(5) . . .
100(5) . . .
113(6) . . .
135(6) . . .
115(6) . . .
115(6) . . .
104(5) . . .
105(5) . . .
117(6) . . .
113(6) . . .
118(6) . . .
97(5) . . .
95(5) . . .
107(6) . . .
111(6) . . .
108(5) . . .
123(6) . . .
118(6) . . .
116(6) . . .
107(5) . . .
98(5) . . .
110(6) . . .
108(6) . . .
103(5) . . .
105(5) . . .
119(6) . . .
111(6) . . .
114(6) . . .
112(6) . . .
99(5) . . .
111(5) . . .
105(5) . . .
113(6) . . .
107(6) . . .
112(6) . . .
114(6) . . .
116(6) . . .
126(6) . . .
123(6) . . .
119(6) . . .
106(5) . . .
111(6) . . .
111(6) . . .
112(6) . . .
113(6) . . .
120(6) . . .
112(6) . . .
108(6) . . .
107(5) . . .
117(6) . . .
130(6) . . .
121(6) . . .
91(5) . . .
107(6) . . .
90(5) . . .
99(5) . . .
119(6) . . .
127(6) . . .
103(5) . . .
115(6) . . .
104(5) . . .
113(6) . . .
112(6) . . .
113(6) . . .
110(5) . . .
121(6) . . .
102(5) . . .
101(5) . . .
112(6) . . .
107(5) . . .
115(6) . . .
116(6) . . .
124(6) . . .
105(5) . . .
110(5) . . .
118(6) . . .
119(6) . . .
104(5) . . .
89(5) . . .
115(6) . . .
104(5) . . .
96(5) . . .
114(6) . . .
111(5) . . .
100(5) . . .
110(6) . . .
112(6) . . .
120(6) . . .
120(6) . . .
106(5) . . .
98(5) . . .
105(6) . . .
108(6) . . .
95(5) . . .
109(6) . . .
106(5) . . .
108(6) . . .
120(6) . . .
107(5) . . .
107(5) . . .
121(6) . . .
103(6) . . .
110(6) . . .
122(6) . . .
110(6) . . .
114(6) . . .
120(6) . . .
113(6) . . .
124(6) . . .
113(6) . . .
110(6) . . .
121(6) . . .
110(6) . . .
100(5) . . .
107(6) . . .
104(5) . . .
123(6) . . .
111(6) . . .
110(5) . . .
110(6) . . .
124(6) . . .
107(5) . . .
109(5) . . .
120(6) . . .
108(6) . . .
101(5) . . .
119(6) . . .
112(6) . . .
120(6) . . .
110(6) . . .
94(6) . . .
104(5) . . .
115(6) . . .
115(6) . . .
108(5) . . .
115(6) . . .
110(6) . . .
96(5) . . .
99(5) . . .
100(5) . . .
101(5) . . .
115(6) . . .
120(6) . . .
108(5) . . .
119(6) . . .
109(6) . . .
120(6) . . .
113(6) . . .
112(6) . . .
115(6) . . .
106(6) . . .
100(5) . . .
111(5) . . .
102(5) . . .
101(5) . . .
118(6) . . .
115(6) . . .
109(5) . . .
96(5) . . .
111(6) . . .
111(6) . . .
108(6) . . .
114(6) . . .
109(6) . . .
113(6) . . .
107(5) . . .
117(6) . . .
128(6) . . .
113(6) . . .
114(6) . . .
130(6) . . .
118(6) . . .
99(5) . . .
114(6) . . .
104(6) . . .
109(6) . . .
103(5) . . .
98(5) . . .
97(5) . . .
101(5) . . .
97(5) . . .
103(5) . . .
109(5) . . .
122(6) . . .
100(6) . . .
100(6) . . .
111(5) . . .
103(5) . . .
125(6) . . .
106(6) . . .
112(6) . . .
110(5) . . .
121(6) . . .
107(5) . . .
107(6) . . .
97(5) . . .
102(5) . . .
96(5) . . .
102(5) . . .
107(6) . . .
111(6) . . .
115(6) . . .
110(6) . . .
105(5) . . .
117(6) . . .
116(6) . . .
103(5) . . .
109(6) . . .
98(5) . . .
108(6) . . .
104(5) . . .
108(5) . . .
100(5) . . .
100(6) . . .
103(6) . . .
105(5) . . .
97(5) . . .
118(6) . . .
109(6) . . .
112(6) . . .
118(6) . . .
125(6) . . .
119(6) . . .
98(5) . . .
108(5) . . .
104(5) . . .
111(6) . . .
118(6) . . .
120(6) . . .
118(6) . . .
120(6) . . .
102(5) . . .
107(6) . . .
118(6) . . .
107(5) . . .
108(5) . . .
113(5) . . .
100(5) . . .
106(6) . . .
100(5) . . .
112(6) . . .
107(5) . . .
107(6) . . .
97(5) . . .
112(6) . . .
116(6) . . .
100(5) . . .
107(6) . . .
103(6) . . .
101(5) . . .
116(6) . . .
106(5) . . .
92(5) . . .
95(5) . . .
110(6) . . .
114(6) . . .
112(6) . . .
116(6) . . .
123(6) . . .
101(5) . . .
103(5) . . .
115(6) . . .
119(6) . . .
111(6) . . .
109(5) . . .
113(6) . . .
114(6) . . .
130(6) . . .
116(6) . . .
107(5) . . .
105(5) . . .
97(5) . . .
94(5) . . .
110(6) . . .
110(5) . . .
94(5) . . .
107(6) . . .
102(6) . . .
97(5) . . .
104(5) . . .
109(5) . . .
119(6) . . .
106(6) . . .
94(5) . . .
101(5) . . .
96(5) . . .
102(5) . . .
99(6) . . .
104(5) . . .
96(5) . . .
102(5) . . .
110(6) . . .
119(6) . . .
109(6) . . .
104(5) . . .
95(5) . . .
104(6) . . .
113(6) . . .
127(6) . . .
110(5) . . .
99(5) . . .
91(5) . . .
104(6) . . .
108(6) . . .
102(5) . . .
103(5) . . .
112(6) . . .
107(6) . . .
112(6) . . .
109(5) . . .
119(6) . . .
96(5) . . .
109(6) . . .
108(5) . . .
110(5) . . .
107(6) . . .
123(6) . . .
107(5) . . .
102(5) . . .
103(5) . . .
89(5) . . .
108(6) . . .
99(5) . . .
96(5) . . .
106(5) . . .
101(5) . . .
113(6) . . .
118(6) . . .
115(6) . . .
117(6) . . .
120(6) . . .
109(6) . . .
107(5) . . .
114(6) . . .
116(6) . . .
111(6) . . .
102(6) . . .
97(5) . . .
116(6) . . .
101(5) . . .
123(6) . . .
121(6) . . .
118(6) . . .
120(6) . . .
107(5) . . .
105(5) . . .
116(6) . . .
107(6) . . .
107(5) . . .
105(5) . . .
100(5) . . .
114(6) . . .
105(6) . . .
94(5) . . .
113(6) . . .
114(6) . . .
116(6) . . .
101(5) . . .
105(5) . . .
100(5) . . .
105(6) . . .
101(5) . . .
100(5) . . .
95(5) . . .
106(5) . . .
117(6) . . .
119(6) . . .
100(5) . . .
105(5) . . .
106(6) . . .
103(6) . . .
114(6) . . .
99(5) . . .
105(5) . . .
107(6) . . .
107(6) . . .
106(5) . . .
107(5) . . .
105(5) . . .
101(5) . . .
113(6) . . .
109(6) . . .
105(5) . . .
103(5) . . .
113(6) . . .
106(6) . . .
102(5) . . .
106(5) . . .
101(5) . . .
109(6) . . .
112(6) . . .
106(6) . . .
113(6) . . .
94(5) . . .
110(6) . . .
103(6) . . .
107(6) . . .
119(6) . . .
117(6) . . .
107(5) . . .
96(5) . . .
104(6) . . .
105(5) . . .
111(6) . . .
110(6) . . .
104(5) . . .
116(6) . . .
115(6) . . .
107(5) . . .
103(6) . . .
101(5) . . .
111(6) . . .
111(5) . . .
108(5) . . .
118(6) . . .
120(6) . . .
114(6) . . .
100(5) . . .
110(6) . . .
117(6) . . .
121(6) . . .
117(6) . . .
122(6) . . .
111(6) . . .
106(6) . . .
102(5) . . .
110(5) . . .
104(5) . . .
99(5) . . .
102(6) . . .
97(5) . . .
116(6) . . .
118(6) . . .
101(5) . . .
107(6) . . .
113(6) . . .
113(6) . . .
108(5) . . .
108(6) . . .
112(6) . . .
107(6) . . .
106(5) . . .
103(5) . . .
102(5) . . .
114(6) . . .
109(6) . . .
111(5) . . .
104(5) . . .
119(6) . . .
103(6) . . .
99(5) . . .
102(5) . . .
107(5) . . .
107(6) . . .
111(6) . . .
103(5) . . .
122(6) . . .
104(5) . . .
110(6) . . .
111(6) . . .
104(5) . . .
125(6) . . .
111(6) . . .
133(6) . . .
115(6) . . .
105(5) . . .
103(5) . . .
104(6) . . .
99(5) . . .
115(6) . . .
108(5) . . .
117(6) . . .
113(6) . . .
104(5) . . .
111(6) . . .
116(6) . . .
112(6) . . .
100(5) . . .
101(5) . . .
102(5) . . .
98(5) . . .
114(6) . . .
114(6) . . .
115(6) . . .
114(6) . . .
114(6) . . .
96(5) . . .
103(6) . . .
112(6) . . .
97(5) . . .
111(6) . . .
113(5) . . .
96(5) . . .
110(6) . . .
111(6) . . .
109(5) . . .
125(6) . . .
129(6) . . .
110(6) . . .
104(5) . . .
98(5) . . .
107(5) . . .
93(5) . . .
110(6) . . .
118(6) . . .
110(5) . . .
108(6) . . .
109(5) . . .
104(5) . . .
98(5) . . .
109(5) . . .
106(6) . . .
104(5) . . .
119(6) . . .
95(5) . . .
104(5) . . .
106(6) . . .
106(5) . . .
107(5) . . .
105(5) . . .
100(5) . . .
102(5) . . .
102(6) . . .
103(6) . . .
102(5) . . .
115(6) . . .
109(6) . . .
99(5) . . .
113(6) . . .
105(5) . . .
109(5) . . .
107(6) . . .
107(6) . . .
99(5) . . .
105(5) . . .
102(5) . . .
113(6) . . .
97(5) . . .
103(6) . . .
101(5) . . .
107(5) . . .
92(5) . . .
115(6) . . .
124(6) . . .
105(5) . . .
114(6) . . .
104(5) . . .
98(5) . . .
96(5) . . .
99(5) . . .
96(5) . . .
114(6) . . .
109(6) . . .
109(6) . . .
118(6) . . .
105(5) . . .
106(6) . . .
96(5) . . .
106(6) . . .
104(5) . . .
102(5) . . .
104(6) . . .
118(6) . . .
101(5) . . .
101(5) . . .
103(5) . . .
97(5) . . .
98(5) . . .
130(6) . . .
115(6) . . .
113(6) . . .
103(5) . . .
105(6) . . .
110(5) . . .
103(5) . . .
100(5) . . .
101(6) . . .
102(5) . . .
110(6) . . .
116(6) . . .
121(6) . . .
119(6) . . .
111(6) . . .
113(6) . . .
113(5) . . .
103(5) . . .
117(6) . . .
110(5) . . .
116(6) . . .
109(5) . . .
107(5) . . .
106(6) . . .
103(5) . . .
103(5) . . .
93(5) . . .
100(5) . . .
110(6) . . .
101(5) . . .
115(5) . . .
104(5) . . .
111(6) . . .
98(5) . . .
97(5) . . .
110(5) . . .
100(5) . . .
91(5) . . .
105(6) . . .
99(5) . . .
92(5) . . .
105(6) . . .
84(5) . . .
94(5) . . .
108(5) . . .
103(5) . . .
97(5) . . .
111(6) . . .
114(6) . . .
105(5) . . .
101(5) . . .
121(6) . . .
116(6) . . .
96(5) . . .
106(5) . . .
112(5) . . .
111(6) . . .
112(6) . . .
102(5) . . .
98(5) . . .
93(5) . . .
105(6) . . .
113(6) . . .
95(5) . . .
98(5) . . .
103(5) . . .
97(5) . . .
121(6) . . .
99(5) . . .
111(6) . . .
97(5) . . .
90(5) . . .
102(6) . . .
123(6) . . .
117(6) . . .
108(5) . . .
110(6) . . .
88(5) . . .
88(5) . . .
98(5) . . .
112(6) . . .
93(5) . . .
94(5) . . .
101(5) . . .
108(5) . . .
89(5) . . .
116(6) . . .
106(6) . . .
99(5) . . .
106(5) . . .
99(5) . . .
100(6) . . .
94(5) . . .
101(5) . . .
96(5) . . .
103(5) . . .
104(6) . . .
126(6) . . .
90(5) . . .
102(5) . . .
98(5) . . .
112(6) . . .
95(5) . . .
107(5) . . .
95(5) . . .
92(5) . . .
119(6) . . .
101(5) . . .
100(5) . . .
93(5) . . .
105(6) . . .
106(6) . . .
97(5) . . .
99(5) . . .
104(5) . . .
101(5) . . .
109(6) . . .
112(6) . . .
102(5) . . .
104(5) . . .
119(6) . . .
110(6) . . .
111(6) . . .
95(5) . . .
104(5) . . .
106(6) . . .
98(6) . . .
109(6) . . .
100(5) . . .
100(5) . . .
94(5) . . .
107(6) . . .
97(5) . . .
122(6) . . .
114(6) . . .
110(6) . . .
97(5) . . .
101(5) . . .
121(6) . . .
101(5) . . .
111(6) . . .
104(5) . . .
108(6) . . .
102(5) . . .
98(5) . . .
91(5) . . .
90(5) . . .
105(5) . . .
86(5) . . .
101(5) . . .
98(6) . . .
94(5) . . .
104(5) . . .
109(5) . . .
93(5) . . .
104(6) . . .
95(5) . . .
95(5) . . .
99(5) . . .
107(6) . . .
112(6) . . .
120(6) . . .
106(6) . . .
96(5) . . .
97(5) . . .
108(6) . . .
101(5) . . .
119(6) . . .
108(5) . . .
104(5) . . .
112(6) . . .
106(5) . . .
107(5) . . .
113(6) . . .
95(5) . . .
122(6) . . .
81(5) . . .
101(5) . . .
109(5) . . .
116(6) . . .
97(5) . . .
96(5) . . .
97(5) . . .
102(5) . . .
98(5) . . .
100(6) . . .
104(6) . . .
107(5) . . .
109(5) . . .
99(5) . . .
95(5) . . .
112(6) . . .
114(6) . . .
106(5) . . .
97(5) . . .
92(5) . . .
96(5) . . .
103(5) . . .
104(6) . . .
112(6) . . .
108(6) . . .
118(6) . . .
111(5) . . .
111(6) . . .
96(5) . . .
83(5) . . .
105(5) . . .
106(5) . . .
102(5) . . .
113(6) . . .
102(5) . . .
112(6) . . .
98(5) . . .
111(6) . . .
106(6) . . .
92(5) . . .
98(5) . . .
116(6) . . .
100(5) . . .
90(5) . . .
94(5) . . .
93(5) . . .
105(5) . . .
100(5) . . .
106(6) . . .
114(6) . . .
105(5) . . .
107(5) . . .
113(6) . . .
117(6) . . .
100(5) . . .
106(5) . . .
102(5) . . .
88(5) . . .
102(6) . . .
116(6) . . .
98(5) . . .
102(5) . . .
98(5) . . .
106(6) . . .
115(6) . . .
106(5) . . .
103(5) . . .
125(6) . . .
119(6) . . .
114(6) . . .
104(5) . . .
104(5) . . .
100(5) . . .
101(5) . . .
95(5) . . .
85(5) . . .
92(5) . . .
100(6) . . .
97(5) . . .
108(5) . . .
105(5) . . .
104(5) . . .
93(5) . . .
113(6) . . .
100(5) . . .
100(5) . . .
113(6) . . .
118(6) . . .
108(6) . . .
111(6) . . .
101(5) . . .
93(5) . . .
117(6) . . .
101(5) . . .
102(5) . . .
110(5) . . .
94(5) . . .
98(6) . . .
92(5) . . .
102(5) . . .
112(5) . . .
109(6) . . .
110(6) . . .
96(5) . . .
103(5) . . .
109(5) . . .
97(5) . . .
99(6) . . .
96(5) . . .
102(5) . . .
110(5) . . .
107(6) . . .
114(6) . . .
105(6) . . .
104(5) . . .
102(5) . . .
108(6) . . .
100(5) . . .
103(5) . . .
115(6) . . .
108(6) . . .
110(6) . . .
121(6) . . .
104(6) . . .
96(5) . . .
89(5) . . .
109(6) . . .
107(6) . . .
111(6) . . .
98(5) . . .
104(6) . . .
100(6) . . .
98(5) . . .
102(5) . . .
97(5) . . .
106(5) . . .
113(6) . . .
98(5) . . .
122(6) . . .
106(5) . . .
100(5) . . .
94(5) . . .
99(5) . . .
110(5) . . .
97(5) . . .
103(6) . . .
94(5) . . .
106(5) . . .
104(5) . . .
103(5) . . .
105(6) . . .
102(5) . . .
117(6) . . .
106(5) . . .
94(5) . . .
99(5) . . .
113(6) . . .
97(5) . . .
107(5) . . .
95(5) . . .
107(5) . . .
117(6) . . .
95(5) . . .
102(5) . . .
102(5) . . .
108(6) . . .
96(5) . . .
108(6) . . .
107(5) . . .
103(5) . . .
95(5) . . .
97(5) . . .
100(5) . . .
99(5) . . .
110(6) . . .
108(6) . . .
114(6) . . .
100(5) . . .
99(5) . . .
104(6) . . .
101(5) . . .
107(6) . . .
105(6) . . .
86(5) . . .
102(6) . . .
109(6) . . .
101(5) . . .
113(6) . . .
109(5) . . .
110(6) . . .
88(5) . . .
107(6) . . .
84(5) . . .
104(5) . . .
96(5) . . .
105(6) . . .
109(6) . . .
100(5) . . .
103(5) . . .
100(5) . . .
108(6) . . .
96(5) . . .
109(5) . . .
107(5) . . .
97(5) . . .
102(6) . . .
103(6) . . .
108(5) . . .
91(5) . . .
113(6) . . .
101(6) . . .
113(6) . . .
111(5) . . .
93(5) . . .
104(6) . . .
112(6) . . .
98(5) . . .
91(5) . . .
116(6) . . .
103(5) . . .
99(6) . . .
91(5) . . .
99(5) . . .
100(5) . . .
105(6) . . .
104(6) . . .
111(6) . . .
105(5) . . .
102(6) . . .
97(5) . . .
116(6) . . .
105(5) . . .
103(5) . . .
102(5) . . .
96(5) . . .
90(5) . . .
99(5) . . .
91(5) . . .
95(5) . . .
106(6) . . .
115(6) . . .
109(5) . . .
96(5) . . .
99(5) . . .
122(6) . . .
109(6) . . .
93(5) . . .
106(5) . . .
102(5) . . .
97(6) . . .
87(5) . . .
106(5) . . .
92(5) . . .
89(5) . . .
106(6) . . .
111(6) . . .
106(5) . . .
98(5) . . .
108(6) . . .
97(5) . . .
98(5) . . .
93(5) . . .
111(6) . . .
112(6) . . .
99(6) . . .
94(5) . . .
103(5) . . .
94(5) . . .
91(5) . . .
102(5) . . .
106(5) . . .
101(5) . . .
103(5) . . .
88(5) . . .
98(5) . . .
101(5) . . .
103(5) . . .
102(5) . . .
89(5) . . .
98(5) . . .
110(6) . . .
100(5) . . .
102(5) . . .
94(5) . . .
111(6) . . .
106(5) . . .
96(5) . . .
83(5) . . .
94(6) . . .
110(6) . . .
81(5) . . .
104(5) . . .
102(5) . . .
100(5) . . .
93(5) . . .
98(5) . . .
116(6) . . .
92(5) . . .
94(6) . . .
97(5) . . .
101(5) . . .
101(5) . . .
102(6) . . .
86(5) . . .
92(5) . . .
101(5) . . .
103(5) . . .
78(5) . . .
96(6) . . .
87(5) . . .
92(5) . . .
102(5) . . .
106(6) . . .
99(5) . . .
101(5) . . .
115(6) . . .
109(6) . . .
99(5) . . .
97(6) . . .
108(6) . . .
90(5) . . .
95(5) . . .
88(5) . . .
96(6) . . .
104(5) . . .
107(5) . . .
110(6) . . .
102(5) . . .
103(5) . . .
97(5) . . .
95(5) . . .
86(5) . . .
102(6) . . .
101(5) . . .
99(5) . . .
107(5) . . .
97(5) . . .
100(6) . . .
107(6) . . .
110(5) . . .
100(5) . . .
95(5) . . .
100(6) . . .
100(6) . . .
97(5) . . .
111(5) . . .
118(6) . . .
105(6) . . .
91(5) . . .
88(5) . . .
97(5) . . .
94(5) . . .
98(6) . . .
96(5) . . .
106(5) . . .
98(5) . . .
106(5) . . .
93(5) . . .
92(5) . . .
103(5) . . .
92(5) . . .
111(6) . . .
92(5) . . .
111(6) . . .
90(5) . . .
82(5) . . .
97(6) . . .
96(5) . . .
118(6) . . .
102(5) . . .
81(5) . . .
94(5) . . .
96(5) . . .
92(5) . . .
99(5) . . .
93(5) . . .
106(6) . . .
106(6) . . .
103(5) . . .
103(5) . . .
103(6) . . .
102(6) . . .
105(5) . . .
120(6) . . .
95(5) . . .
105(5) . . .
95(5) . . .
100(5) . . .
88(5) . . .
107(5) . . .
105(6) . . .
107(6) . . .
91(5) . . .
104(5) . . .
100(5) . . .
91(5) . . .
94(5) . . .
101(5) . . .
100(5) . . .
98(5) . . .
106(6) . . .
90(5) . . .
98(5) . . .
95(5) . . .
110(5) . . .
100(5) . . .
89(5) . . .
81(5) . . .
91(5) . . .
96(5) . . .
100(5) . . .
94(5) . . .
100(5) . . .
97(5) . . .
97(5) . . .
111(6) . . .
98(5) . . .
104(5) . . .
98(5) . . .
93(5) . . .
98(6) . . .
87(5) . . .
103(5) . . .
107(5) . . .
106(6) . . .
104(5) . . .
95(5) . . .
96(5) . . .
107(5) . . .
89(5) . . .
97(6) . . .
97(5) . . .
97(5) . . .
93(5) . . .
111(6) . . .
111(6) . . .
100(5) . . .
94(5) . . .
90(5) . . .
98(5) . . .
97(6) . . .
99(5) . . .
103(5) . . .
98(5) . . .
107(6) . . .
98(6) . . .
92(5) . . .
104(5) . . .
102(5) . . .
107(5) . . .
91(5) . . .
97(5) . . .
109(5) . . .
95(5) . . .
104(6) . . .
91(5) . . .
112(6) . . .
114(6) . . .
114(6) . . .
83(5) . . .
101(5) . . .
117(6) . . .
111(5) . . .
101(5) . . .
98(5) . . .
96(5) . . .
104(5) . . .
97(5) . . .
90(5) . . .
90(5) . . .
100(5) . . .
96(5) . . .
106(5) . . .
93(5) . . .
94(5) . . .
112(6) . . .
95(5) . . .
100(5) . . .
102(5) . . .
97(5) . . .
96(5) . . .
100(5) . . .
83(5) . . .
103(6) . . .
110(6) . . .
97(5) . . .
88(5) . . .
106(5) . . .
97(5) . . .
96(6) . . .
95(6) . . .
109(5) . . .
98(5) . . .
94(5) . . .
95(5) . . .
101(5) . . .
99(5) . . .
101(5) . . .
102(5) . . .
96(5) . . .
104(6) . . .
100(5) . . .
94(5) . . .
92(5) . . .
100(6) . . .
81(5) . . .
95(5) . . .
106(5) . . .
93(5) . . .
93(5) . . .
110(6) . . .
88(5) . . .
110(6) . . .
93(5) . . .
107(6) . . .
100(5) . . .
94(5) . . .
111(6) . . .
103(5) . . .
89(5) . . .
80(5) . . .
104(5) . . .
95(5) . . .
97(5) . . .
86(5) . . .
83(5) . . .
93(5) . . .
98(5) . . .
102(5) . . .
101(5) . . .
98(5) . . .
103(5) . . .
96(5) . . .
112(6) . . .
88(5) . . .
106(5) . . .
94(5) . . .
92(5) . . .
98(6) . . .
83(5) . . .
105(5) . . .
104(5) . . .
102(5) . . .
92(5) . . .
100(5) . . .
103(5) . . .
103(5) . . .
106(6) . . .
93(5) . . .
119(6) . . .
96(5) . . .
100(5) . . .
96(5) . . .
86(5) . . .
88(5) . . .
112(5) . . .
102(5) . . .
103(5) . . .
95(5) . . .
104(5) . . .
103(5) . . .
103(5) . . .
98(5) . . .
94(5) . . .
88(5) . . .
107(5) . . .
92(5) . . .
96(5) . . .
101(6) . . .
106(5) . . .
112(5) . . .
99(5) . . .
102(6) . . .
99(5) . . .
112(6) . . .
93(5) . . .
93(5) . . .
97(5) . . .
91(5) . . .
104(5) . . .
101(5) . . .
95(5) . . .
98(6) . . .
92(5) . . .
89(5) . . .
95(5) . . .
98(5) . . .
104(6) . . .
90(5) . . .
98(5) . . .
88(5) . . .
88(5) . . .
96(5) . . .
106(6) . . .
98(5) . . .
100(5) . . .
89(5) . . .
92(5) . . .
99(5) . . .
89(5) . . .
92(5) . . .
98(5) . . .
105(6) . . .
110(6) . . .
96(5) . . .
110(5) . . .
102(5) . . .
103(6) . . .
111(6) . . .
87(5) . . .
99(5) . . .
86(5) . . .
94(5) . . .
106(6) . . .
92(5) . . .
101(5) . . .
92(5) . . .
102(5) . . .
96(5) . . .
107(5) . . .
95(5) . . .
98(5) . . .
87(5) . . .
98(5) . . .
116(6) . . .
99(5) . . .
99(5) . . .
91(5) . . .
97(5) . . .
101(5) . . .
92(5) . . .
76(5) . . .
101(5) . . .
89(5) . . .
87(5) . . .
96(5) . . .
99(5) . . .
103(5) . . .
103(5) . . .
98(5) . . .
105(6) . . .
103(6) . . .
96(5) . . .
103(5) . . .
102(5) . . .
92(5) . . .
98(6) . . .
106(6) . . .
99(5) . . .
89(5) . . .
105(6) . . .
104(6) . . .
99(5) . . .
87(5) . . .
92(5) . . .
95(5) . . .
85(5) . . .
94(5) . . .
93(5) . . .
88(5) . . .
101(5) . . .
90(5) . . .
88(5) . . .
88(5) . . .
95(5) . . .
95(5) . . .
99(5) . . .
92(5) . . .
94(5) . . .
93(5) . . .
102(5) . . .
111(6) . . .
110(6) . . .
113(6) . . .
92(5) . . .
96(5) . . .
88(5) . . .
89(5) . . .
96(5) . . .
92(5) . . .
93(5) . . .
92(5) . . .
83(5) . . .
101(5) . . .
107(6) . . .
101(5) . . .
98(5) . . .
95(5) . . .
90(5) . . .
90(5) . . .
96(5) . . .
88(5) . . .
87(5) . . .
100(5) . . .
81(5) . . .
93(5) . . .
97(5) . . .
94(5) . . .
98(5) . . .
84(5) . . .
93(5) . . .
99(5) . . .
94(5) . . .
84(5) . . .
92(5) . . .
97(6) . . .
89(5) . . .
111(5) . . .
101(5) . . .
86(5) . . .
93(5) . . .
104(5) . . .
102(5) . . .
110(6) . . .
87(5) . . .
87(5) . . .
97(5) . . .
93(5) . . .
99(5) . . .
100(5) . . .
89(5) . . .
96(5) . . .
108(5) . . .
109(5) . . .
103(5) . . .
119(6) . . .
90(5) . . .
90(5) . . .
92(5) . . .
91(5) . . .
97(5) . . .
102(5) . . .
88(5) . . .
91(5) . . .
98(5) . . .
101(5) . . .
95(5) . . .
95(5) . . .
108(6) . . .
100(6) . . .
92(5) . . .
99(5) . . .
108(5) . . .
112(6) . . .
90(5) . . .
96(5) . . .
94(5) . . .
110(5) . . .
106(6) . . .
106(6) . . .
120(6) . . .
104(5) . . .
91(5) . . .
106(6) . . .
104(6) . . .
102(6) . . .
89(5) . . .
96(5) . . .
104(6) . . .
104(6) . . .
97(5) . . .
93(5) . . .
101(5) . . .
111(6) . . .
98(5) . . .
104(5) . . .
87(5) . . .
79(5) . . .
104(6) . . .
86(5) . . .
103(5) . . .
114(6) . . .
93(5) . . .
93(5) . . .
91(5) . . .
89(5) . . .
94(5) . . .
86(5) . . .
92(5) . . .
99(6) . . .
83(5) . . .
92(5) . . .
98(5) . . .
98(5) . . .
93(5) . . .
95(5) . . .
89(5) . . .
85(5) . . .
99(5) . . .
99(5) . . .
83(5) . . .
87(5) . . .
88(5) . . .
88(5) . . .
95(5) . . .
95(5) . . .
90(5) . . .
87(5) . . .
97(6) . . .
98(5) . . .
112(6) . . .
89(5) . . .
96(5) . . .
107(6) . . .
90(5) . . .
95(5) . . .
93(5) . . .
76(5) . . .
89(5) . . .
80(5) . . .
84(5) . . .
105(5) . . .
97(5) . . .
94(5) . . .
103(5) . . .
108(5) . . .
101(5) . . .
94(5) . . .
87(5) . . .
93(5) . . .
96(5) . . .
100(5) . . .
96(5) . . .
94(5) . . .
82(5) . . .
98(5) . . .
101(5) . . .
83(5) . . .
93(5) . . .
100(5) . . .
94(5) . . .
105(5) . . .
97(5) . . .
97(5) . . .
111(6) . . .
88(5) . . .
96(5) . . .
92(5) . . .
94(5) . . .
80(5) . . .
101(5) . . .
97(5) . . .
99(5) . . .
96(5) . . .
94(5) . . .
91(5) . . .
103(6) . . .
114(6) . . .
85(5) . . .
93(5) . . .
103(5) . . .
86(5) . . .
78(5) . . .
95(5) . . .
95(5) . . .
104(5) . . .
104(5) . . .
108(6) . . .
107(6) . . .
104(5) . . .
104(6) . . .
102(5) . . .
95(5) . . .
100(5) . . .
100(5) . . .
96(5) . . .
102(5) . . .
90(5) . . .
87(5) . . .
100(5) . . .
79(5) . . .
83(5) . . .
103(6) . . .
92(5) . . .
90(5) . . .
104(5) . . .
89(5) . . .
92(5) . . .
93(5) . . .
86(5) . . .
96(5) . . .
93(5) . . .
100(5) . . .
104(6) . . .
92(5) . . .
92(5) . . .
102(5) . . .
108(5) . . .
87(5) . . .
99(5) . . .
105(5) . . .
96(5) . . .
102(6) . . .
92(5) . . .
78(5) . . .
88(5) . . .
98(5) . . .
96(5) . . .
78(5) . . .
80(5) . . .
78(5) . . .
75(5) . . .
93(5) . . .
99(5) . . .
105(5) . . .
112(6) . . .
85(5) . . .
97(6) . . .
87(5) . . .
90(5) . . .
95(5) . . .
99(6) . . .
98(5) . . .
90(5) . . .
84(5) . . .
77(5) . . .
77(5) . . .
96(5) . . .
91(5) . . .
93(5) . . .
89(5) . . .
85(5) . . .
99(5) . . .
93(5) . . .
94(5) . . .
89(5) . . .
82(5) . . .
100(5) . . .
80(5) . . .
89(5) . . .
94(5) . . .
97(5) . . .
85(5) . . .
98(5) . . .
89(5) . . .
103(6) . . .
93(5) . . .
85(5) . . .
91(5) . . .
103(6) . . .
97(6) . . .
90(5) . . .
90(5) . . .
94(5) . . .
114(6) . . .
111(6) . . .
88(5) . . .
100(5) . . .
102(5) . . .
97(5) . . .
87(5) . . .
97(5) . . .
85(5) . . .
98(5) . . .
103(6) . . .
92(5) . . .
103(5) . . .
103(5) . . .
103(5) . . .
89(5) . . .
109(6) . . .
103(5) . . .
95(5) . . .
91(5) . . .
87(5) . . .
90(5) . . .
100(6) . . .
95(5) . . .
91(5) . . .
100(5) . . .
86(5) . . .
82(5) . . .
85(5) . . .
98(5) . . .
89(5) . . .
106(6) . . .
95(5) . . .
98(5) . . .
87(5) . . .
97(5) . . .
94(5) . . .
97(5) . . .
87(5) . . .
99(5) . . .
114(6) . . .
105(5) . . .
102(5) . . .
87(5) . . .
108(6) . . .
94(5) . . .
95(5) . . .
101(5) . . .
95(5) . . .
93(5) . . .
85(5) . . .
99(5) . . .
103(5) . . .
93(5) . . .
83(5) . . .
97(6) . . .
90(5) . . .
87(5) . . .
98(5) . . .
89(5) . . .
96(5) . . .
90(5) . . .
89(5) . . .
100(5) . . .
110(6) . . .
99(6) . . .
90(5) . . .
96(5) . . .
88(5) . . .
106(6) . . .
77(5) . . .
103(6) . . .
99(5) . . .
81(5) . . .
95(5) . . .
89(5) . . .
91(5) . . .
99(5) . . .
94(5) . . .
97(5) . . .
91(5) . . .
96(5) . . .
92(5) . . .
102(5) . . .
88(5) . . .
97(5) . . .
98(5) . . .
91(5) . . .
101(6) . . .
100(5) . . .
103(5) . . .
84(5) . . .
78(5) . . .
87(5) . . .
92(5) . . .
83(5) . . .
82(5) . . .
92(5) . . .
96(5) . . .
85(5) . . .
99(5) . . .
90(5) . . .
96(5) . . .
88(5) . . .
105(6) . . .
98(5) . . .
99(5) . . .
100(5) . . .
99(5) . . .
82(5) . . .
98(5) . . .
89(5) . . .
100(5) . . .
93(5) . . .
92(5) . . .
99(5) . . .
100(5) . . .
89(5) . . .
91(5) . . .
84(5) . . .
93(5) . . .
99(5) . . .
91(5) . . .
103(6) . . .
92(5) . . .
99(5) . . .
103(5) . . .
90(5) . . .
85(5) . . .
90(5) . . .
101(5) . . .
99(5) . . .
94(5) . . .
97(5) . . .
93(5) . . .
80(5) . . .
98(5) . . .
92(5) . . .
91(5) . . .
104(6) . . .
90(5) . . .
99(5) . . .
94(5) . . .
95(5) . . .
85(5) . . .
100(5) . . .
104(5) . . .
101(6) . . .
90(5) . . .
100(5) . . .
90(5) . . .
99(5) . . .
89(5) . . .
99(6) . . .
101(5) . . .
88(5) . . .
114(6) . . .
95(5) . . .
81(5) . . .
91(5) . . .
90(5) . . .
98(5) . . .
84(5) . . .
81(5) . . .
100(5) . . .
93(5) . . .
93(5) . . .
97(5) . . .
81(5) . . .
86(5) . . .
99(5) . . .
90(5) . . .
85(5) . . .
98(6) . . .
82(5) . . .
82(5) . . .
95(5) . . .
100(5) . . .
95(5) . . .
107(6) . . .
100(5) . . .
93(5) . . .
86(5) . . .
99(6) . . .
94(5) . . .
90(5) . . .
91(5) . . .
82(5) . . .
97(5) . . .
81(5) . . .
102(5) . . .
91(5) . . .
103(5) . . .
90(5) . . .
96(5) . . .
105(5) . . .
84(5) . . .
85(5) . . .
81(5) . . .
97(5) . . .
96(5) . . .
94(5) . . .
86(5) . . .
91(5) . . .
97(5) . . .
98(5) . . .
96(5) . . .
101(5) . . .
94(5) . . .
91(5) . . .
86(5) . . .
82(5) . . .
86(5) . . .
90(5) . . .
97(5) . . .
97(5) . . .
96(5) . . .
92(5) . . .
99(5) . . .
97(5) . . .
98(5) . . .
89(5) . . .
89(5) . . .
90(5) . . .
97(5) . . .
94(5) . . .
94(5) . . .
96(6) . . .
86(5) . . .
103(5) . . .
86(5) . . .
95(5) . . .
98(5) . . .
98(5) . . .
89(5) . . .
95(5) . . .
96(5) . . .
93(5) . . .
90(5) . . .
103(5) . . .
68(4) . . .
91(5) . . .
91(5) . . .
80(5) . . .
90(5) . . .
92(5) . . .
93(5) . . .
98(5) . . .
93(5) . . .
88(5) . . .
88(5) . . .
82(5) . . .
97(5) . . .
98(5) . . .
93(5) . . .
89(5) . . .
95(5) . . .
76(5) . . .
89(5) . . .
80(5) . . .
95(5) . . .
97(5) . . .
94(5) . . .
87(5) . . .
77(5) . . .
94(5) . . .
93(5) . . .
89(5) . . .
86(5) . . .
89(5) . . .
86(5) . . .
95(5) . . .
87(5) . . .
87(5) . . .
91(5) . . .
88(5) . . .
101(6) . . .
100(5) . . .
88(5) . . .
90(5) . . .
81(5) . . .
79(5) . . .
88(5) . . .
100(5) . . .
104(6) . . .
91(5) . . .
97(5) . . .
94(5) . . .
95(5) . . .
80(5) . . .
95(5) . . .
84(5) . . .
87(5) . . .
101(5) . . .
95(5) . . .
102(6) . . .
97(5) . . .
88(5) . . .
94(5) . . .
85(5) . . .
80(5) . . .
93(5) . . .
90(5) . . .
102(5) . . .
84(5) . . .
92(5) . . .
84(5) . . .
85(5) . . .
94(5) . . .
80(5) . . .
85(5) . . .
92(5) . . .
93(5) . . .
94(5) . . .
104(5) . . .
98(5) . . .
88(5) . . .
74(4) . . .
90(5) . . .
102(5) . . .
90(5) . . .
99(5) . . .
103(5) . . .
85(5) . . .
99(5) . . .
79(5) . . .
92(5) . . .
99(5) . . .
91(5) . . .
95(5) . . .
82(5) . . .
89(5) . . .
82(5) . . .
88(5) . . .
88(5) . . .
95(5) . . .
96(5) . . .
83(5) . . .
89(5) . . .
100(5) . . .
103(5) . . .
90(5) . . .
89(5) . . .
91(5) . . .
68(4) . . .
91(5) . . .
87(5) . . .
93(5) . . .
86(5) . . .
78(5) . . .
97(5) . . .
101(5) . . .
93(5) . . .
93(5) . . .
96(6) . . .
79(5) . . .
90(5) . . .
98(5) . . .
89(5) . . .
95(5) . . .
89(5) . . .
98(5) . . .
103(5) . . .
87(5) . . .
91(5) . . .
99(5) . . .
91(5) . . .
85(5) . . .
90(5) . . .
87(5) . . .
89(5) . . .
91(5) . . .
100(5) . . .
84(5) . . .
98(5) . . .
86(5) . . .
74(4) . . .
91(5) . . .
88(5) . . .
95(5) . . .
81(5) . . .
91(5) . . .
92(5) . . .
84(5) . . .
103(6) . . .
87(5) . . .
88(5) . . .
95(5) . . .
103(5) . . .
105(5) . . .
78(5) . . .
79(5) . . .
87(5) . . .
101(5) . . .
95(5) . . .
88(5) . . .
97(5) . . .
94(5) . . .
101(6) . . .
91(5) . . .
95(5) . . .
96(5) . . .
93(5) . . .
89(5) . . .
82(5) . . .
93(5) . . .
89(5) . . .
98(5) . . .
97(6) . . .
83(5) . . .
78(5) . . .
86(5) . . .
94(5) . . .
92(5) . . .
92(5) . . .
85(5) . . .
79(5) . . .
89(5) . . .
83(5) . . .
78(5) . . .
92(5) . . .
82(5) . . .
93(5) . . .
85(5) . . .
83(5) . . .
92(5) . . .
78(5) . . .
85(5) . . .
86(5) . . .
88(5) . . .
85(5) . . .
88(5) . . .
92(5) . . .
86(5) . . .
87(5) . . .
92(5) . . .
88(5) . . .
86(5) . . .
87(5) . . .
90(5) . . .
93(5) . . .
85(5) . . .
98(5) . . .
104(6) . . .
98(5) . . .
88(5) . . .
87(5) . . .
96(5) . . .
98(5) . . .
94(5) . . .
88(5) . . .
89(5) . . .
91(5) . . .
83(5) . . .
80(5) . . .
87(5) . . .
85(5) . . .
74(5) . . .
87(5) . . .
90(5) . . .
79(5) . . .
85(5) . . .
85(5) . . .
75(5) . . .
82(5) . . .
89(5) . . .
90(5) . . .
88(5) . . .
85(5) . . .
83(5) . . .
75(5) . . .
94(5) . . .
103(6) . . .
77(5) . . .
87(5) . . .
96(5) . . .
87(5) . . .
83(5) . . .
78(5) . . .
90(5) . . .
86(5) . . .
83(5) . . .
82(5) . . .
84(5) . . .
80(5) . . .
75(5) . . .
93(5) . . .
92(5) . . .
88(5) . . .
80(5) . . .
82(5) . . .
91(5) . . .
85(5) . . .
93(5) . . .
87(5) . . .
94(6) . . .
75(5) . . .
97(5) . . .
100(5) . . .
100(5) . . .
100(5) . . .
100(5) . . .
90(5) . . .
89(5) . . .
94(5) . . .
97(5) . . .
84(5) . . .
80(5) . . .
85(5) . . .
84(5) . . .
90(5) . . .
93(5) . . .
82(5) . . .
87(5) . . .
92(5) . . .
92(5) . . .
87(5) . . .
91(5) . . .
87(5) . . .
89(5) . . .
81(5) . . .
79(5) . . .
85(5) . . .
81(5) . . .
103(5) . . .
81(5) . . .
83(5) . . .
84(5) . . .
85(5) . . .
83(5) . . .
86(5) . . .
87(5) . . .
98(6) . . .
82(5) . . .
84(5) . . .
91(5) . . .
98(5) . . .
93(5) . . .
80(5) . . .
83(5) . . .
89(5) . . .
91(5) . . .
88(5) . . .
83(5) . . .
97(5) . . .
83(5) . . .
85(5) . . .
95(5) . . .
86(5) . . .
86(5) . . .
90(5) . . .
87(5) . . .
82(5) . . .
85(5) . . .
85(5) . . .
95(5) . . .
87(5) . . .
98(5) . . .
99(5) . . .
104(5) . . .
78(5) . . .
82(5) . . .
86(5) . . .
90(5) . . .
95(5) . . .
96(5) . . .
88(5) . . .
92(5) . . .
89(5) . . .
79(5) . . .
85(5) . . .
86(5) . . .
95(5) . . .
89(5) . . .
88(5) . . .
79(5) . . .
88(5) . . .
86(5) . . .
100(5) . . .
91(5) . . .
78(5) . . .
78(5) . . .
92(5) . . .
93(5) . . .
93(5) . . .
97(5) . . .
89(5) . . .
76(5) . . .
79(5) . . .
77(5) . . .
71(4) . . .
76(5) . . .
89(5) . . .
86(5) . . .
85(5) . . .
80(5) . . .
90(5) . . .
89(5) . . .
76(5) . . .
76(5) . . .
88(5) . . .
82(5) . . .
87(5) . . .
90(5) . . .
90(5) . . .
91(5) . . .
81(5) . . .
83(5) . . .
74(5) . . .
97(6) . . .
83(5) . . .
87(5) . . .
81(5) . . .
86(5) . . .
89(5) . . .
87(5) . . .
89(5) . . .
100(5) . . .
93(5) . . .
90(5) . . .
91(5) . . .
86(5) . . .
106(5) . . .
93(5) . . .
90(5) . . .
88(5) . . .
89(5) . . .
85(5) . . .
96(5) . . .
105(6) . . .
82(5) . . .
76(5) . . .
87(5) . . .
74(5) . . .
76(5) . . .
84(5) . . .
90(5) . . .
89(5) . . .
76(5) . . .
87(5) . . .
92(5) . . .
90(5) . . .
86(5) . . .
79(5) . . .
92(5) . . .
88(5) . . .
90(5) . . .
85(5) . . .
96(5) . . .
97(5) . . .
81(5) . . .
99(5) . . .
97(6) . . .
96(6) . . .
80(5) . . .
98(5) . . .
99(5) . . .
102(5) . . .
89(5) . . .
88(5) . . .
86(5) . . .
97(5) . . .
88(5) . . .
78(5) . . .
93(5) . . .
78(5) . . .
92(5) . . .
84(5) . . .
79(5) . . .
92(5) . . .
75(4) . . .
97(5) . . .
98(5) . . .
95(5) . . .
83(5) . . .
83(5) . . .
94(5) . . .
79(5) . . .
83(5) . . .
80(5) . . .
79(5) . . .
79(5) . . .
84(5) . . .
87(5) . . .
95(5) . . .
104(5) . . .
86(5) . . .
73(4) . . .
80(5) . . .
82(5) . . .
87(5) . . .
99(5) . . .
83(5) . . .
84(5) . . .
91(5) . . .
105(5) . . .
76(5) . . .
100(6) . . .
86(5) . . .
87(5) . . .
93(5) . . .
86(5) . . .
91(5) . . .
94(5) . . .
90(5) . . .
105(5) . . .
70(4) . . .
85(5) . . .
79(5) . . .
92(5) . . .
72(4) . . .
82(5) . . .
79(5) . . .
88(5) . . .
80(5) . . .
86(5) . . .
85(5) . . .
96(5) . . .
98(5) . . .
85(5) . . .
78(5) . . .
101(5) . . .
70(4) . . .
93(5) . . .
98(5) . . .
87(5) . . .
75(5) . . .
88(5) . . .
86(5) . . .
90(5) . . .
101(5) . . .
89(5) . . .
105(6) . . .
87(5) . . .
76(5) . . .
95(5) . . .
79(5) . . .
85(5) . . .
70(5) . . .
89(5) . . .
94(5) . . .
86(5) . . .
82(5) . . .
95(5) . . .
87(5) . . .
77(5) . . .
87(5) . . .
86(5) . . .
92(5) . . .
81(5) . . .
79(5) . . .
89(5) . . .
82(5) . . .
83(5) . . .
79(5) . . .
72(5) . . .
92(5) . . .
77(5) . . .
79(5) . . .
85(5) . . .
89(5) . . .
96(6) . . .
82(5) . . .
81(5) . . .
96(5) . . .
86(5) . . .
80(5) . . .
88(5) . . .
79(5) . . .
82(5) . . .
87(5) . . .
82(5) . . .
96(5) . . .
90(5) . . .
77(5) . . .
82(5) . . .
99(6) . . .
75(5) . . .
90(5) . . .
84(5) . . .
80(5) . . .
80(5) . . .
84(5) . . .
89(5) . . .
78(5) . . .
94(5) . . .
85(5) . . .
78(5) . . .
84(5) . . .
73(5) . . .
91(5) . . .
97(5) . . .
82(5) . . .
88(5) . . .
85(5) . . .
85(5) . . .
85(5) . . .
89(5) . . .
91(5) . . .
83(5) . . .
89(5) . . .
88(5) . . .
89(5) . . .
80(5) . . .
83(5) . . .
109(6) . . .
91(5) . . .
86(5) . . .
88(5) . . .
78(5) . . .
80(5) . . .
90(5) . . .
79(5) . . .
83(5) . . .
87(5) . . .
90(5) . . .
86(5) . . .
88(5) . . .
86(5) . . .
85(5) . . .
89(5) . . .
86(5) . . .
84(5) . . .
100(5) . . .
83(5) . . .
88(5) . . .
94(5) . . .
83(5) . . .
85(5) . . .
88(5) . . .
83(5) . . .
90(5) . . .
84(5) . . .
90(5) . . .
77(5) . . .
82(5) . . .
85(5) . . .
83(5) . . .
85(5) . . .
82(5) . . .
92(5) . . .
92(5) . . .
84(5) . . .
84(5) . . .
84(5) . . .
76(5) . . .
90(5) . . .
87(5) . . .
87(5) . . .
90(5) . . .
89(5) . . .
92(5) . . .
85(5) . . .
79(5) . . .
85(5) . . .
89(5) . . .
94(5) . . .
89(5) . . .
77(5) . . .
74(5) . . .
86(5) . . .
83(5) . . .
96(5) . . .
74(5) . . .
85(5) . . .
87(5) . . .
84(5) . . .
85(5) . . .
99(5) . . .
95(5) . . .
86(5) . . .
82(5) . . .
84(5) . . .
84(5) . . .
93(5) . . .
82(5) . . .
77(5) . . .
86(5) . . .
85(5) . . .
79(5) . . .
98(5) . . .
80(5) . . .
76(5) . . .
86(5) . . .
87(5) . . .
92(5) . . .
68(4) . . .
78(5) . . .
86(5) . . .
86(5) . . .
96(5) . . .
95(5) . . .
73(4) . . .
78(5) . . .
83(5) . . .
93(5) . . .
85(5) . . .
85(5) . . .
89(5) . . .
74(5) . . .
83(5) . . .
82(5) . . .
93(5) . . .
74(5) . . .
77(5) . . .
81(5) . . .
83(5) . . .
90(5) . . .
84(5) . . .
77(5) . . .
87(5) . . .
91(5) . . .
87(5) . . .
86(5) . . .
82(5) . . .
95(5) . . .
91(5) . . .
82(5) . . .
91(5) . . .
92(5) . . .
82(5) . . .
101(5) . . .
79(5) . . .
82(5) . . .
85(5) . . .
77(5) . . .
81(5) . . .
81(5) . . .
78(5) . . .
87(5) . . .
75(5) . . .
95(5) . . .
84(5) . . .
84(5) . . .
86(5) . . .
89(5) . . .
102(5) . . .
84(5) . . .
91(5) . . .
84(5) . . .
91(5) . . .
90(5) . . .
84(5) . . .
84(5) . . .
81(5) . . .
87(5) . . .
85(5) . . .
86(5) . . .
88(5) . . .
98(5) . . .
94(5) . . .
81(5) . . .
88(5) . . .
77(5) . . .
94(5) . . .
81(5) . . .
79(5) . . .
83(5) . . .
97(5) . . .
78(5) . . .
93(5) . . .
82(5) . . .
92(5) . . .
90(5) . . .
77(5) . . .
85(5) . . .
72(4) . . .
89(5) . . .
69(4) . . .
84(5) . . .
93(5) . . .
92(5) . . .
91(5) . . .
87(5) . . .
92(5) . . .
80(5) . . .
85(5) . . .
88(5) . . .
89(5) . . .
73(4) . . .
83(5) . . .
77(5) . . .
78(5) . . .
76(5) . . .
77(5) . . .
77(5) . . .
81(5) . . .
79(5) . . .
87(5) . . .
77(5) . . .
82(5) . . .
96(6) . . .
81(5) . . .
81(5) . . .
90(5) . . .
74(5) . . .
84(5) . . .
81(5) . . .
81(5) . . .
87(5) . . .
80(5) . . .
81(5) . . .
78(5) . . .
81(5) . . .
83(5) . . .
85(5) . . .
77(5) . . .
82(5) . . .
89(5) . . .
83(5) . . .
75(5) . . .
78(5) . . .
82(5) . . .
85(5) . . .
81(5) . . .
84(5) . . .
73(5) . . .
78(5) . . .
85(5) . . .
96(5) . . .
84(5) . . .
89(6) . . .
86(5) . . .
79(5) . . .
82(5) . . .
84(5) . . .
92(5) . . .
88(5) . . .
86(5) . . .
78(5) . . .
77(5) . . .
84(5) . . .
88(5) . . .
86(5) . . .
80(5) . . .
85(5) . . .
85(5) . . .
88(5) . . .
75(5) . . .
94(5) . . .
87(5) . . .
85(5) . . .
93(5) . . .
74(4) . . .
81(5) . . .
91(5) . . .
91(5) . . .
84(5) . . .
76(5) . . .
77(5) . . .
89(5) . . .
82(5) . . .
93(5) . . .
83(5) . . .
95(6) . . .
77(5) . . .
81(5) . . .
71(4) . . .
78(5) . . .
93(5) . . .
81(5) . . .
73(5) . . .
75(5) . . .
80(5) . . .
81(5) . . .
87(5) . . .
81(5) . . .
84(5) . . .
80(5) . . .
76(5) . . .
91(5) . . .
94(5) . . .
90(5) . . .
89(5) . . .
78(5) . . .
83(5) . . .
73(5) . . .
86(5) . . .
81(5) . . .
85(5) . . .
73(5) . . .
82(5) . . .
86(5) . . .
93(5) . . .
95(5) . . .
85(5) . . .
79(5) . . .
83(5) . . .
78(5) . . .
84(5) . . .
78(5) . . .
70(4) . . .
80(5) . . .
75(5) . . .
78(5) . . .
85(5) . . .
81(5) . . .
103(5) . . .
91(5) . . .
98(5) . . .
77(5) . . .
73(5) . . .
82(5) . . .
87(5) . . .
76(5) . . .
77(5) . . .
78(5) . . .
80(5) . . .
79(5) . . .
83(5) . . .
73(5) . . .
81(5) . . .
85(5) . . .
80(5) . . .
77(5) . . .
72(5) . . .
85(5) . . .
86(5) . . .
75(5) . . .
83(5) . . .
85(5) . . .
96(5) . . .
92(5) . . .
71(4) . . .
74(5) . . .
87(5) . . .
88(5) . . .
79(5) . . .
80(5) . . .
89(5) . . .
87(5) . . .
85(5) . . .
82(5) . . .
89(5) . . .
82(5) . . .
81(5) . . .
85(5) . . .
90(5) . . .
87(5) . . .
85(5) . . .
80(5) . . .
80(5) . . .
85(5) . . .
91(5) . . .
79(5) . . .
90(5) . . .
92(5) . . .
77(5) . . .
84(5) . . .
88(5) . . .
79(5) . . .
74(4) . . .
79(5) . . .
78(5) . . .
74(5) . . .
74(4) . . .
71(4) . . .
84(5) . . .
87(5) . . .
86(5) . . .
80(5) . . .
86(5) . . .
90(5) . . .
66(4) . . .
75(5) . . .
89(5) . . .
74(4) . . .
74(4) . . .
86(5) . . .
84(5) . . .
88(5) . . .
76(4) . . .
79(5) . . .
85(5) . . .
87(5) . . .
75(5) . . .
77(5) . . .
81(5) . . .
80(5) . . .
81(5) . . .
75(5) . . .
76(5) . . .
82(5) . . .
74(5) . . .
88(5) . . .
80(5) . . .
86(5) . . .
97(5) . . .
92(5) . . .
88(5) . . .
84(5) . . .
86(5) . . .
75(5) . . .
76(5) . . .
83(5) . . .
87(5) . . .
91(5) . . .
74(5) . . .
76(5) . . .
77(5) . . .
81(5) . . .
81(5) . . .
76(5) . . .
81(5) . . .
85(5) . . .
82(5) . . .
77(5) . . .
76(5) . . .
82(5) . . .
82(5) . . .
81(5) . . .
80(5) . . .
74(5) . . .
82(5) . . .
91(5) . . .
81(5) . . .
85(5) . . .
80(5) . . .
82(5) . . .
84(5) . . .
81(5) . . .
86(5) . . .
69(5) . . .
84(5) . . .
69(4) . . .
77(5) . . .
63(4) . . .
69(4) . . .
73(4) . . .
81(5) . . .
77(5) . . .
69(4) . . .
69(5) . . .
76(5) . . .
80(5) . . .
72(4) . . .
81(5) . . .
74(5) . . .
89(5) . . .
65(4) . . .
79(5) . . .
71(5) . . .
69(4) . . .
81(5) . . .
93(5) . . .
80(5) . . .
65(4) . . .
78(5) . . .
95(5) . . .
85(5) . . .
86(5) . . .
76(5) . . .
83(5) . . .
78(5) . . .
71(4) . . .
75(5) . . .
77(5) . . .
74(5) . . .
89(5) . . .
82(5) . . .
75(5) . . .
76(5) . . .
83(5) . . .
85(5) . . .
66(4) . . .
87(5) . . .
88(5) . . .
88(5) . . .
92(5) . . .
88(5) . . .
78(5) . . .
75(5) . . .
84(5) . . .
89(5) . . .
82(5) . . .
76(5) . . .
75(5) . . .
82(5) . . .
78(5) . . .
68(4) . . .
82(5) . . .
81(5) . . .
90(5) . . .
100(5) . . .
76(5) . . .
78(5) . . .
77(5) . . .
77(5) . . .
87(5) . . .
78(5) . . .
79(5) . . .
83(5) . . .
61(4) . . .
82(5) . . .
76(5) . . .
63(4) . . .
82(5) . . .
72(4) . . .
82(5) . . .
80(5) . . .
90(5) . . .
83(5) . . .
65(4) . . .
81(5) . . .
80(5) . . .
85(5) . . .
72(4) . . .
79(5) . . .
88(5) . . .
91(5) . . .
84(5) . . .
81(5) . . .
90(5) . . .
79(5) . . .
83(5) . . .
78(5) . . .
76(5) . . .
60(4) . . .
72(4) . . .
79(5) . . .
76(5) . . .
74(5) . . .
70(4) . . .
74(4) . . .
78(5) . . .
76(5) . . .
84(5) . . .
88(5) . . .
69(5) . . .
76(5) . . .
79(5) . . .
78(5) . . .
78(5) . . .
78(5) . . .
75(5) . . .
82(5) . . .
71(4) . . .
70(4) . . .
73(4) . . .
81(5) . . .
74(5) . . .
89(5) . . .
88(5) . . .
76(5) . . .
73(5) . . .
82(5) . . .
71(4) . . .
72(4) . . .
69(4) . . .
76(5) . . .
87(5) . . .
74(4) . . .
71(4) . . .
88(5) . . .
78(5) . . .
82(5) . . .
73(4) . . .
72(4) . . .
81(5) . . .
66(4) . . .
73(4) . . .
91(5) . . .
95(5) . . .
86(5) . . .
87(5) . . .
79(5) . . .
80(5) . . .
80(5) . . .
61(4) . . .
73(5) . . .
78(5) . . .
68(4) . . .
79(5) . . .
84(5) . . .
93(6) . . .
76(5) . . .
76(5) . . .
80(5) . . .
68(4) . . .
85(5) . . .
91(5) . . .
79(5) . . .
80(5) . . .
84(5) . . .
76(5) . . .
82(5) . . .
77(5) . . .
87(5) . . .
89(5) . . .
84(5) . . .
86(5) . . .
72(4) . . .
69(4) . . .
80(5) . . .
84(5) . . .
78(5) . . .
86(5) . . .
74(5) . . .
73(5) . . .
73(5) . . .
75(5) . . .
69(4) . . .
65(4) . . .
76(5) . . .
81(5) . . .
88(5) . . .
89(5) . . .
74(5) . . .
83(5) . . .
80(5) . . .
68(4) . . .
81(5) . . .
81(5) . . .
85(5) . . .
65(4) . . .
83(5) . . .
86(5) . . .
75(5) . . .
78(5) . . .
76(5) . . .
80(5) . . .
79(5) . . .
80(5) . . .
86(5) . . .
85(5) . . .
73(4) . . .
83(5) . . .
79(5) . . .
70(5) . . .
66(5) . . .
80(5) . . .
83(5) . . .
76(5) . . .
86(5) . . .
83(5) . . .
83(5) . . .
84(5) . . .
79(5) . . .
82(5) . . .
73(5) . . .
72(4) . . .
92(5) . . .
84(5) . . .
74(5) . . .
73(4) . . .
74(4) . . .
82(5) . . .
75(5) . . .
73(5) . . .
65(4) . . .
79(5) . . .
84(5) . . .
81(5) . . .
69(4) . . .
75(5) . . .
73(4) . . .
73(5) . . .
73(5) . . .
77(5) . . .
77(5) . . .
72(4) . . .
72(5) . . .
76(5) . . .
79(5) . . .
81(5) . . .
81(5) . . .
90(5) . . .
73(5) . . .
71(5) . . .
62(4) . . .
76(4) . . .
85(5) . . .
80(5) . . .
73(5) . . .
81(5) . . .
78(5) . . .
76(5) . . .
82(5) . . .
79(5) . . .
72(4) . . .
78(5) . . .
66(4) . . .
75(5) . . .
76(5) . . .
86(5) . . .
73(5) . . .
72(5) . . .
69(5) . . .
76(5) . . .
74(4) . . .
72(5) . . .
77(5) . . .
81(5) . . .
82(5) . . .
84(5) . . .
81(5) . . .
81(5) . . .
84(5) . . .
75(5) . . .
69(4) . . .
71(4) . . .
76(5) . . .
80(5) . . .
83(5) . . .
71(4) . . .
91(5) . . .
76(5) . . .
75(5) . . .
84(5) . . .
87(5) . . .
75(5) . . .
77(5) . . .
84(5) . . .
88(5) . . .
76(4) . . .
80(5) . . .
72(5) . . .
85(5) . . .
73(4) . . .
82(5) . . .
72(4) . . .
94(6) . . .
71(4) . . .
78(5) . . .
79(5) . . .
77(5) . . .
78(5) . . .
76(5) . . .
71(4) . . .
79(5) . . .
93(5) . . .
84(5) . . .
77(5) . . .
70(4) . . .
76(5) . . .
76(5) . . .
88(5) . . .
81(5) . . .
83(5) . . .
74(5) . . .
80(5) . . .
71(5) . . .
66(4) . . .
83(5) . . .
96(5) . . .
89(5) . . .
76(5) . . .
89(5) . . .
70(4) . . .
83(5) . . .
90(5) . . .
80(5) . . .
74(5) . . .
78(5) . . .
68(4) . . .
99(6) . . .
78(5) . . .
82(5) . . .
73(4) . . .
75(5) . . .
73(5) . . .
82(5) . . .
74(5) . . .
73(4) . . .
69(4) . . .
77(5) . . .
78(5) . . .
71(4) . . .
78(5) . . .
80(5) . . .
75(5) . . .
82(5) . . .
68(4) . . .
71(4) . . .
69(4) . . .
82(5) . . .
78(5) . . .
78(5) . . .
86(5) . . .
85(5) . . .
70(4) . . .
84(5) . . .
75(5) . . .
74(5) . . .
75(5) . . .
77(5) . . .
68(5) . . .
62(4) . . .
70(4) . . .
85(5) . . .
84(5) . . .
75(4) . . .
72(4) . . .
79(5) . . .
84(5) . . .
86(5) . . .
81(5) . . .
81(5) . . .
83(5) . . .
80(5) . . .
91(5) . . .
87(5) . . .
84(5) . . .
68(4) . . .
70(5) . . .
66(4) . . .
85(5) . . .
76(5) . . .
80(5) . . .
84(5) . . .
74(5) . . .
74(5) . . .
71(4) . . .
71(4) . . .
69(4) . . .
83(5) . . .
81(5) . . .
78(5) . . .
81(5) . . .
71(5) . . .
85(5) . . .
85(5) . . .
80(5) . . .
80(5) . . .
88(5) . . .
81(5) . . .
85(5) . . .
79(5) . . .
83(5) . . .
84(5) . . .
78(5) . . .
71(4) . . .
87(5) . . .
77(5) . . .
71(5) . . .
75(5) . . .
74(4) . . .
80(5) . . .
75(5) . . .
79(5) . . .
71(5) . . .
67(4) . . .
83(5) . . .
81(5) . . .
85(5) . . .
96(5) . . .
75(5) . . .
74(5) . . .
71(4) . . .
73(5) . . .
66(4) . . .
74(5) . . .
76(5) . . .
77(5) . . .
88(5) . . .
68(4) . . .
76(5) . . .
82(5) . . .
75(5) . . .
79(5) . . .
85(5) . . .
75(4) . . .
73(5) . . .
76(5) . . .
85(5) . . .
86(5) . . .
84(5) . . .
77(5) . . .
83(5) . . .
87(5) . . .
72(5) . . .
72(4) . . .
88(5) . . .
75(5) . . .
80(5) . . .
88(5) . . .
87(5) . . .
74(5) . . .
76(5) . . .
70(5) . . .
78(5) . . .
83(5) . . .
83(5) . . .
70(5) . . .
86(5) . . .
76(5) . . .
75(4) . . .
77(5) . . .
73(5) . . .
81(5) . . .
82(5) . . .
74(5) . . .
81(5) . . .
74(5) . . .
75(5) . . .
87(5) . . .
69(5) . . .
80(5) . . .
80(5) . . .
70(4) . . .
81(5) . . .
74(5) . . .
76(5) . . .
79(5) . . .
80(5) . . .
69(4) . . .
74(5) . . .
79(5) . . .
77(5) . . .
82(5) . . .
90(5) . . .
72(4) . . .
62(4) . . .
77(5) . . .
79(5) . . .
78(5) . . .
73(5) . . .
70(5) . . .
84(5) . . .
75(4) . . .
77(5) . . .
80(5) . . .
75(5) . . .
76(5) . . .
87(5) . . .
75(5) . . .
87(5) . . .
84(5) . . .
71(5) . . .
74(4) . . .
71(4) . . .
88(5) . . .
81(5) . . .
85(5) . . .
89(5) . . .
79(5) . . .
94(5) . . .
90(5) . . .
80(5) . . .
66(4) . . .
75(5) . . .
84(5) . . .
84(5) . . .
71(5) . . .
76(5) . . .
72(5) . . .
83(5) . . .
76(5) . . .
69(4) . . .
76(4) . . .
81(5) . . .
71(5) . . .
70(4) . . .
92(5) . . .
87(5) . . .
77(5) . . .
78(5) . . .
82(5) . . .
89(5) . . .
77(5) . . .
76(5) . . .
76(5) . . .
73(5) . . .
74(5) . . .
82(5) . . .
84(5) . . .
82(5) . . .
72(5) . . .
86(5) . . .
84(5) . . .
69(4) . . .
77(5) . . .
73(4) . . .
86(5) . . .
79(5) . . .
75(5) . . .
70(5) . . .
72(5) . . .
77(5) . . .
89(5) . . .
78(5) . . .
72(5) . . .
63(4) . . .
78(5) . . .
77(5) . . .
89(5) . . .
78(5) . . .
82(5) . . .
89(5) . . .
77(5) . . .
89(5) . . .
87(5) . . .
72(4) . . .
89(5) . . .
85(5) . . .
82(5) . . .
78(5) . . .
71(4) . . .
91(5) . . .
83(5) . . .
80(5) . . .
87(5) . . .
79(5) . . .
70(4) . . .
75(5) . . .
87(5) . . .
77(5) . . .
73(5) . . .
73(4) . . .
74(5) . . .
69(4) . . .
75(5) . . .
74(4) . . .
78(5) . . .
78(5) . . .
83(5) . . .
70(5) . . .
86(5) . . .
81(5) . . .
82(5) . . .
89(5) . . .
76(5) . . .
89(5) . . .
87(5) . . .
83(5) . . .
72(5) . . .
68(4) . . .
69(4) . . .
72(4) . . .
70(5) . . .
77(5) . . .
79(5) . . .
74(4) . . .
81(5) . . .
78(5) . . .
77(5) . . .
75(5) . . .
75(5) . . .
73(4) . . .
80(5) . . .
71(5) . . .
71(5) . . .
78(5) . . .
77(5) . . .
82(5) . . .
79(5) . . .
74(5) . . .
79(5) . . .
72(4) . . .
75(5) . . .
81(5) . . .
77(5) . . .
79(5) . . .
77(5) . . .
95(5) . . .
77(5) . . .
76(5) . . .
71(4) . . .
79(5) . . .
79(5) . . .
76(5) . . .
70(4) . . .
74(4) . . .
81(5) . . .
70(4) . . .
84(5) . . .
70(5) . . .
74(4) . . .
73(5) . . .
86(5) . . .
80(5) . . .
66(4) . . .
72(4) . . .
84(5) . . .
73(5) . . .
71(5) . . .
80(5) . . .
79(5) . . .
71(4) . . .
82(5) . . .
71(4) . . .
67(4) . . .
79(5) . . .
74(5) . . .
79(5) . . .
72(4) . . .
71(4) . . .
81(5) . . .
82(5) . . .
79(5) . . .
84(5) . . .
76(5) . . .
74(5) . . .
75(5) . . .
75(5) . . .
77(5) . . .
76(5) . . .
88(5) . . .
81(5) . . .
68(4) . . .
77(5) . . .
86(5) . . .
83(5) . . .
81(5) . . .
71(4) . . .
71(4) . . .
77(4) . . .
80(5) . . .
85(5) . . .
85(5) . . .
70(4) . . .
84(5) . . .
72(5) . . .
75(5) . . .
81(5) . . .
69(4) . . .
68(4) . . .
70(5) . . .
75(5) . . .
79(5) . . .
73(4) . . .
80(5) . . .
71(5) . . .
83(5) . . .
91(5) . . .
75(4) . . .
68(4) . . .
83(5) . . .
66(4) . . .
85(5) . . .
93(5) . . .
65(4) . . .
73(5) . . .
65(4) . . .
87(5) . . .
76(5) . . .
84(5) . . .
73(5) . . .
73(5) . . .
64(4) . . .
76(4) . . .
90(5) . . .
75(5) . . .
62(4) . . .
71(5) . . .
62(4) . . .
66(4) . . .
78(5) . . .
80(5) . . .
81(5) . . .
67(4) . . .
74(5) . . .
79(5) . . .
70(4) . . .
72(5) . . .
62(4) . . .
76(5) . . .
69(4) . . .
62(4) . . .
67(4) . . .
75(4) . . .
75(5) . . .
82(5) . . .
82(5) . . .
69(4) . . .
76(5) . . .
81(5) . . .
88(5) . . .
79(5) . . .
75(4) . . .
76(5) . . .
78(5) . . .
77(5) . . .
79(5) . . .
81(5) . . .
88(5) . . .
81(5) . . .
83(5) . . .
87(5) . . .
66(4) . . .
68(4) . . .
79(5) . . .
79(5) . . .
81(5) . . .
82(5) . . .
82(5) . . .
98(6) . . .
67(4) . . .
76(5) . . .
69(4) . . .
65(4) . . .
81(5) . . .
81(5) . . .
74(5) . . .
76(5) . . .
74(5) . . .
74(5) . . .
59(4) . . .
76(5) . . .
75(5) . . .
77(5) . . .
76(5) . . .
77(5) . . .
69(4) . . .
75(4) . . .
72(5) . . .
83(5) . . .
86(5) . . .
80(5) . . .
85(5) . . .
79(5) . . .
69(4) . . .
84(5) . . .
73(4) . . .
73(4) . . .
67(4) . . .
76(5) . . .
77(5) . . .
78(5) . . .
77(5) . . .
71(4) . . .
61(4) . . .
75(5) . . .
66(4) . . .
69(4) . . .
84(5) . . .
75(5) . . .
76(5) . . .
70(4) . . .
79(5) . . .
80(5) . . .
76(5) . . .
76(5) . . .
69(4) . . .
80(5) . . .
79(5) . . .
85(5) . . .
69(5) . . .
74(4) . . .
75(5) . . .
72(5) . . .
83(5) . . .
81(5) . . .
57(4) . . .
71(4) . . .
78(5) . . .
78(5) . . .
65(4) . . .
69(4) . . .
71(5) . . .
74(5) . . .
65(4) . . .
82(5) . . .
64(4) . . .
78(5) . . .
84(5) . . .
69(4) . . .
78(5) . . .
79(5) . . .
78(5) . . .
75(5) . . .
80(5) . . .
89(5) . . .
69(4) . . .
76(5) . . .
76(5) . . .
67(4) . . .
84(5) . . .
69(4) . . .
72(5) . . .
68(4) . . .
80(5) . . .
76(5) . . .
81(5) . . .
71(5) . . .
74(5) . . .
85(5) . . .
99(5) . . .
83(5) . . .
80(5) . . .
81(5) . . .
82(5) . . .
74(4) . . .
79(5) . . .
76(5) . . .
81(5) . . .
78(5) . . .
82(5) . . .
70(5) . . .
74(5) . . .
76(5) . . .
76(5) . . .
80(5) . . .
76(5) . . .
74(5) . . .
69(5) . . .
81(5) . . .
75(5) . . .
72(5) . . .
78(5) . . .
72(5) . . .
78(5) . . .
73(4) . . .
77(5) . . .
67(5) . . .
69(4) . . .
72(5) . . .
73(4) . . .
80(5) . . .
69(5) . . .
77(5) . . .
81(5) . . .
83(5) . . .
84(5) . . .
71(5) . . .
75(5) . . .
72(4) . . .
83(5) . . .
76(5) . . .
88(5) . . .
69(4) . . .
70(4) . . .
76(4) . . .
70(5) . . .
82(5) . . .
66(4) . . .
80(5) . . .
72(4) . . .
75(5) . . .
80(5) . . .
89(5) . . .
79(5) . . .
72(4) . . .
67(4) . . .
83(5) . . .
87(5) . . .
81(5) . . .
66(4) . . .
74(5) . . .
71(5) . . .
74(5) . . .
69(4) . . .
69(4) . . .
78(5) . . .
72(5) . . .
74(5) . . .
67(4) . . .
77(5) . . .
75(5) . . .
73(5) . . .
78(5) . . .
76(4) . . .
65(4) . . .
58(4) . . .
74(5) . . .
74(4) . . .
76(5) . . .
85(5) . . .
90(5) . . .
77(5) . . .
81(5) . . .
81(5) . . .
70(4) . . .
63(4) . . .
61(4) . . .
63(4) . . .
76(5) . . .
76(5) . . .
71(5) . . .
83(5) . . .
86(5) . . .
75(5) . . .
72(4) . . .
75(5) . . .
87(5) . . .
88(5) . . .
79(5) . . .
81(5) . . .
64(4) . . .
83(5) . . .
71(4) . . .
69(4) . . .
72(5) . . .
86(5) . . .
72(4) . . .
80(5) . . .
70(4) . . .
66(4) . . .
78(5) . . .
81(5) . . .
70(4) . . .
71(4) . . .
74(5) . . .
66(4) . . .
76(5) . . .
74(4) . . .
77(5) . . .
64(4) . . .
76(5) . . .
80(5) . . .
72(4) . . .
71(4) . . .
71(5) . . .
59(4) . . .
78(5) . . .
77(5) . . .
80(5) . . .
74(5) . . .
63(4) . . .
78(5) . . .
71(4) . . .
63(4) . . .
90(5) . . .
86(5) . . .
76(5) . . .
76(5) . . .
87(5) . . .
79(5) . . .
80(5) . . .
79(5) . . .
71(4) . . .
84(5) . . .
76(5) . . .
77(5) . . .
78(5) . . .
78(5) . . .
72(5) . . .
61(4) . . .
67(5) . . .
55(4) . . .
75(5) . . .
76(5) . . .
74(5) . . .
75(5) . . .
75(5) . . .
80(5) . . .
73(5) . . .
71(5) . . .
74(5) . . .
68(4) . . .
79(5) . . .
75(5) . . .
78(5) . . .
76(5) . . .
77(5) . . .
74(5) . . .
64(4) . . .
72(5) . . .
64(4) . . .
61(4) . . .
83(5) . . .
66(4) . . .
69(5) . . .
66(4) . . .
80(5) . . .
75(5) . . .
60(4) . . .
71(4) . . .
76(5) . . .
71(4) . . .
81(5) . . .
66(4) . . .
75(5) . . .
74(5) . . .
69(4) . . .
62(4) . . .
54(4) . . .
60(4) . . .
72(5) . . .
75(4) . . .
76(5) . . .
59(4) . . .
71(5) . . .
72(4) . . .
70(4) . . .
67(4) . . .
68(5) . . .
70(5) . . .
72(4) . . .
80(5) . . .
73(5) . . .
67(4) . . .
65(4) . . .
73(4) . . .
80(5) . . .
75(5) . . .
85(5) . . .
65(4) . . .
61(4) . . .
69(4) . . .
61(4) . . .
59(4) . . .
64(4) . . .
74(4) . . .
69(4) . . .
67(4) . . .
66(5) . . .
80(5) . . .
72(4) . . .
62(4) . . .
69(4) . . .
83(5) . . .
65(4) . . .
65(4) . . .
61(4) . . .
67(4) . . .
79(5) . . .
80(5) . . .
75(5) . . .
59(4) . . .
86(5) . . .
84(5) . . .
68(4) . . .
69(4) . . .
71(5) . . .
71(5) . . .
73(4) . . .
70(4) . . .
68(4) . . .
68(4) . . .
75(5) . . .
72(5) . . .
71(4) . . .
75(4) . . .
77(5) . . .
83(5) . . .
74(5) . . .
68(4) . . .
79(5) . . .
65(4) . . .
77(5) . . .
75(5) . . .
71(4) . . .
70(4) . . .
76(5) . . .
79(5) . . .
75(5) . . .
78(5) . . .
94(5) . . .
75(5) . . .
81(5) . . .
70(4) . . .
73(4) . . .
75(5) . . .
68(5) . . .
79(5) . . .
89(5) . . .
70(4) . . .
63(4) . . .
62(4) . . .
72(5) . . .
81(5) . . .
81(5) . . .
63(4) . . .
71(5) . . .
79(5) . . .
71(5) . . .
79(5) . . .
72(5) . . .
62(4) . . .
67(4) . . .
81(5) . . .
75(5) . . .
69(5) . . .
67(4) . . .
75(5) . . .
74(5) . . .
67(4) . . .
72(5) . . .
81(5) . . .
75(5) . . .
73(4) . . .
81(5) . . .
80(5) . . .
72(5) . . .
78(5) . . .
69(4) . . .
74(5) . . .
66(4) . . .
70(4) . . .
66(4) . . .
74(4) . . .
83(5) . . .
75(5) . . .
71(4) . . .
81(5) . . .
68(4) . . .
72(4) . . .
85(5) . . .
72(4) . . .
73(5) . . .
66(4) . . .
91(5) . . .
74(5) . . .
70(5) . . .
65(4) . . .
71(4) . . .
72(4) . . .
80(5) . . .
70(5) . . .
65(4) . . .
73(4) . . .
72(5) . . .
74(5) . . .
69(4) . . .
70(4) . . .
88(5) . . .
75(5) . . .
72(4) . . .
76(5) . . .
74(5) . . .
69(4) . . .
64(4) . . .
79(5) . . .
68(4) . . .
70(4) . . .
73(5) . . .
68(4) . . .
85(5) . . .
74(5) . . .
71(4) . . .
72(4) . . .
74(5) . . .
80(5) . . .
78(5) . . .
72(4) . . .
70(4) . . .
71(4) . . .
73(5) . . .
74(5) . . .
67(4) . . .
81(5) . . .
70(4) . . .
64(5) . . .
83(5) . . .
63(4) . . .
69(4) . . .
64(4) . . .
76(5) . . .
78(5) . . .
84(5) . . .
72(4) . . .
67(4) . . .
74(5) . . .
71(4) . . .
82(5) . . .
77(5) . . .
87(5) . . .
72(5) . . .
85(5) . . .
63(4) . . .
68(4) . . .
84(5) . . .
70(4) . . .
76(5) . . .
75(5) . . .
78(5) . . .
59(4) . . .
72(5) . . .
59(4) . . .
67(4) . . .
77(5) . . .
77(5) . . .
66(4) . . .
76(5) . . .
75(5) . . .
76(5) . . .
66(4) . . .
80(5) . . .
68(4) . . .
61(4) . . .
67(4) . . .
74(5) . . .
65(4) . . .
75(5) . . .
69(4) . . .
70(4) . . .
80(5) . . .
78(5) . . .
69(4) . . .
79(5) . . .
69(4) . . .
71(5) . . .
77(5) . . .
63(4) . . .
69(4) . . .
77(5) . . .
67(4) . . .
67(5) . . .
65(4) . . .
64(4) . . .
75(5) . . .
76(5) . . .
84(5) . . .
74(4) . . .
78(5) . . .
72(5) . . .
60(4) . . .
73(5) . . .
68(4) . . .
62(4) . . .
74(5) . . .
67(4) . . .
71(4) . . .
68(4) . . .
69(4) . . .
69(5) . . .
77(5) . . .
73(4) . . .
77(5) . . .
69(4) . . .
73(5) . . .
73(5) . . .
73(4) . . .
74(5) . . .
72(5) . . .
61(4) . . .
73(5) . . .
63(4) . . .
68(4) . . .
81(5) . . .
79(5) . . .
65(4) . . .
78(5) . . .
80(5) . . .
75(5) . . .
72(5) . . .
69(5) . . .
72(4) . . .
73(5) . . .
65(4) . . .
69(5) . . .
62(4) . . .
78(5) . . .
64(4) . . .
62(4) . . .
64(4) . . .
54(4) . . .
74(4) . . .
75(5) . . .
83(5) . . .
77(5) . . .
70(4) . . .
69(4) . . .
73(5) . . .
69(4) . . .
66(4) . . .
61(4) . . .
76(5) . . .
56(4) . . .
73(5) . . .
72(5) . . .
73(4) . . .
71(4) . . .
71(4) . . .
57(4) . . .
78(5) . . .
61(4) . . .
68(4) . . .
73(5) . . .
67(5) . . .
64(4) . . .
66(4) . . .
81(5) . . .
63(4) . . .
74(5) . . .
77(5) . . .
73(4) . . .
76(5) . . .
69(4) . . .
76(5) . . .
74(5) . . .
66(4) . . .
59(4) . . .
79(5) . . .
68(5) . . .
80(5) . . .
69(4) . . .
82(5) . . .
76(5) . . .
85(5) . . .
78(5) . . .
80(5) . . .
65(4) . . .
68(4) . . .
79(5) . . .
66(4) . . .
71(4) . . .
77(5) . . .
72(4) . . .
59(4) . . .
77(5) . . .
74(4) . . .
75(5) . . .
67(4) . . .
81(5) . . .
76(5) . . .
81(5) . . .
75(5) . . .
62(4) . . .
66(4) . . .
64(4) . . .
75(4) . . .
81(5) . . .
73(5) . . .
67(4) . . .
78(5) . . .
67(4) . . .
59(4) . . .
66(4) . . .
74(5) . . .
76(5) . . .
72(4) . . .
76(5) . . .
75(5) . . .
69(5) . . .
81(5) . . .
78(5) . . .
62(4) . . .
66(4) . . .
64(4) . . .
76(5) . . .
72(4) . . .
67(4) . . .
70(5) . . .
80(5) . . .
76(5) . . .
85(5) . . .
69(5) . . .
63(4) . . .
63(4) . . .
64(4) . . .
66(4) . . .
78(5) . . .
72(5) . . .
79(5) . . .
72(4) . . .
72(4) . . .
76(5) . . .
66(4) . . .
63(4) . . .
65(4) . . .
59(4) . . .
71(5) . . .
78(5) . . .
78(5) . . .
73(4) . . .
73(5) . . .
70(4) . . .
71(5) . . .
72(5) . . .
60(4) . . .
66(4) . . .
65(4) . . .
66(4) . . .
75(5) . . .
65(4) . . .
76(5) . . .
70(4) . . .
75(5) . . .
76(5) . . .
62(4) . . .
71(5) . . .
70(5) . . .
74(5) . . .
74(5) . . .
63(4) . . .
58(4) . . .
67(5) . . .
68(4) . . .
77(5) . . .
71(5) . . .
74(5) . . .
64(4) . . .
60(4) . . .
70(4) . . .
64(4) . . .
69(5) . . .
70(5) . . .
61(4) . . .
75(4) . . .
69(4) . . .
61(4) . . .
83(5) . . .
65(4) . . .
67(4) . . .
76(5) . . .
74(5) . . .
58(4) . . .
67(5) . . .
72(4) . . .
76(5) . . .
63(4) . . .
69(4) . . .
70(4) . . .
72(4) . . .
79(5) . . .
64(4) . . .
66(4) . . .
64(4) . . .
66(4) . . .
75(5) . . .
59(4) . . .
63(4) . . .
59(4) . . .
58(4) . . .
55(4) . . .
61(4) . . .
64(4) . . .
73(4) . . .
65(4) . . .
58(4) . . .
78(5) . . .
69(4) . . .
70(4) . . .
78(5) . . .
71(5) . . .
70(5) . . .
72(5) . . .
73(5) . . .
68(4) . . .
67(5) . . .
70(5) . . .
71(4) . . .
69(4) . . .
79(5) . . .
73(5) . . .
75(5) . . .
77(5) . . .
76(5) . . .
62(4) . . .
74(5) . . .
80(5) . . .
72(5) . . .
85(5) . . .
69(4) . . .
76(5) . . .
77(5) . . .
70(5) . . .
75(5) . . .
71(4) . . .
65(4) . . .
63(4) . . .
66(4) . . .
74(4) . . .
75(5) . . .
84(5) . . .
70(4) . . .
73(5) . . .
75(5) . . .
66(4) . . .
75(5) . . .
71(4) . . .
57(4) . . .
61(4) . . .
67(4) . . .
54(4) . . .
59(4) . . .
54(4) . . .
76(5) . . .
76(5) . . .
62(4) . . .
58(4) . . .
64(4) . . .
65(4) . . .
71(5) . . .
55(4) . . .
60(4) . . .
69(4) . . .
73(5) . . .
69(4) . . .
73(5) . . .
66(4) . . .
59(4) . . .
70(4) . . .
78(5) . . .
74(5) . . .
74(5) . . .
67(4) . . .
63(4) . . .
63(5) . . .
68(5) . . .
66(4) . . .
58(4) . . .
58(4) . . .
63(4) . . .
73(5) . . .
58(4) . . .
63(4) . . .
63(4) . . .
70(5) . . .
65(4) . . .
66(4) . . .
78(5) . . .
73(4) . . .
54(4) . . .
67(4) . . .
70(4) . . .
66(4) . . .
71(4) . . .
52(4) . . .
71(5) . . .
72(5) . . .
62(4) . . .
66(4) . . .
64(4) . . .
72(5) . . .
65(4) . . .
71(4) . . .
56(4) . . .
67(5) . . .
74(5) . . .
68(4) . . .
70(4) . . .
80(5) . . .
75(5) . . .
74(5) . . .
71(4) . . .
59(4) . . .
62(4) . . .
71(5) . . .
69(4) . . .
61(4) . . .
66(4) . . .
67(5) . . .
79(5) . . .
59(4) . . .
61(4) . . .
77(5) . . .
75(5) . . .
66(5) . . .
59(4) . . .
71(4) . . .
64(4) . . .
67(4) . . .
71(5) . . .
65(4) . . .
69(4) . . .
72(5) . . .
72(5) . . .
72(5) . . .
68(4) . . .
60(4) . . .
79(5) . . .
82(5) . . .
73(5) . . .
64(4) . . .
65(4) . . .
83(5) . . .
67(4) . . .
68(4) . . .
75(5) . . .
72(4) . . .
66(4) . . .
71(5) . . .
74(5) . . .
59(4) . . .
63(4) . . .
66(4) . . .
59(4) . . .
63(4) . . .
56(4) . . .
67(4) . . .
66(4) . . .
62(4) . . .
81(5) . . .
70(4) . . .
62(4) . . .
63(4) . . .
66(5) . . .
62(5) . . .
59(4) . . .
63(4) . . .
66(4) . . .
65(4) . . .
70(5) . . .
69(4) . . .
66(4) . . .
68(4) . . .
77(5) . . .
72(5) . . .
59(4) . . .
70(4) . . .
61(4) . . .
75(5) . . .
62(4) . . .
68(4) . . .
63(4) . . .
68(4) . . .
66(5) . . .
64(4) . . .
74(5) . . .
77(5) . . .
66(4) . . .
57(4) . . .
64(4) . . .
77(5) . . .
62(4) . . .
71(5) . . .
74(5) . . .
75(5) . . .
71(4) . . .
72(5) . . .
74(5) . . .
76(5) . . .
65(4) . . .
63(4) . . .
66(5) . . .
78(5) . . .
73(5) . . .
74(5) . . .
67(4) . . .
65(4) . . .
66(4) . . .
81(5) . . .
68(4) . . .
66(4) . . .
61(4) . . .
66(5) . . .
63(4) . . .
55(4) . . .
67(4) . . .
73(5) . . .
75(5) . . .
61(4) . . .
51(4) . . .
68(4) . . .
77(5) . . .
79(5) . . .
71(5) . . .
71(4) . . .
76(5) . . .
67(4) . . .
71(5) . . .
73(5) . . .
72(4) . . .
73(4) . . .
78(5) . . .
67(4) . . .
67(4) . . .
63(4) . . .
75(5) . . .
68(5) . . .
73(5) . . .
67(4) . . .
65(4) . . .
63(4) . . .
69(4) . . .
63(4) . . .
63(4) . . .
93(5) . . .
77(5) . . .
72(5) . . .
76(5) . . .
66(4) . . .
78(5) . . .
69(5) . . .
62(4) . . .
70(5) . . .
68(4) . . .
71(4) . . .
70(4) . . .
59(4) . . .
76(5) . . .
66(4) . . .
68(4) . . .
70(5) . . .
58(4) . . .
77(5) . . .
77(5) . . .
70(4) . . .
58(4) . . .
74(5) . . .
61(4) . . .
67(4) . . .
82(5) . . .
72(5) . . .
67(5) . . .
62(4) . . .
57(4) . . .
70(4) . . .
70(4) . . .
77(5) . . .
64(4) . . .
63(4) . . .
52(4) . . .
59(4) . . .
60(4) . . .
76(5) . . .
61(4) . . .
60(4) . . .
66(5) . . .
66(4) . . .
77(5) . . .
75(5) . . .
67(4) . . .
68(4) . . .
74(5) . . .
64(4) . . .
60(4) . . .
61(4) . . .
66(5) . . .
63(4) . . .
66(4) . . .
69(4) . . .
78(5) . . .
65(4) . . .
60(4) . . .
63(4) . . .
72(4) . . .
80(5) . . .
70(5) . . .
65(4) . . .
68(4) . . .
60(4) . . .
65(5) . . .
75(5) . . .
73(5) . . .
66(4) . . .
64(4) . . .
61(4) . . .
63(4) . . .
69(5) . . .
64(4) . . .
68(4) . . .
77(5) . . .
66(5) . . .
67(5) . . .
73(4) . . .
75(5) . . .
69(4) . . .
71(5) . . .
80(5) . . .
74(4) . . .
58(4) . . .
64(4) . . .
70(5) . . .
69(4) . . .
75(4) . . .
58(4) . . .
68(4) . . .
64(4) . . .
54(4) . . .
63(4) . . .
68(4) . . .
66(4) . . .
68(4) . . .
65(4) . . .
62(4) . . .
69(4) . . .
67(4) . . .
69(4) . . .
68(4) . . .
66(4) . . .
57(4) . . .
67(4) . . .
61(4) . . .
62(4) . . .
68(4) . . .
70(4) . . .
72(5) . . .
62(4) . . .
67(4) . . .
66(4) . . .
63(4) . . .
61(4) . . .
67(4) . . .
78(5) . . .
79(5) . . .
60(4) . . .
70(5) . . .
69(4) . . .
68(4) . . .
71(4) . . .
74(5) . . .
67(5) . . .
62(4) . . .
65(4) . . .
66(4) . . .
76(5) . . .
60(4) . . .
71(5) . . .
66(4) . . .
69(4) . . .
64(4) . . .
66(5) . . .
67(4) . . .
57(4) . . .
68(4) . . .
64(4) . . .
67(5) . . .
60(4) . . .
61(4) . . .
64(4) . . .
68(5) . . .
70(4) . . .
62(4) . . .
76(5) . . .
78(5) . . .
79(5) . . .
80(5) . . .
58(4) . . .
68(4) . . .
64(5) . . .
69(5) . . .
73(5) . . .
63(4) . . .
59(4) . . .
66(4) . . .
63(4) . . .
69(5) . . .
74(5) . . .
69(4) . . .
62(4) . . .
73(5) . . .
75(5) . . .
70(4) . . .
73(4) . . .
69(4) . . .
65(4) . . .
71(5) . . .
66(4) . . .
57(4) . . .
56(4) . . .
68(5) . . .
66(4) . . .
54(4) . . .
65(4) . . .
65(4) . . .
71(5) . . .
65(4) . . .
61(4) . . .
64(4) . . .
70(4) . . .
71(5) . . .
69(5) . . .
63(4) . . .
65(4) . . .
70(4) . . .
71(5) . . .
65(4) . . .
59(4) . . .
70(4) . . .
66(5) . . .
65(5) . . .
61(4) . . .
58(4) . . .
66(4) . . .
74(5) . . .
72(5) . . .
70(4) . . .
65(4) . . .
70(5) . . .
65(4) . . .
66(4) . . .
63(4) . . .
63(4) . . .
67(4) . . .
67(5) . . .
69(5) . . .
70(4) . . .
61(4) . . .
68(4) . . .
61(4) . . .
58(4) . . .
62(4) . . .
67(4) . . .
67(4) . . .
76(5) . . .
72(4) . . .
66(4) . . .
61(4) . . .
77(5) . . .
66(5) . . .
72(4) . . .
63(4) . . .
68(4) . . .
65(4) . . .
58(4) . . .
63(4) . . .
70(4) . . .
55(4) . . .
71(5) . . .
53(4) . . .
70(5) . . .
59(4) . . .
65(4) . . .
67(4) . . .
62(4) . . .
76(5) . . .
63(4) . . .
75(4) . . .
80(5) . . .
74(5) . . .
68(4) . . .
65(4) . . .
74(4) . . .
63(4) . . .
64(4) . . .
54(4) . . .
71(4) . . .
66(4) . . .
52(4) . . .
63(4) . . .
77(5) . . .
76(5) . . .
62(4) . . .
72(5) . . .
75(5) . . .
71(4) . . .
56(4) . . .
56(4) . . .
71(5) . . .
65(4) . . .
63(4) . . .
62(4) . . .
73(5) . . .
71(5) . . .
82(5) . . .
59(4) . . .
67(4) . . .
79(5) . . .
75(5) . . .
68(4) . . .
55(4) . . .
57(4) . . .
55(4) . . .
70(5) . . .
78(5) . . .
70(4) . . .
58(4) . . .
62(4) . . .
57(4) . . .
74(5) . . .
63(4) . . .
68(4) . . .
76(5) . . .
69(5) . . .
65(4) . . .
64(4) . . .
63(4) . . .
62(4) . . .
62(4) . . .
61(4) . . .
65(4) . . .
75(5) . . .
71(4) . . .
65(4) . . .
63(4) . . .
65(4) . . .
53(4) . . .
63(4) . . .
64(4) . . .
64(4) . . .
73(4) . . .
67(4) . . .
77(5) . . .
57(4) . . .
61(4) . . .
61(4) . . .
59(4) . . .
64(4) . . .
65(4) . . .
82(5) . . .
59(4) . . .
62(4) . . .
61(4) . . .
73(5) . . .
58(4) . . .
59(4) . . .
76(5) . . .
56(4) . . .
70(5) . . .
73(5) . . .
79(5) . . .
66(4) . . .
74(5) . . .
77(5) . . .
60(4) . . .
75(5) . . .
74(5) . . .
63(5) . . .
65(4) . . .
70(4) . . .
63(4) . . .
69(4) . . .
68(4) . . .
72(5) . . .
71(4) . . .
61(4) . . .
56(4) . . .
67(4) . . .
63(4) . . .
56(4) . . .
76(5) . . .
62(4) . . .
70(5) . . .
78(5) . . .
67(4) . . .
77(5) . . .
71(5) . . .
64(4) . . .
74(5) . . .
78(5) . . .
62(4) . . .
65(4) . . .
64(4) . . .
59(4) . . .
71(4) . . .
62(4) . . .
67(4) . . .
63(4) . . .
66(4) . . .
55(4) . . .
61(4) . . .
72(5) . . .
66(4) . . .
66(4) . . .
56(4) . . .
58(4) . . .
65(4) . . .
76(5) . . .
61(4) . . .
64(4) . . .
56(4) . . .
68(5) . . .
67(4) . . .
68(4) . . .
78(5) . . .
68(4) . . .
60(4) . . .
69(4) . . .
56(4) . . .
64(4) . . .
73(5) . . .
60(4) . . .
65(5) . . .
54(4) . . .
63(4) . . .
67(4) . . .
69(5) . . .
70(4) . . .
68(4) . . .
63(4) . . .
59(4) . . .
62(4) . . .
75(5) . . .
69(4) . . .
68(4) . . .
65(4) . . .
73(5) . . .
65(4) . . .
60(4) . . .
63(4) . . .
62(4) . . .
55(4) . . .
67(4) . . .
58(4) . . .
57(4) . . .
63(4) . . .
70(5) . . .
60(4) . . .
70(4) . . .
66(4) . . .
69(4) . . .
73(5) . . .
70(4) . . .
68(4) . . .
57(4) . . .
69(5) . . .
66(4) . . .
71(4) . . .
64(4) . . .
65(4) . . .
64(5) . . .
63(4) . . .
63(4) . . .
60(4) . . .
71(5) . . .
62(4) . . .
72(5) . . .
56(4) . . .
79(5) . . .
71(5) . . .
67(4) . . .
72(5) . . .
69(4) . . .
68(4) . . .
61(4) . . .
62(4) . . .
72(4) . . .
66(4) . . .
71(5) . . .
72(5) . . .
59(4) . . .
65(4) . . .
66(4) . . .
53(4) . . .
75(5) . . .
72(5) . . .
72(5) . . .
61(4) . . .
58(4) . . .
61(4) . . .
63(4) . . .
65(4) . . .
68(4) . . .
61(4) . . .
65(4) . . .
65(4) . . .
61(4) . . .
68(4) . . .
81(5) . . .
63(4) . . .
59(4) . . .
51(4) . . .
59(4) . . .
64(4) . . .
65(4) . . .
59(4) . . .
82(5) . . .
70(4) . . .
61(4) . . .
64(5) . . .
62(4) . . .
77(5) . . .
73(4) . . .
62(4) . . .
78(5) . . .
71(5) . . .
61(4) . . .
69(4) . . .
59(4) . . .
66(4) . . .
68(4) . . .
75(5) . . .
75(5) . . .
62(4) . . .
62(4) . . .
58(4) . . .
70(4) . . .
74(5) . . .
65(4) . . .
70(4) . . .
65(4) . . .
58(4) . . .
66(4) . . .
57(4) . . .
74(5) . . .
66(5) . . .
60(4) . . .
68(5) . . .
68(5) . . .
54(4) . . .
67(4) . . .
53(4) . . .
67(4) . . .
65(4) . . .
70(4) . . .
63(4) . . .
68(4) . . .
60(4) . . .
58(4) . . .
72(5) . . .
74(5) . . .
55(4) . . .
60(4) . . .
71(5) . . .
60(4) . . .
66(4) . . .
80(5) . . .
80(5) . . .
73(5) . . .
68(5) . . .
65(4) . . .
62(4) . . .
76(5) . . .
76(5) . . .
66(4) . . .
66(4) . . .
73(4) . . .
70(4) . . .
63(4) . . .
60(4) . . .
70(4) . . .
58(4) . . .
55(4) . . .
66(4) . . .
66(5) . . .
69(4) . . .
51(4) . . .
69(5) . . .
68(4) . . .
80(5) . . .
69(4) . . .
69(4) . . .
62(4) . . .
61(4) . . .
64(4) . . .
80(5) . . .
65(4) . . .
76(5) . . .
71(5) . . .
71(4) . . .
69(4) . . .
68(4) . . .
71(4) . . .
64(4) . . .
62(4) . . .
59(4) . . .
69(4) . . .
70(4) . . .
51(4) . . .
50(4) . . .
64(4) . . .
68(5) . . .
64(4) . . .
67(4) . . .
75(5) . . .
64(4) . . .
63(4) . . .
73(5) . . .
74(5) . . .
69(4) . . .
67(4) . . .
65(4) . . .
62(4) . . .
58(4) . . .
55(4) . . .
62(4) . . .
61(4) . . .
73(5) . . .
59(4) . . .
69(4) . . .
77(5) . . .
63(4) . . .
60(4) . . .
49(4) . . .
60(4) . . .
68(4) . . .
66(4) . . .
62(4) . . .
64(4) . . .
64(4) . . .
76(5) . . .
66(4) . . .
58(4) . . .
64(4) . . .
59(4) . . .
75(5) . . .
64(4) . . .
74(5) . . .
75(5) . . .
57(4) . . .
61(4) . . .
63(4) . . .
65(5) . . .
54(4) . . .
73(4) . . .
71(4) . . .
63(4) . . .
73(5) . . .
69(5) . . .
56(4) . . .
64(5) . . .
56(4) . . .
63(4) . . .
65(4) . . .
66(4) . . .
65(4) . . .
56(4) . . .
69(5) . . .
66(4) . . .
70(4) . . .
61(4) . . .
60(4) . . .
68(4) . . .
57(4) . . .
69(4) . . .
61(4) . . .
62(5) . . .
69(5) . . .
62(4) . . .
60(4) . . .
62(4) . . .
61(4) . . .
58(4) . . .
62(4) . . .
60(4) . . .
58(4) . . .
68(5) . . .
58(4) . . .
71(4) . . .
62(4) . . .
73(5) . . .
65(4) . . .
71(5) . . .
67(4) . . .
63(4) . . .
61(4) . . .
56(4) . . .
61(4) . . .
55(4) . . .
59(4) . . .
81(5) . . .
64(4) . . .
61(4) . . .
68(4) . . .
70(4) . . .
63(4) . . .
70(5) . . .
69(4) . . .
71(4) . . .
66(4) . . .
48(4) . . .
68(4) . . .
74(5) . . .
66(4) . . .
65(4) . . .
60(4) . . .
57(4) . . .
67(4) . . .
59(4) . . .
61(4) . . .
71(5) . . .
63(4) . . .
59(4) . . .
68(4) . . .
59(4) . . .
58(4) . . .
61(4) . . .
55(4) . . .
69(4) . . .
66(4) . . .
72(5) . . .
67(4) . . .
61(4) . . .
64(4) . . .
70(4) . . .
62(4) . . .
69(5) . . .
68(4) . . .
69(4) . . .
67(4) . . .
76(5) . . .
55(4) . . .
52(4) . . .
56(4) . . .
62(4) . . .
59(4) . . .
67(4) . . .
58(4) . . .
50(4) . . .
57(4) . . .
69(5) . . .
60(4) . . .
68(4) . . .
67(4) . . .
65(5) . . .
54(4) . . .
74(5) . . .
61(4) . . .
56(4) . . .
45(4) . . .
59(4) . . .
79(5) . . .
66(4) . . .
63(4) . . .
63(4) . . .
71(5) . . .
68(4) . . .
70(4) . . .
71(5) . . .
60(4) . . .
75(5) . . .
72(5) . . .
61(4) . . .
61(4) . . .
67(5) . . .
64(4) . . .
64(4) . . .
61(4) . . .
69(5) . . .
68(5) . . .
64(4) . . .
66(4) . . .
75(5) . . .
77(5) . . .
72(5) . . .
62(4) . . .
68(4) . . .
79(5) . . .
61(4) . . .
63(4) . . .
62(4) . . .
73(4) . . .
61(4) . . .
69(5) . . .
69(5) . . .
50(4) . . .
48(4) . . .
75(5) . . .
66(4) . . .
58(4) . . .
64(4) . . .
61(4) . . .
63(4) . . .
56(4) . . .
69(5) . . .
76(5) . . .
57(4) . . .
58(4) . . .
63(4) . . .
67(4) . . .
68(4) . . .
66(4) . . .
62(4) . . .
66(4) . . .
58(4) . . .
66(4) . . .
60(4) . . .
63(4) . . .
63(4) . . .
68(5) . . .
57(4) . . .
66(4) . . .
64(4) . . .
63(5) . . .
64(4) . . .
66(4) . . .
65(4) . . .
72(5) . . .
58(4) . . .
62(4) . . .
69(4) . . .
59(4) . . .
57(4) . . .
67(4) . . .
74(5) . . .
55(4) . . .
66(4) . . .
67(4) . . .
61(4) . . .
68(4) . . .
71(4) . . .
64(4) . . .
62(4) . . .
67(5) . . .
61(4) . . .
60(4) . . .
63(4) . . .
62(4) . . .
74(5) . . .
72(4) . . .
50(4) . . .
55(4) . . .
54(4) . . .
59(4) . . .
72(5) . . .
65(4) . . .
69(4) . . .
58(4) . . .
71(5) . . .
60(4) . . .
56(4) . . .
54(4) . . .
64(4) . . .
49(4) . . .
61(4) . . .
72(4) . . .
54(4) . . .
66(4) . . .
59(4) . . .
55(4) . . .
54(4) . . .
70(5) . . .
65(5) . . .
65(4) . . .
59(4) . . .
67(4) . . .
62(4) . . .
68(5) . . .
62(4) . . .
64(4) . . .
69(4) . . .
61(4) . . .
70(5) . . .
55(4) . . .
70(4) . . .
64(4) . . .
59(4) . . .
71(5) . . .
64(4) . . .
68(4) . . .
66(4) . . .
58(4) . . .
47(4) . . .
54(4) . . .
55(4) . . .
60(4) . . .
65(5) . . .
50(4) . . .
56(4) . . .
57(4) . . .
60(4) . . .
60(4) . . .
61(4) . . .
61(4) . . .
61(4) . . .
67(4) . . .
58(4) . . .
65(4) . . .
68(4) . . .
72(4) . . .
62(4) . . .
64(5) . . .
72(5) . . .
64(4) . . .
62(4) . . .
66(4) . . .
73(5) . . .
63(4) . . .
71(4) . . .
67(4) . . .
68(4) . . .
56(4) . . .
69(5) . . .
63(4) . . .
68(4) . . .
54(4) . . .
64(5) . . .
62(4) . . .
62(4) . . .
67(4) . . .
66(4) . . .
58(4) . . .
59(4) . . .
63(4) . . .
60(4) . . .
62(4) . . .
63(4) . . .
74(5) . . .
60(4) . . .
66(4) . . .
65(4) . . .
70(4) . . .
62(4) . . .
59(4) . . .
59(4) . . .
57(4) . . .
65(4) . . .
64(4) . . .
79(5) . . .
73(5) . . .
67(4) . . .
62(4) . . .
70(4) . . .
56(4) . . .
52(4) . . .
52(4) . . .
61(4) . . .
62(4) . . .
64(4) . . .
55(4) . . .
76(5) . . .
68(5) . . .
65(4) . . .
66(4) . . .
67(4) . . .
65(4) . . .
67(4) . . .
75(5) . . .
54(4) . . .
61(4) . . .
73(5) . . .
73(5) . . .
67(4) . . .
66(4) . . .
68(4) . . .
64(4) . . .
61(4) . . .
66(4) . . .
57(4) . . .
52(4) . . .
61(5) . . .
52(4) . . .
65(4) . . .
70(4) . . .
72(4) . . .
55(4) . . .
58(4) . . .
61(4) . . .
58(4) . . .
57(4) . . .
57(4) . . .
76(5) . . .
64(4) . . .
56(4) . . .
55(4) . . .
57(4) . . .
57(4) . . .
72(4) . . .
62(4) . . .
68(4) . . .
63(4) . . .
63(4) . . .
59(4) . . .
70(4) . . .
65(4) . . .
55(4) . . .
57(4) . . .
65(4) . . .
56(4) . . .
68(5) . . .
63(4) . . .
61(4) . . .
63(4) . . .
58(4) . . .
64(5) . . .
57(4) . . .
58(4) . . .
57(4) . . .
54(4) . . .
55(4) . . .
62(4) . . .
55(4) . . .
73(4) . . .
56(4) . . .
53(4) . . .
66(4) . . .
53(4) . . .
62(4) . . .
52(4) . . .
54(4) . . .
66(4) . . .
81(5) . . .
63(4) . . .
70(4) . . .
67(5) . . .
62(4) . . .
67(4) . . .
68(4) . . .
57(4) . . .
63(4) . . .
59(4) . . .
69(4) . . .
64(4) . . .
64(4) . . .
63(4) . . .
69(5) . . .
75(5) . . .
64(4) . . .
62(4) . . .
60(4) . . .
58(4) . . .
62(4) . . .
69(4) . . .
69(5) . . .
70(5) . . .
61(4) . . .
62(4) . . .
61(4) . . .
66(4) . . .
68(4) . . .
57(4) . . .
59(4) . . .
56(4) . . .
49(4) . . .
58(4) . . .
62(4) . . .
69(4) . . .
65(4) . . .
64(4) . . .
55(4) . . .
59(4) . . .
61(4) . . .
61(4) . . .
56(4) . . .
60(4) . . .
62(4) . . .
61(4) . . .
70(5) . . .
56(4) . . .
54(4) . . .
70(4) . . .
54(4) . . .
63(4) . . .
63(4) . . .
74(5) . . .
54(4) . . .
62(4) . . .
68(4) . . .
60(4) . . .
62(4) . . .
54(4) . . .
67(4) . . .
76(5) . . .
68(4) . . .
72(5) . . .
59(4) . . .
76(5) . . .
60(4) . . .
59(4) . . .
63(4) . . .
64(4) . . .
71(4) . . .
67(4) . . .
61(4) . . .
63(4) . . .
66(4) . . .
67(4) . . .
63(5) . . .
73(5) . . .
57(4) . . .
68(4) . . .
55(4) . . .
57(4) . . .
58(4) . . .
59(4) . . .
75(5) . . .
62(4) . . .
64(4) . . .
66(4) . . .
61(4) . . .
61(4) . . .
64(4) . . .
67(5) . . .
58(4) . . .
55(4) . . .
48(4) . . .
59(4) . . .
58(4) . . .
68(4) . . .
68(4) . . .
66(4) . . .
58(4) . . .
57(4) . . .
79(5) . . .
76(5) . . .
52(4) . . .
56(4) . . .
73(5) . . .
69(4) . . .
47(4) . . .
50(4) . . .
55(4) . . .
59(4) . . .
57(4) . . .
62(4) . . .
57(4) . . .
60(4) . . .
65(4) . . .
59(4) . . .
66(4) . . .
63(4) . . .
63(4) . . .
63(4) . . .
61(4) . . .
70(4) . . .
48(4) . . .
58(4) . . .
55(4) . . .
58(4) . . .
66(4) . . .
64(4) . . .
60(4) . . .
54(4) . . .
54(4) . . .
59(4) . . .
62(4) . . .
66(4) . . .
65(4) . . .
70(4) . . .
66(4) . . .
65(4) . . .
58(4) . . .
61(4) . . .
63(4) . . .
59(4) . . .
53(4) . . .
63(4) . . .
68(4) . . .
65(4) . . .
65(4) . . .
64(4) . . .
67(5) . . .
62(4) . . .
59(4) . . .
59(4) . . .
82(5) . . .
55(4) . . .
68(5) . . .
57(4) . . .
64(4) . . .
52(4) . . .
57(4) . . .
56(4) . . .
61(4) . . .
64(4) . . .
51(4) . . .
55(4) . . .
59(4) . . .
53(4) . . .
55(4) . . .
55(4) . . .
59(4) . . .
61(4) . . .
71(4) . . .
75(5) . . .
64(4) . . .
58(4) . . .
64(4) . . .
58(4) . . .
64(4) . . .
55(4) . . .
64(4) . . .
54(4) . . .
66(4) . . .
66(4) . . .
60(4) . . .
68(5) . . .
61(4) . . .
65(4) . . .
64(4) . . .
61(4) . . .
64(4) . . .
63(4) . . .
63(4) . . .
61(4) . . .
61(4) . . .
60(4) . . .
63(4) . . .
57(4) . . .
67(5) . . .
56(4) . . .
50(4) . . .
66(4) . . .
66(4) . . .
59(4) . . .
47(4) . . .
70(5) . . .
69(4) . . .
64(4) . . .
62(4) . . .
56(4) . . .
59(4) . . .
57(4) . . .
65(4) . . .
67(5) . . .
56(4) . . .
58(4) . . .
59(4) . . .
61(4) . . .
54(4) . . .
66(4) . . .
60(4) . . .
62(4) . . .
49(4) . . .
62(4) . . .
55(4) . . .
57(4) . . .
50(4) . . .
64(4) . . .
63(4) . . .
59(4) . . .
52(4) . . .
56(4) . . .
62(4) . . .
56(4) . . .
67(5) . . .
58(4) . . .
51(4) . . .
50(4) . . .
50(4) . . .
63(4) . . .
61(4) . . .
65(4) . . .
65(4) . . .
58(4) . . .
59(4) . . .
55(4) . . .
65(4) . . .
67(4) . . .
57(4) . . .
67(4) . . .
60(4) . . .
56(4) . . .
61(4) . . .
67(5) . . .
55(4) . . .
53(4) . . .
55(4) . . .
56(4) . . .
68(5) . . .
56(4) . . .
67(4) . . .
56(4) . . .
52(4) . . .
76(5) . . .
52(4) . . .
69(4) . . .
62(4) . . .
67(4) . . .
64(4) . . .
57(4) . . .
67(4) . . .
72(5) . . .
72(5) . . .
63(4) . . .
67(4) . . .
56(4) . . .
53(4) . . .
60(4) . . .
58(4) . . .
70(4) . . .
58(4) . . .
51(4) . . .
59(4) . . .
60(4) . . .
55(4) . . .
70(4) . . .
70(4) . . .
61(4) . . .
72(5) . . .
65(4) . . .
68(4) . . .
63(4) . . .
58(4) . . .
65(4) . . .
74(4) . . .
67(4) . . .
59(4) . . .
65(5) . . .
59(4) . . .
66(4) . . .
70(4) . . .
72(5) . . .
68(5) . . .
54(4) . . .
52(4) . . .
51(4) . . .
57(4) . . .
49(4) . . .
66(5) . . .
64(4) . . .
62(4) . . .
70(5) . . .
68(5) . . .
63(4) . . .
57(4) . . .
64(4) . . .
60(4) . . .
71(5) . . .
60(4) . . .
63(4) . . .
57(4) . . .
55(4) . . .
69(4) . . .
61(4) . . .
72(4) . . .
64(4) . . .
69(5) . . .
59(4) . . .
54(4) . . .
56(4) . . .
62(4) . . .
55(4) . . .
68(5) . . .
64(4) . . .
66(4) . . .
62(4) . . .
54(4) . . .
59(4) . . .
68(4) . . .
61(4) . . .
64(4) . . .
66(4) . . .
66(4) . . .
55(4) . . .
62(4) . . .
60(4) . . .
64(4) . . .
70(4) . . .
66(4) . . .
69(4) . . .
66(4) . . .
61(4) . . .
50(4) . . .
52(4) . . .
54(4) . . .
60(4) . . .
58(4) . . .
61(4) . . .
70(4) . . .
64(4) . . .
52(4) . . .
57(4) . . .
57(4) . . .
49(4) . . .
58(4) . . .
56(4) . . .
61(4) . . .
65(4) . . .
54(4) . . .
61(4) . . .
64(5) . . .
61(4) . . .
55(4) . . .
56(4) . . .
62(4) . . .
55(4) . . .
72(5) . . .
56(4) . . .
63(4) . . .
59(4) . . .
69(4) . . .
64(4) . . .
55(4) . . .
55(4) . . .
58(4) . . .
69(5) . . .
59(4) . . .
57(4) . . .
53(4) . . .
58(4) . . .
49(4) . . .
49(4) . . .
45.1(34) . . .
59(4) . . .
65(4) . . .
60(4) . . .
65(4) . . .
67(4) . . .
57(4) . . .
59(4) . . .
62(4) . . .
59(4) . . .
71(4) . . .
67(4) . . .
67(4) . . .
77(5) . . .
74(4) . . .
60(4) . . .
71(4) . . .
66(4) . . .
61(4) . . .
66(5) . . .
60(4) . . .
65(4) . . .
52(4) . . .
63(4) . . .
57(4) . . .
59(4) . . .
63(4) . . .
63(4) . . .
51(4) . . .
55(4) . . .
61(4) . . .
60(4) . . .
63(4) . . .
56(4) . . .
58(4) . . .
68(4) . . .
55(4) . . .
68(4) . . .
67(4) . . .
59(4) . . .
63(4) . . .
69(5) . . .
51(4) . . .
53(4) . . .
66(4) . . .
61(4) . . .
62(4) . . .
68(5) . . .
55(4) . . .
68(5) . . .
65(4) . . .
45(4) . . .
64(5) . . .
56(4) . . .
66(4) . . .
55(4) . . .
54(4) . . .
50(4) . . .
71(5) . . .
62(4) . . .
63(4) . . .
60(4) . . .
57(4) . . .
66(4) . . .
64(4) . . .
53(4) . . .
71(5) . . .
59(4) . . .
66(4) . . .
60(4) . . .
70(4) . . .
69(4) . . .
59(4) . . .
68(4) . . .
70(4) . . .
80(5) . . .
68(4) . . .
65(4) . . .
56(4) . . .
67(4) . . .
63(4) . . .
58(4) . . .
60(4) . . .
66(4) . . .
59(4) . . .
63(4) . . .
57(4) . . .
57(4) . . .
58(4) . . .
61(4) . . .
68(4) . . .
56(4) . . .
66(4) . . .
59(4) . . .
65(4) . . .
68(4) . . .
62(4) . . .
69(4) . . .
62(4) . . .
53(4) . . .
67(4) . . .
61(4) . . .
71(5) . . .
67(4) . . .
68(4) . . .
68(4) . . .
62(4) . . .
44.4(34) . . .
52(4) . . .
63(4) . . .
54(4) . . .
48(4) . . .
63(4) . . .
62(4) . . .
64(4) . . .
68(4) . . .
64(4) . . .
61(4) . . .
60(4) . . .
74(4) . . .
63(4) . . .
66(4) . . .
65(4) . . .
67(4) . . .
50(4) . . .
59(4) . . .
61(4) . . .
52(4) . . .
62(4) . . .
64(5) . . .
68(4) . . .
51(4) . . .
53(4) . . .
58(4) . . .
63(4) . . .
64(4) . . .
55(4) . . .
52(4) . . .
61(4) . . .
55(4) . . .
56(4) . . .
56(4) . . .
53(4) . . .
61(4) . . .
71(4) . . .
63(4) . . .
62(4) . . .
60(4) . . .
58(4) . . .
61(4) . . .
58(4) . . .
63(4) . . .
58(4) . . .
62(4) . . .
53(4) . . .
55(4) . . .
65(4) . . .
61(4) . . .
61(4) . . .
54(4) . . .
61(4) . . .
58(4) . . .
71(4) . . .
60(4) . . .
53(4) . . .
59(4) . . .
48(4) . . .
65(4) . . .
65(4) . . .
69(5) . . .
67(5) . . .
51(4) . . .
61(4) . . .
70(5) . . .
60(4) . . .
63(4) . . .
58(4) . . .
62(4) . . .
62(4) . . .
57(4) . . .
57(4) . . .
59(4) . . .
62(4) . . .
68(4) . . .
63(4) . . .
65(4) . . .
57(4) . . .
54(4) . . .
63(4) . . .
52(4) . . .
67(4) . . .
60(4) . . .
68(4) . . .
65(4) . . .
53(4) . . .
60(4) . . .
59(4) . . .
70(4) . . .
70(5) . . .
59(4) . . .
50(4) . . .
57(4) . . .
53(4) . . .
59(4) . . .
62(4) . . .
59(4) . . .
67(4) . . .
53(4) . . .
70(5) . . .
55(4) . . .
55(4) . . .
65(4) . . .
51(4) . . .
60(4) . . .
62(4) . . .
56(4) . . .
51(4) . . .
67(4) . . .
52(4) . . .
63(4) . . .
65(4) . . .
54(4) . . .
65(4) . . .
64(4) . . .
49(4) . . .
59(4) . . .
66(4) . . .
55(4) . . .
55(4) . . .
59(4) . . .
67(4) . . .
63(4) . . .
72(5) . . .
61(4) . . .
52(4) . . .
50(4) . . .
61(4) . . .
51(4) . . .
63(5) . . .
63(4) . . .
63(4) . . .
68(4) . . .
74(5) . . .
52(4) . . .
56(4) . . .
64(4) . . .
63(4) . . .
55(4) . . .
54(4) . . .
62(4) . . .
58(4) . . .
53(4) . . .
63(4) . . .
62(4) . . .
65(4) . . .
59(4) . . .
53(4) . . .
60(4) . . .
53(4) . . .
58(4) . . .
64(4) . . .
63(4) . . .
58(4) . . .
58(4) . . .
57(4) . . .
63(4) . . .
63(4) . . .
64(4) . . .
63(4) . . .
73(5) . . .
60(4) . . .
59(4) . . .
58(4) . . .
58(4) . . .
58(4) . . .
59(4) . . .
59(4) . . .
48(4) . . .
61(4) . . .
67(4) . . .
45.8(35) . . .
53(4) . . .
65(4) . . .
64(4) . . .
62(4) . . .
56(4) . . .
59(4) . . .
59(4) . . .
50(4) . . .
54(4) . . .
66(4) . . .
71(4) . . .
65(4) . . .
64(4) . . .
58(4) . . .
58(4) . . .
65(4) . . .
58(4) . . .
58(4) . . .
49(4) . . .
57(4) . . .
62(4) . . .
68(5) . . .
65(4) . . .
61(4) . . .
60(4) . . .
57(4) . . .
59(4) . . .
70(4) . . .
63(4) . . .
67(4) . . .
71(4) . . .
59(4) . . .
69(5) . . .
63(4) . . .
63(4) . . .
57(4) . . .
63(4) . . .
56(4) . . .
50(4) . . .
61(4) . . .
56(4) . . .
54(4) . . .
55(4) . . .
61(4) . . .
62(4) . . .
52(4) . . .
56(4) . . .
60(4) . . .
54(4) . . .
51(4) . . .
59(4) . . .
54(4) . . .
52(4) . . .
68(4) . . .
58(4) . . .
63(4) . . .
69(4) . . .
59(4) . . .
66(4) . . .
62(4) . . .
52(4) . . .
69(5) . . .
60(4) . . .
55(4) . . .
70(5) . . .
55(4) . . .
66(4) . . .
60(4) . . .
70(4) . . .
66(4) . . .
63(5) . . .
63(4) . . .
67(4) . . .
61(4) . . .
59(4) . . .
60(4) . . .
64(4) . . .
57(4) . . .
71(4) . . .
66(4) . . .
76(5) . . .
74(5) . . .
69(4) . . .
59(4) . . .
57(4) . . .
63(4) . . .
62(4) . . .
60(4) . . .
68(4) . . .
69(4) . . .
70(5) . . .
56(4) . . .
64(4) . . .
67(4) . . .
63(4) . . .
57(4) . . .
60(4) . . .
64(4) . . .
65(4) . . .
57(4) . . .
57(4) . . .
58(4) . . .
64(4) . . .
60(4) . . .
59(4) . . .
61(4) . . .
62(4) . . .
52(4) . . .
60(4) . . .
59(4) . . .
58(4) . . .
57(4) . . .
62(4) . . .
58(4) . . .
59(4) . . .
68(4) . . .
52(4) . . .
52(4) . . .
44.2(35) . . .
48(4) . . .
67(4) . . .
67(4) . . .
55(4) . . .
62(4) . . .
56(4) . . .
69(4) . . .
58(4) . . .
61(4) . . .
54(4) . . .
63(4) . . .
69(4) . . .
64(4) . . .
57(4) . . .
61(4) . . .
57(4) . . .
58(4) . . .
51(4) . . .
57(4) . . .
49(4) . . .
62(5) . . .
63(4) . . .
64(4) . . .
50(4) . . .
64(4) . . .
53(4) . . .
54(4) . . .
55(4) . . .
51(4) . . .
54(4) . . .
61(4) . . .
44.6(35) . . .
57(4) . . .
66(4) . . .
66(4) . . .
53(4) . . .
59(4) . . .
52(4) . . .
52(4) . . .
56(4) . . .
63(4) . . .
66(4) . . .
58(4) . . .
67(4) . . .
59(4) . . .
53(4) . . .
57(4) . . .
64(4) . . .
63(4) . . .
60(4) . . .
46(4) . . .
45.2(35) . . .
50(4) . . .
54(4) . . .
62(5) . . .
57(4) . . .
58(4) . . .
55(4) . . .
54(4) . . .
64(5) . . .
57(4) . . .
60(4) . . .
48(4) . . .
51(4) . . .
57(4) . . .
52(4) . . .
53(4) . . .
59(4) . . .
61(4) . . .
66(4) . . .
68(4) . . .
61(4) . . .
60(4) . . .
56(4) . . .
68(5) . . .
53(4) . . .
53(4) . . .
54(4) . . .
69(5) . . .
63(4) . . .
62(4) . . .
63(4) . . .
59(4) . . .
61(4) . . .
50(4) . . .
58(4) . . .
54(4) . . .
57(4) . . .
66(4) . . .
54(4) . . .
64(4) . . .
61(4) . . .
54(4) . . .
54(4) . . .
51(4) . . .
51(4) . . .
58(4) . . .
62(4) . . .
59(4) . . .
63(4) . . .
55(4) . . .
54(4) . . .
62(4) . . .
62(4) . . .
67(4) . . .
65(4) . . .
54(4) . . .
57(4) . . .
54(4) . . .
59(4) . . .
69(4) . . .
60(4) . . .
50(4) . . .
65(4) . . .
65(4) . . .
59(4) . . .
60(4) . . .
65(4) . . .
63(5) . . .
50(4) . . .
49(4) . . .
58(4) . . .
53(4) . . .
63(4) . . .
58(4) . . .
68(4) . . .
60(4) . . .
58(4) . . .
57(4) . . .
56(4) . . .
58(4) . . .
59(4) . . .
58(4) . . .
58(4) . . .
66(4) . . .
55(4) . . .
60(4) . . .
58(4) . . .
63(4) . . .
53(4) . . .
69(4) . . .
67(4) . . .
64(4) . . .
58(4) . . .
56(4) . . .
55(4) . . .
67(4) . . .
66(4) . . .
64(4) . . .
61(4) . . .
65(4) . . .
56(4) . . .
63(5) . . .
70(5) . . .
56(4) . . .
64(4) . . .
66(4) . . .
58(4) . . .
48(4) . . .
69(4) . . .
80(5) . . .
79(5) . . .
57(4) . . .
64(4) . . .
59(4) . . .
56(4) . . .
62(4) . . .
61(4) . . .
68(4) . . .
64(4) . . .
60(4) . . .
56(4) . . .
62(4) . . .
61(4) . . .
72(4) . . .
59(4) . . .
61(4) . . .
62(4) . . .
67(4) . . .
64(4) . . .
57(4) . . .
57(4) . . .
57(4) . . .
61(4) . . .
54(4) . . .
64(4) . . .
71(5) . . .
67(5) . . .
62(4) . . .
66(4) . . .
66(4) . . .
54(4) . . .
61(4) . . .
68(4) . . .
50(4) . . .
72(5) . . .
66(4) . . .
65(4) . . .
55(4) . . .
52(4) . . .
50(4) . . .
53(4) . . .
58(4) . . .
49(4) . . .
59(4) . . .
59(4) . . .
73(5) . . .
51(4) . . .
60(4) . . .
53(4) . . .
62(4) . . .
62(4) . . .
50(4) . . .
53(4) . . .
53(4) . . .
60(4) . . .
63(5) . . .
58(4) . . .
50(4) . . .
53(4) . . .
54(4) . . .
61(4) . . .
53(4) . . .
76(5) . . .
61(4) . . .
60(4) . . .
66(4) . . .
61(4) . . .
50(4) . . .
62(4) . . .
57(4) . . .
56(4) . . .
66(4) . . .
60(4) . . .
66(4) . . .
56(4) . . .
53(4) . . .
57(4) . . .
56(4) . . .
66(4) . . .
64(4) . . .
61(4) . . .
52(4) . . .
55(4) . . .
55(4) . . .
57(4) . . .
64(4) . . .
59(4) . . .
55(4) . . .
54(4) . . .
57(4) . . .
56(4) . . .
58(4) . . .
59(4) . . .
57(4) . . .
58(4) . . .
56(4) . . .
56(4) . . .
67(4) . . .
67(4) . . .
60(4) . . .
62(4) . . .
56(4) . . .
55(4) . . .
65(5) . . .
67(5) . . .
58(4) . . .
71(4) . . .
57(4) . . .
43.1(34) . . .
54(4) . . .
59(4) . . .
54(4) . . .
53(4) . . .
53(4) . . .
56(4) . . .
51(4) . . .
52(4) . . .
44(4) . . .
59(4) . . .
66(5) . . .
57(4) . . .
53(4) . . .
52(4) . . .
64(4) . . .
57(4) . . .
61(4) . . .
63(4) . . .
58(4) . . .
65(4) . . .
67(5) . . .
59(4) . . .
65(4) . . .
53(4) . . .
61(4) . . .
66(4) . . .
64(4) . . .
57(4) . . .
59(4) . . .
61(4) . . .
67(4) . . .
59(4) . . .
64(4) . . .
53(4) . . .
57(4) . . .
46(4) . . .
61(4) . . .
58(4) . . .
64(4) . . .
74(5) . . .
67(4) . . .
55(4) . . .
62(4) . . .
44.9(34) . . .
60(4) . . .
67(5) . . .
61(4) . . .
56(4) . . .
64(4) . . .
47(4) . . .
63(4) . . .
51(4) . . .
61(4) . . .
54(4) . . .
67(5) . . .
64(5) . . .
54(4) . . .
55(4) . . .
61(4) . . .
59(4) . . .
56(4) . . .
57(4) . . .
49(4) . . .
57(4) . . .
51(4) . . .
50(4) . . .
63(4) . . .
64(4) . . .
58(4) . . .
72(5) . . .
57(4) . . .
44.4(35) . . .
55(4) . . .
59(4) . . .
53(4) . . .
61(4) . . .
59(4) . . .
65(5) . . .
70(5) . . .
45(4) . . .
55(4) . . .
53(4) . . .
56(4) . . .
60(4) . . .
52(4) . . .
58(4) . . .
62(4) . . .
57(4) . . .
64(5) . . .
61(4) . . .
61(4) . . .
57(4) . . .
65(4) . . .
62(4) . . .
57(4) . . .
61(4) . . .
54(4) . . .
62(4) . . .
58(4) . . .
63(4) . . .
52(4) . . .
59(4) . . .
56(4) . . .
57(4) . . .
54(4) . . .
53(4) . . .
65(4) . . .
65(4) . . .
56(4) . . .
49(4) . . .
53(4) . . .
61(4) . . .
56(4) . . .
70(5) . . .
62(4) . . .
58(4) . . .
50(4) . . .
60(4) . . .
64(4) . . .
66(4) . . .
58(4) . . .
62(4) . . .
65(4) . . .
56(4) . . .
53(4) . . .
62(4) . . .
60(4) . . .
64(4) . . .
66(4) . . .
43.7(35) . . .
53(4) . . .
61(4) . . .
63(4) . . .
64(4) . . .
76(5) . . .
49(4) . . .
56(4) . . .
58(4) . . .
71(4) . . .
66(4) . . .
53(4) . . .
59(4) . . .
56(4) . . .
71(5) . . .
68(4) . . .
65(4) . . .
62(4) . . .
53(4) . . .
61(4) . . .
56(4) . . .
60(4) . . .
63(4) . . .
62(4) . . .
63(4) . . .
64(4) . . .
58(4) . . .
57(4) . . .
60(4) . . .
75(5) . . .
63(4) . . .
66(4) . . .
52(4) . . .
54(4) . . .
59(4) . . .
57(4) . . .
55(4) . . .
57(4) . . .
66(4) . . .
61(4) . . .
56(4) . . .
58(4) . . .
61(4) . . .
57(4) . . .
52(4) . . .
54(4) . . .
58(4) . . .
51(4) . . .
58(4) . . .
49(4) . . .
52(4) . . .
58(4) . . .
56(4) . . .
58(4) . . .
59(4) . . .
58(4) . . .
50(4) . . .
59(4) . . .
61(4) . . .
61(4) . . .
61(4) . . .
56(4) . . .
59(4) . . .
59(4) . . .
65(4) . . .
63(4) . . .
63(4) . . .
59(4) . . .
48(4) . . .
59(4) . . .
64(4) . . .
56(4) . . .
60(4) . . .
48(4) . . .
55(4) . . .
61(4) . . .
62(4) . . .
62(4) . . .
56(4) . . .
56(4) . . .
61(4) . . .
66(4) . . .
61(4) . . .
43(4) . . .
57(4) . . .
45.7(35) . . .
60(4) . . .
56(4) . . .
52(4) . . .
66(4) . . .
58(4) . . .
65(4) . . .
60(4) . . .
54(4) . . .
60(4) . . .
50(4) . . .
63(4) . . .
61(4) . . .
67(4) . . .
59(4) . . .
56(4) . . .
66(5) . . .
67(5) . . .
65(4) . . .
58(4) . . .
58(4) . . .
42.9(34) . . .
52(4) . . .
59(4) . . .
67(4) . . .
53(4) . . .
47(4) . . .
56(4) . . .
58(4) . . .
55(4) . . .
54(4) . . .
55(4) . . .
57(4) . . .
53(4) . . .
63(4) . . .
47(4) . . .
46(4) . . .
54(4) . . .
55(4) . . .
49(4) . . .
49(4) . . .
53(4) . . .
51(4) . . .
59(4) . . .
56(4) . . .
50(4) . . .
56(4) . . .
47(4) . . .
67(4) . . .
58(4) . . .
57(4) . . .
55(4) . . .
54(4) . . .
55(4) . . .
63(4) . . .
67(5) . . .
60(4) . . .
65(4) . . .
56(4) . . .
53(4) . . .
48(4) . . .
45.2(35) . . .
52(4) . . .
57(4) . . .
62(4) . . .
59(4) . . .
57(4) . . .
62(4) . . .
68(4) . . .
52(4) . . .
51(4) . . .
63(4) . . .
56(4) . . .
65(4) . . .
61(4) . . .
60(4) . . .
63(4) . . .
62(4) . . .
55(4) . . .
61(4) . . .
63(4) . . .
50(4) . . .
55(4) . . .
52(4) . . .
59(4) . . .
58(4) . . .
49(4) . . .
58(4) . . .
63(4) . . .
57(4) . . .
65(5) . . .
64(4) . . .
66(4) . . .
59(4) . . .
64(4) . . .
60(4) . . .
50(4) . . .
62(4) . . .
60(4) . . .
55(4) . . .
60(4) . . .
58(4) . . .
50(4) . . .
71(4) . . .
65(4) . . .
60(4) . . .
58(4) . . .
57(4) . . .
58(4) . . .
72(5) . . .
52(4) . . .
61(4) . . .
64(4) . . .
62(4) . . .
68(5) . . .
60(4) . . .
50(4) . . .
52(4) . . .
58(4) . . .
56(4) . . .
57(4) . . .
53(4) . . .
54(4) . . .
59(4) . . .
60(4) . . .
50(4) . . .
55(4) . . .
61(4) . . .
68(4) . . .
56(4) . . .
69(5) . . .
50(4) . . .
55(4) . . .
63(4) . . .
59(4) . . .
59(4) . . .
69(4) . . .
56(4) . . .
67(5) . . .
57(4) . . .
64(4) . . .
63(4) . . .
57(4) . . .
59(4) . . .
59(4) . . .
59(4) . . .
68(4) . . .
56(4) . . .
59(4) . . .
68(5) . . .
62(4) . . .
55(4) . . .
56(4) . . .
59(4) . . .
62(5) . . .
55(4) . . .
58(4) . . .
66(4) . . .
57(4) . . .
56(4) . . .
62(4) . . .
60(4) . . .
45(4) . . .
56(4) . . .
62(4) . . .
69(4) . . .
63(4) . . .
53(4) . . .
60(4) . . .
46(4) . . .
56(4) . . .
50(4) . . .
51(4) . . .
52(4) . . .
56(4) . . .
74(5) . . .
56(4) . . .
64(4) . . .
65(5) . . .
63(4) . . .
57(4) . . .
59(4) . . .
69(4) . . .
63(5) . . .
65(4) . . .
70(4) . . .
52(4) . . .
58(4) . . .
51(4) . . .
46(4) . . .
53(4) . . .
45.5(35) . . .
55(4) . . .
46(4) . . .
57(4) . . .
52(4) . . .
65(4) . . .
54(4) . . .
59(4) . . .
63(4) . . .
62(4) . . .
51(4) . . .
55(4) . . .
60(4) . . .
58(4) . . .
66(5) . . .
59(4) . . .
56(4) . . .
62(4) . . .
62(4) . . .
51(4) . . .
59(4) . . .
66(4) . . .
63(4) . . .
64(4) . . .
60(4) . . .
55(4) . . .
55(4) . . .
60(4) . . .
71(5) . . .
58(4) . . .
56(4) . . .
62(4) . . .
67(4) . . .
55(4) . . .
61(4) . . .
62(4) . . .
46(4) . . .
61(4) . . .
59(4) . . .
64(4) . . .
52(4) . . .
59(4) . . .
54(4) . . .
52(4) . . .
56(4) . . .
68(5) . . .
53(4) . . .
55(4) . . .
60(4) . . .
58(4) . . .
54(4) . . .
61(4) . . .
63(4) . . .
58(4) . . .
53(4) . . .
62(4) . . .
48(4) . . .
61(4) . . .
69(4) . . .
63(4) . . .
54(4) . . .
58(4) . . .
60(4) . . .
52(4) . . .
56(4) . . .
58(4) . . .
50(4) . . .
48(4) . . .
56(4) . . .
64(4) . . .
63(4) . . .
55(4) . . .
62(4) . . .
61(5) . . .
55(4) . . .
57(4) . . .
58(4) . . .
53(4) . . .
52(4) . . .
55(4) . . .
58(4) . . .
52(4) . . .
61(4) . . .
63(5) . . .
54(4) . . .
73(4) . . .
59(4) . . .
53(4) . . .
58(4) . . .
58(4) . . .
57(4) . . .
54(4) . . .
62(4) . . .
54(4) . . .
46(4) . . .
59(4) . . .
56(4) . . .
60(4) . . .
67(5) . . .
67(4) . . .
48(4) . . .
42.9(34) . . .
49(4) . . .
51(4) . . .
55(4) . . .
51(4) . . .
58(4) . . .
54(4) . . .
50(4) . . .
51(4) . . .
54(4) . . .
55(4) . . .
63(4) . . .
58(4) . . .
58(4) . . .
60(4) . . .
68(4) . . .
66(4) . . .
58(4) . . .
60(4) . . .
53(4) . . .
54(4) . . .
52(4) . . .
46(4) . . .
60(4) . . .
66(4) . . .
59(4) . . .
65(5) . . .
63(4) . . .
63(4) . . .
61(4) . . .
60(4) . . .
57(4) . . .
52(4) . . .
55(4) . . .
60(4) . . .
62(4) . . .
65(4) . . .
64(4) . . .
56(4) . . .
58(4) . . .
64(4) . . .
51(4) . . .
66(5) . . .
57(4) . . .
45.0(35) . . .
58(4) . . .
58(4) . . .
62(4) . . .
48(4) . . .
45(4) . . .
54(4) . . .
54(4) . . .
55(4) . . .
61(4) . . .
49(4) . . .
50(4) . . .
55(4) . . .
58(4) . . .
58(4) . . .
55(4) . . .
62(5) . . .
61(4) . . .
56(4) . . .
64(4) . . .
68(4) . . .
57(4) . . .
62(4) . . .
65(4) . . .
56(4) . . .
60(4) . . .
56(4) . . .
70(4) . . .
69(4) . . .
58(4) . . .
51(4) . . .
62(4) . . .
61(4) . . .
65(4) . . .
57(4) . . .
54(4) . . .
50(4) . . .
52(4) . . .
55(4) . . .
57(4) . . .
57(4) . . .
55(4) . . .
67(5) . . .
65(4) . . .
54(4) . . .
60(4) . . .
66(5) . . .
61(4) . . .
56(4) . . .
64(4) . . .
55(4) . . .
65(5) . . .
65(4) . . .
62(4) . . .
54(4) . . .
54(4) . . .
65(5) . . .
55(4) . . .
55(4) . . .
53(4) . . .
57(4) . . .
65(5) . . .
60(4) . . .
49(4) . . .
58(4) . . .
58(4) . . .
54(4) . . .
61(4) . . .
59(4) . . .
59(4) . . .
60(4) . . .
60(4) . . .
51(4) . . .
55(4) . . .
57(4) . . .
59(4) . . .
58(4) . . .
57(4) . . .
63(4) . . .
47(4) . . .
64(5) . . .
58(4) . . .
49(4) . . .
65(4) . . .
66(4) . . .
52(4) . . .
50(4) . . .
63(4) . . .
67(4) . . .
62(4) . . .
55(4) . . .
60(4) . . .
76(5) . . .
62(4) . . .
61(4) . . .
56(4) . . .
55(4) . . .
58(4) . . .
62(4) . . .
56(4) . . .
58(4) . . .
56(4) . . .
60(4) . . .
56(4) . . .
52(4) . . .
53(4) . . .
59(4) . . .
50(4) . . .
54(4) . . .
50(4) . . .
48(4) . . .
48(4) . . .
59(4) . . .
65(4) . . .
53(4) . . .
67(4) . . .
65(4) . . .
59(4) . . .
54(4) . . .
59(4) . . .
58(4) . . .
59(4) . . .
63(4) . . .
53(4) . . .
58(4) . . .
53(4) . . .
63(4) . . .
57(4) . . .
64(4) . . .
65(5) . . .
52(4) . . .
50(4) . . .
61(4) . . .
56(4) . . .
56(4) . . .
51(4) . . .
53(4) . . .
64(4) . . .
55(4) . . .
61(4) . . .
55(4) . . .
54(4) . . .
63(4) . . .
65(4) . . .
51(4) . . .
63(4) . . .
50(4) . . .
54(4) . . .
61(4) . . .
65(5) . . .
55(4) . . .
53(4) . . .
72(4) . . .
57(4) . . .
46(4) . . .
55(4) . . .
56(4) . . .
63(4) . . .
61(4) . . .
66(4) . . .
60(4) . . .
59(4) . . .
53(4) . . .
57(4) . . .
66(4) . . .
54(4) . . .
61(4) . . .
60(4) . . .
56(4) . . .
51(4) . . .
49(4) . . .
56(4) . . .
47(4) . . .
66(4) . . .
62(4) . . .
54(4) . . .
57(4) . . .
66(4) . . .
56(4) . . .
57(4) . . .
60(4) . . .
52(4) . . .
59(4) . . .
66(4) . . .
61(4) . . .
60(4) . . .
58(4) . . .
66(5) . . .
59(4) . . .
55(4) . . .
62(4) . . .
62(4) . . .
53(4) . . .
54(4) . . .
61(4) . . .
61(4) . . .
54(4) . . .
57(4) . . .
64(5) . . .
63(4) . . .
57(4) . . .
54(4) . . .
56(4) . . .
53(4) . . .
70(5) . . .
62(4) . . .
63(4) . . .
69(5) . . .
71(5) . . .
66(5) . . .
65(4) . . .
56(4) . . .
66(4) . . .
59(4) . . .
46(4) . . .
58(4) . . .
63(4) . . .
67(5) . . .
55(4) . . .
57(4) . . .
59(4) . . .
59(4) . . .
54(4) . . .
53(4) . . .
56(4) . . .
52(4) . . .
61(4) . . .
58(4) . . .
61(4) . . .
49(4) . . .
61(4) . . .
55(4) . . .
57(4) . . .
60(4) . . .
54(4) . . .
53(4) . . .
53(4) . . .
62(5) . . .
60(4) . . .
65(4) . . .
63(4) . . .
55(4) . . .
56(4) . . .
57(4) . . .
56(4) . . .
53(4) . . .
63(4) . . .
59(4) . . .
62(4) . . .
58(4) . . .
62(4) . . .
58(4) . . .
61(4) . . .
64(4) . . .
53(4) . . .
60(4) . . .
63(4) . . .
52(4) . . .
69(4) . . .
53(4) . . .
51(4) . . .
54(4) . . .
61(4) . . .
56(4) . . .
62(4) . . .
65(4) . . .
47(4) . . .
56(4) . . .
67(4) . . .
61(4) . . .
54(4) . . .
51(4) . . .
56(4) . . .
61(4) . . .
58(4) . . .
55(4) . . .
60(4) . . .
57(4) . . .
49(4) . . .
53(4) . . .
48(4) . . .
63(4) . . .
59(4) . . .
59(4) . . .
53(4) . . .
53(4) . . .
51(4) . . .
61(4) . . .
56(4) . . .
57(4) . . .
56(4) . . .
50(4) . . .
64(4) . . .
61(4) . . .
55(4) . . .
58(4) . . .
57(4) . . .
61(4) . . .
45(4) . . .
49(4) . . .
61(4) . . .
63(4) . . .
66(4) . . .
62(4) . . .
46(4) . . .
58(4) . . .
59(4) . . .
58(4) . . .
55(4) . . .
58(4) . . .
52(4) . . .
60(4) . . .
62(4) . . .
48(4) . . .
54(4) . . .
62(4) . . .
56(4) . . .
56(4) . . .
74(4) . . .
59(4) . . .
59(4) . . .
62(4) . . .
53(4) . . .
58(4) . . .
59(4) . . .
53(4) . . .
57(4) . . .
52(4) . . .
54(4) . . .
60(4) . . .
53(4) . . .
54(4) . . .
62(4) . . .
52(4) . . .
52(4) . . .
50(4) . . .
52(4) . . .
60(4) . . .
51(4) . . .
60(4) . . .
70(5) . . .
54(4) . . .
49(4) . . .
46(4) . . .
58(4) . . .
56(4) . . .
56(4) . . .
62(4) . . .
76(5) . . .
53(4) . . .
48(4) . . .
57(4) . . .
57(4) . . .
53(4) . . .
55(4) . . .
58(4) . . .
53(4) . . .
62(4) . . .
50(4) . . .
47(4) . . .
52(4) . . .
54(4) . . .
62(4) . . .
56(4) . . .
55(4) . . .
59(4) . . .
58(4) . . .
57(4) . . .
61(4) . . .
59(4) . . .
53(4) . . .
57(4) . . .
46(4) . . .
64(4) . . .
61(4) . . .
54(4) . . .
60(4) . . .
56(4) . . .
51(4) . . .
47(4) . . .
62(4) . . .
64(4) . . .
54(4) . . .
51(4) . . .
47(4) . . .
51(4) . . .
50(4) . . .
56(4) . . .
69(5) . . .
51(4) . . .
56(4) . . .
68(4) . . .
61(4) . . .
57(4) . . .
49(4) . . .
51(4) . . .
57(4) . . .
49(4) . . .
57(4) . . .
55(4) . . .
50(4) . . .
59(4) . . .
56(4) . . .
61(4) . . .
68(5) . . .
57(4) . . .
58(4) . . .
65(4) . . .
61(4) . . .
54(4) . . .
51(4) . . .
51(4) . . .
44.8(35) . . .
59(4) . . .
54(4) . . .
67(4) . . .
60(4) . . .
52(4) . . .
50(4) . . .
50(4) . . .
54(4) . . .
61(4) . . .
57(4) . . .
57(4) . . .
61(4) . . .
57(4) . . .
52(4) . . .
61(4) . . .
62(4) . . .
55(4) . . .
50(4) . . .
58(4) . . .
60(4) . . .
51(4) . . .
51(4) . . .
54(4) . . .
52(4) . . .
51(4) . . .
58(4) . . .
58(4) . . .
53(4) . . .
59(4) . . .
55(4) . . .
54(4) . . .
59(4) . . .
56(4) . . .
51(4) . . .
58(4) . . .
51(4) . . .
60(4) . . .
65(4) . . .
64(4) . . .
59(4) . . .
65(5) . . .
52(4) . . .
50(4) . . .
48(4) . . .
56(4) . . .
51(4) . . .
41.8(33) . . .
76(4) . . .
51(4) . . .
60(4) . . .
58(4) . . .
57(4) . . .
55(4) . . .
54(4) . . .
68(5) . . .
54(4) . . .
58(4) . . .
56(4) . . .
56(4) . . .
47(4) . . .
61(4) . . .
59(4) . . .
68(4) . . .
55(4) . . .
58(4) . . .
46(4) . . .
55(4) . . .
57(4) . . .
51(4) . . .
52(4) . . .
58(4) . . .
58(4) . . .
50(4) . . .
49(4) . . .
56(4) . . .
54(4) . . .
61(4) . . .
54(4) . . .
55(4) . . .
61(4) . . .
64(4) . . .
57(4) . . .
58(4) . . .
50(4) . . .
53(4) . . .
50(4) . . .
55(4) . . .
55(4) . . .
63(4) . . .
63(4) . . .
54(4) . . .
55(4) . . .
57(4) . . .
59(4) . . .
46(4) . . .
55(4) . . .
54(4) . . .
59(4) . . .
57(4) . . .
63(4) . . .
60(4) . . .
62(4) . . .
57(4) . . .
52(4) . . .
67(5) . . .
47(4) . . .
64(4) . . .
60(4) . . .
60(4) . . .
57(4) . . .
60(4) . . .
52(4) . . .
46(4) . . .
60(4) . . .
64(4) . . .
62(4) . . .
60(4) . . .
50(4) . . .
50(4) . . .
66(5) . . .
54(4) . . .
59(4) . . .
61(4) . . .
62(4) . . .
53(4) . . .
59(4) . . .
55(4) . . .
59(4) . . .
37.8(31) . . .
58(4) . . .
54(4) . . .
56(4) . . .
57(4) . . .
57(4) . . .
59(4) . . .
52(4) . . .
53(4) . . .
58(4) . . .
53(4) . . .
63(4) . . .
50(4) . . .
65(4) . . .
61(4) . . .
56(4) . . .
59(4) . . .
60(4) . . .
58(4) . . .
57(4) . . .
48(4) . . .
52(4) . . .
67(4) . . .
49(4) . . .
55(4) . . .
55(4) . . .
59(4) . . .
59(4) . . .
54(4) . . .
58(4) . . .
51(4) . . .
64(4) . . .
45(4) . . .
60(4) . . .
60(4) . . .
44(4) . . .
47(4) . . .
50(4) . . .
68(4) . . .
64(4) . . .
54(4) . . .
47(4) . . .
47(4) . . .
58(4) . . .
50(4) . . .
54(4) . . .
51(4) . . .
53(4) . . .
45(4) . . .
61(4) . . .
70(4) . . .
58(4) . . .
54(4) . . .
54(4) . . .
55(4) . . .
48(4) . . .
56(4) . . .
52(4) . . .
55(4) . . .
54(4) . . .
44(4) . . .
55(4) . . .
53(4) . . .
52(4) . . .
60(4) . . .
51(4) . . .
52(4) . . .
52(4) . . .
52(4) . . .
55(4) . . .
54(4) . . .
56(4) . . .
51(4) . . .
50(4) . . .
52(4) . . .
52(4) . . .
54(4) . . .
55(4) . . .
60(4) . . .
60(4) . . .
50(4) . . .
64(4) . . .
69(4) . . .
61(4) . . .
62(4) . . .
54(4) . . .
56(4) . . .
54(4) . . .
65(5) . . .
59(4) . . .
48(4) . . .
45.2(35) . . .
56(4) . . .
55(4) . . .
55(4) . . .
61(4) . . .
55(4) . . .
62(4) . . .
51(4) . . .
52(4) . . .
54(4) . . .
60(4) . . .
60(4) . . .
60(5) . . .
59(4) . . .
56(4) . . .
56(4) . . .
50(4) . . .
51(4) . . .
57(4) . . .
58(4) . . .
54(4) . . .
53(4) . . .
57(4) . . .
56(4) . . .
48(4) . . .
61(4) . . .
54(4) . . .
47(4) . . .
60(4) . . .
49(4) . . .
76(5) . . .
50(4) . . .
51(4) . . .
58(4) . . .
54(4) . . .
51(4) . . .
59(4) . . .
52(4) . . .
57(4) . . .
49(4) . . .
54(4) . . .
56(4) . . .
63(4) . . .
59(4) . . .
61(4) . . .
57(4) . . .
55(4) . . .
58(4) . . .
49(4) . . .
50(4) . . .
54(4) . . .
63(4) . . .
59(4) . . .
70(4) . . .
50(4) . . .
59(4) . . .
50(4) . . .
48(4) . . .
54(4) . . .
55(4) . . .
50(4) . . .
54(4) . . .
66(4) . . .
56(4) . . .
55(4) . . .
52(4) . . .
59(4) . . .
51(4) . . .
61(4) . . .
52(4) . . .
58(4) . . .
64(5) . . .
54(4) . . .
50(4) . . .
53(4) . . .
64(5) . . .
54(4) . . .
60(4) . . .
61(4) . . .
67(4) . . .
52(4) . . .
64(4) . . .
57(4) . . .
61(4) . . .
67(4) . . .
63(4) . . .
57(4) . . .
54(4) . . .
58(4) . . .
49(4) . . .
52(4) . . .
53(4) . . .
50(4) . . .
44.5(35) . . .
46(4) . . .
50(4) . . .
48(4) . . .
59(4) . . .
49(4) . . .
54(4) . . .
49(4) . . .
47(4) . . .
48(4) . . .
44(4) . . .
58(4) . . .
62(4) . . .
63(4) . . .
60(4) . . .
58(4) . . .
57(4) . . .
63(5) . . .
56(4) . . .
57(4) . . .
53(4) . . .
51(4) . . .
55(4) . . .
60(4) . . .
62(4) . . .
47(4) . . .
56(4) . . .
49(4) . . .
55(4) . . .
46(4) . . .
55(4) . . .
42.1(34) . . .
50(4) . . .
54(4) . . .
52(4) . . .
57(4) . . .
59(4) . . .
65(4) . . .
65(4) . . .
52(4) . . .
51(4) . . .
49(4) . . .
63(4) . . .
63(5) . . .
50(4) . . .
46(4) . . .
50(4) . . .
52(4) . . .
43.5(35) . . .
48(4) . . .
55(4) . . .
43(4) . . .
51(4) . . .
63(4) . . .
59(4) . . .
48(4) . . .
57(4) . . .
46.6(35) . . .
49(4) . . .
57(4) . . .
49(4) . . .
60(4) . . .
56(4) . . .
61(4) . . .
59(4) . . .
51(4) . . .
47(4) . . .
41.2(34) . . .
56(4) . . .
63(4) . . .
49(4) . . .
50(4) . . .
47(4) . . .
56(4) . . .
56(4) . . .
52(4) . . .
52(4) . . .
42.9(35) . . .
52(4) . . .
61(4) . . .
44.5(35) . . .
49(4) . . .
56(4) . . .
43.3(34) . . .
53(4) . . .
58(4) . . .
49(4) . . .
59(4) . . .
63(4) . . .
49(4) . . .
58(4) . . .
50(4) . . .
51(4) . . .
50(4) . . .
54(4) . . .
53(4) . . .
48(4) . . .
50(4) . . .
56(4) . . .
56(4) . . .
56(4) . . .
54(4) . . .
67(4) . . .
44.4(35) . . .
54(4) . . .
54(4) . . .
61(4) . . .
61(4) . . .
53(4) . . .
41.0(34) . . .
52(4) . . .
56(4) . . .
59(4) . . .
54(4) . . .
55(4) . . .
61(4) . . .
47(4) . . .
48(4) . . .
56(4) . . .
57(4) . . .
56(4) . . .
51(4) . . .
50(4) . . .
52(4) . . .
50(4) . . .
63(5) . . .
50(4) . . .
53(4) . . .
66(4) . . .
57(4) . . .
57(4) . . .
59(4) . . .
50(4) . . .
59(4) . . .
52(4) . . .
49(4) . . .
53(4) . . .
53(4) . . .
54(4) . . .
52(4) . . .
52(4) . . .
61(4) . . .
56(4) . . .
58(4) . . .
47(4) . . .
59(4) . . .
51(4) . . .
48(4) . . .
55(4) . . .
46(4) . . .
47(4) . . .
45(4) . . .
51(4) . . .
60(4) . . .
53(4) . . .
46(4) . . .
50(4) . . .
47(4) . . .
45(4) . . .
48(4) . . .
53(4) . . .
54(4) . . .
53(4) . . .
54(4) . . .
46(4) . . .
46(4) . . .
54(4) . . .
49(4) . . .
49(4) . . .
62(5) . . .
60(4) . . .
47(4) . . .
53(4) . . .
64(4) . . .
52(4) . . .
59(4) . . .
53(4) . . .
61(4) . . .
47(4) . . .
54(4) . . .
56(4) . . .
61(4) . . .
49(4) . . .
59(4) . . .
49(4) . . .
57(4) . . .
54(4) . . .
51(4) . . .
48(4) . . .
57(4) . . .
61(4) . . .
55(4) . . .
50(4) . . .
57(4) . . .
57(4) . . .
54(4) . . .
51(4) . . .
60(4) . . .
54(4) . . .
55(4) . . .
46(4) . . .
55(4) . . .
55(4) . . .
57(4) . . .
49(4) . . .
55(4) . . .
46(4) . . .
56(4) . . .
53(4) . . .
58(4) . . .
50(4) . . .
58(4) . . .
54(4) . . .
49(4) . . .
57(4) . . .
55(4) . . .
54(4) . . .
45(4) . . .
54(4) . . .
52(4) . . .
59(4) . . .
44.7(34) . . .
51(4) . . .
47(4) . . .
41.9(34) . . .
54(4) . . .
43.8(34) . . .
62(4) . . .
58(4) . . .
46(4) . . .
56(4) . . .
41.8(34) . . .
47(4) . . .
53(4) . . .
54(4) . . .
45.7(35) . . .
45.6(35) . . .
53(4) . . .
47(4) . . .
58(4) . . .
47(4) . . .
49(4) . . .
54(4) . . .
52(4) . . .
55(4) . . .
54(4) . . .
49(4) . . .
50(4) . . .
54(4) . . .
46(4) . . .
55(4) . . .
54(4) . . .
45(4) . . .
52(4) . . .
53(4) . . .
49(4) . . .
56(4) . . .
54(4) . . .
64(5) . . .
41.7(34) . . .
52(4) . . .
50(4) . . .
41.1(34) . . .
44(4) . . .
49(4) . . .
71(4) . . .
57(4) . . .
58(4) . . .
52(4) . . .
57(4) . . .
58(4) . . .
51(4) . . .
57(4) . . .
49(4) . . .
55(4) . . .
57(4) . . .
54(4) . . .
42(4) . . .
53(4) . . .
57(4) . . .
57(4) . . .
56(4) . . .
49(4) . . .
57(4) . . .
60(4) . . .
52(4) . . .
57(4) . . .
58(4) . . .
56(4) . . .
53(4) . . .
49(4) . . .
56(4) . . .
56(4) . . .
47(4) . . .
55(4) . . .
59(4) . . .
57(4) . . .
49(4) . . .
60(4) . . .
56(4) . . .
51(4) . . .
49(4) . . .
47.0(35) . . .
63(4) . . .
54(4) . . .
73(5) . . .
57(4) . . .
54(4) . . .
53(4) . . .
60(4) . . .
51(4) . . .
59(4) . . .
53(4) . . .
59(4) . . .
55(4) . . .
53(4) . . .
52(4) . . .
58(4) . . .
52(4) . . .
58(4) . . .
54(4) . . .
55(4) . . .
43.9(34) . . .
47(4) . . .
57(4) . . .
53(4) . . .
60(4) . . .
54(4) . . .
57(4) . . .
44.1(35) . . .
48(4) . . .
62(5) . . .
57(4) . . .
54(4) . . .
45.2(35) . . .
59(4) . . .
48(4) . . .
50(4) . . .
51(4) . . .
54(4) . . .
48(4) . . .
61(4) . . .
52(4) . . .
49(4) . . .
56(4) . . .
57(4) . . .
57(4) . . .
56(4) . . .
55(4) . . .
60(4) . . .
59(4) . . .
53(4) . . .
57(4) . . .
50(4) . . .
62(4) . . .
39.5(32) . . .
43(4) . . .
49(4) . . .
63(4) . . .
58(4) . . .
53(4) . . .
63(4) . . .
53(4) . . .
60(4) . . .
58(4) . . .
55(4) . . .
55(4) . . .
65(4) . . .
57(4) . . .
51(4) . . .
54(4) . . .
41.2(35) . . .
45.6(35) . . .
59(4) . . .
46(4) . . .
49(4) . . .
50(4) . . .
53(4) . . .
56(4) . . .
52(4) . . .
43(4) . . .
49(4) . . .
56(4) . . .
45(4) . . .
51(4) . . .
55(4) . . .
52(4) . . .
51(4) . . .
57(4) . . .
58(4) . . .
59(4) . . .
54(4) . . .
50(4) . . .
49(4) . . .
50(4) . . .
53(4) . . .
57(4) . . .
52(4) . . .
56(4) . . .
49(4) . . .
48(4) . . .
46(4) . . .
53(4) . . .
50(4) . . .
50(4) . . .
46(4) . . .
52(4) . . .
56(4) . . .
54(4) . . .
48(4) . . .
54(4) . . .
48(4) . . .
56(4) . . .
52(4) . . .
53(4) . . .
48(4) . . .
47(4) . . .
50(4) . . .
51(4) . . .
43.8(34) . . .
52(4) . . .
52(4) . . .
47(4) . . .
42.7(35) . . .
50(4) . . .
49(4) . . .
43.8(34) . . .
47(4) . . .
52(4) . . .
56(4) . . .
59(4) . . .
51(4) . . .
53(4) . . .
53(4) . . .
52(4) . . .
51(4) . . .
47(4) . . .
50(4) . . .
58(4) . . .
59(4) . . .
41.0(34) . . .
54(4) . . .
66(4) . . .
48.1(35) . . .
52(4) . . .
46(4) . . .
53(4) . . .
53(4) . . .
50(4) . . .
63(4) . . .
59(4) . . .
53(4) . . .
60(4) . . .
58(4) . . .
52(4) . . .
56(4) . . .
48(4) . . .
55(4) . . .
57(4) . . .
54(4) . . .
63(4) . . .
47(4) . . .
49(4) . . .
53(4) . . .
66(5) . . .
53(4) . . .
50(4) . . .
59(4) . . .
57(4) . . .
47(4) . . .
50(4) . . .
52(4) . . .
54(4) . . .
52(4) . . .
64(4) . . .
51(4) . . .
56(4) . . .
49(4) . . .
59(4) . . .
53(4) . . .
54(4) . . .
52(4) . . .
56(4) . . .
49(4) . . .
47(4) . . .
60(4) . . .
54(4) . . .
51(4) . . .
54(4) . . .
56(4) . . .
55(4) . . .
45.0(35) . . .
43.6(34) . . .
53(4) . . .
58(4) . . .
49(4) . . .
57(4) . . .
57(4) . . .
53(4) . . .
53(4) . . .
54(4) . . .
54(4) . . .
53(4) . . .
53(4) . . .
54(4) . . .
48(4) . . .
51(4) . . .
53(4) . . .
44.9(35) . . .
51(4) . . .
47(4) . . .
53(4) . . .
60(4) . . .
64(4) . . .
55(4) . . .
40.5(33) . . .
47(4) . . .
46(4) . . .
56(4) . . .
69(4) . . .
52(4) . . .
60(4) . . .
55(4) . . .
55(4) . . .
42.5(34) . . .
51(4) . . .
57(4) . . .
55(4) . . .
47(4) . . .
46(4) . . .
52(4) . . .
54(4) . . .
58(5) . . .
49(4) . . .
51(4) . . .
53(4) . . .
61(4) . . .
57(4) . . .
43.8(34) . . .
51(4) . . .
46(4) . . .
54(4) . . .
52(4) . . .
46(4) . . .
43.0(35) . . .
59(4) . . .
50(4) . . .
57(4) . . .
46(4) . . .
47(4) . . .
59(4) . . .
52(4) . . .
52(4) . . .
48(4) . . .
50(4) . . .
59(4) . . .
55(4) . . .
57(4) . . .
48(4) . . .
51(4) . . .
48(4) . . .
49(4) . . .
50(4) . . .
52(4) . . .
57(4) . . .
55(4) . . .
57(4) . . .
40.1(34) . . .
57(4) . . .
51(4) . . .
51(4) . . .
61(4) . . .
50(4) . . .
43.8(34) . . .
47(4) . . .
52(4) . . .
58(4) . . .
53(4) . . .
56(4) . . .
51(4) . . .
51(4) . . .
50(4) . . .
50(4) . . .
55(4) . . .
41.9(34) . . .
46(4) . . .
54(4) . . .
56(4) . . .
41.2(33) . . .
46(4) . . .
51(4) . . .
53(4) . . .
42.8(35) . . .
48(4) . . .
51(4) . . .
61(4) . . .
43.8(35) . . .
50(4) . . .
59(4) . . .
37.2(32) . . .
57(4) . . .
64(4) . . .
43.6(34) . . .
41.5(33) . . .
45.2(35) . . .
49(4) . . .
55(4) . . .
60(4) . . .
62(4) . . .
57(4) . . .
58(4) . . .
53(4) . . .
54(4) . . .
48(4) . . .
57(4) . . .
56(4) . . .
56(4) . . .
54(4) . . .
54(4) . . .
57(4) . . .
54(4) . . .
51(4) . . .
47(4) . . .
45.3(35) . . .
55(4) . . .
55(4) . . .
41.8(33) . . .
54(4) . . .
54(4) . . .
52(4) . . .
52(4) . . .
52(4) . . .
54(4) . . .
57(4) . . .
46(4) . . .
53(4) . . .
55(4) . . .
55(4) . . .
45(4) . . .
54(4) . . .
51(4) . . .
44.2(35) . . .
61(4) . . .
64(4) . . .
44(4) . . .
44(4) . . .
53(4) . . .
52(4) . . .
55(4) . . .
48(4) . . .
55(4) . . .
54(4) . . .
57(4) . . .
49(4) . . .
54(4) . . .
47(4) . . .
51(4) . . .
53(4) . . .
55(4) . . .
52(4) . . .
51(4) . . .
46.4(35) . . .
64(4) . . .
62(4) . . .
49(4) . . .
58(4) . . .
58(4) . . .
61(4) . . .
49(4) . . .
45(4) . . .
53(4) . . .
49(4) . . .
43.6(34) . . .
47(4) . . .
46(4) . . .
42(4) . . .
42.2(34) . . .
59(4) . . .
48(4) . . .
52(4) . . .
52(4) . . .
51(4) . . .
51(4) . . .
68(5) . . .
53(4) . . .
40.5(33) . . .
51(4) . . .
58(4) . . .
52(4) . . .
49(4) . . .
52(4) . . .
58(4) . . .
50(4) . . .
58(4) . . .
53(4) . . .
56(4) . . .
55(4) . . .
49(4) . . .
50(4) . . .
54(4) . . .
56(4) . . .
53(4) . . .
56(4) . . .
51(4) . . .
54(4) . . .
49(4) . . .
41.5(34) . . .
51(4) . . .
54(4) . . .
58(4) . . .
55(4) . . .
45.8(35) . . .
48(4) . . .
38.7(34) . . .
47(4) . . .
55(4) . . .
60(4) . . .
49(4) . . .
52(4) . . .
44.2(35) . . .
45.9(35) . . .
56(4) . . .
60(4) . . .
56(4) . . .
45.2(35) . . .
47(4) . . .
45.8(35) . . .
41.9(34) . . .
49(4) . . .
54(4) . . .
59(4) . . .
48(4) . . .
55(4) . . .
55(4) . . .
50(4) . . .
51(4) . . .
48(4) . . .
55(4) . . .
49(4) . . .
63(4) . . .
56(4) . . .
55(4) . . .
49(4) . . .
49(4) . . .
55(4) . . .
51(4) . . .
61(4) . . .
46.6(35) . . .
46(4) . . .
51(4) . . .
54(4) . . .
55(4) . . .
57(4) . . .
48(4) . . .
52(4) . . .
39.7(33) . . .
54(4) . . .
52(4) . . .
53(4) . . .
51(4) . . .
43.8(34) . . .
43(4) . . .
38.8(33) . . .
54(4) . . .
49(4) . . .
50(4) . . .
54(4) . . .
50(4) . . .
56(4) . . .
44.0(35) . . .
59(4) . . .
60(4) . . .
43(4) . . .
46(4) . . .
47(4) . . .
49(4) . . .
53(4) . . .
52(4) . . .
50(4) . . .
46(4) . . .
58(4) . . .
62(4) . . .
49(4) . . .
56(4) . . .
47(4) . . .
50(4) . . .
58(4) . . .
44(4) . . .
46(4) . . .
44.3(35) . . .
51(4) . . .
48(4) . . .
51(4) . . .
49(4) . . .
42.7(33) . . .
45(4) . . .
51(4) . . .
57(4) . . .
52(4) . . .
50(4) . . .
54(4) . . .
54(4) . . .
54(4) . . .
44(4) . . .
46.0(34) . . .
41.8(34) . . .
50(4) . . .
60(4) . . .
45(4) . . .
48(4) . . .
54(4) . . .
50(4) . . .
52(4) . . .
54(4) . . .
49(4) . . .
59(4) . . .
44(4) . . .
48(4) . . .
52(4) . . .
48(4) . . .
45(4) . . .
47(4) . . .
56(4) . . .
52(4) . . .
55(4) . . .
49(4) . . .
48(4) . . .
45(4) . . .
51(4) . . .
49(4) . . .
47(4) . . .
49(4) . . .
61(4) . . .
52(4) . . .
56(4) . . .
52(4) . . .
46(4) . . .
52(4) . . .
59(4) . . .
58(4) . . .
52(4) . . .
47(4) . . .
48(4) . . .
44.6(35) . . .
50(4) . . .
49(4) . . .
47(4) . . .
43(4) . . .
60(4) . . .
60(4) . . .
49(4) . . .
49(4) . . .
59(4) . . .
57(4) . . .
59(4) . . .
47(4) . . .
63(5) . . .
44(4) . . .
53(4) . . .
46.0(35) . . .
44(4) . . .
48(4) . . .
53(4) . . .
43.1(35) . . .
50(4) . . .
46(4) . . .
50(4) . . .
50(4) . . .
46(4) . . .
48(4) . . .
49(4) . . .
58(4) . . .
51(4) . . .
59(4) . . .
48(4) . . .
50(4) . . .
44.0(34) . . .
50(4) . . .
49(4) . . .
44(4) . . .
58(4) . . .
55(4) . . .
54(4) . . .
44.0(34) . . .
60(4) . . .
50(4) . . .
52(4) . . .
43.4(35) . . .
53(4) . . .
53(4) . . .
46(4) . . .
46(4) . . .
45.3(35) . . .
45(4) . . .
48(4) . . .
63(4) . . .
51(4) . . .
46(4) . . .
58(4) . . .
50(4) . . .
51(4) . . .
51(4) . . .
49(4) . . .
51(4) . . .
50(4) . . .
49(4) . . .
58(4) . . .
43.3(34) . . .
49(4) . . .
51(4) . . .
44(4) . . .
50(4) . . .
41.4(33) . . .
50(4) . . .
48(4) . . .
54(4) . . .
49(4) . . .
45.5(35) . . .
52(4) . . .
53(4) . . .
47(4) . . .
48(4) . . .
57(4) . . .
54(4) . . .
45(4) . . .
58(4) . . .
43.4(34) . . .
54(4) . . .
55(4) . . .
46(4) . . .
39.1(32) . . .
53(4) . . .
46.0(35) . . .
43(4) . . .
47(4) . . .
53(4) . . .
40.2(33) . . .
53(4) . . .
47(4) . . .
50(4) . . .
53(4) . . .
43.9(34) . . .
49(4) . . .
52(4) . . .
42.1(35) . . .
46(4) . . .
46(4) . . .
51(4) . . .
48(4) . . .
54(4) . . .
59(4) . . .
47(4) . . .
48(4) . . .
41.5(34) . . .
43(4) . . .
40.7(33) . . .
39.6(32) . . .
44(4) . . .
43.9(34) . . .
56(4) . . .
46(4) . . .
45(4) . . .
55(4) . . .
42.5(34) . . .
53(4) . . .
51(4) . . .
45.3(35) . . .
58(4) . . .
53(4) . . .
54(4) . . .
55(4) . . .
55(4) . . .
45(4) . . .
49(4) . . .
47(4) . . .
42.1(34) . . .
48(4) . . .
47(4) . . .
55(4) . . .
53(4) . . .
43.8(34) . . .
64(4) . . .
48(4) . . .
49(4) . . .
62(4) . . .
52(4) . . .
54(4) . . .
43.5(35) . . .
53(4) . . .
45(4) . . .
43.5(35) . . .
45.3(35) . . .
57(4) . . .
46(4) . . .
51(4) . . .
54(4) . . .
51(4) . . .
46(4) . . .
52(4) . . .
45(4) . . .
51(4) . . .
45.9(35) . . .
57(4) . . .
55(4) . . .
55(4) . . .
48(4) . . .
47(4) . . .
49(4) . . .
40.4(34) . . .
47(4) . . .
55(4) . . .
58(4) . . .
54(4) . . .
51(4) . . .
47(4) . . .
44.1(34) . . .
41.8(34) . . .
54(4) . . .
42.5(34) . . .
41.9(34) . . .
42.5(34) . . .
53(4) . . .
46(4) . . .
46(4) . . .
40.0(34) . . .
48(4) . . .
48(4) . . .
51(4) . . .
54(4) . . .
64(4) . . .
55(4) . . .
61(4) . . .
50(4) . . .
58(4) . . .
49(4) . . .
53(4) . . .
48(4) . . .
58(5) . . .
57(4) . . .
41.3(34) . . .
48(4) . . .
48(4) . . .
55(4) . . .
55(4) . . .
49(4) . . .
50(4) . . .
45(4) . . .
48(4) . . .
46(4) . . .
57(4) . . .
43.6(35) . . .
51(4) . . .
54(4) . . .
46(4) . . .
49(4) . . .
53(4) . . .
56(4) . . .
61(4) . . .
48(4) . . .
49(4) . . .
43.2(34) . . .
50(4) . . .
53(4) . . .
53(4) . . .
50(4) . . .
47(4) . . .
42.3(33) . . .
47(4) . . .
49(4) . . .
41.1(34) . . .
48(4) . . .
53(4) . . .
60(4) . . .
61(4) . . .
49(4) . . .
43.8(35) . . .
53(4) . . .
48(4) . . .
39.6(33) . . .
45.7(35) . . .
43.6(34) . . .
46(4) . . .
49(4) . . .
54(4) . . .
49(4) . . .
51(4) . . .
44(4) . . .
42(4) . . .
55(4) . . .
42.5(35) . . .
44(4) . . .
51(4) . . .
47(4) . . .
45.1(35) . . .
40.3(33) . . .
44.6(34) . . .
48(4) . . .
50(4) . . .
57(4) . . .
43.9(35) . . .
41.7(35) . . .
46(4) . . .
45(4) . . .
48(4) . . .
53(4) . . .
49(4) . . .
47(4) . . .
48(4) . . .
43.4(35) . . .
48(4) . . .
58(4) . . .
56(4) . . .
51(4) . . .
44.5(35) . . .
40.8(34) . . .
49(4) . . .
53(4) . . .
57(4) . . .
50(4) . . .
54(4) . . .
55(4) . . .
52(4) . . .
45(4) . . .
51(4) . . .
37.6(34) . . .
43(4) . . .
49(4) . . .
53(4) . . .
44(4) . . .
55(4) . . .
49(4) . . .
44(4) . . .
47(4) . . .
56(4) . . .
52(4) . . .
49(4) . . .
48(4) . . .
48(4) . . .
50(4) . . .
40(4) . . .
53(4) . . .
53(4) . . .
45.1(35) . . .
51(4) . . .
45(4) . . .
59(4) . . .
50(4) . . .
51(4) . . .
52(4) . . .
53(4) . . .
46.9(35) . . .
49(4) . . .
54(4) . . .
50(4) . . .
53(4) . . .
47(4) . . .
52(4) . . .
52(4) . . .
51(4) . . .
50(4) . . .
49(4) . . .
39.0(33) . . .
48(4) . . .
43(4) . . .
55(4) . . .
51(4) . . .
44(4) . . .
52(4) . . .
35.3(31) . . .
57(4) . . .
62(4) . . .
55(4) . . .
57(4) . . .
53(4) . . .
56(4) . . .
51(4) . . .
48(4) . . .
49(4) . . .
48(4) . . .
63(5) . . .
45.0(35) . . .
56(4) . . .
50(4) . . .
52(4) . . .
45(4) . . .
60(4) . . .
46.1(35) . . .
53(4) . . .
52(4) . . .
57(4) . . .
49(4) . . .
41.6(34) . . .
54(4) . . .
58(4) . . .
55(4) . . .
60(4) . . .
57(4) . . .
51(4) . . .
58(4) . . .
53(4) . . .
57(4) . . .
52(4) . . .
49(4) . . .
41.1(34) . . .
53(4) . . .
58(4) . . .
45(4) . . .
53(4) . . .
49(4) . . .
54(4) . . .
50(4) . . .
48(4) . . .
54(4) . . .
56(4) . . .
43(4) . . .
51(4) . . .
56(4) . . .
58(4) . . .
47(4) . . .
52(4) . . .
43.6(35) . . .
47(4) . . .
41.6(33) . . .
50(4) . . .
45(4) . . .
54(4) . . .
50(4) . . .
47(4) . . .
54(4) . . .
51(4) . . .
55(4) . . .
45.6(35) . . .
45(4) . . .
44(4) . . .
53(4) . . .
55(4) . . .
53(4) . . .
52(4) . . .
47(4) . . .
46(4) . . .
47(4) . . .
48(4) . . .
44(4) . . .
48(4) . . .
57(4) . . .
51(4) . . .
47(4) . . .
54(4) . . .
50(4) . . .
51(4) . . .
62(4) . . .
52(4) . . .
57(4) . . .
42.3(34) . . .
48(4) . . .
56(4) . . .
52(4) . . .
43(4) . . .
49(4) . . .
55(4) . . .
46(4) . . .
45(4) . . .
51(4) . . .
44(4) . . .
45(4) . . .
28.7(28) . . .
44(4) . . .
52(4) . . .
54(4) . . .
49(4) . . .
52(4) . . .
46(4) . . .
42(4) . . .
50(4) . . .
53(4) . . .
49(4) . . .
40.7(35) . . .
45(4) . . .
42.6(35) . . .
48(4) . . .
55(4) . . .
53(4) . . .
51(4) . . .
57(4) . . .
50(4) . . .
58(4) . . .
54(4) . . .
58(4) . . .
43.4(34) . . .
46(4) . . .
58(4) . . .
59(4) . . .
44(4) . . .
56(4) . . .
48(4) . . .
40.1(34) . . .
45(4) . . .
49(4) . . .
50(4) . . .
57(4) . . .
52(4) . . .
59(4) . . .
62(4) . . .
53(4) . . .
43.8(35) . . .
43(4) . . .
51(4) . . .
53(4) . . .
45(4) . . .
49(4) . . .
49(4) . . .
56(4) . . .
48(4) . . .
45(4) . . .
46(4) . . .
51(4) . . .
55(4) . . .
48(4) . . .
52(4) . . .
49(4) . . .
44(4) . . .
50(4) . . .
50(4) . . .
47(4) . . .
45.8(35) . . .
52(4) . . .
51(4) . . .
48(4) . . .
47(4) . . .
56(4) . . .
51(4) . . .
51(4) . . .
53(4) . . .
55(4) . . .
48(4) . . .
45(4) . . .
44(4) . . .
47(4) . . .
48(4) . . .
49(4) . . .
55(4) . . .
53(4) . . .
46(4) . . .
55(4) . . .
54(4) . . .
44(4) . . .
55(4) . . .
54(4) . . .
61(4) . . .
49(4) . . .
46(4) . . .
47(4) . . .
49(4) . . .
59(4) . . .
46(4) . . .
41.7(34) . . .
42.5(35) . . .
54(4) . . .
47(4) . . .
47(4) . . .
45(4) . . .
35.1(33) . . .
46(4) . . .
43.0(34) . . .
52(4) . . .
49(4) . . .
52(4) . . .
56(4) . . .
55(4) . . .
53(4) . . .
42(4) . . .
53(4) . . .
38.5(33) . . .
50(4) . . .
53(4) . . .
51(4) . . .
52(4) . . .
43(4) . . .
54(4) . . .
39.8(32) . . .
47(4) . . .
47(4) . . .
43.2(35) . . .
51(4) . . .
51(4) . . .
56(4) . . .
47(4) . . .
42.6(34) . . .
49(4) . . .
48(4) . . .
47(4) . . .
47(4) . . .
51(4) . . .
59(4) . . .
50(4) . . .
58(4) . . .
49(4) . . .
53(4) . . .
47(4) . . .
45.6(35) . . .
40.0(34) . . .
49(4) . . .
49(4) . . .
42.5(35) . . .
40(4) . . .
47(4) . . .
44(4) . . .
40.4(33) . . .
49(4) . . .
56(4) . . .
58(4) . . .
54(4) . . .
54(4) . . .
45(4) . . .
63(5) . . .
53(4) . . .
48(4) . . .
49(4) . . .
57(4) . . .
54(4) . . .
58(4) . . .
47(4) . . .
53(4) . . .
56(4) . . .
57(4) . . .
52(4) . . .
44.9(35) . . .
44.8(35) . . .
53(4) . . .
51(4) . . .
45(4) . . .
56(4) . . .
51(4) . . .
45.4(35) . . .
36.1(31) . . .
38.6(33) . . .
48(4) . . .
50(4) . . .
54(4) . . .
49(4) . . .
51(4) . . .
52(4) . . .
49(4) . . .
51(4) . . .
49(4) . . .
47(4) . . .
45(4) . . .
48(4) . . .
48(4) . . .
56(4) . . .
54(4) . . .
41.7(34) . . .
57(4) . . .
49(4) . . .
49(4) . . .
47(4) . . .
52(4) . . .
55(4) . . .
43(4) . . .
43(4) . . .
43.5(35) . . .
52(4) . . .
55(4) . . .
42(4) . . .
48(4) . . .
53(4) . . .
49(4) . . .
51(4) . . .
62(4) . . .
46(4) . . .
45(4) . . .
44(4) . . .
55(4) . . .
46(4) . . .
36.2(32) . . .
46(4) . . .
50(4) . . .
55(4) . . .
50(4) . . .
45(4) . . .
49(4) . . .
57(4) . . .
49(4) . . .
51(4) . . .
47(4) . . .
50(4) . . .
43.9(34) . . .
39.9(33) . . .
49(4) . . .
53(4) . . .
57(4) . . .
52(4) . . .
51(4) . . .
43(4) . . .
53(4) . . .
51(4) . . .
57(4) . . .
53(4) . . .
57(4) . . .
51(4) . . .
49(4) . . .
47(4) . . .
50(4) . . .
50(4) . . .
54(4) . . .
47(4) . . .
46(4) . . .
55(4) . . .
44(4) . . .
46(4) . . .
48(4) . . .
47(4) . . .
47(4) . . .
55(4) . . .
45.3(35) . . .
48(4) . . .
46(4) . . .
43(4) . . .
47(4) . . .
49(4) . . .
54(4) . . .
48(4) . . .
43(4) . . .
49(4) . . .
52(4) . . .
44.2(35) . . .
61(4) . . .
52(4) . . .
44(4) . . .
49(4) . . .
48(4) . . .
47(4) . . .
39.8(35) . . .
47(4) . . .
48(4) . . .
51(4) . . .
44.3(35) . . .
54(4) . . .
47(4) . . .
42.6(35) . . .
45.9(35) . . .
45(4) . . .
54(4) . . .
49(4) . . .
47(4) . . .
41.3(34) . . .
46(4) . . .
46(4) . . .
56(4) . . .
50(4) . . .
47(4) . . .
47(4) . . .
54(4) . . .
47(4) . . .
44(4) . . .
42.0(34) . . .
57(4) . . .
52(4) . . .
63(4) . . .
51(4) . . .
58(4) . . .
43.2(34) . . .
38.4(33) . . .
46(4) . . .
45.4(35) . . .
53(4) . . .
45(4) . . .
48(4) . . .
48(4) . . .
55(4) . . .
53(4) . . .
46(4) . . .
42.9(34) . . .
39.2(33) . . .
53(4) . . .
50(4) . . .
47(4) . . .
45(4) . . .
39.2(33) . . .
60(4) . . .
51(4) . . .
50(4) . . .
51(4) . . .
54(4) . . .
46.0(35) . . .
52(4) . . .
44(4) . . .
51(4) . . .
42.4(34) . . .
48(4) . . .
48(4) . . .
55(4) . . .
50(4) . . .
49(4) . . .
50(4) . . .
50(4) . . .
47(4) . . .
47(4) . . .
57(4) . . .
47(4) . . .
45(4) . . .
54(4) . . .
46(4) . . .
50(4) . . .
56(4) . . .
53(4) . . .
40.3(35) . . .
48(4) . . .
52(4) . . .
47(4) . . .
51(4) . . .
44(4) . . .
47(4) . . .
53(4) . . .
46(4) . . .
45(4) . . .
41.1(34) . . .
55(4) . . .
53(4) . . .
50(4) . . .
52(4) . . .
52(4) . . .
52(4) . . .
48(4) . . .
57(4) . . .
57(4) . . .
45.0(35) . . .
49(4) . . .
56(4) . . .
41.2(33) . . .
51(4) . . .
51(4) . . .
43.5(34) . . .
45.3(35) . . .
46(4) . . .
53(4) . . .
58(4) . . .
47(4) . . .
40.6(33) . . .
51(4) . . .
52(4) . . .
42.0(34) . . .
52(4) . . .
41.8(34) . . .
48(4) . . .
43.7(35) . . .
51(4) . . .
48(4) . . .
41.4(33) . . .
48(4) . . .
43(4) . . .
51(4) . . .
48(4) . . .
40.2(34) . . .
46(4) . . .
48(4) . . .
45(4) . . .
62(4) . . .
54(4) . . .
46(4) . . .
50(4) . . .
42.3(34) . . .
48(4) . . .
45(4) . . .
54(4) . . .
46(4) . . .
57(4) . . .
51(4) . . .
58(4) . . .
44.0(34) . . .
51(4) . . .
38.3(32) . . .
54(4) . . .
46(4) . . .
49(4) . . .
54(4) . . .
46(4) . . .
42.5(33) . . .
47(4) . . .
44(4) . . .
41.8(34) . . .
40.4(33) . . .
52(4) . . .
46(4) . . .
46(4) . . .
53(4) . . .
49(4) . . .
50(4) . . .
53(4) . . .
53(4) . . .
48(4) . . .
51(4) . . .
51(4) . . .
55(4) . . .
55(4) . . .
41.1(33) . . .
46(4) . . .
46(4) . . .
51(4) . . .
42.7(35) . . .
48(4) . . .
47(4) . . .
46(4) . . .
53(4) . . .
47(4) . . .
50(4) . . .
48(4) . . .
51(4) . . .
52(4) . . .
53(4) . . .
45(4) . . .
43.8(35) . . .
52(4) . . .
56(4) . . .
51(4) . . .
50(4) . . .
48(4) . . .
50(4) . . .
51(4) . . .
48(4) . . .
55(4) . . .
46(4) . . .
54(4) . . .
54(4) . . .
45(4) . . .
50(4) . . .
51(4) . . .
55(4) . . .
48(4) . . .
50(4) . . .
47(4) . . .
42.0(34) . . .
48(4) . . .
40(4) . . .
45(4) . . .
46(4) . . .
53(4) . . .
54(4) . . .
50(4) . . .
51(4) . . .
51(4) . . .
47.0(35) . . .
51(4) . . .
51(4) . . .
49(4) . . .
52(4) . . .
38.0(32) . . .
43.3(34) . . .
57(4) . . .
44.8(35) . . .
47(4) . . .
61(4) . . .
64(4) . . .
54(4) . . .
52(4) . . .
54(4) . . .
67(4) . . .
57(4) . . .
50(4) . . .
52(4) . . .
45.4(35) . . .
45(4) . . .
42(4) . . .
57(4) . . .
56(4) . . .
50(4) . . .
45(4) . . .
32.4(30) . . .
46(4) . . .
43.8(35) . . .
42.8(34) . . .
42.2(34) . . .
43(4) . . .
46(4) . . .
48(4) . . .
50(4) . . .
47(4) . . .
44(4) . . .
54(4) . . .
49(4) . . .
46(4) . . .
53(4) . . .
57(4) . . .
47(4) . . .
50(4) . . .
52(4) . . .
48(4) . . .
45(4) . . .
55(4) . . .
58(4) . . .
48(4) . . .
48(4) . . .
43(4) . . .
41(4) . . .
46(4) . . .
51(4) . . .
42.7(34) . . .
56(4) . . .
45(4) . . .
47(4) . . .
41.0(34) . . .
40(4) . . .
34.3(33) . . .
58(4) . . .
49(4) . . .
57(4) . . .
48(4) . . .
56(4) . . .
52(4) . . .
48(4) . . .
45.3(35) . . .
45(4) . . .
42(4) . . .
50(4) . . .
53(4) . . .
48(4) . . .
50(4) . . .
49(4) . . .
45(4) . . .
50(4) . . .
55(4) . . .
57(4) . . .
52(4) . . .
47(4) . . .
47(4) . . .
42(4) . . .
45(4) . . .
49(4) . . .
37.5(33) . . .
38.3(32) . . .
45(4) . . .
48(4) . . .
60(4) . . .
48(4) . . .
48(4) . . .
42(4) . . .
53(4) . . .
44.3(35) . . .
50(4) . . .
47(4) . . .
50(4) . . .
39.1(34) . . .
39.6(35) . . .
42.4(34) . . .
38.2(32) . . .
58(4) . . .
49(4) . . .
46(4) . . .
44.4(35) . . .
51(4) . . .
56(4) . . .
59(4) . . .
48(4) . . .
52(4) . . .
49(4) . . .
49(4) . . .
50(4) . . .
44(4) . . .
45.3(35) . . .
40.3(33) . . .
50(4) . . .
58(4) . . .
50(4) . . .
42.0(33) . . .
52(4) . . .
53(4) . . .
52(4) . . .
57(4) . . .
54(4) . . .
50(4) . . .
50(4) . . .
56(4) . . .
46(4) . . .
57(4) . . .
47(4) . . .
47(4) . . .
49(4) . . .
47(4) . . .
47(4) . . .
65(4) . . .
52(4) . . .
45(4) . . .
48(4) . . .
42.6(34) . . .
41.5(34) . . .
52(4) . . .
48(4) . . .
59(4) . . .
42.9(35) . . .
41.2(35) . . .
43(4) . . .
49(4) . . .
55(4) . . .
51(4) . . .
45(4) . . .
48(4) . . .
50(4) . . .
47(4) . . .
54(4) . . .
46(4) . . .
56(4) . . .
53(4) . . .
40.3(33) . . .
39.4(33) . . .
53(4) . . .
46(4) . . .
44.5(35) . . .
39.6(33) . . .
45(4) . . .
49(4) . . .
48(4) . . .
50(4) . . .
51(4) . . .
39.5(35) . . .
42.3(35) . . .
58(4) . . .
47(4) . . .
56(4) . . .
47(4) . . .
53(4) . . .
43.2(34) . . .
45.5(35) . . .
57(4) . . .
50(4) . . .
51(4) . . .
54(4) . . .
49(4) . . .
43.7(34) . . .
51(4) . . .
55(4) . . .
45(4) . . .
49(4) . . .
50(4) . . .
41.9(34) . . .
59(4) . . .
57(4) . . .
37.9(32) . . .
55(4) . . .
52(4) . . .
53(4) . . .
58(4) . . .
48(4) . . .
42.3(34) . . .
46(4) . . .
54(4) . . .
46(4) . . .
44.2(34) . . .
54(4) . . .
44.0(34) . . .
45(4) . . .
47(4) . . .
43.8(34) . . .
43.4(34) . . .
42.3(34) . . .
51(4) . . .
44(4) . . .
53(4) . . .
52(4) . . .
51(4) . . .
48(4) . . .
53(4) . . .
52(4) . . .
42(4) . . .
46(4) . . .
54(4) . . .
49(4) . . .
49(4) . . .
47(4) . . .
45(4) . . .
50(4) . . .
47(4) . . .
45(4) . . .
54(4) . . .
48(4) . . .
44(4) . . .
48(4) . . .
53(4) . . .
48(4) . . .
56(4) . . .
51(4) . . .
55(4) . . .
54(4) . . .
44(4) . . .
40(4) . . .
44(4) . . .
49(4) . . .
58(4) . . .
43.1(35) . . .
36.0(32) . . .
55(4) . . .
54(4) . . .
49(4) . . .
48(4) . . .
50(4) . . .
43(4) . . .
47(4) . . .
55(4) . . .
57(4) . . .
48(4) . . .
57(4) . . .
51(4) . . .
55(4) . . .
50(4) . . .
48(4) . . .
45(4) . . .
54(4) . . .
53(4) . . .
51(4) . . .
51(4) . . .
53(4) . . .
43.3(34) . . .
44(4) . . .
42.5(35) . . .
41.8(34) . . .
47(4) . . .
46(4) . . .
53(4) . . .
52(4) . . .
57(4) . . .
54(4) . . .
47(4) . . .
53(4) . . .
49(4) . . .
52(4) . . .
60(4) . . .
43.6(34) . . .
36.1(32) . . .
42(4) . . .
46(4) . . .
39.1(34) . . .
44.6(35) . . .
46(4) . . .
42(4) . . .
43(4) . . .
43(4) . . .
40.7(33) . . .
40.7(34) . . .
44(4) . . .
50(4) . . .
48(4) . . .
52(4) . . .
53(4) . . .
50(4) . . .
51(4) . . .
47(4) . . .
45.9(35) . . .
52(4) . . .
43.7(35) . . .
56(4) . . .
56(4) . . .
49(4) . . .
52(4) . . .
55(4) . . .
52(4) . . .
37.7(32) . . .
51(4) . . .
53(4) . . .
45(4) . . .
49(4) . . .
44(4) . . .
43.8(34) . . .
41.6(34) . . .
59(4) . . .
48(4) . . .
48(4) . . .
46(4) . . .
55(4) . . .
50(4) . . .
45(4) . . .
40.8(33) . . .
45(4) . . .
52(4) . . .
45(4) . . .
61(4) . . .
46.7(35) . . .
42.3(35) . . .
52(4) . . .
55(4) . . .
51(4) . . .
39.9(33) . . .
46(4) . . .
46(4) . . .
47(4) . . .
56(4) . . .
50(4) . . .
39.4(33) . . .
43(4) . . .
46(4) . . .
45(4) . . .
47(4) . . .
55(4) . . .
49(4) . . .
55(4) . . .
55(4) . . .
52(4) . . .
57(4) . . .
54(4) . . .
41.1(34) . . .
44.0(34) . . .
56(4) . . .
50(4) . . .
52(4) . . .
49(4) . . .
52(4) . . .
44(4) . . .
50(4) . . .
42.6(34) . . .
46(4) . . .
49(4) . . .
59(4) . . .
61(4) . . .
49(4) . . .
42.2(34) . . .
49(4) . . .
50(4) . . .
59(4) . . .
47(4) . . .
48(4) . . .
52(4) . . .
49(4) . . .
49(4) . . .
47(4) . . .
52(4) . . .
55(4) . . .
43(4) . . .
51(4) . . .
54(4) . . .
47(4) . . .
43.9(34) . . .
53(4) . . .
50(4) . . .
54(4) . . .
55(4) . . .
36.0(32) . . .
40(4) . . .
47(4) . . .
45(4) . . .
51(4) . . .
39.0(33) . . .
50(4) . . .
62(5) . . .
48(4) . . .
52(4) . . .
53(4) . . .
58(4) . . .
51(4) . . .
56(4) . . .
43.2(34) . . .
46(4) . . .
43.8(35) . . .
51(4) . . .
50(4) . . .
56(4) . . .
51(4) . . .
44(4) . . .
49(4) . . .
50(4) . . .
49(4) . . .
50(4) . . .
53(4) . . .
52(4) . . .
54(4) . . .
44.7(35) . . .
41(4) . . .
47(4) . . .
46(4) . . .
54(4) . . .
49(4) . . .
43(4) . . .
42.9(35) . . .
54(4) . . .
55(4) . . .
47(4) . . .
47(4) . . .
45(4) . . .
48(4) . . .
47(4) . . .
52(4) . . .
52(4) . . .
53(4) . . .
55(4) . . .
46(4) . . .
41.4(34) . . .
50(4) . . .
41.8(35) . . .
42.7(34) . . .
49(4) . . .
44(4) . . .
49(4) . . .
46(4) . . .
44(4) . . .
43.2(34) . . .
45(4) . . .
43(4) . . .
45(4) . . .
40.9(33) . . .
50(4) . . .
52(4) . . .
51(4) . . .
54(4) . . .
47(4) . . .
47(4) . . .
50(4) . . .
47(4) . . .
50(4) . . .
46(4) . . .
44.5(34) . . .
50(4) . . .
39.9(34) . . .
47(4) . . .
45(4) . . .
43.0(35) . . .
54(4) . . .
49(4) . . .
54(4) . . .
42.9(34) . . .
42.4(34) . . .
46(4) . . .
53(4) . . .
54(4) . . .
44(4) . . .
55(4) . . .
53(4) . . .
47(4) . . .
59(4) . . .
48(4) . . .
49(4) . . .
54(4) . . .
54(4) . . .
52(4) . . .
57(4) . . .
43.1(34) . . .
45(4) . . .
54(4) . . .
45(4) . . .
53(4) . . .
53(4) . . .
50(4) . . .
41(4) . . .
53(4) . . .
34.5(31) . . .
38.1(32) . . .
56(4) . . .
48(4) . . .
49(4) . . .
48(4) . . .
48(4) . . .
49(4) . . .
51(4) . . .
48(4) . . .
49(4) . . .
48(4) . . .
46(4) . . .
58(4) . . .
49(4) . . .
49(4) . . .
57(4) . . .
49(4) . . .
44(4) . . .
41.0(34) . . .
45.8(35) . . .
44.0(35) . . .
36.1(32) . . .
45(4) . . .
46(4) . . .
47(4) . . .
52(4) . . .
51(4) . . .
46(4) . . .
42(4) . . .
47(4) . . .
49(4) . . .
53(4) . . .
56(4) . . .
42.4(35) . . .
50(4) . . .
51(4) . . .
48(4) . . .
43.4(35) . . .
49(4) . . .
57(4) . . .
48(4) . . .
52(4) . . .
51(4) . . .
45.7(35) . . .
58(4) . . .
47(4) . . .
44(4) . . .
38.5(32) . . .
40.5(34) . . .
43.4(34) . . .
46(4) . . .
45(4) . . .
54(4) . . .
59(4) . . .
40.4(33) . . .
52(4) . . .
44(4) . . .
40.1(34) . . .
39.0(33) . . .
40.2(33) . . .
40.4(34) . . .
37.3(32) . . .
44(4) . . .
44.8(35) . . .
48(4) . . .
50(4) . . .
49(4) . . .
52(4) . . .
46(4) . . .
47(4) . . .
34.7(31) . . .
42(4) . . .
51(4) . . .
52(4) . . .
47(4) . . .
38.7(34) . . .
48(4) . . .
42(4) . . .
43.3(34) . . .
47(4) . . .
45(4) . . .
44(4) . . .
54(4) . . .
52(4) . . .
48(4) . . .
50(4) . . .
44(4) . . .
43.7(35) . . .
50(4) . . .
48(4) . . .
45(4) . . .
43(4) . . .
44.7(35) . . .
56(4) . . .
43.5(34) . . .
47(4) . . .
49(4) . . .
43.7(35) . . .
46.3(35) . . .
52(4) . . .
47(4) . . .
57(4) . . .
43.5(34) . . .
44.1(35) . . .
48(4) . . .
42(4) . . .
35.1(34) . . .
44.6(35) . . .
43.0(34) . . .
47(4) . . .
39.8(35) . . .
48(4) . . .
45(4) . . .
44.7(34) . . .
49(4) . . .
58(4) . . .
58(4) . . .
62(4) . . .
44(4) . . .
44.0(35) . . .
44.0(35) . . .
55(4) . . .
42.7(34) . . .
36.9(32) . . .
41(4) . . .
38.2(33) . . .
47(4) . . .
46(4) . . .
56(4) . . .
54(4) . . .
47(4) . . .
43.9(34) . . .
53(4) . . .
47(4) . . .
52(4) . . .
51(4) . . .
53(4) . . .
43.1(35) . . .
46(4) . . .
37.8(34) . . .
62(5) . . .
39.0(33) . . .
45.4(35) . . .
52(4) . . .
49(4) . . .
55(4) . . .
45.9(35) . . .
42.5(34) . . .
49(4) . . .
55(4) . . .
50(4) . . .
45(4) . . .
45.2(35) . . .
45(4) . . .
40.2(35) . . .
40.4(34) . . .
57(4) . . .
37.3(31) . . .
43(4) . . .
49(4) . . .
52(4) . . .
42.8(34) . . .
49(4) . . .
42.5(34) . . .
47(4) . . .
52(4) . . .
50(4) . . .
43(4) . . .
46(4) . . .
51(4) . . .
43(4) . . .
41.3(34) . . .
39.8(33) . . .
51(4) . . .
49(4) . . .
46(4) . . .
44.5(35) . . .
50(4) . . .
50(4) . . .
50(4) . . .
38.8(33) . . .
45(4) . . .
47(4) . . .
51(4) . . .
40.8(34) . . .
49(4) . . .
45(4) . . .
42.6(34) . . .
38.8(34) . . .
38(4) . . .
34.7(32) . . .
46(4) . . .
54(4) . . .
41(4) . . .
46(4) . . .
58(4) . . .
43.2(35) . . .
49(4) . . .
54(4) . . .
46(4) . . .
47(4) . . .
41.4(33) . . .
48(4) . . .
49(4) . . .
46(4) . . .
49(4) . . .
48(4) . . .
47(4) . . .
49(4) . . .
44.7(34) . . .
49(4) . . .
45.8(35) . . .
41.0(35) . . .
51(4) . . .
48(4) . . .
50(4) . . .
42.1(33) . . .
37.4(33) . . .
37.9(34) . . .
40(4) . . .
59(4) . . .
52(4) . . .
45(4) . . .
44(4) . . .
42(4) . . .
49(4) . . .
48(4) . . .
51(4) . . .
56(4) . . .
50(4) . . .
39.5(33) . . .
44(4) . . .
43(4) . . .
42(4) . . .
45(4) . . .
42.0(33) . . .
46(4) . . .
47(4) . . .
48(4) . . .
48(4) . . .
35.4(31) . . .
56(4) . . .
41.5(34) . . .
62(4) . . .
48(4) . . .
41.7(33) . . .
59(4) . . .
44(4) . . .
39.8(33) . . .
55(4) . . .
58(4) . . .
53(4) . . .
50(4) . . .
43(4) . . .
46(4) . . .
47(4) . . .
44(4) . . .
45(4) . . .
45(4) . . .
39.6(33) . . .
50(4) . . .
58(4) . . .
56(4) . . .
45(4) . . .
45.4(35) . . .
52(4) . . .
49(4) . . .
54(4) . . .
42.0(35) . . .
45(4) . . .
35.2(31) . . .
35.6(33) . . .
52(4) . . .
61(4) . . .
44(4) . . .
43.4(35) . . .
44(4) . . .
43.6(35) . . .
45(4) . . .
46(4) . . .
44(4) . . .
49(4) . . .
53(4) . . .
53(4) . . .
41.1(34) . . .
45(4) . . .
43.3(35) . . .
48(4) . . .
50(4) . . .
42.7(33) . . .
45(4) . . .
47(4) . . .
50(4) . . .
55(4) . . .
47(4) . . .
54(4) . . .
55(4) . . .
40.3(34) . . .
48(4) . . .
45(4) . . .
47(4) . . .
55(4) . . .
40.8(33) . . .
48(4) . . .
57(4) . . .
44(4) . . .
46(4) . . .
34.6(31) . . .
46(4) . . .
57(4) . . .
39.6(33) . . .
49(4) . . .
39.1(33) . . .
50(4) . . .
44.4(35) . . .
47(4) . . .
46(4) . . .
46(4) . . .
32.4(30) . . .
49(4) . . .
49(4) . . .
38.7(33) . . .
49(4) . . .
38.6(33) . . .
44(4) . . .
41.0(35) . . .
50(4) . . .
49(4) . . .
46.5(35) . . .
50(4) . . .
42.6(34) . . .
43(4) . . .
47(4) . . .
50(4) . . .
44.3(35) . . .
45(4) . . .
42(4) . . .
34.1(31) . . .
47(4) . . .
49(4) . . .
49(4) . . .
49(4) . . .
45.0(35) . . .
36.7(31) . . .
38.5(34) . . .
48(4) . . .
44(4) . . .
51(4) . . .
39.8(33) . . .
48(4) . . .
50(4) . . .
38.8(34) . . .
43.4(34) . . .
50(4) . . .
42.1(35) . . .
50(4) . . .
49(4) . . .
39.9(33) . . .
40.9(33) . . .
45(4) . . .
39.6(32) . . .
43.5(34) . . .
53(4) . . .
47(4) . . .
46(4) . . .
46(4) . . .
49(4) . . .
40.1(33) . . .
40.8(33) . . .
53(4) . . .
53(4) . . .
50(4) . . .
49(4) . . .
42.2(35) . . .
41.4(35) . . .
54(4) . . .
50(4) . . .
52(4) . . .
42.3(35) . . .
45(4) . . .
45(4) . . .
45(4) . . .
49(4) . . .
53(4) . . .
44(4) . . .
50(4) . . .
48(4) . . .
48(4) . . .
42.0(35) . . .
46(4) . . .
50(4) . . .
50(4) . . .
50(4) . . .
40.0(34) . . .
40.5(35) . . .
39.3(32) . . .
53(4) . . .
40.0(32) . . .
45(4) . . .
51(4) . . .
45.5(35) . . .
52(4) . . .
56(4) . . .
49(4) . . .
44(4) . . .
36.8(32) . . .
50(4) . . .
49(4) . . .
46(4) . . .
46(4) . . .
44(4) . . .
48(4) . . .
47(4) . . .
48(4) . . .
54(4) . . .
46(4) . . .
50(4) . . .
52(4) . . .
51(4) . . .
54(4) . . .
55(4) . . .
42.9(34) . . .
42(4) . . .
51(4) . . .
40.2(33) . . .
49(4) . . .
52(4) . . .
41.5(35) . . .
45(4) . . .
52(4) . . .
46(4) . . .
46(4) . . .
46(4) . . .
57(4) . . .
53(4) . . .
45(4) . . .
45.0(35) . . .
48(4) . . .
49(4) . . .
50(4) . . .
41.5(34) . . .
54(4) . . .
50(4) . . .
49(4) . . .
47(4) . . .
50(4) . . .
49(4) . . .
46(4) . . .
51(4) . . .
47(4) . . .
42.3(34) . . .
44.8(35) . . .
45(4) . . .
44(4) . . .
52(4) . . .
40.0(33) . . .
37.0(32) . . .
47(4) . . .
48(4) . . .
45(4) . . .
45(4) . . .
46(4) . . .
57(4) . . .
55(4) . . .
48(4) . . .
47(4) . . .
51(4) . . .
49(4) . . .
46(4) . . .
43(4) . . .
37.3(32) . . .
44(4) . . .
44(4) . . .
46(4) . . .
49(4) . . .
40.6(33) . . .
51(4) . . .
43.7(35) . . .
43(4) . . .
51(4) . . .
37.6(32) . . .
47(4) . . .
43(4) . . .
43(4) . . .
46(4) . . .
53(4) . . .
48(4) . . .
53(4) . . .
43(4) . . .
47(4) . . .
49(4) . . .
44(4) . . .
44(4) . . .
42.3(34) . . .
45.3(35) . . .
41.7(34) . . .
42.9(35) . . .
39.4(34) . . .
41.1(33) . . .
47(4) . . .
47(4) . . .
47(4) . . .
51(4) . . .
43.9(35) . . .
42.1(34) . . .
57(4) . . .
51(4) . . .
52(4) . . .
52(4) . . .
48(4) . . .
52(4) . . .
51(4) . . .
52(4) . . .
40.0(34) . . .
45(4) . . .
39.1(33) . . .
48(4) . . .
52(4) . . .
41(4) . . .
40.3(33) . . .
37.4(31) . . .
55(4) . . .
45(4) . . .
45(4) . . .
45.5(35) . . .
60(4) . . .
46(4) . . .
36.3(33) . . .
48(4) . . .
56(4) . . .
41.9(34) . . .
33.8(31) . . .
39.4(32) . . .
53(4) . . .
54(4) . . .
48(4) . . .
52(4) . . .
51(4) . . .
47(4) . . .
48(4) . . .
48(4) . . .
45(4) . . .
44(4) . . .
42.5(35) . . .
44.2(34) . . .
46(4) . . .
50(4) . . .
43.0(35) . . .
37.2(32) . . .
56(4) . . .
52(4) . . .
53(4) . . .
51(4) . . .
48(4) . . .
46(4) . . .
51(4) . . .
47(4) . . .
39.4(33) . . .
36.7(31) . . .
51(4) . . .
47(4) . . .
49(4) . . .
49(4) . . .
59(4) . . .
54(4) . . .
48(4) . . .
45(4) . . .
38.4(34) . . .
34.5(32) . . .
45(4) . . .
39(4) . . .
42(4) . . .
53(4) . . .
43.0(34) . . .
45(4) . . .
47(4) . . .
43(4) . . .
42(4) . . .
40.9(33) . . .
54(4) . . .
43(4) . . .
44(4) . . .
47(4) . . .
57(4) . . .
52(4) . . .
43(4) . . .
52(4) . . .
51(4) . . .
51(4) . . .
46(4) . . .
46(4) . . .
44.0(35) . . .
42.1(34) . . .
46(4) . . .
55(4) . . .
46(4) . . .
45(4) . . .
46(4) . . .
44.9(35) . . .
44.9(35) . . .
52(4) . . .
51(4) . . .
47(4) . . .
42.3(34) . . .
51(4) . . .
43(4) . . .
48(4) . . .
57(4) . . .
54(4) . . .
45.6(35) . . .
56(4) . . .
48(4) . . .
58(4) . . .
56(4) . . .
38.6(34) . . .
48(4) . . .
45(4) . . .
52(4) . . .
35.8(31) . . .
41(4) . . .
44(4) . . .
51(4) . . .
46(4) . . .
51(4) . . .
52(4) . . .
49(4) . . .
52(4) . . .
44.9(35) . . .
37.8(32) . . .
53(4) . . .
37.0(32) . . .
43.2(34) . . .
39.9(33) . . .
40.2(35) . . .
44(4) . . .
47(4) . . .
46(4) . . .
40.3(33) . . .
47(4) . . .
51(4) . . .
41.4(34) . . .
46(4) . . .
48(4) . . .
53(4) . . .
40.2(34) . . .
48(4) . . .
54(4) . . .
47(4) . . .
47(4) . . .
45(4) . . .
46(4) . . .
51(4) . . .
46(4) . . .
41.2(35) . . .
37.6(33) . . .
49(4) . . .
48(4) . . .
44(4) . . .
47(4) . . .
54(4) . . .
44(4) . . .
45.1(35) . . .
51(4) . . .
44(4) . . .
47(4) . . .
53(4) . . .
51(4) . . .
54(4) . . .
50(4) . . .
45(4) . . .
41.5(33) . . .
43.2(34) . . .
50(4) . . .
50(4) . . .
50(4) . . .
46(4) . . .
44.0(34) . . .
42.5(34) . . .
46(4) . . .
51(4) . . .
44(4) . . .
40.2(34) . . .
53(4) . . .
40.7(33) . . .
44.6(35) . . .
51(4) . . .
46(4) . . .
47(4) . . .
47(4) . . .
41(4) . . .
48(4) . . .
50(4) . . .
45(4) . . .
52(4) . . .
52(4) . . .
46(4) . . .
52(4) . . .
45(4) . . .
49(4) . . .
50(4) . . .
61(4) . . .
43.7(35) . . .
54(4) . . .
53(4) . . .
42.8(34) . . .
45.2(35) . . .
41.6(33) . . .
49(4) . . .
50(4) . . .
54(4) . . .
52(4) . . .
45.4(35) . . .
46(4) . . .
45(4) . . .
49(4) . . .
54(4) . . .
49(4) . . .
43.0(35) . . .
51(4) . . .
46(4) . . .
42.2(34) . . .
49(4) . . .
46(4) . . .
55(4) . . .
48(4) . . .
41.3(34) . . .
40.5(33) . . .
48(4) . . .
39.2(33) . . .
49(4) . . .
49(4) . . .
44(4) . . .
46(4) . . .
48(4) . . .
46(4) . . .
41.4(34) . . .
48(4) . . .
58(4) . . .
51(4) . . .
55(4) . . .
53(4) . . .
41.9(33) . . .
48(4) . . .
40.7(35) . . .
55(4) . . .
45(4) . . .
44(4) . . .
48(4) . . .
32.9(31) . . .
37.3(32) . . .
40.7(33) . . .
49(4) . . .
41(4) . . .
42.9(35) . . .
50(4) . . .
47(4) . . .
45(4) . . .
39.4(35) . . .
46(4) . . .
51(4) . . .
40.6(33) . . .
35.9(31) . . .
40(4) . . .
54(4) . . .
43.6(34) . . .
47(4) . . .
51(4) . . .
54(4) . . .
50(4) . . .
39.6(33) . . .
45(4) . . .
46(4) . . .
41.8(35) . . .
58(4) . . .
38.5(33) . . .
47(4) . . .
49(4) . . .
42.6(34) . . .
40.0(33) . . .
45(4) . . .
56(4) . . .
47(4) . . .
48(4) . . .
47(4) . . .
54(4) . . .
50(4) . . .
47(4) . . .
40.6(34) . . .
50(4) . . .
49(4) . . .
52(4) . . .
51(4) . . .
46(4) . . .
50(4) . . .
35.8(31) . . .
48(4) . . .
44(4) . . .
50(4) . . .
45.3(35) . . .
44.2(35) . . .
44.0(34) . . .
55(4) . . .
48(4) . . .
44.3(34) . . .
45(4) . . .
39.9(34) . . .
48(4) . . .
44(4) . . .
37.3(32) . . .
47(4) . . .
45(4) . . .
47(4) . . .
48(4) . . .
51(4) . . .
53(4) . . .
48(4) . . .
43(4) . . .
57(4) . . .
47(4) . . .
41.5(34) . . .
53(4) . . .
48(4) . . .
50(4) . . .
55(4) . . .
36.6(32) . . .
45(4) . . .
47(4) . . .
43.1(34) . . .
40.4(33) . . .
39.3(34) . . .
51(4) . . .
54(4) . . .
49(4) . . .
45.0(35) . . .
35.7(31) . . .
47(4) . . .
51(4) . . .
52(4) . . .
51(4) . . .
49(4) . . .
48(4) . . .
51(4) . . .
45.5(35) . . .
48(4) . . .
46(4) . . .
38(4) . . .
47(4) . . .
53(4) . . .
46(4) . . .
47(4) . . .
46(4) . . .
49(4) . . .
49(4) . . .
57(4) . . .
52(4) . . .
60(4) . . .
44.1(35) . . .
43.0(34) . . .
43.0(34) . . .
44(4) . . .
47(4) . . .
42.7(34) . . .
47(4) . . .
38.2(32) . . .
34.7(32) . . .
45(4) . . .
44.5(35) . . .
53(4) . . .
46(4) . . .
41.1(34) . . .
58(4) . . .
53(4) . . .
48(4) . . .
53(4) . . .
47(4) . . .
53(4) . . .
54(4) . . .
39.1(32) . . .
44.3(35) . . .
51(4) . . .
54(4) . . .
56(4) . . .
46(4) . . .
54(4) . . .
54(4) . . .
50(4) . . .
45(4) . . .
44(4) . . .
40.2(33) . . .
40.7(34) . . .
53(4) . . .
44(4) . . .
52(4) . . .
46(4) . . .
54(4) . . .
44(4) . . .
43.7(34) . . .
41.8(34) . . .
41.6(34) . . .
36.4(34) . . .
40.1(33) . . .
39.2(32) . . .
42.5(34) . . .
49(4) . . .
42(4) . . .
46(4) . . .
43(4) . . .
46(4) . . .
50(4) . . .
51(4) . . .
42.9(34) . . .
53(4) . . .
49(4) . . .
37.1(33) . . .
36.3(34) . . .
41.4(34) . . .
42.0(33) . . .
50(4) . . .
57(4) . . .
49(4) . . .
47(4) . . .
48(4) . . .
54(4) . . .
49(4) . . .
55(4) . . .
47(4) . . .
40.6(34) . . .
40.9(33) . . .
43.1(34) . . .
48(4) . . .
45(4) . . .
35.9(31) . . .
46(4) . . .
46(4) . . .
51(4) . . .
53(4) . . .
50(4) . . .
42.8(35) . . .
41.0(34) . . .
35.1(30) . . .
44(4) . . .
56(4) . . .
56(4) . . .
49(4) . . .
48(4) . . .
40.2(33) . . .
47(4) . . .
40.1(34) . . .
36.0(32) . . .
47(4) . . .
44(4) . . .
42.4(33) . . .
50(4) . . .
44(4) . . .
43(4) . . .
54(4) . . .
46.0(35) . . .
52(4) . . .
46(4) . . .
48(4) . . .
47(4) . . .
47(4) . . .
40.1(35) . . .
50(4) . . .
52(4) . . .
45.0(35) . . .
41.4(35) . . .
46(4) . . .
49(4) . . .
50(4) . . .
53(4) . . .
45(4) . . .
43(4) . . .
42(4) . . .
53(4) . . .
44(4) . . .
48(4) . . .
45(4) . . .
51(4) . . .
48(4) . . .
43.1(34) . . .
38.9(33) . . .
46(4) . . .
53(4) . . .
61(4) . . .
43.4(34) . . .
56(4) . . .
51(4) . . .
41(4) . . .
41.7(34) . . .
46(4) . . .
50(4) . . .
41(4) . . .
40(4) . . .
45(4) . . .
50(4) . . .
49(4) . . .
48(4) . . .
50(4) . . .
44(4) . . .
48(4) . . .
55(4) . . .
49(4) . . .
44(4) . . .
47(4) . . .
46(4) . . .
45(4) . . .
45(4) . . .
45(4) . . .
41(4) . . .
53(4) . . .
53(4) . . .
50(4) . . .
50(4) . . .
41.4(33) . . .
45(4) . . .
48(4) . . .
43(4) . . .
39.4(33) . . .
48(4) . . .
45.4(34) . . .
50(4) . . .
50(4) . . .
46(4) . . .
41.8(34) . . .
41.7(34) . . .
41.8(35) . . .
38.5(35) . . .
52(4) . . .
46(4) . . .
49(4) . . .
57(4) . . .
59(4) . . .
49(4) . . .
48(4) . . .
47(4) . . .
46(4) . . .
66(5) . . .
42.0(35) . . .
48(4) . . .
40.9(34) . . .
49(4) . . .
48(4) . . .
52(4) . . .
40.7(33) . . .
46(4) . . .
45(4) . . .
50(4) . . .
56(4) . . .
35.1(31) . . .
50(4) . . .
42(4) . . .
59(4) . . .
48(4) . . .
43.0(34) . . .
50(4) . . .
53(4) . . .
45(4) . . .
61(4) . . .
57(4) . . .
46.0(35) . . .
56(4) . . .
54(4) . . .
49(4) . . .
46(4) . . .
41(4) . . .
44(4) . . .
44(4) . . .
47(4) . . .
55(4) . . .
49(4) . . .
44(4) . . .
47(4) . . .
44.7(34) . . .
49(4) . . .
40.6(33) . . .
49(4) . . .
43.5(35) . . .
49(4) . . .
47(4) . . .
52(4) . . .
51(4) . . .
54(4) . . .
47(4) . . .
37.1(32) . . .
50(4) . . .
47.6(35) . . .
51(4) . . .
34.4(30) . . .
43.5(35) . . .
50(4) . . .
53(4) . . .
56(4) . . .
47(4) . . .
44(4) . . .
44(4) . . .
46(4) . . .
54(4) . . .
39.1(33) . . .
39.5(34) . . .
36.5(32) . . .
46(4) . . .
44.9(34) . . .
45(4) . . .
46(4) . . .
40(4) . . .
43.3(35) . . .
38.8(33) . . .
47(4) . . .
45(4) . . .
46(4) . . .
54(4) . . .
42.7(34) . . .
50(4) . . .
44(4) . . .
50(4) . . .
36.3(33) . . .
46(4) . . .
47(4) . . .
41.2(34) . . .
46(4) . . .
45(4) . . .
42.2(34) . . .
41.6(34) . . .
49(4) . . .
43(4) . . .
42.3(34) . . .
40.7(34) . . .
34.4(32) . . .
51(4) . . .
47(4) . . .
58(4) . . .
43.6(35) . . .
51(4) . . .
51(4) . . .
41(4) . . .
41(4) . . .
36.6(32) . . .
44(4) . . .
44(4) . . .
49(4) . . .
46(4) . . .
43.5(34) . . .
46(4) . . .
45(4) . . .
44.6(35) . . .
54(4) . . .
50(4) . . .
53(4) . . .
51(4) . . .
47(4) . . .
51(4) . . .
46.4(35) . . .
44(4) . . .
52(4) . . .
46(4) . . .
53(4) . . .
37.4(31) . . .
59(4) . . .
52(4) . . .
47(4) . . .
47(4) . . .
43.7(34) . . .
59(4) . . .
41(4) . . .
36.2(32) . . .
48(4) . . .
55(4) . . .
52(4) . . .
52(4) . . .
45(4) . . .
47(4) . . .
49(4) . . .
53(4) . . .
49(4) . . .
48(4) . . .
50(4) . . .
48(4) . . .
49(4) . . .
48(4) . . .
44(4) . . .
50(4) . . .
44.9(35) . . .
53(4) . . .
40.1(35) . . .
37.4(33) . . .
38.5(32) . . .
46(4) . . .
43(4) . . .
59(4) . . .
51(4) . . .
46(4) . . .
55(4) . . .
50(4) . . .
52(4) . . .
49(4) . . .
44(4) . . .
47(4) . . .
43.5(34) . . .
41.5(35) . . .
41.3(34) . . .
48(4) . . .
62(4) . . .
53(4) . . .
46(4) . . .
51(4) . . .
43.9(34) . . .
52(4) . . .
42(4) . . .
54(4) . . .
46(4) . . .
41.1(33) . . .
49(4) . . .
47(4) . . .
51(4) . . .
53(4) . . .
50(4) . . .
46(4) . . .
52(4) . . .
47(4) . . .
41.2(34) . . .
53(4) . . .
46(4) . . .
47(4) . . .
46(4) . . .
49(4) . . .
46(4) . . .
42.4(35) . . .
50(4) . . .
49(4) . . .
52(4) . . .
48(4) . . .
48(4) . . .
38.3(34) . . .
47(4) . . .
40.5(33) . . .
44(4) . . .
52(4) . . .
46.7(35) . . .
49(4) . . .
38.8(33) . . .
43(4) . . .
45(4) . . .
51(4) . . .
46(4) . . .
45.2(35) . . .
48(4) . . .
45(4) . . .
52(4) . . .
36.7(31) . . .
41.7(34) . . .
59(4) . . .
47(4) . . .
51(4) . . .
43.8(35) . . .
45.9(35) . . .
50(4) . . .
48(4) . . .
51(4) . . .
48(4) . . .
43.8(34) . . .
53(4) . . .
45(4) . . .
42(4) . . .
54(4) . . .
53(4) . . .
42.1(33) . . .
56(4) . . .
51(4) . . .
41.5(33) . . .
54(4) . . .
44(4) . . .
39.2(34) . . .
41.6(34) . . .
53(4) . . .
52(4) . . .
51(4) . . .
55(4) . . .
41.2(35) . . .
44.3(35) . . .
41.5(35) . . .
38.9(33) . . .
47(4) . . .
53(4) . . .
52(4) . . .
52(4) . . .
51(4) . . .
47(4) . . .
38.2(32) . . .
41.4(33) . . .
44.1(35) . . .
49(4) . . .
47(4) . . .
48(4) . . .
54(4) . . .
47(4) . . .
51(4) . . .
44(4) . . .
49(4) . . .
51(4) . . .
44.5(34) . . .
47(4) . . .
46(4) . . .
42.7(34) . . .
46(4) . . .
50(4) . . .
49(4) . . .
52(4) . . .
49(4) . . .
51(4) . . .
43.2(35) . . .
49(4) . . .
53(4) . . .
38.6(32) . . .
47(4) . . .
46(4) . . .
47(4) . . .
53(4) . . .
55(4) . . .
60(4) . . .
41.8(34) . . .
47(4) . . .
47(4) . . .
43.6(34) . . .
44(4) . . .
47(4) . . .
45(4) . . .
47(4) . . .
42.8(34) . . .
45(4) . . .
46(4) . . .
60(4) . . .
43.6(35) . . .
47(4) . . .
46(4) . . .
46(4) . . .
41.8(35) . . .
46.1(35) . . .
52(4) . . .
40.8(34) . . .
53(4) . . .
45(4) . . .
35.4(31) . . .
34.1(31) . . .
47(4) . . .
45(4) . . .
46(4) . . .
43.2(35) . . .
44.1(34) . . .
53(4) . . .
42.8(34) . . .
47(4) . . .
48(4) . . .
47(4) . . .
51(4) . . .
36(4) . . .
40(4) . . .
44(4) . . .
39.9(33) . . .
49(4) . . .
53(4) . . .
50(4) . . .
53(4) . . .
49(4) . . .
52(4) . . .
51(4) . . .
46(4) . . .
44.2(35) . . .
39.2(32) . . .
51(4) . . .
52(4) . . .
46(4) . . .
52(4) . . .
49(4) . . .
43.6(34) . . .
47(4) . . .
35.5(33) . . .
46.2(35) . . .
51(4) . . .
40.4(33) . . .
53(4) . . .
51(4) . . .
47(4) . . .
44.8(35) . . .
48(4) . . .
49(4) . . .
42(4) . . .
40.4(33) . . .
49(4) . . .
47(4) . . .
46(4) . . .
49(4) . . .
41.8(33) . . .
47(4) . . .
57(4) . . .
47(4) . . .
52(4) . . .
49(4) . . .
50(4) . . .
52(4) . . .
51(4) . . .
54(4) . . .
50(4) . . .
42(4) . . .
43(4) . . .
43(4) . . .
47(4) . . .
55(4) . . .
45(4) . . .
46(4) . . .
41(4) . . .
41.3(34) . . .
51(4) . . .
49(4) . . .
46(4) . . .
49(4) . . .
49(4) . . .
46(4) . . .
44.3(35) . . .
44(4) . . .
36.7(32) . . .
51(4) . . .
44.0(34) . . .
49(4) . . .
52(4) . . .
48(4) . . .
40.4(33) . . .
40.7(33) . . .
48(4) . . .
52(4) . . .
43(4) . . .
47(4) . . .
45.0(35) . . .
40(4) . . .
38.1(34) . . .
42(4) . . .
45(4) . . .
43(4) . . .
49(4) . . .
39.7(34) . . .
41.0(35) . . .
52(4) . . .
47(4) . . .
50(4) . . .
48(4) . . .
53(4) . . .
39.9(34) . . .
49(4) . . .
41(4) . . .
45(4) . . .
37.8(32) . . .
45.0(35) . . .
54(4) . . .
47(4) . . .
45(4) . . .
50(4) . . .
31.0(29) . . .
46(4) . . .
46(4) . . .
46(4) . . .
42.6(34) . . .
47(4) . . .
52(4) . . .
43.2(34) . . .
47(4) . . .
54(4) . . .
46(4) . . .
53(4) . . .
57(4) . . .
41.1(33) . . .
46.1(35) . . .
55(4) . . .
44(4) . . .
43(4) . . .
49(4) . . .
49(4) . . .
53(4) . . .
39.7(32) . . .
43(4) . . .
51(4) . . .
56(4) . . .
54(4) . . .
45(4) . . .
32.3(29) . . .
46(4) . . .
46.6(35) . . .
53(4) . . .
47(4) . . .
52(4) . . .
48(4) . . .
49(4) . . .
58(4) . . .
44(4) . . .
44(4) . . .
55(4) . . .
42.9(34) . . .
44(4) . . .
47(4) . . .
41.3(34) . . .
37.1(32) . . .
48(4) . . .
52(4) . . .
55(4) . . .
41.1(33) . . .
47(4) . . .
45.2(35) . . .
42.6(35) . . .
43(4) . . .
45(4) . . .
37.8(32) . . .
46(4) . . .
43.9(34) . . .
41.5(34) . . .
47(4) . . .
49(4) . . .
49(4) . . .
39.5(34) . . .
45(4) . . .
48(4) . . .
39.3(32) . . .
50(4) . . .
45(4) . . .
39.6(33) . . .
40.0(35) . . .
39.5(33) . . .
40.7(34) . . .
54(4) . . .
47(4) . . .
33.4(31) . . .
56(4) . . .
43(4) . . .
46(4) . . .
49(4) . . .
47(4) . . .
52(4) . . .
46(4) . . .
48(4) . . .
43.3(35) . . .
40.2(33) . . .
38.4(32) . . .
46(4) . . .
44(4) . . .
47(4) . . .
51(4) . . .
54(4) . . .
45(4) . . .
45(4) . . .
50(4) . . .
45(4) . . .
46(4) . . .
47(4) . . .
44(4) . . .
48(4) . . .
42.0(34) . . .
49(4) . . .
52(4) . . .
46(4) . . .
47(4) . . .
38.8(33) . . .
52(4) . . .
45(4) . . .
38.0(35) . . .
45.6(35) . . .
50(4) . . .
49(4) . . .
46(4) . . .
47(4) . . .
55(4) . . .
53(4) . . .
54(4) . . .
51(4) . . .
43(4) . . .
42.9(35) . . .
38.4(32) . . .
38.5(33) . . .
48(4) . . .
55(4) . . .
56(4) . . .
52(4) . . .
49(4) . . .
55(4) . . .
40.0(34) . . .
46(4) . . .
49(4) . . .
48(4) . . .
38.5(32) . . .
41.7(35) . . .
41(4) . . .
48(4) . . .
44.7(35) . . .
56(4) . . .
44.5(34) . . .
57(4) . . .
42.0(34) . . .
38.3(34) . . .
56(4) . . .
49(4) . . .
50(4) . . .
43.7(34) . . .
45(4) . . .
37.6(33) . . .
44(4) . . .
52(4) . . .
48(4) . . .
37.4(31) . . .
46(4) . . .
39.7(34) . . .
50(4) . . .
41.8(33) . . .
47(4) . . .
44(4) . . .
38.4(32) . . .
44.0(34) . . .
51(4) . . .
45(4) . . .
44(4) . . .
61(4) . . .
44.5(35) . . .
54(4) . . .
50(4) . . .
57(4) . . .
56(4) . . .
59(4) . . .
53(4) . . .
52(4) . . .
44(4) . . .
49(4) . . .
56(4) . . .
49(4) . . .
51(4) . . .
43(4) . . .
40.8(35) . . .
55(4) . . .
53(4) . . .
46(4) . . .
46(4) . . .
46(4) . . .
41.1(33) . . .
45(4) . . .
52(4) . . .
48(4) . . .
52(4) . . .
39.9(33) . . .
44(4) . . .
41.0(34) . . .
58(4) . . .
56(4) . . .
43.7(35) . . .
43.3(35) . . .
39.7(34) . . .
47(4) . . .
40.5(35) . . .
38.3(33) . . .
48(4) . . .
47(4) . . .
51(4) . . .
49(4) . . .
59(4) . . .
47(4) . . .
44(4) . . .
47(4) . . .
46(4) . . .
41.6(34) . . .
39.8(34) . . .
51(4) . . .
56(4) . . .
54(4) . . .
46(4) . . .
47(4) . . .
55(4) . . .
47(4) . . .
48(4) . . .
47(4) . . .
42(4) . . .
43(4) . . .
48(4) . . .
49(4) . . .
43.7(35) . . .
48(4) . . .
51(4) . . .
50(4) . . .
45(4) . . .
51(4) . . .
48(4) . . .
49(4) . . .
51(4) . . .
49(4) . . .
51(4) . . .
42(4) . . .
61(5) . . .
42.5(35) . . .
47(4) . . .
47(4) . . .
55(4) . . .
51(4) . . .
40.3(33) . . .
51(4) . . .
49(4) . . .
50(4) . . .
49(4) . . .
58(4) . . .
39.1(33) . . .
57(4) . . .
51(4) . . .
53(4) . . .
46(4) . . .
51(4) . . .
43(4) . . .
46(4) . . .
41.7(33) . . .
49(4) . . .
38.0(32) . . .
35.9(31) . . .
45(4) . . .
57(4) . . .
42.0(33) . . .
38.7(34) . . .
42.2(34) . . .
46(4) . . .
47(4) . . .
39.6(32) . . .
53(4) . . .
47(4) . . .
38.5(33) . . .
41.1(34) . . .
40.5(33) . . .
35.2(31) . . .
52(4) . . .
45(4) . . .
49(4) . . .
44.5(35) . . .
45(4) . . .
40.5(34) . . .
46(4) . . .
52(4) . . .
49(4) . . .
37.4(32) . . .
50(4) . . .
43(4) . . .
35.3(31) . . .
48(4) . . .
46(4) . . .
47(4) . . .
45(4) . . .
41.7(34) . . .
44.5(35) . . .
37.7(33) . . .
37.5(32) . . .
39.8(34) . . .
41.0(34) . . .
48(4) . . .
40.2(34) . . .
50(4) . . .
47(4) . . .
39.5(33) . . .
45(4) . . .
35.5(31) . . .
47(4) . . .
45(4) . . .
56(4) . . .
41.3(34) . . .
40.3(34) . . .
50(4) . . .
43.5(34) . . .
39.1(33) . . .
50(4) . . .
41.3(34) . . .
48(4) . . .
49(4) . . .
47(4) . . .
52(4) . . .
45.6(35) . . .
48(4) . . .
47(4) . . .
40.8(34) . . .
42.7(34) . . .
50(4) . . .
47(4) . . .
53(4) . . .
45(4) . . .
54(4) . . .
59(4) . . .
53(4) . . .
60(4) . . .
46.1(35) . . .
48(4) . . .
37.1(31) . . .
36.7(32) . . .
51(4) . . .
43.1(33) . . .
49(4) . . .
49(4) . . .
45(4) . . .
40.8(34) . . .
49(4) . . .
37.5(33) . . .
47(4) . . .
37.7(32) . . .
44(4) . . .
49(4) . . .
47(4) . . .
51(4) . . .
49(4) . . .
48(4) . . .
42.5(34) . . .
49(4) . . .
47(4) . . .
43.5(34) . . .
54(4) . . .
46(4) . . .
47(4) . . .
46(4) . . .
55(4) . . .
44.3(34) . . .
51(4) . . .
56(4) . . .
47(4) . . .
44(4) . . .
47(4) . . .
49(4) . . .
46(4) . . .
53(4) . . .
48(4) . . .
50(4) . . .
36.7(31) . . .
43.6(35) . . .
49(4) . . .
48(4) . . .
53(4) . . .
51(4) . . .
44(4) . . .
39.1(34) . . .
54(4) . . .
55(4) . . .
55(4) . . .
40.9(34) . . .
51(4) . . .
41.0(34) . . .
47(4) . . .
45(4) . . .
53(4) . . .
59(4) . . .
46(4) . . .
47(4) . . .
54(4) . . .
47(4) . . .
40(4) . . .
43.5(34) . . .
51(4) . . .
55(4) . . .
41.1(35) . . .
46(4) . . .
51(4) . . .
45.1(35) . . .
51(4) . . .
43(4) . . .
41.5(35) . . .
50(4) . . .
38.7(32) . . .
48(4) . . .
45(4) . . .
37.7(35) . . .
50(4) . . .
42.2(34) . . .
37.9(32) . . .
44(4) . . .
45(4) . . .
46(4) . . .
42.7(34) . . .
48(4) . . .
32.5(30) . . .
47(4) . . .
47(4) . . .
49(4) . . .
52(4) . . .
51(4) . . .
43.8(34) . . .
43.3(34) . . .
49(4) . . .
44(4) . . .
45(4) . . .
47(4) . . .
49(4) . . .
59(4) . . .
39.1(33) . . .
36.5(33) . . .
50(4) . . .
46(4) . . .
46(4) . . .
48(4) . . .
45(4) . . .
48(4) . . .
34.5(31) . . .
44(4) . . .
37.6(31) . . .
48(4) . . .
50(4) . . .
43.3(35) . . .
45(4) . . .
39.6(35) . . .
42.8(34) . . .
40.9(33) . . .
47(4) . . .
49(4) . . .
50(4) . . .
52(4) . . .
46(4) . . .
51(4) . . .
42(4) . . .
43(4) . . .
40.5(35) . . .
54(4) . . .
55(4) . . .
40.9(33) . . .
45(4) . . .
53(4) . . .
49(4) . . .
45(4) . . .
49(4) . . .
48(4) . . .
50(4) . . .
51(4) . . .
43.3(35) . . .
51(4) . . .
47(4) . . .
54(4) . . .
39.2(33) . . .
45(4) . . .
45(4) . . .
51(4) . . .
51(4) . . .
45(4) . . .
51(4) . . .
56(4) . . .
52(4) . . .
43(4) . . .
44.4(35) . . .
59(4) . . .
49(4) . . .
47(4) . . .
47(4) . . .
49(4) . . .
53(4) . . .
44(4) . . .
36.9(35) . . .
44.7(35) . . .
51(4) . . .
52(4) . . .
45(4) . . .
45(4) . . .
42.8(34) . . .
49(4) . . .
42(4) . . .
45(4) . . .
48(4) . . .
46.2(35) . . .
52(4) . . .
46(4) . . .
55(4) . . .
53(4) . . .
52(4) . . .
51(4) . . .
47(4) . . .
52(4) . . .
44(4) . . .
47(4) . . .
49(4) . . .
42.5(34) . . .
43(4) . . .
40.0(35) . . .
49(4) . . .
45.3(35) . . .
49(4) . . .
46(4) . . .
44(4) . . .
39.9(33) . . .
54(4) . . .
52(4) . . .
44(4) . . .
41.4(34) . . .
36.0(31) . . .
45(4) . . .
41(4) . . .
43(4) . . .
53(4) . . .
39.0(33) . . .
43.8(34) . . .
50(4) . . .
53(4) . . .
41.9(34) . . .
41.3(33) . . .
49(4) . . .
52(4) . . .
48(4) . . .
54(4) . . .
44.1(35) . . .
35.3(33) . . .
60(4) . . .
44.8(34) . . .
59(4) . . .
59(4) . . .
45(4) . . .
48(4) . . .
47(4) . . .
45.5(35) . . .
56(4) . . .
44.3(34) . . .
50(4) . . .
47(4) . . .
45(4) . . .
44(4) . . .
42.1(34) . . .
55(4) . . .
51(4) . . .
56(4) . . .
48(4) . . .
37.3(34) . . .
44(4) . . .
41.4(34) . . .
45.7(35) . . .
44.2(35) . . .
35.9(32) . . .
49(4) . . .
55(4) . . .
48(4) . . .
41.5(34) . . .
43(4) . . .
42(4) . . .
40.5(33) . . .
51(4) . . .
54(4) . . .
43(4) . . .
50(4) . . .
43(4) . . .
41.2(33) . . .
43.5(34) . . .
54(4) . . .
46.0(35) . . .
43.5(35) . . .
53(4) . . .
48(4) . . .
41.1(34) . . .
48(4) . . .
49(4) . . .
38.8(33) . . .
41.0(33) . . .
50(4) . . .
43(4) . . .
45(4) . . .
45(4) . . .
46(4) . . .
43(4) . . .
44(4) . . .
51(4) . . .
49(4) . . .
39.1(34) . . .
47(4) . . .
48(4) . . .
45.3(35) . . .
44.3(35) . . .
42.5(35) . . .
50(4) . . .
56(4) . . .
42.6(34) . . .
41.5(33) . . .
48(4) . . .
42.1(35) . . .
52(4) . . .
37.7(32) . . .
39.1(33) . . .
39.7(32) . . .
49(4) . . .
53(4) . . .
53(4) . . .
51(4) . . .
46(4) . . .
51(4) . . .
53(4) . . .
51(4) . . .
48(4) . . .
41.4(34) . . .
39.5(33) . . .
43(4) . . .
57(4) . . .
49(4) . . .
41.5(34) . . .
47(4) . . .
47(4) . . .
44.3(35) . . .
45(4) . . .
47(4) . . .
45(4) . . .
55(4) . . .
47(4) . . .
39.2(34) . . .
38.9(34) . . .
45(4) . . .
49(4) . . .
41.3(34) . . .
44.7(35) . . .
40.4(34) . . .
46(4) . . .
54(4) . . .
46.2(35) . . .
54(4) . . .
52(4) . . .
48(4) . . .
50(4) . . .
46(4) . . .
36.8(31) . . .
46(4) . . .
43(4) . . .
44.3(34) . . .
47(4) . . .
49(4) . . .
48(4) . . .
45(4) . . .
52(4) . . .
37.5(32) . . .
45(4) . . .
44(4) . . .
44(4) . . .
49(4) . . .
47(4) . . .
50(4) . . .
53(4) . . .
51(4) . . .
46(4) . . .
49(4) . . .
43.9(35) . . .
47(4) . . .
47(4) . . .
58(4) . . .
51(4) . . .
51(4) . . .
56(4) . . .
58(4) . . .
45(4) . . .
49(4) . . .
46.1(35) . . .
52(4) . . .
44(4) . . .
52(4) . . .
58(4) . . .
47(4) . . .
44(4) . . .
43(4) . . .
66(4) . . .
50(4) . . .
52(4) . . .
45(4) . . .
45.3(35) . . .
43.1(34) . . .
48(4) . . .
49(4) . . .
43(4) . . .
49(4) . . .
53(4) . . .
48(4) . . .
39.6(34) . . .
36.6(32) . . .
46(4) . . .
37.9(32) . . .
48(4) . . .
41.0(34) . . .
43.9(35) . . .
38.0(32) . . .
53(4) . . .
45(4) . . .
46(4) . . .
51(4) . . .
43.8(34) . . .
42.4(34) . . .
44(4) . . .
40(4) . . .
45(4) . . .
45(4) . . .
56(4) . . .
55(4) . . .
48(4) . . .
44(4) . . .
44.4(35) . . .
41.7(33) . . .
49(4) . . .
45(4) . . .
41(4) . . .
49(4) . . .
34.6(31) . . .
40.6(34) . . .
48(4) . . .
46(4) . . .
42.6(34) . . .
52(4) . . .
35.2(30) . . .
47(4) . . .
44.2(34) . . .
50(4) . . .
46(4) . . .
46(4) . . .
58(4) . . .
41.9(34) . . .
55(4) . . .
52(4) . . .
54(4) . . .
42.8(35) . . .
37.0(31) . . .
42.5(34) . . .
48(4) . . .
58(4) . . .
36.5(31) . . .
40.2(33) . . .
42.0(34) . . .
40.1(33) . . .
48(4) . . .
46(4) . . .
44(4) . . .
50(4) . . .
49(4) . . .
44(4) . . .
48(4) . . .
55(4) . . .
53(4) . . .
51(4) . . .
46(4) . . .
37.8(33) . . .
47(4) . . .
54(4) . . .
45(4) . . .
53(4) . . .
54(4) . . .
52(4) . . .
43(4) . . .
54(4) . . .
46(4) . . .
49(4) . . .
49(4) . . .
47(4) . . .
48(4) . . .
42.8(34) . . .
51(4) . . .
59(4) . . .
52(4) . . .
46(4) . . .
55(4) . . .
51(4) . . .
39.6(33) . . .
56(4) . . .
49(4) . . .
45(4) . . .
52(4) . . .
57(4) . . .
47(4) . . .
45(4) . . .
47.1(34) . . .
51(4) . . .
46(4) . . .
52(4) . . .
46(4) . . .
47(4) . . .
54(4) . . .
47(4) . . .
53(4) . . .
46(4) . . .
45.0(35) . . .
54(4) . . .
55(4) . . .
48(4) . . .
50(4) . . .
43(4) . . .
36.8(32) . . .
37.8(32) . . .
37.5(32) . . .
47(4) . . .
51(4) . . .
50(4) . . .
38.9(32) . . .
49(4) . . .
44(4) . . .
55(4) . . .
44.1(35) . . .
47(4) . . .
54(4) . . .
50(4) . . .
53(4) . . .
50(4) . . .
45.0(35) . . .
44.5(35) . . .
45(4) . . .
43(4) . . .
47(4) . . .
45(4) . . .
47(4) . . .
43(4) . . .
42.3(35) . . .
38.8(33) . . .
39.4(33) . . .
50(4) . . .
38.3(32) . . .
36.6(33) . . .
47(4) . . .
50(4) . . .
47(4) . . .
41(4) . . .
42.5(34) . . .
43.8(35) . . .
43.4(35) . . .
45(4) . . .
47(4) . . .
41.6(33) . . .
50(4) . . .
52(4) . . .
42(4) . . .
45(4) . . .
56(4) . . .
57(4) . . .
58(4) . . .
47(4) . . .
37.5(32) . . .
46.4(35) . . .
51(4) . . .
47(4) . . .
48(4) . . .
41(4) . . .
50(4) . . .
40.7(34) . . .
38.0(33) . . .
39.0(33) . . .
39.4(32) . . .
58(4) . . .
54(4) . . .
44(4) . . .
39.0(33) . . .
44(4) . . .
46(4) . . .
50(4) . . .
51(4) . . .
44.4(35) . . .
36.2(32) . . .
34.0(30) . . .
47(4) . . .
48(4) . . .
35.8(32) . . .
51(4) . . .
58(4) . . .
54(4) . . .
43.2(35) . . .
47(4) . . .
52(4) . . .
49(4) . . .
38.8(34) . . .
51(4) . . .
42.8(34) . . .
44.5(34) . . .
49(4) . . .
51(4) . . .
51(4) . . .
46(4) . . .
51(4) . . .
53(4) . . .
42.0(35) . . .
41(4) . . .
51(4) . . .
54(4) . . .
47(4) . . .
58(4) . . .
57(4) . . .
40.5(34) . . .
47(4) . . .
44.7(35) . . .
44(4) . . .
44(4) . . .
43(4) . . .
47(4) . . .
47(4) . . .
45(4) . . .
44(4) . . .
49(4) . . .
43.8(34) . . .
56(4) . . .
41.2(35) . . .
41(4) . . .
48(4) . . .
44.2(34) . . .
51(4) . . .
48(4) . . .
44(4) . . .
42.8(35) . . .
52(4) . . .
46(4) . . .
51(4) . . .
51(4) . . .
43(4) . . .
50(4) . . .
48(4) . . .
43(4) . . .
38.5(32) . . .
41.4(33) . . .
40.7(33) . . .
46(4) . . .
46(4) . . .
46(4) . . .
51(4) . . .
50(4) . . .
46(4) . . .
46(4) . . .
40(4) . . .
39.8(33) . . .
51(4) . . .
44(4) . . .
51(4) . . .
44(4) . . .
48(4) . . .
50(4) . . .
46(4) . . .
44(4) . . .
49(4) . . .
46(4) . . .
45.3(34) . . .
49(4) . . .
46(4) . . .
53(4) . . .
49(4) . . .
48(4) . . .
51(4) . . .
45(4) . . .
37.6(33) . . .
40.8(33) . . .
48(4) . . .
45(4) . . .
37.2(33) . . .
43(4) . . .
56(4) . . .
48(4) . . .
53(4) . . .
43.2(35) . . .
54(4) . . .
51(4) . . .
43(4) . . .
53(4) . . .
54(4) . . .
42.1(34) . . .
37.9(32) . . .
44.6(34) . . .
45(4) . . .
38.5(34) . . .
48(4) . . .
46(4) . . .
45(4) . . .
42(4) . . .
50(4) . . .
42.3(34) . . .
47(4) . . .
38.9(33) . . .
40.7(33) . . .
45(4) . . .
47(4) . . .
43.5(34) . . .
51(4) . . .
53(4) . . .
44(4) . . .
43.2(34) . . .
43.3(34) . . .
51(4) . . .
49(4) . . .
50(4) . . .
43.6(34) . . .
41.4(33) . . .
43(4) . . .
42(4) . . .
56(4) . . .
47(4) . . .
42.0(35) . . .
48(4) . . .
49(4) . . .
54(4) . . .
52(4) . . .
47(4) . . .
47(4) . . .
42(4) . . .
44(4) . . .
36.9(32) . . .
48(4) . . .
45(4) . . .
56(4) . . .
44(4) . . .
46.3(35) . . .
41.9(34) . . .
45(4) . . .
57(4) . . .
51(4) . . .
55(4) . . .
48(4) . . .
46(4) . . .
47(4) . . .
46(4) . . .
46(4) . . .
44(4) . . .
48(4) . . .
57(4) . . .
45.2(35) . . .
48(4) . . .
50(4) . . .
48(4) . . .
44.1(35) . . .
48(4) . . .
52(4) . . .
52(4) . . .
53(4) . . .
54(4) . . .
50(4) . . .
42.4(34) . . .
49(4) . . .
59(4) . . .
53(4) . . .
41.4(33) . . .
44.0(34) . . .
52(4) . . .
61(5) . . .
47(4) . . .
49(4) . . .
39.8(33) . . .
46(4) . . .
52(4) . . .
50(4) . . .
47(4) . . .
33.9(30) . . .
41.1(34) . . .
53(4) . . .
52(4) . . .
40.8(34) . . .
46.2(35) . . .
37.3(31) . . .
49(4) . . .
45(4) . . .
54(4) . . .
33.9(30) . . .
41(4) . . .
46(4) . . .
54(4) . . .
53(4) . . .
47(4) . . .
35.5(31) . . .
43.7(35) . . .
54(4) . . .
46(4) . . .
61(4) . . .
53(4) . . .
46(4) . . .
44(4) . . .
50(4) . . .
50(4) . . .
48(4) . . .
47(4) . . .
55(4) . . .
49(4) . . .
44(4) . . .
39.5(34) . . .
42.6(35) . . .
44(4) . . .
42.0(35) . . .
56(4) . . .
55(4) . . .
44(4) . . .
57(4) . . .
47(4) . . .
40.3(35) . . .
40(4) . . .
36.3(32) . . .
44(4) . . .
40.7(33) . . .
52(4) . . .
42.8(35) . . .
51(4) . . .
55(4) . . .
37.9(32) . . .
51(4) . . .
35.5(32) . . .
46(4) . . .
56(4) . . .
37.3(32) . . .
45(4) . . .
51(4) . . .
39.7(34) . . .
39.6(33) . . .
47(4) . . .
49(4) . . .
47(4) . . .
49(4) . . .
50(4) . . .
41.6(34) . . .
47(4) . . .
39(4) . . .
50(4) . . .
47(4) . . .
46(4) . . .
56(4) . . .
47(4) . . .
45(4) . . .
45.0(35) . . .
47(4) . . .
41.6(34) . . .
43(4) . . .
40.1(33) . . .
46(4) . . .
56(4) . . .
47(4) . . .
35.8(32) . . .
45(4) . . .
48(4) . . .
52(4) . . .
44(4) . . .
52(4) . . .
58(4) . . .
40.6(34) . . .
35.7(32) . . .
48(4) . . .
45(4) . . .
50(4) . . .
50(4) . . .
58(4) . . .
39.9(34) . . .
45(4) . . .
40.3(33) . . .
44(4) . . .
43(4) . . .
48(4) . . .
47(4) . . .
48(4) . . .
43.5(34) . . .
38.9(35) . . .
49(4) . . .
46(4) . . .
39.1(33) . . .
44.8(35) . . .
56(4) . . .
44(4) . . .
45(4) . . .
50(4) . . .
48(4) . . .
48(4) . . .
51(4) . . .
35.5(34) . . .
38.0(33) . . .
43.1(35) . . .
42(4) . . .
51(4) . . .
52(4) . . .
50(4) . . .
43.2(34) . . .
47(4) . . .
50(4) . . .
45.8(35) . . .
51(4) . . .
41(4) . . .
45(4) . . .
48(4) . . .
41.5(34) . . .
47(4) . . .
46(4) . . .
37.6(34) . . .
43(4) . . .
41.0(33) . . .
46(4) . . .
55(4) . . .
50(4) . . .
43(4) . . .
57(4) . . .
48(4) . . .
40.0(33) . . .
50(4) . . .
43(4) . . .
43.8(34) . . .
45.7(35) . . .
50(4) . . .
38.7(33) . . .
41.6(34) . . .
47(4) . . .
51(4) . . .
47(4) . . .
39.6(35) . . .
51(4) . . .
50(4) . . .
48(4) . . .
50(4) . . .
48(4) . . .
45(4) . . .
52(4) . . .
43(4) . . .
49(4) . . .
49(4) . . .
47(4) . . .
42.9(35) . . .
46(4) . . .
48(4) . . .
52(4) . . .
49(4) . . .
43.0(34) . . .
57(4) . . .
57(4) . . .
46(4) . . .
48(4) . . .
51(4) . . .
53(4) . . .
46(4) . . .
45(4) . . .
51(4) . . .
46(4) . . .
52(4) . . .
49(4) . . .
48(4) . . .
39.9(33) . . .
43.0(35) . . .
48(4) . . .
47(4) . . .
47(4) . . .
48(4) . . .
44.2(35) . . .
48(4) . . .
41.0(35) . . .
51(4) . . .
49(4) . . .
39.6(33) . . .
47(4) . . .
44(4) . . .
48(4) . . .
52(4) . . .
40.1(33) . . .
40.7(34) . . .
50(4) . . .
39.2(35) . . .
41.5(34) . . .
42.0(33) . . .
48(4) . . .
53(4) . . .
49(4) . . .
38.8(33) . . .
45.4(35) . . .
49(4) . . .
49(4) . . .
42.2(35) . . .
50(4) . . .
41.2(35) . . .
45(4) . . .
46(4) . . .
48(4) . . .
39.4(33) . . .
43.3(34) . . .
48(4) . . .
45(4) . . .
52(4) . . .
55(4) . . .
56(4) . . .
46(4) . . .
47(4) . . .
50(4) . . .
49(4) . . .
52(4) . . .
38.9(35) . . .
49(4) . . .
49(4) . . .
56(4) . . .
47(4) . . .
43.9(34) . . .
51(4) . . .
42.8(35) . . .
44.1(35) . . .
51(4) . . .
57(4) . . .
53(4) . . .
43.4(34) . . .
43.2(34) . . .
50(4) . . .
51(4) . . .
41.3(35) . . .
41.3(34) . . .
50(4) . . .
44(4) . . .
43(4) . . .
49(4) . . .
44.1(35) . . .
42.6(34) . . .
47(4) . . .
50(4) . . .
45(4) . . .
47(4) . . .
52(4) . . .
50(4) . . .
41.7(34) . . .
50(4) . . .
48(4) . . .
50(4) . . .
46(4) . . .
54(4) . . .
44.5(35) . . .
53(4) . . .
53(4) . . .
47(4) . . .
38.8(33) . . .
53(4) . . .
37.9(32) . . .
39.2(35) . . .
51(4) . . .
50(4) . . .
42.8(35) . . .
48(4) . . .
50(4) . . .
42(4) . . .
40.0(33) . . .
46(4) . . .
43.4(34) . . .
41.3(34) . . .
44(4) . . .
42(4) . . .
47(4) . . .
49(4) . . .
46(4) . . .
56(4) . . .
45(4) . . .
42.9(33) . . .
49(4) . . .
52(4) . . .
45(4) . . .
50(4) . . .
51(4) . . .
53(4) . . .
49(4) . . .
53(4) . . .
51(4) . . .
43.1(35) . . .
42.2(34) . . .
52(4) . . .
52(4) . . .
49(4) . . .
42.7(34) . . .
47(4) . . .
50(4) . . .
43.0(35) . . .
46(4) . . .
45(4) . . .
43.0(34) . . .
42.9(35) . . .
55(4) . . .
50(4) . . .
50(4) . . .
53(4) . . .
52(4) . . .
48(4) . . .
41.5(33) . . .
51(4) . . .
44.3(35) . . .
44(4) . . .
51(4) . . .
55(4) . . .
40.1(33) . . .
48(4) . . .
41(4) . . .
44(4) . . .
42.2(34) . . .
48(4) . . .
49(4) . . .
43.8(34) . . .
43(4) . . .
58(4) . . .
46(4) . . .
48(4) . . .
45(4) . . .
52(4) . . .
46(4) . . .
47(4) . . .
44.6(35) . . .
53(4) . . .
43(4) . . .
44.8(35) . . .
50(4) . . .
52(4) . . .
50(4) . . .
42.1(35) . . .
43.6(34) . . .
44.5(35) . . .
43(4) . . .
49(4) . . .
49(4) . . .
44.2(35) . . .
48(4) . . .
48(4) . . .
45(4) . . .
47(4) . . .
55(4) . . .
54(4) . . .
50(4) . . .
56(4) . . .
48(4) . . .
49(4) . . .
44(4) . . .
38.1(32) . . .
42.7(35) . . .
35.5(32) . . .
42.0(33) . . .
47(4) . . .
43(4) . . .
35.4(32) . . .
49(4) . . .
40.6(33) . . .
37.0(32) . . .
42(4) . . .
50(4) . . .
49(4) . . .
38.4(33) . . .
50(4) . . .
51(4) . . .
40.9(34) . . .
38.3(33) . . .
49(4) . . .
44(4) . . .
53(4) . . .
47(4) . . .
49(4) . . .
46(4) . . .
46(4) . . .
43(4) . . .
43.7(34) . . .
50(4) . . .
46.1(35) . . .
51(4) . . .
50(4) . . .
50(4) . . .
52(4) . . .
51(4) . . .
50(4) . . .
58(4) . . .
53(4) . . .
48(4) . . .
40.1(33) . . .
41.3(35) . . .
40(4) . . .
35.3(31) . . .
56(4) . . .
47(4) . . .
48(4) . . .
41.9(34) . . .
46(4) . . .
49(4) . . .
48(4) . . .
39.0(34) . . .
50(4) . . .
55(4) . . .
48(4) . . .
47(4) . . .
43.8(34) . . .
42.4(33) . . .
48(4) . . .
44.8(35) . . .
49(4) . . .
48(4) . . .
41(4) . . .
41.3(34) . . .
42.0(34) . . .
48(4) . . .
48(4) . . .
38.5(31) . . .
51(4) . . .
57(4) . . .
48(4) . . .
47(4) . . .
54(4) . . .
57(4) . . .
47(4) . . .
42(4) . . .
50(4) . . .
44(4) . . .
46(4) . . .
46.4(35) . . .
38.8(35) . . .
49(4) . . .
50(4) . . .
52(4) . . .
58(4) . . .
49(4) . . .
48(4) . . .
54(4) . . .
39.0(33) . . .
40.7(33) . . .
53(4) . . .
52(4) . . .
41.9(33) . . .
43.4(34) . . .
52(4) . . .
51(4) . . .
49(4) . . .
52(4) . . .
47(4) . . .
35.5(31) . . .
48(4) . . .
54(4) . . .
50(4) . . .
48(4) . . .
52(4) . . .
45(4) . . .
41.0(34) . . .
53(4) . . .
51(4) . . .
51(4) . . .
36.0(33) . . .
49(4) . . .
42.0(33) . . .
49(4) . . .
50(4) . . .
43(4) . . .
41.4(34) . . .
50(4) . . .
40.3(33) . . .
43.6(35) . . .
53(4) . . .
36.3(32) . . .
48(4) . . .
47(4) . . .
42.4(35) . . .
47(4) . . .
52(4) . . .
45.5(35) . . .
42.3(34) . . .
50(4) . . .
45(4) . . .
48(4) . . .
38.2(32) . . .
54(4) . . .
49(4) . . .
48(4) . . .
42.4(34) . . .
48(4) . . .
39.3(32) . . .
43(4) . . .
51(4) . . .
49(4) . . .
46.1(35) . . .
45.6(35) . . .
44(4) . . .
46(4) . . .
42.3(35) . . .
40.6(33) . . .
33.5(30) . . .
52(4) . . .
46(4) . . .
45.2(35) . . .
46(4) . . .
55(4) . . .
59(4) . . .
50(4) . . .
54(4) . . .
49(4) . . .
54(4) . . .
42.4(35) . . .
51(4) . . .
55(4) . . .
50(4) . . .
39.5(33) . . .
53(4) . . .
47(4) . . .
49(4) . . .
48(4) . . .
48(4) . . .
39.6(33) . . .
42.7(34) . . .
48(4) . . .
47(4) . . .
51(4) . . .
45(4) . . .
47(4) . . .
45.5(35) . . .
45.1(35) . . .
52(4) . . .
52(4) . . .
43(4) . . .
49(4) . . .
48(4) . . .
38.9(33) . . .
45(4) . . .
45(4) . . .
46(4) . . .
43.2(34) . . .
49(4) . . .
43(4) . . .
43(4) . . .
47(4) . . .
45.2(35) . . .
52(4) . . .
52(4) . . .
47(4) . . .
47(4) . . .
49(4) . . .
50(4) . . .
49(4) . . .
41.7(33) . . .
46(4) . . .
48(4) . . .
51(4) . . .
49(4) . . .
51(4) . . .
51(4) . . .
42.2(34) . . .
46(4) . . .
40.0(34) . . .
44(4) . . .
40.8(33) . . .
49(4) . . .
48(4) . . .
44.5(35) . . .
49(4) . . .
54(4) . . .
47(4) . . .
39.6(35) . . .
51(4) . . .
42.1(34) . . .
41.1(33) . . .
52(4) . . .
43(4) . . .
50(4) . . .
40.7(33) . . .
47(4) . . .
40.3(33) . . .
42(4) . . .
40.4(35) . . .
46(4) . . .
44.8(35) . . .
50(4) . . .
42(4) . . .
47(4) . . .
39.1(33) . . .
50(4) . . .
46.5(35) . . .
53(4) . . .
52(4) . . .
59(4) . . .
49(4) . . .
45(4) . . .
46(4) . . .
43.9(35) . . .
43.2(34) . . .
41.6(35) . . .
41.9(34) . . .
41.1(34) . . .
37.4(34) . . .
38.8(32) . . .
46(4) . . .
43(4) . . .
42(4) . . .
50(4) . . .
46(4) . . .
38.1(32) . . .
33.2(32) . . .
43(4) . . .
41.0(33) . . .
42.4(34) . . .
39.8(33) . . .
50(4) . . .
44(4) . . .
45(4) . . .
44.1(35) . . .
45(4) . . .
44(4) . . .
46(4) . . .
43.5(35) . . .
50(4) . . .
54(4) . . .
42(4) . . .
48(4) . . .
47(4) . . .
41.6(33) . . .
56(4) . . .
49(4) . . .
46(4) . . .
46(4) . . .
41.2(33) . . .
48(4) . . .
45(4) . . .
47(4) . . .
48(4) . . .
43.2(35) . . .
35.4(31) . . .
43(4) . . .
52(4) . . .
46(4) . . .
55(4) . . .
47(4) . . .
44(4) . . .
45(4) . . .
32.9(30) . . .
46(4) . . .
44(4) . . .
45(4) . . .
52(4) . . .
42.4(34) . . .
49(4) . . .
40.7(34) . . .
49(4) . . .
61(4) . . .
55(4) . . .
47(4) . . .
45(4) . . .
46(4) . . .
41.9(34) . . .
43.7(35) . . .
36.6(31) . . .
47(4) . . .
49(4) . . .
50(4) . . .
55(4) . . .
44(4) . . .
43(4) . . .
50(4) . . .
37.8(32) . . .
44.2(35) . . .
43.8(34) . . .
53(4) . . .
39.3(33) . . .
50(4) . . .
45.5(35) . . .
47(4) . . .
53(4) . . .
48(4) . . .
44.2(35) . . .
43.3(34) . . .
40.8(33) . . .
43(4) . . .
50(4) . . .
49(4) . . .
46(4) . . .
46(4) . . .
44(4) . . .
51(4) . . .
45.0(35) . . .
46(4) . . .
47(4) . . .
47(4) . . .
47(4) . . .
48(4) . . .
38.8(33) . . .
43(4) . . .
47(4) . . .
49(4) . . .
48(4) . . .
45(4) . . .
42(4) . . .
46(4) . . .
54(4) . . .
48(4) . . .
45(4) . . .
47(4) . . .
40.4(34) . . .
38.8(33) . . .
47(4) . . .
53(4) . . .
48(4) . . .
52(4) . . .
46(4) . . .
50(4) . . .
43(4) . . .
46(4) . . .
50(4) . . .
46(4) . . .
51(4) . . .
48(4) . . .
49(4) . . .
52(4) . . .
41.5(34) . . .
47(4) . . .
56(4) . . .
41.8(34) . . .
47(4) . . .
46(4) . . .
41.6(35) . . .
48(4) . . .
42(4) . . .
41.0(34) . . .
52(4) . . .
42.5(34) . . .
51(4) . . .
48(4) . . .
52(4) . . .
50(4) . . .
51(4) . . .
42.2(35) . . .
42(4) . . .
60(4) . . .
46(4) . . .
57(4) . . .
42.6(35) . . .
41.0(34) . . .
57(4) . . .
55(4) . . .
56(4) . . .
45(4) . . .
45(4) . . .
49(4) . . .
59(4) . . .
43(4) . . .
37.7(33) . . .
52(4) . . .
55(4) . . .
36.6(32) . . .
49(4) . . .
44(4) . . .
46(4) . . .
48(4) . . .
50(4) . . .
39.9(34) . . .
48(4) . . .
49(4) . . .
42.9(35) . . .
40.0(33) . . .
37.5(32) . . .
51(4) . . .
50(4) . . .
41.9(34) . . .
49(4) . . .
56(4) . . .
44(4) . . .
46(4) . . .
43.9(34) . . .
50(4) . . .
48(4) . . .
51(4) . . .
54(4) . . .
50(4) . . .
52(4) . . .
37.6(33) . . .
33.8(33) . . .
41(4) . . .
46(4) . . .
54(4) . . .
54(4) . . .
50(4) . . .
45(4) . . .
45.9(35) . . .
53(4) . . .
43.5(34) . . .
54(4) . . .
43.7(35) . . .
51(4) . . .
51(4) . . .
49(4) . . .
51(4) . . .
37.8(33) . . .
38.9(32) . . .
41.2(35) . . .
43(4) . . .
47(4) . . .
52(4) . . .
53(4) . . .
51(4) . . .
39.1(33) . . .
48(4) . . .
47(4) . . .
45.3(35) . . .
63(4) . . .
53(4) . . .
40.6(34) . . .
49(4) . . .
39.8(33) . . .
44(4) . . .
49(4) . . .
41.6(32) . . .
46(4) . . .
45(4) . . .
49(4) . . .
47(4) . . .
35.7(31) . . .
45(4) . . .
52(4) . . .
58(4) . . .
39.7(33) . . .
52(4) . . .
50(4) . . .
42.8(35) . . .
40.5(33) . . .
44(4) . . .
41.8(34) . . .
44(4) . . .
46.9(35) . . .
48(4) . . .
39(4) . . .
47(4) . . .
48(4) . . .
49(4) . . .
49(4) . . .
43(4) . . .
50(4) . . .
46(4) . . .
42.6(34) . . .
48(4) . . .
40.5(34) . . .
42(4) . . .
46(4) . . .
46(4) . . .
47(4) . . .
52(4) . . .
45(4) . . .
50(4) . . .
47(4) . . .
39.8(34) . . .
39(4) . . .
38.2(33) . . .
48(4) . . .
46(4) . . .
44(4) . . .
40.1(35) . . .
38.5(33) . . .
44.8(35) . . .
50(4) . . .
46(4) . . .
46(4) . . .
45(4) . . .
42.9(34) . . .
37.0(32) . . .
47(4) . . .
45(4) . . .
38.6(33) . . .
39.1(32) . . .
50(4) . . .
44(4) . . .
48(4) . . .
48(4) . . .
43.7(35) . . .
47(4) . . .
50(4) . . .
40.7(34) . . .
43.7(35) . . .
45.5(35) . . .
51(4) . . .
56(4) . . .
53(4) . . .
48(4) . . .
44.8(35) . . .
54(4) . . .
53(4) . . .
48(4) . . .
49(4) . . .
51(4) . . .
50(4) . . .
40(4) . . .
49(4) . . .
47(4) . . .
51(4) . . .
40.9(34) . . .
43(4) . . .
42.9(34) . . .
46(4) . . .
48(4) . . .
49(4) . . .
45(4) . . .
67(5) . . .
51(4) . . .
47(4) . . .
41(4) . . .
42(4) . . .
43.0(35) . . .
53(4) . . .
45(4) . . .
47(4) . . .
51(4) . . .
44.5(34) . . .
48(4) . . .
45(4) . . .
50(4) . . .
51(4) . . .
55(4) . . .
53(4) . . .
43(4) . . .
48(4) . . .
51(4) . . .
47(4) . . .
45.2(35) . . .
50(4) . . .
40.2(33) . . .
42.5(33) . . .
60(4) . . .
55(4) . . .
48(4) . . .
48(4) . . .
43(4) . . .
50(4) . . .
46(4) . . .
37.2(32) . . .
51(4) . . .
39(4) . . .
45(4) . . .
60(4) . . .
48(4) . . .
56(4) . . .
42.0(35) . . .
45.5(35) . . .
41.4(34) . . .
48(4) . . .
50(4) . . .
49(4) . . .
43.8(34) . . .
43.0(34) . . .
43.1(34) . . .
43.7(35) . . .
50(4) . . .
53(4) . . .
44(4) . . .
41.0(34) . . .
48(4) . . .
43.1(34) . . .
49(4) . . .
53(4) . . .
43.2(35) . . .
47(4) . . .
39.0(32) . . .
45.0(35) . . .
44(4) . . .
40.2(32) . . .
48(4) . . .
49(4) . . .
57(4) . . .
40.6(34) . . .
44(4) . . .
55(4) . . .
46.0(35) . . .
44.5(35) . . .
50(4) . . .
41.5(33) . . .
44(4) . . .
43.3(35) . . .
51(4) . . .
38.9(33) . . .
39.0(33) . . .
44(4) . . .
43.1(35) . . .
44.8(34) . . .
44(4) . . .
50(4) . . .
43.6(34) . . .
53(4) . . .
55(4) . . .
53(4) . . .
54(4) . . .
43(4) . . .
52(4) . . .
48(4) . . .
54(4) . . .
44(4) . . .
42.8(35) . . .
42.7(34) . . .
45(4) . . .
44(4) . . .
43(4) . . .
41.8(34) . . .
54(4) . . .
54(4) . . .
47(4) . . .
53(4) . . .
46(4) . . .
44.2(34) . . .
50(4) . . .
39.6(35) . . .
51(4) . . .
47(4) . . .
48(4) . . .
43(4) . . .
45(4) . . .
52(4) . . .
48(4) . . .
44.3(35) . . .
50(4) . . .
50(4) . . .
47(4) . . .
52(4) . . .
47(4) . . .
51(4) . . .
53(4) . . .
56(4) . . .
44.7(35) . . .
37.4(32) . . .
40.6(35) . . .
45(4) . . .
57(4) . . .
45.0(35) . . .
47(4) . . .
56(4) . . .
49(4) . . .
46(4) . . .
36.9(31) . . .
40.8(34) . . .
42(4) . . .
52(4) . . .
46(4) . . .
51(4) . . .
48(4) . . .
45(4) . . .
35.5(33) . . .
43(4) . . .
43.8(34) . . .
40.7(33) . . .
41.7(35) . . .
35.6(32) . . .
44(4) . . .
47(4) . . .
43.9(35) . . .
49(4) . . .
46(4) . . .
44(4) . . .
42.7(34) . . .
38.5(34) . . .
52(4) . . .
42.3(34) . . .
51(4) . . .
50(4) . . .
48(4) . . .
45(4) . . .
53(4) . . .
44(4) . . .
44.9(35) . . .
41.5(34) . . .
47(4) . . .
51(4) . . .
50(4) . . .
49(4) . . .
49(4) . . .
50(4) . . .
44(4) . . .
42.2(34) . . .
39.7(33) . . .
40.4(34) . . .
54(4) . . .
52(4) . . .
42.8(34) . . .
49(4) . . .
42.2(34) . . .
56(4) . . .
45(4) . . .
40.8(33) . . .
46(4) . . .
41(4) . . .
42(4) . . .
41(4) . . .
44.2(34) . . .
47(4) . . .
53(4) . . .
47(4) . . .
49(4) . . .
39.9(33) . . .
45(4) . . .
43.2(35) . . .
54(4) . . .
44.2(35) . . .
41.0(33) . . .
40.3(33) . . .
44(4) . . .
50(4) . . .
42.5(35) . . .
46(4) . . .
48(4) . . .
43(4) . . .
39.6(35) . . .
48(4) . . .
43.5(34) . . .
41.0(35) . . .
47(4) . . .
44(4) . . .
53(4) . . .
49(4) . . .
38.6(33) . . .
45(4) . . .
50(4) . . .
41.2(34) . . .
39.4(33) . . .
40.5(34) . . .
50(4) . . .
45(4) . . .
40.5(33) . . .
56(4) . . .
46(4) . . .
46(4) . . .
48(4) . . .
51(4) . . .
35.5(32) . . .
37.2(32) . . .
41.7(35) . . .
47(4) . . .
47(4) . . .
50(4) . . .
51(4) . . .
51(4) . . .
55(4) . . .
47(4) . . .
40.2(33) . . .
42.7(35) . . .
45(4) . . .
49(4) . . .
40.8(33) . . .
45(4) . . .
55(4) . . .
40.9(32) . . .
50(4) . . .
45.3(35) . . .
44.3(35) . . .
54(4) . . .
49(4) . . .
43.9(35) . . .
50(4) . . .
42.9(35) . . .
49(4) . . .
49(4) . . .
44(4) . . .
50(4) . . .
49(4) . . .
49(4) . . .
39.7(34) . . .
46(4) . . .
45.5(35) . . .
49(4) . . .
46(4) . . .
52(4) . . .
39.8(33) . . .
51(4) . . .
45(4) . . .
48(4) . . .
55(4) . . .
46(4) . . .
41.6(34) . . .
49(4) . . .
49(4) . . .
40.1(33) . . .
40.5(33) . . .
48(4) . . .
42.9(34) . . .
45(4) . . .
41.5(35) . . .
44.3(34) . . .
38.0(32) . . .
49(4) . . .
34.6(31) . . .
33.3(30) . . .
44(4) . . .
55(4) . . .
55(4) . . .
49(4) . . .
40.8(34) . . .
46(4) . . .
35.5(31) . . .
43(4) . . .
48(4) . . .
35.5(31) . . .
41.6(33) . . .
44(4) . . .
46(4) . . .
48(4) . . .
38.7(33) . . .
49(4) . . .
41.6(34) . . .
49(4) . . .
46(4) . . .
35.6(31) . . .
41.8(33) . . .
47(4) . . .
39.4(33) . . .
40.5(32) . . .
41.4(33) . . .
46(4) . . .
54(4) . . .
59(4) . . .
45(4) . . .
45(4) . . .
51(4) . . .
47(4) . . .
61(4) . . .
47(4) . . .
48(4) . . .
49(4) . . .
55(4) . . .
39(4) . . .
35.3(30) . . .
43.3(34) . . .
42.3(34) . . .
49(4) . . .
46(4) . . .
44.4(34) . . .
55(4) . . .
43.9(35) . . .
53(4) . . .
52(4) . . .
55(4) . . .
52(4) . . .
55(4) . . .
55(4) . . .
47(4) . . .
50(4) . . .
42.6(34) . . .
47(4) . . .
55(4) . . .
45(4) . . .
42.3(35) . . .
38.8(33) . . .
41.8(34) . . .
52(4) . . .
54(4) . . .
40.8(34) . . .
41.6(34) . . .
46(4) . . .
48(4) . . .
41.8(35) . . .
47(4) . . .
46(4) . . .
39.4(34) . . .
39(4) . . .
45(4) . . .
48(4) . . .
48(4) . . .
46(4) . . .
38.9(34) . . .
43(4) . . .
48(4) . . .
51(4) . . .
46(4) . . .
42(4) . . .
49(4) . . .
43(4) . . .
37.2(32) . . .
56(4) . . .
39.5(33) . . .
44(4) . . .
54(4) . . .
43.6(34) . . .
48(4) . . .
40.0(34) . . .
41.1(34) . . .
51(4) . . .
38.1(32) . . .
49(4) . . .
50(4) . . .
43.5(34) . . .
53(4) . . .
52(4) . . .
45(4) . . .
37.2(32) . . .
42.1(33) . . .
40.6(33) . . .
46(4) . . .
47(4) . . .
48(4) . . .
49(4) . . .
53(4) . . .
47(4) . . .
48(4) . . .
48(4) . . .
55(4) . . .
56(4) . . .
45(4) . . .
42(4) . . .
45(4) . . .
41.7(34) . . .
42.8(34) . . .
48(4) . . .
41.3(33) . . .
54(4) . . .
47(4) . . .
50(4) . . .
50(4) . . .
43(4) . . .
35.8(32) . . .
48(4) . . .
47(4) . . .
39.0(34) . . .
45(4) . . .
41.3(33) . . .
42.6(34) . . .
46(4) . . .
50(4) . . .
54(4) . . .
41.3(34) . . .
41.2(34) . . .
51(4) . . .
50(4) . . .
47(4) . . .
52(4) . . .
60(4) . . .
45.1(35) . . .
39.7(33) . . .
48(4) . . .
50(4) . . .
51(4) . . .
38.1(33) . . .
49(4) . . .
40.9(35) . . .
47(4) . . .
47(4) . . .
47(4) . . .
38.0(33) . . .
50(4) . . .
47(4) . . .
49(4) . . .
33.2(32) . . .
50(4) . . .
38.3(32) . . .
41.5(34) . . .
50(4) . . .
43(4) . . .
43.5(34) . . .
49(4) . . .
37.0(33) . . .
39.2(34) . . .
37.9(33) . . .
40(4) . . .
46(4) . . .
50(4) . . .
44.7(35) . . .
47(4) . . .
35.3(31) . . .
46(4) . . .
47(4) . . .
54(4) . . .
52(4) . . .
45(4) . . .
45(4) . . .
41.6(33) . . .
40.9(33) . . .
45(4) . . .
43(4) . . .
45(4) . . .
47(4) . . .
39.2(32) . . .
54(4) . . .
43.1(35) . . .
44(4) . . .
52(4) . . .
58(4) . . .
44(4) . . .
42(4) . . .
42(4) . . .
47(4) . . .
39.1(32) . . .
48(4) . . .
42(4) . . .
51(4) . . .
40.0(34) . . .
48(4) . . .
45(4) . . .
54(4) . . .
39.3(35) . . .
40.5(33) . . .
53(4) . . .
49(4) . . .
44(4) . . .
45(4) . . .
46(4) . . .
52(4) . . .
49(4) . . .
43(4) . . .
45(4) . . .
47(4) . . .
44.0(35) . . .
41.9(35) . . .
46(4) . . .
39.8(34) . . .
52(4) . . .
49(4) . . .
39.2(34) . . .
45(4) . . .
46(4) . . .
49(4) . . .
49(4) . . .
47(4) . . .
51(4) . . .
39.3(33) . . .
41.7(34) . . .
35.6(33) . . .
43(4) . . .
50(4) . . .
45(4) . . .
62(4) . . .
45(4) . . .
49(4) . . .
34.7(32) . . .
35.3(31) . . .
41.2(33) . . .
36.5(32) . . .
46(4) . . .
46(4) . . .
39.7(33) . . .
45.8(35) . . .
54(4) . . .
44(4) . . .
50(4) . . .
52(4) . . .
42.7(34) . . .
46(4) . . .
50(4) . . .
52(4) . . .
41.5(34) . . .
47(4) . . .
48(4) . . .
54(4) . . .
52(4) . . .
47(4) . . .
45(4) . . .
52(4) . . .
45(4) . . .
39.5(33) . . .
47(4) . . .
55(4) . . .
44(4) . . .
43.2(35) . . .
47(4) . . .
41.4(33) . . .
40.8(35) . . .
45(4) . . .
39.7(32) . . .
53(4) . . .
56(4) . . .
45(4) . . .
49(4) . . .
50(4) . . .
41.8(33) . . .
44.5(35) . . .
48(4) . . .
44(4) . . .
47(4) . . .
50(4) . . .
47(4) . . .
58(4) . . .
54(4) . . .
51(4) . . .
49(4) . . .
49(4) . . .
52(4) . . .
50(4) . . .
47(4) . . .
50(4) . . .
41.3(34) . . .
51(4) . . .
41.8(34) . . .
56(4) . . .
50(4) . . .
54(4) . . .
42.4(35) . . .
45(4) . . .
41.3(34) . . .
50(4) . . .
51(4) . . .
47(4) . . .
38.2(33) . . .
43(4) . . .
43.3(34) . . .
46(4) . . .
51(4) . . .
61(4) . . .
47(4) . . .
46(4) . . .
42.8(35) . . .
47(4) . . .
42.0(35) . . .
53(4) . . .
34.5(31) . . .
36.0(32) . . .
37.5(34) . . .
38.7(34) . . .
42.9(34) . . .
48(4) . . .
41.9(34) . . .
45(4) . . .
48(4) . . .
45(4) . . .
43.9(34) . . .
43(4) . . .
50(4) . . .
42.4(33) . . .
36.3(31) . . .
54(4) . . .
27.2(28) . . .
35.0(33) . . .
49(4) . . .
46(4) . . .
48(4) . . .
40.6(33) . . .
43(4) . . .
47(4) . . .
48(4) . . .
46(4) . . .
43(4) . . .
37.8(35) . . .
40.4(35) . . .
50(4) . . .
49(4) . . .
48(4) . . .
34.5(30) . . .
51(4) . . .
39.3(33) . . .
52(4) . . .
47(4) . . .
46(4) . . .
42.3(34) . . .
47(4) . . .
45.0(35) . . .
40.8(35) . . .
41(4) . . .
38.2(34) . . .
41.6(34) . . .
45.0(35) . . .
40.7(34) . . .
45(4) . . .
47(4) . . .
51(4) . . .
43(4) . . .
42(4) . . .
50(4) . . .
41.8(33) . . .
43.0(35) . . .
33.6(31) . . .
43.8(35) . . .
51(4) . . .
38.5(32) . . .
46(4) . . .
52(4) . . .
51(4) . . .
42.5(35) . . .
44(4) . . .
43.8(34) . . .
46(4) . . .
39(4) . . .
38.5(34) . . .
44.5(34) . . .
54(4) . . .
54(4) . . .
41.4(35) . . .
45(4) . . .
49(4) . . .
44.0(35) . . .
47(4) . . .
51(4) . . .
46(4) . . .
60(4) . . .
50(4) . . .
44.1(34) . . .
49(4) . . .
48(4) . . .
44.2(35) . . .
40.5(33) . . .
44(4) . . .
43(4) . . .
36.6(33) . . .
39.8(33) . . .
43.9(34) . . .
42.7(34) . . .
48(4) . . .
48(4) . . .
57(4) . . .
37.3(32) . . .
38.2(34) . . .
45(4) . . .
41.0(33) . . .
46(4) . . .
32.1(29) . . .
45(4) . . .
39.4(33) . . .
41(4) . . .
35.3(31) . . .
42.5(35) . . .
47(4) . . .
45(4) . . .
36.8(31) . . .
45(4) . . .
50(4) . . .
47(4) . . .
50(4) . . .
45.1(35) . . .
49(4) . . .
50(4) . . .
49(4) . . .
47(4) . . .
39.3(32) . . .
35.3(32) . . .
42(4) . . .
38(4) . . .
44(4) . . .
41.3(34) . . .
50(4) . . .
54(4) . . .
47(4) . . .
49(4) . . .
49(4) . . .
48(4) . . .
49(4) . . .
46(4) . . .
41.4(34) . . .
42.5(34) . . .
40.4(33) . . .
48(4) . . .
50(4) . . .
53(4) . . .
46.4(35) . . .
31.8(30) . . .
45(4) . . .
49(4) . . .
44.2(35) . . .
56(4) . . .
48(4) . . .
44(4) . . .
40.5(35) . . .
43.0(35) . . .
48(4) . . .
55(4) . . .
48(4) . . .
38.0(34) . . .
37.3(32) . . .
41.1(33) . . .
57(4) . . .
48(4) . . .
37.4(33) . . .
47(4) . . .
47(4) . . .
47(4) . . .
50(4) . . .
35.8(32) . . .
57(4) . . .
43.6(34) . . .
48(4) . . .
46(4) . . .
46(4) . . .
46.4(35) . . .
42.2(34) . . .
46(4) . . .
43(4) . . .
51(4) . . .
47(4) . . .
50(4) . . .
41.9(35) . . .
44(4) . . .
50(4) . . .
39.2(34) . . .
50(4) . . .
49(4) . . .
49(4) . . .
44.8(35) . . .
47(4) . . .
53(4) . . .
47(4) . . .
50(4) . . .
45(4) . . .
44.1(35) . . .
45(4) . . .
47(4) . . .
42.9(34) . . .
39.0(33) . . .
35.6(31) . . .
40.1(33) . . .
47(4) . . .
48(4) . . .
44(4) . . .
45.2(35) . . .
48(4) . . .
41.0(34) . . .
49(4) . . .
44(4) . . .
55(4) . . .
47(4) . . .
46(4) . . .
35.9(33) . . .
40.1(34) . . .
42.5(34) . . .
47(4) . . .
41.1(35) . . .
35.1(32) . . .
37.5(33) . . .
41.1(33) . . .
37.7(34) . . .
36.0(33) . . .
48(4) . . .
41.4(33) . . .
45(4) . . .
46(4) . . .
48(4) . . .
55(4) . . .
49(4) . . .
49(4) . . .
52(4) . . .
46(4) . . .
39.9(35) . . .
34.8(30) . . .
34.6(30) . . .
48(4) . . .
42(4) . . .
46(4) . . .
36.0(32) . . .
41.2(34) . . .
52(4) . . .
52(4) . . .
50(4) . . .
46(4) . . .
41.6(35) . . .
50(4) . . .
43(4) . . .
45(4) . . .
50(4) . . .
46(4) . . .
51(4) . . .
39.3(33) . . .
41(4) . . .
39.6(33) . . .
37.6(34) . . .
43(4) . . .
47(4) . . .
50(4) . . .
46(4) . . .
41.1(34) . . .
37.5(32) . . .
51(4) . . .
54(4) . . .
41.9(34) . . .
51(4) . . .
41(4) . . .
47(4) . . .
39.9(33) . . .
46(4) . . .
42(4) . . .
44(4) . . .
45(4) . . .
47(4) . . .
40.8(33) . . .
38.2(33) . . .
50(4) . . .
42.5(34) . . .
43.8(34) . . .
47(4) . . .
46(4) . . .
47(4) . . .
52(4) . . .
55(4) . . .
45.3(35) . . .
46(4) . . .
41(4) . . .
46(4) . . .
48(4) . . .
40.2(33) . . .
46(4) . . .
40.4(34) . . .
34.8(32) . . .
44.2(35) . . .
39.5(32) . . .
39.2(34) . . .
32.6(31) . . .
41.9(34) . . .
51(4) . . .
37.8(32) . . .
52(4) . . .
38.3(34) . . .
50(4) . . .
44.1(34) . . .
50(4) . . .
37.3(32) . . .
42.8(34) . . .
47(4) . . .
51(4) . . .
55(4) . . .
50(4) . . .
57(4) . . .
53(4) . . .
48(4) . . .
49(4) . . .
45(4) . . .
44(4) . . .
51(4) . . .
45.7(35) . . .
43(4) . . .
45(4) . . .
51(4) . . .
47(4) . . .
42.8(34) . . .
42.3(35) . . .
41.2(35) . . .
34.5(32) . . .
38.9(32) . . .
46(4) . . .
43.9(35) . . .
52(4) . . .
35.8(33) . . .
37.0(32) . . .
40.8(33) . . .
35.8(32) . . .
47(4) . . .
47(4) . . .
37.0(33) . . .
48(4) . . .
49(4) . . .
39.7(34) . . .
44(4) . . .
35.6(31) . . .
43.0(34) . . .
37.6(32) . . .
48(4) . . .
54(4) . . .
51(4) . . .
36.7(31) . . .
52(4) . . .
54(4) . . .
50(4) . . .
38.1(32) . . .
45(4) . . .
37.6(34) . . .
49(4) . . .
48(4) . . .
50(4) . . .
51(4) . . .
47(4) . . .
40.4(34) . . .
53(4) . . .
52(4) . . .
48(4) . . .
39.0(33) . . .
46(4) . . .
48(4) . . .
41.8(33) . . .
34.5(32) . . .
44(4) . . .
39.6(34) . . .
39.9(34) . . .
40.5(33) . . .
37.7(32) . . .
46(4) . . .
35.3(31) . . .
47(4) . . .
46(4) . . .
49(4) . . .
43(4) . . .
53(4) . . .
42.5(34) . . .
37.7(32) . . .
36.6(32) . . .
47(4) . . .
33.1(31) . . .
44.2(35) . . .
50(4) . . .
40.9(35) . . .
48(4) . . .
53(4) . . .
44.1(34) . . .
39.9(33) . . .
51(4) . . .
46(4) . . .
53(4) . . .
38.4(32) . . .
47(4) . . .
40.2(32) . . .
44.3(35) . . .
42.7(34) . . .
44.9(35) . . .
38.2(32) . . .
41(4) . . .
38.7(34) . . .
41(4) . . .
43.0(34) . . .
43.2(34) . . .
40.9(33) . . .
39.5(34) . . .
46(4) . . .
37.8(32) . . .
46(4) . . .
45(4) . . .
43(4) . . .
46(4) . . .
32.8(30) . . .
47(4) . . .
34.3(31) . . .
38.0(33) . . .
48(4) . . .
37.9(32) . . .
52(4) . . .
42(4) . . .
51(4) . . .
37.3(33) . . .
35.7(31) . . .
46(4) . . .
40(4) . . .
38.9(34) . . .
47(4) . . .
35.7(32) . . .
46(4) . . .
41.7(35) . . .
36.0(31) . . .
48(4) . . .
39.9(34) . . .
41.3(34) . . .
50(4) . . .
40.2(33) . . .
46.1(35) . . .
37.0(32) . . .
45(4) . . .
44(4) . . .
45(4) . . .
49(4) . . .
44.2(34) . . .
44.4(35) . . .
44(4) . . .
47(4) . . .
47(4) . . .
49(4) . . .
52(4) . . .
42.9(35) . . .
58(4) . . .
46(4) . . .
41.1(34) . . .
49(4) . . .
37.0(32) . . .
41.9(34) . . .
48(4) . . .
44(4) . . .
53(4) . . .
48(4) . . .
42(4) . . .
43.1(34) . . .
39.1(32) . . .
48(4) . . .
43.8(35) . . .
45.3(35) . . .
55(4) . . .
51(4) . . .
45(4) . . .
32.2(29) . . .
46(4) . . .
40.9(33) . . .
41(4) . . .
47(4) . . .
43.4(34) . . .
49(4) . . .
40.6(33) . . .
31.5(30) . . .
36.4(33) . . .
36.6(32) . . .
46(4) . . .
44.4(34) . . .
43(4) . . .
53(4) . . .
44.2(35) . . .
37.5(32) . . .
47(4) . . .
38.9(34) . . .
24.5(26) . . .
32.7(32) . . .
37.4(32) . . .
42.8(34) . . .
45(4) . . .
47(4) . . .
48(4) . . .
46.1(35) . . .
43.6(35) . . .
46(4) . . .
44(4) . . .
38.4(33) . . .
45.7(35) . . .
43.9(34) . . .
57(4) . . .
40.5(35) . . .
51(4) . . .
48(4) . . .
34.7(31) . . .
36.9(32) . . .
40.6(34) . . .
49(4) . . .
40.5(33) . . .
39.5(34) . . .
48(4) . . .
52(4) . . .
49(4) . . .
44.3(34) . . .
41.8(35) . . .
44(4) . . .
42(4) . . .
44(4) . . .
41.0(33) . . .
38.8(33) . . .
49(4) . . .
45.0(35) . . .
50(4) . . .
52(4) . . .
45(4) . . .
36.6(33) . . .
51(4) . . .
45(4) . . .
47(4) . . .
46(4) . . .
41(4) . . .
44(4) . . .
48(4) . . .
50(4) . . .
48(4) . . .
55(4) . . .
51(4) . . .
50(4) . . .
49(4) . . .
43(4) . . .
47(4) . . .
37.3(33) . . .
40.6(34) . . .
34.1(32) . . .
39.8(35) . . .
39.2(33) . . .
44(4) . . .
39.8(33) . . .
37.8(32) . . .
46(4) . . .
47(4) . . .
45(4) . . .
38.7(32) . . .
39.7(33) . . .
52(4) . . .
50(4) . . .
47(4) . . .
51(4) . . .
39.8(34) . . .
45(4) . . .
44(4) . . .
39.7(33) . . .
55(4) . . .
48(4) . . .
55(4) . . .
43(4) . . .
43.0(35) . . .
54(4) . . .
49(4) . . .
38.2(32) . . .
46(4) . . .
59(4) . . .
44(4) . . .
38.9(33) . . .
41(4) . . .
43.0(35) . . .
45.8(35) . . .
52(4) . . .
44.1(35) . . .
42.5(35) . . .
52(4) . . .
47(4) . . .
48(4) . . .
44(4) . . .
47(4) . . .
44.1(35) . . .
41.2(33) . . .
53(4) . . .
45(4) . . .
53(4) . . .
41.5(33) . . .
44.0(34) . . .
44(4) . . .
45(4) . . .
53(4) . . .
44(4) . . .
39.2(33) . . .
39.1(32) . . .
62(4) . . .
45(4) . . .
46(4) . . .
47(4) . . .
31.6(29) . . .
43(4) . . .
49(4) . . .
42.5(34) . . .
48(4) . . .
48(4) . . .
48(4) . . .
35.9(34) . . .
48(4) . . .
35.5(31) . . .
35.2(32) . . .
42.5(35) . . .
44.9(35) . . .
40.3(33) . . .
44.1(35) . . .
46(4) . . .
44(4) . . .
51(4) . . .
45.4(35) . . .
38.0(33) . . .
44(4) . . .
46(4) . . .
41.7(33) . . .
41.6(34) . . .
52(4) . . .
49(4) . . .
46(4) . . .
41.0(34) . . .
44.2(35) . . .
49(4) . . .
43(4) . . .
43(4) . . .
48(4) . . .
47(4) . . .
49(4) . . .
34.8(31) . . .
42(4) . . .
47(4) . . .
41.0(33) . . .
52(4) . . .
43(4) . . .
47(4) . . .
48(4) . . .
33.6(31) . . .
47(4) . . .
47(4) . . .
43.1(34) . . .
47(4) . . .
48(4) . . .
48(4) . . .
52(4) . . .
43(4) . . .
40.8(33) . . .
45(4) . . .
48(4) . . .
38.5(31) . . .
49(4) . . .
48(4) . . .
48(4) . . .
51(4) . . .
47(4) . . .
47(4) . . .
45(4) . . .
44.7(35) . . .
38.4(32) . . .
43(4) . . .
51(4) . . .
36.8(32) . . .
41.7(35) . . .
39.5(34) . . .
55(4) . . .
45.0(35) . . .
42.2(34) . . .
49(4) . . .
38.7(32) . . .
45(4) . . .
45(4) . . .
52(4) . . .
41.2(33) . . .
40.7(34) . . .
37.9(34) . . .
55(4) . . .
52(4) . . .
43.9(34) . . .
52(4) . . .
41.1(35) . . .
38.3(34) . . .
41.2(33) . . .
48(4) . . .
51(4) . . .
38.3(34) . . .
51(4) . . .
50(4) . . .
43.5(35) . . .
45(4) . . .
49(4) . . .
42.4(35) . . .
48(4) . . .
46(4) . . .
48(4) . . .
44.5(35) . . .
45(4) . . .
43.3(35) . . .
43.5(35) . . .
39.2(34) . . .
48(4) . . .
48(4) . . .
45.0(35) . . .
43.0(35) . . .
46(4) . . .
45(4) . . .
46(4) . . .
39.2(32) . . .
44(4) . . .
43(4) . . .
35.4(31) . . .
45(4) . . .
38.5(32) . . .
37.0(34) . . .
45(4) . . .
42.9(35) . . .
39.9(33) . . .
46(4) . . .
45(4) . . .
38.0(33) . . .
50(4) . . .
56(4) . . .
39.9(33) . . .
44(4) . . .
37.7(33) . . .
53(4) . . .
49(4) . . .
48(4) . . .
44(4) . . .
47(4) . . .
43(4) . . .
56(4) . . .
54(4) . . .
40.9(35) . . .
36.0(34) . . .
37.6(33) . . .
37.0(32) . . .
50(4) . . .
42(4) . . .
39.6(35) . . .
49(4) . . .
43.7(35) . . .
46(4) . . .
51(4) . . .
43.5(34) . . .
37.6(32) . . .
45(4) . . .
50(4) . . .
45(4) . . .
40(4) . . .
41.8(34) . . .
38.5(32) . . .
42(4) . . .
44(4) . . .
48(4) . . .
56(4) . . .
40.8(33) . . .
47(4) . . .
40.3(33) . . .
47(4) . . .
39.0(33) . . .
38.3(33) . . .
48(4) . . .
52(4) . . .
42.7(35) . . .
41.1(33) . . .
46(4) . . .
43(4) . . .
46(4) . . .
39.1(34) . . .
42.1(35) . . .
39.9(33) . . .
43(4) . . .
46(4) . . .
42(4) . . .
37.9(31) . . .
32.9(30) . . .
46(4) . . .
51(4) . . .
39.8(34) . . .
37.5(34) . . .
45.1(35) . . .
44(4) . . .
53(4) . . .
46(4) . . .
44.6(35) . . .
39.5(33) . . .
42(4) . . .
39.9(35) . . .
45(4) . . .
50(4) . . .
39.1(33) . . .
39.5(34) . . .
37.5(33) . . .
44(4) . . .
48(4) . . .
44(4) . . .
45(4) . . .
42(4) . . .
49(4) . . .
35.4(31) . . .
47(4) . . .
48(4) . . .
39.1(33) . . .
41.6(34) . . .
31.7(30) . . .
42.9(35) . . .
45(4) . . .
39.5(34) . . .
40.9(34) . . .
53(4) . . .
38.0(33) . . .
37.0(33) . . .
46(4) . . .
32.2(29) . . .
38.4(32) . . .
43(4) . . .
44(4) . . .
50(4) . . .
43.7(34) . . .
34.0(30) . . .
47(4) . . .
55(4) . . .
37.9(31) . . .
43.1(35) . . .
33.6(30) . . .
41(4) . . .
34.2(34) . . .
43(4) . . .
38.6(33) . . .
40.4(33) . . .
43(4) . . .
40(4) . . .
35.6(31) . . .
45.4(35) . . .
44.2(35) . . .
48(4) . . .
43(4) . . .
47(4) . . .
39.5(33) . . .
44(4) . . .
38.5(33) . . .
40.7(35) . . .
43.2(35) . . .
48(4) . . .
44(4) . . .
48(4) . . .
40.1(34) . . .
42.7(34) . . .
42.6(34) . . .
37.9(32) . . .
45(4) . . .
55(4) . . .
40.2(33) . . .
41.7(34) . . .
45(4) . . .
39.9(33) . . .
46(4) . . .
44(4) . . .
46(4) . . .
36.2(33) . . .
50(4) . . .
54(4) . . .
49(4) . . .
35.4(31) . . .
48(4) . . .
36.8(33) . . .
44(4) . . .
39.8(33) . . .
40.7(33) . . .
51(4) . . .
54(4) . . .
41.7(34) . . .
50(4) . . .
38.3(33) . . .
39.6(34) . . .
37.1(33) . . .
51(4) . . .
36.3(31) . . .
43.6(35) . . .
36.3(32) . . .
40(4) . . .
37.3(32) . . .
41.5(34) . . .
40.2(33) . . .
43(4) . . .
55(4) . . .
40.3(34) . . .
41.9(34) . . .
43.5(34) . . .
43(4) . . .
51(4) . . .
43(4) . . .
38.6(33) . . .
36.0(33) . . .
40(4) . . .
46(4) . . .
42(4) . . .
40.4(33) . . .
43.7(35) . . .
46(4) . . .
50(4) . . .
42.1(35) . . .
42.5(34) . . .
37.7(33) . . .
40.5(35) . . .
49(4) . . .
40.9(34) . . .
44.3(35) . . .
40.2(35) . . .
38.5(35) . . .
48(4) . . .
48(4) . . .
41.8(33) . . .
40.2(34) . . .
46(4) . . .
36.4(33) . . .
34.0(31) . . .
42.8(34) . . .
47(4) . . .
50(4) . . .
49(4) . . .
39.3(32) . . .
38.4(33) . . .
49(4) . . .
53(4) . . .
45(4) . . .
43.2(34) . . .
42.7(35) . . .
39.1(34) . . .
49(4) . . .
43.1(34) . . .
41.4(34) . . .
43.6(35) . . .
42(4) . . .
41(4) . . .
38.8(33) . . .
47(4) . . .
40.6(34) . . .
38.5(34) . . .
45(4) . . .
46(4) . . .
46(4) . . .
45(4) . . .
36.7(31) . . .
41(4) . . .
41(4) . . .
51(4) . . .
55(4) . . .
40.4(33) . . .
37.5(33) . . .
46(4) . . .
47(4) . . .
35.3(31) . . .
36.1(34) . . .
30.5(30) . . .
41.2(33) . . .
42.0(34) . . .
32.2(29) . . .
46(4) . . .
42(4) . . .
49(4) . . .
57(4) . . .
42.3(34) . . .
45(4) . . .
37.6(31) . . .
46(4) . . .
48(4) . . .
47(4) . . .
49(4) . . .
41.2(34) . . .
42.3(34) . . .
40.7(33) . . .
41(4) . . .
46(4) . . .
41.1(35) . . .
40.9(33) . . .
50(4) . . .
32.7(30) . . .
36.4(34) . . .
45(4) . . .
51(4) . . .
50(4) . . .
43(4) . . .
47(4) . . .
40(4) . . .
53(4) . . .
46(4) . . .
41.1(33) . . .
43(4) . . .
52(4) . . .
42.2(35) . . .
41.3(34) . . .
42.3(34) . . .
42(4) . . .
45(4) . . .
39.0(33) . . .
36.0(33) . . .
40(4) . . .
43(4) . . .
42(4) . . .
39.3(33) . . .
38.2(33) . . .
48(4) . . .
40.6(33) . . .
43.3(34) . . .
48(4) . . .
37.4(32) . . .
37.9(32) . . .
42(4) . . .
35.5(32) . . .
49(4) . . .
41(4) . . .
37.0(33) . . .
44(4) . . .
33.9(31) . . .
38.0(33) . . .
42(4) . . .
42(4) . . .
49(4) . . .
38.4(32) . . .
42.1(34) . . .
46(4) . . .
51(4) . . .
51(4) . . .
43.5(34) . . .
40.3(33) . . .
44(4) . . .
37.3(33) . . .
45(4) . . .
49(4) . . .
49(4) . . .
44(4) . . .
41(4) . . .
44(4) . . .
47(4) . . .
41.2(33) . . .
39.9(34) . . .
37.0(34) . . .
39.9(35) . . .
40.2(33) . . .
34.0(30) . . .
43(4) . . .
47(4) . . .
45(4) . . .
38.8(33) . . .
57(4) . . .
48(4) . . .
44(4) . . .
36.4(32) . . .
50(4) . . .
43.1(34) . . .
44(4) . . .
38.9(32) . . .
46(4) . . .
41.9(34) . . .
52(4) . . .
44(4) . . .
40.9(34) . . .
51(4) . . .
40.9(33) . . .
45(4) . . .
46(4) . . .
40.4(33) . . .
54(4) . . .
40.1(33) . . .
51(4) . . .
52(4) . . .
44(4) . . .
41.0(33) . . .
43.1(34) . . .
42(4) . . .
31.7(31) . . .
48(4) . . .
54(4) . . .
51(4) . . .
45(4) . . .
37.8(34) . . .
49(4) . . .
49(4) . . .
44.0(34) . . .
39.3(34) . . .
46(4) . . .
46(4) . . .
35.9(31) . . .
33.6(31) . . .
37.8(33) . . .
41(4) . . .
47(4) . . .
42.3(33) . . .
45(4) . . .
36.2(32) . . .
38.7(33) . . .
41.8(33) . . .
47(4) . . .
45(4) . . .
44(4) . . .
60(4) . . .
44.0(35) . . .
41.9(33) . . .
50(4) . . .
36.3(32) . . .
45(4) . . .
40.2(34) . . .
44.1(35) . . .
53(4) . . .
43.6(34) . . .
43.7(35) . . .
38.5(32) . . .
36.0(31) . . .
38.8(33) . . .
41.8(35) . . .
33.8(30) . . .
44.9(35) . . .
50(4) . . .
47(4) . . .
46(4) . . .
42.0(35) . . .
47(4) . . .
45.6(35) . . .
28.5(29) . . .
40(4) . . .
53(4) . . .
39.2(33) . . .
39.3(33) . . .
47(4) . . .
51(4) . . .
49(4) . . .
34.8(31) . . .
50(4) . . .
37.3(32) . . .
43(4) . . .
48(4) . . .
39.9(33) . . .
41.9(34) . . .
38.7(33) . . .
40(4) . . .
36.7(32) . . .
42.2(34) . . .
45(4) . . .
36.5(35) . . .
43(4) . . .
41.7(34) . . .
37.6(32) . . .
35.8(31) . . .
41(4) . . .
43(4) . . .
55(4) . . .
36.7(32) . . .
45(4) . . .
40.8(33) . . .
36.8(34) . . .
32.0(30) . . .
43.2(34) . . .
41.3(35) . . .
48(4) . . .
51(4) . . .
45(4) . . .
36.2(31) . . .
37.3(32) . . .
44(4) . . .
42.0(35) . . .
40.3(34) . . .
45.7(35) . . .
40.9(33) . . .
45(4) . . .
42.5(34) . . .
42.0(34) . . .
43.8(35) . . .
48(4) . . .
45(4) . . .
40.8(34) . . .
49(4) . . .
47(4) . . .
54(4) . . .
34.9(32) . . .
48(4) . . .
45(4) . . .
43.5(34) . . .
42.4(35) . . .
41(4) . . .
40.5(35) . . .
47(4) . . .
45(4) . . .
51(4) . . .
51(4) . . .
46(4) . . .
43.7(34) . . .
51(4) . . .
45(4) . . .
33.7(31) . . .
47(4) . . .
41.3(33) . . .
44(4) . . .
46(4) . . .
45(4) . . .
42.9(34) . . .
34.5(30) . . .
37.0(33) . . .
38.7(34) . . .
46(4) . . .
47(4) . . .
43.8(35) . . .
49(4) . . .
46(4) . . .
40.2(33) . . .
48(4) . . .
40.6(34) . . .
41.5(35) . . .
53(4) . . .
50(4) . . .
44(4) . . .
34.8(31) . . .
52(4) . . .
53(4) . . .
52(4) . . .
36.5(31) . . .
44.3(35) . . .
41.8(35) . . .
34.3(30) . . .
44(4) . . .
48(4) . . .
40.0(33) . . .
40(4) . . .
49(4) . . .
46(4) . . .
40.2(33) . . .
41.6(34) . . .
40.0(33) . . .
40(4) . . .
54(4) . . .
53(4) . . .
44.9(34) . . .
48(4) . . .
45(4) . . .
47(4) . . .
50(4) . . .
39.5(33) . . .
40.4(34) . . .
45(4) . . .
37.5(35) . . .
35.5(31) . . .
44(4) . . .
43.4(35) . . .
42.1(35) . . .
48(4) . . .
40.4(34) . . .
39.8(34) . . .
38.4(34) . . .
35.0(32) . . .
42(4) . . .
41.5(33) . . .
39.5(34) . . .
49(4) . . .
46(4) . . .
47(4) . . .
44.5(35) . . .
45(4) . . .
41.5(33) . . .
47(4) . . .
47(4) . . .
34.5(31) . . .
50(4) . . .
41.4(33) . . .
39.2(34) . . .
37.0(32) . . .
45.3(35) . . .
47(4) . . .
40.6(35) . . .
45(4) . . .
44.3(35) . . .
36.9(31) . . .
40.5(33) . . .
37.8(34) . . .
49(4) . . .
41.0(34) . . .
43.4(34) . . .
30.0(28) . . .
43(4) . . .
50(4) . . .
45(4) . . .
45.0(35) . . .
44(4) . . .
42(4) . . .
37.6(33) . . .
36.9(32) . . .
44.0(35) . . .
44(4) . . .
38.3(33) . . .
44(4) . . .
44.3(35) . . .
37.2(33) . . .
41.0(34) . . .
39(4) . . .
33.3(30) . . .
40.0(34) . . .
34.5(31) . . .
41(4) . . .
40(4) . . .
37.1(34) . . .
35.8(31) . . .
37.0(32) . . .
45(4) . . .
41(4) . . .
48(4) . . .
36.9(32) . . .
29.7(29) . . .
40.4(34) . . .
48(4) . . .
46(4) . . .
38.4(33) . . .
38.1(33) . . .
40(4) . . .
43(4) . . .
43.5(34) . . .
41.5(33) . . .
48(4) . . .
41.2(34) . . .
40.9(35) . . .
39.1(32) . . .
44.7(35) . . .
45(4) . . .
48(4) . . .
38.8(33) . . .
47(4) . . .
45(4) . . .
47(4) . . .
43(4) . . .
37.8(32) . . .
37.3(32) . . .
46(4) . . .
55(4) . . .
39.0(34) . . .
35.2(31) . . .
50(4) . . .
52(4) . . .
46(4) . . .
46(4) . . .
46(4) . . .
41.4(34) . . .
46(4) . . .
47(4) . . .
38.3(33) . . .
38.5(32) . . .
34.9(31) . . .
34.9(31) . . .
35.6(31) . . .
43(4) . . .
35.6(32) . . .
37.4(32) . . .
38.5(33) . . .
39.9(35) . . .
40.3(35) . . .
37.5(32) . . .
34.3(30) . . .
42.4(35) . . .
48(4) . . .
40(4) . . .
38.2(33) . . .
45.1(35) . . .
36.0(33) . . .
44(4) . . .
39.4(35) . . .
37.4(32) . . .
31.4(30) . . .
40.0(34) . . .
42(4) . . .
41.0(34) . . .
55(4) . . .
44(4) . . .
43(4) . . .
50(4) . . .
43(4) . . .
36.3(31) . . .
46(4) . . .
39.0(33) . . .
40.7(35) . . .
45(4) . . .
43.9(35) . . .
44.8(35) . . .
39.9(33) . . .
42(4) . . .
40.9(34) . . .
42.1(33) . . .
38.2(32) . . .
42(4) . . .
44(4) . . .
38.1(33) . . .
42.2(33) . . .
40.4(33) . . .
42.8(35) . . .
39.3(34) . . .
44.3(35) . . .
38.5(32) . . .
42.2(34) . . .
38.5(33) . . .
47(4) . . .
40.6(33) . . .
45.1(35) . . .
38.6(32) . . .
39.8(34) . . .
44(4) . . .
42(4) . . .
33.4(30) . . .
39.3(34) . . .
33.8(31) . . .
37.2(32) . . .
43(4) . . .
36.9(32) . . .
47(4) . . .
42(4) . . .
45(4) . . .
44(4) . . .
42.5(34) . . .
46(4) . . .
39(4) . . .
47(4) . . .
44(4) . . .
46(4) . . .
52(4) . . .
37.3(32) . . .
44(4) . . .
49(4) . . .
40.7(33) . . .
46(4) . . .
47(4) . . .
40.8(34) . . .
40.2(35) . . .
36.7(31) . . .
43.1(35) . . .
47(4) . . .
35.7(31) . . .
38.8(32) . . .
48(4) . . .
50(4) . . .
40.7(35) . . .
34.7(31) . . .
37.5(32) . . .
46(4) . . .
39.6(33) . . .
44.3(35) . . .
52(4) . . .
39.4(33) . . .
38.2(34) . . .
38.0(33) . . .
32.2(29) . . .
41.0(34) . . .
43.5(34) . . .
36.5(32) . . .
40(4) . . .
47(4) . . .
40.9(34) . . .
37.9(32) . . .
31.1(29) . . .
42.0(35) . . .
43(4) . . .
41.0(35) . . .
42.0(34) . . .
39(4) . . .
43(4) . . .
60(4) . . .
38.8(33) . . .
43.7(34) . . .
50(4) . . .
43(4) . . .
40.1(33) . . .
39.0(33) . . .
45(4) . . .
46(4) . . .
42.5(35) . . .
49(4) . . .
41.6(33) . . .
39.4(32) . . .
39.9(34) . . .
39.5(34) . . .
42.1(34) . . .
55(4) . . .
41.5(33) . . .
44.4(35) . . .
54(4) . . .
47(4) . . .
52(4) . . .
49(4) . . .
42(4) . . .
39(4) . . .
39.0(34) . . .
43.1(34) . . .
43.3(35) . . .
53(4) . . .
47(4) . . .
42.9(34) . . .
40.2(33) . . .
43.1(34) . . .
51(4) . . .
37.1(34) . . .
38.3(34) . . .
50(4) . . .
42(4) . . .
44(4) . . .
41.7(34) . . .
40(4) . . .
36.8(32) . . .
40.2(34) . . .
44(4) . . .
52(4) . . .
51(4) . . .
43.3(34) . . .
50(4) . . .
36.2(31) . . .
50(4) . . .
37.5(32) . . .
38.4(32) . . .
45(4) . . .
42(4) . . .
44(4) . . .
43.8(35) . . .
49(4) . . .
44(4) . . .
40(4) . . .
34.5(31) . . .
40.8(33) . . .
43.9(35) . . .
56(4) . . .
36.0(34) . . .
37.7(33) . . .
38.2(33) . . .
46(4) . . .
35.3(32) . . .
37.4(34) . . .
39.5(34) . . .
35.2(31) . . .
45(4) . . .
33.1(30) . . .
38.1(34) . . .
43(4) . . .
41.6(34) . . .
45(4) . . .
42(4) . . .
37.8(33) . . .
41(4) . . .
37.4(32) . . .
40.9(34) . . .
39.6(32) . . .
43.8(35) . . .
41.5(35) . . .
40.9(33) . . .
38.1(33) . . .
41(4) . . .
41(4) . . .
49(4) . . .
45.5(35) . . .
49(4) . . .
39.8(34) . . .
50(4) . . .
43(4) . . .
40.0(33) . . .
43(4) . . .
42.5(34) . . .
41.9(34) . . .
37.6(32) . . .
39.1(32) . . .
38.0(34) . . .
43(4) . . .
41(4) . . .
40.6(34) . . .
46(4) . . .
36.8(33) . . .
41(4) . . .
40.1(34) . . .
46(4) . . .
39.4(33) . . .
39.2(33) . . .
44(4) . . .
45(4) . . .
37.2(32) . . .
51(4) . . .
43.4(34) . . .
43.9(35) . . .
49(4) . . .
42.4(34) . . .
43.5(34) . . .
38.3(34) . . .
32.0(30) . . .
42(4) . . .
34.9(30) . . .
46(4) . . .
46(4) . . .
45(4) . . .
40.9(34) . . .
45.0(35) . . .
39.2(34) . . .
36.7(33) . . .
42(4) . . .
46(4) . . .
50(4) . . .
47(4) . . .
55(4) . . .
40.8(34) . . .
44(4) . . .
42.1(34) . . .
43.5(34) . . .
43(4) . . .
51(4) . . .
41.1(34) . . .
46(4) . . .
45(4) . . .
44(4) . . .
45(4) . . .
46(4) . . .
38.3(32) . . .
38.2(34) . . .
36.1(33) . . .
40.3(34) . . .
48(4) . . .
43.1(34) . . .
36.5(34) . . .
47(4) . . .
39.7(33) . . .
38.6(32) . . .
36.9(32) . . .
56(4) . . .
41.1(34) . . .
50(4) . . .
47(4) . . .
41.3(35) . . .
48(4) . . .
34.7(32) . . .
41.1(33) . . .
40.0(33) . . .
41.7(33) . . .
43.4(34) . . .
40.8(35) . . .
36.3(32) . . .
39.4(32) . . .
43.2(34) . . .
43(4) . . .
37.4(35) . . .
33.3(30) . . .
35.7(32) . . .
46(4) . . .
42.8(35) . . .
41.1(34) . . .
44.6(35) . . .
49(4) . . .
35.5(32) . . .
34.7(32) . . .
41(4) . . .
39.4(34) . . .
40.6(33) . . .
40.8(34) . . .
33.7(31) . . .
42(4) . . .
33.4(34) . . .
34.4(31) . . .
43.0(35) . . .
35.9(33) . . .
39(4) . . .
32.4(31) . . .
39.7(33) . . .
45(4) . . .
43(4) . . .
37.7(32) . . .
45(4) . . .
38.0(32) . . .
42(4) . . .
51(4) . . .
53(4) . . .
47(4) . . .
37.0(31) . . .
43.0(34) . . .
47(4) . . .
46(4) . . .
37.0(31) . . .
31.6(29) . . .
41.5(35) . . .
39(4) . . .
38.4(33) . . .
46(4) . . .
45.4(35) . . .
46(4) . . .
43(4) . . .
38.4(33) . . .
43.7(34) . . .
45(4) . . .
34.9(31) . . .
39(4) . . .
32.5(31) . . .
31.3(29) . . .
42.2(35) . . .
39.9(34) . . .
37.2(33) . . .
34.1(31) . . .
42.5(34) . . .
46(4) . . .
46(4) . . .
38.6(34) . . .
37.0(32) . . .
29.8(29) . . .
33.8(31) . . .
43(4) . . .
48(4) . . .
46(4) . . .
37.6(32) . . .
40.2(33) . . .
44(4) . . .
43(4) . . .
36.7(33) . . .
42.2(33) . . .
34.2(32) . . .
42(4) . . .
41(4) . . .
41.0(34) . . .
37.4(33) . . .
44(4) . . .
37.2(33) . . .
37.4(32) . . .
39.8(34) . . .
38.3(33) . . .
41.5(35) . . .
36.7(33) . . .
46(4) . . .
50(4) . . .
37.9(32) . . .
50(4) . . .
46(4) . . .
43.7(34) . . .
36.7(32) . . .
40.7(34) . . .
43(4) . . .
36.4(33) . . .
41.2(33) . . .
46(4) . . .
39.0(32) . . .
36.3(33) . . .
37.3(35) . . .
39.6(34) . . .
38.2(32) . . .
37.0(32) . . .
35.1(34) . . .
40(4) . . .
41(4) . . .
37.3(32) . . .
34.4(30) . . .
44(4) . . .
38.7(35) . . .
43(4) . . .
44(4) . . .
49(4) . . .
45(4) . . .
37.9(33) . . .
35.0(33) . . .
36.7(32) . . .
43.2(35) . . .
49(4) . . .
47(4) . . .
36.3(32) . . .
34.9(31) . . .
24.9(26) . . .
38.2(34) . . .
35.9(32) . . .
40(4) . . .
46(4) . . .
37.8(32) . . .
39.4(33) . . .
41(4) . . .
41.6(34) . . .
43.2(34) . . .
42.6(35) . . .
40.7(33) . . .
41.6(34) . . .
40.2(33) . . .
45.3(34) . . .
46(4) . . .
44(4) . . .
47(4) . . .
52(4) . . .
41.0(34) . . .
44(4) . . .
31.3(29) . . .
48(4) . . .
49(4) . . .
34.4(31) . . .
37.7(33) . . .
36.2(34) . . .
39.7(34) . . .
35.5(31) . . .
37.6(31) . . .
53(4) . . .
46(4) . . .
34.5(31) . . .
31.8(29) . . .
49(4) . . .
43(4) . . .
37.0(34) . . .
40.9(34) . . .
34.6(30) . . .
48(4) . . .
39.5(34) . . .
35.8(34) . . .
37(4) . . .
29.4(28) . . .
38.6(34) . . .
43(4) . . .
43(4) . . .
49(4) . . .
42.3(34) . . .
47(4) . . .
41(4) . . .
41(4) . . .
40(4) . . .
41.8(34) . . .
38.9(35) . . .
42(4) . . .
47(4) . . .
42(4) . . .
47(4) . . .
41.1(34) . . .
39(4) . . .
34.3(32) . . .
42.2(34) . . .
36.1(32) . . .
41(4) . . .
41(4) . . .
37.9(33) . . .
35.4(31) . . .
41.1(33) . . .
48(4) . . .
42(4) . . .
43(4) . . .
41.2(33) . . .
42.5(35) . . .
36.0(32) . . .
41(4) . . .
40.1(34) . . .
44.4(35) . . .
40.1(34) . . .
38(4) . . .
35.0(33) . . .
36.1(31) . . .
32.5(29) . . .
33.3(30) . . .
47(4) . . .
39.5(34) . . .
36.8(34) . . .
36.5(31) . . .
42.8(35) . . .
42(4) . . .
44(4) . . .
41.3(34) . . .
40.4(33) . . .
47(4) . . .
37.3(33) . . .
41(4) . . .
34.6(32) . . .
42.8(34) . . .
38.1(33) . . .
41.4(34) . . .
45(4) . . .
40.6(33) . . .
47(4) . . .
40.8(34) . . .
32.8(30) . . .
40(4) . . .
33.6(31) . . .
32.3(30) . . .
37.7(32) . . .
40(4) . . .
39.8(35) . . .
38.1(32) . . .
37.0(32) . . .
52(4) . . .
41(4) . . .
42(4) . . .
35.5(32) . . .
40.5(34) . . .
37.1(32) . . .
45(4) . . .
50(4) . . .
39.8(33) . . .
40.8(33) . . .
46(4) . . .
54(4) . . .
44.2(34) . . .
47(4) . . .
42.6(33) . . .
46(4) . . .
44(4) . . .
43(4) . . .
38.3(32) . . .
46(4) . . .
39.8(34) . . .
37.8(34) . . .
36.0(31) . . .
43.9(35) . . .
46(4) . . .
31.5(31) . . .
39(4) . . .
35.9(33) . . .
48(4) . . .
42.3(34) . . .
52(4) . . .
44(4) . . .
42(4) . . .
34.5(31) . . .
41.4(34) . . .
43(4) . . .
38.6(34) . . .
47(4) . . .
45.2(35) . . .
36.9(33) . . .
39.3(35) . . .
35.2(32) . . .
39.7(34) . . .
35.4(31) . . .
40.0(34) . . .
49(4) . . .
45(4) . . .
36.4(33) . . .
41.2(33) . . .
41.4(34) . . .
37.5(34) . . .
49(4) . . .
38.0(33) . . .
38.9(32) . . .
47(4) . . .
45(4) . . .
39.5(34) . . .
42.9(33) . . .
45.2(35) . . .
37.8(33) . . .
46(4) . . .
33.4(30) . . .
39.0(34) . . .
40.8(33) . . .
37.4(32) . . .
40(4) . . .
42(4) . . .
35.2(31) . . .
35.7(31) . . .
44(4) . . .
44(4) . . .
35.0(31) . . .
45(4) . . .
33.7(30) . . .
39.5(34) . . .
42(4) . . .
43(4) . . .
39.3(33) . . .
43.2(34) . . .
38.4(33) . . .
33.7(32) . . .
45(4) . . .
44.6(35) . . .
31.6(31) . . .
35.2(32) . . .
49(4) . . .
38.3(32) . . .
35.1(31) . . .
37.2(32) . . .
39(4) . . .
36.2(33) . . .
37.0(31) . . .
39.7(33) . . .
34.5(32) . . .
41(4) . . .
43.7(34) . . .
44.0(35) . . .
49(4) . . .
44(4) . . .
36.1(32) . . .
39.5(33) . . .
42.1(34) . . .
46(4) . . .
42.2(34) . . .
47(4) . . .
40.8(34) . . .
34.5(30) . . .
40.9(33) . . .
45(4) . . .
45(4) . . .
42.4(35) . . .
42(4) . . .
39.5(33) . . .
44(4) . . .
42(4) . . .
30.6(29) . . .
33.6(30) . . .
31.1(29) . . .
34.1(32) . . .
35.6(33) . . .
43.3(35) . . .
39.0(33) . . .
42.6(34) . . .
44(4) . . .
31.9(30) . . .
39.8(34) . . .
36.5(31) . . .
49(4) . . .
46(4) . . .
36.9(31) . . .
36.1(32) . . .
39.9(33) . . .
38.5(32) . . .
46(4) . . .
44.8(35) . . .
46(4) . . .
47(4) . . .
37.5(32) . . .
45(4) . . .
38.9(34) . . .
42.3(34) . . .
36.7(31) . . .
35.0(33) . . .
30.3(31) . . .
47(4) . . .
49(4) . . .
34.0(30) . . .
38.8(35) . . .
30.5(30) . . .
32.3(31) . . .
46(4) . . .
45(4) . . .
37.2(32) . . .
47(4) . . .
46(4) . . .
37.5(32) . . .
35.5(32) . . .
39.8(34) . . .
38.8(34) . . .
31.3(30) . . .
32.0(30) . . .
42.3(34) . . .
50(4) . . .
42(4) . . .
37.1(33) . . .
37.3(32) . . .
44.7(34) . . .
40.0(34) . . .
42.2(34) . . .
45(4) . . .
38.8(32) . . .
41.2(33) . . .
38.0(32) . . .
38(4) . . .
38.4(35) . . .
34.6(30) . . .
34.0(30) . . .
36.9(32) . . .
46(4) . . .
44(4) . . .
36.5(31) . . .
38.7(32) . . .
36.8(31) . . .
43(4) . . .
38.1(33) . . .
42.8(34) . . .
36.0(34) . . .
30.8(31) . . .
38.8(33) . . .
37.9(33) . . .
37.6(32) . . .
41.6(33) . . .
37.9(34) . . .
48(4) . . .
44(4) . . .
45(4) . . .
35.4(34) . . .
41(4) . . .
47(4) . . .
45(4) . . .
47(4) . . .
43(4) . . .
33.1(32) . . .
36.0(31) . . .
41.6(34) . . .
40.8(33) . . .
40(4) . . .
35.4(32) . . .
42(4) . . .
34.7(31) . . .
41.0(33) . . .
39(4) . . .
41(4) . . .
44(4) . . .
36.9(32) . . .
41.3(33) . . .
41.3(34) . . .
42(4) . . .
39.6(34) . . .
47(4) . . .
36.8(31) . . .
36.8(32) . . .
42(4) . . .
39.0(33) . . .
34.6(31) . . .
46(4) . . .
41(4) . . .
36.1(33) . . .
39.2(34) . . .
35.1(31) . . .
39.5(33) . . .
38.9(34) . . .
34.0(32) . . .
44(4) . . .
45(4) . . .
38.6(33) . . .
41.1(35) . . .
38.0(34) . . .
36.3(32) . . .
53(4) . . .
43(4) . . .
33.9(32) . . .
35.3(34) . . .
30.4(29) . . .
35.4(31) . . .
42.9(35) . . .
37.0(33) . . .
36.8(33) . . .
41.8(33) . . .
41.2(34) . . .
41(4) . . .
41(4) . . .
38.2(35) . . .
40.1(33) . . .
41.0(33) . . .
28.4(31) . . .
38.3(35) . . .
37.8(33) . . .
42.3(34) . . .
46.0(35) . . .
36.6(31) . . .
31.1(30) . . .
33.0(31) . . .
40.6(33) . . .
34.4(30) . . .
36.0(33) . . .
39.4(35) . . .
41(4) . . .
45.4(35) . . .
40.3(34) . . .
35.8(31) . . .
44(4) . . .
38.9(35) . . .
33.0(30) . . .
39.9(32) . . .
34.2(29) . . .
38(4) . . .
39(4) . . .
46(4) . . .
39.0(32) . . .
39.3(34) . . .
44(4) . . .
39(4) . . .
38.0(33) . . .
34.6(33) . . .
42.5(34) . . .
41(4) . . .
47(4) . . .
43.5(35) . . .
48(4) . . .
36.5(32) . . .
42(4) . . .
47(4) . . .
45.0(35) . . .
34.2(31) . . .
35.5(32) . . .
46(4) . . .
36.9(31) . . .
26.3(27) . . .
38.3(34) . . .
33.6(32) . . .
37.6(34) . . .
34.1(30) . . .
35.6(31) . . .
39.8(35) . . .
42(4) . . .
36.5(34) . . .
44(4) . . .
36.8(32) . . .
44(4) . . .
41(4) . . .
43(4) . . .
40.5(33) . . .
31.6(30) . . .
37.1(33) . . .
35.7(33) . . .
34.0(31) . . .
41.4(33) . . .
34.3(30) . . .
45(4) . . .
42(4) . . .
43(4) . . .
37.5(32) . . .
39.8(33) . . .
39(4) . . .
34.7(33) . . .
42(4) . . .
37.7(32) . . .
49(4) . . .
36.2(32) . . .
40(4) . . .
44(4) . . .
37.0(32) . . .
43(4) . . .
35.2(33) . . .
36.3(32) . . .
35.8(32) . . .
39.5(33) . . .
45(4) . . .
47(4) . . .
37.3(33) . . .
35.2(33) . . .
47(4) . . .
37.8(33) . . .
35.2(33) . . .
43(4) . . .
40.5(34) . . .
36.9(32) . . .
36.3(32) . . .
39.8(35) . . .
31.5(30) . . .
39.6(34) . . .
43.1(34) . . .
35.5(32) . . .
42(4) . . .
45.4(35) . . .
37.5(32) . . .
37.6(32) . . .
39(4) . . .
37(4) . . .
42(4) . . .
32.1(30) . . .
39.7(34) . . .
38.1(32) . . .
44(4) . . .
35.3(31) . . .
31.9(29) . . .
38.8(32) . . .
34.1(31) . . .
46(4) . . .
43.0(35) . . .
38.4(32) . . .
34.2(31) . . .
34.9(31) . . .
38.2(35) . . .
37.9(32) . . .
35.2(31) . . .
40.6(34) . . .
31.2(29) . . .
27.0(28) . . .
36.5(33) . . .
38.5(32) . . .
38.1(32) . . .
39.3(33) . . .
39.9(35) . . .
40.0(34) . . .
48(4) . . .
42.4(35) . . .
31.7(31) . . .
36.4(34) . . .
46(4) . . .
36.1(31) . . .
38.8(34) . . .
34.9(34) . . .
45(4) . . .
32.0(31) . . .
45(4) . . .
43(4) . . .
36.0(33) . . .
46(4) . . .
38.7(32) . . .
47(4) . . .
50(4) . . .
43(4) . . .
40(4) . . .
47(4) . . .
40.2(33) . . .
36.3(33) . . .
38(4) . . .
34.0(31) . . .
40.9(34) . . .
39.8(33) . . .
34.3(31) . . .
40(4) . . .
39.6(33) . . .
30.6(28) . . .
33.9(31) . . .
39.6(33) . . .
47(4) . . .
38.2(34) . . .
35.5(32) . . .
48(4) . . .
43.0(35) . . .
37.9(35) . . .
44(4) . . .
46(4) . . .
37.0(32) . . .
39.9(34) . . .
42(4) . . .
36.3(32) . . .
40.0(33) . . .
49(4) . . .
45(4) . . .
37.0(35) . . .
33.5(31) . . .
42.0(34) . . .
41.9(34) . . .
36.6(32) . . .
40.7(33) . . .
40.9(34) . . .
36.5(31) . . .
35.3(33) . . .
42(4) . . .
46(4) . . .
38.4(32) . . .
41.7(34) . . .
44(4) . . .
44(4) . . .
53(4) . . .
49(4) . . .
40.8(33) . . .
37.8(34) . . .
41(4) . . .
41(4) . . .
41.1(34) . . .
32.3(30) . . .
37.2(32) . . .
39.4(34) . . .
39.2(33) . . .
48(4) . . .
44.0(34) . . .
36.1(31) . . .
31.4(30) . . .
38.8(34) . . .
32.8(29) . . .
36.4(32) . . .
31.8(30) . . .
43(4) . . .
37.7(33) . . .
35.8(31) . . .
35.7(33) . . .
30.4(32) . . .
39(4) . . .
35.3(31) . . .
37.4(32) . . .
30.6(28) . . .
41(4) . . .
42(4) . . .
43(4) . . .
46.0(35) . . .
46(4) . . .
37.5(32) . . .
46(4) . . .
40.3(34) . . .
52(4) . . .
44(4) . . .
36.6(32) . . .
39.2(33) . . .
45(4) . . .
38.9(32) . . .
33.1(30) . . .
41.6(35) . . .
41.5(34) . . .
46(4) . . .
36.1(31) . . .
42(4) . . .
38.7(35) . . .
48(4) . . .
38.6(33) . . .
41.3(33) . . .
37.2(34) . . .
41(4) . . .
41.2(34) . . .
50(4) . . .
33.7(30) . . .
44(4) . . .
46(4) . . .
36.1(32) . . .
45(4) . . .
44.2(35) . . .
43.3(35) . . .
46(4) . . .
40.4(34) . . .
41.9(34) . . .
39.5(33) . . .
39.2(35) . . .
37.9(33) . . .
41.9(34) . . .
28.9(30) . . .
31.6(29) . . .
44(4) . . .
36.6(32) . . .
49(4) . . .
45(4) . . .
41.3(33) . . .
38.2(34) . . .
38(4) . . .
35.0(31) . . .
40.5(33) . . .
35.7(31) . . .
36.6(32) . . .
47(4) . . .
36.2(33) . . .
34.8(31) . . .
44.0(35) . . .
47(4) . . .
39.7(34) . . .
51(4) . . .
41.2(33) . . .
42.5(34) . . .
42.4(35) . . .
46(4) . . .
37.3(34) . . .
52(4) . . .
39.0(34) . . .
48(4) . . .
36.1(32) . . .
36.0(32) . . .
32.3(30) . . .
30.9(31) . . .
43(4) . . .
43(4) . . .
40.3(33) . . .
45(4) . . .
39.0(33) . . .
37.9(32) . . .
36.5(31) . . .
49(4) . . .
35.6(31) . . .
36.7(34) . . .
45(4) . . .
38.6(34) . . .
45(4) . . .
38.2(33) . . .
32.3(31) . . .
35.7(34) . . .
30.2(28) . . .
38.3(32) . . .
40.5(34) . . .
37.4(33) . . .
38(4) . . .
37.6(32) . . .
35.5(31) . . .
36.6(31) . . .
43(4) . . .
43(4) . . .
40.2(34) . . .
38.1(32) . . .
38.3(33) . . .
42(4) . . .
36.4(32) . . .
35.3(33) . . .
35.5(32) . . .
43(4) . . .
44(4) . . .
38.3(34) . . .
41(4) . . .
40.0(33) . . .
38.9(33) . . .
45(4) . . .
45(4) . . .
45(4) . . .
39.4(33) . . .
42.6(34) . . .
43(4) . . .
40.7(33) . . .
35.9(31) . . .
38.6(33) . . .
30.8(30) . . .
32.1(30) . . .
42(4) . . .
34.7(31) . . .
36.6(32) . . .
42(4) . . .
28.8(29) . . .
28.6(28) . . .
35.1(30) . . .
44.0(34) . . .
37.0(32) . . .
45(4) . . .
48(4) . . .
49(4) . . .
49(4) . . .
38.0(33) . . .
42(4) . . .
35.8(31) . . .
39.1(33) . . .
45.0(35) . . .
40.7(34) . . .
36.2(34) . . .
35.7(32) . . .
48(4) . . .
40.8(33) . . .
38.6(32) . . .
41(4) . . .
44(4) . . .
36.8(32) . . .
37.1(32) . . .
35.1(34) . . .
44(4) . . .
32.1(30) . . .
33.2(30) . . .
32.7(31) . . .
42.6(35) . . .
39.1(35) . . .
38.0(33) . . .
42.7(34) . . .
38.6(34) . . .
44(4) . . .
40.7(35) . . .
42.5(34) . . .
39.7(33) . . .
40.8(34) . . .
35.4(31) . . .
43(4) . . .
38.5(34) . . .
37.8(32) . . .
31.1(29) . . .
42(4) . . .
31.9(30) . . .
35.0(32) . . .
37.5(32) . . .
39.7(34) . . .
46(4) . . .
42(4) . . .
36.3(31) . . .
39.1(33) . . .
34.6(30) . . .
45(4) . . .
42.6(35) . . .
37.0(33) . . .
39.4(33) . . .
43(4) . . .
34.5(33) . . .
31.3(32) . . .
38.6(32) . . .
40.0(33) . . .
42.0(35) . . .
43(4) . . .
37.6(33) . . .
33.8(30) . . .
39.6(35) . . .
42(4) . . .
38.3(34) . . .
43(4) . . .
34.0(31) . . .
33.9(31) . . .
31.6(30) . . .
37.7(33) . . .
33.1(31) . . .
40.3(34) . . .
44.1(34) . . .
36.7(33) . . .
37.0(34) . . .
43(4) . . .
35.6(31) . . .
37.5(32) . . .
33.9(31) . . .
40(4) . . .
44(4) . . .
39.3(33) . . .
36.9(33) . . .
28.6(27) . . .
39.2(35) . . .
44(4) . . .
38.1(32) . . .
34.4(31) . . .
37.8(32) . . .
35.0(31) . . .
45(4) . . .
44.2(35) . . .
41(4) . . .
42.4(33) . . .
41.2(34) . . .
36.5(31) . . .
42.5(34) . . .
38.8(34) . . .
39.7(33) . . .
45(4) . . .
33.5(30) . . .
35.1(30) . . .
48(4) . . .
43(4) . . .
40.7(35) . . .
44.4(34) . . .
45(4) . . .
29.0(29) . . .
42(4) . . .
36.4(32) . . .
36.3(31) . . .
31.7(29) . . .
38.0(35) . . .
34.5(34) . . .
34.3(31) . . .
37.8(33) . . .
45(4) . . .
37.7(32) . . .
45(4) . . .
49(4) . . .
41.2(33) . . .
40(4) . . .
37.9(34) . . .
41.2(35) . . .
38.8(34) . . .
32.9(30) . . .
43.0(35) . . .
34.8(30) . . .
40(4) . . .
37.9(32) . . .
35.9(32) . . .
39.4(33) . . .
30.7(31) . . .
42(4) . . .
36.8(33) . . .
38.0(32) . . .
34.4(33) . . .
36.7(34) . . .
48(4) . . .
49(4) . . .
41.3(33) . . .
39.3(32) . . .
38.4(33) . . .
49(4) . . .
42.0(34) . . .
40.9(33) . . .
37.8(34) . . .
41.5(34) . . .
33.7(30) . . .
36.1(32) . . .
41.5(34) . . .
46(4) . . .
35.4(35) . . .
39.5(34) . . .
37.3(32) . . .
39.7(33) . . .
37.8(32) . . .
39(4) . . .
38(4) . . .
34.4(31) . . .
47(4) . . .
42.0(33) . . .
44(4) . . .
33.7(31) . . .
35.2(31) . . .
42.0(34) . . .
35.0(32) . . .
40(4) . . .
42(4) . . .
40.3(33) . . .
33.6(31) . . .
30.5(31) . . .
38(4) . . .
39.7(35) . . .
35.8(31) . . .
33.7(31) . . .
38.9(33) . . .
39.2(33) . . .
40.1(35) . . .
39.9(33) . . .
41.2(34) . . .
40(4) . . .
36.2(33) . . .
38.0(33) . . .
36.3(31) . . .
32.6(30) . . .
39.1(35) . . .
35.2(32) . . .
33.5(31) . . .
48(4) . . .
38.2(35) . . .
29.3(30) . . .
38.1(33) . . .
38.8(32) . . .
45(4) . . .
37.1(34) . . .
45(4) . . .
41.9(34) . . .
44(4) . . .
35.1(31) . . .
35.9(33) . . .
33.9(32) . . .
46(4) . . .
47(4) . . .
42.5(33) . . .
46(4) . . .
35.3(33) . . .
38.1(34) . . .
33.7(30) . . .
36.8(32) . . .
34.3(30) . . .
38.1(34) . . .
36.8(34) . . .
37.4(33) . . .
42.8(34) . . .
42.0(35) . . .
38.5(34) . . .
39.6(34) . . .
44.2(35) . . .
28.2(27) . . .
38.2(34) . . .
32.7(30) . . .
39.9(34) . . .
42.5(34) . . .
46(4) . . .
39.6(33) . . .
33.9(31) . . .
40.3(34) . . .
46(4) . . .
45.4(35) . . .
39.3(34) . . .
34.9(32) . . .
26.9(27) . . .
41.4(34) . . .
42(4) . . .
35.2(33) . . .
37.9(33) . . .
40.3(34) . . .
38.5(33) . . .
40.3(34) . . .
42(4) . . .
38.5(34) . . .
43.0(35) . . .
34.0(31) . . .
40(4) . . .
31.4(32) . . .
29.0(29) . . .
37.3(33) . . .
26.0(27) . . .
40.7(35) . . .
46(4) . . .
37.8(32) . . .
47(4) . . .
38.5(33) . . .
44(4) . . .
38.1(35) . . .
37.8(33) . . .
41.7(33) . . .
42.4(34) . . .
36.0(32) . . .
42(4) . . .
38.2(33) . . .
35.9(31) . . .
36.8(31) . . .
37.9(33) . . .
37.0(33) . . .
44(4) . . .
44.9(35) . . .
42.7(34) . . .
36.2(31) . . .
37.5(34) . . .
39.3(34) . . .
42.2(34) . . .
42(4) . . .
41.5(34) . . .
44(4) . . .
40.8(35) . . .
46(4) . . .
38.2(32) . . .
34.6(32) . . .
36.3(32) . . .
46(4) . . .
35.7(31) . . .
36.6(31) . . .
36.6(32) . . .
34.2(31) . . .
33.7(30) . . .
39.1(33) . . .
37.7(32) . . .
37.2(32) . . .
27.4(26) . . .
39.0(33) . . .
43.8(35) . . .
34.3(31) . . .
40.5(34) . . .
39.7(35) . . .
41.3(34) . . .
39.6(33) . . .
36.9(32) . . .
42(4) . . .
39.4(33) . . .
42.4(35) . . .
38.4(33) . . .
51(4) . . .
38.5(34) . . .
35.3(33) . . .
42(4) . . .
43.1(34) . . .
43(4) . . .
40(4) . . .
38.1(32) . . .
46(4) . . .
33.5(30) . . .
30.0(29) . . .
39(4) . . .
39.1(33) . . .
44(4) . . .
33.6(31) . . .
48(4) . . .
41(4) . . .
43.1(34) . . .
40.0(33) . . .
36.9(32) . . .
40.8(34) . . .
32.4(30) . . .
38(4) . . .
39.6(33) . . .
43.4(35) . . .
38.2(35) . . .
36.5(33) . . .
34.9(31) . . .
41.0(33) . . .
42(4) . . .
33.2(32) . . .
41(4) . . .
40.8(34) . . .
31.8(30) . . .
36.8(33) . . .
38.8(33) . . .
45(4) . . .
41(4) . . .
42.4(34) . . .
44(4) . . .
34.8(30) . . .
41.3(34) . . .
34.0(31) . . .
30.5(29) . . .
47(4) . . .
37.2(31) . . .
49(4) . . .
36.4(32) . . .
41.8(33) . . .
43(4) . . .
35.7(31) . . .
34.0(31) . . .
38.4(34) . . .
34.3(31) . . .
36.3(33) . . .
46(4) . . .
38.9(34) . . .
31.8(30) . . .
43.7(35) . . .
38.9(34) . . .
43(4) . . .
33.3(31) . . .
47(4) . . .
45(4) . . .
42.3(35) . . .
31.5(31) . . .
38.8(34) . . .
48(4) . . .
39.9(33) . . .
33.4(32) . . .
32.1(31) . . .
41.7(35) . . .
36.4(31) . . .
41.0(33) . . .
38.7(34) . . .
30.9(32) . . .
38.5(33) . . .
40.7(33) . . .
31.8(29) . . .
39.3(34) . . .
47(4) . . .
36.2(32) . . .
42.2(34) . . .
48(4) . . .
38.5(31) . . .
35.9(32) . . .
32.5(30) . . .
48(4) . . .
40.1(34) . . .
41.8(35) . . .
37.9(32) . . .
36.5(32) . . .
37.7(32) . . .
34.6(32) . . .
34.3(32) . . .
37.7(31) . . .
37.5(33) . . .
29.9(29) . . .
37.7(32) . . .
34.8(31) . . .
33.4(30) . . .
34.7(31) . . .
32.4(29) . . .
35.5(32) . . .
28.8(28) . . .
42(4) . . .
36.3(31) . . .
45(4) . . .
42.3(34) . . .
38.7(33) . . .
43(4) . . .
42.6(34) . . .
26.9(27) . . .
40(4) . . .
32.1(31) . . .
32.5(30) . . .
36.8(32) . . .
43.4(35) . . .
40.7(34) . . .
33.3(32) . . .
29.3(29) . . .
41.2(34) . . .
40.5(34) . . .
40.6(34) . . .
34.7(33) . . .
38.7(34) . . .
30.9(30) . . .
34.5(32) . . .
35.9(32) . . .
29.4(29) . . .
34.4(33) . . .
37.0(31) . . .
39.4(32) . . .
41(4) . . .
35.7(33) . . .
31.8(29) . . .
34.8(31) . . .
33.3(32) . . .
38(4) . . .
31.4(32) . . .
40.8(34) . . .
29.9(29) . . .
35.5(32) . . .
44(4) . . .
34.3(32) . . .
38.4(33) . . .
44(4) . . .
31.2(31) . . .
29.4(32) . . .
41(4) . . .
38.1(33) . . .
40.9(34) . . .
43(4) . . .
37.1(34) . . .
45(4) . . .
31.6(29) . . .
35.5(32) . . .
30.4(30) . . .
37.4(35) . . .
30.4(31) . . .
37.4(32) . . .
41.0(33) . . .
41(4) . . .
41(4) . . .
30.9(29) . . .
32.9(29) . . .
42.0(34) . . .
36.9(31) . . .
36.5(31) . . .
37.8(34) . . .
44.0(34) . . .
43(4) . . .
33.0(30) . . .
39.2(34) . . .
40.8(35) . . .
38.0(32) . . .
36.2(32) . . .
34.6(32) . . .
36.6(34) . . .
35.5(33) . . .
39.7(32) . . .
41.0(34) . . .
36.5(33) . . .
42(4) . . .
45(4) . . .
35.5(31) . . .
37.5(33) . . .
34.6(33) . . .
38.2(34) . . .
42.3(34) . . .
40.9(34) . . .
32.1(31) . . .
35.0(31) . . .
46(4) . . .
42.8(34) . . .
44.3(34) . . .
41.7(34) . . .
47(4) . . .
30.1(29) . . .
30.0(29) . . .
41.3(33) . . .
37.6(33) . . .
32.5(34) . . .
34.2(32) . . .
36.1(32) . . .
37.6(33) . . .
35.8(32) . . .
45(4) . . .
31.8(31) . . .
29.4(28) . . .
40.5(33) . . .
35.4(35) . . .
38(4) . . .
41.1(35) . . .
39.9(33) . . .
36.9(31) . . .
36.1(31) . . .
34.7(33) . . .
32.1(30) . . .
36.5(32) . . .
36.7(32) . . .
33.8(31) . . .
47(4) . . .
37.7(32) . . .
35.7(31) . . .
42.0(34) . . .
38.8(33) . . .
41(4) . . .
39.0(33) . . .
31.4(29) . . .
32.5(29) . . .
37.5(33) . . .
38.6(34) . . .
42(4) . . .
30.3(29) . . .
35.8(34) . . .
35.4(33) . . .
42(4) . . .
33.9(31) . . .
34.0(30) . . .
39(4) . . .
34.1(32) . . .
30.1(29) . . .
37.7(33) . . .
45.4(35) . . .
35.1(32) . . .
45(4) . . .
40.7(35) . . .
45.3(35) . . .
44.5(35) . . .
39.4(33) . . .
39(4) . . .
36.0(32) . . .
34.2(32) . . .
32.2(29) . . .
40.6(33) . . .
42(4) . . .
38.9(33) . . .
38.0(32) . . .
37.9(32) . . .
38.5(33) . . .
49(4) . . .
36.7(32) . . .
36.6(31) . . .
32.2(30) . . .
28.4(28) . . .
33.6(31) . . .
37.3(34) . . .
38.9(33) . . .
44.3(35) . . .
35.8(32) . . .
38.3(35) . . .
36.3(33) . . .
38.3(33) . . .
29.9(28) . . .
42(4) . . .
48(4) . . .
46(4) . . .
41.5(34) . . .
35.7(32) . . .
42(4) . . .
42.3(35) . . .
43(4) . . .
34.4(31) . . .
29.8(28) . . .
33.5(30) . . .
36.9(34) . . .
36.2(32) . . .
42.4(34) . . .
39.3(34) . . .
28.5(28) . . .
40(4) . . .
43.2(35) . . .
32.1(30) . . .
39.8(35) . . .
45(4) . . .
32.2(30) . . .
35.2(33) . . .
23.2(25) . . .
29.8(31) . . .
32.4(31) . . .
35.5(32) . . .
42(4) . . .
29.8(28) . . .
42(4) . . .
31.8(31) . . .
38.9(33) . . .
36.3(31) . . .
34.7(30) . . .
46(4) . . .
34.9(35) . . .
38.4(33) . . .
42.8(34) . . .
44.2(35) . . .
39.2(33) . . .
38.2(32) . . .
33.0(30) . . .
37.6(32) . . .
32.3(31) . . .
35.1(32) . . .
32.2(30) . . .
40.2(33) . . .
39.9(33) . . .
38.1(33) . . .
33.9(32) . . .
32.5(33) . . .
27.1(27) . . .
34.8(31) . . .
31.4(30) . . .
24.8(26) . . .
34.4(31) . . .
39.9(34) . . .
33.2(30) . . .
36.2(34) . . .
36.7(33) . . .
41(4) . . .
40.9(34) . . .
43.0(34) . . .
41.3(34) . . .
36.3(33) . . .
42(4) . . .
46(4) . . .
36.5(32) . . .
35.7(32) . . .
39(4) . . .
33.2(31) . . .
41.4(34) . . .
39.0(32) . . .
36.0(32) . . .
41(4) . . .
36.8(33) . . .
45.2(35) . . .
40.3(33) . . .
44(4) . . .
31.1(31) . . .
27.4(27) . . .
34.8(31) . . .
37.5(32) . . .
45(4) . . .
42(4) . . .
39.5(34) . . .
39.7(33) . . .
33.8(30) . . .
39.0(33) . . .
35.8(32) . . .
33.9(30) . . .
36.3(31) . . .
30.3(30) . . .
40.4(33) . . .
33.0(31) . . .
25.1(26) . . .
39.7(34) . . .
41.5(33) . . .
43(4) . . .
34.5(33) . . .
37.1(34) . . .
37.6(32) . . .
44(4) . . .
43.9(34) . . .
39.4(33) . . .
42(4) . . .
47(4) . . .
35.8(33) . . .
32.6(33) . . .
32.8(31) . . .
34.9(30) . . .
46(4) . . .
38.7(33) . . .
37.0(32) . . .
30.9(30) . . .
30.4(30) . . .
52(4) . . .
37.2(34) . . .
35.6(33) . . .
37.1(33) . . .
34.9(31) . . .
37.2(32) . . .
38.5(33) . . .
42(4) . . .
37.3(34) . . .
40.6(33) . . .
39.7(33) . . .
33.0(32) . . .
34.7(33) . . .
45(4) . . .
39.5(33) . . .
37.3(31) . . .
37.6(32) . . .
37.2(34) . . .
34.5(31) . . .
35.8(31) . . .
33.6(30) . . .
36.7(33) . . .
35.6(33) . . .
46(4) . . .
37.5(32) . . .
34.2(31) . . .
37.6(34) . . .
45(4) . . .
40.5(35) . . .
33.4(30) . . .
40.8(34) . . .
33.7(30) . . .
37.9(33) . . .
34.2(33) . . .
36.4(31) . . .
36.0(32) . . .
38.4(34) . . .
30.8(29) . . .
32.0(30) . . .
36.3(31) . . .
47(4) . . .
31.6(31) . . .
32.2(32) . . .
32.0(30) . . .
33.0(30) . . .
42.6(35) . . .
38.4(34) . . .
41.4(35) . . .
44.3(34) . . .
37.8(32) . . .
41(4) . . .
38.6(35) . . .
37.2(34) . . .
46(4) . . .
38.2(33) . . .
35.0(32) . . .
39(4) . . .
34.1(33) . . .
42(4) . . .
42(4) . . .
38.8(34) . . .
43(4) . . .
33.6(31) . . .
36.5(31) . . .
38.9(33) . . .
38.6(34) . . .
37(4) . . .
32.3(32) . . .
31.0(29) . . .
39.3(32) . . .
41(4) . . .
32.7(31) . . .
37.6(33) . . .
37.3(32) . . .
36.9(33) . . .
37.5(33) . . .
40(4) . . .
40(4) . . .
36.8(31) . . .
39(4) . . .
34.1(31) . . .
26.5(26) . . .
32.5(31) . . .
33.0(31) . . .
37.1(32) . . .
41.0(33) . . .
48(4) . . .
36.7(31) . . .
29.2(28) . . .
41.2(35) . . .
40(4) . . .
37.2(33) . . .
38.1(33) . . .
34.1(30) . . .
37.3(34) . . .
39.0(35) . . .
39(4) . . .
35.7(32) . . .
42.8(34) . . .
40(4) . . .
31.2(31) . . .
35.5(32) . . .
40.2(34) . . .
30.8(29) . . .
35.1(34) . . .
38.4(34) . . .
43(4) . . .
33.9(30) . . .
38.4(32) . . .
41.7(34) . . .
34.0(33) . . .
40.4(35) . . .
40.3(33) . . .
34.1(30) . . .
39.9(35) . . .
36(4) . . .
28.1(29) . . .
37.7(32) . . .
31.8(29) . . .
44(4) . . .
31.6(30) . . .
36.9(32) . . .
38.0(33) . . .
40.7(33) . . .
36.6(33) . . .
34.5(34) . . .
35.4(32) . . .
33.4(31) . . .
37.9(32) . . .
29.2(30) . . .
32.9(33) . . .
35.0(35) . . .
39.8(33) . . .
48(4) . . .
43(4) . . .
39.7(32) . . .
46(4) . . .
36.1(31) . . .
38.3(33) . . .
31.7(28) . . .
37.6(33) . . .
37.2(33) . . .
30.3(29) . . .
25.4(27) . . .
31.4(29) . . .
41(4) . . .
31.8(30) . . .
35.8(31) . . .
28.9(29) . . .
29.0(30) . . .
39(4) . . .
42.0(34) . . .
37.6(32) . . .
42(4) . . .
36.9(33) . . .
34.3(31) . . .
39.1(33) . . .
29.4(28) . . .
28.7(28) . . .
39(4) . . .
46(4) . . .
38.3(32) . . .
36.5(31) . . .
37.4(33) . . .
40(4) . . .
34.8(31) . . .
33.9(31) . . .
33.7(30) . . .
34.2(32) . . .
34.7(33) . . .
34.7(32) . . .
37.2(32) . . .
41.8(33) . . .
34.0(30) . . .
31.7(30) . . .
30.1(29) . . .
31.9(29) . . .
35.6(31) . . .
38.9(32) . . .
47(4) . . .
36.7(33) . . .
44.6(35) . . .
36.6(32) . . .
35.0(32) . . .
36.2(33) . . .
39.0(33) . . .
37.6(32) . . .
44(4) . . .
34.3(32) . . .
32.4(30) . . .
31.3(30) . . .
30.4(30) . . .
33.4(30) . . .
33.9(31) . . .
32.1(32) . . .
33.8(31) . . .
34.9(31) . . .
25.1(29) . . .
28.5(29) . . .
39.6(35) . . .
41.4(33) . . .
32.6(31) . . .
38.8(34) . . .
40(4) . . .
47(4) . . .
30.6(29) . . .
28.1(28) . . .
44(4) . . .
34.2(31) . . .
27.8(27) . . .
32.3(29) . . .
45(4) . . .
38.0(33) . . .
44(4) . . .
30.7(29) . . .
35.7(30) . . .
40.6(34) . . .
38.2(34) . . .
43(4) . . .
48(4) . . .
33.9(30) . . .
40.7(34) . . .
39.7(34) . . .
45(4) . . .
42.4(34) . . .
36.4(31) . . .
42.5(34) . . .
31.7(30) . . .
37.9(34) . . .
35.0(31) . . .
33.4(30) . . .
34.3(31) . . .
40(4) . . .
32.8(32) . . .
46(4) . . .
45(4) . . .
43.2(33) . . .
53(4) . . .
43(4) . . .
33.5(35) . . .
31.2(29) . . .
33.1(30) . . .
36.4(34) . . .
35.8(32) . . .
46(4) . . .
27.1(27) . . .
37.5(33) . . .
35.4(30) . . .
38.9(33) . . .
50(4) . . .
38.4(33) . . .
34.4(34) . . .
32.4(29) . . .
28.6(27) . . .
33.9(30) . . .
33.6(30) . . .
30.6(30) . . .
31.7(29) . . .
32.7(29) . . .
42.0(34) . . .
31.4(29) . . .
36.0(33) . . .
34.2(33) . . .
37.8(33) . . .
41.3(34) . . .
33.8(31) . . .
38.4(33) . . .
43(4) . . .
33.9(31) . . .
30.9(28) . . .
34.3(31) . . .
35.2(31) . . .
40(4) . . .
37.4(33) . . .
42.4(34) . . .
31.2(30) . . .
32.0(31) . . .
29.1(29) . . .
38.9(34) . . .
44.0(35) . . .
33.2(29) . . .
32.6(31) . . .
38(4) . . .
38.1(35) . . .
37.1(32) . . .
32.7(30) . . .
32.2(30) . . .
31.1(30) . . .
33.0(32) . . .
34.8(31) . . .
41.0(33) . . .
37.4(33) . . .
32.3(33) . . .
29.1(30) . . .
34.1(31) . . .
34.9(31) . . .
39(4) . . .
39(4) . . .
33.4(31) . . .
40.0(33) . . .
37.5(33) . . .
34.7(32) . . .
39.9(34) . . .
35.5(32) . . .
36.0(32) . . .
28.9(28) . . .
31.5(30) . . .
30.5(30) . . .
41.2(34) . . .
44.3(34) . . .
37.9(34) . . .
45(4) . . .
41.2(32) . . .
34.3(31) . . .
39.5(32) . . .
34.9(31) . . .
32.2(31) . . .
33.3(30) . . .
37.5(32) . . .
35.0(31) . . .
30.1(29) . . .
36.4(35) . . .
34.2(31) . . .
33.2(30) . . .
38.8(33) . . .
32.1(29) . . .
40(4) . . .
36.4(33) . . .
31.7(29) . . .
36.4(33) . . .
26.9(27) . . .
37(4) . . .
41(4) . . .
40.6(33) . . .
41.0(33) . . .
48(4) . . .
25.8(28) . . .
28.7(30) . . .
35.1(31) . . .
33.5(31) . . .
38.7(33) . . .
31.7(32) . . .
30.8(30) . . .
37.6(31) . . .
38.3(34) . . .
39.8(35) . . .
35.4(34) . . .
31.5(30) . . .
31.2(29) . . .
39.4(33) . . .
36.2(34) . . .
37(4) . . .
32.8(29) . . .
32.7(30) . . .
28.1(29) . . .
38.8(34) . . .
41.1(33) . . .
38.6(33) . . .
28.6(29) . . .
34.3(30) . . .
35.8(32) . . .
35.0(31) . . .
32.8(29) . . .
36.3(32) . . .
31.5(31) . . .
28.2(29) . . .
30.6(30) . . .
27.3(27) . . .
38.9(33) . . .
44(4) . . .
31.4(31) . . .
38.2(35) . . .
38.0(32) . . .
32.9(30) . . .
36.5(34) . . .
35.5(34) . . .
40(4) . . .
33.6(31) . . .
37.6(32) . . .
39.9(35) . . .
33.0(29) . . .
37.2(33) . . .
32.7(30) . . .
39.1(34) . . .
37.9(35) . . .
36.5(34) . . .
30.3(28) . . .
32.9(30) . . .
37.4(32) . . .
38.3(34) . . .
30.1(30) . . .
39.0(34) . . .
35.8(31) . . .
35.6(33) . . .
36.7(34) . . .
35.0(32) . . .
39.4(33) . . .
35.9(31) . . .
40(4) . . .
27.9(29) . . .
29.1(28) . . .
45.0(34) . . .
49(4) . . .
33.5(32) . . .
38.2(34) . . .
40.2(34) . . .
39.8(33) . . .
30.8(29) . . .
29.1(28) . . .
31.6(29) . . .
39(4) . . .
36.2(32) . . .
39.3(32) . . .
36.8(33) . . .
31.2(31) . . .
37.2(33) . . .
43.4(34) . . .
45.0(34) . . .
39.2(34) . . .
38.7(34) . . .
33.3(31) . . .
42.6(34) . . .
38.6(33) . . .
27.1(27) . . .
35.5(33) . . .
35.3(31) . . .
30.0(28) . . .
35.5(31) . . .
32.5(32) . . .
25.7(27) . . .
37.1(34) . . .
34.7(31) . . .
37.4(32) . . .
34.7(31) . . .
43(4) . . .
25.1(25) . . .
40.1(33) . . .
35.3(31) . . .
29.8(28) . . .
28.5(28) . . .
44(4) . . .
33.5(30) . . .
34.1(31) . . .
34.8(31) . . .
35.6(33) . . .
36.0(32) . . .
37.3(32) . . .
44(4) . . .
40.5(35) . . .
27.8(29) . . .
32.5(32) . . .
35.7(31) . . .
34.5(32) . . .
41(4) . . .
36.9(32) . . .
38.4(32) . . .
35.5(31) . . .
36(4) . . .
32.6(31) . . .
25.8(26) . . .
31.6(29) . . .
45.2(35) . . .
38.9(33) . . .
37.3(33) . . .
39.2(33) . . .
39.7(33) . . .
34.4(31) . . .
39.3(34) . . .
38.3(34) . . .
36.0(33) . . .
39.2(33) . . .
39.0(32) . . .
43(4) . . .
30.5(32) . . .
38(4) . . .
41.0(33) . . .
37.2(31) . . .
33.2(33) . . .
35(4) . . .
28.3(29) . . .
31.6(29) . . .
35.4(31) . . .
32.5(30) . . .
36.2(34) . . .
31.2(29) . . .
39.3(33) . . .
29.3(28) . . .
28.3(28) . . .
36.5(32) . . .
36.5(32) . . .
32.1(30) . . .
33.0(31) . . .
24.9(25) . . .
37.8(34) . . .
41(4) . . .
30.3(29) . . .
35.1(31) . . .
34.5(32) . . .
32.8(31) . . .
34.1(32) . . .
33.4(31) . . .
38.6(34) . . .
39.6(34) . . .
40(4) . . .
49(4) . . .
35.3(30) . . .
33.6(31) . . .
32.4(33) . . .
23.2(27) . . .
34.2(31) . . .
34.2(31) . . .
33.3(31) . . .
35.6(33) . . .
36.5(33) . . .
34.3(30) . . .
37.1(32) . . .
40(4) . . .
39.8(35) . . .
38.3(32) . . .
32.9(29) . . .
30.7(29) . . .
31.7(32) . . .
32.6(32) . . .
37.8(34) . . .
35.3(31) . . .
31.2(30) . . .
36.7(31) . . .
36.8(34) . . .
27.7(28) . . .
34.3(30) . . .
35.1(31) . . .
31.4(32) . . .
36.5(34) . . .
39.5(34) . . .
41.3(34) . . .
36.7(32) . . .
33.7(30) . . .
37.1(33) . . .
42(4) . . .
31.5(30) . . .
32.8(30) . . .
38.5(35) . . .
34.9(32) . . .
30.9(29) . . .
34.2(30) . . .
42(4) . . .
37.0(35) . . .
27.1(28) . . .
35.3(32) . . .
28.5(28) . . .
42.2(35) . . .
31.9(31) . . .
35.1(32) . . .
33.5(31) . . .
42.4(34) . . .
33.6(32) . . .
37.7(33) . . .
41.8(35) . . .
38.5(34) . . .
37.0(32) . . .
39.4(33) . . .
41(4) . . .
32.0(30) . . .
38.7(32) . . .
45(4) . . .
36.7(32) . . .
35.2(32) . . .
33.7(31) . . .
33.6(30) . . .
39.8(33) . . .
45(4) . . .
32.7(33) . . .
33.3(32) . . .
34.7(31) . . .
42.9(34) . . .
31.7(30) . . .
30.4(30) . . .
37.8(33) . . .
41.5(35) . . .
38.9(33) . . .
30.5(30) . . .
34.7(33) . . .
47(4) . . .
37.3(32) . . .
31.9(32) . . .
42(4) . . .
42(4) . . .
43(4) . . .
39.4(33) . . .
34.8(32) . . .
39(4) . . .
36.3(32) . . .
37.7(32) . . .
41.9(34) . . .
28.7(28) . . .
39.3(33) . . .
47(4) . . .
41.4(35) . . .
41.8(34) . . .
40.9(35) . . .
33.2(32) . . .
37.1(34) . . .
34.5(31) . . .
38.6(33) . . .
41.2(35) . . .
35.7(31) . . .
46(4) . . .
34.7(30) . . .
38.7(32) . . .
37.3(33) . . .
40.7(34) . . .
39.2(34) . . .
33.6(30) . . .
36.6(32) . . .
39.0(34) . . .
27.6(27) . . .
32.0(29) . . .
33.8(31) . . .
46(4) . . .
39.5(34) . . .
33.9(32) . . .
42(4) . . .
31.7(30) . . .
42.1(33) . . .
33.5(29) . . .
37.1(33) . . .
32.7(30) . . .
27.8(28) . . .
36.1(32) . . .
30.2(29) . . .
33.4(33) . . .
37(4) . . .
40.1(33) . . .
32.5(31) . . .
32.3(33) . . .
33.5(34) . . .
28.4(30) . . .
37.6(32) . . .
35.0(32) . . .
35.8(31) . . .
33.8(31) . . .
32.5(31) . . .
38.5(32) . . .
37.3(32) . . .
38.5(35) . . .
32.4(30) . . .
38.4(32) . . .
29.4(28) . . .
36.2(32) . . .
36.7(33) . . .
37.1(33) . . .
31.0(29) . . .
39.1(33) . . .
34.9(32) . . .
32.7(33) . . .
32.1(32) . . .
33.3(30) . . .
39.8(33) . . .
40(4) . . .
32.3(33) . . .
34.6(32) . . .
35.6(31) . . .
40.4(33) . . .
36.9(33) . . .
36.3(33) . . .
33.1(32) . . .
28.3(28) . . .
29.0(29) . . .
38.9(34) . . .
38.9(34) . . .
38.8(32) . . .
44.3(34) . . .
35.3(31) . . .
35.0(32) . . .
33.8(32) . . .
29.3(29) . . .
31.0(30) . . .
35.6(30) . . .
36.8(33) . . .
37.4(35) . . .
27.4(29) . . .
38.9(33) . . .
31.6(29) . . .
45.3(35) . . .
46(4) . . .
31.6(29) . . .
39.3(33) . . .
43(4) . . .
33.6(31) . . .
34.0(32) . . .
33.7(34) . . .
24.6(26) . . .
41.4(35) . . .
42.5(35) . . .
37.6(33) . . .
35.2(33) . . .
39.5(33) . . .
33.5(31) . . .
40(4) . . .
31.7(32) . . .
34.1(33) . . .
41.6(33) . . .
41.2(35) . . .
35.3(33) . . .
30.6(30) . . .
32.6(30) . . .
40.2(33) . . .
35.0(33) . . .
35.6(33) . . .
32.5(30) . . .
41.3(34) . . .
33.9(30) . . .
40.4(35) . . .
31.8(30) . . .
30.9(31) . . .
27.9(27) . . .
35.0(31) . . .
39.6(33) . . .
36.6(34) . . .
36.2(32) . . .
40.7(33) . . .
37.3(32) . . .
30.6(29) . . .
29.2(30) . . .
32.9(31) . . .
37.5(32) . . .
36.8(32) . . .
34.0(32) . . .
44(4) . . .
34.6(31) . . .
40.2(33) . . .
32.3(30) . . .
34.1(31) . . .
34.4(33) . . .
35.5(33) . . .
32.9(30) . . .
43.3(34) . . .
36.3(31) . . .
39.2(33) . . .
38.0(32) . . .
44.6(35) . . .
34.3(31) . . .
40(4) . . .
39.7(35) . . .
45(4) . . .
29.9(29) . . .
31.1(29) . . .
37.2(35) . . .
39.3(33) . . .
37.4(32) . . .
26.6(27) . . .
33.6(31) . . .
46(4) . . .
41.9(33) . . .
30.3(29) . . .
27.6(27) . . .
32.3(31) . . .
38.3(34) . . .
40.0(34) . . .
35.1(31) . . .
35.1(31) . . .
42.9(35) . . .
36.7(32) . . .
32.6(29) . . .
34.2(31) . . .
31.0(28) . . .
32.6(31) . . .
32.1(32) . . .
38(4) . . .
32.1(30) . . .
38.2(32) . . .
27.0(27) . . .
33.4(33) . . .
39.2(34) . . .
39.9(33) . . .
27.9(27) . . .
27.2(26) . . .
33.1(32) . . .
35.5(33) . . .
37.5(31) . . .
28.5(28) . . .
36.0(32) . . .
31.7(29) . . .
38.9(34) . . .
38.5(32) . . .
39.3(33) . . .
36.9(33) . . .
33.4(32) . . .
32.1(33) . . .
27.8(27) . . .
37.3(32) . . .
29.9(30) . . .
27.6(29) . . .
40(4) . . .
30.2(29) . . .
42.0(34) . . .
40.7(35) . . .
34.9(31) . . .
34.8(31) . . .
44.0(35) . . .
34.0(32) . . .
28.5(28) . . .
33.9(31) . . .
36.8(33) . . .
35.4(31) . . .
33.6(32) . . .
38(4) . . .
35.8(35) . . .
44(4) . . .
38.1(32) . . .
33.4(32) . . .
28.5(30) . . .
27.4(30) . . .
28.6(29) . . .
41.2(33) . . .
37.1(34) . . .
28.0(29) . . .
36.1(31) . . .
35.8(31) . . .
31.2(29) . . .
35.1(31) . . .
39.9(35) . . .
29.2(28) . . .
33.6(31) . . .
34.1(30) . . .
44(4) . . .
39(4) . . .
32.4(29) . . .
30.4(29) . . .
37.1(31) . . .
39.7(35) . . .
35.5(34) . . .
35.2(32) . . .
38.1(32) . . .
37.9(33) . . .
36.4(33) . . .
32.1(31) . . .
30.5(29) . . .
34.2(31) . . .
30.6(30) . . .
31.9(30) . . .
30.8(29) . . .
31.9(30) . . .
36.5(32) . . .
33.7(31) . . .
33.3(32) . . .
32.5(31) . . .
35.2(30) . . .
35.9(32) . . .
41.9(34) . . .
41(4) . . .
29.0(29) . . .
32.0(31) . . .
27.0(28) . . .
42.6(35) . . .
39(4) . . .
30.3(29) . . .
32.9(30) . . .
26.9(27) . . .
34.5(31) . . .
46(4) . . .
36.9(32) . . .
33.0(29) . . .
37.5(32) . . .
26.8(29) . . .
31.5(32) . . .
27.0(27) . . .
39.1(33) . . .
33.0(30) . . .
30.8(29) . . .
27.7(32) . . .
32.5(33) . . .
38.5(33) . . .
33.4(30) . . .
33.3(32) . . .
40(4) . . .
35.1(33) . . .
36.2(31) . . .
39(4) . . .
30.4(29) . . .
42(4) . . .
33.4(33) . . .
35.0(32) . . .
35.3(30) . . .
32.2(29) . . .
35.8(33) . . .
34.3(31) . . .
30.3(28) . . .
42(4) . . .
34.7(32) . . .
27.5(28) . . .
37.4(34) . . .
33.3(30) . . .
33.6(30) . . .
31.9(28) . . .
36.9(32) . . .
37.7(33) . . .
30.6(28) . . .
35.6(34) . . .
31.8(31) . . .
39(4) . . .
40.3(33) . . .
33.6(30) . . .
35.1(32) . . .
42.0(35) . . .
40.5(34) . . .
36.3(31) . . .
33.2(30) . . .
37.1(33) . . .
38.2(32) . . .
34.4(32) . . .
39.5(33) . . .
29.8(28) . . .
37.2(34) . . .
38.2(35) . . .
42(4) . . .
28.6(28) . . .
35.8(31) . . .
33.1(30) . . .
38(4) . . .
34.5(30) . . .
41.4(33) . . .
39.3(34) . . .
36.0(32) . . .
35.7(34) . . .
35.3(32) . . .
38.4(32) . . .
31.2(29) . . .
42.1(34) . . .
36.1(32) . . .
35.7(33) . . .
34.9(31) . . .
29.0(28) . . .
37.5(32) . . .
41(4) . . .
26.3(26) . . .
29.9(29) . . .
40.5(33) . . .
32.7(31) . . .
29.1(28) . . .
33.9(34) . . .
35.5(31) . . .
37.3(33) . . .
30.9(30) . . .
33.3(32) . . .
36.1(35) . . .
30.2(29) . . .
30.5(29) . . .
22.2(24) . . .
34.5(33) . . .
32.8(30) . . .
36.7(32) . . .
35.4(31) . . .
40(4) . . .
33.6(32) . . .
36.7(32) . . .
32.9(30) . . .
29.4(30) . . .
30.8(31) . . .
31.1(30) . . .
24.2(26) . . .
33.0(30) . . .
33.9(30) . . .
38.8(33) . . .
33.1(31) . . .
34.1(31) . . .
44.7(35) . . .
29.8(29) . . .
31.5(32) . . .
34.9(33) . . .
34.1(30) . . .
31.0(29) . . .
32.9(31) . . .
31.7(31) . . .
37.5(34) . . .
33.4(30) . . .
36.8(33) . . .
29.2(29) . . .
28.9(32) . . .
46(4) . . .
41.7(34) . . .
35.5(31) . . .
36.0(32) . . .
39.3(34) . . .
36.3(31) . . .
37.8(32) . . .
25.6(28) . . .
28.3(29) . . .
33.0(33) . . .
38.7(33) . . .
30.4(30) . . .
33.3(30) . . .
48(4) . . .
36.0(33) . . .
38.1(33) . . .
33.7(30) . . .
44(4) . . .
36.6(32) . . .
42.6(35) . . .
37.8(32) . . .
39.1(32) . . .
28.5(30) . . .
31.5(31) . . .
33.0(31) . . .
34.5(32) . . .
30.2(30) . . .
33.0(30) . . .
38.8(34) . . .
30.3(28) . . .
32.3(29) . . .
29.2(28) . . .
33.0(31) . . .
34.2(32) . . .
36.5(34) . . .
39.0(33) . . .
34.2(31) . . .
28.6(28) . . .
32.3(31) . . .
36.0(33) . . .
37.5(32) . . .
36.6(32) . . .
36.1(32) . . .
40.0(34) . . .
42.5(34) . . .
41.5(34) . . .
30.4(29) . . .
34.6(32) . . .
43(4) . . .
35.7(34) . . .
36.2(31) . . .
32.0(30) . . .
29.0(29) . . .
36.9(35) . . .
41(4) . . .
36.4(31) . . .
34.7(31) . . .
36.8(32) . . .
38.1(33) . . .
32.6(30) . . .
34.7(31) . . .
35.2(31) . . .
33.9(31) . . .
34.6(32) . . .
33.1(31) . . .
34.9(31) . . .
36.4(33) . . .
40(4) . . .
38(4) . . .
33.7(32) . . .
27.5(28) . . .
40.0(33) . . .
32.8(30) . . .
40(4) . . .
38.9(32) . . .
33.1(31) . . .
27.7(27) . . .
31.9(29) . . .
29.1(28) . . .
30.7(30) . . .
39.4(32) . . .
39.5(35) . . .
26.8(28) . . .
29.0(29) . . .
26.7(28) . . .
27.6(27) . . .
32.7(31) . . .
39(4) . . .
33.9(32) . . .
33.0(31) . . .
32.0(29) . . .
27.9(28) . . .
44(4) . . .
43.6(34) . . .
28.2(28) . . .
41.3(34) . . .
37.8(33) . . .
42(4) . . .
34.4(30) . . .
38.5(32) . . .
33.4(30) . . .
41(4) . . .
35.3(35) . . .
30.9(31) . . .
29.9(29) . . .
36.9(32) . . .
32.7(30) . . .
34.8(31) . . .
36.0(32) . . .
38.4(32) . . .
40.9(35) . . .
40(4) . . .
38(4) . . .
33.4(31) . . .
40.6(33) . . .
31.5(30) . . .
31.8(32) . . .
31.4(32) . . .
31.5(29) . . .
43.9(35) . . .
38.8(33) . . .
35.2(31) . . .
38.5(35) . . .
33.6(33) . . .
31.4(29) . . .
41.7(34) . . .
38.1(32) . . .
43(4) . . .
41.3(34) . . .
30.1(29) . . .
46(4) . . .
39.3(33) . . .
30.9(29) . . .
32.0(29) . . .
29.8(28) . . .
41.2(34) . . .
43(4) . . .
35.0(31) . . .
33.4(30) . . .
35.6(31) . . .
29.1(28) . . .
34.3(32) . . .
42.2(34) . . .
48(4) . . .
41.3(33) . . .
37.8(32) . . .
22.9(25) . . .
26.9(28) . . .
34.7(32) . . .
29.7(28) . . .
35.8(32) . . .
31.7(30) . . .
27.1(30) . . .
32.8(30) . . .
32.4(30) . . .
29.4(29) . . .
36.3(33) . . .
41(4) . . .
35.2(31) . . .
36.9(32) . . .
31.3(29) . . .
36(4) . . .
38.6(34) . . .
31.1(29) . . .
26.8(27) . . .
42(4) . . .
34.7(31) . . .
32.2(31) . . .
27.8(27) . . .
38.4(34) . . .
29.0(29) . . .
37(4) . . .
34.9(32) . . .
27.2(27) . . .
29.2(30) . . .
36.9(34) . . .
24.0(26) . . .
32.5(31) . . .
34.4(30) . . .
37.6(33) . . .
31.1(30) . . .
35.7(32) . . .
30.3(29) . . .
35.9(32) . . .
32.2(30) . . .
30.0(29) . . .
26.0(28) . . .
28.0(27) . . .
29.9(28) . . .
32.2(31) . . .
28.4(31) . . .
32.4(31) . . .
29.4(30) . . .
29.7(28) . . .
33.3(31) . . .
34.8(34) . . .
25.9(26) . . .
42.2(33) . . .
39.6(33) . . .
30.1(28) . . .
41(4) . . .
39.9(35) . . .
35.7(31) . . .
37.5(32) . . .
36.4(32) . . .
33.9(33) . . .
28.3(28) . . .
29.4(28) . . .
34.9(31) . . .
37.9(34) . . .
31.8(30) . . .
45(4) . . .
33.9(30) . . .
35.0(34) . . .
27.5(29) . . .
35.3(34) . . .
45(4) . . .
38.7(33) . . .
35.6(30) . . .
34.0(31) . . .
33.7(33) . . .
29.2(29) . . .
33.2(30) . . .
30.3(29) . . .
27.5(29) . . .
35.1(33) . . .
38.3(34) . . .
33.1(29) . . .
34.5(31) . . .
25.4(28) . . .
31.4(32) . . .
35.3(32) . . .
36.1(31) . . .
34.8(33) . . .
34.4(32) . . .
30.0(28) . . .
36.8(32) . . .
31.9(30) . . .
30.0(29) . . .
31.4(31) . . .
35.0(32) . . .
28.3(28) . . .
31.1(29) . . .
37.4(34) . . .
32.5(32) . . .
41(4) . . .
31.3(29) . . .
41.5(34) . . .
42(4) . . .
35.1(34) . . .
33.7(30) . . .
43(4) . . .
40.5(33) . . .
37.8(35) . . .
36.9(34) . . .
31.9(31) . . .
33.1(29) . . .
28.5(28) . . .
27.9(28) . . .
35.6(34) . . .
34.9(34) . . .
36.9(31) . . .
40.1(33) . . .
33.8(29) . . .
32.1(31) . . .
32.8(30) . . .
34.6(31) . . .
33.5(31) . . .
31.2(30) . . .
30.2(29) . . .
31.8(29) . . .
45.1(35) . . .
36.8(31) . . .
33.6(34) . . .
30.4(30) . . .
35.2(31) . . .
36.2(31) . . .
31.4(29) . . .
33.2(31) . . .
36.5(32) . . .
35.5(32) . . .
40.8(33) . . .
30.3(29) . . .
29.7(29) . . .
32.8(31) . . .
33.6(30) . . .
37.0(32) . . .
39.0(33) . . .
36.5(34) . . .
39.2(33) . . .
35.6(31) . . .
32.4(29) . . .
33.8(32) . . .
36.6(35) . . .
32.2(33) . . .
32.0(30) . . .
37.1(31) . . .
34.0(32) . . .
28.1(29) . . .
32.6(31) . . .
28.4(28) . . .
35.6(33) . . .
39.1(34) . . .
39(4) . . .
40.6(33) . . .
32.7(30) . . .
31.3(29) . . .
35.2(32) . . .
35.8(33) . . .
28.8(30) . . .
32.2(31) . . .
26.9(26) . . .
34.2(32) . . .
37.5(33) . . .
31.5(30) . . .
35.5(31) . . .
33.4(32) . . .
22.9(25) . . .
35.3(34) . . .
31.2(30) . . .
32.8(30) . . .
28.3(28) . . .
43(4) . . .
39.5(34) . . .
40.8(34) . . .
32.2(29) . . .
30.0(29) . . .
31.9(30) . . .
38.5(33) . . .
45(4) . . .
36.8(31) . . .
38.3(35) . . .
32.6(31) . . .
34.2(31) . . .
38.9(33) . . .
34.7(31) . . .
38.8(34) . . .
34.8(30) . . .
32.5(30) . . .
30.2(29) . . .
36.2(32) . . .
29.0(29) . . .
32.6(32) . . .
37(4) . . .
37.0(32) . . .
34.2(32) . . .
32.6(30) . . .
33.1(33) . . .
32.4(30) . . .
40.8(33) . . .
40.9(33) . . .
31.4(29) . . .
35.3(32) . . .
30.0(29) . . .
30.7(29) . . .
28.3(28) . . .
40(4) . . .
37.1(35) . . .
30.9(30) . . .
30.3(28) . . .
29.7(29) . . .
27.0(27) . . .
32.0(31) . . .
32.0(31) . . .
31.6(30) . . .
34.6(32) . . .
34.5(31) . . .
32.6(30) . . .
34.8(32) . . .
44.7(35) . . .
34.9(32) . . .
36.2(32) . . .
39.3(33) . . .
39.9(33) . . .
37.2(32) . . .
33.1(33) . . .
34.6(32) . . .
26.0(29) . . .
32.3(32) . . .
29.6(28) . . .
37.0(34) . . .
36.9(34) . . .
36.3(34) . . .
30.0(29) . . .
41.8(34) . . .
36.7(34) . . .
37.3(34) . . .
40(4) . . .
34.1(32) . . .
34.3(30) . . .
40.9(34) . . .
38.1(33) . . .
43(4) . . .
34.3(31) . . .
35.8(31) . . .
31.8(30) . . .
26.1(29) . . .
30.3(31) . . .
37.0(31) . . .
31.8(30) . . .
35.7(35) . . .
31.0(32) . . .
27.6(31) . . .
24.3(26) . . .
29.9(28) . . .
42(4) . . .
31.8(30) . . .
35.7(33) . . .
33.3(31) . . .
35.8(32) . . .
34.1(30) . . .
32.4(31) . . .
31.1(30) . . .
32.7(29) . . .
36.6(32) . . .
32.8(31) . . .
35.5(32) . . .
30.1(28) . . .
36.0(32) . . .
39.0(33) . . .
32.1(31) . . .
34.6(32) . . .
38.3(33) . . .
25.2(27) . . .
29.8(29) . . .
32.2(31) . . .
37.5(33) . . .
32.3(30) . . .
30.6(29) . . .
28.4(29) . . .
37.5(34) . . .
31.3(30) . . .
39.9(34) . . .
42.0(34) . . .
30.9(29) . . .
34.5(32) . . .
31.8(29) . . .
39.4(34) . . .
36.3(32) . . .
32.2(33) . . .
45(4) . . .
34.0(31) . . .
23.3(26) . . .
38.6(33) . . .
25.3(26) . . .
33.6(32) . . .
28.9(29) . . .
36.8(31) . . .
29.3(28) . . .
34.2(32) . . .
29.9(30) . . .
33.6(30) . . .
32.2(30) . . .
32.2(29) . . .
33.0(31) . . .
30.3(31) . . .
33.3(31) . . .
31.6(30) . . .
31.6(29) . . .
38.1(33) . . .
30.7(30) . . .
32.0(31) . . .
28.2(28) . . .
34.5(30) . . .
36.0(32) . . .
34.8(33) . . .
32.0(31) . . .
35.8(31) . . .
34.5(30) . . .
32.5(31) . . .
38.5(35) . . .
36.6(32) . . .
40.9(34) . . .
42(4) . . .
34.3(31) . . .
43(4) . . .
36.5(32) . . .
38.9(34) . . .
43.0(35) . . .
37.0(32) . . .
33.0(30) . . .
39.9(34) . . .
27.7(28) . . .
34.3(31) . . .
35.2(31) . . .
34.8(31) . . .
39.9(33) . . .
37.0(32) . . .
35.6(31) . . .
32.0(31) . . .
30.3(30) . . .
35.2(31) . . .
30.3(29) . . .
37.9(32) . . .
31.7(32) . . .
31.2(29) . . .
36.7(33) . . .
40.3(33) . . .
33.6(30) . . .
32.3(32) . . .
28.3(27) . . .
29.7(28) . . .
32.7(30) . . .
26.4(27) . . .
32.2(31) . . .
33.8(31) . . .
40.4(33) . . .
40.2(34) . . .
34.1(31) . . .
28.0(31) . . .
25.3(29) . . .
41.3(34) . . .
34.6(32) . . .
33.1(31) . . .
29.9(30) . . .
33.5(33) . . .
38.8(33) . . .
30.4(29) . . .
36.9(32) . . .
40.1(33) . . .
37.0(32) . . .
29.8(29) . . .
28.4(28) . . .
37.6(33) . . .
43(4) . . .
32.6(31) . . .
39.2(32) . . .
35.7(32) . . .
38.2(34) . . .
28.8(28) . . .
34.5(32) . . .
30.0(28) . . .
31.4(31) . . .
37(4) . . .
31.8(29) . . .
34.8(32) . . .
32.7(30) . . .
31.7(31) . . .
28.3(29) . . .
32.1(31) . . .
30.8(29) . . .
44.5(35) . . .
32.5(30) . . .
32.3(32) . . .
35.7(33) . . .
22.9(25) . . .
29.4(28) . . .
33.6(31) . . .
29.9(30) . . .
33.2(31) . . .
34.2(30) . . .
41.0(33) . . .
30.4(29) . . .
29.0(28) . . .
39.1(33) . . .
32.6(29) . . .
33.0(30) . . .
28.9(29) . . .
34.9(34) . . .
34.4(32) . . .
33.8(30) . . .
30.6(29) . . .
30.6(31) . . .
32.2(29) . . .
34.2(31) . . .
37.0(32) . . .
31.8(29) . . .
37.0(34) . . .
31.1(30) . . .
27.2(27) . . .
32.0(30) . . .
42(4) . . .
31.7(30) . . .
40(4) . . .
32.8(29) . . .
35.5(31) . . .
22.5(25) . . .
40(4) . . .
29.7(29) . . .
35.3(31) . . .
38.0(33) . . .
35.3(33) . . .
32.3(30) . . .
31.5(30) . . .
29.0(28) . . .
29.2(28) . . .
38.9(35) . . .
35.3(33) . . .
34.8(31) . . .
33.3(31) . . .
33.4(31) . . .
33.0(31) . . .
32.9(31) . . .
41.1(34) . . .
35.3(32) . . .
33.5(30) . . .
37.4(32) . . .
43(4) . . .
30.9(32) . . .
33.2(31) . . .
36.8(32) . . .
38.8(34) . . .
37.0(34) . . .
31.6(29) . . .
31.3(29) . . .
34.2(31) . . .
35.3(33) . . .
31.1(31) . . .
29.4(29) . . .
40.2(33) . . .
35.8(31) . . .
32.7(30) . . .
34.8(34) . . .
35.5(32) . . .
39.2(32) . . .
36.6(33) . . .
28.2(29) . . .
33.8(33) . . .
35.6(34) . . .
27.4(28) . . .
36.5(31) . . .
36.3(33) . . .
38.0(33) . . .
30.5(30) . . .
30.9(28) . . .
28.4(29) . . .
32.2(34) . . .
29.3(29) . . .
36.0(31) . . .
33.0(30) . . .
35.5(32) . . .
29.6(29) . . .
31.2(29) . . .
31.9(30) . . .
30.7(29) . . .
35.3(33) . . .
26.4(26) . . .
30.0(28) . . .
30.7(28) . . .
31.0(29) . . .
33.4(31) . . .
26.3(29) . . .
39.2(34) . . .
44.3(35) . . .
35.0(31) . . .
37.1(33) . . .
36.0(32) . . .
40(4) . . .
29.7(28) . . .
30.7(30) . . .
30.4(29) . . .
39(4) . . .
38.8(34) . . .
31.4(29) . . .
37.2(32) . . .
33.8(31) . . .
34.3(33) . . .
33.2(30) . . .
35.0(31) . . .
27.1(28) . . .
32.3(30) . . .
35.5(32) . . .
35.3(32) . . .
43.0(35) . . .
34.6(30) . . .
27.4(27) . . .
32.6(31) . . .
24.5(26) . . .
31.6(29) . . .
35.4(31) . . .
35.7(33) . . .
35.0(31) . . .
32.4(30) . . .
29.6(28) . . .
30.0(30) . . .
24.5(27) . . .
33.3(33) . . .
32.3(32) . . .
34.8(31) . . .
34.0(31) . . .
37.6(34) . . .
31.1(33) . . .
31.9(30) . . .
44.3(35) . . .
36.5(33) . . .
35.7(33) . . .
36.4(32) . . .
28.5(30) . . .
36.4(31) . . .
41.0(34) . . .
32.9(31) . . .
40(4) . . .
30.9(29) . . .
39.3(32) . . .
38(4) . . .
30.0(30) . . .
35.7(32) . . .
36.0(33) . . .
34.8(31) . . .
34.0(32) . . .
29.3(32) . . .
38(4) . . .
34.0(31) . . .
28.7(28) . . .
22.5(26) . . .
27.6(28) . . .
30.8(29) . . .
36.4(31) . . .
27.1(27) . . .
29.9(29) . . .
33.2(33) . . .
27.7(27) . . .
34.9(30) . . .
30.8(31) . . .
31.3(30) . . .
31.1(30) . . .
35.0(31) . . .
34.4(31) . . .
31.0(29) . . .
30.8(30) . . .
31.1(31) . . .
41.3(35) . . .
44.6(35) . . .
37.1(33) . . .
31.1(30) . . .
28.4(28) . . .
24.1(25) . . .
32.5(30) . . .
33.5(31) . . .
27.2(28) . . .
36.1(33) . . .
31.5(29) . . .
27.3(27) . . .
27.5(29) . . .
35.8(32) . . .
32.0(30) . . .
41(4) . . .
42.7(34) . . .
25.5(27) . . .
33.1(30) . . .
34.0(31) . . .
43(4) . . .
36.7(32) . . .
30.0(30) . . .
33.6(34) . . .
28.4(27) . . .
31.3(29) . . .
34.7(31) . . .
33.9(31) . . .
35.4(33) . . .
30.7(31) . . .
31.3(29) . . .
31.2(29) . . .
40.2(34) . . .
37.7(33) . . .
28.7(30) . . .
30.3(29) . . .
34.2(31) . . .
38.8(35) . . .
24.4(25) . . .
34.0(31) . . .
35.2(31) . . .
28.1(28) . . .
36.2(32) . . .
31.0(30) . . .
31.7(32) . . .
25.0(27) . . .
37.8(32) . . .
36.6(34) . . .
31.7(32) . . .
34.8(33) . . .
41.4(33) . . .
45(4) . . .
33.1(31) . . .
32.5(31) . . .
42(4) . . .
31.8(29) . . .
32.3(30) . . .
37.3(33) . . .
34.9(31) . . .
31.7(29) . . .
22.6(25) . . .
35.4(33) . . .
38.7(34) . . .
35.1(32) . . .
28.6(29) . . .
30.0(29) . . .
36.9(31) . . .
39.0(33) . . .
35.3(30) . . .
27.3(28) . . .
34.0(30) . . .
34.9(33) . . .
35.9(33) . . .
33.9(31) . . .
32.8(29) . . .
34.5(31) . . .
30.6(30) . . .
33.2(31) . . .
43(4) . . .
32.1(29) . . .
29.3(28) . . .
32.0(32) . . .
27.8(29) . . .
32.2(30) . . .
38.4(32) . . .
23.8(26) . . .
31.5(32) . . .
24.7(26) . . .
38.8(34) . . .
25.6(27) . . .
30.1(28) . . .
34.5(33) . . .
36.7(33) . . .
29.7(28) . . .
25.7(27) . . .
32.0(30) . . .
36.2(34) . . .
32.1(33) . . .
30.6(30) . . .
29.5(28) . . .
25.6(28) . . .
31.1(29) . . .
35.6(34) . . .
33.7(31) . . .
34.8(31) . . .
31.1(30) . . .
32.4(30) . . .
30.6(29) . . .
27.1(27) . . .
35.2(31) . . .
30.8(32) . . .
21.5(26) . . .
37(4) . . .
37.1(32) . . .
31.1(29) . . .
35.2(32) . . .
28.9(29) . . .
29.4(33) . . .
36.3(32) . . .
36.9(33) . . .
32.9(30) . . .
34.3(33) . . .
21.5(24) . . .
26.6(27) . . .
26.7(27) . . .
32.9(30) . . .
37.4(35) . . .
32.7(33) . . .
31.2(29) . . .
25.8(26) . . .
41(4) . . .
30.3(31) . . .
34.6(31) . . .
41.1(35) . . .
41.6(33) . . .
29.6(30) . . .
36.0(33) . . .
39(4) . . .
34.3(31) . . .
32.2(30) . . .
40.4(34) . . .
29.8(29) . . .
36.4(32) . . .
34.7(30) . . .
31.7(30) . . .
28.9(30) . . .
29.0(30) . . .
21.8(25) . . .
27.9(28) . . .
30.0(28) . . .
36.0(33) . . .
37.0(35) . . .
34.3(33) . . .
35.0(31) . . .
42(4) . . .
38.9(34) . . .
33.0(32) . . .
37.7(33) . . .
29.5(28) . . .
35.1(32) . . .
39.4(33) . . .
35.0(32) . . .
36.6(32) . . .
37.4(32) . . .
34.9(31) . . .
37.3(34) . . .
29.0(31) . . .
34.0(31) . . .
33.6(31) . . .
21.4(25) . . .
25.5(30) . . .
34.3(33) . . .
40.7(33) . . .
27.6(28) . . .
27.8(28) . . .
42(4) . . .
44(4) . . .
39.3(33) . . .
32.5(30) . . .
33.1(33) . . .
38(4) . . .
35.6(33) . . .
45(4) . . .
36.4(31) . . .
29.1(29) . . .
37.3(35) . . .
38.3(34) . . .
31.5(29) . . .
28.0(28) . . .
33.6(31) . . .
36.8(34) . . .
31.4(30) . . .
27.3(27) . . .
34.8(32) . . .
27.0(27) . . .
31.5(33) . . .
35.1(33) . . .
39.7(33) . . .
36.0(31) . . .
27.1(27) . . .
35.6(33) . . .
32.4(30) . . .
40.3(33) . . .
30.0(28) . . .
31.7(30) . . .
28.4(29) . . .
41(4) . . .
29.2(28) . . .
29.6(30) . . .
39(4) . . .
38.1(34) . . .
33.0(30) . . .
31.6(29) . . .
34.1(31) . . .
29.4(28) . . .
23.9(25) . . .
34.3(31) . . .
43.7(34) . . .
40(4) . . .
30.6(33) . . .
27.0(28) . . .
30.8(30) . . .
31.5(29) . . .
29.8(29) . . .
25.8(28) . . .
36.6(35) . . .
26.5(27) . . .
37.2(31) . . .
32.3(29) . . .
36.1(34) . . .
35.7(32) . . .
34.4(31) . . .
39.6(33) . . .
38.0(34) . . .
37(4) . . .
32.0(30) . . .
35.8(32) . . .
39.4(34) . . .
22.0(24) . . .
30.3(31) . . .
30.2(30) . . .
40.7(33) . . .
35.4(31) . . .
31.4(30) . . .
36.4(33) . . .
35.7(34) . . .
35.0(33) . . .
27.5(29) . . .
27.4(27) . . .
44(4) . . .
38.2(34) . . .
33.2(30) . . .
33.4(30) . . .
39(4) . . .
31.7(31) . . .
35.3(32) . . .
34.8(31) . . .
27.7(28) . . .
34.4(31) . . .
43(4) . . .
27.3(28) . . .
38.7(33) . . .
32.3(32) . . .
34.1(34) . . .
29.1(29) . . .
27.9(28) . . .
34.5(31) . . .
32.9(34) . . .
24.4(26) . . .
39(4) . . .
32.2(30) . . .
29.0(28) . . .
34.7(32) . . .
31.0(30) . . .
38.3(34) . . .
33.7(30) . . .
33.8(31) . . .
29.9(28) . . .
35.9(34) . . .
37.9(34) . . .
35.1(31) . . .
37.2(32) . . .
30.5(29) . . .
34.5(34) . . .
39.8(35) . . .
30.1(28) . . .
26.2(27) . . .
34.3(30) . . .
35.1(32) . . .
34.7(31) . . .
34.4(31) . . .
27.9(28) . . .
39.7(35) . . .
32.5(31) . . .
34.3(33) . . .
29.6(28) . . .
27.8(27) . . .
30.1(29) . . .
31.4(31) . . .
37.6(33) . . .
39.9(33) . . .
44(4) . . .
35.7(32) . . .
36.8(33) . . .
34.6(31) . . .
30.8(29) . . .
38.0(33) . . .
35.3(32) . . .
35.4(31) . . .
33.1(31) . . .
37.1(31) . . .
32.8(31) . . .
34.6(34) . . .
29.5(30) . . .
32.5(31) . . .
37.1(31) . . .
33.2(31) . . .
26.3(27) . . .
36.9(34) . . .
35.0(31) . . .
30.8(29) . . .
30.9(30) . . .
31.6(33) . . .
33.4(31) . . .
26.4(27) . . .
31.9(30) . . .
29.4(30) . . .
30.8(31) . . .
30.9(28) . . .
38.5(32) . . .
33.0(30) . . .
35.2(33) . . .
28.8(28) . . .
30.1(29) . . .
33.0(30) . . .
38.2(33) . . .
42.8(35) . . .
39.9(33) . . .
37.0(31) . . .
40(4) . . .
42.6(34) . . .
39.3(35) . . .
35.0(33) . . .
40.1(35) . . .
34.6(31) . . .
31.9(29) . . .
34.4(32) . . .
36.5(35) . . .
40.5(35) . . .
30.6(29) . . .
31.5(30) . . .
38.3(33) . . .
33.4(31) . . .
30.0(28) . . .
32.4(30) . . .
29.5(29) . . .
25.5(28) . . .
36.7(34) . . .
33.6(32) . . .
31.0(29) . . .
32.4(30) . . .
30.3(29) . . .
37.8(34) . . .
33.4(32) . . .
31.5(29) . . .
33.2(31) . . .
43(4) . . .
32.9(30) . . .
29.7(29) . . .
28.4(28) . . .
25.1(28) . . .
35(4) . . .
25.5(27) . . .
28.7(28) . . .
31.6(29) . . .
31.7(30) . . .
27.8(29) . . .
34.7(31) . . .
38.5(33) . . .
37.7(32) . . .
29.9(29) . . .
27.7(30) . . .
36.0(32) . . .
33.9(31) . . .
32.3(30) . . .
31.6(31) . . .
26.5(30) . . .
32.4(31) . . .
33.5(30) . . .
30.0(29) . . .
27.6(28) . . .
25.5(29) . . .
33.0(33) . . .
30.6(29) . . .
33.8(31) . . .
28.8(28) . . .
36.2(33) . . .
33.7(30) . . .
39.8(33) . . .
37.4(33) . . .
33.2(32) . . .
34.9(32) . . .
35.1(31) . . .
30.9(30) . . .
28.1(28) . . .
37.2(35) . . .
30.3(30) . . .
30.8(30) . . .
35.0(31) . . .
40.8(33) . . .
38.9(33) . . .
32.2(30) . . .
38.3(35) . . .
33.3(31) . . .
35.5(31) . . .
39.3(35) . . .
35.8(33) . . .
33.8(31) . . .
36.1(31) . . .
34.2(32) . . .
30.7(32) . . .
25.5(27) . . .
26.6(28) . . .
32.1(29) . . .
28.4(29) . . .
39(4) . . .
42(4) . . .
39.3(34) . . .
39.0(33) . . .
30.0(28) . . .
29.8(31) . . .
41.0(34) . . .
34.7(30) . . .
31.3(29) . . .
31.9(30) . . .
29.8(29) . . .
32.7(31) . . .
32.4(30) . . .
39.3(32) . . .
39.6(34) . . .
33.7(34) . . .
24.9(28) . . .
31.8(29) . . .
32.1(30) . . .
35.9(32) . . .
41.5(35) . . .
37.9(33) . . .
30.0(29) . . .
27.1(28) . . .
23.4(25) . . .
36.7(33) . . .
33.3(31) . . .
26.9(27) . . .
35.7(33) . . .
33.7(31) . . .
30.2(31) . . .
28.0(28) . . .
31.7(29) . . .
28.0(31) . . .
26.4(27) . . .
29.2(29) . . .
30.0(29) . . .
31.1(29) . . .
26.3(27) . . .
31.1(30) . . .
29.3(28) . . .
33.5(32) . . .
35.9(31) . . .
26.8(27) . . .
36.3(35) . . .
28.0(29) . . .
34.8(31) . . .
34.0(31) . . .
33.4(32) . . .
35.3(35) . . .
29.2(29) . . .
33.8(30) . . .
42.8(34) . . .
38.0(32) . . .
32.2(31) . . .
36.3(32) . . .
32.8(30) . . .
33.1(29) . . .
26.1(26) . . .
34.0(33) . . .
27.1(28) . . .
29.7(29) . . .
34.4(31) . . .
31.4(30) . . .
36.3(34) . . .
29.6(29) . . .
27.9(28) . . .
27.2(27) . . .
37.8(34) . . .
31.0(33) . . .
35.2(33) . . .
29.6(28) . . .
34.7(32) . . .
37.1(33) . . .
46(4) . . .
39.6(33) . . .
31.2(30) . . .
30.9(30) . . .
35.7(33) . . .
26.4(26) . . .
31.0(30) . . .
28.9(28) . . .
38(4) . . .
35.0(33) . . .
33.7(33) . . .
34.1(30) . . .
37.2(31) . . .
36.7(32) . . .
30.3(29) . . .
34.0(32) . . .
32.5(29) . . .
42.0(34) . . .
32.8(30) . . .
27.5(27) . . .
37.9(33) . . .
35.6(33) . . .
37.8(32) . . .
40(4) . . .
33.7(32) . . .
34.4(33) . . .
34.3(32) . . .
31.4(30) . . .
37.3(35) . . .
25.0(29) . . .
30.1(30) . . .
37.8(31) . . .
34.9(31) . . .
30.6(31) . . .
32.5(33) . . .
34.8(33) . . .
29.2(29) . . .
30.1(29) . . .
29.9(28) . . .
35.5(34) . . .
27.1(28) . . .
28.1(29) . . .
36.4(32) . . .
42.1(34) . . .
31.5(29) . . .
31.6(30) . . .
37.3(32) . . .
32.0(30) . . .
29.8(29) . . .
37(4) . . .
35.6(32) . . .
34.4(30) . . .
31.2(30) . . .
28.8(28) . . .
47(4) . . .
44(4) . . .
40.3(33) . . .
28.6(29) . . .
26.3(29) . . .
36.1(32) . . .
28.4(28) . . .
32.6(30) . . .
34.2(31) . . .
32.1(31) . . .
35.7(32) . . .
32.7(30) . . .
46(4) . . .
35.6(33) . . .
38.7(34) . . .
35.5(32) . . .
33.2(30) . . .
34.6(31) . . .
42(4) . . .
26.5(27) . . .
28.0(27) . . .
36.6(31) . . .
38.2(32) . . .
37.3(32) . . .
31.5(32) . . .
29.3(29) . . .
30.1(30) . . .
30.8(29) . . .
34.5(32) . . .
26.4(27) . . .
32.8(30) . . .
29.3(29) . . .
32.8(30) . . .
35.2(31) . . .
31.9(29) . . .
29.7(28) . . .
38.5(32) . . .
35.2(30) . . .
37.1(34) . . .
29.3(28) . . .
37.2(32) . . .
35.9(31) . . .
35.6(32) . . .
32.1(30) . . .
32.2(30) . . .
40.3(34) . . .
35.7(31) . . .
36.0(33) . . .
27.9(30) . . .
32.6(32) . . .
30.3(29) . . .
35.0(31) . . .
37.8(33) . . .
33.3(32) . . .
36.9(33) . . .
35.1(33) . . .
36.3(31) . . .
36.6(31) . . .
42.6(35) . . .
30.6(30) . . .
33.4(31) . . .
34.3(31) . . .
29.8(28) . . .
30.2(29) . . .
27.2(30) . . .
30.0(30) . . .
37.0(33) . . .
29.4(28) . . .
30.7(31) . . .
26.8(28) . . .
31.0(29) . . .
37.6(32) . . .
33.5(31) . . .
31.4(32) . . .
24.0(27) . . .
25.6(26) . . .
29.1(28) . . .
30.4(29) . . .
31.7(31) . . .
37.3(33) . . .
39.7(33) . . .
38.4(33) . . .
35.7(31) . . .
37.2(33) . . .
28.8(29) . . .
31.0(30) . . .
33.3(30) . . .
31.8(30) . . .
24.0(28) . . .
32.2(31) . . .
34.9(30) . . .
28.5(28) . . .
34.6(32) . . .
31.1(35) . . .
33.3(31) . . .
33.6(31) . . .
35.9(32) . . .
26.4(26) . . .
28.5(28) . . .
30.9(29) . . .
32.0(30) . . .
34.1(31) . . .
26.7(27) . . .
32.4(31) . . .
34.8(31) . . .
37.1(32) . . .
36.5(32) . . .
28.0(27) . . .
31.3(30) . . .
37.5(32) . . .
27.0(27) . . .
35.6(33) . . .
29.5(31) . . .
26.7(30) . . .
40(4) . . .
30.4(29) . . .
35.1(32) . . .
32.4(31) . . .
26.2(27) . . .
29.6(30) . . .
26.3(27) . . .
39.3(35) . . .
34.1(33) . . .
31.6(29) . . .
32.9(29) . . .
29.4(29) . . .
28.0(28) . . .
34.4(33) . . .
36.9(34) . . .
31.2(29) . . .
32.8(30) . . .
33.2(32) . . .
27.6(30) . . .
36.2(33) . . .
35.1(31) . . .
30.6(30) . . .
37.2(34) . . .
48(4) . . .
33.7(30) . . .
35.4(31) . . .
43.8(34) . . .
36.7(32) . . .
39.7(34) . . .
38.8(32) . . .
27.7(28) . . .
29.4(28) . . .
33.2(31) . . .
34.5(34) . . .
31.5(31) . . .
35.3(32) . . .
32.7(29) . . .
25.5(27) . . .
34.4(33) . . .
30.2(30) . . .
32.3(29) . . .
33.5(30) . . .
32.2(31) . . .
28.2(29) . . .
29.0(28) . . .
31.7(29) . . .
32.8(30) . . .
38(4) . . .
38.8(33) . . .
37.5(33) . . .
29.8(29) . . .
29.8(29) . . .
29.8(30) . . .
35.5(32) . . .
33.1(30) . . .
34.7(31) . . .
25.8(28) . . .
28.0(29) . . .
43(4) . . .
44.4(35) . . .
33.7(30) . . .
33.3(30) . . .
37(4) . . .
34.3(32) . . .
33.0(30) . . .
23.3(25) . . .
34.5(32) . . .
25.6(28) . . .
26.1(27) . . .
30.6(28) . . .
34.3(30) . . .
32.8(29) . . .
36.2(32) . . .
33.9(30) . . .
27.3(27) . . .
27.7(27) . . .
33.6(31) . . .
37(4) . . .
41.5(35) . . .
32.8(30) . . .
42.5(34) . . .
48(4) . . .
27.2(28) . . .
35.0(33) . . .
34.0(30) . . .
33.2(31) . . .
31.8(30) . . .
27.3(28) . . .
38.2(34) . . .
30.7(29) . . .
40.0(33) . . .
39.0(34) . . .
31.1(30) . . .
26.3(26) . . .
29.4(29) . . .
26.9(26) . . .
43(4) . . .
41.2(33) . . .
32.3(30) . . .
31.6(30) . . .
39.5(35) . . .
41(4) . . .
35.9(32) . . .
34.1(30) . . .
31.6(29) . . .
27.4(28) . . .
32.5(31) . . .
34.5(31) . . .
26.8(26) . . .
31.6(30) . . .
32.3(31) . . .
29.9(29) . . .
32.6(31) . . .
29.4(28) . . .
35.1(31) . . .
34.4(32) . . .
25.9(29) . . .
29.1(29) . . .
36.5(31) . . .
41.3(34) . . .
37.6(35) . . .
39(4) . . .
35.6(31) . . .
35.7(32) . . .
28.3(27) . . .
34.8(32) . . .
29.6(30) . . .
27.4(27) . . .
27.3(27) . . .
27.5(28) . . .
30.3(29) . . .
31.0(29) . . .
28.5(28) . . .
33.9(30) . . .
32.9(32) . . .
32.9(30) . . .
40.1(35) . . .
31.8(31) . . .
39.5(32) . . .
37.2(32) . . .
29.7(28) . . .
29.2(29) . . .
40.0(35) . . .
33.4(30) . . .
32.5(30) . . .
36.7(34) . . .
30.3(30) . . .
29.1(31) . . .
32.3(29) . . .
35.2(31) . . .
31.1(30) . . .
36.0(32) . . .
36.1(33) . . .
24.3(26) . . .
34.6(32) . . .
36.3(34) . . .
27.3(28) . . .
27.8(28) . . .
30.7(29) . . .
27.7(29) . . .
31.1(32) . . .
37(4) . . .
35.0(32) . . .
34.6(31) . . .
35.5(33) . . .
32.1(32) . . .
38.2(33) . . .
36.0(32) . . .
27.2(27) . . .
32.8(30) . . .
34.6(33) . . .
36.1(32) . . .
34.6(30) . . .
35.2(31) . . .
32.2(30) . . .
27.4(30) . . .
32.8(33) . . .
35.0(31) . . .
29.9(28) . . .
27.8(28) . . .
37(4) . . .
26.7(30) . . .
33.9(30) . . .
29.3(30) . . .
36.2(33) . . .
35.5(32) . . .
29.0(28) . . .
35.8(32) . . .
29.9(29) . . .
31.3(31) . . .
28.5(30) . . .
36.4(32) . . .
33.2(30) . . .
31.3(33) . . .
27.5(28) . . .
30.1(29) . . .
33.4(30) . . .
25.8(27) . . .
32.9(30) . . .
28.5(30) . . .
27.2(29) . . .
32.0(31) . . .
38.0(32) . . .
30.4(29) . . .
28.4(28) . . .
38.9(34) . . .
35.1(31) . . .
32.7(30) . . .
37.9(34) . . .
37.7(35) . . .
32.9(31) . . .
27.6(28) . . .
31.8(29) . . .
28.4(30) . . .
30.1(30) . . .
36.5(33) . . .
27.6(27) . . .
23.3(27) . . .
24.8(28) . . .
37.1(34) . . .
35.6(32) . . .
36.0(31) . . .
26.3(27) . . .
33.2(31) . . .
33.5(32) . . .
40(4) . . .
40.8(33) . . .
32.3(30) . . .
36.3(31) . . .
31.2(30) . . .
34.1(32) . . .
36.4(32) . . .
34.9(31) . . .
35.2(33) . . .
30.0(30) . . .
37.6(34) . . .
45(4) . . .
46(4) . . .
32.7(30) . . .
31.7(30) . . .
31.5(29) . . .
35.8(31) . . .
27.6(28) . . .
31.3(32) . . .
35.3(32) . . .
32.2(30) . . .
42.9(34) . . .
26.6(26) . . .
37.3(34) . . .
37.2(35) . . .
28.8(28) . . .
29.9(28) . . .
37.5(33) . . .
41.1(35) . . .
32.5(31) . . .
33.7(31) . . .
36.3(31) . . .
42(4) . . .
30.1(30) . . .
25.7(27) . . .
31.4(29) . . .
33.3(31) . . .
33.7(31) . . .
37.4(34) . . .
32.8(30) . . .
30.7(29) . . .
31.6(30) . . .
32.3(32) . . .
44(4) . . .
35.1(33) . . .
36.8(32) . . .
30.9(29) . . .
30.0(29) . . .
28.4(30) . . .
32.8(30) . . .
24.0(25) . . .
34.9(30) . . .
32.4(30) . . .
29.9(29) . . .
36.7(35) . . .
34.2(31) . . .
27.6(27) . . .
29.9(30) . . .
26.4(28) . . .
29.1(30) . . .
31.7(29) . . .
29.1(29) . . .
28.9(28) . . .
36.3(32) . . .
31.9(30) . . .
34.4(31) . . .
32.1(31) . . .
36.0(33) . . .
27.8(27) . . .
38.1(32) . . .
36.8(32) . . .
31.6(30) . . .
27.1(28) . . .
41(4) . . .
36.5(33) . . .
33.9(30) . . .
39.2(34) . . .
29.0(28) . . .
32.5(33) . . .
33.3(30) . . .
33.2(30) . . .
37.9(33) . . .
27.0(27) . . .
39.1(34) . . .
31.6(30) . . .
35.0(31) . . .
30.7(29) . . .
32.6(30) . . .
30.0(31) . . .
29.3(29) . . .
34.8(31) . . .
24.3(26) . . .
37.2(35) . . .
30.1(30) . . .
28.2(27) . . .
29.7(29) . . .
34.3(31) . . .
31.8(31) . . .
28.5(28) . . .
33.1(30) . . .
39.7(34) . . .
34.0(33) . . .
34.7(33) . . .
30.1(30) . . .
33.7(31) . . .
31.1(28) . . .
32.5(29) . . .
25.5(26) . . .
29.4(29) . . .
33.4(29) . . .
26.3(27) . . .
32.8(32) . . .
33.8(33) . . .
33.3(32) . . .
31.1(30) . . .
34.4(32) . . .
35(4) . . .
29.0(29) . . .
26.3(27) . . .
33.5(30) . . .
34.0(32) . . .
34.9(32) . . .
30.1(28) . . .
34.3(31) . . .
32.6(30) . . .
34.6(31) . . .
39.0(34) . . .
33.8(32) . . .
32.3(31) . . .
30.1(28) . . .
31.7(29) . . .
40(4) . . .
32.8(31) . . .
37.7(33) . . .
36.5(31) . . .
30.4(31) . . .
43(4) . . .
33.8(31) . . .
28.0(28) . . .
34.9(31) . . .
25.9(26) . . .
34.8(34) . . .
32.7(32) . . .
37.1(31) . . .
41(4) . . .
37.5(34) . . .
29.7(30) . . .
25.6(26) . . .
38.7(32) . . .
28.5(28) . . .
37.7(34) . . .
33.6(31) . . .
41.2(35) . . .
30.3(29) . . .
25.4(26) . . .
29.3(29) . . .
42(4) . . .
23.8(26) . . .
30.3(29) . . .
37.5(32) . . .
36.2(32) . . .
33.6(32) . . .
34.3(32) . . .
40.4(34) . . .
25.5(26) . . .
35.2(33) . . .
32.9(32) . . .
31.2(33) . . .
30.5(28) . . .
30.3(30) . . .
38.2(33) . . .
35.5(31) . . .
33.6(31) . . .
33.6(30) . . .
35.4(33) . . .
30.5(29) . . .
35.5(32) . . .
39.4(33) . . .
30.2(29) . . .
32.0(31) . . .
41(4) . . .
37.5(33) . . .
32.6(31) . . .
29.9(28) . . .
34.2(32) . . .
24.6(28) . . .
32.3(31) . . .
31.8(30) . . .
27.6(27) . . .
34(4) . . .
26.2(27) . . .
35.0(31) . . .
37.5(32) . . .
37.3(32) . . .
25.7(27) . . .
31.9(33) . . .
24.8(27) . . .
40.2(35) . . .
29.4(28) . . .
37.6(33) . . .
41(4) . . .
30.1(29) . . .
34.4(32) . . .
35.3(31) . . .
25.0(27) . . .
30.3(30) . . .
38.6(34) . . .
27.4(27) . . .
30.9(32) . . .
37.5(33) . . .
26.4(28) . . .
39(4) . . .
33.8(30) . . .
38.8(34) . . .
28.6(29) . . .
26.9(28) . . .
32.4(31) . . .
31.6(29) . . .
26.1(27) . . .
29.2(28) . . .
34(4) . . .
31.4(30) . . .
30.0(28) . . .
31.3(29) . . .
27.9(26) . . .
34.8(34) . . .
27.8(28) . . .
38.2(32) . . .
27.6(30) . . .
27.6(32) . . .
27.8(29) . . .
25.2(26) . . .
26.5(27) . . .
30.0(31) . . .
34.9(32) . . .
36.2(32) . . .
36.2(31) . . .
38.1(32) . . .
28.5(28) . . .
27.5(30) . . .
16.5(21) . . .
33.3(30) . . .
32.2(30) . . .
39.2(33) . . .
37(4) . . .
23.4(26) . . .
30.9(29) . . .
22.2(25) . . .
34.6(32) . . .
33.1(32) . . .
31.9(31) . . .
32.3(30) . . .
33.9(31) . . .
36.2(33) . . .
37(4) . . .
34.1(31) . . .
38.4(32) . . .
42(4) . . .
32.5(29) . . .
28.2(28) . . .
31.6(33) . . .
36.0(31) . . .
28.2(27) . . .
32.4(32) . . .
36.9(35) . . .
32.7(30) . . .
32.7(30) . . .
30.5(29) . . .
29.9(29) . . .
28.0(30) . . .
23.9(26) . . .
27.3(28) . . .
34.7(31) . . .
26.9(27) . . .
39.3(34) . . .
35.6(31) . . .
40.6(33) . . .
37.2(33) . . .
32.6(30) . . .
36.4(32) . . .
33.0(30) . . .
33.3(30) . . .
32.7(31) . . .
21.8(24) . . .
35.0(33) . . .
37.8(33) . . .
35.9(31) . . .
38.1(33) . . .
32.0(29) . . .
38.9(35) . . .
29.8(28) . . .
35.4(31) . . .
31.2(29) . . .
30.9(33) . . .
33.6(32) . . .
25.8(27) . . .
35.3(31) . . .
34.9(32) . . .
42(4) . . .
30.9(31) . . .
30.9(30) . . .
35.4(32) . . .
30.6(30) . . .
28.5(30) . . .
27.2(27) . . .
37.5(31) . . .
31.2(29) . . .
37.0(34) . . .
37.0(33) . . .
32.8(33) . . .
32.4(31) . . .
38.1(34) . . .
35.2(32) . . .
33.7(33) . . .
26.5(28) . . .
34.7(32) . . .
27.0(27) . . .
22.9(27) . . .
22.7(26) . . .
32.6(32) . . .
26.7(27) . . .
27.7(28) . . .
32.5(32) . . .
36.0(33) . . .
34.7(32) . . .
30.8(29) . . .
40(4) . . .
35.1(31) . . .
25.9(26) . . .
29.3(29) . . .
33.8(30) . . .
32.1(30) . . .
33.9(31) . . .
37.7(33) . . .
28.1(28) . . .
29.1(28) . . .
31.8(30) . . .
28.0(28) . . .
42(4) . . .
36.7(31) . . .
30.5(29) . . .
36.4(33) . . .
27.7(27) . . .
42.2(35) . . .
33.7(32) . . .
28.7(27) . . .
34.6(32) . . .
33.4(31) . . .
34.2(32) . . .
32.8(30) . . .
30.6(29) . . .
37.4(33) . . .
35.1(35) . . .
27.8(28) . . .
25.0(26) . . .
26.8(28) . . .
21.1(24) . . .
34.4(33) . . .
29.0(29) . . .
37.0(32) . . .
31.8(30) . . .
28.5(28) . . .
27.3(28) . . .
29.8(30) . . .
31.1(30) . . .
36.6(34) . . .
28.4(29) . . .
30.1(29) . . .
32.3(32) . . .
30.3(29) . . .
33.8(32) . . .
33.3(31) . . .
33.3(31) . . .
32.6(30) . . .
36.0(32) . . .
31.4(31) . . .
26.3(29) . . .
28.5(29) . . .
29.0(28) . . .
31.3(29) . . .
21.3(25) . . .
29.9(31) . . .
33.4(31) . . .
28.6(29) . . .
37.8(32) . . .
39.7(35) . . .
36.0(34) . . .
32.8(31) . . .
24.3(26) . . .
27.5(27) . . .
36.1(32) . . .
30.8(31) . . .
29.2(31) . . .
28.3(28) . . .
30.5(29) . . .
32.8(30) . . .
42(4) . . .
34.3(31) . . .
34.3(31) . . .
29.5(29) . . .
33.4(30) . . .
35.1(34) . . .
32.8(32) . . .
30.8(29) . . .
37.2(32) . . .
28.9(28) . . .
37.5(34) . . .
31.5(29) . . .
39.5(33) . . .
29.5(30) . . .
29.4(28) . . .
28.3(27) . . .
39.5(35) . . .
33.7(31) . . .
30.2(28) . . .
29.9(28) . . .
36.0(34) . . .
29.3(28) . . .
27.2(28) . . .
30.1(30) . . .
29.9(31) . . .
35.7(33) . . .
30.9(30) . . .
31.1(31) . . .
30.1(31) . . .
37.5(34) . . .
30.0(29) . . .
29.9(29) . . .
26.6(27) . . .
30.8(30) . . .
28.9(32) . . .
25.6(28) . . .
34.0(30) . . .
30.3(29) . . .
41(4) . . .
31.7(32) . . .
30.9(30) . . .
24.3(26) . . .
30.2(29) . . .
38.1(34) . . .
34.3(32) . . .
32.0(30) . . .
34.3(30) . . .
43(4) . . .
30.2(28) . . .
32.5(32) . . .
31.9(30) . . .
30.7(30) . . .
35.2(31) . . .
29.7(30) . . .
34.1(34) . . .
32.5(31) . . .
38.1(32) . . .
28.8(27) . . .
30.7(30) . . .
30.6(31) . . .
33.1(31) . . .
32.5(30) . . .
33.2(30) . . .
34.7(34) . . .
36.9(35) . . .
30.2(30) . . .
32.9(31) . . .
29.1(28) . . .
24.5(26) . . .
34.0(33) . . .
26.2(28) . . .
34.6(31) . . .
38.3(33) . . .
39.4(34) . . .
33.8(33) . . .
29.5(29) . . .
32.8(30) . . .
29.4(29) . . .
31.6(30) . . .
34.2(32) . . .
29.6(28) . . .
35.0(31) . . .
31.6(30) . . .
34.9(33) . . .
37.2(33) . . .
30.2(29) . . .
33.8(30) . . .
31.4(30) . . .
37.5(35) . . .
29.0(29) . . .
31.7(30) . . .
34.1(30) . . .
28.2(28) . . .
38(4) . . .
39.9(34) . . .
40.6(33) . . .
32.0(29) . . .
28.4(30) . . .
27.8(30) . . .
35.0(33) . . .
30.5(28) . . .
35.9(31) . . .
29.8(29) . . .
28.9(32) . . .
31.7(32) . . .
27.5(28) . . .
34.2(31) . . .
28.2(27) . . .
41(4) . . .
32.1(31) . . .
35.2(31) . . .
37.2(31) . . .
25.9(27) . . .
23.5(26) . . .
38.4(35) . . .
29.0(28) . . .
35.8(32) . . .
34.5(33) . . .
24.9(25) . . .
34.2(31) . . .
31.3(30) . . .
34.0(30) . . .
36.8(31) . . .
36.7(33) . . .
37.0(33) . . .
38.0(32) . . .
31.9(29) . . .
38(4) . . .
39(4) . . .
33.1(30) . . .
34.5(30) . . .
31.8(31) . . .
33.0(31) . . .
30.8(29) . . .
25.0(26) . . .
34.3(30) . . .
26.5(29) . . .
28.1(29) . . .
30.7(29) . . .
38.5(32) . . .
38.2(33) . . .
27.9(28) . . .
34.8(34) . . .
34.0(31) . . .
27.8(28) . . .
30.8(29) . . .
39.2(33) . . .
34.7(33) . . .
29.6(29) . . .
26.2(27) . . .
31.5(29) . . .
38.6(34) . . .
28.1(29) . . .
27.4(28) . . .
25.4(26) . . .
29.6(29) . . .
32.1(31) . . .
26.8(28) . . .
34.5(32) . . .
27.3(27) . . .
32.7(30) . . .
38.2(35) . . .
32.3(31) . . .
39(4) . . .
38.7(32) . . .
38.4(33) . . .
30.6(30) . . .
32.4(33) . . .
33.3(33) . . .
35.0(31) . . .
27.2(28) . . .
21.2(24) . . .
30.3(29) . . .
28.7(27) . . .
27.7(27) . . .
25.8(27) . . .
31.5(31) . . .
33.2(34) . . .
36.6(32) . . .
40.0(33) . . .
36.1(31) . . .
36.5(33) . . .
31.1(30) . . .
33.9(30) . . .
33.9(31) . . .
34.7(33) . . .
32.8(31) . . .
38.0(33) . . .
34.4(31) . . .
30.6(29) . . .
38.8(34) . . .
31.3(30) . . .
26.5(29) . . .
25.8(27) . . .
34.0(30) . . .
36.3(33) . . .
36.4(33) . . .
29.3(28) . . .
38.3(33) . . .
31.9(29) . . .
33.5(33) . . .
41(4) . . .
36.7(32) . . .
38.0(33) . . .
34.7(31) . . .
36.5(33) . . .
29.7(31) . . .
22.5(25) . . .
26.1(27) . . .
22.8(24) . . .
32.8(30) . . .
31.1(30) . . .
26.5(28) . . .
37.4(32) . . .
30.3(30) . . .
31.6(32) . . .
30.8(31) . . .
30.8(30) . . .
34.2(31) . . .
32.4(31) . . .
35.1(33) . . .
29.6(31) . . .
33.9(32) . . .
26.9(27) . . .
28.0(28) . . .
28.0(29) . . .
37.0(35) . . .
25.0(26) . . .
35.6(31) . . .
27.5(29) . . .
24.3(27) . . .
28.8(29) . . .
33.5(33) . . .
27.2(28) . . .
25.1(27) . . .
29.9(31) . . .
28.9(29) . . .
31.2(29) . . .
24.5(27) . . .
29.0(30) . . .
30.2(32) . . .
27.0(28) . . .
38.7(33) . . .
40.1(33) . . .
37.5(33) . . .
30.9(29) . . .
38.9(35) . . .
31.3(29) . . .
31.7(31) . . .
33.5(33) . . .
32.1(32) . . .
31.7(29) . . .
32.2(29) . . .
35.5(31) . . .
34.3(33) . . .
36.8(35) . . .
32.1(32) . . .
21.3(24) . . .
28.6(28) . . .
34.3(31) . . .
29.3(28) . . .
30.4(29) . . .
28.5(30) . . .
28.4(27) . . .
31.8(30) . . .
40(4) . . .
32.9(31) . . .
37.6(33) . . .
34.2(30) . . .
30.0(30) . . .
23.5(26) . . .
26.0(28) . . .
24.7(26) . . .
27.4(27) . . .
31.9(32) . . .
21.1(25) . . .
28.8(29) . . .
38.2(32) . . .
31.3(29) . . .
34.8(32) . . .
47(4) . . .
29.5(28) . . .
32.4(31) . . .
37.2(32) . . .
42.5(34) . . .
35.4(32) . . .
24.1(25) . . .
30.2(29) . . .
24.4(27) . . .
24.6(27) . . .
33.6(32) . . .
30.4(29) . . .
35.9(31) . . .
27.8(29) . . .
32.3(30) . . .
25.8(26) . . .
23.8(26) . . .
34.5(31) . . .
37.4(33) . . .
33.6(33) . . .
26.8(28) . . .
19.7(23) . . .
24.5(26) . . .
30.0(30) . . .
31.9(32) . . .
36.0(34) . . .
31.6(29) . . .
36.3(31) . . .
24.6(27) . . .
31.7(31) . . .
33.4(31) . . .
25.2(27) . . .
31.9(30) . . .
31.4(30) . . .
27.8(27) . . .
35.6(34) . . .
33.0(30) . . .
36.6(32) . . .
43(4) . . .
26.4(28) . . .
26.5(28) . . .
28.9(28) . . .
30.7(30) . . .
27.3(28) . . .
34.4(32) . . .
33.4(30) . . .
36.5(31) . . .
30.5(30) . . .
34.5(33) . . .
29.5(29) . . .
30.4(29) . . .
28.5(28) . . .
34.2(32) . . .
27.7(29) . . .
40(4) . . .
29.6(28) . . .
29.4(28) . . .
31.9(31) . . .
33.8(32) . . .
33.8(33) . . .
36.2(31) . . .
35.6(31) . . .
31.3(29) . . .
34.3(33) . . .
32.8(30) . . .
42.3(35) . . .
23.0(25) . . .
27.8(28) . . .
33.6(33) . . .
43(4) . . .
28.5(27) . . .
29.1(28) . . .
31.4(30) . . .
31.5(33) . . .
28.6(30) . . .
35.1(31) . . .
33.7(30) . . .
43(4) . . .
30.0(31) . . .
40.4(34) . . .
30.5(29) . . .
21.1(23) . . .
31.0(31) . . .
27.3(29) . . .
24.7(26) . . .
36.2(31) . . .
28.0(27) . . .
35.4(34) . . .
32.0(33) . . .
34.4(31) . . .
30.9(29) . . .
26.5(28) . . .
33.8(32) . . .
43(4) . . .
31.0(31) . . .
29.8(29) . . .
30.3(29) . . .
33.4(32) . . .
22.8(25) . . .
22.2(24) . . .
35.6(32) . . .
29.4(29) . . .
35.6(35) . . .
30.4(31) . . .
38.1(33) . . .
31.8(30) . . .
29.6(29) . . .
30.1(30) . . .
33.3(31) . . .
32.0(29) . . .
32.2(29) . . .
23.7(28) . . .
32.1(30) . . .
32.7(31) . . .
29.3(28) . . .
31.0(29) . . .
32.9(30) . . .
30.2(29) . . .
46(4) . . .
30.9(30) . . .
29.3(28) . . .
34.3(34) . . .
32.9(30) . . .
36.3(31) . . .
36.9(32) . . .
37.7(32) . . .
32.3(31) . . .
32.9(31) . . .
35.7(32) . . .
32.4(29) . . .
34.4(31) . . .
28.1(28) . . .
43(4) . . .
40.9(35) . . .
24.8(26) . . .
33.2(31) . . .
33.2(31) . . .
26.9(27) . . .
30.2(29) . . .
31.2(29) . . .
29.0(28) . . .
34.8(32) . . .
44(4) . . .
32.0(29) . . .
23.0(26) . . .
32.9(30) . . .
25.7(28) . . .
37(4) . . .
29.3(28) . . .
34.7(31) . . .
35.1(31) . . .
43(4) . . .
36.9(33) . . .
29.2(28) . . .
38.8(32) . . .
37.5(34) . . .
26.0(26) . . .
33.5(31) . . .
24.9(27) . . .
23.5(25) . . .
22.1(24) . . .
34.1(35) . . .
26.9(29) . . .
23.1(25) . . .
29.5(29) . . .
31.0(29) . . .
34.5(33) . . .
31.0(30) . . .
37.2(33) . . .
32.8(30) . . .
30.2(29) . . .
35.3(34) . . .
29.1(29) . . .
33.8(31) . . .
38.8(33) . . .
33.1(30) . . .
34.3(32) . . .
35.5(34) . . .
32.2(30) . . .
25.8(28) . . .
31.3(30) . . .
28.0(29) . . .
28.7(30) . . .
33.6(31) . . .
31.7(29) . . .
34.7(30) . . .
37.1(34) . . .
35.0(32) . . .
36.2(32) . . .
29.8(28) . . .
31.3(29) . . .
26.5(28) . . .
29.4(29) . . .
33.3(30) . . .
32.1(30) . . .
31.6(30) . . .
32.6(32) . . .
42.2(35) . . .
36.8(32) . . .
30.2(30) . . .
40(4) . . .
36.5(34) . . .
27.5(29) . . .
22.9(25) . . .
32.9(31) . . .
31.1(29) . . .
32.7(30) . . .
30.4(28) . . .
33.8(31) . . .
32.1(29) . . .
37.4(33) . . .
39.0(35) . . .
28.9(30) . . .
26.5(26) . . .
34.5(31) . . .
24.8(27) . . .
25.9(27) . . .
29.6(28) . . .
36.3(31) . . .
41(4) . . .
25.8(28) . . .
34.9(32) . . .
33.9(30) . . .
36.1(33) . . .
34.3(31) . . .
42(4) . . .
32.4(30) . . .
31.6(29) . . .
35.4(31) . . .
25.7(27) . . .
26.3(31) . . .
33.6(32) . . .
30.6(29) . . .
28.6(29) . . .
27.0(27) . . .
37(4) . . .
36.1(32) . . .
29.9(28) . . .
32.2(30) . . .
34.9(35) . . .
24.5(28) . . .
32.7(31) . . .
35.5(31) . . .
38.4(34) . . .
33.3(31) . . .
38(4) . . .
31.0(30) . . .
35.1(31) . . .
33.0(29) . . .
35.5(31) . . .
32.5(31) . . .
24.7(26) . . .
30.7(29) . . .
32.2(30) . . .
33.2(33) . . .
26.1(27) . . .
36.3(32) . . .
29.9(29) . . .
23.1(26) . . .
23.7(26) . . .
33.4(31) . . .
35.1(32) . . .
31.8(29) . . .
34.4(31) . . .
32.7(31) . . .
35.7(33) . . .
32.0(29) . . .
23.8(26) . . .
28.7(29) . . .
37.9(34) . . .
31.7(31) . . .
38.2(33) . . .
38.2(33) . . .
33.6(31) . . .
39(4) . . .
30.4(31) . . .
28.6(28) . . .
28.0(28) . . .
27.9(28) . . .
27.7(30) . . .
32.3(31) . . .
31.9(29) . . .
28.4(28) . . .
24.4(27) . . .
29.2(31) . . .
28.8(31) . . .
41.1(33) . . .
37.0(33) . . .
32.5(30) . . .
32.0(29) . . .
35.2(32) . . .
37.5(32) . . .
29.5(29) . . .
32.6(32) . . .
33.5(32) . . .
38.3(33) . . .
28.3(28) . . .
29.0(29) . . .
29.0(31) . . .
28.5(29) . . .
38.5(32) . . .
32.2(30) . . .
39.8(34) . . .
42(4) . . .
32.5(30) . . .
42(4) . . .
31.3(29) . . .
30.3(28) . . .
35.1(33) . . .
31.1(30) . . .
32.0(30) . . .
28.7(29) . . .
30.7(32) . . .
23.3(25) . . .
23.9(27) . . .
35.3(32) . . .
31.0(29) . . .
33.6(31) . . .
27.3(29) . . .
26.1(27) . . .
21.6(25) . . .
33.2(30) . . .
35.6(32) . . .
33.6(32) . . .
31.1(30) . . .
28.8(28) . . .
29.4(28) . . .
31.9(31) . . .
33.7(31) . . .
25.9(26) . . .
28.4(28) . . .
28.2(28) . . .
35.0(30) . . .
31.2(30) . . .
24.1(27) . . .
27.6(27) . . .
32.4(30) . . .
27.2(28) . . .
31.2(32) . . .
39.3(33) . . .
37.1(32) . . .
33.4(30) . . .
40(4) . . .
24.0(25) . . .
36.4(33) . . .
31.7(29) . . .
28.5(28) . . .
33.1(30) . . .
37.4(33) . . .
31.1(29) . . .
35.3(31) . . .
32.7(30) . . .
31.5(32) . . .
29.3(29) . . .
32.4(31) . . .
32.1(29) . . .
33.3(32) . . .
29.1(29) . . .
37.9(32) . . .
52(4) . . .
42.7(34) . . .
28.0(30) . . .
34.2(34) . . .
31.0(30) . . .
31.7(30) . . .
29.3(29) . . .
26.1(27) . . .
29.1(28) . . .
27.0(28) . . .
31.1(29) . . .
35.9(31) . . .
39.0(35) . . .
27.1(28) . . .
31.5(30) . . .
32.6(30) . . .
31.8(29) . . .
24.1(26) . . .
32.2(34) . . .
32.9(31) . . .
28.7(28) . . .
26.4(27) . . .
26.3(27) . . .
28.7(31) . . .
36.7(33) . . .
29.9(28) . . .
26.6(27) . . .
32.2(31) . . .
37.2(32) . . .
36.5(32) . . .
33.3(30) . . .
25.3(27) . . .
22.4(26) . . .
33.6(33) . . .
32.2(30) . . .
32.2(30) . . .
36.1(33) . . .
34.1(30) . . .
34.4(30) . . .
30.1(29) . . .
31.6(30) . . .
30.4(30) . . .
28.7(29) . . .
33.4(32) . . .
44(4) . . .
22.9(25) . . .
32.5(32) . . .
33.6(31) . . .
26.6(27) . . .
25.8(27) . . .
31.1(29) . . .
32.7(31) . . .
27.1(28) . . .
36.9(35) . . .
34.0(30) . . .
34.2(30) . . .
31.8(30) . . .
31.3(31) . . .
28.8(29) . . .
33.0(31) . . .
32.0(30) . . .
27.6(28) . . .
32.3(33) . . .
23.4(25) . . .
32.7(30) . . .
37.5(32) . . .
35.2(32) . . .
29.2(32) . . .
31.9(32) . . .
34.9(31) . . .
25.9(27) . . .
34.1(32) . . .
32.4(31) . . .
24.9(26) . . .
37.1(32) . . .
33.2(30) . . .
34.7(33) . . .
32.3(32) . . .
27.9(28) . . .
40.8(33) . . .
29.2(28) . . .
34.4(33) . . .
19.9(25) . . .
37.1(35) . . .
33.8(30) . . .
30.5(29) . . .
32.9(33) . . .
26.6(27) . . .
33.7(31) . . .
32.8(29) . . .
36.5(31) . . .
37.9(33) . . .
30.9(30) . . .
28.1(28) . . .
31.7(29) . . .
28.8(29) . . .
30.8(31) . . .
27.4(27) . . .
32.5(30) . . .
31.4(30) . . .
31.7(30) . . .
42(4) . . .
32.4(32) . . .
34.0(30) . . .
28.9(29) . . .
37.5(34) . . .
35.2(33) . . .
24.1(25) . . .
31.1(29) . . .
30.1(28) . . .
33.6(34) . . .
28.9(30) . . .
35.2(32) . . .
31.9(29) . . .
33.4(30) . . .
36.5(35) . . .
32.1(33) . . .
28.5(32) . . .
27.0(29) . . .
29.5(28) . . .
30.9(29) . . .
33.3(33) . . .
27.7(27) . . .
28.6(28) . . .
29.9(29) . . .
27.5(28) . . .
32.4(31) . . .
35.1(32) . . .
37.4(32) . . .
41.7(34) . . .
33.7(32) . . .
26.7(28) . . .
37.8(34) . . .
30.6(29) . . .
31.6(30) . . .
26.2(27) . . .
35.7(32) . . .
33.5(31) . . .
30.0(28) . . .
36.2(32) . . .
29.6(28) . . .
24.8(27) . . .
36(4) . . .
31.2(30) . . .
32.7(31) . . .
35.2(32) . . .
22.9(27) . . .
20.6(27) . . .
36.8(31) . . .
30.2(30) . . .
29.5(31) . . .
27.9(30) . . .
24.9(27) . . .
27.7(27) . . .
34.4(33) . . .
27.5(29) . . .
30.5(29) . . .
37.9(32) . . .
29.9(28) . . .
33.7(34) . . .
28.8(29) . . .
38.3(33) . . .
31.5(29) . . .
31.7(30) . . .
27.8(29) . . .
32.5(35) . . .
39.0(34) . . .
35.8(31) . . .
44.8(34) . . .
25.9(26) . . .
30.6(34) . . .
28.4(29) . . .
33.9(31) . . .
35.0(30) . . .
32.5(30) . . .
26.9(26) . . .
32.8(30) . . .
27.9(28) . . .
33.0(30) . . .
28.4(27) . . .
34.5(32) . . .
33.8(31) . . .
37.0(32) . . .
30.5(29) . . .
27.0(28) . . .
33.3(33) . . .
29.2(29) . . .
37.7(32) . . .
29.2(27) . . .
36.6(33) . . .
34.0(32) . . .
37.8(33) . . .
33.0(30) . . .
27.9(28) . . .
27.2(27) . . .
37.4(32) . . .
42.5(35) . . .
33.6(30) . . .
37.6(34) . . .
35.2(33) . . .
31.4(31) . . .
32.3(29) . . .
23.7(25) . . .
28.3(29) . . .
33.8(33) . . .
35.5(33) . . .
37.0(35) . . .
28.8(27) . . .
29.7(29) . . .
41(4) . . .
28.2(32) . . .
26.5(27) . . .
42.8(34) . . .
34.2(32) . . .
30.8(30) . . .
37.3(32) . . .
36.0(32) . . .
34.4(31) . . .
34.0(31) . . .
32.9(33) . . .
27.5(28) . . .
31.9(30) . . .
30.3(29) . . .
35.1(32) . . .
27.7(30) . . .
32.2(31) . . .
34.6(31) . . .
27.6(28) . . .
35.8(31) . . .
31.3(33) . . .
32.3(31) . . .
31.0(29) . . .
29.8(29) . . .
20.5(24) . . .
33.8(32) . . .
36.7(32) . . .
32.2(29) . . .
28.2(28) . . .
32.9(31) . . .
31.7(32) . . .
29.4(29) . . .
31.5(30) . . .
30.3(28) . . .
40(4) . . .
27.8(29) . . .
37.6(34) . . .
35.6(31) . . .
36.0(33) . . .
29.0(30) . . .
31.4(30) . . .
34.2(31) . . .
34.6(30) . . .
27.7(28) . . .
28.1(29) . . .
32.9(34) . . .
27.6(27) . . .
34.0(31) . . .
29.4(29) . . .
20.1(24) . . .
24.1(29) . . .
27.4(27) . . .
31.8(29) . . .
28.8(29) . . .
24.8(27) . . .
28.4(29) . . .
27.4(27) . . .
28.8(28) . . .
31.8(31) . . .
25.9(27) . . .
23.7(26) . . .
33.4(30) . . .
33.2(30) . . .
35.2(31) . . .
35.9(34) . . .
32.4(30) . . .
26.0(26) . . .
34.3(32) . . .
35.0(35) . . .
39(4) . . .
32.3(31) . . .
29.6(29) . . .
30.8(30) . . .
28.6(30) . . .
38(4) . . .
33.0(32) . . .
38.7(32) . . .
34.7(31) . . .
41(4) . . .
32.5(31) . . .
33.7(31) . . .
38.8(32) . . .
28.8(28) . . .
29.8(30) . . .
32.5(30) . . .
29.6(29) . . .
33.1(31) . . .
30.3(29) . . .
39.1(33) . . .
38.6(33) . . .
29.5(28) . . .
33.9(30) . . .
37.2(32) . . .
31.2(30) . . .
37.6(32) . . .
39.6(34) . . .
21.6(24) . . .
34.7(32) . . .
27.0(25) . . .
38(4) . . .
31.4(31) . . .
38.5(32) . . .
26.0(26) . . .
33.4(32) . . .
29.0(28) . . .
37.1(32) . . .
28.7(28) . . .
38.0(34) . . .
36(4) . . .
26.6(27) . . .
32.7(30) . . .
30.3(29) . . .
34.4(31) . . .
26.3(27) . . .
30.0(29) . . .
43.3(34) . . .
36.1(32) . . .
35.0(30) . . .
38.3(34) . . .
39.2(33) . . .
30.8(29) . . .
26.1(27) . . .
26.5(27) . . .
31.8(32) . . .
25.9(27) . . .
21.7(25) . . .
27.3(27) . . .
27.9(30) . . .
24.3(27) . . .
27.8(28) . . .
35.8(32) . . .
40.1(35) . . .
35.0(32) . . .
30.8(31) . . .
25.5(26) . . .
31.1(29) . . .
36.0(32) . . .
32.2(32) . . .
36.5(33) . . .
31.2(29) . . .
32.5(30) . . .
30.0(29) . . .
26.1(28) . . .
24.6(28) . . .
27.3(27) . . .
26.6(28) . . .
34.1(30) . . .
35.1(32) . . .
26.3(27) . . .
27.6(28) . . .
32.8(30) . . .
31.0(29) . . .
29.2(31) . . .
23.8(26) . . .
27.3(27) . . .
32.3(30) . . .
30.0(30) . . .
37.1(35) . . .
30.9(29) . . .
26.5(27) . . .
34.0(30) . . .
41.8(35) . . .
32.4(32) . . .
21.2(24) . . .
31.7(30) . . .
30.7(29) . . .
36.8(34) . . .
31.6(31) . . .
28.8(28) . . .
23.1(25) . . .
30.1(29) . . .
31.5(31) . . .
28.3(29) . . .
29.7(29) . . .
26.5(27) . . .
39.0(33) . . .
27.7(26) . . .
35.5(33) . . .
24.8(27) . . .
33.6(30) . . .
35.4(32) . . .
32.3(32) . . .
32.8(30) . . .
32.3(29) . . .
26.0(27) . . .
37.3(34) . . .
26.7(27) . . .
28.5(28) . . .
27.9(29) . . .
35.0(30) . . .
28.0(31) . . .
31.9(30) . . .
35.4(33) . . .
30.0(29) . . .
38.1(32) . . .
31.6(31) . . .
30.9(30) . . .
32.4(29) . . .
32.7(29) . . .
38.7(32) . . .
34.0(30) . . .
30.9(28) . . .
35.2(32) . . .
28.6(28) . . .
28.1(27) . . .
29.3(29) . . .
31.5(32) . . .
28.7(29) . . .
25.4(27) . . .
33.8(31) . . .
29.2(29) . . .
27.0(27) . . .
33.7(31) . . .
34.2(30) . . .
35.7(31) . . .
31.2(29) . . .
39(4) . . .
28.2(29) . . .
30.4(29) . . .
28.8(28) . . .
27.1(29) . . .
21.4(24) . . .
29.6(28) . . .
38.8(32) . . .
27.5(27) . . .
33.5(32) . . .
33.5(32) . . .
35.7(32) . . .
35.0(31) . . .
45(4) . . .
29.4(29) . . .
26.9(27) . . .
33.6(31) . . .
24.0(26) . . .
34.9(32) . . .
29.1(29) . . .
28.5(28) . . .
29.3(29) . . .
34.0(31) . . .
28.7(28) . . .
38.1(34) . . .
27.2(28) . . .
32.0(30) . . .
29.5(29) . . .
30.2(29) . . .
29.1(29) . . .
31.6(32) . . .
26.0(28) . . .
29.3(28) . . .
31.7(32) . . .
33.5(33) . . .
39.1(33) . . .
36.8(31) . . .
34.7(32) . . .
32.1(30) . . .
38(4) . . .
32.0(31) . . .
29.4(29) . . .
27.6(28) . . .
33.2(34) . . .
29.1(32) . . .
31.1(30) . . .
30.8(29) . . .
30.8(29) . . .
31.5(31) . . .
37.2(35) . . .
26.7(28) . . .
24.3(26) . . .
26.4(26) . . .
25.1(27) . . .
30.6(32) . . .
33.9(31) . . .
33.1(30) . . .
35.9(31) . . .
31.2(31) . . .
31.3(31) . . .
32.9(33) . . .
28.5(28) . . .
22.4(25) . . .
24.4(26) . . .
27.9(30) . . .
30.3(29) . . .
32.1(30) . . .
25.0(26) . . .
34.5(33) . . .
35.4(33) . . .
30.7(29) . . .
40.1(33) . . .
36.9(33) . . .
26.6(26) . . .
28.4(30) . . .
34.0(30) . . .
29.0(28) . . .
32.8(32) . . .
34.7(31) . . .
33.9(32) . . .
27.5(28) . . .
22.1(25) . . .
28.7(31) . . .
24.9(25) . . .
33.3(30) . . .
28.5(29) . . .
26.3(27) . . .
35.1(32) . . .
38.6(35) . . .
32.6(31) . . .
25.9(26) . . .
38.4(33) . . .
37.1(33) . . .
34.7(34) . . .
25.4(26) . . .
32.7(30) . . .
25.1(26) . . .
34.5(31) . . .
27.0(27) . . .
34.9(34) . . .
30.8(29) . . .
22.0(24) . . .
30.3(34) . . .
25.7(28) . . .
27.7(27) . . .
41.7(34) . . .
30.6(28) . . .
34.5(31) . . .
32.5(33) . . .
29.3(29) . . .
33.9(30) . . .
35.2(32) . . .
27.8(28) . . .
38.6(34) . . .
28.3(29) . . .
23.8(26) . . .
29.8(29) . . .
28.0(29) . . .
34.3(32) . . .
30.8(29) . . .
30.7(29) . . .
34.1(31) . . .
28.0(28) . . .
29.5(30) . . .
28.9(28) . . .
30.7(29) . . .
21.9(26) . . .
27.1(31) . . .
32.0(31) . . .
36.1(32) . . .
35.5(32) . . .
29.0(28) . . .
25.7(27) . . .
38.4(33) . . .
40.0(33) . . .
30.6(29) . . .
24.2(26) . . .
30.1(32) . . .
28.6(29) . . .
36.5(31) . . .
31.0(29) . . .
33.3(31) . . .
34.4(31) . . .
30.5(32) . . .
34.5(32) . . .
33.5(32) . . .
29.9(28) . . .
36.6(33) . . .
29.8(29) . . .
30.8(29) . . .
36.6(32) . . .
31.0(30) . . .
34.2(33) . . .
37.9(34) . . .
30.9(30) . . .
32.0(29) . . .
30.1(29) . . .
33.3(33) . . .
26.5(29) . . .
30.6(29) . . .
30.1(29) . . .
27.3(30) . . .
27.2(29) . . .
29.0(28) . . .
43.9(35) . . .
33.0(31) . . .
31.5(30) . . .
34(4) . . .
21.0(24) . . .
42.5(34) . . .
30.5(30) . . .
38(4) . . .
30.1(30) . . .
31.5(30) . . .
35.3(31) . . .
29.8(29) . . .
27.1(26) . . .
27.5(27) . . .
36.7(32) . . .
26.7(27) . . .
27.0(27) . . .
41(4) . . .
30.8(31) . . .
22.1(24) . . .
30.1(29) . . .
27.2(30) . . .
28.7(28) . . .
41.9(35) . . .
31.0(29) . . .
33.9(31) . . .
39.3(33) . . .
32.5(31) . . .
32.0(30) . . .
38.6(32) . . .
27.2(27) . . .
25.4(27) . . .
25.3(29) . . .
26.7(28) . . .
31.4(29) . . .
31.8(29) . . .
33.1(30) . . .
33.9(32) . . .
26.6(27) . . .
26.7(27) . . .
31.4(29) . . .
28.7(28) . . .
34.2(34) . . .
33.4(30) . . .
29.4(28) . . .
27.3(28) . . .
24.2(25) . . .
32.8(30) . . .
34.3(32) . . .
40.9(33) . . .
26.1(27) . . .
25.0(25) . . .
32.2(31) . . .
31.6(31) . . .
31.5(29) . . .
31.0(29) . . .
33.5(32) . . .
33.0(31) . . .
29.4(29) . . .
34.5(31) . . .
34.9(33) . . .
28.7(30) . . .
34.2(30) . . .
33.8(30) . . .
34.9(31) . . .
30.0(31) . . .
41(4) . . .
27.5(27) . . .
34.7(31) . . .
31.8(29) . . .
32.7(30) . . .
33.0(31) . . .
35.6(32) . . .
32.6(30) . . .
32.2(30) . . .
33.4(31) . . .
30.7(30) . . .
23.3(25) . . .
33.9(31) . . .
32.3(31) . . .
31.6(30) . . .
32.4(33) . . .
31.0(29) . . .
25.9(27) . . .
28.1(28) . . .
31.6(31) . . .
23.1(26) . . .
29.1(30) . . .
32.2(30) . . .
32.4(29) . . .
32.7(31) . . .
28.0(29) . . .
41(4) . . .
33.6(30) . . .
30.1(29) . . .
33.4(33) . . .
27.9(30) . . .
31.1(30) . . .
27.4(27) . . .
28.4(28) . . .
28.4(29) . . .
30.1(31) . . .
29.4(28) . . .
29.0(28) . . .
33.2(32) . . .
27.3(27) . . .
27.5(28) . . .
30.6(29) . . .
38.8(32) . . .
36.9(31) . . .
27.5(27) . . .
27.1(28) . . .
30.9(29) . . .
29.3(29) . . .
29.1(29) . . .
37.6(34) . . .
38.1(35) . . .
43(4) . . .
30.6(29) . . .
23.6(26) . . .
32.1(32) . . .
32.5(31) . . .
27.7(28) . . .
28.5(28) . . .
30.2(30) . . .
29.5(31) . . .
31.7(30) . . .
27.3(28) . . .
31.8(29) . . .
29.6(30) . . .
35.3(35) . . .
30.1(30) . . .
24.6(26) . . .
22.4(25) . . .
37.5(33) . . .
32.1(32) . . .
34.1(34) . . .
37.3(33) . . .
31.3(29) . . .
28.4(30) . . .
32.5(32) . . .
26.1(28) . . .
29.0(28) . . .
26.6(28) . . .
35.2(33) . . .
34.7(35) . . .
35.0(32) . . .
27.5(27) . . .
25.7(27) . . .
26.6(27) . . .
24.6(27) . . .
18.3(23) . . .
27.6(28) . . .
23.2(25) . . .
33.3(31) . . .
30.1(28) . . .
34.0(33) . . .
24.2(26) . . .
26.1(26) . . .
32.8(34) . . .
26.3(29) . . .
25.8(26) . . .
28.4(27) . . .
27.5(27) . . .
29.3(30) . . .
27.3(29) . . .
30.4(29) . . .
38.3(32) . . .
26.7(28) . . .
27.2(28) . . .
27.1(27) . . .
30.6(29) . . .
31.3(30) . . .
29.0(31) . . .
38(4) . . .
31.1(30) . . .
37.6(32) . . .
30.5(29) . . .
28.4(29) . . .
31.6(32) . . .
36.5(32) . . .
30.5(29) . . .
24.3(28) . . .
30.0(30) . . .
24.6(27) . . .
35.1(32) . . .
30.8(29) . . .
28.1(28) . . .
26.7(29) . . .
34.2(33) . . .
31.0(32) . . .
24.5(25) . . .
32.5(31) . . .
37(4) . . .
31.8(31) . . .
36.8(33) . . .
33.5(30) . . .
32.1(30) . . .
36.1(33) . . .
31.0(32) . . .
36.8(35) . . .
21.1(24) . . .
39.7(33) . . .
27.4(28) . . .
29.4(29) . . .
36.8(32) . . .
28.1(28) . . .
28.4(29) . . .
26.3(29) . . .
30.9(30) . . .
31.7(31) . . .
27.4(28) . . .
28.0(29) . . .
32.6(31) . . .
33.9(31) . . .
35.6(31) . . .
35.7(32) . . .
34.6(34) . . .
37.4(34) . . .
31.1(29) . . .
26.6(27) . . .
27.0(28) . . .
30.3(32) . . .
25.9(27) . . .
24.9(26) . . .
33.1(30) . . .
22.8(25) . . .
20.7(25) . . .
32.8(33) . . .
30.0(29) . . .
27.9(28) . . .
35.9(31) . . .
28.8(28) . . .
37(4) . . .
28.6(30) . . .
24.7(26) . . .
37.5(32) . . .
32.2(30) . . .
35.0(32) . . .
33.6(31) . . .
38.3(32) . . .
33.1(30) . . .
38.6(33) . . .
28.1(30) . . .
29.1(29) . . .
31.9(29) . . .
30.0(28) . . .
30.6(29) . . .
38(4) . . .
37.0(33) . . .
30.0(29) . . .
32.2(31) . . .
30.4(29) . . .
32.5(31) . . .
32.7(32) . . .
31.0(29) . . .
24.5(26) . . .
33.7(32) . . .
28.1(27) . . .
25.5(27) . . .
31.5(30) . . .
32.2(30) . . .
38.0(34) . . .
29.6(29) . . .
28.9(30) . . .
32.5(29) . . .
32.1(30) . . .
34.0(33) . . .
33.2(31) . . .
28.3(29) . . .
35.3(31) . . .
26.2(26) . . .
33.3(32) . . .
37(4) . . .
36.8(34) . . .
35.3(31) . . .
37.1(32) . . .
34.5(34) . . .
39.2(34) . . .
32.5(30) . . .
35.8(31) . . .
25.9(27) . . .
22.8(27) . . .
29.3(29) . . .
32.3(30) . . .
28.8(28) . . .
38(4) . . .
31.4(30) . . .
29.1(28) . . .
34.9(31) . . .
32.8(30) . . .
37.3(33) . . .
31.4(30) . . .
33.3(32) . . .
32.3(30) . . .
42.5(35) . . .
33.4(32) . . .
32.7(32) . . .
34.3(31) . . .
35.9(31) . . .
32.5(30) . . .
31.1(31) . . .
30.2(32) . . .
35.5(33) . . .
34.4(30) . . .
34.8(33) . . .
27.1(28) . . .
28.4(29) . . .
29.0(28) . . .
35.1(31) . . .
38.3(33) . . .
30.2(30) . . .
25.4(27) . . .
29.5(29) . . .
34.5(31) . . .
33.3(30) . . .
30.5(29) . . .
37.4(32) . . .
33.0(30) . . .
38.6(33) . . .
26.7(28) . . .
32.4(32) . . .
29.0(29) . . .
34.3(33) . . .
33.4(30) . . .
17.9(22) . . .
29.7(31) . . .
35.0(32) . . .
34.0(30) . . .
32.6(30) . . .
34.5(34) . . .
35(4) . . .
23.9(27) . . .
26.8(28) . . .
29.3(28) . . .
32.8(30) . . .
26.6(27) . . .
30.5(31) . . .
25.2(26) . . .
32.5(30) . . .
31.0(29) . . .
28.8(29) . . .
34.1(32) . . .
25.0(26) . . .
29.6(29) . . .
36(4) . . .
23.1(26) . . .
24.7(27) . . .
32.0(30) . . .
35.3(32) . . .
31.6(30) . . .
28.2(28) . . .
27.0(27) . . .
32.4(31) . . .
25.9(27) . . .
28.9(28) . . .
28.9(29) . . .
30.7(32) . . .
27.4(27) . . .
22.9(25) . . .
32.3(32) . . .
23.6(26) . . .
32.2(30) . . .
34.2(30) . . .
33.3(34) . . .
29.3(30) . . .
35.9(33) . . .
29.5(29) . . .
24.7(27) . . .
38.6(34) . . .
24.8(28) . . .
34.6(32) . . .
28.0(29) . . .
30.8(30) . . .
24.1(26) . . .
28.3(30) . . .
34.8(32) . . .
30.7(28) . . .
31.2(30) . . .
21.9(25) . . .
36.8(32) . . .
32.1(28) . . .
40.2(33) . . .
29.9(29) . . .
27.6(29) . . .
25.4(28) . . .
31.0(29) . . .
19.7(23) . . .
24.6(25) . . .
33.6(30) . . .
29.2(29) . . .
28.1(27) . . .
30.6(28) . . .
34.0(31) . . .
33.3(32) . . .
33.7(32) . . .
29.0(31) . . .
19.5(23) . . .
31.6(30) . . .
29.9(30) . . .
28.2(30) . . .
25.4(27) . . .
22.6(25) . . .
28.6(28) . . .
27.6(29) . . .
29.4(30) . . .
28.7(29) . . .
30.5(30) . . .
29.5(29) . . .
29.6(31) . . .
29.7(31) . . .
25.9(28) . . .
23.6(25) . . .
36.7(34) . . .
38.0(33) . . .
24.5(27) . . .
24.7(26) . . .
26.3(27) . . .
28.9(30) . . .
25.5(27) . . .
36.3(34) . . .
32.1(32) . . .
34.3(30) . . .
33.5(32) . . .
29.1(30) . . .
33.1(32) . . .
32.1(29) . . .
30.9(30) . . .
27.8(27) . . .
32.5(34) . . .
24.4(26) . . .
30.2(28) . . .
24.7(25) . . .
29.5(28) . . .
35.2(32) . . .
31.4(30) . . .
29.5(28) . . .
25.3(26) . . .
31.8(30) . . .
40(4) . . .
34.8(31) . . .
26.8(28) . . .
25.6(26) . . .
31.3(30) . . .
40(4) . . .
34.5(34) . . .
33.3(31) . . .
30.1(29) . . .
31.4(30) . . .
31.0(32) . . .
28.4(30) . . .
24.9(26) . . .
27.5(27) . . .
23.8(26) . . .
30.6(32) . . .
35.2(32) . . .
29.9(28) . . .
33.9(32) . . .
30.7(30) . . .
30.4(31) . . .
34.4(30) . . .
33.9(30) . . .
29.2(29) . . .
26.9(28) . . .
30.7(30) . . .
29.9(29) . . .
32.1(30) . . .
35.3(34) . . .
28.6(30) . . .
29.3(30) . . .
32.2(29) . . .
33.3(30) . . .
25.1(26) . . .
27.0(29) . . .
27.1(29) . . .
31.0(30) . . .
41.8(34) . . .
34.7(31) . . .
25.4(28) . . .
22.0(26) . . .
29.8(31) . . .
31.4(29) . . .
33.3(30) . . .
35.0(33) . . .
31.2(30) . . .
35.3(30) . . .
23.9(27) . . .
37.0(33) . . .
33.7(31) . . .
29.0(28) . . .
32.8(30) . . .
30.7(29) . . .
29.5(30) . . .
26.9(31) . . .
30.8(31) . . .
29.4(29) . . .
30.5(29) . . .
37.4(32) . . .
31.0(31) . . .
31.5(34) . . .
34.7(32) . . .
25.9(26) . . .
29.2(29) . . .
28.6(30) . . .
25.2(27) . . .
27.6(27) . . .
34.1(31) . . .
38.8(35) . . .
25.3(28) . . .
27.2(28) . . .
18.6(23) . . .
33.8(32) . . .
32.3(30) . . .
38.8(33) . . .
30.9(30) . . .
35.1(31) . . .
33.1(30) . . .
34.3(34) . . .
34.7(34) . . .
26.6(28) . . .
33.8(30) . . .
31.7(30) . . .
33.0(33) . . .
25.7(28) . . .
33.2(32) . . .
24.0(26) . . .
25.1(27) . . .
32.6(31) . . .
32.2(31) . . .
26.2(27) . . .
25.2(26) . . .
24.9(28) . . .
31.3(32) . . .
32.5(30) . . .
38.8(33) . . .
35.7(31) . . .
39.7(34) . . .
33.4(34) . . .
27.9(29) . . .
25.2(26) . . .
31.6(31) . . .
28.7(29) . . .
35.0(33) . . .
20.7(24) . . .
35.7(32) . . .
33.5(32) . . .
32.3(32) . . .
29.3(31) . . .
34.0(32) . . .
33.1(30) . . .
29.6(28) . . .
37.9(33) . . .
29.6(30) . . .
34.8(34) . . .
39.4(33) . . .
42.2(35) . . .
39.7(34) . . .
32.4(31) . . .
29.2(29) . . .
28.8(28) . . .
38.6(35) . . .
28.5(28) . . .
32.1(30) . . .
29.0(30) . . .
38.0(32) . . .
31.5(30) . . .
35.1(32) . . .
29.1(28) . . .
19.2(23) . . .
30.3(29) . . .
28.5(28) . . .
35.4(33) . . .
24.1(25) . . .
24.2(25) . . .
25.5(26) . . .
28.6(28) . . .
27.5(32) . . .
28.1(29) . . .
22.8(25) . . .
25.9(27) . . .
26.2(26) . . .
34.5(33) . . .
30.9(31) . . .
34.8(31) . . .
30.1(28) . . .
24.8(27) . . .
27.0(30) . . .
35.5(32) . . .
36.6(31) . . .
31.9(30) . . .
33.6(31) . . .
38(4) . . .
35.6(31) . . .
24.6(27) . . .
33.6(30) . . .
32.0(31) . . .
29.0(29) . . .
37.7(33) . . .
32.4(30) . . .
21.1(24) . . .
35.0(33) . . .
33.8(32) . . .
32.8(34) . . .
30.4(29) . . .
43.6(34) . . .
33.3(31) . . .
28.1(28) . . .
30.9(29) . . .
32.3(29) . . .
31.1(30) . . .
32.4(31) . . .
33.3(32) . . .
28.5(29) . . .
35.3(31) . . .
31.6(32) . . .
28.3(28) . . .
30.1(29) . . .
34.5(33) . . .
35.6(31) . . .
38.6(35) . . .
27.3(28) . . .
33.4(33) . . .
28.5(28) . . .
20.2(24) . . .
29.6(30) . . .
28.4(28) . . .
26.7(27) . . .
31.0(29) . . .
35.0(31) . . .
26.0(27) . . .
26.4(26) . . .
35.0(33) . . .
24.9(26) . . .
24.2(26) . . .
26.4(26) . . .
33.5(32) . . .
25.9(29) . . .
32.7(29) . . .
31.3(30) . . .
39.0(34) . . .
33.4(32) . . .
29.3(30) . . .
29.1(28) . . .
27.8(27) . . .
30.0(29) . . .
30.4(30) . . .
27.3(29) . . .
28.3(28) . . .
39.0(32) . . .
35.3(31) . . .
25.5(27) . . .
22.7(27) . . .
38.1(32) . . .
22.7(25) . . .
25.5(27) . . .
35.4(33) . . .
30.9(29) . . .
32.9(30) . . .
29.8(28) . . .
31.8(30) . . .
34.3(31) . . .
34.6(32) . . .
35.7(31) . . .
42.8(35) . . .
42.0(34) . . .
28.9(28) . . .
31.1(30) . . .
22.5(25) . . .
30.8(31) . . .
32.3(31) . . .
32.0(30) . . .
33.2(31) . . .
32.8(30) . . .
33.1(31) . . .
35.4(34) . . .
29.7(28) . . .
28.9(29) . . .
35.4(31) . . .
34.8(33) . . .
33.6(34) . . .
28.0(30) . . .
26.2(27) . . .
28.9(28) . . .
29.0(30) . . .
29.6(31) . . .
29.1(30) . . .
34.7(30) . . .
30.0(29) . . .
32.5(32) . . .
30.5(30) . . .
31.9(30) . . .
30.3(29) . . .
24.2(26) . . .
25.7(28) . . .
30.9(30) . . .
29.0(29) . . .
31.2(29) . . .
30.1(29) . . .
25.5(27) . . .
27.8(28) . . .
31.9(32) . . .
28.9(28) . . .
29.3(29) . . .
31.4(29) . . .
34.5(32) . . .
26.0(26) . . .
27.9(27) . . .
35.0(32) . . .
31.3(34) . . .
24.2(29) . . .
31.3(31) . . .
24.8(27) . . .
26.9(27) . . .
34.1(32) . . .
36.6(33) . . .
29.7(28) . . .
32.7(30) . . .
29.7(33) . . .
15.4(21) . . .
28.1(29) . . .
31.5(29) . . .
35.7(31) . . .
30.3(30) . . .
24.6(26) . . .
28.6(28) . . .
26.1(27) . . .
26.5(27) . . .
34.5(32) . . .
29.5(30) . . .
19.5(23) . . .
25.6(27) . . .
29.5(28) . . .
38.2(33) . . .
31.8(30) . . .
33.4(30) . . .
30.4(30) . . .
20.9(24) . . .
24.2(27) . . .
32.0(34) . . .
26.3(27) . . .
33.9(30) . . .
36.5(32) . . .
30.0(30) . . .
38.2(33) . . .
39.0(32) . . .
36.7(32) . . .
31.9(29) . . .
26.6(28) . . .
30.5(33) . . .
24.1(27) . . .
32.8(30) . . .
27.1(27) . . .
31.6(34) . . .
28.5(29) . . .
34.7(32) . . .
32.8(30) . . .
31.0(29) . . .
34.7(33) . . .
25.4(28) . . .
33.1(32) . . .
27.1(27) . . .
32.1(30) . . .
34.5(34) . . .
27.4(29) . . .
37.1(32) . . .
41.2(33) . . .
34.9(31) . . .
25.2(29) . . .
18.8(23) . . .
27.5(27) . . .
19.5(23) . . .
28.6(30) . . .
28.2(31) . . .
30.1(31) . . .
33.2(33) . . .
28.4(28) . . .
38.0(34) . . .
23.3(26) . . .
34.0(34) . . .
27.2(27) . . .
27.6(28) . . .
27.1(27) . . .
29.6(30) . . .
37(4) . . .
28.5(28) . . .
27.9(27) . . .
34.8(31) . . .
35.4(32) . . .
26.2(27) . . .
26.3(27) . . .
34.4(31) . . .
29.5(29) . . .
28.7(29) . . .
35.3(33) . . .
26.2(28) . . .
36.1(31) . . .
33.2(31) . . .
35.2(34) . . .
33.6(32) . . .
27.8(29) . . .
38.7(32) . . .
33.2(31) . . .
37.6(34) . . .
28.7(29) . . .
26.7(27) . . .
29.3(28) . . .
29.4(31) . . .
23.6(25) . . .
27.5(28) . . .
33.9(30) . . .
30.9(29) . . .
35.3(32) . . .
42(4) . . .
27.6(29) . . .
35.0(31) . . .
34.1(31) . . .
28.3(31) . . .
30.2(30) . . .
28.3(28) . . .
31.2(29) . . .
31.7(30) . . .
27.8(27) . . .
36.6(33) . . .
36.0(33) . . .
34.3(30) . . .
25.9(29) . . .
30.0(33) . . .
27.4(30) . . .
23.6(25) . . .
33.6(31) . . .
38.5(33) . . .
29.3(28) . . .
31.8(30) . . .
35.8(31) . . .
31.2(29) . . .
39.8(33) . . .
30.3(30) . . .
30.2(29) . . .
27.9(28) . . .
24.4(25) . . .
23.4(25) . . .
25.6(26) . . .
32.8(30) . . .
33.3(31) . . .
28.9(29) . . .
27.3(33) . . .
26.3(30) . . .
31.8(30) . . .
34.1(30) . . .
28.1(28) . . .
38.3(34) . . .
37.2(34) . . .
37.7(35) . . .
26.9(28) . . .
34.8(33) . . .
34.1(32) . . .
31.7(30) . . .
28.4(29) . . .
24.7(26) . . .
33.7(34) . . .
30.7(32) . . .
32.2(31) . . .
33.1(31) . . .
31.3(29) . . .
32.0(31) . . .
27.6(29) . . .
31.4(33) . . .
27.3(28) . . .
27.7(27) . . .
27.6(30) . . .
30.9(30) . . .
36.9(33) . . .
28.7(28) . . .
28.0(27) . . .
45(4) . . .
30.9(29) . . .
40.2(35) . . .
33.0(30) . . .
31.9(31) . . .
27.5(28) . . .
37(4) . . .
31.4(31) . . .
30.4(28) . . .
37.6(33) . . .
25.7(27) . . .
27.4(30) . . .
29.8(29) . . .
32.6(31) . . .
29.9(28) . . .
30.6(29) . . .
32.1(30) . . .
22.3(25) . . .
31.9(29) . . .
29.1(28) . . .
32.0(30) . . .
27.4(28) . . .
31.1(32) . . .
36.2(31) . . .
36.2(32) . . .
30.9(30) . . .
29.6(28) . . .
33.9(30) . . .
27.0(27) . . .
25.2(26) . . .
26.8(27) . . .
27.8(28) . . .
38.3(33) . . .
36.0(31) . . .
36.8(32) . . .
29.8(29) . . .
27.9(30) . . .
26.6(29) . . .
29.5(28) . . .
25.0(27) . . .
28.4(30) . . .
36.0(34) . . .
29.7(29) . . .
26.2(28) . . .
34.0(33) . . .
31.6(32) . . .
33.3(32) . . .
31.5(29) . . .
26.5(27) . . .
35.1(33) . . .
34.7(33) . . .
30.5(29) . . .
29.1(28) . . .
36.2(31) . . .
27.5(28) . . .
25.3(29) . . .
35.3(32) . . .
26.4(27) . . .
32.6(30) . . .
33.4(33) . . .
32.4(31) . . .
42(4) . . .
29.5(30) . . .
22.0(25) . . .
32.9(31) . . .
33.3(31) . . .
25.5(26) . . .
27.1(27) . . .
34.5(30) . . .
30.6(30) . . .
20.8(24) . . .
26.1(28) . . .
26.5(27) . . .
26.1(27) . . .
25.9(27) . . .
31.0(31) . . .
40(4) . . .
33.3(30) . . .
38.7(33) . . .
23.4(25) . . .
28.2(29) . . .
24.8(26) . . .
37.9(32) . . .
33.9(30) . . .
37.0(34) . . .
37(4) . . .
24.7(27) . . .
28.9(28) . . .
28.8(28) . . .
35.2(33) . . .
37.0(35) . . .
30.3(29) . . .
35.3(32) . . .
28.5(32) . . .
30.4(30) . . .
28.9(28) . . .
34.5(30) . . .
30.1(29) . . .
33.8(32) . . .
31.3(31) . . .
31.8(30) . . .
27.8(28) . . .
29.2(28) . . .
23.1(25) . . .
26.4(28) . . .
37.1(34) . . .
39.2(33) . . .
39.4(33) . . .
27.4(27) . . .
29.6(29) . . .
34.6(32) . . .
27.8(28) . . .
33.5(30) . . .
28.1(30) . . .
26.3(30) . . .
30.7(29) . . .
31.5(29) . . .
28.9(27) . . .
31.2(30) . . .
26.9(31) . . .
36(4) . . .
27.9(28) . . .
25.8(26) . . .
25.9(27) . . .
37.7(35) . . .
27.4(28) . . .
30.7(29) . . .
29.2(28) . . .
26.3(28) . . .
34.6(33) . . .
32.8(30) . . .
26.8(26) . . .
32.0(30) . . .
24.1(26) . . .
27.5(31) . . .
22.5(27) . . .
30.1(29) . . .
28.6(28) . . .
31.6(30) . . .
37.0(33) . . .
34.3(30) . . .
26.5(27) . . .
29.2(29) . . .
32.8(30) . . .
27.8(27) . . .
31.1(30) . . .
21.9(25) . . .
28.0(29) . . .
25.6(28) . . .
31.4(33) . . .
40.5(34) . . .
26.5(28) . . .
34.5(31) . . .
24.6(27) . . .
29.8(31) . . .
22.6(25) . . .
32.3(29) . . .
31.5(30) . . .
35(4) . . .
32.3(30) . . .
35.4(31) . . .
25.2(26) . . .
24.8(27) . . .
26.0(30) . . .
24.4(27) . . .
25.9(27) . . .
38.3(32) . . .
31.2(29) . . .
30.9(32) . . .
28.7(29) . . .
28.0(28) . . .
21.4(26) . . .
26.8(30) . . .
30.1(33) . . .
23.1(29) . . .
28.8(29) . . .
43(4) . . .
32.3(30) . . .
34.8(32) . . .
26.3(27) . . .
35.2(31) . . .
41.1(35) . . .
22.1(25) . . .
24.6(30) . . .
26.8(28) . . .
35.8(31) . . .
32.5(30) . . .
33.2(31) . . .
34.4(31) . . .
29.0(28) . . .
29.5(28) . . .
31.8(30) . . .
32.6(30) . . .
27.9(27) . . .
29.0(30) . . .
25.0(25) . . .
29.5(31) . . .
20.2(24) . . .
30.9(29) . . .
35.3(31) . . .
28.5(28) . . .
33.0(30) . . .
25.4(27) . . .
25.9(27) . . .
40.1(35) . . .
29.6(29) . . .
26.0(27) . . .
39(4) . . .
34.2(31) . . .
29.1(28) . . .
28.1(28) . . .
34.4(33) . . .
28.9(31) . . .
28.5(30) . . .
31.5(29) . . .
33.2(30) . . .
34.3(33) . . .
33.7(34) . . .
32.0(32) . . .
27.4(28) . . .
34.8(31) . . .
39.4(33) . . .
39.0(34) . . .
33.3(31) . . .
33.3(29) . . .
34.6(31) . . .
29.7(31) . . .
27.7(30) . . .
21.9(27) . . .
28.7(28) . . .
28.2(27) . . .
37.1(33) . . .
36.8(33) . . .
29.0(29) . . .
33.2(30) . . .
30.2(30) . . .
33.2(31) . . .
29.2(29) . . .
26.3(26) . . .
26.3(27) . . .
33.9(31) . . .
26.5(28) . . .
28.6(30) . . .
31.2(29) . . .
30.6(29) . . .
27.8(28) . . .
33.3(31) . . .
21.3(24) . . .
34.5(32) . . .
35.4(32) . . .
24.9(27) . . .
32.0(31) . . .
35.9(34) . . .
23.2(26) . . .
23.1(25) . . .
29.6(29) . . .
31.0(29) . . .
31.0(30) . . .
31.5(30) . . .
29.5(28) . . .
31.5(32) . . .
28.9(30) . . .
37.6(34) . . .
28.6(27) . . .
25.3(26) . . .
30.2(30) . . .
28.6(29) . . .
30.9(29) . . .
33.3(31) . . .
36.3(31) . . .
30.4(29) . . .
30.8(34) . . .
36.4(33) . . .
32.2(30) . . .
28.4(28) . . .
33.3(30) . . .
31.5(30) . . .
33.9(33) . . .
38.5(33) . . .
31.6(29) . . .
32.1(30) . . .
30.0(32) . . .
27.8(29) . . .
27.9(27) . . .
27.3(28) . . .
29.1(28) . . .
31.9(32) . . .
42(4) . . .
28.1(28) . . .
19.8(24) . . .
34.7(32) . . .
31.8(30) . . .
33.6(31) . . .
30.3(29) . . .
30.5(30) . . .
32.2(33) . . .
27.1(28) . . .
31.8(30) . . .
34.4(31) . . .
34.1(32) . . .
33.0(32) . . .
32.4(30) . . .
30.4(29) . . .
26.5(27) . . .
25.6(27) . . .
40(4) . . .
29.0(28) . . .
35.5(31) . . .
27.9(27) . . .
29.2(29) . . .
33.5(35) . . .
26.9(27) . . .
28.7(28) . . .
26.6(28) . . .
35.8(32) . . .
30.2(32) . . .
21.9(25) . . .
32.5(30) . . .
26.8(27) . . .
26.7(28) . . .
35.8(34) . . .
38.1(33) . . .
35.4(31) . . .
31.4(29) . . .
29.2(29) . . .
29.0(30) . . .
27.4(28) . . .
28.7(28) . . .
32.1(30) . . .
29.9(29) . . .
28.0(28) . . .
26.6(26) . . .
29.0(29) . . .
27.3(27) . . .
25.6(26) . . .
29.0(29) . . .
36.0(33) . . .
26.9(27) . . .
26.6(27) . . .
24.8(26) . . .
27.1(27) . . .
31.5(29) . . .
31.8(29) . . .
30.1(28) . . .
33.0(32) . . .
30.3(30) . . .
33.9(30) . . .
32.8(30) . . .
36.7(31) . . .
27.9(28) . . .
27.8(29) . . .
33.8(32) . . .
31.3(29) . . .
31.3(29) . . .
25.1(26) . . .
36.7(33) . . .
25.8(27) . . .
28.0(28) . . .
38.7(34) . . .
30.5(30) . . .
26.8(27) . . .
23.8(25) . . .
28.3(28) . . .
28.7(28) . . .
38.5(34) . . .
35.3(33) . . .
31.5(30) . . .
28.4(28) . . .
31.1(29) . . .
32.3(32) . . .
30.2(30) . . .
24.1(26) . . .
23.7(26) . . .
28.2(28) . . .
34.2(32) . . .
28.9(29) . . .
25.3(26) . . .
28.1(28) . . .
27.5(27) . . .
29.2(30) . . .
32.3(30) . . .
33.6(30) . . .
24.7(26) . . .
28.8(29) . . .
28.8(32) . . .
31.8(31) . . .
30.6(29) . . .
28.7(27) . . .
36.1(32) . . .
28.5(28) . . .
21.7(24) . . .
27.6(28) . . .
31.3(30) . . .
29.6(29) . . .
42(4) . . .
33.3(30) . . .
27.1(28) . . .
29.1(28) . . .
32.7(31) . . .
37.9(33) . . .
27.6(29) . . .
32.8(30) . . .
30.7(29) . . .
34.8(32) . . .
32.1(31) . . .
22.7(25) . . .
29.2(28) . . .
31.3(30) . . .
33.0(33) . . .
23.9(27) . . .
27.8(27) . . .
32.2(30) . . .
27.5(28) . . .
31.1(32) . . .
33.0(33) . . .
31.7(29) . . .
31.2(30) . . .
23.5(26) . . .
28.4(32) . . .
26.0(27) . . .
29.5(28) . . .
25.7(28) . . .
25.6(27) . . .
29.5(31) . . .
29.5(30) . . .
26.0(26) . . .
40.6(34) . . .
26.0(28) . . .
22.3(27) . . .
23.8(27) . . .
26.2(26) . . .
23.5(26) . . .
29.9(30) . . .
26.2(28) . . .
26.8(29) . . .
23.1(25) . . .
28.4(31) . . .
33.0(32) . . .
30.4(31) . . .
32.0(31) . . .
25.5(26) . . .
28.8(29) . . .
26.7(27) . . .
24.1(26) . . .
26.8(29) . . .
26.5(27) . . .
28.6(28) . . .
30.8(30) . . .
31.4(30) . . .
34.8(31) . . .
29.5(29) . . .
37.2(33) . . .
34.0(33) . . .
34.3(34) . . .
28.9(29) . . .
32.2(30) . . .
27.5(27) . . .
35.9(35) . . .
25.5(28) . . .
28.9(28) . . .
34.5(30) . . .
21.9(24) . . .
38(4) . . .
29.0(31) . . .
33.5(31) . . .
31.3(29) . . .
27.8(27) . . .
29.7(29) . . .
33.8(31) . . .
26.9(27) . . .
31.1(29) . . .
27.1(29) . . .
30.3(31) . . .
28.4(29) . . .
26.3(27) . . .
28.0(28) . . .
34.5(32) . . .
37.0(33) . . .
30.9(29) . . .
30.5(29) . . .
32.3(29) . . .
28.3(28) . . .
33.2(32) . . .
29.1(28) . . .
27.8(28) . . .
25.1(26) . . .
33.9(32) . . .
32.5(31) . . .
34.3(31) . . .
35.1(31) . . .
30.1(31) . . .
31.7(33) . . .
25.4(26) . . .
30.5(29) . . .
35.8(31) . . .
32.5(30) . . .
33.6(31) . . .
25.9(27) . . .
31.7(30) . . .
25.8(27) . . .
32.5(34) . . .
29.2(30) . . .
31.5(32) . . .
31.6(29) . . .
37.6(32) . . .
32.4(33) . . .
41(4) . . .
31.4(29) . . .
31.6(29) . . .
33.8(31) . . .
24.0(27) . . .
26.3(26) . . .
24.1(26) . . .
24.9(26) . . .
27.0(27) . . .
35.3(31) . . .
35.2(31) . . .
39(4) . . .
30.7(28) . . .
31.6(29) . . .
36.3(32) . . .
34.7(33) . . .
23.3(25) . . .
27.4(27) . . .
35.5(32) . . .
33.0(31) . . .
31.5(33) . . .
29.3(30) . . .
30.5(29) . . .
31.4(29) . . .
25.9(27) . . .
28.9(30) . . .
21.3(24) . . .
35.0(31) . . .
31.0(30) . . .
25.7(26) . . .
29.5(30) . . .
31.2(30) . . .
19.8(24) . . .
22.5(25) . . .
27.1(29) . . .
39(4) . . .
23.3(25) . . .
23.6(26) . . .
30.9(30) . . .
30.7(30) . . .
31.1(30) . . .
29.1(28) . . .
26.0(27) . . .
34.8(32) . . .
31.0(31) . . .
23.6(25) . . .
28.3(28) . . .
32.1(30) . . .
26.7(27) . . .
31.0(32) . . .
29.1(29) . . .
41.5(34) . . .
35.5(31) . . .
31.0(29) . . .
30.4(31) . . .
26.6(29) . . .
25.0(26) . . .
34.9(31) . . .
29.9(29) . . .
21.1(24) . . .
24.9(27) . . .
27.2(27) . . .
30.1(29) . . .
34.5(32) . . .
30.8(33) . . .
23.9(27) . . .
23.1(25) . . .
26.2(27) . . .
30.8(29) . . .
28.8(28) . . .
35.4(34) . . .
24.7(26) . . .
29.5(29) . . .
32.2(32) . . .
35.5(34) . . .
24.9(26) . . .
26.8(27) . . .
32.4(30) . . .
29.1(29) . . .
26.1(27) . . .
24.4(25) . . .
34.3(31) . . .
23.5(25) . . .
22.9(25) . . .
26.1(27) . . .
34.1(34) . . .
26.2(27) . . .
27.5(27) . . .
28.2(28) . . .
27.8(29) . . .
28.6(29) . . .
35.8(31) . . .
25.7(26) . . .
35.2(32) . . .
41(4) . . .
32.2(31) . . .
30.9(29) . . .
31.6(30) . . .
38(4) . . .
26.8(29) . . .
32.7(31) . . .
35.9(31) . . .
33.3(31) . . .
26.9(29) . . .
35.6(34) . . .
29.9(29) . . .
32.7(30) . . .
37.2(33) . . .
35.5(32) . . .
27.8(27) . . .
28.0(27) . . .
26.9(27) . . .
28.9(29) . . .
21.3(26) . . .
32.2(33) . . .
37.0(32) . . .
30.3(28) . . .
36.0(32) . . .
30.1(28) . . .
30.0(29) . . .
25.4(27) . . .
36.4(31) . . .
29.0(29) . . .
25.5(28) . . .
33.9(31) . . .
31.0(30) . . .
36.6(31) . . .
38.2(34) . . .
32.4(32) . . .
24.7(27) . . .
34.4(30) . . .
29.5(28) . . .
30.3(32) . . .
36.9(34) . . .
25.3(27) . . .
43.7(34) . . .
26.3(27) . . .
30.1(30) . . .
28.5(28) . . .
34.1(34) . . .
30.0(28) . . .
33.1(30) . . .
27.1(26) . . .
27.7(27) . . .
26.2(28) . . .
35.5(31) . . .
29.6(31) . . .
29.5(31) . . .
24.9(27) . . .
33.2(30) . . .
30.6(29) . . .
28.6(29) . . .
32.7(31) . . .
34.1(31) . . .
29.1(28) . . .
27.2(27) . . .
32.6(31) . . .
30.6(31) . . .
23.7(26) . . .
34.7(31) . . .
28.8(28) . . .
26.4(27) . . .
31.1(31) . . .
29.0(28) . . .
34.1(31) . . .
31.7(29) . . .
28.0(29) . . .
29.6(31) . . .
30.5(29) . . .
30.6(29) . . .
29.6(29) . . .
32.7(29) . . .
31.5(30) . . .
26.1(28) . . .
31.1(29) . . .
25.7(27) . . .
22.5(25) . . .
31.2(31) . . .
33.3(31) . . .
26.6(27) . . .
34.3(31) . . .
29.3(30) . . .
22.4(26) . . .
31.0(31) . . .
41.1(33) . . .
35.5(31) . . .
34.7(33) . . .
26.1(28) . . .
28.9(29) . . .
26.1(27) . . .
29.5(30) . . .
28.5(30) . . .
25.1(26) . . .
36.2(31) . . .
39.7(33) . . .
25.4(27) . . .
34.8(34) . . .
34.3(31) . . .
40.4(34) . . .
33.1(30) . . .
29.9(30) . . .
25.5(28) . . .
26.6(27) . . .
30.5(29) . . .
36.6(32) . . .
26.6(27) . . .
30.2(30) . . .
24.5(28) . . .
21.7(25) . . .
27.6(27) . . .
29.0(30) . . .
27.8(29) . . .
26.6(27) . . .
34.8(30) . . .
32.1(30) . . .
27.3(29) . . .
34.7(33) . . .
33.4(32) . . .
29.8(29) . . .
25.7(27) . . .
26.9(29) . . .
19.7(23) . . .
30.6(32) . . .
32.8(30) . . .
33.5(30) . . .
29.9(28) . . .
30.7(31) . . .
26.1(28) . . .
20.7(24) . . .
30.4(29) . . .
31.2(30) . . .
35.7(32) . . .
30.8(29) . . .
31.2(29) . . .
29.3(28) . . .
26.6(29) . . .
28.7(31) . . .
26.6(27) . . .
25.3(26) . . .
30.9(30) . . .
31.5(31) . . .
31.2(31) . . .
31.3(31) . . .
29.9(28) . . .
33.3(31) . . .
34.9(32) . . .
35.0(33) . . .
30.1(29) . . .
26.7(27) . . .
27.3(29) . . .
34.0(34) . . .
35.0(31) . . .
31.9(29) . . .
28.0(28) . . .
28.6(28) . . .
24.4(29) . . .
27.1(27) . . .
33.1(30) . . .
30.9(30) . . .
29.5(30) . . .
32.6(33) . . .
26.3(28) . . .
30.5(28) . . .
30.7(29) . . .
31.9(30) . . .
35.9(33) . . .
35.3(30) . . .
32.3(30) . . .
30.0(29) . . .
34.5(34) . . .
31.4(31) . . .
28.2(28) . . .
29.4(28) . . .
36.5(32) . . .
28.7(29) . . .
22.0(25) . . .
30.2(30) . . .
22.7(25) . . .
30.6(30) . . .
29.2(29) . . .
29.9(30) . . .
29.4(30) . . .
29.5(28) . . .
28.1(28) . . .
31.9(31) . . .
29.1(29) . . .
37.0(34) . . .
22.2(25) . . .
23.4(27) . . .
23.1(26) . . .
23.5(26) . . .
37.3(33) . . .
35.1(31) . . .
31.8(29) . . .
33.9(33) . . .
39(4) . . .
36.0(31) . . .
28.8(28) . . .
28.8(29) . . .
33.5(33) . . .
31.0(30) . . .
29.1(28) . . .
31.6(29) . . .
26.1(28) . . .
25.4(28) . . .
29.6(28) . . .
33.3(31) . . .
31.0(28) . . .
29.0(28) . . .
26.2(28) . . .
31.5(30) . . .
25.1(26) . . .
32.3(30) . . .
30.0(29) . . .
37.1(35) . . .
23.4(26) . . .
21.7(24) . . .
29.4(29) . . .
42(4) . . .
30.6(32) . . .
31.8(31) . . .
30.6(28) . . .
26.4(27) . . .
30.1(30) . . .
27.8(28) . . .
25.1(27) . . .
23.5(25) . . .
33.0(31) . . .
31.7(29) . . .
25.5(25) . . .
30.5(29) . . .
36.3(31) . . .
32.5(30) . . .
31.7(30) . . .
31.3(31) . . .
40.0(35) . . .
36.3(32) . . .
34.0(32) . . .
30.3(31) . . .
31.5(32) . . .
34.6(34) . . .
30.0(29) . . .
32.6(30) . . .
40.5(34) . . .
33.6(31) . . .
30.9(30) . . .
34.1(31) . . .
34.0(31) . . .
28.3(28) . . .
38.6(35) . . .
29.7(28) . . .
29.5(29) . . .
25.6(30) . . .
26.5(30) . . .
23.8(26) . . .
21.6(24) . . .
29.4(28) . . .
27.3(27) . . .
28.7(29) . . .
28.6(29) . . .
28.3(28) . . .
32.1(30) . . .
34.0(34) . . .
27.3(30) . . .
26.0(27) . . .
27.5(28) . . .
28.5(28) . . .
29.6(29) . . .
31.1(31) . . .
22.1(24) . . .
31.6(31) . . .
36.7(32) . . .
26.9(27) . . .
33.2(35) . . .
29.4(30) . . .
25.6(26) . . .
42.2(34) . . .
35.0(31) . . .
31.8(29) . . .
43(4) . . .
32.2(30) . . .
34.1(31) . . .
28.5(28) . . .
36.0(31) . . .
31.4(29) . . .
36.0(31) . . .
39.3(34) . . .
27.9(29) . . .
25.7(29) . . .
22.3(26) . . .
20.0(23) . . .
29.4(30) . . .
30.7(32) . . .
24.4(27) . . .
21.6(25) . . .
27.6(27) . . .
25.8(27) . . .
29.5(32) . . .
30.3(31) . . .
33.3(31) . . .
31.0(29) . . .
29.5(31) . . .
28.3(30) . . .
28.1(29) . . .
35.3(32) . . .
31.0(29) . . .
26.2(26) . . .
36(4) . . .
26.4(26) . . .
32.8(32) . . .
27.8(27) . . .
34.5(33) . . .
30.9(31) . . .
33.6(33) . . .
28.0(27) . . .
29.4(28) . . .
30.8(31) . . .
27.8(29) . . .
29.5(28) . . .
24.4(26) . . .
37.8(32) . . .
34.6(32) . . .
32.2(31) . . .
32.3(31) . . .
29.5(28) . . .
30.8(29) . . .
23.3(25) . . .
23.8(27) . . .
25.3(26) . . .
38.9(33) . . .
24.4(26) . . .
31.6(30) . . .
35.9(34) . . .
32.7(31) . . .
41.2(34) . . .
24.1(28) . . .
25.9(27) . . .
31.4(30) . . .
31.8(30) . . .
32.8(30) . . .
30.4(29) . . .
32.7(31) . . .
33.1(32) . . .
29.3(28) . . .
30.6(30) . . .
27.3(29) . . .
29.8(31) . . .
37.1(33) . . .
29.7(28) . . .
35.4(32) . . .
33.4(31) . . .
25.7(28) . . .
27.2(28) . . .
32.5(29) . . .
32.3(30) . . .
32.7(31) . . .
33.9(31) . . .
29.5(28) . . .
31.4(30) . . .
29.7(28) . . .
23.9(25) . . .
24.3(25) . . .
26.5(28) . . .
31.9(29) . . .
31.6(30) . . .
33.4(32) . . .
36.7(34) . . .
38.3(33) . . .
27.0(27) . . .
34.3(32) . . .
33.6(30) . . .
34.0(31) . . .
25.8(28) . . .
23.1(25) . . .
25.6(27) . . .
36.5(33) . . .
34.0(32) . . .
26.0(29) . . .
29.2(28) . . .
27.9(28) . . .
34.2(30) . . .
31.8(29) . . .
31.2(30) . . .
30.4(30) . . .
23.4(25) . . .
26.6(27) . . .
30.4(29) . . .
28.0(28) . . .
26.9(27) . . .
33.4(30) . . .
33.5(31) . . .
30.0(30) . . .
29.0(29) . . .
27.1(27) . . .
29.9(29) . . .
33.7(33) . . .
29.5(30) . . .
32.5(30) . . .
27.6(27) . . .
27.0(28) . . .
33.0(33) . . .
27.6(28) . . .
24.2(25) . . .
28.4(28) . . .
27.5(28) . . .
26.9(28) . . .
28.6(28) . . .
27.8(28) . . .
27.6(27) . . .
23.7(28) . . .
25.6(29) . . .
30.1(28) . . .
33.6(30) . . .
27.8(28) . . .
27.3(29) . . .
36.0(33) . . .
32.6(30) . . .
36.1(32) . . .
34.6(31) . . .
39.7(34) . . .
32.0(33) . . .
25.0(27) . . .
31.3(29) . . .
26.5(28) . . .
23.7(25) . . .
28.2(29) . . .
28.1(29) . . .
31.8(30) . . .
29.9(29) . . .
34.3(32) . . .
43(4) . . .
34.7(32) . . .
33.9(31) . . .
25.8(26) . . .
27.8(28) . . .
33.7(32) . . .
30.7(31) . . .
23.8(26) . . .
27.2(27) . . .
35.1(33) . . .
33.5(31) . . .
28.3(29) . . .
28.6(28) . . .
30.7(29) . . .
32.4(30) . . .
37.5(33) . . .
36.8(33) . . .
30.0(29) . . .
30.1(29) . . .
27.2(26) . . .
42(4) . . .
32.0(30) . . .
27.1(28) . . .
27.4(28) . . .
27.5(28) . . .
32.0(30) . . .
41.0(34) . . .
39.6(34) . . .
32.3(31) . . .
32.1(32) . . .
34.1(32) . . .
34.2(30) . . .
32.3(29) . . .
31.0(31) . . .
39.3(35) . . .
35.1(30) . . .
31.6(29) . . .
34.7(31) . . .
27.6(27) . . .
27.4(29) . . .
28.3(30) . . .
31.9(30) . . .
33.3(30) . . .
34.8(32) . . .
27.0(28) . . .
30.8(30) . . .
29.7(28) . . .
26.6(28) . . .
28.5(30) . . .
30.6(31) . . .
31.9(31) . . .
26.4(26) . . .
36.0(33) . . .
33.7(31) . . .
28.7(26) . . .
37.3(34) . . .
30.4(28) . . .
31.2(30) . . .
27.6(27) . . .
26.3(28) . . .
36.0(33) . . .
32.7(30) . . .
30.0(29) . . .
34.8(33) . . .
26.3(28) . . .
37.4(35) . . .
21.6(25) . . .
30.1(30) . . .
26.9(27) . . .
31.8(30) . . .
23.7(26) . . .
27.1(28) . . .
33.2(33) . . .
26.8(30) . . .
24.9(30) . . .
31.2(31) . . .
27.9(27) . . .
28.1(28) . . .
30.8(31) . . .
28.4(30) . . .
30.6(30) . . .
26.0(26) . . .
31.1(30) . . .
25.5(27) . . .
32.3(31) . . .
34.2(31) . . .
25.6(26) . . .
22.9(24) . . .
29.9(29) . . .
26.4(28) . . .
26.4(27) . . .
28.5(28) . . .
26.1(27) . . .
26.8(29) . . .
28.1(29) . . .
25.6(26) . . .
30.3(29) . . .
29.1(29) . . .
36.4(34) . . .
35.4(32) . . .
37.3(33) . . .
28.2(27) . . .
31.8(32) . . .
29.0(31) . . .
34.2(33) . . .
32.3(30) . . .
23.3(26) . . .
26.1(29) . . .
30.6(31) . . .
33.3(31) . . .
26.0(26) . . .
25.7(27) . . .
29.0(27) . . .
37.4(33) . . .
28.0(27) . . .
29.7(29) . . .
29.7(29) . . .
28.4(29) . . .
35.5(32) . . .
26.1(27) . . .
28.5(28) . . .
33.8(30) . . .
31.0(29) . . .
33.9(32) . . .
31.4(28) . . .
35.7(33) . . .
35.0(31) . . .
28.5(28) . . .
30.6(31) . . .
33.5(30) . . .
37.5(32) . . .
26.0(27) . . .
23.0(26) . . .
36.2(33) . . .
31.1(30) . . .
31.9(30) . . .
28.0(28) . . .
23.3(26) . . .
24.6(27) . . .
29.8(28) . . .
25.1(26) . . .
32.5(31) . . .
23.9(28) . . .
22.4(25) . . .
34.5(31) . . .
27.3(29) . . .
24.4(26) . . .
26.8(29) . . .
32.8(32) . . .
22.1(25) . . .
30.6(29) . . .
26.4(29) . . .
24.5(27) . . .
30.8(30) . . .
33.8(30) . . .
36.9(34) . . .
34.6(30) . . .
30.5(31) . . .
22.0(25) . . .
24.0(25) . . .
32.8(31) . . .
28.0(28) . . .
30.8(31) . . .
33.6(33) . . .
35.8(31) . . .
32.7(30) . . .
23.5(27) . . .
29.6(30) . . .
31.1(29) . . .
39.6(33) . . .
29.6(29) . . .
22.9(28) . . .
30.9(31) . . .
38.3(33) . . .
25.2(26) . . .
33.2(31) . . .
35.4(34) . . .
30.1(31) . . .
31.6(29) . . .
31.1(30) . . .
33.2(32) . . .
30.9(31) . . .
34.6(31) . . .
30.1(29) . . .
26.1(28) . . .
25.4(27) . . .
25.5(28) . . .
27.9(29) . . .
40.7(34) . . .
30.4(29) . . .
32.3(32) . . .
20.9(23) . . .
31.2(32) . . .
25.9(26) . . .
29.5(28) . . .
30.8(29) . . .
30.2(30) . . .
23.2(26) . . .
28.9(28) . . .
33.8(30) . . .
40.2(34) . . .
30.0(29) . . .
26.2(29) . . .
19.9(23) . . .
26.0(29) . . .
23.1(25) . . .
32.8(33) . . .
24.0(26) . . .
27.5(27) . . .
36.5(33) . . .
27.3(28) . . .
32.3(31) . . .
25.0(26) . . .
30.2(30) . . .
36.7(34) . . .
27.5(29) . . .
30.2(31) . . .
25.0(26) . . .
34.6(31) . . .
30.9(30) . . .
34.9(34) . . .
27.2(30) . . .
25.7(26) . . .
33.3(30) . . .
29.0(28) . . .
27.0(26) . . .
31.1(29) . . .
31.0(29) . . .
26.6(28) . . .
33.8(31) . . .
27.1(27) . . .
24.7(26) . . .
41.3(35) . . .
31.8(29) . . .
28.7(28) . . .
30.8(31) . . .
30.8(29) . . .
33.0(30) . . .
37.4(32) . . .
34.2(31) . . .
29.6(29) . . .
30.4(30) . . .
27.4(28) . . .
30.5(29) . . .
27.5(28) . . .
30.5(30) . . .
30.9(33) . . .
29.8(29) . . .
39.0(33) . . .
27.9(28) . . .
30.8(34) . . .
31.1(33) . . .
29.7(29) . . .
25.0(27) . . .
34.2(34) . . .
27.5(28) . . .
30.2(29) . . .
33.4(30) . . .
25.7(28) . . .
31.8(32) . . .
29.7(29) . . .
35.2(31) . . .
35.4(31) . . .
37.3(33) . . .
27.0(28) . . .
30.6(31) . . .
40(4) . . .
27.6(28) . . .
31.6(30) . . .
35.7(34) . . .
25.0(27) . . .
31.0(30) . . .
42.7(34) . . .
37.1(34) . . .
39(4) . . .
30.5(30) . . .
28.0(29) . . .
33.7(31) . . .
31.6(30) . . .
30.4(33) . . .
24.0(25) . . .
37.6(33) . . .
32.3(30) . . .
27.0(28) . . .
36(4) . . .
28.2(29) . . .
31.6(29) . . .
32.5(29) . . .
27.0(27) . . .
26.2(28) . . .
29.8(29) . . .
35.0(31) . . .
28.1(27) . . .
35.3(33) . . .
25.3(26) . . .
31.5(30) . . .
31.7(29) . . .
28.1(29) . . .
25.6(27) . . .
31.7(32) . . .
32.6(33) . . .
26.3(27) . . .
25.3(27) . . .
32.0(32) . . .
31.0(29) . . .
47(4) . . .
33.4(30) . . .
25.2(26) . . .
33.1(30) . . .
37.4(34) . . .
30.3(29) . . .
31.8(30) . . .
27.5(28) . . .
26.1(28) . . .
27.0(27) . . .
30.8(30) . . .
30.1(28) . . .
22.2(26) . . .
25.6(29) . . .
41(4) . . .
31.8(30) . . .
48(4) . . .
26.9(27) . . .
31.4(32) . . .
31.3(30) . . .
32.3(30) . . .
32.5(29) . . .
32.5(30) . . .
31.1(31) . . .
31.4(31) . . .
30.7(30) . . .
35.5(31) . . .
32.3(31) . . .
30.1(28) . . .
36.5(33) . . .
33.9(30) . . .
29.0(28) . . .
21.9(23) . . .
25.4(28) . . .
33.2(33) . . .
31.5(29) . . .
29.4(28) . . .
19.1(23) . . .
22.6(25) . . .
30.5(31) . . .
31.4(29) . . .
28.9(29) . . .
27.2(28) . . .
28.9(31) . . .
35.3(33) . . .
28.3(27) . . .
30.2(28) . . .
27.1(28) . . .
23.0(25) . . .
30.4(30) . . .
27.1(27) . . .
24.6(27) . . .
19.6(22) . . .
30.0(30) . . .
32.4(32) . . .
22.1(25) . . .
35.8(31) . . .
26.0(27) . . .
27.3(29) . . .
30.6(29) . . .
33.0(30) . . .
31.6(31) . . .
23.2(26) . . .
35.8(34) . . .
29.6(29) . . .
27.5(27) . . .
39.2(34) . . .
34.0(33) . . .
30.0(30) . . .
27.1(27) . . .
32.7(30) . . .
24.3(27) . . .
25.0(28) . . .
32.5(31) . . .
35.0(31) . . .
23.5(25) . . .
28.4(29) . . .
34.6(33) . . .
33.2(30) . . .
30.5(29) . . .
21.2(24) . . .
30.9(30) . . .
24.3(26) . . .
31.7(30) . . .
23.5(25) . . .
32.5(31) . . .
31.8(30) . . .
27.4(28) . . .
30.7(29) . . .
33.3(30) . . .
34.1(30) . . .
28.7(28) . . .
30.5(32) . . .
23.2(26) . . .
22.7(24) . . .
27.0(28) . . .
35.8(32) . . .
37.4(34) . . .
27.1(28) . . .
18.5(22) . . .
25.0(27) . . .
27.9(27) . . .
24.8(26) . . .
31.9(31) . . .
32.7(30) . . .
27.7(28) . . .
27.2(28) . . .
33.3(32) . . .
28.5(28) . . .
23.3(25) . . .
22.5(25) . . .
30.1(32) . . .
20.9(24) . . .
25.8(28) . . .
28.0(28) . . .
33.8(32) . . .
33.5(31) . . .
36.6(33) . . .
19.8(23) . . .
17.0(21) . . .
30.5(30) . . .
29.0(28) . . .
37.6(34) . . .
31.9(29) . . .
32.1(29) . . .
32.0(32) . . .
23.4(27) . . .
24.0(28) . . .
27.9(27) . . .
23.6(25) . . .
28.1(28) . . .
26.6(27) . . .
28.6(28) . . .
28.6(29) . . .
28.1(27) . . .
28.7(28) . . .
33.3(34) . . .
32.3(32) . . .
23.2(25) . . .
33.9(31) . . .
30.0(28) . . .
29.5(29) . . .
28.6(27) . . .
31.0(29) . . .
25.4(27) . . .
30.5(31) . . .
35.1(33) . . .
33.0(30) . . .
30.9(29) . . .
31.5(30) . . .
28.6(29) . . .
30.2(30) . . .
33.5(32) . . .
36.7(31) . . .
27.8(28) . . .
30.2(33) . . .
29.0(30) . . .
24.1(26) . . .
28.6(27) . . .
28.1(29) . . .
33.4(33) . . .
26.0(28) . . .
28.0(29) . . .
23.4(25) . . .
40.8(35) . . .
38.0(34) . . .
30.0(32) . . .
35.9(33) . . .
30.9(29) . . .
34.0(34) . . .
28.4(27) . . .
33.4(31) . . .
32.8(30) . . .
26.2(26) . . .
31.3(33) . . .
24.1(27) . . .
40.0(34) . . .
35.3(31) . . .
37.8(32) . . .
32.0(30) . . .
29.5(30) . . .
26.1(27) . . .
21.5(25) . . .
35.5(31) . . .
22.8(26) . . .
22.1(28) . . .
33.2(33) . . .
31.3(29) . . .
30.6(29) . . .
29.7(29) . . .
33.2(33) . . .
30.0(30) . . .
24.6(26) . . .
29.2(28) . . .
22.8(25) . . .
27.1(29) . . .
25.4(28) . . .
23.9(26) . . .
22.0(24) . . .
32.1(29) . . .
27.5(27) . . .
28.0(29) . . .
43.2(34) . . .
31.5(30) . . .
22.4(24) . . .
24.6(26) . . .
28.5(28) . . .
38.6(32) . . .
28.1(28) . . .
30.0(30) . . .
27.5(28) . . .
27.4(27) . . .
32.6(31) . . .
29.3(29) . . .
32.7(33) . . .
26.0(27) . . .
29.3(29) . . .
31.8(29) . . .
32.3(30) . . .
25.1(26) . . .
33.1(33) . . .
23.1(25) . . .
22.9(26) . . .
33.4(31) . . .
24.8(28) . . .
27.7(28) . . .
29.5(29) . . .
28.7(29) . . .
35.8(33) . . .
21.7(24) . . .
34.9(32) . . .
27.3(28) . . .
22.3(25) . . .
29.2(31) . . .
35.9(34) . . .
29.5(29) . . .
30.8(30) . . .
27.7(27) . . .
37.2(33) . . .
33.7(31) . . .
30.3(29) . . .
35.5(31) . . .
30.0(28) . . .
28.8(30) . . .
27.3(30) . . .
31.5(30) . . .
36.9(31) . . .
33.1(30) . . .
32.7(31) . . .
26.6(27) . . .
28.9(28) . . .
31.4(29) . . .
29.1(29) . . .
30.0(29) . . .
32.5(32) . . .
29.0(29) . . .
33.2(30) . . .
33.2(30) . . .
34.1(31) . . .
32.4(31) . . .
28.3(28) . . .
24.2(26) . . .
28.9(28) . . .
33.9(33) . . .
29.5(30) . . .
29.0(29) . . .
36.0(31) . . .
31.9(32) . . .
36.6(34) . . .
26.1(26) . . .
25.9(27) . . .
32.0(30) . . .
34.2(31) . . .
29.4(28) . . .
26.3(28) . . .
29.2(28) . . .
22.8(24) . . .
22.2(25) . . .
28.7(28) . . .
37.8(33) . . .
31.7(29) . . .
30.8(29) . . .
32.2(31) . . .
30.2(29) . . .
32.9(31) . . .
29.3(28) . . .
25.4(26) . . .
36.6(33) . . .
26.8(29) . . .
36.5(33) . . .
35.2(31) . . .
26.6(28) . . .
28.9(29) . . .
32.2(31) . . .
25.6(26) . . .
30.7(29) . . .
33.0(30) . . .
20.7(22) . . .
34.4(33) . . .
30.0(29) . . .
26.6(27) . . .
29.6(29) . . .
25.6(25) . . .
28.2(29) . . .
25.9(28) . . .
28.7(29) . . .
30.0(29) . . .
36.5(34) . . .
26.3(26) . . .
30.9(29) . . .
37.5(32) . . .
25.6(27) . . .
28.3(29) . . .
35.1(33) . . .
34.5(31) . . .
35.2(31) . . .
28.5(30) . . .
39(4) . . .
30.3(30) . . .
31.4(31) . . .
33.8(31) . . .
30.8(30) . . .
35.3(32) . . .
35.6(31) . . .
38.4(32) . . .
37.8(33) . . .
29.7(31) . . .
23.9(26) . . .
33.5(32) . . .
35.6(31) . . .
27.6(28) . . .
30.1(29) . . .
29.0(30) . . .
31.9(30) . . .
29.2(28) . . .
32.6(30) . . .
31.6(31) . . .
36.2(32) . . .
32.8(31) . . .
36.5(31) . . .
31.5(29) . . .
31.0(31) . . .
19.5(22) . . .
27.8(28) . . .
27.7(28) . . .
30.5(29) . . .
25.5(29) . . .
22.5(26) . . .
36.2(34) . . .
31.5(29) . . .
36.0(32) . . .
37.1(34) . . .
26.5(27) . . .
26.4(27) . . .
31.1(29) . . .
37.1(33) . . .
28.8(27) . . .
27.4(30) . . .
35.6(35) . . .
28.7(27) . . .
28.7(29) . . .
35.3(32) . . .
27.9(28) . . .
30.1(30) . . .
25.7(27) . . .
22.9(27) . . .
31.6(32) . . .
26.5(28) . . .
35.1(31) . . .
25.9(26) . . .
31.0(29) . . .
34.4(33) . . .
23.5(26) . . .
26.7(27) . . .
35.9(32) . . .
22.9(25) . . .
34.9(32) . . .
33.1(31) . . .
26.6(27) . . .
24.9(26) . . .
33.5(31) . . .
41(4) . . .
32.9(31) . . .
26.4(28) . . .
30.8(29) . . .
21.8(24) . . .
28.0(31) . . .
23.8(26) . . .
32.5(30) . . .
28.5(28) . . .
21.5(25) . . .
27.7(29) . . .
30.8(29) . . .
29.8(30) . . .
23.5(25) . . .
27.4(28) . . .
22.8(27) . . .
30.3(30) . . .
25.5(27) . . .
25.7(27) . . .
27.1(28) . . .
26.7(27) . . .
35.2(32) . . .
29.7(29) . . .
43(4) . . .
26.6(27) . . .
30.5(30) . . .
29.0(29) . . .
37.3(32) . . .
26.9(27) . . .
30.7(32) . . .
28.8(31) . . .
28.2(28) . . .
29.0(27) . . .
30.0(28) . . .
28.3(28) . . .
31.6(30) . . .
27.5(28) . . .
28.1(28) . . .
28.3(29) . . .
30.6(31) . . .
28.0(27) . . .
29.2(28) . . .
31.0(29) . . .
31.4(30) . . .
26.5(29) . . .
29.6(30) . . .
31.2(30) . . .
25.8(26) . . .
29.9(31) . . .
22.9(28) . . .
30.5(31) . . .
26.1(26) . . .
30.8(29) . . .
29.1(30) . . .
28.2(29) . . .
27.2(27) . . .
37.1(32) . . .
26.4(28) . . .
25.0(27) . . .
22.3(26) . . .
26.7(28) . . .
27.0(28) . . .
27.9(27) . . .
33.4(29) . . .
30.3(29) . . .
29.6(30) . . .
30.5(30) . . .
27.4(27) . . .
26.8(28) . . .
24.0(26) . . .
32.0(30) . . .
26.7(27) . . .
33.0(30) . . .
33.5(31) . . .
27.9(28) . . .
29.4(28) . . .
36.9(32) . . .
34.5(31) . . .
31.7(31) . . .
24.9(26) . . .
29.8(28) . . .
33.5(30) . . .
32.5(34) . . .
30.4(30) . . .
42(4) . . .
23.7(26) . . .
31.3(30) . . .
26.8(27) . . .
24.9(30) . . .
25.4(29) . . .
29.2(29) . . .
35.7(31) . . .
31.7(30) . . .
30.3(30) . . .
23.5(25) . . .
36.5(32) . . .
36.8(32) . . .
27.6(28) . . .
32.5(33) . . .
36.6(33) . . .
20.8(24) . . .
27.8(28) . . .
31.0(30) . . .
28.5(30) . . .
31.6(30) . . .
32.4(30) . . .
32.9(30) . . .
30.8(30) . . .
24.7(26) . . .
22.6(26) . . .
24.0(26) . . .
31.2(29) . . .
36.7(31) . . .
35.2(32) . . .
30.0(29) . . .
29.4(28) . . .
27.8(28) . . .
32.1(31) . . .
40(4) . . .
35.4(34) . . .
24.2(26) . . .
32.5(30) . . .
30.0(29) . . .
29.0(29) . . .
34.4(31) . . .
38.0(32) . . .
32.2(30) . . .
35.3(34) . . .
30.5(30) . . .
29.4(28) . . .
22.1(25) . . .
26.7(27) . . .
30.7(29) . . .
35.1(33) . . .
31.5(30) . . .
38.0(31) . . .
35.0(32) . . .
32.8(31) . . .
30.8(30) . . .
25.2(26) . . .
36.2(32) . . .
28.2(28) . . .
26.3(28) . . .
23.3(26) . . .
33.2(31) . . .
32.7(30) . . .
30.0(30) . . .
36.5(33) . . .
33.5(31) . . .
31.8(29) . . .
28.6(28) . . .
28.5(29) . . .
30.5(31) . . .
32.6(32) . . .
38.5(32) . . .
31.2(31) . . .
25.7(28) . . .
34.0(33) . . .
38.3(34) . . .
32.8(30) . . .
32.9(30) . . .
24.0(26) . . .
30.3(32) . . .
30.3(30) . . .
35.9(31) . . .
36.3(32) . . .
31.3(31) . . .
30.1(29) . . .
28.7(30) . . .
23.6(26) . . .
28.3(27) . . .
28.0(28) . . .
28.8(29) . . .
36.7(34) . . .
29.5(28) . . .
31.5(30) . . .
27.2(29) . . .
25.3(27) . . .
24.8(26) . . .
28.1(29) . . .
35.8(34) . . .
26.3(28) . . .
24.8(25) . . .
27.4(27) . . .
32.2(30) . . .
29.7(28) . . .
28.8(28) . . .
31.4(31) . . .
27.3(29) . . .
27.2(27) . . .
32.2(30) . . .
26.3(27) . . .
32.4(31) . . .
34.2(31) . . .
25.4(28) . . .
35.1(34) . . .
28.2(30) . . .
35.2(32) . . .
30.8(29) . . .
23.6(25) . . .
32.2(30) . . .
33.6(31) . . .
34.2(30) . . .
31.4(29) . . .
34.7(32) . . .
28.4(27) . . .
29.1(31) . . .
31.7(30) . . .
29.2(28) . . .
27.3(29) . . .
33.9(32) . . .
27.4(27) . . .
30.7(29) . . .
29.5(29) . . .
29.6(28) . . .
29.1(30) . . .
33.0(32) . . .
28.2(31) . . .
32.7(30) . . .
39.8(33) . . .
29.8(28) . . .
29.4(30) . . .
39.0(33) . . .
34.2(31) . . .
30.3(30) . . .
25.8(26) . . .
29.1(30) . . .
34.5(32) . . .
27.6(27) . . .
35.0(32) . . .
30.5(29) . . .
27.6(28) . . .
26.4(28) . . .
32.7(30) . . .
24.0(27) . . .
29.3(30) . . .
31.5(30) . . .
26.6(27) . . .
35.7(31) . . .
32.5(32) . . .
29.4(31) . . .
26.5(26) . . .
23.0(25) . . .
26.1(27) . . .
32.8(30) . . .
26.0(29) . . .
23.8(25) . . .
29.4(28) . . .
34.4(31) . . .
26.0(28) . . .
26.1(28) . . .
30.7(30) . . .
34.1(31) . . .
33.5(30) . . .
31.8(31) . . .
31.2(32) . . .
22.8(26) . . .
26.8(27) . . .
28.9(28) . . .
38.2(34) . . .
39(4) . . .
24.7(25) . . .
26.7(27) . . .
27.8(27) . . .
31.1(31) . . .
28.0(28) . . .
31.8(30) . . .
27.0(27) . . .
35.2(31) . . .
26.5(27) . . .
29.9(28) . . .
31.8(30) . . .
31.8(31) . . .
27.6(27) . . .
31.6(29) . . .
36.2(34) . . .
31.5(30) . . .
25.1(26) . . .
29.6(31) . . .
31.8(30) . . .
30.5(30) . . .
36.3(33) . . .
23.7(26) . . .
28.7(30) . . .
25.7(27) . . .
32.7(31) . . .
28.4(31) . . .
28.1(28) . . .
23.0(26) . . .
34.6(33) . . .
34.5(33) . . .
26.8(27) . . .
26.5(27) . . .
27.4(31) . . .
42(4) . . .
31.7(30) . . .
25.3(26) . . .
25.7(26) . . .
24.6(26) . . .
27.3(27) . . .
37.9(34) . . .
36.5(31) . . .
39.0(33) . . .
33.8(30) . . .
35.6(35) . . .
32.9(32) . . .
33.3(31) . . .
23.5(26) . . .
29.4(29) . . .
22.5(27) . . .
24.4(28) . . .
27.8(28) . . .
37.9(32) . . .
41.6(34) . . .
36.8(31) . . .
39.9(33) . . .
35.9(31) . . .
29.6(29) . . .
30.4(30) . . .
33.7(32) . . .
23.3(25) . . .
30.5(29) . . .
27.1(27) . . .
34.8(33) . . .
22.5(25) . . .
33.6(31) . . .
27.4(28) . . .
28.4(28) . . .
23.2(25) . . .
29.3(31) . . .
28.8(28) . . .
34.5(30) . . .
27.1(27) . . .
32.4(30) . . .
32.4(31) . . .
30.9(29) . . .
24.7(26) . . .
22.6(25) . . .
28.9(32) . . .
30.5(32) . . .
32.8(32) . . .
28.1(28) . . .
26.8(31) . . .
25.7(28) . . .
24.8(27) . . .
37.0(33) . . .
34.8(31) . . .
33.8(32) . . .
34.3(33) . . .
35.1(32) . . .
33.4(31) . . .
33.1(29) . . .
34.2(32) . . .
32.6(31) . . .
32.0(31) . . .
29.3(28) . . .
29.5(28) . . .
22.9(27) . . .
30.0(30) . . .
29.0(31) . . .
34.0(30) . . .
26.4(28) . . .
30.9(28) . . .
29.5(30) . . .
29.5(30) . . .
23.7(25) . . .
26.0(28) . . .
20.2(23) . . .
35(4) . . .
20.9(26) . . .
35.6(31) . . .
31.0(29) . . .
27.2(28) . . .
27.9(28) . . .
26.0(28) . . .
26.9(27) . . .
34.9(32) . . .
38.3(34) . . .
34.3(32) . . .
29.7(31) . . .
35.4(31) . . .
22.4(25) . . .
25.7(28) . . .
29.9(28) . . .
32.4(30) . . .
36.8(31) . . .
34.1(34) . . .
25.6(28) . . .
31.6(33) . . .
35.0(32) . . .
31.9(29) . . .
35.2(32) . . .
30.9(32) . . .
25.5(27) . . .
32.9(31) . . .
33.7(32) . . .
34.9(32) . . .
34.0(33) . . .
29.1(30) . . .
31.4(29) . . .
34.4(32) . . .
27.5(28) . . .
30.3(32) . . .
30.2(29) . . .
33.2(30) . . .
22.5(26) . . .
37(4) . . .
31.4(30) . . .
29.6(29) . . .
22.1(25) . . .
26.5(27) . . .
26.5(27) . . .
32.1(31) . . .
35.4(33) . . .
40(4) . . .
37.4(33) . . .
35.3(33) . . .
31.9(32) . . .
27.5(28) . . .
24.6(26) . . .
29.0(28) . . .
24.7(25) . . .
28.1(29) . . .
29.4(30) . . .
27.8(28) . . .
29.9(29) . . .
37.7(34) . . .
26.1(26) . . .
28.4(28) . . .
29.7(29) . . .
24.7(29) . . .
23.5(25) . . .
26.1(27) . . .
31.3(32) . . .
30.6(29) . . .
28.2(28) . . .
27.9(29) . . .
25.0(26) . . .
32.7(30) . . .
29.7(29) . . .
23.8(26) . . .
21.6(25) . . .
24.6(29) . . .
26.6(27) . . .
25.4(26) . . .
30.9(31) . . .
28.1(29) . . .
33.4(30) . . .
25.1(26) . . .
42.3(34) . . .
35.4(33) . . .
30.3(32) . . .
32.0(31) . . .
33.5(32) . . .
25.5(26) . . .
27.7(28) . . .
29.5(34) . . .
30.9(31) . . .
34.2(30) . . .
34.3(31) . . .
27.1(28) . . .
25.8(29) . . .
27.2(28) . . .
21.8(25) . . .
27.6(28) . . .
32.6(31) . . .
27.4(27) . . .
25.7(27) . . .
27.4(27) . . .
31.6(30) . . .
28.3(29) . . .
29.1(29) . . .
27.0(27) . . .
25.4(26) . . .
28.1(29) . . .
28.2(28) . . .
28.3(30) . . .
36.3(33) . . .
30.5(29) . . .
32.0(29) . . .
31.7(30) . . .
28.7(29) . . .
29.5(28) . . .
27.9(27) . . .
30.5(30) . . .
31.0(30) . . .
34.6(32) . . .
27.9(30) . . .
27.5(27) . . .
26.8(28) . . .
27.1(29) . . .
25.8(27) . . .
31.3(30) . . .
25.3(26) . . .
22.0(24) . . .
33.0(32) . . .
26.2(28) . . .
27.7(28) . . .
38.2(32) . . .
25.5(28) . . .
25.0(29) . . .
26.6(29) . . .
24.1(26) . . .
26.0(27) . . .
25.5(27) . . .
28.8(30) . . .
27.5(27) . . .
32.3(29) . . .
35.5(32) . . .
32.0(31) . . .
33.0(33) . . .
28.3(28) . . .
36.2(31) . . .
31.6(31) . . .
28.7(29) . . .
33.6(32) . . .
27.1(28) . . .
20.9(23) . . .
23.1(25) . . .
27.9(28) . . .
25.5(27) . . .
32.6(34) . . .
31.9(30) . . .
34.8(32) . . .
33.1(32) . . .
29.8(30) . . .
34.6(31) . . .
25.5(26) . . .
23.2(26) . . .
24.0(27) . . .
28.5(28) . . .
29.9(29) . . .
33.4(31) . . .
34.2(33) . . .
29.8(31) . . .
26.9(27) . . .
33.9(31) . . .
32.4(30) . . .
22.6(25) . . .
29.1(29) . . .
31.3(33) . . .
34.1(32) . . .
30.5(29) . . .
36.8(32) . . .
23.5(26) . . .
25.3(27) . . .
26.5(27) . . .
17.2(22) . . .
24.2(26) . . .
24.3(26) . . .
33.7(32) . . .
28.9(29) . . .
32.1(29) . . .
33.0(30) . . .
37.1(34) . . .
26.3(28) . . .
26.7(27) . . .
32.2(29) . . .
32.9(31) . . .
34.0(33) . . .
34.5(35) . . .
26.1(27) . . .
35.7(32) . . .
24.9(26) . . .
32.8(33) . . .
36.2(34) . . .
26.2(27) . . .
29.8(29) . . .
34.1(32) . . .
27.2(29) . . .
31.0(30) . . .
29.5(28) . . .
28.7(29) . . .
26.4(28) . . .
28.8(30) . . .
24.5(26) . . .
29.0(28) . . .
28.8(28) . . .
28.7(30) . . .
24.8(26) . . .
28.9(28) . . .
41.0(34) . . .
28.6(30) . . .
31.5(30) . . .
28.3(29) . . .
31.9(31) . . .
41.1(33) . . .
29.9(32) . . .
30.8(32) . . .
41(4) . . .
33.9(32) . . .
27.6(28) . . .
30.4(30) . . .
31.7(32) . . .
26.3(28) . . .
24.0(26) . . .
28.3(28) . . .
26.5(29) . . .
29.4(33) . . .
31.1(33) . . .
27.3(30) . . .
18.5(23) . . .
35.3(32) . . .
29.6(31) . . .
33.4(31) . . .
32.5(30) . . .
31.6(29) . . .
30.2(30) . . .
26.6(27) . . .
31.2(29) . . .
34.0(31) . . .
32.2(29) . . .
40(4) . . .
27.6(29) . . .
30.7(30) . . .
33.5(31) . . .
28.1(28) . . .
32.1(30) . . .
33.9(31) . . .
30.0(29) . . .
33.0(31) . . .
29.4(28) . . .
31.6(30) . . .
27.4(29) . . .
29.2(28) . . .
28.4(27) . . .
32.5(30) . . .
32.5(32) . . .
31.1(31) . . .
30.7(30) . . .
29.4(28) . . .
32.5(33) . . .
38.7(35) . . .
27.9(27) . . .
27.6(27) . . .
30.4(28) . . .
28.3(28) . . .
29.9(30) . . .
21.3(23) . . .
29.7(29) . . .
26.3(27) . . .
32.0(32) . . .
23.8(26) . . .
29.5(31) . . .
35.2(31) . . .
38.2(33) . . .
27.7(28) . . .
29.5(29) . . .
36.1(33) . . .
31.7(29) . . .
32.3(30) . . .
32.6(30) . . .
29.1(31) . . .
27.9(29) . . .
34.8(32) . . .
31.5(29) . . .
31.9(31) . . .
31.9(31) . . .
32.2(31) . . .
29.5(28) . . .
28.3(27) . . .
24.8(27) . . .
22.7(26) . . .
25.5(26) . . .
27.8(27) . . .
31.6(29) . . .
31.9(31) . . .
26.2(28) . . .
27.1(28) . . .
22.6(25) . . .
27.8(29) . . .
33.0(31) . . .
38.4(32) . . .
30.4(29) . . .
27.5(27) . . .
25.5(27) . . .
27.7(30) . . .
32.9(33) . . .
30.4(29) . . .
32.0(29) . . .
32.0(30) . . .
28.8(29) . . .
31.0(29) . . .
39.8(33) . . .
30.0(29) . . .
25.5(29) . . .
32.1(32) . . .
34.8(33) . . .
28.2(28) . . .
41.5(33) . . .
29.1(28) . . .
25.4(29) . . .
28.6(30) . . .
22.6(24) . . .
34.2(30) . . .
26.1(30) . . .
20.9(25) . . .
23.0(26) . . .
30.7(30) . . .
35.7(31) . . .
27.2(28) . . .
26.0(28) . . .
29.3(30) . . .
28.3(28) . . .
31.2(29) . . .
25.9(28) . . .
28.8(32) . . .
43(4) . . .
27.2(27) . . .
26.5(27) . . .
33.8(32) . . .
29.7(31) . . .
41.3(35) . . .
36.8(32) . . .
25.5(26) . . .
29.7(30) . . .
29.6(30) . . .
33.1(32) . . .
29.0(28) . . .
26.0(26) . . .
29.9(31) . . .
29.2(31) . . .
31.9(30) . . .
29.6(28) . . .
22.7(25) . . .
29.0(30) . . .
25.8(28) . . .
29.1(28) . . .
31.6(29) . . .
31.9(29) . . .
32.1(30) . . .
31.0(30) . . .
29.0(30) . . .
23.2(25) . . .
33.2(31) . . .
33.3(31) . . .
31.8(30) . . .
28.9(30) . . .
27.3(27) . . .
19.5(24) . . .
23.4(29) . . .
30.2(30) . . .
31.7(31) . . .
24.5(26) . . .
24.0(26) . . .
24.6(28) . . .
29.4(29) . . .
29.4(28) . . .
34.2(32) . . .
34.6(34) . . .
23.0(26) . . .
27.3(28) . . .
36.8(32) . . .
34.8(30) . . .
32.4(33) . . .
29.6(32) . . .
29.5(29) . . .
26.8(27) . . .
26.1(27) . . .
30.4(29) . . .
33.8(33) . . .
23.6(25) . . .
33.1(30) . . .
29.9(30) . . .
28.8(30) . . .
25.1(30) . . .
26.7(30) . . .
27.9(28) . . .
21.4(25) . . .
26.9(27) . . .
32.6(33) . . .
27.3(30) . . .
30.7(29) . . .
30.7(29) . . .
28.5(27) . . .
29.4(30) . . .
22.6(26) . . .
24.9(26) . . .
28.3(28) . . .
28.6(30) . . .
21.8(24) . . .
32.2(31) . . .
26.1(27) . . .
35.2(32) . . .
32.2(31) . . .
26.1(28) . . .
21.8(26) . . .
28.3(27) . . .
34.5(32) . . .
24.4(26) . . .
28.2(29) . . .
27.1(27) . . .
28.8(28) . . .
24.0(26) . . .
24.1(28) . . .
28.2(29) . . .
39.6(35) . . .
25.6(26) . . .
26.8(28) . . .
37.3(34) . . .
34.3(30) . . .
37.5(32) . . .
42.3(34) . . .
22.5(25) . . .
29.9(30) . . .
29.9(28) . . .
35.4(33) . . .
32.6(30) . . .
31.4(31) . . .
19.7(24) . . .
29.0(29) . . .
30.2(29) . . .
30.2(28) . . .
33.0(30) . . .
24.4(26) . . .
29.3(31) . . .
41.6(34) . . .
31.3(28) . . .
40(4) . . .
24.4(26) . . .
27.3(28) . . .
36.6(31) . . .
42.2(35) . . .
23.8(25) . . .
28.0(28) . . .
29.3(28) . . .
32.1(30) . . .
35.6(32) . . .
31.2(30) . . .
26.1(26) . . .
33.7(33) . . .
25.1(26) . . .
31.4(31) . . .
26.7(28) . . .
32.4(32) . . .
37.2(33) . . .
33.7(30) . . .
26.9(27) . . .
30.0(30) . . .
32.5(33) . . .
25.1(28) . . .
23.2(25) . . .
20.6(25) . . .
31.9(31) . . .
30.4(29) . . .
25.6(26) . . .
28.2(27) . . .
26.4(28) . . .
21.5(23) . . .
35.2(33) . . .
23.1(25) . . .
32.0(30) . . .
30.3(29) . . .
27.6(30) . . .
33.1(32) . . .
31.1(29) . . .
32.4(30) . . .
27.0(28) . . .
24.9(29) . . .
25.5(27) . . .
29.7(28) . . .
36.4(31) . . .
30.4(32) . . .
30.7(33) . . .
29.9(30) . . .
26.3(27) . . .
24.3(26) . . .
26.0(28) . . .
32.9(33) . . .
24.1(27) . . .
26.2(26) . . .
28.5(29) . . .
33.5(31) . . .
31.4(31) . . .
27.3(27) . . .
26.4(27) . . .
27.0(28) . . .
30.9(31) . . .
28.8(28) . . .
34.0(31) . . .
33.1(30) . . .
29.5(30) . . .
30.1(31) . . .
26.5(29) . . .
21.6(24) . . .
29.4(29) . . .
26.5(30) . . .
26.5(29) . . .
23.4(26) . . .
28.0(28) . . .
27.2(27) . . .
28.5(31) . . .
30.6(31) . . .
33.3(31) . . .
36.5(31) . . .
26.6(28) . . .
33.0(32) . . .
27.5(28) . . .
27.0(27) . . .
24.5(26) . . .
33.3(30) . . .
29.8(31) . . .
22.1(25) . . .
31.2(30) . . .
33.6(30) . . .
34.8(31) . . .
27.2(28) . . .
30.7(34) . . .
31.7(31) . . .
23.0(27) . . .
21.9(24) . . .
24.1(25) . . .
26.8(28) . . .
29.7(30) . . .
26.9(27) . . .
29.9(29) . . .
32.1(30) . . .
24.2(27) . . .
23.5(27) . . .
37.9(33) . . .
27.0(27) . . .
20.7(24) . . .
26.2(29) . . .
25.8(27) . . .
32.6(30) . . .
25.4(29) . . .
33.8(32) . . .
34.0(33) . . .
19.6(24) . . .
34.4(31) . . .
28.2(28) . . .
27.4(30) . . .
36.9(33) . . .
39.9(34) . . .
37.0(31) . . .
34.5(34) . . .
30.8(30) . . .
25.0(27) . . .
31.8(29) . . .
31.2(29) . . .
25.2(26) . . .
32.5(32) . . .
29.6(30) . . .
28.1(27) . . .
27.3(27) . . .
23.2(25) . . .
29.0(30) . . .
27.4(28) . . .
23.5(26) . . .
25.5(27) . . .
27.7(28) . . .
29.4(30) . . .
30.3(30) . . .
27.4(27) . . .
34.2(30) . . .
24.4(27) . . .
27.4(30) . . .
25.4(27) . . .
31.1(30) . . .
27.0(28) . . .
22.6(24) . . .
28.0(28) . . .
37.8(32) . . .
36.2(31) . . .
31.0(29) . . .
29.6(28) . . .
37.2(34) . . .
29.0(29) . . .
29.6(28) . . .
26.4(28) . . .
32.2(32) . . .
32.5(31) . . .
19.9(24) . . .
23.1(27) . . .
28.9(28) . . .
27.9(29) . . .
28.7(28) . . .
33.6(31) . . .
21.5(25) . . .
32.8(31) . . .
32.1(33) . . .
26.4(28) . . .
24.3(26) . . .
26.1(27) . . .
22.7(25) . . .
31.7(31) . . .
21.4(25) . . .
26.9(27) . . .
28.7(28) . . .
29.4(28) . . .
39.8(34) . . .
36.2(31) . . .
34.5(31) . . .
36.8(32) . . .
24.8(28) . . .
24.5(27) . . .
28.3(31) . . .
26.2(28) . . .
31.2(29) . . .
35.2(32) . . .
25.8(29) . . .
31.8(34) . . .
35.0(32) . . .
37.6(32) . . .
25.9(26) . . .
29.0(29) . . .
29.4(29) . . .
30.9(29) . . .
20.7(24) . . .
28.9(28) . . .
25.3(26) . . .
27.8(28) . . .
29.0(29) . . .
24.3(26) . . .
35.2(31) . . .
35.8(34) . . .
35.0(31) . . .
32.9(30) . . .
33.0(30) . . .
31.2(30) . . .
26.9(29) . . .
28.6(29) . . .
31.7(29) . . .
33.7(31) . . .
28.5(28) . . .
29.9(30) . . .
23.0(26) . . .
28.6(28) . . .
23.0(26) . . .
30.3(31) . . .
30.7(31) . . .
27.4(28) . . .
31.4(29) . . .
32.4(32) . . .
25.9(30) . . .
28.5(30) . . .
28.8(28) . . .
34.3(31) . . .
28.3(31) . . .
34.9(34) . . .
25.0(27) . . .
30.0(30) . . .
28.3(28) . . .
36.3(33) . . .
35.7(31) . . .
35.7(32) . . .
25.1(26) . . .
26.6(27) . . .
28.7(29) . . .
28.8(29) . . .
27.6(28) . . .
31.1(29) . . .
32.1(30) . . .
33.8(31) . . .
33.2(34) . . .
27.4(27) . . .
26.5(27) . . .
30.8(29) . . .
32.9(31) . . .
30.1(31) . . .
19.1(23) . . .
24.6(26) . . .
35.8(31) . . .
32.9(32) . . .
30.8(29) . . .
29.9(29) . . .
31.3(29) . . .
24.3(28) . . .
33.0(32) . . .
24.1(27) . . .
28.1(29) . . .
33.8(30) . . .
30.9(29) . . .
31.5(29) . . .
25.0(27) . . .
29.5(30) . . .
32.1(30) . . .
21.4(23) . . .
36.9(34) . . .
29.0(28) . . .
33.1(30) . . .
27.5(28) . . .
38.4(33) . . .
29.6(28) . . .
29.5(29) . . .
32.6(33) . . .
35.8(31) . . .
29.7(28) . . .
31.6(31) . . .
29.9(29) . . .
34.1(30) . . .
30.7(29) . . .
36.8(33) . . .
36.5(33) . . .
32.8(30) . . .
31.8(30) . . .
31.7(29) . . .
26.5(28) . . .
30.2(32) . . .
34.2(32) . . .
32.0(29) . . .
25.0(26) . . .
32.3(31) . . .
40(4) . . .
32.3(29) . . .
25.6(26) . . .
27.5(28) . . .
24.9(27) . . .
31.0(33) . . .
30.4(29) . . .
27.7(28) . . .
26.4(27) . . .
26.7(27) . . .
32.6(33) . . .
27.9(29) . . .
37.3(32) . . .
32.7(29) . . .
37.5(34) . . .
26.5(29) . . .
33.7(33) . . .
36.3(32) . . .
35.4(32) . . .
28.7(29) . . .
30.3(32) . . .
28.6(31) . . .
32.5(31) . . .
31.9(31) . . .
28.0(29) . . .
33.5(32) . . .
27.4(28) . . .
22.0(25) . . .
28.3(29) . . .
32.7(32) . . .
27.9(28) . . .
26.1(27) . . .
31.9(30) . . .
21.6(24) . . .
33.7(32) . . .
36.6(33) . . .
24.3(26) . . .
28.2(28) . . .
27.5(28) . . .
28.3(29) . . .
29.8(30) . . .
31.0(29) . . .
28.3(28) . . .
28.8(29) . . .
30.2(31) . . .
28.6(30) . . .
25.8(26) . . .
30.7(29) . . .
29.6(28) . . .
37.2(32) . . .
32.0(30) . . .
25.0(26) . . .
27.2(27) . . .
28.0(29) . . .
35.5(34) . . .
36.6(34) . . .
27.6(27) . . .
34.5(31) . . .
34.7(33) . . .
23.5(27) . . .
30.8(31) . . .
24.9(26) . . .
24.4(26) . . .
30.6(32) . . .
27.0(29) . . .
27.7(29) . . .
29.6(29) . . .
26.2(27) . . .
30.6(31) . . .
32.0(31) . . .
33.5(30) . . .
33.1(30) . . .
32.4(30) . . .
26.6(28) . . .
22.2(26) . . .
26.5(27) . . .
32.9(30) . . .
22.1(24) . . .
33.5(32) . . .
33.7(31) . . .
26.5(27) . . .
26.6(27) . . .
39.4(35) . . .
30.4(29) . . .
27.2(28) . . .
29.6(29) . . .
25.8(26) . . .
28.1(28) . . .
24.4(27) . . .
39(4) . . .
29.7(30) . . .
24.4(26) . . .
30.3(29) . . .
31.8(30) . . .
30.5(29) . . .
35.2(32) . . .
32.6(29) . . .
30.3(32) . . .
36(4) . . .
34.3(32) . . .
33.9(31) . . .
30.2(29) . . .
26.1(26) . . .
30.9(32) . . .
23.4(26) . . .
25.5(26) . . .
28.2(28) . . .
31.2(29) . . .
41(4) . . .
26.3(27) . . .
33.1(30) . . .
26.0(27) . . .
30.9(32) . . .
32.1(33) . . .
33.0(34) . . .
24.9(26) . . .
30.2(28) . . .
27.7(31) . . .
32.8(33) . . .
34.1(34) . . .
27.6(27) . . .
31.7(29) . . .
29.2(28) . . .
27.9(29) . . .
31.3(31) . . .
32.1(29) . . .
21.5(24) . . .
27.5(29) . . .
30.6(31) . . .
26.8(29) . . .
30.8(30) . . .
46(4) . . .
28.0(28) . . .
28.2(28) . . .
27.8(28) . . .
31.0(29) . . .
29.5(31) . . .
33.0(32) . . .
26.5(28) . . .
24.9(26) . . .
23.8(25) . . .
32.0(31) . . .
29.0(27) . . .
33.8(31) . . .
33.5(31) . . .
26.0(26) . . .
33.7(33) . . .
30.3(29) . . .
23.6(26) . . .
31.7(29) . . .
38.5(32) . . .
36.6(33) . . .
26.5(29) . . .
25.4(27) . . .
23.8(25) . . .
26.4(27) . . .
33.9(32) . . .
23.5(26) . . .
28.6(29) . . .
27.8(28) . . .
27.9(28) . . .
24.0(25) . . .
33.7(33) . . .
29.9(30) . . .
37.2(32) . . .
29.0(29) . . .
31.5(32) . . .
31.5(31) . . .
33.2(30) . . .
31.0(29) . . .
23.4(26) . . .
37.3(33) . . .
26.8(28) . . .
32.6(31) . . .
26.2(28) . . .
28.9(29) . . .
26.7(27) . . .
35.2(33) . . .
26.1(26) . . .
35.1(31) . . .
28.6(29) . . .
25.7(27) . . .
27.8(28) . . .
31.3(31) . . .
27.9(27) . . .
28.6(29) . . .
32.5(32) . . .
27.9(29) . . .
31.7(29) . . .
33.0(30) . . .
31.2(30) . . .
31.1(30) . . .
33.5(31) . . .
27.5(27) . . .
31.9(31) . . .
30.9(31) . . .
34.2(33) . . .
28.7(29) . . .
31.7(30) . . .
30.1(29) . . .
33.3(31) . . .
26.5(28) . . .
32.2(30) . . .
27.7(28) . . .
21.4(25) . . .
30.6(31) . . .
30.3(32) . . .
30.3(30) . . .
33.3(31) . . .
23.7(25) . . .
31.6(32) . . .
37(4) . . .
25.1(29) . . .
37.4(32) . . .
30.9(30) . . .
30.2(30) . . .
25.1(27) . . .
35.6(33) . . .
29.5(28) . . .
25.2(26) . . .
27.5(30) . . .
27.5(28) . . .
35.9(32) . . .
31.5(30) . . .
38.4(32) . . .
41(4) . . .
28.3(29) . . .
28.7(30) . . .
29.8(28) . . .
25.6(27) . . .
30.2(30) . . .
28.5(28) . . .
22.9(26) . . .
26.7(27) . . .
25.0(27) . . .
35.5(33) . . .
29.7(30) . . .
25.2(26) . . .
34.5(31) . . .
26.7(30) . . .
34.4(35) . . .
29.0(29) . . .
29.8(30) . . .
26.3(27) . . .
34.3(31) . . .
26.9(27) . . .
25.9(27) . . .
30.8(30) . . .
27.4(27) . . .
37.3(34) . . .
26.6(29) . . .
32.2(31) . . .
30.0(30) . . .
33.7(30) . . .
28.0(27) . . .
29.6(31) . . .
30.4(29) . . .
27.5(28) . . .
24.9(26) . . .
35.1(32) . . .
33.0(32) . . .
36.9(33) . . .
25.6(27) . . .
31.6(30) . . .
25.9(27) . . .
38(4) . . .
23.5(26) . . .
38.9(33) . . .
26.0(27) . . .
35.8(34) . . .
32.3(33) . . .
33.0(32) . . .
24.1(26) . . .
35.6(32) . . .
31.5(30) . . .
32.3(30) . . .
33.0(32) . . .
26.2(26) . . .
31.7(29) . . .
36.7(33) . . .
38.1(33) . . .
41.4(34) . . .
34.6(31) . . .
32.7(30) . . .
36.3(34) . . .
37.8(33) . . .
31.6(30) . . .
27.3(27) . . .
24.8(27) . . .
18.0(24) . . .
22.4(26) . . .
26.4(28) . . .
34.6(31) . . .
26.5(27) . . .
33.8(31) . . .
31.9(31) . . .
31.7(30) . . .
24.3(26) . . .
26.8(30) . . .
29.0(30) . . .
30.2(30) . . .
35.5(32) . . .
27.3(27) . . .
25.6(27) . . .
28.6(31) . . .
24.5(26) . . .
30.7(29) . . .
30.6(29) . . .
30.1(31) . . .
30.4(33) . . .
30.2(34) . . .
17.0(21) . . .
29.4(28) . . .
33.4(30) . . .
31.8(30) . . .
24.5(27) . . .
32.0(30) . . .
27.6(27) . . .
26.9(27) . . .
23.8(26) . . .
36.2(32) . . .
32.0(30) . . .
23.9(25) . . .
30.0(28) . . .
30.6(29) . . .
36.5(32) . . .
26.8(27) . . .
26.7(27) . . .
25.9(26) . . .
30.4(29) . . .
28.1(30) . . .
25.3(26) . . .
30.6(28) . . .
31.9(30) . . .
30.2(31) . . .
29.6(28) . . .
29.8(28) . . .
26.3(29) . . .
26.4(27) . . .
32.1(30) . . .
27.7(28) . . .
37.9(32) . . .
36.3(34) . . .
32.0(31) . . .
32.0(32) . . .
30.3(29) . . .
29.6(29) . . .
31.5(31) . . .
27.4(27) . . .
27.5(30) . . .
26.5(29) . . .
27.8(27) . . .
23.3(25) . . .
27.5(30) . . .
27.3(28) . . .
26.4(27) . . .
29.5(29) . . .
28.2(29) . . .
27.5(32) . . .
23.5(28) . . .
32.6(31) . . .
26.5(27) . . .
23.3(27) . . .
31.7(31) . . .
32.8(31) . . .
26.2(27) . . .
20.6(23) . . .
24.2(25) . . .
25.8(28) . . .
28.8(29) . . .
33.0(30) . . .
23.2(25) . . .
29.0(32) . . .
34.4(32) . . .
30.2(29) . . .
29.4(28) . . .
31.0(29) . . .
24.3(26) . . .
27.6(28) . . .
28.4(28) . . .
29.6(28) . . .
31.5(30) . . .
25.7(29) . . .
38(4) . . .
34.5(31) . . .
28.7(28) . . .
34.2(32) . . .
27.9(29) . . .
36.9(34) . . .
30.9(30) . . .
29.5(28) . . .
29.5(29) . . .
36.1(34) . . .
28.0(29) . . .
32.0(30) . . .
28.2(28) . . .
26.5(28) . . .
31.0(30) . . .
29.9(30) . . .
29.2(29) . . .
30.2(29) . . .
30.7(30) . . .
32.3(32) . . .
27.4(27) . . .
31.7(30) . . .
42.2(34) . . .
30.7(31) . . .
22.9(28) . . .
25.4(27) . . .
32.1(29) . . .
30.2(28) . . .
30.5(30) . . .
30.5(32) . . .
35.2(32) . . .
33.4(30) . . .
26.8(28) . . .
31.0(30) . . .
28.1(30) . . .
24.2(29) . . .
36.1(32) . . .
27.0(27) . . .
29.5(29) . . .
29.6(31) . . .
28.8(30) . . .
24.3(25) . . .
32.6(31) . . .
25.8(27) . . .
24.3(29) . . .
23.3(26) . . .
25.1(26) . . .
29.7(29) . . .
24.7(27) . . .
33.7(31) . . .
34.2(30) . . .
20.9(24) . . .
33.8(31) . . .
26.5(28) . . .
20.4(26) . . .
28.5(30) . . .
36.4(31) . . .
37.6(32) . . .
25.1(26) . . .
29.5(29) . . .
34.7(31) . . .
31.1(29) . . .
29.3(29) . . .
28.5(29) . . .
33.3(30) . . .
28.1(28) . . .
23.1(25) . . .
32.2(32) . . .
26.5(28) . . .
29.3(29) . . .
30.4(29) . . .
36.0(31) . . .
28.7(29) . . .
29.9(30) . . .
33.1(30) . . .
22.6(24) . . .
27.5(27) . . .
26.9(28) . . .
29.6(32) . . .
25.0(27) . . .
26.7(28) . . .
36.5(31) . . .
29.9(29) . . .
27.0(29) . . .
25.3(27) . . .
40.5(33) . . .
36.3(33) . . .
31.4(29) . . .
28.8(28) . . .
36.5(32) . . .
39.2(33) . . .
27.2(28) . . .
26.3(29) . . .
27.5(29) . . .
25.4(26) . . .
21.0(24) . . .
23.7(27) . . .
21.8(25) . . .
30.7(31) . . .
31.2(30) . . .
32.9(30) . . .
30.6(29) . . .
23.9(27) . . .
27.2(28) . . .
26.5(27) . . .
29.4(29) . . .
31.8(31) . . .
34.8(33) . . .
34.2(33) . . .
28.3(29) . . .
26.0(27) . . .
28.1(28) . . .
34.9(31) . . .
35.5(31) . . .
33.7(30) . . .
31.4(30) . . .
26.6(27) . . .
32.2(32) . . .
25.9(27) . . .
29.8(28) . . .
27.2(27) . . .
25.3(27) . . .
34.5(33) . . .
32.4(30) . . .
31.6(29) . . .
30.1(29) . . .
39.0(33) . . .
35.2(33) . . .
33.5(33) . . .
33.4(30) . . .
31.9(30) . . .
31.7(31) . . .
26.7(28) . . .
28.5(29) . . .
30.7(29) . . .
30.9(30) . . .
25.5(29) . . .
26.9(29) . . .
35.1(32) . . .
31.9(29) . . .
26.8(27) . . .
27.7(29) . . .
24.9(28) . . .
33.4(33) . . .
26.5(27) . . .
23.4(26) . . .
32.0(33) . . .
20.0(24) . . .
28.3(28) . . .
31.6(30) . . .
26.4(27) . . .
27.7(28) . . .
25.8(28) . . .
35.0(34) . . .
25.3(26) . . .
28.3(29) . . .
27.0(28) . . .
36.8(35) . . .
31.3(31) . . .
37.9(32) . . .
24.3(27) . . .
33.8(32) . . .
25.4(27) . . .
31.4(30) . . .
29.3(28) . . .
21.6(25) . . .
34.9(35) . . .
27.3(30) . . .
28.6(29) . . .
22.3(25) . . .
25.2(26) . . .
29.9(32) . . .
29.8(30) . . .
28.3(28) . . .
32.1(30) . . .
25.5(27) . . .
34.7(33) . . .
29.9(30) . . .
26.3(26) . . .
32.1(31) . . .
29.0(29) . . .
27.8(30) . . .
21.3(25) . . .
22.5(25) . . .
24.0(25) . . .
35.3(33) . . .
34.2(33) . . .
26.8(30) . . .
21.8(24) . . .
30.9(29) . . .
30.8(31) . . .
25.4(25) . . .
31.3(30) . . .
37.5(32) . . .
26.6(27) . . .
32.4(30) . . .
34.4(31) . . .
30.3(29) . . .
28.4(28) . . .
23.7(27) . . .
22.6(25) . . .
23.3(26) . . .
23.4(25) . . .
29.0(28) . . .
26.9(29) . . .
24.4(29) . . .
29.3(29) . . .
33.9(31) . . .
25.8(26) . . .
20.6(24) . . .
25.8(27) . . .
33.5(31) . . .
34.0(30) . . .
27.4(28) . . .
29.8(30) . . .
29.0(30) . . .
28.4(28) . . .
32.0(31) . . .
27.7(29) . . .
30.8(31) . . .
29.7(30) . . .
27.1(26) . . .
34.6(31) . . .
35.3(32) . . .
27.2(28) . . .
28.8(30) . . .
30.8(30) . . .
29.3(29) . . .
31.0(29) . . .
26.0(27) . . .
31.9(32) . . .
31.3(30) . . .
30.5(30) . . .
31.9(30) . . .
31.6(30) . . .
33.3(32) . . .
22.3(25) . . .
29.4(29) . . .
32.3(30) . . .
26.2(28) . . .
32.2(31) . . .
39.4(33) . . .
37.1(32) . . .
32.9(29) . . .
31.7(30) . . .
27.0(31) . . .
25.0(28) . . .
26.5(27) . . .
30.8(30) . . .
26.6(28) . . .
30.2(31) . . .
27.0(28) . . .
25.8(27) . . .
31.2(30) . . .
31.5(29) . . .
33.5(31) . . .
25.4(26) . . .
29.9(29) . . .
27.9(27) . . .
25.5(27) . . .
27.6(28) . . .
34.8(30) . . .
26.4(27) . . .
25.8(28) . . .
27.3(30) . . .
22.1(25) . . .
24.1(25) . . .
28.6(28) . . .
26.5(27) . . .
21.0(24) . . .
24.1(26) . . .
28.4(28) . . .
35.5(32) . . .
26.9(28) . . .
22.7(24) . . .
35.7(33) . . .
26.5(26) . . .
30.9(30) . . .
34.8(31) . . .
30.0(31) . . .
32.2(31) . . .
31.6(29) . . .
22.5(25) . . .
22.6(26) . . .
26.9(30) . . .
19.0(23) . . .
28.9(28) . . .
26.1(27) . . .
31.4(33) . . .
26.2(28) . . .
26.3(26) . . .
32.1(30) . . .
26.2(27) . . .
30.6(30) . . .
29.0(29) . . .
32.4(30) . . .
31.2(29) . . .
31.9(31) . . .
32.4(31) . . .
25.4(28) . . .
31.6(30) . . .
30.0(29) . . .
33.9(31) . . .
31.6(31) . . .
23.3(27) . . .
25.9(26) . . .
33.5(30) . . .
23.0(26) . . .
29.8(32) . . .
29.5(31) . . .
25.3(26) . . .
22.2(24) . . .
31.0(31) . . .
32.1(30) . . .
31.4(29) . . .
29.9(30) . . .
33.7(30) . . .
22.2(24) . . .
28.0(29) . . .
24.4(26) . . .
31.7(29) . . .
25.6(27) . . .
21.8(26) . . .
24.5(27) . . .
34.0(32) . . .
35.2(31) . . .
25.4(26) . . .
27.2(27) . . .
33.5(33) . . .
43(4) . . .
25.5(26) . . .
27.8(27) . . .
28.0(28) . . .
32.3(31) . . .
27.7(27) . . .
36.2(31) . . .
27.5(29) . . .
31.2(31) . . .
29.6(29) . . .
27.3(28) . . .
20.4(24) . . .
32.1(29) . . .
29.9(31) . . .
31.5(31) . . .
29.4(28) . . .
37.2(32) . . .
28.0(28) . . .
28.9(28) . . .
30.8(31) . . .
26.7(27) . . .
30.0(28) . . .
35.9(32) . . .
30.8(32) . . .
30.1(31) . . .
26.3(26) . . .
31.8(30) . . .
29.9(30) . . .
32.5(31) . . .
25.8(26) . . .
34.0(33) . . .
31.8(29) . . .
25.1(27) . . .
28.3(29) . . .
25.8(26) . . .
38.0(33) . . .
29.9(29) . . .
23.4(27) . . .
32.3(33) . . .
26.8(27) . . .
27.2(27) . . .
30.4(29) . . .
32.2(30) . . .
28.2(28) . . .
35.7(33) . . .
26.5(27) . . .
25.6(27) . . .
26.9(29) . . .
34(4) . . .
24.7(26) . . .
23.9(26) . . .
31.6(29) . . .
31.2(29) . . .
30.9(31) . . .
33.8(32) . . .
28.6(28) . . .
25.3(27) . . .
27.6(29) . . .
27.3(31) . . .
23.2(27) . . .
29.9(28) . . .
30.4(29) . . .
28.0(28) . . .
31.2(32) . . .
34.7(31) . . .
35.1(31) . . .
37.4(32) . . .
31.4(29) . . .
36.7(34) . . .
30.5(29) . . .
30.8(29) . . .
28.1(27) . . .
35.9(32) . . .
33.3(32) . . .
30.5(30) . . .
24.0(26) . . .
33.3(33) . . .
32.8(31) . . .
32.4(30) . . .
30.4(29) . . .
32.7(30) . . .
25.7(29) . . .
33.0(33) . . .
35.4(32) . . .
29.9(28) . . .
28.6(28) . . .
18.4(24) . . .
34.4(34) . . .
29.5(29) . . .
26.5(28) . . .
23.8(26) . . .
21.7(25) . . .
29.6(32) . . .
22.8(26) . . .
30.4(30) . . .
26.6(27) . . .
27.0(27) . . .
29.0(30) . . .
29.1(28) . . .
28.9(29) . . .
31.9(30) . . .
35.7(35) . . .
23.7(27) . . .
33.6(32) . . .
30.8(29) . . .
32.7(30) . . .
30.4(30) . . .
26.0(27) . . .
29.1(28) . . .
25.8(27) . . .
27.2(28) . . .
27.9(29) . . .
34.8(33) . . .
29.8(29) . . .
29.8(29) . . .
27.4(27) . . .
23.7(26) . . .
30.4(31) . . .
29.3(29) . . .
25.0(27) . . .
30.9(29) . . .
28.6(29) . . .
27.2(28) . . .
24.8(26) . . .
26.7(27) . . .
27.8(28) . . .
29.9(31) . . .
28.6(30) . . .
30.5(30) . . .
22.9(25) . . .
32.3(33) . . .
35.3(33) . . .
24.1(27) . . .
22.1(24) . . .
24.5(26) . . .
29.0(30) . . .
40(4) . . .
28.4(29) . . .
34.7(30) . . .
30.4(29) . . .
30.3(30) . . .
31.4(31) . . .
30.3(30) . . .
29.9(29) . . .
31.5(29) . . .
28.9(30) . . .
24.4(28) . . .
32.2(31) . . .
29.0(28) . . .
22.6(24) . . .
23.5(27) . . .
30.2(33) . . .
26.0(29) . . .
34.1(30) . . .
35.2(31) . . .
20.5(24) . . .
23.5(26) . . .
29.9(29) . . .
37.0(32) . . .
44(4) . . .
29.6(29) . . .
33.2(33) . . .
24.8(27) . . .
40.2(33) . . .
24.3(25) . . .
19.9(23) . . .
32.1(32) . . .
26.2(27) . . .
37.2(32) . . .
21.2(24) . . .
31.5(30) . . .
28.2(29) . . .
26.3(28) . . .
31.6(29) . . .
27.9(29) . . .
27.1(27) . . .
26.4(28) . . .
22.8(26) . . .
28.0(28) . . .
24.9(26) . . .
34.8(32) . . .
33.4(32) . . .
28.1(28) . . .
31.7(29) . . .
28.5(28) . . .
27.4(28) . . .
33.1(32) . . .
29.3(28) . . .
26.9(26) . . .
30.8(30) . . .
26.4(28) . . .
19.2(23) . . .
31.3(29) . . .
25.8(27) . . .
29.7(29) . . .
27.0(28) . . .
25.9(28) . . .
29.8(30) . . .
35.3(32) . . .
26.1(27) . . .
27.3(29) . . .
26.9(27) . . .
21.8(24) . . .
36.2(31) . . .
26.3(27) . . .
30.8(32) . . .
18.0(22) . . .
25.4(27) . . .
25.6(26) . . .
31.5(31) . . .
27.9(28) . . .
31.6(31) . . .
22.9(25) . . .
29.8(30) . . .
25.0(27) . . .
30.3(32) . . .
33.8(33) . . .
22.5(25) . . .
30.1(29) . . .
30.3(30) . . .
34.0(33) . . .
28.2(30) . . .
25.0(26) . . .
35.3(33) . . .
29.4(29) . . .
30.3(31) . . .
28.7(29) . . .
28.6(28) . . .
23.5(26) . . .
23.8(27) . . .
23.1(25) . . .
32.9(31) . . .
31.5(30) . . .
30.8(29) . . .
29.8(34) . . .
28.3(30) . . .
33.3(31) . . .
42.2(35) . . .
31.5(30) . . .
20.8(23) . . .
27.9(28) . . .
20.1(23) . . .
28.5(28) . . .
29.8(30) . . .
32.7(31) . . .
32.3(30) . . .
30.0(29) . . .
31.2(29) . . .
25.4(26) . . .
27.7(29) . . .
24.5(26) . . .
27.9(28) . . .
33.9(31) . . .
33.9(35) . . .
33.9(33) . . .
30.8(31) . . .
36.0(31) . . .
33.3(32) . . .
30.9(31) . . .
32.0(30) . . .
34.7(31) . . .
25.9(26) . . .
23.6(25) . . .
32.6(32) . . .
25.7(28) . . .
27.3(27) . . .
28.7(28) . . .
31.5(30) . . .
28.7(29) . . .
32.7(33) . . .
29.2(30) . . .
30.1(29) . . .
24.9(27) . . .
28.4(30) . . .
25.7(27) . . .
35.3(32) . . .
32.4(30) . . .
31.1(31) . . .
31.5(34) . . .
20.9(24) . . .
31.8(30) . . .
32.1(29) . . .
26.4(27) . . .
26.1(27) . . .
25.0(26) . . .
33.5(31) . . .
25.2(26) . . .
33.5(32) . . .
33.8(32) . . .
27.3(27) . . .
34.1(30) . . .
27.9(28) . . .
28.5(28) . . .
33.5(33) . . .
27.5(29) . . .
27.2(28) . . .
30.0(28) . . .
30.0(30) . . .
24.8(29) . . .
27.0(29) . . .
34.5(32) . . .
35.5(31) . . .
34.7(32) . . .
27.2(28) . . .
30.1(29) . . .
27.0(27) . . .
27.1(27) . . .
27.2(26) . . .
28.3(31) . . .
29.9(30) . . .
25.4(26) . . .
30.9(30) . . .
24.7(27) . . .
32.2(31) . . .
25.8(28) . . .
28.5(28) . . .
26.5(28) . . .
30.6(30) . . .
34.4(31) . . .
28.8(28) . . .
26.7(26) . . .
35.0(32) . . .
23.0(26) . . .
26.3(30) . . .
24.4(27) . . .
31.5(29) . . .
36.0(32) . . .
23.7(25) . . .
30.2(30) . . .
31.1(29) . . .
21.0(24) . . .
25.0(26) . . .
29.7(30) . . .
28.5(28) . . .
35.0(31) . . .
30.4(28) . . .
30.4(29) . . .
28.4(29) . . .
37.3(34) . . .
30.4(30) . . .
24.3(26) . . .
34.3(32) . . .
24.0(27) . . .
36.3(34) . . .
39.0(32) . . .
25.5(27) . . .
21.8(25) . . .
28.0(31) . . .
34.2(33) . . .
30.1(28) . . .
31.6(32) . . .
29.0(29) . . .
27.5(29) . . .
30.3(30) . . .
25.6(27) . . .
35.3(32) . . .
40.1(35) . . .
31.2(31) . . .
31.5(30) . . .
25.3(26) . . .
24.3(27) . . .
31.4(32) . . .
32.7(33) . . .
37.4(34) . . .
29.9(28) . . .
31.1(29) . . .
25.3(26) . . .
28.9(27) . . .
33.3(30) . . .
36.1(31) . . .
33.6(31) . . .
26.8(29) . . .
27.8(31) . . .
25.6(28) . . .
26.3(27) . . .
28.4(27) . . .
28.5(28) . . .
31.8(31) . . .
28.2(27) . . .
27.3(27) . . .
26.5(27) . . .
31.1(32) . . .
25.0(27) . . .
34.5(31) . . .
27.6(28) . . .
27.1(30) . . .
38(4) . . .
34.0(33) . . .
25.4(27) . . .
30.8(29) . . .
27.4(31) . . .
28.8(31) . . .
22.8(25) . . .
25.8(26) . . .
27.4(29) . . .
30.2(30) . . .
27.2(29) . . .
29.1(29) . . .
22.5(25) . . .
26.1(27) . . .
24.3(26) . . .
35.6(34) . . .
32.9(30) . . .
28.4(28) . . .
27.5(27) . . .
25.1(27) . . .
25.6(29) . . .
28.7(29) . . .
21.7(24) . . .
24.6(27) . . .
28.7(30) . . .
28.9(30) . . .
32.2(30) . . .
27.2(27) . . .
33.8(30) . . .
38.4(35) . . .
33(4) . . .
33.4(32) . . .
27.1(27) . . .
25.5(26) . . .
31.0(30) . . .
26.4(28) . . .
21.2(24) . . .
31.5(29) . . .
27.2(28) . . .
22.3(26) . . .
27.3(30) . . .
29.4(30) . . .
29.0(28) . . .
29.3(28) . . .
34.8(31) . . .
31.2(29) . . .
34.5(32) . . .
20.9(24) . . .
25.4(27) . . .
26.4(28) . . .
25.0(28) . . .
31.0(30) . . .
29.3(28) . . .
38(4) . . .
28.4(29) . . .
33.6(32) . . .
26.2(27) . . .
28.7(29) . . .
25.3(27) . . .
27.8(29) . . .
23.1(28) . . .
27.8(28) . . .
27.8(27) . . .
26.2(27) . . .
26.3(29) . . .
32.6(30) . . .
26.3(27) . . .
23.4(25) . . .
32.6(32) . . .
33.7(33) . . .
22.5(25) . . .
25.8(27) . . .
29.0(28) . . .
29.5(29) . . .
27.3(27) . . .
25.5(26) . . .
32.8(30) . . .
34.2(30) . . .
35.3(33) . . .
29.0(29) . . .
27.4(28) . . .
32.5(30) . . .
40.8(34) . . .
28.8(28) . . .
25.9(27) . . .
31.5(31) . . .
32.1(30) . . .
29.2(29) . . .
30.1(27) . . .
27.2(29) . . .
26.2(32) . . .
31.0(29) . . .
32.8(31) . . .
31.9(30) . . .
30.3(30) . . .
33.0(32) . . .
32.9(30) . . .
28.8(28) . . .
29.9(30) . . .
26.7(29) . . .
27.1(28) . . .
25.4(26) . . .
29.9(30) . . .
30.3(31) . . .
19.7(23) . . .
21.2(25) . . .
27.0(27) . . .
31.9(31) . . .
29.0(29) . . .
36.2(32) . . .
35.3(31) . . .
31.7(29) . . .
27.3(28) . . .
32.6(32) . . .
29.2(29) . . .
39.6(32) . . .
31.8(30) . . .
28.7(30) . . .
32.3(32) . . .
27.1(27) . . .
26.4(27) . . .
33.2(31) . . .
28.1(30) . . .
34.5(34) . . .
29.0(32) . . .
31.5(29) . . .
32.3(29) . . .
32.9(31) . . .
27.7(30) . . .
21.9(25) . . .
23.1(25) . . .
35.3(31) . . .
39.5(34) . . .
31.0(30) . . .
34.8(32) . . .
30.4(29) . . .
25.2(26) . . .
25.9(27) . . .
25.0(26) . . .
29.4(30) . . .
33.4(31) . . .
32.6(33) . . .
31.0(33) . . .
24.8(29) . . .
37.1(34) . . .
25.1(26) . . .
33.6(32) . . .
28.9(29) . . .
23.0(25) . . .
29.4(29) . . .
24.1(25) . . .
31.4(31) . . .
39.6(33) . . .
34.3(31) . . .
27.8(28) . . .
23.9(26) . . .
28.9(28) . . .
26.4(27) . . .
26.7(29) . . .
26.8(28) . . .
31.0(29) . . .
31.0(30) . . .
28.9(30) . . .
24.8(26) . . .
27.6(27) . . .
26.3(27) . . .
36.4(33) . . .
35.0(32) . . .
35.0(32) . . .
28.4(28) . . .
27.5(28) . . .
31.8(32) . . .
27.1(29) . . .
23.7(25) . . .
38.6(33) . . .
35.9(31) . . .
34.7(31) . . .
24.3(26) . . .
32.2(31) . . .
27.5(27) . . .
31.5(29) . . .
26.2(27) . . .
25.4(28) . . .
29.5(33) . . .
29.6(28) . . .
29.8(31) . . .
24.8(27) . . .
27.3(29) . . .
30.3(30) . . .
35.2(31) . . .
35.0(32) . . .
31.8(31) . . .
30.8(29) . . .
25.4(26) . . .
30.7(29) . . .
39.4(35) . . .
35.0(33) . . .
29.5(29) . . .
35.7(32) . . .
27.9(28) . . .
34.6(31) . . .
31.0(30) . . .
29.9(30) . . .
27.9(28) . . .
25.4(26) . . .
22.4(26) . . .
33.5(33) . . .
34.0(30) . . .
37.5(34) . . .
31.2(30) . . .
33.8(31) . . .
29.3(31) . . .
33.9(33) . . .
30.7(31) . . .
29.9(28) . . .
35.8(32) . . .
28.9(30) . . .
29.7(29) . . .
29.4(28) . . .
28.5(29) . . .
24.6(26) . . .
25.9(28) . . .
28.9(30) . . .
36.0(32) . . .
37.7(32) . . .
33.6(30) . . .
36.1(32) . . .
42.4(34) . . .
40.1(33) . . .
28.5(28) . . .
23.9(26) . . .
28.7(29) . . .
40.5(34) . . .
26.8(27) . . .
24.0(26) . . .
22.9(24) . . .
33.9(31) . . .
36.1(32) . . .
29.2(29) . . .
35.6(32) . . .
31.6(29) . . .
29.0(28) . . .
32.8(31) . . .
25.5(26) . . .
32.0(29) . . .
26.3(27) . . .
31.2(31) . . .
22.8(25) . . .
29.3(29) . . .
30.9(31) . . .
29.5(30) . . .
32.1(30) . . .
29.2(29) . . .
30.0(29) . . .
25.1(27) . . .
26.8(28) . . .
29.5(30) . . .
36.8(32) . . .
36.5(33) . . .
33.0(32) . . .
26.3(29) . . .
23.8(26) . . .
23.4(25) . . .
27.7(28) . . .
30.7(30) . . .
30.8(30) . . .
33.4(30) . . .
32.7(30) . . .
29.8(28) . . .
34.3(33) . . .
30.3(33) . . .
25.1(26) . . .
27.2(27) . . .
31.3(29) . . .
25.8(26) . . .
27.2(32) . . .
24.0(27) . . .
29.3(28) . . .
35.5(32) . . .
30.8(29) . . .
36.9(34) . . .
35.9(32) . . .
30.0(28) . . .
34.9(32) . . .
31.9(30) . . .
28.7(29) . . .
27.4(28) . . .
28.9(28) . . .
25.9(27) . . .
30.1(30) . . .
29.2(31) . . .
23.4(25) . . .
30.2(29) . . .
28.3(28) . . .
28.8(30) . . .
29.0(30) . . .
33.3(30) . . .
34.1(30) . . .
26.6(27) . . .
26.3(27) . . .
24.3(26) . . .
26.6(28) . . .
27.8(28) . . .
29.2(29) . . .
30.9(31) . . .
23.3(25) . . .
31.2(30) . . .
31.8(30) . . .
27.9(28) . . .
31.7(33) . . .
29.7(31) . . .
28.4(27) . . .
31.5(29) . . .
29.1(30) . . .
25.5(29) . . .
37.4(33) . . .
33.5(32) . . .
32.0(30) . . .
31.7(30) . . .
39.2(35) . . .
30.7(30) . . .
33.1(30) . . .
35.5(33) . . .
25.7(27) . . .
27.0(30) . . .
26.2(28) . . .
28.5(28) . . .
34.7(32) . . .
32.7(33) . . .
24.5(27) . . .
23.9(25) . . .
31.8(29) . . .
29.1(30) . . .
25.1(26) . . .
34.5(33) . . .
29.4(31) . . .
28.6(28) . . .
22.9(27) . . .
25.2(28) . . .
30.4(31) . . .
31.8(31) . . .
24.2(26) . . .
32.5(30) . . .
34.1(32) . . .
31.1(31) . . .
34.7(32) . . .
24.8(26) . . .
29.4(30) . . .
25.5(27) . . .
27.4(29) . . .
25.7(27) . . .
23.1(25) . . .
29.2(29) . . .
25.7(27) . . .
24.9(26) . . .
28.9(30) . . .
30.3(29) . . .
23.6(27) . . .
28.8(29) . . .
32.8(31) . . .
34.8(31) . . .
23.4(26) . . .
30.5(29) . . .
32.5(32) . . .
31.1(30) . . .
25.2(26) . . .
22.8(25) . . .
28.7(28) . . .
28.6(30) . . .
26.5(27) . . .
27.5(27) . . .
24.6(26) . . .
36.6(32) . . .
36.6(34) . . .
28.4(27) . . .
23.7(26) . . .
25.0(26) . . .
30.1(30) . . .
29.6(32) . . .
29.7(29) . . .
27.8(28) . . .
28.9(28) . . .
26.6(28) . . .
30.8(31) . . .
36.9(34) . . .
28.3(28) . . .
28.6(29) . . .
31.5(31) . . .
30.4(30) . . .
29.0(28) . . .
30.5(29) . . .
24.5(26) . . .
31.8(30) . . .
26.6(26) . . .
25.0(26) . . .
24.3(26) . . .
24.0(26) . . .
28.4(31) . . .
25.3(26) . . .
30.6(29) . . .
32.8(30) . . .
30.0(30) . . .
25.8(28) . . .
29.5(29) . . .
32.5(30) . . .
29.6(28) . . .
31.8(30) . . .
32.6(30) . . .
30.9(29) . . .
27.5(27) . . .
31.8(29) . . .
30.9(29) . . .
29.7(29) . . .
33.8(31) . . .
27.0(27) . . .
23.6(25) . . .
28.3(28) . . .
33.4(33) . . .
27.4(27) . . .
32.7(29) . . .
29.5(28) . . .
28.9(28) . . .
28.7(29) . . .
29.7(30) . . .
24.1(26) . . .
29.3(28) . . .
34(4) . . .
26.7(29) . . .
29.0(29) . . .
26.7(27) . . .
29.9(29) . . .
30.3(31) . . .
26.8(29) . . .
26.4(27) . . .
19.2(23) . . .
25.0(26) . . .
30.1(29) . . .
35.8(33) . . .
33.8(30) . . .
38.9(33) . . .
34.3(30) . . .
35.2(34) . . .
35.7(33) . . .
27.4(28) . . .
30.6(29) . . .
29.3(29) . . .
31.9(32) . . .
31.3(32) . . .
23.9(27) . . .
30.1(29) . . .
27.8(29) . . .
31.2(30) . . .
36.9(32) . . .
38.5(32) . . .
26.5(27) . . .
27.9(31) . . .
37.7(35) . . .
28.7(30) . . .
33.2(31) . . .
26.1(26) . . .
33.5(31) . . .
28.9(29) . . .
26.6(28) . . .
32.0(30) . . .
25.7(26) . . .
28.8(28) . . .
27.2(29) . . .
32.0(30) . . .
30.9(29) . . .
30.7(29) . . .
28.6(28) . . .
34.1(32) . . .
29.7(28) . . .
27.9(29) . . .
30.5(30) . . .
24.9(26) . . .
25.4(29) . . .
25.3(27) . . .
25.9(27) . . .
26.3(28) . . .
28.4(30) . . .
28.8(29) . . .
36.5(32) . . .
34.9(31) . . .
25.7(27) . . .
27.1(27) . . .
28.8(29) . . .
30.7(31) . . .
31.0(28) . . .
30.6(30) . . .
32.9(31) . . .
33.1(31) . . .
30.3(30) . . .
36.9(31) . . .
32.0(30) . . .
26.2(29) . . .
21.7(25) . . .
33.9(32) . . .
33.4(30) . . .
31.7(31) . . .
37.8(32) . . .
29.4(27) . . .
27.5(27) . . .
29.2(28) . . .
28.7(28) . . .
33.9(33) . . .
26.0(27) . . .
35.0(31) . . .
32.7(30) . . .
32.3(30) . . .
29.1(29) . . .
35.8(31) . . .
32.0(29) . . .
27.5(28) . . .
30.6(30) . . .
35.3(33) . . .
30.2(29) . . .
30.3(29) . . .
27.2(27) . . .
32.7(29) . . .
33.7(32) . . .
31.0(30) . . .
30.6(29) . . .
40.8(33) . . .
27.9(28) . . .
36.6(34) . . .
32.9(31) . . .
27.9(28) . . .
26.0(26) . . .
35.6(34) . . .
31.5(32) . . .
20.6(24) . . .
25.8(27) . . .
33.3(31) . . .
22.8(27) . . .
26.8(30) . . .
27.6(29) . . .
27.1(28) . . .
28.7(29) . . .
26.0(28) . . .
29.3(28) . . .
31.7(29) . . .
37.6(32) . . .
30.4(29) . . .
28.9(27) . . .
29.2(29) . . .
33.7(31) . . .
28.4(28) . . .
27.2(27) . . .
24.1(27) . . .
33.7(33) . . .
25.3(27) . . .
22.4(24) . . .
25.6(29) . . .
21.7(24) . . .
26.0(29) . . .
28.8(28) . . .
30.1(29) . . .
26.7(27) . . .
24.8(29) . . .
24.5(27) . . .
36.0(31) . . .
27.3(27) . . .
38.6(35) . . .
32.5(32) . . .
29.6(27) . . .
38.5(32) . . .
27.3(28) . . .
31.3(32) . . .
30.4(31) . . .
36.8(33) . . .
26.6(27) . . .
21.8(26) . . .
25.6(30) . . .
29.2(31) . . .
33.4(30) . . .
29.6(28) . . .
25.1(27) . . .
29.2(29) . . .
25.9(28) . . .
36.3(34) . . .
36.3(32) . . .
31.5(30) . . .
29.2(31) . . .
31.4(29) . . .
30.0(28) . . .
30.2(29) . . .
32.4(30) . . .
31.5(30) . . .
28.8(30) . . .
29.4(29) . . .
34.3(30) . . .
29.1(30) . . .
25.3(28) . . .
26.0(28) . . .
25.5(27) . . .
31.4(29) . . .
32.4(30) . . .
28.6(28) . . .
23.6(24) . . .
30.8(29) . . .
33.4(30) . . .
29.6(30) . . .
25.6(29) . . .
23.0(27) . . .
24.5(26) . . .
23.6(26) . . .
31.0(30) . . .
36.3(33) . . .
24.0(25) . . .
33.5(31) . . .
38.7(32) . . .
29.8(30) . . .
28.1(29) . . .
27.4(28) . . .
31.2(29) . . .
28.1(28) . . .
28.8(29) . . .
31.2(32) . . .
30.0(30) . . .
36.9(31) . . .
32.2(29) . . .
33.5(32) . . .
30.2(33) . . .
25.4(28) . . .
26.5(26) . . .
26.9(27) . . .
24.5(25) . . .
33.5(33) . . .
28.0(29) . . .
29.6(29) . . .
31.6(29) . . .
23.5(25) . . .
33.3(34) . . .
25.0(26) . . .
36.9(31) . . .
29.6(29) . . .
31.2(31) . . .
27.1(27) . . .
27.2(29) . . .
30.1(29) . . .
31.1(31) . . .
33.8(30) . . .
34.1(31) . . .
34.8(32) . . .
34.8(31) . . .
24.8(28) . . .
26.6(29) . . .
33.1(32) . . .
30.4(29) . . .
39.3(33) . . .
32.8(33) . . .
22.1(24) . . .
32.9(30) . . .
32.9(30) . . .
27.4(27) . . .
29.8(29) . . .
26.5(28) . . .
loop_
_refln_index_h
_refln_index_k
_refln_index_l
_refln_observed_status
_refln_F_squared_meas
_refln_F_squared_calc
_refln_phase_calc
_refln_d_spacing
_gsas_i100_meas
0 0 10 o 3504.216 5041.797 180.00 1.31592 0.21
0 2 10 o 16.524 18.092 0.00 1.29934 0.00
0 1 9 o 1289.684 1379.969 0.00 1.45637 0.19
-1 1 10 o 102.377 133.178 180.00 1.28641 0.01
1 1 10 o 446.102 585.706 0.00 1.28606 0.05
0 0 8 o 109.129 100.857 180.00 1.64489 0.01
1 0 9 o 664.218 941.920 180.00 1.42709 0.10
1 1 8 o 798.222 1375.345 0.00 1.58767 0.14
0 0 6 o 3343.353 3511.447 0.00 2.19319 0.56
0 1 7 o 847.244 1053.979 0.00 1.86769 0.21
0 2 8 o 601.955 574.261 180.00 1.61286 0.11
2 0 10 o 271.930 969.663 0.00 1.22124 0.03
0 3 9 o 102.731 117.921 0.00 1.41262 0.01
-1 3 10 o 11.270 16.742 0.00 1.25628 0.00
1 3 10 o 61.381 91.474 180.00 1.25531 0.01
-1 2 9 o 19.668 27.100 0.00 1.40647 0.00
1 2 9 o 300.958 415.460 180.00 1.40556 0.04
-1 1 8 o 547.100 914.214 0.00 1.58832 0.10
0 1 5 o 1668.710 1739.928 180.00 2.59868 0.78
1 0 7 o 1087.516 1191.888 0.00 1.80710 0.25
0 0 4 o 88.304 96.592 180.00 3.28979 0.03
0 0 2 o 0.000 313.818 180.00 6.57958 0.00
0 4 10 o 2.793 4.270 0.00 1.25314 0.00
-2 2 10 o 548.592 1432.719 180.00 1.20853 0.06
-1 1 6 o 408.278 410.273 180.00 2.06419 0.12
1 1 6 o 1871.521 1864.797 180.00 2.06276 0.55
2 2 10 o 261.113 713.099 180.00 1.20738 0.03
-2 1 9 o 1562.466 1814.956 180.00 1.33137 0.20
-1 2 7 o 418.889 390.788 180.00 1.76577 0.09
2 1 9 o 367.670 447.803 180.00 1.33060 0.05
1 2 7 o 2581.292 2400.970 180.00 1.76398 0.56
0 2 6 o 280.812 387.755 180.00 2.11893 0.09
1 0 5 o 458.406 587.022 180.00 2.44248 0.19
0 1 3 o 80.572 26.200 180.00 4.23786 0.10
1 3 8 o 60.700 97.297 0.00 1.53088 0.01
0 3 7 o 1263.122 1436.389 0.00 1.77798 0.28
0 2 0 o 1119.995 1472.239 180.00 8.21218 2.59
-1 3 8 o 72.424 108.765 0.00 1.53263 0.01
2 0 8 o 746.258 767.249 180.00 1.47026 0.11
-1 1 4 o 202.609 87.373 0.00 2.89648 0.12
1 1 4 o 130.224 60.810 0.00 2.89253 0.08
0 2 4 o 1352.327 1098.496 0.00 3.05386 0.87
-1 4 9 o 122.398 102.318 0.00 1.34879 0.02
1 4 9 o 1.690 1.413 0.00 1.34720 0.00
2 2 8 o 128.976 138.267 0.00 1.44627 0.02
1 0 3 o 275.707 242.181 180.00 3.64598 0.25
0 4 0 o 2016.640 970.950 0.00 4.10609 1.17
0 4 8 o 12.676 25.498 180.00 1.52693 0.00
-1 2 5 o 195.398 212.353 0.00 2.34322 0.07
1 2 5 o 850.091 946.848 0.00 2.33904 0.32
-2 2 8 o 1721.993 1820.036 0.00 1.44824 0.25
-2 1 7 o 517.503 492.010 0.00 1.62358 0.10
2 1 7 o 124.519 118.321 0.00 1.62219 0.02
-2 3 9 o 1657.059 1785.553 0.00 1.29841 0.20
2 3 9 o 315.984 344.097 0.00 1.29628 0.04
0 6 0 o 1211.633 1133.774 0.00 2.73739 0.31
-1 3 6 o 491.337 399.213 0.00 1.94616 0.13
1 3 6 o 2170.225 1763.888 0.00 1.94257 0.57
0 3 1 o 1096.935 1252.611 180.00 5.05477 1.92
0 3 5 o 102.772 121.487 0.00 2.37199 0.04
1 1 2 o 2765.583 2426.994 0.00 4.46223 3.78
2 0 6 o 7.693 9.345 180.00 1.82299 0.00
0 8 0 o 111.274 106.147 0.00 2.05305 0.02
0 5 9 o 0.615 0.610 0.00 1.33578 0.00
0 2 2 o 31395.695 32350.053 0.00 5.13479 56.80
1 4 7 o 216.387 198.472 180.00 1.65253 0.04
-1 1 2 o 5710.004 5468.652 0.00 4.47678 7.86
0 5 1 o 93.230 40.191 180.00 3.18707 0.07
1 0 1 o 11908.530 12904.723 0.00 5.86941 28.14
1 2 3 o 115.264 121.614 0.00 3.32631 0.09
2 1 5 o 541.779 494.936 180.00 2.03525 0.16
0 7 1 o 75.150 82.799 0.00 2.30991 0.03
3 0 9 o 333.715 952.691 0.00 1.21533 0.04
-1 2 3 o 1974.222 1977.963 0.00 3.33837 1.51
-1 4 7 o 266.936 234.652 180.00 1.65548 0.05
0 4 6 o 3155.212 2494.889 180.00 1.93453 0.82
1 2 1 o 1092.772 1259.932 0.00 4.75751 1.70
-2 2 6 o 908.015 1187.684 180.00 1.78151 0.20
2 2 6 o 1203.958 1357.012 180.00 1.77783 0.27
0 10 0 o 10864.297 10236.414 180.00 1.64244 1.02
0 12 0 o 2793.103 2510.887 0.00 1.36870 0.18
-1 4 1 o 670.953 743.305 180.00 3.37699 0.53
-2 3 7 o 1808.094 2765.904 180.00 1.56486 0.31
2 3 7 o 1012.074 1456.215 180.00 1.56113 0.17
-2 1 5 o 134.758 120.853 180.00 2.03800 0.04
0 9 1 o 3661.020 3923.869 0.00 1.80763 0.83
3 1 8 o 639.077 716.212 180.00 1.30961 0.08
-1 8 1 o 1056.708 862.961 180.00 1.94267 0.28
-1 6 1 o 1134.589 1518.414 0.00 2.48835 0.49
-1 2 1 o 2240.299 2396.558 0.00 4.79300 3.53
1 3 4 o 356.070 342.503 180.00 2.58628 0.16
1 6 1 o 43.113 51.961 0.00 2.47342 0.02
1 5 8 o 15.295 29.343 180.00 1.43394 0.00
0 11 1 o 5165.789 4767.392 180.00 1.48360 0.80
2 4 8 o 1871.690 1563.581 180.00 1.38248 0.25
1 4 1 o 1273.984 1357.335 180.00 3.35217 0.98
-1 10 1 o 421.628 925.454 180.00 1.58491 0.07
2 0 4 o 2304.831 2299.446 180.00 2.32239 0.86
2 5 9 o 818.817 1613.205 180.00 1.23553 0.09
-1 3 4 o 764.289 738.143 0.00 2.59478 0.36
-3 1 8 o 684.179 788.472 180.00 1.31071 0.08
1 8 1 o 560.150 442.678 180.00 1.93319 0.15
0 3 3 o 13134.518 12371.979 0.00 3.42319 10.59
-1 5 8 o 107.610 195.574 180.00 1.43635 0.02
0 13 1 o 1469.529 2108.449 0.00 1.25763 0.17
-2 4 8 o 3438.155 2705.031 180.00 1.38593 0.47
-1 12 1 o 27.917 27.829 180.00 1.33526 0.00
3 0 7 o 314.840 466.003 180.00 1.42531 0.05
1 10 1 o 9.569 42.019 180.00 1.57846 0.00
0 5 7 o 2.287 2.264 180.00 1.63159 0.00
1 12 1 o 4.502 5.352 180.00 1.33063 0.00
-2 5 9 o 2092.521 3517.081 180.00 1.23861 0.23
0 6 2 o 106.462 204.471 0.00 2.52738 0.05
2 2 4 o 23.671 25.137 0.00 2.23112 0.01
-2 12 0 o 45.368 119.097 180.00 1.26703 0.00
-1 6 9 o 4.816 11.093 180.00 1.26644 0.00
0 10 2 o 576.079 903.928 0.00 1.59354 0.10
1 6 9 o 95.620 171.232 180.00 1.26446 0.01
1 3 2 o 3071.999 3180.329 0.00 3.53103 2.63
0 8 2 o 3515.854 2739.947 180.00 1.95985 0.94
-2 6 0 o 1125.787 1171.220 180.00 2.11050 0.17
0 12 2 o 3810.541 3499.458 180.00 1.34001 0.48
-2 10 0 o 15.233 15.025 180.00 1.47370 0.00
-1 11 2 o 279.285 428.719 180.00 1.42406 0.04
-2 8 0 o 0.198 0.159 0.00 1.74700 0.00
1 4 5 o 1361.916 1438.625 180.00 2.09616 0.41
-2 2 4 o 7.907 4.739 180.00 2.23839 0.00
-2 1 3 o 1353.920 1296.910 0.00 2.59617 0.63
2 1 3 o 1214.202 1150.255 0.00 2.59049 0.56
2 3 5 o 1212.235 878.374 0.00 1.91839 0.31
-3 3 8 o 2.017 2.973 0.00 1.27957 0.00
3 3 8 o 83.416 140.106 180.00 1.27651 0.01
3 2 7 o 2.176 2.973 0.00 1.40297 0.00
0 4 2 o 10.863 13.652 0.00 3.48342 0.01
-2 11 1 o 26.443 25.946 0.00 1.35613 0.00
2 4 0 o 1464.600 1412.101 180.00 2.55133 0.33
-2 7 1 o 190.311 160.140 180.00 1.89611 0.05
-1 9 2 o 54.640 49.199 0.00 1.70214 0.01
-1 3 2 o 5273.935 5451.195 0.00 3.55275 4.58
-2 9 1 o 2.951 4.659 180.00 1.58886 0.00
-1 4 5 o 150.855 144.381 0.00 2.10219 0.05
-1 7 2 o 4516.485 4386.500 0.00 2.09955 1.38
1 9 2 o 19.928 17.113 180.00 1.69495 0.00
2 6 0 o 4357.679 5029.527 180.00 2.09235 0.66
1 7 2 o 462.564 576.562 0.00 2.08907 0.14
-1 5 2 o 3267.040 3163.310 180.00 2.68984 1.63
2 12 0 o 447.118 652.471 180.00 1.25915 0.03
-1 13 2 o 0.697 2.137 0.00 1.22104 0.00
1 5 2 o 2384.930 2351.709 180.00 2.67412 1.18
-2 4 0 o 2064.371 2159.081 180.00 2.57326 0.47
-2 3 5 o 928.742 705.409 0.00 1.92533 0.24
1 13 2 o 203.653 552.767 180.00 1.21720 0.02
2 8 0 o 190.459 199.200 0.00 1.73327 0.02
0 4 4 o 10789.928 11383.409 0.00 2.56739 4.91
1 11 2 o 0.215 0.319 0.00 1.41892 0.00
2 10 0 o 819.600 819.814 0.00 1.46337 0.06
2 3 1 o 498.404 470.861 0.00 2.74074 0.26
2 4 6 o 1769.579 1592.078 0.00 1.66315 0.34
2 0 2 o 315.083 223.037 0.00 2.93471 0.19
2 5 1 o 185.910 206.606 0.00 2.27573 0.07
2 2 0 o 12.661 7.933 0.00 3.03602 0.00
0 6 8 o 16.893 22.139 180.00 1.40993 0.00
-3 2 7 o 0.587 0.903 180.00 1.40567 0.00
-3 1 6 o 192.098 227.363 180.00 1.54232 0.03
3 1 6 o 81.242 97.354 180.00 1.54053 0.01
2 7 1 o 1344.146 1568.865 180.00 1.88074 0.33
1 5 6 o 136.914 128.321 0.00 1.75509 0.03
2 2 2 o 3528.156 3186.422 180.00 2.75669 1.85
2 11 1 o 930.299 751.384 0.00 1.34728 0.12
-2 5 1 o 0.000 2.762 180.00 2.29518 0.00
2 9 1 o 17.981 79.515 180.00 1.57723 0.00
2 1 1 o 1527.514 1091.879 180.00 3.11863 1.02
-2 4 6 o 2541.359 2259.165 0.00 1.66918 0.49
2 5 7 o 1712.813 1817.062 0.00 1.45821 0.26
-1 5 6 o 2429.993 2340.823 0.00 1.75951 0.52
-2 12 2 o 168.815 438.399 0.00 1.24417 0.02
2 3 3 o 270.351 412.804 180.00 2.36145 0.10
-2 8 2 o 1.492 1.182 180.00 1.68850 0.00
-2 2 0 o 98.384 100.119 0.00 3.05442 0.03
-2 10 2 o 150.268 245.466 180.00 1.43807 0.02
3 0 5 o 4086.373 3406.377 180.00 1.68157 0.81
-2 3 1 o 996.080 884.477 0.00 2.76109 0.52
2 0 0 o 2371.418 2225.156 180.00 3.27894 0.88
1 4 3 o 3935.393 3892.876 0.00 2.71974 2.01
2 4 2 o 507.543 516.909 180.00 2.37876 0.20
-2 5 7 o 2721.004 2706.018 0.00 1.46329 0.41
-2 1 1 o 656.375 541.930 180.00 3.12857 0.44
-2 2 2 o 1598.391 1368.923 180.00 2.77045 0.85
0 11 3 o 710.970 711.378 0.00 1.41348 0.10
2 6 2 o 322.136 328.062 180.00 1.99396 0.09
0 5 5 o 22405.186 21551.912 0.00 2.05391 6.56
0 13 3 o 225.701 631.659 180.00 1.21406 0.02
-1 12 3 o 356.219 494.321 180.00 1.28344 0.04
0 9 3 o 304.906 237.638 180.00 1.68492 0.06
3 3 6 o 11.360 10.340 0.00 1.48741 0.00
0 7 9 o 202.179 385.671 0.00 1.24091 0.02
2 8 2 o 184.198 155.743 180.00 1.67609 0.04
2 12 2 o 1186.489 1984.629 0.00 1.23671 0.13
2 4 4 o 2590.265 2462.490 180.00 2.01609 0.73
2 10 2 o 80.330 108.295 180.00 1.42847 0.01
-2 6 2 o 519.455 479.710 180.00 2.00964 0.15
-1 4 3 o 7962.448 7851.729 0.00 2.73294 4.10
3 4 7 o 486.711 403.980 0.00 1.34412 0.06
1 6 7 o 3.114 3.774 0.00 1.50644 0.00
-2 4 2 o 179.825 219.805 180.00 2.39650 0.07
3 2 5 o 142.707 126.380 0.00 1.64521 0.03
-1 10 3 o 0.015 0.014 180.00 1.50025 0.00
2 6 8 o 2088.622 2274.716 0.00 1.29314 0.25
-2 3 3 o 149.209 152.824 0.00 2.37443 0.06
1 10 3 o 83.233 81.697 180.00 1.49478 0.01
3 5 8 o 117.593 303.129 0.00 1.21808 0.01
-1 8 3 o 293.282 577.022 0.00 1.79267 0.07
-3 3 6 o 0.704 0.732 0.00 1.49226 0.00
0 7 3 o 5472.686 5569.899 0.00 2.06894 1.62
1 12 3 o 284.861 418.555 0.00 1.27933 0.03
-3 10 1 o 43.513 51.840 0.00 1.31209 0.01
-3 4 7 o 0.991 0.788 0.00 1.34889 0.00
3 1 4 o 3358.647 3527.844 0.00 1.80814 0.76
-1 6 7 o 1542.909 1865.867 0.00 1.50979 0.25
-3 2 5 o 228.189 203.712 0.00 1.64958 0.04
-2 11 3 o 1209.103 1263.299 180.00 1.30195 0.15
3 10 1 o 180.228 189.419 0.00 1.30119 0.02
-2 6 8 o 3871.359 4061.515 0.00 1.29739 0.46
1 8 3 o 24.000 41.746 180.00 1.78521 0.01
-1 6 3 o 5677.083 5650.631 180.00 2.19422 1.89
-3 8 1 o 38.065 39.568 0.00 1.49339 0.01
1 5 4 o 4556.802 4581.329 0.00 2.18666 1.51
1 6 3 o 3939.392 3920.350 180.00 2.18397 1.30
-3 11 2 o 65.434 182.546 0.00 1.21667 0.01
2 5 3 o 157.125 132.116 0.00 2.04427 0.05
3 8 1 o 4.169 3.761 0.00 1.48054 0.00
0 6 6 o 6330.838 5928.757 0.00 1.71160 1.29
1 7 8 o 21.193 36.180 0.00 1.31804 0.00
-3 1 4 o 3493.871 3619.283 0.00 1.81104 0.80
-2 4 4 o 129.337 117.268 180.00 2.02686 0.04
3 4 1 o 632.376 468.768 180.00 1.90238 0.16
0 5 3 o 393.593 367.905 180.00 2.62931 0.19
-2 9 3 o 204.738 258.379 0.00 1.50360 0.03
3 6 1 o 2318.078 1751.136 180.00 1.68686 0.46
2 5 5 o 4122.137 4134.781 180.00 1.73634 0.87
-4 1 7 o 148.413 471.155 180.00 1.23272 0.02
4 1 7 o 5.055 30.464 180.00 1.23150 0.00
3 3 4 o 12.986 19.371 180.00 1.72388 0.00
2 11 3 o 831.916 896.478 180.00 1.29411 0.10
-3 5 8 o 23.298 95.035 0.00 1.22252 0.00
-1 5 4 o 9253.579 9184.234 0.00 2.19523 3.09
-3 6 1 o 2131.337 1948.884 180.00 1.70111 0.43
-1 7 8 o 360.181 1083.601 0.00 1.32066 0.04
3 0 3 o 2907.206 2592.813 0.00 1.95647 0.77
3 2 3 o 4139.937 3133.810 180.00 1.89984 1.04
2 7 3 o 2075.454 1764.909 180.00 1.74366 0.44
3 4 5 o 8.073 11.046 0.00 1.55246 0.00
3 3 2 o 849.949 665.556 0.00 1.93455 0.22
3 2 1 o 7.366 10.467 0.00 2.08128 0.00
-3 9 2 o 7.668 7.301 180.00 1.37589 0.00
2 9 3 o 46.076 47.644 180.00 1.49373 0.01
0 12 4 o 15.047 24.295 180.00 1.26369 0.00
-2 7 3 o 1038.615 1031.373 180.00 1.75588 0.22
-2 5 3 o 133.830 127.767 0.00 2.05834 0.04
3 1 2 o 2072.463 1951.843 180.00 2.05599 0.61
3 5 2 o 760.909 568.214 0.00 1.74743 0.16
3 9 2 o 217.242 208.971 180.00 1.36457 0.03
-2 5 5 o 868.790 703.582 180.00 1.74494 0.18
-3 7 2 o 1625.758 2275.198 180.00 1.56061 0.28
3 5 6 o 157.906 199.019 180.00 1.39715 0.02
2 6 6 o 3085.076 4191.656 180.00 1.51391 0.50
3 7 2 o 1378.743 1544.056 180.00 1.54776 0.23
4 0 6 o 601.527 744.013 180.00 1.31313 0.07
3 4 3 o 363.109 348.364 180.00 1.76086 0.08
-1 11 4 o 5.330 5.449 0.00 1.33344 0.00
4 2 6 o 196.733 210.379 0.00 1.29524 0.02
-3 3 4 o 751.605 803.081 180.00 1.73144 0.16
-3 4 1 o 1851.858 1339.248 180.00 1.91598 0.47
1 6 5 o 124.382 146.433 0.00 1.81952 0.03
-3 1 2 o 3557.113 3456.552 180.00 2.06025 1.05
0 10 4 o 220.439 232.571 180.00 1.46948 0.03
-3 2 3 o 7719.156 6000.067 180.00 1.90658 1.95
2 6 4 o 1431.459 1176.372 0.00 1.76552 0.31
0 7 7 o 3929.154 4029.499 0.00 1.46708 0.59
3 0 1 o 2472.640 2502.870 180.00 2.15641 0.80
-1 6 5 o 1418.123 1836.214 0.00 1.82544 0.33
-2 6 6 o 409.526 992.055 180.00 1.52074 0.07
-3 4 5 o 148.730 206.466 180.00 1.55983 0.03
-4 2 6 o 256.413 263.897 0.00 1.29808 0.03
-1 9 4 o 515.618 743.923 0.00 1.55333 0.09
-3 10 3 o 75.697 118.572 180.00 1.26283 0.01
1 11 4 o 340.109 474.091 180.00 1.32922 0.04
-3 5 2 o 65.574 63.552 0.00 1.76062 0.01
3 6 7 o 97.366 152.659 180.00 1.26125 0.01
1 9 4 o 16.818 18.583 180.00 1.54786 0.00
3 5 4 o 195.978 314.695 180.00 1.58752 0.03
3 6 3 o 275.923 548.531 0.00 1.58584 0.05
3 10 3 o 404.095 544.881 180.00 1.25310 0.05
4 1 5 o 1761.759 1293.738 0.00 1.38572 0.24
-3 2 1 o 52.751 64.987 0.00 2.09015 0.02
-3 3 2 o 1712.459 1391.826 0.00 1.94525 0.45
4 8 0 o 601.130 978.074 0.00 1.27567 0.03
3 8 3 o 199.684 246.292 180.00 1.41082 0.03
4 9 1 o 465.573 1205.659 0.00 1.20917 0.05
2 7 7 o 5403.216 5059.066 180.00 1.33642 0.68
-3 5 6 o 155.832 233.021 180.00 1.40386 0.02
4 6 0 o 1922.885 2606.028 180.00 1.40110 0.13
4 7 1 o 1385.101 1417.278 180.00 1.33153 0.17
1 7 4 o 340.989 400.146 180.00 1.83052 0.08
0 8 4 o 789.278 702.182 0.00 1.74171 0.17
-2 6 4 o 744.018 770.034 0.00 1.77638 0.16
2 8 4 o 1443.681 2006.536 180.00 1.53345 0.24
-4 1 5 o 773.279 559.441 0.00 1.38746 0.11
-3 8 3 o 630.350 1179.532 180.00 1.42193 0.09
-4 8 0 o 1796.320 2308.375 0.00 1.28663 0.11
0 8 8 o 388.726 547.277 0.00 1.28370 0.05
-1 7 4 o 843.213 731.232 180.00 1.83756 0.20
4 3 5 o 20.953 16.398 180.00 1.34628 0.00
-4 9 1 o 717.285 1741.954 0.00 1.21968 0.08
-2 10 4 o 1924.853 1526.459 0.00 1.34492 0.25
4 4 6 o 5.563 14.538 0.00 1.24819 0.00
1 7 6 o 84.788 124.801 0.00 1.55430 0.01
2 10 4 o 243.504 224.259 0.00 1.33706 0.03
-2 8 4 o 1553.976 1817.140 180.00 1.54294 0.26
-3 4 3 o 82.768 76.630 180.00 1.77163 0.02
-3 6 7 o 174.659 476.485 180.00 1.26718 0.02
3 6 5 o 36.476 46.832 0.00 1.42853 0.01
-3 6 3 o 103.910 172.540 0.00 1.59767 0.02
4 5 1 o 1969.870 2022.881 0.00 1.45286 0.29
-1 7 6 o 976.373 1351.753 0.00 1.55860 0.17
4 4 0 o 774.901 1410.890 0.00 1.51801 0.06
4 8 2 o 930.360 1249.420 180.00 1.25235 0.10
0 6 4 o 7152.720 6769.000 180.00 2.10421 2.20
4 2 4 o 659.732 640.957 180.00 1.44252 0.10
-4 7 1 o 3746.116 3205.959 180.00 1.34244 0.48
-2 7 7 o 2240.586 1963.441 180.00 1.34190 0.29
4 6 2 o 965.576 849.632 0.00 1.37037 0.13
2 7 5 o 1357.462 1484.458 0.00 1.54064 0.23
3 7 4 o 0.010 0.035 0.00 1.43335 0.00
4 0 4 o 847.741 874.443 0.00 1.46735 0.13
-3 5 4 o 145.533 266.711 180.00 1.59739 0.03
4 3 1 o 478.529 680.867 180.00 1.55580 0.08
4 4 2 o 1246.243 1135.059 180.00 1.47915 0.19
-4 6 0 o 4512.714 4476.808 180.00 1.41198 0.32
4 4 4 o 2062.853 1920.049 0.00 1.37835 0.28
3 9 4 o 10.664 15.273 180.00 1.28423 0.00
4 3 3 o 4307.738 4012.738 0.00 1.47549 0.66
4 2 0 o 349.107 257.073 180.00 1.60504 0.03
4 1 3 o 171.500 337.689 180.00 1.52787 0.03
4 2 2 o 2128.721 2915.320 0.00 1.55932 0.36
4 5 3 o 336.272 236.102 180.00 1.38682 0.05
1 8 7 o 15.891 16.049 0.00 1.35485 0.00
-4 8 2 o 1644.425 2521.194 180.00 1.26271 0.19
-4 2 4 o 476.564 524.335 180.00 1.44644 0.07
-4 3 5 o 261.937 202.944 180.00 1.35108 0.03
3 7 6 o 141.367 163.287 0.00 1.28860 0.02
-4 4 6 o 297.291 389.893 180.00 1.25329 0.03
4 7 3 o 456.079 654.751 0.00 1.28014 0.05
-4 5 1 o 2093.458 2013.559 0.00 1.46296 0.32
4 5 5 o 940.392 1372.772 0.00 1.27791 0.11
0 7 5 o 1271.657 923.001 180.00 1.75138 0.27
4 1 1 o 1751.319 1786.752 0.00 1.61759 0.32
-2 7 5 o 1330.422 1450.350 0.00 1.54905 0.22
-1 8 7 o 1126.385 1120.159 0.00 1.35811 0.15
0 11 5 o 245.426 251.259 0.00 1.29868 0.03
-3 9 4 o 421.560 447.505 180.00 1.29365 0.05
-3 7 4 o 4.249 3.914 0.00 1.44354 0.00
-4 6 2 o 1022.835 908.181 0.00 1.38055 0.14
4 6 4 o 95.028 107.503 180.00 1.28906 0.01
-3 6 5 o 24.949 60.377 180.00 1.43715 0.00
-4 1 3 o 350.113 584.452 180.00 1.53020 0.06
4 0 2 o 103.521 137.487 180.00 1.59083 0.02
-4 4 0 o 493.269 1074.969 0.00 1.52721 0.04
-1 10 5 o 582.453 553.699 0.00 1.36501 0.08
1 10 5 o 0.912 0.875 0.00 1.36088 0.00
2 9 5 o 4044.381 3724.435 180.00 1.36009 0.53
2 8 6 o 2993.444 2744.170 0.00 1.35987 0.39
1 8 5 o 200.311 427.874 180.00 1.56907 0.03
3 8 5 o 54.756 56.795 180.00 1.29662 0.01
-2 11 5 o 1.469 2.734 180.00 1.21059 0.00
4 0 0 o 3415.818 3695.004 0.00 1.63947 0.32
0 9 5 o 636.802 524.841 0.00 1.49967 0.10
-1 8 5 o 165.077 677.406 180.00 1.57413 0.03
-4 4 2 o 1300.738 1062.502 180.00 1.48766 0.20
-4 7 3 o 459.666 510.498 0.00 1.28982 0.05
-4 3 3 o 1497.144 1266.786 0.00 1.48181 0.23
-2 9 5 o 4228.530 3588.213 180.00 1.36753 0.56
-4 2 2 o 1050.403 1402.443 0.00 1.56428 0.18
-4 3 1 o 413.929 572.121 180.00 1.56322 0.07
0 8 6 o 907.132 780.236 180.00 1.49882 0.14
-4 4 4 o 582.713 419.455 0.00 1.38523 0.08
-3 7 6 o 11.863 12.516 0.00 1.29598 0.00
-4 1 1 o 948.836 936.273 0.00 1.62035 0.17
-4 5 3 o 346.048 426.300 180.00 1.39559 0.05
-4 5 5 o 232.870 340.661 0.00 1.28477 0.03
-3 8 5 o 81.741 94.884 180.00 1.30523 0.01
-4 2 0 o 150.862 146.538 180.00 1.61046 0.01
5 4 1 o 75.090 132.988 180.00 1.24067 0.01
-2 8 6 o 3490.085 3043.605 0.00 1.36647 0.46
2 9 7 o 2.907 8.018 0.00 1.21341 0.00
5 3 2 o 925.392 1702.802 0.00 1.24978 0.10
-4 6 4 o 350.241 343.297 180.00 1.29752 0.04
5 2 3 o 121.291 209.880 0.00 1.24059 0.01
5 1 4 o 14.982 52.823 0.00 1.21425 0.00
1 9 6 o 439.179 373.299 180.00 1.36989 0.06
2 10 6 o 32.243 75.086 180.00 1.21728 0.00
5 2 1 o 935.956 1135.774 0.00 1.28719 0.11
-5 1 4 o 0.238 0.929 180.00 1.21571 0.00
0 9 7 o 32.529 33.505 0.00 1.30942 0.00
-2 9 7 o 0.889 1.892 0.00 1.21868 0.00
5 1 2 o 352.037 448.776 0.00 1.28148 0.04
5 0 3 o 13.116 17.561 0.00 1.25660 0.00
1 11 6 o 51.295 81.143 180.00 1.21135 0.01
-2 10 6 o 20.777 84.869 180.00 1.22320 0.00
-1 9 6 o 562.201 505.528 180.00 1.37367 0.07
-1 11 6 o 104.628 427.076 0.00 1.21455 0.01
5 0 1 o 2417.272 2968.607 0.00 1.30511 0.29
0 10 6 o 115.783 147.264 180.00 1.31466 0.01
-5 4 1 o 3.453 31.456 0.00 1.24694 0.00
-5 2 3 o 274.010 904.095 0.00 1.24371 0.03
-5 1 2 o 507.030 719.389 0.00 1.28320 0.06
1 10 7 o 40.937 150.329 180.00 1.21397 0.00
-5 3 2 o 254.753 307.531 0.00 1.25458 0.03
-1 10 7 o 83.518 192.652 180.00 1.21690 0.01
-5 2 1 o 546.924 617.428 0.00 1.29068 0.06
