#------------------------------------------------------------------------------
#$Date: 2019-10-29 22:52:35 +0200 (Tue, 29 Oct 2019) $
#$Revision: 220372 $
#$URL: file:///home/coder/svn-repositories/cod/cif/4/00/29/4002948.cif $
#------------------------------------------------------------------------------
#
# This file is available in the Crystallography Open Database (COD),
# http://www.crystallography.net/
#
# All data on this site have been placed in the public domain by the
# contributors.
#
data_4002948
loop_
_publ_author_name
'Gouget, Guillaume'
'Duttine, Mathieu'
'Chung, U-Chan'
'Fourcade, S\'ebastien'
'Mauvy, Fabrice'
'Braida, Marc-David'
'Le Mercier, Thierry'
'Demourgues, Alain'
_publ_section_title
;
 High Ionic Conductivity in Oxygen-Deficient Ti-Substituted Sodium
 Niobates and the Key Role of Structural Features
;
_journal_issue                   8
_journal_name_full               'Chemistry of Materials'
_journal_page_first              2828
_journal_paper_doi               10.1021/acs.chemmater.8b05292
_journal_volume                  31
_journal_year                    2019
_chemical_formula_sum            'Na Nb0.9 O2.95 Ti0.1'
_chemical_formula_weight         158.6
_space_group_IT_number           221
_space_group_name_Hall           '-P 4 2 3'
_space_group_name_H-M_alt        'P m -3 m'
_symmetry_cell_setting           cubic
_symmetry_Int_Tables_number      221
_symmetry_space_group_name_Hall  '-P 4 2 3'
_symmetry_space_group_name_H-M   'P m -3 m'
_cell_angle_alpha                90
_cell_angle_beta                 90
_cell_angle_gamma                90
_cell_formula_units_Z            1
_cell_length_a                   3.94456(5)
_cell_length_b                   3.94456(5)
_cell_length_c                   3.94456(5)
_cell_measurement_temperature    993
_cell_volume                     61.3756(13)
_diffrn_ambient_temperature      993
_diffrn_radiation_probe          x-ray
_diffrn_radiation_wavelength     1.790276
_exptl_absorpt_coefficient_mu    57.759
_exptl_crystal_density_diffrn    4.2907
_exptl_crystal_F_000             74
_pd_instr_location               ' ?'
_pd_meas_2theta_range_inc        0.017
_pd_meas_2theta_range_max        74.987
_pd_meas_2theta_range_min        15.011
_pd_meas_number_of_points        3529
_pd_proc_2theta_range_inc        0.017
_pd_proc_2theta_range_max        74.987
_pd_proc_2theta_range_min        15.011
_pd_proc_ls_background_function  '6 Legendre polynoms'
_pd_proc_ls_pref_orient_corr     none
_pd_proc_ls_profile_function     Pseudo-Voigt
_pd_proc_ls_prof_R_factor        0.0200
_pd_proc_ls_prof_wR_expected     0.0159
_pd_proc_ls_prof_wR_factor       0.0258
_refine_ls_goodness_of_fit_all   1.63
_refine_ls_number_constraints    0
_refine_ls_number_parameters     13
_refine_ls_number_restraints     0
_refine_ls_R_factor_all          0.0239
_refine_ls_R_factor_gt           0.0239
_refine_ls_shift/su_max          0.0215
_refine_ls_shift/su_mean         0.0088
_refine_ls_weighting_scheme      sigma
_refine_ls_wR_factor_all         0.0471
_refine_ls_wR_factor_gt          0.0471
_cod_data_source_file            cm8b05292_si_005.cif
_cod_data_source_block           I
_cod_depositor_comments
;
The following automatic conversions were performed:

'_diffrn_radiation_probe' value 'X-ray' changed to 'x-ray' according
to
/home/data/users/saulius/crontab/automatic-downloads/current/ACS/lib/dictionaries/cif_core.dic
dictionary named 'cif_core.dic' version 2.4.2 from 2011-04-26.

Automatic conversion script
Id: cif_fix_values 4973 2017-02-22 13:04:09Z antanas 
;
_cod_original_cell_volume        61.3757(14)
_cod_original_sg_symbol_Hall     '-P 4;2;3'
_cod_original_formula_sum        'Na1 Nb0.9 O2.95 Ti0.1'
_cod_database_code               4002948
loop_
_space_group_symop_id
_space_group_symop_operation_xyz
1 x,y,z
2 -x,-y,z
3 -x,y,-z
4 x,-y,-z
5 z,x,y
6 z,-x,-y
7 -z,-x,y
8 -z,x,-y
9 y,z,x
10 -y,z,-x
11 y,-z,-x
12 -y,-z,x
13 y,x,-z
14 -y,-x,-z
15 y,-x,z
16 -y,x,z
17 x,z,-y
18 -x,z,y
19 -x,-z,-y
20 x,-z,y
21 z,y,-x
22 z,-y,x
23 -z,y,x
24 -z,-y,-x
25 -x,-y,-z
26 x,y,-z
27 x,-y,z
28 -x,y,z
29 -z,-x,-y
30 -z,x,y
31 z,x,-y
32 z,-x,y
33 -y,-z,-x
34 y,-z,x
35 -y,z,x
36 y,z,-x
37 -y,-x,z
38 y,x,z
39 -y,x,-z
40 y,-x,-z
41 -x,-z,y
42 x,-z,-y
43 x,z,y
44 -x,z,-y
45 -z,-y,x
46 -z,y,-x
47 z,-y,-x
48 z,y,x
loop_
_atom_site_label
_atom_site_type_symbol
_atom_site_fract_x
_atom_site_fract_y
_atom_site_fract_z
_atom_site_adp_type
_atom_site_U_iso_or_equiv
_atom_site_site_symmetry_multiplicity
_atom_site_occupancy
_atom_site_calc_flag
Na1 Na 0 0 0 Uiso 0.0127 1 1 d
Nb1 Nb 0.5 0.5 0.5 Uiso 0.0063 1 0.9 d
Ti1 Ti 0.5 0.5 0.5 Uiso 0.0063 1 0.1 d
O1 O 0.5 0.5 0 Uiso 0.0127 3 0.9833 d
loop_
_atom_type_symbol
_atom_type_scat_dispersion_real
_atom_type_scat_dispersion_imag
_atom_type_scat_source
Na 0.1670 0.1667 'International Tables Vol C tables 4.2.6.8 and 6.1.1.1'
Nb 0.0496 3.2133 'International Tables Vol C tables 4.2.6.8 and 6.1.1.1'
O 0.0630 0.0440 'International Tables Vol C tables 4.2.6.8 and 6.1.1.1'
Ti -0.0617 2.3213 'International Tables Vol C tables 4.2.6.8 and 6.1.1.1'
loop_
_geom_bond_atom_site_label_1
_geom_bond_atom_site_label_2
_geom_bond_site_symmetry_2
_geom_bond_distance
Na1 Na1 1_455 3.94456(10)
Na1 Na1 1_545 3.94456(10)
Na1 Na1 1_554 3.94456(10)
Na1 Na1 1_556 3.94456(10)
Na1 Na1 1_565 3.94456(10)
Na1 Na1 1_655 3.94456(10)
Na1 Nb1 1_444 3.41609(5)
Na1 Nb1 1_445 3.41609(5)
Na1 Nb1 1_454 3.41609(5)
Na1 Nb1 1_455 3.41609(5)
Na1 Nb1 1_544 3.41609(5)
Na1 Nb1 1_545 3.41609(5)
Na1 Nb1 1_554 3.41609(5)
Na1 Nb1 . 3.41609(5)
Na1 Ti1 1_444 3.41609(5)
Na1 Ti1 1_445 3.41609(5)
Na1 Ti1 1_454 3.41609(5)
Na1 Ti1 1_455 3.41609(5)
Na1 Ti1 1_544 3.41609(5)
Na1 Ti1 1_545 3.41609(5)
Na1 Ti1 1_554 3.41609(5)
Na1 Ti1 . 3.41609(5)
Nb1 Ti1 . 0
Nb1 O1 . 1.97228(5)
Nb1 O1 1_556 1.97228(5)
Nb1 O1 5_555 1.97228(5)
Nb1 O1 5_655 1.97228(5)
Nb1 O1 9_555 1.97228(5)
Nb1 O1 9_565 1.97228(5)
Ti1 O1 . 1.97228(5)
Ti1 O1 1_556 1.97228(5)
Ti1 O1 5_555 1.97228(5)
Ti1 O1 5_655 1.97228(5)
Ti1 O1 9_555 1.97228(5)
Ti1 O1 9_565 1.97228(5)
loop_
_pd_proc_point_id
_pd_proc_2theta_corrected
_pd_proc_intensity_net
_pd_calc_intensity_net
_pd_proc_ls_weight
1 14.9180 2682.00 2543.98 51.79
2 14.9350 2713.00 2546.70 52.09
3 14.9520 2640.00 2549.41 51.38
4 14.9690 2658.00 2552.11 51.56
5 14.9860 2644.00 2554.81 51.42
6 15.0030 2577.00 2557.50 50.76
7 15.0200 2634.00 2560.19 51.32
8 15.0370 2746.00 2562.87 52.40
9 15.0540 2695.00 2565.55 51.91
10 15.0710 2615.00 2568.21 51.14
11 15.0880 2759.00 2570.88 52.53
12 15.1050 2768.00 2573.53 52.61
13 15.1220 2725.00 2576.19 52.20
14 15.1390 2720.00 2578.83 52.15
15 15.1560 2697.00 2581.47 51.93
16 15.1730 2683.00 2584.11 51.80
17 15.1900 2614.00 2586.73 51.13
18 15.2070 2642.00 2589.36 51.40
19 15.2240 2637.00 2591.97 51.35
20 15.2410 2772.00 2594.58 52.65
21 15.2580 2659.00 2597.19 51.57
22 15.2750 2610.00 2599.79 51.09
23 15.2920 2692.00 2602.38 51.88
24 15.3090 2654.00 2604.97 51.52
25 15.3260 2656.00 2607.55 51.54
26 15.3430 2702.00 2610.13 51.98
27 15.3600 2647.00 2612.70 51.45
28 15.3770 2646.00 2615.26 51.44
29 15.3940 2613.00 2617.82 51.12
30 15.4110 2719.00 2620.38 52.14
31 15.4280 2645.00 2622.92 51.43
32 15.4450 2670.00 2625.47 51.67
33 15.4620 2743.00 2628.00 52.37
34 15.4790 2686.00 2630.53 51.83
35 15.4960 2644.00 2633.06 51.42
36 15.5130 2706.00 2635.58 52.02
37 15.5300 2735.00 2638.09 52.30
38 15.5470 2744.00 2640.60 52.38
39 15.5640 2720.00 2643.11 52.15
40 15.5810 2609.00 2645.60 51.08
41 15.5980 2536.00 2648.09 50.36
42 15.6150 2655.00 2650.58 51.53
43 15.6320 2804.00 2653.06 52.95
44 15.6490 2620.00 2655.54 51.19
45 15.6660 2768.00 2658.01 52.61
46 15.6830 2704.00 2660.47 52.00
47 15.7000 2591.00 2662.93 50.90
48 15.7170 2704.00 2665.38 52.00
49 15.7340 2679.00 2667.83 51.76
50 15.7510 2768.00 2670.27 52.61
51 15.7680 2697.00 2672.71 51.93
52 15.7850 2750.00 2675.14 52.44
53 15.8020 2808.00 2677.56 52.99
54 15.8190 2746.00 2679.98 52.40
55 15.8360 2723.00 2682.40 52.18
56 15.8530 2657.00 2684.81 51.55
57 15.8700 2654.00 2687.21 51.52
58 15.8870 2697.00 2689.61 51.93
59 15.9040 2752.00 2692.00 52.46
60 15.9210 2648.00 2694.39 51.46
61 15.9380 2642.00 2696.77 51.40
62 15.9550 2686.00 2699.15 51.83
63 15.9720 2745.00 2701.52 52.39
64 15.9890 2755.00 2703.88 52.49
65 16.0060 2720.00 2706.24 52.15
66 16.0230 2653.00 2708.60 51.51
67 16.0400 2684.00 2710.95 51.81
68 16.0570 2679.00 2713.29 51.76
69 16.0740 2703.00 2715.63 51.99
70 16.0910 2879.00 2717.96 53.66
71 16.1080 2810.00 2720.29 53.01
72 16.1250 2716.00 2722.61 52.12
73 16.1420 2724.00 2724.93 52.19
74 16.1590 2785.00 2727.24 52.77
75 16.1760 2723.00 2729.55 52.18
76 16.1930 2693.00 2731.85 51.89
77 16.2100 2671.00 2734.15 51.68
78 16.2270 2724.00 2736.44 52.19
79 16.2440 2746.00 2738.72 52.40
80 16.2610 2774.00 2741.00 52.67
81 16.2780 2779.00 2743.28 52.72
82 16.2950 2754.00 2745.55 52.48
83 16.3120 2711.00 2747.81 52.07
84 16.3290 2735.00 2750.07 52.30
85 16.3460 2619.00 2752.32 51.18
86 16.3630 2671.00 2754.57 51.68
87 16.3800 2704.00 2756.82 52.00
88 16.3970 2734.00 2759.06 52.29
89 16.4140 2752.00 2761.29 52.46
90 16.4310 2772.00 2763.52 52.65
91 16.4480 2796.00 2765.74 52.88
92 16.4650 2760.00 2767.96 52.54
93 16.4820 2730.00 2770.17 52.25
94 16.4990 2731.00 2772.38 52.26
95 16.5160 2654.00 2774.58 51.52
96 16.5330 2671.00 2776.78 51.68
97 16.5500 2815.00 2778.97 53.06
98 16.5670 2874.00 2781.15 53.61
99 16.5840 2906.00 2783.34 53.91
100 16.6010 2895.00 2785.51 53.81
101 16.6180 2793.00 2787.68 52.85
102 16.6350 2826.00 2789.85 53.16
103 16.6520 2712.00 2792.01 52.08
104 16.6690 2817.00 2794.17 53.08
105 16.6860 2860.00 2796.32 53.48
106 16.7030 2782.00 2798.46 52.74
107 16.7200 2797.00 2800.61 52.89
108 16.7370 2829.00 2802.74 53.19
109 16.7540 2878.00 2804.87 53.65
110 16.7710 2939.00 2807.00 54.21
111 16.7880 2815.00 2809.12 53.06
112 16.8050 2836.00 2811.24 53.25
113 16.8220 2802.00 2813.35 52.93
114 16.8390 2843.00 2815.45 53.32
115 16.8560 2868.00 2817.55 53.55
116 16.8730 2665.00 2819.65 51.62
117 16.8900 2714.00 2821.74 52.10
118 16.9070 2785.00 2823.82 52.77
119 16.9240 2818.00 2825.91 53.08
120 16.9410 2851.00 2827.98 53.39
121 16.9580 2840.00 2830.05 53.29
122 16.9750 2873.00 2832.12 53.60
123 16.9920 2800.00 2834.18 52.92
124 17.0090 2727.00 2836.24 52.22
125 17.0260 2801.00 2838.29 52.92
126 17.0430 2795.00 2840.33 52.87
127 17.0600 2812.00 2842.37 53.03
128 17.0770 2798.00 2844.41 52.90
129 17.0940 2907.00 2846.44 53.92
130 17.1110 2880.00 2848.47 53.67
131 17.1280 2756.00 2850.49 52.50
132 17.1450 2784.00 2852.51 52.76
133 17.1620 2819.00 2854.52 53.09
134 17.1790 2803.00 2856.53 52.94
135 17.1960 2893.00 2858.53 53.79
136 17.2130 2830.00 2860.53 53.20
137 17.2300 2893.00 2862.52 53.79
138 17.2470 2876.00 2864.51 53.63
139 17.2640 2733.00 2866.49 52.28
140 17.2810 2848.00 2868.47 53.37
141 17.2980 2820.00 2870.44 53.10
142 17.3150 2822.00 2872.41 53.12
143 17.3320 2786.00 2874.38 52.78
144 17.3490 2794.00 2876.34 52.86
145 17.3660 2781.00 2878.29 52.74
146 17.3830 2749.00 2880.24 52.43
147 17.4000 2723.00 2882.19 52.18
148 17.4170 2810.00 2884.13 53.01
149 17.4340 2858.00 2886.06 53.46
150 17.4510 2865.00 2887.99 53.53
151 17.4680 2840.00 2889.92 53.29
152 17.4850 2883.00 2891.84 53.69
153 17.5020 2838.00 2893.76 53.27
154 17.5190 2796.00 2895.67 52.88
155 17.5360 3014.00 2897.58 54.90
156 17.5530 2789.00 2899.48 52.81
157 17.5700 2824.00 2901.38 53.14
158 17.5870 2887.00 2903.27 53.73
159 17.6040 2881.00 2905.16 53.67
160 17.6210 2865.00 2907.04 53.53
161 17.6380 2849.00 2908.92 53.38
162 17.6550 2945.00 2910.80 54.27
163 17.6720 2902.00 2912.67 53.87
164 17.6890 2966.00 2914.53 54.46
165 17.7060 2905.00 2916.39 53.90
166 17.7230 2842.00 2918.25 53.31
167 17.7400 2861.00 2920.10 53.49
168 17.7570 2943.00 2921.95 54.25
169 17.7740 2976.00 2923.79 54.55
170 17.7910 2921.00 2925.63 54.05
171 17.8080 2860.00 2927.46 53.48
172 17.8250 2840.00 2929.29 53.29
173 17.8420 2797.00 2931.11 52.89
174 17.8590 2810.00 2932.93 53.01
175 17.8760 2770.00 2934.75 52.63
176 17.8930 2848.00 2936.56 53.37
177 17.9100 2853.00 2938.36 53.41
178 17.9270 2939.00 2940.16 54.21
179 17.9440 2966.00 2941.96 54.46
180 17.9610 2939.00 2943.75 54.21
181 17.9780 2936.00 2945.54 54.18
182 17.9950 2879.00 2947.33 53.66
183 18.0120 2971.00 2949.10 54.51
184 18.0290 3061.00 2950.88 55.33
185 18.0460 3014.00 2952.65 54.90
186 18.0630 2996.00 2954.41 54.74
187 18.0800 2954.00 2956.18 54.35
188 18.0970 2949.00 2957.93 54.30
189 18.1140 3037.00 2959.68 55.11
190 18.1310 3032.00 2961.43 55.06
191 18.1480 3049.00 2963.17 55.22
192 18.1650 3109.00 2964.91 55.76
193 18.1820 2969.00 2966.65 54.49
194 18.1990 3037.00 2968.38 55.11
195 18.2160 3089.00 2970.10 55.58
196 18.2330 3035.00 2971.82 55.09
197 18.2500 2918.00 2973.54 54.02
198 18.2670 2958.00 2975.25 54.39
199 18.2840 2956.00 2976.96 54.37
200 18.3010 2943.00 2978.67 54.25
201 18.3180 2964.00 2980.37 54.44
202 18.3350 2983.00 2982.06 54.62
203 18.3520 2874.00 2983.75 53.61
204 18.3690 2895.00 2985.44 53.81
205 18.3860 2864.00 2987.12 53.52
206 18.4030 3010.00 2988.80 54.86
207 18.4200 2851.00 2990.47 53.39
208 18.4370 2883.00 2992.14 53.69
209 18.4540 2994.00 2993.80 54.72
210 18.4710 2931.00 2995.46 54.14
211 18.4880 2966.00 2997.12 54.46
212 18.5050 2916.00 2998.77 54.00
213 18.5220 2994.00 3000.42 54.72
214 18.5390 2982.00 3002.06 54.61
215 18.5560 3029.00 3003.70 55.04
216 18.5730 3061.00 3005.34 55.33
217 18.5900 2929.00 3006.97 54.12
218 18.6070 3046.00 3008.60 55.19
219 18.6240 2927.00 3010.22 54.10
220 18.6410 2994.00 3011.84 54.72
221 18.6580 2979.00 3013.45 54.58
222 18.6750 3018.00 3015.06 54.94
223 18.6920 2983.00 3016.66 54.62
224 18.7090 2919.00 3018.27 54.03
225 18.7260 3066.00 3019.86 55.37
226 18.7430 3035.00 3021.46 55.09
227 18.7600 2855.00 3023.04 53.43
228 18.7770 3047.00 3024.63 55.20
229 18.7940 2978.00 3026.21 54.57
230 18.8110 3002.00 3027.78 54.79
231 18.8280 3025.00 3029.36 55.00
232 18.8450 2914.00 3030.92 53.98
233 18.8620 2936.00 3032.49 54.18
234 18.8790 2973.00 3034.05 54.53
235 18.8960 3057.00 3035.60 55.29
236 18.9130 2954.00 3037.15 54.35
237 18.9300 2926.00 3038.70 54.09
238 18.9470 2952.00 3040.24 54.33
239 18.9640 2947.00 3041.78 54.29
240 18.9810 2979.00 3043.32 54.58
241 18.9980 2936.00 3044.85 54.18
242 19.0150 2975.00 3046.38 54.54
243 19.0320 3039.00 3047.90 55.13
244 19.0490 3008.00 3049.42 54.85
245 19.0660 3051.00 3050.93 55.24
246 19.0830 3083.00 3052.44 55.52
247 19.1000 3126.00 3053.95 55.91
248 19.1170 3121.00 3055.45 55.87
249 19.1340 3056.00 3056.95 55.28
250 19.1510 3003.00 3058.45 54.80
251 19.1680 3029.00 3059.94 55.04
252 19.1850 3149.00 3061.42 56.12
253 19.2020 3000.00 3062.90 54.77
254 19.2190 3000.00 3064.38 54.77
255 19.2360 2993.00 3065.86 54.71
256 19.2530 2983.00 3067.33 54.62
257 19.2700 3146.00 3068.79 56.09
258 19.2870 3123.00 3070.26 55.88
259 19.3040 3067.00 3071.72 55.38
260 19.3210 3019.00 3073.17 54.95
261 19.3380 3006.00 3074.62 54.83
262 19.3550 3028.00 3076.07 55.03
263 19.3720 3086.00 3077.51 55.55
264 19.3890 3070.00 3078.95 55.41
265 19.4060 2964.00 3080.39 54.44
266 19.4230 2987.00 3081.82 54.65
267 19.4400 3032.00 3083.24 55.06
268 19.4570 3053.00 3084.67 55.25
269 19.4740 3077.00 3086.09 55.47
270 19.4910 2994.00 3087.50 54.72
271 19.5080 3022.00 3088.91 54.97
272 19.5250 3053.00 3090.32 55.25
273 19.5420 3012.00 3091.73 54.88
274 19.5590 3105.00 3093.13 55.72
275 19.5760 3000.00 3094.52 54.77
276 19.5930 3073.00 3095.91 55.43
277 19.6100 3018.00 3097.30 54.94
278 19.6270 3099.00 3098.69 55.67
279 19.6440 2968.00 3100.07 54.48
280 19.6610 3095.00 3101.45 55.63
281 19.6780 2930.00 3102.82 54.13
282 19.6950 2997.00 3104.19 54.74
283 19.7120 3027.00 3105.55 55.02
284 19.7290 3078.00 3106.92 55.48
285 19.7460 3076.00 3108.27 55.46
286 19.7630 3063.00 3109.63 55.34
287 19.7800 2998.00 3110.98 54.75
288 19.7970 3106.00 3112.33 55.73
289 19.8140 3100.00 3113.67 55.68
290 19.8310 2955.00 3115.01 54.36
291 19.8480 2984.00 3116.34 54.63
292 19.8650 2957.00 3117.68 54.38
293 19.8820 3065.00 3119.00 55.36
294 19.8990 3099.00 3120.33 55.67
295 19.9160 3127.00 3121.65 55.92
296 19.9330 3057.00 3122.97 55.29
297 19.9500 3115.00 3124.28 55.81
298 19.9670 3032.00 3125.59 55.06
299 19.9840 2914.00 3126.90 53.98
300 20.0010 2964.00 3128.20 54.44
301 20.0180 3007.00 3129.50 54.84
302 20.0350 3049.00 3130.79 55.22
303 20.0520 3131.00 3132.08 55.96
304 20.0690 2978.00 3133.37 54.57
305 20.0860 3015.00 3134.65 54.91
306 20.1030 3013.00 3135.93 54.89
307 20.1200 3048.00 3137.21 55.21
308 20.1370 3147.00 3138.48 56.10
309 20.1540 3061.00 3139.75 55.33
310 20.1710 3076.00 3141.02 55.46
311 20.1880 3050.00 3142.28 55.23
312 20.2050 3033.00 3143.54 55.07
313 20.2220 3101.00 3144.79 55.69
314 20.2390 3003.00 3146.04 54.80
315 20.2560 3008.00 3147.29 54.85
316 20.2730 3094.00 3148.54 55.62
317 20.2900 3045.00 3149.78 55.18
318 20.3070 3036.00 3151.01 55.10
319 20.3240 3100.00 3152.25 55.68
320 20.3410 2966.00 3153.48 54.46
321 20.3580 3022.00 3154.70 54.97
322 20.3750 3037.00 3155.93 55.11
323 20.3920 3126.00 3157.14 55.91
324 20.4090 3043.00 3158.36 55.16
325 20.4260 3066.00 3159.57 55.37
326 20.4430 3084.00 3160.78 55.53
327 20.4600 3111.00 3161.99 55.78
328 20.4770 3038.00 3163.19 55.12
329 20.4940 3119.00 3164.39 55.85
330 20.5110 3109.00 3165.58 55.76
331 20.5280 3033.00 3166.77 55.07
332 20.5450 3111.00 3167.96 55.78
333 20.5620 3146.00 3169.14 56.09
334 20.5790 3058.00 3170.32 55.30
335 20.5960 3105.00 3171.50 55.72
336 20.6130 3061.00 3172.67 55.33
337 20.6300 3140.00 3173.84 56.04
338 20.6470 3035.00 3175.01 55.09
339 20.6640 3070.00 3176.17 55.41
340 20.6810 3150.00 3177.33 56.12
341 20.6980 3153.00 3178.49 56.15
342 20.7150 3055.00 3179.64 55.27
343 20.7320 3027.00 3180.79 55.02
344 20.7490 2981.00 3181.94 54.60
345 20.7660 3032.00 3183.08 55.06
346 20.7830 3108.00 3184.22 55.75
347 20.8000 3158.00 3185.36 56.20
348 20.8170 3111.00 3186.49 55.78
349 20.8340 3215.00 3187.62 56.70
350 20.8510 3142.00 3188.75 56.05
351 20.8680 3163.00 3189.87 56.24
352 20.8850 3154.00 3190.99 56.16
353 20.9020 3016.00 3192.10 54.92
354 20.9190 2948.00 3193.22 54.30
355 20.9360 3027.00 3194.33 55.02
356 20.9530 3059.00 3195.43 55.31
357 20.9700 3110.00 3196.53 55.77
358 20.9870 3107.00 3197.63 55.74
359 21.0040 3054.00 3198.73 55.26
360 21.0210 2977.00 3199.82 54.56
361 21.0380 3075.00 3200.91 55.45
362 21.0550 3075.00 3202.00 55.45
363 21.0720 3086.00 3203.08 55.55
364 21.0890 3106.00 3204.16 55.73
365 21.1060 3061.00 3205.23 55.33
366 21.1230 3179.00 3206.31 56.38
367 21.1400 3135.00 3207.38 55.99
368 21.1570 3060.00 3208.44 55.32
369 21.1740 3117.00 3209.51 55.83
370 21.1910 3042.00 3210.57 55.15
371 21.2080 3115.00 3211.62 55.81
372 21.2250 3096.00 3212.68 55.64
373 21.2420 3078.00 3213.73 55.48
374 21.2590 3184.00 3214.77 56.43
375 21.2760 3159.00 3215.82 56.21
376 21.2930 3180.00 3216.86 56.39
377 21.3100 3174.00 3217.89 56.34
378 21.3270 3178.00 3218.93 56.37
379 21.3440 3190.00 3219.96 56.48
380 21.3610 3129.00 3220.99 55.94
381 21.3780 3245.00 3222.01 56.96
382 21.3950 3202.00 3223.03 56.59
383 21.4120 3149.00 3224.05 56.12
384 21.4290 3314.00 3225.06 57.57
385 21.4460 3276.00 3226.08 57.24
386 21.4630 3141.00 3227.08 56.04
387 21.4800 3177.00 3228.09 56.36
388 21.4970 3149.00 3229.09 56.12
389 21.5140 3350.00 3230.09 57.88
390 21.5310 3295.00 3231.09 57.40
391 21.5480 3257.00 3232.08 57.07
392 21.5650 3187.00 3233.07 56.45
393 21.5820 3256.00 3234.06 57.06
394 21.5990 3249.00 3235.04 57.00
395 21.6160 3103.00 3236.02 55.70
396 21.6330 3242.00 3237.00 56.94
397 21.6500 3193.00 3237.97 56.51
398 21.6670 3214.00 3238.94 56.69
399 21.6840 3179.00 3239.91 56.38
400 21.7010 3239.00 3240.87 56.91
401 21.7180 3202.00 3241.84 56.59
402 21.7350 3208.00 3242.80 56.64
403 21.7520 3235.00 3243.75 56.88
404 21.7690 3296.00 3244.70 57.41
405 21.7860 3322.00 3245.65 57.64
406 21.8030 3198.00 3246.60 56.55
407 21.8200 3233.00 3247.54 56.86
408 21.8370 3286.00 3248.48 57.32
409 21.8540 3270.00 3249.42 57.18
410 21.8710 3246.00 3250.36 56.97
411 21.8880 3267.00 3251.29 57.16
412 21.9050 3335.00 3252.22 57.75
413 21.9220 3221.00 3253.14 56.75
414 21.9390 3289.00 3254.06 57.35
415 21.9560 3350.00 3254.98 57.88
416 21.9730 3321.00 3255.90 57.63
417 21.9900 3305.00 3256.81 57.49
418 22.0070 3217.00 3257.72 56.72
419 22.0240 3212.00 3258.63 56.67
420 22.0410 3266.00 3259.54 57.15
421 22.0580 3319.00 3260.44 57.61
422 22.0750 3307.00 3261.34 57.51
423 22.0920 3333.00 3262.23 57.73
424 22.1090 3212.00 3263.12 56.67
425 22.1260 3216.00 3264.01 56.71
426 22.1430 3273.00 3264.90 57.21
427 22.1600 3204.00 3265.78 56.60
428 22.1770 3268.00 3266.67 57.17
429 22.1940 3220.00 3267.54 56.74
430 22.2110 3261.00 3268.42 57.11
431 22.2280 3292.00 3269.29 57.38
432 22.2450 3303.00 3270.16 57.47
433 22.2620 3184.00 3271.03 56.43
434 22.2790 3234.00 3271.89 56.87
435 22.2960 3266.00 3272.75 57.15
436 22.3130 3340.00 3273.61 57.79
437 22.3300 3277.00 3274.47 57.25
438 22.3470 3364.00 3275.32 58.00
439 22.3640 3322.00 3276.17 57.64
440 22.3810 3124.00 3277.01 55.89
441 22.3980 3366.00 3277.86 58.02
442 22.4150 3308.00 3278.70 57.52
443 22.4320 3377.00 3279.54 58.11
444 22.4490 3268.00 3280.37 57.17
445 22.4660 3382.00 3281.20 58.15
446 22.4830 3309.00 3282.03 57.52
447 22.5000 3366.00 3282.86 58.02
448 22.5170 3301.00 3283.68 57.45
449 22.5340 3452.00 3284.50 58.75
450 22.5510 3400.00 3285.32 58.31
451 22.5680 3274.00 3286.14 57.22
452 22.5850 3269.00 3286.95 57.18
453 22.6020 3366.00 3287.76 58.02
454 22.6190 3354.00 3288.57 57.91
455 22.6360 3344.00 3289.37 57.83
456 22.6530 3293.00 3290.17 57.38
457 22.6700 3370.00 3290.97 58.05
458 22.6870 3342.00 3291.77 57.81
459 22.7040 3414.00 3292.56 58.43
460 22.7210 3393.00 3293.35 58.25
461 22.7380 3328.00 3294.14 57.69
462 22.7550 3317.00 3294.93 57.59
463 22.7720 3414.00 3295.71 58.43
464 22.7890 3368.00 3296.49 58.03
465 22.8060 3405.00 3297.26 58.35
466 22.8230 3399.00 3298.04 58.30
467 22.8400 3325.00 3298.81 57.66
468 22.8570 3307.00 3299.58 57.51
469 22.8740 3380.00 3300.35 58.14
470 22.8910 3400.00 3301.11 58.31
471 22.9080 3306.00 3301.87 57.50
472 22.9250 3271.00 3302.63 57.19
473 22.9420 3304.00 3303.38 57.48
474 22.9590 3230.00 3304.14 56.83
475 22.9760 3330.00 3304.89 57.71
476 22.9930 3396.00 3305.63 58.28
477 23.0100 3323.00 3306.38 57.65
478 23.0270 3240.00 3307.12 56.92
479 23.0440 3255.00 3307.86 57.05
480 23.0610 3331.00 3308.60 57.71
481 23.0780 3312.00 3309.33 57.55
482 23.0950 3291.00 3310.06 57.37
483 23.1120 3350.00 3310.79 57.88
484 23.1290 3290.00 3311.52 57.36
485 23.1460 3374.00 3312.24 58.09
486 23.1630 3315.00 3312.96 57.58
487 23.1800 3354.00 3313.68 57.91
488 23.1970 3282.00 3314.40 57.29
489 23.2140 3266.00 3315.11 57.15
490 23.2310 3269.00 3315.82 57.18
491 23.2480 3155.00 3316.53 56.17
492 23.2650 3303.00 3317.24 57.47
493 23.2820 3351.00 3317.94 57.89
494 23.2990 3210.00 3318.64 56.66
495 23.3160 3430.00 3319.34 58.57
496 23.3330 3471.00 3320.03 58.92
497 23.3500 3406.00 3320.73 58.36
498 23.3670 3294.00 3321.42 57.39
499 23.3840 3407.00 3322.11 58.37
500 23.4010 3329.00 3322.79 57.70
501 23.4180 3448.00 3323.47 58.72
502 23.4350 3357.00 3324.15 57.94
503 23.4520 3349.00 3324.83 57.87
504 23.4690 3343.00 3325.51 57.82
505 23.4860 3359.00 3326.18 57.96
506 23.5030 3336.00 3326.85 57.76
507 23.5200 3312.00 3327.52 57.55
508 23.5370 3325.00 3328.18 57.66
509 23.5540 3444.00 3328.85 58.69
510 23.5710 3435.00 3329.51 58.61
511 23.5880 3489.00 3330.16 59.07
512 23.6050 3448.00 3330.82 58.72
513 23.6220 3475.00 3331.47 58.95
514 23.6390 3472.00 3332.12 58.92
515 23.6560 3510.00 3332.77 59.25
516 23.6730 3499.00 3333.42 59.15
517 23.6900 3541.00 3334.06 59.51
518 23.7070 3540.00 3334.70 59.50
519 23.7240 3535.00 3335.34 59.46
520 23.7410 3614.00 3335.97 60.12
521 23.7580 3562.00 3336.61 59.68
522 23.7750 3412.00 3337.24 58.41
523 23.7920 3339.00 3337.87 57.78
524 23.8090 3399.00 3338.49 58.30
525 23.8260 3427.00 3339.12 58.54
526 23.8430 3446.00 3339.74 58.70
527 23.8600 3474.00 3340.36 58.94
528 23.8770 3407.00 3340.97 58.37
529 23.8940 3422.00 3341.59 58.50
530 23.9110 3448.00 3342.20 58.72
531 23.9280 3454.00 3342.81 58.77
532 23.9450 3413.00 3343.41 58.42
533 23.9620 3454.00 3344.02 58.77
534 23.9790 3508.00 3344.62 59.23
535 23.9960 3536.00 3345.22 59.46
536 24.0130 3563.00 3345.82 59.69
537 24.0300 3566.00 3346.41 59.72
538 24.0470 3425.00 3347.01 58.52
539 24.0640 3394.00 3347.60 58.26
540 24.0810 3508.00 3348.19 59.23
541 24.0980 3455.00 3348.77 58.78
542 24.1150 3588.00 3349.35 59.90
543 24.1320 3506.00 3349.94 59.21
544 24.1490 3400.00 3350.52 58.31
545 24.1660 3510.00 3351.09 59.25
546 24.1830 3465.00 3351.67 58.86
547 24.2000 3451.00 3352.24 58.75
548 24.2170 3576.00 3352.81 59.80
549 24.2340 3511.00 3353.38 59.25
550 24.2510 3499.00 3383.20 59.15
551 24.2680 3491.00 3384.29 59.08
552 24.2850 3477.00 3385.39 58.97
553 24.3020 3558.00 3400.89 59.65
554 24.3190 3400.00 3402.28 58.31
555 24.3360 3443.00 3403.68 58.68
556 24.3530 3565.00 3405.11 59.71
557 24.3700 3538.00 3406.55 59.48
558 24.3870 3606.00 3408.02 60.05
559 24.4040 3542.00 3409.52 59.51
560 24.4210 3441.00 3411.04 58.66
561 24.4380 3405.00 3412.59 58.35
562 24.4550 3412.00 3414.16 58.41
563 24.4720 3451.00 3415.77 58.75
564 24.4890 3452.00 3417.40 58.75
565 24.5060 3517.00 3419.06 59.30
566 24.5230 3519.00 3420.76 59.32
567 24.5400 3615.00 3422.49 60.12
568 24.5570 3636.00 3424.26 60.30
569 24.5740 3526.00 3426.06 59.38
570 24.5910 3496.00 3427.91 59.13
571 24.6080 3430.00 3429.79 58.57
572 24.6250 3545.00 3431.72 59.54
573 24.6420 3616.00 3433.69 60.13
574 24.6590 3517.00 3435.71 59.30
575 24.6760 3440.00 3437.77 58.65
576 24.6930 3507.00 3439.89 59.22
577 24.7100 3584.00 3442.06 59.87
578 24.7270 3451.00 3444.29 58.75
579 24.7440 3546.00 3446.58 59.55
580 24.7610 3512.00 3448.93 59.26
581 24.7780 3485.00 3451.35 59.03
582 24.7950 3584.00 3453.83 59.87
583 24.8120 3499.00 3456.39 59.15
584 24.8290 3461.00 3459.02 58.83
585 24.8460 3485.00 3461.73 59.03
586 24.8630 3542.00 3464.52 59.51
587 24.8800 3471.00 3467.41 58.92
588 24.8970 3515.00 3470.39 59.29
589 24.9140 3464.00 3473.46 58.86
590 24.9310 3481.00 3476.64 59.00
591 24.9480 3511.00 3479.93 59.25
592 24.9650 3460.00 3483.34 58.82
593 24.9820 3638.00 3486.87 60.32
594 24.9990 3547.00 3490.53 59.56
595 25.0160 3565.00 3494.32 59.71
596 25.0330 3625.00 3498.27 60.21
597 25.0500 3601.00 3502.37 60.01
598 25.0670 3669.00 3506.63 60.57
599 25.0840 3623.00 3511.07 60.19
600 25.1010 3583.00 3515.69 59.86
601 25.1180 3548.00 3520.52 59.57
602 25.1350 3667.00 3525.55 60.56
603 25.1520 3615.00 3530.81 60.12
604 25.1690 3684.00 3536.31 60.70
605 25.1860 3579.00 3542.08 59.82
606 25.2030 3575.00 3548.11 59.79
607 25.2200 3534.00 3554.44 59.45
608 25.2370 3629.00 3561.09 60.24
609 25.2540 3647.00 3568.08 60.39
610 25.2710 3558.00 3575.44 59.65
611 25.2880 3671.00 3583.19 60.59
612 25.3050 3605.00 3591.37 60.04
613 25.3220 3561.00 3600.01 59.67
614 25.3390 3598.00 3609.14 59.98
615 25.3560 3725.00 3618.82 61.03
616 25.3730 3673.00 3629.08 60.61
617 25.3900 3676.00 3639.97 60.63
618 25.4070 3700.00 3651.56 60.83
619 25.4240 3750.00 3663.90 61.24
620 25.4410 3764.00 3677.07 61.35
621 25.4580 3586.00 3691.14 59.88
622 25.4750 3697.00 3706.21 60.80
623 25.4920 3796.00 3722.36 61.61
624 25.5090 3894.00 3739.72 62.40
625 25.5260 4044.00 3758.41 63.59
626 25.5430 3940.00 3778.57 62.77
627 25.5600 3997.00 3800.36 63.22
628 25.5770 4039.00 3823.98 63.55
629 25.5940 4086.00 3849.63 63.92
630 25.6110 4140.00 3877.57 64.34
631 25.6280 4143.00 3908.08 64.37
632 25.6450 4143.00 3941.49 64.37
633 25.6620 4147.00 3978.19 64.40
634 25.6790 4117.00 4018.63 64.16
635 25.6960 4169.00 4063.35 64.57
636 25.7130 4101.00 4112.98 64.04
637 25.7300 4384.00 4168.29 66.21
638 25.7470 4446.00 4230.17 66.68
639 25.7640 4379.00 4299.74 66.17
640 25.7810 4531.00 4378.35 67.31
641 25.7980 4515.00 4467.65 67.19
642 25.8150 4648.00 4569.69 68.18
643 25.8320 4595.00 4687.05 67.79
644 25.8490 4817.00 4823.01 69.40
645 25.8660 5026.00 4981.80 70.89
646 25.8830 5222.00 5168.99 72.26
647 25.9000 5426.00 5392.21 73.66
648 25.9170 5784.00 5662.47 76.05
649 25.9340 6094.00 5996.61 78.06
650 25.9510 6389.00 6421.61 79.93
651 25.9680 7016.00 6981.49 83.76
652 25.9850 7841.00 7745.83 88.55
653 26.0020 8841.00 8819.80 94.03
654 26.0190 10234.00 10351.20 101.16
655 26.0360 12701.00 12529.30 112.70
656 26.0530 15617.00 15556.50 124.97
657 26.0700 19811.00 19566.70 140.75
658 26.0870 24908.00 24555.50 157.82
659 26.1040 29893.00 30501.90 172.90
660 26.1210 35688.00 37309.70 188.91
661 26.1380 42062.00 44224.60 205.09
662 26.1550 47865.00 50140.30 218.78
663 26.1720 53497.00 54691.80 231.29
664 26.1890 57130.00 57418.10 239.02
665 26.2060 57495.00 57017.10 239.78
666 26.2230 53358.00 53036.20 230.99
667 26.2400 47338.00 46830.60 217.57
668 26.2570 40378.00 39825.10 200.94
669 26.2740 32744.00 32615.20 180.95
670 26.2910 25545.00 25768.40 159.83
671 26.3080 19669.00 19983.90 140.25
672 26.3250 15312.00 15563.10 123.74
673 26.3420 12005.00 12396.10 109.57
674 26.3590 10007.00 10209.10 100.04
675 26.3760 8637.00 8719.77 92.94
676 26.3930 7802.00 7696.18 88.33
677 26.4100 7010.00 6970.85 83.73
678 26.4270 6441.00 6434.51 80.26
679 26.4440 6077.00 6020.87 77.96
680 26.4610 5722.00 5691.00 75.64
681 26.4780 5424.00 5421.68 73.65
682 26.4950 5098.00 5198.02 71.40
683 26.5120 5005.00 5010.02 70.75
684 26.5290 4831.00 4850.41 69.51
685 26.5460 4791.00 4713.72 69.22
686 26.5630 4710.00 4595.77 68.63
687 26.5800 4523.00 4493.27 67.25
688 26.5970 4309.00 4403.64 65.64
689 26.6140 4356.00 4324.82 66.00
690 26.6310 4258.00 4255.12 65.25
691 26.6480 4137.00 4193.22 64.32
692 26.6650 4106.00 4137.97 64.08
693 26.6820 4034.00 4088.45 63.51
694 26.6990 4157.00 4043.91 64.47
695 26.7160 4129.00 4003.71 64.26
696 26.7330 3949.00 3967.29 62.84
697 26.7500 3950.00 3934.20 62.85
698 26.7670 3950.00 3904.05 62.85
699 26.7840 3961.00 3876.50 62.94
700 26.8010 3945.00 3851.26 62.81
701 26.8180 3902.00 3828.09 62.47
702 26.8350 3826.00 3806.76 61.85
703 26.8520 3817.00 3787.08 61.78
704 26.8690 3842.00 3768.90 61.98
705 26.8860 3845.00 3752.06 62.01
706 26.9030 3909.00 3736.44 62.52
707 26.9200 3826.00 3721.92 61.85
708 26.9370 3855.00 3708.40 62.09
709 26.9540 3857.00 3695.80 62.10
710 26.9710 3785.00 3684.03 61.52
711 26.9880 3788.00 3673.03 61.55
712 27.0050 3804.00 3662.73 61.68
713 27.0220 3791.00 3653.07 61.57
714 27.0390 3741.00 3644.00 61.16
715 27.0560 3716.00 3635.47 60.96
716 27.0730 3747.00 3627.45 61.21
717 27.0900 3754.00 3619.89 61.27
718 27.1070 3757.00 3612.77 61.29
719 27.1240 3818.00 3606.04 61.79
720 27.1410 3723.00 3599.68 61.02
721 27.1580 3755.00 3593.67 61.28
722 27.1750 3633.00 3587.98 60.27
723 27.1920 3696.00 3582.59 60.79
724 27.2090 3729.00 3577.48 61.07
725 27.2260 3712.00 3572.62 60.93
726 27.2430 3557.00 3568.02 59.64
727 27.2600 3663.00 3563.64 60.52
728 27.2770 3625.00 3559.47 60.21
729 27.2940 3685.00 3555.51 60.70
730 27.3110 3610.00 3551.73 60.08
731 27.3280 3643.00 3548.13 60.36
732 27.3450 3657.00 3544.70 60.47
733 27.3620 3604.00 3541.42 60.03
734 27.3790 3589.00 3538.29 59.91
735 27.3960 3594.00 3535.30 59.95
736 27.4130 3657.00 3532.45 60.47
737 27.4300 3618.00 3529.72 60.15
738 27.4470 3567.00 3527.10 59.72
739 27.4640 3550.00 3524.60 59.58
740 27.4810 3695.00 3522.20 60.79
741 27.4980 3678.00 3519.90 60.65
742 27.5150 3524.00 3517.70 59.36
743 27.5320 3496.00 3515.59 59.13
744 27.5490 3611.00 3513.56 60.09
745 27.5660 3438.00 3511.61 58.63
746 27.5830 3608.00 3509.74 60.07
747 27.6000 3679.00 3507.95 60.65
748 27.6170 3491.00 3506.22 59.08
749 27.6340 3628.00 3504.56 60.23
750 27.6510 3656.00 3502.96 60.46
751 27.6680 3605.00 3501.43 60.04
752 27.6850 3546.00 3499.95 59.55
753 27.7020 3638.00 3498.52 60.32
754 27.7190 3510.00 3497.15 59.25
755 27.7360 3600.00 3495.83 60.00
756 27.7530 3693.00 3494.55 60.77
757 27.7700 3644.00 3493.33 60.37
758 27.7870 3517.00 3492.14 59.30
759 27.8040 3530.00 3491.00 59.41
760 27.8210 3580.00 3489.90 59.83
761 27.8380 3554.00 3488.83 59.62
762 27.8550 3498.00 3487.80 59.14
763 27.8720 3529.00 3486.81 59.41
764 27.8890 3577.00 3485.85 59.81
765 27.9060 3499.00 3484.93 59.15
766 27.9230 3485.00 3484.03 59.03
767 27.9400 3589.00 3483.16 59.91
768 27.9570 3550.00 3482.33 59.58
769 27.9740 3547.00 3481.52 59.56
770 27.9910 3541.00 3480.73 59.51
771 28.0080 3465.00 3479.97 58.86
772 28.0250 3464.00 3479.24 58.86
773 28.0420 3459.00 3478.53 58.81
774 28.0590 3467.00 3477.84 58.88
775 28.0760 3556.00 3447.44 59.63
776 28.0930 3402.00 3447.32 58.33
777 28.1100 3434.00 3447.20 58.60
778 28.1270 3442.00 3432.27 58.67
779 28.1440 3481.00 3432.43 59.00
780 28.1610 3460.00 3432.59 58.82
781 28.1780 3350.00 3432.74 57.88
782 28.1950 3430.00 3432.90 58.57
783 28.2120 3561.00 3433.05 59.67
784 28.2290 3495.00 3433.20 59.12
785 28.2460 3450.00 3433.36 58.74
786 28.2630 3462.00 3433.51 58.84
787 28.2800 3376.00 3433.65 58.10
788 28.2970 3406.00 3433.80 58.36
789 28.3140 3440.00 3433.95 58.65
790 28.3310 3416.00 3434.09 58.45
791 28.3480 3562.00 3434.23 59.68
792 28.3650 3532.00 3434.38 59.43
793 28.3820 3243.00 3434.52 56.95
794 28.3990 3392.00 3434.66 58.24
795 28.4160 3517.00 3434.79 59.30
796 28.4330 3588.00 3434.93 59.90
797 28.4500 3462.00 3435.07 58.84
798 28.4670 3439.00 3435.20 58.64
799 28.4840 3433.00 3435.33 58.59
800 28.5010 3421.00 3435.46 58.49
801 28.5180 3469.00 3435.60 58.90
802 28.5350 3428.00 3435.72 58.55
803 28.5520 3433.00 3435.85 58.59
804 28.5690 3413.00 3435.98 58.42
805 28.5860 3467.00 3436.10 58.88
806 28.6030 3376.00 3436.23 58.10
807 28.6200 3383.00 3436.35 58.16
808 28.6370 3532.00 3436.47 59.43
809 28.6540 3573.00 3436.60 59.77
810 28.6710 3557.00 3436.71 59.64
811 28.6880 3495.00 3436.83 59.12
812 28.7050 3495.00 3436.95 59.12
813 28.7220 3539.00 3437.07 59.49
814 28.7390 3610.00 3437.18 60.08
815 28.7560 3571.00 3437.29 59.76
816 28.7730 3528.00 3437.41 59.40
817 28.7900 3504.00 3437.52 59.19
818 28.8070 3613.00 3437.63 60.11
819 28.8240 3604.00 3437.74 60.03
820 28.8410 3527.00 3437.84 59.39
821 28.8580 3581.00 3437.95 59.84
822 28.8750 3526.00 3438.06 59.38
823 28.8920 3526.00 3438.16 59.38
824 28.9090 3491.00 3438.26 59.08
825 28.9260 3439.00 3438.36 58.64
826 28.9430 3384.00 3438.46 58.17
827 28.9600 3450.00 3438.56 58.74
828 28.9770 3532.00 3438.66 59.43
829 28.9940 3550.00 3438.76 59.58
830 29.0110 3556.00 3438.85 59.63
831 29.0280 3390.00 3438.95 58.22
832 29.0450 3364.00 3439.04 58.00
833 29.0620 3401.00 3439.14 58.32
834 29.0790 3439.00 3439.23 58.64
835 29.0960 3412.00 3439.32 58.41
836 29.1130 3541.00 3439.41 59.51
837 29.1300 3417.00 3439.49 58.46
838 29.1470 3382.00 3439.58 58.15
839 29.1640 3428.00 3439.67 58.55
840 29.1810 3426.00 3439.75 58.53
841 29.1980 3381.00 3439.84 58.15
842 29.2150 3450.00 3439.92 58.74
843 29.2320 3480.00 3440.00 58.99
844 29.2490 3557.00 3440.08 59.64
845 29.2660 3471.00 3440.16 58.92
846 29.2830 3478.00 3440.24 58.97
847 29.3000 3411.00 3440.31 58.40
848 29.3170 3414.00 3440.39 58.43
849 29.3340 3327.00 3440.46 57.68
850 29.3510 3379.00 3440.54 58.13
851 29.3680 3371.00 3440.61 58.06
852 29.3850 3291.00 3440.68 57.37
853 29.4020 3492.00 3440.75 59.09
854 29.4190 3402.00 3440.82 58.33
855 29.4360 3476.00 3440.89 58.96
856 29.4530 3480.00 3440.96 58.99
857 29.4700 3457.00 3441.02 58.80
858 29.4870 3464.00 3441.09 58.86
859 29.5040 3352.00 3441.15 57.90
860 29.5210 3426.00 3441.22 58.53
861 29.5380 3393.00 3441.28 58.25
862 29.5550 3413.00 3441.34 58.42
863 29.5720 3359.00 3441.40 57.96
864 29.5890 3498.00 3441.46 59.14
865 29.6060 3503.00 3441.52 59.19
866 29.6230 3479.00 3441.57 58.98
867 29.6400 3413.00 3441.63 58.42
868 29.6570 3381.00 3441.68 58.15
869 29.6740 3354.00 3441.74 57.91
870 29.6910 3353.00 3441.79 57.91
871 29.7080 3416.00 3441.84 58.45
872 29.7250 3376.00 3441.89 58.10
873 29.7420 3447.00 3441.94 58.71
874 29.7590 3465.00 3441.99 58.86
875 29.7760 3323.00 3442.04 57.65
876 29.7930 3429.00 3442.09 58.56
877 29.8100 3422.00 3442.13 58.50
878 29.8270 3398.00 3442.18 58.29
879 29.8440 3459.00 3442.22 58.81
880 29.8610 3380.00 3442.26 58.14
881 29.8780 3433.00 3442.30 58.59
882 29.8950 3490.00 3442.35 59.08
883 29.9120 3479.00 3442.39 58.98
884 29.9290 3496.00 3442.42 59.13
885 29.9460 3450.00 3442.46 58.74
886 29.9630 3389.00 3442.50 58.22
887 29.9800 3523.00 3442.53 59.35
888 29.9970 3565.00 3442.57 59.71
889 30.0140 3461.00 3442.60 58.83
890 30.0310 3450.00 3442.64 58.74
891 30.0480 3476.00 3442.67 58.96
892 30.0650 3447.00 3442.70 58.71
893 30.0820 3416.00 3442.73 58.45
894 30.0990 3343.00 3442.76 57.82
895 30.1160 3410.00 3442.79 58.40
896 30.1330 3483.00 3442.82 59.02
897 30.1500 3436.00 3442.84 58.62
898 30.1670 3493.00 3442.87 59.10
899 30.1840 3511.00 3442.89 59.25
900 30.2010 3414.00 3442.92 58.43
901 30.2180 3482.00 3442.94 59.01
902 30.2350 3472.00 3442.96 58.92
903 30.2520 3404.00 3442.98 58.34
904 30.2690 3433.00 3443.00 58.59
905 30.2860 3474.00 3443.02 58.94
906 30.3030 3412.00 3443.04 58.41
907 30.3200 3412.00 3443.06 58.41
908 30.3370 3473.00 3443.07 58.93
909 30.3540 3499.00 3443.09 59.15
910 30.3710 3454.00 3443.10 58.77
911 30.3880 3531.00 3443.12 59.42
912 30.4050 3449.00 3443.13 58.73
913 30.4220 3401.00 3443.14 58.32
914 30.4390 3434.00 3443.15 58.60
915 30.4560 3362.00 3443.16 57.98
916 30.4730 3421.00 3443.17 58.49
917 30.4900 3324.00 3443.18 57.65
918 30.5070 3362.00 3443.19 57.98
919 30.5240 3457.00 3443.19 58.80
920 30.5410 3427.00 3443.20 58.54
921 30.5580 3537.00 3443.20 59.47
922 30.5750 3456.00 3443.21 58.79
923 30.5920 3440.00 3443.21 58.65
924 30.6090 3460.00 3443.21 58.82
925 30.6260 3441.00 3443.22 58.66
926 30.6430 3390.00 3443.22 58.22
927 30.6600 3480.00 3443.22 58.99
928 30.6770 3407.00 3443.21 58.37
929 30.6940 3334.00 3443.21 57.74
930 30.7110 3413.00 3443.21 58.42
931 30.7280 3295.00 3443.21 57.40
932 30.7450 3295.00 3443.20 57.40
933 30.7620 3477.00 3443.20 58.97
934 30.7790 3469.00 3443.19 58.90
935 30.7960 3461.00 3443.18 58.83
936 30.8130 3440.00 3443.18 58.65
937 30.8300 3525.00 3443.17 59.37
938 30.8470 3381.00 3443.16 58.15
939 30.8640 3443.00 3443.15 58.68
940 30.8810 3517.00 3443.14 59.30
941 30.8980 3333.00 3443.12 57.73
942 30.9150 3397.00 3443.11 58.28
943 30.9320 3442.00 3443.10 58.67
944 30.9490 3439.00 3443.08 58.64
945 30.9660 3439.00 3443.07 58.64
946 30.9830 3417.00 3443.05 58.46
947 31.0000 3508.00 3443.04 59.23
948 31.0170 3496.00 3443.02 59.13
949 31.0340 3441.00 3443.00 58.66
950 31.0510 3369.00 3442.98 58.04
951 31.0680 3411.00 3442.96 58.40
952 31.0850 3444.00 3442.94 58.69
953 31.1020 3482.00 3442.92 59.01
954 31.1190 3440.00 3442.90 58.65
955 31.1360 3345.00 3442.88 57.84
956 31.1530 3577.00 3442.85 59.81
957 31.1700 3508.00 3442.83 59.23
958 31.1870 3356.00 3442.80 57.93
959 31.2040 3515.00 3442.78 59.29
960 31.2210 3434.00 3442.75 58.60
961 31.2380 3372.00 3442.72 58.07
962 31.2550 3427.00 3442.70 58.54
963 31.2720 3430.00 3442.67 58.57
964 31.2890 3295.00 3442.64 57.40
965 31.3060 3318.00 3442.61 57.60
966 31.3230 3318.00 3442.58 57.60
967 31.3400 3252.00 3442.54 57.03
968 31.3570 3466.00 3442.51 58.87
969 31.3740 3445.00 3442.48 58.69
970 31.3910 3359.00 3442.44 57.96
971 31.4080 3422.00 3442.41 58.50
972 31.4250 3394.00 3442.37 58.26
973 31.4420 3366.00 3442.34 58.02
974 31.4590 3496.00 3442.30 59.13
975 31.4760 3385.00 3442.26 58.18
976 31.4930 3424.00 3442.22 58.51
977 31.5100 3435.00 3442.19 58.61
978 31.5270 3438.00 3442.15 58.63
979 31.5440 3315.00 3442.10 57.58
980 31.5610 3495.00 3442.06 59.12
981 31.5780 3473.00 3442.02 58.93
982 31.5950 3371.00 3441.98 58.06
983 31.6120 3441.00 3441.94 58.66
984 31.6290 3388.00 3441.89 58.21
985 31.6460 3292.00 3441.85 57.38
986 31.6630 3443.00 3441.80 58.68
987 31.6800 3364.00 3441.76 58.00
988 31.6970 3443.00 3441.71 58.68
989 31.7140 3405.00 3441.66 58.35
990 31.7310 3360.00 3441.61 57.97
991 31.7480 3409.00 3441.57 58.39
992 31.7650 3401.00 3441.52 58.32
993 31.7820 3381.00 3441.47 58.15
994 31.7990 3444.00 3441.41 58.69
995 31.8160 3450.00 3441.36 58.74
996 31.8330 3408.00 3441.31 58.38
997 31.8500 3344.00 3441.26 57.83
998 31.8670 3322.00 3441.21 57.64
999 31.8840 3314.00 3441.15 57.57
1000 31.9010 3359.00 3441.10 57.96
1001 31.9180 3441.00 3441.04 58.66
1002 31.9350 3381.00 3440.98 58.15
1003 31.9520 3417.00 3440.93 58.46
1004 31.9690 3387.00 3440.87 58.20
1005 31.9860 3351.00 3440.81 57.89
1006 32.0030 3383.00 3440.75 58.16
1007 32.0200 3339.00 3440.70 57.78
1008 32.0370 3425.00 3440.64 58.52
1009 32.0540 3426.00 3440.57 58.53
1010 32.0710 3280.00 3440.51 57.27
1011 32.0880 3284.00 3440.45 57.31
1012 32.1050 3341.00 3440.39 57.80
1013 32.1220 3484.00 3440.33 59.03
1014 32.1390 3319.00 3440.26 57.61
1015 32.1560 3320.00 3440.20 57.62
1016 32.1730 3292.00 3440.13 57.38
1017 32.1900 3374.00 3440.07 58.09
1018 32.2070 3348.00 3440.00 57.86
1019 32.2240 3330.00 3439.94 57.71
1020 32.2410 3382.00 3439.87 58.15
1021 32.2580 3313.00 3439.80 57.56
1022 32.2750 3417.00 3439.73 58.46
1023 32.2920 3410.00 3439.66 58.40
1024 32.3090 3313.00 3439.59 57.56
1025 32.3260 3473.00 3439.52 58.93
1026 32.3430 3372.00 3439.45 58.07
1027 32.3600 3419.00 3439.38 58.47
1028 32.3770 3446.00 3439.31 58.70
1029 32.3940 3333.00 3439.24 57.73
1030 32.4110 3331.00 3439.16 57.71
1031 32.4280 3336.00 3439.09 57.76
1032 32.4450 3410.00 3439.02 58.40
1033 32.4620 3491.00 3438.94 59.08
1034 32.4790 3400.00 3438.87 58.31
1035 32.4960 3385.00 3438.79 58.18
1036 32.5130 3351.00 3438.71 57.89
1037 32.5300 3301.00 3438.64 57.45
1038 32.5470 3319.00 3438.56 57.61
1039 32.5640 3338.00 3438.48 57.78
1040 32.5810 3254.00 3438.40 57.04
1041 32.5980 3346.00 3438.32 57.84
1042 32.6150 3296.00 3438.24 57.41
1043 32.6320 3397.00 3438.16 58.28
1044 32.6490 3322.00 3438.08 57.64
1045 32.6660 3327.00 3438.00 57.68
1046 32.6830 3364.00 3437.92 58.00
1047 32.7000 3427.00 3437.83 58.54
1048 32.7170 3381.00 3437.75 58.15
1049 32.7340 3345.00 3437.67 57.84
1050 32.7510 3365.00 3437.58 58.01
1051 32.7680 3373.00 3437.50 58.08
1052 32.7850 3364.00 3437.41 58.00
1053 32.8020 3337.00 3437.33 57.77
1054 32.8190 3408.00 3437.24 58.38
1055 32.8360 3429.00 3437.15 58.56
1056 32.8530 3427.00 3437.07 58.54
1057 32.8700 3406.00 3436.98 58.36
1058 32.8870 3393.00 3436.89 58.25
1059 32.9040 3446.00 3436.80 58.70
1060 32.9210 3483.00 3436.71 59.02
1061 32.9380 3396.00 3436.62 58.28
1062 32.9550 3424.00 3436.53 58.51
1063 32.9720 3375.00 3436.44 58.09
1064 32.9890 3409.00 3436.35 58.39
1065 33.0060 3322.00 3436.26 57.64
1066 33.0230 3353.00 3436.16 57.91
1067 33.0400 3491.00 3436.07 59.08
1068 33.0570 3486.00 3435.98 59.04
1069 33.0740 3418.00 3435.88 58.46
1070 33.0910 3539.00 3435.79 59.49
1071 33.1080 3464.00 3435.70 58.86
1072 33.1250 3331.00 3435.60 57.71
1073 33.1420 3435.00 3435.50 58.61
1074 33.1590 3457.00 3435.41 58.80
1075 33.1760 3292.00 3435.31 57.38
1076 33.1930 3440.00 3435.21 58.65
1077 33.2100 3413.00 3435.12 58.42
1078 33.2270 3377.00 3435.02 58.11
1079 33.2440 3478.00 3434.92 58.97
1080 33.2610 3308.00 3434.82 57.52
1081 33.2780 3339.00 3434.72 57.78
1082 33.2950 3289.00 3434.62 57.35
1083 33.3120 3309.00 3434.52 57.52
1084 33.3290 3403.00 3434.42 58.34
1085 33.3460 3448.00 3434.32 58.72
1086 33.3630 3375.00 3434.21 58.09
1087 33.3800 3327.00 3434.11 57.68
1088 33.3970 3358.00 3434.01 57.95
1089 33.4140 3419.00 3433.91 58.47
1090 33.4310 3424.00 3433.80 58.51
1091 33.4480 3396.00 3433.70 58.28
1092 33.4650 3332.00 3433.59 57.72
1093 33.4820 3379.00 3433.49 58.13
1094 33.4990 3336.00 3433.38 57.76
1095 33.5160 3429.00 3433.28 58.56
1096 33.5330 3325.00 3433.17 57.66
1097 33.5500 3407.00 3433.06 58.37
1098 33.5670 3274.00 3432.96 57.22
1099 33.5840 3345.00 3432.85 57.84
1100 33.6010 3338.00 3432.74 57.78
1101 33.6180 3507.00 3432.63 59.22
1102 33.6350 3485.00 3432.52 59.03
1103 33.6520 3381.00 3432.42 58.15
1104 33.6690 3443.00 3432.31 58.68
1105 33.6860 3368.00 3432.20 58.03
1106 33.7030 3348.00 3432.08 57.86
1107 33.7200 3395.00 3431.97 58.27
1108 33.7370 3479.00 3431.86 58.98
1109 33.7540 3427.00 3431.75 58.54
1110 33.7710 3459.00 3431.64 58.81
1111 33.7880 3568.00 3431.53 59.73
1112 33.8050 3449.00 3431.41 58.73
1113 33.8220 3394.00 3431.30 58.26
1114 33.8390 3446.00 3431.19 58.70
1115 33.8560 3528.00 3431.07 59.40
1116 33.8730 3482.00 3430.96 59.01
1117 33.8900 3495.00 3430.84 59.12
1118 33.9070 3528.00 3430.73 59.40
1119 33.9240 3447.00 3430.61 58.71
1120 33.9410 3350.00 3430.50 57.88
1121 33.9580 3430.00 3430.38 58.57
1122 33.9750 3481.00 3430.26 59.00
1123 33.9920 3314.00 3430.15 57.57
1124 34.0090 3368.00 3430.03 58.03
1125 34.0260 3306.00 3429.91 57.50
1126 34.0430 3405.00 3429.79 58.35
1127 34.0600 3357.00 3429.67 57.94
1128 34.0770 3434.00 3429.55 58.60
1129 34.0940 3374.00 3429.43 58.09
1130 34.1110 3300.00 3429.31 57.45
1131 34.1280 3323.00 3429.19 57.65
1132 34.1450 3277.00 3429.07 57.25
1133 34.1620 3410.00 3428.95 58.40
1134 34.1790 3386.00 3428.83 58.19
1135 34.1960 3330.00 3428.71 57.71
1136 34.2130 3398.00 3428.59 58.29
1137 34.2300 3510.00 3428.47 59.25
1138 34.2470 3521.00 3428.34 59.34
1139 34.2640 3417.00 3428.22 58.46
1140 34.2810 3342.00 3428.10 57.81
1141 34.2980 3403.00 3427.97 58.34
1142 34.3150 3473.00 3427.85 58.93
1143 34.3320 3458.00 3427.73 58.80
1144 34.3490 3415.00 3427.60 58.44
1145 34.3660 3347.00 3427.48 57.85
1146 34.3830 3344.00 3427.35 57.83
1147 34.4000 3378.00 3427.23 58.12
1148 34.4170 3347.00 3427.10 57.85
1149 34.4340 3348.00 3426.97 57.86
1150 34.4510 3285.00 3426.85 57.31
1151 34.4680 3396.00 3426.72 58.28
1152 34.4850 3301.00 3426.59 57.45
1153 34.5020 3361.00 3426.46 57.97
1154 34.5190 3352.00 3426.34 57.90
1155 34.5360 3414.00 3426.21 58.43
1156 34.5530 3262.00 3426.08 57.11
1157 34.5700 3259.00 3425.95 57.09
1158 34.5870 3321.00 3425.82 57.63
1159 34.6040 3273.00 3425.69 57.21
1160 34.6210 3341.00 3425.56 57.80
1161 34.6380 3310.00 3425.43 57.53
1162 34.6550 3446.00 3425.30 58.70
1163 34.6720 3428.00 3425.17 58.55
1164 34.6890 3330.00 3425.04 57.71
1165 34.7060 3334.00 3424.91 57.74
1166 34.7230 3353.00 3424.78 57.91
1167 34.7400 3320.00 3424.65 57.62
1168 34.7570 3404.00 3424.51 58.34
1169 34.7740 3368.00 3424.38 58.03
1170 34.7910 3362.00 3424.25 57.98
1171 34.8080 3320.00 3424.12 57.62
1172 34.8250 3351.00 3423.98 57.89
1173 34.8420 3492.00 3423.85 59.09
1174 34.8590 3373.00 3423.72 58.08
1175 34.8760 3363.00 3423.58 57.99
1176 34.8930 3521.00 3423.45 59.34
1177 34.9100 3453.00 3423.31 58.76
1178 34.9270 3335.00 3423.18 57.75
1179 34.9440 3381.00 3423.04 58.15
1180 34.9610 3433.00 3422.91 58.59
1181 34.9780 3380.00 3422.77 58.14
1182 34.9950 3425.00 3422.63 58.52
1183 35.0120 3374.00 3422.50 58.09
1184 35.0290 3483.00 3422.36 59.02
1185 35.0460 3469.00 3422.22 58.90
1186 35.0630 3437.00 3422.09 58.63
1187 35.0800 3454.00 3421.95 58.77
1188 35.0970 3448.00 3421.81 58.72
1189 35.1140 3472.00 3421.68 58.92
1190 35.1310 3323.00 3421.54 57.65
1191 35.1480 3370.00 3421.40 58.05
1192 35.1650 3382.00 3421.26 58.15
1193 35.1820 3376.00 3421.12 58.10
1194 35.1990 3332.00 3420.98 57.72
1195 35.2160 3467.00 3420.84 58.88
1196 35.2330 3535.00 3420.70 59.46
1197 35.2500 3481.00 3420.56 59.00
1198 35.2670 3440.00 3420.42 58.65
1199 35.2840 3406.00 3420.28 58.36
1200 35.3010 3314.00 3452.26 57.57
1201 35.3180 3426.00 3452.65 58.53
1202 35.3350 3367.00 3453.05 58.03
1203 35.3520 3330.00 3453.47 57.71
1204 35.3690 3366.00 3453.90 58.02
1205 35.3860 3343.00 3470.27 57.82
1206 35.4030 3426.00 3470.99 58.53
1207 35.4200 3423.00 3471.74 58.51
1208 35.4370 3313.00 3472.51 57.56
1209 35.4540 3401.00 3473.30 58.32
1210 35.4710 3382.00 3474.12 58.15
1211 35.4880 3383.00 3474.96 58.16
1212 35.5050 3352.00 3475.83 57.90
1213 35.5220 3362.00 3476.72 57.98
1214 35.5390 3356.00 3477.64 57.93
1215 35.5560 3445.00 3478.60 58.69
1216 35.5730 3371.00 3479.58 58.06
1217 35.5900 3328.00 3480.59 57.69
1218 35.6070 3423.00 3481.64 58.51
1219 35.6240 3402.00 3482.72 58.33
1220 35.6410 3425.00 3483.84 58.52
1221 35.6580 3438.00 3484.99 58.63
1222 35.6750 3380.00 3486.19 58.14
1223 35.6920 3352.00 3487.42 57.90
1224 35.7090 3380.00 3488.69 58.14
1225 35.7260 3427.00 3490.01 58.54
1226 35.7430 3410.00 3491.37 58.40
1227 35.7600 3397.00 3492.77 58.28
1228 35.7770 3436.00 3494.23 58.62
1229 35.7940 3431.00 3495.74 58.57
1230 35.8110 3456.00 3497.29 58.79
1231 35.8280 3434.00 3498.91 58.60
1232 35.8450 3395.00 3500.58 58.27
1233 35.8620 3442.00 3502.31 58.67
1234 35.8790 3441.00 3504.11 58.66
1235 35.8960 3483.00 3505.97 59.02
1236 35.9130 3341.00 3507.90 57.80
1237 35.9300 3384.00 3509.90 58.17
1238 35.9470 3438.00 3511.98 58.63
1239 35.9640 3488.00 3514.13 59.06
1240 35.9810 3443.00 3516.37 58.68
1241 35.9980 3332.00 3518.70 57.72
1242 36.0150 3611.00 3521.11 60.09
1243 36.0320 3429.00 3523.62 58.56
1244 36.0490 3371.00 3526.24 58.06
1245 36.0660 3424.00 3528.95 58.51
1246 36.0830 3415.00 3531.78 58.44
1247 36.1000 3416.00 3534.73 58.45
1248 36.1170 3443.00 3537.79 58.68
1249 36.1340 3523.00 3540.99 59.35
1250 36.1510 3375.00 3544.32 58.09
1251 36.1680 3389.00 3547.80 58.22
1252 36.1850 3466.00 3551.43 58.87
1253 36.2020 3434.00 3555.22 58.60
1254 36.2190 3565.00 3559.18 59.71
1255 36.2360 3508.00 3563.32 59.23
1256 36.2530 3504.00 3567.66 59.19
1257 36.2700 3503.00 3572.19 59.19
1258 36.2870 3433.00 3576.94 58.59
1259 36.3040 3596.00 3581.92 59.97
1260 36.3210 3459.00 3587.14 58.81
1261 36.3380 3516.00 3592.61 59.30
1262 36.3550 3442.00 3598.36 58.67
1263 36.3720 3627.00 3604.41 60.22
1264 36.3890 3493.00 3610.77 59.10
1265 36.4060 3594.00 3617.46 59.95
1266 36.4230 3653.00 3624.51 60.44
1267 36.4400 3425.00 3631.94 58.52
1268 36.4570 3633.00 3639.79 60.27
1269 36.4740 3660.00 3648.07 60.50
1270 36.4910 3609.00 3656.83 60.08
1271 36.5080 3793.00 3666.10 61.59
1272 36.5250 3719.00 3675.91 60.98
1273 36.5420 3631.00 3686.32 60.26
1274 36.5590 3703.00 3697.38 60.85
1275 36.5760 3693.00 3709.12 60.77
1276 36.5930 3721.00 3721.63 61.00
1277 36.6100 3829.00 3734.95 61.88
1278 36.6270 3800.00 3749.16 61.64
1279 36.6440 3843.00 3764.34 61.99
1280 36.6610 3874.00 3780.58 62.24
1281 36.6780 3827.00 3797.98 61.86
1282 36.6950 3873.00 3816.66 62.23
1283 36.7120 3959.00 3836.74 62.92
1284 36.7290 3852.00 3858.35 62.06
1285 36.7460 3721.00 3881.68 61.00
1286 36.7630 3824.00 3906.88 61.84
1287 36.7800 3879.00 3934.19 62.28
1288 36.7970 3911.00 3963.82 62.54
1289 36.8140 3956.00 3996.07 62.90
1290 36.8310 3985.00 4031.21 63.13
1291 36.8480 3898.00 4069.66 62.43
1292 36.8650 3966.00 4111.78 62.98
1293 36.8820 4002.00 4158.08 63.26
1294 36.8990 4063.00 4209.17 63.74
1295 36.9160 4177.00 4265.66 64.63
1296 36.9330 4170.00 4328.41 64.58
1297 36.9500 4225.00 4398.31 65.00
1298 36.9670 4335.00 4476.56 65.84
1299 36.9840 4313.00 4564.47 65.67
1300 37.0010 4391.00 4663.77 66.26
1301 37.0180 4420.00 4776.43 66.48
1302 37.0350 4784.00 4905.00 69.17
1303 37.0520 4914.00 5052.71 70.10
1304 37.0690 5168.00 5223.41 71.89
1305 37.0860 5215.00 5422.32 72.21
1306 37.1030 5489.00 5655.94 74.09
1307 37.1200 5731.00 5933.47 75.70
1308 37.1370 5936.00 6267.33 77.05
1309 37.1540 6580.00 6676.57 81.12
1310 37.1710 7053.00 7189.69 83.98
1311 37.1880 7960.00 7852.14 89.22
1312 37.2050 8714.00 8733.68 93.35
1313 37.2220 9569.00 9938.27 97.82
1314 37.2390 11205.00 11614.30 105.85
1315 37.2560 13640.00 13954.70 116.79
1316 37.2730 17152.00 17190.00 130.97
1317 37.2900 21536.00 21524.20 146.75
1318 37.3070 27577.00 27016.80 166.06
1319 37.3240 34181.00 33447.90 184.88
1320 37.3410 41760.00 40477.10 204.35
1321 37.3580 49070.00 47764.80 221.52
1322 37.3750 56219.00 54324.70 237.10
1323 37.3920 59196.00 58161.90 243.30
1324 37.4090 58390.00 57932.70 241.64
1325 37.4260 54678.00 54553.70 233.83
1326 37.4430 49838.00 50040.50 223.24
1327 37.4600 44771.00 45455.90 211.59
1328 37.4770 40177.00 40491.40 200.44
1329 37.4940 34094.00 34728.60 184.65
1330 37.5110 28301.00 28632.60 168.23
1331 37.5280 22620.00 23025.70 150.40
1332 37.5450 18160.00 18402.40 134.76
1333 37.5620 14914.00 14847.10 122.12
1334 37.5790 12113.00 12226.30 110.06
1335 37.5960 10297.00 10343.40 101.47
1336 37.6130 8984.00 9000.02 94.78
1337 37.6300 7993.00 8032.79 89.40
1338 37.6470 7225.00 7317.89 85.00
1339 37.6640 6618.00 6772.06 81.35
1340 37.6810 6172.00 6341.13 78.56
1341 37.6980 5816.00 5991.70 76.26
1342 37.7150 5558.00 5702.61 74.55
1343 37.7320 5286.00 5459.90 72.70
1344 37.7490 5054.00 5253.88 71.09
1345 37.7660 4816.00 5077.29 69.40
1346 37.7830 4776.00 4924.87 69.11
1347 37.8000 4698.00 4792.28 68.54
1348 37.8170 4614.00 4676.29 67.93
1349 37.8340 4429.00 4574.19 66.55
1350 37.8510 4438.00 4483.84 66.62
1351 37.8680 4393.00 4403.51 66.28
1352 37.8850 4263.00 4331.76 65.29
1353 37.9020 4200.00 4267.41 64.81
1354 37.9190 4111.00 4209.47 64.12
1355 37.9360 4153.00 4157.12 64.44
1356 37.9530 4109.00 4109.63 64.10
1357 37.9700 4041.00 4066.46 63.57
1358 37.9870 4014.00 4027.05 63.36
1359 38.0040 3939.00 3991.02 62.76
1360 38.0210 3898.00 3957.95 62.43
1361 38.0380 3930.00 3927.55 62.69
1362 38.0550 3885.00 3899.53 62.33
1363 38.0720 3943.00 3873.65 62.79
1364 38.0890 3871.00 3849.69 62.22
1365 38.1060 3921.00 3827.46 62.62
1366 38.1230 3820.00 3806.81 61.81
1367 38.1400 3792.00 3787.58 61.58
1368 38.1570 3798.00 3769.65 61.63
1369 38.1740 3828.00 3752.90 61.87
1370 38.1910 3851.00 3737.22 62.06
1371 38.2080 3824.00 3722.54 61.84
1372 38.2250 3762.00 3708.75 61.34
1373 38.2420 3771.00 3695.80 61.41
1374 38.2590 3719.00 3683.61 60.98
1375 38.2760 3597.00 3672.13 59.97
1376 38.2930 3557.00 3661.30 59.64
1377 38.3100 3767.00 3651.07 61.38
1378 38.3270 3688.00 3641.40 60.73
1379 38.3440 3763.00 3632.25 61.34
1380 38.3610 3783.00 3623.57 61.51
1381 38.3780 3699.00 3615.34 60.82
1382 38.3950 3735.00 3607.53 61.11
1383 38.4120 3758.00 3600.11 61.30
1384 38.4290 3773.00 3593.04 61.42
1385 38.4460 3618.00 3586.32 60.15
1386 38.4630 3605.00 3579.91 60.04
1387 38.4800 3728.00 3573.80 61.06
1388 38.4970 3644.00 3567.97 60.37
1389 38.5140 3624.00 3562.39 60.20
1390 38.5310 3568.00 3557.07 59.73
1391 38.5480 3713.00 3551.97 60.93
1392 38.5650 3739.00 3547.09 61.15
1393 38.5820 3725.00 3542.42 61.03
1394 38.5990 3557.00 3537.93 59.64
1395 38.6160 3560.00 3533.63 59.67
1396 38.6330 3549.00 3529.50 59.57
1397 38.6500 3626.00 3525.54 60.22
1398 38.6670 3581.00 3521.73 59.84
1399 38.6840 3558.00 3518.06 59.65
1400 38.7010 3600.00 3514.53 60.00
1401 38.7180 3622.00 3511.14 60.18
1402 38.7350 3579.00 3507.86 59.82
1403 38.7520 3597.00 3504.71 59.97
1404 38.7690 3514.00 3501.67 59.28
1405 38.7860 3443.00 3498.73 58.68
1406 38.8030 3514.00 3495.89 59.28
1407 38.8200 3551.00 3493.15 59.59
1408 38.8370 3508.00 3490.51 59.23
1409 38.8540 3474.00 3487.95 58.94
1410 38.8710 3526.00 3485.47 59.38
1411 38.8880 3512.00 3483.08 59.26
1412 38.9050 3430.00 3480.76 58.57
1413 38.9220 3485.00 3478.51 59.03
1414 38.9390 3514.00 3476.33 59.28
1415 38.9560 3554.00 3474.22 59.62
1416 38.9730 3506.00 3472.17 59.21
1417 38.9900 3379.00 3470.19 58.13
1418 39.0070 3492.00 3468.26 59.09
1419 39.0240 3469.00 3466.38 58.90
1420 39.0410 3446.00 3464.56 58.70
1421 39.0580 3427.00 3462.80 58.54
1422 39.0750 3538.00 3461.08 59.48
1423 39.0920 3560.00 3459.40 59.67
1424 39.1090 3478.00 3457.78 58.97
1425 39.1260 3461.00 3456.20 58.83
1426 39.1430 3551.00 3454.65 59.59
1427 39.1600 3499.00 3453.15 59.15
1428 39.1770 3402.00 3451.69 58.33
1429 39.1940 3516.00 3450.27 59.30
1430 39.2110 3523.00 3448.88 59.35
1431 39.2280 3518.00 3447.52 59.31
1432 39.2450 3423.00 3446.20 58.51
1433 39.2620 3546.00 3444.91 59.55
1434 39.2790 3450.00 3443.65 58.74
1435 39.2960 3391.00 3442.43 58.23
1436 39.3130 3420.00 3441.23 58.48
1437 39.3300 3490.00 3440.05 59.08
1438 39.3470 3456.00 3438.91 58.79
1439 39.3640 3448.00 3437.79 58.72
1440 39.3810 3383.00 3436.69 58.16
1441 39.3980 3370.00 3435.62 58.05
1442 39.4150 3366.00 3434.57 58.02
1443 39.4320 3412.00 3433.55 58.41
1444 39.4490 3388.00 3399.95 58.21
1445 39.4660 3419.00 3399.49 58.47
1446 39.4830 3542.00 3399.05 59.51
1447 39.5000 3414.00 3398.61 58.43
1448 39.5170 3412.00 3398.18 58.41
1449 39.5340 3474.00 3381.64 58.94
1450 39.5510 3465.00 3381.48 58.86
1451 39.5680 3493.00 3381.33 59.10
1452 39.5850 3535.00 3381.17 59.46
1453 39.6020 3516.00 3381.02 59.30
1454 39.6190 3422.00 3380.86 58.50
1455 39.6360 3435.00 3380.70 58.61
1456 39.6530 3435.00 3380.55 58.61
1457 39.6700 3385.00 3380.39 58.18
1458 39.6870 3428.00 3380.24 58.55
1459 39.7040 3416.00 3380.08 58.45
1460 39.7210 3504.00 3379.93 59.19
1461 39.7380 3380.00 3379.77 58.14
1462 39.7550 3365.00 3379.62 58.01
1463 39.7720 3467.00 3379.46 58.88
1464 39.7890 3369.00 3379.31 58.04
1465 39.8060 3406.00 3379.16 58.36
1466 39.8230 3433.00 3379.00 58.59
1467 39.8400 3440.00 3378.85 58.65
1468 39.8570 3454.00 3378.69 58.77
1469 39.8740 3571.00 3378.54 59.76
1470 39.8910 3619.00 3378.38 60.16
1471 39.9080 3492.00 3378.23 59.09
1472 39.9250 3471.00 3378.08 58.92
1473 39.9420 3398.00 3377.92 58.29
1474 39.9590 3487.00 3377.77 59.05
1475 39.9760 3488.00 3377.61 59.06
1476 39.9930 3509.00 3377.46 59.24
1477 40.0100 3497.00 3377.31 59.14
1478 40.0270 3400.00 3377.15 58.31
1479 40.0440 3490.00 3377.00 59.08
1480 40.0610 3390.00 3376.85 58.22
1481 40.0780 3580.00 3376.70 59.83
1482 40.0950 3450.00 3376.54 58.74
1483 40.1120 3487.00 3376.39 59.05
1484 40.1290 3431.00 3376.24 58.57
1485 40.1460 3389.00 3376.08 58.22
1486 40.1630 3453.00 3375.93 58.76
1487 40.1800 3449.00 3375.78 58.73
1488 40.1970 3337.00 3375.63 57.77
1489 40.2140 3468.00 3375.48 58.89
1490 40.2310 3400.00 3375.32 58.31
1491 40.2480 3321.00 3375.17 57.63
1492 40.2650 3500.00 3375.02 59.16
1493 40.2820 3539.00 3374.87 59.49
1494 40.2990 3374.00 3374.72 58.09
1495 40.3160 3341.00 3374.56 57.80
1496 40.3330 3401.00 3374.41 58.32
1497 40.3500 3519.00 3374.26 59.32
1498 40.3670 3469.00 3374.11 58.90
1499 40.3840 3430.00 3373.96 58.57
1500 40.4010 3424.00 3373.81 58.51
1501 40.4180 3566.00 3373.66 59.72
1502 40.4350 3509.00 3373.51 59.24
1503 40.4520 3323.00 3373.36 57.65
1504 40.4690 3344.00 3373.21 57.83
1505 40.4860 3391.00 3373.06 58.23
1506 40.5030 3435.00 3372.91 58.61
1507 40.5200 3378.00 3372.76 58.12
1508 40.5370 3473.00 3372.61 58.93
1509 40.5540 3516.00 3372.46 59.30
1510 40.5710 3495.00 3372.31 59.12
1511 40.5880 3494.00 3372.16 59.11
1512 40.6050 3412.00 3372.01 58.41
1513 40.6220 3268.00 3371.86 57.17
1514 40.6390 3339.00 3371.71 57.78
1515 40.6560 3455.00 3371.56 58.78
1516 40.6730 3557.00 3371.41 59.64
1517 40.6900 3473.00 3371.26 58.93
1518 40.7070 3518.00 3371.11 59.31
1519 40.7240 3518.00 3370.96 59.31
1520 40.7410 3369.00 3370.82 58.04
1521 40.7580 3391.00 3370.67 58.23
1522 40.7750 3432.00 3370.52 58.58
1523 40.7920 3366.00 3370.37 58.02
1524 40.8090 3413.00 3370.22 58.42
1525 40.8260 3490.00 3370.07 59.08
1526 40.8430 3388.00 3369.93 58.21
1527 40.8600 3387.00 3369.78 58.20
1528 40.8770 3337.00 3369.63 57.77
1529 40.8940 3523.00 3369.48 59.35
1530 40.9110 3560.00 3369.34 59.67
1531 40.9280 3477.00 3369.19 58.97
1532 40.9450 3385.00 3369.04 58.18
1533 40.9620 3381.00 3368.90 58.15
1534 40.9790 3402.00 3368.75 58.33
1535 40.9960 3366.00 3368.60 58.02
1536 41.0130 3410.00 3368.46 58.40
1537 41.0300 3336.00 3368.31 57.76
1538 41.0470 3335.00 3368.16 57.75
1539 41.0640 3372.00 3368.02 58.07
1540 41.0810 3385.00 3367.87 58.18
1541 41.0980 3394.00 3367.73 58.26
1542 41.1150 3386.00 3367.58 58.19
1543 41.1320 3396.00 3367.44 58.28
1544 41.1490 3452.00 3367.29 58.75
1545 41.1660 3409.00 3367.15 58.39
1546 41.1830 3516.00 3367.00 59.30
1547 41.2000 3466.00 3366.86 58.87
1548 41.2170 3532.00 3366.71 59.43
1549 41.2340 3480.00 3366.57 58.99
1550 41.2510 3412.00 3366.42 58.41
1551 41.2680 3386.00 3366.28 58.19
1552 41.2850 3484.00 3366.13 59.03
1553 41.3020 3440.00 3365.99 58.65
1554 41.3190 3308.00 3365.85 57.52
1555 41.3360 3380.00 3365.70 58.14
1556 41.3530 3395.00 3365.56 58.27
1557 41.3700 3361.00 3365.42 57.97
1558 41.3870 3309.00 3365.27 57.52
1559 41.4040 3369.00 3365.13 58.04
1560 41.4210 3385.00 3364.99 58.18
1561 41.4380 3347.00 3364.84 57.85
1562 41.4550 3258.00 3364.70 57.08
1563 41.4720 3320.00 3364.56 57.62
1564 41.4890 3367.00 3364.42 58.03
1565 41.5060 3320.00 3364.28 57.62
1566 41.5230 3366.00 3364.13 58.02
1567 41.5400 3373.00 3363.99 58.08
1568 41.5570 3352.00 3363.85 57.90
1569 41.5740 3296.00 3363.71 57.41
1570 41.5910 3274.00 3363.57 57.22
1571 41.6080 3338.00 3363.43 57.78
1572 41.6250 3386.00 3363.29 58.19
1573 41.6420 3360.00 3363.14 57.97
1574 41.6590 3350.00 3363.00 57.88
1575 41.6760 3316.00 3362.86 57.58
1576 41.6930 3392.00 3362.72 58.24
1577 41.7100 3379.00 3362.58 58.13
1578 41.7270 3401.00 3362.44 58.32
1579 41.7440 3355.00 3362.30 57.92
1580 41.7610 3357.00 3362.16 57.94
1581 41.7780 3419.00 3362.02 58.47
1582 41.7950 3335.00 3361.88 57.75
1583 41.8120 3298.00 3361.75 57.43
1584 41.8290 3423.00 3361.61 58.51
1585 41.8460 3455.00 3361.47 58.78
1586 41.8630 3453.00 3361.33 58.76
1587 41.8800 3435.00 3361.19 58.61
1588 41.8970 3435.00 3361.05 58.61
1589 41.9140 3391.00 3360.91 58.23
1590 41.9310 3338.00 3360.78 57.78
1591 41.9480 3355.00 3360.64 57.92
1592 41.9650 3462.00 3360.50 58.84
1593 41.9820 3423.00 3360.36 58.51
1594 41.9990 3414.00 3360.22 58.43
1595 42.0160 3321.00 3360.09 57.63
1596 42.0330 3449.00 3359.95 58.73
1597 42.0500 3462.00 3359.81 58.84
1598 42.0670 3423.00 3359.68 58.51
1599 42.0840 3321.00 3359.54 57.63
1600 42.1010 3469.00 3359.40 58.90
1601 42.1180 3340.00 3359.27 57.79
1602 42.1350 3551.00 3359.13 59.59
1603 42.1520 3479.00 3359.00 58.98
1604 42.1690 3443.00 3358.86 58.68
1605 42.1860 3444.00 3358.72 58.69
1606 42.2030 3393.00 3358.59 58.25
1607 42.2200 3249.00 3358.45 57.00
1608 42.2370 3239.00 3358.32 56.91
1609 42.2540 3330.00 3358.18 57.71
1610 42.2710 3343.00 3358.05 57.82
1611 42.2880 3352.00 3357.92 57.90
1612 42.3050 3382.00 3357.78 58.15
1613 42.3220 3401.00 3357.65 58.32
1614 42.3390 3353.00 3357.51 57.91
1615 42.3560 3364.00 3357.38 58.00
1616 42.3730 3396.00 3357.25 58.28
1617 42.3900 3393.00 3357.11 58.25
1618 42.4070 3369.00 3356.98 58.04
1619 42.4240 3446.00 3356.85 58.70
1620 42.4410 3486.00 3356.71 59.04
1621 42.4580 3390.00 3356.58 58.22
1622 42.4750 3404.00 3356.45 58.34
1623 42.4920 3374.00 3356.32 58.09
1624 42.5090 3438.00 3356.18 58.63
1625 42.5260 3466.00 3356.05 58.87
1626 42.5430 3358.00 3355.92 57.95
1627 42.5600 3409.00 3355.79 58.39
1628 42.5770 3352.00 3355.66 57.90
1629 42.5940 3300.00 3355.53 57.45
1630 42.6110 3359.00 3355.39 57.96
1631 42.6280 3426.00 3355.26 58.53
1632 42.6450 3416.00 3355.13 58.45
1633 42.6620 3415.00 3355.00 58.44
1634 42.6790 3423.00 3354.87 58.51
1635 42.6960 3398.00 3354.74 58.29
1636 42.7130 3398.00 3354.61 58.29
1637 42.7300 3423.00 3354.48 58.51
1638 42.7470 3381.00 3354.35 58.15
1639 42.7640 3369.00 3354.22 58.04
1640 42.7810 3435.00 3354.09 58.61
1641 42.7980 3414.00 3353.97 58.43
1642 42.8150 3423.00 3353.84 58.51
1643 42.8320 3410.00 3353.71 58.40
1644 42.8490 3430.00 3353.58 58.57
1645 42.8660 3430.00 3353.45 58.57
1646 42.8830 3328.00 3353.32 57.69
1647 42.9000 3332.00 3353.20 57.72
1648 42.9170 3374.00 3353.07 58.09
1649 42.9340 3460.00 3352.94 58.82
1650 42.9510 3347.00 3352.81 57.85
1651 42.9680 3272.00 3352.69 57.20
1652 42.9850 3298.00 3352.56 57.43
1653 43.0020 3329.00 3352.43 57.70
1654 43.0190 3358.00 3352.31 57.95
1655 43.0360 3471.00 3352.18 58.92
1656 43.0530 3448.00 3352.05 58.72
1657 43.0700 3478.00 3351.93 58.97
1658 43.0870 3354.00 3351.80 57.91
1659 43.1040 3343.00 3351.68 57.82
1660 43.1210 3273.00 3351.55 57.21
1661 43.1380 3361.00 3351.43 57.97
1662 43.1550 3279.00 3351.30 57.26
1663 43.1720 3294.00 3351.18 57.39
1664 43.1890 3351.00 3351.05 57.89
1665 43.2060 3379.00 3350.93 58.13
1666 43.2230 3272.00 3350.80 57.20
1667 43.2400 3235.00 3350.68 56.88
1668 43.2570 3370.00 3350.55 58.05
1669 43.2740 3361.00 3350.43 57.97
1670 43.2910 3301.00 3350.31 57.45
1671 43.3080 3361.00 3350.18 57.97
1672 43.3250 3315.00 3350.06 57.58
1673 43.3420 3280.00 3349.94 57.27
1674 43.3590 3297.00 3349.82 57.42
1675 43.3760 3260.00 3349.69 57.10
1676 43.3930 3393.00 3349.57 58.25
1677 43.4100 3311.00 3349.45 57.54
1678 43.4270 3404.00 3349.33 58.34
1679 43.4440 3372.00 3349.21 58.07
1680 43.4610 3272.00 3349.08 57.20
1681 43.4780 3279.00 3348.96 57.26
1682 43.4950 3259.00 3348.84 57.09
1683 43.5120 3387.00 3348.72 58.20
1684 43.5290 3395.00 3348.60 58.27
1685 43.5460 3262.00 3348.48 57.11
1686 43.5630 3256.00 3348.36 57.06
1687 43.5800 3288.00 3348.24 57.34
1688 43.5970 3347.00 3348.12 57.85
1689 43.6140 3434.00 3348.00 58.60
1690 43.6310 3403.00 3347.88 58.34
1691 43.6480 3351.00 3347.76 57.89
1692 43.6650 3327.00 3347.64 57.68
1693 43.6820 3356.00 3347.52 57.93
1694 43.6990 3294.00 3347.40 57.39
1695 43.7160 3263.00 3347.29 57.12
1696 43.7330 3299.00 3347.17 57.44
1697 43.7500 3339.00 3347.05 57.78
1698 43.7670 3349.00 3346.93 57.87
1699 43.7840 3369.00 3346.81 58.04
1700 43.8010 3291.00 3346.70 57.37
1701 43.8180 3272.00 3346.58 57.20
1702 43.8350 3278.00 3346.46 57.25
1703 43.8520 3251.00 3346.35 57.02
1704 43.8690 3364.00 3346.23 58.00
1705 43.8860 3262.00 3346.11 57.11
1706 43.9030 3379.00 3346.00 58.13
1707 43.9200 3390.00 3345.88 58.22
1708 43.9370 3503.00 3345.76 59.19
1709 43.9540 3277.00 3345.65 57.25
1710 43.9710 3289.00 3345.53 57.35
1711 43.9880 3399.00 3345.42 58.30
1712 44.0050 3399.00 3345.82 58.30
1713 44.0220 3447.00 3345.72 58.71
1714 44.0390 3359.00 3345.61 57.96
1715 44.0560 3444.00 3345.50 58.69
1716 44.0730 3372.00 3345.40 58.07
1717 44.0900 3296.00 3345.29 57.41
1718 44.1070 3475.00 3345.45 58.95
1719 44.1240 3489.00 3345.35 59.07
1720 44.1410 3355.00 3345.25 57.92
1721 44.1580 3343.00 3345.15 57.82
1722 44.1750 3426.00 3345.05 58.53
1723 44.1920 3412.00 3344.95 58.41
1724 44.2090 3496.00 3344.85 59.13
1725 44.2260 3501.00 3344.76 59.17
1726 44.2430 3381.00 3344.66 58.15
1727 44.2600 3559.00 3344.56 59.66
1728 44.2770 3408.00 3344.47 58.38
1729 44.2940 3429.00 3344.37 58.56
1730 44.3110 3450.00 3344.28 58.74
1731 44.3280 3335.00 3344.19 57.75
1732 44.3450 3412.00 3344.09 58.41
1733 44.3620 3556.00 3344.00 59.63
1734 44.3790 3394.00 3343.91 58.26
1735 44.3960 3434.00 3343.82 58.60
1736 44.4130 3300.00 3343.73 57.45
1737 44.4300 3312.00 3343.64 57.55
1738 44.4470 3444.00 3343.55 58.69
1739 44.4640 3389.00 3343.47 58.22
1740 44.4810 3284.00 3343.38 57.31
1741 44.4980 3214.00 3343.29 56.69
1742 44.5150 3270.00 3343.21 57.18
1743 44.5320 3265.00 3343.13 57.14
1744 44.5490 3319.00 3343.04 57.61
1745 44.5660 3443.00 3342.96 58.68
1746 44.5830 3427.00 3342.88 58.54
1747 44.6000 3422.00 3342.80 58.50
1748 44.6170 3307.00 3342.72 57.51
1749 44.6340 3325.00 3342.64 57.66
1750 44.6510 3357.00 3342.57 57.94
1751 44.6680 3333.00 3342.49 57.73
1752 44.6850 3352.00 3342.42 57.90
1753 44.7020 3389.00 3342.35 58.22
1754 44.7190 3407.00 3342.27 58.37
1755 44.7360 3259.00 3342.20 57.09
1756 44.7530 3207.00 3342.14 56.63
1757 44.7700 3320.00 3342.07 57.62
1758 44.7870 3302.00 3342.00 57.46
1759 44.8040 3420.00 3341.94 58.48
1760 44.8210 3288.00 3341.88 57.34
1761 44.8380 3220.00 3341.82 56.74
1762 44.8550 3251.00 3341.76 57.02
1763 44.8720 3317.00 3341.70 57.59
1764 44.8890 3360.00 3341.65 57.97
1765 44.9060 3269.00 3341.59 57.18
1766 44.9230 3287.00 3341.54 57.33
1767 44.9400 3384.00 3341.50 58.17
1768 44.9570 3382.00 3341.45 58.15
1769 44.9740 3364.00 3341.41 58.00
1770 44.9910 3395.00 3341.37 58.27
1771 45.0080 3348.00 3341.33 57.86
1772 45.0250 3334.00 3341.29 57.74
1773 45.0420 3210.00 3341.26 56.66
1774 45.0590 3344.00 3341.23 57.83
1775 45.0760 3343.00 3341.21 57.82
1776 45.0930 3358.00 3341.18 57.95
1777 45.1100 3384.00 3341.16 58.17
1778 45.1270 3295.00 3341.15 57.40
1779 45.1440 3380.00 3341.14 58.14
1780 45.1610 3312.00 3341.13 57.55
1781 45.1780 3310.00 3341.13 57.53
1782 45.1950 3307.00 3341.14 57.51
1783 45.2120 3313.00 3341.15 57.56
1784 45.2290 3260.00 3341.16 57.10
1785 45.2460 3246.00 3341.18 56.97
1786 45.2630 3418.00 3341.21 58.46
1787 45.2800 3390.00 3341.24 58.22
1788 45.2970 3238.00 3341.29 56.90
1789 45.3140 3265.00 3341.33 57.14
1790 45.3310 3188.00 3341.39 56.46
1791 45.3480 3270.00 3341.46 57.18
1792 45.3650 3230.00 3341.54 56.83
1793 45.3820 3322.00 3341.62 57.64
1794 45.3990 3403.00 3341.72 58.34
1795 45.4160 3441.00 3341.83 58.66
1796 45.4330 3412.00 3341.95 58.41
1797 45.4500 3422.00 3342.09 58.50
1798 45.4670 3330.00 3342.24 57.71
1799 45.4840 3206.00 3342.41 56.62
1800 45.5010 3388.00 3342.60 58.21
1801 45.5180 3415.00 3342.81 58.44
1802 45.5350 3363.00 3343.04 57.99
1803 45.5520 3351.00 3343.29 57.89
1804 45.5690 3374.00 3343.57 58.09
1805 45.5860 3313.00 3343.88 57.56
1806 45.6030 3282.00 3344.21 57.29
1807 45.6200 3321.00 3344.59 57.63
1808 45.6370 3345.00 3345.00 57.84
1809 45.6540 3348.00 3345.46 57.86
1810 45.6710 3456.00 3345.96 58.79
1811 45.6880 3373.00 3346.52 58.08
1812 45.7050 3383.00 3347.14 58.16
1813 45.7220 3441.00 3347.83 58.66
1814 45.7390 3491.00 3348.60 59.08
1815 45.7560 3487.00 3349.45 59.05
1816 45.7730 3464.00 3350.40 58.86
1817 45.7900 3362.00 3351.47 57.98
1818 45.8070 3291.00 3352.67 57.37
1819 45.8240 3281.00 3354.03 57.28
1820 45.8410 3336.00 3355.56 57.76
1821 45.8580 3403.00 3357.30 58.34
1822 45.8750 3444.00 3359.29 58.69
1823 45.8920 3268.00 3361.57 57.17
1824 45.9090 3270.00 3364.20 57.18
1825 45.9260 3380.00 3367.25 58.14
1826 45.9430 3253.00 3370.81 57.04
1827 45.9600 3401.00 3375.01 58.32
1828 45.9770 3318.00 3380.00 57.60
1829 45.9940 3366.00 3386.01 58.02
1830 46.0110 3414.00 3393.38 58.43
1831 46.0280 3478.00 3402.61 58.97
1832 46.0450 3489.00 3414.48 59.07
1833 46.0620 3463.00 3430.15 58.85
1834 46.0790 3534.00 3451.36 59.45
1835 46.0960 3579.00 3480.52 59.82
1836 46.1130 3651.00 3520.70 60.42
1837 46.1300 3637.00 3575.30 60.31
1838 46.1470 3901.00 3647.37 62.46
1839 46.1640 3961.00 3737.72 62.94
1840 46.1810 4217.00 3842.77 64.94
1841 46.1980 4182.00 3952.98 64.67
1842 46.2150 4491.00 4053.20 67.01
1843 46.2320 4464.00 4122.06 66.81
1844 46.2490 4508.00 4139.56 67.14
1845 46.2660 4505.00 4107.66 67.12
1846 46.2830 4466.00 4051.25 66.83
1847 46.3000 4337.00 3994.24 65.86
1848 46.3170 4325.00 3945.19 65.76
1849 46.3340 4135.00 3898.39 64.30
1850 46.3510 3964.00 3841.77 62.96
1851 46.3680 4091.00 3770.49 63.96
1852 46.3850 3943.00 3692.51 62.79
1853 46.4020 3701.00 3619.32 60.84
1854 46.4190 3621.00 3557.52 60.17
1855 46.4360 3593.00 3508.55 59.94
1856 46.4530 3550.00 3471.22 59.58
1857 46.4700 3472.00 3443.42 58.92
1858 46.4870 3464.00 3422.88 58.86
1859 46.5040 3493.00 3407.65 59.10
1860 46.5210 3486.00 3396.15 59.04
1861 46.5380 3492.00 3387.24 59.09
1862 46.5550 3349.00 3380.14 57.87
1863 46.5720 3361.00 3374.35 57.97
1864 46.5890 3334.00 3369.53 57.74
1865 46.6060 3284.00 3365.45 57.31
1866 46.6230 3357.00 3361.96 57.94
1867 46.6400 3327.00 3358.94 57.68
1868 46.6570 3351.00 3356.32 57.89
1869 46.6740 3386.00 3354.02 58.19
1870 46.6910 3373.00 3351.99 58.08
1871 46.7080 3264.00 3350.19 57.13
1872 46.7250 3284.00 3348.58 57.31
1873 46.7420 3295.00 3347.13 57.40
1874 46.7590 3399.00 3345.83 58.30
1875 46.7760 3378.00 3344.66 58.12
1876 46.7930 3380.00 3343.59 58.14
1877 46.8100 3353.00 3342.61 57.91
1878 46.8270 3275.00 3341.72 57.23
1879 46.8440 3327.00 3340.90 57.68
1880 46.8610 3302.00 3340.14 57.46
1881 46.8780 3308.00 3339.44 57.52
1882 46.8950 3228.00 3338.79 56.82
1883 46.9120 3298.00 3338.19 57.43
1884 46.9290 3338.00 3337.62 57.78
1885 46.9460 3378.00 3337.10 58.12
1886 46.9630 3244.00 3336.60 56.96
1887 46.9800 3291.00 3336.14 57.37
1888 46.9970 3405.00 3335.70 58.35
1889 47.0140 3340.00 3335.29 57.79
1890 47.0310 3333.00 3334.90 57.73
1891 47.0480 3377.00 3334.53 58.11
1892 47.0650 3243.00 3334.18 56.95
1893 47.0820 3332.00 3333.85 57.72
1894 47.0990 3359.00 3333.54 57.96
1895 47.1160 3384.00 3333.23 58.17
1896 47.1330 3349.00 3332.94 57.87
1897 47.1500 3322.00 3332.67 57.64
1898 47.1670 3277.00 3332.40 57.25
1899 47.1840 3242.00 3332.15 56.94
1900 47.2010 3390.00 3331.91 58.22
1901 47.2180 3307.00 3331.67 57.51
1902 47.2350 3273.00 3331.45 57.21
1903 47.2520 3351.00 3331.23 57.89
1904 47.2690 3324.00 3331.02 57.65
1905 47.2860 3374.00 3330.81 58.09
1906 47.3030 3365.00 3330.62 58.01
1907 47.3200 3388.00 3330.43 58.21
1908 47.3370 3321.00 3330.24 57.63
1909 47.3540 3242.00 3330.06 56.94
1910 47.3710 3256.00 3329.89 57.06
1911 47.3880 3303.00 3329.72 57.47
1912 47.4050 3287.00 3329.55 57.33
1913 47.4220 3319.00 3329.39 57.61
1914 47.4390 3264.00 3329.24 57.13
1915 47.4560 3271.00 3329.08 57.19
1916 47.4730 3284.00 3328.93 57.31
1917 47.4900 3301.00 3328.79 57.45
1918 47.5070 3320.00 3328.64 57.62
1919 47.5240 3368.00 3328.50 58.03
1920 47.5410 3443.00 3328.37 58.68
1921 47.5580 3407.00 3328.23 58.37
1922 47.5750 3339.00 3328.10 57.78
1923 47.5920 3337.00 3327.97 57.77
1924 47.6090 3360.00 3327.85 57.97
1925 47.6260 3375.00 3327.72 58.09
1926 47.6430 3341.00 3327.60 57.80
1927 47.6600 3297.00 3327.48 57.42
1928 47.6770 3215.00 3327.36 56.70
1929 47.6940 3335.00 3327.25 57.75
1930 47.7110 3340.00 3327.13 57.79
1931 47.7280 3282.00 3327.02 57.29
1932 47.7450 3217.00 3326.91 56.72
1933 47.7620 3285.00 3326.80 57.31
1934 47.7790 3321.00 3326.69 57.63
1935 47.7960 3290.00 3326.59 57.36
1936 47.8130 3293.00 3326.48 57.38
1937 47.8300 3390.00 3326.38 58.22
1938 47.8470 3255.00 3326.28 57.05
1939 47.8640 3249.00 3326.18 57.00
1940 47.8810 3285.00 3326.08 57.31
1941 47.8980 3264.00 3325.98 57.13
1942 47.9150 3183.00 3325.89 56.42
1943 47.9320 3195.00 3325.79 56.52
1944 47.9490 3291.00 3325.69 57.37
1945 47.9660 3375.00 3325.60 58.09
1946 47.9830 3243.00 3325.51 56.95
1947 48.0000 3318.00 3325.42 57.60
1948 48.0170 3348.00 3325.33 57.86
1949 48.0340 3285.00 3325.24 57.31
1950 48.0510 3249.00 3325.15 57.00
1951 48.0680 3129.00 3325.06 55.94
1952 48.0850 3350.00 3324.97 57.88
1953 48.1020 3396.00 3324.89 58.28
1954 48.1190 3391.00 3324.80 58.23
1955 48.1360 3320.00 3324.72 57.62
1956 48.1530 3361.00 3324.63 57.97
1957 48.1700 3323.00 3324.55 57.65
1958 48.1870 3350.00 3324.47 57.88
1959 48.2040 3234.00 3324.38 56.87
1960 48.2210 3268.00 3324.30 57.17
1961 48.2380 3327.00 3324.22 57.68
1962 48.2550 3203.00 3324.14 56.60
1963 48.2720 3380.00 3324.06 58.14
1964 48.2890 3313.00 3323.98 57.56
1965 48.3060 3343.00 3323.91 57.82
1966 48.3230 3358.00 3323.83 57.95
1967 48.3400 3288.00 3323.75 57.34
1968 48.3570 3268.00 3323.67 57.17
1969 48.3740 3367.00 3323.60 58.03
1970 48.3910 3293.00 3323.52 57.38
1971 48.4080 3304.00 3323.45 57.48
1972 48.4250 3484.00 3323.37 59.03
1973 48.4420 3405.00 3323.30 58.35
1974 48.4590 3318.00 3322.71 57.60
1975 48.4760 3305.00 3322.64 57.49
1976 48.4930 3415.00 3322.58 58.44
1977 48.5100 3319.00 3322.51 57.61
1978 48.5270 3299.00 3322.45 57.44
1979 48.5440 3371.00 3322.38 58.06
1980 48.5610 3367.00 3322.32 58.03
1981 48.5780 3385.00 3322.00 58.18
1982 48.5950 3319.00 3321.94 57.61
1983 48.6120 3307.00 3321.88 57.51
1984 48.6290 3218.00 3321.82 56.73
1985 48.6460 3303.00 3321.77 57.47
1986 48.6630 3329.00 3321.71 57.70
1987 48.6800 3258.00 3321.65 57.08
1988 48.6970 3315.00 3321.59 57.58
1989 48.7140 3349.00 3321.53 57.87
1990 48.7310 3361.00 3321.48 57.97
1991 48.7480 3393.00 3321.42 58.25
1992 48.7650 3353.00 3321.36 57.91
1993 48.7820 3306.00 3321.30 57.50
1994 48.7990 3405.00 3321.25 58.35
1995 48.8160 3345.00 3321.19 57.84
1996 48.8330 3240.00 3321.13 56.92
1997 48.8500 3250.00 3321.08 57.01
1998 48.8670 3247.00 3321.02 56.98
1999 48.8840 3335.00 3320.97 57.75
2000 48.9010 3318.00 3320.91 57.60
2001 48.9180 3191.00 3320.85 56.49
2002 48.9350 3215.00 3320.80 56.70
2003 48.9520 3395.00 3320.74 58.27
2004 48.9690 3320.00 3320.69 57.62
2005 48.9860 3265.00 3320.63 57.14
2006 49.0030 3269.00 3320.58 57.18
2007 49.0200 3408.00 3320.52 58.38
2008 49.0370 3454.00 3320.47 58.77
2009 49.0540 3295.00 3320.42 57.40
2010 49.0710 3260.00 3320.36 57.10
2011 49.0880 3180.00 3320.31 56.39
2012 49.1050 3268.00 3320.25 57.17
2013 49.1220 3248.00 3320.20 56.99
2014 49.1390 3325.00 3320.15 57.66
2015 49.1560 3358.00 3320.10 57.95
2016 49.1730 3346.00 3320.04 57.84
2017 49.1900 3363.00 3319.99 57.99
2018 49.2070 3331.00 3319.94 57.71
2019 49.2240 3281.00 3319.88 57.28
2020 49.2410 3326.00 3319.83 57.67
2021 49.2580 3247.00 3319.78 56.98
2022 49.2750 3236.00 3319.73 56.89
2023 49.2920 3302.00 3319.68 57.46
2024 49.3090 3288.00 3319.63 57.34
2025 49.3260 3236.00 3319.57 56.89
2026 49.3430 3236.00 3319.52 56.89
2027 49.3600 3322.00 3319.47 57.64
2028 49.3770 3256.00 3319.42 57.06
2029 49.3940 3275.00 3319.37 57.23
2030 49.4110 3345.00 3319.32 57.84
2031 49.4280 3295.00 3319.27 57.40
2032 49.4450 3276.00 3319.22 57.24
2033 49.4620 3323.00 3319.17 57.65
2034 49.4790 3271.00 3319.12 57.19
2035 49.4960 3274.00 3319.07 57.22
2036 49.5130 3328.00 3319.02 57.69
2037 49.5300 3242.00 3318.97 56.94
2038 49.5470 3241.00 3318.92 56.93
2039 49.5640 3273.00 3318.87 57.21
2040 49.5810 3238.00 3318.83 56.90
2041 49.5980 3245.00 3318.78 56.96
2042 49.6150 3331.00 3318.73 57.71
2043 49.6320 3361.00 3318.68 57.97
2044 49.6490 3322.00 3318.63 57.64
2045 49.6660 3437.00 3318.59 58.63
2046 49.6830 3286.00 3318.54 57.32
2047 49.7000 3224.00 3318.49 56.78
2048 49.7170 3347.00 3318.44 57.85
2049 49.7340 3372.00 3318.40 58.07
2050 49.7510 3199.00 3318.35 56.56
2051 49.7680 3185.00 3318.30 56.44
2052 49.7850 3289.00 3318.26 57.35
2053 49.8020 3355.00 3318.21 57.92
2054 49.8190 3209.00 3318.16 56.65
2055 49.8360 3194.00 3318.12 56.52
2056 49.8530 3340.00 3318.07 57.79
2057 49.8700 3309.00 3318.02 57.52
2058 49.8870 3236.00 3317.98 56.89
2059 49.9040 3311.00 3317.93 57.54
2060 49.9210 3295.00 3317.89 57.40
2061 49.9380 3265.00 3317.84 57.14
2062 49.9550 3255.00 3317.80 57.05
2063 49.9720 3254.00 3317.75 57.04
2064 49.9890 3259.00 3317.71 57.09
2065 50.0060 3157.00 3317.66 56.19
2066 50.0230 3231.00 3317.62 56.84
2067 50.0400 3323.00 3317.58 57.65
2068 50.0570 3260.00 3317.53 57.10
2069 50.0740 3247.00 3317.49 56.98
2070 50.0910 3302.00 3317.44 57.46
2071 50.1080 3247.00 3317.40 56.98
2072 50.1250 3308.00 3317.36 57.52
2073 50.1420 3265.00 3317.31 57.14
2074 50.1590 3232.00 3317.27 56.85
2075 50.1760 3345.00 3317.23 57.84
2076 50.1930 3402.00 3317.18 58.33
2077 50.2100 3329.00 3317.14 57.70
2078 50.2270 3258.00 3317.10 57.08
2079 50.2440 3289.00 3317.06 57.35
2080 50.2610 3295.00 3317.02 57.40
2081 50.2780 3236.00 3316.97 56.89
2082 50.2950 3320.00 3316.93 57.62
2083 50.3120 3296.00 3316.89 57.41
2084 50.3290 3376.00 3316.85 58.10
2085 50.3460 3365.00 3316.81 58.01
2086 50.3630 3288.00 3316.77 57.34
2087 50.3800 3339.00 3316.72 57.78
2088 50.3970 3246.00 3316.68 56.97
2089 50.4140 3146.00 3316.64 56.09
2090 50.4310 3284.00 3316.60 57.31
2091 50.4480 3373.00 3316.56 58.08
2092 50.4650 3302.00 3316.52 57.46
2093 50.4820 3294.00 3316.48 57.39
2094 50.4990 3332.00 3316.44 57.72
2095 50.5160 3356.00 3316.40 57.93
2096 50.5330 3361.00 3316.36 57.97
2097 50.5500 3279.00 3316.32 57.26
2098 50.5670 3271.00 3316.28 57.19
2099 50.5840 3282.00 3316.24 57.29
2100 50.6010 3285.00 3316.21 57.31
2101 50.6180 3347.00 3316.17 57.85
2102 50.6350 3330.00 3316.13 57.71
2103 50.6520 3305.00 3316.09 57.49
2104 50.6690 3268.00 3316.05 57.17
2105 50.6860 3298.00 3316.01 57.43
2106 50.7030 3244.00 3315.97 56.96
2107 50.7200 3264.00 3315.94 57.13
2108 50.7370 3208.00 3315.90 56.64
2109 50.7540 3292.00 3315.86 57.38
2110 50.7710 3294.00 3315.82 57.39
2111 50.7880 3247.00 3315.79 56.98
2112 50.8050 3418.00 3315.75 58.46
2113 50.8220 3335.00 3315.71 57.75
2114 50.8390 3269.00 3315.67 57.18
2115 50.8560 3352.00 3315.64 57.90
2116 50.8730 3265.00 3315.60 57.14
2117 50.8900 3297.00 3315.56 57.42
2118 50.9070 3244.00 3315.53 56.96
2119 50.9240 3264.00 3315.49 57.13
2120 50.9410 3207.00 3315.45 56.63
2121 50.9580 3292.00 3315.42 57.38
2122 50.9750 3206.00 3315.38 56.62
2123 50.9920 3302.00 3315.35 57.46
2124 51.0090 3285.00 3315.31 57.31
2125 51.0260 3336.00 3315.28 57.76
2126 51.0430 3409.00 3315.24 58.39
2127 51.0600 3240.00 3315.21 56.92
2128 51.0770 3263.00 3315.17 57.12
2129 51.0940 3320.00 3315.14 57.62
2130 51.1110 3296.00 3315.10 57.41
2131 51.1280 3290.00 3315.07 57.36
2132 51.1450 3380.00 3315.03 58.14
2133 51.1620 3369.00 3315.00 58.04
2134 51.1790 3268.00 3314.96 57.17
2135 51.1960 3282.00 3314.93 57.29
2136 51.2130 3272.00 3314.90 57.20
2137 51.2300 3312.00 3314.86 57.55
2138 51.2470 3231.00 3314.83 56.84
2139 51.2640 3351.00 3314.79 57.89
2140 51.2810 3248.00 3314.76 56.99
2141 51.2980 3136.00 3314.73 56.00
2142 51.3150 3259.00 3314.69 57.09
2143 51.3320 3304.00 3314.66 57.48
2144 51.3490 3388.00 3314.63 58.21
2145 51.3660 3430.00 3314.60 58.57
2146 51.3830 3434.00 3314.56 58.60
2147 51.4000 3475.00 3314.53 58.95
2148 51.4170 3321.00 3314.50 57.63
2149 51.4340 3424.00 3314.47 58.51
2150 51.4510 3403.00 3314.43 58.34
2151 51.4680 3336.00 3314.40 57.76
2152 51.4850 3327.00 3314.37 57.68
2153 51.5020 3272.00 3314.34 57.20
2154 51.5190 3390.00 3314.31 58.22
2155 51.5360 3393.00 3327.80 58.25
2156 51.5530 3299.00 3327.96 57.44
2157 51.5700 3345.00 3328.13 57.84
2158 51.5870 3390.00 3328.30 58.22
2159 51.6040 3369.00 3328.47 58.04
2160 51.6210 3287.00 3328.65 57.33
2161 51.6380 3278.00 3328.84 57.25
2162 51.6550 3298.00 3335.69 57.43
2163 51.6720 3425.00 3335.98 58.52
2164 51.6890 3341.00 3336.28 57.80
2165 51.7060 3376.00 3336.59 58.10
2166 51.7230 3283.00 3336.90 57.30
2167 51.7400 3299.00 3337.23 57.44
2168 51.7570 3330.00 3337.56 57.71
2169 51.7740 3329.00 3337.90 57.70
2170 51.7910 3294.00 3338.24 57.39
2171 51.8080 3314.00 3338.60 57.57
2172 51.8250 3320.00 3338.97 57.62
2173 51.8420 3253.00 3339.34 57.04
2174 51.8590 3424.00 3339.73 58.51
2175 51.8760 3470.00 3340.13 58.91
2176 51.8930 3457.00 3340.53 58.80
2177 51.9100 3327.00 3340.95 57.68
2178 51.9270 3358.00 3341.38 57.95
2179 51.9440 3365.00 3341.82 58.01
2180 51.9610 3296.00 3342.27 57.41
2181 51.9780 3367.00 3342.74 58.03
2182 51.9950 3407.00 3343.22 58.37
2183 52.0120 3311.00 3343.71 57.54
2184 52.0290 3411.00 3344.22 58.40
2185 52.0460 3229.00 3344.74 56.82
2186 52.0630 3323.00 3345.27 57.65
2187 52.0800 3231.00 3345.82 56.84
2188 52.0970 3277.00 3346.39 57.25
2189 52.1140 3303.00 3346.97 57.47
2190 52.1310 3245.00 3347.57 56.96
2191 52.1480 3331.00 3348.19 57.71
2192 52.1650 3342.00 3348.83 57.81
2193 52.1820 3311.00 3349.48 57.54
2194 52.1990 3390.00 3350.16 58.22
2195 52.2160 3281.00 3350.86 57.28
2196 52.2330 3261.00 3351.57 57.11
2197 52.2500 3332.00 3352.31 57.72
2198 52.2670 3434.00 3353.08 58.60
2199 52.2840 3291.00 3353.87 57.37
2200 52.3010 3292.00 3354.68 57.38
2201 52.3180 3238.00 3355.52 56.90
2202 52.3350 3225.00 3356.39 56.79
2203 52.3520 3320.00 3357.28 57.62
2204 52.3690 3265.00 3358.21 57.14
2205 52.3860 3384.00 3359.16 58.17
2206 52.4030 3434.00 3360.15 58.60
2207 52.4200 3312.00 3361.17 57.55
2208 52.4370 3232.00 3362.23 56.85
2209 52.4540 3363.00 3363.32 57.99
2210 52.4710 3381.00 3364.46 58.15
2211 52.4880 3315.00 3365.63 57.58
2212 52.5050 3346.00 3366.85 57.84
2213 52.5220 3320.00 3368.11 57.62
2214 52.5390 3371.00 3369.41 58.06
2215 52.5560 3360.00 3370.77 57.97
2216 52.5730 3349.00 3372.17 57.87
2217 52.5900 3304.00 3373.63 57.48
2218 52.6070 3366.00 3375.15 58.02
2219 52.6240 3405.00 3376.72 58.35
2220 52.6410 3359.00 3378.36 57.96
2221 52.6580 3339.00 3380.06 57.78
2222 52.6750 3300.00 3381.83 57.45
2223 52.6920 3371.00 3383.68 58.06
2224 52.7090 3435.00 3385.60 58.61
2225 52.7260 3400.00 3387.60 58.31
2226 52.7430 3367.00 3389.69 58.03
2227 52.7600 3387.00 3391.86 58.20
2228 52.7770 3453.00 3394.14 58.76
2229 52.7940 3411.00 3396.51 58.40
2230 52.8110 3429.00 3398.99 58.56
2231 52.8280 3398.00 3401.58 58.29
2232 52.8450 3347.00 3404.30 57.85
2233 52.8620 3474.00 3407.14 58.94
2234 52.8790 3345.00 3410.12 57.84
2235 52.8960 3437.00 3413.24 58.63
2236 52.9130 3505.00 3416.52 59.20
2237 52.9300 3376.00 3419.96 58.10
2238 52.9470 3326.00 3423.58 57.67
2239 52.9640 3372.00 3427.39 58.07
2240 52.9810 3423.00 3431.39 58.51
2241 52.9980 3381.00 3435.61 58.15
2242 53.0150 3392.00 3440.07 58.24
2243 53.0320 3491.00 3444.77 59.08
2244 53.0490 3443.00 3449.73 58.68
2245 53.0660 3387.00 3454.99 58.20
2246 53.0830 3403.00 3460.55 58.34
2247 53.1000 3483.00 3466.45 59.02
2248 53.1170 3489.00 3472.70 59.07
2249 53.1340 3462.00 3479.35 58.84
2250 53.1510 3498.00 3486.43 59.14
2251 53.1680 3497.00 3493.96 59.14
2252 53.1850 3455.00 3502.00 58.78
2253 53.2020 3486.00 3510.58 59.04
2254 53.2190 3487.00 3519.77 59.05
2255 53.2360 3406.00 3529.60 58.36
2256 53.2530 3592.00 3540.17 59.93
2257 53.2700 3505.00 3551.51 59.20
2258 53.2870 3463.00 3563.73 58.85
2259 53.3040 3533.00 3576.92 59.44
2260 53.3210 3567.00 3591.17 59.72
2261 53.3380 3556.00 3606.61 59.63
2262 53.3550 3500.00 3623.37 59.16
2263 53.3720 3607.00 3641.60 60.06
2264 53.3890 3628.00 3661.48 60.23
2265 53.4060 3628.00 3683.23 60.23
2266 53.4230 3681.00 3707.08 60.67
2267 53.4400 3611.00 3733.31 60.09
2268 53.4570 3729.00 3762.23 61.07
2269 53.4740 3753.00 3794.26 61.26
2270 53.4910 3795.00 3829.82 61.60
2271 53.5080 3770.00 3869.49 61.40
2272 53.5250 3784.00 3913.88 61.51
2273 53.5420 3904.00 3963.80 62.48
2274 53.5590 3950.00 4020.20 62.85
2275 53.5760 4066.00 4084.23 63.77
2276 53.5930 4139.00 4157.37 64.34
2277 53.6100 4243.00 4241.37 65.14
2278 53.6270 4337.00 4338.57 65.86
2279 53.6440 4440.00 4451.85 66.63
2280 53.6610 4642.00 4585.21 68.13
2281 53.6780 4836.00 4743.93 69.54
2282 53.6950 4961.00 4935.79 70.43
2283 53.7120 5063.00 5172.10 71.15
2284 53.7290 5317.00 5469.78 72.92
2285 53.7460 5746.00 5854.30 75.80
2286 53.7630 6154.00 6361.83 78.45
2287 53.7800 6827.00 7042.80 82.63
2288 53.7970 7703.00 7960.31 87.77
2289 53.8140 8921.00 9188.45 94.45
2290 53.8310 10378.00 10797.90 101.87
2291 53.8480 12660.00 12836.10 112.52
2292 53.8650 15030.00 15276.90 122.60
2293 53.8820 17622.00 17958.50 132.75
2294 53.8990 19907.00 20521.90 141.09
2295 53.9160 21569.00 22433.10 146.86
2296 53.9330 21857.00 23173.10 147.84
2297 53.9500 21308.00 22625.80 145.97
2298 53.9670 20040.00 21264.10 141.56
2299 53.9840 18795.00 19770.80 137.10
2300 54.0010 17971.00 18578.10 134.06
2301 54.0180 17234.00 17753.50 131.28
2302 54.0350 16847.00 17087.60 129.80
2303 54.0520 15820.00 16247.80 125.78
2304 54.0690 14397.00 14995.30 119.99
2305 54.0860 13126.00 13377.50 114.57
2306 54.1030 11522.00 11654.00 107.34
2307 54.1200 9889.00 10062.50 99.44
2308 54.1370 8663.00 8718.98 93.08
2309 54.1540 7766.00 7641.64 88.12
2310 54.1710 6875.00 6805.40 82.92
2311 54.1880 6248.00 6167.88 79.04
2312 54.2050 5854.00 5685.56 76.51
2313 54.2220 5485.00 5319.30 74.06
2314 54.2390 5185.00 5037.38 72.01
2315 54.2560 5069.00 4815.89 71.20
2316 54.2730 4668.00 4637.87 68.32
2317 54.2900 4561.00 4491.72 67.54
2318 54.3070 4465.00 4369.49 66.82
2319 54.3240 4334.00 4265.88 65.83
2320 54.3410 4189.00 4177.03 64.72
2321 54.3580 4090.00 4100.18 63.95
2322 54.3750 4052.00 4033.21 63.66
2323 54.3920 3917.00 3974.48 62.59
2324 54.4090 3902.00 3922.69 62.47
2325 54.4260 3780.00 3876.77 61.48
2326 54.4430 3819.00 3835.86 61.80
2327 54.4600 3841.00 3799.25 61.98
2328 54.4770 3841.00 3766.37 61.98
2329 54.4940 3838.00 3736.71 61.95
2330 54.5110 3816.00 3709.88 61.77
2331 54.5280 3821.00 3685.50 61.81
2332 54.5450 3762.00 3663.31 61.34
2333 54.5620 3693.00 3643.03 60.77
2334 54.5790 3642.00 3624.46 60.35
2335 54.5960 3607.00 3607.40 60.06
2336 54.6130 3594.00 3591.70 59.95
2337 54.6300 3634.00 3577.22 60.28
2338 54.6470 3678.00 3563.83 60.65
2339 54.6640 3659.00 3551.43 60.49
2340 54.6810 3667.00 3539.91 60.56
2341 54.6980 3613.00 3529.20 60.11
2342 54.7150 3629.00 3519.22 60.24
2343 54.7320 3710.00 3509.91 60.91
2344 54.7490 3552.00 3501.21 59.60
2345 54.7660 3435.00 3493.06 58.61
2346 54.7830 3571.00 3485.43 59.76
2347 54.8000 3489.00 3478.26 59.07
2348 54.8170 3411.00 3471.52 58.40
2349 54.8340 3565.00 3465.18 59.71
2350 54.8510 3465.00 3459.20 58.86
2351 54.8680 3414.00 3453.56 58.43
2352 54.8850 3444.00 3448.24 58.69
2353 54.9020 3442.00 3443.20 58.67
2354 54.9190 3429.00 3438.44 58.56
2355 54.9360 3369.00 3433.92 58.04
2356 54.9530 3498.00 3429.64 59.14
2357 54.9700 3509.00 3425.57 59.24
2358 54.9870 3369.00 3421.71 58.04
2359 55.0040 3502.00 3418.03 59.18
2360 55.0210 3496.00 3414.54 59.13
2361 55.0380 3521.00 3411.21 59.34
2362 55.0550 3303.00 3408.03 57.47
2363 55.0720 3269.00 3405.00 57.18
2364 55.0890 3469.00 3402.11 58.90
2365 55.1060 3428.00 3399.34 58.55
2366 55.1230 3433.00 3396.70 58.59
2367 55.1400 3493.00 3394.17 59.10
2368 55.1570 3503.00 3391.75 59.19
2369 55.1740 3440.00 3389.43 58.65
2370 55.1910 3381.00 3387.21 58.15
2371 55.2080 3418.00 3385.08 58.46
2372 55.2250 3395.00 3383.03 58.27
2373 55.2420 3320.00 3381.06 57.62
2374 55.2590 3387.00 3379.17 58.20
2375 55.2760 3512.00 3377.36 59.26
2376 55.2930 3468.00 3375.61 58.89
2377 55.3100 3429.00 3373.93 58.56
2378 55.3270 3374.00 3372.31 58.09
2379 55.3440 3389.00 3370.75 58.22
2380 55.3610 3447.00 3369.25 58.71
2381 55.3780 3388.00 3367.80 58.21
2382 55.3950 3411.00 3366.40 58.40
2383 55.4120 3423.00 3365.05 58.51
2384 55.4290 3383.00 3363.75 58.16
2385 55.4460 3352.00 3362.49 57.90
2386 55.4630 3347.00 3361.28 57.85
2387 55.4800 3326.00 3360.10 57.67
2388 55.4970 3402.00 3358.96 58.33
2389 55.5140 3418.00 3357.86 58.46
2390 55.5310 3408.00 3356.80 58.38
2391 55.5480 3386.00 3355.77 58.19
2392 55.5650 3337.00 3354.77 57.77
2393 55.5820 3359.00 3353.80 57.96
2394 55.5990 3364.00 3352.87 58.00
2395 55.6160 3433.00 3351.96 58.59
2396 55.6330 3439.00 3351.07 58.64
2397 55.6500 3451.00 3350.22 58.75
2398 55.6670 3349.00 3349.39 57.87
2399 55.6840 3403.00 3348.58 58.34
2400 55.7010 3412.00 3347.80 58.41
2401 55.7180 3395.00 3347.04 58.27
2402 55.7350 3388.00 3346.30 58.21
2403 55.7520 3359.00 3345.58 57.96
2404 55.7690 3363.00 3344.88 57.99
2405 55.7860 3353.00 3344.21 57.91
2406 55.8030 3498.00 3343.54 59.14
2407 55.8200 3370.00 3342.90 58.05
2408 55.8370 3370.00 3342.28 58.05
2409 55.8540 3348.00 3341.67 57.86
2410 55.8710 3337.00 3341.07 57.77
2411 55.8880 3389.00 3340.49 58.22
2412 55.9050 3415.00 3339.93 58.44
2413 55.9220 3462.00 3339.38 58.84
2414 55.9390 3542.00 3338.85 59.51
2415 55.9560 3529.00 3338.33 59.41
2416 55.9730 3459.00 3337.82 58.81
2417 55.9900 3469.00 3337.32 58.90
2418 56.0070 3364.00 3336.84 58.00
2419 56.0240 3430.00 3336.36 58.57
2420 56.0410 3523.00 3335.90 59.35
2421 56.0580 3401.00 3335.45 58.32
2422 56.0750 3380.00 3335.01 58.14
2423 56.0920 3379.00 3334.58 58.13
2424 56.1090 3466.00 3334.16 58.87
2425 56.1260 3366.00 3333.75 58.02
2426 56.1430 3410.00 3333.35 58.40
2427 56.1600 3416.00 3332.96 58.45
2428 56.1770 3383.00 3332.57 58.16
2429 56.1940 3402.00 3332.20 58.33
2430 56.2110 3490.00 3331.83 59.08
2431 56.2280 3251.00 3331.47 57.02
2432 56.2450 3315.00 3331.12 57.58
2433 56.2620 3347.00 3330.78 57.85
2434 56.2790 3343.00 3330.44 57.82
2435 56.2960 3263.00 3330.11 57.12
2436 56.3130 3274.00 3316.24 57.22
2437 56.3300 3347.00 3316.11 57.85
2438 56.3470 3324.00 3315.99 57.65
2439 56.3640 3388.00 3315.87 58.21
2440 56.3810 3372.00 3315.75 58.07
2441 56.3980 3294.00 3315.63 57.39
2442 56.4150 3284.00 3315.52 57.31
2443 56.4320 3314.00 3315.41 57.57
2444 56.4490 3412.00 3308.65 58.41
2445 56.4660 3416.00 3308.63 58.45
2446 56.4830 3221.00 3308.62 56.75
2447 56.5000 3303.00 3308.60 57.47
2448 56.5170 3359.00 3308.59 57.96
2449 56.5340 3240.00 3308.58 56.92
2450 56.5510 3244.00 3308.56 56.96
2451 56.5680 3298.00 3308.55 57.43
2452 56.5850 3408.00 3308.53 58.38
2453 56.6020 3311.00 3308.52 57.54
2454 56.6190 3387.00 3308.50 58.20
2455 56.6360 3427.00 3308.49 58.54
2456 56.6530 3315.00 3308.48 57.58
2457 56.6700 3293.00 3308.46 57.38
2458 56.6870 3352.00 3308.45 57.90
2459 56.7040 3318.00 3308.43 57.60
2460 56.7210 3280.00 3308.42 57.27
2461 56.7380 3344.00 3308.40 57.83
2462 56.7550 3286.00 3308.39 57.32
2463 56.7720 3291.00 3308.37 57.37
2464 56.7890 3234.00 3308.36 56.87
2465 56.8060 3150.00 3308.35 56.12
2466 56.8230 3303.00 3308.33 57.47
2467 56.8400 3197.00 3308.32 56.54
2468 56.8570 3248.00 3308.30 56.99
2469 56.8740 3347.00 3308.29 57.85
2470 56.8910 3279.00 3308.27 57.26
2471 56.9080 3298.00 3308.26 57.43
2472 56.9250 3325.00 3308.24 57.66
2473 56.9420 3304.00 3308.23 57.48
2474 56.9590 3291.00 3308.21 57.37
2475 56.9760 3320.00 3308.20 57.62
2476 56.9930 3279.00 3308.19 57.26
2477 57.0100 3273.00 3308.17 57.21
2478 57.0270 3207.00 3308.16 56.63
2479 57.0440 3293.00 3308.14 57.38
2480 57.0610 3282.00 3308.13 57.29
2481 57.0780 3192.00 3308.11 56.50
2482 57.0950 3276.00 3308.10 57.24
2483 57.1120 3283.00 3308.08 57.30
2484 57.1290 3300.00 3308.07 57.45
2485 57.1460 3225.00 3308.05 56.79
2486 57.1630 3248.00 3308.04 56.99
2487 57.1800 3250.00 3308.02 57.01
2488 57.1970 3290.00 3308.01 57.36
2489 57.2140 3285.00 3307.99 57.31
2490 57.2310 3218.00 3307.98 56.73
2491 57.2480 3207.00 3307.96 56.63
2492 57.2650 3117.00 3307.95 55.83
2493 57.2820 3164.00 3307.93 56.25
2494 57.2990 3290.00 3307.92 57.36
2495 57.3160 3193.00 3307.90 56.51
2496 57.3330 3267.00 3307.88 57.16
2497 57.3500 3386.00 3307.87 58.19
2498 57.3670 3310.00 3307.85 57.53
2499 57.3840 3328.00 3307.84 57.69
2500 57.4010 3327.00 3307.82 57.68
2501 57.4180 3262.00 3307.81 57.11
2502 57.4350 3321.00 3307.79 57.63
2503 57.4520 3262.00 3307.78 57.11
2504 57.4690 3213.00 3307.76 56.68
2505 57.4860 3255.00 3307.75 57.05
2506 57.5030 3333.00 3307.73 57.73
2507 57.5200 3286.00 3307.71 57.32
2508 57.5370 3176.00 3307.70 56.36
2509 57.5540 3233.00 3307.68 56.86
2510 57.5710 3264.00 3307.67 57.13
2511 57.5880 3288.00 3307.65 57.34
2512 57.6050 3270.00 3307.64 57.18
2513 57.6220 3264.00 3307.62 57.13
2514 57.6390 3277.00 3307.60 57.25
2515 57.6560 3261.00 3307.59 57.11
2516 57.6730 3176.00 3307.57 56.36
2517 57.6900 3188.00 3307.55 56.46
2518 57.7070 3270.00 3307.54 57.18
2519 57.7240 3281.00 3307.52 57.28
2520 57.7410 3295.00 3307.51 57.40
2521 57.7580 3328.00 3307.49 57.69
2522 57.7750 3395.00 3307.47 58.27
2523 57.7920 3235.00 3307.46 56.88
2524 57.8090 3340.00 3307.44 57.79
2525 57.8260 3391.00 3307.42 58.23
2526 57.8430 3273.00 3307.41 57.21
2527 57.8600 3264.00 3307.39 57.13
2528 57.8770 3346.00 3307.37 57.84
2529 57.8940 3197.00 3307.36 56.54
2530 57.9110 3287.00 3307.34 57.33
2531 57.9280 3223.00 3307.32 56.77
2532 57.9450 3312.00 3307.31 57.55
2533 57.9620 3305.00 3307.29 57.49
2534 57.9790 3363.00 3307.27 57.99
2535 57.9960 3330.00 3307.26 57.71
2536 58.0130 3339.00 3307.24 57.78
2537 58.0300 3199.00 3307.22 56.56
2538 58.0470 3133.00 3307.21 55.97
2539 58.0640 3303.00 3307.19 57.47
2540 58.0810 3337.00 3307.17 57.77
2541 58.0980 3341.00 3307.15 57.80
2542 58.1150 3298.00 3307.14 57.43
2543 58.1320 3369.00 3307.12 58.04
2544 58.1490 3352.00 3307.10 57.90
2545 58.1660 3406.00 3307.08 58.36
2546 58.1830 3226.00 3307.07 56.80
2547 58.2000 3269.00 3307.05 57.18
2548 58.2170 3370.00 3307.03 58.05
2549 58.2340 3312.00 3307.01 57.55
2550 58.2510 3285.00 3307.00 57.31
2551 58.2680 3231.00 3306.98 56.84
2552 58.2850 3325.00 3306.96 57.66
2553 58.3020 3352.00 3306.94 57.90
2554 58.3190 3247.00 3306.93 56.98
2555 58.3360 3245.00 3306.91 56.96
2556 58.3530 3304.00 3306.89 57.48
2557 58.3700 3296.00 3306.87 57.41
2558 58.3870 3371.00 3316.35 58.06
2559 58.4040 3279.00 3316.46 57.26
2560 58.4210 3161.00 3316.58 56.22
2561 58.4380 3280.00 3316.69 57.27
2562 58.4550 3294.00 3316.81 57.39
2563 58.4720 3270.00 3316.93 57.18
2564 58.4890 3269.00 3317.06 57.18
2565 58.5060 3296.00 3317.18 57.41
2566 58.5230 3269.00 3321.99 57.18
2567 58.5400 3391.00 3322.18 58.23
2568 58.5570 3492.00 3322.38 59.09
2569 58.5740 3343.00 3322.59 57.82
2570 58.5910 3266.00 3322.80 57.15
2571 58.6080 3371.00 3323.01 58.06
2572 58.6250 3314.00 3323.23 57.57
2573 58.6420 3322.00 3323.46 57.64
2574 58.6590 3284.00 3323.69 57.31
2575 58.6760 3388.00 3323.92 58.21
2576 58.6930 3303.00 3324.16 57.47
2577 58.7100 3315.00 3324.41 57.58
2578 58.7270 3352.00 3324.66 57.90
2579 58.7440 3314.00 3324.92 57.57
2580 58.7610 3286.00 3325.19 57.32
2581 58.7780 3397.00 3325.46 58.28
2582 58.7950 3456.00 3325.74 58.79
2583 58.8120 3280.00 3326.03 57.27
2584 58.8290 3165.00 3326.32 56.26
2585 58.8460 3328.00 3326.62 57.69
2586 58.8630 3359.00 3326.93 57.96
2587 58.8800 3375.00 3327.24 58.09
2588 58.8970 3293.00 3327.57 57.38
2589 58.9140 3362.00 3327.90 57.98
2590 58.9310 3365.00 3328.25 58.01
2591 58.9480 3252.00 3328.60 57.03
2592 58.9650 3422.00 3328.96 58.50
2593 58.9820 3332.00 3329.33 57.72
2594 58.9990 3334.00 3329.71 57.74
2595 59.0160 3252.00 3330.10 57.03
2596 59.0330 3163.00 3330.50 56.24
2597 59.0500 3266.00 3330.91 57.15
2598 59.0670 3408.00 3331.34 58.38
2599 59.0840 3374.00 3331.77 58.09
2600 59.1010 3357.00 3332.22 57.94
2601 59.1180 3369.00 3332.69 58.04
2602 59.1350 3400.00 3333.16 58.31
2603 59.1520 3483.00 3333.65 59.02
2604 59.1690 3320.00 3334.16 57.62
2605 59.1860 3230.00 3334.67 56.83
2606 59.2030 3315.00 3335.21 57.58
2607 59.2200 3295.00 3335.76 57.40
2608 59.2370 3312.00 3336.33 57.55
2609 59.2540 3348.00 3336.91 57.86
2610 59.2710 3320.00 3337.52 57.62
2611 59.2880 3323.00 3338.14 57.65
2612 59.3050 3302.00 3338.78 57.46
2613 59.3220 3298.00 3339.44 57.43
2614 59.3390 3288.00 3340.13 57.34
2615 59.3560 3325.00 3340.83 57.66
2616 59.3730 3268.00 3341.56 57.17
2617 59.3900 3250.00 3342.32 57.01
2618 59.4070 3275.00 3343.10 57.23
2619 59.4240 3248.00 3343.90 56.99
2620 59.4410 3381.00 3344.74 58.15
2621 59.4580 3403.00 3345.60 58.34
2622 59.4750 3332.00 3346.49 57.72
2623 59.4920 3232.00 3347.42 56.85
2624 59.5090 3196.00 3348.38 56.53
2625 59.5260 3303.00 3349.37 57.47
2626 59.5430 3250.00 3350.40 57.01
2627 59.5600 3278.00 3351.47 57.25
2628 59.5770 3300.00 3352.58 57.45
2629 59.5940 3255.00 3353.73 57.05
2630 59.6110 3269.00 3354.92 57.18
2631 59.6280 3178.00 3356.17 56.37
2632 59.6450 3344.00 3357.46 57.83
2633 59.6620 3424.00 3358.80 58.51
2634 59.6790 3383.00 3360.20 58.16
2635 59.6960 3415.00 3361.65 58.44
2636 59.7130 3179.00 3363.16 56.38
2637 59.7300 3324.00 3364.74 57.65
2638 59.7470 3398.00 3366.39 58.29
2639 59.7640 3364.00 3368.10 58.00
2640 59.7810 3352.00 3369.90 57.90
2641 59.7980 3366.00 3371.77 58.02
2642 59.8150 3257.00 3373.73 57.07
2643 59.8320 3412.00 3375.77 58.41
2644 59.8490 3474.00 3377.91 58.94
2645 59.8660 3390.00 3380.16 58.22
2646 59.8830 3409.00 3382.51 58.39
2647 59.9000 3405.00 3384.97 58.35
2648 59.9170 3361.00 3387.56 57.97
2649 59.9340 3275.00 3390.27 57.23
2650 59.9510 3309.00 3393.13 57.52
2651 59.9680 3327.00 3396.13 57.68
2652 59.9850 3340.00 3399.29 57.79
2653 60.0020 3379.00 3402.63 58.13
2654 60.0190 3343.00 3406.14 57.82
2655 60.0360 3362.00 3409.85 57.98
2656 60.0530 3454.00 3413.77 58.77
2657 60.0700 3432.00 3417.92 58.58
2658 60.0870 3424.00 3422.32 58.51
2659 60.1040 3395.00 3426.98 58.27
2660 60.1210 3394.00 3431.92 58.26
2661 60.1380 3459.00 3437.17 58.81
2662 60.1550 3436.00 3442.76 58.62
2663 60.1720 3349.00 3448.72 57.87
2664 60.1890 3349.00 3455.07 57.87
2665 60.2060 3380.00 3461.86 58.14
2666 60.2230 3459.00 3469.12 58.81
2667 60.2400 3441.00 3476.90 58.66
2668 60.2570 3461.00 3485.25 58.83
2669 60.2740 3458.00 3494.22 58.80
2670 60.2910 3581.00 3503.89 59.84
2671 60.3080 3447.00 3514.32 58.71
2672 60.3250 3518.00 3525.59 59.31
2673 60.3420 3604.00 3537.81 60.03
2674 60.3590 3592.00 3551.07 59.93
2675 60.3760 3556.00 3565.51 59.63
2676 60.3930 3570.00 3581.25 59.75
2677 60.4100 3648.00 3598.47 60.40
2678 60.4270 3675.00 3617.36 60.62
2679 60.4440 3650.00 3638.13 60.42
2680 60.4610 3636.00 3661.05 60.30
2681 60.4780 3639.00 3686.43 60.32
2682 60.4950 3753.00 3714.62 61.26
2683 60.5120 3850.00 3746.05 62.05
2684 60.5290 3861.00 3781.25 62.14
2685 60.5460 3934.00 3820.83 62.72
2686 60.5630 3951.00 3865.56 62.86
2687 60.5800 3988.00 3916.35 63.15
2688 60.5970 4074.00 3974.35 63.83
2689 60.6140 4192.00 4041.02 64.75
2690 60.6310 4358.00 4118.17 66.02
2691 60.6480 4488.00 4208.21 66.99
2692 60.6650 4637.00 4314.32 68.10
2693 60.6820 4458.00 4441.16 66.77
2694 60.6990 4690.00 4594.93 68.48
2695 60.7160 4889.00 4785.18 69.92
2696 60.7330 5220.00 5025.39 72.25
2697 60.7500 5507.00 5334.75 74.21
2698 60.7670 5946.00 5739.38 77.11
2699 60.7840 6545.00 6272.69 80.90
2700 60.8010 7412.00 6974.41 86.09
2701 60.8180 8430.00 7886.80 91.82
2702 60.8350 9675.00 9046.68 98.36
2703 60.8520 11361.00 10469.00 106.59
2704 60.8690 13453.00 12115.60 115.99
2705 60.8860 15326.00 13846.70 123.80
2706 60.9030 16884.00 15383.70 129.94
2707 60.9200 17415.00 16356.60 131.97
2708 60.9370 17273.00 16497.90 131.43
2709 60.9540 16493.00 15868.10 128.43
2710 60.9710 15617.00 14833.60 124.97
2711 60.9880 14649.00 13800.30 121.03
2712 61.0050 13964.00 13015.40 118.17
2713 61.0220 13603.00 12540.50 116.63
2714 61.0390 13331.00 12285.90 115.46
2715 61.0560 12930.00 12054.50 113.71
2716 61.0730 12202.00 11626.20 110.46
2717 61.0900 11342.00 10888.10 106.50
2718 61.1070 10572.00 9907.98 102.82
2719 61.1240 9653.00 8854.54 98.25
2720 61.1410 8330.00 7870.26 91.27
2721 61.1580 7543.00 7024.77 86.85
2722 61.1750 6738.00 6333.40 82.09
2723 61.1920 6220.00 5784.55 78.87
2724 61.2090 5767.00 5356.48 75.94
2725 61.2260 5355.00 5025.34 73.18
2726 61.2430 5088.00 4769.00 71.33
2727 61.2600 4802.00 4568.78 69.30
2728 61.2770 4493.00 4409.99 67.03
2729 61.2940 4410.00 4281.69 66.41
2730 61.3110 4358.00 4176.04 66.02
2731 61.3280 4181.00 4087.55 64.66
2732 61.3450 4044.00 4012.38 63.59
2733 61.3620 3878.00 3947.79 62.27
2734 61.3790 3891.00 3891.80 62.38
2735 61.3960 3867.00 3842.90 62.19
2736 61.4130 3752.00 3799.90 61.25
2737 61.4300 3784.00 3761.87 61.51
2738 61.4470 3784.00 3728.08 61.51
2739 61.4640 3752.00 3697.91 61.25
2740 61.4810 3768.00 3670.86 61.38
2741 61.4980 3731.00 3646.51 61.08
2742 61.5150 3662.00 3624.51 60.51
2743 61.5320 3609.00 3604.57 60.08
2744 61.5490 3511.00 3586.43 59.25
2745 61.5660 3557.00 3569.87 59.64
2746 61.5830 3590.00 3554.73 59.92
2747 61.6000 3513.00 3540.84 59.27
2748 61.6170 3499.00 3528.06 59.15
2749 61.6340 3575.00 3516.29 59.79
2750 61.6510 3546.00 3505.41 59.55
2751 61.6680 3402.00 3495.33 58.33
2752 61.6850 3425.00 3485.99 58.52
2753 61.7020 3431.00 3477.31 58.57
2754 61.7190 3404.00 3469.22 58.34
2755 61.7360 3548.00 3461.68 59.57
2756 61.7530 3501.00 3454.63 59.17
2757 61.7700 3449.00 3448.03 58.73
2758 61.7870 3423.00 3441.85 58.51
2759 61.8040 3354.00 3436.05 57.91
2760 61.8210 3518.00 3430.60 59.31
2761 61.8380 3413.00 3425.47 58.42
2762 61.8550 3490.00 3420.64 59.08
2763 61.8720 3344.00 3416.08 57.83
2764 61.8890 3452.00 3411.77 58.75
2765 61.9060 3538.00 3407.70 59.48
2766 61.9230 3468.00 3403.84 58.89
2767 61.9400 3296.00 3400.19 57.41
2768 61.9570 3290.00 3396.72 57.36
2769 61.9740 3417.00 3393.44 58.46
2770 61.9910 3407.00 3390.31 58.37
2771 62.0080 3547.00 3387.34 59.56
2772 62.0250 3475.00 3384.50 58.95
2773 62.0420 3372.00 3381.81 58.07
2774 62.0590 3294.00 3379.23 57.39
2775 62.0760 3440.00 3376.78 58.65
2776 62.0930 3437.00 3374.44 58.63
2777 62.1100 3532.00 3372.19 59.43
2778 62.1270 3266.00 3370.05 57.15
2779 62.1440 3346.00 3368.00 57.84
2780 62.1610 3373.00 3366.03 58.08
2781 62.1780 3458.00 3364.15 58.80
2782 62.1950 3389.00 3362.34 58.22
2783 62.2120 3373.00 3360.61 58.08
2784 62.2290 3373.00 3358.94 58.08
2785 62.2460 3377.00 3357.34 58.11
2786 62.2630 3324.00 3355.80 57.65
2787 62.2800 3249.00 3354.32 57.00
2788 62.2970 3208.00 3352.89 56.64
2789 62.3140 3293.00 3351.52 57.38
2790 62.3310 3218.00 3350.20 56.73
2791 62.3480 3209.00 3348.92 56.65
2792 62.3650 3340.00 3347.69 57.79
2793 62.3820 3332.00 3346.50 57.72
2794 62.3990 3333.00 3345.36 57.73
2795 62.4160 3265.00 3344.25 57.14
2796 62.4330 3284.00 3343.18 57.31
2797 62.4500 3370.00 3342.14 58.05
2798 62.4670 3315.00 3341.14 57.58
2799 62.4840 3327.00 3340.17 57.68
2800 62.5010 3308.00 3339.23 57.52
2801 62.5180 3360.00 3338.32 57.97
2802 62.5350 3301.00 3337.44 57.45
2803 62.5520 3320.00 3336.59 57.62
2804 62.5690 3428.00 3335.76 58.55
2805 62.5860 3421.00 3334.96 58.49
2806 62.6030 3329.00 3334.18 57.70
2807 62.6200 3257.00 3333.42 57.07
2808 62.6370 3253.00 3332.68 57.04
2809 62.6540 3311.00 3331.97 57.54
2810 62.6710 3252.00 3331.27 57.03
2811 62.6880 3274.00 3330.60 57.22
2812 62.7050 3210.00 3329.94 56.66
2813 62.7220 3258.00 3329.30 57.08
2814 62.7390 3280.00 3328.68 57.27
2815 62.7560 3244.00 3328.07 56.96
2816 62.7730 3255.00 3327.48 57.05
2817 62.7900 3216.00 3326.91 56.71
2818 62.8070 3242.00 3326.35 56.94
2819 62.8240 3348.00 3325.80 57.86
2820 62.8410 3285.00 3325.27 57.31
2821 62.8580 3299.00 3324.75 57.44
2822 62.8750 3343.00 3324.24 57.82
2823 62.8920 3322.00 3323.75 57.64
2824 62.9090 3330.00 3323.26 57.71
2825 62.9260 3358.00 3322.79 57.95
2826 62.9430 3187.00 3322.33 56.45
2827 62.9600 3297.00 3321.88 57.42
2828 62.9770 3346.00 3321.44 57.84
2829 62.9940 3280.00 3321.01 57.27
2830 63.0110 3430.00 3320.58 58.57
2831 63.0280 3439.00 3320.17 58.64
2832 63.0450 3319.00 3319.77 57.61
2833 63.0620 3247.00 3319.37 56.98
2834 63.0790 3246.00 3318.99 56.97
2835 63.0960 3311.00 3318.61 57.54
2836 63.1130 3215.00 3318.24 56.70
2837 63.1300 3260.00 3317.88 57.10
2838 63.1470 3295.00 3317.52 57.40
2839 63.1640 3250.00 3317.17 57.01
2840 63.1810 3226.00 3316.83 56.80
2841 63.1980 3299.00 3316.49 57.44
2842 63.2150 3329.00 3316.16 57.70
2843 63.2320 3308.00 3315.84 57.52
2844 63.2490 3224.00 3315.52 56.78
2845 63.2660 3273.00 3315.21 57.21
2846 63.2830 3233.00 3314.91 56.86
2847 63.3000 3230.00 3314.60 56.83
2848 63.3170 3229.00 3314.31 56.82
2849 63.3340 3283.00 3314.02 57.30
2850 63.3510 3337.00 3313.74 57.77
2851 63.3680 3304.00 3313.46 57.48
2852 63.3850 3272.00 3313.18 57.20
2853 63.4020 3202.00 3312.91 56.59
2854 63.4190 3185.00 3312.64 56.44
2855 63.4360 3230.00 3312.38 56.83
2856 63.4530 3287.00 3312.13 57.33
2857 63.4700 3237.00 3302.41 56.89
2858 63.4870 3285.00 3302.29 57.31
2859 63.5040 3333.00 3302.17 57.73
2860 63.5210 3311.00 3302.05 57.54
2861 63.5380 3261.00 3301.93 57.11
2862 63.5550 3295.00 3301.81 57.40
2863 63.5720 3281.00 3301.69 57.28
2864 63.5890 3235.00 3301.57 56.88
2865 63.6060 3306.00 3301.46 57.50
2866 63.6230 3344.00 3296.69 57.83
2867 63.6400 3270.00 3296.63 57.18
2868 63.6570 3358.00 3296.58 57.95
2869 63.6740 3365.00 3296.53 58.01
2870 63.6910 3418.00 3296.48 58.46
2871 63.7080 3388.00 3296.43 58.21
2872 63.7250 3318.00 3296.37 57.60
2873 63.7420 3275.00 3296.32 57.23
2874 63.7590 3303.00 3296.27 57.47
2875 63.7760 3322.00 3296.21 57.64
2876 63.7930 3326.00 3296.16 57.67
2877 63.8100 3248.00 3296.11 56.99
2878 63.8270 3277.00 3296.05 57.25
2879 63.8440 3307.00 3296.00 57.51
2880 63.8610 3249.00 3295.95 57.00
2881 63.8780 3258.00 3295.89 57.08
2882 63.8950 3263.00 3295.84 57.12
2883 63.9120 3330.00 3295.78 57.71
2884 63.9290 3371.00 3295.73 58.06
2885 63.9460 3317.00 3295.68 57.59
2886 63.9630 3216.00 3295.62 56.71
2887 63.9800 3258.00 3295.57 57.08
2888 63.9970 3304.00 3295.51 57.48
2889 64.0140 3237.00 3295.46 56.89
2890 64.0310 3329.00 3295.40 57.70
2891 64.0480 3364.00 3295.35 58.00
2892 64.0650 3332.00 3295.29 57.72
2893 64.0820 3390.00 3295.24 58.22
2894 64.0990 3398.00 3295.18 58.29
2895 64.1160 3354.00 3295.12 57.91
2896 64.1330 3303.00 3295.07 57.47
2897 64.1500 3226.00 3295.01 56.80
2898 64.1670 3298.00 3294.96 57.43
2899 64.1840 3335.00 3294.90 57.75
2900 64.2010 3355.00 3294.84 57.92
2901 64.2180 3273.00 3294.79 57.21
2902 64.2350 3154.00 3294.73 56.16
2903 64.2520 3226.00 3294.67 56.80
2904 64.2690 3214.00 3294.62 56.69
2905 64.2860 3165.00 3294.56 56.26
2906 64.3030 3272.00 3294.50 57.20
2907 64.3200 3320.00 3294.44 57.62
2908 64.3370 3323.00 3294.39 57.65
2909 64.3540 3296.00 3294.33 57.41
2910 64.3710 3248.00 3294.27 56.99
2911 64.3880 3329.00 3294.21 57.70
2912 64.4050 3391.00 3294.15 58.23
2913 64.4220 3263.00 3294.10 57.12
2914 64.4390 3260.00 3294.04 57.10
2915 64.4560 3413.00 3293.98 58.42
2916 64.4730 3375.00 3293.92 58.09
2917 64.4900 3271.00 3293.86 57.19
2918 64.5070 3267.00 3293.80 57.16
2919 64.5240 3279.00 3293.74 57.26
2920 64.5410 3247.00 3293.68 56.98
2921 64.5580 3375.00 3293.62 58.09
2922 64.5750 3358.00 3293.56 57.95
2923 64.5920 3183.00 3293.50 56.42
2924 64.6090 3302.00 3293.44 57.46
2925 64.6260 3373.00 3293.38 58.08
2926 64.6430 3387.00 3293.32 58.20
2927 64.6600 3304.00 3293.26 57.48
2928 64.6770 3275.00 3293.20 57.23
2929 64.6940 3360.00 3293.14 57.97
2930 64.7110 3407.00 3293.08 58.37
2931 64.7280 3312.00 3293.02 57.55
2932 64.7450 3370.00 3292.96 58.05
2933 64.7620 3276.00 3303.09 57.24
2934 64.7790 3279.00 3303.16 57.26
2935 64.7960 3400.00 3303.23 58.31
2936 64.8130 3296.00 3303.30 57.41
2937 64.8300 3366.00 3303.38 58.02
2938 64.8470 3312.00 3303.46 57.55
2939 64.8640 3280.00 3303.54 57.27
2940 64.8810 3278.00 3303.62 57.25
2941 64.8980 3340.00 3303.70 57.79
2942 64.9150 3289.00 3303.79 57.35
2943 64.9320 3279.00 3308.96 57.26
2944 64.9490 3249.00 3309.11 57.00
2945 64.9660 3317.00 3309.28 57.59
2946 64.9830 3176.00 3309.44 56.36
2947 65.0000 3189.00 3309.61 56.47
2948 65.0170 3169.00 3309.79 56.29
2949 65.0340 3185.00 3309.97 56.44
2950 65.0510 3264.00 3310.16 57.13
2951 65.0680 3268.00 3310.35 57.17
2952 65.0850 3243.00 3310.54 56.95
2953 65.1020 3242.00 3310.74 56.94
2954 65.1190 3223.00 3310.95 56.77
2955 65.1360 3215.00 3311.16 56.70
2956 65.1530 3326.00 3311.38 57.67
2957 65.1700 3291.00 3311.60 57.37
2958 65.1870 3259.00 3311.83 57.09
2959 65.2040 3223.00 3312.07 56.77
2960 65.2210 3266.00 3312.31 57.15
2961 65.2380 3294.00 3312.56 57.39
2962 65.2550 3322.00 3312.82 57.64
2963 65.2720 3295.00 3313.09 57.40
2964 65.2890 3329.00 3313.36 57.70
2965 65.3060 3347.00 3313.64 57.85
2966 65.3230 3320.00 3313.92 57.62
2967 65.3400 3286.00 3314.22 57.32
2968 65.3570 3273.00 3314.52 57.21
2969 65.3740 3278.00 3314.83 57.25
2970 65.3910 3228.00 3315.16 56.82
2971 65.4080 3272.00 3315.49 57.20
2972 65.4250 3311.00 3315.83 57.54
2973 65.4420 3249.00 3316.18 57.00
2974 65.4590 3344.00 3316.54 57.83
2975 65.4760 3376.00 3316.91 58.10
2976 65.4930 3421.00 3317.29 58.49
2977 65.5100 3363.00 3317.68 57.99
2978 65.5270 3221.00 3318.08 56.75
2979 65.5440 3389.00 3318.50 58.22
2980 65.5610 3314.00 3318.93 57.57
2981 65.5780 3380.00 3319.37 58.14
2982 65.5950 3435.00 3319.83 58.61
2983 65.6120 3317.00 3320.30 57.59
2984 65.6290 3305.00 3320.78 57.49
2985 65.6460 3382.00 3321.28 58.15
2986 65.6630 3437.00 3321.79 58.63
2987 65.6800 3437.00 3322.32 58.63
2988 65.6970 3291.00 3322.87 57.37
2989 65.7140 3369.00 3323.43 58.04
2990 65.7310 3286.00 3324.01 57.32
2991 65.7480 3199.00 3324.61 56.56
2992 65.7650 3299.00 3325.23 57.44
2993 65.7820 3204.00 3325.87 56.60
2994 65.7990 3362.00 3326.53 57.98
2995 65.8160 3382.00 3327.22 58.15
2996 65.8330 3326.00 3327.92 57.67
2997 65.8500 3367.00 3328.65 58.03
2998 65.8670 3461.00 3329.40 58.83
2999 65.8840 3296.00 3330.18 57.41
3000 65.9010 3396.00 3330.99 58.28
3001 65.9180 3373.00 3331.82 58.08
3002 65.9350 3309.00 3332.69 57.52
3003 65.9520 3322.00 3333.58 57.64
3004 65.9690 3290.00 3334.50 57.36
3005 65.9860 3314.00 3335.46 57.57
3006 66.0030 3236.00 3336.45 56.89
3007 66.0200 3289.00 3337.48 57.35
3008 66.0370 3397.00 3338.55 58.28
3009 66.0540 3406.00 3339.65 58.36
3010 66.0710 3275.00 3340.80 57.23
3011 66.0880 3204.00 3341.99 56.60
3012 66.1050 3393.00 3343.23 58.25
3013 66.1220 3513.00 3344.51 59.27
3014 66.1390 3341.00 3345.85 57.80
3015 66.1560 3277.00 3347.23 57.25
3016 66.1730 3249.00 3348.67 57.00
3017 66.1900 3303.00 3350.18 57.47
3018 66.2070 3337.00 3351.74 57.77
3019 66.2240 3315.00 3353.36 57.58
3020 66.2410 3183.00 3355.06 56.42
3021 66.2580 3286.00 3356.82 57.32
3022 66.2750 3409.00 3358.66 58.39
3023 66.2920 3373.00 3360.59 58.08
3024 66.3090 3385.00 3362.59 58.18
3025 66.3260 3310.00 3364.69 57.53
3026 66.3430 3248.00 3366.87 56.99
3027 66.3600 3265.00 3369.16 57.14
3028 66.3770 3216.00 3371.56 56.71
3029 66.3940 3324.00 3374.07 57.65
3030 66.4110 3485.00 3376.69 59.03
3031 66.4280 3235.00 3379.45 56.88
3032 66.4450 3177.00 3382.34 56.36
3033 66.4620 3339.00 3385.37 57.78
3034 66.4790 3408.00 3388.55 58.38
3035 66.4960 3506.00 3391.90 59.21
3036 66.5130 3437.00 3395.43 58.63
3037 66.5300 3478.00 3399.14 58.97
3038 66.5470 3385.00 3403.05 58.18
3039 66.5640 3386.00 3407.17 58.19
3040 66.5810 3435.00 3411.53 58.61
3041 66.5980 3423.00 3416.13 58.51
3042 66.6150 3482.00 3421.00 59.01
3043 66.6320 3399.00 3426.15 58.30
3044 66.6490 3360.00 3431.62 57.97
3045 66.6660 3410.00 3437.42 58.40
3046 66.6830 3365.00 3443.58 58.01
3047 66.7000 3258.00 3450.13 57.08
3048 66.7170 3297.00 3457.10 57.42
3049 66.7340 3336.00 3464.55 57.76
3050 66.7510 3276.00 3472.49 57.24
3051 66.7680 3482.00 3480.99 59.01
3052 66.7850 3380.00 3490.08 58.14
3053 66.8020 3416.00 3499.85 58.45
3054 66.8190 3478.00 3510.34 58.97
3055 66.8360 3509.00 3521.62 59.24
3056 66.8530 3556.00 3533.78 59.63
3057 66.8700 3515.00 3546.93 59.29
3058 66.8870 3517.00 3561.16 59.30
3059 66.9040 3484.00 3576.58 59.03
3060 66.9210 3455.00 3593.36 58.78
3061 66.9380 3522.00 3611.63 59.35
3062 66.9550 3665.00 3631.60 60.54
3063 66.9720 3642.00 3653.46 60.35
3064 66.9890 3624.00 3677.48 60.20
3065 67.0060 3675.00 3703.94 60.62
3066 67.0230 3674.00 3733.18 60.61
3067 67.0400 3635.00 3765.60 60.29
3068 67.0570 3663.00 3801.68 60.52
3069 67.0740 3820.00 3841.99 61.81
3070 67.0910 3922.00 3887.19 62.63
3071 67.1080 4005.00 3938.16 63.29
3072 67.1250 4055.00 3995.89 63.68
3073 67.1420 4021.00 4061.60 63.41
3074 67.1590 4204.00 4136.83 64.84
3075 67.1760 4336.00 4223.63 65.85
3076 67.1930 4284.00 4324.60 65.45
3077 67.2100 4459.00 4443.12 66.78
3078 67.2270 4444.00 4583.95 66.66
3079 67.2440 4606.00 4753.87 67.87
3080 67.2610 4891.00 4962.30 69.94
3081 67.2780 5147.00 5222.46 71.74
3082 67.2950 5425.00 5552.47 73.65
3083 67.3120 5852.00 5976.19 76.50
3084 67.3290 6366.00 6523.41 79.79
3085 67.3460 6946.00 7228.98 83.34
3086 67.3630 7877.00 8130.00 88.75
3087 67.3800 9184.00 9259.93 95.83
3088 67.3970 10706.00 10635.80 103.47
3089 67.4140 12188.00 12236.70 110.40
3090 67.4310 13774.00 13956.40 117.36
3091 67.4480 15209.00 15564.00 123.32
3092 67.4650 16233.00 16714.00 127.41
3093 67.4820 16226.00 17096.00 127.38
3094 67.4990 15900.00 16656.50 126.10
3095 67.5160 15209.00 15661.90 123.32
3096 67.5330 14229.00 14506.10 119.29
3097 67.5500 13653.00 13495.70 116.85
3098 67.5670 12999.00 12785.70 114.01
3099 67.5840 12675.00 12401.50 112.58
3100 67.6010 12646.00 12264.40 112.45
3101 67.6180 12612.00 12206.30 112.30
3102 67.6350 12313.00 12010.60 110.96
3103 67.6520 11532.00 11513.50 107.39
3104 67.6690 10790.00 10705.70 103.88
3105 67.6860 9794.00 9718.51 98.96
3106 67.7030 8895.00 8712.40 94.31
3107 67.7200 8198.00 7794.62 90.54
3108 67.7370 7268.00 7010.28 85.25
3109 67.7540 6550.00 6365.23 80.93
3110 67.7710 6078.00 5847.08 77.96
3111 67.7880 5673.00 5436.11 75.32
3112 67.8050 5396.00 5112.09 73.46
3113 67.8220 5206.00 4856.50 72.15
3114 67.8390 4925.00 4653.31 70.18
3115 67.8560 4785.00 4489.60 69.17
3116 67.8730 4550.00 4355.65 67.45
3117 67.8900 4296.00 4244.36 65.54
3118 67.9070 4288.00 4150.50 65.48
3119 67.9240 4239.00 4070.25 65.11
3120 67.9410 4007.00 4000.94 63.30
3121 67.9580 3884.00 3940.53 62.32
3122 67.9750 3833.00 3887.56 61.91
3123 67.9920 3783.00 3840.77 61.51
3124 68.0090 3693.00 3799.23 60.77
3125 68.0260 3740.00 3762.17 61.16
3126 68.0430 3605.00 3728.97 60.04
3127 68.0600 3633.00 3699.10 60.27
3128 68.0770 3615.00 3672.12 60.12
3129 68.0940 3551.00 3647.68 59.59
3130 68.1110 3489.00 3625.44 59.07
3131 68.1280 3529.00 3605.16 59.41
3132 68.1450 3578.00 3586.63 59.82
3133 68.1620 3570.00 3569.62 59.75
3134 68.1790 3517.00 3553.97 59.30
3135 68.1960 3484.00 3539.55 59.03
3136 68.2130 3552.00 3526.24 59.60
3137 68.2300 3484.00 3513.90 59.03
3138 68.2470 3414.00 3502.46 58.43
3139 68.2640 3383.00 3491.83 58.16
3140 68.2810 3487.00 3481.93 59.05
3141 68.2980 3548.00 3472.69 59.57
3142 68.3150 3427.00 3464.05 58.54
3143 68.3320 3476.00 3455.97 58.96
3144 68.3490 3547.00 3448.40 59.56
3145 68.3660 3441.00 3441.29 58.66
3146 68.3830 3517.00 3434.61 59.30
3147 68.4000 3489.00 3428.32 59.07
3148 68.4170 3490.00 3422.38 59.08
3149 68.4340 3456.00 3416.79 58.79
3150 68.4510 3365.00 3411.50 58.01
3151 68.4680 3405.00 3406.50 58.35
3152 68.4850 3527.00 3401.76 59.39
3153 68.5020 3377.00 3397.27 58.11
3154 68.5190 3361.00 3393.01 57.97
3155 68.5360 3432.00 3388.97 58.58
3156 68.5530 3312.00 3385.12 57.55
3157 68.5700 3340.00 3381.46 57.79
3158 68.5870 3452.00 3377.97 58.75
3159 68.6040 3359.00 3374.64 57.96
3160 68.6210 3284.00 3371.47 57.31
3161 68.6380 3477.00 3368.44 58.97
3162 68.6550 3366.00 3365.55 58.02
3163 68.6720 3304.00 3362.78 57.48
3164 68.6890 3412.00 3360.13 58.41
3165 68.7060 3388.00 3357.59 58.21
3166 68.7230 3285.00 3355.15 57.31
3167 68.7400 3309.00 3352.82 57.52
3168 68.7570 3280.00 3350.58 57.27
3169 68.7740 3191.00 3348.43 56.49
3170 68.7910 3312.00 3346.36 57.55
3171 68.8080 3207.00 3344.37 56.63
3172 68.8250 3298.00 3342.46 57.43
3173 68.8420 3478.00 3340.62 58.97
3174 68.8590 3288.00 3338.84 57.34
3175 68.8760 3272.00 3337.13 57.20
3176 68.8930 3399.00 3335.48 58.30
3177 68.9100 3353.00 3333.89 57.91
3178 68.9270 3344.00 3332.36 57.83
3179 68.9440 3345.00 3330.87 57.84
3180 68.9610 3376.00 3329.44 58.10
3181 68.9780 3429.00 3328.05 58.56
3182 68.9950 3461.00 3326.71 58.83
3183 69.0120 3309.00 3325.41 57.52
3184 69.0290 3353.00 3324.15 57.91
3185 69.0460 3362.00 3322.94 57.98
3186 69.0630 3326.00 3321.76 57.67
3187 69.0800 3289.00 3320.61 57.35
3188 69.0970 3336.00 3319.50 57.76
3189 69.1140 3282.00 3318.43 57.29
3190 69.1310 3309.00 3317.38 57.52
3191 69.1480 3306.00 3316.37 57.50
3192 69.1650 3261.00 3315.38 57.11
3193 69.1820 3350.00 3314.42 57.88
3194 69.1990 3377.00 3313.49 58.11
3195 69.2160 3363.00 3312.58 57.99
3196 69.2330 3318.00 3311.70 57.60
3197 69.2500 3358.00 3310.84 57.95
3198 69.2670 3390.00 3310.01 58.22
3199 69.2840 3453.00 3309.19 58.76
3200 69.3010 3334.00 3308.40 57.74
3201 69.3180 3285.00 3307.63 57.31
3202 69.3350 3281.00 3306.87 57.28
3203 69.3520 3243.00 3306.14 56.95
3204 69.3690 3334.00 3305.42 57.74
3205 69.3860 3341.00 3304.72 57.80
3206 69.4030 3315.00 3304.04 57.58
3207 69.4200 3170.00 3303.37 56.30
3208 69.4370 3326.00 3302.72 57.67
3209 69.4540 3285.00 3302.08 57.31
3210 69.4710 3267.00 3301.46 57.16
3211 69.4880 3278.00 3300.85 57.25
3212 69.5050 3410.00 3300.26 58.40
3213 69.5220 3215.00 3299.67 56.70
3214 69.5390 3221.00 3299.10 56.75
3215 69.5560 3392.00 3298.55 58.24
3216 69.5730 3225.00 3298.00 56.79
3217 69.5900 3416.00 3297.47 58.45
3218 69.6070 3388.00 3296.94 58.21
3219 69.6240 3211.00 3296.43 56.67
3220 69.6410 3396.00 3295.93 58.28
3221 69.6580 3385.00 3295.43 58.18
3222 69.6750 3263.00 3294.95 57.12
3223 69.6920 3364.00 3294.48 58.00
3224 69.7090 3292.00 3294.01 57.38
3225 69.7260 3426.00 3293.56 58.53
3226 69.7430 3301.00 3293.11 57.45
3227 69.7600 3389.00 3292.67 58.22
3228 69.7770 3284.00 3292.24 57.31
3229 69.7940 3351.00 3291.81 57.89
3230 69.8110 3297.00 3291.40 57.42
3231 69.8280 3335.00 3290.99 57.75
3232 69.8450 3396.00 3290.58 58.28
3233 69.8620 3323.00 3290.19 57.65
3234 69.8790 3369.00 3289.80 58.04
3235 69.8960 3244.00 3289.42 56.96
3236 69.9130 3370.00 3289.04 58.05
3237 69.9300 3368.00 3288.67 58.03
3238 69.9470 3281.00 3288.31 57.28
3239 69.9640 3321.00 3287.95 57.63
3240 69.9810 3334.00 3287.60 57.74
3241 69.9980 3232.00 3287.25 56.85
3242 70.0150 3199.00 3286.91 56.56
3243 70.0320 3206.00 3286.57 56.62
3244 70.0490 3306.00 3286.24 57.50
3245 70.0660 3234.00 3285.91 56.87
3246 70.0830 3242.00 3285.59 56.94
3247 70.1000 3243.00 3285.27 56.95
3248 70.1170 3282.00 3284.96 57.29
3249 70.1340 3247.00 3284.65 56.98
3250 70.1510 3284.00 3284.34 57.31
3251 70.1680 3343.00 3284.04 57.82
3252 70.1850 3245.00 3283.75 56.96
3253 70.2020 3284.00 3273.34 57.31
3254 70.2190 3267.00 3273.18 57.16
3255 70.2360 3191.00 3273.02 56.49
3256 70.2530 3248.00 3272.86 56.99
3257 70.2700 3277.00 3272.70 57.25
3258 70.2870 3293.00 3272.54 57.38
3259 70.3040 3272.00 3272.38 57.20
3260 70.3210 3251.00 3272.23 57.02
3261 70.3380 3399.00 3272.07 58.30
3262 70.3550 3251.00 3271.92 57.02
3263 70.3720 3323.00 3266.78 57.65
3264 70.3890 3310.00 3266.69 57.53
3265 70.4060 3212.00 3266.60 56.67
3266 70.4230 3280.00 3266.51 57.27
3267 70.4400 3345.00 3266.42 57.84
3268 70.4570 3288.00 3266.33 57.34
3269 70.4740 3175.00 3266.25 56.35
3270 70.4910 3238.00 3266.16 56.90
3271 70.5080 3271.00 3266.07 57.19
3272 70.5250 3183.00 3265.98 56.42
3273 70.5420 3224.00 3265.89 56.78
3274 70.5590 3192.00 3265.80 56.50
3275 70.5760 3257.00 3265.71 57.07
3276 70.5930 3372.00 3265.62 58.07
3277 70.6100 3216.00 3265.54 56.71
3278 70.6270 3277.00 3265.45 57.25
3279 70.6440 3319.00 3265.36 57.61
3280 70.6610 3202.00 3265.27 56.59
3281 70.6780 3327.00 3265.18 57.68
3282 70.6950 3255.00 3265.09 57.05
3283 70.7120 3271.00 3265.00 57.19
3284 70.7290 3235.00 3264.92 56.88
3285 70.7460 3346.00 3264.83 57.84
3286 70.7630 3328.00 3264.74 57.69
3287 70.7800 3169.00 3264.65 56.29
3288 70.7970 3259.00 3264.56 57.09
3289 70.8140 3229.00 3264.47 56.82
3290 70.8310 3275.00 3264.39 57.23
3291 70.8480 3223.00 3264.30 56.77
3292 70.8650 3264.00 3264.21 57.13
3293 70.8820 3312.00 3264.12 57.55
3294 70.8990 3190.00 3264.03 56.48
3295 70.9160 3212.00 3263.94 56.67
3296 70.9330 3324.00 3263.86 57.65
3297 70.9500 3293.00 3263.77 57.38
3298 70.9670 3315.00 3263.68 57.58
3299 70.9840 3239.00 3263.59 56.91
3300 71.0010 3288.00 3263.51 57.34
3301 71.0180 3340.00 3263.42 57.79
3302 71.0350 3261.00 3263.33 57.11
3303 71.0520 3263.00 3263.24 57.12
3304 71.0690 3258.00 3263.15 57.08
3305 71.0860 3252.00 3263.07 57.03
3306 71.1030 3261.00 3262.98 57.11
3307 71.1200 3287.00 3262.89 57.33
3308 71.1370 3285.00 3262.80 57.31
3309 71.1540 3280.00 3262.72 57.27
3310 71.1710 3309.00 3262.63 57.52
3311 71.1880 3282.00 3262.54 57.29
3312 71.2050 3278.00 3262.46 57.25
3313 71.2220 3195.00 3262.37 56.52
3314 71.2390 3192.00 3262.28 56.50
3315 71.2560 3331.00 3262.19 57.71
3316 71.2730 3319.00 3262.11 57.61
3317 71.2900 3270.00 3262.02 57.18
3318 71.3070 3284.00 3261.93 57.31
3319 71.3240 3234.00 3261.85 56.87
3320 71.3410 3312.00 3261.76 57.55
3321 71.3580 3233.00 3261.67 56.86
3322 71.3750 3226.00 3261.59 56.80
3323 71.3920 3239.00 3261.50 56.91
3324 71.4090 3219.00 3261.42 56.74
3325 71.4260 3304.00 3261.33 57.48
3326 71.4430 3223.00 3261.24 56.77
3327 71.4600 3220.00 3261.16 56.74
3328 71.4770 3263.00 3261.07 57.12
3329 71.4940 3278.00 3260.99 57.25
3330 71.5110 3314.00 3260.90 57.57
3331 71.5280 3355.00 3260.81 57.92
3332 71.5450 3236.00 3260.73 56.89
3333 71.5620 3258.00 3260.64 57.08
3334 71.5790 3221.00 3260.56 56.75
3335 71.5960 3259.00 3260.47 57.09
3336 71.6130 3205.00 3260.39 56.61
3337 71.6300 3217.00 3260.30 56.72
3338 71.6470 3128.00 3260.22 55.93
3339 71.6640 3213.00 3260.13 56.68
3340 71.6810 3186.00 3260.05 56.44
3341 71.6980 3283.00 3259.96 57.30
3342 71.7150 3278.00 3259.88 57.25
3343 71.7320 3248.00 3259.79 56.99
3344 71.7490 3290.00 3259.71 57.36
3345 71.7660 3398.00 3259.62 58.29
3346 71.7830 3351.00 3259.54 57.89
3347 71.8000 3194.00 3259.45 56.52
3348 71.8170 3239.00 3259.37 56.91
3349 71.8340 3301.00 3259.28 57.45
3350 71.8510 3201.00 3259.20 56.58
3351 71.8680 3260.00 3259.12 57.10
3352 71.8850 3154.00 3259.03 56.16
3353 71.9020 3270.00 3258.95 57.18
3354 71.9190 3217.00 3258.87 56.72
3355 71.9360 3390.00 3258.78 58.22
3356 71.9530 3243.00 3258.70 56.95
3357 71.9700 3333.00 3258.62 57.73
3358 71.9870 3276.00 3258.53 57.24
3359 72.0040 3271.00 3258.45 57.19
3360 72.0210 3235.00 3258.37 56.88
3361 72.0380 3157.00 3258.28 56.19
3362 72.0550 3157.00 3258.20 56.19
3363 72.0720 3203.00 3258.12 56.60
3364 72.0890 3264.00 3258.04 57.13
3365 72.1060 3263.00 3257.95 57.12
3366 72.1230 3276.00 3257.87 57.24
3367 72.1400 3331.00 3257.79 57.71
3368 72.1570 3183.00 3257.71 56.42
3369 72.1740 3118.00 3257.63 55.84
3370 72.1910 3177.00 3257.54 56.36
3371 72.2080 3268.00 3257.46 57.17
3372 72.2250 3346.00 3257.38 57.84
3373 72.2420 3263.00 3257.30 57.12
3374 72.2590 3247.00 3257.22 56.98
3375 72.2760 3300.00 3257.14 57.45
3376 72.2930 3238.00 3257.06 56.90
3377 72.3100 3258.00 3256.98 57.08
3378 72.3270 3223.00 3256.89 56.77
3379 72.3440 3231.00 3256.81 56.84
3380 72.3610 3204.00 3256.73 56.60
3381 72.3780 3298.00 3256.65 57.43
3382 72.3950 3248.00 3256.57 56.99
3383 72.4120 3283.00 3256.49 57.30
3384 72.4290 3235.00 3256.41 56.88
3385 72.4460 3224.00 3256.33 56.78
3386 72.4630 3268.00 3256.25 57.17
3387 72.4800 3278.00 3256.18 57.25
3388 72.4970 3335.00 3256.10 57.75
3389 72.5140 3276.00 3256.02 57.24
3390 72.5310 3317.00 3255.94 57.59
3391 72.5480 3171.00 3255.86 56.31
3392 72.5650 3367.00 3255.78 58.03
3393 72.5820 3311.00 3255.70 57.54
3394 72.5990 3205.00 3255.62 56.61
3395 72.6160 3216.00 3255.55 56.71
3396 72.6330 3161.00 3255.47 56.22
3397 72.6500 3210.00 3255.39 56.66
3398 72.6670 3194.00 3255.31 56.52
3399 72.6840 3220.00 3255.23 56.74
3400 72.7010 3142.00 3255.16 56.05
3401 72.7180 3302.00 3255.08 57.46
3402 72.7350 3273.00 3255.00 57.21
3403 72.7520 3348.00 3254.93 57.86
3404 72.7690 3384.00 3254.85 58.17
3405 72.7860 3195.00 3254.77 56.52
3406 72.8030 3304.00 3254.70 57.48
3407 72.8200 3265.00 3254.62 57.14
3408 72.8370 3242.00 3254.54 56.94
3409 72.8540 3266.00 3254.47 57.15
3410 72.8710 3312.00 3254.39 57.55
3411 72.8880 3369.00 3254.32 58.04
3412 72.9050 3299.00 3254.24 57.44
3413 72.9220 3296.00 3254.17 57.41
3414 72.9390 3279.00 3254.09 57.26
3415 72.9560 3338.00 3254.02 57.78
3416 72.9730 3284.00 3253.94 57.31
3417 72.9900 3350.00 3253.87 57.88
3418 73.0070 3259.00 3253.80 57.09
3419 73.0240 3246.00 3253.72 56.97
3420 73.0410 3309.00 3253.65 57.52
3421 73.0580 3301.00 3253.57 57.45
3422 73.0750 3320.00 3253.50 57.62
3423 73.0920 3262.00 3253.43 57.11
3424 73.1090 3205.00 3253.35 56.61
3425 73.1260 3195.00 3253.28 56.52
3426 73.1430 3274.00 3253.21 57.22
3427 73.1600 3298.00 3253.14 57.43
3428 73.1770 3266.00 3253.07 57.15
3429 73.1940 3290.00 3252.99 57.36
3430 73.2110 3229.00 3252.92 56.82
3431 73.2280 3265.00 3252.85 57.14
3432 73.2450 3248.00 3252.78 56.99
3433 73.2620 3211.00 3252.71 56.67
3434 73.2790 3222.00 3252.64 56.76
3435 73.2960 3263.00 3252.57 57.12
3436 73.3130 3220.00 3252.50 56.74
3437 73.3300 3125.00 3252.43 55.90
3438 73.3470 3203.00 3252.36 56.60
3439 73.3640 3239.00 3252.29 56.91
3440 73.3810 3186.00 3252.22 56.44
3441 73.3980 3271.00 3252.15 57.19
3442 73.4150 3267.00 3252.08 57.16
3443 73.4320 3417.00 3252.01 58.46
3444 73.4490 3249.00 3251.94 57.00
3445 73.4660 3358.00 3251.87 57.95
3446 73.4830 3386.00 3251.80 58.19
3447 73.5000 3268.00 3251.74 57.17
3448 73.5170 3193.00 3251.67 56.51
3449 73.5340 3235.00 3251.60 56.88
3450 73.5510 3206.00 3251.53 56.62
3451 73.5680 3358.00 3251.47 57.95
3452 73.5850 3297.00 3251.40 57.42
3453 73.6020 3286.00 3251.33 57.32
3454 73.6190 3322.00 3251.27 57.64
3455 73.6360 3352.00 3251.20 57.90
3456 73.6530 3363.00 3251.13 57.99
3457 73.6700 3264.00 3251.07 57.13
3458 73.6870 3375.00 3251.00 58.09
3459 73.7040 3251.00 3250.94 57.02
3460 73.7210 3229.00 3250.87 56.82
3461 73.7380 3232.00 3250.81 56.85
3462 73.7550 3288.00 3250.75 57.34
3463 73.7720 3262.00 3250.68 57.11
3464 73.7890 3320.00 3250.62 57.62
3465 73.8060 3212.00 3250.55 56.67
3466 73.8230 3350.00 3250.49 57.88
3467 73.8400 3232.00 3250.43 56.85
3468 73.8570 3315.00 3250.36 57.58
3469 73.8740 3211.00 3250.30 56.67
3470 73.8910 3204.00 3250.24 56.60
3471 73.9080 3371.00 3250.18 58.06
3472 73.9250 3239.00 3250.12 56.91
3473 73.9420 3269.00 3250.06 57.18
3474 73.9590 3363.00 3249.99 57.99
3475 73.9760 3345.00 3249.93 57.84
3476 73.9930 3415.00 3249.87 58.44
3477 74.0100 3244.00 3249.81 56.96
3478 74.0270 3240.00 3249.75 56.92
3479 74.0440 3298.00 3249.69 57.43
3480 74.0610 3219.00 3249.63 56.74
3481 74.0780 3301.00 3249.57 57.45
3482 74.0950 3255.00 3249.52 57.05
3483 74.1120 3264.00 3249.46 57.13
3484 74.1290 3269.00 3249.40 57.18
3485 74.1460 3256.00 3249.34 57.06
3486 74.1630 3237.00 3249.28 56.89
3487 74.1800 3316.00 3249.23 57.58
3488 74.1970 3239.00 3249.17 56.91
3489 74.2140 3200.00 3249.11 56.57
3490 74.2310 3259.00 3249.06 57.09
3491 74.2480 3235.00 3249.00 56.88
3492 74.2650 3215.00 3248.94 56.70
3493 74.2820 3221.00 3248.89 56.75
3494 74.2990 3205.00 3248.83 56.61
3495 74.3160 3166.00 3248.78 56.27
3496 74.3330 3158.00 3248.72 56.20
3497 74.3500 3118.00 3248.67 55.84
3498 74.3670 3172.00 3248.61 56.32
3499 74.3840 3278.00 3248.56 57.25
3500 74.4010 3262.00 3248.51 57.11
3501 74.4180 3254.00 3248.45 57.04
3502 74.4350 3177.00 3248.40 56.36
3503 74.4520 3206.00 3248.35 56.62
3504 74.4690 3312.00 3248.30 57.55
3505 74.4860 3404.00 3248.25 58.34
3506 74.5030 3211.00 3248.19 56.67
3507 74.5200 3219.00 3248.14 56.74
3508 74.5370 3233.00 3248.09 56.86
3509 74.5540 3341.00 3248.04 57.80
3510 74.5710 3261.00 3247.99 57.11
3511 74.5880 3186.00 3247.94 56.44
3512 74.6050 3298.00 3247.89 57.43
3513 74.6220 3187.00 3247.84 56.45
3514 74.6390 3166.00 3247.79 56.27
3515 74.6560 3189.00 3247.75 56.47
3516 74.6730 3211.00 3247.70 56.67
3517 74.6900 3216.00 3247.65 56.71
3518 74.7070 3186.00 3247.60 56.44
3519 74.7240 3348.00 3247.56 57.86
3520 74.7410 3159.00 3247.51 56.21
3521 74.7580 3153.00 3247.46 56.15
3522 74.7750 3224.00 3247.42 56.78
3523 74.7920 3153.00 3247.37 56.15
3524 74.8090 3211.00 3247.33 56.67
3525 74.8260 3208.00 3247.28 56.64
3526 74.8430 3201.00 3247.24 56.58
3527 74.8600 3281.00 3247.19 57.28
3528 74.8770 3209.00 3247.15 56.65
3529 74.8940 3182.00 3247.10 56.41
loop_
_refln_index_h
_refln_index_k
_refln_index_l
_refln_F_squared_calc
_refln_F_squared_meas
_refln_F_squared_sigma
_refln_observed_status
_refln_d_spacing
0 0 1 994.86 983.03 19.80 o 3.944562
1 0 1 1146.15 1152.56 23.35 o 2.789227
1 1 1 41.83 62.54 2.52 o 2.277394
0 0 2 2260.87 2161.36 44.19 o 1.972281
1 0 2 538.01 589.09 12.04 o 1.764062
1 1 2 739.54 729.91 15.00 o 1.610361
