#------------------------------------------------------------------------------
#$Date: 2019-10-29 23:19:33 +0200 (Tue, 29 Oct 2019) $
#$Revision: 220413 $
#$URL: file:///home/coder/svn-repositories/cod/cif/4/00/29/4002989.cif $
#------------------------------------------------------------------------------
#
# This file is available in the Crystallography Open Database (COD),
# http://www.crystallography.net/
#
# All data on this site have been placed in the public domain by the
# contributors.
#
data_4002989
loop_
_publ_author_name
'Zhou, Laidong'
'Assoud, Abdeljalil'
'Shyamsunder, Abhinandan'
'Huq, Ashfia'
'Zhang, Qiang'
'Hartmann, Pascal'
'Kulisch, Joern'
'Nazar, Linda F.'
_publ_section_title
;
 An Entropically Stabilized Fast-Ion Conductor: Li3.25[Si0.25P0.75]S4
;
_journal_issue                   19
_journal_name_full               'Chemistry of Materials'
_journal_page_first              7801
_journal_paper_doi               10.1021/acs.chemmater.9b00657
_journal_volume                  31
_journal_year                    2019
_chemical_formula_moiety         'Li3.83 P0.20 S4 Si0.80'
_chemical_formula_sum            'Li3.83 P0.2 S4 Si0.8'
_chemical_formula_weight         183.48
_space_group_crystal_system      monoclinic
_space_group_IT_number           11
_space_group_name_Hall           '-P 2yb'
_space_group_name_H-M_alt        'P 1 21/m 1'
_symmetry_space_group_name_Hall  '-P 2yb'
_symmetry_space_group_name_H-M   'P 1 21/m 1'
_audit_creation_method           SHELXL-2016
_cell_angle_alpha                90
_cell_angle_beta                 91.147(9)
_cell_angle_gamma                90
_cell_formula_units_Z            2
_cell_length_a                   6.112(2)
_cell_length_b                   7.781(3)
_cell_length_c                   6.880(3)
_cell_measurement_reflns_used    931
_cell_measurement_temperature    280(2)
_cell_measurement_theta_max      30
_cell_measurement_theta_min      1.5
_cell_volume                     327.1(2)
_computing_cell_refinement       'SMART, 'Bruker APEX II'
_computing_data_collection       'Bruker kappa APEX II'
_computing_data_reduction        'SAINT, 'Bruker APEX II'
_computing_molecular_graphics    Diamond
_computing_structure_refinement  'SHELXL-2016 (Sheldrick, 2016)'
_computing_structure_solution    'SHELXL-2016 (Sheldrick, 2016)'
_diffrn_ambient_temperature      280(2)
_diffrn_measured_fraction_theta_full 0.991
_diffrn_measured_fraction_theta_max 0.994
_diffrn_measurement_device_type  'BRUKER kappa APEX II'
_diffrn_measurement_method       'Omega and phi scan'
_diffrn_radiation_monochromator  graphite
_diffrn_radiation_source         'fine-focus sealed tube'
_diffrn_radiation_type           MoK\a
_diffrn_radiation_wavelength     0.71073
_diffrn_reflns_av_R_equivalents  0.0388
_diffrn_reflns_av_unetI/netI     0.0443
_diffrn_reflns_Laue_measured_fraction_full 0.991
_diffrn_reflns_Laue_measured_fraction_max 0.994
_diffrn_reflns_limit_h_max       8
_diffrn_reflns_limit_h_min       -7
_diffrn_reflns_limit_k_max       8
_diffrn_reflns_limit_k_min       -10
_diffrn_reflns_limit_l_max       9
_diffrn_reflns_limit_l_min       -9
_diffrn_reflns_number            3317
_diffrn_reflns_point_group_measured_fraction_full 0.991
_diffrn_reflns_point_group_measured_fraction_max 0.994
_diffrn_reflns_theta_full        25.242
_diffrn_reflns_theta_max         29.992
_diffrn_reflns_theta_min         4.241
_diffrn_standards_decay_%        0
_diffrn_standards_interval_time  3
_diffrn_standards_number         3
_exptl_absorpt_coefficient_mu    1.508
_exptl_absorpt_correction_T_max  0.7460
_exptl_absorpt_correction_T_min  0.7001
_exptl_absorpt_correction_type   multi-scan
_exptl_absorpt_process_details   SADABS
_exptl_crystal_colour            colourless
_exptl_crystal_density_diffrn    1.863
_exptl_crystal_description       Block
_exptl_crystal_F_000             179
_exptl_crystal_size_max          0.050
_exptl_crystal_size_mid          0.040
_exptl_crystal_size_min          0.020
_refine_diff_density_max         1.068
_refine_diff_density_min         -0.510
_refine_diff_density_rms         0.175
_refine_ls_extinction_method     none
_refine_ls_goodness_of_fit_ref   1.117
_refine_ls_hydrogen_treatment    undef
_refine_ls_matrix_type           full
_refine_ls_number_parameters     63
_refine_ls_number_reflns         1011
_refine_ls_number_restraints     6
_refine_ls_restrained_S_all      1.117
_refine_ls_R_factor_all          0.0650
_refine_ls_R_factor_gt           0.0480
_refine_ls_shift/su_max          0.000
_refine_ls_shift/su_mean         0.000
_refine_ls_structure_factor_coef Fsqd
_refine_ls_weighting_details
'w=1/[\s^2^(Fo^2^)+(0.0680P)^2^+0.1052P] where P=(Fo^2^+2Fc^2^)/3'
_refine_ls_weighting_scheme      calc
_refine_ls_wR_factor_gt          0.1146
_refine_ls_wR_factor_ref         0.1216
_reflns_Friedel_coverage         0.000
_reflns_number_gt                798
_reflns_number_total             1011
_reflns_threshold_expression     'I > 2\s(I)'
_cod_data_source_file            Li3.8Si0.8P0.2S4.cif
_cod_data_source_block           Li3.8Si0.8P0.2S4
_cod_original_formula_sum        'Li3.83 P0.20 S4 Si0.80'
_cod_database_code               4002989
_shelx_space_group_comment
;
The symmetry employed for this shelxl refinement is uniquely defined
by the following loop, which should always be used as a source of
symmetry information in preference to the above space-group names.
They are only intended as comments.
;
_shelx_estimated_absorpt_t_min   0.794
_shelx_estimated_absorpt_t_max   0.794
_shelx_res_file
;
TITL LN14_0m_a.res in P2(1)/m
    LN14.res
    created by SHELXL-2016/6 at 11:07:29 on 15-May-2018
REM Old TITL LN14_0m in P2(1)/m

REM SHELXT solution in P2(1)/m
REM R1 0.101,  Rweak 0.005,  Alpha 0.010,  Orientation as input
REM Formula found by SHELXT:  S

CELL  0.71073   6.1118   7.7815   6.8799   90.000   91.147   90.000
ZERR    2.000   0.0024   0.0031   0.0028    0.000    0.009    0.000
LATT  1
SYMM -X, 1/2+Y, -Z
SFAC Li P S SI
UNIT 7.6584 0.4 8 1.6
TEMP 6.850
SIZE 0.050 0.040 0.020
ACTA
L.S. 30
BOND
OMIT -3 60
LIST 4
FMAP 2
EXYZ SI1 P1
EADP SI1 P1
PLAN 10

WGHT    0.068000    0.105200
FVAR       0.93487   0.50000
SI1   4    0.355654    0.250000    0.673848    10.40000    0.01260    0.01220 =
         0.01123    0.00000   -0.00101    0.00000
P1    2    0.355654    0.250000    0.673848    10.10000    0.01260    0.01220 =
         0.01123    0.00000   -0.00101    0.00000
S1    3    0.239042    0.474312    0.809848    11.00000    0.02135    0.01486 =
         0.01530   -0.00316    0.00091    0.00133
S2    3    0.232345    0.250000    0.380593    10.50000    0.01600    0.01374 =
         0.01245    0.00000   -0.00196    0.00000
S3    3    0.701256    0.250000    0.678841    10.50000    0.01305    0.01620 =
         0.02194    0.00000   -0.00247    0.00000
LI1   1    0.646696    0.250000    0.329599     0.46999    0.06312    0.02764 =
         0.02515    0.00000    0.02041    0.00000
LI2   1    0.000000    0.000000    0.500000     0.44819    0.05843    0.06774 =
         0.05125    0.02951   -0.03552   -0.04333
LI3   1    0.661881   -0.015696    0.851181     0.51387    0.03598    0.03042 =
         0.02380    0.00311   -0.00049    0.00989
LI4   1    0.817503   -0.008813    0.846260     0.48255    0.04294    0.04076 =
         0.02233    0.00695    0.00765   -0.00404
HKLF 4




REM  LN14_0m_a.res in P2(1)/m
REM R1 =  0.0480 for     798 Fo > 4sig(Fo)  and  0.0650 for all    1011 data
REM     63 parameters refined using      0 restraints

END

WGHT      0.0677      0.1218

REM Highest difference peak  1.068,  deepest hole -0.510,  1-sigma level  0.175
Q1    1   0.1421  0.2500  0.4964  10.50000  0.05    1.07
Q2    1   0.4588  0.0096  0.5643  11.00000  0.05    0.89
Q3    1   0.1677  0.2500  0.2234  10.50000  0.05    0.89
Q4    1  -0.0603  0.2500  0.4468  10.50000  0.05    0.87
Q5    1   0.4672  0.2500  0.5618  10.50000  0.05    0.87
Q6    1   0.1386  0.4763  0.9058  11.00000  0.05    0.86
Q7    1   0.4526  0.2500  0.1553  10.50000  0.05    0.83
Q8    1   0.3633  0.2500  0.2590  10.50000  0.05    0.82
Q9    1   0.9032  0.2500  0.7086  10.50000  0.05    0.82
Q10   1   0.5681  0.2500  0.0538  10.50000  0.05    0.80
;
_shelx_res_checksum              87850
_shelx_hkl_file
;
   2   0   0 8514.18   57.24
   2   0   0 8563.89   55.04
   3   0   0  446.63   15.51
   3   0   0  419.00   14.04
   4   0   0  924.80   23.81
   4   0   0  899.58   21.70
   5   0   0   17.31    8.75
   5   0   0   29.03   10.68
   6   0   0  180.08   19.06
   6   0   0  183.75   17.15
   7   0   0  197.95   20.61
   7   0   0  187.88   19.70
   8   0   0  128.73   20.65
   8   0   0  150.02   20.18
   0  -1   0   -1.02    1.70
   1  -1   0  607.36   10.65
   2  -1   0   12.28    5.74
   2  -1   0   18.47    6.15
   2   1   0    6.06    4.42
   3  -1   0   22.29    7.36
   3  -1   0   37.69    6.03
   3  -1   0   35.48    7.26
   3   1   0   30.47    6.45
   3   1   0   23.89    6.19
   4  -1   0  230.68   15.22
   4  -1   0  206.29   14.65
   4  -1   0  233.25   11.77
   4   1   0  230.47   13.02
   4   1   0  212.06   13.31
   5  -1   0   -2.89    8.40
   5  -1   0    8.00    9.72
   5   1   0    7.56    8.87
   5   1   0    8.67    8.70
   6  -1   0  506.72   26.06
   6  -1   0  591.19   25.47
   6   1   0  552.35   25.46
   6   1   0  523.49   22.69
   7  -1   0  135.60   18.54
   7  -1   0  106.01   18.34
   7   1   0  137.54   16.54
   7   1   0  145.57   18.92
   8  -1   0  207.02   21.96
   8  -1   0  245.01   25.15
   8   1   0  257.01   23.79
   0  -2   0  347.86    8.35
  -1  -2   0  565.70    6.52
   1  -2   0  559.03   13.40
   1  -2   0  563.99   12.85
   1  -2   0  586.23   11.37
   2  -2   0   18.49    6.13
   2  -2   0   11.75    5.65
   2  -2   0    6.19    5.30
   3  -2   0  681.71   17.66
   3  -2   0  704.89   18.79
   3  -2   0  702.46   17.89
   3   2   0  694.31   14.78
   3   2   0  732.53   17.73
   4  -2   0  375.95   16.01
   4  -2   0  357.68   17.60
   4  -2   0  382.31   17.01
   4   2   0  381.61   16.60
   4   2   0  383.27   14.57
   5  -2   0  152.43   15.58
   5  -2   0  112.08   14.36
   5   2   0  111.58   11.74
   5   2   0  125.62   13.70
   6  -2   0  217.79   18.46
   6  -2   0  206.29   19.28
   6   2   0  173.42   17.90
   6   2   0  225.27   16.95
   7  -2   0   12.42   13.74
   7  -2   0  -10.24   12.34
   7   2   0    4.75   11.30
   8  -2   0   79.97   19.60
   8  -2   0   46.58   16.97
   0  -3   0    0.78    4.39
   0  -3   0   -1.93    5.78
   1  -3   0   52.85    7.10
   1  -3   0   46.28    5.87
  -1  -3   0   52.22    4.14
  -1  -3   0   53.81    6.59
   1  -3   0   57.45    8.67
   1  -3   0   53.39    6.06
   2  -3   0   -2.44    5.19
   2  -3   0   -4.74    5.79
   2  -3   0    7.01    6.82
  -2  -3   0    0.42    4.53
   3  -3   0  176.66   12.18
   3  -3   0  165.27   12.61
   3  -3   0  193.68   13.08
   3   3   0  165.56    8.86
   3   3   0  164.84   11.74
   4  -3   0   63.44   10.48
   4  -3   0   70.09   11.47
   4  -3   0   70.16   10.54
   4   3   0   63.71    8.17
   4   3   0   72.84   10.30
   5  -3   0   56.54   12.82
   5  -3   0   98.72   14.10
   5  -3   0   68.95   11.67
   5   3   0   80.07   10.12
   6  -3   0  288.64   22.54
   6  -3   0  276.62   21.22
   7  -3   0    2.15   13.65
   7  -3   0    2.41   13.30
   8  -3   0  116.95   21.84
   8  -3   0   72.15   20.03
   0  -4   0 9967.91   64.97
   0  -4   0 9999.00   75.88
   1  -4   0  111.71   10.91
   1  -4   0  110.02    7.90
   1  -4   0  112.25    8.16
  -1  -4   0  105.94    9.69
   2  -4   0 2973.98   41.20
   2  -4   0 3010.29   34.60
  -2  -4   0 2993.33   33.17
   2  -4   0 3030.15   35.14
   3  -4   0  267.97   16.75
   3  -4   0  247.96   14.89
   3  -4   0  256.56   14.41
   4  -4   0  443.29   20.20
   4  -4   0  424.18   20.61
   4  -4   0  446.41   20.54
   5  -4   0   22.90   11.07
   5  -4   0    2.56    9.96
   5  -4   0   19.80   11.92
   6  -4   0   75.96   14.76
   6  -4   0   46.94   15.49
   7  -4   0   65.49   17.51
   7  -4   0   63.37   18.27
   8  -4   0   90.22   21.69
   8  -4   0  116.32   21.19
   0  -5   0    0.16    4.45
   0  -5   0    6.89    7.96
   1  -5   0  939.61   17.49
  -1  -5   0  931.13   23.38
   1  -5   0  947.44   25.63
  -2  -5   0    2.64    7.09
   2  -5   0   -0.30    7.08
   2  -5   0    7.53    8.43
   2  -5   0   -4.10    6.39
   3  -5   0  286.53   19.52
   3  -5   0  279.91   16.58
   3  -5   0  319.52   16.78
   4  -5   0  240.35   19.28
   4  -5   0  228.83   17.58
   4  -5   0  261.53   18.09
   5  -5   0  113.97   16.07
   5  -5   0   87.22   15.37
   5  -5   0   94.83   14.69
   6  -5   0  511.92   28.56
   6  -5   0  490.18   28.34
   7  -5   0  244.60   25.02
   7  -5   0  223.25   23.77
   0  -6   0  550.26   22.32
  -1  -6   0  167.06   14.80
   1  -6   0  119.20   13.99
  -2  -6   0  107.49   12.40
   2  -6   0  109.98   11.24
   2  -6   0   91.47   13.61
   2  -6   0  110.83   10.92
   3  -6   0  253.89   17.67
   3  -6   0  302.26   22.39
   3  -6   0  269.14   17.03
   4  -6   0   57.17   12.19
   4  -6   0   53.28   12.63
   4  -6   0   42.57   14.61
   5  -6   0   16.06   14.28
   5  -6   0   27.34   14.09
   5  -6   0   64.41   14.53
   6  -6   0   52.53   17.24
   6  -6   0   57.90   15.91
   6  -6   0   56.64   17.23
   7  -6   0    3.34   16.02
   7  -6   0   41.90   18.66
   0  -7   0   10.96   10.45
   1  -7   0  157.86   17.93
  -1  -7   0  136.25   15.35
  -2  -7   0   -6.88    9.92
   2  -7   0   15.46   12.68
   3  -7   0  325.20   25.77
   3  -7   0  297.40   18.41
   4  -7   0   14.54   12.11
   4  -7   0   26.09   11.61
   4  -7   0   26.07   16.11
   5  -7   0  139.31   22.45
   5  -7   0  114.06   17.79
   5  -7   0  121.30   17.29
   6  -7   0  128.74   20.14
   6  -7   0  107.75   20.10
   6  -7   0   89.08   21.78
   0  -8   0 1696.22   41.58
   1  -8   0   41.97   14.48
  -1  -8   0   51.21   14.13
   2  -8   0  497.89   29.73
   3  -8   0   96.80   19.10
   4  -8   0   55.53   19.96
   4  -8   0   44.50   13.19
   5  -8   0   -9.32   11.92
   5  -8   0    2.49   18.46
   0  -9   0   10.95   13.93
  -1  -9   0  508.92   29.13
   1  -9   0  490.11   30.47
   2  -9   0   20.36   15.34
   3  -9   0  202.97   25.66
   4  -9   0  104.07   23.23
   0 -10   0  510.63   33.20
   1 -10   0   20.15   17.33
  -1 -10   0   16.14   17.56
   2 -10   0  211.45   26.81
   3 -10   0   32.84   18.44
   8   0  -1  132.68   20.70
   8   0  -1  121.97   19.33
   7   0  -1  220.84   20.25
   7   0  -1  163.84   19.00
   6   0  -1  453.07   23.26
   6   0  -1  474.89   22.91
   5   0  -1    3.59    9.42
   5   0  -1  -22.30    8.73
   4   0  -1   99.84   10.89
   4   0  -1  103.29   10.18
   3   0  -1  101.81    9.19
   3   0  -1  116.89    7.72
   3   0  -1  108.67   10.00
   2   0  -1   82.97    7.70
   2   0  -1   96.24    6.29
   2   0  -1   91.70    6.98
   1   0  -1  208.34    6.31
   2   0   1    0.91    5.28
   2   0   1   -0.97    5.39
   3   0   1  263.29   12.57
   3   0   1  302.94   13.39
   4   0   1   49.37    8.61
   4   0   1   49.79    8.60
   5   0   1   25.99   10.41
   5   0   1   21.83    9.16
   6   0   1  178.83   16.61
   6   0   1  218.30   19.97
   7   0   1  138.06   18.63
   7   0   1   83.27   15.86
   8   0   1   75.26   19.76
   8   0   1  107.05   19.04
   8  -1  -1   70.32   17.74
   8  -1  -1   36.16   17.21
   8   1  -1   16.18   15.69
   8   1  -1   37.07   15.49
   7  -1  -1   44.86   14.07
   7  -1  -1   63.34   15.74
   7   1  -1   74.12   16.27
   7   1  -1   55.31   14.15
   6  -1  -1    2.94   11.75
   6  -1  -1   -9.98   11.06
   6   1  -1   16.10   10.62
   6   1  -1   19.87   12.00
   5  -1  -1  221.26   16.62
   5  -1  -1  204.36   16.72
   5   1  -1  205.54   14.94
   5   1  -1  141.86   13.90
   4  -1  -1   -2.44    7.60
   4  -1  -1    1.77    7.84
   4   1  -1    9.85    8.07
   4   1  -1   -1.69    7.12
   3  -1  -1  801.56   17.29
   3  -1  -1  807.07   18.92
  -3  -1   1  781.32   14.94
   3   1  -1  807.22   16.37
   3   1  -1  794.87   13.02
   3   1  -1  784.59   19.34
   2  -1  -1  114.86    7.75
   2  -1  -1  151.00    9.76
   2  -1  -1  147.24    9.60
   2   1  -1  130.09    7.81
   2   1  -1  133.46    6.09
   2   1  -1  152.80   10.32
   1  -1  -1  824.36   13.18
   2  -1   1  106.14    8.21
   2  -1   1  100.15    8.86
   2  -1   1  106.59    8.16
   2   1   1   92.70    7.35
   3  -1   1  513.05   15.95
   3  -1   1  506.76   16.78
   3  -1   1  508.32   13.11
   3   1   1  509.19   15.12
   3   1   1  510.49   14.73
   4  -1   1  282.30   15.19
   4  -1   1  247.16   15.35
   4  -1   1  246.33   11.44
   4   1   1  246.74   13.91
   4   1   1  279.55   15.36
   5  -1   1  148.60   15.27
   5  -1   1  127.02   14.73
   5   1   1  130.71   13.83
   5   1   1  161.23   15.38
   6  -1   1  443.31   23.27
   6  -1   1  469.19   24.77
   6   1   1  451.14   23.83
   6   1   1  435.18   22.45
   7  -1   1    0.43   13.08
   7  -1   1    1.12   11.52
   7   1   1    3.09   11.39
   8  -1   1  132.92   21.01
   8  -1   1   70.39   17.97
   8   1   1  133.01   19.79
   8  -2  -1   26.04   17.67
   8  -2  -1   18.30   16.11
   7  -2  -1   18.33   14.73
   7  -2  -1   14.49   13.26
   7   2  -1   21.19   14.26
   6  -2  -1   -8.11   11.07
   6  -2  -1    0.27   11.38
   6   2  -1   -1.52    9.44
   6   2  -1   -2.56    9.33
   5  -2  -1 1115.64   30.32
   5  -2  -1 1099.10   29.84
   5  -2  -1 1122.70   26.62
   5   2  -1 1073.24   24.78
   5   2  -1 1114.30   29.84
   4  -2  -1  253.00   15.30
   4  -2  -1  232.68   16.04
   4  -2  -1  218.14   15.55
   4   2  -1  236.64   12.45
   4   2  -1  254.75   15.82
   3  -2  -1 3163.14   38.17
   3  -2  -1 3056.76   35.72
   3  -2  -1 3032.69   37.19
  -3  -2   1 3064.90   30.44
   3  -2  -1 3098.67   37.05
   3   2  -1 3100.56   30.04
   3   2  -1 3025.55   37.18
  -2  -2   1 2825.74   28.35
   2  -2  -1 2896.67   30.27
   2  -2  -1 2869.46   31.22
   2  -2  -1 2883.82   31.29
   2   2  -1 2893.87   32.09
   2   2  -1 2842.24   16.54
  -1  -2   1 3856.60   33.76
   1  -2  -1 3873.09   31.94
   1  -2  -1 3911.27   33.47
   1  -2  -1 3821.14   28.16
   0  -2  -1 3103.89   25.93
   1  -2   1 2539.83   28.41
   1  -2   1 2482.60   26.18
   1  -2   1 2491.99   23.40
   2  -2   1  645.38   16.26
   2  -2   1  648.86   14.63
   2  -2   1  648.65   15.94
   2   2   1  642.23   13.52
   3  -2   1 2083.65   29.09
   3  -2   1 2107.30   31.97
   3  -2   1 2075.99   29.96
   3   2   1 2111.81   28.23
   3   2   1 2058.26   26.39
   4  -2   1   60.19    9.76
   4  -2   1   56.73    8.94
   4  -2   1   26.35    8.88
   4   2   1   47.75    8.50
   4   2   1   69.89   10.16
   5  -2   1 1434.84   32.22
   5  -2   1 1417.72   34.81
   5   2   1 1382.96   28.93
   5   2   1 1448.20   39.25
   6  -2   1  130.52   16.32
   6  -2   1  129.77   16.58
   6   2   1  142.59   15.09
   7  -2   1  272.38   23.44
   7  -2   1  310.61   25.00
   7   2   1  327.66   22.78
   8  -2   1   33.67   17.67
   8  -2   1   17.54   16.00
   8  -3  -1   29.26   16.96
   8  -3  -1    6.23   16.10
   7  -3  -1  183.26   22.19
   7  -3  -1  151.53   18.97
   6  -3  -1   54.38   13.94
   6  -3  -1   38.23   14.31
   5  -3  -1  464.67   22.95
   5  -3  -1  488.25   22.44
   5  -3  -1  465.66   21.67
   5   3  -1  432.12   21.86
   4  -3  -1  222.80   15.60
   4  -3  -1  185.27   14.28
   4  -3  -1  214.46   15.76
   4   3  -1  190.10   14.16
   4   3  -1  215.47   13.31
  -3  -3   1 1177.79   20.41
   3  -3  -1 1196.98   24.71
   3  -3  -1 1214.47   25.06
   3  -3  -1 1213.39   23.79
   3  -3  -1 1195.60   25.92
   3   3  -1 1225.50   25.07
   3   3  -1 1219.19   16.87
  -2  -3   1   80.54    8.09
   2  -3  -1   68.82    8.83
   2  -3  -1   71.04    9.63
   2  -3  -1   61.51    8.17
   2  -3  -1   78.26    7.40
   2   3  -1   74.93    8.07
   1  -3  -1 1269.61   23.77
  -1  -3   1 1239.69   21.44
   1  -3  -1 1235.49   18.50
   1  -3  -1 1226.72   15.51
   1  -3  -1 1244.41   20.68
   1   3  -1 1269.92   20.20
   0  -3   1   -2.72    5.53
   0  -3  -1   -0.64    5.73
   0  -3  -1    3.76    4.39
   0  -3  -1   -1.64    4.58
   1  -3   1   22.54    7.62
   1  -3   1    8.93    4.70
   1  -3   1   10.38    5.64
  -1  -3  -1   13.52    4.33
  -1  -3  -1    6.62    5.11
  -1   3  -1   -0.80    5.76
   2  -3   1  124.34   10.77
   2  -3   1  131.11    9.06
   2  -3   1  115.19    9.18
   2   3   1  142.86    8.26
   3  -3   1  342.00   15.95
   3  -3   1  356.92   14.63
   3  -3   1  332.20   16.00
   3   3   1  315.33   13.98
   3   3   1  363.06   12.60
   4  -3   1  874.01   24.71
   4  -3   1  861.20   24.18
   4  -3   1  847.30   25.41
   4   3   1  836.44   19.84
   5  -3   1  102.61   14.58
   5  -3   1  145.70   16.81
   5   3   1  114.32   11.86
   6  -3   1  905.87   32.26
   6  -3   1  868.61   33.03
   6   3   1  935.19   31.44
   7  -3   1   -9.41   13.58
   7  -3   1    2.43   14.91
   8  -3   1  290.10   28.56
   8  -3   1  233.24   26.21
   7  -4  -1  130.72   19.56
   7  -4  -1  126.75   20.08
   6  -4  -1  268.32   22.76
   6  -4  -1  303.91   23.58
   5  -4  -1   11.30   11.01
   5  -4  -1    9.49   11.24
   5  -4  -1  -14.45    9.75
   4  -4  -1   40.60   10.33
   4  -4  -1   39.96   10.39
   4  -4  -1   50.32   11.98
   3  -4  -1  135.65   13.54
   3  -4  -1  149.10   12.32
   3  -4  -1  165.22   14.03
   3  -4  -1  142.94   11.44
  -3  -4   1  160.14   11.88
   3   4  -1  176.24   13.12
  -2  -4   1  115.34   10.17
   2  -4  -1  141.47    9.62
   2  -4  -1  118.20   11.48
   2  -4  -1  142.71   11.71
   2  -4  -1  114.59   10.13
   2   4  -1  136.89   10.52
   1  -4  -1    7.90    6.74
  -1  -4   1    5.82    6.95
   1  -4  -1   19.89    5.91
   1  -4  -1   14.83    4.38
   1  -4  -1    8.93    6.57
   1   4  -1    6.48    5.80
   0  -4  -1  277.83   13.69
   0  -4  -1  295.93   10.01
   0  -4  -1  295.31   11.67
   0  -4   1  308.36   14.05
   0   4  -1  298.15   12.11
  -1  -4  -1  180.02   11.75
   1  -4   1  164.30   12.48
  -1  -4  -1  209.40    9.59
   1  -4   1  204.90   12.02
   1  -4   1  201.27    9.50
  -1   4  -1  195.82   11.55
  -2  -4  -1    4.93    5.40
   2  -4   1    7.92    6.45
  -2  -4  -1    0.48    4.00
   2  -4   1   -5.93    7.72
   2  -4   1   -0.12    6.25
   3  -4   1   62.87    9.95
   3  -4   1   58.45    9.49
   3  -4   1   46.12   10.13
   3   4   1   50.06    6.97
   4  -4   1   34.34   10.78
   4  -4   1   50.99   11.67
   4  -4   1   42.76   11.03
   5  -4   1   10.17   10.87
   5  -4   1   -1.68   10.50
   5  -4   1  -10.99    9.00
   6  -4   1  111.21   17.50
   6  -4   1  115.02   17.50
   7  -4   1   63.75   17.60
   7  -4   1   41.97   17.38
   7  -5  -1   22.28   17.05
   7  -5  -1   -1.85   15.05
   6  -5  -1   25.49   13.68
   6  -5  -1   20.53   13.95
   6  -5  -1   17.39   15.63
   5  -5  -1   10.51   11.18
   5  -5  -1   27.47   12.61
   5  -5  -1   19.91   11.80
   4  -5  -1   73.40   14.33
   4  -5  -1   45.37   12.07
   4  -5  -1   48.95   10.73
   3  -5  -1  199.14   16.17
   3  -5  -1  197.38   13.89
   3  -5  -1  165.94   16.18
   3  -5  -1  193.39   14.53
   2  -5  -1  322.24   16.92
   2  -5  -1  373.13   19.85
  -2  -5   1  326.16   16.83
   2  -5  -1  322.56   13.28
   2  -5  -1  332.83   15.01
   1  -5  -1   94.32   11.59
   1  -5  -1   79.69    8.34
   1  -5  -1   90.17    9.78
  -1  -5   1   94.47   11.48
   1   5  -1   91.54    9.87
   0  -5   1  944.06   25.12
   0  -5  -1  968.28   17.23
   0  -5  -1  969.16   24.42
   0  -5  -1  941.90   20.03
   0   5  -1  962.12   21.33
  -1  -5  -1   97.31    8.19
   1  -5   1  101.83   12.94
  -1  -5  -1  113.96   11.07
   1  -5   1  114.61    8.26
  -1  -5  -1  107.04    9.70
  -1   5  -1  114.81   10.73
   2  -5   1  404.60   19.38
   2  -5   1  407.25   15.47
  -2  -5  -1  421.24   15.84
   2  -5   1  405.87   16.90
  -2   5  -1  400.02   17.48
   3  -5   1  317.22   20.14
   3  -5   1  336.02   17.85
   3  -5   1  318.20   16.57
   4  -5   1    1.54    9.83
   4  -5   1    3.37   10.92
   4  -5   1   -7.16    9.73
   5  -5   1  104.15   16.39
   5  -5   1   90.65   15.95
   5  -5   1   73.60   14.10
   6  -5   1   85.18   18.07
   6  -5   1  112.57   17.62
   7  -5   1    0.47   16.45
   7  -5   1   35.48   18.23
   7  -6  -1   -3.03   14.49
   7  -6  -1   22.09   18.11
   6  -6  -1   22.84   14.37
   6  -6  -1   19.67   15.55
   6  -6  -1   21.53   16.17
   5  -6  -1  434.21   26.30
   5  -6  -1  390.36   22.95
   5  -6  -1  435.07   26.59
   4  -6  -1   45.12   12.24
   4  -6  -1   48.25   14.37
   4  -6  -1   53.25   11.48
   3  -6  -1 1015.43   26.64
   3  -6  -1  989.24   32.96
   3  -6  -1 1020.49   24.54
   2  -6  -1  784.34   22.19
   2  -6  -1  768.51   24.59
   2  -6  -1  800.81   28.98
   2  -6  -1  813.29   19.47
  -2  -6   1  814.04   25.57
   1  -6  -1  633.73   24.87
   1  -6  -1  607.74   17.52
  -1  -6   1  642.97   23.53
   1  -6  -1  632.47   20.73
   0  -6  -1  691.33   19.42
   0  -6   1  684.50   24.91
   0  -6  -1  669.06   23.51
  -1  -6  -1  292.23   17.36
   1  -6   1  288.83   19.88
   2  -6   1  149.39   13.10
   2  -6   1  188.05   18.73
  -2  -6  -1  152.23   14.26
   3  -6   1  520.57   19.92
   3  -6   1  587.44   27.27
   3  -6   1  542.16   22.60
   4  -6   1   36.55   11.51
   4  -6   1   51.82   14.75
   4  -6   1   37.43   12.35
   5  -6   1  486.95   26.88
   5  -6   1  465.45   29.77
   5  -6   1  479.06   25.61
   6  -6   1   62.08   16.84
   6  -6   1   38.55   16.82
   7  -6   1  110.68   21.67
   7  -6   1  116.10   22.14
   6  -7  -1   41.56   19.66
   6  -7  -1   76.01   17.64
   6  -7  -1   31.59   18.74
   5  -7  -1  370.57   23.85
   5  -7  -1  357.34   25.21
   5  -7  -1  387.88   29.84
   4  -7  -1  266.34   20.53
   4  -7  -1  252.39   18.51
   4  -7  -1  258.82   24.84
   3  -7  -1  774.01   31.24
   3  -7  -1  769.73   23.10
   3  -7  -1  778.85   25.54
  -2  -7   1  177.28   17.32
   2  -7  -1  208.48   20.62
  -1  -7   1  611.30   25.75
   1  -7  -1  629.80   23.55
   1  -7  -1  625.58   27.41
   0  -7   1   48.08   12.78
   0  -7  -1   21.66   11.78
   0  -7  -1   45.37    9.67
  -1  -7  -1   37.79   11.71
   1  -7   1   25.51   13.05
   2  -7   1  243.38   21.30
   3  -7   1  124.76   14.69
   3  -7   1  135.96   19.36
   4  -7   1  721.48   34.10
   4  -7   1  689.68   29.49
   4  -7   1  741.93   29.32
   5  -7   1   77.00   15.74
   5  -7   1   87.32   16.83
   5  -7   1   46.45   17.01
   6  -7   1  723.33   36.23
   6  -7   1  656.03   36.74
   6  -7   1  666.37   33.51
   5  -8  -1   26.41   13.68
   5  -8  -1   43.98   17.14
   5  -8  -1   27.86   20.04
   4  -8  -1    2.96   10.12
   4  -8  -1  -25.67   15.24
   3  -8  -1  130.94   19.40
   2  -8  -1  150.87   18.46
  -2  -8   1  149.64   19.39
  -1  -8   1   53.26   14.59
   1  -8  -1   17.40   13.87
   0  -8  -1  212.73   21.05
   0  -8   1  129.45   18.59
  -1  -8  -1  -13.87   10.87
   1  -8   1   10.04   13.80
   2  -8   1   18.89   14.67
   3  -8   1   39.53   16.54
   4  -8   1   18.81   16.23
   4  -8   1   34.90   13.39
   5  -8   1   47.05   18.64
   5  -8   1   49.78   15.67
   4  -9  -1   46.77   20.81
   3  -9  -1   22.62   16.72
   2  -9  -1  145.15   22.02
  -1  -9   1   20.62   14.83
   1  -9  -1   13.39   15.34
   0  -9   1  476.73   30.38
   0  -9  -1  482.17   29.59
  -1  -9  -1   73.74   16.32
   1  -9   1   35.96   16.81
   2  -9   1  253.27   26.24
   3  -9   1  132.18   23.49
   4  -9   1   -2.27   17.36
   3 -10  -1  113.77   23.98
   2 -10  -1  105.49   20.44
  -1 -10   1   27.17   16.93
   1 -10  -1   43.35   18.90
   0 -10   1   77.69   20.14
   0 -10  -1  126.96   20.91
   1 -10   1   -1.49   16.27
   2 -10   1    4.07   17.57
   3 -10   1    6.60   18.11
   8   0  -2    6.28   16.62
   8   0  -2   22.80   15.09
   7   0  -2  290.55   21.87
   7   0  -2  281.44   24.23
   6   0  -2   86.19   15.43
   6   0  -2  106.21   15.27
   5   0  -2 1061.26   23.20
   5   0  -2 1050.86   27.26
   5   0  -2 1095.77   30.44
   4   0  -2   45.09    9.77
   4   0  -2   26.54    7.08
   4   0  -2   34.52    8.83
   3   0  -2 1307.30   22.47
   3   0  -2 1303.05   25.11
  -3   0   2 1377.11   24.44
   3   0  -2 1328.15   20.77
   2   0  -2  693.44   13.93
   2   0  -2  692.04   15.97
  -2   0   2  736.82   17.54
   2   0  -2  706.56   14.69
   1   0  -2 1324.13   18.72
   1   0  -2 1348.22   17.73
  -1   0   2 1326.63   21.21
   0   0   2 3603.89   32.94
   0   0  -2 3582.84   29.14
   1   0   2 3764.72   32.79
  -1   0  -2 3814.60   31.52
   2   0   2 4089.71   38.36
   2   0   2 4088.27   37.50
   3   0   2 3476.77   39.75
   3   0   2 3360.68   39.22
   4   0   2  233.05   14.35
   4   0   2  243.04   15.63
   5   0   2 1240.92   30.80
   5   0   2 1306.63   31.17
   6   0   2    2.39   11.47
   6   0   2   -3.99   10.31
   7   0   2   58.18   16.19
   8   0   2   45.95   16.72
   8  -1  -2  133.23   22.43
   8  -1  -2  139.63   21.07
   8   1  -2  111.65   20.65
   7  -1  -2   29.70   13.46
   7  -1  -2   17.86   13.47
   7   1  -2   24.83   12.56
   7   1  -2   16.57   14.50
   6  -1  -2  622.70   27.80
   6  -1  -2  642.96   26.67
   6   1  -2  593.34   27.94
   6   1  -2  600.02   23.78
   5  -1  -2  301.70   18.79
   5  -1  -2  362.63   17.95
   5  -1  -2  326.77   19.49
   5   1  -2  307.81   17.08
   5   1  -2  303.33   20.20
  -4  -1   2  526.34   17.79
   4  -1  -2  549.07   17.55
   4  -1  -2  546.44   19.79
   4  -1  -2  546.48   20.19
   4   1  -2  531.76   20.78
   4   1  -2  533.37   14.11
   4   1  -2  562.41   18.11
   3  -1  -2  946.44   20.76
   3  -1  -2 1033.61   21.91
   3  -1  -2  985.63   19.94
  -3  -1   2 1031.95   21.47
   3   1  -2  984.60   18.82
   3   1  -2  978.28   21.98
   3   1  -2  987.95   16.17
  -2  -1   2   44.40    7.35
   2  -1  -2   54.91    7.31
   2  -1  -2   37.78    6.39
   2  -1  -2   50.96    6.54
   2   1  -2   52.93    5.41
   2   1  -2   60.05    6.07
   2   1  -2   63.93    8.15
   1  -1  -2  310.93   11.06
  -1  -1   2  300.76   12.42
   1  -1  -2  319.37    9.55
   1  -1  -2  325.95   10.51
  -1   1   2  309.75   13.09
   1   1  -2  325.11   11.79
   0  -1   2   11.38    6.05
   0   1  -2    8.67    5.67
   0   1   2   16.77    6.08
  -1  -1  -2  193.88    7.36
   1  -1   2  192.43    9.49
   1  -1   2  190.91   10.44
   1  -1   2  175.81   10.40
   1   1   2  200.83   10.02
  -1   1  -2  189.11   10.35
   2  -1   2  100.26    8.14
   2  -1   2  105.16    8.98
   2  -1   2   81.51    8.59
   2   1   2   95.93    8.34
   3  -1   2  351.91   12.63
   3  -1   2  365.11   15.52
   3  -1   2  349.02   14.91
   3   1   2  326.33   13.31
   3   1   2  343.28   13.32
   4  -1   2  223.87   15.51
   4  -1   2  210.72   15.73
   4   1   2  225.76   14.61
   4   1   2  222.96   15.00
   5  -1   2   87.48   12.76
   5  -1   2  106.50   14.76
   5   1   2  113.64   13.17
   5   1   2  123.01   14.21
   6  -1   2   49.02   13.32
   6  -1   2    5.25   12.05
   6   1   2   36.16   12.71
   7  -1   2   84.76   16.57
   7  -1   2   81.40   17.04
   7   1   2   82.18   15.99
   8  -1   2    3.05   15.47
   8  -1   2    8.42   14.80
   8   1   2    4.37   13.80
   8  -2  -2   10.92   14.53
   8  -2  -2    5.73   16.18
   8   2  -2   -0.32   15.89
   7  -2  -2  100.51   18.10
   7  -2  -2  141.52   19.66
   7   2  -2   88.83   17.38
   6  -2  -2   19.65   12.59
   6  -2  -2   43.52   13.23
   6   2  -2   38.04   13.64
   5  -2  -2   41.06   10.75
   5  -2  -2   49.27   11.69
   5  -2  -2   17.10   10.55
   5  -2  -2   41.78   10.61
   5   2  -2   23.61   10.24
   5   2  -2   36.39    9.59
   4  -2  -2  292.74   17.68
   4  -2  -2  302.37   17.07
   4  -2  -2  302.44   16.35
  -4  -2   2  303.23   17.15
   4   2  -2  312.06   17.85
   4   2  -2  296.00   13.73
   3  -2  -2  177.73   12.33
  -3  -2   2  158.96   11.93
   3  -2  -2  167.24   12.39
   3  -2  -2  200.47   13.23
   3   2  -2  167.07   12.82
   3   2  -2  181.29    7.81
   3   2  -2  191.26   10.11
   2  -2  -2  550.56   14.28
   2  -2  -2  555.40   15.33
   2  -2  -2  548.54   15.42
  -2  -2   2  557.89   16.49
   2   2  -2  529.98   16.50
   2   2  -2  551.71   11.07
  -1  -2   2   91.00    8.50
   1  -2  -2   97.89    8.04
   1  -2  -2  106.69    8.36
   1  -2  -2  103.05    6.70
   1   2  -2   83.63    7.91
   0  -2   2   15.49    6.18
   0   2  -2   35.66    7.27
   1  -2   2  128.44    9.66
   1  -2   2  133.29   10.30
   1  -2   2  115.02    8.03
  -1   2  -2  105.22    8.47
   2  -2   2  117.34    9.66
   2  -2   2  119.07    9.08
   2  -2   2  126.35    9.84
   2   2   2  120.76    8.66
   3  -2   2  861.07   21.28
   3  -2   2  895.45   20.58
   3  -2   2  858.63   21.34
   3   2   2  853.75   18.41
   3   2   2  882.00   19.81
   4  -2   2  480.87   19.97
   4  -2   2  420.72   16.50
   4  -2   2  459.12   20.36
   4   2   2  471.85   17.86
   5  -2   2  197.19   16.19
   5  -2   2  203.60   17.84
   5   2   2  235.71   16.59
   6  -2   2  723.68   30.01
   6  -2   2  698.19   28.15
   6   2   2  680.75   25.86
   7  -2   2   -0.09   13.38
   7  -2   2  -14.98   14.23
   7   2   2  -12.02   11.46
   8  -2   2  167.54   22.67
   8  -2   2  117.40   20.79
   8   2   2  139.20   20.13
   8  -3  -2    8.01   16.93
   8  -3  -2   33.86   17.00
   7  -3  -2   61.75   16.25
   7  -3  -2   96.81   18.70
   7   3  -2   90.91   18.83
   6  -3  -2  151.60   17.90
   6  -3  -2  245.08   20.78
   6   3  -2  194.67   20.37
   5  -3  -2  475.76   22.41
   5  -3  -2  484.45   22.68
   5  -3  -2  465.14   22.74
   5  -3  -2  475.76   22.70
   5   3  -2  488.65   24.19
   4  -3  -2   97.43   13.28
   4  -3  -2   95.53   11.93
   4  -3  -2   78.22   11.55
   4  -3  -2   80.00   12.24
   4   3  -2  111.04   13.42
   3  -3  -2 1259.49   26.26
  -3  -3   2 1256.91   24.75
   3  -3  -2 1254.47   24.32
   3  -3  -2 1309.77   26.76
   3   3  -2 1225.32   27.13
  -2  -3   2   97.65   10.00
   2  -3  -2  115.97    9.89
   2  -3  -2  100.76    7.78
   2  -3  -2  113.82   10.03
   2   3  -2   91.64    9.11
   1  -3  -2  828.35   17.52
  -1  -3   2  826.41   20.28
   1  -3  -2  831.98   18.48
   1  -3  -2  825.00   11.69
   1   3  -2  822.84   18.68
   0  -3  -2  325.71   11.95
   0  -3  -2  306.56   11.28
   0  -3   2  294.64   14.96
   0   3  -2  301.95   12.51
   1  -3   2   13.74    6.57
   1  -3   2   34.19    7.64
   1  -3   2   33.90    5.83
  -1   3  -2   28.30    6.78
   2  -3   2   13.38    7.93
  -2  -3  -2   16.15    4.98
   2  -3   2   10.21    6.91
   2  -3   2   13.89    6.60
  -2   3  -2    3.58    6.34
   2   3   2    7.04    5.66
   3  -3   2   12.52    8.16
   3  -3   2    9.05    7.91
   3  -3   2    7.47    8.15
   3   3   2    6.75    6.45
   4  -3   2   41.36   11.69
   4  -3   2   46.10   10.99
   4  -3   2   38.05   10.18
   4   3   2   41.13    9.12
   5  -3   2   -0.66   11.07
   5  -3   2   -2.19    9.73
   5   3   2   -0.88    8.37
   6  -3   2   -1.06   11.89
   6  -3   2   15.40   13.46
   6   3   2   -0.05    9.95
   7  -3   2    9.08   15.88
   7  -3   2   11.75   14.06
   8  -3   2   -1.16   16.63
   8  -3   2   -6.86   15.81
   7  -4  -2  167.37   22.21
   7  -4  -2  172.70   22.25
   6  -4  -2   52.12   14.22
   6  -4  -2   43.63   13.68
   6  -4  -2   34.06   13.64
   5  -4  -2  570.10   26.42
   5  -4  -2  597.34   24.78
   5  -4  -2  605.59   25.89
   5  -4  -2  601.89   26.46
   5   4  -2  559.64   26.01
   4  -4  -2   20.00   10.77
   4  -4  -2   13.58    9.05
   4  -4  -2   19.92   10.54
   4  -4  -2    0.92    9.33
   4   4  -2   14.23   10.56
   3  -4  -2  636.40   24.82
   3  -4  -2  623.04   20.78
   3  -4  -2  669.66   21.76
   3  -4  -2  656.16   18.96
  -3  -4   2  655.40   20.82
   3   4  -2  663.86   21.72
   2  -4  -2  230.24   13.72
   2  -4  -2  230.56   14.14
   2  -4  -2  230.51   16.74
  -2  -4   2  226.72   14.80
   2  -4  -2  221.69   10.51
   2   4  -2  194.64   13.65
  -1  -4   2  347.07   16.70
   1  -4  -2  365.86    8.08
   1  -4  -2  363.68   14.22
   1  -4  -2  342.11   14.92
   1  -4  -2  370.22   17.45
   1   4  -2  368.34   15.51
   0  -4  -2 1234.22   22.04
   0  -4   2 1310.69   27.85
   0  -4  -2 1264.44   21.26
   0  -4  -2 1264.82   26.15
   0   4  -2 1230.42   24.45
  -1  -4  -2 1312.50   24.19
   1  -4   2 1381.36   29.05
   1  -4   2 1356.47   19.53
  -1  -4  -2 1325.52   21.26
  -1   4  -2 1330.39   25.57
   2  -4   2 1801.23   34.05
   2  -4   2 1775.89   27.01
  -2  -4  -2 1744.01   25.07
   2  -4   2 1761.24   31.23
  -2  -4  -2 1738.83   23.11
  -2   4  -2 1832.36   32.16
   3  -4   2 1857.96   35.02
   3  -4   2 1927.65   36.30
   3  -4   2 1903.73   32.01
   3   4   2 1948.17   28.92
   4  -4   2   96.48   12.94
   4  -4   2  119.12   14.44
   4  -4   2  109.13   14.56
   4   4   2   98.33   10.80
   5  -4   2  821.87   31.41
   5  -4   2  875.14   29.28
   5  -4   2  855.04   29.96
   6  -4   2   -1.38   13.19
   6  -4   2  -22.57   12.20
   7  -4   2   21.27   17.18
   7  -4   2   32.36   17.82
   7  -5  -2   21.39   16.12
   7  -5  -2  -14.71   16.62
   6  -5  -2  740.81   32.11
   6  -5  -2  814.58   34.50
   6  -5  -2  758.67   31.57
   5  -5  -2  122.61   15.76
   5  -5  -2  120.55   16.02
   5  -5  -2   92.25   16.38
   4  -5  -2  782.45   27.99
   4  -5  -2  769.76   24.08
   4  -5  -2  765.07   29.44
   4  -5  -2  795.86   27.40
  -3  -5   2  341.35   18.79
   3  -5  -2  318.11   15.30
   3  -5  -2  310.94   19.93
   3  -5  -2  318.52   18.14
   3  -5  -2  324.47   18.31
   3   5  -2  327.42   21.25
   2  -5  -2  236.25   16.50
   2  -5  -2  223.13   14.83
   2  -5  -2  240.66   11.18
  -2  -5   2  252.84   17.63
   2  -5  -2  251.19   17.37
   2   5  -2  261.19   15.46
   1  -5  -2   -2.73    8.67
  -1  -5   2   -2.38    8.87
   1  -5  -2   -3.95    7.86
   1  -5  -2    6.65    6.74
   1   5  -2    1.11    7.97
   0  -5  -2   44.42   10.12
   0  -5  -2   37.12    8.15
   0  -5   2   46.93    9.83
   0  -5  -2   42.54    7.62
   0   5  -2   40.25    9.32
  -1  -5  -2  443.87   14.39
  -1  -5  -2  466.23   15.75
   1  -5   2  431.72   19.99
  -1  -5  -2  484.04   18.43
  -1   5  -2  472.83   18.87
   2  -5   2  266.94   13.89
   2  -5   2  262.35   16.53
  -2  -5  -2  273.35   21.94
   2  -5   2  259.91   19.19
  -2   5  -2  251.59   16.95
   3  -5   2  599.57   24.93
   3  -5   2  606.30   21.02
   3  -5   2  557.12   23.00
  -3   5  -2  613.40   22.97
   4  -5   2  279.48   19.12
   4  -5   2  276.94   20.88
   4  -5   2  292.41   21.02
   5  -5   2  280.96   22.36
   5  -5   2  268.77   21.75
   5  -5   2  317.76   22.13
   6  -5   2   53.93   16.89
   6  -5   2   24.25   15.43
   7  -5   2  172.41   23.10
   7  -5   2  201.65   25.16
   7  -6  -2   33.43   18.45
   7  -6  -2   29.76   16.03
   6  -6  -2   26.97   16.73
   6  -6  -2    4.94   13.27
   6  -6  -2   18.64   14.82
   5  -6  -2    4.19   13.04
   5  -6  -2    6.65   13.68
   5  -6  -2    9.56   11.02
   4  -6  -2  100.16   12.38
   4  -6  -2  104.43   17.54
   4  -6  -2  107.89   15.60
   4  -6  -2  108.30   16.88
   3  -6  -2   18.55   11.07
   3  -6  -2   -8.65    9.43
   3  -6  -2   -6.80    7.18
   3  -6  -2    8.38   10.92
   2  -6  -2   88.97   11.52
   2  -6  -2  115.70    8.73
   2  -6  -2  107.01   13.14
   2  -6  -2   98.99   14.58
  -2  -6   2  140.90   15.01
   1  -6  -2  -10.99    6.94
   1  -6  -2   -6.24    9.90
   1  -6  -2   -8.00    8.14
  -1  -6   2   12.07   10.66
   0  -6  -2    8.64    8.33
   0  -6   2   11.82   11.58
   0  -6  -2   19.71    7.28
   0  -6  -2   15.28    9.85
   1  -6   2  147.16   16.71
  -1  -6  -2  135.30   10.96
  -1  -6  -2  173.51   15.05
  -1   6  -2  153.08   14.43
   2  -6   2  -11.39   10.89
  -2   6  -2   -8.29    8.83
   3  -6   2  587.51   24.28
   3  -6   2  594.23   27.67
   3  -6   2  608.72   21.59
  -3   6  -2  581.44   25.05
   4  -6   2  126.03   15.20
   4  -6   2  126.76   17.12
   4  -6   2  113.63   17.62
  -4   6  -2  113.23   16.64
   5  -6   2  161.83   20.23
   5  -6   2  182.74   20.33
   5  -6   2  187.95   19.43
   6  -6   2  268.71   25.50
   6  -6   2  292.69   24.86
   6  -7  -2   54.24   19.30
   6  -7  -2   16.33   16.89
   6  -7  -2   17.71   14.36
   5  -7  -2  340.36   25.60
   5  -7  -2  357.59   23.40
   5  -7  -2  277.26   26.51
   4  -7  -2  -10.97   11.78
   4  -7  -2   -0.46   13.69
   4  -7  -2    8.85    9.37
   3  -7  -2  829.45   27.68
   3  -7  -2  780.43   34.08
   3  -7  -2  782.95   30.42
   2  -7  -2  156.81   15.64
  -2  -7   2  191.47   18.90
   2  -7  -2  115.50   16.45
   2  -7  -2  181.76   15.23
   1  -7  -2  538.54   22.34
   1  -7  -2  549.83   27.15
  -1  -7   2  554.72   26.66
   0  -7  -2  268.20   17.29
   0  -7  -2  289.24   21.37
   0  -7   2  258.21   20.62
   1  -7   2   83.64   14.78
  -1  -7  -2  101.44   13.86
   2  -7   2   46.35   13.53
   3  -7   2   55.43   16.06
   4  -7   2   -3.90   14.02
   4  -7   2   -9.57   11.44
   5  -7   2   26.64   17.00
   5  -7   2   42.63   16.47
   5  -7   2   26.64   15.38
   6  -7   2  -37.41   13.11
   6  -7   2    3.10   16.57
   5  -8  -2  114.33   20.76
   5  -8  -2  116.83   23.19
   4  -8  -2  -10.76   14.49
   4  -8  -2    9.86   13.69
   3  -8  -2   74.96   17.86
  -2  -8   2   36.24   14.33
   2  -8  -2   29.88   12.81
   2  -8  -2   10.61   12.50
   1  -8  -2   35.11   14.38
  -1  -8   2   43.64   15.62
   1  -8  -2   46.43   12.54
   0  -8   2  223.07   22.49
   0  -8  -2  189.62   19.34
   1  -8   2  294.59   25.52
  -1  -8  -2  254.20   20.99
   2  -8   2  262.60   24.23
   3  -8   2  616.71   33.88
   4  -8   2    1.79   16.36
   5  -8   2  272.06   28.73
   5  -8   2  248.48   24.10
   4  -9  -2  402.75   33.11
   3  -9  -2   57.99   19.90
   2  -9  -2  148.13   22.08
  -1  -9   2  -12.37   14.56
   1  -9  -2    6.84   14.62
   0  -9   2   55.10   17.78
   0  -9  -2   60.52   16.72
   1  -9   2  288.24   27.26
   2  -9   2  145.16   22.79
   3  -9   2  307.27   29.36
   4  -9   2  140.82   24.03
   3 -10  -2   70.89   22.54
   2 -10  -2    7.88   17.87
  -1 -10   2   13.75   17.91
   1 -10  -2    9.02   17.30
   0 -10   2   62.19   20.34
   0 -10  -2   24.00   17.27
   1 -10   2  122.90   23.71
   2 -10   2   73.62   21.48
   3 -10   2  242.80   29.54
   8   0  -3  173.47   23.80
   8   0  -3  155.52   21.00
   7   0  -3   52.62   16.97
   7   0  -3   90.44   16.85
   6   0  -3  675.60   26.85
   6   0  -3  739.84   30.51
   5   0  -3    2.55    9.90
   5   0  -3   23.10   11.34
   4   0  -3  860.87   20.85
   4   0  -3  839.80   22.83
   4   0  -3  841.84   24.43
  -4   0   3  847.78   25.22
   3   0  -3   47.87    9.24
   3   0  -3   43.06    7.45
  -3   0   3   38.24    8.70
   3   0  -3   39.35    7.71
   2   0  -3   66.98    7.78
   2   0  -3   64.32    8.21
   2   0  -3   75.44    7.75
  -2   0   3   54.41    9.18
   1   0  -3   81.72    7.00
   1   0  -3   99.96    8.40
  -1   0   3   80.87    8.88
   0   0   3   58.92    8.60
   0   0  -3   52.01    6.70
   1   0   3 2329.41   28.89
  -1   0  -3 2340.88   26.95
   1   0   3 2301.93   29.46
   1   0   3 2324.41   27.59
  -2   0  -3    9.21    5.77
   2   0   3   10.56    6.75
   2   0   3    9.67    5.61
   2   0   3    5.19    5.74
   3   0   3 2451.03   35.54
   3   0   3 2438.34   34.29
   3   0   3 2378.30   28.27
   4   0   3  148.06   13.15
   5   0   3  597.39   24.39
   5   0   3  608.27   24.50
   6   0   3   24.58   12.43
   7   0   3  121.26   18.81
   8   0   3   16.14   16.77
   8  -1  -3  200.25   23.77
   8  -1  -3  133.43   22.68
   8   1  -3  126.19   23.30
   7  -1  -3   21.55   14.17
   7  -1  -3   16.34   15.20
   7   1  -3  -16.65   12.76
   6  -1  -3  528.94   26.47
   6  -1  -3  481.15   27.09
   6   1  -3  551.22   23.80
   6   1  -3  530.60   27.55
   5  -1  -3   60.56   13.20
   5  -1  -3   82.37   11.57
   5  -1  -3   65.90   12.50
   5   1  -3   78.91   14.43
   5   1  -3   77.54   12.24
   4  -1  -3  276.66   17.24
   4  -1  -3  287.51   15.62
   4  -1  -3  284.69   17.22
  -4  -1   3  297.17   17.36
   4   1  -3  294.98   18.67
   4   1  -3  283.46   15.27
   4   1  -3  284.88   13.06
   3  -1  -3   64.63    9.41
   3  -1  -3   83.76    9.25
   3  -1  -3   76.23    9.63
  -3  -1   3   83.82   10.98
   3   1  -3   85.02   11.05
   3   1  -3   78.53    7.69
   3   1  -3   64.65    8.29
  -2  -1   3  270.06   14.63
   2  -1  -3  258.55   12.51
   2  -1  -3  250.02   12.77
   2  -1  -3  258.33   11.96
   2   1  -3  259.08   13.53
   2   1  -3  252.02   10.63
  -2   1   3  244.40   14.67
   1  -1  -3    1.08    4.69
   1  -1  -3   -0.90    5.57
  -1  -1   3   -0.70    6.67
   1   1  -3   -5.83    5.64
  -1   1   3    5.43    6.86
   1   1  -3    5.42    4.89
   0  -1  -3  533.98   11.66
   0  -1   3  547.26   16.53
   0   1   3  536.60   16.53
   0   1  -3  533.62   14.28
  -1  -1  -3    1.58    4.19
   1  -1   3   -0.89    4.97
   1  -1   3   -3.49    6.10
   1  -1   3    5.83    6.00
   1   1   3   -0.27    5.50
   1   1   3    7.18    5.70
  -1   1  -3   -4.36    5.57
   2  -1   3  400.81   15.12
  -2  -1  -3  401.16   12.40
   2  -1   3  399.23   14.59
   2  -1   3  381.93   14.82
   2   1   3  389.62   12.43
   2   1   3  386.32   14.89
  -2   1  -3  375.08   14.52
   3  -1   3  121.15   11.94
   3  -1   3   86.57   10.14
   3  -1   3  108.00    9.94
   3   1   3  130.02   11.54
   3   1   3   97.12    9.51
   4  -1   3  -10.55    7.61
   4  -1   3   10.89    7.81
   4   1   3    2.43    8.16
   5  -1   3    5.15   11.03
   5  -1   3   32.96   11.36
   5   1   3   16.17    9.54
   6  -1   3  100.43   14.69
   6  -1   3  185.25   19.85
   6   1   3  164.80   18.26
   7  -1   3   78.62   17.57
   7   1   3  106.12   18.18
   8  -1   3  109.13   20.47
   8   1   3   50.43   16.77
   8  -2  -3   50.04   18.58
   8  -2  -3   36.48   18.68
   8   2  -3   27.93   17.12
   7  -2  -3  121.36   19.38
   7  -2  -3  108.14   19.20
   7   2  -3   91.00   18.06
   6  -2  -3    9.93   12.15
   6  -2  -3   31.33   11.99
   6  -2  -3   23.30   13.48
   6   2  -3    4.84   13.02
   5  -2  -3   -6.34   10.04
   5  -2  -3   -9.07    9.40
   5  -2  -3    5.82   11.69
   5   2  -3   -1.43    9.68
   4  -2  -3  224.88   16.05
   4  -2  -3  211.50   15.57
   4  -2  -3  234.39   17.05
  -4  -2   3  201.00   15.80
   4   2  -3  227.53   17.62
   4   2  -3  211.85   13.62
   3  -2  -3  403.58   16.26
   3  -2  -3  398.60   17.29
   3  -2  -3  415.37   17.86
  -3  -2   3  394.14   17.68
   3   2  -3  390.84   18.72
   3   2  -3  415.36   13.47
   3   2  -3  400.66   11.99
  -2  -2   3 2502.29   36.53
   2  -2  -3 2457.12   32.89
   2  -2  -3 2521.46   33.63
   2  -2  -3 2483.89   29.90
   2   2  -3 2467.49   26.14
   1  -2  -3  221.20   12.36
  -1  -2   3  215.48   12.80
   1  -2  -3  208.30   11.92
   1  -2  -3  220.71    8.97
   1   2  -3  206.11    8.65
   1   2  -3  200.18   12.04
   0  -2   3 6606.32   60.30
   0  -2  -3 6759.15   39.89
   0   2  -3 6659.90   57.01
   0   2   3 6695.04   59.28
  -1  -2  -3   52.81    4.29
   1  -2   3   57.14    9.64
   1  -2   3   43.23    6.73
   1   2   3   58.69    7.78
  -1   2  -3   55.49    8.40
   2  -2   3 2681.48   34.12
  -2  -2  -3 2722.54   26.57
   2  -2   3 2640.63   36.29
   2  -2   3 2745.36   37.45
   2   2   3 2669.52   34.84
  -2   2  -3 2699.49   37.03
   3  -2   3  287.99   15.42
   3  -2   3  262.67   15.30
   3  -2   3  283.24   16.59
   3   2   3  266.34   14.63
   4  -2   3  465.29   21.07
   4  -2   3  474.65   21.95
   4  -2   3  457.62   20.72
   4   2   3  473.61   20.08
   5  -2   3   -1.81   10.25
   5  -2   3   -5.17    9.84
   5   2   3   15.64   10.33
   6  -2   3   96.29   15.37
   6  -2   3  126.33   17.06
   6   2   3  113.19   15.65
   7  -2   3   53.23   15.99
   7  -2   3   60.08   17.90
   7   2   3   60.79   15.18
   7  -3  -3   62.22   17.61
   7  -3  -3   70.23   17.87
   7   3  -3   84.52   19.37
   6  -3  -3  348.43   25.11
   6  -3  -3  398.51   24.32
   6  -3  -3  401.86   25.96
   6  -3  -3  379.97   26.48
   6   3  -3  389.23   27.21
   5  -3  -3   -3.93   10.67
   5  -3  -3   12.88   10.76
   5  -3  -3   -5.30   10.53
   5   3  -3   14.62   12.07
  -4  -3   3  218.57   17.12
   4  -3  -3  268.20   18.54
   4  -3  -3  271.20   18.30
   4  -3  -3  212.82   15.67
   4   3  -3  201.44   16.95
   3  -3  -3   45.98   10.61
   3  -3  -3   63.40    8.69
  -3  -3   3   60.16   10.98
   3  -3  -3   62.06   10.02
   3   3  -3   62.47   11.01
   2  -3  -3   67.18    7.41
  -2  -3   3   77.30   11.28
   2  -3  -3   75.66   10.08
   2  -3  -3   84.04    9.69
   2   3  -3   71.14    7.03
   2   3  -3   70.59   10.57
  -1  -3   3  363.70   17.13
   1  -3  -3  365.57   15.35
   1  -3  -3  362.35   14.02
   1  -3  -3  357.46    8.87
   1   3  -3  374.41   16.21
   1   3  -3  356.58    9.59
   0  -3  -3  154.94   11.08
   0  -3   3  141.41    8.06
   0  -3  -3  151.19   10.33
   0  -3   3  113.70   11.45
   0   3  -3  163.38   12.53
   1  -3   3  308.45   11.76
   1  -3   3  326.45   16.73
  -1   3  -3  290.62   15.06
   2  -3   3   50.42    9.06
   2  -3   3   93.31   11.90
  -2  -3  -3   82.36    5.33
   2  -3   3   86.92    9.50
  -2   3  -3   84.72   10.35
   3  -3   3   27.90    9.36
   3  -3   3   33.90   10.06
   3  -3   3    8.00    9.23
  -3   3  -3   25.20   10.47
   3   3   3   28.80    8.31
   4  -3   3   74.19   12.74
   4  -3   3   51.01   11.31
   4  -3   3   50.75   12.62
   4   3   3   81.03   11.17
   5  -3   3   18.15   12.13
   5  -3   3   16.34   11.92
   5   3   3   31.16   10.83
   6  -3   3  337.31   25.63
   6  -3   3  312.72   24.36
   6   3   3  318.69   21.86
   7  -3   3  183.61   23.12
   7  -3   3  220.09   24.10
   7   3   3  127.76   17.72
   7  -4  -3   94.72   19.93
   7  -4  -3   53.39   17.24
   6  -4  -3  440.75   26.40
   6  -4  -3  345.48   24.41
   6  -4  -3  402.06   26.23
   6  -4  -3  336.86   24.23
   6   4  -3  398.84   27.58
   5  -4  -3   17.47   11.95
   5  -4  -3   15.12   11.83
   5  -4  -3    5.68   11.35
   5  -4  -3   -5.32    9.98
   5   4  -3   25.64   12.90
   4  -4  -3  419.35   23.00
   4  -4  -3  452.29   24.20
   4  -4  -3  448.28   19.28
   4  -4  -3  494.35   23.43
   4   4  -3  443.21   23.50
   3  -4  -3   32.48   10.86
  -3  -4   3   31.81   10.84
   3  -4  -3   42.37    8.41
   3  -4  -3   40.86   10.53
   3   4  -3   29.50    9.85
   2  -4  -3    9.13    7.67
  -2  -4   3  -10.28    8.65
   2  -4  -3   -5.09    4.63
   2  -4  -3    8.50    8.33
   2   4  -3   21.25    8.15
   1  -4  -3   25.30    8.50
   1  -4  -3   45.94    9.08
  -1  -4   3   21.82   10.35
   1   4  -3   31.60    9.19
   0  -4  -3  150.69   11.01
   0  -4  -3  130.08   10.69
   0  -4   3  130.95   13.43
   0   4  -3  147.07   12.83
   1  -4   3 1137.95   19.91
  -1  -4  -3 1145.75   22.82
   1  -4   3 1149.86   29.58
  -1   4  -3 1130.22   26.58
  -2  -4  -3   27.20   10.20
   2  -4   3   51.90   10.97
   2  -4   3   55.67   12.16
   2  -4   3   57.08    8.50
  -2   4  -3   46.24   10.90
   3  -4   3 1557.06   34.88
   3  -4   3 1515.77   34.89
   3  -4   3 1505.93   30.26
  -3   4  -3 1496.28   34.03
   4  -4   3   46.26   11.14
   4  -4   3   59.47   12.91
   4  -4   3   45.63   12.59
   4   4   3   53.31   10.91
   5  -4   3  361.58   23.33
   5   4   3  371.04   20.01
   6  -4   3   -8.82   13.24
   6  -4   3   17.46   14.51
   7  -4   3   58.20   18.55
   7  -4   3   55.06   19.28
   7  -5  -3    3.60   15.05
   7  -5  -3   32.00   18.17
   6  -5  -3  332.87   24.72
   6  -5  -3  369.22   27.03
   6  -5  -3  402.32   27.52
   5  -5  -3  218.76   22.31
   5  -5  -3  222.88   18.54
   5  -5  -3  247.05   21.12
   5  -5  -3  212.65   20.74
   4  -5  -3  203.42   19.33
   4  -5  -3  223.59   19.06
   4  -5  -3  182.68   19.04
   4  -5  -3  208.08   15.46
   4   5  -3  205.06   19.66
  -3  -5   3  327.88   21.37
   3  -5  -3  347.82   15.36
   3  -5  -3  349.55   22.26
   3  -5  -3  334.38   20.11
   3  -5  -3  342.82   21.19
   3   5  -3  332.17   20.40
   2  -5  -3  218.98   10.11
   2  -5  -3  229.43   15.88
   2  -5  -3  198.25   17.32
  -2  -5   3  252.79   19.07
   2  -5  -3  232.54   16.52
   2   5  -3  236.47   17.31
   1  -5  -3  134.88   12.56
  -1  -5   3  165.67   16.43
   1  -5  -3  121.14   14.92
   1  -5  -3  150.34   13.24
   1   5  -3  168.32   15.19
   0  -5  -3  436.83   21.00
   0  -5  -3  454.73   17.45
   0  -5   3  446.54   22.77
   0  -5  -3  433.37   17.73
   0   5  -3  425.06   19.90
  -1  -5  -3  152.28   11.89
  -1  -5  -3  152.41   13.41
  -1  -5  -3  156.41   11.76
   1  -5   3  152.93   16.61
  -1   5  -3  169.27   14.27
   2  -5   3  480.03   17.01
   2  -5   3  417.68   22.08
  -2  -5  -3  435.12   15.97
  -2   5  -3  478.31   21.52
   3  -5   3  309.50   21.84
   3  -5   3  331.62   19.55
   3  -5   3  334.37   17.88
  -3   5  -3  330.83   21.19
   4  -5   3   61.05   14.50
   4  -5   3   50.46   12.13
   4  -5   3   63.58   15.13
  -4   5  -3   63.66   13.59
   5  -5   3   77.20   15.79
   5  -5   3   69.34   16.19
   5  -5   3   61.01   15.99
   6  -5   3   20.52   16.50
   6  -5   3   23.25   14.36
   7  -5   3   -5.07   15.57
   7  -5   3   31.47   19.17
   6  -6  -3    3.60   12.60
   6  -6  -3   12.84   16.89
   6  -6  -3   -9.94   13.81
   5  -6  -3   -0.03   14.18
   5  -6  -3  -12.23   10.22
   5  -6  -3    8.81   14.76
   5  -6  -3    4.35   13.74
   4  -6  -3   15.45   12.86
   4  -6  -3   21.75   13.38
   4  -6  -3   24.54    9.39
   4  -6  -3   30.89   13.77
   3  -6  -3  207.42   19.22
   3  -6  -3  171.85   19.17
   3  -6  -3  168.04   16.53
  -3  -6   3  214.20   19.51
   2  -6  -3  745.43   30.43
  -2  -6   3  714.22   28.49
   2  -6  -3  716.38   26.32
   2  -6  -3  727.37   23.90
   1  -6  -3   64.23   10.32
   1  -6  -3   46.08   11.86
  -1  -6   3   45.97   13.53
   1  -6  -3   35.66   10.69
   1   6  -3   65.90   12.90
   0  -6  -3 1888.80   31.90
   0  -6  -3 1936.56   34.48
   0  -6   3 1923.87   42.85
   0  -6  -3 1942.64   39.27
   0   6  -3 1932.98   37.92
  -1  -6  -3   79.08   10.26
   1  -6   3   52.99   14.42
  -1  -6  -3   82.71   12.47
  -1  -6  -3   89.61   10.68
  -1   6  -3   74.61   12.90
   2  -6   3  852.11   31.73
  -2   6  -3  865.76   28.75
   3  -6   3  252.15   19.64
   3  -6   3  279.00   22.68
  -3   6  -3  257.69   21.10
   4  -6   3  140.22   18.39
   4  -6   3  147.38   15.82
   4  -6   3  129.97   18.18
  -4   6  -3  183.60   20.30
   5  -6   3    5.00   13.03
   5  -6   3   15.31   14.55
   5  -6   3   -3.88   13.43
  -5   6  -3   13.80   14.61
   6  -6   3   17.12   16.22
   6  -6   3   17.78   16.49
  -6   6  -3   32.43   18.07
   6  -7  -3  160.81   24.11
   6  -7  -3  195.08   20.30
   6  -7  -3  151.62   23.57
   5  -7  -3   29.44   16.53
   5  -7  -3   70.18   18.91
   4  -7  -3   81.41   17.20
   4  -7  -3  116.89   20.20
   4  -7  -3   77.09   17.32
   3  -7  -3  179.95   21.93
   3  -7  -3  202.96   19.66
   3  -7  -3  182.43   17.98
   2  -7  -3   11.68   11.88
  -2  -7   3   -2.79   12.36
   2  -7  -3  -11.89   12.28
   2  -7  -3    2.42    9.58
   1  -7  -3  474.84   22.59
   1  -7  -3  454.15   26.34
  -1  -7   3  415.03   25.73
   1  -7  -3  469.99   20.37
   0  -7   3    7.35   13.77
   0  -7  -3   21.71   11.94
   0  -7  -3   13.84    9.97
  -1  -7  -3  401.60   23.19
   1  -7   3  384.47   25.00
   2  -7   3   16.47   12.66
   3  -7   3  145.77   20.64
   4  -7   3  105.50   19.08
   4  -7   3   69.13   16.73
   5  -7   3   26.43   16.40
   5  -7   3   40.57   17.56
   6  -7   3  229.86   25.95
   5  -8  -3  -11.82   17.20
   5  -8  -3    0.40   16.54
   4  -8  -3   43.65   16.48
   4  -8  -3   42.70   17.29
   3  -8  -3    7.45   16.11
   3  -8  -3   20.55   14.76
   3  -8  -3   14.40   15.04
   2  -8  -3   43.22   16.75
  -2  -8   3   89.57   18.50
   2  -8  -3   53.88   14.60
  -1  -8   3   -9.54   13.40
   1  -8  -3   -3.49   14.02
   1  -8  -3   21.54   11.97
   0  -8  -3  299.60   23.96
   0  -8   3  248.61   24.40
   1  -8   3  261.80   24.97
   2  -8   3  113.73   19.79
   3  -8   3  401.46   31.23
   4  -8   3    0.86   16.70
   5  -8   3   82.51   21.65
   5  -8   3   42.29   17.19
   4  -9  -3   85.31   21.46
   3  -9  -3  151.45   23.26
  -2  -9   3   92.73   20.14
   2  -9  -3   88.87   18.90
   2  -9  -3   90.01   17.63
   1  -9  -3   91.08   19.05
  -1  -9   3  102.44   20.20
   0  -9   3  182.76   24.17
   0  -9  -3  202.39   22.35
   1  -9   3   99.71   22.00
   2  -9   3  224.52   26.75
   3  -9   3  172.86   25.22
   4  -9   3   89.77   22.50
   2 -10  -3   59.96   19.57
   1 -10  -3   17.02   17.36
  -1 -10   3  -27.55   15.82
   0 -10  -3  231.18   26.29
   0 -10   3  261.90   29.92
   1 -10   3  109.26   24.18
   2 -10   3  101.42   24.04
   7   0  -4    3.07   14.13
   7   0  -4    9.20   15.34
   6   0  -4   45.23   14.09
   6   0  -4   49.06   15.13
   5   0  -4  649.84   27.65
   5   0  -4  631.72   24.55
   4   0  -4   24.03   10.24
   4   0  -4   32.86   10.98
   4   0  -4   22.29    9.09
  -4   0   4   32.35   11.64
  -3   0   4 1311.93   31.66
   3   0  -4 1283.41   26.16
   3   0  -4 1306.98   25.83
   3   0  -4 1301.92   28.73
   2   0  -4  735.84   19.22
   2   0  -4  800.44   20.97
  -2   0   4  780.85   24.76
   1   0  -4  931.83   20.96
   1   0  -4  946.91   20.41
  -1   0   4  955.17   25.06
   0   0   4  587.27   19.04
   0   0  -4  582.39   16.18
   1   0   4  472.86   17.48
  -1   0  -4  463.65   15.31
   2   0   4  116.15   10.72
  -2   0  -4   81.04    9.11
   2   0   4  104.08   10.14
   2   0   4   79.67    9.76
   3   0   4 1090.52   22.71
   3   0   4 1085.18   25.35
   3   0   4 1042.14   25.91
  -3   0  -4 1087.54   25.21
   4   0   4    9.91   10.08
   5   0   4  818.97   29.22
   6   0   4  178.16   19.57
   7   0   4  195.71   22.40
   7  -1  -4   16.97   15.73
   7  -1  -4   22.36   16.90
   7   1  -4   39.41   16.21
   6  -1  -4  -12.06   11.25
   6  -1  -4  -10.42   12.39
   6   1  -4    1.05   11.54
   6   1  -4    9.08   12.11
  -5  -1   4  199.84   18.94
   5  -1  -4  204.12   17.78
   5  -1  -4  176.89   15.82
   5  -1  -4  181.98   18.03
   5   1  -4  191.17   19.60
   5   1  -4  164.25   15.67
   4  -1  -4    0.74    8.65
   4  -1  -4    6.91    9.43
   4  -1  -4    9.12   10.48
  -4  -1   4   18.76   10.77
   4   1  -4   17.13   10.61
   4   1  -4  -13.26    7.37
   4   1  -4   -9.69    8.74
   3  -1  -4  712.10   21.94
  -3  -1   4  720.97   25.32
   3  -1  -4  703.00   21.65
   3  -1  -4  761.01   21.92
   3   1  -4  683.19   18.63
   3   1  -4  712.66   23.64
  -3   1   4  660.50   23.89
   3   1  -4  724.05   19.33
   2  -1  -4  117.28   10.30
   2  -1  -4  116.31   10.46
   2  -1  -4   98.29   10.00
  -2  -1   4  122.71   12.80
  -2   1   4  125.99   12.48
   2   1  -4  139.49   10.60
   2   1  -4  152.43   12.88
  -1  -1   4  678.13   22.13
   1  -1  -4  696.89   18.61
   1  -1  -4  692.80   16.61
  -1   1   4  677.35   22.23
   1   1  -4  708.26   19.35
   0  -1  -4  504.17   13.68
   0  -1   4  547.92   19.58
   0   1   4  498.85   18.85
   0   1  -4  527.80   16.82
   1  -1   4   10.61    7.11
  -1  -1  -4   11.53    5.39
   1  -1   4   11.77    7.79
   1   1   4   16.97    7.80
  -1   1  -4    1.54    6.38
   2  -1   4  106.02   10.74
   2  -1   4  106.41   11.31
  -2  -1  -4  110.51    9.18
   2  -1   4  103.50   10.98
   2   1   4   98.27   11.43
   2   1   4  115.30   10.64
  -2   1  -4  111.65   10.72
   3  -1   4  100.26   11.73
   3  -1   4  117.92   11.52
   3  -1   4   99.46   11.63
  -3  -1  -4   91.10    9.97
  -3   1  -4   88.88   11.50
   3   1   4  112.40   13.10
   4  -1   4  166.80   15.98
   4  -1   4  142.68   14.68
   4   1   4  203.54   16.80
  -4   1  -4  168.21   15.47
   5  -1   4   15.46   10.85
   5  -1   4   11.44   10.88
   5   1   4    8.39   11.62
   6  -1   4  333.30   24.77
   6   1   4  292.17   23.44
   7  -1   4   28.57   16.43
   7   1   4   21.20   15.44
   7  -2  -4  396.26   29.35
   7  -2  -4  347.71   27.60
   7   2  -4  338.68   27.54
   6  -2  -4  200.73   18.36
   6  -2  -4  146.68   19.59
   6  -2  -4  197.67   20.23
   6   2  -4  184.62   21.18
   5  -2  -4  148.92   15.98
   5  -2  -4  162.52   18.01
   5  -2  -4  163.21   17.45
   5   2  -4  121.74   16.57
   4  -2  -4   -1.52    8.52
   4  -2  -4  -10.13    9.39
   4  -2  -4  -19.93    8.52
  -4  -2   4    2.22   10.72
   4   2  -4    4.37   11.01
   4   2  -4   -2.36    9.17
   3  -2  -4   73.12   10.81
  -3  -2   4   76.68   12.54
   3  -2  -4   83.96   11.35
   3  -2  -4   94.10   10.76
   3   2  -4  115.90   13.98
   3   2  -4   81.00    9.33
   3   2  -4   97.92    9.18
   2  -2  -4  293.77   13.74
  -2  -2   4  332.35   18.71
   2  -2  -4  289.72   16.02
   2  -2  -4  330.26   15.65
   2   2  -4  285.00   16.68
   2   2  -4  302.18   12.71
   1  -2  -4  611.48   19.06
   1  -2  -4  595.60   18.05
  -1  -2   4  604.91   22.21
   1  -2  -4  627.20   14.42
   1   2  -4  594.04   20.00
  -1   2   4  631.83   22.41
   0  -2  -4  528.25   11.63
   0  -2   4  514.83   19.28
   0   2  -4  529.25   18.18
   0   2   4  504.87   19.37
   1  -2   4  637.75   17.50
  -1  -2  -4  634.30   12.71
   1  -2   4  628.72   21.52
  -1   2  -4  620.96   19.83
   1   2   4  614.34   19.71
  -2  -2  -4  173.70    9.56
   2  -2   4  212.68   14.21
   2  -2   4  187.37   14.42
   2  -2   4  177.37   14.57
   2   2   4  190.06   13.19
  -2   2  -4  167.13   13.53
   3  -2   4  204.39   15.50
   3  -2   4  178.25   14.45
   3  -2   4  183.60   15.38
  -3  -2  -4  176.64   12.01
   3   2   4  197.57   15.69
  -3   2  -4  181.44   14.87
   4  -2   4  593.40   24.76
  -4  -2  -4  573.39   19.64
   4  -2   4  564.28   22.50
  -4   2  -4  581.68   24.89
   4   2   4  588.73   23.40
   5  -2   4   -7.00   11.67
   5  -2   4   16.98   12.49
   5   2   4   -2.65   10.55
   6  -2   4  577.43   30.03
   6  -2   4  565.69   29.51
   6   2   4  567.83   28.11
   7  -2   4   65.64   18.74
   7   2   4   63.97   16.64
   7  -3  -4    2.19   13.93
   7  -3  -4    0.85   16.35
   7   3  -4    0.04   16.07
   6  -3  -4   84.09   16.28
   6  -3  -4   64.01   15.76
   6  -3  -4   77.73   15.44
   6   3  -4  105.12   19.07
   5  -3  -4  115.53   14.50
   5  -3  -4  139.57   16.97
   5  -3  -4  129.46   16.66
   5   3  -4  116.61   16.84
   4  -3  -4  141.37   15.26
  -4  -3   4  143.54   16.51
   4  -3  -4  150.18   16.65
   4  -3  -4  119.00   13.53
   4   3  -4  103.11   14.57
   3  -3  -4  498.92   18.11
   3  -3  -4  431.44   21.01
   3  -3  -4  480.93   20.24
  -3  -3   4  487.52   23.17
   3   3  -4  501.38   22.60
   2  -3  -4  646.85   21.91
   2  -3  -4  646.12   21.19
  -2  -3   4  619.16   24.47
   2  -3  -4  629.61   16.32
   2   3  -4  673.11   23.18
   1  -3  -4  456.89   18.31
  -1  -3   4  473.45   20.62
   1  -3  -4  451.11   11.11
   1  -3  -4  466.31   18.52
   1   3  -4  449.65   18.49
   0  -3   4 1363.39   31.04
   0   3  -4 1370.52   29.09
   1  -3   4   17.48    7.09
   1  -3   4   26.48    9.73
  -1   3  -4   15.89    8.33
   2  -3   4  577.60   21.91
   2  -3   4  531.41   18.83
   2  -3   4  553.66   23.04
  -2   3  -4  549.89   21.80
  -3  -3  -4   34.71    6.29
   3  -3   4   33.25   11.10
   3  -3   4   35.18    9.95
   3  -3   4   36.08    9.86
  -3   3  -4   20.74   11.37
   3   3   4   42.88   10.10
   4  -3   4    7.16    9.68
  -4  -3  -4    9.10    6.90
   4  -3   4   10.84   10.26
   4  -3   4  -21.41    9.56
   4   3   4    3.70    9.27
  -4   3  -4   14.49   11.65
   5  -3   4  -12.65   11.39
   5  -3   4    9.21   11.14
   5   3   4    4.46   11.11
  -5   3  -4  -16.93   11.89
   6  -3   4   26.97   14.14
   6  -3   4   60.30   15.47
   6   3   4   55.19   14.78
   7  -3   4   77.77   19.49
   7  -3   4   53.97   16.89
   7   3   4   68.55   16.78
   7  -4  -4    9.63   17.47
   7  -4  -4   -0.30   13.77
   7   4  -4  -18.85   16.38
   6  -4  -4   46.44   14.77
   6  -4  -4   27.88   15.89
   6  -4  -4   37.64   16.11
   6  -4  -4   14.01   15.46
   6   4  -4   20.29   15.86
   5  -4  -4  371.37   21.45
   5  -4  -4  353.69   23.49
   5  -4  -4  353.95   25.24
   5   4  -4  394.47   26.53
  -4  -4   4    5.82   12.02
   4  -4  -4   17.04   12.63
   4  -4  -4   12.01    9.23
   4  -4  -4    2.18   11.43
   4   4  -4    7.20   12.26
   3  -4  -4  695.97   19.48
   3  -4  -4  638.28   24.25
   3  -4  -4  699.78   24.32
  -3  -4   4  696.90   28.22
   3   4  -4  689.28   26.33
  -2  -4   4  511.28   23.67
   2  -4  -4  488.85   13.62
   2  -4  -4  485.81   21.05
   2  -4  -4  473.81   20.10
   2   4  -4  459.00   21.67
  -1  -4   4  437.77   22.98
   1  -4  -4  422.32   19.14
   1  -4  -4  440.63   19.32
   1   4  -4  394.53   18.86
   0  -4   4  378.72   22.09
   0  -4  -4  415.39   17.93
   0  -4  -4  377.02   17.10
   0   4  -4  407.27   19.86
   1  -4   4  176.41   12.25
   1  -4   4  168.84   16.14
  -1  -4  -4  186.69   13.53
  -1   4  -4  206.91   16.57
   2  -4   4   67.69   10.24
   2  -4   4  122.06   16.15
  -2   4  -4   77.37   13.17
   3  -4   4  556.45   21.37
   3  -4   4  564.99   23.72
   3  -4   4  578.48   25.11
  -3   4  -4  551.11   25.04
   4  -4   4   51.25   13.17
   4  -4   4   40.79   13.51
   4  -4   4   38.07   12.10
  -4   4  -4   41.98   13.95
   4   4   4   44.05   11.49
   5  -4   4  457.15   25.52
   5  -4   4  427.86   26.72
  -5   4  -4  420.02   27.62
   5   4   4  425.04   23.13
   6  -4   4  127.32   20.81
   6  -4   4  101.71   18.30
   6   4   4  125.97   17.05
  -6   4  -4  195.30   24.07
   7  -4   4   91.01   20.98
   7  -4   4   89.03   21.39
  -7   4  -4   76.36   20.81
   6  -5  -4   31.44   15.92
   6  -5  -4   16.39   13.54
   6  -5  -4   41.14   17.85
   5  -5  -4  193.80   21.65
   5  -5  -4  198.90   18.09
   5  -5  -4  172.83   22.17
   5  -5  -4  184.03   21.73
   5   5  -4  194.61   22.52
   4  -5  -4  143.05   18.41
   4  -5  -4  138.06   19.75
   4  -5  -4  110.53   12.17
   4  -5  -4  141.83   18.00
   4   5  -4  187.69   20.18
   3  -5  -4  506.36   18.91
   3  -5  -4  575.60   25.92
  -3  -5   4  539.23   28.01
   3  -5  -4  485.69   24.29
   3   5  -4  493.13   25.18
   2  -5  -4    8.52    9.70
  -2  -5   4   -8.01   11.33
   2  -5  -4    2.06    9.44
   2   5  -4   -7.48    9.95
   1  -5  -4  491.42   21.76
  -1  -5   4  514.25   24.35
   1  -5  -4  479.01   20.56
   1   5  -4  506.01   21.99
   0  -5  -4   25.07    9.27
   0  -5  -4   40.57    9.80
   0  -5   4   14.47   13.03
   0   5  -4   30.70   10.85
   1  -5   4   -7.78   11.27
  -1  -5  -4    6.91    8.22
  -1   5  -4    8.29   10.44
  -2  -5  -4   16.79    8.14
   2  -5   4    3.53   11.98
  -2   5  -4   -7.61    9.62
   3  -5   4  119.19   15.99
   3  -5   4  129.17   13.67
   3  -5   4  135.13   18.05
  -3   5  -4  153.38   17.30
   4  -5   4  438.87   26.42
   4  -5   4  420.31   22.17
   4  -5   4  432.18   26.22
  -4   5  -4  375.31   25.92
   5  -5   4   41.30   16.17
   5  -5   4   23.49   13.14
  -5   5  -4   73.01   18.00
   6  -5   4  407.70   28.28
   6  -5   4  376.85   30.21
  -6   5  -4  366.71   28.97
   6  -6  -4   44.01   18.73
   6  -6  -4   52.34   18.72
   6  -6  -4   35.89   14.63
   5  -6  -4   15.52   15.66
   5  -6  -4   11.97   14.74
   5  -6  -4   39.95   12.15
   4  -6  -4  -15.16   12.77
   4  -6  -4   -4.59   13.40
   4  -6  -4   18.12   13.23
   3  -6  -4    6.25   13.27
   3  -6  -4  -18.20   10.76
  -3  -6   4  -10.91   12.44
   3  -6  -4   11.08   13.28
   3   6  -4   12.50   11.72
  -2  -6   4  193.94   19.66
   2  -6  -4  216.34   18.87
   2  -6  -4  271.56   24.02
   2  -6  -4  197.82   16.48
   2   6  -4  184.16   18.51
  -1  -6   4  109.68   17.75
   1  -6  -4  110.10   13.31
   1  -6  -4  107.47   14.00
   1  -6  -4  106.41   16.86
   1   6  -4  101.12   15.07
   0  -6  -4  281.56   18.95
   0  -6  -4  261.38   17.09
   0  -6   4  297.51   22.46
   0  -6  -4  275.93   21.31
   0   6  -4  288.83   20.71
  -1  -6  -4  113.05   12.79
  -1  -6  -4  134.90   12.63
   1  -6   4  121.04   17.54
  -1  -6  -4  146.74   15.67
  -1   6  -4  131.31   16.62
   2  -6   4   79.40   15.52
  -2   6  -4  105.60   15.79
   3  -6   4   48.93   15.36
  -3   6  -4   14.82   12.62
   4  -6   4  242.10   24.61
   4  -6   4  248.55   22.41
  -4   6  -4  254.81   24.16
   5  -6   4    9.32   13.07
   5  -6   4   14.66   23.20
   5  -6   4   21.00   16.35
  -5   6  -4    5.78   15.27
   6  -6   4  237.89   24.04
   6  -6   4  317.54   30.79
  -6   6  -4  230.79   26.48
   5  -7  -4   35.23   18.87
   5  -7  -4   50.03   17.86
   4  -7  -4  240.18   23.06
   4  -7  -4  151.43   20.98
   3  -7  -4  237.28   22.57
   3  -7  -4  192.75   19.82
   3  -7  -4  170.78   21.46
  -3  -7   4  210.26   22.78
   2  -7  -4  597.90   25.86
   2  -7  -4  615.04   28.64
  -2  -7   4  615.94   31.23
   2  -7  -4  623.81   32.05
  -1  -7   4  158.57   21.47
   1  -7  -4  219.65   17.66
   1  -7  -4  188.12   19.42
   1  -7  -4  216.10   18.90
   0  -7  -4 1045.60   33.92
   0  -7   4 1071.61   38.71
   0  -7  -4 1063.99   30.40
   1  -7   4    0.03   13.17
  -1   7  -4   20.63   12.87
   2  -7   4  533.90   31.56
  -2   7  -4  524.46   27.59
   3  -7   4   -8.12   14.80
  -3   7  -4   10.75   13.64
   4  -7   4   40.07   18.37
  -4   7  -4   40.91   15.61
   5  -7   4   39.65   18.01
   5  -7   4   18.95   18.74
  -5   7  -4   52.51   18.18
   4  -8  -4    2.77   16.97
   4  -8  -4    2.25   16.92
   3  -8  -4   88.43   19.36
   3  -8  -4  162.08   20.45
   2  -8  -4  173.76   20.71
  -2  -8   4  154.14   21.97
   2  -8  -4  132.22   20.92
   1  -8  -4   28.12   13.41
  -1  -8   4   20.93   16.67
   1  -8  -4   44.93   16.94
   0  -8   4  200.63   23.41
   0  -8  -4  133.68   19.37
   1  -8   4   13.29   16.15
   2  -8   4   69.26   19.21
   3  -8   4   58.76   19.98
   4  -8   4   53.08   21.45
   3  -9  -4  213.55   27.89
   2  -9  -4   52.26   19.76
  -2  -9   4    9.59   17.54
   1  -9  -4  139.88   22.15
  -1  -9   4  170.85   24.42
   0  -9  -4   13.16   15.43
   0  -9   4  -11.26   16.85
   1  -9   4   11.28   17.55
   2  -9   4   34.51   19.32
   3  -9   4   39.84   20.04
   0 -10   4  110.38   23.04
   7   0  -5  155.56   21.94
   7   0  -5   92.92   22.92
   6   0  -5  202.28   21.76
   6   0  -5  222.86   21.10
   5   0  -5   96.47   16.43
   5   0  -5   88.87   15.05
   4   0  -5  941.86   30.24
   4   0  -5  950.95   27.81
   4   0  -5  939.73   26.39
  -4   0   5  930.37   33.42
   3   0  -5  185.76   15.37
   3   0  -5  234.01   16.75
  -3   0   5  244.60   21.01
   3   0  -5  225.69   16.26
  -2   0   5  907.66   30.13
   2   0  -5  856.92   24.11
   2   0  -5  910.87   23.85
   1   0  -5  102.06   11.50
  -1   0   5   85.61   12.52
   1   0  -5   86.78   10.47
   0   0   5  216.20   17.02
   0   0  -5  224.59   14.48
  -1   0  -5  153.90   11.84
   1   0   5  174.90   15.39
  -2   0  -5  370.29   16.23
   2   0   5  343.95   17.77
   2   0   5  337.57   18.80
   3   0   5  874.73   27.56
  -3   0  -5  889.63   24.95
   4   0   5  813.07   28.50
  -4   0  -5  804.74   26.13
   5   0   5  480.71   26.94
  -5   0  -5  491.46   25.17
   6   0   5  813.72   34.70
  -6   0  -5  803.30   32.42
   7   0   5   32.09   17.17
  -7   0  -5   41.00   16.56
   7  -1  -5   -0.81   15.77
   7  -1  -5   22.56   17.47
   7   1  -5   14.55   16.31
   6  -1  -5  125.99   18.88
   6  -1  -5  118.31   18.86
   6   1  -5  103.99   18.93
   5  -1  -5  359.51   24.50
   5  -1  -5  381.41   23.97
   5  -1  -5  367.25   22.68
  -5  -1   5  427.08   28.51
   5   1  -5  419.86   21.84
   5   1  -5  382.65   26.04
   4  -1  -5   57.22   13.25
   4  -1  -5   60.99   12.65
  -4  -1   5   50.58   14.12
   4  -1  -5   71.62   12.35
   4   1  -5   55.85   12.01
   4   1  -5   73.85   14.12
   3  -1  -5  998.36   27.71
   3  -1  -5  994.92   26.59
   3  -1  -5 1018.29   27.11
  -3  -1   5  987.42   32.64
   3   1  -5  988.11   29.13
  -3   1   5  984.48   32.60
   3   1  -5 1009.54   24.44
   3   1  -5  973.22   25.45
  -2  -1   5   44.91   11.55
   2  -1  -5   44.18    9.29
   2  -1  -5   42.51   10.63
   2  -1  -5   47.50   10.77
  -2   1   5   42.85   11.27
   2   1  -5   40.32   10.38
   2   1  -5   44.66    9.27
  -1  -1   5  664.36   25.46
   1  -1  -5  606.85   17.99
   1  -1  -5  617.18   20.63
   1   1  -5  620.62   20.78
  -1   1   5  642.37   24.87
   1   1  -5  643.74   19.10
   0  -1  -5   55.95    7.91
   0  -1   5   70.98   12.22
   0   1   5   76.61   12.10
   0   1  -5   76.72   11.01
  -1  -1  -5   95.10    9.65
   1  -1   5   93.21   12.96
  -1   1  -5   97.02   11.70
   1   1   5   99.24   12.61
  -2  -1  -5    7.04    6.93
   2  -1   5    2.99    8.72
   2  -1   5  -10.76    7.99
  -2   1  -5   14.31    8.83
   2   1   5    9.30    8.79
   3  -1   5   47.04   10.73
   3  -1   5   37.78   10.65
   3  -1   5   38.41   10.40
  -3  -1  -5   27.45    8.44
  -3   1  -5   51.04   11.00
   3   1   5   18.43   10.84
   4  -1   5   80.58   13.05
  -4  -1  -5   80.08   11.93
   4   1   5   71.28   13.87
  -4   1  -5   77.84   13.62
   5  -1   5   88.44   16.20
  -5  -1  -5   51.85   12.37
   5   1   5   56.24   14.54
  -5   1  -5   55.40   13.90
  -6  -1  -5   -5.71   11.66
   6  -1   5   -3.63   12.95
   6   1   5    8.81   13.65
  -6   1  -5   23.48   13.79
  -7  -1  -5   28.13   14.76
   7  -1   5    3.91   16.03
   7   1   5   13.96   15.90
  -7   1  -5   -1.62   15.18
   7  -2  -5    7.44   17.08
   7  -2  -5   12.34   15.17
   7   2  -5   35.25   17.72
   6  -2  -5   45.62   17.13
   6  -2  -5   24.37   15.14
   6   2  -5   56.72   17.16
   5  -2  -5  134.57   16.79
   5  -2  -5  142.57   17.68
  -5  -2   5  134.40   24.24
   5  -2  -5  135.67   16.75
   5   2  -5  151.01   18.33
   4  -2  -5    9.48   12.19
   4  -2  -5   10.17    9.92
  -4  -2   5   16.68   13.20
   4  -2  -5   15.62   11.04
   4   2  -5    7.11   12.31
  -3  -2   5   56.80   14.41
   3  -2  -5   50.34   10.22
   3  -2  -5   40.08   11.62
   3  -2  -5   88.76   13.82
   3   2  -5   51.51   12.98
   3   2  -5   48.56    9.75
   3   2  -5   53.06    9.45
  -2  -2   5  167.55   18.34
   2  -2  -5  190.90   13.30
   2  -2  -5  214.28   16.55
   2  -2  -5  181.14   14.79
   2   2  -5  179.06   15.87
  -2   2   5  172.75   18.29
   2   2  -5  180.17   12.81
   1  -2  -5   -2.80    7.28
   1  -2  -5   -2.70    6.22
  -1  -2   5  -11.71   10.05
  -1   2   5   -3.73    9.80
   1   2  -5   -1.96    8.18
   0  -2   5  879.30   28.66
   0  -2  -5  830.59   16.87
   0   2   5  859.45   26.84
   0   2  -5  880.87   24.83
  -1  -2  -5  370.68   12.31
   1  -2   5  382.84   21.44
   1   2   5  363.41   18.85
  -1   2  -5  345.14   18.71
  -2  -2  -5  777.75   17.68
   2  -2   5  781.00   23.94
   2  -2   5  780.42   25.98
  -2   2  -5  778.48   25.03
   2   2   5  824.85   23.59
   3  -2   5  870.20   28.27
   3  -2   5  949.54   27.74
   3  -2   5  891.39   28.07
  -3  -2  -5  906.62   20.98
  -3   2  -5  895.63   28.11
   3   2   5  915.35   28.09
  -4  -2  -5   28.58    8.67
   4  -2   5   51.30   12.95
   4  -2   5   23.79   12.06
  -4   2  -5   22.66   12.33
   4   2   5   32.30   12.69
  -5  -2  -5  554.97   22.71
   5  -2   5  555.31   38.17
   5  -2   5  541.52   26.57
  -5   2  -5  557.97   27.99
   5   2   5  549.60   27.80
  -6  -2  -5   18.51   11.93
   6  -2   5   26.84   14.44
  -6   2  -5    4.13   13.91
   6   2   5   62.21   16.29
  -7  -2  -5    0.26   13.69
   7  -2   5   10.15   16.19
   7   2   5   22.38   15.81
  -7   2  -5    5.32   15.97
   7  -3  -5  -28.50   16.07
   7  -3  -5   -9.32   14.65
   7   3  -5  -16.45   16.69
   6  -3  -5  234.96   22.62
   6  -3  -5  237.29   22.82
   6  -3  -5  253.94   25.48
   6   3  -5  232.36   23.98
   5  -3  -5  137.14   18.18
   5  -3  -5  128.02   19.24
   5  -3  -5  123.93   16.36
   5   3  -5  139.91   20.25
  -4  -3   5  218.94   21.38
   4  -3  -5  223.72   16.94
   4  -3  -5  187.18   18.21
   4  -3  -5  246.23   20.66
   4   3  -5  196.30   20.11
   3  -3  -5  441.20   23.05
   3  -3  -5  387.59   17.49
  -3  -3   5  392.42   25.15
   3  -3  -5  403.79   22.45
   3   3  -5  427.34   23.50
   2  -3  -5    4.89    6.42
  -2  -3   5    9.21   12.50
   2  -3  -5    1.04   10.10
   2  -3  -5    3.44    8.99
   2   3  -5   -2.67    9.90
   1  -3  -5   92.17   12.70
  -1  -3   5   85.43   14.22
   1  -3  -5   92.47   12.57
   1  -3  -5   95.11    7.79
   1   3  -5   80.03   12.97
   0  -3   5   19.75   12.53
   0   3  -5    5.40    9.65
   1  -3   5   20.42    8.33
   1  -3   5   18.90   11.72
  -1   3  -5   26.49   10.73
   2  -3   5   43.45   10.66
   2  -3   5   47.61   12.93
  -2   3  -5   28.49   10.49
   3  -3   5   51.99   13.16
   3  -3   5   35.15   11.55
   3  -3   5   27.58   10.72
  -3   3  -5   32.32   12.00
   4  -3   5   69.70   13.26
   4  -3   5   83.27   14.77
   4   3   5   75.51   14.24
  -4   3  -5   39.50   13.60
   5  -3   5    5.51   12.53
   5  -3   5   14.36   13.27
   5   3   5   24.73   13.00
  -5   3  -5   35.43   14.33
   6  -3   5   30.10   15.30
   6  -3   5    7.27   14.65
  -6   3  -5   10.31   14.79
   6   3   5   21.05   14.74
   6  -4  -5  122.04   20.23
   6  -4  -5  113.50   21.57
   6  -4  -5  125.29   18.59
   6   4  -5  111.48   21.26
   5  -4  -5   15.75   14.45
   5  -4  -5   22.12   15.91
   5  -4  -5   41.77   12.64
   5   4  -5   45.46   16.56
   4  -4  -5  577.36   28.56
   4  -4  -5  576.86   22.28
   4  -4  -5  565.41   26.39
  -4  -4   5  568.89   29.82
   4   4  -5  565.58   29.92
   3  -4  -5   88.75   16.08
  -3  -4   5   91.63   16.73
   3  -4  -5  111.89   15.56
   3  -4  -5  107.60   11.02
   3   4  -5   99.63   16.11
   2  -4  -5  506.51   22.61
   2  -4  -5  457.18   21.88
  -2  -4   5  475.32   27.05
   2   4  -5  484.17   24.24
  -1  -4   5   50.29   14.01
   1  -4  -5   43.71   11.57
   1  -4  -5   24.36   10.74
   1   4  -5   41.05   12.00
   0  -4  -5   89.13   12.16
   0  -4  -5  104.28   13.43
   0  -4   5   97.33   15.00
   0   4  -5   85.28   13.04
   1  -4   5  124.61   16.71
  -1   4  -5  147.67   16.40
   2  -4   5  151.06   13.80
   2  -4   5  142.75   17.50
  -2   4  -5  147.58   16.75
   3  -4   5  645.78   28.59
   3  -4   5  658.28   29.35
   3  -4   5  680.15   24.75
  -3   4  -5  682.91   28.24
   4  -4   5  482.72   27.13
   4  -4   5  478.54   26.55
   4  -4   5  440.47   24.27
  -4   4  -5  490.09   27.37
   5  -4   5  376.54   25.89
   5  -4   5  422.46   26.65
   5   4   5  392.70   24.61
  -5   4  -5  419.88   30.17
   6  -4   5  489.63   33.24
   6  -4   5  463.46   31.82
   6   4   5  502.90   28.50
  -6   4  -5  570.76   35.63
   6  -5  -5   37.18   18.43
   6  -5  -5   25.22   13.78
   6  -5  -5   16.71   17.27
   6   5  -5   18.99   17.81
   5  -5  -5  442.53   23.23
   5  -5  -5  444.18   30.61
   5  -5  -5  397.88   29.84
   5   5  -5  468.96   32.23
   4  -5  -5   -8.47   12.22
  -4  -5   5   12.35   15.13
   4  -5  -5  -13.99   13.29
   4   5  -5   -2.62   13.51
   3  -5  -5 1156.16   36.34
  -3  -5   5 1064.48   37.04
   3  -5  -5 1114.16   34.17
   3   5  -5 1129.38   36.42
  -2  -5   5   89.95   16.75
   2  -5  -5  111.13   16.00
   2  -5  -5   97.06   15.95
   2   5  -5   97.15   15.62
   1  -5  -5  846.16   28.60
  -1  -5   5  892.89   34.51
   1  -5  -5  904.79   28.67
   1   5  -5  902.02   31.28
   0  -5  -5  107.67   13.94
   0  -5  -5  110.46   13.91
   0  -5   5  112.33   18.05
   0   5  -5   90.90   14.55
  -1  -5  -5  321.23   19.14
   1  -5   5  322.66   23.67
  -1  -5  -5  324.24   19.52
  -1   5  -5  354.86   23.21
  -2  -5  -5   13.11    9.08
   2  -5   5   14.89   13.64
  -2   5  -5   -2.71   11.44
   3  -5   5  211.13   21.57
  -3   5  -5  199.40   19.77
   4  -5   5   23.54   12.30
   4  -5   5   47.91   15.93
   4  -5   5   63.05   15.81
  -4   5  -5   34.12   14.58
   5  -5   5  234.38   24.32
   5  -5   5  248.24   22.27
  -5   5  -5  208.62   23.63
   6  -5   5    8.80   16.59
   6  -5   5   -4.00   16.88
  -6   5  -5   28.43   18.76
   5  -6  -5   -0.69   16.63
   5  -6  -5   38.91   18.33
   4  -6  -5    9.37   15.53
   4  -6  -5   10.05   16.23
   4   6  -5   27.82   16.07
   3  -6  -5   -0.82   13.49
   3  -6  -5    3.86   13.30
   3  -6  -5   30.21   15.29
  -3  -6   5   12.40   14.88
   3   6  -5  -11.92   10.89
  -2  -6   5   23.54   15.55
   2  -6  -5   11.43   14.24
   2  -6  -5    2.56   11.48
   2  -6  -5    6.94   13.64
   2   6  -5   24.65   13.56
  -1  -6   5   14.42   14.75
   1  -6  -5   14.65   12.15
   1  -6  -5    4.94   11.30
   1   6  -5   -5.16   11.41
   0  -6   5  196.23   21.67
   0  -6  -5  239.36   21.00
   0  -6  -5  230.75   17.98
   0  -6  -5  218.72   17.47
   0   6  -5  226.41   20.26
   1  -6   5  130.87   20.47
  -1  -6  -5  128.64   14.57
  -1  -6  -5  147.20   14.79
  -1   6  -5  131.61   17.81
   2  -6   5  245.58   24.94
  -2   6  -5  206.78   21.23
   3  -6   5  463.60   30.65
  -3   6  -5  451.68   28.67
   4  -6   5   20.39   15.72
  -4   6  -5  -17.36   13.03
   5  -6   5  341.79   29.23
  -5   6  -5  307.38   28.13
   5  -7  -5   -5.97   16.45
   5  -7  -5   48.06   20.28
   4  -7  -5  178.03   23.34
   4  -7  -5  215.31   26.24
   3  -7  -5  103.00   20.54
  -3  -7   5   79.87   20.37
   3  -7  -5   88.06   19.23
   2  -7  -5   10.79   13.53
   2  -7  -5    9.95   15.60
  -2  -7   5   17.05   15.78
   2  -7  -5   11.20   12.55
   1  -7  -5  -22.85   10.42
   1  -7  -5    6.90   14.58
   1  -7  -5    9.37   12.38
  -1  -7   5   -4.58   16.07
   1   7  -5  -17.77   13.09
   0  -7   5   20.03   16.49
   0  -7  -5  -12.74   10.01
   0  -7  -5   10.90   12.92
   0  -7  -5   -0.88   11.26
   0   7  -5  -15.05   12.24
   1  -7   5  121.51   21.49
  -1   7  -5  144.52   18.88
   2  -7   5   23.39   16.60
  -2   7  -5   37.24   15.97
   3  -7   5  115.60   21.39
  -3   7  -5  131.32   20.09
   4  -7   5   43.93   18.52
  -4   7  -5   32.20   17.29
   3  -8  -5   12.66   17.64
   3  -8  -5   10.14   16.75
  -2  -8   5   73.47   21.14
   2  -8  -5   83.34   20.54
   2  -8  -5   56.08   16.39
   1  -8  -5   17.62   14.28
   1  -8  -5   14.71   16.16
  -1  -8   5   -1.40   16.45
   0  -8  -5    9.29   13.56
   0  -8   5   18.64   17.28
   1  -8   5   98.63   21.76
   2  -8   5  -16.01   16.70
   3  -8   5  302.39   31.17
  -2  -9   5   27.19   20.05
   2  -9  -5   29.34   18.80
   1  -9  -5  486.37   34.60
  -1  -9   5  451.09   35.98
   0  -9   5   76.00   23.55
   1  -9   5  251.12   29.57
   2  -9   5   30.62   20.06
   6   0  -6    7.40   14.63
   6   0  -6   21.99   15.99
   5   0  -6   70.65   15.87
   5   0  -6   60.28   16.06
  -4   0   6    4.41   13.44
   4   0  -6   35.81   12.47
   4   0  -6    1.38   10.40
   4   0  -6   17.88   12.56
   3   0  -6  603.42   23.52
   3   0  -6  631.39   24.57
  -3   0   6  556.23   29.34
   3   0  -6  596.76   25.32
  -2   0   6  455.86   27.02
   2   0  -6  473.85   21.98
   2   0  -6  453.15   21.15
   1   0  -6  312.64   18.66
  -1   0   6  290.86   23.07
   1   0  -6  340.24   17.61
   0   0  -6 1205.90   27.19
   0   0   6 1251.61   35.09
   1   0   6   -0.75   10.44
  -1   0  -6    8.78    8.21
  -2   0  -6  368.21   18.33
   2   0   6  402.12   21.89
   3   0   6   39.49   13.40
  -3   0  -6   43.63   10.98
   4   0   6   31.90   12.66
  -4   0  -6   46.78   12.14
  -5   0  -6    1.42   11.52
   5   0   6   14.61   13.50
  -6   0  -6   10.63   13.98
   6   0   6    8.99   15.63
   6  -1  -6  104.15   19.04
   6  -1  -6  108.42   19.39
   6   1  -6  106.38   20.51
  -5  -1   6   48.77   18.21
   5  -1  -6   46.18   15.78
   5  -1  -6   57.40   15.42
   5   1  -6   47.06   15.75
   4  -1  -6   75.94   14.44
  -4  -1   6   65.07   16.70
   4  -1  -6   38.55   13.83
   4  -1  -6   55.98   13.65
   4   1  -6   57.69   13.56
   4   1  -6   67.43   15.62
  -3  -1   6   39.94   15.17
   3  -1  -6   51.94   11.75
   3  -1  -6   56.29   13.14
   3  -1  -6   44.67   11.90
   3   1  -6   51.96   10.89
   3   1  -6   58.18   11.85
   3   1  -6   60.08   13.32
  -3   1   6   52.18   15.59
   2  -1  -6   79.96   13.37
   2  -1  -6   59.92   11.38
  -2  -1   6   67.37   15.48
   2  -1  -6   59.76   12.51
   2   1  -6   82.00   13.29
  -2   1   6   75.52   15.64
   2   1  -6   51.73   11.19
  -1  -1   6   27.51   13.16
   1  -1  -6   -8.89    7.06
   1  -1  -6  -20.83    8.95
  -1   1   6  -11.48    9.50
   1   1  -6  -13.86    8.21
   1   1  -6    5.12    9.00
   0  -1  -6  262.15   15.50
   0  -1   6  291.25   22.65
   0   1  -6  246.42   17.51
   0   1   6  248.58   20.44
  -1  -1  -6   19.49    8.16
   1  -1   6   13.64   11.79
  -1   1  -6   11.65    9.60
   1   1   6   -1.63   10.24
   2  -1   6  247.52   19.42
  -2  -1  -6  264.63   15.73
  -2   1  -6  283.51   19.33
   2   1   6  252.16   19.50
   3  -1   6  106.54   15.02
  -3  -1  -6  136.18   13.19
  -3   1  -6  110.61   14.67
  -4  -1  -6   -3.62    9.20
   4  -1   6    9.39   12.70
   4   1   6   19.86   13.15
  -4   1  -6   18.15   11.86
   5  -1   6   48.58   15.34
  -5  -1  -6   45.88   12.75
  -5   1  -6   38.89   13.53
   5   1   6   21.29   14.54
   6  -1   6   48.10   17.61
  -6  -1  -6   64.51   15.11
  -6   1  -6   75.13   17.85
   6   1   6   83.91   18.55
   6  -2  -6  568.34   33.63
   6  -2  -6  516.47   31.55
   6   2  -6  548.07   34.75
   5  -2  -6   11.85   12.77
  -5  -2   6    6.62   15.14
   5  -2  -6   13.32   13.83
   5  -2  -6    2.01   12.70
   5   2  -6    6.16   14.39
   4  -2  -6  614.66   26.02
  -4  -2   6  597.08   32.28
   4  -2  -6  571.70   26.74
   4  -2  -6  568.04   27.16
   4   2  -6  558.73   29.73
   3  -2  -6   -7.76   10.89
  -3  -2   6   23.98   12.86
   3  -2  -6   27.78   12.26
   3  -2  -6   23.60    9.73
   3   2  -6   37.08   12.40
  -2  -2   6   96.23   17.29
   2  -2  -6   85.41   14.49
   2  -2  -6   79.47   12.73
   2  -2  -6   83.62   11.06
   2   2  -6  104.36   14.38
   2   2  -6   79.04   11.70
  -2   2   6   73.98   14.83
   1  -2  -6  258.98   18.66
   1  -2  -6  238.79   14.32
  -1  -2   6  172.99   18.29
  -1   2   6  237.53   20.62
   1   2  -6  265.07   19.04
   1   2  -6  226.33   15.65
   0  -2   6   -4.48   11.84
   0  -2  -6    3.38    6.39
   0   2  -6   -3.21    9.25
   0   2   6   17.87   11.81
   1  -2   6 1333.66   36.53
  -1  -2  -6 1360.78   23.51
   1   2   6 1351.53   34.02
  -1   2  -6 1345.69   32.86
  -2  -2  -6    0.42    6.94
   2  -2   6   -0.47    9.79
   2  -2   6    8.60   11.58
  -2   2  -6  -10.77    9.35
   2   2   6    1.23   10.17
   3  -2   6 1254.55   34.70
   3  -2   6 1241.32   34.09
  -3  -2  -6 1246.37   28.13
  -3   2  -6 1247.49   34.29
   4  -2   6   46.91   14.74
  -4   2  -6   41.90   13.24
   4   2   6   35.57   14.13
   5  -2   6  488.72   29.27
   5   2   6  507.10   29.36
  -5   2  -6  525.68   28.65
   6  -2   6   19.02   15.63
  -6   2  -6   -8.52   13.63
   6   2   6  -11.14   14.24
   6  -3  -6  131.24   19.29
   6  -3  -6   99.30   20.18
   6   3  -6  127.81   20.96
   5  -3  -6  195.32   21.79
   5  -3  -6  165.76   18.60
   5  -3  -6  170.48   20.75
   5   3  -6  193.72   21.92
   4  -3  -6  157.77   19.85
   4  -3  -6  139.45   15.08
   4  -3  -6  134.96   17.46
  -4  -3   6  130.70   21.71
   4   3  -6  153.76   20.02
  -3  -3   6  190.25   21.71
   3  -3  -6  186.82   18.41
   3  -3  -6  229.56   15.96
   3  -3  -6  224.01   19.57
   3   3  -6  259.43   22.05
   2  -3  -6  213.45   14.30
   2  -3  -6  216.27   19.16
   2  -3  -6  272.04   20.95
  -2  -3   6  251.17   23.71
   2   3  -6  233.46   20.10
  -1  -3   6   90.34   16.90
   1  -3  -6   77.63   14.44
   1  -3  -6   84.94   14.16
   1   3  -6   95.86   14.37
   0  -3   6  595.69   29.45
   0  -3  -6  580.55   24.88
   0   3  -6  521.56   24.80
   1  -3   6  149.59   18.86
  -1   3  -6  158.75   17.31
   2  -3   6  670.61   29.05
   2  -3   6  669.13   24.79
  -2   3  -6  651.20   27.90
   3  -3   6  234.07   19.71
   3  -3   6  242.26   20.82
  -3   3  -6  260.52   21.66
   4  -3   6  140.60   18.20
   4  -3   6   98.95   16.42
  -4   3  -6  116.76   17.26
   5  -3   6   38.04   15.38
   5   3   6   42.40   15.10
  -5   3  -6   78.75   17.63
   6  -3   6   -5.30   15.49
   6   3   6  -13.83   14.21
  -6   3  -6   33.14   16.60
   6  -4  -6   49.30   19.37
   6  -4  -6   34.73   15.25
   6   4  -6   47.00   19.62
   5  -4  -6   28.77   13.48
   5  -4  -6   55.80   17.99
   5   4  -6   50.27   17.91
   4  -4  -6   14.35   15.03
  -4  -4   6   11.51   15.39
   4  -4  -6   -5.30    9.41
   4  -4  -6   -3.87   12.27
   4   4  -6    4.85   12.92
   3  -4  -6  396.86   26.74
   3  -4  -6  382.95   25.35
  -3  -4   6  394.59   29.72
   3   4  -6  399.23   26.91
  -2  -4   6  242.65   23.00
   2  -4  -6  274.99   20.08
   2  -4  -6  251.14   20.49
   2   4  -6  254.32   21.74
   1  -4  -6  157.01   16.75
  -1  -4   6  210.44   22.98
   1  -4  -6  125.55   15.09
   1   4  -6  164.68   18.02
   0  -4   6  717.17   31.33
   0  -4  -6  718.29   27.29
   0  -4  -6  782.97   27.74
   0   4  -6  734.28   28.26
   1  -4   6    4.71   13.22
  -1   4  -6    3.19   10.50
   2  -4   6  229.87   17.65
   2  -4   6  226.38   22.33
  -2   4  -6  289.17   22.63
   3  -4   6   69.88   16.86
   3  -4   6   67.61   13.49
  -3   4  -6   61.18   15.47
   4  -4   6   10.66   12.81
  -4   4  -6   18.17   15.03
   5  -4   6    2.91   13.83
   5  -4   6  -30.57   13.48
  -5   4  -6  -19.04   14.13
   5  -5  -6   30.61   18.27
   5   5  -6   20.28   17.40
  -4  -5   6   -0.68   16.70
   4  -5  -6    2.92   15.74
   4   5  -6   27.79   16.16
   3  -5  -6   44.39   16.46
   3  -5  -6   44.15   15.07
  -3  -5   6   13.70   16.19
   3   5  -6   27.81   14.52
  -2  -5   6    0.07   14.93
   2  -5  -6    6.84   12.58
   2  -5  -6  -28.68   12.66
   2   5  -6  -21.14   11.45
  -1  -5   6   47.71   17.60
   1  -5  -6   66.21   15.02
   1  -5  -6   55.94   14.60
   1   5  -6   46.28   14.20
   0  -5  -6   17.26   11.82
   0  -5  -6   35.79   13.15
   0  -5   6   36.54   17.44
   0   5  -6   32.71   13.50
  -1  -5  -6   26.31   12.34
  -1  -5  -6   -5.04    9.82
   1  -5   6    1.55   12.98
  -1   5  -6   32.73   13.53
   2  -5   6   39.98   16.27
  -2  -5  -6    4.41   10.16
  -2   5  -6   16.67   14.33
   3  -5   6   24.66   15.58
  -3   5  -6   20.19   12.92
   4  -5   6    2.92   15.54
  -4   5  -6   18.40   16.62
   5  -5   6   11.81   15.44
   5  -5   6    1.66   15.73
  -5   5  -6   25.74   16.99
   4  -6  -6  253.61   26.93
   4  -6  -6  174.39   23.99
   4   6  -6  190.83   23.79
  -3  -6   6    3.08   16.84
   3  -6  -6  -24.23   13.37
   3   6  -6   14.72   15.54
   2  -6  -6   -2.83   12.27
  -2  -6   6  -13.87   15.16
   2  -6  -6   -6.21   14.82
   2   6  -6    0.16   13.68
   1  -6  -6   47.25   14.73
   1  -6  -6   64.39   15.90
  -1  -6   6   37.20   16.59
   1   6  -6   35.83   14.38
   0  -6  -6   24.50   12.87
   0  -6  -6   49.22   14.37
   0  -6   6   49.64   16.39
   0   6  -6   29.87   14.76
  -1  -6  -6  510.74   25.80
  -1  -6  -6  476.84   24.86
   1  -6   6  512.92   32.79
  -1   6  -6  516.21   29.55
   2  -6   6   -7.47   15.53
  -2   6  -6    6.54   14.55
   3  -6   6  467.57   32.81
  -3   6  -6  443.43   30.79
   4  -6   6   34.41   18.82
  -4   6  -6   17.95   16.74
   4  -7  -6  148.53   23.34
   4  -7  -6  132.72   23.76
  -3  -7   6  245.61   27.82
   3  -7  -6  229.22   27.82
   3  -7  -6  201.05   24.60
   3   7  -6  229.58   29.35
   2  -7  -6  260.50   24.39
   2  -7  -6  225.36   26.45
  -2  -7   6  240.28   28.57
   2   7  -6  228.88   23.92
   1  -7  -6  148.09   20.51
   1  -7  -6  132.82   22.51
   1  -7  -6  115.05   21.50
  -1  -7   6   78.42   20.14
   1   7  -6  125.92   19.83
   0  -7  -6  496.60   27.49
   0  -7   6  444.12   34.80
   0  -7  -6  532.21   29.40
   0  -7  -6  491.78   30.84
   0   7  -6  443.60   30.53
  -1  -7  -6  131.38   18.04
   1  -7   6  124.77   22.87
  -1   7  -6  125.06   20.58
   2  -7   6  492.69   35.31
  -2   7  -6  531.72   33.13
   3  -7   6  205.77   26.74
  -3   7  -6  210.11   25.19
   2  -8  -6   30.60   17.59
   2  -8  -6   33.04   18.03
  -2  -8   6   39.26   20.09
   1  -8  -6   -2.53   15.67
  -1  -8   6    8.41   19.78
   1  -8  -6    6.91   16.60
   0  -8   6  141.21   23.59
   1  -8   6   27.02   19.71
   2  -8   6   34.55   21.08
  -2   8  -6   32.78   17.39
   6   0  -7  100.79   19.75
   5   0  -7  136.85   20.07
   5   0  -7  167.46   19.88
   4   0  -7  -10.67   12.17
   4   0  -7    4.06   16.26
  -4   0   7   21.64   17.12
   4   0  -7  -11.01   11.61
   3   0  -7  229.21   20.24
   3   0  -7  239.04   19.45
  -3   0   7  262.77   24.97
   3   0  -7  225.13   19.43
   1   0  -7  639.94   25.05
   1   0  -7  660.86   25.19
  -1   0   7  574.74   29.33
   0   0   7  225.11   22.02
   0   0  -7  217.58   16.60
  -1   0  -7  545.22   22.87
   1   0   7  526.26   27.72
  -2   0  -7  130.28   14.88
   2   0   7  171.89   19.07
  -3   0  -7  136.25   15.58
  -4   0  -7  360.52   23.59
   4   0   7  365.28   26.13
   5   0   7   -1.56   14.99
  -5   0  -7   -1.33   11.99
   6  -1  -7   24.45   16.27
   6  -1  -7   -4.66   16.11
   6   1  -7  -16.19   15.71
   5  -1  -7   -5.80   15.08
   5  -1  -7   12.37   14.54
  -5  -1   7    4.44   17.48
   5   1  -7   15.70   15.86
  -4  -1   7   31.97   17.08
   4  -1  -7   15.01   13.85
   4  -1  -7   33.25   14.02
   4  -1  -7   19.48   13.91
   4   1  -7   35.99   14.74
   3  -1  -7  194.13   18.06
   3  -1  -7  166.38   18.55
  -3  -1   7  188.85   24.65
   3  -1  -7  200.82   19.77
   3   1  -7  190.87   19.73
   3   1  -7  189.00   18.28
   3   1  -7  210.87   18.15
  -3   1   7  190.05   23.53
   2  -1  -7  382.14   23.35
   2  -1  -7  426.03   21.89
   2  -1  -7  414.68   23.83
  -2  -1   7  439.35   28.18
   2   1  -7  410.28   23.80
   2   1  -7  437.22   22.34
  -2   1   7  427.62   28.93
   1  -1  -7  198.78   17.56
  -1  -1   7  175.00   20.59
   1  -1  -7  182.11   15.20
   1   1  -7  187.21   16.32
  -1   1   7  231.14   22.43
   1   1  -7  191.46   17.62
   0  -1   7  781.83   32.91
   0  -1  -7  766.55   23.33
   0   1   7  716.20   31.40
   0   1  -7  797.92   26.92
   1  -1   7    1.44   12.45
  -1  -1  -7    0.58    8.47
  -1   1  -7   -5.97   10.08
   1   1   7    2.97   12.04
   2  -1   7  351.71   25.57
  -2  -1  -7  366.53   19.61
  -2   1  -7  392.68   22.25
   2   1   7  349.45   23.93
  -3  -1  -7   11.01   10.07
  -3   1  -7   36.48   13.35
   4  -1   7   11.92   14.95
  -4  -1  -7   33.67   12.15
  -4   1  -7   20.54   13.01
  -5  -1  -7   35.74   12.72
   5  -1   7   -8.62   12.99
   5   1   7  -15.82   14.02
  -5   1  -7  -14.68   12.78
   5  -2  -7  118.07   20.91
  -5  -2   7  116.48   22.33
   5  -2  -7  144.62   18.97
   5   2  -7   96.80   19.71
  -4  -2   7   35.98   18.18
   4  -2  -7   62.37   15.47
   4  -2  -7   45.70   15.00
   4  -2  -7   57.08   13.93
   4   2  -7   62.15   16.56
   3  -2  -7  269.77   21.81
   3  -2  -7  213.88   17.37
  -3  -2   7  273.94   27.76
   3  -2  -7  258.14   21.33
   3   2  -7  185.42   20.19
  -2  -2   7    4.20   15.17
   2  -2  -7   17.38   13.43
   2  -2  -7   30.67   12.79
   2  -2  -7   14.51    9.39
  -2   2   7   13.92   14.49
   2   2  -7   17.75   12.50
   1  -2  -7   51.56   13.94
   1  -2  -7   79.14   11.40
  -1  -2   7   75.00   16.89
  -1   2   7   78.24   15.95
   1   2  -7   74.70   14.42
   1   2  -7   75.41   12.96
   0  -2   7   -6.14   12.98
   0   2  -7   -6.73   10.74
   0   2   7    1.92   12.12
   1  -2   7    6.27   13.81
   1   2   7   18.18   12.73
  -1   2  -7   18.75   12.07
   2  -2   7   19.54   13.69
  -2   2  -7   10.40   12.51
   3  -2   7  175.32   20.07
  -3   2  -7  149.87   18.85
   4  -2   7   21.29   15.44
  -4   2  -7    4.81   13.31
   5  -2   7  126.75   20.90
  -5   2  -7  149.00   20.49
   5  -3  -7   15.77   17.04
  -5  -3   7   18.29   18.75
   5  -3  -7    1.49   12.96
   5   3  -7   -0.30   16.12
  -4  -3   7   15.78   17.59
   4  -3  -7    5.57   13.94
   4  -3  -7   -0.75   11.38
   4   3  -7    2.68   14.21
   3  -3  -7  105.04   17.66
  -3  -3   7   86.48   19.45
   3  -3  -7   84.24   17.04
   3   3  -7  104.84   17.98
  -2  -3   7   77.33   19.47
   2  -3  -7  103.77   16.95
   1  -3  -7   97.72   16.60
   1  -3  -7  113.18   16.46
  -1  -3   7  126.65   20.78
   1   3  -7  102.96   16.14
   0  -3  -7  211.06   19.39
   0  -3   7  214.11   23.21
   0   3  -7  273.28   22.29
   1  -3   7    2.16   14.28
  -1   3  -7   15.01   12.66
   2  -3   7   82.73   17.46
  -2   3  -7   66.20   15.71
   3  -3   7  110.00   17.06
   3  -3   7  104.97   18.31
  -3   3  -7   90.08   17.90
   4  -3   7   13.80   14.73
  -4   3  -7   27.40   15.27
   5  -3   7   22.06   16.95
  -5   3  -7   22.00   15.62
   5  -4  -7   71.83   20.69
   5   4  -7  115.34   23.03
   4  -4  -7    9.25   15.53
  -4  -4   7   -2.51   17.08
   4   4  -7   25.63   17.22
   3  -4  -7   81.55   16.78
  -3  -4   7  123.65   22.74
   3   4  -7  119.42   20.14
   2  -4  -7  175.47   19.34
  -2  -4   7  177.37   23.88
   2  -4  -7  200.79   21.61
   2   4  -7  147.98   19.44
  -1  -4   7  345.29   29.33
   1  -4  -7  373.07   26.57
   1  -4  -7  304.14   22.97
   1   4  -7  346.14   25.69
   0  -4  -7  176.25   19.88
   0  -4   7  201.52   23.70
   0  -4  -7  158.48   18.26
   0   4  -7  154.23   19.77
   1  -4   7  302.66   27.11
  -1   4  -7  293.11   23.37
   2  -4   7   61.32   18.13
  -2   4  -7   86.93   18.10
   3  -4   7   52.08   15.39
   3  -4   7   84.92   18.93
  -3   4  -7   56.46   16.77
   4  -4   7  201.11   21.93
  -4   4  -7  246.83   25.63
   4  -5  -7  171.80   24.30
  -4  -5   7  142.87   25.08
   4   5  -7  135.62   22.87
  -3  -5   7  206.11   26.39
   3  -5  -7  172.94   21.96
   3   5  -7  140.13   21.73
   2  -5  -7  577.78   31.90
  -2  -5   7  520.04   35.37
   2   5  -7  552.93   32.35
  -1  -5   7  170.84   24.39
   1   5  -7  180.22   20.40
   0  -5  -7  913.74   34.12
   0  -5   7  902.49   41.52
   0  -5  -7  851.73   34.20
   0   5  -7  859.78   36.28
   1  -5   7   61.60   19.20
  -1  -5  -7   17.73   13.85
  -1  -5  -7   34.69   14.57
  -1   5  -7   27.82   14.67
  -2  -5  -7  426.24   26.45
   2  -5   7  484.16   32.95
  -2   5  -7  432.71   30.36
   3  -5   7   10.03   15.71
  -3   5  -7   -9.05   15.09
  -4   5  -7   65.91   18.71
  -3  -6   7   26.60   19.27
   3  -6  -7   74.28   19.59
   3   6  -7   51.69   19.26
   2  -6  -7    6.04   15.49
  -2  -6   7   -9.04   16.27
   2   6  -7   -2.39   15.21
   1  -6  -7   17.14   15.61
  -1  -6   7    8.40   17.19
   1   6  -7    3.20   15.71
   0  -6  -7   22.61   15.54
   0  -6   7    8.07   18.57
   0   6  -7   10.66   15.24
  -1  -6  -7   -3.91   13.87
   1  -6   7   -9.02   17.10
  -1  -6  -7  -18.48   13.48
  -1   6  -7  -12.86   14.35
   2  -6   7   22.61   18.84
  -2  -6  -7  -10.58   13.70
  -2   6  -7   -2.95   15.23
   3  -6   7   33.95   18.54
  -3   6  -7   44.01   18.82
  -2  -7   7   19.49   20.38
   2  -7  -7   39.67   18.26
   2  -7  -7   20.66   17.37
   2   7  -7   55.29   18.84
   1  -7  -7   19.05   16.56
  -1  -7   7   21.09   20.38
   1  -7  -7   34.93   18.80
   1   7  -7   26.33   17.49
   0  -7  -7   57.81   17.96
   0  -7   7   39.61   21.48
   0   7  -7   62.64   19.81
  -1  -7  -7   24.87   16.20
   1  -7   7   41.65   21.85
  -1   7  -7   18.28   15.77
   2  -7   7   12.03   19.34
  -2   7  -7   15.83   17.14
   5   0  -8    0.86   14.88
   4   0  -8   -5.84   14.14
  -4   0   8   12.04   17.52
   4   0  -8   32.30   15.29
  -3   0   8   59.01   18.48
   3   0  -8   70.23   16.41
   3   0  -8   81.78   16.14
   3   0  -8   62.33   14.93
  -2   0   8  101.70   20.03
   2   0  -8  126.69   17.38
   2   0  -8  125.54   17.23
   1   0  -8  196.37   18.55
   1   0  -8  229.74   18.82
  -1   0   8  169.99   22.81
   0   0   8  388.45   29.82
   0   0  -8  360.66   23.05
   1   0   8    4.86   14.98
  -1   0  -8   20.70   11.05
   2   0   8  239.29   23.96
  -2   0  -8  258.84   20.16
  -3   0  -8   56.89   14.63
  -4   0  -8    4.16   12.43
   4  -1  -8  -23.23   12.62
  -4  -1   8   -0.97   16.77
   4  -1  -8  -14.51   13.91
   4   1  -8   -6.09   13.54
   3  -1  -8  170.95   20.85
   3  -1  -8  179.35   19.29
  -3  -1   8  186.36   26.08
   3  -1  -8  195.58   21.59
  -3   1   8  162.25   22.42
   3   1  -8  190.95   21.36
   2  -1  -8   71.89   13.98
  -2  -1   8   68.98   18.01
   2  -1  -8   60.33   15.41
   2  -1  -8   57.49   16.12
   2   1  -8   61.12   15.35
   2   1  -8   60.25   14.43
  -2   1   8   40.91   16.31
  -1  -1   8   87.97   20.13
   1  -1  -8   96.36   14.25
   1  -1  -8  128.54   17.57
   1   1  -8  110.28   16.10
  -1   1   8  110.00   20.42
   1   1  -8   95.29   16.07
   0  -1   8   99.18   20.02
   0  -1  -8  107.23   13.98
   0   1  -8  104.68   15.82
   0   1   8  119.27   19.63
   1  -1   8   14.42   14.53
  -1  -1  -8   11.75   10.20
  -1   1  -8   22.53   13.19
   1   1   8    3.79   13.94
   2  -1   8    9.55   14.26
  -2   1  -8    8.80   12.63
  -3   1  -8   39.47   14.55
  -4   1  -8   -8.30   13.19
  -4  -2   8  390.12   33.66
   4  -2  -8  365.41   26.57
   4  -2  -8  363.18   27.11
   4   2  -8  324.92   27.88
  -3  -2   8   86.69   22.62
   3  -2  -8   81.98   17.22
   3  -2  -8   92.81   14.79
   3   2  -8  113.48   19.83
  -2  -2   8  308.20   28.86
   2  -2  -8  318.77   24.62
   2  -2  -8  369.16   30.26
  -2   2   8  332.40   29.64
   2   2  -8  337.68   25.07
  -1  -2   8   38.11   18.18
   1  -2  -8   64.74   15.57
   1   2  -8   85.60   16.39
  -1   2   8   79.55   19.43
   0  -2   8  111.72   21.06
   0  -2  -8  113.09   17.51
   0   2  -8  114.43   16.86
   0   2   8  166.55   22.33
   1  -2   8   63.99   18.86
  -1   2  -8   32.70   14.13
   1   2   8   38.05   15.62
   2  -2   8  136.92   21.42
  -2   2  -8  153.87   19.31
  -3   2  -8  358.79   26.17
  -4   2  -8  386.31   27.92
   4  -3  -8    6.56   16.09
  -4  -3   8    4.54   19.51
   4   3  -8    3.52   16.91
   3  -3  -8  433.13   30.03
  -3  -3   8  400.26   33.77
   3   3  -8  397.65   29.80
   2  -3  -8   95.19   16.92
  -2  -3   8  103.20   22.34
   2   3  -8   84.22   17.91
  -1  -3   8  361.53   30.97
   1  -3  -8  349.62   26.60
   1   3  -8  389.01   27.74
   0  -3   8   63.37   18.75
   0  -3  -8   64.32   16.40
   0   3  -8   86.25   17.68
   1  -3   8  164.02   23.27
  -1   3  -8  168.63   20.46
   2  -3   8  -13.32   14.83
  -2   3  -8    5.31   14.10
  -3   3  -8  192.63   22.80
   4  -3   8    7.26   16.20
  -4   3  -8   23.98   16.59
   3  -4  -8   53.85   19.12
  -3  -4   8  104.51   23.54
   3   4  -8   97.11   20.23
  -2  -4   8   44.91   20.10
   2  -4  -8   71.12   18.21
   2   4  -8   26.44   16.25
  -1  -4   8   97.17   20.67
   1  -4  -8  127.58   19.47
   1   4  -8  162.03   21.50
   0  -4  -8  186.70   21.37
   0  -4   8  209.21   26.47
   0   4  -8  220.48   23.44
   1  -4   8  -10.04   15.66
  -1  -4  -8  -14.40   13.64
  -1   4  -8  -18.23   13.92
   2  -4   8   86.81   20.99
  -2   4  -8   93.57   19.79
   3  -4   8   55.57   19.44
  -3   4  -8   40.94   17.85
  -3  -5   8   18.51   20.16
   3  -5  -8   23.04   17.24
   3   5  -8   27.88   18.78
   2  -5  -8   37.38   18.71
  -2  -5   8   56.76   22.04
   2   5  -8   37.54   17.49
  -1  -5   8    5.22   18.27
   1  -5  -8  -16.63   13.69
   1   5  -8   -9.59   15.09
   0  -5  -8   51.86   18.40
   0  -5   8   74.15   19.97
   0   5  -8  133.07   22.05
   1  -5   8   10.43   17.87
  -1  -5  -8    1.92   15.33
  -1   5  -8   19.92   16.81
   2  -5   8   12.86   18.71
  -2   5  -8   17.41   16.93
  -1  -6   8   22.01   20.18
   1  -6  -8   11.14   17.67
   1   6  -8   27.40   17.43
   0  -6  -8   13.65   17.23
   0  -6   8  -28.06   16.97
   0   6  -8   31.79   18.27
   1  -6   8   25.98   19.80
  -1  -6  -8   48.33   19.37
  -1   6  -8    4.56   17.70
   3   0  -9   10.62   14.63
   3   0  -9   -5.33   14.76
  -3   0   9  -32.83   17.13
   2   0  -9   42.47   15.67
  -2   0   9   31.44   19.87
   2   0  -9   52.24   16.72
   1   0  -9   68.39   16.17
  -1   0   9   81.13   20.65
   1   0  -9   80.10   15.64
   0   0  -9   43.08   15.65
   0   0   9   -3.25   15.55
   0   0  -9   20.40   13.12
   1   0   9  449.39   33.66
  -1   0  -9  452.09   26.97
  -2   0  -9    6.84   12.67
  -3   0  -9  485.54   44.67
   3  -1  -9   76.29   16.61
   3  -1  -9   38.14   17.18
  -3  -1   9   15.13   19.56
   3   1  -9   60.04   17.80
  -3   1   9   39.07   20.81
   2  -1  -9    9.28   12.35
   2  -1  -9    4.09   14.37
  -2  -1   9   12.21   19.40
  -2   1   9   34.27   19.16
   2   1  -9   12.97   14.81
  -1  -1   9   11.02   18.63
   1  -1  -9   19.39   14.46
   1   1  -9   26.46   14.40
  -1   1   9   27.18   18.61
   1   1  -9   12.60   13.49
   0  -1   9  117.88   22.92
   0  -1  -9  122.98   19.49
   0   1  -9   97.86   17.80
   0   1  -9  125.85   18.50
   0   1   9  119.81   20.59
   1  -1   9   81.22   20.71
  -1   1  -9   83.13   16.04
   1   1   9   84.92   19.20
  -2   1  -9  165.13   20.23
  -2  -2   9   14.54   20.16
   2  -2  -9   -7.99   14.37
   2   2  -9   14.79   15.37
  -1  -2   9  223.36   28.82
   1  -2  -9  189.45   21.92
  -1   2   9  269.91   28.80
   1   2  -9  268.09   24.32
   0  -2  -9   84.83   17.57
   0  -2   9   46.66   19.51
   0   2  -9   49.06   16.46
   0   2   9   98.47   21.27
   1  -2   9   36.86   18.46
  -1   2  -9   44.31   15.86
   1   2   9   73.82   19.10
   2  -2   9  -17.35   15.37
  -2   2  -9   -2.21   14.59
   2  -3  -9    3.91   16.21
  -2  -3   9   14.69   19.69
   2   3  -9   42.77   17.68
   1  -3  -9  -18.15   15.19
  -1  -3   9   18.64   20.02
   1   3  -9   27.27   16.87
   0  -3  -9   30.87   16.33
   0  -3   9  -15.29   17.25
   0   3  -9   15.66   15.41
  -1  -3  -9   53.88   18.10
   1  -3   9    0.77   18.56
  -1   3  -9   65.54   18.69
   2  -3   9    9.38   19.06
  -2   3  -9   26.14   16.86
   0  -4  -9   42.33   18.29
   0  -4   9   27.23   21.08
   0   4  -9   12.91   16.16
   0   0   0    0.00    0.00


 _exptl_absorpt_process_details
)
 SADABS 2016/2: Krause, L., Herbst-Irmer, R., Sheldrick G.M. & Stalke D.,
 J. Appl. Cryst. 48 (2015) 3-10
)
 _exptl_absorpt_correction_type   multi-scan
 _exptl_absorpt_correction_T_max  0.7460
 _exptl_absorpt_correction_T_min  0.7001
 _exptl_special_details
)
 The following wavelength and cell were deduced by SADABS from the
 direction cosines etc. They are given here for emergency use only:
 CELL 0.71075    6.116    7.802    6.887   90.001   91.125   89.974
)

_computing_structure_solution     'SHELXT 2014/5 (Sheldrick, 2014)'
;
_shelx_hkl_checksum              4006
loop_
_space_group_symop_operation_xyz
'x, y, z'
'-x, y+1/2, -z'
'-x, -y, -z'
'x, -y-1/2, z'
loop_
_atom_site_label
_atom_site_type_symbol
_atom_site_fract_x
_atom_site_fract_y
_atom_site_fract_z
_atom_site_U_iso_or_equiv
_atom_site_adp_type
_atom_site_occupancy
_atom_site_site_symmetry_order
_atom_site_calc_flag
_atom_site_refinement_flags_posn
_atom_site_refinement_flags_adp
_atom_site_refinement_flags_occupancy
Si1 Si 0.3557(2) 0.250000 0.67385(17) 0.0120(3) Uani 0.8 2 d S T P
P1 P 0.3557(2) 0.250000 0.67385(17) 0.0120(3) Uani 0.2 2 d S T P
S1 S 0.23904(14) 0.47431(12) 0.80985(12) 0.0172(2) Uani 1 1 d . . .
S2 S 0.23235(19) 0.250000 0.38059(16) 0.0141(3) Uani 1 2 d S T P
S3 S 0.70126(19) 0.250000 0.67884(17) 0.0171(3) Uani 1 2 d S T P
Li1 Li 0.647(2) 0.250000 0.3296(15) 0.038(5) Uani 0.94(5) 2 d S T .
Li2 Li 0.000000 0.000000 0.500000 0.060(7) Uani 0.90(6) 2 d S . .
Li3 Li 0.662(3) -0.0157(19) 0.8512(19) 0.030(6) Uani 0.51(4) 1 d . . .
Li4 Li 0.818(4) -0.009(2) 0.846(2) 0.035(7) Uani 0.48(4) 1 d . . .
loop_
_atom_site_aniso_label
_atom_site_aniso_U_11
_atom_site_aniso_U_22
_atom_site_aniso_U_33
_atom_site_aniso_U_23
_atom_site_aniso_U_13
_atom_site_aniso_U_12
Si1 0.0126(6) 0.0122(6) 0.0112(6) 0.000 -0.0010(4) 0.000
P1 0.0126(6) 0.0122(6) 0.0112(6) 0.000 -0.0010(4) 0.000
S1 0.0213(4) 0.0149(5) 0.0153(4) -0.0032(3) 0.0009(3) 0.0013(3)
S2 0.0160(6) 0.0137(6) 0.0125(5) 0.000 -0.0020(4) 0.000
S3 0.0131(5) 0.0162(6) 0.0219(6) 0.000 -0.0025(4) 0.000
Li1 0.063(9) 0.028(7) 0.025(6) 0.000 0.020(5) 0.000
Li2 0.058(10) 0.068(12) 0.051(10) 0.030(8) -0.036(7) -0.043(8)
Li3 0.036(13) 0.030(9) 0.024(7) 0.003(6) 0.000(6) 0.010(7)
Li4 0.043(15) 0.041(11) 0.022(8) 0.007(6) 0.008(7) -0.004(8)
loop_
_atom_type_symbol
_atom_type_description
_atom_type_scat_dispersion_real
_atom_type_scat_dispersion_imag
_atom_type_scat_source
Li Li -0.0003 0.0001 'International Tables Vol C Tables 4.2.6.8 and 6.1.1.4'
P P 0.1023 0.0942 'International Tables Vol C Tables 4.2.6.8 and 6.1.1.4'
S S 0.1246 0.1234 'International Tables Vol C Tables 4.2.6.8 and 6.1.1.4'
Si Si 0.0817 0.0704 'International Tables Vol C Tables 4.2.6.8 and 6.1.1.4'
loop_
_geom_angle_atom_site_label_1
_geom_angle_atom_site_label_2
_geom_angle_atom_site_label_3
_geom_angle
_geom_angle_site_symmetry_1
_geom_angle_site_symmetry_3
S1 Si1 S1 111.54(7) 4_565 .
S1 Si1 S3 109.83(5) 4_565 .
S1 Si1 S3 109.83(5) . .
S1 Si1 S2 107.59(5) 4_565 .
S1 Si1 S2 107.59(5) . .
S3 Si1 S2 110.40(7) . .
S1 Si1 Li1 124.23(4) 4_565 .
S1 Si1 Li1 124.23(4) . .
S3 Si1 Li1 53.3(3) . .
S2 Si1 Li1 57.1(3) . .
S1 Si1 Li3 126.7(3) 4_565 4_565
S1 Si1 Li3 57.9(4) . 4_565
S3 Si1 Li3 52.0(4) . 4_565
S2 Si1 Li3 125.7(3) . 4_565
Li1 Si1 Li3 86.9(4) . 4_565
S1 Si1 Li3 57.9(4) 4_565 .
S1 Si1 Li3 126.7(3) . .
S3 Si1 Li3 52.0(4) . .
S2 Si1 Li3 125.7(3) . .
Li1 Si1 Li3 86.9(4) . .
Li3 Si1 Li3 86.1(7) 4_565 .
S1 Si1 Li2 54.45(4) 4_565 .
S1 Si1 Li2 116.38(6) . .
S3 Si1 Li2 133.75(4) . .
S2 Si1 Li2 53.99(3) . .
Li1 Si1 Li2 96.7(2) . .
Li3 Si1 Li2 174.3(4) 4_565 .
Li3 Si1 Li2 98.5(3) . .
S1 Si1 Li2 116.38(6) 4_565 2_556
S1 Si1 Li2 54.45(4) . 2_556
S3 Si1 Li2 133.75(4) . 2_556
S2 Si1 Li2 53.99(3) . 2_556
Li1 Si1 Li2 96.7(2) . 2_556
Li3 Si1 Li2 98.5(3) 4_565 2_556
Li3 Si1 Li2 174.3(4) . 2_556
Li2 Si1 Li2 76.68(4) . 2_556
Si1 S1 Li3 112.1(4) . 2_657
Si1 S1 Li4 122.6(4) . 2_657
Li3 S1 Li4 22.9(5) 2_657 2_657
Si1 S1 Li1 116.6(2) . 3_666
Li3 S1 Li1 106.4(4) 2_657 3_666
Li4 S1 Li1 112.6(5) 2_657 3_666
Si1 S1 Li2 83.57(5) . 2_556
Li3 S1 Li2 158.9(5) 2_657 2_556
Li4 S1 Li2 136.3(6) 2_657 2_556
Li1 S1 Li2 76.7(3) 3_666 2_556
Si1 S1 Li4 118.1(4) . 4_465
Li3 S1 Li4 97.7(6) 2_657 4_465
Li4 S1 Li4 74.8(8) 2_657 4_465
Li1 S1 Li4 103.7(5) 3_666 4_465
Li2 S1 Li4 61.6(3) 2_556 4_465
Si1 S1 Li3 78.9(3) . 4_565
Li3 S1 Li3 70.2(6) 2_657 4_565
Li4 S1 Li3 92.7(7) 2_657 4_565
Li1 S1 Li3 69.3(5) 3_666 4_565
Li2 S1 Li3 128.7(3) 2_556 4_565
Li4 S1 Li3 162.4(4) 4_465 4_565
Si1 S2 Li4 129.5(4) . 3_656
Si1 S2 Li4 129.5(4) . 2_656
Li4 S2 Li4 99.7(7) 3_656 2_656
Si1 S2 Li3 120.5(3) . 3_656
Li4 S2 Li3 22.1(5) 3_656 3_656
Li4 S2 Li3 100.4(5) 2_656 3_656
Si1 S2 Li3 120.5(3) . 2_656
Li4 S2 Li3 100.4(5) 3_656 2_656
Li4 S2 Li3 22.1(5) 2_656 2_656
Li3 S2 Li3 92.9(7) 3_656 2_656
Si1 S2 Li2 83.36(4) . .
Li4 S2 Li2 63.9(4) 3_656 .
Li4 S2 Li2 136.4(6) 2_656 .
Li3 S2 Li2 78.7(4) 3_656 .
Li3 S2 Li2 155.2(4) 2_656 .
Si1 S2 Li2 83.36(4) . 2_556
Li4 S2 Li2 136.4(6) 3_656 2_556
Li4 S2 Li2 63.9(4) 2_656 2_556
Li3 S2 Li2 155.2(4) 3_656 2_556
Li3 S2 Li2 78.7(4) 2_656 2_556
Li2 S2 Li2 99.23(5) . 2_556
Si1 S2 Li1 78.4(3) . .
Li4 S2 Li1 91.3(6) 3_656 .
Li4 S2 Li1 91.3(6) 2_656 .
Li3 S2 Li1 69.3(5) 3_656 .
Li3 S2 Li1 69.3(5) 2_656 .
Li2 S2 Li1 126.95(8) . .
Li2 S2 Li1 126.95(8) 2_556 .
Si1 S3 Li3 84.1(5) . 4_565
Si1 S3 Li3 84.1(5) . .
Li3 S3 Li3 119.1(7) 4_565 .
Si1 S3 Li1 82.3(3) . .
Li3 S3 Li1 118.5(4) 4_565 .
Li3 S3 Li1 118.5(4) . .
Si1 S3 Li4 107.0(5) . 4_565
Li3 S3 Li4 22.8(5) 4_565 4_565
Li3 S3 Li4 120.9(5) . 4_565
Li1 S3 Li4 120.4(4) . 4_565
Si1 S3 Li4 107.0(5) . .
Li3 S3 Li4 120.9(5) 4_565 .
Li3 S3 Li4 22.8(5) . .
Li1 S3 Li4 120.4(4) . .
Li4 S3 Li4 112.7(9) 4_565 .
Si1 S3 Li2 128.30(4) . 2_656
Li3 S3 Li2 73.0(4) 4_565 2_656
Li3 S3 Li2 147.5(5) . 2_656
Li1 S3 Li2 70.1(2) . 2_656
Li4 S3 Li2 58.1(4) 4_565 2_656
Li4 S3 Li2 124.6(5) . 2_656
Si1 S3 Li2 128.30(4) . 1_655
Li3 S3 Li2 147.5(5) 4_565 1_655
Li3 S3 Li2 73.0(4) . 1_655
Li1 S3 Li2 70.1(2) . 1_655
Li4 S3 Li2 124.6(5) 4_565 1_655
Li4 S3 Li2 58.1(4) . 1_655
Li2 S3 Li2 82.40(4) 2_656 1_655
S3 Li1 S1 110.7(3) . 2_646
S3 Li1 S1 110.7(3) . 3_666
S1 Li1 S1 121.6(4) 2_646 3_666
S3 Li1 S2 88.9(3) . .
S1 Li1 S2 110.0(3) 2_646 .
S1 Li1 S2 110.0(3) 3_666 .
S3 Li1 Li3 120.3(4) . 3_656
S1 Li1 Li3 57.9(4) 2_646 3_656
S1 Li1 Li3 124.9(5) 3_666 3_656
S2 Li1 Li3 54.6(4) . 3_656
S3 Li1 Li3 120.3(4) . 2_656
S1 Li1 Li3 124.9(5) 2_646 2_656
S1 Li1 Li3 57.9(4) 3_666 2_656
S2 Li1 Li3 54.6(4) . 2_656
Li3 Li1 Li3 78.3(7) 3_656 2_656
S3 Li1 Si1 44.41(17) . .
S1 Li1 Si1 119.2(2) 2_646 .
S1 Li1 Si1 119.2(2) 3_666 .
S2 Li1 Si1 44.50(17) . .
Li3 Li1 Si1 87.0(5) 3_656 .
Li3 Li1 Si1 87.0(5) 2_656 .
S3 Li1 Li2 63.0(3) . 2_656
S1 Li1 Li2 119.4(5) 2_646 2_656
S1 Li1 Li2 53.27(18) 3_666 2_656
S2 Li1 Li2 128.8(2) . 2_656
Li3 Li1 Li2 176.1(5) 3_656 2_656
Li3 Li1 Li2 102.1(3) 2_656 2_656
Si1 Li1 Li2 96.9(3) . 2_656
S3 Li1 Li2 63.0(3) . 1_655
S1 Li1 Li2 53.27(18) 2_646 1_655
S1 Li1 Li2 119.4(5) 3_666 1_655
S2 Li1 Li2 128.8(2) . 1_655
Li3 Li1 Li2 102.1(3) 3_656 1_655
Li3 Li1 Li2 176.1(5) 2_656 1_655
Si1 Li1 Li2 96.9(3) . 1_655
Li2 Li1 Li2 77.2(3) 2_656 1_655
S2 Li2 S2 180.0 . 3_556
S2 Li2 S1 84.09(4) . 4_565
S2 Li2 S1 95.91(4) 3_556 4_565
S2 Li2 S1 95.91(4) . 2_546
S2 Li2 S1 84.09(4) 3_556 2_546
S1 Li2 S1 180.0 4_565 2_546
S2 Li2 Li4 56.3(4) . 3_656
S2 Li2 Li4 123.7(4) 3_556 3_656
S1 Li2 Li4 120.1(5) 4_565 3_656
S1 Li2 Li4 59.9(5) 2_546 3_656
S2 Li2 Li4 123.7(4) . 1_455
S2 Li2 Li4 56.3(4) 3_556 1_455
S1 Li2 Li4 59.9(5) 4_565 1_455
S1 Li2 Li4 120.1(5) 2_546 1_455
Li4 Li2 Li4 180.0 3_656 1_455
S2 Li2 S3 90.88(4) . 3_656
S2 Li2 S3 89.12(4) 3_556 3_656
S1 Li2 S3 92.92(4) 4_565 3_656
S1 Li2 S3 87.08(4) 2_546 3_656
Li4 Li2 S3 50.8(4) 3_656 3_656
Li4 Li2 S3 129.2(4) 1_455 3_656
S2 Li2 S3 89.12(4) . 1_455
S2 Li2 S3 90.88(4) 3_556 1_455
S1 Li2 S3 87.08(4) 4_565 1_455
S1 Li2 S3 92.92(4) 2_546 1_455
Li4 Li2 S3 129.2(4) 3_656 1_455
Li4 Li2 S3 50.8(4) 1_455 1_455
S3 Li2 S3 180.0 3_656 1_455
S2 Li2 Li1 102.17(17) . 3_656
S2 Li2 Li1 77.83(17) 3_556 3_656
S1 Li2 Li1 50.07(17) 4_565 3_656
S1 Li2 Li1 129.93(17) 2_546 3_656
Li4 Li2 Li1 93.1(5) 3_656 3_656
Li4 Li2 Li1 86.9(5) 1_455 3_656
S3 Li2 Li1 46.87(18) 3_656 3_656
S3 Li2 Li1 133.13(18) 1_455 3_656
S2 Li2 Li1 77.83(17) . 1_455
S2 Li2 Li1 102.17(17) 3_556 1_455
S1 Li2 Li1 129.93(17) 4_565 1_455
S1 Li2 Li1 50.07(17) 2_546 1_455
Li4 Li2 Li1 86.9(5) 3_656 1_455
Li4 Li2 Li1 93.1(5) 1_455 1_455
S3 Li2 Li1 133.13(18) 3_656 1_455
S3 Li2 Li1 46.87(18) 1_455 1_455
Li1 Li2 Li1 180.0(4) 3_656 1_455
S2 Li2 Si1 137.34(4) . 3_556
S2 Li2 Si1 42.66(4) 3_556 3_556
S1 Li2 Si1 138.02(3) 4_565 3_556
S1 Li2 Si1 41.98(3) 2_546 3_556
Li4 Li2 Si1 88.5(4) 3_656 3_556
Li4 Li2 Si1 91.5(4) 1_455 3_556
S3 Li2 Si1 82.07(4) 3_656 3_556
S3 Li2 Si1 97.93(4) 1_455 3_556
Li1 Li2 Si1 103.05(17) 3_656 3_556
Li1 Li2 Si1 76.95(17) 1_455 3_556
S2 Li2 Si1 42.66(4) . .
S2 Li2 Si1 137.34(4) 3_556 .
S1 Li2 Si1 41.98(3) 4_565 .
S1 Li2 Si1 138.02(3) 2_546 .
Li4 Li2 Si1 91.5(4) 3_656 .
Li4 Li2 Si1 88.5(4) 1_455 .
S3 Li2 Si1 97.93(4) 3_656 .
S3 Li2 Si1 82.07(4) 1_455 .
Li1 Li2 Si1 76.95(16) 3_656 .
Li1 Li2 Si1 103.05(17) 1_455 .
Si1 Li2 Si1 180.0 3_556 .
Li4 Li3 S3 79.9(15) . .
Li4 Li3 S1 78.7(13) . 2_647
S3 Li3 S1 118.9(7) . 2_647
Li4 Li3 S2 75.5(13) . 3_656
S3 Li3 S2 106.4(5) . 3_656
S1 Li3 S2 122.0(6) 2_647 3_656
Li4 Li3 S1 166.8(16) . 4_565
S3 Li3 S1 87.1(5) . 4_565
S1 Li3 S1 109.8(6) 2_647 4_565
S2 Li3 S1 106.6(6) 3_656 4_565
Li4 Li3 Li3 135.9(17) . 3_657
S3 Li3 Li3 110.8(8) . 3_657
S1 Li3 Li3 58.4(5) 2_647 3_657
S2 Li3 Li3 134.4(10) 3_656 3_657
S1 Li3 Li3 51.4(6) 4_565 3_657
Li4 Li3 Li1 131.6(15) . 3_656
S3 Li3 Li1 113.7(6) . 3_656
S1 Li3 Li1 123.3(7) 2_647 3_656
S2 Li3 Li1 56.2(4) 3_656 3_656
S1 Li3 Li1 52.8(4) 4_565 3_656
Li3 Li3 Li1 84.7(9) 3_657 3_656
Li4 Li3 Si1 123.8(16) . .
S3 Li3 Si1 43.9(2) . .
S1 Li3 Si1 123.8(6) 2_647 .
S2 Li3 Si1 113.8(5) 3_656 .
S1 Li3 Si1 43.2(3) 4_565 .
Li3 Li3 Si1 78.5(7) 3_657 .
Li1 Li3 Si1 82.2(5) 3_656 .
Li4 Li3 Li2 46.7(12) . 1_655
S3 Li3 Li2 61.5(4) . 1_655
S1 Li3 Li2 125.4(7) 2_647 1_655
S2 Li3 Li2 51.2(3) 3_656 1_655
S1 Li3 Li2 124.3(5) 4_565 1_655
Li3 Li3 Li2 172.2(8) 3_657 1_655
Li1 Li3 Li2 97.2(4) 3_656 1_655
Si1 Li3 Li2 94.2(4) . 1_655
Li3 Li4 S1 78.4(12) . 2_647
Li3 Li4 S3 77.3(15) . .
S1 Li4 S3 117.9(8) 2_647 .
Li3 Li4 S2 82.4(14) . 3_656
S1 Li4 S2 124.5(7) 2_647 3_656
S3 Li4 S2 107.6(6) . 3_656
Li3 Li4 S1 175.6(16) . 4_665
S1 Li4 S1 105.2(8) 2_647 4_665
S3 Li4 S1 98.6(6) . 4_665
S2 Li4 S1 97.3(7) 3_656 4_665
Li3 Li4 Li2 118.1(15) . 1_655
S1 Li4 Li2 163.3(11) 2_647 1_655
S3 Li4 Li2 71.1(4) . 1_655
S2 Li4 Li2 59.9(4) 3_656 1_655
S1 Li4 Li2 58.5(4) 4_665 1_655
Li3 Li4 Li4 134.0(16) . 3_757
S1 Li4 Li4 55.7(5) 2_647 3_757
S3 Li4 Li4 119.8(10) . 3_757
S2 Li4 Li4 123.7(11) 3_656 3_757
S1 Li4 Li4 49.5(7) 4_665 3_757
Li2 Li4 Li4 107.9(11) 1_655 3_757
loop_
_geom_bond_atom_site_label_1
_geom_bond_atom_site_label_2
_geom_bond_distance
_geom_bond_site_symmetry_2
Si1 S1 2.1111(12) 4_565
Si1 S1 2.1111(12) .
Si1 S3 2.1118(19) .
Si1 S2 2.1396(18) .
Si1 Li1 2.990(10) .
Si1 Li3 3.029(15) 4_565
Si1 Li3 3.029(15) .
Si1 Li2 3.1362(12) .
Si1 Li2 3.1362(13) 2_556
S1 Li3 2.399(14) 2_657
S1 Li4 2.401(15) 2_657
S1 Li1 2.457(5) 3_666
S1 Li2 2.5679(12) 2_556
S1 Li4 2.61(2) 4_465
S1 Li3 2.61(2) 4_565
S2 Li4 2.456(17) 3_656
S2 Li4 2.456(17) 2_656
S2 Li3 2.515(14) 3_656
S2 Li3 2.515(14) 2_656
S2 Li2 2.5539(10) .
S2 Li2 2.5539(10) 2_556
S2 Li1 2.564(13) .
S3 Li3 2.398(15) 4_565
S3 Li3 2.398(15) .
S3 Li1 2.419(11) .
S3 Li4 2.420(18) 4_565
S3 Li4 2.420(18) .
S3 Li2 2.9533(11) 2_656
S3 Li2 2.9533(11) 1_655
Li1 Li3 2.89(2) 3_656
Li1 Li3 2.89(2) 2_656
Li1 Li2 3.118(11) 2_656
Li1 Li2 3.118(11) 1_655
Li2 Li4 2.651(16) 3_656
Li2 Li4 2.651(16) 1_455
Li3 Li4 0.95(2) .
Li3 Li3 2.89(3) 3_657
Li4 Li4 3.05(4) 3_757
