#------------------------------------------------------------------------------
#$Date: 2019-10-29 22:53:04 +0200 (Tue, 29 Oct 2019) $
#$Revision: 220374 $
#$URL: file:///home/coder/svn-repositories/cod/cif/4/00/29/4002950.cif $
#------------------------------------------------------------------------------
#
# This file is available in the Crystallography Open Database (COD),
# http://www.crystallography.net/
#
# All data on this site have been placed in the public domain by the
# contributors.
#
data_4002950
loop_
_publ_author_name
'Gouget, Guillaume'
'Duttine, Mathieu'
'Chung, U-Chan'
'Fourcade, S\'ebastien'
'Mauvy, Fabrice'
'Braida, Marc-David'
'Le Mercier, Thierry'
'Demourgues, Alain'
_publ_section_title
;
 High Ionic Conductivity in Oxygen-Deficient Ti-Substituted Sodium
 Niobates and the Key Role of Structural Features
;
_journal_issue                   8
_journal_name_full               'Chemistry of Materials'
_journal_page_first              2828
_journal_paper_doi               10.1021/acs.chemmater.8b05292
_journal_volume                  31
_journal_year                    2019
_chemical_formula_sum            'Na Nb0.9 O2.95 Ti0.1'
_chemical_formula_weight         158.6
_space_group_IT_number           26
_space_group_name_Hall           'P -2a 2a'
_space_group_name_H-M_alt        'P 21 m a'
_symmetry_cell_setting           orthorhombic
_symmetry_Int_Tables_number      26
_symmetry_space_group_name_Hall  'P -2a 2a'
_symmetry_space_group_name_H-M   'P 21 m a'
_cell_angle_alpha                90
_cell_angle_beta                 90
_cell_angle_gamma                90
_cell_formula_units_Z            4
_cell_length_a                   5.5342(3)
_cell_length_b                   7.7926(3)
_cell_length_c                   5.5182(3)
_cell_measurement_temperature    373
_cell_volume                     237.98(2)
_diffrn_ambient_temperature      373
_diffrn_radiation_probe          x-ray
_diffrn_radiation_wavelength     1.790276
_exptl_absorpt_coefficient_mu    59.586
_exptl_crystal_density_diffrn    4.4264
_exptl_crystal_F_000             295
_pd_instr_location               ' ?'
_pd_meas_2theta_range_inc        0.017
_pd_meas_2theta_range_max        74.987
_pd_meas_2theta_range_min        15.011
_pd_meas_number_of_points        3529
_pd_proc_2theta_range_inc        0.017
_pd_proc_2theta_range_max        74.987
_pd_proc_2theta_range_min        15.011
_pd_proc_ls_background_function  '6 Legendre polynoms'
_pd_proc_ls_pref_orient_corr     none
_pd_proc_ls_profile_function     Pseudo-Voigt
_pd_proc_ls_prof_R_factor        0.0296
_pd_proc_ls_prof_wR_expected     0.0174
_pd_proc_ls_prof_wR_factor       0.0408
_refine_ls_goodness_of_fit_all   2.35
_refine_ls_number_constraints    1
_refine_ls_number_parameters     34
_refine_ls_number_restraints     0
_refine_ls_R_factor_all          0.0298
_refine_ls_R_factor_gt           0.0223
_refine_ls_shift/su_max          0.0752
_refine_ls_shift/su_mean         0.0125
_refine_ls_weighting_scheme      sigma
_refine_ls_wR_factor_all         0.0386
_refine_ls_wR_factor_gt          0.0367
_cod_data_source_file            cm8b05292_si_002.cif
_cod_data_source_block           I
_cod_depositor_comments
;
The following automatic conversions were performed:

'_diffrn_radiation_probe' value 'X-ray' changed to 'x-ray' according
to
/home/data/users/saulius/crontab/automatic-downloads/current/ACS/lib/dictionaries/cif_core.dic
dictionary named 'cif_core.dic' version 2.4.2 from 2011-04-26.

Automatic conversion script
Id: cif_fix_values 4973 2017-02-22 13:04:09Z antanas 
;
_cod_original_sg_symbol_Hall     'P 2xa;-2y;-2za'
_cod_original_formula_sum        'Na1 Nb0.9 O2.95 Ti0.1'
_cod_database_code               4002950
loop_
_space_group_symop_id
_space_group_symop_operation_xyz
1 x,y,z
2 x+1/2,-y,-z
3 x+1/2,y,-z
4 x,-y,z
loop_
_atom_site_label
_atom_site_type_symbol
_atom_site_fract_x
_atom_site_fract_y
_atom_site_fract_z
_atom_site_adp_type
_atom_site_U_iso_or_equiv
_atom_site_site_symmetry_multiplicity
_atom_site_occupancy
_atom_site_calc_flag
Nb1 Nb 0.2584(5) 0.250(4) 0.251(8) Uiso 0.0063 4 0.9 d
Ti1 Ti 0.2584(5) 0.250(4) 0.251(8) Uiso 0.0063 4 0.1 d
Na1 Na 0.279(6) 0 0.757(13) Uiso 0.0127 2 1 d
Na2 Na 0.284(5) 0.5 0.753(14) Uiso 0.0127 2 1 d
O1 O 0.331(8) 0 0.34(3) Uiso 0.0127 2 0.9667 d
O2 O 0.261(15) 0.5 0.17(2) Uiso 0.0127 2 1 d
O3 O 0.015(10) 0.261(13) 0.51(2) Uiso 0.0127 4 0.9667 d
O4 O -0.030(8) 0.237(11) 0.039(12) Uiso 0.0127 4 1 d
loop_
_atom_type_symbol
_atom_type_scat_dispersion_real
_atom_type_scat_dispersion_imag
_atom_type_scat_source
Na 0.1670 0.1667 'International Tables Vol C tables 4.2.6.8 and 6.1.1.1'
Nb 0.0496 3.2133 'International Tables Vol C tables 4.2.6.8 and 6.1.1.1'
O 0.0630 0.0440 'International Tables Vol C tables 4.2.6.8 and 6.1.1.1'
Ti -0.0617 2.3213 'International Tables Vol C tables 4.2.6.8 and 6.1.1.1'
loop_
_geom_bond_atom_site_label_1
_geom_bond_atom_site_label_2
_geom_bond_site_symmetry_2
_geom_bond_distance
Nb1 Ti1 . 0
Nb1 O1 . 2.04(3)
Nb1 O2 . 1.99(3)
Nb1 O3 . 1.97(10)
Nb1 O3 3_556 1.94(9)
Nb1 O4 . 1.98(6)
Nb1 O4 3_555 1.99(7)
Ti1 O1 . 2.04(3)
Ti1 O2 . 1.99(3)
Ti1 O3 . 1.97(10)
Ti1 O3 3_556 1.94(9)
Ti1 O4 . 1.98(6)
Ti1 O4 3_555 1.99(7)
Na1 O1 . 2.34(15)
Na1 O4 2_556 2.41(8)
Na1 O4 3_556 2.41(8)
Na2 O2 1_556 2.32(15)
O1 O3 2_556 2.43(11)
O1 O3 3_556 2.43(11)
loop_
_pd_proc_point_id
_pd_proc_2theta_corrected
_pd_proc_intensity_net
_pd_calc_intensity_net
_pd_proc_ls_weight
1 15.0180 1996.00 1961.73 44.68
2 15.0350 2080.00 1964.11 45.61
3 15.0520 2133.00 1966.49 46.18
4 15.0690 2074.00 1968.86 45.54
5 15.0860 2083.00 1971.22 45.64
6 15.1030 2090.00 1973.58 45.72
7 15.1200 2043.00 1975.94 45.20
8 15.1370 2066.00 1978.29 45.45
9 15.1540 2081.00 1980.63 45.62
10 15.1710 2114.00 1982.97 45.98
11 15.1880 2066.00 1985.30 45.45
12 15.2050 2114.00 1987.63 45.98
13 15.2220 2159.00 1989.96 46.47
14 15.2390 2145.00 1992.28 46.31
15 15.2560 2059.00 1994.59 45.38
16 15.2730 2062.00 1996.90 45.41
17 15.2900 2114.00 1999.20 45.98
18 15.3070 2084.00 2001.50 45.65
19 15.3240 2088.00 2003.80 45.69
20 15.3410 2115.00 2006.08 45.99
21 15.3580 2160.00 2008.37 46.48
22 15.3750 2039.00 2010.65 45.16
23 15.3920 2115.00 2012.92 45.99
24 15.4090 2057.00 2015.19 45.35
25 15.4260 2053.00 2017.46 45.31
26 15.4430 2080.00 2019.71 45.61
27 15.4600 2096.00 2021.97 45.78
28 15.4770 2076.00 2024.22 45.56
29 15.4940 2091.00 2026.46 45.73
30 15.5110 2095.00 2028.70 45.77
31 15.5280 2158.00 2030.94 46.45
32 15.5450 2074.00 2033.17 45.54
33 15.5620 2139.00 2035.39 46.25
34 15.5790 2160.00 2037.61 46.48
35 15.5960 2066.00 2039.83 45.45
36 15.6130 2025.00 2042.04 45.00
37 15.6300 2142.00 2044.24 46.28
38 15.6470 2141.00 2046.44 46.27
39 15.6640 2104.00 2048.64 45.87
40 15.6810 2023.00 2050.83 44.98
41 15.6980 2072.00 2053.02 45.52
42 15.7150 2154.00 2055.20 46.41
43 15.7320 2034.00 2057.38 45.10
44 15.7490 2072.00 2059.55 45.52
45 15.7660 2032.00 2061.71 45.08
46 15.7830 2032.00 2063.88 45.08
47 15.8000 2039.00 2066.03 45.16
48 15.8170 2129.00 2068.19 46.14
49 15.8340 2080.00 2070.33 45.61
50 15.8510 2064.00 2072.48 45.43
51 15.8680 2109.00 2074.61 45.92
52 15.8850 2139.00 2076.75 46.25
53 15.9020 2238.00 2078.88 47.31
54 15.9190 2075.00 2081.00 45.55
55 15.9360 2154.00 2083.12 46.41
56 15.9530 2151.00 2085.24 46.38
57 15.9700 2087.00 2087.35 45.68
58 15.9870 2150.00 2089.45 46.37
59 16.0040 2163.00 2091.55 46.51
60 16.0210 2136.00 2093.65 46.22
61 16.0380 2151.00 2095.74 46.38
62 16.0550 2170.00 2097.82 46.58
63 16.0720 2149.00 2099.91 46.36
64 16.0890 2119.00 2101.98 46.03
65 16.1060 2145.00 2104.05 46.31
66 16.1230 2162.00 2106.12 46.50
67 16.1400 2079.00 2108.19 45.60
68 16.1570 2101.00 2110.24 45.84
69 16.1740 2049.00 2112.30 45.27
70 16.1910 2218.00 2114.35 47.10
71 16.2080 2152.00 2116.39 46.39
72 16.2250 2178.00 2118.43 46.67
73 16.2420 2256.00 2120.47 47.50
74 16.2590 2187.00 2122.50 46.77
75 16.2760 2134.00 2124.52 46.20
76 16.2930 2199.00 2126.54 46.89
77 16.3100 2243.00 2128.56 47.36
78 16.3270 2130.00 2130.57 46.15
79 16.3440 2144.00 2132.58 46.30
80 16.3610 2093.00 2134.58 45.75
81 16.3780 2102.00 2136.58 45.85
82 16.3950 2297.00 2138.58 47.93
83 16.4120 2281.00 2140.57 47.76
84 16.4290 2173.00 2142.55 46.62
85 16.4460 2233.00 2144.53 47.25
86 16.4630 2122.00 2146.51 46.07
87 16.4800 2102.00 2148.48 45.85
88 16.4970 2105.00 2150.45 45.88
89 16.5140 2108.00 2152.41 45.91
90 16.5310 2219.00 2154.37 47.11
91 16.5480 2234.00 2156.32 47.27
92 16.5650 2154.00 2158.27 46.41
93 16.5820 2255.00 2160.21 47.49
94 16.5990 2181.00 2162.15 46.70
95 16.6160 2132.00 2164.09 46.17
96 16.6330 2112.00 2166.02 45.96
97 16.6500 2222.00 2167.95 47.14
98 16.6670 2175.00 2169.87 46.64
99 16.6840 2188.00 2171.79 46.78
100 16.7010 2168.00 2173.70 46.56
101 16.7180 2036.00 2175.61 45.12
102 16.7350 2168.00 2177.51 46.56
103 16.7520 2182.00 2179.41 46.71
104 16.7690 2178.00 2181.31 46.67
105 16.7860 2137.00 2183.20 46.23
106 16.8030 2272.00 2185.09 47.67
107 16.8200 2198.00 2186.97 46.88
108 16.8370 2176.00 2188.85 46.65
109 16.8540 2194.00 2190.72 46.84
110 16.8710 2212.00 2192.59 47.03
111 16.8880 2186.00 2194.46 46.75
112 16.9050 2201.00 2196.32 46.91
113 16.9220 2169.00 2198.17 46.57
114 16.9390 2168.00 2200.03 46.56
115 16.9560 2213.00 2201.87 47.04
116 16.9730 2270.00 2203.72 47.64
117 16.9900 2224.00 2205.56 47.16
118 17.0070 2223.00 2207.39 47.15
119 17.0240 2209.00 2209.22 47.00
120 17.0410 2115.00 2211.05 45.99
121 17.0580 2110.00 2212.87 45.93
122 17.0750 2321.00 2214.69 48.18
123 17.0920 2276.00 2216.50 47.71
124 17.1090 2227.00 2218.31 47.19
125 17.1260 2224.00 2220.11 47.16
126 17.1430 2210.00 2221.91 47.01
127 17.1600 2209.00 2223.71 47.00
128 17.1770 2152.00 2225.50 46.39
129 17.1940 2260.00 2227.29 47.54
130 17.2110 2249.00 2229.07 47.42
131 17.2280 2129.00 2230.85 46.14
132 17.2450 2139.00 2232.63 46.25
133 17.2620 2237.00 2234.40 47.30
134 17.2790 2204.00 2236.17 46.95
135 17.2960 2215.00 2237.93 47.06
136 17.3130 2286.00 2239.69 47.81
137 17.3300 2143.00 2241.44 46.29
138 17.3470 2224.00 2243.19 47.16
139 17.3640 2282.00 2244.94 47.77
140 17.3810 2254.00 2246.68 47.48
141 17.3980 2205.00 2248.42 46.96
142 17.4150 2179.00 2250.15 46.68
143 17.4320 2287.00 2251.88 47.82
144 17.4490 2252.00 2253.60 47.46
145 17.4660 2250.00 2255.32 47.43
146 17.4830 2125.00 2257.04 46.10
147 17.5000 2159.00 2258.75 46.47
148 17.5170 2244.00 2260.46 47.37
149 17.5340 2195.00 2262.17 46.85
150 17.5510 2149.00 2263.87 46.36
151 17.5680 2230.00 2265.56 47.22
152 17.5850 2242.00 2267.25 47.35
153 17.6020 2208.00 2268.94 46.99
154 17.6190 2252.00 2270.63 47.46
155 17.6360 2213.00 2272.31 47.04
156 17.6530 2245.00 2273.98 47.38
157 17.6700 2178.00 2275.65 46.67
158 17.6870 2161.00 2277.32 46.49
159 17.7040 2216.00 2278.98 47.07
160 17.7210 2233.00 2280.64 47.25
161 17.7380 2182.00 2282.30 46.71
162 17.7550 2221.00 2283.95 47.13
163 17.7720 2226.00 2285.60 47.18
164 17.7890 2237.00 2287.24 47.30
165 17.8060 2176.00 2288.88 46.65
166 17.8230 2200.00 2290.52 46.90
167 17.8400 2260.00 2292.15 47.54
168 17.8570 2295.00 2293.78 47.91
169 17.8740 2237.00 2295.40 47.30
170 17.8910 2285.00 2297.02 47.80
171 17.9080 2287.00 2298.63 47.82
172 17.9250 2165.00 2300.25 46.53
173 17.9420 2193.00 2301.85 46.83
174 17.9590 2219.00 2303.46 47.11
175 17.9760 2228.00 2305.06 47.20
176 17.9930 2095.00 2306.65 45.77
177 18.0100 2154.00 2308.25 46.41
178 18.0270 2161.00 2309.83 46.49
179 18.0440 2235.00 2311.42 47.28
180 18.0610 2225.00 2313.00 47.17
181 18.0780 2247.00 2314.57 47.40
182 18.0950 2287.00 2316.15 47.82
183 18.1120 2300.00 2317.72 47.96
184 18.1290 2262.00 2319.28 47.56
185 18.1460 2239.00 2320.84 47.32
186 18.1630 2244.00 2322.40 47.37
187 18.1800 2279.00 2323.95 47.74
188 18.1970 2312.00 2325.50 48.08
189 18.2140 2262.00 2327.05 47.56
190 18.2310 2159.00 2328.59 46.47
191 18.2480 2292.00 2330.13 47.87
192 18.2650 2291.00 2331.66 47.86
193 18.2820 2224.00 2333.19 47.16
194 18.2990 2341.00 2334.72 48.38
195 18.3160 2386.00 2336.24 48.85
196 18.3330 2269.00 2337.76 47.63
197 18.3500 2255.00 2339.28 47.49
198 18.3670 2276.00 2340.80 47.71
199 18.3840 2298.00 2342.31 47.94
200 18.4010 2258.00 2343.82 47.52
201 18.4180 2277.00 2345.33 47.72
202 18.4350 2245.00 2346.84 47.38
203 18.4520 2272.00 2348.34 47.67
204 18.4690 2285.00 2349.85 47.80
205 18.4860 2345.00 2351.35 48.43
206 18.5030 2340.00 2352.85 48.37
207 18.5200 2303.00 2354.34 47.99
208 18.5370 2277.00 2355.84 47.72
209 18.5540 2333.00 2357.33 48.30
210 18.5710 2228.00 2358.81 47.20
211 18.5880 2260.00 2360.28 47.54
212 18.6050 2314.00 2361.75 48.10
213 18.6220 2323.00 2363.20 48.20
214 18.6390 2200.00 2364.65 46.90
215 18.6560 2277.00 2366.09 47.72
216 18.6730 2343.00 2367.51 48.40
217 18.6900 2269.00 2368.93 47.63
218 18.7070 2195.00 2370.34 46.85
219 18.7240 2245.00 2371.75 47.38
220 18.7410 2355.00 2373.15 48.53
221 18.7580 2276.00 2374.56 47.71
222 18.7750 2225.00 2375.96 47.17
223 18.7920 2345.00 2377.36 48.43
224 18.8090 2397.00 2378.77 48.96
225 18.8260 2381.00 2380.17 48.80
226 18.8430 2363.00 2381.57 48.61
227 18.8600 2202.00 2382.97 46.93
228 18.8770 2281.00 2384.36 47.76
229 18.8940 2333.00 2385.76 48.30
230 18.9110 2323.00 2387.15 48.20
231 18.9280 2287.00 2388.53 47.82
232 18.9450 2267.00 2389.92 47.61
233 18.9620 2255.00 2391.30 47.49
234 18.9790 2204.00 2392.67 46.95
235 18.9960 2215.00 2394.04 47.06
236 19.0130 2271.00 2395.41 47.65
237 19.0300 2268.00 2396.78 47.62
238 19.0470 2285.00 2398.14 47.80
239 19.0640 2315.00 2399.50 48.11
240 19.0810 2269.00 2400.86 47.63
241 19.0980 2305.00 2402.21 48.01
242 19.1150 2286.00 2403.56 47.81
243 19.1320 2280.00 2404.90 47.75
244 19.1490 2228.00 2406.24 47.20
245 19.1660 2314.00 2407.58 48.10
246 19.1830 2341.00 2408.92 48.38
247 19.2000 2331.00 2410.25 48.28
248 19.2170 2338.00 2411.57 48.35
249 19.2340 2328.00 2412.90 48.25
250 19.2510 2342.00 2414.22 48.39
251 19.2680 2347.00 2415.54 48.45
252 19.2850 2427.00 2416.85 49.26
253 19.3020 2403.00 2418.16 49.02
254 19.3190 2362.00 2419.47 48.60
255 19.3360 2409.00 2420.77 49.08
256 19.3530 2423.00 2422.07 49.22
257 19.3700 2387.00 2423.36 48.86
258 19.3870 2362.00 2424.66 48.60
259 19.4040 2380.00 2425.95 48.79
260 19.4210 2311.00 2427.23 48.07
261 19.4380 2347.00 2428.51 48.45
262 19.4550 2412.00 2429.79 49.11
263 19.4720 2385.00 2431.07 48.84
264 19.4890 2323.00 2432.34 48.20
265 19.5060 2294.00 2433.61 47.90
266 19.5230 2373.00 2434.88 48.71
267 19.5400 2460.00 2436.14 49.60
268 19.5570 2399.00 2437.40 48.98
269 19.5740 2359.00 2438.65 48.57
270 19.5910 2387.00 2439.90 48.86
271 19.6080 2502.00 2441.15 50.02
272 19.6250 2446.00 2442.40 49.46
273 19.6420 2300.00 2443.64 47.96
274 19.6590 2281.00 2444.88 47.76
275 19.6760 2385.00 2446.11 48.84
276 19.6930 2379.00 2447.34 48.78
277 19.7100 2471.00 2448.57 49.71
278 19.7270 2284.00 2449.80 47.79
279 19.7440 2414.00 2451.02 49.13
280 19.7610 2391.00 2452.23 48.90
281 19.7780 2437.00 2453.45 49.37
282 19.7950 2432.00 2454.66 49.32
283 19.8120 2388.00 2455.87 48.87
284 19.8290 2375.00 2457.07 48.73
285 19.8460 2422.00 2458.28 49.21
286 19.8630 2442.00 2459.47 49.42
287 19.8800 2377.00 2460.67 48.75
288 19.8970 2389.00 2461.86 48.88
289 19.9140 2392.00 2463.05 48.91
290 19.9310 2468.00 2464.23 49.68
291 19.9480 2409.00 2465.42 49.08
292 19.9650 2373.00 2466.60 48.71
293 19.9820 2374.00 2467.77 48.72
294 19.9990 2373.00 2468.94 48.71
295 20.0160 2414.00 2470.11 49.13
296 20.0330 2438.00 2471.28 49.38
297 20.0500 2472.00 2472.44 49.72
298 20.0670 2470.00 2473.60 49.70
299 20.0840 2376.00 2474.75 48.74
300 20.1010 2435.00 2475.91 49.35
301 20.1180 2489.00 2477.06 49.89
302 20.1350 2404.00 2478.20 49.03
303 20.1520 2449.00 2479.35 49.49
304 20.1690 2412.00 2480.49 49.11
305 20.1860 2378.00 2481.62 48.76
306 20.2030 2442.00 2482.76 49.42
307 20.2200 2490.00 2483.89 49.90
308 20.2370 2469.00 2485.01 49.69
309 20.2540 2479.00 2486.24 49.79
310 20.2710 2485.00 2487.37 49.85
311 20.2880 2421.00 2488.49 49.20
312 20.3050 2342.00 2489.66 48.39
313 20.3220 2433.00 2490.77 49.33
314 20.3390 2485.00 2491.88 49.85
315 20.3560 2437.00 2492.99 49.37
316 20.3730 2425.00 2494.09 49.24
317 20.3900 2445.00 2495.19 49.45
318 20.4070 2421.00 2496.29 49.20
319 20.4240 2394.00 2497.38 48.93
320 20.4410 2426.00 2498.48 49.25
321 20.4580 2445.00 2499.57 49.45
322 20.4750 2434.00 2500.65 49.34
323 20.4920 2470.00 2501.73 49.70
324 20.5090 2571.00 2502.81 50.71
325 20.5260 2440.00 2503.89 49.40
326 20.5430 2414.00 2504.96 49.13
327 20.5600 2510.00 2506.03 50.10
328 20.5770 2465.00 2507.10 49.65
329 20.5940 2467.00 2508.17 49.67
330 20.6110 2442.00 2509.23 49.42
331 20.6280 2484.00 2510.29 49.84
332 20.6450 2466.00 2511.34 49.66
333 20.6620 2459.00 2512.40 49.59
334 20.6790 2484.00 2513.45 49.84
335 20.6960 2486.00 2514.49 49.86
336 20.7130 2445.00 2515.54 49.45
337 20.7300 2435.00 2516.58 49.35
338 20.7470 2439.00 2517.61 49.39
339 20.7640 2414.00 2518.65 49.13
340 20.7810 2525.00 2519.68 50.25
341 20.7980 2489.00 2520.71 49.89
342 20.8150 2525.00 2521.74 50.25
343 20.8320 2459.00 2522.76 49.59
344 20.8490 2494.00 2523.78 49.94
345 20.8660 2502.00 2524.80 50.02
346 20.8830 2510.00 2525.81 50.10
347 20.9000 2504.00 2526.83 50.04
348 20.9170 2466.00 2527.84 49.66
349 20.9340 2480.00 2528.84 49.80
350 20.9510 2431.00 2529.85 49.31
351 20.9680 2393.00 2530.85 48.92
352 20.9850 2486.00 2531.84 49.86
353 21.0020 2534.00 2532.84 50.34
354 21.0190 2484.00 2533.83 49.84
355 21.0360 2444.00 2534.82 49.44
356 21.0530 2525.00 2535.81 50.25
357 21.0700 2554.00 2536.79 50.54
358 21.0870 2493.00 2537.77 49.93
359 21.1040 2493.00 2538.75 49.93
360 21.1210 2461.00 2539.73 49.61
361 21.1380 2374.00 2540.70 48.72
362 21.1550 2445.00 2541.67 49.45
363 21.1720 2494.00 2542.64 49.94
364 21.1890 2494.00 2543.60 49.94
365 21.2060 2484.00 2544.57 49.84
366 21.2230 2504.00 2545.53 50.04
367 21.2400 2460.00 2546.48 49.60
368 21.2570 2477.00 2547.44 49.77
369 21.2740 2477.00 2548.39 49.77
370 21.2910 2473.00 2549.34 49.73
371 21.3080 2516.00 2550.29 50.16
372 21.3250 2565.00 2551.23 50.65
373 21.3420 2489.00 2552.17 49.89
374 21.3590 2559.00 2553.11 50.59
375 21.3760 2544.00 2554.05 50.44
376 21.3930 2519.00 2554.98 50.19
377 21.4100 2598.00 2555.92 50.97
378 21.4270 2509.00 2556.84 50.09
379 21.4440 2541.00 2557.77 50.41
380 21.4610 2523.00 2558.70 50.23
381 21.4780 2516.00 2559.62 50.16
382 21.4950 2522.00 2560.54 50.22
383 21.5120 2570.00 2561.46 50.70
384 21.5290 2488.00 2562.37 49.88
385 21.5460 2459.00 2563.29 49.59
386 21.5630 2624.00 2564.20 51.22
387 21.5800 2570.00 2565.11 50.70
388 21.5970 2566.00 2566.01 50.66
389 21.6140 2663.00 2566.92 51.60
390 21.6310 2594.00 2567.82 50.93
391 21.6480 2707.00 2568.72 52.03
392 21.6650 2619.00 2569.62 51.18
393 21.6820 2550.00 2570.52 50.50
394 21.6990 2698.00 2571.42 51.94
395 21.7160 2600.00 2572.31 50.99
396 21.7330 2699.00 2573.20 51.95
397 21.7500 2623.00 2574.09 51.22
398 21.7670 2621.00 2574.98 51.20
399 21.7840 2663.00 2575.87 51.60
400 21.8010 2671.00 2576.75 51.68
401 21.8180 2597.00 2577.64 50.96
402 21.8350 2604.00 2578.52 51.03
403 21.8520 2631.00 2579.40 51.29
404 21.8690 2606.00 2580.29 51.05
405 21.8860 2688.00 2581.17 51.85
406 21.9030 2675.00 2582.05 51.72
407 21.9200 2584.00 2582.93 50.83
408 21.9370 2617.00 2583.81 51.16
409 21.9540 2623.00 2584.68 51.22
410 21.9710 2644.00 2585.56 51.42
411 21.9880 2597.00 2586.44 50.96
412 22.0050 2583.00 2587.32 50.82
413 22.0220 2666.00 2588.20 51.63
414 22.0390 2628.00 2589.08 51.26
415 22.0560 2661.00 2589.96 51.58
416 22.0730 2671.00 2590.85 51.68
417 22.0900 2590.00 2591.73 50.89
418 22.1070 2733.00 2592.62 52.28
419 22.1240 2698.00 2593.51 51.94
420 22.1410 2643.00 2594.40 51.41
421 22.1580 2612.00 2595.30 51.11
422 22.1750 2650.00 2596.20 51.48
423 22.1920 2622.00 2597.11 51.21
424 22.2090 2569.00 2598.03 50.69
425 22.2260 2643.00 2598.95 51.41
426 22.2430 2648.00 2599.87 51.46
427 22.2600 2704.00 2600.81 52.00
428 22.2770 2656.00 2601.76 51.54
429 22.2940 2615.00 2602.72 51.14
430 22.3110 2603.00 2603.70 51.02
431 22.3280 2622.00 2604.69 51.21
432 22.3450 2625.00 2605.70 51.23
433 22.3620 2561.00 2606.73 50.61
434 22.3790 2614.00 2607.78 51.13
435 22.3960 2637.00 2608.87 51.35
436 22.4130 2572.00 2609.99 50.71
437 22.4300 2638.00 2611.14 51.36
438 22.4470 2641.00 2612.35 51.39
439 22.4640 2691.00 2613.61 51.87
440 22.4810 2571.00 2614.93 50.71
441 22.4980 2633.00 2616.34 51.31
442 22.5150 2680.00 2617.84 51.77
443 22.5320 2690.00 2619.46 51.87
444 22.5490 2642.00 2621.24 51.40
445 22.5660 2701.00 2623.22 51.97
446 22.5830 2595.00 2625.48 50.94
447 22.6000 2623.00 2628.11 51.22
448 22.6170 2609.00 2631.26 51.08
449 22.6340 2560.00 2635.09 50.60
450 22.6510 2609.00 2639.83 51.08
451 22.6680 2632.00 2645.73 51.30
452 22.6850 2658.00 2653.05 51.56
453 22.7020 2587.00 2662.06 50.86
454 22.7190 2700.00 2672.93 51.96
455 22.7360 2644.00 2685.58 51.42
456 22.7530 2635.00 2699.67 51.33
457 22.7700 2679.00 2714.84 51.76
458 22.7870 2714.00 2731.21 52.10
459 22.8040 2683.00 2749.37 51.80
460 22.8210 2671.00 2769.66 51.68
461 22.8380 2749.00 2791.36 52.43
462 22.8550 2740.00 2812.11 52.35
463 22.8720 2702.00 2827.94 51.98
464 22.8890 2787.00 2835.09 52.79
465 22.9060 2908.00 2832.12 53.93
466 22.9230 2812.00 2819.79 53.03
467 22.9400 2640.00 2800.16 51.38
468 22.9570 2751.00 2776.33 52.45
469 22.9740 2849.00 2751.61 53.38
470 22.9910 2707.00 2728.57 52.03
471 23.0080 2672.00 2708.73 51.69
472 23.0250 2674.00 2692.64 51.71
473 23.0420 2688.00 2680.16 51.85
474 23.0590 2756.00 2670.81 52.50
475 23.0760 2785.00 2663.99 52.77
476 23.0930 2785.00 2659.08 52.77
477 23.1100 2714.00 2655.57 52.10
478 23.1270 2742.00 2653.07 52.36
479 23.1440 2700.00 2651.28 51.96
480 23.1610 2630.00 2650.00 51.28
481 23.1780 2607.00 2649.07 51.06
482 23.1950 2653.00 2648.41 51.51
483 23.2120 2847.00 2647.95 53.36
484 23.2290 2837.00 2647.65 53.26
485 23.2460 2719.00 2647.47 52.14
486 23.2630 2724.00 2647.41 52.19
487 23.2800 2738.00 2647.42 52.33
488 23.2970 2716.00 2647.51 52.12
489 23.3140 2712.00 2647.66 52.08
490 23.3310 2669.00 2647.86 51.66
491 23.3480 2683.00 2648.11 51.80
492 23.3650 2609.00 2648.39 51.08
493 23.3820 2804.00 2648.71 52.95
494 23.3990 2723.00 2649.05 52.18
495 23.4160 2719.00 2649.42 52.14
496 23.4330 2719.00 2649.80 52.14
497 23.4500 2650.00 2650.21 51.48
498 23.4670 2678.00 2650.63 51.75
499 23.4840 2602.00 2651.07 51.01
500 23.5010 2605.00 2651.51 51.04
501 23.5180 2694.00 2651.97 51.90
502 23.5350 2733.00 2652.44 52.28
503 23.5520 2770.00 2652.92 52.63
504 23.5690 2686.00 2653.40 51.83
505 23.5860 2752.00 2653.89 52.46
506 23.6030 2658.00 2654.38 51.56
507 23.6200 2713.00 2654.88 52.09
508 23.6370 2716.00 2655.39 52.12
509 23.6540 2686.00 2655.89 51.83
510 23.6710 2773.00 2656.40 52.66
511 23.6880 2788.00 2656.92 52.80
512 23.7050 2753.00 2657.43 52.47
513 23.7220 2703.00 2657.95 51.99
514 23.7390 2824.00 2658.47 53.14
515 23.7560 2819.00 2658.99 53.09
516 23.7730 2754.00 2659.51 52.48
517 23.7900 2692.00 2660.03 51.88
518 23.8070 2841.00 2660.55 53.30
519 23.8240 2874.00 2661.08 53.61
520 23.8410 2833.00 2661.60 53.23
521 23.8580 2899.00 2662.12 53.84
522 23.8750 2913.00 2662.65 53.97
523 23.8920 2899.00 2663.17 53.84
524 23.9090 2759.00 2663.69 52.53
525 23.9260 2766.00 2664.21 52.59
526 23.9430 2892.00 2664.74 53.78
527 23.9600 2868.00 2665.26 53.55
528 23.9770 2886.00 2665.78 53.72
529 23.9940 2878.00 2666.30 53.65
530 24.0110 2878.00 2666.82 53.65
531 24.0280 2838.00 2667.33 53.27
532 24.0450 2757.00 2676.94 52.51
533 24.0620 2827.00 2677.59 53.17
534 24.0790 2800.00 2678.24 52.92
535 24.0960 2794.00 2697.16 52.86
536 24.1130 2799.00 2707.73 52.91
537 24.1300 2801.00 2708.80 52.92
538 24.1470 2877.00 2709.87 53.64
539 24.1640 2844.00 2710.96 53.33
540 24.1810 2705.00 2716.88 52.01
541 24.1980 2816.00 2718.06 53.07
542 24.2150 3013.00 2719.25 54.89
543 24.2320 2935.00 2720.46 54.18
544 24.2490 2831.00 2721.69 53.21
545 24.2660 2868.00 2722.93 53.55
546 24.2830 2918.00 2724.18 54.02
547 24.3000 2914.00 2725.45 53.98
548 24.3170 2791.00 2726.74 52.83
549 24.3340 2782.00 2728.05 52.74
550 24.3510 2847.00 2729.37 53.36
551 24.3680 2716.00 2730.72 52.12
552 24.3850 2747.00 2732.08 52.41
553 24.4020 2805.00 2733.46 52.96
554 24.4190 2891.00 2734.86 53.77
555 24.4360 2684.00 2736.29 51.81
556 24.4530 2825.00 2737.73 53.15
557 24.4700 2828.00 2739.20 53.18
558 24.4870 2877.00 2740.70 53.64
559 24.5040 2846.00 2742.22 53.35
560 24.5210 2859.00 2743.76 53.47
561 24.5380 2828.00 2745.33 53.18
562 24.5550 2841.00 2746.93 53.30
563 24.5720 2809.00 2748.56 53.00
564 24.5890 2790.00 2750.22 52.82
565 24.6060 2838.00 2751.90 53.27
566 24.6230 2844.00 2753.62 53.33
567 24.6400 2785.00 2755.38 52.77
568 24.6570 2931.00 2757.17 54.14
569 24.6740 2810.00 2758.99 53.01
570 24.6910 2764.00 2760.85 52.57
571 24.7080 2861.00 2762.76 53.49
572 24.7250 2868.00 2764.70 53.55
573 24.7420 2842.00 2766.68 53.31
574 24.7590 2834.00 2768.71 53.24
575 24.7760 2740.00 2770.79 52.35
576 24.7930 2793.00 2772.91 52.85
577 24.8100 2868.00 2775.08 53.55
578 24.8270 2908.00 2777.31 53.93
579 24.8440 2789.00 2779.59 52.81
580 24.8610 2855.00 2781.93 53.43
581 24.8780 2837.00 2784.33 53.26
582 24.8950 2863.00 2786.78 53.51
583 24.9120 2868.00 2789.31 53.55
584 24.9290 2912.00 2791.90 53.96
585 24.9460 2938.00 2794.56 54.20
586 24.9630 2882.00 2797.30 53.68
587 24.9800 2877.00 2800.12 53.64
588 24.9970 2898.00 2803.01 53.83
589 25.0140 2838.00 2806.00 53.27
590 25.0310 2759.00 2809.07 52.53
591 25.0480 2863.00 2812.24 53.51
592 25.0650 2872.00 2815.50 53.59
593 25.0820 2889.00 2818.87 53.75
594 25.0990 2995.00 2822.35 54.73
595 25.1160 2893.00 2825.95 53.79
596 25.1330 2927.00 2829.66 54.10
597 25.1500 2928.00 2833.50 54.11
598 25.1670 2870.00 2837.48 53.57
599 25.1840 2879.00 2841.59 53.66
600 25.2010 2920.00 2845.86 54.04
601 25.2180 2971.00 2850.28 54.51
602 25.2350 2921.00 2854.87 54.05
603 25.2520 2924.00 2859.64 54.07
604 25.2690 2973.00 2864.59 54.53
605 25.2860 2983.00 2869.74 54.62
606 25.3030 2971.00 2875.10 54.51
607 25.3200 3015.00 2880.68 54.91
608 25.3370 3038.00 2886.49 55.12
609 25.3540 3057.00 2892.55 55.29
610 25.3710 3071.00 2898.88 55.42
611 25.3880 3004.00 2905.49 54.81
612 25.4050 3008.00 2912.40 54.85
613 25.4220 3089.00 2919.63 55.58
614 25.4390 3047.00 2927.10 55.20
615 25.4560 3067.00 2935.04 55.38
616 25.4730 3046.00 2943.37 55.19
617 25.4900 3061.00 2952.07 55.33
618 25.5070 3126.00 2961.27 55.91
619 25.5240 3187.00 2970.96 56.45
620 25.5410 3153.00 2981.16 56.15
621 25.5580 3057.00 2991.92 55.29
622 25.5750 3040.00 3003.29 55.14
623 25.5920 3022.00 3015.30 54.97
624 25.6090 3113.00 3028.02 55.79
625 25.6260 3221.00 3041.50 56.75
626 25.6430 3249.00 3055.80 57.00
627 25.6600 3298.00 3070.99 57.43
628 25.6770 3218.00 3087.17 56.73
629 25.6940 3147.00 3104.40 56.10
630 25.7110 3250.00 3122.80 57.01
631 25.7280 3201.00 3142.46 56.58
632 25.7450 3352.00 3163.52 57.90
633 25.7620 3367.00 3186.11 58.03
634 25.7790 3405.00 3210.39 58.35
635 25.7960 3307.00 3236.54 57.51
636 25.8130 3460.00 3264.75 58.82
637 25.8300 3530.00 3295.25 59.41
638 25.8470 3453.00 3328.30 58.76
639 25.8640 3528.00 3364.20 59.40
640 25.8810 3580.00 3403.30 59.83
641 25.8980 3616.00 3445.99 60.13
642 25.9150 3660.00 3492.74 60.50
643 25.9320 3643.00 3544.07 60.36
644 25.9490 3659.00 3600.63 60.49
645 25.9660 3788.00 3663.16 61.55
646 25.9830 3888.00 3732.55 62.35
647 26.0000 3943.00 3809.84 62.79
648 26.0170 3964.00 3896.31 62.96
649 26.0340 4050.00 3993.49 63.64
650 26.0510 4169.00 4103.25 64.57
651 26.0680 4222.00 4227.93 64.98
652 26.0850 4398.00 4370.41 66.32
653 26.1020 4525.00 4534.46 67.27
654 26.1190 4636.00 4724.93 68.09
655 26.1360 4795.00 4948.45 69.25
656 26.1530 5069.00 5214.20 71.20
657 26.1700 5478.00 5535.09 74.01
658 26.1870 5877.00 5929.38 76.66
659 26.2040 6421.00 6422.45 80.13
660 26.2210 7014.00 7048.54 83.75
661 26.2380 7666.00 7852.62 87.56
662 26.2550 8719.00 8890.78 93.38
663 26.2720 10195.00 10229.10 100.97
664 26.2890 11805.00 11933.60 108.65
665 26.3060 13790.00 14045.70 117.43
666 26.3230 16357.00 16548.40 127.89
667 26.3400 19155.00 19385.90 138.40
668 26.3570 22367.00 22581.00 149.56
669 26.3740 25904.00 26272.70 160.95
670 26.3910 29709.00 30499.30 172.36
671 26.4080 33552.00 34937.90 183.17
672 26.4250 36737.00 38893.10 191.67
673 26.4420 39445.00 41659.40 198.61
674 26.4590 40965.00 43028.90 202.40
675 26.4760 42246.00 43199.40 205.54
676 26.4930 41796.00 42259.40 204.44
677 26.5100 40311.00 40124.50 200.78
678 26.5270 37303.00 36887.40 193.14
679 26.5440 34044.00 32962.20 184.51
680 26.5610 29537.00 28820.10 171.86
681 26.5780 25351.00 24753.30 159.22
682 26.5950 21066.00 20935.30 145.14
683 26.6120 17166.00 17523.80 131.02
684 26.6290 14360.00 14631.20 119.83
685 26.6460 11568.00 12289.50 107.56
686 26.6630 9666.00 10456.90 98.32
687 26.6800 8468.00 9050.08 92.02
688 26.6970 7285.00 7977.22 85.35
689 26.7140 6608.00 7156.12 81.29
690 26.7310 6017.00 6520.64 77.57
691 26.7480 5541.00 6020.76 74.44
692 26.7650 5226.00 5619.83 72.29
693 26.7820 4980.00 5292.19 70.57
694 26.7990 4703.00 5019.83 68.58
695 26.8160 4474.00 4790.13 66.89
696 26.8330 4321.00 4594.13 65.73
697 26.8500 4125.00 4425.29 64.23
698 26.8670 4074.00 4278.68 63.83
699 26.8840 3916.00 4150.52 62.58
700 26.9010 3869.00 4037.81 62.20
701 26.9180 3838.00 3938.15 61.95
702 26.9350 3749.00 3849.58 61.23
703 26.9520 3674.00 3770.52 60.61
704 26.9690 3632.00 3699.66 60.27
705 26.9860 3592.00 3635.89 59.93
706 27.0030 3543.00 3578.29 59.52
707 27.0200 3442.00 3526.11 58.67
708 27.0370 3354.00 3478.67 57.91
709 27.0540 3381.00 3435.42 58.15
710 27.0710 3424.00 3395.88 58.51
711 27.0880 3369.00 3359.64 58.04
712 27.1050 3324.00 3326.34 57.65
713 27.1220 3263.00 3295.67 57.12
714 27.1390 3305.00 3267.37 57.49
715 27.1560 3277.00 3241.19 57.25
716 27.1730 3275.00 3216.93 57.23
717 27.1900 3248.00 3194.41 56.99
718 27.2070 3274.00 3173.46 57.22
719 27.2240 3146.00 3153.95 56.09
720 27.2410 3175.00 3135.74 56.35
721 27.2580 3116.00 3118.73 55.82
722 27.2750 3168.00 3102.80 56.28
723 27.2920 3134.00 3087.88 55.98
724 27.3090 3120.00 3073.88 55.86
725 27.3260 3120.00 3060.72 55.86
726 27.3430 3115.00 3048.34 55.81
727 27.3600 3134.00 3036.68 55.98
728 27.3770 3002.00 3025.69 54.79
729 27.3940 3117.00 3015.31 55.83
730 27.4110 3086.00 3005.53 55.55
731 27.4280 3075.00 2996.26 55.45
732 27.4450 3082.00 2987.48 55.52
733 27.4620 3004.00 2979.16 54.81
734 27.4790 2899.00 2971.33 53.84
735 27.4960 3019.00 2963.84 54.95
736 27.5130 3025.00 2956.73 55.00
737 27.5300 3029.00 2949.96 55.04
738 27.5470 3026.00 2943.52 55.01
739 27.5640 2946.00 2937.39 54.28
740 27.5810 3007.00 2931.55 54.84
741 27.5980 2932.00 2925.98 54.15
742 27.6150 2998.00 2920.67 54.75
743 27.6320 3033.00 2915.59 55.07
744 27.6490 2936.00 2910.74 54.18
745 27.6660 2966.00 2906.10 54.46
746 27.6830 2952.00 2901.67 54.33
747 27.7000 2959.00 2897.42 54.40
748 27.7170 2990.00 2893.36 54.68
749 27.7340 2959.00 2889.46 54.40
750 27.7510 2935.00 2885.72 54.18
751 27.7680 2977.00 2882.14 54.56
752 27.7850 2913.00 2878.70 53.97
753 27.8020 2944.00 2875.40 54.26
754 27.8190 2841.00 2872.22 53.30
755 27.8360 2907.00 2869.17 53.92
756 27.8530 2936.00 2866.24 54.18
757 27.8700 2995.00 2863.42 54.73
758 27.8870 2815.00 2860.71 53.06
759 27.9040 2851.00 2858.09 53.39
760 27.9210 2927.00 2855.58 54.10
761 27.9380 2886.00 2853.15 53.72
762 27.9550 2919.00 2850.82 54.03
763 27.9720 2916.00 2848.56 54.00
764 27.9890 2843.00 2846.39 53.32
765 28.0060 2931.00 2844.29 54.14
766 28.0230 2919.00 2842.26 54.03
767 28.0400 2918.00 2840.31 54.02
768 28.0570 2981.00 2838.42 54.60
769 28.0740 2925.00 2836.59 54.08
770 28.0910 2870.00 2834.83 53.57
771 28.1080 2878.00 2833.12 53.65
772 28.1250 2938.00 2831.47 54.20
773 28.1420 2896.00 2829.88 53.81
774 28.1590 2858.00 2828.33 53.46
775 28.1760 2929.00 2826.84 54.12
776 28.1930 2828.00 2825.39 53.18
777 28.2100 2905.00 2823.99 53.90
778 28.2270 2931.00 2822.63 54.14
779 28.2440 2890.00 2821.31 53.76
780 28.2610 2836.00 2820.04 53.25
781 28.2780 2805.00 2818.80 52.96
782 28.2950 2906.00 2817.60 53.91
783 28.3120 2847.00 2816.44 53.36
784 28.3290 2849.00 2815.31 53.38
785 28.3460 2909.00 2814.21 53.94
786 28.3630 2943.00 2813.15 54.25
787 28.3800 2977.00 2812.12 54.56
788 28.3970 2863.00 2811.11 53.51
789 28.4140 2832.00 2810.14 53.22
790 28.4310 2841.00 2809.19 53.30
791 28.4480 2924.00 2808.28 54.07
792 28.4650 2928.00 2807.38 54.11
793 28.4820 2915.00 2806.52 53.99
794 28.4990 2818.00 2805.67 53.08
795 28.5160 2839.00 2804.85 53.28
796 28.5330 2941.00 2804.05 54.23
797 28.5500 2898.00 2803.28 53.83
798 28.5670 2868.00 2802.53 53.55
799 28.5840 2802.00 2801.79 52.93
800 28.6010 2976.00 2801.08 54.55
801 28.6180 2727.00 2800.38 52.22
802 28.6350 2743.00 2799.71 52.37
803 28.6520 2854.00 2799.05 53.42
804 28.6690 2757.00 2798.41 52.51
805 28.6860 2873.00 2797.79 53.60
806 28.7030 2934.00 2797.18 54.17
807 28.7200 2822.00 2796.59 53.12
808 28.7370 2796.00 2796.02 52.88
809 28.7540 2808.00 2795.46 52.99
810 28.7710 2813.00 2794.92 53.04
811 28.7880 2823.00 2776.09 53.13
812 28.8050 2795.00 2775.84 52.87
813 28.8220 2800.00 2775.59 52.92
814 28.8390 2850.00 2766.25 53.39
815 28.8560 2799.00 2756.21 52.91
816 28.8730 2754.00 2756.26 52.48
817 28.8900 2789.00 2756.31 52.81
818 28.9070 2834.00 2751.41 53.24
819 28.9240 2793.00 2751.54 52.85
820 28.9410 2789.00 2751.67 52.81
821 28.9580 2799.00 2751.80 52.91
822 28.9750 2750.00 2751.93 52.44
823 28.9920 2792.00 2752.06 52.84
824 29.0090 2783.00 2752.20 52.75
825 29.0260 2785.00 2752.34 52.77
826 29.0430 2782.00 2752.48 52.74
827 29.0600 2837.00 2752.63 53.26
828 29.0770 2825.00 2752.78 53.15
829 29.0940 2887.00 2752.93 53.73
830 29.1110 2852.00 2753.10 53.40
831 29.1280 2758.00 2753.27 52.52
832 29.1450 2749.00 2753.44 52.43
833 29.1620 2791.00 2753.63 52.83
834 29.1790 2745.00 2753.83 52.39
835 29.1960 2822.00 2754.04 53.12
836 29.2130 2754.00 2754.26 52.48
837 29.2300 2879.00 2754.51 53.66
838 29.2470 2806.00 2754.77 52.97
839 29.2640 2755.00 2755.06 52.49
840 29.2810 2674.00 2755.38 51.71
841 29.2980 2732.00 2755.73 52.27
842 29.3150 2836.00 2756.12 53.25
843 29.3320 2820.00 2756.57 53.10
844 29.3490 2771.00 2757.08 52.64
845 29.3660 2806.00 2757.68 52.97
846 29.3830 2817.00 2758.38 53.08
847 29.4000 2862.00 2759.22 53.50
848 29.4170 2907.00 2760.24 53.92
849 29.4340 2898.00 2761.51 53.83
850 29.4510 2830.00 2763.12 53.20
851 29.4680 2778.00 2765.20 52.71
852 29.4850 2778.00 2767.90 52.71
853 29.5020 2778.00 2771.41 52.71
854 29.5190 2897.00 2775.92 53.82
855 29.5360 2917.00 2781.48 54.01
856 29.5530 2911.00 2787.92 53.95
857 29.5700 2956.00 2794.96 54.37
858 29.5870 2928.00 2802.74 54.11
859 29.6040 2684.00 2811.69 51.81
860 29.6210 2825.00 2821.28 53.15
861 29.6380 2871.00 2829.27 53.58
862 29.6550 2886.00 2832.94 53.72
863 29.6720 2779.00 2831.63 52.72
864 29.6890 2795.00 2826.92 52.87
865 29.7060 2750.00 2820.24 52.44
866 29.7230 2834.00 2812.05 53.24
867 29.7400 2768.00 2802.83 52.61
868 29.7570 2734.00 2793.66 52.29
869 29.7740 2709.00 2785.52 52.05
870 29.7910 2618.00 2778.91 51.17
871 29.8080 2691.00 2773.80 51.87
872 29.8250 2784.00 2769.96 52.76
873 29.8420 2730.00 2767.09 52.25
874 29.8590 2661.00 2764.94 51.58
875 29.8760 2747.00 2763.30 52.41
876 29.8930 2739.00 2762.04 52.34
877 29.9100 2806.00 2761.05 52.97
878 29.9270 2855.00 2760.25 53.43
879 29.9440 2876.00 2759.60 53.63
880 29.9610 2843.00 2759.06 53.32
881 29.9780 2829.00 2758.61 53.19
882 29.9950 2791.00 2758.24 52.83
883 30.0120 2831.00 2757.92 53.21
884 30.0290 2858.00 2757.64 53.46
885 30.0460 2746.00 2757.41 52.40
886 30.0630 2779.00 2757.20 52.72
887 30.0800 2830.00 2757.03 53.20
888 30.0970 2809.00 2756.87 53.00
889 30.1140 2780.00 2756.74 52.73
890 30.1310 2768.00 2756.62 52.61
891 30.1480 2755.00 2756.51 52.49
892 30.1650 2730.00 2756.42 52.25
893 30.1820 2687.00 2756.33 51.84
894 30.1990 2752.00 2756.26 52.46
895 30.2160 2740.00 2756.19 52.35
896 30.2330 2753.00 2756.13 52.47
897 30.2500 2825.00 2756.08 53.15
898 30.2670 2774.00 2756.03 52.67
899 30.2840 2725.00 2755.98 52.20
900 30.3010 2711.00 2755.94 52.07
901 30.3180 2650.00 2755.90 51.48
902 30.3350 2695.00 2755.87 51.91
903 30.3520 2804.00 2755.84 52.95
904 30.3690 2800.00 2755.81 52.92
905 30.3860 2734.00 2755.78 52.29
906 30.4030 2838.00 2755.75 53.27
907 30.4200 2691.00 2755.73 51.87
908 30.4370 2672.00 2755.70 51.69
909 30.4540 2738.00 2755.68 52.33
910 30.4710 2824.00 2755.66 53.14
911 30.4880 2653.00 2755.64 51.51
912 30.5050 2743.00 2755.62 52.37
913 30.5220 2799.00 2755.60 52.91
914 30.5390 2729.00 2755.58 52.24
915 30.5560 2806.00 2755.56 52.97
916 30.5730 2795.00 2755.54 52.87
917 30.5900 2746.00 2755.53 52.40
918 30.6070 2725.00 2755.51 52.20
919 30.6240 2757.00 2755.49 52.51
920 30.6410 2735.00 2755.47 52.30
921 30.6580 2806.00 2755.45 52.97
922 30.6750 2798.00 2755.44 52.90
923 30.6920 2782.00 2755.42 52.74
924 30.7090 2740.00 2755.40 52.35
925 30.7260 2701.00 2755.38 51.97
926 30.7430 2668.00 2755.36 51.65
927 30.7600 2739.00 2755.34 52.34
928 30.7770 2703.00 2755.32 51.99
929 30.7940 2801.00 2755.30 52.92
930 30.8110 2733.00 2755.28 52.28
931 30.8280 2793.00 2755.26 52.85
932 30.8450 2792.00 2755.24 52.84
933 30.8620 2779.00 2755.22 52.72
934 30.8790 2716.00 2755.20 52.12
935 30.8960 2848.00 2755.18 53.37
936 30.9130 2914.00 2755.16 53.98
937 30.9300 2890.00 2755.13 53.76
938 30.9470 2854.00 2755.11 53.42
939 30.9640 2836.00 2755.08 53.25
940 30.9810 2908.00 2755.06 53.93
941 30.9980 2829.00 2755.03 53.19
942 31.0150 2781.00 2755.01 52.74
943 31.0320 2781.00 2754.98 52.74
944 31.0490 2831.00 2754.96 53.21
945 31.0660 2793.00 2754.93 52.85
946 31.0830 2829.00 2754.90 53.19
947 31.1000 2802.00 2754.87 52.93
948 31.1170 2804.00 2754.84 52.95
949 31.1340 2843.00 2754.81 53.32
950 31.1510 2821.00 2754.78 53.11
951 31.1680 2853.00 2754.75 53.41
952 31.1850 2757.00 2754.72 52.51
953 31.2020 2707.00 2754.69 52.03
954 31.2190 2810.00 2754.66 53.01
955 31.2360 2830.00 2754.62 53.20
956 31.2530 2776.00 2754.59 52.69
957 31.2700 2856.00 2754.55 53.44
958 31.2870 2760.00 2754.52 52.54
959 31.3040 2638.00 2754.48 51.36
960 31.3210 2670.00 2754.45 51.67
961 31.3380 2757.00 2754.41 52.51
962 31.3550 2780.00 2754.37 52.73
963 31.3720 2677.00 2754.33 51.74
964 31.3890 2762.00 2754.30 52.55
965 31.4060 2704.00 2754.26 52.00
966 31.4230 2795.00 2754.22 52.87
967 31.4400 2719.00 2754.18 52.14
968 31.4570 2673.00 2754.14 51.70
969 31.4740 2745.00 2754.09 52.39
970 31.4910 2708.00 2754.05 52.04
971 31.5080 2716.00 2754.01 52.12
972 31.5250 2745.00 2753.96 52.39
973 31.5420 2714.00 2753.92 52.10
974 31.5590 2749.00 2753.87 52.43
975 31.5760 2700.00 2753.83 51.96
976 31.5930 2729.00 2753.78 52.24
977 31.6100 2750.00 2753.74 52.44
978 31.6270 2718.00 2753.69 52.13
979 31.6440 2689.00 2753.64 51.86
980 31.6610 2794.00 2753.59 52.86
981 31.6780 2778.00 2753.54 52.71
982 31.6950 2669.00 2753.49 51.66
983 31.7120 2715.00 2753.44 52.11
984 31.7290 2709.00 2753.39 52.05
985 31.7460 2786.00 2753.34 52.78
986 31.7630 2695.00 2753.29 51.91
987 31.7800 2759.00 2753.23 52.53
988 31.7970 2749.00 2753.18 52.43
989 31.8140 2745.00 2753.13 52.39
990 31.8310 2857.00 2753.07 53.45
991 31.8480 2820.00 2752.96 53.10
992 31.8650 2697.00 2752.91 51.93
993 31.8820 2678.00 2752.85 51.75
994 31.8990 2748.00 2752.79 52.42
995 31.9160 2777.00 2752.71 52.70
996 31.9330 2724.00 2752.65 52.19
997 31.9500 2684.00 2752.60 51.81
998 31.9670 2691.00 2752.54 51.87
999 31.9840 2657.00 2752.48 51.55
1000 32.0010 2623.00 2752.42 51.22
1001 32.0180 2746.00 2752.36 52.40
1002 32.0350 2760.00 2752.30 52.54
1003 32.0520 2699.00 2752.24 51.95
1004 32.0690 2700.00 2752.18 51.96
1005 32.0860 2717.00 2752.12 52.12
1006 32.1030 2784.00 2752.06 52.76
1007 32.1200 2831.00 2751.99 53.21
1008 32.1370 2762.00 2751.93 52.55
1009 32.1540 2695.00 2751.87 51.91
1010 32.1710 2825.00 2751.81 53.15
1011 32.1880 2822.00 2751.74 53.12
1012 32.2050 2734.00 2751.68 52.29
1013 32.2220 2682.00 2751.61 51.79
1014 32.2390 2691.00 2751.55 51.87
1015 32.2560 2729.00 2751.49 52.24
1016 32.2730 2693.00 2751.42 51.89
1017 32.2900 2659.00 2751.36 51.57
1018 32.3070 2623.00 2751.30 51.22
1019 32.3240 2739.00 2751.24 52.34
1020 32.3410 2864.00 2751.18 53.52
1021 32.3580 2742.00 2751.12 52.36
1022 32.3750 2710.00 2751.06 52.06
1023 32.3920 2714.00 2751.01 52.10
1024 32.4090 2811.00 2750.96 53.02
1025 32.4260 2773.00 2750.92 52.66
1026 32.4430 2738.00 2750.89 52.33
1027 32.4600 2690.00 2750.87 51.87
1028 32.4770 2701.00 2750.86 51.97
1029 32.4940 2814.00 2750.88 53.05
1030 32.5110 2854.00 2750.93 53.42
1031 32.5280 2823.00 2750.99 53.13
1032 32.5450 2805.00 2751.08 52.96
1033 32.5620 2782.00 2751.18 52.74
1034 32.5790 2780.00 2751.30 52.73
1035 32.5960 2764.00 2751.44 52.57
1036 32.6130 2648.00 2751.54 51.46
1037 32.6300 2686.00 2751.51 51.83
1038 32.6470 2751.00 2751.37 52.45
1039 32.6640 2694.00 2751.16 51.90
1040 32.6810 2675.00 2750.93 51.72
1041 32.6980 2600.00 2750.69 50.99
1042 32.7150 2720.00 2750.41 52.15
1043 32.7320 2729.00 2750.13 52.24
1044 32.7490 2775.00 2749.86 52.68
1045 32.7660 2782.00 2749.63 52.74
1046 32.7830 2699.00 2749.43 51.95
1047 32.8000 2690.00 2749.26 51.87
1048 32.8170 2768.00 2749.10 52.61
1049 32.8340 2617.00 2748.97 51.16
1050 32.8510 2611.00 2748.84 51.10
1051 32.8680 2723.00 2748.72 52.18
1052 32.8850 2707.00 2748.61 52.03
1053 32.9020 2687.00 2748.50 51.84
1054 32.9190 2650.00 2748.39 51.48
1055 32.9360 2622.00 2748.29 51.21
1056 32.9530 2678.00 2748.18 51.75
1057 32.9700 2763.00 2748.08 52.56
1058 32.9870 2779.00 2747.98 52.72
1059 33.0040 2684.00 2747.88 51.81
1060 33.0210 2664.00 2747.78 51.61
1061 33.0380 2563.00 2747.68 50.63
1062 33.0550 2708.00 2747.58 52.04
1063 33.0720 2779.00 2747.48 52.72
1064 33.0890 2714.00 2747.38 52.10
1065 33.1060 2756.00 2747.28 52.50
1066 33.1230 2704.00 2747.18 52.00
1067 33.1400 2630.00 2747.08 51.28
1068 33.1570 2674.00 2746.98 51.71
1069 33.1740 2724.00 2746.88 52.19
1070 33.1910 2734.00 2746.78 52.29
1071 33.2080 2773.00 2746.68 52.66
1072 33.2250 2780.00 2746.58 52.73
1073 33.2420 2690.00 2746.48 51.87
1074 33.2590 2655.00 2746.37 51.53
1075 33.2760 2692.00 2746.27 51.88
1076 33.2930 2626.00 2746.17 51.24
1077 33.3100 2696.00 2746.06 51.92
1078 33.3270 2709.00 2745.96 52.05
1079 33.3440 2606.00 2745.86 51.05
1080 33.3610 2599.00 2745.75 50.98
1081 33.3780 2578.00 2745.65 50.77
1082 33.3950 2645.00 2745.54 51.43
1083 33.4120 2640.00 2745.44 51.38
1084 33.4290 2576.00 2745.33 50.75
1085 33.4460 2668.00 2745.22 51.65
1086 33.4630 2785.00 2745.12 52.77
1087 33.4800 2717.00 2745.01 52.12
1088 33.4970 2723.00 2744.90 52.18
1089 33.5140 2720.00 2744.79 52.15
1090 33.5310 2694.00 2744.68 51.90
1091 33.5480 2687.00 2744.57 51.84
1092 33.5650 2629.00 2744.47 51.27
1093 33.5820 2647.00 2744.36 51.45
1094 33.5990 2751.00 2744.25 52.45
1095 33.6160 2767.00 2744.13 52.60
1096 33.6330 2720.00 2744.02 52.15
1097 33.6500 2631.00 2743.91 51.29
1098 33.6670 2725.00 2743.80 52.20
1099 33.6840 2653.00 2743.69 51.51
1100 33.7010 2699.00 2743.57 51.95
1101 33.7180 2692.00 2743.46 51.88
1102 33.7350 2752.00 2743.35 52.46
1103 33.7520 2550.00 2743.23 50.50
1104 33.7690 2668.00 2743.12 51.65
1105 33.7860 2696.00 2743.00 51.92
1106 33.8030 2644.00 2742.89 51.42
1107 33.8200 2604.00 2742.77 51.03
1108 33.8370 2701.00 2742.66 51.97
1109 33.8540 2598.00 2742.54 50.97
1110 33.8710 2592.00 2742.42 50.91
1111 33.8880 2646.00 2742.31 51.44
1112 33.9050 2693.00 2742.19 51.89
1113 33.9220 2703.00 2742.07 51.99
1114 33.9390 2671.00 2741.95 51.68
1115 33.9560 2661.00 2741.83 51.58
1116 33.9730 2635.00 2741.71 51.33
1117 33.9900 2624.00 2741.59 51.22
1118 34.0070 2685.00 2741.47 51.82
1119 34.0240 2761.00 2741.35 52.55
1120 34.0410 2728.00 2741.23 52.23
1121 34.0580 2718.00 2741.11 52.13
1122 34.0750 2780.00 2740.99 52.73
1123 34.0920 2720.00 2740.87 52.15
1124 34.1090 2731.00 2740.74 52.26
1125 34.1260 2801.00 2740.62 52.92
1126 34.1430 2775.00 2740.50 52.68
1127 34.1600 2766.00 2740.37 52.59
1128 34.1770 2720.00 2740.25 52.15
1129 34.1940 2827.00 2740.13 53.17
1130 34.2110 2840.00 2740.00 53.29
1131 34.2280 2735.00 2739.88 52.30
1132 34.2450 2755.00 2739.75 52.49
1133 34.2620 2709.00 2739.62 52.05
1134 34.2790 2750.00 2739.50 52.44
1135 34.2960 2759.00 2739.37 52.53
1136 34.3130 2696.00 2739.25 51.92
1137 34.3300 2668.00 2739.12 51.65
1138 34.3470 2715.00 2738.99 52.11
1139 34.3640 2706.00 2738.86 52.02
1140 34.3810 2666.00 2738.73 51.63
1141 34.3980 2665.00 2738.61 51.62
1142 34.4150 2769.00 2738.48 52.62
1143 34.4320 2617.00 2738.35 51.16
1144 34.4490 2758.00 2738.22 52.52
1145 34.4660 2762.00 2738.09 52.55
1146 34.4830 2759.00 2737.96 52.53
1147 34.5000 2751.00 2737.83 52.45
1148 34.5170 2763.00 2737.70 52.56
1149 34.5340 2714.00 2737.56 52.10
1150 34.5510 2700.00 2737.43 51.96
1151 34.5680 2749.00 2737.30 52.43
1152 34.5850 2728.00 2737.17 52.23
1153 34.6020 2639.00 2737.03 51.37
1154 34.6190 2672.00 2736.90 51.69
1155 34.6360 2684.00 2736.77 51.81
1156 34.6530 2619.00 2736.63 51.18
1157 34.6700 2731.00 2736.50 52.26
1158 34.6870 2667.00 2736.37 51.64
1159 34.7040 2601.00 2736.23 51.00
1160 34.7210 2631.00 2736.10 51.29
1161 34.7380 2612.00 2735.96 51.11
1162 34.7550 2592.00 2735.82 50.91
1163 34.7720 2643.00 2735.69 51.41
1164 34.7890 2653.00 2735.55 51.51
1165 34.8060 2743.00 2735.41 52.37
1166 34.8230 2696.00 2735.28 51.92
1167 34.8400 2674.00 2735.14 51.71
1168 34.8570 2702.00 2735.00 51.98
1169 34.8740 2681.00 2734.86 51.78
1170 34.8910 2699.00 2734.72 51.95
1171 34.9080 2613.00 2734.59 51.12
1172 34.9250 2674.00 2734.45 51.71
1173 34.9420 2713.00 2734.31 52.09
1174 34.9590 2630.00 2734.17 51.28
1175 34.9760 2687.00 2734.03 51.84
1176 34.9930 2681.00 2733.89 51.78
1177 35.0100 2671.00 2733.75 51.68
1178 35.0270 2607.00 2733.61 51.06
1179 35.0440 2707.00 2733.47 52.03
1180 35.0610 2745.00 2733.33 52.39
1181 35.0780 2767.00 2733.18 52.60
1182 35.0950 2835.00 2733.04 53.24
1183 35.1120 2616.00 2732.90 51.15
1184 35.1290 2686.00 2732.76 51.83
1185 35.1460 2743.00 2732.61 52.37
1186 35.1630 2637.00 2732.47 51.35
1187 35.1800 2588.00 2732.33 50.87
1188 35.1970 2672.00 2732.19 51.69
1189 35.2140 2661.00 2732.04 51.58
1190 35.2310 2609.00 2731.90 51.08
1191 35.2480 2686.00 2731.75 51.83
1192 35.2650 2761.00 2731.61 52.55
1193 35.2820 2699.00 2731.46 51.95
1194 35.2990 2735.00 2731.32 52.30
1195 35.3160 2700.00 2731.17 51.96
1196 35.3330 2684.00 2731.03 51.81
1197 35.3500 2665.00 2730.88 51.62
1198 35.3670 2602.00 2730.73 51.01
1199 35.3840 2561.00 2730.59 50.61
1200 35.4010 2542.00 2730.44 50.42
1201 35.4180 2678.00 2730.29 51.75
1202 35.4350 2656.00 2730.15 51.54
1203 35.4520 2731.00 2730.00 52.26
1204 35.4690 2768.00 2733.39 52.61
1205 35.4860 2614.00 2733.30 51.13
1206 35.5030 2676.00 2733.21 51.73
1207 35.5200 2557.00 2733.11 50.57
1208 35.5370 2690.00 2739.89 51.87
1209 35.5540 2753.00 2739.91 52.47
1210 35.5710 2717.00 2745.92 52.12
1211 35.5880 2761.00 2746.04 52.55
1212 35.6050 2665.00 2746.16 51.62
1213 35.6220 2769.00 2746.29 52.62
1214 35.6390 2704.00 2746.43 52.00
1215 35.6560 2659.00 2793.41 51.57
1216 35.6730 2682.00 2794.30 51.79
1217 35.6900 2658.00 2795.22 51.56
1218 35.7070 2735.00 2796.16 52.30
1219 35.7240 2706.00 2797.13 52.02
1220 35.7410 2687.00 2798.12 51.84
1221 35.7580 2688.00 2799.14 51.85
1222 35.7750 2630.00 2800.19 51.28
1223 35.7920 2745.00 2801.28 52.39
1224 35.8090 2675.00 2802.39 51.72
1225 35.8260 2669.00 2803.53 51.66
1226 35.8430 2754.00 2804.71 52.48
1227 35.8600 2770.00 2805.93 52.63
1228 35.8770 2771.00 2807.18 52.64
1229 35.8940 2711.00 2808.47 52.07
1230 35.9110 2655.00 2809.79 51.53
1231 35.9280 2687.00 2811.16 51.84
1232 35.9450 2664.00 2812.57 51.61
1233 35.9620 2724.00 2814.02 52.19
1234 35.9790 2826.00 2815.51 53.16
1235 35.9960 2778.00 2817.06 52.71
1236 36.0130 2786.00 2818.65 52.78
1237 36.0300 2730.00 2820.29 52.25
1238 36.0470 2715.00 2821.98 52.11
1239 36.0640 2712.00 2823.72 52.08
1240 36.0810 2707.00 2825.53 52.03
1241 36.0980 2772.00 2827.39 52.65
1242 36.1150 2698.00 2829.31 51.94
1243 36.1320 2812.00 2831.30 53.03
1244 36.1490 2779.00 2833.35 52.72
1245 36.1660 2698.00 2835.47 51.94
1246 36.1830 2793.00 2837.66 52.85
1247 36.2000 2817.00 2839.92 53.08
1248 36.2170 2747.00 2842.27 52.41
1249 36.2340 2777.00 2844.69 52.70
1250 36.2510 2744.00 2847.20 52.38
1251 36.2680 2718.00 2849.80 52.13
1252 36.2850 2747.00 2852.49 52.41
1253 36.3020 2880.00 2855.28 53.67
1254 36.3190 2792.00 2858.17 52.84
1255 36.3360 2693.00 2861.16 51.89
1256 36.3530 2770.00 2864.27 52.63
1257 36.3700 2824.00 2867.49 53.14
1258 36.3870 2724.00 2870.83 52.19
1259 36.4040 2799.00 2874.30 52.91
1260 36.4210 2768.00 2877.91 52.61
1261 36.4380 2818.00 2881.66 53.08
1262 36.4550 2799.00 2885.55 52.91
1263 36.4720 2823.00 2889.60 53.13
1264 36.4890 2718.00 2893.81 52.13
1265 36.5060 2792.00 2898.20 52.84
1266 36.5230 2748.00 2902.77 52.42
1267 36.5400 2859.00 2907.53 53.47
1268 36.5570 2801.00 2912.49 52.92
1269 36.5740 2841.00 2917.66 53.30
1270 36.5910 2780.00 2923.06 52.73
1271 36.6080 2811.00 2928.70 53.02
1272 36.6250 2829.00 2934.59 53.19
1273 36.6420 2763.00 2940.74 52.56
1274 36.6590 2730.00 2947.18 52.25
1275 36.6760 2861.00 2953.92 53.49
1276 36.6930 2923.00 2960.98 54.06
1277 36.7100 2949.00 2968.37 54.30
1278 36.7270 3003.00 2976.13 54.80
1279 36.7440 2931.00 2984.26 54.14
1280 36.7610 2902.00 2992.81 53.87
1281 36.7780 3028.00 3001.79 55.03
1282 36.7950 2978.00 3011.24 54.57
1283 36.8120 2970.00 3021.18 54.50
1284 36.8290 2986.00 3031.66 54.64
1285 36.8460 3077.00 3042.71 55.47
1286 36.8630 3023.00 3054.37 54.98
1287 36.8800 2997.00 3066.69 54.74
1288 36.8970 3062.00 3079.72 55.34
1289 36.9140 3118.00 3093.51 55.84
1290 36.9310 3152.00 3108.12 56.14
1291 36.9480 3173.00 3123.63 56.33
1292 36.9650 3163.00 3140.10 56.24
1293 36.9820 3149.00 3157.61 56.12
1294 36.9990 3186.00 3176.26 56.44
1295 37.0160 3170.00 3196.13 56.30
1296 37.0330 3165.00 3217.36 56.26
1297 37.0500 3244.00 3240.05 56.96
1298 37.0670 3299.00 3264.35 57.44
1299 37.0840 3269.00 3290.41 57.18
1300 37.1010 3370.00 3318.41 58.05
1301 37.1180 3333.00 3348.54 57.73
1302 37.1350 3365.00 3381.02 58.01
1303 37.1520 3411.00 3416.12 58.40
1304 37.1690 3503.00 3454.10 59.19
1305 37.1860 3672.00 3495.32 60.60
1306 37.2030 3622.00 3540.13 60.18
1307 37.2200 3658.00 3588.99 60.48
1308 37.2370 3791.00 3642.38 61.57
1309 37.2540 3660.00 3700.91 60.50
1310 37.2710 3809.00 3765.23 61.72
1311 37.2880 4008.00 3836.18 63.31
1312 37.3050 4056.00 3914.69 63.69
1313 37.3220 4156.00 4001.87 64.47
1314 37.3390 4374.00 4099.14 66.14
1315 37.3560 4562.00 4208.03 67.54
1316 37.3730 4638.00 4330.63 68.10
1317 37.3900 4853.00 4469.25 69.66
1318 37.4070 5098.00 4627.02 71.40
1319 37.4240 5468.00 4807.56 73.95
1320 37.4410 5686.00 5015.73 75.41
1321 37.4580 6123.00 5257.60 78.25
1322 37.4750 6569.00 5541.10 81.05
1323 37.4920 7214.00 5876.70 84.94
1324 37.5090 7542.00 6278.25 86.84
1325 37.5260 8131.00 6764.85 90.17
1326 37.5430 8663.00 7361.52 93.08
1327 37.5600 9193.00 8102.69 95.88
1328 37.5770 10290.00 9031.20 101.44
1329 37.5940 10735.00 10197.80 103.61
1330 37.6110 11766.00 11646.70 108.47
1331 37.6280 13007.00 13405.70 114.05
1332 37.6450 14458.00 15498.70 120.24
1333 37.6620 16280.00 17982.70 127.59
1334 37.6790 18637.00 20889.60 136.52
1335 37.6960 21824.00 24099.80 147.73
1336 37.7130 25445.00 27458.30 159.51
1337 37.7300 30180.00 30998.60 173.72
1338 37.7470 35310.00 34876.60 187.91
1339 37.7640 40537.00 39145.30 201.34
1340 37.7810 44906.00 43648.50 211.91
1341 37.7980 48243.00 47631.90 219.64
1342 37.8150 49587.00 49652.60 222.68
1343 37.8320 48858.00 48758.90 221.04
1344 37.8490 46694.00 45647.20 216.09
1345 37.8660 43175.00 41881.80 207.79
1346 37.8830 38927.00 38329.10 197.30
1347 37.9000 34767.00 34703.70 186.46
1348 37.9170 30210.00 30513.10 173.81
1349 37.9340 25525.00 25939.50 159.76
1350 37.9510 21229.00 21598.10 145.70
1351 37.9680 17328.00 17923.20 131.64
1352 37.9850 14438.00 15010.60 120.16
1353 38.0020 12222.00 12765.10 110.55
1354 38.0190 10518.00 11042.20 102.56
1355 38.0360 9153.00 9711.28 95.67
1356 38.0530 8011.00 8669.86 89.50
1357 38.0700 7409.00 7843.78 86.08
1358 38.0870 6605.00 7178.24 81.27
1359 38.1040 6075.00 6634.91 77.94
1360 38.1210 5640.00 6185.35 75.10
1361 38.1380 5335.00 5809.17 73.04
1362 38.1550 5228.00 5491.17 72.30
1363 38.1720 4867.00 5219.89 69.76
1364 38.1890 4553.00 4986.58 67.48
1365 38.2060 4331.00 4784.44 65.81
1366 38.2230 4175.00 4608.17 64.61
1367 38.2400 4143.00 4453.42 64.37
1368 38.2570 4022.00 4316.92 63.42
1369 38.2740 3955.00 4195.83 62.89
1370 38.2910 3843.00 4087.91 61.99
1371 38.3080 3788.00 3991.32 61.55
1372 38.3250 3838.00 3904.51 61.95
1373 38.3420 3656.00 3826.20 60.46
1374 38.3590 3640.00 3755.31 60.33
1375 38.3760 3605.00 3690.92 60.04
1376 38.3930 3571.00 3632.26 59.76
1377 38.4100 3412.00 3578.67 58.41
1378 38.4270 3377.00 3529.56 58.11
1379 38.4440 3316.00 3484.46 57.58
1380 38.4610 3355.00 3442.93 57.92
1381 38.4780 3322.00 3404.61 57.64
1382 38.4950 3205.00 3369.16 56.61
1383 38.5120 3202.00 3336.32 56.59
1384 38.5290 3154.00 3305.82 56.16
1385 38.5460 3180.00 3277.44 56.39
1386 38.5630 3187.00 3251.01 56.45
1387 38.5800 3192.00 3226.32 56.50
1388 38.5970 3223.00 3203.26 56.77
1389 38.6140 3174.00 3181.65 56.34
1390 38.6310 3143.00 3161.39 56.06
1391 38.6480 3113.00 3142.36 55.79
1392 38.6650 3199.00 3124.46 56.56
1393 38.6820 3186.00 3107.62 56.44
1394 38.6990 3114.00 3091.73 55.80
1395 38.7160 3076.00 3076.74 55.46
1396 38.7330 3061.00 3062.57 55.33
1397 38.7500 3064.00 3049.18 55.35
1398 38.7670 2977.00 3036.49 54.56
1399 38.7840 3064.00 3024.45 55.35
1400 38.8010 3082.00 3013.04 55.52
1401 38.8180 2947.00 3002.19 54.29
1402 38.8350 2948.00 2991.89 54.30
1403 38.8520 3032.00 2982.08 55.06
1404 38.8690 3005.00 2972.73 54.82
1405 38.8860 2944.00 2963.83 54.26
1406 38.9030 3058.00 2955.34 55.30
1407 38.9200 2916.00 2947.23 54.00
1408 38.9370 2949.00 2939.48 54.30
1409 38.9540 2896.00 2932.07 53.81
1410 38.9710 2781.00 2924.98 52.74
1411 38.9880 2889.00 2918.19 53.75
1412 39.0050 2893.00 2911.69 53.79
1413 39.0220 2850.00 2905.46 53.39
1414 39.0390 2833.00 2899.48 53.23
1415 39.0560 2916.00 2893.73 54.00
1416 39.0730 2860.00 2888.22 53.48
1417 39.0900 3015.00 2882.92 54.91
1418 39.1070 2898.00 2877.82 53.83
1419 39.1240 2759.00 2872.92 52.53
1420 39.1410 2833.00 2868.20 53.23
1421 39.1580 2846.00 2863.65 53.35
1422 39.1750 2953.00 2859.27 54.34
1423 39.1920 2791.00 2855.04 52.83
1424 39.2090 2831.00 2850.97 53.21
1425 39.2260 2828.00 2847.03 53.18
1426 39.2430 2801.00 2843.24 52.92
1427 39.2600 2866.00 2839.57 53.53
1428 39.2770 2854.00 2836.03 53.42
1429 39.2940 2794.00 2832.60 52.86
1430 39.3110 2824.00 2829.29 53.14
1431 39.3280 2734.00 2826.09 52.29
1432 39.3450 2739.00 2822.99 52.34
1433 39.3620 2695.00 2819.99 51.91
1434 39.3790 2721.00 2817.08 52.16
1435 39.3960 2767.00 2814.27 52.60
1436 39.4130 2776.00 2811.54 52.69
1437 39.4300 2745.00 2808.90 52.39
1438 39.4470 2736.00 2806.34 52.31
1439 39.4640 2678.00 2803.86 51.75
1440 39.4810 2795.00 2801.45 52.87
1441 39.4980 2695.00 2799.12 51.91
1442 39.5150 2745.00 2796.85 52.39
1443 39.5320 2853.00 2794.66 53.41
1444 39.5490 2778.00 2792.54 52.71
1445 39.5660 2668.00 2790.48 51.65
1446 39.5830 2697.00 2788.48 51.93
1447 39.6000 2734.00 2786.54 52.29
1448 39.6170 2763.00 2784.67 52.56
1449 39.6340 2805.00 2782.86 52.96
1450 39.6510 2749.00 2781.11 52.43
1451 39.6680 2737.00 2779.42 52.32
1452 39.6850 2723.00 2777.80 52.18
1453 39.7020 2800.00 2776.23 52.92
1454 39.7190 2736.00 2774.73 52.31
1455 39.7360 2761.00 2773.30 52.55
1456 39.7530 2839.00 2771.93 53.28
1457 39.7700 2743.00 2770.64 52.37
1458 39.7870 2734.00 2769.44 52.29
1459 39.8040 2759.00 2768.32 52.53
1460 39.8210 2787.00 2767.30 52.79
1461 39.8380 2724.00 2766.40 52.19
1462 39.8550 2686.00 2765.65 51.83
1463 39.8720 2801.00 2765.05 52.92
1464 39.8890 2770.00 2764.65 52.63
1465 39.9060 2678.00 2757.58 51.75
1466 39.9230 2691.00 2757.87 51.87
1467 39.9400 2752.00 2758.70 52.46
1468 39.9570 2726.00 2759.98 52.21
1469 39.9740 2732.00 2762.00 52.27
1470 39.9910 2797.00 2764.96 52.89
1471 40.0080 2677.00 2765.81 51.74
1472 40.0250 2671.00 2736.70 51.68
1473 40.0420 2642.00 2743.41 51.40
1474 40.0590 2792.00 2750.64 52.84
1475 40.0760 2781.00 2757.82 52.74
1476 40.0930 2663.00 2763.71 51.60
1477 40.1100 2748.00 2763.52 52.42
1478 40.1270 2714.00 2748.72 52.10
1479 40.1440 2602.00 2745.17 51.01
1480 40.1610 2704.00 2740.76 52.00
1481 40.1780 2651.00 2736.43 51.49
1482 40.1950 2715.00 2731.82 52.11
1483 40.2120 2712.00 2726.28 52.08
1484 40.2290 2821.00 2719.96 53.11
1485 40.2460 2754.00 2713.67 52.48
1486 40.2630 2704.00 2708.10 52.00
1487 40.2800 2846.00 2703.48 53.35
1488 40.2970 2765.00 2699.76 52.58
1489 40.3140 2778.00 2696.77 52.71
1490 40.3310 2729.00 2694.35 52.24
1491 40.3480 2706.00 2692.39 52.02
1492 40.3650 2717.00 2690.76 52.12
1493 40.3820 2720.00 2689.40 52.15
1494 40.3990 2798.00 2688.24 52.90
1495 40.4160 2759.00 2687.26 52.53
1496 40.4330 2728.00 2686.41 52.23
1497 40.4500 2734.00 2685.68 52.29
1498 40.4670 2720.00 2685.04 52.15
1499 40.4840 2749.00 2684.47 52.43
1500 40.5010 2705.00 2683.96 52.01
1501 40.5180 2655.00 2683.50 51.53
1502 40.5350 2698.00 2683.08 51.94
1503 40.5520 2761.00 2682.69 52.55
1504 40.5690 2619.00 2682.33 51.18
1505 40.5860 2648.00 2681.99 51.46
1506 40.6030 2697.00 2681.67 51.93
1507 40.6200 2718.00 2681.37 52.13
1508 40.6370 2821.00 2681.08 53.11
1509 40.6540 2789.00 2680.81 52.81
1510 40.6710 2830.00 2680.55 53.20
1511 40.6880 2846.00 2680.29 53.35
1512 40.7050 2745.00 2680.05 52.39
1513 40.7220 2668.00 2679.81 51.65
1514 40.7390 2729.00 2679.58 52.24
1515 40.7560 2724.00 2679.36 52.19
1516 40.7730 2702.00 2679.14 51.98
1517 40.7900 2648.00 2678.93 51.46
1518 40.8070 2724.00 2678.72 52.19
1519 40.8240 2724.00 2678.51 52.19
1520 40.8410 2707.00 2678.31 52.03
1521 40.8580 2688.00 2678.12 51.85
1522 40.8750 2623.00 2677.92 51.22
1523 40.8920 2617.00 2677.73 51.16
1524 40.9090 2713.00 2677.54 52.09
1525 40.9260 2662.00 2677.36 51.59
1526 40.9430 2591.00 2677.18 50.90
1527 40.9600 2663.00 2677.00 51.60
1528 40.9770 2652.00 2676.82 51.50
1529 40.9940 2592.00 2676.64 50.91
1530 41.0110 2670.00 2676.47 51.67
1531 41.0280 2622.00 2676.30 51.21
1532 41.0450 2603.00 2676.13 51.02
1533 41.0620 2648.00 2675.96 51.46
1534 41.0790 2536.00 2675.80 50.36
1535 41.0960 2611.00 2675.63 51.10
1536 41.1130 2666.00 2675.47 51.63
1537 41.1300 2774.00 2675.31 52.67
1538 41.1470 2656.00 2675.15 51.54
1539 41.1640 2676.00 2675.00 51.73
1540 41.1810 2864.00 2674.84 53.52
1541 41.1980 2709.00 2674.69 52.05
1542 41.2150 2693.00 2674.54 51.89
1543 41.2320 2703.00 2674.39 51.99
1544 41.2490 2784.00 2674.24 52.76
1545 41.2660 2657.00 2674.10 51.55
1546 41.2830 2552.00 2673.96 50.52
1547 41.3000 2689.00 2673.81 51.86
1548 41.3170 2617.00 2673.68 51.16
1549 41.3340 2771.00 2673.54 52.64
1550 41.3510 2609.00 2673.41 51.08
1551 41.3680 2697.00 2673.27 51.93
1552 41.3850 2644.00 2673.15 51.42
1553 41.4020 2732.00 2673.02 52.27
1554 41.4190 2718.00 2672.90 52.13
1555 41.4360 2668.00 2672.78 51.65
1556 41.4530 2644.00 2672.66 51.42
1557 41.4700 2692.00 2672.55 51.88
1558 41.4870 2755.00 2672.44 52.49
1559 41.5040 2774.00 2672.33 52.67
1560 41.5210 2714.00 2672.23 52.10
1561 41.5380 2715.00 2672.13 52.11
1562 41.5550 2606.00 2672.04 51.05
1563 41.5720 2635.00 2671.95 51.33
1564 41.5890 2564.00 2671.87 50.64
1565 41.6060 2633.00 2671.79 51.31
1566 41.6230 2687.00 2671.72 51.84
1567 41.6400 2680.00 2671.65 51.77
1568 41.6570 2667.00 2671.59 51.64
1569 41.6740 2663.00 2671.54 51.60
1570 41.6910 2693.00 2671.50 51.89
1571 41.7080 2687.00 2671.47 51.84
1572 41.7250 2724.00 2671.45 52.19
1573 41.7420 2742.00 2671.43 52.36
1574 41.7590 2764.00 2671.43 52.57
1575 41.7760 2772.00 2671.45 52.65
1576 41.7930 2775.00 2671.47 52.68
1577 41.8100 2780.00 2671.52 52.73
1578 41.8270 2728.00 2671.58 52.23
1579 41.8440 2751.00 2671.66 52.45
1580 41.8610 2745.00 2671.81 52.39
1581 41.8780 2723.00 2671.93 52.18
1582 41.8950 2699.00 2672.09 51.95
1583 41.9120 2702.00 2672.27 51.98
1584 41.9290 2657.00 2672.49 51.55
1585 41.9460 2682.00 2672.98 51.79
1586 41.9630 2636.00 2673.28 51.34
1587 41.9800 2770.00 2673.64 52.63
1588 41.9970 2656.00 2674.05 51.54
1589 42.0140 2612.00 2674.93 51.11
1590 42.0310 2594.00 2675.50 50.93
1591 42.0480 2691.00 2676.16 51.87
1592 42.0650 2690.00 2676.93 51.87
1593 42.0820 2741.00 2677.89 52.35
1594 42.0990 2666.00 2678.94 51.63
1595 42.1160 2705.00 2680.17 52.01
1596 42.1330 2755.00 2681.63 52.49
1597 42.1500 2627.00 2683.37 51.25
1598 42.1670 2606.00 2685.47 51.05
1599 42.1840 2741.00 2688.00 52.35
1600 42.2010 2681.00 2691.11 51.78
1601 42.2180 2825.00 2694.97 53.15
1602 42.2350 2751.00 2699.80 52.45
1603 42.2520 2858.00 2705.90 53.46
1604 42.2690 2761.00 2713.64 52.55
1605 42.2860 2729.00 2723.43 52.24
1606 42.3030 2777.00 2735.69 52.70
1607 42.3200 2766.00 2750.71 52.59
1608 42.3370 2830.00 2768.69 53.20
1609 42.3540 2953.00 2789.53 54.34
1610 42.3710 2924.00 2812.62 54.07
1611 42.3880 2978.00 2836.58 54.57
1612 42.4050 2955.00 2859.91 54.36
1613 42.4220 2925.00 2881.47 54.08
1614 42.4390 2937.00 2899.40 54.19
1615 42.4560 2934.00 2910.15 54.17
1616 42.4730 2946.00 2910.07 54.28
1617 42.4900 2959.00 2899.42 54.40
1618 42.5070 2924.00 2882.53 54.07
1619 42.5240 2919.00 2864.02 54.03
1620 42.5410 2923.00 2845.67 54.06
1621 42.5580 2845.00 2826.58 53.34
1622 42.5750 2837.00 2805.64 53.26
1623 42.5920 2886.00 2783.65 53.72
1624 42.6090 2800.00 2762.66 52.92
1625 42.6260 2763.00 2744.31 52.56
1626 42.6430 2756.00 2729.16 52.50
1627 42.6600 2715.00 2717.03 52.11
1628 42.6770 2755.00 2707.45 52.49
1629 42.6940 2807.00 2699.89 52.98
1630 42.7110 2688.00 2693.90 51.85
1631 42.7280 2787.00 2689.10 52.79
1632 42.7450 2916.00 2685.22 54.00
1633 42.7620 2802.00 2682.02 52.93
1634 42.7790 2761.00 2679.36 52.55
1635 42.7960 2724.00 2677.10 52.19
1636 42.8130 2707.00 2675.17 52.03
1637 42.8300 2797.00 2673.50 52.89
1638 42.8470 2827.00 2672.04 53.17
1639 42.8640 2825.00 2670.75 53.15
1640 42.8810 2816.00 2669.61 53.07
1641 42.8980 2710.00 2668.60 52.06
1642 42.9150 2726.00 2667.68 52.21
1643 42.9320 2780.00 2666.86 52.73
1644 42.9490 2701.00 2666.11 51.97
1645 42.9660 2667.00 2665.42 51.64
1646 42.9830 2686.00 2664.79 51.83
1647 43.0000 2657.00 2664.22 51.55
1648 43.0170 2648.00 2663.68 51.46
1649 43.0340 2716.00 2663.19 52.12
1650 43.0510 2723.00 2662.72 52.18
1651 43.0680 2785.00 2662.29 52.77
1652 43.0850 2740.00 2661.89 52.35
1653 43.1020 2598.00 2661.51 50.97
1654 43.1190 2638.00 2661.16 51.36
1655 43.1360 2741.00 2660.82 52.35
1656 43.1530 2728.00 2660.51 52.23
1657 43.1700 2689.00 2660.21 51.86
1658 43.1870 2639.00 2659.92 51.37
1659 43.2040 2643.00 2659.65 51.41
1660 43.2210 2753.00 2659.40 52.47
1661 43.2380 2676.00 2659.15 51.73
1662 43.2550 2807.00 2658.92 52.98
1663 43.2720 2696.00 2658.70 51.92
1664 43.2890 2682.00 2658.49 51.79
1665 43.3060 2618.00 2658.29 51.17
1666 43.3230 2730.00 2658.10 52.25
1667 43.3400 2747.00 2657.92 52.41
1668 43.3570 2753.00 2657.74 52.47
1669 43.3740 2670.00 2657.58 51.67
1670 43.3910 2804.00 2657.42 52.95
1671 43.4080 2709.00 2657.27 52.05
1672 43.4250 2761.00 2657.13 52.55
1673 43.4420 2647.00 2657.00 51.45
1674 43.4590 2702.00 2656.87 51.98
1675 43.4760 2709.00 2656.76 52.05
1676 43.4930 2698.00 2656.65 51.94
1677 43.5100 2661.00 2656.54 51.58
1678 43.5270 2645.00 2656.45 51.43
1679 43.5440 2725.00 2656.36 52.20
1680 43.5610 2622.00 2656.28 51.21
1681 43.5780 2650.00 2656.21 51.48
1682 43.5950 2681.00 2656.15 51.78
1683 43.6120 2644.00 2656.10 51.42
1684 43.6290 2638.00 2656.06 51.36
1685 43.6460 2679.00 2656.02 51.76
1686 43.6630 2606.00 2656.00 51.05
1687 43.6800 2639.00 2655.99 51.37
1688 43.6970 2651.00 2655.98 51.49
1689 43.7140 2722.00 2655.99 52.17
1690 43.7310 2813.00 2656.02 53.04
1691 43.7480 2767.00 2656.05 52.60
1692 43.7650 2720.00 2656.27 52.15
1693 43.7820 2654.00 2656.33 51.52
1694 43.7990 2668.00 2656.41 51.65
1695 43.8160 2703.00 2656.51 51.99
1696 43.8330 2680.00 2656.63 51.77
1697 43.8500 2681.00 2656.76 51.78
1698 43.8670 2650.00 2657.84 51.48
1699 43.8840 2666.00 2658.03 51.63
1700 43.9010 2730.00 2658.25 52.25
1701 43.9180 2663.00 2658.49 51.60
1702 43.9350 2602.00 2658.76 51.01
1703 43.9520 2685.00 2659.29 51.82
1704 43.9690 2730.00 2659.63 52.25
1705 43.9860 2694.00 2660.01 51.90
1706 44.0030 2680.00 2660.43 51.77
1707 44.0200 2686.00 2660.90 51.83
1708 44.0370 2727.00 2661.41 52.22
1709 44.0540 2740.00 2661.99 52.35
1710 44.0710 2711.00 2662.63 52.07
1711 44.0880 2769.00 2663.33 52.62
1712 44.1050 2797.00 2664.12 52.89
1713 44.1220 2637.00 2665.00 51.35
1714 44.1390 2660.00 2665.98 51.58
1715 44.1560 2709.00 2667.07 52.05
1716 44.1730 2708.00 2668.30 52.04
1717 44.1900 2698.00 2669.67 51.94
1718 44.2070 2794.00 2671.21 52.86
1719 44.2240 2680.00 2672.96 51.77
1720 44.2410 2776.00 2674.93 52.69
1721 44.2580 2686.00 2677.18 51.83
1722 44.2750 2745.00 2679.75 52.39
1723 44.2920 2865.00 2682.70 53.53
1724 44.3090 2730.00 2686.10 52.25
1725 44.3260 2787.00 2690.08 52.79
1726 44.3430 2773.00 2694.75 52.66
1727 44.3600 2812.00 2700.30 53.03
1728 44.3770 2819.00 2706.96 53.09
1729 44.3940 2864.00 2715.07 53.52
1730 44.4110 2743.00 2725.03 52.37
1731 44.4280 2793.00 2737.39 52.85
1732 44.4450 2778.00 2752.83 52.71
1733 44.4620 2818.00 2772.16 53.08
1734 44.4790 2855.00 2796.25 53.43
1735 44.4960 2867.00 2825.90 53.54
1736 44.5130 2921.00 2861.65 54.05
1737 44.5300 2986.00 2903.52 54.64
1738 44.5470 2907.00 2950.90 53.92
1739 44.5640 3004.00 3002.14 54.81
1740 44.5810 2870.00 3054.74 53.57
1741 44.5980 2891.00 3106.18 53.77
1742 44.6150 3045.00 3154.68 55.18
1743 44.6320 3055.00 3197.64 55.27
1744 44.6490 3113.00 3230.46 55.79
1745 44.6660 3148.00 3248.56 56.11
1746 44.6830 3161.00 3251.25 56.22
1747 44.7000 3111.00 3241.62 55.78
1748 44.7170 3169.00 3222.60 56.29
1749 44.7340 3219.00 3194.48 56.74
1750 44.7510 3212.00 3156.64 56.67
1751 44.7680 3211.00 3110.50 56.67
1752 44.7850 3118.00 3060.19 55.84
1753 44.8020 2970.00 3010.27 54.50
1754 44.8190 3037.00 2963.25 55.11
1755 44.8360 3028.00 2919.52 55.03
1756 44.8530 2977.00 2878.94 54.56
1757 44.8700 2999.00 2842.16 54.76
1758 44.8870 2923.00 2810.02 54.06
1759 44.9040 2874.00 2783.04 53.61
1760 44.9210 2926.00 2760.90 54.09
1761 44.9380 2975.00 2743.00 54.54
1762 44.9550 2934.00 2728.57 54.17
1763 44.9720 2826.00 2716.77 53.16
1764 44.9890 2791.00 2707.30 52.83
1765 45.0060 2792.00 2699.54 52.84
1766 45.0230 2724.00 2693.12 52.19
1767 45.0400 2692.00 2687.73 51.88
1768 45.0570 2716.00 2683.16 52.12
1769 45.0740 2654.00 2679.17 51.52
1770 45.0910 2758.00 2675.77 52.52
1771 45.1080 2710.00 2672.81 52.06
1772 45.1250 2742.00 2670.20 52.36
1773 45.1420 2851.00 2667.90 53.39
1774 45.1590 2808.00 2665.84 52.99
1775 45.1760 2769.00 2664.01 52.62
1776 45.1930 2784.00 2662.36 52.76
1777 45.2100 2741.00 2660.88 52.35
1778 45.2270 2679.00 2659.54 51.76
1779 45.2440 2717.00 2658.32 52.12
1780 45.2610 2722.00 2657.21 52.17
1781 45.2780 2718.00 2656.21 52.13
1782 45.2950 2642.00 2655.29 51.40
1783 45.3120 2681.00 2654.44 51.78
1784 45.3290 2693.00 2653.67 51.89
1785 45.3460 2748.00 2652.97 52.42
1786 45.3630 2733.00 2652.31 52.28
1787 45.3800 2724.00 2651.72 52.19
1788 45.3970 2728.00 2651.17 52.23
1789 45.4140 2741.00 2650.66 52.35
1790 45.4310 2675.00 2650.20 51.72
1791 45.4480 2735.00 2649.78 52.30
1792 45.4650 2775.00 2649.39 52.68
1793 45.4820 2724.00 2649.03 52.19
1794 45.4990 2706.00 2648.71 52.02
1795 45.5160 2736.00 2648.41 52.31
1796 45.5330 2666.00 2648.14 51.63
1797 45.5500 2811.00 2647.91 53.02
1798 45.5670 2737.00 2647.69 52.32
1799 45.5840 2646.00 2647.51 51.44
1800 45.6010 2647.00 2647.34 51.45
1801 45.6180 2738.00 2647.20 52.33
1802 45.6350 2807.00 2647.09 52.98
1803 45.6520 2657.00 2647.00 51.55
1804 45.6690 2622.00 2646.94 51.21
1805 45.6860 2586.00 2646.89 50.85
1806 45.7030 2596.00 2646.87 50.95
1807 45.7200 2647.00 2646.87 51.45
1808 45.7370 2755.00 2646.90 52.49
1809 45.7540 2705.00 2646.95 52.01
1810 45.7710 2639.00 2647.05 51.37
1811 45.7880 2641.00 2647.15 51.39
1812 45.8050 2739.00 2647.28 52.34
1813 45.8220 2731.00 2647.44 52.26
1814 45.8390 2815.00 2647.62 53.06
1815 45.8560 2806.00 2647.84 52.97
1816 45.8730 2686.00 2648.09 51.83
1817 45.8900 2747.00 2648.37 52.41
1818 45.9070 2680.00 2648.70 51.77
1819 45.9240 2658.00 2649.05 51.56
1820 45.9410 2718.00 2649.45 52.13
1821 45.9580 2669.00 2649.90 51.66
1822 45.9750 2701.00 2650.39 51.97
1823 45.9920 2726.00 2650.93 52.21
1824 46.0090 2706.00 2651.52 52.02
1825 46.0260 2750.00 2652.18 52.44
1826 46.0430 2750.00 2652.90 52.44
1827 46.0600 2723.00 2653.69 52.18
1828 46.0770 2775.00 2654.55 52.68
1829 46.0940 2774.00 2655.50 52.67
1830 46.1110 2757.00 2656.55 52.51
1831 46.1280 2820.00 2657.69 53.10
1832 46.1450 2813.00 2658.95 53.04
1833 46.1620 2778.00 2660.33 52.71
1834 46.1790 2777.00 2661.85 52.70
1835 46.1960 2724.00 2663.53 52.19
1836 46.2130 2792.00 2665.38 52.84
1837 46.2300 2774.00 2667.43 52.67
1838 46.2470 2777.00 2669.70 52.70
1839 46.2640 2690.00 2672.23 51.87
1840 46.2810 2763.00 2675.04 52.56
1841 46.2980 2896.00 2678.18 53.81
1842 46.3150 2687.00 2681.70 51.84
1843 46.3320 2852.00 2685.66 53.40
1844 46.3490 2828.00 2690.13 53.18
1845 46.3660 2825.00 2695.20 53.15
1846 46.3830 2800.00 2700.98 52.92
1847 46.4000 2834.00 2707.63 53.24
1848 46.4170 2734.00 2715.31 52.29
1849 46.4340 2808.00 2724.29 52.99
1850 46.4510 2715.00 2734.89 52.11
1851 46.4680 2862.00 2747.55 53.50
1852 46.4850 2872.00 2762.88 53.59
1853 46.5020 2877.00 2781.66 53.64
1854 46.5190 2764.00 2804.89 52.57
1855 46.5360 2873.00 2833.86 53.60
1856 46.5530 3017.00 2870.06 54.93
1857 46.5700 3047.00 2915.21 55.20
1858 46.5870 3026.00 2971.11 55.01
1859 46.6040 3157.00 3039.21 56.19
1860 46.6210 3073.00 3120.23 55.43
1861 46.6380 3112.00 3213.23 55.79
1862 46.6550 3279.00 3315.00 57.26
1863 46.6720 3383.00 3419.86 58.16
1864 46.6890 3388.00 3520.13 58.21
1865 46.7060 3404.00 3608.36 58.34
1866 46.7230 3536.00 3681.06 59.46
1867 46.7400 3682.00 3739.77 60.68
1868 46.7570 3645.00 3786.59 60.37
1869 46.7740 3581.00 3818.63 59.84
1870 46.7910 3550.00 3827.15 59.58
1871 46.8080 3500.00 3803.28 59.16
1872 46.8250 3514.00 3746.35 59.28
1873 46.8420 3526.00 3666.25 59.38
1874 46.8590 3476.00 3576.65 58.96
1875 46.8760 3341.00 3486.93 57.80
1876 46.8930 3170.00 3399.53 56.30
1877 46.9100 3228.00 3312.84 56.82
1878 46.9270 3069.00 3225.89 55.40
1879 46.9440 3035.00 3141.00 55.09
1880 46.9610 2893.00 3062.20 53.79
1881 46.9780 2970.00 2992.68 54.50
1882 46.9950 2943.00 2933.66 54.25
1883 47.0120 2870.00 2884.79 53.57
1884 47.0290 2859.00 2844.92 53.47
1885 47.0460 2894.00 2812.61 53.80
1886 47.0630 2899.00 2786.48 53.84
1887 47.0800 2807.00 2765.30 52.98
1888 47.0970 2690.00 2748.02 51.87
1889 47.1140 2758.00 2733.80 52.52
1890 47.1310 2733.00 2721.95 52.28
1891 47.1480 2770.00 2711.96 52.63
1892 47.1650 2694.00 2703.44 51.90
1893 47.1820 2765.00 2696.09 52.58
1894 47.1990 2836.00 2689.68 53.25
1895 47.2160 2668.00 2684.05 51.65
1896 47.2330 2667.00 2679.07 51.64
1897 47.2500 2604.00 2674.63 51.03
1898 47.2670 2691.00 2670.66 51.87
1899 47.2840 2757.00 2666.99 52.51
1900 47.3010 2669.00 2663.76 51.66
1901 47.3180 2662.00 2660.84 51.59
1902 47.3350 2727.00 2658.21 52.22
1903 47.3520 2690.00 2655.78 51.87
1904 47.3690 2664.00 2653.30 51.61
1905 47.3860 2656.00 2651.21 51.54
1906 47.4030 2628.00 2649.33 51.26
1907 47.4200 2731.00 2647.59 52.26
1908 47.4370 2688.00 2646.06 51.85
1909 47.4540 2567.00 2644.43 50.67
1910 47.4710 2652.00 2642.91 51.50
1911 47.4880 2821.00 2641.61 53.11
1912 47.5050 2715.00 2640.43 52.11
1913 47.5220 2655.00 2639.29 51.53
1914 47.5390 2591.00 2638.22 50.90
1915 47.5560 2585.00 2637.15 50.84
1916 47.5730 2723.00 2636.20 52.18
1917 47.5900 2645.00 2635.31 51.43
1918 47.6070 2588.00 2634.46 50.87
1919 47.6240 2673.00 2633.67 51.70
1920 47.6410 2628.00 2632.91 51.26
1921 47.6580 2556.00 2632.19 50.56
1922 47.6750 2611.00 2631.50 51.10
1923 47.6920 2542.00 2630.85 50.42
1924 47.7090 2567.00 2630.22 50.67
1925 47.7260 2644.00 2629.63 51.42
1926 47.7430 2596.00 2629.06 50.95
1927 47.7600 2565.00 2628.52 50.65
1928 47.7770 2619.00 2627.99 51.18
1929 47.7940 2581.00 2627.49 50.80
1930 47.8110 2615.00 2627.01 51.14
1931 47.8280 2702.00 2626.55 51.98
1932 47.8450 2648.00 2626.10 51.46
1933 47.8620 2635.00 2625.67 51.33
1934 47.8790 2591.00 2625.26 50.90
1935 47.8960 2551.00 2624.86 50.51
1936 47.9130 2623.00 2624.48 51.22
1937 47.9300 2579.00 2624.10 50.78
1938 47.9470 2536.00 2623.74 50.36
1939 47.9640 2658.00 2623.39 51.56
1940 47.9810 2626.00 2623.06 51.24
1941 47.9980 2627.00 2622.73 51.25
1942 48.0150 2699.00 2622.41 51.95
1943 48.0320 2721.00 2622.11 52.16
1944 48.0490 2631.00 2621.81 51.29
1945 48.0660 2495.00 2621.52 49.95
1946 48.0830 2573.00 2621.24 50.72
1947 48.1000 2648.00 2620.97 51.46
1948 48.1170 2685.00 2620.70 51.82
1949 48.1340 2679.00 2620.45 51.76
1950 48.1510 2589.00 2620.20 50.88
1951 48.1680 2571.00 2619.96 50.71
1952 48.1850 2576.00 2619.72 50.75
1953 48.2020 2614.00 2619.49 51.13
1954 48.2190 2616.00 2619.27 51.15
1955 48.2360 2574.00 2619.06 50.73
1956 48.2530 2543.00 2618.85 50.43
1957 48.2700 2581.00 2618.66 50.80
1958 48.2870 2608.00 2618.46 51.07
1959 48.3040 2636.00 2618.28 51.34
1960 48.3210 2690.00 2618.11 51.87
1961 48.3380 2600.00 2617.94 50.99
1962 48.3550 2648.00 2617.78 51.46
1963 48.3720 2551.00 2617.63 50.51
1964 48.3890 2728.00 2617.49 52.23
1965 48.4060 2681.00 2617.36 51.78
1966 48.4230 2688.00 2617.24 51.85
1967 48.4400 2678.00 2617.14 51.75
1968 48.4570 2651.00 2617.05 51.49
1969 48.4740 2657.00 2616.97 51.55
1970 48.4910 2550.00 2616.92 50.50
1971 48.5080 2524.00 2616.88 50.24
1972 48.5250 2582.00 2616.88 50.81
1973 48.5420 2625.00 2616.90 51.23
1974 48.5590 2644.00 2616.97 51.42
1975 48.5760 2754.00 2617.09 52.48
1976 48.5930 2697.00 2617.27 51.93
1977 48.6100 2595.00 2617.54 50.94
1978 48.6270 2601.00 2617.91 51.00
1979 48.6440 2603.00 2618.43 51.02
1980 48.6610 2630.00 2619.13 51.28
1981 48.6780 2585.00 2620.04 50.84
1982 48.6950 2669.00 2621.21 51.66
1983 48.7120 2720.00 2622.68 52.15
1984 48.7290 2688.00 2624.47 51.85
1985 48.7460 2659.00 2626.57 51.57
1986 48.7630 2652.00 2628.93 51.50
1987 48.7800 2670.00 2631.40 51.67
1988 48.7970 2700.00 2633.77 51.96
1989 48.8140 2697.00 2635.74 51.93
1990 48.8310 2628.00 2637.00 51.26
1991 48.8480 2633.00 2637.38 51.31
1992 48.8650 2600.00 2636.94 50.99
1993 48.8820 2684.00 2635.91 51.81
1994 48.8990 2672.00 2634.57 51.69
1995 48.9160 2641.00 2633.06 51.39
1996 48.9330 2675.00 2631.42 51.72
1997 48.9500 2587.00 2629.59 50.86
1998 48.9670 2568.00 2627.55 50.68
1999 48.9840 2621.00 2625.37 51.20
2000 49.0010 2614.00 2623.19 51.13
2001 49.0180 2591.00 2621.14 50.90
2002 49.0350 2619.00 2619.31 51.18
2003 49.0520 2606.00 2617.72 51.05
2004 49.0690 2622.00 2616.37 51.21
2005 49.0860 2521.00 2615.24 50.21
2006 49.1030 2624.00 2614.29 51.22
2007 49.1200 2626.00 2613.51 51.24
2008 49.1370 2545.00 2612.85 50.45
2009 49.1540 2718.00 2612.29 52.13
2010 49.1710 2603.00 2611.82 51.02
2011 49.1880 2713.00 2611.40 52.09
2012 49.2050 2586.00 2611.04 50.85
2013 49.2220 2633.00 2610.72 51.31
2014 49.2390 2639.00 2610.43 51.37
2015 49.2560 2601.00 2610.16 51.00
2016 49.2730 2651.00 2609.91 51.49
2017 49.2900 2663.00 2609.68 51.60
2018 49.3070 2644.00 2609.46 51.42
2019 49.3240 2626.00 2609.26 51.24
2020 49.3410 2669.00 2609.07 51.66
2021 49.3580 2572.00 2608.88 50.71
2022 49.3750 2657.00 2608.71 51.55
2023 49.3920 2646.00 2608.54 51.44
2024 49.4090 2620.00 2608.38 51.19
2025 49.4260 2674.00 2608.22 51.71
2026 49.4430 2571.00 2608.07 50.71
2027 49.4600 2668.00 2607.93 51.65
2028 49.4770 2527.00 2607.79 50.27
2029 49.4940 2536.00 2607.66 50.36
2030 49.5110 2598.00 2607.53 50.97
2031 49.5280 2610.00 2607.40 51.09
2032 49.5450 2611.00 2607.28 51.10
2033 49.5620 2665.00 2607.16 51.62
2034 49.5790 2691.00 2607.04 51.87
2035 49.5960 2595.00 2606.93 50.94
2036 49.6130 2562.00 2606.42 50.62
2037 49.6300 2553.00 2606.32 50.53
2038 49.6470 2605.00 2606.22 51.04
2039 49.6640 2615.00 2606.13 51.14
2040 49.6810 2528.00 2606.04 50.28
2041 49.6980 2570.00 2605.95 50.70
2042 49.7150 2647.00 2605.87 51.45
2043 49.7320 2605.00 2605.12 51.04
2044 49.7490 2579.00 2605.05 50.78
2045 49.7660 2555.00 2604.99 50.55
2046 49.7830 2606.00 2604.93 51.05
2047 49.8000 2636.00 2604.87 51.34
2048 49.8170 2609.00 2604.82 51.08
2049 49.8340 2657.00 2604.77 51.55
2050 49.8510 2574.00 2604.50 50.73
2051 49.8680 2611.00 2604.46 51.10
2052 49.8850 2587.00 2604.43 50.86
2053 49.9020 2590.00 2604.41 50.89
2054 49.9190 2577.00 2604.39 50.76
2055 49.9360 2675.00 2604.38 51.72
2056 49.9530 2582.00 2604.37 50.81
2057 49.9700 2590.00 2604.37 50.89
2058 49.9870 2586.00 2604.38 50.85
2059 50.0040 2705.00 2604.40 52.01
2060 50.0210 2679.00 2604.43 51.76
2061 50.0380 2719.00 2604.46 52.14
2062 50.0550 2504.00 2604.51 50.04
2063 50.0720 2485.00 2604.57 49.85
2064 50.0890 2613.00 2604.65 51.12
2065 50.1060 2541.00 2604.74 50.41
2066 50.1230 2576.00 2604.84 50.75
2067 50.1400 2658.00 2604.97 51.56
2068 50.1570 2636.00 2605.11 51.34
2069 50.1740 2604.00 2605.27 51.03
2070 50.1910 2581.00 2605.46 50.80
2071 50.2080 2601.00 2605.68 51.00
2072 50.2250 2563.00 2605.93 50.63
2073 50.2420 2554.00 2606.22 50.54
2074 50.2590 2523.00 2606.54 50.23
2075 50.2760 2600.00 2606.91 50.99
2076 50.2930 2514.00 2607.34 50.14
2077 50.3100 2588.00 2607.82 50.87
2078 50.3270 2631.00 2608.38 51.29
2079 50.3440 2683.00 2609.01 51.80
2080 50.3610 2649.00 2609.75 51.47
2081 50.3780 2649.00 2610.60 51.47
2082 50.3950 2631.00 2611.60 51.29
2083 50.4120 2620.00 2612.78 51.19
2084 50.4290 2630.00 2614.19 51.28
2085 50.4460 2671.00 2615.89 51.68
2086 50.4630 2715.00 2617.97 52.11
2087 50.4800 2672.00 2620.54 51.69
2088 50.4970 2644.00 2623.73 51.42
2089 50.5140 2727.00 2627.70 52.22
2090 50.5310 2642.00 2632.66 51.40
2091 50.5480 2655.00 2638.82 51.53
2092 50.5650 2600.00 2646.38 50.99
2093 50.5820 2680.00 2655.54 51.77
2094 50.5990 2718.00 2666.45 52.13
2095 50.6160 2712.00 2679.12 52.08
2096 50.6330 2642.00 2693.35 51.40
2097 50.6500 2659.00 2710.93 51.57
2098 50.6670 2648.00 2726.39 51.46
2099 50.6840 2674.00 2740.72 51.71
2100 50.7010 2665.00 2752.54 51.62
2101 50.7180 2637.00 2760.71 51.35
2102 50.7350 2694.00 2764.84 51.90
2103 50.7520 2794.00 2765.28 52.86
2104 50.7690 2720.00 2767.47 52.15
2105 50.7860 2691.00 2762.57 51.87
2106 50.8030 2798.00 2758.25 52.90
2107 50.8200 2679.00 2749.47 51.76
2108 50.8370 2676.00 2739.04 51.73
2109 50.8540 2774.00 2727.39 52.67
2110 50.8710 2717.00 2715.06 52.12
2111 50.8880 2621.00 2702.64 51.20
2112 50.9050 2616.00 2690.59 51.15
2113 50.9220 2726.00 2680.56 52.21
2114 50.9390 2775.00 2670.21 52.68
2115 50.9560 2739.00 2661.03 52.34
2116 50.9730 2670.00 2653.08 51.67
2117 50.9900 2688.00 2646.34 51.85
2118 51.0070 2738.00 2640.71 52.33
2119 51.0240 2664.00 2636.06 51.61
2120 51.0410 2634.00 2632.25 51.32
2121 51.0580 2675.00 2629.13 51.72
2122 51.0750 2589.00 2626.58 50.88
2123 51.0920 2594.00 2624.48 50.93
2124 51.1090 2583.00 2622.74 50.82
2125 51.1260 2570.00 2621.29 50.70
2126 51.1430 2615.00 2620.07 51.14
2127 51.1600 2620.00 2619.03 51.19
2128 51.1770 2597.00 2618.14 50.96
2129 51.1940 2669.00 2617.37 51.66
2130 51.2110 2638.00 2616.70 51.36
2131 51.2280 2604.00 2616.11 51.03
2132 51.2450 2624.00 2615.59 51.22
2133 51.2620 2497.00 2615.13 49.97
2134 51.2790 2536.00 2614.73 50.36
2135 51.2960 2482.00 2614.36 49.82
2136 51.3130 2482.00 2614.05 49.82
2137 51.3300 2543.00 2613.76 50.43
2138 51.3470 2566.00 2613.51 50.66
2139 51.3640 2535.00 2613.29 50.35
2140 51.3810 2534.00 2613.09 50.34
2141 51.3980 2452.00 2612.92 49.52
2142 51.4150 2558.00 2612.76 50.58
2143 51.4320 2571.00 2612.63 50.71
2144 51.4490 2540.00 2612.52 50.40
2145 51.4660 2525.00 2612.42 50.25
2146 51.4830 2505.00 2612.34 50.05
2147 51.5000 2412.00 2612.27 49.11
2148 51.5170 2482.00 2612.22 49.82
2149 51.5340 2555.00 2612.18 50.55
2150 51.5510 2633.00 2612.15 51.31
2151 51.5680 2614.00 2612.13 51.13
2152 51.5850 2609.00 2612.12 51.08
2153 51.6020 2553.00 2612.12 50.53
2154 51.6190 2460.00 2612.13 49.60
2155 51.6360 2507.00 2612.16 50.07
2156 51.6530 2584.00 2612.19 50.83
2157 51.6700 2544.00 2612.22 50.44
2158 51.6870 2465.00 2612.27 49.65
2159 51.7040 2494.00 2612.33 49.94
2160 51.7210 2580.00 2612.39 50.79
2161 51.7380 2447.00 2612.46 49.47
2162 51.7550 2416.00 2612.54 49.15
2163 51.7720 2500.00 2612.63 50.00
2164 51.7890 2564.00 2612.72 50.64
2165 51.8060 2560.00 2612.82 50.60
2166 51.8230 2486.00 2612.93 49.86
2167 51.8400 2470.00 2613.05 49.70
2168 51.8570 2550.00 2613.17 50.50
2169 51.8740 2559.00 2613.30 50.59
2170 51.8910 2546.00 2613.44 50.46
2171 51.9080 2612.00 2613.58 51.11
2172 51.9250 2525.00 2613.73 50.25
2173 51.9420 2463.00 2613.89 49.63
2174 51.9590 2471.00 2614.06 49.71
2175 51.9760 2455.00 2614.23 49.55
2176 51.9930 2506.00 2614.40 50.06
2177 52.0100 2499.00 2614.59 49.99
2178 52.0270 2533.00 2614.78 50.33
2179 52.0440 2456.00 2614.99 49.56
2180 52.0610 2455.00 2615.20 49.55
2181 52.0780 2589.00 2615.42 50.88
2182 52.0950 2591.00 2615.65 50.90
2183 52.1120 2466.00 2615.88 49.66
2184 52.1290 2500.00 2616.12 50.00
2185 52.1460 2525.00 2616.38 50.25
2186 52.1630 2593.00 2616.64 50.92
2187 52.1800 2516.00 2616.91 50.16
2188 52.1970 2623.00 2617.19 51.22
2189 52.2140 2567.00 2617.48 50.67
2190 52.2310 2516.00 2617.78 50.16
2191 52.2480 2584.00 2618.09 50.83
2192 52.2650 2592.00 2618.41 50.91
2193 52.2820 2544.00 2618.74 50.44
2194 52.2990 2639.00 2619.08 51.37
2195 52.3160 2539.00 2619.43 50.39
2196 52.3330 2511.00 2619.79 50.11
2197 52.3500 2591.00 2620.17 50.90
2198 52.3670 2573.00 2620.56 50.72
2199 52.3840 2629.00 2620.95 51.27
2200 52.4010 2659.00 2621.37 51.57
2201 52.4180 2569.00 2621.79 50.69
2202 52.4350 2433.00 2622.23 49.33
2203 52.4520 2535.00 2622.68 50.35
2204 52.4690 2514.00 2623.14 50.14
2205 52.4860 2523.00 2623.62 50.23
2206 52.5030 2568.00 2624.11 50.68
2207 52.5200 2530.00 2624.62 50.30
2208 52.5370 2573.00 2625.14 50.72
2209 52.5540 2597.00 2625.68 50.96
2210 52.5710 2554.00 2626.24 50.54
2211 52.5880 2554.00 2626.81 50.54
2212 52.6050 2529.00 2627.41 50.29
2213 52.6220 2518.00 2628.02 50.18
2214 52.6390 2527.00 2628.65 50.27
2215 52.6560 2518.00 2629.30 50.18
2216 52.6730 2525.00 2629.97 50.25
2217 52.6900 2521.00 2630.66 50.21
2218 52.7070 2538.00 2631.37 50.38
2219 52.7240 2493.00 2632.11 49.93
2220 52.7410 2594.00 2632.87 50.93
2221 52.7580 2621.00 2633.66 51.20
2222 52.7750 2605.00 2634.47 51.04
2223 52.7920 2547.00 2635.30 50.47
2224 52.8090 2509.00 2636.17 50.09
2225 52.8260 2506.00 2637.06 50.06
2226 52.8430 2606.00 2637.98 51.05
2227 52.8600 2681.00 2638.94 51.78
2228 52.8770 2579.00 2639.92 50.78
2229 52.8940 2452.00 2640.94 49.52
2230 52.9110 2473.00 2642.00 49.73
2231 52.9280 2557.00 2643.09 50.57
2232 52.9450 2597.00 2644.22 50.96
2233 52.9620 2571.00 2645.38 50.71
2234 52.9790 2573.00 2646.59 50.72
2235 52.9960 2632.00 2647.84 51.30
2236 53.0130 2650.00 2649.14 51.48
2237 53.0300 2670.00 2650.48 51.67
2238 53.0470 2702.00 2651.87 51.98
2239 53.0640 2666.00 2653.31 51.63
2240 53.0810 2798.00 2654.81 52.90
2241 53.0980 2566.00 2656.36 50.66
2242 53.1150 2703.00 2657.96 51.99
2243 53.1320 2594.00 2659.63 50.93
2244 53.1490 2654.00 2661.37 51.52
2245 53.1660 2543.00 2663.17 50.43
2246 53.1830 2567.00 2665.04 50.67
2247 53.2000 2659.00 2666.98 51.57
2248 53.2170 2674.00 2669.01 51.71
2249 53.2340 2586.00 2671.11 50.85
2250 53.2510 2669.00 2673.30 51.66
2251 53.2680 2670.00 2675.58 51.67
2252 53.2850 2738.00 2677.95 52.33
2253 53.3020 2613.00 2680.43 51.12
2254 53.3190 2651.00 2683.01 51.49
2255 53.3360 2664.00 2685.70 51.61
2256 53.3530 2630.00 2688.51 51.28
2257 53.3700 2637.00 2691.45 51.35
2258 53.3870 2713.00 2694.52 52.09
2259 53.4040 2713.00 2697.72 52.09
2260 53.4210 2762.00 2701.08 52.55
2261 53.4380 2745.00 2704.59 52.39
2262 53.4550 2707.00 2708.27 52.03
2263 53.4720 2657.00 2712.13 51.55
2264 53.4890 2749.00 2716.18 52.43
2265 53.5060 2641.00 2720.42 51.39
2266 53.5230 2738.00 2724.88 52.33
2267 53.5400 2846.00 2729.57 53.35
2268 53.5570 2754.00 2734.50 52.48
2269 53.5740 2752.00 2739.70 52.46
2270 53.5910 2768.00 2745.17 52.61
2271 53.6080 2738.00 2750.94 52.33
2272 53.6250 2734.00 2757.03 52.29
2273 53.6420 2676.00 2763.47 51.73
2274 53.6590 2689.00 2770.28 51.86
2275 53.6760 2746.00 2777.48 52.40
2276 53.6930 2842.00 2785.13 53.31
2277 53.7100 2762.00 2793.23 52.55
2278 53.7270 2781.00 2801.84 52.74
2279 53.7440 2840.00 2811.00 53.29
2280 53.7610 2847.00 2820.75 53.36
2281 53.7780 2799.00 2831.15 52.91
2282 53.7950 2805.00 2842.24 52.96
2283 53.8120 2854.00 2854.11 53.42
2284 53.8290 2896.00 2866.82 53.81
2285 53.8460 2881.00 2880.45 53.67
2286 53.8630 2872.00 2895.09 53.59
2287 53.8800 2920.00 2910.84 54.04
2288 53.8970 2994.00 2927.82 54.72
2289 53.9140 2943.00 2946.16 54.25
2290 53.9310 2934.00 2966.01 54.17
2291 53.9480 3003.00 2987.54 54.80
2292 53.9650 3088.00 3010.93 55.57
2293 53.9820 2998.00 3036.41 54.75
2294 53.9990 3088.00 3064.26 55.57
2295 54.0160 3067.00 3094.76 55.38
2296 54.0330 3252.00 3128.29 57.03
2297 54.0500 3298.00 3165.28 57.43
2298 54.0670 3319.00 3206.28 57.61
2299 54.0840 3554.00 3251.87 59.62
2300 54.1010 3741.00 3303.10 61.16
2301 54.1180 3698.00 3360.97 60.81
2302 54.1350 3743.00 3426.98 61.18
2303 54.1520 4003.00 3503.03 63.27
2304 54.1690 4201.00 3591.71 64.82
2305 54.1860 4329.00 3696.28 65.80
2306 54.2030 4605.00 3820.88 67.86
2307 54.2200 4699.00 3970.91 68.55
2308 54.2370 5084.00 4152.56 71.30
2309 54.2540 5441.00 4373.40 73.76
2310 54.2710 5764.00 4641.64 75.92
2311 54.2880 6101.00 4966.42 78.11
2312 54.3050 6781.00 5356.90 82.35
2313 54.3220 7076.00 5821.69 84.12
2314 54.3390 7526.00 6367.85 86.75
2315 54.3560 8090.00 6999.56 89.94
2316 54.3730 8584.00 7715.95 92.65
2317 54.3900 9111.00 8508.10 95.45
2318 54.4070 9604.00 9356.25 98.00
2319 54.4240 10219.00 10224.70 101.09
2320 54.4410 10636.00 11064.10 103.13
2321 54.4580 11061.00 11815.70 105.17
2322 54.4750 11544.00 12427.10 107.44
2323 54.4920 12142.00 12870.30 110.19
2324 54.5090 12569.00 13153.90 112.11
2325 54.5260 12808.00 13316.70 113.17
2326 54.5430 13053.00 13406.50 114.25
2327 54.5600 13326.00 13457.20 115.44
2328 54.5770 13759.00 13475.30 117.30
2329 54.5940 13874.00 13442.00 117.79
2330 54.6110 13689.00 13324.20 117.00
2331 54.6280 13705.00 13091.00 117.07
2332 54.6450 13486.00 12727.20 116.13
2333 54.6620 12894.00 12240.10 113.55
2334 54.6790 12363.00 11658.30 111.19
2335 54.6960 11668.00 11022.90 108.02
2336 54.7130 11133.00 10374.10 105.51
2337 54.7300 10314.00 9740.57 101.56
2338 54.7470 9686.00 9133.85 98.42
2339 54.7640 9166.00 8553.04 95.74
2340 54.7810 8428.00 7990.83 91.80
2341 54.7980 7751.00 7443.09 88.04
2342 54.8150 7040.00 6912.67 83.90
2343 54.8320 6462.00 6408.44 80.39
2344 54.8490 5959.00 5940.77 77.19
2345 54.8660 5396.00 5517.44 73.46
2346 54.8830 5166.00 5142.12 71.87
2347 54.9000 4809.00 4814.67 69.35
2348 54.9170 4538.00 4532.49 67.36
2349 54.9340 4342.00 4291.38 65.89
2350 54.9510 4084.00 4086.72 63.91
2351 54.9680 3904.00 3913.74 62.48
2352 54.9850 3889.00 3767.88 62.36
2353 55.0020 3722.00 3644.88 61.01
2354 55.0190 3626.00 3540.93 60.22
2355 55.0360 3417.00 3452.71 58.46
2356 55.0530 3365.00 3377.37 58.01
2357 55.0700 3254.00 3312.51 57.04
2358 55.0870 3236.00 3256.20 56.89
2359 55.1040 3256.00 3206.88 57.06
2360 55.1210 3168.00 3163.27 56.28
2361 55.1380 3108.00 3124.42 55.75
2362 55.1550 3079.00 3089.55 55.49
2363 55.1720 3141.00 3058.07 56.04
2364 55.1890 3029.00 3029.48 55.04
2365 55.2060 2993.00 3003.43 54.71
2366 55.2230 2983.00 2979.57 54.62
2367 55.2400 2949.00 2957.67 54.30
2368 55.2570 2978.00 2937.51 54.57
2369 55.2740 2954.00 2918.90 54.35
2370 55.2910 2925.00 2901.67 54.08
2371 55.3080 2888.00 2885.70 53.74
2372 55.3250 2960.00 2870.85 54.41
2373 55.3420 2776.00 2857.04 52.69
2374 55.3590 2831.00 2844.15 53.21
2375 55.3760 2838.00 2832.12 53.27
2376 55.3930 2823.00 2820.86 53.13
2377 55.4100 2930.00 2810.31 54.13
2378 55.4270 2837.00 2800.40 53.26
2379 55.4440 2828.00 2791.10 53.18
2380 55.4610 2926.00 2782.34 54.09
2381 55.4780 2853.00 2774.09 53.41
2382 55.4950 2750.00 2766.34 52.44
2383 55.5120 2782.00 2758.99 52.74
2384 55.5290 2736.00 2752.07 52.31
2385 55.5460 2707.00 2745.52 52.03
2386 55.5630 2668.00 2739.28 51.65
2387 55.5800 2656.00 2733.37 51.54
2388 55.5970 2653.00 2727.75 51.51
2389 55.6140 2633.00 2722.41 51.31
2390 55.6310 2680.00 2717.33 51.77
2391 55.6480 2703.00 2712.50 51.99
2392 55.6650 2667.00 2707.89 51.64
2393 55.6820 2615.00 2703.50 51.14
2394 55.6990 2634.00 2699.31 51.32
2395 55.7160 2540.00 2695.30 50.40
2396 55.7330 2622.00 2691.48 51.21
2397 55.7500 2693.00 2687.82 51.89
2398 55.7670 2677.00 2684.31 51.74
2399 55.7840 2687.00 2680.96 51.84
2400 55.8010 2665.00 2677.74 51.62
2401 55.8180 2656.00 2674.66 51.54
2402 55.8350 2707.00 2671.71 52.03
2403 55.8520 2649.00 2668.87 51.47
2404 55.8690 2622.00 2666.14 51.21
2405 55.8860 2623.00 2663.53 51.22
2406 55.9030 2657.00 2661.01 51.55
2407 55.9200 2606.00 2658.60 51.05
2408 55.9370 2689.00 2656.27 51.86
2409 55.9540 2530.00 2654.04 50.30
2410 55.9710 2590.00 2651.90 50.89
2411 55.9880 2628.00 2649.84 51.26
2412 56.0050 2621.00 2647.86 51.20
2413 56.0220 2660.00 2645.97 51.58
2414 56.0390 2601.00 2644.15 51.00
2415 56.0560 2550.00 2642.42 50.50
2416 56.0730 2709.00 2640.78 52.05
2417 56.0900 2687.00 2639.22 51.84
2418 56.1070 2678.00 2637.76 51.75
2419 56.1240 2562.00 2636.39 50.62
2420 56.1410 2626.00 2635.12 51.24
2421 56.1580 2685.00 2633.96 51.82
2422 56.1750 2538.00 2632.91 50.38
2423 56.1920 2577.00 2631.96 50.76
2424 56.2090 2580.00 2631.12 50.79
2425 56.2260 2466.00 2630.39 49.66
2426 56.2430 2445.00 2629.74 49.45
2427 56.2600 2581.00 2629.16 50.80
2428 56.2770 2488.00 2628.62 49.88
2429 56.2940 2572.00 2628.06 50.71
2430 56.3110 2583.00 2627.46 50.82
2431 56.3280 2515.00 2626.76 50.15
2432 56.3450 2525.00 2625.94 50.25
2433 56.3620 2554.00 2624.99 50.54
2434 56.3790 2605.00 2623.91 51.04
2435 56.3960 2581.00 2622.73 50.80
2436 56.4130 2544.00 2621.47 50.44
2437 56.4300 2548.00 2620.16 50.48
2438 56.4470 2585.00 2618.81 50.84
2439 56.4640 2520.00 2617.43 50.20
2440 56.4810 2589.00 2616.02 50.88
2441 56.4980 2643.00 2614.59 51.41
2442 56.5150 2627.00 2613.15 51.25
2443 56.5320 2563.00 2611.74 50.63
2444 56.5490 2611.00 2610.35 51.10
2445 56.5660 2612.00 2609.02 51.11
2446 56.5830 2541.00 2607.75 50.41
2447 56.6000 2548.00 2606.55 50.48
2448 56.6170 2547.00 2605.41 50.47
2449 56.6340 2477.00 2604.34 49.77
2450 56.6510 2467.00 2603.33 49.67
2451 56.6680 2516.00 2602.38 50.16
2452 56.6850 2570.00 2601.49 50.70
2453 56.7020 2688.00 2600.64 51.85
2454 56.7190 2533.00 2599.83 50.33
2455 56.7360 2570.00 2599.41 50.70
2456 56.7530 2607.00 2598.68 51.06
2457 56.7700 2684.00 2597.97 51.81
2458 56.7870 2588.00 2597.29 50.87
2459 56.8040 2591.00 2596.63 50.90
2460 56.8210 2457.00 2596.00 49.57
2461 56.8380 2615.00 2595.38 51.14
2462 56.8550 2555.00 2596.29 50.55
2463 56.8720 2568.00 2595.71 50.68
2464 56.8890 2531.00 2595.15 50.31
2465 56.9060 2529.00 2594.60 50.29
2466 56.9230 2482.00 2594.06 49.82
2467 56.9400 2619.00 2593.54 51.18
2468 56.9570 2518.00 2595.02 50.18
2469 56.9740 2593.00 2594.54 50.92
2470 56.9910 2508.00 2595.28 50.08
2471 57.0080 2516.00 2594.83 50.16
2472 57.0250 2576.00 2594.38 50.75
2473 57.0420 2501.00 2593.94 50.01
2474 57.0590 2593.00 2594.84 50.92
2475 57.0760 2610.00 2594.43 51.09
2476 57.0930 2538.00 2594.02 50.38
2477 57.1100 2605.00 2593.63 51.04
2478 57.1270 2567.00 2593.24 50.67
2479 57.1440 2450.00 2592.86 49.50
2480 57.1610 2499.00 2592.49 49.99
2481 57.1780 2554.00 2592.13 50.54
2482 57.1950 2650.00 2591.78 51.48
2483 57.2120 2511.00 2591.43 50.11
2484 57.2290 2613.00 2591.08 51.12
2485 57.2460 2493.00 2590.75 49.93
2486 57.2630 2592.00 2590.42 50.91
2487 57.2800 2506.00 2590.10 50.06
2488 57.2970 2558.00 2589.78 50.58
2489 57.3140 2543.00 2589.47 50.43
2490 57.3310 2593.00 2589.17 50.92
2491 57.3480 2587.00 2588.87 50.86
2492 57.3650 2545.00 2588.58 50.45
2493 57.3820 2591.00 2588.29 50.90
2494 57.3990 2539.00 2588.01 50.39
2495 57.4160 2589.00 2587.74 50.88
2496 57.4330 2507.00 2587.47 50.07
2497 57.4500 2419.00 2587.20 49.18
2498 57.4670 2550.00 2586.94 50.50
2499 57.4840 2489.00 2586.69 49.89
2500 57.5010 2348.00 2586.44 48.46
2501 57.5180 2461.00 2586.20 49.61
2502 57.5350 2596.00 2585.96 50.95
2503 57.5520 2498.00 2585.72 49.98
2504 57.5690 2502.00 2585.49 50.02
2505 57.5860 2521.00 2585.27 50.21
2506 57.6030 2502.00 2585.05 50.02
2507 57.6200 2604.00 2584.83 51.03
2508 57.6370 2544.00 2584.62 50.44
2509 57.6540 2506.00 2584.42 50.06
2510 57.6710 2537.00 2584.22 50.37
2511 57.6880 2509.00 2584.02 50.09
2512 57.7050 2570.00 2583.83 50.70
2513 57.7220 2502.00 2583.65 50.02
2514 57.7390 2451.00 2583.47 49.51
2515 57.7560 2557.00 2583.29 50.57
2516 57.7730 2599.00 2583.12 50.98
2517 57.7900 2427.00 2582.95 49.26
2518 57.8070 2470.00 2582.79 49.70
2519 57.8240 2525.00 2582.64 50.25
2520 57.8410 2557.00 2582.50 50.57
2521 57.8580 2615.00 2582.36 51.14
2522 57.8750 2576.00 2582.23 50.75
2523 57.8920 2470.00 2582.11 49.70
2524 57.9090 2565.00 2582.01 50.65
2525 57.9260 2493.00 2581.92 49.93
2526 57.9430 2532.00 2581.84 50.32
2527 57.9600 2573.00 2581.78 50.72
2528 57.9770 2615.00 2581.74 51.14
2529 57.9940 2635.00 2581.72 51.33
2530 58.0110 2547.00 2581.73 50.47
2531 58.0280 2633.00 2581.76 51.31
2532 58.0450 2506.00 2581.81 50.06
2533 58.0620 2625.00 2581.89 51.23
2534 58.0790 2524.00 2581.99 50.24
2535 58.0960 2690.00 2582.10 51.87
2536 58.1130 2714.00 2582.23 52.10
2537 58.1300 2624.00 2582.34 51.22
2538 58.1470 2607.00 2582.44 51.06
2539 58.1640 2562.00 2582.50 50.62
2540 58.1810 2638.00 2582.52 51.36
2541 58.1980 2546.00 2582.49 50.46
2542 58.2150 2538.00 2582.40 50.38
2543 58.2320 2467.00 2582.27 49.67
2544 58.2490 2455.00 2582.11 49.55
2545 58.2660 2437.00 2581.93 49.37
2546 58.2830 2457.00 2581.73 49.57
2547 58.3000 2548.00 2576.90 50.48
2548 58.3170 2536.00 2576.73 50.36
2549 58.3340 2596.00 2576.53 50.95
2550 58.3510 2466.00 2576.33 49.66
2551 58.3680 2479.00 2576.12 49.79
2552 58.3850 2574.00 2575.91 50.73
2553 58.4020 2660.00 2575.72 51.58
2554 58.4190 2606.00 2575.54 51.05
2555 58.4360 2514.00 2575.38 50.14
2556 58.4530 2500.00 2572.99 50.00
2557 58.4700 2561.00 2572.89 50.61
2558 58.4870 2602.00 2572.81 51.01
2559 58.5040 2531.00 2570.13 50.31
2560 58.5210 2503.00 2570.11 50.03
2561 58.5380 2487.00 2570.10 49.87
2562 58.5550 2483.00 2570.11 49.83
2563 58.5720 2602.00 2570.13 51.01
2564 58.5890 2522.00 2570.16 50.22
2565 58.6060 2425.00 2570.20 49.24
2566 58.6230 2508.00 2570.25 50.08
2567 58.6400 2530.00 2569.02 50.30
2568 58.6570 2516.00 2569.09 50.16
2569 58.6740 2527.00 2569.18 50.27
2570 58.6910 2488.00 2569.27 49.88
2571 58.7080 2542.00 2569.36 50.42
2572 58.7250 2543.00 2569.47 50.43
2573 58.7420 2516.00 2569.57 50.16
2574 58.7590 2495.00 2569.69 49.95
2575 58.7760 2480.00 2569.81 49.80
2576 58.7930 2553.00 2569.93 50.53
2577 58.8100 2667.00 2570.06 51.64
2578 58.8270 2532.00 2570.20 50.32
2579 58.8440 2568.00 2570.34 50.68
2580 58.8610 2656.00 2570.49 51.54
2581 58.8780 2674.00 2570.64 51.71
2582 58.8950 2599.00 2570.80 50.98
2583 58.9120 2515.00 2570.97 50.15
2584 58.9290 2573.00 2571.15 50.72
2585 58.9460 2532.00 2571.33 50.32
2586 58.9630 2617.00 2571.52 51.16
2587 58.9800 2545.00 2571.72 50.45
2588 58.9970 2698.00 2571.92 51.94
2589 59.0140 2556.00 2572.14 50.56
2590 59.0310 2609.00 2572.36 51.08
2591 59.0480 2636.00 2572.59 51.34
2592 59.0650 2530.00 2572.83 50.30
2593 59.0820 2567.00 2573.08 50.67
2594 59.0990 2577.00 2573.35 50.76
2595 59.1160 2533.00 2573.62 50.33
2596 59.1330 2566.00 2573.90 50.66
2597 59.1500 2562.00 2574.20 50.62
2598 59.1670 2568.00 2574.51 50.68
2599 59.1840 2447.00 2574.83 49.47
2600 59.2010 2556.00 2575.16 50.56
2601 59.2180 2594.00 2575.51 50.93
2602 59.2350 2593.00 2575.88 50.92
2603 59.2520 2593.00 2576.27 50.92
2604 59.2690 2468.00 2576.67 49.68
2605 59.2860 2508.00 2577.09 50.08
2606 59.3030 2599.00 2577.53 50.98
2607 59.3200 2553.00 2577.99 50.53
2608 59.3370 2517.00 2578.48 50.17
2609 59.3540 2638.00 2579.00 51.36
2610 59.3710 2581.00 2579.54 50.80
2611 59.3880 2578.00 2580.11 50.77
2612 59.4050 2569.00 2580.71 50.69
2613 59.4220 2591.00 2581.35 50.90
2614 59.4390 2570.00 2582.03 50.70
2615 59.4560 2665.00 2582.76 51.62
2616 59.4730 2694.00 2583.53 51.90
2617 59.4900 2609.00 2584.37 51.08
2618 59.5070 2552.00 2585.27 50.52
2619 59.5240 2555.00 2586.25 50.55
2620 59.5410 2558.00 2587.32 50.58
2621 59.5580 2532.00 2588.50 50.32
2622 59.5750 2548.00 2589.82 50.48
2623 59.5920 2561.00 2591.30 50.61
2624 59.6090 2672.00 2592.98 51.69
2625 59.6260 2676.00 2594.92 51.73
2626 59.6430 2587.00 2597.16 50.86
2627 59.6600 2612.00 2599.76 51.11
2628 59.6770 2650.00 2602.80 51.48
2629 59.6940 2643.00 2606.36 51.41
2630 59.7110 2625.00 2610.52 51.23
2631 59.7280 2577.00 2615.36 50.76
2632 59.7450 2603.00 2620.96 51.02
2633 59.7620 2625.00 2627.40 51.23
2634 59.7790 2752.00 2634.70 52.46
2635 59.7960 2625.00 2642.92 51.23
2636 59.8130 2620.00 2652.00 51.19
2637 59.8300 2680.00 2661.87 51.77
2638 59.8470 2626.00 2672.38 51.24
2639 59.8640 2645.00 2683.28 51.43
2640 59.8810 2619.00 2694.19 51.18
2641 59.8980 2619.00 2704.64 51.18
2642 59.9150 2623.00 2714.09 51.22
2643 59.9320 2660.00 2721.98 51.58
2644 59.9490 2672.00 2727.87 51.69
2645 59.9660 2626.00 2731.53 51.24
2646 59.9830 2631.00 2732.97 51.29
2647 60.0000 2741.00 2732.45 52.35
2648 60.0170 2597.00 2730.33 50.96
2649 60.0340 2682.00 2727.00 51.79
2650 60.0510 2733.00 2722.71 52.28
2651 60.0680 2621.00 2717.63 51.20
2652 60.0850 2590.00 2711.83 50.89
2653 60.1020 2695.00 2705.38 51.91
2654 60.1190 2660.00 2698.41 51.58
2655 60.1360 2654.00 2691.11 51.52
2656 60.1530 2665.00 2683.76 51.62
2657 60.1700 2673.00 2676.60 51.70
2658 60.1870 2554.00 2669.89 50.54
2659 60.2040 2735.00 2663.78 52.30
2660 60.2210 2641.00 2658.38 51.39
2661 60.2380 2646.00 2653.74 51.44
2662 60.2550 2650.00 2649.88 51.48
2663 60.2720 2707.00 2646.76 52.03
2664 60.2890 2653.00 2644.34 51.51
2665 60.3060 2733.00 2642.57 52.28
2666 60.3230 2749.00 2641.39 52.43
2667 60.3400 2727.00 2640.75 52.22
2668 60.3570 2688.00 2640.57 51.85
2669 60.3740 2682.00 2640.82 51.79
2670 60.3910 2754.00 2641.45 52.48
2671 60.4080 2678.00 2642.40 51.75
2672 60.4250 2544.00 2643.64 50.44
2673 60.4420 2657.00 2645.15 51.55
2674 60.4590 2724.00 2646.90 52.19
2675 60.4760 2711.00 2648.88 52.07
2676 60.4930 2733.00 2651.06 52.28
2677 60.5100 2665.00 2653.45 51.62
2678 60.5270 2555.00 2656.03 50.55
2679 60.5440 2644.00 2658.81 51.42
2680 60.5610 2701.00 2661.79 51.97
2681 60.5780 2656.00 2664.97 51.54
2682 60.5950 2741.00 2668.35 52.35
2683 60.6120 2801.00 2671.95 52.92
2684 60.6290 2761.00 2675.78 52.55
2685 60.6460 2766.00 2679.84 52.59
2686 60.6630 2730.00 2684.15 52.25
2687 60.6800 2783.00 2688.71 52.75
2688 60.6970 2779.00 2693.56 52.72
2689 60.7140 2813.00 2698.70 53.04
2690 60.7310 2783.00 2704.16 52.75
2691 60.7480 2751.00 2709.95 52.45
2692 60.7650 2775.00 2716.09 52.68
2693 60.7820 2821.00 2722.63 53.11
2694 60.7990 2813.00 2729.58 53.04
2695 60.8160 2921.00 2736.98 54.05
2696 60.8330 2901.00 2744.86 53.86
2697 60.8500 2947.00 2753.26 54.29
2698 60.8670 2906.00 2762.23 53.91
2699 60.8840 2914.00 2771.81 53.98
2700 60.9010 2963.00 2782.07 54.43
2701 60.9180 3059.00 2793.07 55.31
2702 60.9350 3004.00 2804.87 54.81
2703 60.9520 3077.00 2817.56 55.47
2704 60.9690 3113.00 2831.23 55.79
2705 60.9860 3042.00 2846.00 55.15
2706 61.0030 3297.00 2861.99 57.42
2707 61.0200 3089.00 2879.37 55.58
2708 61.0370 3096.00 2898.32 55.64
2709 61.0540 3261.00 2919.08 57.11
2710 61.0710 3258.00 2941.93 57.08
2711 61.0880 3299.00 2967.23 57.44
2712 61.1050 3438.00 2995.42 58.63
2713 61.1220 3424.00 3027.06 58.51
2714 61.1390 3589.00 3062.79 59.91
2715 61.1560 3577.00 3103.47 59.81
2716 61.1730 3737.00 3150.09 61.13
2717 61.1900 3613.00 3203.85 60.11
2718 61.2070 3752.00 3266.16 61.25
2719 61.2240 3915.00 3338.69 62.57
2720 61.2410 4071.00 3423.33 63.80
2721 61.2580 4117.00 3522.21 64.16
2722 61.2750 4150.00 3637.72 64.42
2723 61.2920 4315.00 3772.41 65.69
2724 61.3090 4611.00 3929.00 67.90
2725 61.3260 4571.00 4110.22 67.61
2726 61.3430 4768.00 4318.76 69.05
2727 61.3600 4985.00 4556.98 70.60
2728 61.3770 5195.00 4826.73 72.08
2729 61.3940 5434.00 5128.95 73.72
2730 61.4110 5603.00 5463.35 74.85
2731 61.4280 5926.00 5828.17 76.98
2732 61.4450 6070.00 6220.07 77.91
2733 61.4620 6363.00 6634.50 79.77
2734 61.4790 6797.00 7066.34 82.44
2735 61.4960 7321.00 7510.23 85.56
2736 61.5130 7559.00 7961.38 86.94
2737 61.5300 7960.00 8413.60 89.22
2738 61.5470 8372.00 8858.63 91.50
2739 61.5640 9023.00 9284.89 94.99
2740 61.5810 9571.00 9677.79 97.83
2741 61.5980 9842.00 10021.70 99.21
2742 61.6150 10215.00 10303.00 101.07
2743 61.6320 10656.00 10512.90 103.23
2744 61.6490 11306.00 10647.90 106.33
2745 61.6660 11563.00 10709.10 107.53
2746 61.6830 11626.00 10698.70 107.82
2747 61.7000 11548.00 10618.40 107.46
2748 61.7170 11493.00 10469.10 107.21
2749 61.7340 11109.00 10251.60 105.40
2750 61.7510 10718.00 9969.80 103.53
2751 61.7680 10137.00 9631.39 100.68
2752 61.7850 9963.00 9247.97 99.81
2753 61.8020 9198.00 8833.21 95.91
2754 61.8190 8797.00 8399.66 93.79
2755 61.8360 8282.00 7958.89 91.01
2756 61.8530 7846.00 7518.49 88.58
2757 61.8700 7310.00 7084.54 85.50
2758 61.8870 6950.00 6661.81 83.37
2759 61.9040 6335.00 6254.93 79.59
2760 61.9210 5820.00 5868.54 76.29
2761 61.9380 5408.00 5507.00 73.54
2762 61.9550 4995.00 5173.74 70.68
2763 61.9720 4571.00 4870.84 67.61
2764 61.9890 4539.00 4599.00 67.37
2765 62.0060 4231.00 4357.64 65.05
2766 62.0230 4009.00 4145.30 63.32
2767 62.0400 3972.00 3959.89 63.02
2768 62.0570 3576.00 3798.98 59.80
2769 62.0740 3574.00 3660.00 59.78
2770 62.0910 3431.00 3540.39 58.57
2771 62.1080 3326.00 3437.67 57.67
2772 62.1250 3302.00 3349.53 57.46
2773 62.1420 3225.00 3273.90 56.79
2774 62.1590 3227.00 3208.79 56.81
2775 62.1760 3021.00 3152.65 54.96
2776 62.1930 3141.00 3103.94 56.04
2777 62.2100 3088.00 3061.51 55.57
2778 62.2270 2984.00 3024.25 54.63
2779 62.2440 2871.00 2991.34 53.58
2780 62.2610 2860.00 2962.04 53.48
2781 62.2780 2990.00 2935.79 54.68
2782 62.2950 2836.00 2912.11 53.25
2783 62.3120 2733.00 2890.62 52.28
2784 62.3290 2780.00 2871.01 52.73
2785 62.3460 2816.00 2853.02 53.07
2786 62.3630 2901.00 2836.47 53.86
2787 62.3800 2846.00 2821.17 53.35
2788 62.3970 2740.00 2806.99 52.35
2789 62.4140 2680.00 2793.82 51.77
2790 62.4310 2724.00 2782.25 52.19
2791 62.4480 2656.00 2770.80 51.54
2792 62.4650 2659.00 2760.10 51.57
2793 62.4820 2763.00 2750.08 52.56
2794 62.4990 2724.00 2740.68 52.19
2795 62.5160 2677.00 2731.86 51.74
2796 62.5330 2750.00 2723.55 52.44
2797 62.5500 2724.00 2715.74 52.19
2798 62.5670 2651.00 2710.57 51.49
2799 62.5840 2603.00 2703.63 51.02
2800 62.6010 2693.00 2697.07 51.89
2801 62.6180 2581.00 2690.87 50.80
2802 62.6350 2630.00 2685.01 51.28
2803 62.6520 2675.00 2679.45 51.72
2804 62.6690 2662.00 2674.19 51.59
2805 62.6860 2608.00 2669.20 51.07
2806 62.7030 2595.00 2667.64 50.94
2807 62.7200 2613.00 2663.17 51.12
2808 62.7370 2547.00 2658.93 50.47
2809 62.7540 2653.00 2655.18 51.51
2810 62.7710 2698.00 2651.37 51.94
2811 62.7880 2573.00 2647.76 50.72
2812 62.8050 2544.00 2644.35 50.44
2813 62.8220 2653.00 2641.14 51.51
2814 62.8390 2681.00 2638.11 51.78
2815 62.8560 2530.00 2635.28 50.30
2816 62.8730 2619.00 2632.65 51.18
2817 62.8900 2588.00 2630.23 50.87
2818 62.9070 2491.00 2628.01 49.91
2819 62.9240 2507.00 2626.01 50.07
2820 62.9410 2648.00 2624.23 51.46
2821 62.9580 2598.00 2622.69 50.97
2822 62.9750 2534.00 2621.40 50.34
2823 62.9920 2632.00 2620.34 51.30
2824 63.0090 2708.00 2619.54 52.04
2825 63.0260 2633.00 2618.98 51.31
2826 63.0430 2584.00 2618.66 50.83
2827 63.0600 2553.00 2618.56 50.53
2828 63.0770 2607.00 2618.64 51.06
2829 63.0940 2720.00 2618.87 52.15
2830 63.1110 2595.00 2619.18 50.94
2831 63.1280 2473.00 2619.49 49.73
2832 63.1450 2454.00 2619.71 49.54
2833 63.1620 2480.00 2619.72 49.80
2834 63.1790 2537.00 2619.44 50.37
2835 63.1960 2488.00 2618.81 49.88
2836 63.2130 2466.00 2617.80 49.66
2837 63.2300 2524.00 2616.43 50.24
2838 63.2470 2592.00 2614.75 50.91
2839 63.2640 2514.00 2612.82 50.14
2840 63.2810 2641.00 2610.70 51.39
2841 63.2980 2654.00 2608.43 51.52
2842 63.3150 2508.00 2606.01 50.08
2843 63.3320 2472.00 2603.47 49.72
2844 63.3490 2498.00 2600.81 49.98
2845 63.3660 2572.00 2598.05 50.71
2846 63.3830 2626.00 2595.23 51.24
2847 63.4000 2531.00 2592.38 50.31
2848 63.4170 2570.00 2589.57 50.70
2849 63.4340 2584.00 2586.83 50.83
2850 63.4510 2561.00 2584.21 50.61
2851 63.4680 2562.00 2581.71 50.62
2852 63.4850 2452.00 2579.37 49.52
2853 63.5020 2485.00 2577.18 49.85
2854 63.5190 2561.00 2575.14 50.61
2855 63.5360 2512.00 2573.24 50.12
2856 63.5530 2508.00 2571.49 50.08
2857 63.5700 2533.00 2569.87 50.33
2858 63.5870 2514.00 2568.37 50.14
2859 63.6040 2415.00 2566.99 49.14
2860 63.6210 2447.00 2565.70 49.47
2861 63.6380 2489.00 2564.51 49.89
2862 63.6550 2507.00 2563.40 50.07
2863 63.6720 2565.00 2562.35 50.65
2864 63.6890 2467.00 2561.37 49.67
2865 63.7060 2512.00 2560.45 50.12
2866 63.7230 2532.00 2559.57 50.32
2867 63.7400 2446.00 2558.74 49.46
2868 63.7570 2538.00 2557.95 50.38
2869 63.7740 2575.00 2557.19 50.74
2870 63.7910 2496.00 2556.45 49.96
2871 63.8080 2381.00 2555.75 48.80
2872 63.8250 2454.00 2555.06 49.54
2873 63.8420 2467.00 2554.40 49.67
2874 63.8590 2510.00 2553.76 50.10
2875 63.8760 2509.00 2553.14 50.09
2876 63.8930 2385.00 2552.54 48.84
2877 63.9100 2515.00 2551.95 50.15
2878 63.9270 2496.00 2551.38 49.96
2879 63.9440 2471.00 2550.82 49.71
2880 63.9610 2516.00 2550.28 50.16
2881 63.9780 2542.00 2549.75 50.42
2882 63.9950 2499.00 2549.24 49.99
2883 64.0120 2570.00 2548.73 50.70
2884 64.0290 2634.00 2548.24 51.32
2885 64.0460 2491.00 2547.76 49.91
2886 64.0630 2502.00 2547.29 50.02
2887 64.0800 2516.00 2546.83 50.16
2888 64.0970 2503.00 2546.38 50.03
2889 64.1140 2497.00 2545.94 49.97
2890 64.1310 2502.00 2545.51 50.02
2891 64.1480 2468.00 2545.09 49.68
2892 64.1650 2501.00 2544.68 50.01
2893 64.1820 2537.00 2544.27 50.37
2894 64.1990 2397.00 2543.88 48.96
2895 64.2160 2567.00 2543.49 50.67
2896 64.2330 2453.00 2543.11 49.53
2897 64.2500 2462.00 2542.74 49.62
2898 64.2670 2526.00 2542.38 50.26
2899 64.2840 2489.00 2542.02 49.89
2900 64.3010 2474.00 2541.67 49.74
2901 64.3180 2488.00 2541.33 49.88
2902 64.3350 2529.00 2541.00 50.29
2903 64.3520 2508.00 2540.67 50.08
2904 64.3690 2522.00 2540.35 50.22
2905 64.3860 2500.00 2540.03 50.00
2906 64.4030 2572.00 2539.73 50.71
2907 64.4200 2564.00 2539.42 50.64
2908 64.4370 2483.00 2539.12 49.83
2909 64.4540 2449.00 2538.84 49.49
2910 64.4710 2480.00 2538.55 49.80
2911 64.4880 2464.00 2538.25 49.64
2912 64.5050 2477.00 2537.94 49.77
2913 64.5220 2512.00 2537.68 50.12
2914 64.5390 2460.00 2537.42 49.60
2915 64.5560 2426.00 2537.16 49.25
2916 64.5730 2551.00 2536.91 50.51
2917 64.5900 2540.00 2536.67 50.40
2918 64.6070 2522.00 2536.43 50.22
2919 64.6240 2593.00 2536.20 50.92
2920 64.6410 2515.00 2535.97 50.15
2921 64.6580 2439.00 2535.73 49.39
2922 64.6750 2537.00 2535.50 50.37
2923 64.6920 2473.00 2535.29 49.73
2924 64.7090 2421.00 2535.08 49.20
2925 64.7260 2557.00 2534.88 50.57
2926 64.7430 2453.00 2534.69 49.53
2927 64.7600 2549.00 2534.50 50.49
2928 64.7770 2518.00 2534.31 50.18
2929 64.7940 2560.00 2534.13 50.60
2930 64.8110 2534.00 2533.95 50.34
2931 64.8280 2505.00 2533.78 50.05
2932 64.8450 2484.00 2533.62 49.84
2933 64.8620 2553.00 2533.46 50.53
2934 64.8790 2542.00 2533.30 50.42
2935 64.8960 2590.00 2533.16 50.89
2936 64.9130 2554.00 2533.01 50.54
2937 64.9300 2602.00 2532.87 51.01
2938 64.9470 2656.00 2532.74 51.54
2939 64.9640 2513.00 2532.61 50.13
2940 64.9810 2387.00 2532.48 48.86
2941 64.9980 2508.00 2532.36 50.08
2942 65.0150 2501.00 2532.25 50.01
2943 65.0320 2520.00 2532.13 50.20
2944 65.0490 2501.00 2532.03 50.01
2945 65.0660 2541.00 2531.92 50.41
2946 65.0830 2586.00 2531.82 50.85
2947 65.1000 2536.00 2531.73 50.36
2948 65.1170 2558.00 2531.64 50.58
2949 65.1340 2675.00 2531.55 51.72
2950 65.1510 2703.00 2531.46 51.99
2951 65.1680 2629.00 2531.39 51.27
2952 65.1850 2578.00 2531.31 50.77
2953 65.2020 2560.00 2531.24 50.60
2954 65.2190 2482.00 2531.18 49.82
2955 65.2360 2446.00 2531.12 49.46
2956 65.2530 2489.00 2531.07 49.89
2957 65.2700 2499.00 2531.02 49.99
2958 65.2870 2489.00 2530.98 49.89
2959 65.3040 2472.00 2530.94 49.72
2960 65.3210 2467.00 2530.91 49.67
2961 65.3380 2526.00 2530.89 50.26
2962 65.3550 2529.00 2530.87 50.29
2963 65.3720 2523.00 2530.85 50.23
2964 65.3890 2570.00 2530.84 50.70
2965 65.4060 2571.00 2530.85 50.71
2966 65.4230 2530.00 2530.85 50.30
2967 65.4400 2497.00 2530.86 49.97
2968 65.4570 2439.00 2530.89 49.39
2969 65.4740 2537.00 2530.91 50.37
2970 65.4910 2572.00 2530.94 50.71
2971 65.5080 2479.00 2530.98 49.79
2972 65.5250 2500.00 2531.03 50.00
2973 65.5420 2478.00 2531.08 49.78
2974 65.5590 2536.00 2531.13 50.36
2975 65.5760 2545.00 2531.20 50.45
2976 65.5930 2633.00 2531.27 51.31
2977 65.6100 2555.00 2531.35 50.55
2978 65.6270 2469.00 2531.44 49.69
2979 65.6440 2570.00 2531.53 50.70
2980 65.6610 2524.00 2531.63 50.24
2981 65.6780 2431.00 2531.74 49.31
2982 65.6950 2500.00 2531.86 50.00
2983 65.7120 2500.00 2531.99 50.00
2984 65.7290 2540.00 2532.12 50.40
2985 65.7460 2572.00 2532.26 50.71
2986 65.7630 2527.00 2532.42 50.27
2987 65.7800 2576.00 2532.58 50.75
2988 65.7970 2528.00 2532.75 50.28
2989 65.8140 2512.00 2532.93 50.12
2990 65.8310 2543.00 2533.11 50.43
2991 65.8480 2512.00 2533.31 50.12
2992 65.8650 2465.00 2533.52 49.65
2993 65.8820 2517.00 2533.74 50.17
2994 65.8990 2505.00 2533.97 50.05
2995 65.9160 2436.00 2534.21 49.36
2996 65.9330 2423.00 2534.46 49.22
2997 65.9500 2426.00 2534.73 49.25
2998 65.9670 2477.00 2535.00 49.77
2999 65.9840 2560.00 2535.29 50.60
3000 66.0010 2465.00 2535.59 49.65
3001 66.0180 2453.00 2535.90 49.53
3002 66.0350 2527.00 2536.22 50.27
3003 66.0520 2412.00 2536.56 49.11
3004 66.0690 2451.00 2536.91 49.51
3005 66.0860 2546.00 2537.28 50.46
3006 66.1030 2546.00 2537.66 50.46
3007 66.1200 2539.00 2538.06 50.39
3008 66.1370 2468.00 2538.47 49.68
3009 66.1540 2495.00 2538.90 49.95
3010 66.1710 2567.00 2539.34 50.67
3011 66.1880 2485.00 2539.80 49.85
3012 66.2050 2392.00 2540.28 48.91
3013 66.2220 2439.00 2540.77 49.39
3014 66.2390 2575.00 2540.60 50.74
3015 66.2560 2508.00 2541.14 50.08
3016 66.2730 2376.00 2541.69 48.74
3017 66.2900 2457.00 2542.27 49.57
3018 66.3070 2556.00 2542.87 50.56
3019 66.3240 2553.00 2543.49 50.53
3020 66.3410 2524.00 2544.14 50.24
3021 66.3580 2426.00 2544.80 49.25
3022 66.3750 2504.00 2543.84 50.04
3023 66.3920 2480.00 2544.57 49.80
3024 66.4090 2482.00 2544.98 49.82
3025 66.4260 2556.00 2545.23 50.56
3026 66.4430 2583.00 2546.04 50.82
3027 66.4600 2538.00 2546.88 50.38
3028 66.4770 2475.00 2547.76 49.75
3029 66.4940 2591.00 2548.66 50.90
3030 66.5110 2554.00 2548.28 50.54
3031 66.5280 2480.00 2549.25 49.80
3032 66.5450 2635.00 2549.45 51.33
3033 66.5620 2613.00 2550.50 51.12
3034 66.5790 2607.00 2551.59 51.06
3035 66.5960 2573.00 2552.46 50.72
3036 66.6130 2561.00 2553.63 50.61
3037 66.6300 2503.00 2554.83 50.03
3038 66.6470 2509.00 2556.08 50.09
3039 66.6640 2581.00 2557.38 50.80
3040 66.6810 2607.00 2558.09 51.06
3041 66.6980 2519.00 2559.48 50.19
3042 66.7150 2564.00 2560.93 50.64
3043 66.7320 2515.00 2562.42 50.15
3044 66.7490 2486.00 2563.98 49.86
3045 66.7660 2587.00 2565.59 50.86
3046 66.7830 2633.00 2567.26 51.31
3047 66.8000 2598.00 2568.99 50.97
3048 66.8170 2531.00 2570.79 50.31
3049 66.8340 2662.00 2572.66 51.59
3050 66.8510 2472.00 2574.60 49.72
3051 66.8680 2606.00 2576.61 51.05
3052 66.8850 2638.00 2578.70 51.36
3053 66.9020 2550.00 2580.88 50.50
3054 66.9190 2612.00 2583.14 51.11
3055 66.9360 2545.00 2585.49 50.45
3056 66.9530 2633.00 2587.93 51.31
3057 66.9700 2555.00 2590.48 50.55
3058 66.9870 2531.00 2593.13 50.31
3059 67.0040 2646.00 2595.89 51.44
3060 67.0210 2561.00 2598.77 50.61
3061 67.0380 2628.00 2601.77 51.26
3062 67.0550 2619.00 2604.90 51.18
3063 67.0720 2594.00 2608.17 50.93
3064 67.0890 2619.00 2611.58 51.18
3065 67.1060 2602.00 2615.14 51.01
3066 67.1230 2600.00 2618.86 50.99
3067 67.1400 2622.00 2622.76 51.21
3068 67.1570 2732.00 2626.83 52.27
3069 67.1740 2592.00 2631.09 50.91
3070 67.1910 2595.00 2635.55 50.94
3071 67.2080 2780.00 2640.23 52.73
3072 67.2250 2735.00 2645.14 52.30
3073 67.2420 2633.00 2650.28 51.31
3074 67.2590 2652.00 2655.68 51.50
3075 67.2760 2759.00 2661.36 52.53
3076 67.2930 2727.00 2667.33 52.22
3077 67.3100 2742.00 2673.62 52.36
3078 67.3270 2758.00 2680.23 52.52
3079 67.3440 2701.00 2687.20 51.97
3080 67.3610 2732.00 2694.55 52.27
3081 67.3780 2684.00 2702.32 51.81
3082 67.3950 2666.00 2710.52 51.63
3083 67.4120 2696.00 2719.19 51.92
3084 67.4290 2779.00 2728.38 52.72
3085 67.4460 2781.00 2738.11 52.74
3086 67.4630 2817.00 2748.44 53.08
3087 67.4800 2920.00 2759.41 54.04
3088 67.4970 2879.00 2771.08 53.66
3089 67.5140 2807.00 2783.53 52.98
3090 67.5310 2815.00 2796.81 53.06
3091 67.5480 2844.00 2811.02 53.33
3092 67.5650 2866.00 2826.25 53.53
3093 67.5820 2964.00 2842.63 54.44
3094 67.5990 3004.00 2860.31 54.81
3095 67.6160 3025.00 2879.45 55.00
3096 67.6330 3124.00 2900.25 55.89
3097 67.6500 3149.00 2922.98 56.12
3098 67.6670 3171.00 2947.97 56.31
3099 67.6840 3182.00 2975.56 56.41
3100 67.7010 3181.00 3006.22 56.40
3101 67.7180 3331.00 3040.53 57.71
3102 67.7350 3384.00 3079.14 58.17
3103 67.7520 3549.00 3122.86 59.57
3104 67.7690 3514.00 3172.62 59.28
3105 67.7860 3693.00 3229.51 60.77
3106 67.8030 3762.00 3294.80 61.34
3107 67.8200 3899.00 3369.91 62.44
3108 67.8370 3864.00 3456.44 62.16
3109 67.8540 4000.00 3556.14 63.25
3110 67.8710 4220.00 3670.88 64.96
3111 67.8880 4292.00 3802.77 65.51
3112 67.9050 4403.00 3953.94 66.36
3113 67.9220 4542.00 4126.42 67.39
3114 67.9390 4575.00 4322.30 67.64
3115 67.9560 4907.00 4543.77 70.05
3116 67.9730 5158.00 4792.67 71.82
3117 67.9900 5190.00 5070.29 72.04
3118 68.0070 5383.00 5377.60 73.37
3119 68.0240 5655.00 5715.18 75.20
3120 68.0410 5842.00 6082.33 76.43
3121 68.0580 6113.00 6477.48 78.19
3122 68.0750 6316.00 6896.99 79.47
3123 68.0920 6684.00 7336.71 81.76
3124 68.1090 7069.00 7790.37 84.08
3125 68.1260 7516.00 8250.79 86.69
3126 68.1430 7685.00 8710.33 87.66
3127 68.1600 8158.00 9161.74 90.32
3128 68.1770 8820.00 9598.80 93.91
3129 68.1940 9287.00 10016.30 96.37
3130 68.2110 10055.00 10410.60 100.28
3131 68.2280 10486.00 10776.40 102.40
3132 68.2450 10912.00 11108.00 104.46
3133 68.2620 11761.00 11397.60 108.45
3134 68.2790 12185.00 11635.30 110.39
3135 68.2960 12595.00 11810.60 112.23
3136 68.3130 13064.00 11914.50 114.30
3137 68.3300 13001.00 11941.40 114.02
3138 68.3470 12953.00 11890.10 113.81
3139 68.3640 12624.00 11764.10 112.36
3140 68.3810 12580.00 11570.70 112.16
3141 68.3980 12286.00 11319.10 110.84
3142 68.4150 11825.00 11018.90 108.74
3143 68.4320 11279.00 10678.90 106.20
3144 68.4490 10794.00 10307.20 103.89
3145 68.4660 10598.00 9909.32 102.95
3146 68.4830 10040.00 9491.01 100.20
3147 68.5000 9654.00 9057.64 98.25
3148 68.5170 9112.00 8614.23 95.46
3149 68.5340 8391.00 8167.26 91.60
3150 68.5510 8094.00 7722.71 89.97
3151 68.5680 7261.00 7286.76 85.21
3152 68.5850 6768.00 6864.39 82.27
3153 68.6020 6426.00 6460.84 80.16
3154 68.6190 5912.00 6079.85 76.89
3155 68.6360 5448.00 5723.86 73.81
3156 68.6530 5206.00 5394.63 72.15
3157 68.6700 4925.00 5093.20 70.18
3158 68.6870 4651.00 4819.53 68.20
3159 68.7040 4320.00 4572.71 65.73
3160 68.7210 4179.00 4351.69 64.65
3161 68.7380 3872.00 4154.87 62.23
3162 68.7550 3893.00 3980.72 62.39
3163 68.7720 3726.00 3827.14 61.04
3164 68.7890 3494.00 3692.26 59.11
3165 68.8060 3449.00 3574.16 58.73
3166 68.8230 3360.00 3470.97 57.97
3167 68.8400 3350.00 3380.94 57.88
3168 68.8570 3285.00 3302.40 57.31
3169 68.8740 3210.00 3233.86 56.66
3170 68.8910 3167.00 3173.90 56.28
3171 68.9080 3057.00 3121.34 55.29
3172 68.9250 3071.00 3075.10 55.42
3173 68.9420 2989.00 3034.25 54.67
3174 68.9590 3055.00 2997.94 55.27
3175 68.9760 2973.00 2965.52 54.53
3176 68.9930 2903.00 2936.41 53.88
3177 69.0100 2955.00 2910.10 54.36
3178 69.0270 2892.00 2886.20 53.78
3179 69.0440 2851.00 2864.35 53.39
3180 69.0610 2819.00 2844.30 53.09
3181 69.0780 2770.00 2825.81 52.63
3182 69.0950 2761.00 2808.68 52.55
3183 69.1120 2810.00 2792.74 53.01
3184 69.1290 2764.00 2777.90 52.57
3185 69.1460 2631.00 2764.01 51.29
3186 69.1630 2662.00 2750.99 51.59
3187 69.1800 2731.00 2738.77 52.26
3188 69.1970 2688.00 2727.25 51.85
3189 69.2140 2697.00 2716.40 51.93
3190 69.2310 2729.00 2706.16 52.24
3191 69.2480 2701.00 2696.47 51.97
3192 69.2650 2638.00 2687.30 51.36
3193 69.2820 2621.00 2678.61 51.20
3194 69.2990 2597.00 2670.37 50.96
3195 69.3160 2595.00 2662.53 50.94
3196 69.3330 2651.00 2655.09 51.49
3197 69.3500 2673.00 2648.01 51.70
3198 69.3670 2671.00 2641.26 51.68
3199 69.3840 2674.00 2634.83 51.71
3200 69.4010 2667.00 2628.70 51.64
3201 69.4180 2594.00 2622.84 50.93
3202 69.4350 2660.00 2617.25 51.58
3203 69.4520 2687.00 2611.91 51.84
3204 69.4690 2749.00 2606.79 52.43
3205 69.4860 2674.00 2601.90 51.71
3206 69.5030 2566.00 2597.21 50.66
3207 69.5200 2552.00 2592.73 50.52
3208 69.5370 2539.00 2588.42 50.39
3209 69.5540 2526.00 2584.30 50.26
3210 69.5710 2490.00 2580.35 49.90
3211 69.5880 2514.00 2576.56 50.14
3212 69.6050 2508.00 2572.93 50.08
3213 69.6220 2583.00 2569.44 50.82
3214 69.6390 2594.00 2566.09 50.93
3215 69.6560 2577.00 2562.88 50.76
3216 69.6730 2602.00 2559.81 51.01
3217 69.6900 2553.00 2556.85 50.53
3218 69.7070 2516.00 2554.01 50.16
3219 69.7240 2613.00 2551.28 51.12
3220 69.7410 2503.00 2548.67 50.03
3221 69.7580 2447.00 2546.15 49.47
3222 69.7750 2531.00 2543.72 50.31
3223 69.7920 2397.00 2541.38 48.96
3224 69.8090 2507.00 2539.11 50.07
3225 69.8260 2414.00 2536.91 49.13
3226 69.8430 2460.00 2534.77 49.60
3227 69.8600 2454.00 2532.68 49.54
3228 69.8770 2474.00 2530.63 49.74
3229 69.8940 2527.00 2528.61 50.27
3230 69.9110 2412.00 2526.62 49.11
3231 69.9280 2425.00 2524.66 49.24
3232 69.9450 2375.00 2522.71 48.73
3233 69.9620 2512.00 2520.80 50.12
3234 69.9790 2489.00 2518.92 49.89
3235 69.9960 2503.00 2517.06 50.03
3236 70.0130 2454.00 2515.23 49.54
3237 70.0300 2476.00 2513.43 49.76
3238 70.0470 2461.00 2511.66 49.61
3239 70.0640 2466.00 2509.92 49.66
3240 70.0810 2411.00 2508.21 49.10
3241 70.0980 2533.00 2506.53 50.33
3242 70.1150 2488.00 2504.87 49.88
3243 70.1320 2417.00 2503.25 49.16
3244 70.1490 2552.00 2501.67 50.52
3245 70.1660 2533.00 2500.12 50.33
3246 70.1830 2532.00 2498.61 50.32
3247 70.2000 2559.00 2497.13 50.59
3248 70.2170 2395.00 2495.70 48.94
3249 70.2340 2325.00 2494.30 48.22
3250 70.2510 2411.00 2492.94 49.10
3251 70.2680 2513.00 2491.62 50.13
3252 70.2850 2519.00 2490.34 50.19
3253 70.3020 2575.00 2489.09 50.74
3254 70.3190 2498.00 2487.88 49.98
3255 70.3360 2454.00 2486.70 49.54
3256 70.3530 2526.00 2485.55 50.26
3257 70.3700 2453.00 2484.43 49.53
3258 70.3870 2396.00 2483.33 48.95
3259 70.4040 2474.00 2482.27 49.74
3260 70.4210 2462.00 2481.23 49.62
3261 70.4380 2464.00 2480.21 49.64
3262 70.4550 2492.00 2479.22 49.92
3263 70.4720 2521.00 2478.25 50.21
3264 70.4890 2540.00 2477.31 50.40
3265 70.5060 2500.00 2476.39 50.00
3266 70.5230 2425.00 2475.48 49.24
3267 70.5400 2451.00 2474.59 49.51
3268 70.5570 2439.00 2473.72 49.39
3269 70.5740 2394.00 2472.87 48.93
3270 70.5910 2448.00 2472.03 49.48
3271 70.6080 2542.00 2471.21 50.42
3272 70.6250 2590.00 2470.41 50.89
3273 70.6420 2490.00 2469.62 49.90
3274 70.6590 2446.00 2468.85 49.46
3275 70.6760 2523.00 2468.10 50.23
3276 70.6930 2489.00 2467.35 49.89
3277 70.7100 2434.00 2466.63 49.34
3278 70.7270 2494.00 2465.92 49.94
3279 70.7440 2497.00 2465.22 49.97
3280 70.7610 2369.00 2464.54 48.67
3281 70.7780 2442.00 2463.87 49.42
3282 70.7950 2381.00 2463.22 48.80
3283 70.8120 2528.00 2462.58 50.28
3284 70.8290 2449.00 2461.96 49.49
3285 70.8460 2435.00 2461.36 49.35
3286 70.8630 2381.00 2460.78 48.80
3287 70.8800 2389.00 2460.21 48.88
3288 70.8970 2431.00 2459.67 49.31
3289 70.9140 2366.00 2459.14 48.64
3290 70.9310 2527.00 2458.64 50.27
3291 70.9480 2487.00 2458.16 49.87
3292 70.9650 2553.00 2457.72 50.53
3293 70.9820 2507.00 2457.31 50.07
3294 70.9990 2536.00 2456.93 50.36
3295 71.0160 2491.00 2456.59 49.91
3296 71.0330 2516.00 2456.30 50.16
3297 71.0500 2593.00 2456.06 50.92
3298 71.0670 2518.00 2455.88 50.18
3299 71.0840 2417.00 2455.76 49.16
3300 71.1010 2382.00 2455.72 48.81
3301 71.1180 2451.00 2455.76 49.51
3302 71.1350 2446.00 2455.88 49.46
3303 71.1520 2454.00 2456.11 49.54
3304 71.1690 2457.00 2456.43 49.57
3305 71.1860 2523.00 2456.87 50.23
3306 71.2030 2529.00 2457.43 50.29
3307 71.2200 2492.00 2458.12 49.92
3308 71.2370 2344.00 2458.94 48.41
3309 71.2540 2398.00 2459.88 48.97
3310 71.2710 2487.00 2460.96 49.87
3311 71.2880 2463.00 2462.17 49.63
3312 71.3050 2541.00 2463.49 50.41
3313 71.3220 2553.00 2464.92 50.53
3314 71.3390 2478.00 2466.44 49.78
3315 71.3560 2544.00 2468.03 50.44
3316 71.3730 2533.00 2469.66 50.33
3317 71.3900 2543.00 2471.32 50.43
3318 71.4070 2482.00 2472.97 49.82
3319 71.4240 2439.00 2474.58 49.39
3320 71.4410 2491.00 2476.11 49.91
3321 71.4580 2507.00 2477.53 50.07
3322 71.4750 2510.00 2478.80 50.10
3323 71.4920 2502.00 2479.89 50.02
3324 71.5090 2566.00 2480.75 50.66
3325 71.5260 2545.00 2481.35 50.45
3326 71.5430 2515.00 2481.65 50.15
3327 71.5600 2474.00 2481.64 49.74
3328 71.5770 2479.00 2481.29 49.79
3329 71.5940 2455.00 2480.61 49.55
3330 71.6110 2390.00 2479.60 48.89
3331 71.6280 2429.00 2478.31 49.28
3332 71.6450 2407.00 2476.75 49.06
3333 71.6620 2442.00 2474.98 49.42
3334 71.6790 2467.00 2473.02 49.67
3335 71.6960 2522.00 2470.91 50.22
3336 71.7130 2515.00 2468.68 50.15
3337 71.7300 2516.00 2466.35 50.16
3338 71.7470 2552.00 2463.95 50.52
3339 71.7640 2490.00 2461.49 49.90
3340 71.7810 2449.00 2459.01 49.49
3341 71.7980 2527.00 2456.52 50.27
3342 71.8150 2549.00 2454.06 50.49
3343 71.8320 2465.00 2451.65 49.65
3344 71.8490 2543.00 2449.31 50.43
3345 71.8660 2383.00 2447.06 48.82
3346 71.8830 2441.00 2444.92 49.41
3347 71.9000 2391.00 2442.90 48.90
3348 71.9170 2515.00 2441.01 50.15
3349 71.9340 2429.00 2439.24 49.28
3350 71.9510 2517.00 2437.60 50.17
3351 71.9680 2539.00 2436.07 50.39
3352 71.9850 2452.00 2434.67 49.52
3353 72.0020 2490.00 2433.38 49.90
3354 72.0190 2521.00 2432.18 50.21
3355 72.0360 2495.00 2431.09 49.95
3356 72.0530 2505.00 2430.08 50.05
3357 72.0700 2504.00 2429.15 50.04
3358 72.0870 2460.00 2428.29 49.60
3359 72.1040 2357.00 2427.50 48.55
3360 72.1210 2388.00 2426.76 48.87
3361 72.1380 2358.00 2426.07 48.56
3362 72.1550 2486.00 2425.43 49.86
3363 72.1720 2518.00 2424.83 50.18
3364 72.1890 2439.00 2424.26 49.39
3365 72.2060 2406.00 2423.72 49.05
3366 72.2230 2487.00 2423.21 49.87
3367 72.2400 2418.00 2422.73 49.17
3368 72.2570 2437.00 2422.26 49.37
3369 72.2740 2513.00 2421.82 50.13
3370 72.2910 2462.00 2421.39 49.62
3371 72.3080 2409.00 2420.98 49.08
3372 72.3250 2489.00 2420.58 49.89
3373 72.3420 2424.00 2420.20 49.23
3374 72.3590 2354.00 2419.84 48.52
3375 72.3760 2408.00 2419.49 49.07
3376 72.3930 2447.00 2419.16 49.47
3377 72.4100 2364.00 2418.85 48.62
3378 72.4270 2420.00 2418.55 49.19
3379 72.4440 2417.00 2418.28 49.16
3380 72.4610 2376.00 2418.02 48.74
3381 72.4780 2423.00 2417.80 49.22
3382 72.4950 2418.00 2417.60 49.17
3383 72.5120 2399.00 2417.44 48.98
3384 72.5290 2427.00 2417.32 49.26
3385 72.5460 2436.00 2417.24 49.36
3386 72.5630 2494.00 2417.21 49.94
3387 72.5800 2379.00 2417.24 48.78
3388 72.5970 2381.00 2417.33 48.80
3389 72.6140 2367.00 2417.49 48.65
3390 72.6310 2395.00 2417.73 48.94
3391 72.6480 2485.00 2418.05 49.85
3392 72.6650 2472.00 2418.47 49.72
3393 72.6820 2463.00 2419.00 49.63
3394 72.6990 2404.00 2419.62 49.03
3395 72.7160 2404.00 2420.37 49.03
3396 72.7330 2406.00 2421.34 49.05
3397 72.7500 2478.00 2422.31 49.78
3398 72.7670 2468.00 2423.41 49.68
3399 72.7840 2420.00 2424.63 49.19
3400 72.8010 2377.00 2425.95 48.75
3401 72.8180 2389.00 2427.37 48.88
3402 72.8350 2371.00 2428.87 48.69
3403 72.8520 2441.00 2430.44 49.41
3404 72.8690 2551.00 2432.03 50.51
3405 72.8860 2395.00 2433.64 48.94
3406 72.9030 2401.00 2435.42 49.00
3407 72.9200 2353.00 2436.92 48.51
3408 72.9370 2495.00 2438.30 49.95
3409 72.9540 2440.00 2439.73 49.40
3410 72.9710 2432.00 2440.79 49.32
3411 72.9880 2382.00 2441.65 48.81
3412 73.0050 2447.00 2442.28 49.47
3413 73.0220 2450.00 2442.67 49.50
3414 73.0390 2404.00 2442.81 49.03
3415 73.0560 2441.00 2442.70 49.41
3416 73.0730 2437.00 2442.35 49.37
3417 73.0900 2350.00 2441.75 48.48
3418 73.1070 2368.00 2440.93 48.66
3419 73.1240 2415.00 2441.38 49.14
3420 73.1410 2366.00 2440.15 48.64
3421 73.1580 2324.00 2438.75 48.21
3422 73.1750 2354.00 2437.19 48.52
3423 73.1920 2395.00 2435.48 48.94
3424 73.2090 2363.00 2433.66 48.61
3425 73.2260 2379.00 2431.74 48.78
3426 73.2430 2396.00 2429.75 48.95
3427 73.2600 2384.00 2427.71 48.83
3428 73.2770 2386.00 2425.66 48.85
3429 73.2940 2382.00 2423.60 48.81
3430 73.3110 2401.00 2421.57 49.00
3431 73.3280 2318.00 2419.58 48.15
3432 73.3450 2346.00 2417.64 48.44
3433 73.3620 2401.00 2415.78 49.00
3434 73.3790 2367.00 2413.99 48.65
3435 73.3960 2402.00 2412.28 49.01
3436 73.4130 2438.00 2410.67 49.38
3437 73.4300 2412.00 2409.14 49.11
3438 73.4470 2433.00 2407.70 49.33
3439 73.4640 2407.00 2406.36 49.06
3440 73.4810 2386.00 2405.11 48.85
3441 73.4980 2415.00 2403.94 49.14
3442 73.5150 2344.00 2402.86 48.41
3443 73.5320 2412.00 2401.85 49.11
3444 73.5490 2334.00 2400.92 48.31
3445 73.5660 2416.00 2400.05 49.15
3446 73.5830 2370.00 2399.25 48.68
3447 73.6000 2328.00 2398.50 48.25
3448 73.6170 2416.00 2397.80 49.15
3449 73.6340 2377.00 2397.14 48.75
3450 73.6510 2438.00 2396.53 49.38
3451 73.6680 2456.00 2395.95 49.56
3452 73.6850 2428.00 2395.40 49.27
3453 73.7020 2337.00 2394.88 48.34
3454 73.7190 2429.00 2394.38 49.28
3455 73.7360 2298.00 2393.91 47.94
3456 73.7530 2496.00 2393.45 49.96
3457 73.7700 2361.00 2393.01 48.59
3458 73.7870 2288.00 2392.58 47.83
3459 73.8040 2312.00 2392.17 48.08
3460 73.8210 2395.00 2391.77 48.94
3461 73.8380 2328.00 2391.37 48.25
3462 73.8550 2324.00 2390.99 48.21
3463 73.8720 2365.00 2390.61 48.63
3464 73.8890 2372.00 2390.23 48.70
3465 73.9060 2395.00 2388.48 48.94
3466 73.9230 2375.00 2388.13 48.73
3467 73.9400 2470.00 2387.78 49.70
3468 73.9570 2377.00 2387.43 48.75
3469 73.9740 2343.00 2387.09 48.40
3470 73.9910 2398.00 2386.75 48.97
3471 74.0080 2370.00 2386.42 48.68
3472 74.0250 2446.00 2386.09 49.46
3473 74.0420 2346.00 2385.76 48.44
3474 74.0590 2374.00 2385.43 48.72
3475 74.0760 2433.00 2382.90 49.33
3476 74.0930 2405.00 2381.91 49.04
3477 74.1100 2301.00 2381.60 47.97
3478 74.1270 2300.00 2381.30 47.96
3479 74.1440 2321.00 2381.00 48.18
3480 74.1610 2385.00 2380.14 48.84
3481 74.1780 2436.00 2379.85 49.36
3482 74.1950 2406.00 2379.56 49.05
3483 74.2120 2393.00 2379.27 48.92
3484 74.2290 2387.00 2378.98 48.86
3485 74.2460 2377.00 2378.69 48.75
3486 74.2630 2450.00 2378.40 49.50
3487 74.2800 2390.00 2377.04 48.89
3488 74.2970 2403.00 2376.76 49.02
3489 74.3140 2420.00 2376.48 49.19
3490 74.3310 2395.00 2376.21 48.94
3491 74.3480 2387.00 2375.93 48.86
3492 74.3650 2409.00 2375.38 49.08
3493 74.3820 2373.00 2375.11 48.71
3494 74.3990 2333.00 2374.84 48.30
3495 74.4160 2370.00 2374.57 48.68
3496 74.4330 2352.00 2374.30 48.50
3497 74.4500 2338.00 2374.03 48.35
3498 74.4670 2430.00 2373.76 49.29
3499 74.4840 2370.00 2373.50 48.68
3500 74.5010 2289.00 2373.23 47.84
3501 74.5180 2311.00 2372.97 48.07
3502 74.5350 2435.00 2372.70 49.35
3503 74.5520 2379.00 2372.44 48.78
3504 74.5690 2374.00 2372.17 48.72
3505 74.5860 2412.00 2371.91 49.11
3506 74.6030 2391.00 2371.65 48.90
3507 74.6200 2480.00 2371.38 49.80
3508 74.6370 2322.00 2371.12 48.19
3509 74.6540 2360.00 2370.86 48.58
3510 74.6710 2408.00 2370.60 49.07
3511 74.6880 2382.00 2370.34 48.81
3512 74.7050 2387.00 2370.08 48.86
3513 74.7220 2371.00 2369.82 48.69
3514 74.7390 2383.00 2369.57 48.82
3515 74.7560 2454.00 2369.31 49.54
3516 74.7730 2356.00 2369.05 48.54
3517 74.7900 2392.00 2368.80 48.91
3518 74.8070 2422.00 2368.54 49.21
3519 74.8240 2422.00 2368.28 49.21
3520 74.8410 2427.00 2368.03 49.26
3521 74.8580 2387.00 2367.78 48.86
3522 74.8750 2411.00 2367.52 49.10
3523 74.8920 2374.00 2367.27 48.72
3524 74.9090 2369.00 2367.02 48.67
3525 74.9260 2408.00 2366.77 49.07
3526 74.9430 2404.00 2366.52 49.03
3527 74.9600 2427.00 2366.27 49.26
3528 74.9770 2305.00 2366.01 48.01
3529 74.9940 2362.00 2365.77 48.60
loop_
_refln_index_h
_refln_index_k
_refln_index_l
_refln_F_squared_calc
_refln_F_squared_meas
_refln_F_squared_sigma
_refln_observed_status
_refln_d_spacing
0 0 1 0.11 0.18 1.14 < 5.518226
0 1 1 77.24 51.01 8.73 o 4.503422
-1 0 1 14461.70 14192.05 286.79 o 3.907614
1 0 1 14461.71 14192.05 284.97 o 3.907614
0 2 0 15668.83 15327.55 308.77 o 3.896291
-1 1 1 23.80 16.97 9.22 < 3.493043
1 1 1 23.80 16.97 9.25 < 3.493043
0 2 1 1.29 1.16 1.97 < 3.182853
2 0 0 18207.79 18182.42 374.69 o 2.767104
-2 0 0 18207.79 18182.42 362.22 o 2.767104
0 0 2 16181.68 15995.62 324.05 o 2.759113
1 2 1 18797.17 18581.04 375.44 o 2.759088
-1 2 1 18797.17 18581.04 377.28 o 2.759088
-2 1 0 81.63 49.12 20.16 < 2.607586
2 1 0 81.63 49.12 20.18 < 2.607586
0 1 2 1.88 1.09 0.62 < 2.600895
0 3 0 2.18 1.34 0.82 < 2.597527
-2 0 1 79.46 100.36 9.26 o 2.473539
2 0 1 79.46 100.36 9.20 o 2.473539
-1 0 2 313.87 396.69 35.76 o 2.469250
1 0 2 313.87 396.69 36.19 o 2.469250
2 1 1 122.47 105.92 4.98 o 2.357616
-2 1 1 122.47 105.92 4.98 o 2.357616
-1 1 2 319.57 283.10 12.83 o 2.353901
1 1 2 319.57 283.10 12.83 o 2.353901
0 3 1 351.91 312.13 14.14 o 2.350174
2 2 0 1237.33 1041.31 29.11 o 2.256048
-2 2 0 1237.33 1041.31 34.03 o 2.256048
0 2 2 1482.51 1245.34 37.35 o 2.251711
1 3 1 30.29 28.72 28.14 < 2.163200
-1 3 1 30.29 28.72 28.35 < 2.163200
2 2 1 175.09 113.95 19.89 o 2.088265
-2 2 1 175.09 113.95 20.05 o 2.088265
-1 2 2 59.15 38.86 6.66 o 2.085683
1 2 2 59.15 38.86 6.77 o 2.085683
-2 0 2 30250.12 31165.30 637.12 o 1.953807
2 0 2 30250.13 31165.31 639.18 o 1.953807
0 4 0 34998.33 35583.65 728.32 o 1.948145
-2 1 2 6.98 3.31 1.50 < 1.895147
2 1 2 6.98 3.31 1.50 < 1.895147
-2 3 0 19.65 8.23 4.66 < 1.893843
2 3 0 19.65 8.23 4.62 < 1.893843
0 3 2 1.14 0.40 0.29 < 1.891275
0 0 3 25.29 17.03 18.86 < 1.839409
0 4 1 0.00 0.00 0.00 < 1.837026
-2 3 1 23.32 15.35 1.93 o 1.791286
2 3 1 23.32 15.35 1.93 o 1.791286
0 1 3 290.72 195.36 23.90 o 1.790212
-1 3 2 169.59 114.61 13.88 o 1.789655
1 3 2 169.59 114.61 13.88 o 1.789655
-3 0 1 8180.38 8517.55 174.99 o 1.749563
3 0 1 8180.38 8517.55 174.36 o 1.749563
2 2 2 9879.29 10247.72 206.35 o 1.746522
-2 2 2 9879.29 10247.72 213.02 o 1.746522
1 0 3 6510.10 6731.58 138.39 o 1.745520
-1 0 3 6510.10 6731.58 136.84 o 1.745520
-1 4 1 7920.36 8136.97 167.05 o 1.743484
1 4 1 7920.37 8136.97 165.75 o 1.743484
-3 1 1 88.28 46.97 11.05 o 1.707067
3 1 1 88.28 46.97 11.07 o 1.707067
1 1 3 2.94 1.49 0.43 o 1.703311
-1 1 3 2.94 1.49 0.42 o 1.703311
0 2 3 0.48 0.36 0.21 < 1.663366
3 2 1 13209.41 13462.48 276.92 o 1.596041
-3 2 1 13209.41 13462.49 274.88 o 1.596041
-1 2 3 15321.88 15465.82 314.64 o 1.592970
1 2 3 15321.87 15465.82 318.92 o 1.592970
-2 4 0 11838.23 11949.45 240.90 o 1.592955
2 4 0 11838.23 11949.46 248.61 o 1.592955
0 4 2 10919.67 10977.59 224.88 o 1.591426
-2 3 2 13.73 9.02 1.45 o 1.561410
2 3 2 13.73 9.02 1.44 o 1.561410
0 5 0 0.90 0.59 0.12 o 1.558516
3 0 2 39.57 38.87 9.92 o 1.533545
-3 0 2 39.57 38.87 9.93 o 1.533545
2 0 3 100.79 98.44 25.08 o 1.531840
-2 0 3 100.79 98.44 24.61 o 1.531840
-2 4 1 28.80 27.55 7.10 o 1.530464
2 4 1 28.80 27.55 7.03 o 1.530464
-1 4 2 117.80 115.95 29.23 o 1.529446
1 4 2 117.80 115.95 29.76 o 1.529446
3 1 2 76.55 33.97 23.16 < 1.504685
-3 1 2 76.55 33.97 23.15 < 1.504685
2 1 3 94.94 43.04 28.50 < 1.503074
-2 1 3 94.94 43.04 28.52 < 1.503074
0 3 3 50.22 23.02 15.08 < 1.501141
0 5 1 12.70 5.87 3.88 < 1.499845
