#------------------------------------------------------------------------------
#$Date: 2016-03-21 01:21:50 +0200 (Mon, 21 Mar 2016) $
#$Revision: 178377 $
#$URL: svn://www.crystallography.net/cod/cif/4/00/21/4002106.cif $
#------------------------------------------------------------------------------
#
# This file is available in the Crystallography Open Database (COD),
# http://www.crystallography.net/
#
# All data on this site have been placed in the public domain by the
# contributors.
#
data_4002106
loop_
_publ_author_name
'Nanthamathee, Chompoonoot'
'Ling, Sanliang'
'Slater, Ben'
'Attfield, Martin P.'
_publ_section_title
;
 Contradistinct Thermoresponsive Behavior of Isostructural MIL-53 Type
 Metal--Organic Frameworks by Modifying the Framework Inorganic Anion
;
_journal_name_full               'Chemistry of Materials'
_journal_page_first              141223143002002
_journal_paper_doi               10.1021/cm503311x
_journal_year                    2014
_chemical_formula_sum            'C8 Al O5'
_chemical_formula_weight         203.07
_chemical_name_systematic        ' ?'
_space_group_IT_number           74
_symmetry_cell_setting           orthorhombic
_symmetry_space_group_name_Hall  '-I 2b 2'
_symmetry_space_group_name_H-M   'I m m a'
_audit_creation_date             2014-08-28T12:17
_audit_creation_method           'from EXP file using GSAS2CIF'
_audit_update_record
' 2014-08-28T12:17  Initial CIF as created by GSAS2CIF'
_cell_angle_alpha                90.0
_cell_angle_beta                 90.0
_cell_angle_gamma                90.0
_cell_formula_units_Z            4
_cell_length_a                   6.62905(6)
_cell_length_b                   16.73997(17)
_cell_length_c                   12.81723(22)
_cell_volume                     1422.33(3)
_computing_structure_refinement  GSAS
_diffrn_radiation_polarisn_ratio 0.95
_diffrn_radiation_probe          x-ray
_diffrn_radiation_wavelength     0.825993
_exptl_absorpt_correction_T_max  1.00000
_exptl_absorpt_correction_T_min  1.00000
_exptl_absorpt_process_details
;   GSAS Absorption/surface roughness correction: function number 0
 No correction is applied.
;
_pd_block_id                     2014-08-28T12:17|375K|300k|i11
_pd_calc_method                  'Rietveld Refinement'
_pd_instr_location               ' ?'
_pd_meas_2theta_range_inc        0.003
_pd_meas_2theta_range_max        149.9955
_pd_meas_2theta_range_min        0.0015
_pd_meas_number_of_points        49999
_pd_phase_name                   300K
_pd_proc_2theta_range_inc        0.003
_pd_proc_2theta_range_max        150.00433
_pd_proc_2theta_range_min        0.010334
_pd_proc_info_datetime           2014-08-28T12:17:30
_pd_proc_info_excluded_regions   ' ?'
_pd_proc_ls_background_function
;   GSAS Background function number 1 with  2 terms.
 Shifted Chebyshev function of 1st kind
      1:    0.00000     2:    0.00000    
;
_pd_proc_ls_peak_cutoff          0.00100
_pd_proc_ls_profile_function
;
 CW Profile function number 4 with  18 terms
 Pseudovoigt profile coefficients as parameterized in
 P. Thompson, D.E. Cox & J.B. Hastings (1987). J. Appl. Cryst.,20,79-83.
 Asymmetry correction of L.W. Finger, D.E. Cox & A. P. Jephcoat (1994).
 J. Appl. Cryst.,27,892-900.
 Microstrain broadening by P.W. Stephens,  (1999). J. Appl. Cryst.,32,281-289.
 Peak tails are ignored  where the intensity is below 0.0010 times the peak
   Aniso. broadening axis   1.0   0.0   1.0
;
_pd_proc_ls_prof_R_factor        0.0346
_pd_proc_ls_prof_wR_expected     0.0226
_pd_proc_ls_prof_wR_factor       0.0465
_pd_proc_number_of_points        49999
_pd_spec_mounting                ' ?'
_refine_ls_goodness_of_fit_all   2.06
_refine_ls_matrix_type           full
_refine_ls_number_parameters     27
_refine_ls_number_restraints     0
_refine_ls_R_Fsqd_factor         0.21085
_refine_ls_shift/su_max          0.05
_refine_ls_shift/su_mean         0.01
_reflns_d_resolution_high        1.209
_reflns_d_resolution_low         8.370
_reflns_limit_h_max              5
_reflns_limit_h_min              0
_reflns_limit_k_max              13
_reflns_limit_k_min              0
_reflns_limit_l_max              10
_reflns_limit_l_min              0
_reflns_number_total             252
_cod_data_source_file            aloh375K.cif
_cod_data_source_block           375K_publ
_cod_depositor_comments
;
The following automatic conversions were performed:

'_geom_bond_publ_flag' value 'N' changed to 'n' according to
/home/saulius/struct/COD-crude-data--automatic-downloads/rss-feeds/ACS/lib/dictionaries/cif_core.dic
dictionary named 'cif_core.dic' version 2.4.2 from 2011-04-26 (18
times).

'_geom_angle_publ_flag' value 'N' changed to 'n' according
to
/home/saulius/struct/COD-crude-data--automatic-downloads/rss-feeds/ACS/lib/dictionaries/cif_core.dic
dictionary named 'cif_core.dic' version 2.4.2 from 2011-04-26 (24
times).

Automatic conversion script
Id: cif_fix_values 2935 2014-11-11 08:27:57Z andrius 
;
_cod_original_cell_volume        1422.330(30)
_cod_database_code               4002106
#BEGIN Tags that were not found in dictionaries:
_gsas_exptl_extinct_corr_t_min   1.00000
_gsas_exptl_extinct_corr_t_max   1.00000
#END Tags that were not found in dictionaries
loop_
_symmetry_equiv_pos_site_id
_symmetry_equiv_pos_as_xyz
1 +x,+y,+z
2 -x,+y,+z
3 +x,-y+1/2,+z
4 -x,-y+1/2,+z
-1 -x,-y,-z
-2 +x,-y,-z
-3 -x,+y+1/2,-z
-4 +x,+y+1/2,-z
101 +x+1/2,+y+1/2,+z+1/2
102 -x+1/2,+y+1/2,+z+1/2
103 +x+1/2,-y,+z+1/2
104 -x+1/2,-y,+z+1/2
-101 -x+1/2,-y+1/2,-z+1/2
-102 +x+1/2,-y+1/2,-z+1/2
-103 -x+1/2,+y,-z+1/2
-104 +x+1/2,+y,-z+1/2
loop_
_atom_site_type_symbol
_atom_site_label
_atom_site_fract_x
_atom_site_fract_y
_atom_site_fract_z
_atom_site_occupancy
_atom_site_thermal_displace_type
_atom_site_U_iso_or_equiv
_atom_site_symmetry_multiplicity
Al Al1 0.25 0.25 0.75 1.0 Uiso 0.0215(10) 4
O O2 0.0 0.25 0.6863(4) 1.0 Uiso 0.0199(8) 4
O O1 0.16551(31) 0.16834(14) 0.84281(21) 1.0 Uiso 0.0199(8) 16
C C3 -0.1908(4) 0.03541(30) 0.9673(4) 1.0 Uiso 0.0419(14) 16
C C2 0.0 0.0629(4) 0.9459(5) 1.0 Uiso 0.0419(14) 8
C C1 0.0 0.1369(4) 0.8703(6) 1.0 Uiso 0.0419(14) 8
loop_
_atom_type_symbol
_atom_type_number_in_cell
_atom_type_scat_dispersion_real
_atom_type_scat_dispersion_imag
_atom_type_scat_Cromer_Mann_a1
_atom_type_scat_Cromer_Mann_a2
_atom_type_scat_Cromer_Mann_a3
_atom_type_scat_Cromer_Mann_a4
_atom_type_scat_Cromer_Mann_b1
_atom_type_scat_Cromer_Mann_b2
_atom_type_scat_Cromer_Mann_b3
_atom_type_scat_Cromer_Mann_b4
_atom_type_scat_Cromer_Mann_c
_atom_type_scat_source
Al 4.0 0.000 0.000 6.42020 3.03870 1.90020 0.74260 1.59360 31.5472 1.96460
85.0886 1.11510 International_Tables_Vol_C
O 20.0 0.000 0.000 3.04850 13.2771 2.28680 5.70110 1.54630 0.32390 0.86700
32.9089 0.25080 International_Tables_Vol_C
C 32.0 0.000 0.000 2.31000 20.8439 1.02000 10.2075 1.58860 0.56870 0.86500
51.6512 0.21560 International_Tables_Vol_C
loop_
_geom_angle_atom_site_label_1
_geom_angle_atom_site_label_2
_geom_angle_atom_site_label_3
_geom_angle
_geom_angle_site_symmetry_1
_geom_angle_site_symmetry_3
_geom_angle_publ_flag
O2 Al1 O2 180.0 1_555 -101_546 n
O2 Al1 O1 90.70(12) 1_555 1_555 n
O2 Al1 O1 90.70(12) 1_555 3_555 n
O2 Al1 O1 89.30(12) 1_555 -101_566 n
O2 Al1 O1 89.30(12) 1_555 -103_566 n
O2 Al1 O1 89.30(12) -101_566 1_555 n
O2 Al1 O1 89.30(12) -101_566 3_555 n
O2 Al1 O1 90.70(12) -101_566 -101_566 n
O2 Al1 O1 90.70(12) -101_566 -103_566 n
O1 Al1 O1 92.23(17) 1_555 3_555 n
O1 Al1 O1 180.0 1_555 -101_566 n
O1 Al1 O1 87.77(17) 1_555 -103_566 n
O1 Al1 O1 87.77(17) 3_555 -101_566 n
O1 Al1 O1 180.0 3_555 -103_566 n
O1 Al1 O1 92.23(17) -101_566 -103_566 n
Al1 O2 Al1 127.56(30) 1_555 2_555 n
Al1 O1 C1 136.86(35) 1_555 1_555 n
C3 C3 C2 112.86(35) -2_557 1_555 n
C3 C2 C3 134.1(7) 1_555 2_555 n
C3 C2 C1 112.7(4) 1_555 1_555 n
C3 C2 C1 112.7(4) 2_555 1_555 n
O1 C1 O1 120.0(6) 1_555 2_555 n
O1 C1 C2 119.91(30) 1_555 1_555 n
O1 C1 C2 119.91(30) 2_555 1_555 n
loop_
_geom_bond_atom_site_label_1
_geom_bond_atom_site_label_2
_geom_bond_distance
_geom_bond_site_symmetry_2
_geom_bond_publ_flag
Al1 O2 1.8473(24) 1_555 n
Al1 O2 1.8473(24) -101_445 n
Al1 O1 1.8967(20) 1_555 n
Al1 O1 1.8967(20) 3_555 n
Al1 O1 1.8967(20) -101_445 n
Al1 O1 1.8967(20) -103_445 n
O2 Al1 1.8473(24) 1_555 n
O2 Al1 1.8473(24) 2_555 n
O1 Al1 1.8967(20) 1_555 n
O1 C1 1.2669(33) 1_555 n
C3 C3 1.452(7) -2_557 n
C3 C2 1.3730(31) 1_555 n
C2 C3 1.3730(31) 1_555 n
C2 C3 1.3730(31) 2_555 n
C2 C1 1.573(6) 1_555 n
C1 O1 1.2669(33) 1_555 n
C1 O1 1.2669(33) 2_555 n
C1 C2 1.573(6) 1_555 n
loop_
_pd_meas_intensity_total
_pd_proc_ls_weight
_pd_proc_intensity_bkg_calc
_pd_calc_intensity_total
22.0(25) 0.0 0.00 .
16.1(21) 0.0 0.00 .
12.9(19) 0.0 0.00 .
25.8(27) 0.0 0.00 .
31.9(30) 0.0 0.00 .
72(5) 0.0 0.0 .
82(5) 0.0 0.0 .
517(13) 0.0 0.0 .
960(16) 0.0 0.0 .
2037(24) 0.0 0.0 .
2331(26) 0.0 0.0 .
2327(26) 0.0 0.0 .
2376(26) 0.0 0.0 .
908(17) 0.0 0.0 .
63(4) 0.0 0.0 .
54(4) 0.0 0.0 .
41(4) 0.0 0.0 .
36.9(33) 0.0 0.00 .
47(4) 0.0 0.0 .
50(4) 0.0 0.0 .
186(8) 0.0 0.0 .
286(9) 0.0 0.0 .
646(14) 0.0 0.0 .
823(15) 0.0 0.0 .
919(16) 0.0 0.0 .
1114(18) 0.0 0.0 .
1197(19) 0.0 0.0 .
1406(20) 0.0 0.0 .
1630(21) 0.0 0.0 .
1630(21) 0.0 0.0 .
1902(23) 0.0 0.0 .
1975(25) 0.0 0.0 .
1689(22) 0.0 0.0 .
1538(20) 0.0 0.0 .
1132(18) 0.0 0.0 .
650(14) 0.0 0.0 .
329(10) 0.0 0.0 .
229(8) 0.0 0.0 .
138(6) 0.0 0.0 .
72(4) 0.0 0.0 .
42.0(35) 0.0 0.00 .
42(4) 0.0 0.0 .
26.7(28) 0.0 0.00 .
26.1(27) 0.0 0.00 .
26.7(27) 0.0 0.00 .
32.6(30) 0.0 0.00 .
28.6(29) 0.0 0.00 .
25.5(27) 0.0 0.00 .
30.5(29) 0.0 0.00 .
26.9(27) 0.0 0.00 .
23.4(26) 0.0 0.00 .
26.8(29) 0.0 0.00 .
23.2(25) 0.0 0.00 .
26.7(28) 0.0 0.00 .
25.1(27) 0.0 0.00 .
38.1(33) 0.0 0.00 .
41.3(35) 0.0 0.00 .
27.8(28) 0.0 0.00 .
29.8(29) 0.0 0.00 .
25.0(26) 0.0 0.00 .
27.1(28) 0.0 0.00 .
29.9(30) 0.0 0.00 .
39.6(33) 0.0 0.00 .
34.3(31) 0.0 0.00 .
33.6(32) 0.0 0.00 .
31.0(32) 0.0 0.00 .
26.3(28) 0.0 0.00 .
25.0(26) 0.0 0.00 .
28.6(28) 0.0 0.00 .
36.8(32) 0.0 0.00 .
35.1(32) 0.0 0.00 .
35.8(32) 0.0 0.00 .
34.9(30) 0.0 0.00 .
23.1(25) 0.0 0.00 .
36.9(32) 0.0 0.00 .
29.8(30) 0.0 0.00 .
38(4) 0.0 0.0 .
28.9(29) 0.0 0.00 .
32.8(31) 0.0 0.00 .
33.0(31) 0.0 0.00 .
38(4) 0.0 0.0 .
33.0(32) 0.0 0.00 .
35.5(31) 0.0 0.00 .
42.8(35) 0.0 0.00 .
36.3(33) 0.0 0.00 .
34.7(32) 0.0 0.00 .
43(4) 0.0 0.0 .
38.5(32) 0.0 0.00 .
30.2(29) 0.0 0.00 .
42(4) 0.0 0.0 .
51(4) 0.0 0.0 .
41.0(33) 0.0 0.00 .
43.7(34) 0.0 0.00 .
47(4) 0.0 0.0 .
47(4) 0.0 0.0 .
51(4) 0.0 0.0 .
66(4) 0.0 0.0 .
76(5) 0.0 0.0 .
85(5) 0.0 0.0 .
98(5) 0.0 0.0 .
95(5) 0.0 0.0 .
118(6) 0.0 0.0 .
128(6) 0.0 0.0 .
117(6) 0.0 0.0 .
137(6) 0.0 0.0 .
148(6) 0.0 0.0 .
170(7) 0.0 0.0 .
160(7) 0.0 0.0 .
183(7) 0.0 0.0 .
185(7) 0.0 0.0 .
168(7) 0.0 0.0 .
175(7) 0.0 0.0 .
198(7) 0.0 0.0 .
211(8) 0.0 0.0 .
229(8) 0.0 0.0 .
249(8) 0.0 0.0 .
245(8) 0.0 0.0 .
247(8) 0.0 0.0 .
262(9) 0.0 0.0 .
262(9) 0.0 0.0 .
272(9) 0.0 0.0 .
282(9) 0.0 0.0 .
302(9) 0.0 0.0 .
296(9) 0.0 0.0 .
305(10) 0.0 0.0 .
322(10) 0.0 0.0 .
328(9) 0.0 0.0 .
336(10) 0.0 0.0 .
346(10) 0.0 0.0 .
375(11) 0.0 0.0 .
358(10) 0.0 0.0 .
346(10) 0.0 0.0 .
364(10) 0.0 0.0 .
392(11) 0.0 0.0 .
385(11) 0.0 0.0 .
396(11) 0.0 0.0 .
423(11) 0.0 0.0 .
405(10) 0.0 0.0 .
425(11) 0.0 0.0 .
473(12) 0.0 0.0 .
481(12) 0.0 0.0 .
447(11) 0.0 0.0 .
445(11) 0.0 0.0 .
464(12) 0.0 0.0 .
486(12) 0.0 0.0 .
512(12) 0.0 0.0 .
489(11) 0.0 0.0 .
493(12) 0.0 0.0 .
502(12) 0.0 0.0 .
504(12) 0.0 0.0 .
509(12) 0.0 0.0 .
527(12) 0.0 0.0 .
543(12) 0.0 0.0 .
502(12) 0.0 0.0 .
504(12) 0.0 0.0 .
475(12) 0.0 0.0 .
489(11) 0.0 0.0 .
526(12) 0.0 0.0 .
537(13) 0.0 0.0 .
530(12) 0.0 0.0 .
558(12) 0.0 0.0 .
556(12) 0.0 0.0 .
550(13) 0.0 0.0 .
554(13) 0.0 0.0 .
582(13) 0.0 0.0 .
538(12) 0.0 0.0 .
550(12) 0.0 0.0 .
562(13) 0.0 0.0 .
580(13) 0.0 0.0 .
593(13) 0.0 0.0 .
578(12) 0.0 0.0 .
593(13) 0.0 0.0 .
582(13) 0.0 0.0 .
562(13) 0.0 0.0 .
608(13) 0.0 0.0 .
584(13) 0.0 0.0 .
618(13) 0.0 0.0 .
629(13) 0.0 0.0 .
630(14) 0.0 0.0 .
621(13) 0.0 0.0 .
597(13) 0.0 0.0 .
613(13) 0.0 0.0 .
627(13) 0.0 0.0 .
645(14) 0.0 0.0 .
638(14) 0.0 0.0 .
628(13) 0.0 0.0 .
629(13) 0.0 0.0 .
645(14) 0.0 0.0 .
636(14) 0.0 0.0 .
633(13) 0.0 0.0 .
625(13) 0.0 0.0 .
635(13) 0.0 0.0 .
655(14) 0.0 0.0 .
650(14) 0.0 0.0 .
681(14) 0.0 0.0 .
665(13) 0.0 0.0 .
656(14) 0.0 0.0 .
658(14) 0.0 0.0 .
656(14) 0.0 0.0 .
721(14) 0.0 0.0 .
668(13) 0.0 0.0 .
691(14) 0.0 0.0 .
668(14) 0.0 0.0 .
683(14) 0.0 0.0 .
675(14) 0.0 0.0 .
708(14) 0.0 0.0 .
689(14) 0.0 0.0 .
694(14) 0.0 0.0 .
674(14) 0.0 0.0 .
679(14) 0.0 0.0 .
738(14) 0.0 0.0 .
742(15) 0.0 0.0 .
745(15) 0.0 0.0 .
723(14) 0.0 0.0 .
729(14) 0.0 0.0 .
707(14) 0.0 0.0 .
735(14) 0.0 0.0 .
720(15) 0.0 0.0 .
728(14) 0.0 0.0 .
732(14) 0.0 0.0 .
780(14) 0.0 0.0 .
760(15) 0.0 0.0 .
730(15) 0.0 0.0 .
748(15) 0.0 0.0 .
768(14) 0.0 0.0 .
737(14) 0.0 0.0 .
791(15) 0.0 0.0 .
783(16) 0.0 0.0 .
750(15) 0.0 0.0 .
762(14) 0.0 0.0 .
787(15) 0.0 0.0 .
831(15) 0.0 0.0 .
804(16) 0.0 0.0 .
806(15) 0.0 0.0 .
771(14) 0.0 0.0 .
768(14) 0.0 0.0 .
803(15) 0.0 0.0 .
795(16) 0.0 0.0 .
855(16) 0.0 0.0 .
823(15) 0.0 0.0 .
832(15) 0.0 0.0 .
785(15) 0.0 0.0 .
837(16) 0.0 0.0 .
830(16) 0.0 0.0 .
781(15) 0.0 0.0 .
827(15) 0.0 0.0 .
847(16) 0.0 0.0 .
855(16) 0.0 0.0 .
825(15) 0.0 0.0 .
807(15) 0.0 0.0 .
842(15) 0.0 0.0 .
882(16) 0.0 0.0 .
828(15) 0.0 0.0 .
831(15) 0.0 0.0 .
834(15) 0.0 0.0 .
820(15) 0.0 0.0 .
873(16) 0.0 0.0 .
870(16) 0.0 0.0 .
849(15) 0.0 0.0 .
857(15) 0.0 0.0 .
851(16) 0.0 0.0 .
853(16) 0.0 0.0 .
838(15) 0.0 0.0 .
864(15) 0.0 0.0 .
834(15) 0.0 0.0 .
830(15) 0.0 0.0 .
924(17) 0.0 0.0 .
872(16) 0.0 0.0 .
862(16) 0.0 0.0 .
923(16) 0.0 0.0 .
874(16) 0.0 0.0 .
904(17) 0.0 0.0 .
874(16) 0.0 0.0 .
867(15) 0.0 0.0 .
864(15) 0.0 0.0 .
905(16) 0.0 0.0 .
892(17) 0.0 0.0 .
866(16) 0.0 0.0 .
903(16) 0.0 0.0 .
872(15) 0.0 0.0 .
841(15) 0.0 0.0 .
876(16) 0.0 0.0 .
930(16) 0.0 0.0 .
938(16) 0.0 0.0 .
886(16) 0.0 0.0 .
940(16) 0.0 0.0 .
934(17) 0.0 0.0 .
930(16) 0.0 0.0 .
942(16) 0.0 0.0 .
976(17) 0.0 0.0 .
910(16) 0.0 0.0 .
910(17) 0.0 0.0 .
889(16) 0.0 0.0 .
901(16) 0.0 0.0 .
960(16) 0.0 0.0 .
935(16) 0.0 0.0 .
906(16) 0.0 0.0 .
897(16) 0.0 0.0 .
919(16) 0.0 0.0 .
932(16) 0.0 0.0 .
939(17) 0.0 0.0 .
938(17) 0.0 0.0 .
951(16) 0.0 0.0 .
919(16) 0.0 0.0 .
942(16) 0.0 0.0 .
937(17) 0.0 0.0 .
942(17) 0.0 0.0 .
955(16) 0.0 0.0 .
953(16) 0.0 0.0 .
931(17) 0.0 0.0 .
930(17) 0.0 0.0 .
933(16) 0.0 0.0 .
917(16) 0.0 0.0 .
973(16) 0.0 0.0 .
977(17) 0.0 0.0 .
985(17) 0.0 0.0 .
921(16) 0.0 0.0 .
982(16) 0.0 0.0 .
948(16) 0.0 0.0 .
962(17) 0.0 0.0 .
962(17) 0.0 0.0 .
960(17) 0.0 0.0 .
952(16) 0.0 0.0 .
951(16) 0.0 0.0 .
984(17) 0.0 0.0 .
962(17) 0.0 0.0 .
984(17) 0.0 0.0 .
989(16) 0.0 0.0 .
953(16) 0.0 0.0 .
944(17) 0.0 0.0 .
990(18) 0.0 0.0 .
967(17) 0.0 0.0 .
966(16) 0.0 0.0 .
968(16) 0.0 0.0 .
980(17) 0.0 0.0 .
1014(17) 0.0 0.0 .
1017(17) 0.0 0.0 .
1011(16) 0.0 0.0 .
1018(17) 0.0 0.0 .
1000(17) 0.0 0.0 .
1007(17) 0.0 0.0 .
1025(17) 0.0 0.0 .
997(16) 0.0 0.0 .
1004(17) 0.0 0.0 .
1022(17) 0.0 0.0 .
993(17) 0.0 0.0 .
1053(17) 0.0 0.0 .
1051(17) 0.0 0.0 .
1011(17) 0.0 0.0 .
979(17) 0.0 0.0 .
1052(18) 0.0 0.0 .
1002(17) 0.0 0.0 .
1022(17) 0.0 0.0 .
1031(17) 0.0 0.0 .
1049(18) 0.0 0.0 .
1094(18) 0.0 0.0 .
1080(17) 0.0 0.0 .
1044(17) 0.0 0.0 .
1106(18) 0.0 0.0 .
1059(18) 0.0 0.0 .
1070(18) 0.0 0.0 .
1063(17) 0.0 0.0 .
1070(17) 0.0 0.0 .
1094(18) 0.0 0.0 .
1086(18) 0.0 0.0 .
1072(18) 0.0 0.0 .
1058(17) 0.0 0.0 .
1126(17) 0.0 0.0 .
1118(18) 0.0 0.0 .
1086(18) 0.0 0.0 .
1162(18) 0.0 0.0 .
1098(17) 0.0 0.0 .
1130(18) 0.0 0.0 .
1147(18) 0.0 0.0 .
1144(19) 0.0 0.0 .
1118(18) 0.0 0.0 .
1126(17) 0.0 0.0 .
1107(17) 0.0 0.0 .
1161(18) 0.0 0.0 .
1177(19) 0.0 0.0 .
1155(18) 0.0 0.0 .
1124(17) 0.0 0.0 .
1134(18) 0.0 0.0 .
1170(19) 0.0 0.0 .
1123(19) 0.0 0.0 .
1155(18) 0.0 0.0 .
1163(18) 0.0 0.0 .
1088(17) 0.0 0.0 .
1171(18) 0.0 0.0 .
1128(18) 0.0 0.0 .
1143(18) 0.0 0.0 .
1194(18) 0.0 0.0 .
1169(18) 0.0 0.0 .
1193(19) 0.0 0.0 .
1200(19) 0.0 0.0 .
1202(19) 0.0 0.0 .
1198(18) 0.0 0.0 .
1141(18) 0.0 0.0 .
1200(19) 0.0 0.0 .
1170(18) 0.0 0.0 .
1173(18) 0.0 0.0 .
1187(18) 0.0 0.0 .
1145(18) 0.0 0.0 .
1191(19) 0.0 0.0 .
1254(19) 0.0 0.0 .
1262(19) 0.0 0.0 .
1268(19) 0.0 0.0 .
1239(19) 0.0 0.0 .
1233(19) 0.0 0.0 .
1226(19) 0.0 0.0 .
1246(19) 0.0 0.0 .
1229(18) 0.0 0.0 .
1177(18) 0.0 0.0 .
1208(19) 0.0 0.0 .
1265(19) 0.0 0.0 .
1193(18) 0.0 0.0 .
1241(18) 0.0 0.0 .
1191(19) 0.0 0.0 .
1289(20) 0.0 0.0 .
1226(19) 0.0 0.0 .
1243(19) 0.0 0.0 .
1215(18) 0.0 0.0 .
1235(19) 0.0 0.0 .
1206(19) 0.0 0.0 .
1260(19) 0.0 0.0 .
1265(19) 0.0 0.0 .
1304(19) 0.0 0.0 .
1268(19) 0.0 0.0 .
1281(20) 0.0 0.0 .
1328(20) 0.0 0.0 .
1281(19) 0.0 0.0 .
1214(18) 0.0 0.0 .
1284(19) 0.0 0.0 .
1230(19) 0.0 0.0 .
1272(19) 0.0 0.0 .
1248(18) 0.0 0.0 .
1258(18) 0.0 0.0 .
1265(19) 0.0 0.0 .
1264(20) 0.0 0.0 .
1303(20) 0.0 0.0 .
1243(18) 0.0 0.0 .
1225(18) 0.0 0.0 .
1259(19) 0.0 0.0 .
1274(20) 0.0 0.0 .
1213(19) 0.0 0.0 .
1280(19) 0.0 0.0 .
1247(19) 0.0 0.0 .
1254(19) 0.0 0.0 .
1247(19) 0.0 0.0 .
1256(19) 0.0 0.0 .
1230(18) 0.0 0.0 .
1223(19) 0.0 0.0 .
1226(19) 0.0 0.0 .
1218(19) 0.0 0.0 .
1257(19) 0.0 0.0 .
1240(18) 0.0 0.0 .
1283(19) 0.0 0.0 .
1250(19) 0.0 0.0 .
1230(19) 0.0 0.0 .
1243(19) 0.0 0.0 .
1290(19) 0.0 0.0 .
1295(19) 0.0 0.0 .
1271(20) 0.0 0.0 .
1304(20) 0.0 0.0 .
1220(18) 0.0 0.0 .
1221(18) 0.0 0.0 .
1235(19) 0.0 0.0 .
1268(20) 0.0 0.0 .
1263(19) 0.0 0.0 .
1287(19) 0.0 0.0 .
1260(19) 0.0 0.0 .
1234(19) 0.0 0.0 .
1207(19) 0.0 0.0 .
1305(20) 0.0 0.0 .
1255(18) 0.0 0.0 .
1259(19) 0.0 0.0 .
1272(19) 0.0 0.0 .
1279(20) 0.0 0.0 .
1248(19) 0.0 0.0 .
1268(19) 0.0 0.0 .
1292(19) 0.0 0.0 .
1225(19) 0.0 0.0 .
1262(20) 0.0 0.0 .
1248(19) 0.0 0.0 .
1232(18) 0.0 0.0 .
1202(18) 0.0 0.0 .
1234(19) 0.0 0.0 .
1210(19) 0.0 0.0 .
1214(19) 0.0 0.0 .
1206(18) 0.0 0.0 .
1208(18) 0.0 0.0 .
1289(19) 0.0 0.0 .
1258(19) 0.0 0.0 .
1275(19) 0.0 0.0 .
1245(18) 0.0 0.0 .
1293(19) 0.0 0.0 .
1216(19) 0.0 0.0 .
1288(20) 0.0 0.0 .
1263(19) 0.0 0.0 .
1254(18) 0.0 0.0 .
1219(18) 0.0 0.0 .
1249(19) 0.0 0.0 .
1302(19) 0.0 0.0 .
1232(19) 0.0 0.0 .
1258(18) 0.0 0.0 .
1297(19) 0.0 0.0 .
1297(20) 0.0 0.0 .
1266(19) 0.0 0.0 .
1245(19) 0.0 0.0 .
1230(18) 0.0 0.0 .
1236(19) 0.0 0.0 .
1214(19) 0.0 0.0 .
1222(19) 0.0 0.0 .
1238(19) 0.0 0.0 .
1239(18) 0.0 0.0 .
1240(19) 0.0 0.0 .
1252(19) 0.0 0.0 .
1189(18) 0.0 0.0 .
1206(18) 0.0 0.0 .
1240(18) 0.0 0.0 .
1237(19) 0.0 0.0 .
1218(19) 0.0 0.0 .
1234(19) 0.0 0.0 .
1280(19) 0.0 0.0 .
1255(18) 0.0 0.0 .
1233(19) 0.0 0.0 .
1241(20) 0.0 0.0 .
1264(19) 0.0 0.0 .
1282(19) 0.0 0.0 .
1213(18) 0.0 0.0 .
1243(19) 0.0 0.0 .
1199(19) 0.0 0.0 .
1231(19) 0.0 0.0 .
1223(18) 0.0 0.0 .
1236(18) 0.0 0.0 .
1220(19) 0.0 0.0 .
1209(19) 0.0 0.0 .
1220(19) 0.0 0.0 .
1224(18) 0.0 0.0 .
1233(18) 0.0 0.0 .
1209(19) 0.0 0.0 .
1217(19) 0.0 0.0 .
1266(19) 0.0 0.0 .
1222(18) 0.0 0.0 .
1265(19) 0.0 0.0 .
1187(18) 0.0 0.0 .
1200(19) 0.0 0.0 .
1247(19) 0.0 0.0 .
1293(19) 0.0 0.0 .
1231(19) 0.0 0.0 .
1249(19) 0.0 0.0 .
1256(19) 0.0 0.0 .
1215(19) 0.0 0.0 .
1180(18) 0.0 0.0 .
1224(19) 0.0 0.0 .
1206(19) 0.0 0.0 .
1216(19) 0.0 0.0 .
1219(19) 0.0 0.0 .
1174(18) 0.0 0.0 .
1218(19) 0.0 0.0 .
1210(19) 0.0 0.0 .
1260(19) 0.0 0.0 .
1258(19) 0.0 0.0 .
1213(18) 0.0 0.0 .
1270(19) 0.0 0.0 .
1230(19) 0.0 0.0 .
1197(19) 0.0 0.0 .
1251(19) 0.0 0.0 .
1204(18) 0.0 0.0 .
1220(19) 0.0 0.0 .
1174(19) 0.0 0.0 .
1231(19) 0.0 0.0 .
1248(18) 0.0 0.0 .
1212(18) 0.0 0.0 .
1159(18) 0.0 0.0 .
1216(19) 0.0 0.0 .
1185(18) 0.0 0.0 .
1254(18) 0.0 0.0 .
1192(18) 0.0 0.0 .
1218(19) 0.0 0.0 .
1217(19) 0.0 0.0 .
1227(19) 0.0 0.0 .
1255(18) 0.0 0.0 .
1218(18) 0.0 0.0 .
1267(19) 0.0 0.0 .
1220(19) 0.0 0.0 .
1225(19) 0.0 0.0 .
1239(18) 0.0 0.0 .
1182(18) 0.0 0.0 .
1204(18) 0.0 0.0 .
1208(19) 0.0 0.0 .
1251(19) 0.0 0.0 .
1230(18) 0.0 0.0 .
1192(18) 0.0 0.0 .
1172(18) 0.0 0.0 .
1227(19) 0.0 0.0 .
1180(19) 0.0 0.0 .
1196(18) 0.0 0.0 .
1183(18) 0.0 0.0 .
1204(19) 0.0 0.0 .
1203(19) 0.0 0.0 .
1260(19) 0.0 0.0 .
1229(18) 0.0 0.0 .
1206(18) 0.0 0.0 .
1187(19) 0.0 0.0 .
1259(19) 0.0 0.0 .
1218(19) 0.0 0.0 .
1172(18) 0.0 0.0 .
1145(18) 0.0 0.0 .
1168(19) 0.0 0.0 .
1146(18) 0.0 0.0 .
1209(19) 0.0 0.0 .
1170(18) 0.0 0.0 .
1179(19) 0.0 0.0 .
1202(19) 0.0 0.0 .
1143(18) 0.0 0.0 .
1165(18) 0.0 0.0 .
1164(18) 0.0 0.0 .
1196(19) 0.0 0.0 .
1171(19) 0.0 0.0 .
1169(18) 0.0 0.0 .
1219(18) 0.0 0.0 .
1220(18) 0.0 0.0 .
1161(18) 0.0 0.0 .
1129(19) 0.0 0.0 .
1182(18) 0.0 0.0 .
1156(18) 0.0 0.0 .
1233(18) 0.0 0.0 .
1140(18) 0.0 0.0 .
1138(19) 0.0 0.0 .
1165(18) 0.0 0.0 .
1161(18) 0.0 0.0 .
1155(18) 0.0 0.0 .
1195(18) 0.0 0.0 .
1134(19) 0.0 0.0 .
1161(18) 0.0 0.0 .
1170(18) 0.0 0.0 .
1137(18) 0.0 0.0 .
1152(18) 0.0 0.0 .
1140(19) 0.0 0.0 .
1144(18) 0.0 0.0 .
1125(17) 0.0 0.0 .
1142(18) 0.0 0.0 .
1121(18) 0.0 0.0 .
1127(18) 0.0 0.0 .
1166(18) 0.0 0.0 .
1160(18) 0.0 0.0 .
1104(18) 0.0 0.0 .
1141(18) 0.0 0.0 .
1161(19) 0.0 0.0 .
1172(19) 0.0 0.0 .
1133(17) 0.0 0.0 .
1134(18) 0.0 0.0 .
1145(18) 0.0 0.0 .
1131(18) 0.0 0.0 .
1170(18) 0.0 0.0 .
1144(18) 0.0 0.0 .
1130(18) 0.0 0.0 .
1147(18) 0.0 0.0 .
1146(18) 0.0 0.0 .
1117(18) 0.0 0.0 .
1118(17) 0.0 0.0 .
1140(18) 0.0 0.0 .
1121(18) 0.0 0.0 .
1157(19) 0.0 0.0 .
1173(18) 0.0 0.0 .
1152(18) 0.0 0.0 .
1119(18) 0.0 0.0 .
1127(19) 0.0 0.0 .
1169(19) 0.0 0.0 .
1068(17) 0.0 0.0 .
1147(18) 0.0 0.0 .
1186(19) 0.0 0.0 .
1101(18) 0.0 0.0 .
1135(18) 0.0 0.0 .
1098(17) 0.0 0.0 .
1103(17) 0.0 0.0 .
1101(18) 0.0 0.0 .
1134(19) 0.0 0.0 .
1136(18) 0.0 0.0 .
1128(18) 0.0 0.0 .
1093(17) 0.0 0.0 .
1097(18) 0.0 0.0 .
1117(19) 0.0 0.0 .
1135(18) 0.0 0.0 .
1086(17) 0.0 0.0 .
1109(17) 0.0 0.0 .
1128(18) 0.0 0.0 .
1093(18) 0.0 0.0 .
1110(18) 0.0 0.0 .
1100(17) 0.0 0.0 .
1108(17) 0.0 0.0 .
1118(18) 0.0 0.0 .
1104(18) 0.0 0.0 .
1059(18) 0.0 0.0 .
1113(17) 0.0 0.0 .
1076(17) 0.0 0.0 .
1069(17) 0.0 0.0 .
1075(18) 0.0 0.0 .
1072(18) 0.0 0.0 .
1049(17) 0.0 0.0 .
1110(18) 0.0 0.0 .
1128(18) 0.0 0.0 .
1090(18) 0.0 0.0 .
1106(18) 0.0 0.0 .
1076(17) 0.0 0.0 .
1078(17) 0.0 0.0 .
1087(18) 0.0 0.0 .
1109(18) 0.0 0.0 .
1124(18) 0.0 0.0 .
1095(17) 0.0 0.0 .
1122(18) 0.0 0.0 .
1111(18) 0.0 0.0 .
1125(18) 0.0 0.0 .
1107(18) 0.0 0.0 .
1049(17) 0.0 0.0 .
1074(18) 0.0 0.0 .
1158(19) 0.0 0.0 .
1118(18) 0.0 0.0 .
1122(18) 0.0 0.0 .
1054(17) 0.0 0.0 .
1036(17) 0.0 0.0 .
1084(18) 0.0 0.0 .
1081(18) 0.0 0.0 .
1015(17) 0.0 0.0 .
1030(17) 0.0 0.0 .
1079(18) 0.0 0.0 .
1027(18) 0.0 0.0 .
1086(18) 0.0 0.0 .
1050(17) 0.0 0.0 .
1042(17) 0.0 0.0 .
1089(18) 0.0 0.0 .
1078(18) 0.0 0.0 .
1058(17) 0.0 0.0 .
1043(17) 0.0 0.0 .
1036(17) 0.0 0.0 .
1023(17) 0.0 0.0 .
1043(18) 0.0 0.0 .
1035(17) 0.0 0.0 .
1017(16) 0.0 0.0 .
1062(17) 0.0 0.0 .
1061(18) 0.0 0.0 .
1072(18) 0.0 0.0 .
1053(18) 0.0 0.0 .
1070(17) 0.0 0.0 .
1070(17) 0.0 0.0 .
1045(17) 0.0 0.0 .
1078(18) 0.0 0.0 .
1051(17) 0.0 0.0 .
1025(17) 0.0 0.0 .
1047(17) 0.0 0.0 .
1069(18) 0.0 0.0 .
1027(17) 0.0 0.0 .
1050(17) 0.0 0.0 .
1010(16) 0.0 0.0 .
1051(17) 0.0 0.0 .
1038(17) 0.0 0.0 .
1052(17) 0.0 0.0 .
1009(17) 0.0 0.0 .
1055(17) 0.0 0.0 .
1044(17) 0.0 0.0 .
1003(17) 0.0 0.0 .
1022(17) 0.0 0.0 .
1030(17) 0.0 0.0 .
1026(17) 0.0 0.0 .
1018(17) 0.0 0.0 .
997(17) 0.0 0.0 .
1004(17) 0.0 0.0 .
1036(17) 0.0 0.0 .
1027(17) 0.0 0.0 .
963(17) 0.0 0.0 .
991(17) 0.0 0.0 .
977(17) 0.0 0.0 .
1002(17) 0.0 0.0 .
1009(17) 0.0 0.0 .
1021(17) 0.0 0.0 .
1010(18) 0.0 0.0 .
1026(17) 0.0 0.0 .
1042(17) 0.0 0.0 .
1004(16) 0.0 0.0 .
1021(17) 0.0 0.0 .
1009(18) 0.0 0.0 .
1026(17) 0.0 0.0 .
1031(17) 0.0 0.0 .
1022(17) 0.0 0.0 .
978(17) 0.0 0.0 .
1011(18) 0.0 0.0 .
1020(17) 0.0 0.0 .
1046(17) 0.0 0.0 .
1019(17) 0.0 0.0 .
1015(17) 0.0 0.0 .
1022(18) 0.0 0.0 .
1012(17) 0.0 0.0 .
1011(16) 0.0 0.0 .
1015(17) 0.0 0.0 .
1063(18) 0.0 0.0 .
1003(17) 0.0 0.0 .
970(17) 0.0 0.0 .
1003(16) 0.0 0.0 .
992(17) 0.0 0.0 .
969(17) 0.0 0.0 .
990(17) 0.0 0.0 .
1023(17) 0.0 0.0 .
971(16) 0.0 0.0 .
965(16) 0.0 0.0 .
973(17) 0.0 0.0 .
993(17) 0.0 0.0 .
1010(17) 0.0 0.0 .
1023(17) 0.0 0.0 .
1032(17) 0.0 0.0 .
974(17) 0.0 0.0 .
964(17) 0.0 0.0 .
964(16) 0.0 0.0 .
1024(17) 0.0 0.0 .
996(17) 0.0 0.0 .
974(17) 0.0 0.0 .
980(17) 0.0 0.0 .
995(17) 0.0 0.0 .
983(16) 0.0 0.0 .
991(17) 0.0 0.0 .
982(17) 0.0 0.0 .
946(17) 0.0 0.0 .
943(16) 0.0 0.0 .
942(16) 0.0 0.0 .
1010(17) 0.0 0.0 .
1007(17) 0.0 0.0 .
974(17) 0.0 0.0 .
987(16) 0.0 0.0 .
997(16) 0.0 0.0 .
940(16) 0.0 0.0 .
968(17) 0.0 0.0 .
974(17) 0.0 0.0 .
957(16) 0.0 0.0 .
955(16) 0.0 0.0 .
1021(17) 0.0 0.0 .
966(17) 0.0 0.0 .
953(16) 0.0 0.0 .
968(16) 0.0 0.0 .
961(16) 0.0 0.0 .
924(16) 0.0 0.0 .
963(17) 0.0 0.0 .
986(17) 0.0 0.0 .
980(16) 0.0 0.0 .
956(16) 0.0 0.0 .
955(17) 0.0 0.0 .
984(17) 0.0 0.0 .
977(17) 0.0 0.0 .
971(16) 0.0 0.0 .
953(16) 0.0 0.0 .
953(17) 0.0 0.0 .
988(17) 0.0 0.0 .
1031(17) 0.0 0.0 .
979(16) 0.0 0.0 .
966(16) 0.0 0.0 .
951(17) 0.0 0.0 .
933(16) 0.0 0.0 .
981(17) 0.0 0.0 .
914(16) 0.0 0.0 .
979(17) 0.0 0.0 .
941(17) 0.0 0.0 .
956(17) 0.0 0.0 .
898(16) 0.0 0.0 .
1004(16) 0.0 0.0 .
987(17) 0.0 0.0 .
944(17) 0.0 0.0 .
936(16) 0.0 0.0 .
914(16) 0.0 0.0 .
957(16) 0.0 0.0 .
875(16) 0.0 0.0 .
893(17) 0.0 0.0 .
949(17) 0.0 0.0 .
959(16) 0.0 0.0 .
978(16) 0.0 0.0 .
959(17) 0.0 0.0 .
928(17) 0.0 0.0 .
937(17) 0.0 0.0 .
930(16) 0.0 0.0 .
932(16) 0.0 0.0 .
912(16) 0.0 0.0 .
959(17) 0.0 0.0 .
931(16) 0.0 0.0 .
929(16) 0.0 0.0 .
924(16) 0.0 0.0 .
950(17) 0.0 0.0 .
928(17) 0.0 0.0 .
956(17) 0.0 0.0 .
976(16) 0.0 0.0 .
935(16) 0.0 0.0 .
966(17) 0.0 0.0 .
930(17) 0.0 0.0 .
968(16) 0.0 0.0 .
1006(16) 0.0 0.0 .
967(16) 0.0 0.0 .
908(16) 0.0 0.0 .
926(17) 0.0 0.0 .
945(17) 0.0 0.0 .
919(16) 0.0 0.0 .
972(16) 0.0 0.0 .
879(16) 0.0 0.0 .
896(16) 0.0 0.0 .
918(16) 0.0 0.0 .
918(16) 0.0 0.0 .
926(16) 0.0 0.0 .
892(16) 0.0 0.0 .
892(16) 0.0 0.0 .
952(16) 0.0 0.0 .
909(16) 0.0 0.0 .
892(16) 0.0 0.0 .
924(16) 0.0 0.0 .
936(17) 0.0 0.0 .
923(16) 0.0 0.0 .
941(16) 0.0 0.0 .
893(16) 0.0 0.0 .
899(16) 0.0 0.0 .
899(16) 0.0 0.0 .
927(16) 0.0 0.0 .
935(16) 0.0 0.0 .
948(17) 0.0 0.0 .
900(16) 0.0 0.0 .
935(16) 0.0 0.0 .
919(16) 0.0 0.0 .
980(16) 0.0 0.0 .
965(17) 0.0 0.0 .
944(17) 0.0 0.0 .
932(16) 0.0 0.0 .
889(16) 0.0 0.0 .
900(16) 0.0 0.0 .
916(16) 0.0 0.0 .
898(16) 0.0 0.0 .
918(16) 0.0 0.0 .
929(16) 0.0 0.0 .
879(15) 0.0 0.0 .
875(16) 0.0 0.0 .
904(17) 0.0 0.0 .
948(17) 0.0 0.0 .
880(15) 0.0 0.0 .
916(16) 0.0 0.0 .
928(16) 0.0 0.0 .
900(17) 0.0 0.0 .
919(16) 0.0 0.0 .
929(16) 0.0 0.0 .
910(16) 0.0 0.0 .
893(16) 0.0 0.0 .
899(17) 0.0 0.0 .
888(16) 0.0 0.0 .
873(15) 0.0 0.0 .
884(16) 0.0 0.0 .
919(17) 0.0 0.0 .
884(16) 0.0 0.0 .
915(16) 0.0 0.0 .
894(16) 0.0 0.0 .
876(15) 0.0 0.0 .
913(16) 0.0 0.0 .
885(16) 0.0 0.0 .
897(16) 0.0 0.0 .
878(15) 0.0 0.0 .
848(16) 0.0 0.0 .
812(15) 0.0 0.0 .
884(16) 0.0 0.0 .
880(16) 0.0 0.0 .
917(16) 0.0 0.0 .
863(16) 0.0 0.0 .
856(16) 0.0 0.0 .
906(16) 0.0 0.0 .
857(15) 0.0 0.0 .
858(15) 0.0 0.0 .
875(16) 0.0 0.0 .
857(16) 0.0 0.0 .
875(16) 0.0 0.0 .
889(16) 0.0 0.0 .
908(16) 0.0 0.0 .
883(16) 0.0 0.0 .
881(16) 0.0 0.0 .
860(16) 0.0 0.0 .
885(16) 0.0 0.0 .
872(15) 0.0 0.0 .
834(15) 0.0 0.0 .
837(16) 0.0 0.0 .
869(16) 0.0 0.0 .
853(15) 0.0 0.0 .
860(15) 0.0 0.0 .
863(16) 0.0 0.0 .
870(17) 0.0 0.0 .
866(16) 0.0 0.0 .
883(15) 0.0 0.0 .
844(15) 0.0 0.0 .
879(16) 0.0 0.0 .
853(16) 0.0 0.0 .
816(15) 0.0 0.0 .
859(15) 0.0 0.0 .
827(15) 0.0 0.0 .
854(15) 0.0 0.0 .
881(16) 0.0 0.0 .
890(16) 0.0 0.0 .
831(15) 0.0 0.0 .
869(16) 0.0 0.0 .
865(16) 0.0 0.0 .
866(16) 0.0 0.0 .
879(16) 0.0 0.0 .
845(15) 0.0 0.0 .
823(15) 0.0 0.0 .
872(16) 0.0 0.0 .
857(16) 0.0 0.0 .
843(16) 0.0 0.0 .
864(15) 0.0 0.0 .
863(15) 0.0 0.0 .
856(16) 0.0 0.0 .
808(15) 0.0 0.0 .
827(15) 0.0 0.0 .
843(15) 0.0 0.0 .
848(16) 0.0 0.0 .
839(16) 0.0 0.0 .
830(16) 0.0 0.0 .
830(15) 0.0 0.0 .
840(15) 0.0 0.0 .
819(15) 0.0 0.0 .
852(16) 0.0 0.0 .
847(16) 0.0 0.0 .
807(15) 0.0 0.0 .
880(15) 0.0 0.0 .
846(16) 0.0 0.0 .
812(15) 0.0 0.0 .
843(15) 0.0 0.0 .
808(15) 0.0 0.0 .
819(15) 0.0 0.0 .
810(15) 0.0 0.0 .
834(16) 0.0 0.0 .
797(15) 0.0 0.0 .
792(15) 0.0 0.0 .
814(15) 0.0 0.0 .
851(16) 0.0 0.0 .
847(16) 0.0 0.0 .
868(16) 0.0 0.0 .
791(15) 0.0 0.0 .
800(15) 0.0 0.0 .
796(15) 0.0 0.0 .
810(16) 0.0 0.0 .
831(16) 0.0 0.0 .
787(15) 0.0 0.0 .
851(15) 0.0 0.0 .
831(15) 0.0 0.0 .
836(16) 0.0 0.0 .
831(16) 0.0 0.0 .
774(14) 0.0 0.0 .
828(15) 0.0 0.0 .
797(15) 0.0 0.0 .
812(16) 0.0 0.0 .
806(15) 0.0 0.0 .
828(15) 0.0 0.0 .
781(15) 0.0 0.0 .
788(15) 0.0 0.0 .
805(15) 0.0 0.0 .
809(15) 0.0 0.0 .
836(15) 0.0 0.0 .
831(15) 0.0 0.0 .
746(15) 0.0 0.0 .
795(15) 0.0 0.0 .
819(15) 0.0 0.0 .
789(15) 0.0 0.0 .
806(15) 0.0 0.0 .
818(16) 0.0 0.0 .
784(15) 0.0 0.0 .
822(15) 0.0 0.0 .
827(15) 0.0 0.0 .
821(15) 0.0 0.0 .
784(15) 0.0 0.0 .
785(15) 0.0 0.0 .
761(15) 0.0 0.0 .
807(15) 0.0 0.0 .
785(15) 0.0 0.0 .
768(15) 0.0 0.0 .
789(15) 0.0 0.0 .
750(14) 0.0 0.0 .
781(15) 0.0 0.0 .
776(15) 0.0 0.0 .
798(16) 0.0 0.0 .
790(15) 0.0 0.0 .
775(14) 0.0 0.0 .
779(15) 0.0 0.0 .
770(15) 0.0 0.0 .
775(16) 0.0 0.0 .
807(15) 0.0 0.0 .
769(14) 0.0 0.0 .
795(15) 0.0 0.0 .
801(15) 0.0 0.0 .
774(16) 0.0 0.0 .
770(15) 0.0 0.0 .
779(14) 0.0 0.0 .
763(14) 0.0 0.0 .
779(15) 0.0 0.0 .
757(15) 0.0 0.0 .
740(14) 0.0 0.0 .
794(15) 0.0 0.0 .
761(14) 0.0 0.0 .
782(15) 0.0 0.0 .
770(15) 0.0 0.0 .
756(15) 0.0 0.0 .
735(14) 0.0 0.0 .
780(15) 0.0 0.0 .
775(15) 0.0 0.0 .
760(15) 0.0 0.0 .
788(15) 0.0 0.0 .
773(14) 0.0 0.0 .
770(15) 0.0 0.0 .
767(15) 0.0 0.0 .
749(15) 0.0 0.0 .
763(15) 0.0 0.0 .
745(14) 0.0 0.0 .
693(14) 0.0 0.0 .
752(15) 0.0 0.0 .
771(15) 0.0 0.0 .
740(15) 0.0 0.0 .
745(14) 0.0 0.0 .
756(15) 0.0 0.0 .
763(15) 0.0 0.0 .
777(15) 0.0 0.0 .
725(14) 0.0 0.0 .
714(14) 0.0 0.0 .
735(15) 0.0 0.0 .
733(15) 0.0 0.0 .
769(15) 0.0 0.0 .
778(15) 0.0 0.0 .
763(14) 0.0 0.0 .
788(15) 0.0 0.0 .
746(15) 0.0 0.0 .
745(15) 0.0 0.0 .
786(15) 0.0 0.0 .
709(14) 0.0 0.0 .
747(15) 0.0 0.0 .
748(15) 0.0 0.0 .
697(14) 0.0 0.0 .
733(14) 0.0 0.0 .
748(14) 0.0 0.0 .
763(15) 0.0 0.0 .
726(15) 0.0 0.0 .
751(15) 0.0 0.0 .
751(14) 0.0 0.0 .
748(14) 0.0 0.0 .
771(15) 0.0 0.0 .
799(16) 0.0 0.0 .
747(15) 0.0 0.0 .
741(14) 0.0 0.0 .
720(14) 0.0 0.0 .
751(15) 0.0 0.0 .
780(16) 0.0 0.0 .
725(15) 0.0 0.0 .
735(14) 0.0 0.0 .
735(14) 0.0 0.0 .
713(14) 0.0 0.0 .
779(15) 0.0 0.0 .
769(15) 0.0 0.0 .
740(14) 0.0 0.0 .
724(14) 0.0 0.0 .
735(15) 0.0 0.0 .
716(15) 0.0 0.0 .
731(15) 0.0 0.0 .
715(14) 0.0 0.0 .
723(14) 0.0 0.0 .
759(15) 0.0 0.0 .
757(15) 0.0 0.0 .
763(15) 0.0 0.0 .
750(14) 0.0 0.0 .
725(14) 0.0 0.0 .
710(14) 0.0 0.0 .
700(14) 0.0 0.0 .
721(14) 0.0 0.0 .
723(14) 0.0 0.0 .
745(15) 0.0 0.0 .
721(15) 0.0 0.0 .
723(14) 0.0 0.0 .
749(14) 0.0 0.0 .
732(14) 0.0 0.0 .
724(15) 0.0 0.0 .
746(15) 0.0 0.0 .
700(14) 0.0 0.0 .
742(14) 0.0 0.0 .
718(14) 0.0 0.0 .
706(14) 0.0 0.0 .
734(15) 0.0 0.0 .
702(14) 0.0 0.0 .
665(13) 0.0 0.0 .
752(14) 0.0 0.0 .
681(14) 0.0 0.0 .
720(15) 0.0 0.0 .
712(14) 0.0 0.0 .
727(14) 0.0 0.0 .
764(14) 0.0 0.0 .
727(15) 0.0 0.0 .
740(15) 0.0 0.0 .
716(15) 0.0 0.0 .
706(14) 0.0 0.0 .
697(14) 0.0 0.0 .
684(14) 0.0 0.0 .
731(15) 0.0 0.0 .
707(14) 0.0 0.0 .
698(14) 0.0 0.0 .
723(14) 0.0 0.0 .
764(15) 0.0 0.0 .
704(14) 0.0 0.0 .
727(15) 0.0 0.0 .
725(14) 0.0 0.0 .
723(14) 0.0 0.0 .
697(14) 0.0 0.0 .
676(14) 0.0 0.0 .
747(15) 0.0 0.0 .
708(14) 0.0 0.0 .
717(14) 0.0 0.0 .
697(14) 0.0 0.0 .
699(14) 0.0 0.0 .
703(14) 0.0 0.0 .
700(14) 0.0 0.0 .
728(14) 0.0 0.0 .
726(15) 0.0 0.0 .
690(14) 0.0 0.0 .
704(14) 0.0 0.0 .
700(14) 0.0 0.0 .
693(14) 0.0 0.0 .
697(14) 0.0 0.0 .
709(14) 0.0 0.0 .
711(14) 0.0 0.0 .
675(13) 0.0 0.0 .
705(14) 0.0 0.0 .
696(14) 0.0 0.0 .
709(14) 0.0 0.0 .
711(14) 0.0 0.0 .
694(14) 0.0 0.0 .
699(14) 0.0 0.0 .
712(15) 0.0 0.0 .
693(14) 0.0 0.0 .
718(14) 0.0 0.0 .
699(14) 0.0 0.0 .
717(14) 0.0 0.0 .
699(15) 0.0 0.0 .
664(14) 0.0 0.0 .
654(13) 0.0 0.0 .
681(14) 0.0 0.0 .
710(14) 0.0 0.0 .
689(14) 0.0 0.0 .
700(14) 0.0 0.0 .
688(14) 0.0 0.0 .
684(14) 0.0 0.0 .
687(14) 0.0 0.0 .
698(15) 0.0 0.0 .
671(14) 0.0 0.0 .
683(13) 0.0 0.0 .
704(14) 0.0 0.0 .
687(14) 0.0 0.0 .
694(15) 0.0 0.0 .
682(14) 0.0 0.0 .
679(13) 0.0 0.0 .
674(14) 0.0 0.0 .
686(14) 0.0 0.0 .
692(14) 0.0 0.0 .
707(14) 0.0 0.0 .
701(14) 0.0 0.0 .
707(14) 0.0 0.0 .
675(14) 0.0 0.0 .
670(14) 0.0 0.0 .
677(14) 0.0 0.0 .
715(14) 0.0 0.0 .
718(14) 0.0 0.0 .
707(14) 0.0 0.0 .
682(14) 0.0 0.0 .
680(14) 0.0 0.0 .
673(13) 0.0 0.0 .
706(14) 0.0 0.0 .
683(14) 0.0 0.0 .
680(14) 0.0 0.0 .
661(14) 0.0 0.0 .
688(14) 0.0 0.0 .
685(14) 0.0 0.0 .
690(14) 0.0 0.0 .
705(14) 0.0 0.0 .
675(14) 0.0 0.0 .
706(14) 0.0 0.0 .
677(14) 0.0 0.0 .
711(15) 0.0 0.0 .
661(14) 0.0 0.0 .
662(13) 0.0 0.0 .
682(14) 0.0 0.0 .
669(14) 0.0 0.0 .
696(15) 0.0 0.0 .
685(14) 0.0 0.0 .
696(14) 0.0 0.0 .
676(13) 0.0 0.0 .
676(14) 0.0 0.0 .
689(15) 0.0 0.0 .
670(14) 0.0 0.0 .
692(14) 0.0 0.0 .
737(14) 0.0 0.0 .
674(14) 0.0 0.0 .
706(15) 0.0 0.0 .
700(14) 0.0 0.0 .
708(14) 0.0 0.0 .
684(14) 0.0 0.0 .
665(14) 0.0 0.0 .
697(15) 0.0 0.0 .
693(14) 0.0 0.0 .
672(13) 0.0 0.0 .
672(14) 0.0 0.0 .
670(14) 0.0 0.0 .
712(15) 0.0 0.0 .
668(14) 0.0 0.0 .
708(14) 0.0 0.0 .
667(14) 0.0 0.0 .
659(14) 0.0 0.0 .
699(14) 0.0 0.0 .
695(14) 0.0 0.0 .
666(13) 0.0 0.0 .
677(14) 0.0 0.0 .
671(14) 0.0 0.0 .
693(14) 0.0 0.0 .
674(14) 0.0 0.0 .
638(13) 0.0 0.0 .
652(14) 0.0 0.0 .
671(14) 0.0 0.0 .
692(14) 0.0 0.0 .
658(14) 0.0 0.0 .
673(13) 0.0 0.0 .
643(14) 0.0 0.0 .
638(14) 0.0 0.0 .
631(13) 0.0 0.0 .
669(14) 0.0 0.0 .
687(14) 0.0 0.0 .
644(13) 0.0 0.0 .
657(14) 0.0 0.0 .
676(14) 0.0 0.0 .
682(14) 0.0 0.0 .
650(13) 0.0 0.0 .
665(14) 0.0 0.0 .
636(14) 0.0 0.0 .
717(15) 0.0 0.0 .
675(13) 0.0 0.0 .
645(13) 0.0 0.0 .
699(14) 0.0 0.0 .
687(14) 0.0 0.0 .
700(14) 0.0 0.0 .
674(14) 0.0 0.0 .
684(14) 0.0 0.0 .
671(14) 0.0 0.0 .
656(14) 0.0 0.0 .
696(14) 0.0 0.0 .
657(13) 0.0 0.0 .
633(13) 0.0 0.0 .
668(14) 0.0 0.0 .
665(14) 0.0 0.0 .
705(14) 0.0 0.0 .
666(13) 0.0 0.0 .
637(13) 0.0 0.0 .
646(13) 0.0 0.0 .
685(14) 0.0 0.0 .
645(14) 0.0 0.0 .
665(13) 0.0 0.0 .
690(14) 0.0 0.0 .
691(14) 0.0 0.0 .
686(14) 0.0 0.0 .
650(14) 0.0 0.0 .
619(13) 0.0 0.0 .
662(14) 0.0 0.0 .
659(14) 0.0 0.0 .
636(14) 0.0 0.0 .
657(14) 0.0 0.0 .
681(13) 0.0 0.0 .
692(14) 0.0 0.0 .
674(14) 0.0 0.0 .
662(14) 0.0 0.0 .
680(14) 0.0 0.0 .
702(14) 0.0 0.0 .
658(14) 0.0 0.0 .
680(14) 0.0 0.0 .
669(14) 0.0 0.0 .
641(13) 0.0 0.0 .
636(13) 0.0 0.0 .
642(14) 0.0 0.0 .
672(14) 0.0 0.0 .
686(14) 0.0 0.0 .
671(14) 0.0 0.0 .
695(14) 0.0 0.0 .
665(14) 0.0 0.0 .
676(14) 0.0 0.0 .
700(14) 0.0 0.0 .
654(13) 0.0 0.0 .
662(13) 0.0 0.0 .
701(14) 0.0 0.0 .
668(14) 0.0 0.0 .
680(14) 0.0 0.0 .
667(13) 0.0 0.0 .
655(13) 0.0 0.0 .
634(13) 0.0 0.0 .
627(14) 0.0 0.0 .
671(14) 0.0 0.0 .
648(13) 0.0 0.0 .
677(14) 0.0 0.0 .
663(14) 0.0 0.0 .
654(14) 0.0 0.0 .
675(14) 0.0 0.0 .
687(14) 0.0 0.0 .
651(13) 0.0 0.0 .
684(14) 0.0 0.0 .
646(14) 0.0 0.0 .
669(14) 0.0 0.0 .
658(13) 0.0 0.0 .
659(14) 0.0 0.0 .
674(14) 0.0 0.0 .
658(14) 0.0 0.0 .
663(14) 0.0 0.0 .
650(13) 0.0 0.0 .
682(14) 0.0 0.0 .
662(14) 0.0 0.0 .
672(14) 0.0 0.0 .
646(14) 0.0 0.0 .
667(13) 0.0 0.0 .
676(14) 0.0 0.0 .
650(14) 0.0 0.0 .
709(14) 0.0 0.0 .
638(13) 0.0 0.0 .
716(14) 0.0 0.0 .
721(14) 0.0 0.0 .
648(14) 0.0 0.0 .
654(14) 0.0 0.0 .
669(14) 0.0 0.0 .
634(13) 0.0 0.0 .
673(14) 0.0 0.0 .
677(14) 0.0 0.0 .
655(14) 0.0 0.0 .
645(13) 0.0 0.0 .
659(13) 0.0 0.0 .
637(14) 0.0 0.0 .
695(15) 0.0 0.0 .
690(14) 0.0 0.0 .
699(14) 0.0 0.0 .
649(13) 0.0 0.0 .
680(14) 0.0 0.0 .
731(15) 0.0 0.0 .
676(14) 0.0 0.0 .
680(14) 0.0 0.0 .
689(14) 0.0 0.0 .
699(14) 0.0 0.0 .
697(15) 0.0 0.0 .
716(14) 0.0 0.0 .
654(13) 0.0 0.0 .
691(14) 0.0 0.0 .
704(14) 0.0 0.0 .
649(14) 0.0 0.0 .
676(14) 0.0 0.0 .
716(14) 0.0 0.0 .
719(14) 0.0 0.0 .
697(14) 0.0 0.0 .
663(14) 0.0 0.0 .
667(14) 0.0 0.0 .
664(13) 0.0 0.0 .
654(13) 0.0 0.0 .
674(14) 0.0 0.0 .
650(14) 0.0 0.0 .
662(14) 0.0 0.0 .
696(14) 0.0 0.0 .
721(14) 0.0 0.0 .
740(15) 0.0 0.0 .
711(14) 0.0 0.0 .
741(14) 0.0 0.0 .
680(14) 0.0 0.0 .
670(14) 0.0 0.0 .
696(14) 0.0 0.0 .
695(14) 0.0 0.0 .
693(14) 0.0 0.0 .
700(14) 0.0 0.0 .
690(14) 0.0 0.0 .
699(14) 0.0 0.0 .
686(14) 0.0 0.0 .
695(14) 0.0 0.0 .
716(14) 0.0 0.0 .
691(14) 0.0 0.0 .
703(14) 0.0 0.0 .
717(14) 0.0 0.0 .
751(14) 0.0 0.0 .
737(14) 0.0 0.0 .
697(14) 0.0 0.0 .
678(14) 0.0 0.0 .
702(14) 0.0 0.0 .
758(14) 0.0 0.0 .
755(14) 0.0 0.0 .
781(15) 0.0 0.0 .
733(15) 0.0 0.0 .
718(15) 0.0 0.0 .
737(14) 0.0 0.0 .
746(14) 0.0 0.0 .
756(15) 0.0 0.0 .
739(15) 0.0 0.0 .
747(15) 0.0 0.0 .
791(15) 0.0 0.0 .
802(15) 0.0 0.0 .
818(15) 0.0 0.0 .
847(16) 0.0 0.0 .
821(15) 0.0 0.0 .
846(15) 0.0 0.0 .
831(15) 0.0 0.0 .
832(16) 0.0 0.0 .
903(17) 0.0 0.0 .
843(16) 0.0 0.0 .
835(15) 0.0 0.0 .
928(16) 0.0 0.0 .
889(16) 0.0 0.0 .
877(16) 0.0 0.0 .
885(16) 0.0 0.0 .
925(16) 0.0 0.0 .
897(16) 0.0 0.0 .
935(17) 0.0 0.0 .
953(17) 0.0 0.0 .
992(17) 0.0 0.0 .
1029(17) 0.0 0.0 .
1046(17) 0.0 0.0 .
1068(18) 0.0 0.0 .
1105(18) 0.0 0.0 .
1145(18) 0.0 0.0 .
1154(18) 0.0 0.0 .
1231(19) 0.0 0.0 .
1261(19) 0.0 0.0 .
1306(19) 0.0 0.0 .
1388(20) 0.0 0.0 .
1477(20) 0.0 0.0 .
1572(21) 0.0 0.0 .
1680(22) 0.0 0.0 .
1928(24) 0.0 0.0 .
2174(24) 0.0 0.0 .
2430(26) 0.0 0.0 .
2821(28) 0.0 0.0 .
3533(33) 0.0 0.0 .
4281(35) 0.0 0. .
5435(39) 0.0 0. .
6624(42) 0.0 0. .
8270(49) 0.0 0. .
10141(56) 0.0 0. .
12448(61) 0.0 0. .
14643(64) 0.0 0. .
16981(68) 0.0 0. .
19618(76) 0.0 0. .
22014(84) 0.0 0. .
24429(85) 0.0 0. .
27122(88) 0.0 0. .
29765(92) 0.0 0. .
32788(99) 0.0 0. .
37090(110) 0.0 0. .
41990(110) 0.0 0. .
48570(120) 0.0 0. .
56990(130) 0.0 0. .
66980(150) 0.0 0. .
77940(160) 0.0 0. .
88690(170) 0.0 0. .
93220(170) 0.0 0. .
83820(160) 0.0 0. .
66670(150) 0.0 0. .
49100(130) 0.0 0. .
35090(100) 0.0 0. .
25337(84) 0.0 0. .
18807(74) 0.0 0. .
14426(66) 0.0 0. .
11381(58) 0.0 0. .
9301(52) 0.0 0. .
7566(45) 0.0 0. .
6483(43) 0.0 0. .
5513(40) 0.0 0. .
4727(37) 0.0 0. .
4204(34) 0.0 0.0 .
3678(32) 0.0 0.0 .
3346(31) 0.0 0.0 .
2985(30) 0.0 0.0 .
2738(28) 0.0 0.0 .
2484(26) 0.0 0.0 .
2361(25) 0.0 0.0 .
2120(25) 0.0 0.0 .
2039(25) 0.0 0.0 .
1905(23) 0.0 0.0 .
1822(22) 0.0 0.0 .
1701(21) 0.0 0.0 .
1595(22) 0.0 0.0 .
1495(21) 0.0 0.0 .
1416(20) 0.0 0.0 .
1353(19) 0.0 0.0 .
1318(19) 0.0 0.0 .
1272(19) 0.0 0.0 .
1199(19) 0.0 0.0 .
1184(18) 0.0 0.0 .
1184(18) 0.0 0.0 .
1137(18) 0.0 0.0 .
1090(18) 0.0 0.0 .
1053(18) 0.0 0.0 .
1007(17) 0.0 0.0 .
996(16) 0.0 0.0 .
962(16) 0.0 0.0 .
955(17) 0.0 0.0 .
954(17) 0.0 0.0 .
939(16) 0.0 0.0 .
866(15) 0.0 0.0 .
938(16) 0.0 0.0 .
895(16) 0.0 0.0 .
849(16) 0.0 0.0 .
862(16) 0.0 0.0 .
860(15) 0.0 0.0 .
820(15) 0.0 0.0 .
827(15) 0.0 0.0 .
804(15) 0.0 0.0 .
810(15) 0.0 0.0 .
822(15) 0.0 0.0 .
792(15) 0.0 0.0 .
781(15) 0.0 0.0 .
773(15) 0.0 0.0 .
762(15) 0.0 0.0 .
759(14) 0.0 0.0 .
738(14) 0.0 0.0 .
751(15) 0.0 0.0 .
750(15) 0.0 0.0 .
731(15) 0.0 0.0 .
749(14) 0.0 0.0 .
755(15) 0.0 0.0 .
729(15) 0.0 0.0 .
751(15) 0.0 0.0 .
709(14) 0.0 0.0 .
733(14) 0.0 0.0 .
724(15) 0.0 0.0 .
693(14) 0.0 0.0 .
698(14) 0.0 0.0 .
713(14) 0.0 0.0 .
680(14) 0.0 0.0 .
694(14) 0.0 0.0 .
680(14) 0.0 0.0 .
655(14) 0.0 0.0 .
665(13) 0.0 0.0 .
684(14) 0.0 0.0 .
677(14) 0.0 0.0 .
671(14) 0.0 0.0 .
683(14) 0.0 0.0 .
697(14) 0.0 0.0 .
653(13) 0.0 0.0 .
679(14) 0.0 0.0 .
671(14) 0.0 0.0 .
674(14) 0.0 0.0 .
706(14) 0.0 0.0 .
695(14) 0.0 0.0 .
656(14) 0.0 0.0 .
643(14) 0.0 0.0 .
662(14) 0.0 0.0 .
676(14) 0.0 0.0 .
637(13) 0.0 0.0 .
630(13) 0.0 0.0 .
655(14) 0.0 0.0 .
615(13) 0.0 0.0 .
634(13) 0.0 0.0 .
644(13) 0.0 0.0 .
676(14) 0.0 0.0 .
657(14) 0.0 0.0 .
666(14) 0.0 0.0 .
660(13) 0.0 0.0 .
666(14) 0.0 0.0 .
600(13) 0.0 0.0 .
646(14) 0.0 0.0 .
655(14) 0.0 0.0 .
640(13) 0.0 0.0 .
644(13) 0.0 0.0 .
645(14) 0.0 0.0 .
640(14) 0.0 0.0 .
636(13) 0.0 0.0 .
624(13) 0.0 0.0 .
646(13) 0.0 0.0 .
634(13) 0.0 0.0 .
666(14) 0.0 0.0 .
622(13) 0.0 0.0 .
621(13) 0.0 0.0 .
641(14) 0.00545 625.4 62.9
650(14) 0.00529 625.4 61.9
629(14) 0.00537 625.4 60.8
654(14) 0.00539 625.4 59.9
612(13) 0.00607 625.4 58.9
622(13) 0.00558 625.1 58.0
635(14) 0.00524 624.6 0.0
622(13) 0.00552 624.1 0.0
623(13) 0.00576 623.6 0.0
627(13) 0.00602 623.0 0.0
645(14) 0.00540 622.5 0.0
634(14) 0.00529 622.0 0.0
609(13) 0.00575 621.5 0.0
612(13) 0.00592 621.0 0.0
638(13) 0.00583 620.4 0.0
605(13) 0.00579 619.9 0.0
611(14) 0.00538 619.4 0.0
649(14) 0.00536 618.9 0.0
625(13) 0.00595 618.3 0.0
619(13) 0.00596 617.8 0.0
604(13) 0.00584 617.3 0.0
610(14) 0.00522 616.8 0.0
630(14) 0.00546 616.3 0.0
608(13) 0.00612 615.7 0.0
620(13) 0.00593 615.2 0.0
616(13) 0.00578 614.7 0.0
620(14) 0.00523 614.2 0.0
624(14) 0.00543 613.7 0.0
587(13) 0.00635 613.1 0.0
586(13) 0.00629 612.6 0.0
592(13) 0.00577 612.1 0.0
586(13) 0.00557 611.6 0.0
573(13) 0.00597 611.1 0.0
605(13) 0.00609 610.5 0.0
611(13) 0.00598 610.0 0.0
591(13) 0.00588 609.5 0.0
653(14) 0.00502 609.0 0.0
592(13) 0.00570 608.5 0.0
605(13) 0.00611 607.9 0.0
578(13) 0.00624 607.4 0.0
567(13) 0.00609 606.9 0.0
621(14) 0.00525 606.4 0.0
626(13) 0.00553 605.8 0.0
599(13) 0.00622 605.3 0.0
580(13) 0.00605 604.8 0.0
605(13) 0.00555 604.3 0.0
598(13) 0.00573 603.8 0.0
613(13) 0.00578 603.2 0.0
602(13) 0.00616 602.7 0.0
606(13) 0.00572 602.2 0.0
593(13) 0.00586 601.7 0.0
607(13) 0.00569 601.2 0.0
604(13) 0.00576 600.6 0.0
562(12) 0.00661 600.1 0.0
587(13) 0.00593 599.6 0.0
579(13) 0.00590 599.1 0.0
616(13) 0.00554 598.6 0.0
629(13) 0.00582 598.0 0.0
619(13) 0.00602 597.5 0.0
570(13) 0.00603 597.0 0.0
598(14) 0.00544 596.5 0.0
582(13) 0.00584 596.0 0.0
573(12) 0.00655 595.4 0.0
580(13) 0.00637 594.9 0.0
591(13) 0.00576 594.4 0.0
592(13) 0.00559 593.9 0.0
646(14) 0.00537 593.3 0.0
573(12) 0.00645 592.8 0.0
584(13) 0.00635 592.3 0.0
603(13) 0.00578 591.8 0.0
623(14) 0.00506 591.3 0.0
593(13) 0.00588 590.7 0.0
592(13) 0.00630 590.2 0.0
552(12) 0.00672 589.7 0.0
608(13) 0.00570 589.2 0.0
568(13) 0.00571 588.7 0.0
574(13) 0.00597 588.1 0.0
587(13) 0.00627 587.6 0.0
591(13) 0.00620 587.1 0.0
577(13) 0.00617 586.6 0.0
575(13) 0.00559 586.1 0.0
552(13) 0.00595 585.5 0.0
576(12) 0.00644 585.0 0.0
563(12) 0.00651 584.5 0.0
600(13) 0.00581 584.0 0.0
610(14) 0.00546 583.4 0.0
545(13) 0.00634 582.9 0.0
571(12) 0.00648 582.4 0.0
593(13) 0.00601 581.9 0.0
578(13) 0.00597 581.4 0.8
577(13) 0.00591 580.8 0.8
586(13) 0.00598 580.3 0.9
604(13) 0.00612 579.8 0.9
598(13) 0.00587 579.3 0.9
577(13) 0.00607 578.8 0.9
586(13) 0.00580 578.2 0.9
570(13) 0.00611 577.7 0.9
572(12) 0.00652 577.2 1.0
582(13) 0.00614 576.7 1.0
581(13) 0.00593 576.2 1.0
581(13) 0.00597 575.6 1.0
577(13) 0.00624 575.1 1.0
541(12) 0.00684 574.6 1.0
565(13) 0.00607 574.1 1.1
574(13) 0.00591 573.6 1.1
601(13) 0.00559 573.0 1.1
571(13) 0.00631 572.5 1.1
558(12) 0.00665 572.0 1.1
572(13) 0.00602 571.5 1.2
567(13) 0.00583 570.9 1.2
541(12) 0.00651 570.4 1.2
578(13) 0.00621 569.9 1.2
561(12) 0.00665 569.4 1.2
595(13) 0.00587 568.9 1.3
593(14) 0.00544 568.3 1.3
567(13) 0.00612 567.8 1.3
566(12) 0.00655 567.3 1.4
573(13) 0.00635 566.8 1.4
573(13) 0.00609 566.3 1.4
612(14) 0.00519 565.7 1.4
574(13) 0.00611 565.2 1.5
574(13) 0.00640 564.7 1.5
560(12) 0.00662 564.2 1.5
578(13) 0.00600 563.7 1.6
601(14) 0.00538 563.1 1.6
597(13) 0.00589 562.6 1.6
597(13) 0.00617 562.1 1.7
582(13) 0.00631 561.6 1.7
547(12) 0.00640 561.1 1.7
560(13) 0.00589 560.5 1.8
552(12) 0.00640 560.0 1.8
570(12) 0.00648 559.5 1.9
567(13) 0.00639 559.0 1.9
582(13) 0.00578 558.4 2.0
556(13) 0.00598 557.9 2.0
575(13) 0.00592 557.4 2.1
573(12) 0.00649 556.9 2.1
579(13) 0.00620 556.4 2.2
559(13) 0.00620 556.3 2.2
569(13) 0.00590 556.2 2.3
534(12) 0.00649 556.1 2.4
582(13) 0.00635 555.9 2.4
580(13) 0.00624 555.8 2.5
553(13) 0.00627 555.7 2.6
580(13) 0.00578 555.6 2.6
559(13) 0.00621 555.4 2.7
583(13) 0.00635 555.3 2.8
587(13) 0.00592 555.2 2.9
561(13) 0.00622 555.1 2.9
564(13) 0.00612 554.9 3.0
542(12) 0.00669 554.8 3.1
595(13) 0.00626 554.7 3.2
568(13) 0.00599 554.6 3.3
565(13) 0.00601 554.4 3.4
582(13) 0.00581 554.3 3.5
554(12) 0.00650 554.2 3.7
539(12) 0.00693 554.1 3.8
538(13) 0.00637 553.9 3.9
544(13) 0.00615 553.8 4.1
571(13) 0.00611 553.7 4.2
525(12) 0.00704 553.6 4.4
578(12) 0.00646 553.4 4.5
577(13) 0.00587 553.3 4.7
545(13) 0.00598 553.2 4.9
579(13) 0.00590 553.1 5.1
571(12) 0.00648 552.9 5.3
568(12) 0.00650 552.8 5.5
554(13) 0.00633 552.7 5.7
571(13) 0.00572 552.6 5.9
563(13) 0.00627 552.4 6.2
557(12) 0.00670 552.3 6.5
563(12) 0.00648 552.2 6.8
546(12) 0.00650 552.1 7.1
546(13) 0.00596 551.9 7.4
548(13) 0.00633 551.8 7.8
553(12) 0.00669 551.7 8.2
579(13) 0.00638 551.6 8.6
563(13) 0.00630 551.4 9.0
559(13) 0.00598 551.3 9.5
582(13) 0.00600 551.2 10.1
566(12) 0.00662 551.1 10.6
561(12) 0.00667 550.9 11.3
589(13) 0.00599 550.8 11.9
575(13) 0.00575 550.7 12.7
519(12) 0.00665 550.6 13.5
600(13) 0.00620 550.4 14.4
550(12) 0.00661 550.3 15.4
565(13) 0.00597 550.2 16.4
594(13) 0.00554 550.1 17.6
578(13) 0.00588 549.9 19.0
592(13) 0.00629 549.8 20.5
578(13) 0.00620 549.7 22.1
607(13) 0.00560 549.6 24.0
612(13) 0.00551 549.4 26.2
599(13) 0.00591 549.3 28.6
635(13) 0.00585 549.2 31.3
612(13) 0.00586 549.1 34.5
667(14) 0.00502 548.9 38.2
649(14) 0.00534 548.8 42.5
656(14) 0.00533 548.7 47.7
665(13) 0.00564 548.6 53.9
702(14) 0.00500 548.4 61.6
707(14) 0.00487 548.3 71.5
749(15) 0.00456 548.2 84.7
789(15) 0.00459 548.1 102.7
852(15) 0.00437 547.9 127.9
852(16) 0.00410 547.8 163.3
906(16) 0.00369 547.7 212.3
943(17) 0.00367 547.6 278.4
948(16) 0.00376 547.4 364.4
1025(17) 0.00363 547.3 470.9
1085(18) 0.003224 547.2 595.6
1157(19) 0.002839 547.1 730.3
1198(19) 0.002900 546.9 859.2
1279(19) 0.002864 546.8 956.8
1286(19) 0.002893 546.7 995.2
1375(20) 0.002469 546.6 960.9
1251(20) 0.002629 546.4 866.1
1156(18) 0.003043 546.3 738.3
1086(17) 0.003392 546.2 603.3
884(16) 0.00414 546.1 477.8
773(15) 0.00444 545.9 370.1
744(15) 0.00429 545.8 283.0
704(14) 0.00491 545.7 215.7
694(14) 0.00533 545.6 165.8
632(13) 0.00584 545.5 129.7
646(14) 0.00511 545.3 104.0
589(13) 0.00554 545.2 85.6
583(13) 0.00605 545.1 72.2
584(13) 0.00638 545.0 62.1
590(13) 0.00618 544.8 54.3
568(13) 0.00621 544.7 48.0
572(13) 0.00588 544.6 42.8
544(13) 0.00638 544.5 38.4
584(13) 0.00634 544.3 34.7
562(13) 0.00637 544.2 31.5
546(13) 0.00636 544.1 28.7
561(13) 0.00602 544.0 26.3
563(13) 0.00615 543.8 24.1
529(12) 0.00707 543.7 22.2
540(12) 0.00666 543.6 20.6
589(13) 0.00583 543.5 19.1
575(13) 0.00570 543.3 17.7
572(13) 0.00600 543.2 16.5
522(12) 0.00711 543.1 15.4
549(12) 0.00646 543.0 14.4
585(13) 0.00584 542.8 13.5
556(13) 0.00609 542.7 12.7
570(13) 0.00632 542.6 12.0
560(12) 0.00662 542.5 11.3
571(13) 0.00599 542.3 10.7
551(13) 0.00629 542.2 10.1
564(13) 0.00607 542.1 9.6
595(13) 0.00606 542.0 9.1
571(12) 0.00648 541.8 8.6
565(13) 0.00623 541.7 8.2
582(13) 0.00589 541.6 7.8
551(13) 0.00629 541.5 7.4
558(12) 0.00641 541.3 7.1
561(12) 0.00665 541.2 6.8
530(12) 0.00661 541.1 6.5
551(13) 0.00595 541.0 6.2
567(13) 0.00609 540.8 6.0
544(12) 0.00669 540.7 5.7
519(12) 0.00716 540.6 5.5
532(12) 0.00649 540.5 5.3
537(13) 0.00633 540.3 5.1
558(13) 0.00639 540.2 4.9
553(12) 0.00654 540.1 4.7
508(12) 0.00731 540.0 4.5
539(13) 0.00639 539.8 4.4
555(13) 0.00579 539.7 4.2
537(12) 0.00650 539.6 4.1
525(12) 0.00708 539.5 3.9
540(12) 0.00682 539.3 3.8
559(13) 0.00616 539.2 3.7
520(13) 0.00631 539.1 3.6
562(13) 0.00625 539.0 3.4
576(12) 0.00653 538.8 3.3
545(12) 0.00678 538.7 3.2
542(12) 0.00648 538.6 3.1
546(13) 0.00607 538.5 3.0
560(13) 0.00625 538.3 2.9
568(12) 0.00657 538.2 2.9
566(12) 0.00645 538.1 2.8
530(12) 0.00652 538.0 2.7
535(13) 0.00609 537.8 2.6
521(12) 0.00650 537.7 2.6
541(12) 0.00682 537.6 2.5
505(12) 0.00717 537.5 2.4
557(13) 0.00615 537.3 2.4
563(13) 0.00593 537.2 2.3
543(13) 0.00637 537.1 2.2
541(12) 0.00689 537.0 2.2
532(12) 0.00668 536.8 2.1
527(12) 0.00660 536.7 2.1
543(13) 0.00624 536.6 2.0
534(12) 0.00676 536.5 2.0
540(12) 0.00690 536.3 1.9
563(13) 0.00618 536.2 1.9
557(13) 0.00596 536.1 1.8
540(13) 0.00635 536.0 1.8
567(13) 0.00620 535.8 1.8
540(12) 0.00694 535.7 1.7
536(12) 0.00644 535.6 1.7
566(13) 0.00584 535.5 1.6
557(13) 0.00632 535.3 1.6
543(12) 0.00669 535.2 1.6
534(12) 0.00694 535.1 1.5
519(12) 0.00676 535.0 1.5
530(13) 0.00631 534.8 1.5
549(13) 0.00628 534.7 1.4
540(12) 0.00681 534.6 1.4
523(12) 0.00718 534.5 1.4
532(13) 0.00634 534.4 1.4
519(12) 0.00640 534.4 1.3
523(12) 0.00683 534.4 1.3
528(12) 0.00698 534.3 1.3
550(12) 0.00684 534.3 1.3
551(13) 0.00630 534.3 1.2
572(13) 0.00565 534.2 1.2
552(12) 0.00651 534.2 1.2
599(13) 0.00625 534.2 1.2
535(12) 0.00678 534.1 1.1
545(12) 0.00644 534.1 1.1
562(13) 0.00567 534.1 1.1
526(12) 0.00667 534.0 1.1
510(12) 0.00730 534.0 1.1
531(12) 0.00692 534.0 1.0
548(13) 0.00628 534.0 1.0
556(13) 0.00592 533.9 1.0
529(12) 0.00677 533.9 1.0
520(12) 0.00718 533.9 1.0
527(12) 0.00693 533.8 1.0
593(13) 0.00571 533.8 0.9
521(12) 0.00645 533.8 0.9
515(12) 0.00681 533.7 0.9
536(12) 0.00696 533.7 0.9
536(12) 0.00688 533.7 0.9
541(12) 0.00656 533.6 0.9
529(12) 0.00644 533.6 0.8
528(12) 0.00656 533.6 0.0
559(12) 0.00665 533.5 0.0
518(12) 0.00702 533.5 0.0
530(12) 0.00657 533.5 0.0
544(12) 0.00642 533.4 0.0
540(12) 0.00674 533.4 0.0
553(12) 0.00671 533.4 0.0
510(12) 0.00689 533.4 0.0
524(12) 0.00648 533.3 0.0
571(13) 0.00599 533.3 0.0
555(12) 0.00644 533.3 0.0
537(12) 0.00696 533.2 0.0
555(13) 0.00626 533.2 0.0
559(13) 0.00612 533.2 0.0
590(13) 0.00581 533.1 0.0
548(12) 0.00644 533.1 0.0
521(12) 0.00715 533.1 0.0
533(13) 0.00638 533.0 0.0
540(13) 0.00640 533.0 0.0
574(13) 0.00597 533.0 0.0
519(12) 0.00704 532.9 0.0
546(12) 0.00685 532.9 0.0
545(13) 0.00639 532.9 0.0
534(13) 0.00617 532.8 0.0
541(13) 0.00620 532.8 0.0
538(12) 0.00684 532.8 0.0
529(12) 0.00703 532.8 0.0
531(12) 0.00646 532.7 0.0
542(13) 0.00584 532.7 0.0
545(13) 0.00618 532.7 0.0
554(12) 0.00665 532.6 0.0
542(12) 0.00683 532.6 0.0
534(13) 0.00635 532.6 0.0
504(12) 0.00651 532.5 0.0
508(12) 0.00688 532.5 0.0
526(12) 0.00703 532.5 0.0
541(12) 0.00680 532.4 0.0
540(12) 0.00650 532.4 0.0
550(13) 0.00599 532.4 0.0
532(12) 0.00646 532.3 0.0
524(12) 0.00712 532.3 0.0
542(12) 0.00683 532.3 0.0
555(13) 0.00623 532.3 0.0
511(12) 0.00652 532.2 0.0
558(13) 0.00616 532.2 0.0
547(12) 0.00678 532.2 0.0
525(12) 0.00707 532.1 0.0
546(13) 0.00622 532.1 0.0
559(13) 0.00613 532.1 0.0
558(13) 0.00618 532.0 0.0
533(12) 0.00696 532.0 0.0
565(13) 0.00628 532.0 0.0
527(12) 0.00649 531.9 0.0
526(12) 0.00655 531.9 0.0
532(12) 0.00653 531.9 0.0
572(12) 0.00648 531.8 0.0
530(12) 0.00674 531.8 0.0
546(13) 0.00616 531.8 0.0
538(13) 0.00630 531.7 0.0
542(12) 0.00654 531.7 0.0
553(12) 0.00672 531.7 0.0
554(13) 0.00632 531.7 0.0
547(13) 0.00636 531.6 0.0
531(12) 0.00648 531.6 0.0
529(12) 0.00671 531.6 0.0
540(12) 0.00694 531.5 0.0
517(12) 0.00668 531.5 0.0
530(13) 0.00616 531.5 0.0
526(12) 0.00666 531.4 0.0
520(12) 0.00690 531.4 0.0
526(12) 0.00715 531.4 0.0
526(12) 0.00658 531.3 0.0
503(12) 0.00669 531.3 0.0
523(12) 0.00670 531.3 0.0
508(12) 0.00730 531.2 0.0
530(12) 0.00705 531.2 0.0
549(13) 0.00629 531.2 0.0
518(12) 0.00649 531.2 0.0
515(12) 0.00664 531.1 0.0
500(12) 0.00737 531.1 0.0
531(12) 0.00693 531.1 0.0
532(12) 0.00666 531.0 0.0
536(13) 0.00598 531.0 0.0
562(13) 0.00607 531.0 0.0
537(12) 0.00680 530.9 0.0
524(12) 0.00711 530.9 0.0
523(12) 0.00686 530.9 0.0
537(13) 0.00595 530.8 0.0
517(12) 0.00669 530.8 0.0
565(12) 0.00653 530.8 0.0
515(12) 0.00712 530.7 0.0
506(12) 0.00689 530.7 0.0
532(13) 0.00636 530.7 0.0
520(12) 0.00662 530.6 0.0
514(12) 0.00727 530.6 0.0
516(12) 0.00711 530.6 0.0
545(12) 0.00641 530.6 0.0
536(13) 0.00630 530.5 0.0
538(12) 0.00661 530.5 0.0
533(12) 0.00700 530.5 0.0
541(12) 0.00666 530.4 0.0
545(13) 0.00626 530.4 0.0
560(13) 0.00600 530.4 0.0
513(12) 0.00696 530.3 0.0
523(12) 0.00711 530.3 0.0
524(12) 0.00667 530.3 0.0
551(13) 0.00609 530.2 0.0
543(13) 0.00622 530.2 0.0
537(12) 0.00641 530.2 0.0
546(12) 0.00681 530.1 0.0
511(12) 0.00692 530.1 0.0
530(12) 0.00654 530.1 0.0
535(12) 0.00645 530.0 0.0
532(12) 0.00673 530.0 0.0
524(12) 0.00708 530.0 0.0
526(12) 0.00655 530.0 0.0
497(12) 0.00672 529.9 0.0
534(13) 0.00623 529.9 0.0
531(12) 0.00682 529.9 0.0
537(12) 0.00691 529.8 0.0
533(12) 0.00646 529.8 0.0
508(12) 0.00663 529.8 0.0
550(13) 0.00616 529.7 0.0
546(12) 0.00670 529.7 0.0
538(12) 0.00692 529.7 0.0
525(12) 0.00668 529.6 0.0
521(13) 0.00633 529.6 0.0
543(13) 0.00633 529.6 0.0
528(12) 0.00706 529.5 0.0
517(12) 0.00714 529.5 0.0
535(12) 0.00661 529.5 0.0
518(13) 0.00621 529.5 0.0
517(12) 0.00646 529.4 0.0
507(12) 0.00726 529.4 0.0
551(12) 0.00666 529.4 0.0
523(12) 0.00664 529.3 0.0
559(13) 0.00587 529.3 0.0
556(13) 0.00635 529.3 0.0
545(12) 0.00682 529.2 0.0
531(12) 0.00694 529.2 0.0
560(13) 0.00620 529.2 0.0
524(13) 0.00633 529.1 0.0
516(12) 0.00676 529.1 0.0
536(12) 0.00689 529.1 0.0
535(12) 0.00679 529.0 0.0
567(13) 0.00587 529.0 0.0
523(12) 0.00656 529.0 0.0
538(13) 0.00626 528.9 0.0
543(12) 0.00682 528.9 0.0
551(13) 0.00639 528.9 0.0
528(12) 0.00642 528.9 0.0
528(13) 0.00629 528.8 0.0
520(12) 0.00668 528.8 0.0
537(12) 0.00688 528.8 0.0
527(12) 0.00688 528.7 0.0
505(12) 0.00693 528.7 0.0
528(12) 0.00647 528.7 0.0
555(12) 0.00646 528.6 0.0
547(12) 0.00687 528.6 0.0
534(12) 0.00651 528.6 0.0
539(13) 0.00634 528.5 0.0
520(12) 0.00677 528.5 0.0
527(12) 0.00677 528.5 0.0
545(12) 0.00679 528.4 0.0
552(13) 0.00628 528.4 0.0
543(13) 0.00633 528.4 0.0
553(13) 0.00629 528.3 0.0
524(12) 0.00700 528.3 0.0
531(12) 0.00698 528.3 0.0
539(13) 0.00640 528.3 0.0
525(12) 0.00667 528.2 0.0
570(13) 0.00615 528.2 0.0
574(13) 0.00628 528.2 0.0
529(12) 0.00711 528.1 0.0
511(12) 0.00693 528.1 0.0
562(13) 0.00574 528.1 0.0
533(12) 0.00649 528.0 0.0
536(12) 0.00693 528.0 0.0
540(12) 0.00692 528.0 0.0
526(12) 0.00660 527.9 0.0
521(13) 0.00626 527.9 0.0
534(12) 0.00664 527.9 0.0
561(12) 0.00657 527.8 0.0
554(12) 0.00677 527.8 0.0
547(13) 0.00636 527.8 0.0
524(13) 0.00614 527.8 0.0
519(12) 0.00670 527.7 0.0
527(12) 0.00700 527.7 0.0
519(12) 0.00712 527.7 0.0
537(12) 0.00643 527.6 0.0
531(13) 0.00602 527.6 0.0
516(12) 0.00683 527.6 0.0
528(12) 0.00706 527.5 0.0
559(12) 0.00658 527.5 0.0
550(13) 0.00624 527.5 0.0
514(12) 0.00653 527.4 0.0
541(13) 0.00637 527.4 0.0
559(12) 0.00664 527.5 0.0
548(12) 0.00663 527.5 0.0
570(13) 0.00574 527.6 0.0
530(13) 0.00629 527.7 0.0
533(12) 0.00641 527.7 0.0
562(12) 0.00656 527.8 0.0
551(12) 0.00651 527.8 0.0
527(12) 0.00642 527.9 0.0
512(12) 0.00658 528.0 0.0
523(12) 0.00668 528.0 0.0
528(12) 0.00705 528.1 0.0
537(13) 0.00633 528.1 0.0
520(12) 0.00656 528.2 0.0
540(13) 0.00639 528.3 0.0
522(12) 0.00696 528.3 0.0
573(12) 0.00648 528.4 0.0
533(12) 0.00665 528.4 0.0
545(13) 0.00609 528.5 0.0
537(12) 0.00644 528.6 0.0
529(12) 0.00674 528.6 0.0
525(12) 0.00713 528.7 0.0
519(12) 0.00657 528.7 0.0
532(13) 0.00619 528.8 0.0
527(13) 0.00640 528.9 0.0
543(12) 0.00672 528.9 0.0
570(12) 0.00653 529.0 0.0
567(13) 0.00612 529.0 0.0
549(13) 0.00609 529.1 0.0
567(13) 0.00634 529.2 0.0
575(13) 0.00636 529.2 0.0
539(12) 0.00687 529.3 0.0
530(12) 0.00650 529.3 0.0
528(13) 0.00612 529.4 0.0
545(13) 0.00637 529.5 0.0
535(12) 0.00680 529.5 0.0
540(12) 0.00697 529.6 0.0
504(12) 0.00704 529.6 0.0
494(12) 0.00672 529.7 0.0
558(13) 0.00617 529.8 0.0
498(12) 0.00741 529.8 0.0
555(12) 0.00655 529.9 0.0
515(12) 0.00684 529.9 0.0
543(13) 0.00611 530.0 0.0
557(13) 0.00630 530.1 0.0
548(12) 0.00679 530.1 0.0
537(12) 0.00665 530.2 0.0
532(12) 0.00662 530.2 0.0
543(13) 0.00613 530.3 0.0
535(12) 0.00660 530.4 0.0
541(12) 0.00686 530.4 0.0
532(12) 0.00687 530.5 0.0
549(12) 0.00652 530.5 0.0
570(13) 0.00561 530.6 0.0
520(12) 0.00650 530.7 0.0
519(12) 0.00711 530.7 0.0
553(12) 0.00650 530.8 0.0
573(13) 0.00600 530.8 0.0
538(13) 0.00631 530.9 0.0
540(12) 0.00643 531.0 0.0
526(12) 0.00708 531.0 0.0
506(12) 0.00691 531.1 0.0
528(12) 0.00641 531.1 0.0
530(12) 0.00643 531.2 0.0
542(12) 0.00646 531.3 0.0
521(12) 0.00716 531.3 0.0
524(12) 0.00688 531.4 0.0
541(13) 0.00631 531.4 0.0
560(13) 0.00616 531.5 0.0
543(12) 0.00675 531.6 0.0
551(12) 0.00676 531.6 0.0
541(12) 0.00645 531.7 0.0
539(13) 0.00631 531.7 0.0
575(13) 0.00587 531.8 0.0
517(12) 0.00715 531.9 0.0
529(12) 0.00691 531.9 0.0
508(12) 0.00695 532.0 0.0
500(12) 0.00668 532.0 0.0
544(12) 0.00642 532.1 0.0
539(12) 0.00686 532.2 0.0
549(12) 0.00680 532.2 0.0
529(12) 0.00667 532.3 0.0
539(13) 0.00610 532.4 0.0
499(12) 0.00720 532.4 0.0
545(12) 0.00676 532.5 0.0
540(12) 0.00693 532.5 0.0
549(13) 0.00632 532.6 0.0
551(13) 0.00583 532.7 0.0
511(12) 0.00705 532.7 0.0
531(12) 0.00701 532.8 0.0
516(12) 0.00721 532.8 0.0
537(12) 0.00644 532.9 0.0
544(13) 0.00585 533.0 0.0
571(13) 0.00590 533.0 0.0
546(12) 0.00685 533.1 0.0
519(12) 0.00706 533.1 0.0
546(13) 0.00630 533.2 0.0
562(13) 0.00597 533.3 0.0
562(13) 0.00621 533.3 0.0
567(12) 0.00656 533.4 0.0
536(12) 0.00670 533.4 0.0
502(12) 0.00689 533.5 0.0
555(13) 0.00591 533.6 0.0
546(13) 0.00634 533.6 0.0
511(12) 0.00730 533.7 0.0
518(12) 0.00681 533.7 0.0
548(13) 0.00611 533.8 0.0
570(13) 0.00576 533.9 0.0
565(13) 0.00602 533.9 0.0
537(12) 0.00693 534.0 0.0
560(12) 0.00643 534.0 0.0
569(13) 0.00617 534.1 0.0
586(13) 0.00584 534.2 0.0
553(12) 0.00663 534.2 0.0
544(12) 0.00679 534.3 0.0
561(13) 0.00632 534.3 0.0
559(13) 0.00619 534.4 0.0
554(13) 0.00634 534.5 0.0
580(13) 0.00609 534.5 0.0
560(12) 0.00667 534.6 0.0
602(13) 0.00580 534.6 0.0
558(13) 0.00611 534.7 0.0
548(12) 0.00640 534.8 0.0
563(12) 0.00648 534.8 0.0
594(13) 0.00634 534.9 0.0
536(13) 0.00625 534.9 0.0
567(13) 0.00584 535.0 0.0
580(13) 0.00592 535.1 0.0
550(12) 0.00666 535.1 0.0
530(12) 0.00700 535.2 0.0
527(12) 0.00683 535.2 0.0
540(13) 0.00619 535.3 0.0
523(12) 0.00667 535.4 0.0
542(12) 0.00676 535.4 0.0
543(12) 0.00684 535.5 0.0
535(12) 0.00648 535.5 0.0
521(13) 0.00617 535.6 0.0
535(12) 0.00646 535.7 0.0
522(12) 0.00713 535.7 0.0
539(12) 0.00693 535.8 0.0
527(12) 0.00660 535.8 0.0
549(13) 0.00581 535.9 0.0
564(13) 0.00614 536.0 0.0
541(12) 0.00696 536.0 0.0
511(12) 0.00712 536.1 0.0
529(12) 0.00659 536.1 0.0
567(13) 0.00573 536.2 0.0
542(12) 0.00644 536.3 0.0
533(12) 0.00706 536.3 0.0
518(12) 0.00708 536.4 0.0
558(13) 0.00600 536.4 0.0
546(13) 0.00624 536.5 0.0
545(12) 0.00640 536.6 0.0
559(12) 0.00668 536.6 0.0
536(12) 0.00672 536.7 0.0
539(13) 0.00625 536.7 0.0
518(13) 0.00636 536.8 0.0
503(12) 0.00690 536.9 0.0
555(12) 0.00669 536.9 0.0
551(12) 0.00649 537.0 0.0
557(13) 0.00614 537.0 0.0
527(12) 0.00660 537.1 0.1
579(13) 0.00613 537.2 0.1
530(12) 0.00705 537.2 0.1
538(12) 0.00662 537.3 0.1
516(12) 0.00660 537.3 0.1
524(12) 0.00662 537.4 0.1
537(12) 0.00652 537.5 0.1
532(12) 0.00699 537.5 0.1
525(12) 0.00664 537.6 0.1
521(12) 0.00662 537.6 0.1
517(12) 0.00671 537.7 0.1
496(12) 0.00740 537.8 0.1
505(12) 0.00727 537.8 0.1
571(13) 0.00585 537.9 0.1
532(12) 0.00641 537.9 0.1
563(13) 0.00605 538.0 0.1
543(12) 0.00674 538.1 0.1
538(12) 0.00687 538.1 0.1
536(12) 0.00649 538.2 0.1
563(13) 0.00562 538.2 0.1
516(12) 0.00664 538.3 0.1
525(12) 0.00684 538.4 0.1
544(12) 0.00684 538.4 0.1
546(12) 0.00643 538.5 0.1
528(13) 0.00604 538.5 0.1
529(12) 0.00644 538.6 0.1
517(12) 0.00720 538.7 0.1
535(12) 0.00681 538.7 0.1
544(12) 0.00646 538.8 0.1
541(13) 0.00591 538.8 0.1
566(13) 0.00604 538.9 0.1
536(12) 0.00694 539.0 0.1
574(13) 0.00638 539.0 0.1
548(12) 0.00651 539.1 0.1
571(13) 0.00567 539.1 0.1
550(12) 0.00641 539.2 0.1
557(12) 0.00653 539.3 0.1
550(12) 0.00664 539.3 0.1
576(13) 0.00611 539.4 0.1
571(13) 0.00580 539.4 0.1
529(12) 0.00665 539.5 0.1
553(12) 0.00669 539.6 0.2
537(12) 0.00682 539.6 0.2
543(12) 0.00643 539.7 0.2
500(12) 0.00693 539.7 0.2
516(12) 0.00677 539.8 0.2
564(12) 0.00658 539.9 0.2
522(12) 0.00699 539.9 0.2
552(13) 0.00612 540.0 0.2
566(13) 0.00598 540.0 0.2
544(12) 0.00651 540.1 0.2
552(12) 0.00674 540.2 0.2
534(12) 0.00648 540.2 0.2
548(13) 0.00616 540.3 0.3
561(13) 0.00607 540.3 0.3
565(13) 0.00628 540.4 0.3
561(12) 0.00666 540.5 0.3
492(12) 0.00712 540.5 0.3
525(12) 0.00650 540.6 0.3
501(12) 0.00709 540.6 0.3
576(13) 0.00610 540.7 0.4
569(12) 0.00652 540.8 0.4
566(13) 0.00597 540.8 0.4
532(13) 0.00630 540.9 0.4
549(13) 0.00633 540.9 0.4
558(12) 0.00652 541.0 0.5
555(12) 0.00669 541.1 0.5
552(13) 0.00625 541.1 0.5
562(13) 0.00580 541.2 0.6
566(13) 0.00606 541.2 0.6
550(12) 0.00658 541.3 0.7
527(12) 0.00705 541.4 0.7
557(13) 0.00605 541.4 0.8
536(13) 0.00613 541.5 0.9
543(12) 0.00649 541.5 0.9
549(12) 0.00677 541.6 1.0
560(12) 0.00663 541.7 1.1
568(13) 0.00595 541.7 1.3
544(13) 0.00590 541.8 1.4
570(13) 0.00586 541.8 1.6
539(12) 0.00683 541.9 1.8
573(13) 0.00639 542.0 2.0
595(13) 0.00601 542.0 2.2
564(13) 0.00585 542.1 2.5
535(12) 0.00650 542.2 2.9
548(12) 0.00679 542.2 3.2
603(13) 0.00602 542.3 3.6
552(13) 0.00626 542.3 4.0
542(13) 0.00605 542.4 4.5
544(13) 0.00613 542.5 5.0
537(12) 0.00688 542.5 5.4
569(13) 0.00639 542.6 5.9
545(13) 0.00624 542.6 6.3
567(13) 0.00584 542.7 6.6
565(13) 0.00587 542.8 6.8
598(13) 0.00621 542.8 6.8
571(13) 0.00623 542.9 6.7
548(13) 0.00623 542.9 6.5
559(13) 0.00587 543.0 6.1
572(13) 0.00609 543.1 5.7
559(12) 0.00656 543.1 5.3
540(13) 0.00632 543.2 4.8
554(13) 0.00614 543.2 4.3
522(12) 0.00652 543.3 3.9
552(12) 0.00656 543.4 3.5
579(13) 0.00640 543.4 3.1
583(13) 0.00591 543.5 2.7
562(13) 0.00613 543.5 2.4
548(13) 0.00639 543.6 2.1
567(13) 0.00635 543.7 1.9
559(12) 0.00661 543.7 1.7
527(12) 0.00662 543.8 1.5
550(13) 0.00605 543.8 1.3
585(13) 0.00588 543.9 1.2
541(12) 0.00671 544.0 1.1
542(12) 0.00684 544.0 1.0
555(13) 0.00632 544.1 0.9
555(13) 0.00594 544.1 0.8
567(13) 0.00598 544.2 0.8
562(12) 0.00649 544.3 0.7
539(12) 0.00689 544.3 0.6
546(13) 0.00624 544.4 0.6
571(13) 0.00554 544.4 0.6
535(12) 0.00647 544.5 0.5
581(13) 0.00625 544.6 0.5
537(12) 0.00689 544.6 0.5
524(12) 0.00671 544.7 0.4
540(13) 0.00585 544.7 0.4
559(13) 0.00602 544.8 0.4
561(12) 0.00652 544.9 0.4
572(12) 0.00643 544.9 0.3
544(12) 0.00643 545.0 0.3
545(13) 0.00598 545.0 0.3
615(13) 0.00564 545.1 0.3
557(12) 0.00666 545.2 0.3
530(12) 0.00693 545.2 0.3
539(12) 0.00672 545.3 0.3
572(13) 0.00582 545.3 0.2
550(13) 0.00635 545.4 0.2
576(12) 0.00649 545.5 0.2
574(13) 0.00629 545.5 0.2
569(13) 0.00603 545.6 0.2
558(13) 0.00604 545.6 0.2
556(13) 0.00619 545.7 0.2
562(12) 0.00654 545.8 0.2
529(12) 0.00692 545.8 0.2
543(13) 0.00637 545.9 0.2
561(13) 0.00612 545.9 0.2
579(13) 0.00606 546.0 0.2
533(12) 0.00702 546.1 0.2
559(13) 0.00639 546.1 0.1
551(13) 0.00631 546.2 0.1
550(13) 0.00624 546.2 0.1
523(12) 0.00686 546.3 0.1
572(12) 0.00653 546.4 0.1
539(12) 0.00654 546.4 0.1
578(13) 0.00574 546.5 0.1
576(13) 0.00608 546.5 0.1
577(13) 0.00635 546.6 0.1
561(12) 0.00659 546.7 0.1
553(13) 0.00624 546.7 0.1
555(13) 0.00585 546.8 0.1
540(13) 0.00626 547.1 0.1
567(12) 0.00643 547.3 0.1
552(12) 0.00672 547.6 0.1
541(13) 0.00614 547.8 0.1
533(13) 0.00616 548.1 0.1
546(13) 0.00620 548.4 0.1
554(12) 0.00669 548.6 0.1
559(12) 0.00665 548.9 0.1
553(13) 0.00618 549.1 0.1
567(13) 0.00575 549.4 0.1
581(13) 0.00609 549.7 0.1
605(13) 0.00615 549.9 0.1
581(13) 0.00638 550.2 0.1
577(13) 0.00603 550.4 0.1
577(13) 0.00553 550.7 0.1
549(12) 0.00658 550.9 0.1
552(12) 0.00676 551.2 0.1
546(12) 0.00668 551.5 0.1
549(12) 0.00646 551.7 0.1
515(12) 0.00654 552.0 0.1
559(13) 0.00619 552.2 0.1
559(12) 0.00669 552.5 0.1
584(13) 0.00627 552.8 0.1
557(13) 0.00640 553.0 0.1
572(13) 0.00577 553.3 0.1
563(13) 0.00593 553.5 7.1
561(12) 0.00665 553.8 7.2
564(12) 0.00649 554.1 7.3
565(13) 0.00624 554.3 7.5
582(13) 0.00561 554.6 7.6
548(13) 0.00635 554.8 7.7
558(12) 0.00661 555.1 7.8
572(13) 0.00630 555.3 8.0
530(12) 0.00676 555.6 8.1
566(13) 0.00583 555.9 8.2
553(13) 0.00612 556.1 8.4
549(12) 0.00679 556.4 8.5
573(13) 0.00621 556.6 8.7
573(13) 0.00590 556.9 8.8
563(13) 0.00596 557.2 9.0
543(12) 0.00655 557.4 9.1
592(13) 0.00627 557.7 9.3
580(13) 0.00612 557.9 9.5
563(13) 0.00604 558.2 9.6
558(13) 0.00613 558.4 9.8
597(13) 0.00596 558.7 10.0
535(12) 0.00696 559.0 10.2
568(13) 0.00602 559.2 10.4
558(13) 0.00604 559.5 10.6
562(13) 0.00623 559.7 10.8
564(13) 0.00634 560.0 11.0
571(12) 0.00655 560.3 11.2
559(13) 0.00612 560.5 11.5
538(13) 0.00614 560.8 11.7
522(12) 0.00670 561.0 11.9
543(12) 0.00661 561.3 12.2
548(12) 0.00685 561.5 12.4
554(13) 0.00631 561.8 12.7
565(13) 0.00592 562.1 13.0
577(13) 0.00602 562.3 13.3
571(12) 0.00644 562.6 13.6
594(13) 0.00632 562.8 13.9
565(13) 0.00628 563.1 14.2
541(13) 0.00633 563.4 14.5
563(13) 0.00620 563.6 14.8
557(12) 0.00661 563.9 15.2
602(13) 0.00618 564.1 15.5
617(13) 0.00570 564.4 15.9
588(13) 0.00550 564.6 16.3
585(13) 0.00591 564.9 16.7
568(12) 0.00644 565.2 17.1
559(12) 0.00672 565.4 17.5
587(13) 0.00591 565.7 18.0
573(13) 0.00572 565.9 18.4
578(13) 0.00604 566.2 18.9
554(12) 0.00677 566.5 19.4
566(12) 0.00643 566.7 19.9
577(13) 0.00593 567.0 20.5
569(13) 0.00583 567.2 21.0
591(13) 0.00588 567.5 21.6
600(13) 0.00619 567.8 22.2
598(13) 0.00607 568.0 22.9
602(13) 0.00579 568.3 23.5
579(13) 0.00586 568.5 24.2
589(13) 0.00580 568.8 24.9
604(13) 0.00619 569.0 25.7
586(13) 0.00626 569.3 26.5
566(13) 0.00611 569.6 27.3
598(13) 0.00571 569.8 28.2
598(13) 0.00581 570.1 29.1
578(13) 0.00639 570.3 30.1
575(13) 0.00620 570.6 31.1
601(14) 0.00547 570.9 32.1
593(13) 0.00556 571.1 33.3
574(13) 0.00629 571.4 34.4
594(13) 0.00624 571.6 35.7
577(13) 0.00589 571.9 37.0
562(13) 0.00596 572.1 38.3
595(13) 0.00576 572.4 39.8
560(12) 0.00653 572.7 41.3
612(13) 0.00605 572.9 43.0
582(13) 0.00598 573.2 44.7
581(13) 0.00557 573.4 46.5
556(13) 0.00616 573.7 48.5
607(13) 0.00582 574.0 50.5
644(13) 0.00575 574.2 52.7
607(13) 0.00583 574.5 55.1
598(13) 0.00571 574.7 57.6
636(14) 0.00532 575.0 60.3
594(13) 0.00609 575.2 63.2
618(13) 0.00609 575.5 66.3
619(13) 0.00559 575.8 69.6
612(14) 0.00527 576.0 73.2
633(14) 0.00548 576.3 77.0
604(13) 0.00608 576.5 81.2
628(13) 0.00589 576.8 85.7
641(14) 0.00540 577.1 90.6
618(14) 0.00526 577.3 96.0
630(13) 0.00558 577.6 101.8
631(13) 0.00586 577.8 108.2
634(13) 0.00579 578.1 115.2
606(13) 0.00590 578.4 122.8
637(14) 0.00506 578.6 131.3
658(14) 0.00530 578.9 140.6
642(13) 0.00578 579.1 151.0
670(14) 0.00548 579.4 162.6
666(14) 0.00522 579.6 175.5
703(15) 0.00457 579.9 190.1
698(15) 0.00474 580.2 206.5
701(14) 0.00535 580.4 225.0
679(14) 0.00543 580.7 246.2
738(15) 0.00471 580.9 270.5
755(15) 0.00444 581.2 298.4
797(15) 0.00443 581.5 330.8
835(15) 0.00446 581.7 368.8
917(16) 0.00388 582.0 413.7
952(17) 0.00361 582.2 467.5
1067(18) 0.003146 582.5 533.3
1187(18) 0.002935 582.7 616.4
1402(19) 0.002651 583.0 725.7
1658(21) 0.002176 583.3 876.2
2097(25) 0.001641 583.5 1092.4
2575(28) 0.001318 583.8 1410.6
3200(30) 0.001095 584.0 1880.2
3930(33) 0.000943 584.3 2558.0
4641(36) 0.000758 585. 3497.
5441(40) 0.000625 585. 4729.
6435(43) 0.000530 585. 6238.
7584(46) 0.000463 585. 7927.
8993(50) 0.000407 586. 9575.
10970(57) 0.0003125 586. 10808.
12272(61) 0.0002692 586. 11207.
12528(61) 0.0002705 586. 10604.
10794(55) 0.0003344 587. 9244.
8257(48) 0.000441 587. 7561.
6143(43) 0.000544 587. 5897.
4662(38) 0.000701 587. 4443.
3496(32) 0.001000 587.7 3273.7
2709(27) 0.001360 587.9 2393.5
2312(25) 0.001600 588.2 1764.8
1950(24) 0.001751 588.4 1332.2
1711(23) 0.001896 588.7 1039.2
1462(20) 0.002393 588.9 839.7
1297(19) 0.002861 589.2 699.6
1195(18) 0.003104 589.5 596.9
1059(17) 0.003304 589.7 518.1
999(17) 0.003287 590.0 455.1
985(17) 0.003431 590.2 403.5
910(16) 0.00407 590.5 360.2
904(16) 0.00412 590.8 323.5
808(15) 0.00436 591.0 292.1
809(16) 0.00404 591.3 265.0
798(15) 0.00442 591.5 241.5
731(14) 0.00510 591.8 220.9
742(14) 0.00495 592.1 202.8
774(15) 0.00438 592.3 186.8
740(15) 0.00450 592.6 172.7
710(14) 0.00491 592.8 160.0
695(14) 0.00538 593.1 148.7
680(14) 0.00542 593.3 138.6
660(14) 0.00530 593.6 129.4
680(14) 0.00495 593.9 121.1
658(14) 0.00531 594.1 113.6
684(14) 0.00542 594.4 106.8
650(13) 0.00566 594.6 100.5
677(14) 0.00501 594.9 94.8
668(14) 0.00520 595.2 89.6
678(14) 0.00502 595.4 84.7
652(13) 0.00571 595.7 80.3
613(13) 0.00579 595.9 76.2
643(14) 0.00526 596.2 72.4
670(14) 0.00509 596.4 68.9
615(13) 0.00581 596.7 65.6
653(13) 0.00572 597.0 62.5
634(14) 0.00541 597.2 59.7
642(14) 0.00526 597.5 57.0
642(14) 0.00533 597.7 54.6
585(13) 0.00619 598.0 52.2
603(13) 0.00617 598.3 50.1
622(14) 0.00545 598.5 48.0
621(14) 0.00541 598.8 46.1
580(13) 0.00609 599.0 44.3
613(13) 0.00583 599.3 42.6
620(13) 0.00603 599.5 41.0
619(13) 0.00566 599.8 39.5
653(14) 0.00504 600.1 38.0
645(14) 0.00535 600.3 36.7
631(13) 0.00573 600.6 35.4
598(13) 0.00628 600.8 34.2
614(13) 0.00564 601.1 33.0
619(14) 0.00530 601.4 31.9
629(14) 0.00546 601.6 30.9
577(13) 0.00635 601.9 29.9
624(13) 0.00585 602.1 28.9
607(13) 0.00577 602.4 28.0
618(14) 0.00504 602.6 27.1
607(14) 0.00545 602.9 26.3
572(13) 0.00640 603.2 25.5
612(13) 0.00604 603.4 24.8
650(14) 0.00531 603.7 24.1
614(14) 0.00532 603.9 23.4
604(13) 0.00595 604.2 22.7
616(13) 0.00602 604.5 22.1
619(13) 0.00592 604.7 21.5
618(13) 0.00561 605.0 20.9
677(14) 0.00482 605.2 20.3
645(13) 0.00552 605.5 19.8
624(13) 0.00594 605.8 19.3
586(13) 0.00623 606.0 18.8
617(13) 0.00571 606.3 18.3
604(13) 0.00554 606.5 17.9
630(14) 0.00539 606.8 17.4
626(13) 0.00597 607.0 17.0
615(13) 0.00584 607.3 16.6
607(13) 0.00562 607.6 16.2
594(13) 0.00572 607.8 15.8
588(13) 0.00596 608.1 15.4
625(13) 0.00593 608.3 15.1
598(13) 0.00599 608.6 14.7
623(13) 0.00553 608.9 14.4
631(13) 0.00557 609.1 14.1
611(13) 0.00582 609.4 13.8
647(13) 0.00575 609.6 13.5
629(13) 0.00578 609.9 13.2
645(14) 0.00527 610.1 12.9
593(13) 0.00572 610.4 12.6
563(13) 0.00632 610.7 12.4
613(13) 0.00606 610.9 12.1
612(13) 0.00566 611.2 11.9
600(13) 0.00565 611.4 11.6
608(13) 0.00559 611.7 11.4
631(13) 0.00567 612.0 11.2
570(12) 0.00651 612.2 10.9
608(13) 0.00565 612.5 10.7
633(14) 0.00541 612.7 10.5
639(13) 0.00550 613.0 10.3
599(13) 0.00607 613.2 10.1
575(12) 0.00647 613.5 9.9
661(14) 0.00520 613.8 9.7
616(14) 0.00540 614.0 9.6
641(13) 0.00554 614.3 9.4
648(13) 0.00564 614.5 9.2
600(13) 0.00617 614.8 9.1
636(14) 0.00539 615.1 8.9
601(14) 0.00539 615.3 8.7
646(14) 0.00528 615.6 8.6
626(13) 0.00588 615.8 8.4
659(13) 0.00562 616.1 8.3
619(13) 0.00568 616.3 8.2
639(14) 0.00499 616.6 8.0
649(13) 0.00552 616.9 7.9
619(13) 0.00602 617.1 7.8
604(13) 0.00607 617.4 7.6
640(14) 0.00542 617.6 7.5
620(14) 0.00533 617.9 7.4
597(13) 0.00594 618.2 7.3
628(13) 0.00595 618.4 7.1
626(13) 0.00584 618.7 0.0
614(13) 0.00566 618.9 0.0
619(14) 0.00543 619.2 0.0
664(14) 0.00518 619.5 0.0
611(13) 0.00611 619.7 0.0
588(13) 0.00622 620.0 0.0
622(13) 0.00561 620.2 0.0
604(13) 0.00568 620.5 0.0
632(14) 0.00545 620.7 0.0
653(13) 0.00567 621.0 0.0
640(13) 0.00552 621.3 0.0
618(13) 0.00558 621.5 0.0
608(13) 0.00561 621.8 0.0
595(13) 0.00585 622.0 0.0
591(13) 0.00635 622.3 0.0
625(13) 0.00562 622.6 0.0
600(13) 0.00590 622.8 0.0
621(14) 0.00549 623.1 0.0
633(13) 0.00558 623.3 0.0
622(13) 0.00597 623.6 0.0
652(14) 0.00528 623.8 0.0
629(14) 0.00540 624.1 0.0
589(13) 0.00599 624.4 0.0
637(13) 0.00565 624.6 0.0
624(13) 0.00592 624.9 0.0
630(13) 0.00563 625.1 0.0
616(13) 0.00562 625.4 0.0
613(13) 0.00564 625.8 0.0
624(13) 0.00575 626.3 0.0
616(13) 0.00608 626.8 0.0
646(14) 0.00542 627.3 0.0
624(14) 0.00534 627.8 0.0
633(13) 0.00568 628.2 0.0
644(13) 0.00569 628.7 0.0
683(14) 0.00542 629.2 0.0
628(13) 0.00568 629.7 0.0
690(15) 0.00473 630.1 0.0
624(13) 0.00565 630.6 0.0
609(13) 0.00608 631.1 0.0
641(13) 0.00583 631.6 0.0
649(14) 0.00537 632.1 0.0
638(14) 0.00511 632.5 0.0
643(14) 0.00547 633.0 0.0
636(13) 0.00574 633.5 0.0
646(13) 0.00574 634.0 0.0
629(13) 0.00562 634.5 0.0
648(14) 0.00509 634.9 0.0
627(13) 0.00573 635.4 0.0
632(13) 0.00586 635.9 0.0
631(13) 0.00587 636.4 0.0
680(14) 0.00497 636.8 0.0
665(14) 0.00496 637.3 0.0
631(14) 0.00527 637.8 0.0
625(13) 0.00594 638.3 0.0
644(13) 0.00570 638.8 0.0
627(13) 0.00565 639.2 0.0
659(14) 0.00502 639.7 0.0
652(14) 0.00534 640.2 0.0
645(13) 0.00576 640.7 0.0
638(13) 0.00564 641.2 0.0
702(14) 0.00484 641.6 0.0
646(14) 0.00534 642.1 0.0
656(14) 0.00530 642.6 0.0
649(13) 0.00571 643.1 0.0
647(13) 0.00558 643.5 0.0
658(14) 0.00532 644.0 0.0
670(14) 0.00515 644.5 0.0
656(14) 0.00540 645.0 0.0
659(13) 0.00568 645.5 0.0
634(13) 0.00551 645.9 0.0
664(14) 0.00502 646.4 0.0
630(14) 0.00546 646.9 0.0
684(14) 0.00520 647.4 0.0
666(13) 0.00552 647.9 0.0
644(14) 0.00538 648.3 0.0
648(14) 0.00506 648.8 0.0
678(14) 0.00511 649.3 0.0
668(13) 0.00551 649.8 0.0
638(13) 0.00585 650.2 0.0
622(13) 0.00555 650.7 0.0
665(14) 0.00500 651.2 0.0
662(14) 0.00527 651.7 0.0
653(13) 0.00557 652.2 0.0
636(13) 0.00581 652.6 0.0
649(14) 0.00531 653.1 0.0
654(14) 0.00508 653.6 0.0
677(14) 0.00526 654.1 0.0
643(13) 0.00572 654.5 0.0
642(13) 0.00582 655.0 0.0
675(14) 0.00520 655.5 0.0
663(14) 0.00491 656.0 0.0
670(14) 0.00512 656.5 0.0
661(13) 0.00560 656.9 0.0
675(13) 0.00550 657.4 0.0
659(14) 0.00517 657.9 0.0
666(14) 0.00484 658.4 0.0
637(14) 0.00546 658.9 0.0
659(13) 0.00564 659.3 0.0
646(13) 0.00570 659.8 0.0
656(14) 0.00533 660.3 0.0
668(14) 0.00488 660.8 0.0
644(14) 0.00529 661.2 0.0
646(13) 0.00577 661.7 0.0
690(14) 0.00522 662.2 0.0
615(13) 0.00577 662.7 0.0
646(14) 0.00507 663.2 0.0
640(14) 0.00543 663.6 0.0
674(13) 0.00550 664.1 0.0
641(13) 0.00565 664.6 0.0
651(14) 0.00526 665.1 0.0
658(14) 0.00500 665.6 0.0
697(14) 0.00484 666.0 0.0
696(14) 0.00534 666.5 0.0
626(13) 0.00567 667.0 0.0
620(13) 0.00562 667.5 0.0
693(14) 0.00492 667.9 0.0
672(14) 0.00535 668.4 0.0
692(14) 0.00537 668.9 0.0
672(14) 0.00524 669.4 0.0
699(14) 0.00479 669.9 0.0
695(14) 0.00480 670.3 9.6
698(14) 0.00503 670.8 9.7
660(13) 0.00562 671.3 9.8
660(14) 0.00535 671.8 10.0
676(14) 0.00503 672.3 10.1
725(15) 0.00466 672.7 10.2
689(14) 0.00526 673.2 10.3
673(13) 0.00551 673.7 10.4
661(14) 0.00514 674.2 10.6
686(14) 0.00485 674.6 10.7
671(14) 0.00528 675.1 10.8
690(14) 0.00524 675.6 10.9
700(14) 0.00531 676.1 11.1
676(14) 0.00518 676.6 11.2
678(14) 0.00481 677.0 11.4
687(14) 0.00502 677.5 11.5
674(14) 0.00544 678.0 11.6
679(14) 0.00541 678.5 11.8
671(14) 0.00516 679.0 11.9
680(14) 0.00483 679.4 12.1
708(14) 0.00505 679.9 12.2
695(14) 0.00534 680.5 12.4
703(14) 0.00527 681.0 12.6
674(14) 0.00522 681.6 12.7
680(14) 0.00476 682.2 12.9
673(14) 0.00506 682.8 13.1
676(13) 0.00553 683.3 13.2
680(14) 0.00530 683.9 13.4
672(14) 0.00528 684.5 13.6
696(15) 0.00468 685.1 13.8
708(14) 0.00488 685.6 14.0
681(14) 0.00547 686.2 14.2
663(13) 0.00559 686.8 14.4
704(14) 0.00483 687.4 15.1
687(14) 0.00485 687.9 15.3
697(14) 0.00498 688.5 15.5
737(14) 0.00506 689.1 15.8
699(14) 0.00522 689.7 16.0
692(14) 0.00495 690.2 16.2
677(14) 0.00503 690.8 16.5
672(14) 0.00517 691.4 16.7
664(13) 0.00557 691.9 17.0
694(14) 0.00529 692.5 17.2
698(14) 0.00503 693.1 17.5
708(15) 0.00474 693.7 17.7
703(14) 0.00500 694.2 18.0
711(14) 0.00526 694.8 18.3
692(14) 0.00510 695.4 18.6
703(14) 0.00495 696.0 18.9
696(14) 0.00492 696.5 19.2
689(14) 0.00513 697.1 19.5
656(13) 0.00566 697.7 19.8
699(14) 0.00487 698.3 20.1
704(14) 0.00477 698.8 20.4
710(14) 0.00495 699.4 20.8
733(14) 0.00489 700.0 21.1
690(14) 0.00541 700.6 21.5
702(14) 0.00489 701.1 21.8
703(14) 0.00482 701.7 22.2
735(15) 0.00473 702.3 22.6
710(14) 0.00503 702.8 23.0
681(14) 0.00545 703.4 23.4
682(14) 0.00507 704.0 23.8
717(15) 0.00461 704.6 24.2
708(14) 0.00495 705.1 24.7
705(14) 0.00515 705.7 25.1
721(14) 0.00512 706.3 25.6
706(14) 0.00495 706.9 26.0
717(15) 0.00448 707.4 26.5
734(15) 0.00466 708.0 27.0
668(13) 0.00559 708.6 27.5
721(14) 0.00510 709.2 28.1
708(14) 0.00503 709.7 28.6
721(15) 0.00457 710.3 29.2
732(14) 0.00485 710.9 29.7
704(14) 0.00523 711.5 30.3
710(14) 0.00519 712.0 30.9
705(14) 0.00507 712.6 31.6
708(15) 0.00463 713.2 32.2
725(14) 0.00479 713.8 32.9
731(14) 0.00510 714.3 33.6
767(14) 0.00478 714.9 34.3
721(14) 0.00481 715.5 35.0
729(15) 0.00447 716.0 35.8
697(14) 0.00488 716.6 36.6
721(14) 0.00519 717.2 37.4
740(14) 0.00498 717.8 38.2
738(15) 0.00467 718.3 39.1
769(15) 0.00430 718.9 40.0
751(15) 0.00461 719.5 40.9
724(14) 0.00518 720.1 41.9
713(14) 0.00500 720.6 42.9
746(15) 0.00458 721.2 43.9
717(14) 0.00481 721.8 45.0
747(15) 0.00470 722.4 46.1
725(14) 0.00514 722.9 47.2
747(15) 0.00474 723.5 48.4
752(15) 0.00457 724.1 49.7
796(15) 0.00427 724.7 50.9
772(15) 0.00462 725.2 52.3
755(14) 0.00495 725.8 53.7
727(14) 0.00479 726.4 55.1
739(15) 0.00452 727.0 56.6
782(15) 0.00444 727.5 58.2
789(15) 0.00459 728.1 59.8
774(14) 0.00480 728.7 61.5
733(15) 0.00468 729.2 63.3
706(14) 0.00479 729.8 65.2
764(15) 0.00445 730.4 67.1
746(14) 0.00479 731.0 69.1
788(15) 0.00473 731.5 71.3
802(15) 0.00421 732.1 73.5
781(15) 0.00420 732.7 75.8
753(15) 0.00459 733.3 78.3
783(15) 0.00459 733.8 80.8
773(14) 0.00484 734.4 83.5
803(15) 0.00416 735.0 86.3
775(15) 0.00421 735.6 89.3
751(15) 0.00464 736.1 92.4
779(14) 0.00479 736.7 95.7
803(15) 0.00458 737.3 99.2
769(15) 0.00452 737.9 102.9
803(16) 0.00408 738.4 106.8
807(15) 0.00433 739.0 110.9
792(15) 0.00466 739.6 115.2
787(15) 0.00473 740.2 119.8
794(15) 0.00435 740.7 124.7
843(16) 0.00382 741.3 130.0
795(15) 0.00437 741.9 135.5
809(15) 0.00459 742.4 141.4
818(15) 0.00449 743.0 147.7
828(15) 0.00427 743.6 154.5
820(16) 0.00406 744.2 161.7
857(16) 0.00409 744.7 169.5
850(15) 0.00440 745.3 177.8
869(15) 0.00420 745.9 186.8
853(16) 0.00409 746.5 196.5
927(17) 0.003504 747.0 207.0
867(16) 0.00392 747.6 218.4
870(15) 0.00427 748.2 230.8
912(16) 0.00393 748.8 244.3
911(16) 0.00383 749.3 259.1
942(17) 0.00354 749.9 275.3
950(17) 0.00359 750.5 293.2
969(16) 0.00385 751.1 313.1
966(16) 0.00370 751.6 335.4
1053(18) 0.003206 752.2 360.5
1045(18) 0.003220 752.8 389.4
1056(17) 0.003322 753.3 423.3
1147(18) 0.003251 753.9 464.0
1174(18) 0.003000 754.5 513.8
1231(19) 0.002810 755.1 575.8
1367(20) 0.002494 755.6 653.4
1451(20) 0.002451 756.2 749.7
1586(21) 0.002338 756.8 867.2
1658(22) 0.002095 757.4 1006.1
1777(23) 0.001876 757.9 1163.3
1973(24) 0.001743 758.5 1330.5
2138(24) 0.001676 759.1 1492.3
2291(25) 0.001620 759.7 1629.3
2497(27) 0.001384 760.2 1730.4
2529(27) 0.001327 760.8 1806.5
2601(27) 0.001345 761.4 1886.8
2743(27) 0.001323 762.0 2004.9
2920(28) 0.001267 762.5 2190.9
3310(31) 0.001047 763.1 2471.4
3724(34) 0.000881 763.7 2870.9
4400(36) 0.000779 764. 3412.
5257(38) 0.000691 765. 4114.
6013(40) 0.000613 765. 4990.
7109(45) 0.000486 766. 6044.
8394(51) 0.000378 767. 7264.
9616(53) 0.000353 767. 8606.
10893(55) 0.0003321 768. 9987.
12533(59) 0.0002899 768. 11260.
13574(63) 0.0002502 769. 12221.
13899(66) 0.0002271 769. 12665.
13514(63) 0.0002507 770. 12476.
12481(59) 0.0002921 771. 11704.
11170(56) 0.0003216 771. 10528.
9781(53) 0.0003498 772. 9164.
8367(51) 0.000389 772. 7781.
7205(46) 0.000479 773. 6490.
6158(41) 0.000598 773. 5346.
5214(38) 0.000689 774. 4370.
4391(36) 0.000778 775. 3563.
3866(34) 0.000855 775.2 2911.1
3427(32) 0.000999 775.7 2394.3
3089(29) 0.001194 776.3 1990.4
2757(28) 0.001284 776.9 1676.5
2468(27) 0.001388 777.5 1432.6
2243(26) 0.001474 778.0 1241.5
2056(24) 0.001695 778.6 1089.8
1885(23) 0.001964 779.2 967.3
1783(23) 0.001958 779.7 866.3
1739(23) 0.001958 780.3 781.7
1594(22) 0.002139 780.9 709.6
1486(20) 0.002382 781.5 647.4
1458(20) 0.002531 782.0 593.1
1367(20) 0.002599 782.6 545.4
1369(20) 0.002438 783.2 503.2
1287(19) 0.002681 783.8 465.7
1274(19) 0.002821 784.3 432.2
1229(18) 0.002988 784.9 402.1
1179(18) 0.002923 785.5 375.0
1195(19) 0.002773 786.1 350.6
1093(18) 0.003215 786.6 328.4
1090(17) 0.003297 787.2 308.2
1079(17) 0.003414 787.8 289.8
1074(18) 0.003147 788.4 273.1
1035(18) 0.003215 788.9 257.7
1033(17) 0.003377 789.5 243.5
1032(17) 0.00352 790.1 230.5
1033(17) 0.00359 790.7 218.5
982(17) 0.00355 791.2 207.4
1002(18) 0.003237 791.8 197.2
953(16) 0.00368 792.4 187.6
974(16) 0.00372 792.9 178.7
950(16) 0.00390 793.5 170.5
988(17) 0.00352 794.1 162.8
941(17) 0.00352 794.7 155.6
906(16) 0.00390 795.2 148.9
942(16) 0.00387 795.8 142.6
892(16) 0.00415 796.4 136.7
914(16) 0.00386 797.0 131.1
903(17) 0.00363 797.5 125.9
906(16) 0.00388 798.1 121.0
881(15) 0.00422 798.7 116.3
923(16) 0.00400 799.3 112.0
891(16) 0.00394 799.8 107.8
906(17) 0.00359 800.4 103.9
907(16) 0.00393 801.0 100.2
896(16) 0.00416 801.6 96.7
879(15) 0.00421 802.1 93.4
867(16) 0.00409 802.7 90.2
884(16) 0.00374 803.3 87.2
854(16) 0.00410 803.8 84.4
851(15) 0.00437 804.4 81.7
870(16) 0.00406 805.0 79.1
829(16) 0.00413 805.6 76.6
837(16) 0.00404 806.1 74.2
860(16) 0.00400 806.7 72.0
867(15) 0.00429 807.3 69.8
860(16) 0.00411 807.9 67.8
821(15) 0.00426 808.4 65.8
850(16) 0.00403 809.0 64.0
868(16) 0.00406 809.6 62.2
861(15) 0.00435 810.2 60.4
843(15) 0.00418 810.7 58.8
853(16) 0.00401 811.3 57.2
843(16) 0.00395 811.9 55.7
858(16) 0.00415 812.5 54.2
851(15) 0.00437 813.0 52.8
826(16) 0.00414 813.6 51.4
881(16) 0.00376 814.2 50.1
844(16) 0.00415 814.8 48.9
826(15) 0.00432 815.3 47.7
857(15) 0.00433 815.9 46.5
825(15) 0.00420 816.5 45.4
806(15) 0.00420 817.0 44.3
843(16) 0.00409 817.6 43.3
818(15) 0.00440 818.2 42.3
853(15) 0.00437 818.8 41.3
882(16) 0.00386 819.3 40.3
851(16) 0.00390 819.9 39.4
819(15) 0.00429 820.5 38.6
840(15) 0.00438 821.1 37.7
872(15) 0.00427 821.6 36.9
822(15) 0.00428 822.2 37.5
816(16) 0.00398 822.8 36.8
833(16) 0.00415 823.4 36.1
820(15) 0.00450 823.9 35.4
824(15) 0.00456 824.5 34.7
839(16) 0.00406 825.1 34.1
843(16) 0.00381 825.7 33.5
857(16) 0.00402 826.2 32.9
881(15) 0.00425 826.8 32.3
836(15) 0.00441 827.4 31.8
830(15) 0.00418 828.0 31.2
841(16) 0.00379 828.5 30.7
835(16) 0.00407 829.1 30.2
814(15) 0.00461 829.7 29.7
883(16) 0.00409 830.2 29.3
853(16) 0.00402 830.8 28.8
854(16) 0.00388 831.4 28.4
830(15) 0.00429 832.0 28.0
808(15) 0.00461 832.5 27.6
829(15) 0.00443 833.1 27.2
880(16) 0.00399 833.7 26.8
860(16) 0.00393 834.3 26.5
818(15) 0.00427 834.8 26.2
851(15) 0.00440 835.4 25.8
843(15) 0.00429 836.0 25.5
857(16) 0.00399 836.6 25.2
822(16) 0.00411 837.1 25.0
849(16) 0.00411 837.7 24.7
857(15) 0.00432 838.3 24.4
846(15) 0.00423 838.9 24.2
825(15) 0.00419 839.5 24.0
829(16) 0.00414 840.1 23.8
851(16) 0.00416 840.7 23.6
866(15) 0.00430 841.3 23.4
877(16) 0.00402 841.9 23.3
837(16) 0.00410 842.5 23.1
839(16) 0.00413 843.0 23.0
862(16) 0.00410 843.6 22.9
832(15) 0.00448 844.2 22.8
855(16) 0.00410 844.8 22.8
880(16) 0.00379 845.4 22.7
888(16) 0.00384 846.0 22.7
829(15) 0.00438 846.6 22.7
867(15) 0.00428 847.2 22.7
856(16) 0.00408 847.8 22.8
853(16) 0.00402 848.4 22.8
909(16) 0.00379 849.0 22.9
863(15) 0.00429 849.6 23.1
881(15) 0.00418 850.2 23.3
834(16) 0.00413 850.7 23.5
866(16) 0.00374 851.3 23.7
841(15) 0.00417 851.9 24.0
882(16) 0.00410 852.5 24.4
910(16) 0.00411 853.1 24.8
855(16) 0.00409 853.7 25.3
920(17) 0.003480 854.3 25.8
889(16) 0.00393 854.9 26.5
877(15) 0.00426 855.5 27.2
848(15) 0.00435 856.1 28.0
872(16) 0.00405 856.7 29.0
880(16) 0.00369 857.3 30.1
872(16) 0.00400 857.8 31.4
932(16) 0.00399 858.4 32.8
904(16) 0.00409 859.0 34.5
899(16) 0.00385 859.6 36.5
878(16) 0.00376 860.2 38.8
938(17) 0.00362 860.8 41.6
911(16) 0.00409 861.4 44.8
910(16) 0.00395 862.0 48.6
906(16) 0.00379 862.6 53.1
932(17) 0.00361 863.2 58.7
911(16) 0.00379 863.8 65.5
911(16) 0.00408 864.4 74.0
969(16) 0.00371 865.0 85.1
994(17) 0.003452 865.5 100.8
1056(18) 0.003221 866.1 125.0
1155(18) 0.002984 866.7 166.4
1329(19) 0.002769 867.3 240.4
1494(20) 0.002392 867.9 370.9
1635(22) 0.002117 868.5 586.4
1846(23) 0.001854 869.1 908.7
2024(24) 0.001752 869.7 1335.1
2286(25) 0.001625 870.3 1818.8
2663(27) 0.001333 870.9 2255.8
3177(30) 0.001075 871.5 2482.2
3672(33) 0.000924 872.1 2402.4
3561(31) 0.001010 872.7 2048.3
2568(26) 0.001432 873.2 1571.7
1805(23) 0.001875 873.8 1106.3
1490(21) 0.002233 874.4 727.6
1253(19) 0.002796 875.0 458.8
1116(18) 0.003260 875.6 288.0
1095(17) 0.003399 876.2 188.3
1057(18) 0.003204 876.8 132.4
977(17) 0.003407 877.4 100.7
950(17) 0.00367 878.0 81.2
959(16) 0.00378 878.6 68.0
957(16) 0.00387 879.2 58.1
928(16) 0.00377 879.8 50.4
900(17) 0.00365 880.3 44.1
933(16) 0.00370 880.9 38.9
948(16) 0.00390 881.5 34.6
897(16) 0.00414 882.1 30.9
911(16) 0.00375 882.7 27.8
899(17) 0.00354 883.3 25.2
932(16) 0.00370 883.9 22.8
865(15) 0.00430 884.5 20.8
851(15) 0.00429 885.1 19.1
884(16) 0.00390 885.7 17.5
917(17) 0.00354 886.3 16.2
931(16) 0.00374 886.9 15.0
886(15) 0.00419 887.5 13.9
855(15) 0.00432 888.0 12.9
905(16) 0.00379 888.6 12.1
897(17) 0.00362 889.2 11.3
881(16) 0.00395 889.8 10.6
903(16) 0.00414 890.4 9.9
874(15) 0.00419 891.0 9.3
882(16) 0.00397 891.6 8.8
919(17) 0.00360 892.2 8.3
920(16) 0.00378 892.8 7.8
927(16) 0.00401 893.4 7.4
900(16) 0.00403 894.0 7.0
904(16) 0.00384 894.6 6.7
866(16) 0.00397 895.2 6.3
906(16) 0.00377 895.7 6.0
892(15) 0.00418 896.3 7.2
886(16) 0.00406 896.9 6.9
952(17) 0.00361 897.5 6.7
969(17) 0.003466 898.1 6.5
911(16) 0.00388 898.7 6.3
887(15) 0.00423 899.3 6.1
908(16) 0.00393 899.9 5.9
920(16) 0.00369 900.5 5.7
887(16) 0.00400 901.1 5.6
853(15) 0.00427 901.7 5.4
856(15) 0.00433 902.3 5.3
884(16) 0.00399 902.9 5.2
941(17) 0.003502 903.4 5.1
870(16) 0.00401 904.0 4.9
925(16) 0.00385 904.6 4.8
914(16) 0.00408 905.2 4.7
888(16) 0.00392 905.8 4.7
909(17) 0.00362 906.4 4.6
918(16) 0.00377 907.0 4.5
926(16) 0.00395 907.6 4.4
915(16) 0.00405 908.2 4.3
913(16) 0.00379 908.8 4.3
925(17) 0.00353 909.4 4.2
927(16) 0.00375 910.0 4.1
933(16) 0.00390 910.6 4.1
930(16) 0.00400 911.2 4.0
900(16) 0.00384 911.8 4.0
907(17) 0.00357 912.4 3.9
900(16) 0.00391 913.1 3.9
906(16) 0.00410 913.7 3.9
915(16) 0.00405 914.3 3.8
909(16) 0.00381 914.9 3.8
915(17) 0.003467 915.5 3.8
912(16) 0.00380 916.2 3.7
931(16) 0.00401 916.8 3.7
933(16) 0.00394 917.4 3.7
917(16) 0.00385 918.0 3.7
910(17) 0.00366 918.7 3.6
915(16) 0.00384 919.3 3.6
895(16) 0.00411 919.9 3.6
913(16) 0.00402 920.5 3.6
925(16) 0.00372 921.2 3.6
897(16) 0.00368 921.8 2.1
876(16) 0.00389 922.4 2.1
887(15) 0.00421 923.0 2.2
947(16) 0.00376 923.7 2.2
927(16) 0.00373 924.3 2.2
956(17) 0.003455 924.9 2.2
904(16) 0.00384 925.5 2.2
945(16) 0.00393 926.2 2.3
936(16) 0.00379 926.8 2.3
953(17) 0.00364 927.4 2.3
971(17) 0.003502 928.0 2.3
959(17) 0.00356 928.7 2.4
928(16) 0.00402 929.3 2.4
950(16) 0.00378 929.9 2.4
967(17) 0.00354 930.5 2.5
937(17) 0.00367 931.2 2.5
962(17) 0.00362 931.8 2.5
951(16) 0.00393 932.4 2.5
950(16) 0.00368 933.0 2.6
949(17) 0.00355 933.7 2.6
971(17) 0.003467 934.3 2.6
1009(17) 0.003488 934.9 2.7
926(16) 0.00401 935.5 2.7
931(16) 0.00370 936.1 2.7
946(17) 0.00353 936.8 2.7
937(16) 0.00376 937.4 2.8
950(16) 0.00388 938.0 2.8
937(16) 0.00396 938.6 2.8
924(16) 0.00381 939.3 2.9
966(17) 0.003432 939.9 2.9
922(16) 0.00382 940.5 3.0
942(16) 0.00386 941.1 3.0
923(16) 0.00403 941.8 3.0
944(16) 0.00369 942.4 3.1
941(17) 0.00353 943.0 3.1
1005(17) 0.003499 943.6 3.1
948(16) 0.00395 944.3 3.2
960(16) 0.00387 944.9 3.2
996(17) 0.00354 945.5 3.3
987(17) 0.003315 946.1 3.3
971(17) 0.00359 946.8 3.4
969(16) 0.00386 947.4 3.4
948(16) 0.00386 948.0 3.4
924(16) 0.00381 948.6 3.5
990(17) 0.003273 949.3 3.5
969(17) 0.00362 949.9 3.6
984(16) 0.00378 950.5 3.6
943(16) 0.00387 951.1 3.7
970(17) 0.00359 951.8 3.7
960(17) 0.003369 952.4 3.8
956(17) 0.00366 953.0 3.8
963(16) 0.00385 953.6 3.9
983(16) 0.00378 954.3 3.9
942(16) 0.00372 954.9 4.0
977(17) 0.003427 955.5 4.1
993(17) 0.003460 956.1 4.1
994(16) 0.00373 956.7 4.2
971(16) 0.00374 957.4 4.2
1001(17) 0.003363 958.0 4.3
971(17) 0.003486 958.6 4.4
999(17) 0.003475 959.2 4.4
996(16) 0.00374 959.9 4.5
992(17) 0.00355 960.5 4.6
988(17) 0.003492 961.1 4.6
998(17) 0.003417 961.7 4.7
976(17) 0.00365 962.4 4.8
990(16) 0.00377 963.0 4.9
990(17) 0.00354 963.6 4.9
942(17) 0.00360 964.2 5.0
924(16) 0.00374 964.9 5.1
994(17) 0.00358 965.5 5.2
967(16) 0.00385 966.1 5.3
1002(17) 0.003452 966.7 5.4
948(17) 0.00364 967.4 5.4
997(17) 0.003460 968.0 5.5
1021(17) 0.00360 968.6 5.6
996(16) 0.00370 969.2 5.7
968(17) 0.003498 969.9 5.8
978(17) 0.003415 970.5 5.9
942(16) 0.00378 971.1 6.0
939(16) 0.00391 971.7 6.1
971(16) 0.00382 972.4 6.3
1003(17) 0.003449 973.0 6.4
984(17) 0.003376 973.6 6.5
1007(17) 0.003443 974.2 6.6
1003(17) 0.00367 974.8 6.7
1005(16) 0.00368 975.5 6.9
1001(17) 0.003434 976.1 7.0
973(17) 0.003307 976.7 7.1
960(17) 0.00362 977.3 7.3
978(16) 0.00375 978.0 7.4
1032(17) 0.00359 978.6 7.5
997(17) 0.003409 979.2 7.7
997(18) 0.003211 979.8 7.8
989(17) 0.00355 980.5 8.0
1008(17) 0.00365 981.1 8.2
1009(17) 0.00361 981.7 8.3
998(17) 0.003505 982.4 8.5
960(17) 0.00353 983.0 8.7
963(16) 0.00369 983.6 8.9
978(16) 0.00383 984.3 9.1
1003(17) 0.00361 984.9 9.3
999(17) 0.003403 985.6 9.5
996(17) 0.003321 986.2 9.7
1033(17) 0.003366 986.9 9.9
1037(17) 0.00359 987.5 10.1
1078(17) 0.003362 988.2 10.3
1020(17) 0.003428 988.8 10.6
1022(17) 0.003306 989.4 10.8
997(17) 0.003477 990.1 11.1
991(16) 0.00373 990.7 11.4
986(17) 0.00367 991.4 11.6
983(17) 0.00353 992.0 11.9
997(17) 0.003474 992.7 12.2
1013(17) 0.003489 993.3 12.5
983(16) 0.00380 994.0 12.9
955(16) 0.00370 994.6 13.2
1007(17) 0.003396 995.2 13.5
1060(18) 0.003226 995.9 13.9
1030(17) 0.003492 996.5 14.3
1042(17) 0.00357 997.2 14.7
1042(17) 0.003363 997.8 15.1
1034(18) 0.003207 998.5 15.5
1002(17) 0.003370 999.1 15.9
1037(17) 0.003481 999.8 16.4
1034(17) 0.00359 1000.4 16.9
1050(17) 0.003342 1001.1 17.4
1037(18) 0.003198 1001.7 17.9
1024(17) 0.003363 1002.3 18.5
1005(17) 0.00364 1003.0 19.1
1046(17) 0.00357 1003.6 19.7
1036(17) 0.003343 1004.3 20.3
983(17) 0.003389 1004.9 21.0
1024(17) 0.003351 1005.6 21.7
992(16) 0.00376 1006.2 22.4
1008(17) 0.00367 1006.9 23.2
1035(17) 0.003344 1007.5 24.0
1018(18) 0.003219 1008.1 24.8
1040(17) 0.003404 1008.8 25.7
1007(16) 0.00368 1009.4 26.7
1057(17) 0.00351 1010.1 27.7
1033(17) 0.003352 1010.7 28.7
1025(18) 0.003170 1011.4 29.8
1016(17) 0.003403 1012.0 31.0
1034(17) 0.00358 1012.7 32.3
1081(17) 0.003405 1013.3 33.6
1075(17) 0.003274 1013.9 35.1
1048(18) 0.003162 1014.6 36.6
1077(18) 0.003203 1015.2 38.2
1088(17) 0.003392 1015.9 39.9
1023(17) 0.00360 1016.5 41.7
1042(17) 0.003339 1017.2 43.7
1039(18) 0.003240 1017.8 45.8
1021(17) 0.003385 1018.5 48.1
1079(17) 0.003459 1019.1 50.5
1089(17) 0.003302 1019.7 53.1
1043(17) 0.003352 1020.4 56.0
1093(18) 0.003055 1021.0 59.0
1088(18) 0.003162 1021.7 62.3
1078(17) 0.003446 1022.3 65.9
1098(17) 0.003291 1023.0 69.8
1102(18) 0.003099 1023.6 74.1
1110(18) 0.003050 1024.3 78.7
1088(18) 0.003251 1024.9 83.8
1124(17) 0.003324 1025.5 89.4
1089(17) 0.003291 1026.2 95.6
1123(18) 0.003059 1026.8 102.4
1120(18) 0.003126 1027.5 110.0
1124(18) 0.003196 1028.1 118.4
1089(17) 0.003412 1028.8 127.8
1121(18) 0.003070 1029.4 138.5
1147(18) 0.002927 1030.1 150.5
1147(18) 0.003023 1030.7 164.4
1193(18) 0.002994 1031.3 180.3
1173(18) 0.003177 1032.0 199.0
1200(19) 0.002830 1032.6 221.1
1286(20) 0.002571 1033.3 247.5
1308(19) 0.002655 1033.9 279.5
1340(19) 0.002720 1034.6 318.6
1343(19) 0.002774 1035.2 366.5
1402(20) 0.002440 1035.9 425.3
1440(21) 0.002291 1036.5 497.3
1542(21) 0.002235 1037.1 584.9
1723(22) 0.002128 1037.8 690.5
1807(22) 0.002073 1038.4 815.9
2006(24) 0.001743 1039.1 962.7
2125(25) 0.001545 1039.7 1130.8
2401(26) 0.001433 1040.4 1318.5
2641(27) 0.001386 1041.0 1520.7
2723(27) 0.001357 1041.7 1727.2
2986(29) 0.001164 1042.3 1922.2
3261(32) 0.000967 1042.9 2083.3
3288(31) 0.001065 1043.6 2185.8
3241(30) 0.001138 1044.2 2210.8
3163(30) 0.001143 1044.9 2153.0
2969(29) 0.001152 1045.5 2024.1
2685(28) 0.001231 1046.2 1846.4
2565(27) 0.001349 1046.8 1644.3
2353(25) 0.001580 1047.5 1437.9
2196(25) 0.001655 1048.1 1240.8
2029(24) 0.001733 1048.7 1060.6
1892(24) 0.001749 1049.4 901.0
1801(23) 0.001953 1050.0 762.9
1763(22) 0.002115 1050.7 645.6
1630(21) 0.002230 1051.3 547.6
1491(21) 0.002335 1052.0 466.6
1415(21) 0.002379 1052.6 400.2
1430(20) 0.002380 1053.3 346.0
1341(19) 0.002774 1053.9 302.0
1347(20) 0.002605 1054.6 266.0
1374(20) 0.002491 1055.2 236.4
1363(20) 0.002490 1055.8 211.8
1342(20) 0.002579 1056.5 191.2
1271(18) 0.002923 1057.1 173.7
1255(19) 0.002809 1057.8 158.7
1233(19) 0.002724 1058.4 145.6
1262(19) 0.002662 1059.1 134.1
1192(18) 0.002970 1059.7 124.0
1166(18) 0.003186 1060.4 115.0
1151(18) 0.002993 1061.0 106.9
1141(19) 0.002897 1061.6 99.7
1173(19) 0.002911 1062.3 93.1
1151(18) 0.003150 1062.9 87.2
1144(18) 0.003254 1063.6 81.8
1140(18) 0.003017 1064.2 76.9
1093(18) 0.003072 1064.9 72.4
1086(18) 0.003239 1065.5 68.3
1134(18) 0.003164 1066.2 64.5
1144(18) 0.003244 1066.8 61.1
1154(18) 0.003021 1067.4 57.9
1115(18) 0.002968 1068.1 54.9
1139(18) 0.003059 1068.7 52.2
1143(18) 0.003188 1069.4 49.6
1116(17) 0.003317 1070.0 47.3
1126(18) 0.003083 1070.7 45.1
1110(18) 0.002931 1071.3 43.0
1140(18) 0.002968 1072.0 41.1
1103(17) 0.003339 1072.6 39.3
1159(18) 0.003205 1073.2 37.7
1188(18) 0.002924 1073.9 36.1
1134(19) 0.002824 1074.5 34.6
1125(18) 0.003071 1075.2 33.2
1084(17) 0.003441 1075.8 31.9
1113(18) 0.003261 1076.5 30.7
1123(18) 0.003097 1077.1 29.5
1115(18) 0.002929 1077.8 28.4
1095(18) 0.003188 1078.4 27.4
1134(17) 0.003277 1079.0 26.4
1128(18) 0.003248 1079.7 25.5
1117(18) 0.003099 1080.3 24.6
1121(18) 0.002938 1081.0 23.8
1153(18) 0.002979 1081.6 23.0
1133(17) 0.003282 1082.3 22.2
1123(17) 0.003271 1082.9 21.5
1115(18) 0.003126 1083.6 20.8
1145(19) 0.002896 1084.2 20.2
1100(18) 0.003157 1084.8 19.6
1102(17) 0.003370 1085.5 19.0
1115(18) 0.003229 1086.1 18.4
1123(18) 0.003038 1086.8 17.9
1100(18) 0.003076 1087.4 17.4
1131(18) 0.003061 1088.1 16.9
1114(17) 0.003342 1088.7 16.4
1118(18) 0.003260 1089.4 16.0
1167(19) 0.002919 1090.0 15.5
1124(18) 0.003055 1090.6 15.1
1118(18) 0.003189 1091.3 14.7
1137(17) 0.003290 1091.9 14.3
1104(18) 0.003189 1092.6 14.0
1116(18) 0.003029 1093.2 13.6
1101(18) 0.003112 1093.9 13.3
1101(18) 0.003259 1094.5 12.9
1134(18) 0.003265 1095.2 12.6
1159(18) 0.002998 1095.8 12.3
1123(18) 0.003039 1096.4 12.0
1115(18) 0.003099 1097.1 11.7
1085(17) 0.003302 1097.7 11.5
1078(17) 0.003450 1098.4 11.2
1102(18) 0.003115 1099.0 11.0
1096(18) 0.003062 1099.7 10.7
1086(18) 0.003183 1100.3 10.5
1090(17) 0.003359 1101.0 10.3
1152(18) 0.003203 1101.6 10.0
1125(18) 0.003101 1102.3 9.8
1125(18) 0.002947 1102.9 9.6
1141(18) 0.003068 1103.5 9.4
1160(18) 0.003143 1104.2 9.2
1111(17) 0.003343 1104.8 9.1
1142(18) 0.003080 1105.5 8.9
1125(19) 0.002893 1106.1 8.7
1119(18) 0.003124 1106.8 8.5
1066(17) 0.003492 1107.4 8.4
1116(17) 0.003334 1108.1 8.2
1124(18) 0.003055 1108.7 8.1
1106(18) 0.002973 1109.3 7.9
1108(18) 0.003091 1110.0 7.8
1134(18) 0.003261 1110.6 7.6
1126(18) 0.003257 1111.3 7.5
1120(18) 0.003113 1111.9 7.4
1087(18) 0.003045 1112.6 7.2
1092(18) 0.003185 1113.2 7.1
1157(18) 0.003219 1113.9 7.0
1129(18) 0.003168 1114.5 6.9
1113(18) 0.003108 1115.1 6.8
1159(19) 0.002889 1115.8 6.7
1130(18) 0.003041 1116.4 6.6
1118(17) 0.003305 1117.1 6.5
1118(18) 0.003203 1117.7 6.4
1166(18) 0.002931 1118.4 6.3
1109(18) 0.002974 1119.0 6.2
1135(18) 0.003047 1119.7 6.1
1093(17) 0.003411 1120.3 6.0
1104(18) 0.003214 1120.9 5.9
1185(19) 0.002881 1121.6 5.8
1142(18) 0.002975 1122.2 5.7
1099(18) 0.003264 1122.9 5.7
1128(17) 0.003306 1123.5 5.6
1106(18) 0.003148 1124.2 5.5
1157(19) 0.002908 1124.8 5.4
1131(18) 0.003005 1125.5 5.4
1191(18) 0.002951 1126.1 5.3
1159(18) 0.003199 1126.7 5.2
1081(17) 0.003266 1127.4 5.2
1111(18) 0.003041 1128.0 5.1
1136(18) 0.003044 1128.7 5.1
1157(18) 0.003141 1129.3 5.0
1156(18) 0.003201 1130.0 5.0
1140(18) 0.003049 1130.6 4.9
1111(18) 0.002974 1131.3 4.9
1111(18) 0.003150 1131.7 4.8
1181(18) 0.003078 1131.8 4.8
1191(18) 0.003115 1132.0 4.7
1149(18) 0.003016 1132.2 4.7
1179(19) 0.002732 1132.4 4.6
1104(18) 0.003142 1132.6 4.6
1107(17) 0.003305 1132.7 4.5
1206(18) 0.003087 1132.9 4.5
1122(18) 0.003109 1133.1 4.5
1115(18) 0.002925 1133.3 4.4
1152(18) 0.003027 1133.5 4.4
1129(17) 0.003266 1133.6 4.4
1125(17) 0.003298 1133.8 4.4
1156(18) 0.002996 1134.0 4.3
1131(19) 0.002855 1134.2 4.3
1147(18) 0.003049 1134.4 4.3
1159(18) 0.003201 1134.5 4.3
1203(18) 0.003101 1134.7 4.2
1154(18) 0.003006 1134.9 4.2
1120(18) 0.002956 1135.1 4.2
1148(18) 0.003042 1135.3 4.2
1151(18) 0.003217 1135.4 4.2
1141(18) 0.003197 1135.6 4.2
1228(19) 0.002775 1135.8 4.2
1171(19) 0.002788 1136.0 4.2
1186(19) 0.002819 1136.2 4.2
1129(17) 0.003284 1136.3 4.2
1156(18) 0.003143 1136.5 4.2
1170(18) 0.002953 1136.7 4.2
1145(18) 0.002964 1136.9 4.2
1153(18) 0.003002 1137.1 4.2
1129(17) 0.003300 1137.2 4.3
1144(18) 0.003085 1137.4 4.3
1133(18) 0.003017 1137.6 4.3
1137(18) 0.002995 1137.8 4.3
1163(18) 0.003026 1138.0 4.4
1163(18) 0.003202 1138.1 4.4
1146(18) 0.003051 1138.3 4.5
1124(18) 0.002975 1138.5 4.5
1127(18) 0.003017 1138.7 4.6
1158(18) 0.003025 1138.9 4.6
1157(18) 0.003215 1139.0 4.7
1159(18) 0.003047 1139.2 4.8
1128(18) 0.003018 1139.4 4.8
1133(18) 0.003082 1139.6 4.9
1203(18) 0.002996 1139.8 5.0
1171(18) 0.003157 1139.9 5.1
1134(18) 0.003018 1140.1 5.3
1155(18) 0.002923 1140.3 5.4
1211(19) 0.002880 1140.5 5.6
1184(18) 0.003064 1140.7 5.7
1162(18) 0.003204 1140.8 5.9
1149(18) 0.003071 1141.0 6.1
1174(19) 0.002823 1141.2 6.3
1150(18) 0.003012 1141.4 6.6
1169(18) 0.003086 1141.6 6.8
1128(17) 0.003324 1141.7 7.1
1188(19) 0.002893 1141.9 7.5
1159(19) 0.002833 1142.1 7.9
1187(18) 0.002928 1142.3 8.3
1161(18) 0.003194 1142.5 8.8
1173(18) 0.003141 1142.6 9.3
1172(18) 0.002959 1142.8 10.0
1182(19) 0.002717 1143.0 10.7
1187(19) 0.002919 1143.2 11.6
1196(18) 0.003098 1143.4 12.7
1195(18) 0.003068 1143.5 13.9
1206(19) 0.002896 1143.7 15.4
1147(19) 0.002783 1143.9 17.2
1133(18) 0.003049 1144.1 19.4
1183(18) 0.003124 1144.3 22.1
1199(18) 0.003102 1144.4 25.2
1191(19) 0.002911 1144.6 29.0
1220(19) 0.002655 1144.8 33.4
1176(18) 0.002982 1145.0 38.5
1166(18) 0.003174 1145.2 44.3
1186(18) 0.003063 1145.3 50.8
1216(19) 0.002798 1145.5 58.0
1211(19) 0.002780 1145.7 65.6
1286(19) 0.002650 1145.9 73.2
1247(18) 0.002969 1146.1 80.5
1275(19) 0.002774 1146.2 86.7
1300(20) 0.002614 1146.4 91.1
1303(20) 0.002582 1146.6 92.9
1306(20) 0.002605 1146.8 92.0
1234(18) 0.003030 1147.0 88.4
1287(19) 0.002785 1147.1 82.8
1296(19) 0.002635 1147.3 75.8
1243(19) 0.002738 1147.5 68.2
1250(19) 0.002850 1147.7 60.5
1206(18) 0.003098 1147.9 53.1
1195(19) 0.002880 1148.0 46.4
1204(19) 0.002749 1148.2 40.3
1203(19) 0.002863 1148.4 34.9
1196(18) 0.003000 1148.6 30.3
1213(18) 0.003058 1148.8 26.3
1176(19) 0.002863 1148.9 22.9
1182(19) 0.002755 1149.1 20.1
1229(19) 0.002776 1149.3 16.3
1205(18) 0.003009 1149.5 14.4
1211(18) 0.003088 1149.7 12.8
1170(18) 0.002937 1149.8 11.5
1248(20) 0.002574 1150.0 10.4
1181(18) 0.002970 1150.2 9.5
1194(18) 0.003023 1150.4 8.7
1174(18) 0.003151 1150.6 8.0
1216(19) 0.002816 1150.8 7.5
1191(19) 0.002789 1150.9 7.0
1168(18) 0.003029 1151.1 6.6
1173(18) 0.003152 1151.3 6.3
1169(18) 0.003136 1151.5 6.0
1182(18) 0.002941 1151.6 5.7
1139(19) 0.002864 1151.8 5.5
1159(18) 0.002968 1152.0 5.3
1147(18) 0.003220 1152.2 5.2
1157(18) 0.003158 1152.4 5.1
1176(18) 0.002993 1152.5 5.0
1200(19) 0.002701 1152.7 4.9
1202(19) 0.002859 1152.9 4.8
1186(18) 0.003128 1153.1 4.8
1173(18) 0.003126 1153.3 4.7
1162(18) 0.003006 1153.4 4.6
1216(19) 0.002665 1153.6 4.6
1175(18) 0.002931 1153.8 4.5
1191(18) 0.003080 1154.0 4.4
1166(18) 0.003124 1154.2 4.3
1199(19) 0.002880 1154.3 4.2
1226(19) 0.002689 1154.5 4.1
1174(19) 0.002908 1154.7 3.9
1182(18) 0.003128 1154.9 3.8
1232(19) 0.002887 1155.1 3.6
1153(18) 0.002983 1155.3 3.4
1195(19) 0.002871 1155.4 3.2
1206(19) 0.002910 1155.6 3.1
1187(18) 0.003146 1155.8 2.9
1229(19) 0.002851 1156.0 2.7
1172(19) 0.002916 1156.1 2.6
1140(18) 0.003056 1156.3 2.4
1160(18) 0.003070 1156.5 2.3
1196(18) 0.003120 1156.7 2.2
1180(18) 0.002960 1156.9 2.0
1151(18) 0.003000 1157.0 1.9
1214(19) 0.002751 1157.2 1.8
1152(18) 0.003119 1157.4 1.7
1196(18) 0.003103 1157.6 1.6
1182(18) 0.002923 1157.8 1.6
1182(19) 0.002835 1157.9 1.5
1156(18) 0.003017 1158.1 1.4
1111(17) 0.003294 1158.3 1.3
1177(18) 0.003179 1158.5 1.3
1213(19) 0.002819 1158.7 1.2
1184(19) 0.002825 1158.8 1.2
1210(19) 0.002861 1159.0 1.1
1177(18) 0.003114 1159.2 1.1
1179(18) 0.003150 1159.4 1.1
1187(18) 0.002963 1159.6 1.0
1195(19) 0.002797 1159.8 1.0
1154(18) 0.003017 1159.9 0.9
1122(17) 0.003302 1160.1 0.9
1147(18) 0.003261 1160.3 0.9
1192(19) 0.002914 1160.5 0.9
1164(19) 0.002756 1160.7 0.8
1119(18) 0.003110 1160.8 0.8
1149(18) 0.003265 1161.0 0.8
1168(18) 0.003148 1161.2 0.8
1141(18) 0.003119 1161.4 0.7
1181(19) 0.002696 1161.5 0.7
1160(18) 0.002978 1161.7 0.7
1164(18) 0.003203 1161.9 0.7
1167(18) 0.003167 1162.1 0.7
1183(19) 0.002899 1162.3 0.6
1176(19) 0.002793 1162.4 0.6
1187(18) 0.002933 1162.6 0.6
1176(18) 0.003167 1162.8 0.6
1138(18) 0.003213 1163.0 0.6
1164(18) 0.003029 1163.2 0.6
1220(19) 0.002716 1163.3 0.6
1154(18) 0.002995 1163.5 0.5
1190(18) 0.003123 1163.7 0.5
1203(18) 0.003001 1163.9 0.5
1210(19) 0.002861 1164.1 0.5
1178(19) 0.002913 1164.3 0.5
1200(19) 0.002903 1164.4 0.5
1129(17) 0.003282 1164.6 0.5
1217(19) 0.002882 1164.8 0.5
1151(18) 0.003022 1165.0 0.5
1200(19) 0.002793 1165.2 0.4
1165(18) 0.003040 1165.3 0.4
1164(18) 0.003194 1165.5 0.4
1227(19) 0.002832 1165.7 0.4
1175(19) 0.002917 1165.9 0.4
1165(18) 0.002978 1165.6 0.4
1178(18) 0.003097 1165.3 0.4
1203(18) 0.003075 1165.0 0.4
1183(18) 0.002995 1164.7 0.4
1147(18) 0.002964 1164.4 0.4
1166(18) 0.002959 1164.1 0.4
1164(18) 0.003107 1163.8 0.4
1157(18) 0.003202 1163.4 0.3
1185(19) 0.002907 1163.1 0.3
1163(19) 0.002894 1162.8 0.3
1152(18) 0.003044 1162.5 0.3
1155(18) 0.003135 1162.2 0.3
1148(18) 0.003228 1161.9 0.3
1197(19) 0.002874 1161.6 0.3
1177(19) 0.002807 1161.2 0.3
1188(18) 0.002924 1160.9 0.3
1239(18) 0.002969 1160.6 0.3
1167(18) 0.003187 1160.3 0.3
1168(18) 0.002969 1160.0 0.3
1159(19) 0.002804 1159.7 0.3
1142(18) 0.003080 1159.4 0.3
1166(18) 0.003214 1159.0 0.3
1208(18) 0.003064 1158.7 0.3
1200(19) 0.002912 1158.4 0.3
1188(19) 0.002690 1158.1 0.3
1157(18) 0.003056 1157.8 0.3
1183(18) 0.003127 1157.5 0.3
1156(18) 0.003216 1157.2 0.2
1161(18) 0.002987 1156.9 0.2
1102(18) 0.003020 1156.5 0.2
1161(18) 0.002997 1156.2 0.2
1111(17) 0.003327 1155.9 0.2
1170(18) 0.003143 1155.6 0.2
1197(19) 0.002881 1155.3 0.2
1208(19) 0.002725 1155.0 0.2
1194(19) 0.002850 1154.7 0.2
1175(18) 0.003156 1154.3 0.2
1187(18) 0.003034 1154.0 0.2
1120(18) 0.003118 1153.7 0.2
1137(18) 0.002963 1153.4 0.2
1159(18) 0.002979 1153.1 0.2
1138(18) 0.003256 1152.8 0.2
1204(18) 0.002946 1152.5 0.2
1206(19) 0.002845 1152.1 0.2
1202(19) 0.002819 1151.8 0.2
1215(19) 0.002820 1151.5 0.2
1149(18) 0.003263 1151.2 0.2
1171(18) 0.003023 1150.9 0.2
1200(19) 0.002794 1150.6 0.2
1191(19) 0.002839 1150.3 0.2
1176(18) 0.002999 1149.9 0.2
1222(18) 0.003034 1149.6 0.2
1172(18) 0.002983 1149.3 0.2
1170(19) 0.002913 1149.0 0.2
1176(18) 0.002934 1148.7 0.2
1184(18) 0.003082 1148.4 0.2
1195(18) 0.003101 1148.1 0.2
1175(18) 0.002928 1147.8 0.2
1164(19) 0.002900 1147.4 0.2
1174(18) 0.002973 1147.1 0.2
1160(18) 0.003106 1146.8 0.2
1142(18) 0.003258 1146.5 0.2
1179(18) 0.002938 1146.2 0.2
1156(19) 0.002880 1145.9 0.2
1158(18) 0.003050 1145.6 0.1
1179(18) 0.003141 1145.2 0.1
1181(18) 0.003143 1144.9 0.1
1196(18) 0.002960 1144.6 0.1
1161(19) 0.002791 1144.3 0.1
1123(18) 0.003104 1144.0 0.1
1157(18) 0.003219 1143.7 0.1
1167(18) 0.003193 1143.4 0.1
1188(18) 0.002996 1143.0 0.1
1198(19) 0.002691 1142.7 0.1
1184(18) 0.002931 1142.4 0.1
1201(18) 0.003118 1142.1 0.1
1190(18) 0.003092 1141.8 0.1
1191(18) 0.002926 1141.5 0.1
1161(19) 0.002835 1141.2 0.1
1230(19) 0.002798 1140.8 0.1
1165(18) 0.003194 1140.5 0.1
1114(17) 0.003285 1140.2 0.1
1126(18) 0.003073 1139.9 0.1
1139(19) 0.002918 1139.6 0.1
1186(19) 0.002857 1139.3 0.1
1144(18) 0.003235 1139.0 0.1
1157(18) 0.003153 1138.7 0.1
1167(18) 0.003002 1138.3 0.1
1166(19) 0.002914 1138.0 0.1
1154(18) 0.003004 1137.7 0.1
1180(18) 0.003144 1137.4 0.1
1133(18) 0.003245 1137.1 0.1
1159(18) 0.002995 1136.8 0.1
1103(18) 0.003055 1136.5 0.1
1192(19) 0.002903 1136.1 0.1
1159(18) 0.003221 1135.8 0.1
1186(18) 0.003020 1135.5 0.1
1178(19) 0.002894 1135.2 0.1
1158(18) 0.002940 1134.9 0.1
1191(18) 0.002961 1134.6 0.1
1186(18) 0.003150 1134.3 0.1
1179(18) 0.002924 1133.9 0.1
1152(18) 0.002967 1133.6 0.1
1149(18) 0.003017 1133.3 0.1
1219(19) 0.002922 1133.0 0.1
1215(18) 0.003058 1132.7 0.1
1171(18) 0.002982 1132.4 0.1
1177(19) 0.002795 1132.1 0.1
1154(18) 0.002982 1131.7 0.1
1187(18) 0.003042 1131.4 0.1
1187(18) 0.003141 1131.1 0.1
1175(18) 0.002935 1130.8 0.1
1156(19) 0.002807 1130.5 0.1
1160(18) 0.002976 1130.2 0.1
1162(18) 0.003181 1129.9 0.1
1190(18) 0.003119 1129.6 0.1
1195(19) 0.002906 1129.2 0.1
1145(19) 0.002815 1128.9 0.1
1158(18) 0.002985 1128.6 0.1
1122(17) 0.003295 1128.3 0.1
1212(18) 0.003084 1128.0 0.1
1242(19) 0.002753 1127.7 0.1
1189(19) 0.002632 1127.4 0.1
1143(18) 0.003037 1127.0 0.1
1137(18) 0.003237 1126.7 0.1
1158(18) 0.003187 1126.4 0.1
1175(19) 0.002900 1126.1 0.1
1188(19) 0.002681 1125.8 0.1
1144(18) 0.003043 1125.5 0.1
1179(18) 0.003148 1125.2 0.1
1159(18) 0.003201 1124.8 0.1
1136(18) 0.003128 1124.5 0.1
1128(19) 0.002915 1124.2 0.1
1170(19) 0.002914 1123.9 0.1
1185(18) 0.003151 1123.6 0.1
1152(18) 0.003184 1123.3 0.1
1137(18) 0.003070 1123.0 0.1
1134(18) 0.002968 1122.6 0.1
1134(18) 0.003046 1122.3 0.1
1143(18) 0.003246 1122.0 0.1
1187(18) 0.003018 1121.7 0.1
1158(18) 0.002938 1121.4 0.1
1132(18) 0.002989 1121.1 0.1
1164(18) 0.002968 1120.8 0.1
1196(18) 0.003119 1120.5 0.1
1160(18) 0.003078 1120.1 0.1
1187(18) 0.002950 1119.8 0.1
1166(18) 0.002937 1119.5 0.1
1150(18) 0.003020 1119.2 0.1
1129(17) 0.003311 1118.9 0.1
1144(18) 0.003070 1118.6 0.1
1164(19) 0.002897 1118.3 0.1
1146(18) 0.002998 1117.9 0.1
1121(18) 0.003210 1117.6 0.1
1114(17) 0.003345 1117.3 0.1
1114(18) 0.003156 1117.0 0.1
1150(19) 0.002917 1116.7 0.1
1117(18) 0.003135 1116.4 0.1
1126(18) 0.003252 1116.1 0.1
1125(17) 0.003295 1115.7 0.1
1171(18) 0.002932 1115.4 0.1
1136(19) 0.002883 1115.1 0.1
1190(19) 0.002852 1114.8 0.1
1150(18) 0.003208 1114.5 0.1
1129(17) 0.003296 1114.2 0.1
1154(18) 0.003032 1113.9 0.1
1172(19) 0.002763 1113.5 0.1
1146(18) 0.002988 1113.2 0.1
1143(18) 0.003184 1112.9 0.1
1150(18) 0.003242 1112.6 0.1
1148(18) 0.003063 1112.3 0.1
1141(19) 0.002800 1112.0 0.1
1112(18) 0.003129 1111.7 0.1
1160(18) 0.003210 1111.4 0.1
1139(18) 0.003219 1111.0 0.1
1087(18) 0.003223 1110.7 0.1
1116(19) 0.002868 1110.4 0.1
1117(18) 0.003109 1110.1 0.1
1140(18) 0.003258 1109.8 0.1
1164(18) 0.003166 1109.5 0.1
1127(18) 0.003066 1109.2 0.1
1094(18) 0.003040 1108.8 0.1
1172(19) 0.002859 1108.5 0.1
1117(17) 0.003331 1108.2 0.1
1166(18) 0.003152 1107.9 0.1
1181(19) 0.002878 1107.6 0.1
1139(19) 0.002900 1107.3 0.1
1128(18) 0.003076 1107.0 0.1
1127(17) 0.003301 1106.6 0.1
1131(18) 0.003190 1106.3 0.1
1115(18) 0.003122 1106.0 0.1
1103(18) 0.003044 1105.7 0.1
1125(18) 0.003059 1105.4 0.1
1102(17) 0.003364 1105.1 0.1
1121(18) 0.003181 1104.8 0.1
1154(18) 0.002999 1104.5 0.1
1147(18) 0.003026 1104.1 0.1
1103(18) 0.003208 1103.8 0.1
1142(18) 0.003257 1103.5 0.1
1073(17) 0.003315 1103.2 0.1
1100(18) 0.003052 1102.9 0.1
1084(18) 0.003102 1102.6 0.1
1094(17) 0.003280 1102.3 0.1
1136(17) 0.003266 1101.9 0.1
1156(18) 0.002994 1101.6 0.1
1141(18) 0.002956 1101.3 0.1
1130(18) 0.003073 1101.0 0.1
1102(17) 0.003311 1100.7 0.1
1118(17) 0.003332 1100.4 0.1
1114(18) 0.003063 1100.1 0.1
1102(18) 0.003041 1099.7 0.1
1117(18) 0.003068 1099.4 0.1
1119(18) 0.003251 1099.1 0.1
1114(17) 0.003346 1098.8 0.1
1122(18) 0.003048 1098.5 0.1
1101(18) 0.002978 1098.2 0.1
1085(18) 0.003184 1097.9 0.1
1148(18) 0.003164 1097.5 0.1
1107(17) 0.003355 1097.2 0.1
1125(18) 0.003054 1096.9 0.1
1108(19) 0.002919 1096.6 0.1
1096(18) 0.003153 1096.3 0.1
1111(17) 0.003325 1096.0 0.1
1133(17) 0.003296 1095.7 0.1
1123(18) 0.003147 1095.4 0.1
1155(19) 0.002799 1095.0 0.1
1077(17) 0.003291 1094.7 0.1
1051(17) 0.00356 1094.4 0.1
1081(17) 0.003399 1094.1 0.1
1088(18) 0.003202 1093.8 0.1
1094(18) 0.002977 1093.5 0.1
1149(18) 0.003022 1093.2 0.1
1109(17) 0.003354 1092.8 0.1
1077(17) 0.003411 1092.5 0.1
1091(18) 0.003219 1092.2 0.1
1101(18) 0.003052 1091.9 0.1
1124(18) 0.003119 1091.6 0.1
1145(18) 0.003254 1091.3 0.1
1120(18) 0.003265 1091.0 0.1
1161(18) 0.002935 1090.6 0.1
1098(18) 0.003097 1090.3 0.1
1086(18) 0.003148 1090.0 0.1
1121(17) 0.003317 1089.7 0.1
1064(17) 0.003421 1089.4 0.1
1100(18) 0.003157 1089.1 0.1
1098(18) 0.003036 1088.8 0.1
1098(18) 0.003064 1088.4 0.1
1126(17) 0.003313 1088.1 0.1
1111(18) 0.003139 1087.8 0.1
1109(18) 0.003097 1087.5 0.1
1098(18) 0.003129 1087.2 0.1
1102(18) 0.003199 1086.9 0.1
1131(17) 0.003301 1086.6 0.1
1153(18) 0.003004 1086.3 0.1
1095(18) 0.003161 1085.9 0.1
1123(18) 0.003098 1085.6 0.1
1101(17) 0.003271 1085.3 0.1
1061(17) 0.003498 1085.0 0.1
1118(18) 0.003094 1084.7 0.1
1029(17) 0.003277 1084.4 0.1
1075(18) 0.003256 1084.1 0.1
1087(17) 0.003384 1083.7 0.1
1084(17) 0.003437 1083.4 0.1
1101(18) 0.003168 1083.1 0.1
1098(18) 0.003007 1082.8 0.1
1115(18) 0.003117 1082.5 0.1
1084(17) 0.003379 1082.2 0.1
1076(17) 0.003466 1081.9 0.1
1119(18) 0.003135 1081.5 0.1
1065(18) 0.003036 1081.2 0.1
1096(18) 0.003091 1080.9 0.1
1058(17) 0.003506 1080.6 0.1
1106(17) 0.003366 1080.0 0.1
1075(17) 0.003284 1079.3 0.1
1078(18) 0.002985 1078.7 0.1
1119(18) 0.003125 1078.0 0.1
1060(17) 0.00352 1077.3 0.1
1058(17) 0.003499 1076.7 0.1
1071(18) 0.003207 1076.0 0.1
1036(18) 0.003164 1075.4 0.1
1049(17) 0.003286 1074.7 0.1
1061(17) 0.00352 1074.0 0.1
1032(17) 0.00356 1073.4 0.1
1072(18) 0.003262 1072.7 0.1
1050(18) 0.003214 1072.0 0.1
1066(18) 0.003254 1071.4 0.1
1063(17) 0.003501 1070.7 0.1
1099(17) 0.003308 1070.0 0.1
1060(17) 0.003322 1069.4 0.1
1034(17) 0.003294 1068.7 0.1
1078(18) 0.003194 1068.1 0.1
1066(17) 0.003475 1067.4 0.1
1059(17) 0.003391 1066.7 0.1
1083(18) 0.003139 1066.1 0.1
1046(17) 0.003312 1065.4 0.1
1067(17) 0.003293 1064.7 0.1
1067(17) 0.003476 1064.1 0.1
1048(17) 0.003408 1063.4 0.1
1057(17) 0.003282 1062.7 0.1
1060(17) 0.003307 1062.1 0.1
1092(18) 0.003224 1061.4 0.1
1071(17) 0.003482 1060.8 0.1
1090(18) 0.003191 1060.1 0.1
1067(18) 0.003172 1059.4 0.1
1073(18) 0.003203 1058.8 0.1
1049(17) 0.003393 1058.1 0.1
1053(17) 0.00352 1057.4 0.1
1067(18) 0.003225 1056.8 0.1
1044(18) 0.003183 1056.1 0.1
1000(17) 0.003472 1055.4 0.1
1042(17) 0.003462 1054.8 0.1
1070(17) 0.003479 1054.1 0.1
1066(17) 0.003326 1053.4 0.1
1043(18) 0.003247 1052.8 0.1
1052(17) 0.003368 1052.1 0.1
1056(17) 0.003485 1051.5 0.1
1053(17) 0.00353 1050.8 0.1
1053(17) 0.003281 1050.1 0.1
1042(18) 0.003143 1049.5 0.1
1066(18) 0.003198 1048.8 0.1
1043(17) 0.003486 1048.1 0.1
1047(17) 0.00353 1047.5 0.1
1057(17) 0.003293 1046.8 0.1
1060(18) 0.003052 1046.1 0.1
1062(17) 0.003265 1045.5 0.1
1032(17) 0.00362 1044.8 0.1
1071(17) 0.003468 1044.2 0.1
1051(17) 0.003354 1043.5 0.1
1085(18) 0.002975 1042.8 0.1
1044(17) 0.003277 1042.2 0.1
1033(17) 0.00356 1041.5 0.1
1063(17) 0.003425 1040.8 0.1
1059(18) 0.003235 1040.2 0.1
1039(18) 0.003177 1039.5 0.1
1059(17) 0.003297 1038.8 0.1
1057(17) 0.003492 1038.2 0.1
1039(17) 0.003505 1037.5 0.1
1021(17) 0.003496 1036.9 0.1
1038(18) 0.003265 1036.2 0.1
1074(18) 0.003178 1035.5 0.1
1057(17) 0.00353 1034.9 0.1
1045(17) 0.003455 1034.2 0.1
1026(17) 0.003387 1033.5 0.1
1058(18) 0.003154 1032.9 0.1
1060(17) 0.003283 1032.2 0.1
1009(16) 0.00371 1031.5 0.1
993(17) 0.00358 1030.9 0.1
994(17) 0.003485 1030.2 0.1
1025(17) 0.003357 1029.6 0.1
1033(17) 0.003441 1028.9 0.1
1044(17) 0.00357 1028.2 0.1
1040(17) 0.003375 1027.6 0.1
1032(17) 0.003287 1026.9 0.1
1028(17) 0.003403 1026.2 0.1
1010(17) 0.00361 1025.6 0.1
1067(17) 0.003469 1024.9 0.1
1045(17) 0.003311 1024.2 0.1
1056(18) 0.003150 1023.6 0.1
1014(17) 0.003324 1022.9 0.1
999(17) 0.00361 1022.3 0.1
1026(17) 0.00360 1021.6 0.1
1052(17) 0.003291 1020.9 0.1
1002(17) 0.003348 1020.3 0.1
1062(18) 0.003235 1019.6 0.1
1028(17) 0.00355 1018.9 0.1
1004(16) 0.00371 1018.3 0.1
1016(17) 0.003378 1017.6 0.1
1022(17) 0.003273 1016.9 0.1
1023(17) 0.003447 1016.3 0.1
1003(17) 0.00365 1015.6 0.1
1004(17) 0.00367 1015.0 0.1
1032(17) 0.003422 1014.3 0.1
1008(18) 0.003253 1013.6 0.1
1022(17) 0.003425 1013.0 0.1
1013(17) 0.00366 1012.3 0.1
994(16) 0.00368 1011.6 0.1
1018(17) 0.003394 1011.0 0.1
1013(18) 0.003207 1010.3 0.1
1023(17) 0.003386 1009.6 0.1
993(16) 0.00372 1009.0 0.1
990(16) 0.00375 1008.3 0.1
1044(17) 0.003351 1007.7 0.1
1047(18) 0.003155 1007.0 0.1
1018(17) 0.003459 1006.3 0.1
1050(17) 0.00355 1005.7 0.1
1036(17) 0.003492 1005.0 0.1
1018(17) 0.003458 1004.3 0.1
1032(18) 0.003265 1003.7 0.2
998(17) 0.003498 1003.0 0.2
947(16) 0.00394 1002.3 0.2
977(16) 0.00368 1001.7 0.2
990(17) 0.00356 1001.0 0.2
1014(17) 0.003303 1000.4 0.2
976(17) 0.00363 999.7 0.2
1026(17) 0.00361 999.0 0.2
974(16) 0.00373 998.4 0.2
1053(18) 0.003202 997.7 0.2
1003(17) 0.003395 997.0 0.2
971(17) 0.00364 996.4 0.2
970(16) 0.00386 995.7 0.2
1019(17) 0.003430 995.0 0.2
990(17) 0.003446 994.4 0.2
977(17) 0.003489 993.7 0.2
1008(17) 0.00353 993.1 0.2
998(16) 0.00373 992.4 0.2
986(17) 0.003505 991.7 0.2
948(17) 0.00359 991.1 0.2
1000(17) 0.003360 990.4 0.2
1000(17) 0.00358 989.7 0.2
1027(17) 0.00363 989.1 0.2
1008(17) 0.003420 988.4 0.2
981(17) 0.003420 987.7 0.2
1010(17) 0.003420 987.1 0.2
968(16) 0.00379 986.4 0.2
986(16) 0.00380 985.8 0.2
957(17) 0.00358 985.1 0.2
966(17) 0.003458 984.4 0.2
974(17) 0.003485 983.8 0.3
999(17) 0.00367 983.1 0.3
1013(17) 0.00366 982.4 0.3
1019(17) 0.003425 981.8 0.3
994(17) 0.003332 981.1 0.3
1036(17) 0.003341 980.4 0.3
992(16) 0.00373 979.8 0.3
968(16) 0.00384 979.1 0.3
1004(17) 0.00352 978.5 0.3
1026(18) 0.003126 977.8 0.3
952(16) 0.00374 977.1 0.3
994(16) 0.00377 976.5 0.3
962(16) 0.00385 975.8 0.3
956(17) 0.00367 975.1 0.3
958(17) 0.003430 974.5 0.3
982(17) 0.00351 973.8 0.3
960(16) 0.00388 973.1 0.4
983(16) 0.00372 972.5 0.4
976(17) 0.00360 971.8 0.4
1014(18) 0.003228 971.2 0.4
979(17) 0.00355 970.5 0.4
989(16) 0.00376 969.8 0.4
969(16) 0.00368 969.2 0.4
917(16) 0.00382 968.5 0.4
961(17) 0.00355 967.8 0.4
1014(17) 0.003414 967.2 0.4
976(16) 0.00380 966.5 0.4
934(16) 0.00392 965.8 0.5
1003(17) 0.003442 965.2 0.5
1020(17) 0.003327 964.5 0.5
997(17) 0.00351 963.9 0.5
954(16) 0.00395 963.2 0.5
988(17) 0.00357 962.5 0.5
959(17) 0.00355 961.9 0.5
1015(17) 0.003283 961.2 0.6
968(17) 0.00365 960.6 0.6
984(16) 0.00378 960.0 0.6
986(17) 0.00355 959.5 0.6
950(17) 0.00356 958.9 0.6
951(17) 0.00363 958.3 0.6
981(17) 0.00363 957.7 0.7
931(16) 0.00401 957.1 0.7
960(17) 0.003472 956.5 0.7
956(17) 0.003485 955.9 0.7
1020(17) 0.003341 955.4 0.8
1007(17) 0.00360 954.8 0.8
1000(16) 0.00373 954.2 0.8
1020(17) 0.003442 953.6 0.8
944(17) 0.00356 953.0 0.9
951(17) 0.00361 952.4 0.9
934(16) 0.00388 951.8 0.9
906(16) 0.00412 951.2 1.0
946(17) 0.00367 950.7 1.0
953(17) 0.003425 950.1 1.0
981(17) 0.003480 949.5 1.1
959(16) 0.00382 948.9 1.1
966(16) 0.00383 948.3 1.2
920(16) 0.00387 947.7 1.2
935(17) 0.003459 947.1 1.3
964(17) 0.00360 946.6 1.3
976(16) 0.00375 946.0 1.4
971(16) 0.00379 945.4 1.5
947(16) 0.00368 944.8 1.5
981(17) 0.003303 944.2 1.6
974(17) 0.00354 943.6 1.7
917(16) 0.00405 943.0 4.0
922(16) 0.00398 942.5 4.2
949(16) 0.00368 941.9 4.3
950(17) 0.003494 941.3 4.5
912(16) 0.00384 940.7 4.7
934(16) 0.00399 940.1 4.9
914(16) 0.00393 939.5 5.1
952(17) 0.00357 938.9 5.3
976(17) 0.003287 938.4 5.5
953(17) 0.00356 937.8 5.8
965(16) 0.00383 937.2 6.1
934(16) 0.00385 936.6 6.4
958(17) 0.00363 936.0 6.7
975(17) 0.003411 935.4 7.1
944(17) 0.00361 934.8 7.5
953(16) 0.00390 934.3 8.0
917(16) 0.00394 933.7 8.5
949(17) 0.00357 933.1 9.1
929(16) 0.00369 932.5 9.7
1004(17) 0.003469 931.9 10.4
953(16) 0.00391 931.3 11.1
955(17) 0.00367 930.7 12.0
1000(17) 0.003338 930.1 12.9
966(17) 0.003477 929.6 13.9
991(17) 0.00361 929.0 15.0
969(16) 0.00385 928.4 16.2
940(17) 0.00365 927.8 17.4
904(16) 0.00373 927.2 18.8
943(17) 0.00364 926.6 20.2
986(17) 0.00363 926.0 21.7
961(16) 0.00386 925.5 23.2
892(16) 0.00386 924.9 24.8
950(17) 0.003425 924.3 26.3
1002(17) 0.003417 923.7 27.7
943(16) 0.00392 923.1 28.9
939(16) 0.00396 922.5 30.0
939(16) 0.00373 921.9 30.7
918(17) 0.00360 921.4 31.2
927(17) 0.00366 920.8 31.4
957(16) 0.00384 920.2 31.3
957(16) 0.00386 919.6 30.9
956(17) 0.00363 919.0 30.2
949(17) 0.003384 918.4 29.5
971(17) 0.00356 917.8 28.7
976(16) 0.00377 917.3 27.8
931(16) 0.00397 916.7 26.9
962(17) 0.00356 916.1 26.2
921(17) 0.00354 915.5 25.5
950(17) 0.00361 914.9 24.9
935(16) 0.00394 914.3 24.4
927(16) 0.00397 913.7 24.1
943(16) 0.00369 913.2 23.9
948(17) 0.003429 912.6 23.9
936(17) 0.00367 912.0 24.1
951(16) 0.00391 911.4 24.4
935(16) 0.00387 910.8 24.9
935(16) 0.00369 910.2 25.6
981(17) 0.003379 909.6 26.5
900(16) 0.00381 909.0 27.5
923(16) 0.00402 908.5 28.9
941(16) 0.00383 907.9 30.4
930(16) 0.00380 907.3 32.3
972(17) 0.003470 906.7 35.8
1000(17) 0.003414 906.1 38.3
927(16) 0.00403 905.5 41.3
905(16) 0.00387 904.9 44.8
934(17) 0.00365 904.4 48.8
1003(17) 0.003383 903.8 53.6
890(16) 0.00402 903.2 59.3
952(16) 0.00388 902.6 66.0
949(16) 0.00368 902.0 74.1
991(17) 0.003487 901.4 84.0
978(17) 0.00358 900.8 96.3
990(17) 0.00364 900.3 112.4
1032(17) 0.00361 899.7 134.6
1087(18) 0.003106 899.1 167.5
1102(18) 0.003098 898.5 218.7
1241(19) 0.002761 897.9 300.4
1363(20) 0.002623 897.3 429.1
1483(20) 0.002492 896.7 622.8
1753(23) 0.001975 896.2 894.7
1971(24) 0.001699 895.6 1244.8
2310(26) 0.001460 895.0 1648.8
2707(27) 0.001329 894.4 2047.2
3183(29) 0.001152 893.8 2337.8
3560(32) 0.000963 893.2 2407.0
3378(32) 0.000957 892.6 2222.1
2851(29) 0.001221 892.0 1865.6
2274(25) 0.001619 891.5 1454.3
1913(23) 0.001903 890.9 1070.6
1625(22) 0.002150 890.3 756.1
1385(21) 0.002377 889.7 522.0
1285(19) 0.002746 889.1 361.0
1236(18) 0.002950 888.5 256.6
1130(17) 0.003287 887.9 191.3
1096(18) 0.003134 887.4 149.9
1028(18) 0.003157 886.8 122.7
1027(17) 0.003308 886.2 103.7
1060(17) 0.003455 885.6 89.5
1005(17) 0.00366 885.0 78.3
940(16) 0.00368 884.4 69.2
937(17) 0.003462 883.8 61.7
965(17) 0.00351 883.3 55.4
979(16) 0.00379 882.7 50.0
920(16) 0.00395 882.1 45.4
945(17) 0.00365 881.5 41.5
938(17) 0.00360 880.9 38.0
925(16) 0.00376 880.3 35.0
906(16) 0.00408 879.7 32.4
879(16) 0.00406 879.2 30.1
862(16) 0.00400 878.6 28.0
886(16) 0.00384 878.0 26.2
910(16) 0.00379 877.4 24.6
916(16) 0.00403 876.8 23.1
963(17) 0.00362 876.2 21.8
918(16) 0.00378 875.6 20.6
929(16) 0.00368 875.1 19.5
923(16) 0.00381 874.5 18.5
905(16) 0.00412 873.9 17.7
913(16) 0.00388 873.3 16.8
902(16) 0.00377 872.7 16.1
923(16) 0.00369 872.1 15.4
883(16) 0.00403 871.5 14.8
878(15) 0.00423 870.9 14.2
912(16) 0.00377 870.4 13.7
840(16) 0.00404 869.8 13.2
875(16) 0.00389 869.2 13.0
872(16) 0.00405 868.6 12.5
879(15) 0.00419 868.0 12.2
869(16) 0.00393 867.4 11.8
877(16) 0.00382 866.8 11.5
863(16) 0.00411 866.3 11.2
882(16) 0.00412 865.7 10.9
912(16) 0.00409 865.1 10.6
928(16) 0.00377 864.5 10.4
856(16) 0.00386 863.9 10.2
836(16) 0.00415 863.3 9.9
873(15) 0.00420 862.7 9.8
900(16) 0.00413 862.2 9.6
885(16) 0.00382 861.6 9.4
892(17) 0.00361 861.0 9.3
889(16) 0.00394 860.4 9.2
853(15) 0.00432 859.8 9.1
866(15) 0.00427 859.2 9.0
881(16) 0.00398 858.6 9.0
926(17) 0.003407 858.1 9.0
875(16) 0.00406 857.5 9.0
868(15) 0.00429 856.9 9.0
902(16) 0.00409 856.3 8.9
853(15) 0.00419 855.7 8.7
875(16) 0.00369 855.1 8.5
835(16) 0.00414 854.5 8.4
867(15) 0.00429 854.0 8.2
887(16) 0.00410 853.4 8.1
862(16) 0.00404 852.8 8.0
861(16) 0.00384 852.2 8.0
843(16) 0.00402 851.6 7.9
847(15) 0.00440 851.0 7.9
808(15) 0.00450 850.4 7.9
845(16) 0.00404 849.8 7.9
880(16) 0.00379 849.3 7.8
883(16) 0.00381 848.7 7.8
843(15) 0.00442 848.1 7.8
835(15) 0.00425 847.5 7.8
849(16) 0.00400 846.9 7.8
840(16) 0.00400 846.3 7.8
851(16) 0.00414 845.7 7.9
848(15) 0.00438 845.2 7.9
879(16) 0.00406 844.6 7.9
835(16) 0.00411 844.0 7.9
820(15) 0.00422 843.4 8.0
847(15) 0.00428 842.8 8.0
877(15) 0.00428 842.2 8.0
829(16) 0.00416 841.6 8.1
860(16) 0.00394 841.1 8.1
898(16) 0.00382 840.5 8.2
842(15) 0.00435 839.9 8.2
865(15) 0.00434 839.3 8.3
844(16) 0.00415 838.7 8.4
861(16) 0.00389 838.2 8.4
857(16) 0.00400 837.6 8.5
828(15) 0.00445 837.1 8.6
825(15) 0.00450 836.5 8.7
844(16) 0.00412 835.9 8.7
845(16) 0.00389 835.4 8.8
830(16) 0.00413 834.8 8.9
854(15) 0.00432 834.3 9.0
851(15) 0.00437 833.7 9.1
839(16) 0.00412 833.2 9.2
829(16) 0.00394 832.6 9.3
874(16) 0.00393 832.1 9.5
854(15) 0.00435 831.5 9.6
844(15) 0.00439 831.0 9.7
843(16) 0.00409 830.4 9.9
850(16) 0.00376 829.8 10.0
831(16) 0.00409 829.3 10.1
845(15) 0.00438 828.7 10.3
848(15) 0.00433 828.2 10.5
800(15) 0.00429 827.6 10.6
877(17) 0.00365 827.1 10.8
827(15) 0.00423 826.5 11.0
847(15) 0.00439 826.0 11.2
803(15) 0.00456 825.4 11.4
836(16) 0.00405 824.8 11.6
785(15) 0.00421 824.3 11.8
841(16) 0.00405 823.7 12.0
851(15) 0.00432 823.2 12.2
839(15) 0.00431 822.6 12.5
857(16) 0.00395 822.1 12.7
808(15) 0.00420 821.5 13.0
845(16) 0.00401 821.0 13.2
823(15) 0.00449 820.4 13.5
819(15) 0.00451 819.9 13.8
809(15) 0.00432 819.3 14.1
799(15) 0.00423 818.7 14.4
854(16) 0.00401 818.2 14.8
816(15) 0.00458 817.6 15.1
812(15) 0.00446 817.1 15.5
838(16) 0.00407 816.5 15.9
839(16) 0.00407 816.0 16.3
852(15) 0.00417 815.4 16.7
842(15) 0.00441 814.9 17.1
839(15) 0.00426 814.3 17.6
834(16) 0.00411 813.8 18.1
859(16) 0.00395 813.2 18.6
854(15) 0.00426 812.6 19.1
810(15) 0.00459 812.1 19.7
847(16) 0.00402 811.5 20.2
827(16) 0.00411 811.0 20.9
836(15) 0.00417 810.4 21.5
800(15) 0.00459 809.9 22.2
831(15) 0.00450 809.3 22.9
828(16) 0.00413 808.8 23.7
819(16) 0.00415 808.2 24.5
832(16) 0.00414 807.7 25.3
814(15) 0.00448 807.1 26.2
834(15) 0.00449 806.5 27.2
846(16) 0.00402 806.0 28.2
814(16) 0.00400 805.4 29.3
839(16) 0.00407 804.9 30.5
858(15) 0.00431 804.3 31.7
824(15) 0.00454 803.8 33.1
840(15) 0.00421 803.2 34.5
843(16) 0.00382 802.7 36.1
806(15) 0.00431 802.1 37.7
842(15) 0.00436 801.6 39.5
831(15) 0.00447 801.0 41.5
815(15) 0.00423 800.4 43.6
855(16) 0.00369 799.9 46.0
876(16) 0.00398 799.3 48.5
855(15) 0.00430 798.8 51.4
862(15) 0.00422 798.2 54.5
841(15) 0.00424 797.7 58.0
873(16) 0.00372 797.1 62.0
869(16) 0.00396 796.6 66.6
891(16) 0.00415 796.0 71.9
857(15) 0.00427 795.4 78.2
914(16) 0.00377 794.9 85.8
896(16) 0.00372 794.3 95.0
912(16) 0.00374 793.8 106.3
919(16) 0.00403 793.2 120.3
877(15) 0.00424 792.7 137.4
938(16) 0.00376 792.1 158.2
983(17) 0.003483 791.6 183.2
1001(17) 0.00358 791.0 212.5
1030(17) 0.00361 790.5 246.1
1056(17) 0.003398 789.9 283.1
1091(18) 0.003115 789.3 322.0
1113(18) 0.003100 788.8 359.7
1161(18) 0.003033 788.2 391.7
1144(18) 0.003260 787.7 413.1
1222(19) 0.002897 787.1 420.4
1210(19) 0.002803 786.6 413.7
1185(19) 0.002898 786.0 396.4
1171(18) 0.003056 785.5 374.1
1153(18) 0.003237 784.9 351.3
1083(18) 0.003146 784.4 331.7
1065(18) 0.003140 783.8 317.3
1043(17) 0.003298 783.2 309.6
1081(17) 0.003331 782.7 309.3
1087(17) 0.003424 782.1 317.1
1076(18) 0.003198 781.6 333.3
1039(18) 0.003231 781.0 358.5
1138(18) 0.003052 780.5 393.2
1193(18) 0.003065 779.9 438.0
1212(18) 0.003086 779.4 493.7
1254(19) 0.002832 778.8 560.9
1349(20) 0.002477 778.3 640.1
1517(21) 0.002240 777.7 731.4
1613(21) 0.002269 777.1 834.7
1734(22) 0.002162 776.6 948.5
1885(23) 0.001885 776.0 1070.3
2127(26) 0.001508 775.5 1195.2
2196(25) 0.001552 774.9 1316.0
2260(25) 0.001625 774.4 1422.4
2349(25) 0.001581 773.8 1502.8
2422(26) 0.001430 773.3 1545.9
2291(27) 0.001401 772.7 1545.0
2243(25) 0.001551 772.2 1500.2
2156(24) 0.001724 771.6 1418.2
2054(24) 0.001794 771.0 1309.9
1882(23) 0.001873 770.5 1187.2
1840(24) 0.001783 769.9 1060.3
1680(22) 0.002101 769.4 936.4
1586(21) 0.002344 768.8 820.1
1504(20) 0.002415 768.3 714.1
1416(20) 0.002445 767.7 619.4
1332(20) 0.002475 767.2 536.5
1286(19) 0.002662 766.6 464.6
1214(18) 0.003058 766.1 403.1
1206(18) 0.003012 765.5 351.0
1105(18) 0.003173 764.9 307.0
1108(18) 0.003051 764.4 270.2
1095(18) 0.003147 763.8 239.4
1001(16) 0.00371 763.3 213.5
960(16) 0.00375 762.7 191.8
974(17) 0.003486 762.2 173.5
940(17) 0.00362 761.6 157.9
961(17) 0.00363 761.1 144.5
941(16) 0.00394 760.5 133.0
913(16) 0.00388 759.9 122.9
907(16) 0.00373 759.4 113.9
874(16) 0.00398 758.8 106.0
886(16) 0.00405 758.3 99.0
844(15) 0.00440 757.7 92.6
875(16) 0.00405 757.2 86.9
833(16) 0.00414 756.6 81.7
831(16) 0.00411 756.1 77.0
801(15) 0.00451 755.5 72.7
860(15) 0.00434 755.0 68.7
805(15) 0.00431 754.4 65.1
816(16) 0.00406 753.8 61.8
800(15) 0.00433 753.3 58.7
818(15) 0.00443 752.7 55.9
828(15) 0.00449 752.2 53.3
806(15) 0.00429 751.6 50.9
832(16) 0.00392 751.1 48.6
791(15) 0.00436 750.5 46.5
781(15) 0.00469 750.0 44.6
788(15) 0.00473 749.4 42.8
789(15) 0.00446 748.9 41.1
790(16) 0.00412 748.3 39.5
783(15) 0.00445 747.7 38.0
769(14) 0.00480 747.2 36.6
780(15) 0.00475 746.6 35.3
812(15) 0.00425 746.1 34.1
723(15) 0.00458 745.5 33.0
744(15) 0.00470 745.0 31.9
730(14) 0.00509 744.4 30.9
802(15) 0.00459 743.9 30.0
744(14) 0.00476 743.3 29.1
749(15) 0.00429 742.8 28.3
750(15) 0.00473 742.2 27.5
741(14) 0.00502 741.6 26.8
787(15) 0.00472 741.1 26.1
790(15) 0.00437 740.5 25.8
787(15) 0.00420 740.0 25.2
757(15) 0.00462 739.4 24.6
779(14) 0.00478 738.9 24.1
782(15) 0.00468 738.3 23.6
791(15) 0.00442 737.8 23.1
806(15) 0.00417 737.2 22.7
783(15) 0.00439 736.7 22.3
762(14) 0.00488 736.1 22.0
749(14) 0.00480 735.5 21.6
744(15) 0.00468 735.0 21.3
750(15) 0.00448 734.4 21.1
742(14) 0.00479 733.9 20.8
732(14) 0.00509 733.3 20.6
696(14) 0.00517 732.8 20.4
715(14) 0.00477 732.2 20.2
715(14) 0.00483 731.7 20.1
767(15) 0.00468 731.2 20.0
795(15) 0.00470 730.8 19.9
747(15) 0.00466 730.3 19.8
751(15) 0.00454 729.8 19.8
740(15) 0.00475 729.3 19.8
770(15) 0.00457 728.8 19.8
708(14) 0.00520 728.3 19.9
779(15) 0.00443 727.9 20.0
772(15) 0.00424 727.4 20.1
727(14) 0.00481 726.9 20.3
747(14) 0.00490 726.4 20.5
767(14) 0.00484 725.9 20.8
739(15) 0.00461 725.5 21.1
698(14) 0.00481 725.0 21.4
760(15) 0.00460 724.5 21.9
772(15) 0.00466 724.0 22.3
733(14) 0.00512 723.5 22.9
708(14) 0.00495 723.1 23.6
732(15) 0.00449 722.6 24.3
726(14) 0.00476 722.1 25.2
674(14) 0.00546 721.6 26.2
762(14) 0.00492 721.1 27.3
760(15) 0.00452 720.6 28.7
748(15) 0.00431 720.2 30.3
743(15) 0.00465 719.7 32.4
739(14) 0.00504 719.2 35.2
781(15) 0.00468 718.7 39.6
777(15) 0.00455 718.2 47.6
813(16) 0.00402 717.8 63.2
831(16) 0.00413 717.3 92.5
873(15) 0.00426 716.8 142.2
914(16) 0.00405 716.3 215.6
969(17) 0.00356 715.8 306.0
1045(18) 0.003176 715.3 394.0
1165(18) 0.002944 714.9 448.9
1329(19) 0.002810 714.4 445.1
1250(19) 0.002876 713.9 386.5
1014(17) 0.003464 713.4 302.5
914(17) 0.00365 712.9 221.9
843(16) 0.00410 712.5 161.5
809(15) 0.00458 712.0 125.2
802(15) 0.00448 711.5 108.7
804(15) 0.00424 711.0 105.5
846(16) 0.00398 710.5 109.8
796(15) 0.00446 710.0 118.3
852(15) 0.00438 709.6 129.3
848(15) 0.00420 709.1 142.0
839(16) 0.00405 708.6 156.3
834(16) 0.00409 708.1 171.7
858(16) 0.00412 707.6 187.9
886(15) 0.00422 707.2 204.2
929(16) 0.00375 706.7 220.0
918(16) 0.00377 706.2 234.3
929(16) 0.00368 705.7 245.8
934(16) 0.00384 705.2 253.5
883(15) 0.00421 704.8 256.6
893(16) 0.00390 704.3 254.6
915(17) 0.00363 703.8 247.8
902(16) 0.00387 703.3 236.8
863(15) 0.00420 702.8 222.8
879(15) 0.00424 702.3 206.8
844(16) 0.00409 701.9 189.9
852(16) 0.00389 701.4 172.8
822(15) 0.00418 700.9 156.2
802(15) 0.00457 700.4 140.6
816(15) 0.00460 699.9 126.1
795(15) 0.00440 699.5 112.8
789(15) 0.00421 699.0 100.8
786(15) 0.00447 698.5 90.1
797(15) 0.00467 698.0 80.6
750(14) 0.00501 697.5 72.2
716(14) 0.00489 697.0 64.9
753(15) 0.00428 696.6 58.5
775(15) 0.00445 696.1 52.9
742(14) 0.00491 695.6 48.1
729(14) 0.00513 695.1 43.9
750(15) 0.00462 694.6 40.3
715(15) 0.00449 694.2 37.1
694(14) 0.00506 693.7 34.3
703(14) 0.00532 693.2 31.9
739(14) 0.00492 692.7 29.7
721(14) 0.00484 692.2 27.8
723(15) 0.00451 691.8 26.1
719(14) 0.00483 691.3 24.6
699(14) 0.00533 690.8 23.2
675(14) 0.00541 690.3 21.9
699(14) 0.00478 689.8 20.8
692(14) 0.00481 689.3 19.8
692(14) 0.00498 688.9 18.8
702(14) 0.00531 688.4 17.9
706(14) 0.00518 687.9 17.1
721(14) 0.00488 687.4 16.5
725(15) 0.00455 686.9 15.8
709(14) 0.00493 686.5 15.1
698(14) 0.00534 686.0 14.5
682(14) 0.00524 685.5 14.0
737(15) 0.00462 685.0 13.4
713(14) 0.00476 684.5 12.9
723(14) 0.00478 684.0 12.5
692(14) 0.00537 683.6 12.1
702(14) 0.00509 683.1 11.7
720(15) 0.00463 682.6 11.3
695(14) 0.00492 682.1 10.9
696(14) 0.00503 681.6 10.6
702(14) 0.00531 681.2 10.3
680(14) 0.00512 680.7 10.0
655(14) 0.00527 680.2 9.7
708(14) 0.00485 679.7 9.4
704(14) 0.00521 679.2 9.2
666(13) 0.00557 678.7 8.9
685(14) 0.00509 678.3 8.7
727(15) 0.00456 677.8 8.5
688(14) 0.00512 677.3 8.3
708(14) 0.00523 676.8 8.1
690(14) 0.00538 676.3 7.9
686(14) 0.00501 675.9 7.8
715(15) 0.00433 675.4 7.6
672(14) 0.00522 674.9 7.5
732(14) 0.00498 674.4 7.3
689(14) 0.00541 673.9 7.2
675(14) 0.00514 673.5 7.1
694(15) 0.00474 673.0 7.0
724(14) 0.00482 672.5 6.9
694(14) 0.00536 672.0 6.8
661(13) 0.00563 671.5 6.7
675(14) 0.00517 671.0 6.7
692(14) 0.00481 670.6 6.6
702(14) 0.00497 670.1 6.6
664(13) 0.00556 669.6 6.6
645(13) 0.00564 669.1 6.6
697(14) 0.00491 668.6 6.7
663(14) 0.00503 668.2 6.8
668(14) 0.00528 667.7 6.9
708(14) 0.00528 667.2 7.0
669(13) 0.00551 666.7 7.2
662(14) 0.00531 666.2 7.5
643(14) 0.00522 665.7 7.8
682(14) 0.00507 665.3 8.1
660(13) 0.00559 664.8 8.6
682(14) 0.00538 664.3 9.0
726(15) 0.00464 663.8 9.5
664(14) 0.00508 663.3 10.0
662(14) 0.00527 662.9 10.6
703(14) 0.00527 662.4 11.0
654(13) 0.00562 661.9 11.4
689(14) 0.00510 661.4 11.6
679(14) 0.00507 660.9 11.6
674(14) 0.00522 660.4 11.4
629(13) 0.00588 660.0 11.0
677(14) 0.00517 659.5 10.5
670(14) 0.00498 659.0 9.9
660(14) 0.00507 658.5 9.3
651(14) 0.00547 658.0 8.7
665(13) 0.00556 657.6 8.1
667(14) 0.00527 657.1 7.5
668(14) 0.00506 656.6 7.0
652(14) 0.00532 656.1 6.6
684(14) 0.00531 655.6 6.2
674(13) 0.00550 655.2 5.9
683(14) 0.00497 654.7 5.6
673(14) 0.00503 654.2 5.3
653(14) 0.00542 653.7 5.1
711(14) 0.00506 653.2 5.0
660(13) 0.00564 652.7 4.8
682(14) 0.00503 652.3 4.7
667(14) 0.00489 651.8 4.6
637(14) 0.00545 651.3 4.5
622(13) 0.00595 651.0 4.5
672(13) 0.00555 650.7 4.4
650(14) 0.00531 650.4 4.4
693(15) 0.00454 650.1 4.3
655(14) 0.00528 649.7 4.3
679(14) 0.00542 649.4 4.3
645(13) 0.00573 649.1 4.3
670(14) 0.00524 648.8 4.3
663(14) 0.00487 648.5 4.4
672(14) 0.00531 648.2 4.4
635(13) 0.00591 647.9 4.4
637(13) 0.00585 647.5 4.5
668(14) 0.00524 647.2 4.5
668(14) 0.00484 646.9 4.6
671(14) 0.00514 646.6 4.7
652(13) 0.00570 646.3 4.7
673(14) 0.00546 646.0 4.8
677(14) 0.00517 645.6 4.9
676(14) 0.00484 645.3 5.0
643(14) 0.00537 645.0 5.1
678(13) 0.00551 644.7 5.2
640(13) 0.00572 644.4 5.4
675(14) 0.00502 644.1 5.5
701(15) 0.00457 643.8 5.6
662(14) 0.00527 643.4 5.7
650(13) 0.00571 643.1 5.8
672(14) 0.00536 642.8 5.9
653(14) 0.00529 642.5 6.0
649(14) 0.00511 642.2 6.1
649(14) 0.00538 641.9 6.2
662(13) 0.00558 641.5 6.2
620(13) 0.00584 641.2 6.6
652(14) 0.00530 640.9 6.7
695(14) 0.00481 640.6 6.6
638(13) 0.00552 640.3 6.6
653(13) 0.00570 640.0 6.5
648(13) 0.00558 639.7 6.4
637(14) 0.00535 639.3 6.3
687(14) 0.00495 639.0 6.2
676(14) 0.00533 638.7 6.1
641(13) 0.00581 638.4 5.9
655(14) 0.00529 638.1 5.8
688(14) 0.00481 637.8 5.6
639(13) 0.00562 637.4 5.5
640(13) 0.00573 637.1 5.3
636(13) 0.00582 636.8 5.2
639(14) 0.00536 636.5 5.0
637(14) 0.00520 636.2 4.9
655(14) 0.00534 635.9 4.8
658(13) 0.00557 635.6 4.6
643(13) 0.00582 635.2 4.5
678(14) 0.00518 634.9 4.4
667(14) 0.00502 634.6 4.3
641(14) 0.00542 634.3 4.2
629(13) 0.00582 634.0 4.1
636(13) 0.00584 633.7 4.0
635(14) 0.00543 633.3 3.9
676(14) 0.00476 633.0 3.9
656(14) 0.00536 632.7 3.8
640(13) 0.00575 632.4 3.7
600(13) 0.00615 632.1 3.7
638(14) 0.00546 631.8 3.6
624(14) 0.00518 631.4 3.6
625(13) 0.00555 631.1 3.6
640(13) 0.00580 630.8 3.6
643(13) 0.00573 630.5 3.5
654(14) 0.00533 630.2 3.5
636(14) 0.00527 629.9 3.5
637(14) 0.00549 629.6 3.5
632(13) 0.00594 629.2 3.5
644(13) 0.00560 628.9 3.5
611(13) 0.00566 628.6 3.6
626(14) 0.00523 628.3 3.6
637(14) 0.00542 628.0 3.6
637(13) 0.00587 627.7 3.7
645(13) 0.00558 627.3 3.7
649(14) 0.00540 627.0 3.8
640(14) 0.00536 626.7 3.8
654(14) 0.00538 626.4 3.9
629(13) 0.00585 626.1 4.0
647(13) 0.00549 625.8 4.1
665(14) 0.00506 625.5 4.2
611(13) 0.00572 625.1 4.3
651(14) 0.00546 624.8 4.4
659(13) 0.00563 624.5 4.6
627(13) 0.00579 624.2 4.7
644(14) 0.00520 623.9 4.9
637(13) 0.00551 623.6 5.1
628(13) 0.00579 623.2 5.3
615(13) 0.00597 622.9 5.6
600(13) 0.00571 622.6 5.9
609(14) 0.00549 622.3 6.2
620(13) 0.00557 622.0 6.6
623(13) 0.00582 621.7 7.0
620(13) 0.00599 621.4 7.5
609(13) 0.00587 621.0 8.0
627(14) 0.00529 620.7 8.7
633(13) 0.00555 620.4 9.4
636(13) 0.00581 620.1 10.3
607(13) 0.00607 619.8 11.3
670(14) 0.00520 619.5 12.6
647(14) 0.00525 619.1 14.0
636(13) 0.00551 618.8 15.8
642(13) 0.00576 618.5 18.1
657(13) 0.00567 618.2 21.0
646(14) 0.00543 617.9 25.0
664(14) 0.00488 617.6 31.1
653(14) 0.00544 617.2 41.0
651(13) 0.00567 616.9 58.0
666(13) 0.00560 616.6 86.7
734(15) 0.00476 616.3 132.8
771(16) 0.00410 616.0 200.7
848(16) 0.00399 615.7 290.6
932(16) 0.00395 615.4 394.6
1051(17) 0.00353 615.0 493.9
1119(18) 0.003158 614.7 557.9
1201(19) 0.002702 614.4 557.7
1153(18) 0.003076 614.1 493.5
1014(17) 0.00366 613.8 394.1
889(16) 0.00408 613.5 290.0
782(15) 0.00455 613.1 200.2
752(15) 0.00449 612.8 132.4
729(15) 0.00466 612.5 86.4
685(14) 0.00546 612.2 57.7
635(13) 0.00576 611.9 40.8
632(14) 0.00548 611.6 30.9
647(14) 0.00519 611.3 24.8
651(14) 0.00525 610.9 20.8
628(13) 0.00598 610.6 17.9
609(13) 0.00586 610.3 15.6
639(14) 0.00537 610.0 13.8
615(13) 0.00561 609.7 12.3
610(13) 0.00577 609.4 11.1
624(13) 0.00592 609.0 10.0
602(13) 0.00588 608.7 9.1
640(14) 0.00518 608.4 8.3
619(14) 0.00547 608.1 7.7
584(13) 0.00617 607.8 7.1
617(13) 0.00607 607.5 6.6
614(13) 0.00560 607.2 6.2
613(14) 0.00541 606.8 5.8
607(13) 0.00581 606.5 5.4
601(13) 0.00592 606.2 5.1
603(13) 0.00618 605.9 4.8
631(14) 0.00548 605.6 4.6
609(13) 0.00550 605.3 4.4
595(13) 0.00591 604.9 4.2
579(13) 0.00624 604.6 4.0
607(13) 0.00612 604.3 3.9
580(13) 0.00616 604.0 3.7
604(13) 0.00554 603.7 3.6
628(14) 0.00548 603.4 3.4
626(13) 0.00580 603.0 3.3
615(13) 0.00605 602.7 3.2
596(13) 0.00579 602.4 3.1
629(14) 0.00520 602.1 3.0
615(13) 0.00581 601.8 2.9
631(13) 0.00591 601.5 2.8
598(13) 0.00621 601.2 2.8
588(13) 0.00608 600.8 2.7
593(14) 0.00548 600.5 2.6
604(13) 0.00571 600.2 2.6
638(13) 0.00580 599.9 2.5
627(13) 0.00582 599.6 2.5
606(13) 0.00560 599.3 2.4
599(13) 0.00556 598.9 2.4
632(13) 0.00553 598.6 2.3
623(13) 0.00600 598.3 2.3
619(13) 0.00586 598.0 2.3
609(13) 0.00561 597.7 2.2
601(14) 0.00538 597.4 2.2
613(13) 0.00552 597.1 2.2
604(13) 0.00610 596.7 2.1
600(13) 0.00603 596.4 2.1
605(13) 0.00580 596.1 2.1
598(13) 0.00553 595.8 2.0
621(14) 0.00544 595.5 2.0
575(12) 0.00645 595.2 2.0
633(13) 0.00562 594.8 2.0
618(13) 0.00550 594.5 2.0
589(13) 0.00582 594.2 2.0
598(13) 0.00583 593.9 1.9
600(13) 0.00617 593.6 1.9
590(13) 0.00592 593.3 1.9
584(13) 0.00572 593.0 1.9
607(13) 0.00554 592.6 1.9
609(13) 0.00583 592.3 1.9
587(13) 0.00623 592.0 1.9
625(13) 0.00557 591.7 1.9
586(13) 0.00571 591.4 1.9
623(13) 0.00554 591.1 1.9
575(13) 0.00616 590.7 1.9
558(12) 0.00661 590.4 1.9
585(13) 0.00589 590.1 1.9
579(13) 0.00584 589.8 1.9
602(13) 0.00576 589.5 1.9
590(13) 0.00591 589.2 1.9
594(13) 0.00625 588.8 1.9
590(13) 0.00571 588.5 1.9
579(13) 0.00559 588.2 1.9
584(13) 0.00583 587.9 1.9
590(13) 0.00609 587.6 2.0
609(13) 0.00608 587.3 2.0
583(13) 0.00589 587.0 2.0
567(13) 0.00592 586.6 2.1
555(13) 0.00634 586.3 2.1
589(13) 0.00626 586.0 2.1
578(13) 0.00637 585.7 2.2
587(13) 0.00596 585.4 2.2
601(14) 0.00536 585.1 2.3
585(13) 0.00592 584.7 2.4
598(13) 0.00623 584.4 2.5
625(13) 0.00585 584.1 2.6
584(13) 0.00584 583.8 2.7
620(14) 0.00499 583.5 2.8
601(13) 0.00568 583.2 3.0
598(13) 0.00623 582.9 3.2
620(13) 0.00581 582.5 3.5
615(13) 0.00565 582.2 3.8
584(13) 0.00556 581.9 4.3
608(13) 0.00569 581.6 4.9
591(13) 0.00628 581.3 5.9
591(13) 0.00599 581.0 7.5
587(13) 0.00579 580.6 10.0
578(13) 0.00585 580.3 13.8
580(13) 0.00593 580.0 19.2
564(12) 0.00656 579.7 26.2
577(13) 0.00627 579.4 34.6
638(14) 0.00529 579.1 43.2
617(13) 0.00550 578.8 50.2
620(13) 0.00563 578.4 53.1
604(13) 0.00618 578.1 50.5
640(13) 0.00551 577.8 43.7
631(14) 0.00535 577.5 35.2
588(13) 0.00593 577.2 26.8
563(13) 0.00619 576.9 19.6
584(13) 0.00638 576.5 14.2
595(13) 0.00586 576.2 10.3
560(13) 0.00623 575.9 7.7
568(13) 0.00603 575.6 6.1
571(13) 0.00629 575.3 5.0
593(13) 0.00629 575.0 4.4
609(13) 0.00552 574.6 3.9
567(13) 0.00595 574.3 3.6
563(13) 0.00608 574.0 3.3
573(13) 0.00634 573.7 3.1
582(13) 0.00636 573.4 2.9
602(13) 0.00566 573.1 2.8
577(13) 0.00582 572.8 2.7
593(13) 0.00581 572.4 2.6
593(13) 0.00615 572.1 2.5
563(12) 0.00667 571.8 2.4
612(13) 0.00556 571.5 2.4
592(14) 0.00537 571.2 2.3
572(13) 0.00608 570.9 2.3
568(12) 0.00649 570.5 2.3
598(13) 0.00625 570.2 2.2
571(13) 0.00628 569.9 2.2
570(13) 0.00561 569.6 2.2
575(13) 0.00592 569.3 2.2
586(13) 0.00630 569.0 2.1
596(13) 0.00620 568.7 2.1
567(13) 0.00630 568.3 2.1
616(14) 0.00511 568.0 2.1
562(13) 0.00619 567.7 2.1
580(12) 0.00646 567.5 2.1
540(12) 0.00675 567.3 2.1
545(12) 0.00650 567.0 2.1
559(13) 0.00598 566.8 2.1
608(13) 0.00574 566.6 2.1
569(12) 0.00648 566.4 2.1
565(13) 0.00640 566.1 2.2
549(13) 0.00638 565.9 2.2
583(13) 0.00562 565.7 2.2
578(13) 0.00590 565.5 2.2
581(13) 0.00640 565.2 2.2
570(13) 0.00639 565.0 2.2
579(13) 0.00610 564.8 2.2
586(13) 0.00581 564.5 2.3
564(13) 0.00627 564.3 2.3
562(12) 0.00668 564.1 2.3
548(12) 0.00648 563.9 2.3
596(13) 0.00564 563.6 2.3
575(13) 0.00607 563.4 2.4
581(13) 0.00614 563.2 2.4
576(12) 0.00649 563.0 2.4
578(13) 0.00612 562.7 2.4
546(13) 0.00608 562.5 2.5
560(13) 0.00605 562.3 2.5
525(12) 0.00683 562.0 2.5
563(12) 0.00657 561.8 2.6
564(13) 0.00609 561.6 2.6
592(13) 0.00587 561.4 2.6
538(12) 0.00670 561.1 2.7
558(12) 0.00644 560.9 2.7
568(12) 0.00656 560.7 2.8
558(13) 0.00602 560.5 2.8
586(14) 0.00547 560.2 2.9
560(13) 0.00622 560.0 2.9
548(12) 0.00664 559.8 3.0
614(13) 0.00610 559.5 3.0
569(13) 0.00607 559.3 3.1
557(13) 0.00590 559.1 3.1
565(13) 0.00612 558.9 3.2
593(13) 0.00626 558.6 3.3
535(12) 0.00690 558.4 3.3
578(13) 0.00614 558.2 3.4
592(13) 0.00550 558.0 3.5
570(13) 0.00623 557.7 3.5
549(12) 0.00678 557.5 3.6
533(12) 0.00706 557.3 3.7
550(13) 0.00625 557.0 3.8
584(14) 0.00536 556.8 3.8
581(13) 0.00609 556.6 3.9
582(12) 0.00645 556.4 4.0
545(12) 0.00682 556.1 4.1
551(13) 0.00632 555.9 4.2
557(13) 0.00586 555.7 4.3
579(13) 0.00602 555.5 4.4
581(12) 0.00644 555.2 4.5
576(13) 0.00634 555.0 4.6
550(13) 0.00637 554.8 4.8
552(13) 0.00591 554.5 4.9
553(13) 0.00637 554.3 5.0
570(12) 0.00651 554.1 5.2
570(12) 0.00641 553.9 5.3
565(13) 0.00602 553.6 5.5
539(13) 0.00627 553.4 5.6
563(13) 0.00616 553.2 5.8
572(12) 0.00654 553.0 6.0
541(12) 0.00674 552.7 6.2
571(13) 0.00609 552.5 6.4
553(13) 0.00618 552.3 6.6
546(13) 0.00633 552.0 6.8
532(12) 0.00702 551.8 7.0
547(12) 0.00644 551.6 7.3
554(13) 0.00625 551.4 7.5
577(13) 0.00588 551.1 7.8
560(13) 0.00634 550.9 8.1
598(13) 0.00624 550.7 8.4
552(12) 0.00643 550.5 8.8
561(13) 0.00590 550.2 9.1
533(12) 0.00645 550.0 9.5
557(12) 0.00651 549.8 9.9
563(12) 0.00664 549.5 10.3
539(12) 0.00643 549.3 10.8
565(13) 0.00614 549.1 11.3
566(13) 0.00625 548.9 11.9
551(12) 0.00668 548.6 12.5
572(12) 0.00644 548.4 13.1
555(13) 0.00630 548.2 13.8
564(13) 0.00587 548.0 14.6
555(12) 0.00647 547.7 15.4
583(13) 0.00630 547.5 16.3
553(12) 0.00679 547.3 17.3
564(13) 0.00614 547.0 18.4
591(14) 0.00535 546.8 19.6
559(13) 0.00620 546.6 20.9
580(13) 0.00633 546.4 22.3
552(12) 0.00670 546.1 23.9
567(13) 0.00626 545.9 25.6
566(13) 0.00583 545.7 27.4
569(13) 0.00609 545.5 29.4
560(12) 0.00664 545.2 31.6
568(12) 0.00662 545.0 33.9
579(13) 0.00596 544.8 36.5
564(13) 0.00579 544.5 39.2
564(13) 0.00607 544.3 42.1
562(12) 0.00664 544.1 45.2
584(13) 0.00626 543.9 48.5
599(13) 0.00582 543.6 52.0
597(13) 0.00550 543.4 55.7
562(13) 0.00608 543.2 59.6
603(13) 0.00614 543.0 63.6
615(13) 0.00584 542.7 67.6
610(13) 0.00571 542.5 71.8
616(14) 0.00539 542.3 75.9
621(14) 0.00547 542.0 79.9
658(13) 0.00565 541.8 83.7
644(13) 0.00561 541.6 87.2
625(13) 0.00564 541.4 90.2
644(14) 0.00521 541.1 92.8
619(13) 0.00578 540.9 94.7
638(13) 0.00586 540.7 95.9
623(13) 0.00569 540.5 96.3
630(13) 0.00552 540.2 95.9
641(14) 0.00534 540.0 94.7
598(13) 0.00594 539.8 92.9
626(13) 0.00598 539.5 90.4
627(13) 0.00566 539.3 87.3
604(13) 0.00564 539.1 83.8
614(13) 0.00570 538.9 80.0
602(13) 0.00602 538.6 76.0
629(13) 0.00592 538.4 72.0
591(13) 0.00597 538.2 67.9
604(13) 0.00550 538.0 63.8
621(13) 0.00550 537.7 59.8
579(13) 0.00634 537.5 56.0
574(12) 0.00649 537.3 52.3
615(13) 0.00558 537.0 48.8
593(13) 0.00570 536.8 45.4
577(13) 0.00619 536.6 42.3
574(12) 0.00644 536.4 39.4
589(13) 0.00636 536.1 36.7
582(13) 0.00599 535.9 34.2
574(13) 0.00566 535.7 31.8
562(13) 0.00614 535.5 29.6
574(12) 0.00649 535.2 27.7
590(13) 0.00613 535.0 25.8
570(13) 0.00606 534.8 24.1
580(13) 0.00576 534.5 22.6
599(13) 0.00595 534.3 21.2
583(12) 0.00641 534.1 19.9
562(12) 0.00657 533.9 18.7
561(13) 0.00612 533.6 17.6
561(13) 0.00567 533.4 16.6
534(12) 0.00641 533.2 15.7
535(12) 0.00699 533.0 14.9
516(12) 0.00721 532.7 14.1
560(13) 0.00634 532.5 13.5
543(13) 0.00604 532.3 12.8
532(12) 0.00649 532.0 12.2
528(12) 0.00708 531.8 11.7
553(12) 0.00659 531.6 11.2
580(13) 0.00596 531.4 10.8
555(13) 0.00601 531.1 10.3
516(12) 0.00674 530.9 10.0
538(12) 0.00695 530.7 9.6
553(12) 0.00649 530.5 9.3
545(13) 0.00639 530.2 9.0
553(13) 0.00597 530.0 8.7
531(12) 0.00644 529.8 8.4
517(12) 0.00718 529.5 8.2
552(12) 0.00651 529.3 8.0
548(13) 0.00629 529.1 7.8
556(13) 0.00604 528.9 7.6
527(12) 0.00665 528.6 7.4
547(12) 0.00681 528.4 7.2
537(12) 0.00648 528.2 7.1
561(13) 0.00592 528.0 7.0
543(13) 0.00622 527.7 6.9
530(12) 0.00682 527.5 6.8
531(12) 0.00702 527.3 6.7
520(12) 0.00677 527.1 6.6
544(13) 0.00606 526.8 6.6
525(12) 0.00675 526.6 6.6
521(12) 0.00713 526.4 6.6
548(12) 0.00678 526.1 6.6
504(12) 0.00704 525.9 6.6
533(13) 0.00626 525.7 6.7
516(12) 0.00663 525.5 6.8
524(12) 0.00685 525.2 6.9
510(12) 0.00731 525.0 7.1
571(13) 0.00615 524.8 7.3
554(13) 0.00580 524.6 7.6
512(12) 0.00662 524.3 8.0
524(12) 0.00707 524.1 8.4
523(12) 0.00710 523.9 9.0
535(12) 0.00644 523.6 9.8
525(13) 0.00623 523.4 10.8
528(12) 0.00671 523.2 12.1
556(12) 0.00662 523.0 13.9
535(12) 0.00694 522.7 16.2
535(12) 0.00666 522.5 19.1
544(13) 0.00599 522.3 22.7
546(12) 0.00644 522.1 27.2
549(12) 0.00684 521.8 32.5
538(12) 0.00694 521.6 38.4
571(13) 0.00616 521.4 44.8
568(13) 0.00595 521.1 51.0
620(13) 0.00554 520.9 56.2
607(13) 0.00613 520.7 59.4
570(13) 0.00628 520.5 59.7
593(13) 0.00573 520.2 57.0
568(13) 0.00576 520.0 52.0
556(13) 0.00625 519.8 45.8
535(12) 0.00694 519.6 39.3
537(12) 0.00676 519.3 33.1
538(12) 0.00641 519.1 27.6
542(13) 0.00626 518.9 22.8
497(12) 0.00721 518.6 18.9
516(12) 0.00722 518.4 15.8
527(12) 0.00656 518.2 13.2
562(13) 0.00606 518.0 11.3
536(13) 0.00639 517.7 9.8
546(12) 0.00642 517.5 8.6
549(12) 0.00679 517.3 7.6
532(12) 0.00671 517.1 6.9
537(13) 0.00630 516.8 6.3
533(13) 0.00635 516.6 5.8
522(12) 0.00685 516.4 5.4
517(12) 0.00724 516.1 5.0
520(12) 0.00670 515.9 4.7
521(12) 0.00671 515.7 4.4
544(13) 0.00623 515.5 4.2
527(12) 0.00694 515.2 4.0
515(12) 0.00718 515.0 3.8
516(12) 0.00672 514.8 3.6
497(12) 0.00686 514.6 3.4
535(13) 0.00639 514.3 3.3
542(12) 0.00663 514.1 3.2
535(12) 0.00694 513.9 3.0
516(12) 0.00659 513.6 2.9
493(12) 0.00656 513.4 2.8
519(12) 0.00656 513.2 2.7
525(12) 0.00711 513.0 2.6
526(12) 0.00712 512.7 2.5
502(12) 0.00667 512.5 2.5
562(13) 0.00560 512.3 2.4
527(12) 0.00666 512.1 2.3
522(12) 0.00716 511.8 2.3
508(12) 0.00738 511.6 2.2
513(12) 0.00688 511.4 2.2
550(13) 0.00591 511.1 2.1
531(12) 0.00656 510.9 2.0
519(12) 0.00722 510.7 2.0
490(12) 0.00753 510.5 2.0
513(12) 0.00674 510.2 1.9
510(13) 0.00638 510.0 1.9
495(12) 0.00700 509.8 1.8
492(11) 0.00763 509.6 1.8
535(12) 0.00676 509.3 1.8
509(12) 0.00693 509.1 1.7
507(12) 0.00672 508.9 1.7
499(12) 0.00706 508.6 1.7
498(12) 0.00745 508.4 1.6
500(12) 0.00715 508.2 1.6
468(11) 0.00759 508.0 1.6
473(12) 0.00731 507.7 1.6
508(12) 0.00677 507.5 1.5
500(12) 0.00751 507.3 1.5
495(12) 0.00737 507.1 1.5
524(12) 0.00643 506.8 1.5
495(12) 0.00680 506.6 1.4
462(11) 0.00770 506.4 1.4
489(11) 0.00759 506.1 1.4
497(12) 0.00717 505.9 1.4
494(12) 0.00702 505.7 1.4
536(12) 0.00647 505.5 1.3
489(12) 0.00753 505.2 1.3
522(12) 0.00713 505.0 1.3
516(12) 0.00694 504.8 1.3
490(12) 0.00692 504.6 1.3
496(12) 0.00684 504.3 1.3
487(12) 0.00746 504.1 1.2
477(11) 0.00778 503.9 1.2
510(12) 0.00670 503.6 1.2
509(12) 0.00647 503.4 1.2
480(12) 0.00734 503.2 1.2
516(12) 0.00696 503.0 1.2
552(12) 0.00672 502.7 1.2
497(12) 0.00694 502.5 1.2
514(12) 0.00642 502.3 1.1
511(12) 0.00696 502.1 1.1
521(12) 0.00703 501.8 1.1
511(12) 0.00730 501.6 1.1
514(12) 0.00687 501.4 1.1
504(12) 0.00647 501.1 1.1
501(12) 0.00698 500.9 1.1
484(11) 0.00769 500.7 1.1
494(12) 0.00754 500.5 1.1
517(12) 0.00696 500.2 1.1
531(13) 0.00613 500.0 1.0
517(12) 0.00661 499.8 1.0
494(12) 0.00743 499.6 1.0
476(11) 0.00770 499.3 1.0
512(12) 0.00671 499.1 1.0
489(12) 0.00647 498.9 1.0
492(12) 0.00699 498.6 1.0
511(12) 0.00724 498.4 1.0
478(11) 0.00766 498.2 1.0
489(12) 0.00697 498.0 1.0
498(12) 0.00661 497.7 1.0
523(12) 0.00669 497.5 1.0
487(11) 0.00767 497.3 1.0
487(12) 0.00756 497.1 1.0
521(12) 0.00658 496.8 0.9
522(12) 0.00663 496.6 0.9
522(12) 0.00674 496.4 0.9
511(12) 0.00729 496.1 0.9
503(12) 0.00712 495.9 0.9
523(12) 0.00655 495.7 0.9
501(12) 0.00671 495.5 0.9
500(12) 0.00708 495.2 0.8
471(11) 0.00794 495.0 0.8
504(12) 0.00712 494.8 0.7
526(12) 0.00650 494.6 0.7
518(12) 0.00653 494.3 0.7
516(12) 0.00678 494.1 0.7
474(11) 0.00787 493.9 0.7
522(12) 0.00654 493.6 0.7
508(12) 0.00666 493.4 0.7
513(12) 0.00679 493.2 0.7
506(12) 0.00708 493.0 0.7
501(12) 0.00742 492.7 0.7
507(12) 0.00673 492.5 0.7
526(13) 0.00631 492.3 0.7
495(12) 0.00707 492.1 0.7
500(12) 0.00726 491.8 0.7
515(12) 0.00723 491.6 0.7
465(11) 0.00757 491.4 0.7
491(12) 0.00688 491.1 0.7
504(12) 0.00689 490.9 0.7
489(11) 0.00759 490.7 0.7
480(11) 0.00767 490.5 0.7
468(12) 0.00735 490.2 0.7
509(13) 0.00634 490.0 0.7
496(12) 0.00697 489.8 0.7
502(12) 0.00732 489.7 0.7
517(12) 0.00720 489.6 0.7
508(12) 0.00683 489.5 0.7
496(12) 0.00649 489.4 0.7
499(12) 0.00709 489.2 0.7
493(12) 0.00745 489.1 0.7
491(11) 0.00765 489.0 0.8
479(12) 0.00742 488.9 0.8
500(12) 0.00643 488.8 0.8
518(12) 0.00669 488.6 0.8
523(12) 0.00710 488.5 0.8
526(12) 0.00706 488.4 0.8
527(12) 0.00649 488.3 0.8
503(12) 0.00663 488.2 0.8
498(12) 0.00722 488.1 0.8
524(12) 0.00711 487.9 0.8
501(12) 0.00703 487.8 0.8
507(12) 0.00689 487.7 0.8
491(12) 0.00688 487.6 0.9
499(12) 0.00703 487.5 0.9
510(12) 0.00729 487.3 0.9
531(12) 0.00680 487.2 0.9
490(12) 0.00715 487.1 0.9
533(13) 0.00631 487.0 0.9
482(12) 0.00734 486.9 1.0
519(12) 0.00717 486.7 1.0
481(12) 0.00745 486.6 1.0
484(12) 0.00717 486.5 1.0
516(12) 0.00669 486.4 1.1
505(12) 0.00707 486.3 1.1
502(12) 0.00741 486.1 1.1
495(12) 0.00723 486.0 1.2
522(12) 0.00645 485.9 1.2
507(12) 0.00671 485.8 1.3
471(11) 0.00764 485.7 1.3
494(12) 0.00756 485.5 1.4
496(12) 0.00700 485.4 1.4
521(13) 0.00618 485.3 1.5
500(12) 0.00681 485.2 1.6
496(12) 0.00725 485.1 1.7
483(11) 0.00766 484.9 1.7
497(12) 0.00684 484.8 1.8
491(12) 0.00682 484.7 1.9
494(12) 0.00696 484.6 2.0
483(12) 0.00734 484.5 2.1
480(11) 0.00776 484.4 2.2
493(12) 0.00710 484.2 2.3
510(12) 0.00653 484.1 2.4
532(13) 0.00627 484.0 2.5
481(11) 0.00767 483.9 2.6
497(12) 0.00747 483.8 2.7
507(12) 0.00684 483.6 2.8
527(13) 0.00603 483.5 2.9
515(12) 0.00685 483.4 3.1
494(12) 0.00755 483.3 3.2
488(11) 0.00770 483.2 3.2
499(12) 0.00695 483.0 3.2
485(12) 0.00681 482.9 3.2
512(12) 0.00659 482.8 3.2
472(11) 0.00791 482.7 3.2
477(11) 0.00773 482.6 3.1
523(12) 0.00675 482.4 3.1
510(13) 0.00637 482.3 3.6
465(11) 0.00760 482.2 3.5
477(11) 0.00792 482.1 3.4
499(12) 0.00742 482.0 3.4
511(12) 0.00671 481.8 3.3
480(12) 0.00699 481.7 3.2
494(12) 0.00703 481.6 3.1
485(11) 0.00770 481.5 3.1
496(12) 0.00740 481.4 3.0
512(12) 0.00650 481.3 2.9
484(12) 0.00683 481.1 2.9
494(12) 0.00713 481.0 2.8
493(12) 0.00754 480.9 2.8
500(12) 0.00708 480.8 2.7
464(11) 0.00757 480.7 2.7
497(12) 0.00683 480.5 2.7
478(12) 0.00725 480.4 2.6
505(12) 0.00734 480.3 2.6
495(12) 0.00688 480.2 2.6
477(12) 0.00715 480.1 2.6
476(12) 0.00730 479.9 2.6
489(12) 0.00728 479.8 2.6
495(12) 0.00755 479.7 2.6
501(12) 0.00718 479.6 2.6
497(12) 0.00691 479.5 2.6
497(12) 0.00713 479.3 2.6
490(12) 0.00750 479.2 2.7
515(12) 0.00716 479.1 2.7
493(12) 0.00704 479.0 2.8
452(11) 0.00770 478.9 2.8
471(12) 0.00739 478.7 2.8
482(12) 0.00753 478.6 2.9
454(11) 0.00822 478.5 2.9
460(12) 0.00746 478.4 2.9
504(12) 0.00667 478.3 3.0
506(12) 0.00695 478.1 3.0
494(12) 0.00745 478.0 3.1
499(12) 0.00749 477.9 3.1
461(11) 0.00758 477.8 3.2
487(12) 0.00659 477.7 3.3
482(12) 0.00736 477.6 3.3
500(12) 0.00734 477.4 3.4
467(11) 0.00789 477.3 3.5
488(12) 0.00719 477.2 3.6
486(12) 0.00681 477.1 3.6
510(12) 0.00649 477.0 3.7
473(11) 0.00786 476.8 3.8
474(11) 0.00787 476.7 3.9
479(11) 0.00764 476.6 4.0
494(12) 0.00668 476.5 4.1
511(12) 0.00683 476.4 4.2
490(11) 0.00772 476.2 4.3
461(11) 0.00768 476.1 4.5
471(12) 0.00730 476.0 4.6
480(12) 0.00673 475.9 4.7
461(12) 0.00738 475.8 4.9
469(11) 0.00792 475.6 5.0
488(12) 0.00749 475.5 5.2
472(12) 0.00739 475.4 5.4
478(12) 0.00701 475.3 5.6
501(12) 0.00698 475.2 6.6
488(11) 0.00770 475.0 6.8
472(12) 0.00754 474.9 7.0
417(11) 0.00853 474.8 7.3
480(12) 0.00696 474.7 7.5
481(12) 0.00731 474.6 7.8
461(11) 0.00811 474.5 8.1
493(12) 0.00685 474.3 8.4
477(12) 0.00715 474.2 8.7
476(12) 0.00732 474.1 9.1
475(12) 0.00756 474.0 9.5
474(11) 0.00792 473.9 9.9
471(12) 0.00749 473.7 10.4
479(12) 0.00702 473.6 10.9
482(12) 0.00697 473.5 11.5
484(12) 0.00743 473.4 12.1
481(11) 0.00774 473.3 12.7
465(12) 0.00730 473.1 13.5
482(12) 0.00683 473.0 14.3
499(12) 0.00685 472.9 15.2
488(11) 0.00763 472.8 16.3
488(12) 0.00744 472.7 17.4
500(12) 0.00687 472.5 18.7
505(12) 0.00642 472.4 20.1
494(12) 0.00703 472.3 21.7
486(12) 0.00754 472.2 23.4
488(11) 0.00768 472.1 25.4
476(12) 0.00729 471.9 27.5
506(13) 0.00627 471.8 29.9
483(12) 0.00722 471.7 32.5
478(11) 0.00770 471.6 35.3
526(12) 0.00696 471.5 38.4
505(12) 0.00686 471.3 41.6
517(13) 0.00613 471.2 45.1
477(12) 0.00736 471.1 48.7
501(12) 0.00736 471.0 52.4
510(12) 0.00724 470.9 56.1
503(12) 0.00705 470.8 60.1
519(12) 0.00649 470.6 63.5
513(12) 0.00672 470.5 66.5
521(12) 0.00711 470.4 69.2
522(12) 0.00700 470.3 71.4
565(13) 0.00614 470.2 73.3
510(12) 0.00643 470.0 74.9
514(12) 0.00669 469.9 76.6
527(12) 0.00710 469.8 78.5
550(12) 0.00672 469.7 81.3
541(12) 0.00653 469.6 85.6
549(13) 0.00615 469.4 92.3
544(12) 0.00659 469.3 102.9
570(12) 0.00650 469.2 119.2
576(13) 0.00627 469.1 143.1
619(14) 0.00544 469.0 176.4
631(14) 0.00542 468.8 220.1
704(14) 0.00497 468.7 273.4
741(14) 0.00501 468.6 333.3
839(15) 0.00424 468.5 392.4
893(16) 0.00377 468.4 439.7
944(17) 0.00362 468.2 466.0
927(16) 0.00383 468.1 473.2
911(16) 0.00410 468.0 474.6
879(16) 0.00397 467.9 485.1
884(16) 0.00385 467.8 513.9
928(16) 0.00375 467.7 563.2
1063(17) 0.003358 467.5 628.0
1141(17) 0.003269 467.4 694.8
1258(19) 0.002738 467.3 742.2
1250(19) 0.002636 467.2 748.4
1199(19) 0.002853 467.1 705.4
1115(18) 0.003260 466.9 624.6
1000(16) 0.00371 466.8 526.2
886(16) 0.00386 466.7 427.5
780(15) 0.00426 466.6 338.6
697(14) 0.00504 466.5 264.0
673(14) 0.00547 466.3 204.6
639(13) 0.00583 466.2 159.4
626(13) 0.00561 466.1 125.9
586(13) 0.00556 466.0 101.8
567(13) 0.00600 465.9 84.4
528(12) 0.00685 465.7 71.7
513(12) 0.00723 465.6 62.2
516(12) 0.00662 465.5 55.0
503(12) 0.00652 465.4 49.2
513(12) 0.00693 465.3 44.5
531(12) 0.00702 465.1 40.5
521(12) 0.00712 465.0 37.2
518(12) 0.00656 464.9 34.3
512(13) 0.00632 464.8 31.8
482(12) 0.00741 464.7 29.6
511(12) 0.00724 464.5 27.7
495(12) 0.00736 464.4 26.0
481(12) 0.00716 464.3 24.6
487(12) 0.00668 464.2 23.3
500(12) 0.00684 464.1 22.1
462(11) 0.00799 464.0 21.1
486(11) 0.00758 463.8 20.2
476(12) 0.00745 463.7 19.3
488(12) 0.00683 463.6 18.6
467(12) 0.00748 463.5 18.0
456(11) 0.00810 463.4 17.4
438(11) 0.00826 463.2 16.9
457(12) 0.00748 463.1 16.4
474(12) 0.00692 463.0 16.0
481(12) 0.00707 462.9 15.6
476(11) 0.00780 462.8 15.3
442(11) 0.00813 462.6 15.0
486(12) 0.00692 462.5 14.8
488(12) 0.00689 462.4 14.5
473(12) 0.00729 462.3 14.4
483(11) 0.00770 462.2 14.2
444(11) 0.00801 462.0 14.1
483(12) 0.00670 461.9 14.0
438(11) 0.00798 461.8 13.9
475(12) 0.00742 461.7 13.8
472(11) 0.00784 461.6 13.8
448(11) 0.00776 461.4 13.8
473(12) 0.00704 461.3 13.8
454(11) 0.00771 461.2 13.9
474(11) 0.00762 461.1 14.0
481(11) 0.00773 460.9 14.1
478(12) 0.00695 460.7 14.2
438(11) 0.00768 460.5 14.4
456(11) 0.00768 460.3 14.5
485(12) 0.00749 460.2 14.7
467(11) 0.00801 460.0 15.0
488(12) 0.00716 459.8 15.2
484(12) 0.00661 459.6 15.5
452(11) 0.00769 459.4 15.8
474(11) 0.00768 459.2 16.2
494(11) 0.00756 459.0 16.5
477(12) 0.00739 458.8 16.9
480(12) 0.00660 458.6 17.4
473(12) 0.00720 458.4 17.9
425(11) 0.00866 458.3 18.4
452(11) 0.00821 458.1 19.0
458(12) 0.00754 457.9 19.6
481(12) 0.00673 457.7 20.3
476(12) 0.00743 457.5 21.1
479(11) 0.00771 457.3 21.9
472(11) 0.00785 457.1 22.7
492(12) 0.00723 456.9 23.7
481(12) 0.00673 456.7 24.7
473(12) 0.00732 456.5 25.9
454(11) 0.00821 456.4 27.1
479(11) 0.00763 456.2 28.5
472(12) 0.00745 456.0 29.9
508(13) 0.00631 455.8 31.6
469(12) 0.00753 455.6 33.4
511(12) 0.00723 455.4 35.4
504(12) 0.00713 455.2 37.6
493(12) 0.00691 455.0 40.0
509(12) 0.00657 454.8 42.7
491(12) 0.00694 454.6 45.8
447(11) 0.00837 454.5 49.2
497(12) 0.00718 454.3 53.0
496(12) 0.00686 454.1 57.4
500(12) 0.00689 453.9 62.4
512(12) 0.00691 453.7 68.1
513(12) 0.00727 453.5 74.7
529(12) 0.00678 453.3 82.4
568(13) 0.00595 453.1 91.5
532(12) 0.00664 452.9 102.7
532(12) 0.00680 452.7 116.5
585(12) 0.00640 452.6 134.0
622(13) 0.00569 452.4 156.8
613(13) 0.00564 452.2 186.9
653(14) 0.00517 452.0 227.0
648(13) 0.00565 451.8 280.3
759(14) 0.00493 451.6 350.0
846(16) 0.00405 451.4 439.4
916(16) 0.00370 451.2 550.7
1087(18) 0.003160 451.0 684.3
1191(18) 0.003063 450.8 837.3
1432(20) 0.002605 450.7 1001.6
1653(22) 0.002151 450.5 1161.0
1822(24) 0.001806 450.3 1289.8
1828(23) 0.001881 450.1 1357.8
1754(22) 0.002083 449.9 1345.3
1675(21) 0.002226 449.7 1256.2
1508(21) 0.002290 449.5 1115.5
1317(20) 0.002508 449.3 953.3
1195(18) 0.002931 449.1 792.2
1052(17) 0.003506 448.9 645.9
943(16) 0.00394 448.8 520.4
900(16) 0.00379 448.6 417.4
792(16) 0.00397 448.4 335.7
743(15) 0.00474 448.2 272.9
717(14) 0.00519 448.0 225.8
689(14) 0.00533 447.8 190.8
647(14) 0.00542 447.6 165.1
642(14) 0.00511 447.4 146.2
634(14) 0.00549 447.2 132.2
624(13) 0.00600 447.0 121.9
591(13) 0.00616 446.9 114.3
581(13) 0.00597 446.7 108.9
574(13) 0.00586 446.5 105.4
611(13) 0.00555 446.3 103.5
586(13) 0.00637 446.1 103.4
597(13) 0.00623 445.9 105.1
620(13) 0.00555 445.7 109.0
602(13) 0.00558 445.5 115.8
599(13) 0.00577 445.3 126.3
638(13) 0.00579 445.1 141.9
649(13) 0.00559 445.0 164.1
642(14) 0.00540 444.8 195.0
703(14) 0.00476 444.6 236.5
819(15) 0.00423 444.4 290.3
831(15) 0.00448 444.2 357.4
925(16) 0.00391 444.0 437.1
1003(17) 0.003374 443.8 526.6
1071(18) 0.003178 443.6 618.9
1216(19) 0.002895 443.4 701.7
1322(19) 0.002833 443.2 757.7
1332(20) 0.002564 443.1 770.9
1303(20) 0.002562 442.9 736.7
1236(19) 0.002773 442.7 665.5
1063(17) 0.003413 442.5 574.9
964(16) 0.00385 442.3 480.4
802(15) 0.00438 442.1 392.2
717(15) 0.00467 441.9 315.2
614(13) 0.00579 441.7 251.2
597(13) 0.00611 441.5 200.1
572(12) 0.00656 441.3 160.5
559(13) 0.00614 441.2 130.4
569(13) 0.00573 441.0 108.0
554(13) 0.00634 440.8 91.2
527(12) 0.00699 440.6 78.6
529(12) 0.00708 440.4 68.8
496(12) 0.00725 440.2 61.2
493(12) 0.00683 440.0 55.0
485(12) 0.00726 439.8 49.8
498(12) 0.00739 439.6 45.4
503(12) 0.00738 439.4 41.7
487(12) 0.00705 439.3 38.4
481(12) 0.00648 439.1 35.5
462(12) 0.00743 438.9 33.0
476(11) 0.00786 438.7 30.8
475(11) 0.00761 438.5 28.8
454(11) 0.00762 438.3 27.0
426(11) 0.00785 438.1 25.4
444(11) 0.00798 437.9 23.9
464(11) 0.00798 437.7 22.6
462(11) 0.00804 437.5 21.3
479(12) 0.00717 437.4 20.2
445(11) 0.00764 437.2 19.2
436(11) 0.00808 437.0 18.3
452(11) 0.00830 436.8 17.4
447(11) 0.00817 436.6 16.6
476(12) 0.00733 436.4 15.9
465(12) 0.00711 436.2 15.2
473(12) 0.00726 436.0 14.6
422(11) 0.00879 435.8 14.0
447(11) 0.00800 435.6 13.5
457(12) 0.00750 435.5 12.9
430(11) 0.00796 435.3 12.5
458(12) 0.00747 435.1 12.0
455(11) 0.00818 434.9 11.6
449(11) 0.00793 434.7 11.2
438(11) 0.00796 434.5 10.8
459(11) 0.00760 434.3 10.4
466(12) 0.00746 434.1 10.1
442(11) 0.00843 433.9 9.8
448(11) 0.00757 433.7 9.5
444(11) 0.00780 433.6 9.2
443(11) 0.00779 433.4 8.9
427(11) 0.00844 433.2 8.7
454(11) 0.00814 433.0 8.4
448(11) 0.00775 432.8 8.2
462(12) 0.00723 432.6 8.0
435(11) 0.00781 432.4 7.8
442(11) 0.00816 432.2 7.6
442(11) 0.00847 432.0 7.4
421(11) 0.00801 431.8 7.2
444(11) 0.00776 431.7 7.0
445(11) 0.00780 431.5 6.8
449(11) 0.00805 431.3 6.7
460(11) 0.00798 431.1 6.5
426(11) 0.00839 430.9 6.4
418(11) 0.00772 430.7 6.2
426(11) 0.00814 430.5 6.1
463(11) 0.00798 430.3 6.0
427(11) 0.00871 430.1 5.8
424(11) 0.00831 429.9 5.7
388(11) 0.00836 429.8 5.6
398(11) 0.00861 429.6 5.5
447(11) 0.00825 429.4 5.4
446(11) 0.00826 429.2 5.3
448(11) 0.00782 429.0 5.3
445(12) 0.00721 428.8 5.2
442(11) 0.00811 428.6 5.1
451(11) 0.00821 428.4 5.1
442(11) 0.00848 428.2 5.0
440(11) 0.00805 428.0 5.5
394(11) 0.00872 427.9 5.4
420(11) 0.00819 427.7 5.4
425(11) 0.00871 427.5 5.3
418(11) 0.00887 427.3 5.2
442(11) 0.00793 427.1 5.2
454(12) 0.00737 426.9 5.1
468(12) 0.00725 426.7 5.1
455(11) 0.00821 426.5 5.0
429(11) 0.00828 426.3 4.9
423(11) 0.00834 426.1 4.9
444(11) 0.00765 426.0 4.8
441(11) 0.00787 425.8 4.8
424(11) 0.00887 425.6 4.8
411(11) 0.00880 425.4 4.7
413(11) 0.00834 425.2 4.7
422(11) 0.00821 425.0 4.6
418(11) 0.00839 424.8 4.6
425(11) 0.00881 424.6 4.6
424(11) 0.00835 424.4 4.5
453(11) 0.00762 424.2 4.5
412(11) 0.00846 424.1 4.5
420(11) 0.00849 423.9 4.4
415(11) 0.00891 423.7 4.4
415(11) 0.00851 423.5 4.4
428(11) 0.00789 423.5 4.3
424(11) 0.00815 423.4 4.3
454(11) 0.00801 423.4 4.3
432(11) 0.00852 423.3 4.3
415(11) 0.00838 423.2 4.3
467(12) 0.00709 423.2 4.2
416(11) 0.00847 423.1 4.2
388(10) 0.00920 423.1 4.2
443(11) 0.00836 423.0 4.2
463(12) 0.00737 422.9 4.2
419(11) 0.00810 422.9 4.2
442(11) 0.00767 422.8 4.2
448(11) 0.00806 422.8 4.2
438(11) 0.00843 422.7 4.1
450(11) 0.00770 422.6 4.1
429(12) 0.00756 422.6 4.1
422(11) 0.00842 422.5 4.1
407(10) 0.00920 422.5 4.1
432(11) 0.00843 422.4 4.1
420(11) 0.00837 422.3 4.1
451(12) 0.00701 422.3 4.1
432(11) 0.00799 422.2 4.1
403(10) 0.00923 422.1 4.2
424(11) 0.00892 422.1 4.2
422(11) 0.00838 422.0 4.2
469(12) 0.00687 422.0 4.2
438(11) 0.00812 421.9 4.2
435(11) 0.00854 421.8 4.2
417(11) 0.00893 421.8 4.2
421(11) 0.00825 421.7 4.3
443(12) 0.00748 421.7 4.3
464(12) 0.00730 421.6 4.3
427(11) 0.00870 421.5 4.4
420(11) 0.00875 421.5 4.5
430(11) 0.00807 421.4 4.5
444(11) 0.00766 421.4 4.6
439(11) 0.00815 421.3 4.6
433(11) 0.00860 421.2 4.7
438(11) 0.00799 421.2 4.8
409(11) 0.00814 421.1 4.9
432(11) 0.00806 421.1 5.0
444(11) 0.00789 421.0 5.1
424(11) 0.00879 420.9 5.2
435(11) 0.00775 420.9 5.4
455(12) 0.00738 420.8 5.6
434(11) 0.00798 420.7 5.8
422(11) 0.00869 420.7 6.1
449(11) 0.00832 420.6 6.4
428(11) 0.00821 420.6 6.8
432(11) 0.00757 420.5 7.4
424(11) 0.00824 420.4 8.2
434(11) 0.00814 420.4 9.6
438(11) 0.00849 420.3 12.2
431(11) 0.00809 420.3 17.2
430(11) 0.00762 420.2 26.1
440(11) 0.00775 420.1 40.8
453(11) 0.00801 420.1 62.0
489(11) 0.00766 420.0 88.0
503(12) 0.00696 420.0 114.1
585(13) 0.00559 419.9 132.0
595(13) 0.00582 419.8 133.5
565(13) 0.00637 419.8 117.8
522(12) 0.00721 419.7 92.5
480(12) 0.00722 419.6 66.0
462(12) 0.00696 419.6 44.0
455(11) 0.00772 419.5 28.3
440(11) 0.00846 419.5 18.7
426(11) 0.00871 419.4 13.3
406(11) 0.00893 419.3 10.5
435(12) 0.00734 419.3 9.0
426(11) 0.00799 419.2 8.2
452(11) 0.00815 419.2 7.6
459(11) 0.00813 419.1 7.3
446(11) 0.00769 419.0 7.0
422(11) 0.00782 419.0 6.8
422(11) 0.00817 418.9 6.6
431(11) 0.00865 418.9 6.5
420(11) 0.00883 418.8 6.4
426(11) 0.00828 418.7 6.4
425(11) 0.00777 418.7 6.3
429(11) 0.00792 418.6 6.3
437(11) 0.00857 418.6 6.3
422(11) 0.00872 418.5 6.3
439(11) 0.00779 418.4 6.3
450(12) 0.00726 418.4 6.3
378(10) 0.00923 418.3 6.4
413(11) 0.00893 418.2 6.4
445(11) 0.00809 418.2 6.5
399(11) 0.00878 418.1 6.5
422(11) 0.00789 418.1 6.6
423(11) 0.00824 418.0 6.7
395(10) 0.00945 417.9 6.8
435(11) 0.00824 417.9 6.8
449(12) 0.00753 417.8 6.9
433(11) 0.00789 417.8 7.1
427(11) 0.00832 417.9 7.2
427(11) 0.00874 417.9 7.3
416(11) 0.00833 417.9 7.4
402(11) 0.00880 417.9 7.6
419(11) 0.00836 417.9 7.6
442(11) 0.00814 418.0 7.7
443(11) 0.00840 418.0 7.9
431(11) 0.00809 418.0 8.1
444(11) 0.00760 418.0 8.3
427(11) 0.00858 418.1 8.5
452(11) 0.00806 418.1 8.7
419(11) 0.00887 418.1 8.9
404(11) 0.00840 418.1 9.2
419(11) 0.00764 418.2 9.4
428(11) 0.00811 418.2 9.7
416(11) 0.00864 418.2 10.0
409(11) 0.00906 418.2 10.3
413(11) 0.00853 418.2 10.7
443(12) 0.00721 418.3 11.0
437(11) 0.00796 418.3 11.4
426(11) 0.00856 418.3 11.9
420(11) 0.00890 418.3 12.3
421(11) 0.00848 418.4 12.8
420(11) 0.00800 418.4 13.4
414(11) 0.00835 418.4 14.0
423(11) 0.00883 418.4 14.7
410(11) 0.00906 418.5 15.4
436(11) 0.00804 418.5 16.2
449(12) 0.00723 418.5 17.1
468(12) 0.00723 418.5 18.0
406(11) 0.00904 418.5 19.1
439(11) 0.00843 418.6 20.4
426(11) 0.00819 418.6 21.8
429(11) 0.00771 418.6 23.4
465(12) 0.00751 418.6 25.4
456(11) 0.00811 418.7 27.7
435(11) 0.00862 418.7 30.4
468(12) 0.00710 418.7 33.9
471(12) 0.00703 418.7 38.1
462(11) 0.00763 418.8 43.5
464(11) 0.00797 418.8 50.3
485(12) 0.00753 418.8 58.7
480(12) 0.00717 418.8 69.2
486(12) 0.00696 418.8 81.9
511(12) 0.00674 418.9 97.1
503(12) 0.00742 418.9 114.6
544(12) 0.00647 418.9 134.3
566(13) 0.00598 418.9 155.1
563(13) 0.00630 419.0 175.6
616(13) 0.00591 419.0 193.3
662(13) 0.00559 419.0 205.0
654(14) 0.00542 419.0 208.5
641(14) 0.00530 419.1 203.2
605(13) 0.00574 419.1 190.5
600(13) 0.00584 419.1 173.6
574(12) 0.00649 419.1 155.2
560(13) 0.00621 419.1 137.6
543(13) 0.00614 419.2 121.8
503(12) 0.00695 419.2 108.7
502(12) 0.00717 419.2 98.4
493(12) 0.00755 419.2 91.0
498(12) 0.00697 419.3 86.3
504(12) 0.00665 419.3 84.1
491(12) 0.00711 419.3 84.3
497(12) 0.00737 419.3 86.5
503(12) 0.00742 419.4 90.7
523(12) 0.00679 419.4 96.7
522(13) 0.00620 419.4 104.3
513(12) 0.00684 419.4 113.5
562(12) 0.00651 419.4 124.1
602(13) 0.00613 419.5 135.8
590(13) 0.00597 419.5 148.3
569(13) 0.00569 419.5 161.0
615(13) 0.00571 419.5 173.4
635(13) 0.00586 419.6 184.4
670(13) 0.00552 419.6 192.8
671(14) 0.00513 419.6 197.9
601(14) 0.00547 419.6 198.7
609(13) 0.00583 419.7 195.2
629(13) 0.00591 419.7 187.8
575(13) 0.00639 419.7 177.3
593(13) 0.00587 419.7 164.7
583(13) 0.00571 419.7 151.1
580(13) 0.00603 419.8 137.4
550(12) 0.00680 419.8 124.0
561(12) 0.00646 419.8 111.4
514(12) 0.00682 419.8 99.8
494(12) 0.00690 419.9 89.4
519(12) 0.00664 419.9 80.1
487(11) 0.00761 419.9 71.9
465(11) 0.00777 419.9 64.8
478(12) 0.00741 420.0 58.6
475(12) 0.00717 420.0 53.3
454(12) 0.00749 420.0 48.8
459(11) 0.00815 420.0 45.0
469(11) 0.00757 420.0 41.7
447(11) 0.00765 420.1 38.9
460(12) 0.00740 420.1 36.6
447(11) 0.00802 420.1 34.6
432(11) 0.00862 420.1 32.9
445(11) 0.00784 420.2 31.5
460(12) 0.00721 420.2 30.3
424(11) 0.00814 420.2 29.2
430(11) 0.00832 420.2 28.3
456(11) 0.00824 420.3 27.6
432(11) 0.00802 420.3 27.0
430(11) 0.00782 420.3 26.4
439(11) 0.00768 420.3 26.0
448(11) 0.00818 420.3 25.7
445(11) 0.00823 420.4 25.4
411(11) 0.00842 420.4 25.2
425(11) 0.00776 420.4 25.1
410(11) 0.00846 420.4 25.0
428(11) 0.00842 420.5 25.1
429(11) 0.00861 420.5 25.1
414(11) 0.00848 420.5 25.3
434(12) 0.00738 420.5 25.5
444(11) 0.00773 420.6 25.8
438(11) 0.00850 420.6 26.1
410(11) 0.00899 420.6 26.5
413(11) 0.00835 420.6 27.0
445(12) 0.00745 420.6 27.6
433(11) 0.00809 420.7 28.2
425(11) 0.00860 420.7 28.9
433(11) 0.00860 420.6 29.7
453(11) 0.00778 420.4 30.5
418(11) 0.00790 420.2 31.4
436(11) 0.00762 420.0 32.4
419(11) 0.00884 419.8 33.5
433(11) 0.00850 419.6 34.7
408(11) 0.00844 419.4 35.9
431(11) 0.00781 419.2 37.2
438(11) 0.00812 418.9 38.5
423(11) 0.00883 418.7 39.8
412(11) 0.00901 418.5 41.3
435(11) 0.00800 418.3 42.7
419(11) 0.00801 418.1 44.2
443(11) 0.00782 417.9 45.7
440(11) 0.00847 417.7 47.3
454(11) 0.00785 417.5 49.0
448(11) 0.00759 417.3 50.8
456(12) 0.00719 417.1 52.7
478(12) 0.00721 416.9 54.7
448(11) 0.00823 416.7 57.0
431(11) 0.00839 416.5 59.3
411(11) 0.00868 416.3 61.6
462(12) 0.00737 416.1 63.9
424(11) 0.00835 415.9 66.0
432(11) 0.00862 415.6 68.0
443(11) 0.00797 415.4 69.8
453(11) 0.00768 415.2 71.4
460(12) 0.00750 415.0 73.2
445(11) 0.00785 414.8 75.2
435(11) 0.00858 414.6 77.6
434(11) 0.00790 414.4 80.5
442(11) 0.00760 414.2 83.9
443(11) 0.00781 414.0 88.0
473(11) 0.00760 413.8 92.9
458(11) 0.00811 413.6 98.7
499(12) 0.00685 413.4 105.5
508(12) 0.00641 413.2 113.4
494(12) 0.00687 413.0 122.6
525(12) 0.00696 412.8 133.3
502(12) 0.00742 412.6 145.7
525(12) 0.00650 412.3 159.9
566(13) 0.00576 412.1 176.2
539(12) 0.00641 411.9 194.9
542(12) 0.00671 411.7 216.1
556(12) 0.00665 411.5 240.2
621(13) 0.00562 411.3 267.2
618(14) 0.00544 411.1 297.3
680(14) 0.00495 410.9 330.6
670(13) 0.00557 410.7 367.1
718(14) 0.00522 410.5 406.5
748(15) 0.00474 410.3 448.4
860(16) 0.00371 410.1 492.1
908(16) 0.00376 409.9 536.3
888(16) 0.00414 409.7 579.3
954(16) 0.00393 409.5 619.1
1002(17) 0.003505 409.3 653.0
1002(17) 0.003384 409.0 678.5
1009(17) 0.003486 408.8 693.3
983(16) 0.00377 408.6 695.9
965(16) 0.00379 408.4 686.3
947(17) 0.00365 408.2 665.5
906(16) 0.00372 408.0 635.7
886(16) 0.00388 407.8 599.3
847(15) 0.00439 407.6 558.9
848(15) 0.00431 407.4 516.9
742(14) 0.00477 407.2 475.1
727(15) 0.00463 407.0 434.7
739(14) 0.00476 406.8 396.7
726(14) 0.00509 406.6 361.5
703(14) 0.00503 406.4 329.5
685(14) 0.00500 406.2 300.5
679(14) 0.00500 406.0 274.7
661(14) 0.00524 405.7 251.9
630(13) 0.00591 405.5 231.9
631(13) 0.00554 405.3 214.4
627(14) 0.00537 405.1 199.1
589(13) 0.00597 404.9 185.9
594(13) 0.00610 404.7 174.5
579(12) 0.00641 404.5 164.6
568(13) 0.00608 404.3 155.9
537(13) 0.00629 404.1 148.4
571(13) 0.00603 403.9 141.7
558(13) 0.00636 403.7 135.7
550(12) 0.00674 403.5 130.4
541(12) 0.00656 403.3 125.5
551(13) 0.00599 403.1 121.0
497(12) 0.00683 402.9 116.7
481(12) 0.00748 402.7 112.8
510(12) 0.00722 402.4 109.1
484(12) 0.00714 402.2 105.5
484(12) 0.00693 402.0 102.2
513(12) 0.00677 401.8 99.1
472(11) 0.00783 401.6 96.2
501(12) 0.00742 401.4 93.5
499(12) 0.00708 401.2 91.1
476(12) 0.00711 401.0 88.9
495(12) 0.00705 400.8 87.1
501(12) 0.00733 400.6 85.6
479(11) 0.00776 400.4 84.4
512(12) 0.00658 400.2 83.7
490(12) 0.00652 400.0 83.4
483(12) 0.00724 399.8 83.6
476(11) 0.00776 399.6 84.3
489(12) 0.00756 399.4 85.6
491(12) 0.00710 399.1 87.4
482(12) 0.00669 398.9 89.8
489(12) 0.00690 398.7 92.7
467(11) 0.00781 398.5 96.0
459(11) 0.00810 398.3 99.8
494(12) 0.00720 398.1 103.8
543(13) 0.00584 397.9 107.9
512(12) 0.00666 397.7 111.7
514(12) 0.00728 397.5 114.8
521(12) 0.00705 397.3 116.9
532(12) 0.00648 397.1 117.6
499(12) 0.00665 396.9 116.7
514(12) 0.00672 396.7 114.1
525(12) 0.00710 396.5 110.1
514(12) 0.00705 396.3 104.8
529(13) 0.00640 396.1 98.6
516(12) 0.00643 395.8 92.0
498(12) 0.00697 395.6 85.2
472(11) 0.00792 395.4 78.6
463(11) 0.00773 395.2 72.2
450(11) 0.00777 395.0 66.2
436(11) 0.00775 394.8 60.7
409(11) 0.00884 394.6 55.6
446(11) 0.00841 394.4 51.0
446(11) 0.00803 394.2 46.9
429(11) 0.00791 394.0 43.2
416(11) 0.00828 393.8 40.0
441(11) 0.00813 393.6 37.1
424(11) 0.00870 393.4 34.5
422(11) 0.00817 393.2 32.2
417(11) 0.00807 393.0 30.2
406(11) 0.00827 392.8 28.4
400(11) 0.00895 392.5 26.9
441(11) 0.00843 392.3 25.4
412(11) 0.00833 392.1 24.2
438(12) 0.00719 391.9 23.0
397(11) 0.00886 391.7 22.0
435(11) 0.00835 391.5 21.0
420(11) 0.00894 391.3 20.2
403(11) 0.00880 391.1 19.4
395(11) 0.00837 390.9 18.6
422(11) 0.00820 390.7 17.9
377(10) 0.00989 390.5 17.3
391(10) 0.00950 390.3 16.7
396(11) 0.00868 390.1 16.1
379(11) 0.00863 389.9 15.6
417(11) 0.00813 389.7 15.1
411(11) 0.00891 389.5 14.7
401(11) 0.00904 389.2 14.2
372(10) 0.00949 389.0 13.8
392(11) 0.00817 388.8 13.4
402(11) 0.00872 388.6 13.0
426(11) 0.00881 388.4 12.7
380(10) 0.00959 388.2 12.3
406(11) 0.00852 388.0 12.0
410(11) 0.00797 387.8 11.7
423(11) 0.00842 387.6 11.4
404(10) 0.00915 387.4 11.1
389(10) 0.00930 387.2 10.8
378(10) 0.00922 387.0 10.5
383(11) 0.00874 386.8 10.3
394(11) 0.00882 386.6 10.1
372(10) 0.00994 386.4 9.8
398(10) 0.00928 386.2 9.6
380(10) 0.00942 385.9 9.4
396(11) 0.00857 385.7 9.2
374(10) 0.00953 385.5 9.0
398(10) 0.00937 385.3 8.8
385(10) 0.00962 385.1 8.6
370(10) 0.00963 384.9 8.4
408(11) 0.00804 384.7 8.2
384(10) 0.00942 384.5 8.1
370(10) 0.00999 384.3 7.9
403(11) 0.00877 384.1 7.8
384(11) 0.00888 383.9 7.6
384(11) 0.00896 383.7 7.5
404(11) 0.00880 383.5 7.3
404(10) 0.00920 383.3 7.2
405(11) 0.00844 383.1 7.1
363(10) 0.00931 382.9 6.9
387(11) 0.00876 382.6 6.8
405(11) 0.00886 382.4 6.7
398(10) 0.00935 382.2 6.6
365(10) 0.00948 382.0 6.5
377(11) 0.00864 381.8 6.4
396(11) 0.00849 381.6 6.2
370(10) 0.00990 381.4 6.1
391(10) 0.00958 381.2 6.0
395(11) 0.00887 381.0 5.9
360(10) 0.00980 380.8 5.8
404(11) 0.00862 380.6 5.7
405(11) 0.00905 380.4 5.7
367(10) 0.01021 380.2 5.6
382(10) 0.00927 380.0 5.5
383(11) 0.00828 379.8 5.4
357(10) 0.00998 379.6 5.3
370(10) 0.00988 379.3 5.2
403(10) 0.00931 379.1 5.2
382(10) 0.00928 378.9 5.1
383(11) 0.00848 378.7 5.0
382(10) 0.00918 378.5 4.9
380(10) 0.00971 378.3 4.9
399(10) 0.00914 378.1 4.8
390(10) 0.00911 377.9 4.7
383(11) 0.00864 377.7 4.7
362(10) 0.00980 377.5 4.6
396(10) 0.00945 377.3 4.5
385(10) 0.00958 377.1 4.5
394(11) 0.00868 376.9 4.4
370(10) 0.00911 376.7 4.3
374(10) 0.00938 376.5 4.3
386(10) 0.00958 376.3 4.2
382(10) 0.00936 376.0 4.2
376(10) 0.00930 375.8 4.1
374(11) 0.00890 375.6 4.1
390(11) 0.00880 375.4 4.0
379(10) 0.00977 375.2 4.0
404(11) 0.00881 375.0 3.9
402(11) 0.00865 374.8 3.9
390(11) 0.00884 374.6 3.8
404(11) 0.00861 374.4 3.8
393(10) 0.00937 374.2 3.7
388(11) 0.00898 374.0 3.7
359(10) 0.00967 373.8 3.6
381(11) 0.00880 373.6 3.6
401(11) 0.00863 373.4 3.6
404(10) 0.00912 373.2 3.5
366(10) 0.00954 373.0 3.5
396(11) 0.00877 372.8 3.4
392(11) 0.00884 372.5 3.4
370(10) 0.00945 372.3 3.4
381(10) 0.00960 372.1 3.3
375(10) 0.00929 371.9 3.3
396(11) 0.00841 371.7 3.2
387(10) 0.00913 371.5 3.2
396(11) 0.00905 371.3 3.2
348(10) 0.01057 371.1 3.1
373(10) 0.00927 370.9 3.1
364(10) 0.00919 370.7 3.1
396(11) 0.00880 370.5 3.0
392(10) 0.00931 370.3 3.0
369(10) 0.01008 370.1 3.0
357(10) 0.00968 369.9 2.9
394(11) 0.00807 369.7 2.9
397(11) 0.00851 369.5 2.9
378(10) 0.00962 369.2 2.9
393(10) 0.00950 369.0 2.8
377(10) 0.00930 368.8 2.8
395(11) 0.00844 368.6 2.8
381(10) 0.00926 368.4 2.7
327(9) 0.01116 368.2 2.7
363(10) 0.01014 368.0 2.7
374(10) 0.00938 367.8 2.7
367(10) 0.00912 367.6 2.7
390(11) 0.00899 367.4 2.7
376(10) 0.00980 367.2 2.6
358(10) 0.00995 367.0 2.6
355(10) 0.01009 366.8 2.6
388(11) 0.00836 366.6 2.6
376(10) 0.00915 366.4 2.6
379(10) 0.00977 366.2 2.5
358(10) 0.01011 365.9 2.5
369(10) 0.00948 365.9 2.5
365(10) 0.00925 365.8 2.5
359(10) 0.00963 365.8 2.4
370(10) 0.01011 365.7 2.4
384(10) 0.00921 365.6 2.4
381(11) 0.00903 365.6 2.4
373(10) 0.00925 365.5 2.4
385(11) 0.00896 365.5 2.4
362(10) 0.01028 365.4 2.3
381(10) 0.00949 365.4 2.3
367(10) 0.00949 365.3 2.3
391(11) 0.00850 365.3 2.3
366(10) 0.00972 365.2 2.3
392(10) 0.00951 365.1 2.2
351(10) 0.01007 365.1 2.2
382(11) 0.00883 365.0 2.2
367(10) 0.00942 365.0 2.2
378(10) 0.00952 364.9 2.2
356(10) 0.01045 364.9 2.2
386(11) 0.00878 364.8 2.2
369(10) 0.00908 364.8 2.1
376(11) 0.00903 364.7 2.1
372(10) 0.01001 364.6 2.1
383(10) 0.00970 364.6 2.1
353(10) 0.00963 364.5 2.1
362(11) 0.00906 364.5 2.1
396(11) 0.00837 364.4 2.1
373(10) 0.00987 364.4 2.0
387(10) 0.00953 364.3 2.0
394(11) 0.00858 364.3 2.0
389(11) 0.00855 364.2 2.0
371(10) 0.00963 364.1 2.0
398(10) 0.00938 364.1 2.0
373(10) 0.00998 364.0 2.0
392(11) 0.00871 364.0 2.0
343(10) 0.00988 363.9 1.9
358(10) 0.00970 363.9 1.9
392(10) 0.00933 363.8 1.9
356(10) 0.01027 363.8 1.9
366(10) 0.00934 363.7 1.9
366(11) 0.00878 363.6 1.9
363(10) 0.00954 363.6 1.9
346(10) 0.01082 363.5 1.9
352(10) 0.01015 363.5 1.9
365(10) 0.00970 363.4 1.8
373(11) 0.00880 363.4 1.8
381(11) 0.00883 363.3 1.8
369(10) 0.01003 363.3 1.8
372(10) 0.00972 363.2 1.8
385(11) 0.00896 363.1 1.8
378(11) 0.00888 363.1 1.8
398(11) 0.00864 363.0 1.8
387(10) 0.00957 363.0 1.8
372(10) 0.00983 362.9 1.8
397(11) 0.00858 362.9 1.8
366(10) 0.00936 362.8 1.7
356(10) 0.00996 362.7 1.7
346(10) 0.01067 362.7 1.7
359(10) 0.01026 362.6 1.7
382(11) 0.00876 362.6 1.7
372(11) 0.00900 362.5 1.7
370(10) 0.00956 362.5 1.7
371(10) 0.01011 362.4 1.7
350(10) 0.01006 362.4 1.7
378(11) 0.00877 362.3 1.7
354(10) 0.00958 362.2 1.7
364(10) 0.00983 362.2 1.7
394(10) 0.00943 362.1 1.7
386(11) 0.00894 362.1 1.7
373(11) 0.00886 362.0 1.7
348(10) 0.00976 362.0 1.7
353(10) 0.01035 361.9 1.7
375(10) 0.00994 361.9 1.7
340(10) 0.01008 361.8 1.6
351(10) 0.00926 361.7 1.6
379(11) 0.00877 361.7 1.6
352(10) 0.01032 361.6 1.6
344(10) 0.01086 361.6 1.6
368(10) 0.00945 361.5 1.6
382(11) 0.00886 361.5 1.6
386(11) 0.00890 361.4 1.6
363(10) 0.01020 361.4 1.6
372(10) 0.01005 361.3 1.6
353(10) 0.00966 361.2 1.6
368(11) 0.00839 361.2 1.6
353(10) 0.00983 361.1 1.6
393(10) 0.00948 361.1 1.6
382(10) 0.00962 361.0 1.6
394(11) 0.00879 361.0 1.6
355(10) 0.00951 360.9 1.6
356(10) 0.01002 360.9 1.6
335(9) 0.01126 360.8 1.6
351(10) 0.01050 360.7 1.6
376(10) 0.00940 360.7 1.6
370(11) 0.00897 360.6 1.6
372(10) 0.00918 360.6 1.6
364(10) 0.01040 360.5 1.6
386(10) 0.00938 360.5 1.6
375(10) 0.00945 360.4 1.6
369(10) 0.00931 360.4 1.6
362(10) 0.00960 360.3 1.6
371(10) 0.01003 360.2 1.6
375(10) 0.00947 360.2 1.6
375(10) 0.00915 360.1 1.6
378(11) 0.00900 360.1 1.6
378(10) 0.00909 360.0 1.6
367(10) 0.01012 360.0 1.6
364(10) 0.00985 359.9 1.6
371(10) 0.00920 359.9 1.6
381(11) 0.00871 359.8 1.7
379(10) 0.00940 359.7 1.7
384(10) 0.00967 359.7 1.7
329(9) 0.01121 359.6 1.7
368(10) 0.00927 359.6 1.7
353(10) 0.00978 359.5 1.7
395(11) 0.00880 359.5 1.7
347(10) 0.01063 359.4 1.7
364(10) 0.00958 359.4 1.7
366(10) 0.00936 359.3 1.7
352(10) 0.00959 359.2 1.8
374(10) 0.00957 359.2 1.8
384(10) 0.00971 359.1 1.8
364(10) 0.00939 359.1 1.8
352(10) 0.00965 359.0 1.8
366(10) 0.00938 359.0 1.9
354(10) 0.01037 358.9 1.9
352(10) 0.01069 358.9 1.9
353(10) 0.01004 358.8 2.0
369(11) 0.00883 358.7 2.0
363(10) 0.00985 358.7 2.0
387(10) 0.00924 358.6 2.1
363(10) 0.01021 358.6 2.1
365(10) 0.00957 358.5 2.2
363(11) 0.00903 358.5 2.3
371(10) 0.00952 358.4 2.4
374(10) 0.01008 358.4 2.5
360(10) 0.01039 358.3 2.6
364(10) 0.00942 358.2 2.8
340(10) 0.00957 358.2 3.0
375(10) 0.00934 358.1 3.4
367(10) 0.00999 358.1 4.1
404(11) 0.00903 358.0 5.0
367(10) 0.00937 358.0 6.5
358(10) 0.00926 357.9 8.4
388(10) 0.00913 357.9 10.8
363(10) 0.01026 357.8 13.5
377(10) 0.00973 357.7 16.0
385(10) 0.00907 357.7 17.6
385(11) 0.00892 357.6 17.6
369(10) 0.00932 357.6 16.1
369(10) 0.01011 357.5 13.7
377(10) 0.00933 357.5 11.0
365(10) 0.00929 357.4 8.7
376(11) 0.00891 357.4 6.9
360(10) 0.00968 357.3 5.6
344(10) 0.01076 357.2 4.7
383(10) 0.00919 357.2 4.1
381(10) 0.00914 357.1 3.8
382(11) 0.00868 357.1 3.7
352(10) 0.01013 357.0 3.6
350(10) 0.01054 357.0 3.6
375(10) 0.00953 356.9 3.6
381(11) 0.00881 356.9 3.6
359(10) 0.00955 356.8 3.7
358(10) 0.01009 356.7 3.7
379(10) 0.00974 356.7 3.8
364(10) 0.00966 356.6 3.9
341(10) 0.01022 356.6 4.0
383(11) 0.00896 356.5 4.1
352(10) 0.01034 356.5 4.3
360(10) 0.01029 356.4 4.4
350(10) 0.00995 356.4 4.6
365(11) 0.00902 356.3 4.7
374(10) 0.00925 356.2 4.9
371(10) 0.00976 356.2 5.1
384(10) 0.00972 356.1 5.3
344(10) 0.01022 356.1 5.5
370(11) 0.00885 356.0 5.7
386(11) 0.00876 356.0 5.9
334(10) 0.01091 355.9 6.2
378(10) 0.00996 355.9 6.4
389(10) 0.00913 355.8 6.6
375(11) 0.00880 355.7 6.9
363(10) 0.00974 355.7 7.1
368(10) 0.01009 355.6 7.4
369(10) 0.01014 355.6 7.6
365(10) 0.00975 355.5 7.9
364(11) 0.00893 355.5 8.1
373(10) 0.00942 355.4 8.3
372(10) 0.00995 355.4 8.5
374(10) 0.00997 355.3 8.7
377(10) 0.00933 355.2 8.8
388(11) 0.00828 355.2 8.9
377(10) 0.00918 355.1 9.0
392(10) 0.00956 355.1 9.1
391(10) 0.00929 355.0 9.1
367(10) 0.00949 355.0 9.1
352(10) 0.00973 354.9 9.0
410(11) 0.00817 354.9 8.9
363(10) 0.01020 354.8 8.8
382(10) 0.00974 354.7 8.7
352(10) 0.01031 354.7 8.5
375(11) 0.00899 354.6 8.3
375(11) 0.00905 354.6 8.1
395(10) 0.00934 354.5 7.9
374(10) 0.00974 354.5 7.7
367(10) 0.00930 354.4 7.4
375(10) 0.00915 354.4 7.2
353(10) 0.00980 354.3 7.0
356(10) 0.01049 354.2 6.8
380(10) 0.00922 354.2 6.5
396(11) 0.00869 354.1 6.3
352(10) 0.00995 354.1 6.1
357(10) 0.00968 354.0 5.9
365(10) 0.01011 354.0 5.7
363(10) 0.00976 353.9 5.5
339(10) 0.01027 353.9 5.3
375(10) 0.00946 353.8 5.2
359(10) 0.01019 353.7 5.0
360(10) 0.01029 353.7 4.9
334(10) 0.01061 353.6 4.8
351(10) 0.00971 353.6 4.7
371(10) 0.00926 353.5 4.6
366(10) 0.00988 353.5 4.5
356(10) 0.01043 353.4 4.4
371(10) 0.00960 353.4 4.3
391(11) 0.00831 353.3 4.3
381(10) 0.00910 353.2 4.2
373(10) 0.00998 353.2 4.2
336(10) 0.01107 353.1 4.2
345(10) 0.00999 353.1 4.2
377(11) 0.00881 353.0 4.3
352(10) 0.01009 353.0 4.3
355(10) 0.01050 352.9 4.4
361(10) 0.01023 352.9 4.5
325(10) 0.01105 352.8 4.7
371(11) 0.00858 352.7 4.9
343(10) 0.01044 352.7 5.2
364(10) 0.01015 352.6 5.6
352(10) 0.01020 352.6 6.0
357(10) 0.00971 352.5 6.6
362(10) 0.00912 352.5 7.4
359(10) 0.00967 352.4 8.3
366(10) 0.01014 352.4 9.4
363(10) 0.01011 352.3 10.8
379(11) 0.00896 352.2 12.4
342(10) 0.00971 352.2 14.2
362(10) 0.00963 352.1 16.2
350(10) 0.01057 352.1 18.3
349(10) 0.01047 352.0 20.3
361(10) 0.00970 352.0 22.0
369(11) 0.00863 351.9 23.2
369(10) 0.00961 351.9 23.5
343(10) 0.01094 351.8 22.9
362(10) 0.00974 351.7 21.6
352(10) 0.00975 351.7 19.8
377(11) 0.00858 351.6 17.7
346(10) 0.01017 351.6 15.6
371(10) 0.00997 351.5 13.6
351(10) 0.01010 351.5 11.8
352(10) 0.00977 351.4 10.3
368(10) 0.00946 351.3 9.0
358(10) 0.00983 351.3 7.9
337(10) 0.01104 351.2 7.0
334(10) 0.01052 351.2 6.3
369(10) 0.00946 351.1 5.7
351(10) 0.01024 351.1 5.2
361(10) 0.01011 351.0 4.9
341(10) 0.01083 350.9 4.6
349(10) 0.01011 350.9 4.4
372(11) 0.00891 350.8 4.2
356(10) 0.00944 350.8 4.1
323(9) 0.01118 350.7 3.9
359(10) 0.01033 350.7 3.9
351(10) 0.00977 350.6 3.8
340(10) 0.00987 350.5 3.7
360(10) 0.00921 350.5 3.7
342(10) 0.01094 350.4 3.7
368(10) 0.01009 350.4 3.7
370(10) 0.00951 350.3 3.7
347(10) 0.00993 350.2 3.7
354(10) 0.00995 350.2 3.8
348(10) 0.01057 350.1 3.8
336(9) 0.01114 350.1 3.9
342(10) 0.01022 350.0 4.0
360(11) 0.00902 350.0 4.1
357(10) 0.00985 349.9 4.3
346(10) 0.01085 349.8 4.4
338(10) 0.01094 349.8 4.6
364(10) 0.00952 349.7 4.8
361(10) 0.00913 349.7 5.1
350(10) 0.01005 349.6 5.4
366(10) 0.01021 349.6 5.7
344(10) 0.01086 349.5 6.0
381(11) 0.00901 349.4 6.4
338(10) 0.00983 349.4 6.8
359(10) 0.00974 349.3 7.3
354(10) 0.01059 349.3 7.8
379(10) 0.00967 349.2 8.4
363(10) 0.00959 349.1 9.0
325(10) 0.01034 349.1 9.6
346(10) 0.00997 349.0 10.3
361(10) 0.01038 349.0 10.9
357(10) 0.01020 348.9 11.6
364(10) 0.00960 348.9 12.3
349(10) 0.00996 348.8 12.8
356(10) 0.01013 348.7 13.3
358(10) 0.01034 348.7 13.7
370(10) 0.00986 348.6 14.0
359(10) 0.00967 348.6 14.1
375(11) 0.00906 348.5 14.0
381(11) 0.00890 348.5 13.8
368(10) 0.01007 348.4 13.4
360(10) 0.00951 348.3 12.9
360(10) 0.00923 348.3 12.3
331(10) 0.01012 348.2 11.7
326(9) 0.01117 348.2 11.1
351(10) 0.01059 348.1 10.4
332(10) 0.01039 348.0 9.8
332(10) 0.01023 348.0 9.2
342(10) 0.01034 347.9 8.6
331(9) 0.01112 347.9 8.1
362(10) 0.01027 347.8 7.6
329(10) 0.01058 347.8 7.1
356(10) 0.00922 347.7 6.7
338(10) 0.01028 347.6 6.3
331(10) 0.01077 347.6 6.0
329(9) 0.01132 347.5 5.7
347(10) 0.00975 347.5 5.4
356(11) 0.00899 347.4 5.2
325(10) 0.01078 347.4 5.0
320(9) 0.01167 347.3 4.9
337(10) 0.01099 347.2 4.7
345(10) 0.00990 347.2 4.6
339(10) 0.00929 347.1 4.5
353(10) 0.00984 347.1 4.4
333(10) 0.01106 347.0 4.4
342(10) 0.01085 347.0 4.3
346(10) 0.01021 346.9 4.3
353(10) 0.00912 346.8 4.3
337(10) 0.00990 346.8 4.3
341(10) 0.01084 346.7 4.3
344(10) 0.01079 346.7 4.3
348(10) 0.01027 346.6 4.4
374(11) 0.00882 346.5 4.4
349(10) 0.01006 346.5 4.5
351(10) 0.01061 346.4 4.5
339(10) 0.01097 346.4 4.6
344(10) 0.01008 346.3 4.7
336(10) 0.01010 346.3 4.8
371(10) 0.00911 346.2 4.9
339(10) 0.01102 346.1 5.0
332(10) 0.01089 346.1 5.2
351(10) 0.00985 346.0 5.3
352(10) 0.00940 346.0 5.5
338(10) 0.01055 345.9 5.6
320(9) 0.01165 345.9 5.8
363(10) 0.00977 345.8 6.0
343(10) 0.01036 345.7 6.2
368(10) 0.00928 345.7 6.4
359(10) 0.00971 345.6 6.6
354(10) 0.01049 345.6 6.8
335(10) 0.01081 345.5 7.0
342(10) 0.01005 345.4 7.3
356(10) 0.00952 345.4 7.5
354(10) 0.00987 345.3 7.7
342(10) 0.01090 345.3 7.9
357(10) 0.00990 345.2 8.0
355(10) 0.00951 345.2 8.2
367(10) 0.00944 345.1 8.3
358(10) 0.00985 345.0 8.5
354(10) 0.01062 345.0 8.6
330(10) 0.01051 344.9 8.6
367(10) 0.00908 344.9 8.6
350(10) 0.01025 344.8 8.7
334(10) 0.01068 344.8 8.6
341(10) 0.01099 344.7 8.6
310(9) 0.01153 344.6 8.5
332(10) 0.00979 344.6 8.5
356(10) 0.00922 344.5 8.4
337(10) 0.01066 344.5 8.3
377(10) 0.00990 344.4 8.2
370(10) 0.00959 344.3 8.1
351(10) 0.00933 344.3 8.0
343(10) 0.01033 344.2 7.9
347(10) 0.01071 344.2 7.8
336(9) 0.01113 344.1 7.7
336(10) 0.01052 344.1 7.7
334(10) 0.00977 344.0 7.6
346(10) 0.00980 343.9 7.6
325(9) 0.01130 343.9 7.5
327(9) 0.01145 343.8 7.5
369(10) 0.00941 343.8 7.5
347(10) 0.00948 343.7 7.6
351(10) 0.01001 343.7 7.6
324(9) 0.01152 343.6 7.7
354(10) 0.01038 343.5 7.7
357(10) 0.00975 343.5 7.8
362(11) 0.00892 343.4 7.9
343(10) 0.01012 343.4 8.1
350(10) 0.01055 343.3 8.2
327(10) 0.01104 343.3 8.4
331(10) 0.01001 343.2 8.6
363(10) 0.00926 343.1 8.8
350(10) 0.00972 343.1 9.1
328(9) 0.01145 343.0 9.4
324(9) 0.01123 343.0 9.7
349(10) 0.01008 342.9 10.0
342(10) 0.01008 342.8 10.3
338(10) 0.01039 342.8 10.7
363(10) 0.01023 342.7 11.0
344(10) 0.01047 342.7 11.4
351(10) 0.00950 342.6 11.8
323(10) 0.01048 342.6 12.2
329(10) 0.01060 342.5 12.7
363(10) 0.01030 342.4 13.2
351(10) 0.00996 342.4 13.8
352(10) 0.00970 342.3 14.4
354(10) 0.00981 342.3 15.1
365(10) 0.00983 342.2 15.9
340(10) 0.01081 342.2 16.7
341(10) 0.01032 342.1 17.7
351(10) 0.00965 342.0 18.7
365(10) 0.00965 342.0 19.9
363(10) 0.00993 341.9 21.2
361(10) 0.01033 341.9 22.7
352(10) 0.00987 341.8 24.3
338(10) 0.00981 341.7 26.1
346(10) 0.00988 341.7 28.0
357(10) 0.01036 341.6 30.1
344(10) 0.01087 341.6 32.5
363(10) 0.00992 341.5 35.0
366(10) 0.00916 341.5 37.8
379(10) 0.00934 341.4 40.8
382(10) 0.00956 341.3 44.1
384(10) 0.00972 341.3 47.6
402(11) 0.00865 341.2 51.3
404(11) 0.00782 341.2 55.3
390(11) 0.00883 341.1 59.5
416(11) 0.00876 341.1 63.8
416(11) 0.00892 341.0 68.3
408(11) 0.00846 340.9 72.8
404(11) 0.00805 340.9 77.2
442(11) 0.00769 340.8 81.5
435(11) 0.00864 340.8 85.5
457(11) 0.00791 340.7 89.1
441(11) 0.00785 340.6 92.1
432(11) 0.00758 340.6 94.3
457(12) 0.00734 340.5 95.8
469(11) 0.00791 340.5 96.5
419(11) 0.00874 340.4 96.2
441(11) 0.00771 340.4 95.2
427(11) 0.00795 340.3 93.5
474(12) 0.00722 340.2 91.2
426(11) 0.00862 340.2 88.5
432(11) 0.00831 340.1 85.4
464(12) 0.00749 340.1 82.2
429(11) 0.00769 340.0 78.8
416(11) 0.00803 340.0 75.4
424(11) 0.00883 339.9 72.1
457(11) 0.00771 339.8 68.7
410(11) 0.00854 339.8 65.5
380(10) 0.00918 339.7 62.3
415(11) 0.00834 339.7 59.3
389(10) 0.00962 339.6 56.3
383(11) 0.00889 339.5 53.5
412(11) 0.00796 339.5 50.7
380(10) 0.00917 339.4 48.1
396(11) 0.00885 339.4 45.3
401(10) 0.00931 339.3 42.9
382(10) 0.00920 339.3 40.5
399(11) 0.00844 339.2 38.3
359(10) 0.00917 339.1 36.1
370(10) 0.00975 339.1 34.1
383(10) 0.00974 339.0 32.2
375(11) 0.00902 339.0 30.4
372(11) 0.00895 338.9 28.7
335(10) 0.01066 338.9 27.1
363(10) 0.00993 338.8 25.5
356(10) 0.01044 338.7 24.1
355(10) 0.00978 338.7 22.8
340(10) 0.00999 338.6 21.5
345(10) 0.01002 338.6 20.4
354(10) 0.01045 338.5 19.3
347(10) 0.01068 338.5 18.2
373(10) 0.00909 338.4 17.3
357(10) 0.00922 338.3 16.4
355(10) 0.00997 338.3 15.5
331(9) 0.01111 338.2 14.7
355(10) 0.01046 338.2 14.0
335(10) 0.01057 338.1 13.3
327(10) 0.00986 338.0 12.6
350(10) 0.00975 338.0 12.0
345(10) 0.01076 337.9 11.5
334(10) 0.01101 337.9 10.9
364(10) 0.00982 337.8 10.4
353(10) 0.00949 337.8 10.0
362(10) 0.00943 337.7 9.5
316(9) 0.01183 337.6 9.1
318(9) 0.01178 337.6 8.7
354(10) 0.00993 337.5 8.4
334(10) 0.01021 337.5 8.0
338(10) 0.01020 337.4 7.7
338(10) 0.01097 337.4 7.4
364(10) 0.01013 337.3 7.1
364(10) 0.00964 337.2 6.9
368(10) 0.00941 337.2 6.6
348(10) 0.00992 337.1 6.4
334(9) 0.01120 337.1 6.2
321(9) 0.01137 337.0 5.9
352(10) 0.00931 336.9 5.7
345(10) 0.00971 336.9 5.6
324(10) 0.01086 336.8 5.4
295(9) 0.01275 336.8 5.2
319(10) 0.01068 336.7 5.0
323(10) 0.01092 336.7 4.9
345(10) 0.00991 336.6 4.7
381(10) 0.00910 336.5 4.6
337(10) 0.01106 336.5 4.5
335(10) 0.01066 336.4 4.3
317(10) 0.01074 336.4 4.2
348(10) 0.00975 336.3 4.1
357(10) 0.01018 336.3 4.0
357(10) 0.01049 336.2 3.9
365(10) 0.00940 336.1 3.8
339(10) 0.00978 336.1 3.7
340(10) 0.00982 336.0 3.6
311(9) 0.01160 336.0 3.5
337(10) 0.01095 335.9 3.4
352(10) 0.00993 335.8 3.3
332(10) 0.01017 335.8 3.3
313(9) 0.01154 335.7 3.2
355(10) 0.01032 335.7 3.1
340(10) 0.01092 335.6 3.0
322(9) 0.01113 335.6 3.0
340(10) 0.00941 335.5 2.9
370(10) 0.00959 335.4 2.8
330(9) 0.01126 335.4 2.8
326(9) 0.01147 335.3 2.7
318(10) 0.01099 335.3 2.7
343(10) 0.00969 335.2 2.6
348(10) 0.00996 335.2 2.5
346(10) 0.01084 335.1 2.5
352(10) 0.01047 335.0 2.4
334(10) 0.01057 335.0 2.4
332(10) 0.00984 334.9 2.3
338(10) 0.01039 334.9 2.3
350(10) 0.01075 334.8 2.3
341(10) 0.01063 334.8 2.2
333(10) 0.01061 334.7 2.2
319(10) 0.01065 334.6 2.1
348(10) 0.00976 334.6 2.1
337(9) 0.01115 334.5 2.1
316(9) 0.01164 334.5 2.0
321(10) 0.01061 334.4 2.0
323(10) 0.01086 334.3 1.9
338(10) 0.01024 334.3 1.9
321(9) 0.01134 334.2 1.9
344(10) 0.01062 334.2 1.8
349(10) 0.00993 334.1 1.8
339(10) 0.00993 334.1 1.8
333(10) 0.01051 334.0 1.8
328(9) 0.01121 333.9 1.7
356(10) 0.00983 333.9 1.7
328(10) 0.01018 333.8 1.7
310(10) 0.01105 333.8 1.6
314(10) 0.01083 333.7 1.6
321(9) 0.01165 333.7 1.6
347(10) 0.00977 333.6 1.6
346(10) 0.00975 333.5 1.5
350(10) 0.00995 333.5 1.5
349(10) 0.01022 333.4 1.5
327(9) 0.01127 333.4 1.5
334(10) 0.01018 333.3 1.5
339(10) 0.00957 333.2 1.4
307(9) 0.01121 333.2 1.4
349(10) 0.01031 333.1 1.4
336(9) 0.01110 333.1 1.4
327(10) 0.01100 333.0 1.4
320(10) 0.01098 333.0 1.3
356(10) 0.00963 332.9 1.3
324(9) 0.01161 332.8 1.3
346(10) 0.01084 332.8 1.3
336(10) 0.01022 332.7 1.3
308(10) 0.01077 332.7 1.3
320(10) 0.01083 332.6 1.2
332(9) 0.01114 332.6 1.2
342(10) 0.01081 332.5 1.2
347(10) 0.00970 332.4 1.2
318(10) 0.01030 332.4 1.2
335(10) 0.01025 332.3 1.2
322(9) 0.01138 332.3 1.6
300(9) 0.01218 332.2 1.6
318(10) 0.01066 332.1 1.6
338(10) 0.00956 332.1 1.6
331(10) 0.01058 332.0 1.6
348(10) 0.01046 332.0 1.6
328(10) 0.01099 331.9 1.6
326(10) 0.01056 331.9 1.6
340(10) 0.00941 331.8 1.6
337(10) 0.01027 331.7 1.6
309(9) 0.01198 331.7 1.5
334(10) 0.01080 331.6 1.5
328(10) 0.01097 331.6 1.5
328(10) 0.01051 331.5 1.5
337(10) 0.01019 331.5 1.5
319(9) 0.01147 331.4 1.5
306(9) 0.01196 331.3 1.5
345(10) 0.00969 331.3 1.5
347(10) 0.00966 331.4 1.5
330(9) 0.01115 331.4 1.5
331(9) 0.01131 331.5 1.5
351(10) 0.00984 331.5 1.5
332(10) 0.00994 331.6 1.5
348(10) 0.00966 331.6 1.5
352(10) 0.00992 331.6 1.5
347(10) 0.01070 331.7 1.5
331(10) 0.01058 331.7 1.5
308(9) 0.01128 331.8 1.5
341(10) 0.01019 331.8 1.5
360(10) 0.00982 331.9 1.5
350(10) 0.01063 331.9 1.5
334(10) 0.01069 332.0 1.5
345(10) 0.00971 332.0 1.5
317(10) 0.01103 332.0 1.5
334(10) 0.01067 332.1 1.5
333(9) 0.01118 332.1 1.5
324(10) 0.01044 332.2 1.5
324(10) 0.00986 332.2 1.5
323(10) 0.01084 332.3 1.5
314(9) 0.01168 332.3 1.5
327(9) 0.01143 332.4 1.5
351(10) 0.00973 332.4 1.5
345(10) 0.00932 332.4 1.5
319(10) 0.01061 332.5 1.5
325(9) 0.01133 332.5 1.5
344(10) 0.01083 332.6 1.5
335(10) 0.01054 332.6 1.5
337(10) 0.00958 332.7 1.5
347(10) 0.00964 332.7 1.5
337(10) 0.01100 332.8 2.1
332(9) 0.01115 332.8 2.1
351(10) 0.00980 332.8 2.1
349(10) 0.00943 332.9 2.1
341(10) 0.01024 332.9 2.1
362(10) 0.01029 333.0 2.1
317(9) 0.01146 333.0 2.2
325(10) 0.01092 333.1 2.2
349(10) 0.00925 333.1 2.2
325(9) 0.01116 333.2 2.2
349(10) 0.01062 333.2 2.2
318(9) 0.01153 333.2 2.3
331(10) 0.01039 333.3 2.3
334(10) 0.01005 333.3 2.3
351(10) 0.00948 333.4 2.3
345(10) 0.01072 333.4 2.3
315(9) 0.01146 333.5 2.4
321(10) 0.01043 333.5 2.4
311(10) 0.01050 333.6 2.4
320(10) 0.01049 333.6 2.4
322(9) 0.01144 333.6 2.5
369(10) 0.00967 333.7 2.5
343(10) 0.00976 333.7 2.5
332(10) 0.01039 333.8 2.6
325(10) 0.01092 333.8 2.6
336(10) 0.01105 333.9 2.6
348(10) 0.00958 333.9 2.6
312(10) 0.01102 333.9 2.7
313(10) 0.01093 334.0 2.7
322(9) 0.01109 334.0 2.8
346(10) 0.01078 334.1 2.8
334(10) 0.01044 334.1 2.8
362(10) 0.00910 334.2 2.9
342(10) 0.01033 334.2 2.9
352(10) 0.01022 334.3 3.0
336(10) 0.01105 334.3 3.0
345(10) 0.00953 334.3 3.1
319(10) 0.01038 334.4 3.2
334(10) 0.01008 334.4 3.2
320(10) 0.01094 334.5 3.3
348(10) 0.01068 334.5 3.3
337(10) 0.01063 334.6 3.4
320(10) 0.01046 334.6 3.5
330(10) 0.01042 334.7 3.6
330(9) 0.01137 334.7 3.6
334(10) 0.01107 334.7 3.7
332(10) 0.01058 334.8 3.8
341(10) 0.00968 334.8 3.9
360(10) 0.00997 334.9 4.1
362(10) 0.01021 334.9 4.2
327(9) 0.01152 335.0 4.3
327(10) 0.01089 335.0 4.4
335(10) 0.00942 335.1 4.6
353(10) 0.00970 335.1 4.8
340(9) 0.01108 335.1 4.9
325(9) 0.01116 335.2 5.1
324(10) 0.01102 335.2 5.3
356(10) 0.00933 335.3 5.5
344(10) 0.00997 335.3 5.7
345(10) 0.01084 335.4 6.0
323(10) 0.01099 335.4 6.3
331(10) 0.01061 335.5 6.5
347(10) 0.00978 335.5 6.7
339(10) 0.01028 335.5 7.0
342(10) 0.01071 335.6 7.2
357(10) 0.01014 335.6 7.4
324(10) 0.01094 335.7 7.5
308(10) 0.01101 335.7 7.7
318(10) 0.01066 335.8 7.8
338(10) 0.01095 335.8 7.9
363(10) 0.00947 335.9 7.9
343(10) 0.00951 335.9 8.0
347(10) 0.00921 335.9 8.0
325(10) 0.01068 336.0 8.0
345(10) 0.01071 336.0 8.0
333(10) 0.01086 336.1 8.0
334(10) 0.01060 336.1 8.0
339(10) 0.00989 336.2 8.0
345(10) 0.01013 336.2 8.1
332(9) 0.01125 336.3 8.1
337(10) 0.01052 336.3 8.2
357(10) 0.00925 336.3 8.3
339(10) 0.00997 336.4 8.5
331(10) 0.01100 336.4 8.6
349(10) 0.01070 336.5 8.8
337(10) 0.01056 336.5 9.0
362(10) 0.00920 336.6 9.2
332(10) 0.01093 336.6 9.5
366(10) 0.01006 336.7 9.8
333(9) 0.01117 336.7 10.1
341(10) 0.01037 336.7 10.4
341(10) 0.00930 336.8 10.8
363(10) 0.00917 336.8 11.3
329(9) 0.01127 336.9 11.7
359(10) 0.01031 336.9 12.2
353(10) 0.01000 337.0 12.8
347(10) 0.00949 337.0 13.4
361(10) 0.00936 337.1 14.1
328(9) 0.01128 337.1 14.9
356(10) 0.01033 337.1 15.7
360(10) 0.00967 337.2 16.6
328(10) 0.00979 337.2 17.7
347(10) 0.01004 337.3 19.0
347(10) 0.01076 337.3 20.3
378(10) 0.00964 337.4 21.7
375(10) 0.00940 337.4 23.4
394(11) 0.00819 337.5 25.3
372(10) 0.00952 337.5 27.4
402(10) 0.00915 337.5 29.9
370(10) 0.00985 337.6 32.9
381(11) 0.00889 337.6 36.3
382(11) 0.00847 337.7 40.3
401(11) 0.00884 337.7 45.2
409(10) 0.00921 337.8 51.1
446(11) 0.00812 337.8 58.8
423(11) 0.00839 337.9 69.0
438(11) 0.00809 337.9 83.5
486(12) 0.00726 337.9 105.4
508(12) 0.00733 338.0 139.5
569(13) 0.00635 338.0 192.6
623(13) 0.00557 338.1 272.3
707(14) 0.00477 338.1 385.9
827(15) 0.00420 338.2 535.4
1036(17) 0.00359 338.2 715.4
1162(18) 0.003036 338.3 907.2
1382(20) 0.002470 338.3 1072.7
1639(22) 0.002094 338.3 1160.0
1699(22) 0.002046 338.4 1131.5
1482(20) 0.002505 338.4 1000.7
1125(18) 0.003020 338.5 817.0
849(16) 0.00398 338.5 628.1
720(14) 0.00486 338.6 461.6
627(13) 0.00557 338.6 329.9
543(12) 0.00686 338.7 233.9
508(12) 0.00666 338.7 168.4
463(12) 0.00731 338.7 126.0
438(11) 0.00790 338.8 99.0
419(11) 0.00883 338.8 81.7
453(11) 0.00821 338.9 70.1
393(11) 0.00892 338.9 62.0
394(11) 0.00839 339.0 55.9
386(11) 0.00883 339.0 51.2
390(10) 0.00946 339.1 47.4
393(10) 0.00925 339.1 44.5
383(10) 0.00932 339.1 42.1
369(11) 0.00900 339.2 40.2
385(11) 0.00868 339.2 38.8
382(10) 0.00931 339.3 37.7
355(10) 0.01050 339.3 36.9
415(11) 0.00863 339.4 36.4
386(11) 0.00850 339.4 36.1
360(10) 0.00948 339.5 36.1
353(10) 0.01058 339.5 36.3
363(10) 0.01013 339.5 36.8
376(11) 0.00884 339.6 37.4
371(11) 0.00866 339.6 38.3
352(10) 0.00984 339.7 39.4
349(10) 0.01070 339.7 40.7
382(10) 0.00971 339.8 42.3
367(10) 0.00966 339.8 44.1
384(11) 0.00880 339.9 46.3
360(10) 0.00946 339.9 48.8
400(10) 0.00932 339.9 51.7
387(10) 0.00948 340.0 55.0
363(10) 0.00955 340.0 58.9
376(11) 0.00891 340.1 63.5
395(11) 0.00876 340.1 68.8
400(10) 0.00923 340.2 75.2
425(11) 0.00841 340.2 82.9
429(11) 0.00800 340.3 92.2
404(11) 0.00848 340.3 103.5
440(11) 0.00789 340.3 117.3
467(11) 0.00794 340.4 134.1
468(12) 0.00740 340.4 154.6
487(12) 0.00702 340.5 179.4
520(12) 0.00669 340.5 209.1
551(12) 0.00646 340.6 244.3
558(12) 0.00669 340.6 285.4
643(13) 0.00559 340.6 332.5
715(14) 0.00482 340.7 385.4
795(15) 0.00436 340.7 442.9
858(16) 0.00415 340.8 503.1
910(16) 0.00406 340.8 562.1
974(17) 0.00353 340.9 614.7
987(17) 0.003381 340.9 654.5
1014(17) 0.003403 341.0 675.1
956(16) 0.00383 341.0 672.9
957(16) 0.00387 341.0 648.2
838(15) 0.00416 341.1 605.6
783(15) 0.00434 341.1 551.3
778(15) 0.00440 341.2 492.0
694(14) 0.00526 341.2 432.4
641(13) 0.00582 341.3 376.0
635(14) 0.00545 341.3 324.7
609(14) 0.00541 341.4 279.1
574(13) 0.00614 341.4 239.7
578(13) 0.00635 341.4 206.2
514(12) 0.00727 341.5 178.3
510(12) 0.00665 341.5 155.3
466(12) 0.00690 341.6 136.7
455(11) 0.00777 341.6 121.9
478(11) 0.00777 341.7 110.5
449(11) 0.00834 341.7 102.4
464(11) 0.00769 341.8 97.7
465(12) 0.00717 341.8 97.6
474(12) 0.00730 341.8 104.3
483(11) 0.00773 341.9 121.0
528(12) 0.00697 341.9 151.5
535(12) 0.00656 342.0 198.1
583(13) 0.00568 342.0 259.9
671(14) 0.00518 342.1 328.8
814(15) 0.00456 342.1 389.3
862(15) 0.00429 342.2 418.5
860(16) 0.00393 342.2 400.9
730(15) 0.00456 342.2 344.4
615(13) 0.00578 342.3 271.3
553(12) 0.00678 342.3 200.5
516(12) 0.00701 342.4 142.4
467(12) 0.00741 342.4 100.3
426(11) 0.00784 342.5 72.5
400(11) 0.00860 342.5 55.4
382(10) 0.00984 342.6 45.0
391(10) 0.00938 342.6 38.6
413(11) 0.00826 342.6 34.4
405(11) 0.00809 342.7 31.2
399(11) 0.00878 342.7 28.7
390(10) 0.00952 342.8 26.6
368(10) 0.00976 342.8 24.8
405(11) 0.00826 342.9 23.3
380(11) 0.00907 342.9 21.9
363(10) 0.00974 343.0 20.7
366(10) 0.01015 343.0 19.6
370(10) 0.00932 343.0 18.7
327(10) 0.01017 343.1 17.8
337(10) 0.01002 343.1 17.0
363(10) 0.00951 343.2 16.3
348(10) 0.01076 343.2 15.7
356(10) 0.00941 343.3 15.1
360(10) 0.00916 343.3 14.5
352(10) 0.01002 343.4 14.0
337(10) 0.01092 343.4 13.5
355(10) 0.01053 343.4 13.1
363(10) 0.00945 343.5 12.7
344(10) 0.00955 343.5 12.3
344(10) 0.00997 343.6 12.0
348(10) 0.01048 343.6 11.7
356(10) 0.01045 343.7 11.4
347(10) 0.01020 343.7 11.1
360(10) 0.00926 343.8 10.8
370(10) 0.00943 343.8 10.6
362(10) 0.01039 343.8 10.3
344(10) 0.01066 343.9 10.1
374(10) 0.00939 343.9 9.9
359(11) 0.00889 344.0 9.7
343(10) 0.00984 344.0 9.5
350(10) 0.01074 344.1 9.4
395(10) 0.00936 344.1 9.2
351(10) 0.01008 344.2 9.1
351(10) 0.00924 344.2 8.9
358(10) 0.00965 344.2 8.8
350(10) 0.01067 344.3 8.7
328(9) 0.01113 344.3 8.6
372(10) 0.00945 344.4 8.5
356(10) 0.00923 344.4 8.4
336(10) 0.01019 344.5 8.3
351(10) 0.01040 344.5 8.2
357(10) 0.01034 344.6 8.2
326(9) 0.01108 344.6 8.1
369(11) 0.00879 344.6 8.0
350(10) 0.00980 344.7 8.0
354(10) 0.01048 344.7 7.9
352(10) 0.01019 344.8 7.9
328(10) 0.01064 344.8 7.9
344(10) 0.00965 344.9 7.8
357(10) 0.00936 344.9 7.8
321(9) 0.01156 345.0 7.8
318(9) 0.01142 345.0 7.8
355(10) 0.00973 345.0 7.8
359(10) 0.00947 345.1 7.8
351(10) 0.01039 345.1 7.8
347(10) 0.01073 345.2 7.8
347(10) 0.00987 345.2 7.8
328(10) 0.01017 345.3 7.8
340(10) 0.00979 345.3 7.9
357(10) 0.01007 345.4 7.9
357(10) 0.01032 345.4 7.9
376(11) 0.00904 345.4 8.0
353(10) 0.00925 345.5 8.0
337(10) 0.01022 345.5 8.1
354(10) 0.01021 345.6 8.2
355(10) 0.01049 345.6 8.2
360(10) 0.00931 345.7 8.3
357(11) 0.00906 345.7 8.4
340(10) 0.01061 345.7 8.5
345(10) 0.01081 345.8 8.6
338(10) 0.01104 345.8 8.7
334(10) 0.01072 345.8 8.8
332(10) 0.00994 345.8 9.0
328(10) 0.01079 345.9 9.1
359(10) 0.01027 345.9 9.2
352(10) 0.01057 345.9 9.4
330(10) 0.01066 345.9 9.6
343(10) 0.00955 346.0 9.7
356(10) 0.01001 346.0 9.9
347(10) 0.01066 346.0 10.1
339(10) 0.01099 346.0 10.4
353(10) 0.00974 346.0 10.6
336(10) 0.00955 346.1 10.8
345(10) 0.01002 346.1 11.1
371(10) 0.00984 346.1 11.4
353(10) 0.01038 346.1 11.7
349(10) 0.01003 346.2 12.0
349(10) 0.00952 346.2 12.3
364(10) 0.00948 346.2 12.7
374(10) 0.00975 346.2 13.0
366(10) 0.01016 346.3 13.4
354(10) 0.00981 346.3 13.8
358(11) 0.00895 346.3 14.3
313(9) 0.01109 346.3 14.7
349(10) 0.01072 346.4 15.2
349(10) 0.01046 346.4 15.7
344(10) 0.01024 346.4 16.3
365(10) 0.00939 346.4 16.8
351(10) 0.01006 346.5 17.4
361(10) 0.01029 346.5 18.1
354(10) 0.01015 346.5 18.7
369(10) 0.00918 346.5 19.4
392(11) 0.00847 346.5 20.1
343(10) 0.01019 346.6 20.9
358(10) 0.01050 346.6 21.7
350(10) 0.01015 346.6 22.5
381(11) 0.00863 346.6 23.4
354(10) 0.00968 346.7 24.4
360(10) 0.00983 346.7 25.3
366(10) 0.01012 346.7 26.4
358(10) 0.00971 346.7 27.5
365(10) 0.00915 346.8 28.6
366(10) 0.00944 346.8 29.8
355(10) 0.01031 346.8 31.1
372(10) 0.00998 346.8 32.4
369(10) 0.00951 346.9 33.9
387(11) 0.00870 346.9 35.4
393(11) 0.00904 346.9 37.1
381(10) 0.00973 346.9 39.4
387(10) 0.00972 346.9 41.4
368(10) 0.00955 347.0 43.5
373(10) 0.00926 347.0 45.8
402(11) 0.00873 347.0 48.3
384(10) 0.00961 347.0 51.1
406(10) 0.00912 347.1 54.1
402(11) 0.00879 347.1 57.3
379(11) 0.00857 347.1 60.8
405(11) 0.00852 347.1 65.2
365(10) 0.01023 347.2 69.2
416(11) 0.00878 347.2 73.4
404(11) 0.00848 347.2 77.8
457(12) 0.00693 347.2 82.1
436(11) 0.00795 347.3 86.6
415(11) 0.00894 347.3 90.3
434(11) 0.00841 347.3 93.3
468(12) 0.00715 347.3 95.3
414(11) 0.00818 347.4 96.1
452(11) 0.00786 347.4 95.6
432(11) 0.00854 347.4 93.8
443(11) 0.00820 347.4 91.0
428(11) 0.00806 347.4 87.4
428(11) 0.00761 347.5 83.3
417(11) 0.00834 347.5 79.1
428(11) 0.00871 347.5 74.8
412(11) 0.00886 347.5 70.7
433(11) 0.00807 347.6 67.0
420(11) 0.00819 347.6 63.5
408(11) 0.00862 347.6 60.5
381(10) 0.00979 347.6 57.8
381(10) 0.00923 347.7 55.5
392(11) 0.00870 347.7 53.7
400(11) 0.00849 347.7 52.2
362(10) 0.00994 347.7 51.2
389(10) 0.00962 347.8 50.5
412(11) 0.00850 347.8 50.2
390(11) 0.00874 347.8 50.3
395(11) 0.00867 347.8 50.8
402(10) 0.00909 347.8 51.7
392(10) 0.00949 347.9 53.2
424(11) 0.00802 347.9 55.1
425(11) 0.00809 347.9 57.7
419(11) 0.00807 347.9 60.9
419(11) 0.00853 348.0 64.8
426(11) 0.00873 348.0 69.6
428(11) 0.00800 348.0 75.4
435(12) 0.00745 348.0 82.2
441(11) 0.00757 348.1 90.2
460(11) 0.00794 348.1 99.4
479(11) 0.00782 348.1 109.9
461(12) 0.00752 348.1 121.8
505(13) 0.00631 348.2 134.9
508(12) 0.00681 348.2 149.2
514(12) 0.00719 348.2 164.4
540(12) 0.00687 348.2 180.1
565(13) 0.00618 348.2 195.7
536(13) 0.00614 348.3 210.2
585(13) 0.00586 348.3 222.5
636(13) 0.00581 348.3 231.5
605(13) 0.00607 348.3 236.1
621(13) 0.00556 348.4 235.7
596(13) 0.00561 348.4 230.4
628(13) 0.00562 348.4 220.7
587(13) 0.00637 348.4 207.8
581(13) 0.00633 348.5 192.7
562(13) 0.00621 348.5 176.6
524(13) 0.00621 348.5 160.4
497(12) 0.00700 348.5 144.7
476(11) 0.00784 348.6 129.9
407(11) 0.00901 348.6 116.4
427(11) 0.00837 348.6 104.0
427(11) 0.00797 348.6 93.0
419(11) 0.00832 348.7 83.3
407(10) 0.00920 348.7 74.7
404(11) 0.00896 348.7 67.3
387(10) 0.00908 348.7 60.9
386(11) 0.00872 348.7 55.4
427(11) 0.00781 348.8 50.7
377(10) 0.00985 348.8 46.6
382(10) 0.00960 348.8 43.2
413(11) 0.00831 348.8 40.3
391(11) 0.00847 348.9 37.8
349(10) 0.01007 348.9 35.7
360(10) 0.01031 348.9 33.8
371(10) 0.00972 348.9 32.3
385(11) 0.00882 349.0 30.9
371(10) 0.00933 349.0 29.8
364(10) 0.00965 349.0 28.8
396(10) 0.00938 349.0 28.0
366(10) 0.00947 349.1 27.3
366(11) 0.00906 349.1 26.8
362(10) 0.00958 349.1 26.3
394(10) 0.00924 349.1 26.0
345(10) 0.01086 349.1 25.7
359(10) 0.00948 349.2 25.6
368(11) 0.00898 349.2 25.6
363(10) 0.00960 349.2 25.7
381(10) 0.00953 349.2 25.9
364(10) 0.01033 349.3 26.2
374(10) 0.00932 349.3 26.6
365(11) 0.00902 349.3 27.2
378(10) 0.00924 349.3 27.9
348(10) 0.01071 349.4 28.8
361(10) 0.01025 349.4 29.9
386(11) 0.00871 349.4 31.2
371(11) 0.00891 349.4 32.9
372(10) 0.00958 349.5 34.9
392(10) 0.00925 349.5 37.5
370(10) 0.01009 349.5 40.8
394(11) 0.00885 349.5 45.0
357(10) 0.00916 349.6 50.4
412(11) 0.00834 349.6 57.1
423(11) 0.00880 349.6 65.1
409(11) 0.00899 349.6 74.3
427(11) 0.00822 349.6 84.9
422(11) 0.00782 349.7 98.0
457(12) 0.00749 349.7 115.0
467(11) 0.00793 349.7 139.0
515(12) 0.00715 349.7 173.1
563(13) 0.00617 349.8 219.7
625(14) 0.00540 349.8 280.4
773(15) 0.00440 349.8 355.0
917(16) 0.00403 349.8 441.0
1036(17) 0.003475 349.9 531.4
1175(18) 0.003000 349.9 613.4
1260(19) 0.002711 349.9 668.7
1249(19) 0.002729 349.9 680.0
1170(18) 0.003179 350.0 643.2
1050(17) 0.003409 350.0 570.8
936(17) 0.00360 350.0 482.0
804(15) 0.00420 350.0 392.3
742(15) 0.00467 350.0 311.2
664(13) 0.00564 350.1 242.7
595(13) 0.00580 350.1 188.2
565(13) 0.00594 350.1 146.4
520(12) 0.00667 350.1 115.6
499(12) 0.00693 350.2 93.3
475(11) 0.00785 350.2 77.4
467(12) 0.00736 350.2 65.9
452(11) 0.00759 350.2 57.5
449(11) 0.00787 350.3 51.2
422(11) 0.00862 350.3 46.2
420(11) 0.00891 350.3 42.2
401(11) 0.00851 350.3 38.9
413(11) 0.00806 350.4 36.1
398(11) 0.00902 350.4 33.8
385(10) 0.00944 350.4 31.8
426(11) 0.00872 350.4 30.2
389(11) 0.00871 350.4 28.7
369(10) 0.00922 350.5 27.5
391(11) 0.00858 350.5 26.6
376(10) 0.00962 350.5 25.7
406(10) 0.00924 350.5 25.0
380(10) 0.00914 350.6 24.4
400(11) 0.00821 350.6 24.0
415(11) 0.00839 350.6 23.7
382(10) 0.00967 350.6 23.4
391(10) 0.00957 350.7 23.3
394(11) 0.00883 350.7 23.3
416(12) 0.00755 350.7 23.3
394(11) 0.00881 350.7 23.5
385(10) 0.00959 350.8 23.8
372(10) 0.00980 350.8 24.2
373(10) 0.00929 350.8 24.7
386(11) 0.00854 350.8 25.3
416(11) 0.00811 350.9 26.0
372(10) 0.01003 350.9 27.0
402(10) 0.00918 350.9 28.0
405(11) 0.00839 350.9 29.3
376(11) 0.00878 350.9 30.8
375(10) 0.00940 351.0 32.6
430(11) 0.00869 351.0 34.7
431(11) 0.00840 351.0 37.2
413(11) 0.00822 351.0 40.2
437(12) 0.00738 351.1 44.0
443(11) 0.00773 351.1 48.7
422(11) 0.00883 351.1 54.8
461(11) 0.00779 351.1 62.7
452(11) 0.00771 351.2 73.0
492(12) 0.00679 351.2 86.5
492(12) 0.00708 351.2 104.0
509(12) 0.00730 351.2 126.4
547(12) 0.00659 351.3 154.3
568(13) 0.00596 351.3 188.1
596(13) 0.00575 351.3 227.9
686(14) 0.00499 351.3 272.7
736(14) 0.00505 351.3 320.1
766(15) 0.00464 351.4 365.8
863(16) 0.00391 351.4 403.1
901(16) 0.00377 351.4 424.2
897(16) 0.00397 351.4 423.8
886(15) 0.00419 351.5 401.8
805(15) 0.00422 351.5 364.1
728(15) 0.00455 351.5 318.3
628(13) 0.00552 351.5 271.1
587(13) 0.00606 351.6 226.6
524(12) 0.00717 351.6 187.2
492(12) 0.00705 351.6 153.6
470(12) 0.00694 351.6 126.1
409(11) 0.00864 351.7 104.1
422(11) 0.00877 351.7 86.9
435(11) 0.00836 351.7 73.7
393(11) 0.00894 351.7 63.6
402(11) 0.00802 351.8 55.9
376(10) 0.00942 351.8 50.1
379(10) 0.00979 351.8 45.5
394(10) 0.00943 351.8 42.0
389(11) 0.00893 351.8 39.1
394(11) 0.00805 351.9 36.9
352(10) 0.01001 351.9 35.0
358(10) 0.01028 351.9 33.5
383(10) 0.00960 351.9 32.3
376(10) 0.00945 352.0 31.4
374(11) 0.00883 352.0 30.7
392(11) 0.00883 352.0 30.2
383(10) 0.00960 352.0 29.9
363(10) 0.01007 352.1 29.8
398(11) 0.00869 352.1 29.9
373(11) 0.00897 352.1 30.2
414(11) 0.00804 352.1 30.8
397(10) 0.00930 352.2 31.5
380(10) 0.00981 352.2 32.5
377(10) 0.00919 352.2 33.7
389(11) 0.00868 352.2 35.3
375(10) 0.00939 352.2 37.2
388(10) 0.00954 352.3 39.6
393(10) 0.00927 352.3 42.5
381(10) 0.00917 352.3 46.3
405(11) 0.00842 352.3 51.2
421(11) 0.00812 352.4 57.7
412(10) 0.00908 352.4 66.7
411(11) 0.00869 352.4 79.2
432(11) 0.00783 352.4 96.8
460(12) 0.00741 352.5 121.3
472(12) 0.00743 352.5 154.5
513(12) 0.00723 352.5 197.9
599(13) 0.00594 352.5 251.9
633(14) 0.00538 352.6 315.8
718(14) 0.00479 352.6 385.2
779(15) 0.00462 352.6 452.1
854(15) 0.00432 352.6 502.9
875(16) 0.00389 352.6 522.6
837(16) 0.00391 352.7 504.1
754(15) 0.00452 352.7 454.0
689(14) 0.00530 352.7 387.3
645(13) 0.00572 352.7 317.6
593(13) 0.00575 352.8 253.5
543(13) 0.00609 352.8 198.8
512(12) 0.00682 352.8 155.0
506(12) 0.00709 352.8 121.4
464(11) 0.00796 352.9 96.5
450(11) 0.00776 352.9 78.5
437(11) 0.00756 352.9 65.7
427(11) 0.00827 352.9 56.4
403(11) 0.00888 353.0 49.7
423(11) 0.00879 353.0 44.5
392(11) 0.00901 353.0 40.5
399(11) 0.00793 353.0 37.3
385(11) 0.00880 353.1 34.7
387(10) 0.00953 353.1 32.5
380(10) 0.00971 353.1 30.6
370(10) 0.00969 353.1 29.0
391(11) 0.00828 353.1 27.7
399(11) 0.00858 353.2 26.6
361(10) 0.01017 353.2 25.7
372(10) 0.00998 353.2 25.0
386(10) 0.00912 353.2 24.4
399(11) 0.00796 353.3 24.1
376(10) 0.00916 353.3 24.0
376(10) 0.00987 353.3 24.2
379(10) 0.00967 353.3 24.9
371(10) 0.00936 353.4 26.4
394(11) 0.00833 353.4 29.1
393(10) 0.00907 353.4 33.7
397(10) 0.00943 353.4 40.6
436(11) 0.00821 353.5 50.0
409(11) 0.00838 353.5 61.8
425(11) 0.00793 353.5 74.5
449(11) 0.00776 353.5 85.8
495(12) 0.00741 353.5 92.0
463(11) 0.00766 353.6 90.2
445(12) 0.00754 353.6 81.2
434(11) 0.00794 353.6 68.5
407(11) 0.00858 353.6 55.6
409(10) 0.00912 353.7 44.2
399(11) 0.00855 353.7 35.3
367(10) 0.00943 353.7 29.0
377(10) 0.00911 353.7 24.7
408(11) 0.00871 353.8 22.0
370(10) 0.01006 353.8 20.3
362(10) 0.00959 353.8 19.3
361(10) 0.00915 353.8 18.6
353(10) 0.00958 353.9 18.1
383(11) 0.00889 353.9 17.7
375(10) 0.00996 353.9 17.5
388(11) 0.00905 353.9 17.3
386(11) 0.00865 354.0 17.1
362(10) 0.00953 354.0 17.1
362(10) 0.00992 354.0 17.0
391(10) 0.00952 354.0 17.0
381(11) 0.00891 354.0 17.0
371(10) 0.00908 354.1 17.1
378(11) 0.00892 354.1 17.2
372(10) 0.00982 354.1 17.3
349(10) 0.01056 354.1 17.4
361(10) 0.00969 354.2 17.6
368(11) 0.00876 354.2 17.7
358(10) 0.00962 354.2 17.9
331(9) 0.01127 354.2 18.2
349(10) 0.01062 354.3 18.4
370(10) 0.00962 354.3 18.6
394(11) 0.00832 354.3 18.9
364(10) 0.00952 354.3 19.2
345(10) 0.01070 354.4 19.5
359(10) 0.01011 354.4 19.9
382(10) 0.00926 354.4 20.2
352(10) 0.00930 354.3 20.6
364(10) 0.00945 354.3 21.0
363(10) 0.01020 354.3 21.4
350(10) 0.01042 354.3 21.9
359(10) 0.00942 354.2 22.4
349(10) 0.00953 354.2 22.9
361(10) 0.00962 354.2 23.4
363(10) 0.01022 354.1 24.0
366(10) 0.00989 354.1 24.6
373(10) 0.00929 354.1 25.2
362(10) 0.00915 354.1 25.8
371(11) 0.00903 354.0 26.5
360(10) 0.01026 354.0 27.3
358(10) 0.00970 354.0 28.1
362(10) 0.00932 354.0 28.9
393(11) 0.00843 353.9 29.7
360(10) 0.00951 353.9 30.7
366(10) 0.01011 353.9 31.6
375(10) 0.00966 353.9 32.7
352(10) 0.01007 353.8 33.7
379(11) 0.00885 353.8 34.9
375(10) 0.00925 353.8 36.1
406(10) 0.00921 353.8 37.4
381(11) 0.00888 353.7 38.8
380(11) 0.00897 353.7 40.3
368(10) 0.00951 353.7 41.8
374(10) 0.00966 353.6 43.5
393(10) 0.00942 353.6 45.3
400(11) 0.00853 353.6 47.2
376(11) 0.00896 353.6 49.3
406(11) 0.00842 353.5 51.5
382(10) 0.00950 353.5 53.8
417(11) 0.00896 353.5 56.4
414(11) 0.00807 353.5 59.2
401(11) 0.00852 353.4 62.2
410(11) 0.00841 353.4 65.5
400(10) 0.00914 353.4 69.1
422(11) 0.00872 353.4 73.0
418(11) 0.00846 353.3 77.4
408(11) 0.00792 353.3 82.1
434(11) 0.00773 353.3 87.4
418(11) 0.00855 353.3 93.3
419(11) 0.00894 353.2 99.8
420(11) 0.00840 353.2 107.1
445(12) 0.00715 353.2 115.2
473(12) 0.00715 353.1 124.2
453(11) 0.00808 353.1 134.3
483(12) 0.00750 353.1 145.6
495(12) 0.00687 353.1 158.1
493(12) 0.00648 353.0 172.0
515(12) 0.00679 353.0 187.5
530(12) 0.00699 353.0 204.6
518(12) 0.00709 353.0 223.5
593(13) 0.00592 352.9 244.2
607(14) 0.00547 352.9 266.9
591(13) 0.00594 352.9 291.5
643(13) 0.00584 352.9 318.2
697(14) 0.00512 352.8 346.8
735(14) 0.00481 352.8 377.2
780(15) 0.00428 352.8 409.1
799(15) 0.00431 352.8 442.2
844(15) 0.00439 352.7 475.8
900(16) 0.00394 352.7 509.3
896(16) 0.00389 352.7 541.5
942(17) 0.00352 352.7 571.4
992(17) 0.003424 352.6 597.5
980(16) 0.00381 352.6 618.5
950(16) 0.00373 352.6 633.1
965(17) 0.00356 352.5 640.3
987(17) 0.003410 352.5 639.7
921(16) 0.00385 352.5 631.3
899(16) 0.00413 352.5 615.7
893(16) 0.00389 352.4 594.0
856(16) 0.00389 352.4 567.4
850(16) 0.00401 352.4 537.2
814(15) 0.00440 352.4 505.0
803(15) 0.00461 352.3 471.8
763(15) 0.00449 352.3 438.6
740(15) 0.00454 352.3 406.1
703(14) 0.00495 352.3 374.8
720(14) 0.00500 352.2 345.2
671(13) 0.00559 352.2 317.4
655(14) 0.00526 352.2 291.6
602(13) 0.00560 352.2 267.8
570(13) 0.00616 352.1 246.0
568(12) 0.00643 352.1 226.2
570(12) 0.00657 352.1 208.2
530(12) 0.00666 352.0 192.1
549(13) 0.00615 352.0 177.6
530(12) 0.00673 352.0 164.7
527(12) 0.00705 352.0 153.3
527(12) 0.00700 351.9 143.2
504(12) 0.00694 351.9 134.4
510(13) 0.00614 351.9 126.8
486(12) 0.00715 351.9 120.3
448(11) 0.00828 351.8 114.9
493(12) 0.00753 351.8 110.5
482(12) 0.00732 351.8 107.2
475(12) 0.00679 351.8 104.9
484(12) 0.00718 351.7 103.6
489(11) 0.00759 351.7 103.4
489(11) 0.00756 351.7 104.2
459(11) 0.00765 351.7 106.1
459(12) 0.00687 351.6 108.8
450(12) 0.00755 351.6 112.2
487(11) 0.00757 351.6 115.9
468(11) 0.00772 351.5 119.5
480(12) 0.00721 351.5 122.2
483(12) 0.00695 351.5 123.2
495(12) 0.00676 351.5 122.2
481(11) 0.00776 351.4 119.0
476(12) 0.00751 351.4 114.3
472(12) 0.00726 351.4 108.7
477(12) 0.00697 351.4 103.0
486(12) 0.00724 351.3 97.6
460(11) 0.00813 351.3 92.8
458(11) 0.00800 351.3 89.0
445(11) 0.00771 351.3 86.0
448(12) 0.00748 351.2 84.0
436(11) 0.00795 351.2 83.0
441(11) 0.00847 351.2 82.9
426(11) 0.00829 351.2 83.7
474(12) 0.00719 351.1 85.4
443(11) 0.00787 351.1 88.0
442(11) 0.00806 351.1 91.5
411(11) 0.00899 351.0 95.8
449(11) 0.00766 351.0 101.0
415(11) 0.00837 351.0 107.1
452(11) 0.00784 351.0 113.8
489(12) 0.00743 350.9 121.2
508(12) 0.00734 350.9 129.0
497(12) 0.00706 350.9 136.9
513(13) 0.00623 350.9 144.5
493(12) 0.00689 350.8 151.1
512(12) 0.00696 350.8 156.2
512(12) 0.00732 350.8 159.1
505(12) 0.00701 350.8 159.5
482(12) 0.00711 350.7 157.1
512(12) 0.00687 350.7 152.3
475(11) 0.00770 350.7 145.7
474(11) 0.00779 350.7 137.8
446(11) 0.00793 350.6 129.3
444(12) 0.00728 350.6 120.7
427(11) 0.00799 350.6 112.4
406(10) 0.00909 350.5 104.6
421(11) 0.00889 350.5 97.3
430(11) 0.00812 350.5 90.7
412(11) 0.00802 350.5 84.9
450(11) 0.00769 350.4 79.7
438(11) 0.00846 350.4 75.0
440(11) 0.00838 350.4 70.9
432(11) 0.00847 350.4 67.3
426(11) 0.00764 350.3 64.1
412(11) 0.00857 350.3 61.3
413(11) 0.00903 350.3 58.7
375(10) 0.00994 350.3 56.3
363(10) 0.00992 350.2 54.1
394(11) 0.00819 350.2 52.1
419(11) 0.00824 350.2 50.2
389(10) 0.00964 350.2 48.3
411(11) 0.00857 350.1 46.5
373(10) 0.00940 350.1 44.8
411(11) 0.00809 350.1 43.1
396(11) 0.00867 350.1 41.4
392(10) 0.00937 350.0 39.8
418(11) 0.00884 350.0 38.2
377(10) 0.00918 350.0 36.7
365(10) 0.00910 349.9 35.3
375(10) 0.00929 349.9 33.9
390(10) 0.00954 349.9 32.6
371(10) 0.00965 349.9 31.3
375(10) 0.00967 349.8 30.1
409(11) 0.00827 349.8 28.9
374(10) 0.00959 349.8 27.8
376(10) 0.00984 349.8 26.8
371(10) 0.00911 349.7 25.8
386(11) 0.00862 349.7 24.9
379(11) 0.00897 349.7 24.0
392(10) 0.00917 349.7 23.2
382(10) 0.00968 349.6 22.5
378(11) 0.00891 349.6 21.7
363(11) 0.00906 349.6 21.0
378(10) 0.00915 349.6 20.4
371(10) 0.00992 349.5 19.8
385(10) 0.00970 349.5 19.3
394(11) 0.00876 349.5 18.7
385(11) 0.00894 349.4 18.2
370(10) 0.00962 349.4 17.8
380(10) 0.00955 349.4 17.4
349(10) 0.01062 349.4 17.0
364(10) 0.00981 349.3 16.6
377(11) 0.00869 349.3 16.3
397(11) 0.00870 349.3 15.9
378(10) 0.00984 349.3 15.6
382(10) 0.00964 349.2 15.4
389(11) 0.00884 349.2 15.1
378(11) 0.00838 349.2 14.9
376(10) 0.00951 349.2 14.7
365(10) 0.01016 349.1 14.5
353(10) 0.01046 349.1 14.3
371(10) 0.00926 349.1 14.2
349(10) 0.00954 349.1 14.0
358(10) 0.00996 349.0 13.9
365(10) 0.01020 349.0 13.8
363(10) 0.00988 349.0 13.7
365(10) 0.00970 348.9 13.6
384(11) 0.00857 348.9 13.6
358(10) 0.00994 348.9 13.5
389(10) 0.00954 348.9 13.5
350(10) 0.01029 348.8 13.5
378(11) 0.00907 348.8 13.5
365(10) 0.00921 348.8 13.5
379(10) 0.00921 348.8 13.6
375(10) 0.00994 348.7 13.7
377(10) 0.00968 348.7 13.8
387(11) 0.00890 348.7 13.9
400(11) 0.00843 348.7 14.0
372(10) 0.00926 348.6 14.2
377(10) 0.00987 348.6 14.4
384(10) 0.00936 348.6 14.6
367(10) 0.00935 348.6 14.9
353(10) 0.00992 348.5 15.2
350(10) 0.01016 348.5 15.5
368(10) 0.01012 348.5 15.9
354(10) 0.01012 348.4 16.4
370(11) 0.00901 348.4 16.9
368(10) 0.00926 348.4 17.5
371(10) 0.00949 348.4 18.2
363(10) 0.01015 348.3 19.0
399(11) 0.00883 348.3 19.9
385(11) 0.00887 348.3 20.9
368(10) 0.00921 348.3 22.1
379(10) 0.00932 348.2 23.4
370(10) 0.00999 348.2 24.9
425(11) 0.00801 348.2 26.6
393(11) 0.00831 348.2 28.6
366(10) 0.00968 348.1 30.8
387(10) 0.00941 348.1 33.2
389(10) 0.00966 348.1 35.9
392(11) 0.00885 348.1 38.9
397(11) 0.00841 348.0 42.2
400(11) 0.00876 348.0 45.8
419(11) 0.00885 348.0 49.7
428(11) 0.00864 347.9 53.9
388(11) 0.00892 347.9 58.3
407(11) 0.00793 347.9 62.8
424(11) 0.00830 347.9 67.4
405(10) 0.00913 347.8 71.8
434(11) 0.00849 347.8 76.0
471(12) 0.00743 347.8 79.7
440(11) 0.00758 347.8 82.7
417(11) 0.00858 347.7 84.7
458(11) 0.00811 347.7 85.7
459(11) 0.00794 347.7 85.5
427(11) 0.00841 347.7 84.1
470(12) 0.00677 347.6 81.7
428(11) 0.00813 347.6 78.5
429(11) 0.00865 347.6 74.6
433(11) 0.00841 347.6 70.2
454(11) 0.00771 347.5 65.7
434(11) 0.00792 347.5 61.1
411(11) 0.00847 347.5 56.6
412(10) 0.00909 347.4 52.2
387(10) 0.00959 347.4 48.1
400(11) 0.00842 347.4 44.3
402(11) 0.00833 347.4 40.7
415(11) 0.00831 347.3 37.5
374(10) 0.00988 347.3 34.5
371(10) 0.00987 347.3 31.9
371(10) 0.00926 347.3 29.5
356(10) 0.00961 347.2 27.4
353(10) 0.00999 347.2 25.5
378(10) 0.00988 347.2 23.8
384(10) 0.00910 347.2 22.3
357(10) 0.00971 347.1 21.0
362(10) 0.00926 347.1 19.9
361(10) 0.01006 347.1 18.9
335(10) 0.01106 347.1 18.0
334(10) 0.01073 347.0 17.3
361(10) 0.00937 347.0 16.6
366(10) 0.00959 347.0 16.1
378(10) 0.00937 347.0 15.6
323(9) 0.01159 346.9 15.1
367(10) 0.00928 346.9 14.8
368(11) 0.00872 346.9 14.5
343(10) 0.01016 346.8 14.2
351(10) 0.01021 346.8 14.0
369(10) 0.01010 346.8 13.9
352(10) 0.01010 346.8 13.7
333(10) 0.01012 346.7 13.7
367(10) 0.00930 346.7 13.6
350(10) 0.01057 346.7 13.6
366(10) 0.01011 346.7 13.7
356(10) 0.00954 346.6 13.8
360(11) 0.00902 346.6 13.9
381(11) 0.00893 346.6 14.1
334(9) 0.01115 346.6 14.3
357(10) 0.01014 346.5 14.6
376(10) 0.00931 346.5 14.9
385(11) 0.00839 346.5 15.4
363(10) 0.00991 346.5 15.8
343(10) 0.01080 346.4 16.4
394(10) 0.00936 346.4 17.0
369(10) 0.00970 346.4 17.9
368(10) 0.00907 346.3 18.7
364(10) 0.00930 346.3 19.6
359(10) 0.01042 346.3 20.6
364(10) 0.01002 346.3 21.7
351(10) 0.00994 346.2 22.9
365(10) 0.00923 346.2 24.3
370(10) 0.00949 346.2 25.8
380(10) 0.00977 346.2 27.3
379(10) 0.00943 346.1 29.0
366(10) 0.00989 346.1 30.8
368(10) 0.00927 346.1 32.7
360(10) 0.00961 346.1 34.7
364(10) 0.01031 346.0 36.7
375(10) 0.00948 346.0 38.7
384(11) 0.00894 346.0 40.7
379(11) 0.00897 346.0 42.6
382(10) 0.00937 345.9 44.3
418(11) 0.00892 345.9 45.8
406(11) 0.00863 345.9 46.9
409(11) 0.00826 345.8 47.8
402(11) 0.00848 345.8 48.2
404(11) 0.00865 345.8 48.1
406(10) 0.00925 345.8 47.7
404(11) 0.00847 345.7 46.9
400(11) 0.00819 345.7 45.8
384(11) 0.00906 345.7 44.4
381(10) 0.00967 345.7 42.9
373(10) 0.00991 345.6 41.3
380(11) 0.00892 345.6 39.6
375(11) 0.00889 345.6 38.0
372(10) 0.00934 345.6 36.4
385(10) 0.00935 345.5 35.0
346(10) 0.01083 345.5 33.6
356(10) 0.00985 345.5 32.4
369(11) 0.00885 345.5 31.4
356(10) 0.00998 345.4 30.6
369(10) 0.01012 345.4 30.0
377(10) 0.00980 345.4 29.7
359(10) 0.00986 345.3 29.6
359(10) 0.00929 345.3 29.8
390(11) 0.00898 345.3 30.3
351(10) 0.01047 345.3 31.2
354(10) 0.01063 345.2 32.6
371(10) 0.00934 345.2 34.5
377(11) 0.00865 345.2 37.1
386(11) 0.00896 345.2 40.4
366(10) 0.00989 345.1 44.7
386(10) 0.00942 345.1 49.7
397(11) 0.00865 345.1 55.8
407(11) 0.00789 345.1 62.9
365(10) 0.00984 345.0 71.1
384(10) 0.00968 345.0 80.3
431(11) 0.00873 345.0 90.4
438(11) 0.00796 345.0 101.0
472(12) 0.00704 344.9 111.5
460(11) 0.00758 344.9 121.0
435(11) 0.00853 344.9 128.3
476(11) 0.00761 344.8 132.4
441(11) 0.00818 344.8 132.6
437(11) 0.00795 344.8 128.8
476(12) 0.00684 344.8 121.7
428(11) 0.00872 344.7 112.2
423(11) 0.00842 344.7 101.6
423(11) 0.00819 344.7 90.9
443(12) 0.00747 344.7 80.5
396(11) 0.00901 344.6 71.0
400(10) 0.00923 344.6 62.5
387(10) 0.00913 344.6 55.0
418(11) 0.00801 344.6 48.7
377(10) 0.00939 344.5 43.5
406(11) 0.00878 344.5 39.2
381(10) 0.00979 344.5 35.8
394(11) 0.00857 344.5 33.3
383(11) 0.00899 344.4 31.7
352(10) 0.01019 344.4 31.1
381(10) 0.00961 344.4 31.7
421(11) 0.00875 344.4 34.2
413(11) 0.00845 344.3 39.4
436(11) 0.00801 344.3 48.2
471(12) 0.00745 344.3 61.6
483(11) 0.00761 344.2 79.9
486(11) 0.00759 344.2 102.3
571(13) 0.00597 344.2 126.1
625(14) 0.00535 344.2 146.2
639(13) 0.00556 344.1 155.5
613(13) 0.00608 344.1 149.5
578(13) 0.00636 344.1 130.8
500(12) 0.00709 344.1 106.3
480(12) 0.00689 344.0 82.0
408(11) 0.00864 344.0 61.1
409(11) 0.00903 344.0 44.9
396(10) 0.00950 344.0 33.4
392(10) 0.00922 343.9 25.6
402(11) 0.00818 343.9 20.6
367(10) 0.00911 343.9 17.4
367(10) 0.01003 343.9 15.3
380(10) 0.00986 343.8 13.7
368(10) 0.00944 343.8 12.6
361(11) 0.00902 343.8 11.7
376(11) 0.00881 343.7 10.9
361(10) 0.01025 343.7 10.2
353(10) 0.01037 343.7 9.7
347(10) 0.00982 343.7 9.2
360(11) 0.00902 343.6 8.8
357(10) 0.00964 343.6 8.4
357(10) 0.01024 343.6 8.1
342(10) 0.01063 343.6 7.8
351(10) 0.01005 343.5 7.5
372(10) 0.00926 343.5 7.3
368(10) 0.00964 343.5 7.1
346(10) 0.01073 343.5 6.9
349(10) 0.01007 343.4 6.7
340(10) 0.01005 343.4 6.5
321(10) 0.01085 343.4 6.4
355(10) 0.00984 343.4 6.2
348(10) 0.01064 343.3 6.1
342(10) 0.01043 343.3 6.0
340(10) 0.01008 343.3 5.9
347(10) 0.00999 343.2 5.8
372(10) 0.00951 343.2 5.7
346(10) 0.01077 343.2 5.6
334(10) 0.01037 343.2 5.5
330(10) 0.01014 343.1 5.5
339(10) 0.00995 343.1 5.4
335(10) 0.01077 343.1 5.3
348(10) 0.01071 343.1 5.3
345(10) 0.00985 343.0 5.2
363(11) 0.00906 343.0 5.2
340(10) 0.01045 343.0 5.1
372(10) 0.00981 343.0 5.1
355(10) 0.01040 342.9 5.0
321(10) 0.01106 342.9 5.0
329(10) 0.00994 342.9 5.0
346(10) 0.00999 342.9 5.0
336(10) 0.01106 342.8 4.9
343(10) 0.01075 342.8 4.9
318(10) 0.01079 342.8 4.9
362(11) 0.00867 342.7 4.9
369(11) 0.00904 342.7 4.9
345(10) 0.01060 342.6 4.9
359(10) 0.01020 342.6 4.9
344(10) 0.01036 342.6 4.9
366(11) 0.00864 342.5 4.9
345(10) 0.01003 342.5 4.9
395(10) 0.00933 342.5 4.9
342(10) 0.01082 342.4 4.9
344(10) 0.01035 342.4 4.9
362(11) 0.00889 342.4 5.0
354(10) 0.00970 342.3 5.0
346(10) 0.01072 342.3 5.0
354(10) 0.01050 342.3 5.0
308(9) 0.01169 342.2 5.0
334(10) 0.00975 342.2 5.1
326(10) 0.01078 342.2 5.1
351(10) 0.01046 342.1 5.2
344(10) 0.01071 342.1 5.2
317(9) 0.01121 342.1 5.3
349(10) 0.00973 342.0 5.3
354(10) 0.00981 342.0 5.4
334(10) 0.01090 341.9 5.5
378(10) 0.00952 341.9 5.6
349(10) 0.00970 341.9 5.7
332(10) 0.01012 341.8 5.8
358(10) 0.00952 341.8 5.9
332(10) 0.01104 341.8 6.0
378(10) 0.00943 341.7 6.2
367(10) 0.00913 341.7 6.3
351(10) 0.00973 341.7 6.5
354(10) 0.00974 341.6 6.7
369(10) 0.01015 341.6 6.9
364(10) 0.00975 341.6 7.2
361(10) 0.00945 341.5 7.5
354(10) 0.00996 341.5 7.8
352(10) 0.01015 341.5 8.2
358(10) 0.01039 341.4 8.7
360(10) 0.00976 341.4 9.3
350(10) 0.00958 341.4 10.0
348(10) 0.00998 341.3 10.9
338(10) 0.01081 341.3 12.2
354(10) 0.01045 341.3 13.8
403(11) 0.00844 341.2 16.1
394(11) 0.00835 341.2 19.1
366(10) 0.00934 341.1 23.2
396(11) 0.00905 341.1 28.6
428(11) 0.00860 341.1 35.2
433(11) 0.00799 341.0 43.2
465(12) 0.00703 341.0 52.1
468(12) 0.00754 341.0 61.3
488(11) 0.00759 340.9 69.2
501(12) 0.00737 340.9 74.2
518(12) 0.00655 340.9 74.6
487(12) 0.00673 340.8 70.4
471(12) 0.00750 340.8 62.9
438(11) 0.00839 340.8 53.9
400(10) 0.00915 340.7 45.1
386(11) 0.00889 340.7 37.1
371(11) 0.00894 340.7 30.4
397(11) 0.00860 340.6 25.0
387(10) 0.00958 340.6 20.9
370(10) 0.01013 340.6 17.8
373(10) 0.00956 340.5 15.6
351(10) 0.00934 340.5 14.0
365(10) 0.00964 340.4 12.9
333(9) 0.01116 340.4 12.1
356(10) 0.01045 340.4 11.5
336(10) 0.01067 340.3 11.1
341(10) 0.00954 340.3 10.8
330(10) 0.01049 340.3 10.6
351(10) 0.01065 340.2 10.4
348(10) 0.01043 340.2 10.3
359(10) 0.00970 340.2 10.2
317(10) 0.01086 340.1 10.2
332(10) 0.01033 340.1 10.2
349(10) 0.01066 340.1 10.2
333(10) 0.01040 340.0 10.2
322(10) 0.01025 340.0 10.3
331(10) 0.01010 340.0 10.4
351(10) 0.00998 339.9 10.6
346(10) 0.01083 339.9 10.7
353(10) 0.01032 339.9 10.9
355(10) 0.00985 339.8 11.1
335(10) 0.01023 339.8 11.3
354(10) 0.00992 339.8 11.6
343(10) 0.01089 339.7 11.9
347(10) 0.01014 339.7 12.2
377(11) 0.00871 339.6 12.5
346(10) 0.00994 339.6 12.9
378(10) 0.00969 339.6 13.3
381(10) 0.00967 339.5 13.7
347(10) 0.01000 339.5 14.2
365(10) 0.00910 339.5 14.8
340(10) 0.01035 339.4 15.3
352(10) 0.01033 339.4 16.0
368(10) 0.01007 339.4 16.7
356(10) 0.00975 339.3 17.5
352(10) 0.00938 339.3 18.4
351(10) 0.01002 339.3 19.4
342(10) 0.01073 339.2 20.4
370(10) 0.01009 339.2 21.6
369(10) 0.00931 339.2 22.9
363(10) 0.00915 339.1 24.3
375(10) 0.00946 339.1 25.8
379(10) 0.00966 339.1 27.5
363(10) 0.01032 339.0 29.2
357(10) 0.01001 339.0 31.1
372(11) 0.00877 338.9 33.0
381(10) 0.00936 338.9 35.1
365(10) 0.01008 338.9 37.1
370(10) 0.01007 338.8 39.1
363(10) 0.00972 338.8 41.1
372(11) 0.00885 338.8 42.9
379(10) 0.00912 338.7 44.5
374(10) 0.01001 338.7 45.9
385(10) 0.00937 338.7 47.1
397(11) 0.00845 338.6 48.1
372(11) 0.00888 338.6 49.1
371(10) 0.00917 338.6 50.2
388(10) 0.00948 338.5 51.3
368(10) 0.00989 338.5 52.6
381(10) 0.00912 338.5 54.3
381(11) 0.00894 338.4 56.3
378(10) 0.00923 338.4 58.7
420(11) 0.00883 338.4 61.8
413(11) 0.00878 338.3 65.5
431(11) 0.00789 338.3 70.2
435(12) 0.00750 338.3 76.0
415(11) 0.00828 338.2 83.2
424(11) 0.00877 338.2 92.1
421(11) 0.00854 338.1 103.3
443(11) 0.00791 338.1 117.0
498(12) 0.00676 338.1 134.0
503(12) 0.00690 338.0 154.6
544(12) 0.00682 338.0 179.3
577(13) 0.00602 338.0 208.4
608(13) 0.00566 337.9 242.1
669(14) 0.00520 337.9 280.0
726(14) 0.00492 337.9 321.1
806(15) 0.00458 337.8 363.5
891(16) 0.00391 337.8 403.7
891(16) 0.00369 337.8 437.0
881(16) 0.00386 337.7 458.3
847(15) 0.00432 337.7 463.4
874(15) 0.00427 337.7 451.5
826(16) 0.00414 337.6 425.3
773(15) 0.00425 337.6 390.0
740(15) 0.00473 337.6 350.4
694(14) 0.00532 337.5 310.8
661(13) 0.00559 337.5 273.6
619(13) 0.00563 337.4 240.4
581(13) 0.00556 337.4 211.5
570(13) 0.00599 337.4 187.2
557(12) 0.00662 337.3 167.1
521(12) 0.00704 337.3 150.9
516(12) 0.00675 337.3 138.1
529(13) 0.00611 337.2 128.0
475(12) 0.00745 337.2 120.3
476(11) 0.00783 337.2 114.4
515(12) 0.00706 337.1 109.9
497(12) 0.00701 337.1 106.5
462(12) 0.00730 337.1 103.8
527(12) 0.00646 337.0 101.6
478(11) 0.00781 337.0 99.7
467(11) 0.00793 337.0 97.9
494(12) 0.00697 336.9 96.2
463(12) 0.00705 336.9 94.5
454(12) 0.00740 336.9 92.7
467(11) 0.00791 336.8 90.8
481(12) 0.00756 336.8 88.9
455(12) 0.00738 336.7 86.8
458(12) 0.00717 336.7 84.6
448(11) 0.00773 336.7 82.4
474(11) 0.00790 336.6 80.1
437(11) 0.00833 336.6 77.8
431(11) 0.00797 336.6 75.6
414(11) 0.00820 336.5 73.3
449(11) 0.00771 336.5 71.0
433(11) 0.00860 336.5 68.7
422(11) 0.00861 336.4 66.4
440(12) 0.00755 336.4 64.1
393(11) 0.00880 336.4 61.8
431(11) 0.00819 336.3 59.5
400(10) 0.00923 336.3 57.2
402(11) 0.00866 336.3 55.0
406(11) 0.00839 336.2 52.8
407(11) 0.00816 336.2 50.6
444(11) 0.00804 336.2 48.4
394(10) 0.00935 336.1 46.3
370(10) 0.00952 336.1 44.2
395(11) 0.00860 336.1 42.2
397(11) 0.00894 336.0 40.3
386(10) 0.00935 336.0 38.4
406(10) 0.00917 335.9 36.6
380(10) 0.00913 335.9 34.9
350(10) 0.00973 335.9 33.3
369(10) 0.00924 335.8 31.7
359(10) 0.01029 335.8 30.2
370(10) 0.01008 335.8 28.8
375(10) 0.00924 335.7 27.5
370(11) 0.00897 335.7 26.2
388(11) 0.00885 335.7 25.0
366(10) 0.01010 335.6 23.9
358(10) 0.01035 335.6 22.8
371(10) 0.00934 335.6 21.8
358(10) 0.00941 335.5 20.8
379(10) 0.00931 335.5 19.9
361(10) 0.01012 335.5 19.1
339(10) 0.01099 335.4 18.3
354(10) 0.00993 335.4 17.5
348(10) 0.00931 335.4 16.8
379(10) 0.00909 335.3 16.1
354(10) 0.01047 335.3 15.5
353(10) 0.01039 335.2 14.9
332(10) 0.01055 335.2 14.4
345(10) 0.00952 335.2 13.8
344(10) 0.01024 335.1 13.3
329(9) 0.01118 335.1 12.8
367(10) 0.00988 335.1 12.4
341(10) 0.01029 335.0 12.0
344(10) 0.00976 335.0 11.6
319(10) 0.01089 335.0 11.2
311(9) 0.01176 334.9 10.8
340(10) 0.01072 334.9 10.5
352(10) 0.00963 334.9 10.2
348(10) 0.00977 334.8 9.9
318(9) 0.01124 334.8 9.6
344(10) 0.01089 334.8 9.3
356(10) 0.00980 334.7 9.1
353(10) 0.00979 334.7 8.8
340(10) 0.01004 334.7 8.6
327(10) 0.01082 334.6 8.4
330(9) 0.01128 334.6 8.1
328(10) 0.01107 334.6 7.9
350(10) 0.00984 334.5 7.7
341(10) 0.00982 334.5 7.6
355(10) 0.00983 334.4 7.4
327(9) 0.01130 334.4 7.2
332(10) 0.01061 334.4 7.0
344(10) 0.00993 334.3 6.9
351(10) 0.00966 334.3 6.7
347(10) 0.01042 334.3 6.6
332(10) 0.01104 334.2 6.5
324(10) 0.01069 334.2 6.3
353(10) 0.00941 334.2 6.2
344(10) 0.01017 334.1 6.1
357(10) 0.01030 334.1 6.1
313(9) 0.01190 334.1 6.0
321(10) 0.01073 334.0 5.9
313(10) 0.01062 334.0 5.7
313(9) 0.01145 334.0 5.6
352(10) 0.01037 333.9 5.5
329(9) 0.01127 333.9 5.4
356(10) 0.00971 333.9 5.4
353(11) 0.00903 333.8 5.2
343(10) 0.01033 333.8 5.2
338(10) 0.01105 333.7 5.1
332(10) 0.01094 333.7 5.0
358(10) 0.00958 333.7 4.9
336(10) 0.01004 333.6 4.8
344(10) 0.01040 333.6 4.8
318(9) 0.01179 333.6 4.7
355(10) 0.01025 333.5 4.6
347(10) 0.01011 333.5 4.5
333(10) 0.00977 333.5 4.5
334(10) 0.01038 333.4 4.4
341(10) 0.01087 333.4 4.4
319(9) 0.01146 333.4 4.3
330(10) 0.01061 333.3 4.2
349(10) 0.00933 333.3 4.2
333(10) 0.00994 333.3 4.1
322(9) 0.01158 333.2 4.1
338(10) 0.01039 333.2 4.0
335(10) 0.01022 333.2 4.0
345(10) 0.00958 333.1 3.9
321(9) 0.01127 333.1 3.9
330(9) 0.01127 333.0 3.8
337(10) 0.01059 333.0 3.8
334(10) 0.01046 333.0 3.7
339(10) 0.01001 332.9 3.7
357(10) 0.00961 332.9 3.7
332(10) 0.01106 332.9 3.6
307(9) 0.01162 332.8 3.6
332(10) 0.01019 332.8 3.5
344(10) 0.01008 332.8 3.5
329(10) 0.01087 332.7 3.5
337(10) 0.01103 332.7 3.5
328(10) 0.01080 332.7 3.4
299(9) 0.01178 332.6 3.4
323(10) 0.01042 332.6 3.4
347(10) 0.01027 332.6 3.3
332(9) 0.01110 332.5 3.3
298(9) 0.01206 332.5 3.3
311(10) 0.01078 332.5 3.3
325(10) 0.01083 332.4 3.2
339(10) 0.01056 332.4 3.2
324(9) 0.01134 332.4 3.2
357(10) 0.00932 332.3 3.2
336(10) 0.00976 332.3 3.1
335(10) 0.01002 332.2 3.1
317(9) 0.01168 332.2 3.1
354(10) 0.01058 332.2 3.1
351(10) 0.01021 332.1 3.0
334(10) 0.00982 332.1 3.0
342(10) 0.01007 332.1 3.0
343(10) 0.01075 332.0 3.0
331(9) 0.01129 332.0 3.0
318(10) 0.01082 332.0 2.9
321(10) 0.01012 331.9 2.9
348(10) 0.00995 331.9 2.9
326(9) 0.01121 331.9 2.9
334(10) 0.01104 331.8 2.9
340(10) 0.01017 331.8 2.9
343(10) 0.00934 331.8 2.9
331(10) 0.01065 331.7 2.8
346(10) 0.01089 331.7 2.8
325(9) 0.01147 331.7 2.8
325(10) 0.01028 331.6 2.8
299(9) 0.01118 331.6 2.8
348(10) 0.00968 331.5 2.8
339(10) 0.01087 331.5 2.8
330(10) 0.01101 331.5 2.8
322(10) 0.01052 331.4 2.8
319(10) 0.01042 331.4 2.7
329(10) 0.01039 331.4 2.7
338(10) 0.01098 331.3 2.7
317(9) 0.01161 331.3 2.7
324(10) 0.00989 331.3 2.7
294(9) 0.01148 331.2 2.7
333(10) 0.01013 331.2 2.7
338(10) 0.01105 331.2 2.7
327(10) 0.01087 331.1 2.7
314(10) 0.01104 331.1 2.7
332(10) 0.01024 331.0 2.7
314(9) 0.01135 331.0 2.7
342(10) 0.01084 331.0 2.7
324(10) 0.01105 330.9 2.7
314(9) 0.01151 330.9 2.7
339(10) 0.01010 330.9 2.7
341(10) 0.01027 330.8 2.7
348(10) 0.01055 330.8 2.7
330(10) 0.01088 330.7 2.7
369(11) 0.00886 330.7 2.7
338(10) 0.00969 330.7 2.7
318(9) 0.01144 330.6 2.7
326(9) 0.01134 330.6 2.7
314(9) 0.01113 330.6 2.7
310(9) 0.01118 330.5 2.7
349(10) 0.00999 330.5 2.7
339(10) 0.01087 330.4 2.7
328(9) 0.01140 330.4 2.7
337(10) 0.01034 330.4 2.7
342(10) 0.00942 330.3 2.7
346(10) 0.00964 330.3 2.7
332(9) 0.01112 330.3 2.7
339(9) 0.01110 330.2 2.7
322(10) 0.01086 330.2 2.7
321(10) 0.01025 330.1 2.8
329(10) 0.01037 330.1 2.8
341(10) 0.01088 330.1 2.8
325(9) 0.01140 330.0 2.8
349(10) 0.01034 330.0 2.8
328(10) 0.00998 330.0 2.8
324(10) 0.01075 329.9 2.8
345(10) 0.01085 329.9 2.8
338(10) 0.01078 329.9 2.9
325(10) 0.01078 329.8 2.9
320(10) 0.01000 329.8 2.9
324(10) 0.01044 329.7 2.9
370(10) 0.00989 329.7 2.9
331(10) 0.01091 329.7 2.9
319(10) 0.01079 329.6 3.0
309(10) 0.01077 329.6 3.0
333(10) 0.01044 329.6 3.0
340(10) 0.01089 329.5 3.0
346(10) 0.01032 329.5 3.1
308(9) 0.01163 329.4 3.1
335(10) 0.00994 329.4 3.1
346(10) 0.00986 329.4 3.1
345(10) 0.01074 329.3 3.2
348(10) 0.01036 329.3 3.2
344(10) 0.01018 329.3 3.3
331(10) 0.01027 329.2 3.3
328(10) 0.01037 329.2 3.3
310(9) 0.01202 329.1 3.4
347(10) 0.00987 329.1 3.4
340(10) 0.00991 329.1 3.5
337(10) 0.01023 329.0 3.5
333(10) 0.01063 329.0 3.6
332(9) 0.01118 329.0 3.6
327(10) 0.01093 328.9 3.7
327(10) 0.01052 328.9 3.7
347(10) 0.00978 328.8 3.8
326(10) 0.01103 328.8 3.8
331(9) 0.01116 328.8 3.9
363(11) 0.00900 328.7 3.9
342(10) 0.00980 328.7 4.0
323(10) 0.01078 328.7 4.1
320(9) 0.01135 328.6 4.1
326(9) 0.01148 328.6 4.2
334(10) 0.01045 328.5 4.3
334(10) 0.00986 328.5 4.4
321(10) 0.01081 328.5 4.4
329(10) 0.01108 328.4 4.5
307(9) 0.01205 328.4 4.6
316(9) 0.01111 328.4 4.7
330(10) 0.00995 328.3 4.8
328(10) 0.01060 328.3 4.9
300(9) 0.01248 328.3 5.0
339(10) 0.01056 328.2 5.1
339(10) 0.00991 328.2 5.3
319(10) 0.01024 328.1 5.4
330(10) 0.01043 328.1 5.5
323(9) 0.01147 328.1 5.7
342(10) 0.01099 328.0 5.8
328(10) 0.01083 328.0 6.0
339(10) 0.00967 328.0 6.1
356(10) 0.00964 327.9 6.3
338(10) 0.01100 327.9 6.5
320(9) 0.01145 327.8 6.7
332(10) 0.01039 327.8 6.9
342(10) 0.00941 327.8 7.1
328(10) 0.01046 327.7 7.4
327(9) 0.01137 327.7 7.6
337(10) 0.01061 327.7 7.9
349(10) 0.00978 327.6 8.2
344(10) 0.00955 327.6 8.5
333(10) 0.01032 327.5 8.9
355(10) 0.01048 327.5 9.2
373(10) 0.00971 327.5 9.6
333(10) 0.01060 327.4 10.1
346(10) 0.00987 327.4 10.5
318(9) 0.01126 327.4 11.0
333(9) 0.01112 327.3 11.6
319(9) 0.01134 327.3 12.2
346(10) 0.00990 327.2 12.9
348(10) 0.00998 327.2 13.6
342(10) 0.01064 327.2 14.4
320(9) 0.01150 327.1 15.3
309(9) 0.01134 327.1 16.2
345(10) 0.01016 327.1 17.3
372(10) 0.00935 327.0 18.4
344(10) 0.01018 327.0 19.6
342(10) 0.01079 326.9 20.9
357(10) 0.00962 326.9 22.4
338(10) 0.01011 326.9 23.9
368(11) 0.00880 326.8 25.6
381(10) 0.00942 326.8 27.5
346(10) 0.01067 326.8 29.4
351(10) 0.00977 326.7 31.6
347(10) 0.00975 326.7 33.8
370(10) 0.00928 326.7 36.3
344(10) 0.01073 326.6 38.7
375(10) 0.00991 326.6 41.6
374(10) 0.00945 326.5 44.8
368(11) 0.00896 326.5 48.5
381(10) 0.00937 326.5 53.4
401(10) 0.00928 326.4 60.3
366(10) 0.01006 326.4 70.6
371(10) 0.00923 326.4 85.6
408(11) 0.00768 326.3 105.5
439(11) 0.00780 326.3 128.6
485(11) 0.00759 326.2 150.4
493(12) 0.00742 326.2 163.8
527(12) 0.00644 326.2 163.0
483(12) 0.00668 326.1 148.8
478(12) 0.00727 326.1 127.9
446(11) 0.00833 326.1 106.7
434(11) 0.00840 326.0 89.2
397(11) 0.00891 326.0 76.3
427(11) 0.00771 325.9 67.7
395(11) 0.00894 325.9 61.9
416(11) 0.00897 325.9 57.6
377(10) 0.00973 325.8 54.2
372(11) 0.00907 325.8 51.0
390(11) 0.00828 325.8 48.1
364(10) 0.00945 325.7 45.2
362(10) 0.01028 325.7 42.5
378(10) 0.00944 325.6 39.9
358(10) 0.00956 325.6 37.4
341(10) 0.00989 325.6 35.0
358(10) 0.00973 325.5 32.8
352(10) 0.01062 325.5 30.7
362(10) 0.00980 325.5 28.7
351(10) 0.01004 325.4 26.9
369(10) 0.00918 325.4 25.2
340(10) 0.01080 325.3 23.6
336(10) 0.01099 325.3 22.1
358(10) 0.00975 325.3 20.8
361(10) 0.00921 325.2 19.6
351(10) 0.00949 325.2 18.5
324(9) 0.01117 325.2 17.4
344(10) 0.01066 325.1 16.5
347(10) 0.01012 325.1 15.6
339(10) 0.01007 325.0 14.8
324(10) 0.01082 325.0 14.1
322(9) 0.01111 325.0 13.5
338(10) 0.01090 324.9 12.9
308(9) 0.01150 324.9 12.3
339(10) 0.00916 324.9 11.8
328(10) 0.01054 324.8 11.4
353(10) 0.01038 324.8 11.0
324(9) 0.01145 324.8 10.6
330(10) 0.01062 324.7 10.3
332(10) 0.00966 324.7 10.0
336(10) 0.01060 324.6 9.7
341(10) 0.01069 324.6 9.5
329(9) 0.01139 324.6 9.2
320(10) 0.01031 324.5 9.0
326(10) 0.00991 324.5 8.8
314(9) 0.01153 324.5 8.7
328(10) 0.01104 324.4 8.5
308(9) 0.01191 324.4 8.4
331(10) 0.01033 324.3 8.3
310(10) 0.01068 324.3 8.2
341(10) 0.01003 324.3 8.1
343(10) 0.01079 324.2 8.0
336(10) 0.01097 324.2 7.9
329(10) 0.01066 324.2 7.9
342(10) 0.00990 324.1 7.8
347(10) 0.00979 324.1 7.8
347(10) 0.01068 324.0 7.8
344(10) 0.01049 324.0 7.8
314(9) 0.01149 324.0 7.8
347(10) 0.00988 323.9 7.8
326(10) 0.01099 323.9 7.8
334(10) 0.01107 323.9 7.8
324(9) 0.01123 323.8 7.8
329(10) 0.01041 323.8 7.9
324(10) 0.01055 323.7 7.9
297(9) 0.01194 323.7 8.0
301(9) 0.01245 323.7 8.0
318(9) 0.01123 323.6 8.1
301(9) 0.01169 323.6 8.2
342(10) 0.01021 323.6 8.3
339(10) 0.01040 323.5 8.4
309(9) 0.01214 323.5 8.5
303(9) 0.01177 323.4 8.6
327(10) 0.01059 323.4 8.7
332(10) 0.01044 323.4 8.9
345(10) 0.01052 323.3 9.0
311(9) 0.01190 323.3 9.2
307(9) 0.01138 323.3 9.3
303(9) 0.01130 323.2 9.5
330(10) 0.01067 323.2 9.7
331(10) 0.01101 323.2 9.8
320(9) 0.01171 323.1 10.0
329(10) 0.01068 323.1 10.2
329(10) 0.01005 323.0 10.4
332(10) 0.01083 323.0 10.6
338(10) 0.01088 323.0 10.8
313(9) 0.01196 322.9 11.1
325(10) 0.01041 322.9 11.3
339(10) 0.00946 322.9 11.5
329(10) 0.01043 322.8 11.8
347(10) 0.01037 322.8 12.0
337(10) 0.01098 322.7 12.3
321(9) 0.01114 322.7 12.5
331(10) 0.00984 322.7 12.8
320(10) 0.01096 322.6 13.1
332(10) 0.01088 322.6 13.4
324(9) 0.01149 322.6 13.7
325(9) 0.01109 322.5 14.0
337(10) 0.00960 322.5 14.3
332(10) 0.01034 322.4 14.6
343(10) 0.01094 322.4 15.0
342(10) 0.01075 322.4 15.4
300(9) 0.01197 322.3 15.9
306(10) 0.01059 322.3 16.4
316(10) 0.01103 322.3 16.9
319(9) 0.01151 322.2 17.5
326(9) 0.01126 322.2 18.2
325(10) 0.01090 322.1 19.0
344(10) 0.00963 322.1 19.9
339(10) 0.00987 322.1 20.9
323(9) 0.01165 322.0 22.1
355(10) 0.01022 322.0 23.4
348(10) 0.01009 322.0 24.8
353(10) 0.00943 321.9 26.4
321(9) 0.01113 321.9 28.2
353(10) 0.01057 321.8 30.1
356(10) 0.00973 321.8 32.1
322(10) 0.01091 321.8 34.2
348(10) 0.01001 321.7 36.3
334(10) 0.01074 321.7 38.3
316(9) 0.01174 321.7 40.1
306(9) 0.01164 321.6 41.6
327(10) 0.01062 321.6 42.7
343(10) 0.01009 321.5 43.2
366(10) 0.00968 321.5 43.3
344(10) 0.01077 321.5 43.0
345(10) 0.01039 321.4 42.3
343(10) 0.00993 321.4 41.5
352(10) 0.00982 321.4 40.6
348(10) 0.01038 321.3 39.8
350(10) 0.01067 321.3 39.1
347(10) 0.01011 321.3 38.7
356(10) 0.00928 321.2 38.6
339(10) 0.01027 321.2 38.7
361(10) 0.00977 321.1 39.3
373(10) 0.01004 321.1 40.2
379(10) 0.00930 321.1 41.6
361(10) 0.00923 321.0 43.4
365(10) 0.00934 321.0 45.7
317(9) 0.01173 321.0 48.6
375(10) 0.00990 320.9 52.0
422(11) 0.00804 320.9 56.0
378(11) 0.00874 320.8 60.7
392(11) 0.00885 320.8 66.0
406(11) 0.00903 320.8 72.1
398(10) 0.00924 320.7 78.9
398(11) 0.00879 320.7 86.5
399(11) 0.00845 320.7 94.9
447(11) 0.00771 320.6 104.0
459(11) 0.00802 320.6 113.8
448(11) 0.00831 320.5 124.0
491(12) 0.00703 320.5 134.5
508(12) 0.00652 320.5 145.0
530(12) 0.00660 320.4 155.1
528(12) 0.00698 320.4 164.2
509(12) 0.00716 320.4 171.7
487(12) 0.00719 320.3 177.1
533(13) 0.00615 320.3 180.0
517(12) 0.00656 320.2 180.0
534(12) 0.00689 320.2 177.2
510(12) 0.00704 320.2 171.7
484(12) 0.00701 320.1 163.9
487(12) 0.00693 320.1 154.5
500(12) 0.00689 320.1 144.1
462(11) 0.00812 320.0 133.3
426(11) 0.00856 320.0 122.3
431(11) 0.00817 319.9 111.6
423(11) 0.00809 319.9 101.5
417(11) 0.00850 319.9 92.0
415(11) 0.00894 319.8 83.2
378(10) 0.00910 319.8 75.1
394(11) 0.00825 319.8 67.9
362(10) 0.00931 319.7 61.3
362(10) 0.00995 319.7 55.5
383(10) 0.00979 319.7 50.3
366(10) 0.00932 319.6 45.7
360(10) 0.00919 319.6 41.6
380(11) 0.00902 319.5 38.0
370(10) 0.00988 319.5 34.8
360(10) 0.01017 319.5 32.0
352(10) 0.00992 319.4 29.6
372(11) 0.00886 319.4 27.4
350(10) 0.01006 319.4 25.5
366(10) 0.00981 319.3 23.8
358(10) 0.01040 319.3 22.2
373(10) 0.00935 319.2 20.9
353(10) 0.00923 319.2 19.6
342(10) 0.01008 319.2 18.5
345(10) 0.01067 319.1 17.5
339(10) 0.01087 319.1 16.6
329(10) 0.01063 319.1 15.8
338(10) 0.00955 319.0 15.1
343(10) 0.01007 319.0 14.5
340(10) 0.01078 318.9 13.9
333(9) 0.01120 318.9 13.3
330(10) 0.01063 318.9 12.7
352(11) 0.00891 318.8 12.2
334(10) 0.01052 318.8 11.9
326(9) 0.01150 318.8 11.4
334(10) 0.01081 318.7 11.0
324(10) 0.01097 318.7 10.6
324(10) 0.01020 318.6 10.3
313(10) 0.01100 318.6 9.9
315(9) 0.01176 318.6 9.6
329(9) 0.01116 318.5 9.3
326(10) 0.01098 318.5 9.0
367(10) 0.00960 318.5 8.8
326(10) 0.01096 318.4 8.5
345(10) 0.01079 318.4 8.3
321(9) 0.01120 318.3 8.1
327(10) 0.01056 318.3 7.8
327(10) 0.01077 318.3 7.6
328(10) 0.01083 318.2 7.5
348(10) 0.01066 318.2 7.3
305(9) 0.01159 318.2 7.2
345(10) 0.00967 318.1 7.0
328(10) 0.01044 318.1 6.9
315(9) 0.01138 318.1 6.7
310(9) 0.01194 318.0 6.6
311(9) 0.01150 318.0 6.5
346(10) 0.00986 317.9 6.3
345(10) 0.00994 317.9 6.2
334(10) 0.01049 317.9 6.1
332(9) 0.01128 317.8 6.0
327(10) 0.01052 317.8 5.9
311(9) 0.01124 317.8 5.8
344(10) 0.00966 317.7 5.8
310(9) 0.01184 317.7 5.7
322(9) 0.01160 317.6 5.6
325(10) 0.01021 317.6 5.6
333(10) 0.00985 317.6 5.5
320(9) 0.01124 317.5 5.4
311(9) 0.01157 317.5 5.4
328(9) 0.01143 317.5 5.3
296(9) 0.01169 317.4 5.3
314(10) 0.01032 317.4 5.2
317(10) 0.01105 317.3 5.2
331(10) 0.01095 317.3 5.1
324(9) 0.01153 317.3 5.1
334(10) 0.01018 317.2 5.0
339(10) 0.00950 317.2 5.0
334(10) 0.01038 317.2 5.0
305(9) 0.01226 317.1 4.9
344(10) 0.01075 317.1 4.9
328(10) 0.01066 317.0 4.9
319(10) 0.01008 317.0 4.9
295(9) 0.01188 317.0 4.9
327(9) 0.01137 316.9 4.8
325(9) 0.01147 316.9 4.8
318(10) 0.01104 316.9 4.8
308(10) 0.01077 316.9 4.8
348(10) 0.01006 316.9 4.8
331(9) 0.01116 316.9 4.8
329(10) 0.01108 316.9 4.8
313(9) 0.01109 316.9 4.8
307(9) 0.01110 316.8 4.8
340(10) 0.01007 316.8 4.8
330(9) 0.01137 316.8 4.8
328(9) 0.01133 316.8 4.8
326(10) 0.01068 316.8 4.9
324(10) 0.01029 316.8 4.9
321(10) 0.01057 316.8 4.9
310(9) 0.01203 316.8 4.9
337(10) 0.01052 316.8 5.0
311(10) 0.01096 316.8 5.0
305(10) 0.01076 316.8 5.0
312(9) 0.01111 316.8 5.1
307(9) 0.01207 316.8 5.1
323(10) 0.01065 316.8 5.2
324(10) 0.01012 316.8 5.2
310(9) 0.01125 316.7 5.3
303(9) 0.01140 316.7 5.3
312(9) 0.01190 316.7 5.4
330(10) 0.01041 316.7 5.5
330(10) 0.01007 316.7 5.5
313(9) 0.01128 316.7 5.6
334(10) 0.01064 316.7 5.7
322(9) 0.01152 316.7 5.8
329(10) 0.01031 316.7 5.9
330(10) 0.01021 316.7 6.0
334(10) 0.01047 316.7 6.1
309(9) 0.01183 316.7 6.3
333(9) 0.01108 316.7 6.4
311(9) 0.01122 316.7 6.6
318(10) 0.01067 316.6 6.7
340(10) 0.01066 316.6 6.9
320(10) 0.01103 316.6 7.1
324(9) 0.01153 316.6 7.3
337(10) 0.01059 316.6 7.5
332(10) 0.00993 316.6 7.8
340(10) 0.01022 316.6 8.1
328(10) 0.01093 316.6 8.4
323(9) 0.01164 316.6 8.8
355(10) 0.00953 316.6 9.2
353(11) 0.00901 316.6 9.6
307(10) 0.01095 316.6 10.0
324(9) 0.01138 316.6 10.5
317(9) 0.01168 316.6 11.1
329(10) 0.01089 316.6 11.8
326(10) 0.00966 316.5 12.5
337(10) 0.01006 316.5 13.4
333(9) 0.01122 316.5 14.4
324(9) 0.01154 316.5 15.6
338(10) 0.01040 316.5 17.0
313(10) 0.01055 316.5 18.8
335(10) 0.00984 316.5 21.0
362(10) 0.01024 316.5 23.9
351(10) 0.01041 316.5 27.8
361(10) 0.00928 316.5 33.1
378(11) 0.00865 316.5 40.3
369(11) 0.00906 316.5 49.9
355(10) 0.01052 316.5 62.5
382(10) 0.00969 316.5 78.5
453(11) 0.00760 316.5 97.8
459(12) 0.00744 316.4 120.1
480(12) 0.00727 316.4 143.8
529(12) 0.00706 316.4 166.4
559(12) 0.00645 316.4 184.8
578(13) 0.00596 316.4 195.5
576(13) 0.00588 316.4 195.4
498(12) 0.00719 316.4 183.9
493(12) 0.00754 316.4 164.0
472(12) 0.00735 316.4 140.2
468(12) 0.00702 316.4 116.5
438(11) 0.00781 316.4 95.0
403(11) 0.00894 316.4 77.1
404(10) 0.00919 316.4 62.7
395(11) 0.00878 316.4 51.9
357(10) 0.00973 316.4 44.1
359(10) 0.00993 316.3 38.8
386(10) 0.00927 316.3 35.7
335(9) 0.01117 316.3 34.2
352(10) 0.00991 316.3 34.3
370(11) 0.00901 316.3 35.9
367(10) 0.00970 316.3 38.9
373(10) 0.00962 316.3 43.2
352(10) 0.01069 316.3 48.7
405(11) 0.00828 316.3 55.1
420(12) 0.00753 316.3 61.4
394(11) 0.00834 316.3 66.5
402(10) 0.00915 316.3 68.9
413(11) 0.00877 316.3 67.7
399(11) 0.00870 316.3 63.2
361(11) 0.00901 316.3 56.9
362(10) 0.00981 316.2 50.0
381(10) 0.00974 316.2 43.7
358(10) 0.01044 316.2 38.2
337(10) 0.01048 316.2 33.9
353(11) 0.00905 316.2 30.7
349(10) 0.01006 316.2 28.4
344(10) 0.01073 316.2 27.0
366(10) 0.01004 316.2 26.2
355(10) 0.00965 316.2 25.9
362(11) 0.00848 316.2 25.9
346(10) 0.00981 316.2 26.3
334(9) 0.01122 316.2 26.9
382(10) 0.00960 316.2 27.8
345(10) 0.01017 316.2 29.0
379(11) 0.00848 316.2 30.5
366(10) 0.00968 316.1 32.5
361(10) 0.01025 316.1 35.0
368(10) 0.00990 316.1 38.3
360(10) 0.00928 316.1 42.5
400(11) 0.00817 316.1 48.1
380(10) 0.00917 316.1 55.2
389(10) 0.00951 316.1 64.2
419(11) 0.00851 316.1 75.3
403(11) 0.00877 316.1 88.7
418(11) 0.00834 316.1 104.3
463(12) 0.00752 316.1 121.6
457(11) 0.00824 316.1 139.5
490(12) 0.00725 316.1 156.3
488(12) 0.00695 316.1 169.1
498(12) 0.00681 316.1 175.1
500(12) 0.00722 316.0 172.8
494(12) 0.00749 316.0 162.8
470(12) 0.00736 316.0 147.7
444(12) 0.00754 316.0 130.3
416(11) 0.00821 316.0 112.9
411(11) 0.00884 316.0 96.8
388(10) 0.00957 316.0 82.9
396(11) 0.00877 316.0 71.1
381(11) 0.00903 316.0 61.5
381(11) 0.00883 316.0 53.9
382(10) 0.00934 316.0 48.0
387(10) 0.00962 316.0 43.5
366(10) 0.00932 316.0 40.1
350(10) 0.00940 316.0 37.4
359(10) 0.00967 316.0 35.4
352(10) 0.01055 315.9 33.9
347(10) 0.01064 315.9 32.7
352(10) 0.01025 315.9 31.7
353(10) 0.00922 315.9 31.0
343(10) 0.00982 315.9 30.4
345(10) 0.01081 315.9 30.0
360(10) 0.01021 315.9 29.7
353(10) 0.00957 315.9 29.4
306(10) 0.01063 315.9 29.3
327(10) 0.01060 315.9 29.3
347(10) 0.01073 315.9 29.4
350(10) 0.01056 315.9 29.5
360(10) 0.00991 315.9 29.7
346(10) 0.00976 315.9 30.0
336(10) 0.01021 315.9 30.5
345(10) 0.01089 315.8 30.9
347(10) 0.01058 315.8 31.5
350(10) 0.00989 315.8 32.0
353(10) 0.00953 315.8 32.7
357(10) 0.00964 315.8 33.4
336(10) 0.01103 315.8 34.1
353(10) 0.01022 315.8 34.9
361(10) 0.00975 315.8 35.8
366(10) 0.00931 315.8 36.7
359(10) 0.00945 315.8 37.6
355(10) 0.01053 315.8 38.6
362(10) 0.01022 315.8 39.6
367(10) 0.00961 315.8 40.6
382(11) 0.00840 315.8 41.6
337(10) 0.00983 315.7 42.6
347(10) 0.01066 315.7 43.5
377(10) 0.00954 315.7 44.4
374(10) 0.00911 315.7 45.3
343(10) 0.01008 315.7 46.1
345(10) 0.01034 315.7 46.8
366(10) 0.01004 315.7 47.3
391(11) 0.00895 315.7 47.8
393(11) 0.00821 315.7 48.1
366(10) 0.00936 315.7 48.4
359(10) 0.00959 315.7 48.5
369(10) 0.01014 315.7 48.5
346(10) 0.00967 315.7 48.4
369(11) 0.00875 315.7 48.2
377(10) 0.00911 315.7 47.9
378(10) 0.00966 315.6 47.7
356(10) 0.01048 315.6 47.4
371(10) 0.00931 315.6 47.4
361(11) 0.00897 315.6 47.5
373(11) 0.00902 315.6 48.2
372(10) 0.00977 315.6 49.7
352(10) 0.01052 315.6 52.4
387(10) 0.00925 315.6 56.7
368(10) 0.00916 315.6 63.0
403(11) 0.00832 315.6 71.2
443(11) 0.00802 315.6 81.0
442(11) 0.00846 315.6 91.3
477(12) 0.00718 315.6 99.8
467(12) 0.00675 315.6 103.8
428(11) 0.00790 315.6 101.5
431(11) 0.00860 315.5 93.8
385(10) 0.00950 315.5 83.4
375(10) 0.00921 315.5 73.0
378(11) 0.00844 315.5 64.1
367(10) 0.00924 315.5 57.4
349(10) 0.01053 315.5 53.2
369(10) 0.00999 315.5 51.2
361(10) 0.00980 315.5 51.2
348(10) 0.00945 315.5 52.8
375(11) 0.00901 315.5 55.7
369(10) 0.01012 315.5 59.7
423(11) 0.00859 315.5 64.5
394(10) 0.00912 315.5 69.6
429(11) 0.00775 315.5 74.8
425(11) 0.00799 315.5 79.2
423(11) 0.00878 315.4 82.2
413(11) 0.00866 315.4 83.2
400(11) 0.00860 315.4 81.7
399(11) 0.00835 315.4 78.1
397(11) 0.00859 315.4 73.0
415(11) 0.00899 315.4 67.2
397(11) 0.00876 315.4 61.1
388(11) 0.00865 315.4 55.3
364(10) 0.00950 315.4 50.0
369(10) 0.00926 315.4 45.4
382(10) 0.00979 315.4 41.5
385(11) 0.00903 315.4 38.2
370(11) 0.00882 315.4 35.5
343(10) 0.00995 315.4 33.4
354(10) 0.01011 315.4 31.8
343(10) 0.01081 315.3 30.6
357(10) 0.01011 315.3 29.7
369(10) 0.00928 315.3 29.0
350(10) 0.00977 315.3 28.6
340(10) 0.01059 315.3 28.4
374(10) 0.01006 315.3 28.3
367(11) 0.00879 315.3 28.4
343(10) 0.00982 315.3 28.6
359(10) 0.00946 315.3 28.9
360(10) 0.00996 315.3 29.3
361(10) 0.01029 315.3 29.7
333(10) 0.01061 315.3 30.3
338(10) 0.00965 315.3 30.9
350(10) 0.01014 315.3 31.6
372(10) 0.00971 315.3 32.4
340(10) 0.01080 315.2 33.3
321(9) 0.01125 315.2 34.2
332(10) 0.00988 315.2 35.2
346(10) 0.01007 315.2 36.4
340(10) 0.01084 315.2 37.6
344(10) 0.01081 315.2 38.8
362(10) 0.00955 315.2 40.2
376(11) 0.00855 315.2 41.6
355(10) 0.00994 315.2 43.2
358(10) 0.01034 315.2 44.8
328(9) 0.01139 315.2 46.5
365(10) 0.00960 315.2 48.3
364(10) 0.00911 315.2 50.1
359(10) 0.00963 315.2 52.1
372(10) 0.00996 315.2 54.1
378(10) 0.00976 315.1 56.2
378(11) 0.00899 315.1 58.4
378(11) 0.00829 315.1 60.7
365(10) 0.00911 315.1 63.0
350(10) 0.01061 315.1 65.4
358(10) 0.01004 315.1 67.8
370(10) 0.00926 315.1 70.3
384(11) 0.00901 315.1 72.7
390(10) 0.00907 315.1 75.2
367(10) 0.01017 315.1 77.7
378(10) 0.00940 315.1 80.2
390(11) 0.00907 315.1 82.7
373(10) 0.00959 315.1 85.2
404(11) 0.00847 315.1 87.7
381(10) 0.00978 315.1 90.2
375(10) 0.00946 315.0 92.8
394(11) 0.00872 315.0 95.5
383(11) 0.00895 315.0 98.4
367(10) 0.00960 315.0 101.5
387(10) 0.00954 315.0 104.8
393(11) 0.00878 315.0 108.5
413(11) 0.00823 315.0 112.6
409(11) 0.00824 315.0 117.0
412(11) 0.00889 315.0 121.8
433(11) 0.00857 315.0 126.9
436(11) 0.00764 315.0 132.2
443(12) 0.00746 315.0 137.7
415(11) 0.00817 315.0 142.9
439(11) 0.00824 315.0 147.8
449(11) 0.00830 315.0 151.8
475(12) 0.00708 314.9 154.8
437(12) 0.00744 314.9 156.3
439(11) 0.00775 314.9 156.1
426(11) 0.00869 314.9 154.2
413(11) 0.00899 314.9 150.5
441(11) 0.00766 314.9 145.4
431(11) 0.00768 314.9 139.1
436(11) 0.00825 314.9 132.0
416(11) 0.00887 314.9 124.4
396(10) 0.00929 314.9 116.7
407(11) 0.00860 314.9 109.1
396(11) 0.00825 314.9 101.7
395(11) 0.00861 314.9 94.8
423(11) 0.00873 314.9 88.4
381(10) 0.00971 314.9 82.6
397(11) 0.00860 314.8 77.3
367(10) 0.00914 314.8 72.7
400(11) 0.00870 314.8 68.6
354(10) 0.01053 314.8 65.1
388(10) 0.00954 314.8 62.1
369(10) 0.00944 314.8 59.6
357(10) 0.00921 314.8 57.7
371(10) 0.00932 314.8 56.1
382(10) 0.00981 314.8 54.9
375(10) 0.00961 314.8 53.9
374(10) 0.00946 314.8 53.2
374(10) 0.00929 314.8 52.6
366(10) 0.00945 314.8 52.0
379(10) 0.00988 314.8 51.2
366(10) 0.00958 314.7 50.3
351(10) 0.00986 314.7 49.2
377(11) 0.00872 314.7 47.8
344(10) 0.01045 314.7 46.3
354(10) 0.01045 314.7 44.7
344(10) 0.01016 314.7 43.1
340(10) 0.01010 314.7 41.5
350(10) 0.00993 314.7 40.0
366(10) 0.00976 314.7 38.5
357(10) 0.01038 314.7 37.2
360(10) 0.00957 314.7 35.9
340(10) 0.01015 314.7 34.8
362(10) 0.00943 314.7 33.7
347(10) 0.01049 314.7 32.7
356(10) 0.01052 314.7 31.8
333(10) 0.01028 314.6 31.0
351(10) 0.00952 314.6 30.2
347(10) 0.01018 314.6 29.5
319(9) 0.01130 314.6 28.8
307(9) 0.01214 314.6 28.2
374(10) 0.00913 314.6 27.5
342(10) 0.00996 314.6 26.9
360(10) 0.00946 314.6 26.4
327(9) 0.01127 314.6 25.8
323(9) 0.01161 314.6 25.3
337(10) 0.01054 314.6 24.8
344(10) 0.00959 314.6 24.3
353(10) 0.00960 314.6 23.8
341(10) 0.01087 314.6 23.3
330(9) 0.01123 314.6 22.9
335(10) 0.01025 314.5 22.4
362(11) 0.00863 314.5 22.0
336(10) 0.01038 314.5 21.6
327(9) 0.01146 314.5 21.3
336(10) 0.01108 314.5 20.9
323(10) 0.01072 314.5 20.6
322(10) 0.01015 314.5 20.4
346(10) 0.00995 314.5 20.1
325(9) 0.01149 314.5 19.9
322(9) 0.01160 314.5 19.7
352(10) 0.00971 314.5 19.6
332(10) 0.00982 314.5 19.5
326(10) 0.01075 314.5 19.5
315(9) 0.01180 314.5 19.5
331(10) 0.01097 314.5 19.5
328(10) 0.01069 314.4 19.6
317(10) 0.01085 314.4 19.8
319(10) 0.01064 314.4 20.1
361(10) 0.01038 314.4 20.5
357(10) 0.01042 314.4 20.9
336(10) 0.01012 314.4 21.5
332(10) 0.01005 314.4 22.3
343(10) 0.01014 314.4 23.2
342(10) 0.01088 314.4 24.4
362(10) 0.01001 314.4 25.9
348(10) 0.01006 314.4 27.7
355(10) 0.00942 314.4 29.9
345(10) 0.01005 314.4 32.7
391(10) 0.00960 314.4 36.0
368(10) 0.00959 314.4 40.1
371(11) 0.00881 314.3 44.8
358(10) 0.00965 314.3 50.5
407(11) 0.00881 314.3 57.0
409(11) 0.00904 314.3 64.4
398(11) 0.00887 314.3 72.6
417(11) 0.00809 314.3 81.4
421(11) 0.00821 314.3 90.5
437(11) 0.00827 314.3 99.4
445(11) 0.00839 314.3 107.2
454(12) 0.00752 314.3 113.0
471(12) 0.00709 314.3 116.0
495(12) 0.00687 314.3 115.7
486(12) 0.00754 314.3 112.0
479(11) 0.00772 314.3 105.6
437(11) 0.00802 314.3 97.4
435(12) 0.00748 314.2 88.3
414(11) 0.00836 314.2 79.0
372(10) 0.00984 314.2 70.0
363(10) 0.01019 314.2 61.7
376(11) 0.00893 314.2 54.3
390(11) 0.00828 314.2 47.7
348(10) 0.01033 314.2 42.0
369(10) 0.01016 314.2 37.1
363(10) 0.01013 314.2 32.9
353(10) 0.00967 314.2 29.4
355(10) 0.00929 314.2 26.5
353(10) 0.01014 314.2 24.1
348(10) 0.01064 314.2 22.1
332(10) 0.01096 314.2 20.4
321(10) 0.01084 314.2 19.0
310(10) 0.01076 314.1 17.9
330(10) 0.01051 314.1 16.9
308(9) 0.01221 314.1 16.0
335(10) 0.01100 314.1 15.3
339(10) 0.01023 314.1 14.6
317(10) 0.01061 314.1 14.0
305(9) 0.01168 314.1 13.5
322(9) 0.01165 314.1 13.1
333(10) 0.01053 314.1 12.7
318(10) 0.01090 314.1 12.4
314(10) 0.01032 314.1 12.1
306(9) 0.01110 314.1 11.8
315(9) 0.01174 314.1 11.6
313(9) 0.01119 314.1 11.4
304(9) 0.01141 314.1 11.2
330(10) 0.00997 314.0 11.0
304(9) 0.01130 314.0 10.9
313(9) 0.01188 314.0 10.8
303(9) 0.01165 314.0 10.7
329(10) 0.01010 314.0 10.6
336(10) 0.00972 314.0 10.6
331(10) 0.01095 314.0 10.6
326(9) 0.01151 314.0 10.6
310(9) 0.01126 314.0 10.6
334(10) 0.01052 314.1 10.7
316(9) 0.01135 314.1 10.7
318(9) 0.01117 314.1 10.8
305(9) 0.01235 314.1 11.0
330(10) 0.01023 314.1 11.1
317(10) 0.01057 314.1 11.3
320(10) 0.01075 314.1 11.5
302(9) 0.01215 314.1 11.8
318(9) 0.01168 314.1 12.1
334(10) 0.01044 314.1 12.4
319(10) 0.01032 314.2 12.8
310(9) 0.01126 314.2 13.1
346(10) 0.01025 314.2 13.5
330(9) 0.01139 314.2 14.0
350(10) 0.00977 314.2 14.4
341(10) 0.00985 314.2 14.8
355(10) 0.00963 314.2 15.2
358(10) 0.01050 314.2 15.5
344(10) 0.01065 314.2 15.7
346(10) 0.00964 314.3 15.9
316(10) 0.01012 314.3 16.1
358(10) 0.00953 314.3 16.1
335(10) 0.01104 314.3 16.1
332(10) 0.01090 314.3 16.1
301(9) 0.01129 314.3 16.1
316(10) 0.01007 314.3 16.1
331(10) 0.01019 314.3 16.1
319(9) 0.01163 314.3 16.1
355(10) 0.01003 314.3 16.2
348(10) 0.01005 314.4 16.3
352(10) 0.00916 314.4 16.5
323(10) 0.01092 314.4 16.8
320(9) 0.01151 314.4 17.1
321(9) 0.01126 314.4 17.4
297(9) 0.01163 314.4 17.9
323(10) 0.01069 314.4 18.4
335(10) 0.01038 314.4 19.0
336(10) 0.01105 314.4 19.6
312(9) 0.01160 314.5 20.4
308(9) 0.01134 314.5 21.2
330(10) 0.01009 314.5 22.2
318(10) 0.01090 314.5 23.3
343(10) 0.01086 314.5 24.4
332(10) 0.01089 314.5 25.7
345(10) 0.01036 314.5 27.2
340(10) 0.01033 314.5 28.7
335(10) 0.01081 314.5 30.5
335(9) 0.01121 314.5 32.4
337(10) 0.01030 314.6 34.5
310(9) 0.01112 314.6 36.8
332(10) 0.01042 314.6 39.3
337(10) 0.01078 314.6 42.1
350(10) 0.01077 314.6 45.0
355(10) 0.00992 314.6 48.2
345(10) 0.00989 314.6 51.7
365(10) 0.00951 314.6 55.4
354(10) 0.01026 314.6 59.3
396(10) 0.00943 314.7 63.5
372(10) 0.00910 314.7 68.0
375(11) 0.00906 314.7 72.6
403(11) 0.00858 314.7 77.4
376(10) 0.00977 314.7 82.4
381(10) 0.00985 314.7 87.4
430(11) 0.00783 314.7 92.4
433(11) 0.00758 314.7 97.3
415(11) 0.00857 314.7 101.9
442(11) 0.00834 314.7 106.1
416(11) 0.00871 314.8 109.8
414(11) 0.00825 314.8 112.8
411(11) 0.00770 314.8 115.0
424(11) 0.00806 314.8 116.3
403(10) 0.00921 314.8 116.6
395(10) 0.00920 314.8 115.9
423(11) 0.00791 314.8 114.2
389(11) 0.00830 314.8 111.7
422(11) 0.00824 314.8 108.4
390(10) 0.00961 314.9 104.4
382(10) 0.00948 314.9 100.1
358(10) 0.01003 314.9 95.3
404(11) 0.00819 314.9 90.4
356(10) 0.00990 314.9 85.4
366(10) 0.01009 314.9 80.4
355(10) 0.01004 314.9 75.5
364(10) 0.00971 314.9 70.8
361(10) 0.00949 314.9 66.2
367(10) 0.00931 314.9 61.9
354(10) 0.01048 315.0 57.8
358(10) 0.01002 315.0 54.0
346(10) 0.00980 315.0 50.4
365(10) 0.00914 315.0 47.0
357(10) 0.01004 315.0 43.9
379(10) 0.00977 315.0 41.1
377(11) 0.00903 315.0 38.4
354(10) 0.00955 315.0 36.0
343(10) 0.00979 315.0 33.8
361(10) 0.00977 315.1 31.8
326(9) 0.01127 315.1 29.9
338(10) 0.01047 315.1 28.2
357(10) 0.00965 315.1 26.7
328(10) 0.01075 315.1 25.3
343(10) 0.01037 315.1 24.0
345(10) 0.01076 315.1 22.9
346(10) 0.01011 315.1 21.8
345(10) 0.00965 315.1 20.9
338(10) 0.01020 315.2 20.0
339(10) 0.01075 315.2 19.3
354(10) 0.01049 315.2 18.5
367(10) 0.00947 315.2 17.9
337(10) 0.00956 315.2 17.3
301(9) 0.01162 315.2 16.8
316(9) 0.01146 315.2 16.3
309(9) 0.01188 315.2 15.8
292(9) 0.01234 315.2 15.4
327(10) 0.01012 315.2 15.0
337(10) 0.01040 315.3 14.7
325(9) 0.01159 315.3 14.4
344(10) 0.01067 315.3 14.1
329(10) 0.01034 315.3 13.9
327(10) 0.00974 315.3 13.6
349(10) 0.00955 315.3 13.4
328(9) 0.01132 315.3 13.2
334(9) 0.01121 315.3 13.0
325(10) 0.01058 315.3 12.9
293(9) 0.01153 315.4 12.8
326(10) 0.01049 315.4 12.6
309(9) 0.01208 315.4 12.6
339(10) 0.01075 315.4 12.5
312(9) 0.01198 315.4 12.4
351(10) 0.00982 315.4 12.3
349(10) 0.01008 315.4 12.3
339(10) 0.01092 315.4 12.3
335(10) 0.01097 315.4 12.3
323(10) 0.01079 315.4 12.3
320(10) 0.01020 315.5 12.3
331(10) 0.01033 315.5 12.3
332(9) 0.01124 315.5 12.4
344(10) 0.01040 315.5 12.4
300(9) 0.01111 315.5 12.5
328(10) 0.01000 315.5 12.6
324(10) 0.01072 315.5 12.7
331(9) 0.01112 315.5 12.8
310(9) 0.01157 315.5 13.0
298(9) 0.01152 315.6 13.1
334(10) 0.00976 315.6 13.3
314(9) 0.01127 315.6 13.5
319(9) 0.01156 315.6 13.7
334(10) 0.01066 315.6 13.9
328(10) 0.01024 315.6 14.2
332(10) 0.01014 315.6 14.5
333(10) 0.01089 315.6 14.8
347(10) 0.01063 315.6 15.1
329(10) 0.01038 315.6 15.5
346(10) 0.00966 315.7 15.8
334(10) 0.01053 315.7 16.3
332(10) 0.01087 315.7 16.7
328(9) 0.01124 315.7 17.2
340(10) 0.00968 315.7 17.7
333(10) 0.01010 315.7 18.3
304(9) 0.01170 315.7 18.9
355(10) 0.01013 315.7 19.6
342(10) 0.01100 315.7 20.3
330(10) 0.01030 315.8 21.1
315(10) 0.01044 315.8 22.0
349(10) 0.00957 315.8 22.9
346(10) 0.01049 315.8 23.9
354(10) 0.01061 315.8 25.0
383(11) 0.00870 315.8 26.2
350(10) 0.00915 315.8 27.5
360(10) 0.00962 315.8 28.9
335(9) 0.01109 315.8 30.4
367(10) 0.01016 315.8 32.1
344(10) 0.01025 315.9 33.9
341(10) 0.00924 315.9 35.8
344(10) 0.00961 315.9 37.8
368(10) 0.01004 315.9 40.1
350(10) 0.01045 315.9 42.5
365(10) 0.00975 315.9 45.0
360(10) 0.00930 315.9 47.8
370(10) 0.00941 315.9 50.7
362(10) 0.01011 315.9 53.8
379(10) 0.00967 316.0 57.1
376(11) 0.00894 316.0 60.7
364(10) 0.00914 316.0 64.4
367(10) 0.00927 316.0 68.3
395(10) 0.00936 316.0 72.3
399(10) 0.00911 316.0 76.5
411(11) 0.00842 316.0 80.9
434(11) 0.00783 316.0 85.3
435(11) 0.00815 316.0 89.8
437(11) 0.00856 316.0 94.3
420(11) 0.00824 316.1 98.7
420(11) 0.00830 316.1 103.0
435(11) 0.00804 316.1 107.0
461(11) 0.00763 316.1 110.8
415(11) 0.00891 316.1 114.0
458(11) 0.00759 316.1 116.8
444(12) 0.00732 316.1 118.9
415(11) 0.00846 316.1 120.4
457(11) 0.00775 316.1 121.1
419(11) 0.00878 316.2 120.9
438(11) 0.00788 316.2 120.0
429(11) 0.00793 316.2 118.4
433(11) 0.00809 316.2 116.0
436(11) 0.00838 316.2 113.0
438(11) 0.00851 316.2 109.5
468(12) 0.00735 316.2 105.6
431(11) 0.00790 316.2 101.3
402(11) 0.00896 316.2 96.9
391(10) 0.00944 316.3 92.3
413(10) 0.00907 316.3 87.7
434(11) 0.00802 316.3 83.1
408(11) 0.00824 316.3 78.6
390(11) 0.00901 316.3 74.2
381(10) 0.00978 316.3 69.9
365(10) 0.01027 316.3 65.9
394(11) 0.00867 316.3 62.0
386(11) 0.00836 316.3 58.3
370(10) 0.00957 316.3 54.8
369(10) 0.00984 316.4 51.5
357(10) 0.01055 316.4 48.4
334(10) 0.01054 316.4 45.5
373(11) 0.00879 316.4 42.8
367(10) 0.00967 316.4 40.3
340(10) 0.01095 316.4 37.9
359(10) 0.01016 316.4 35.7
352(10) 0.01006 316.4 33.7
356(11) 0.00902 316.4 31.8
344(10) 0.00983 316.5 30.1
353(10) 0.01044 316.5 28.5
330(9) 0.01118 316.5 27.0
323(9) 0.01117 316.5 25.7
341(10) 0.00981 316.5 24.4
340(10) 0.01026 316.5 23.2
311(9) 0.01192 316.5 22.2
344(10) 0.01073 316.5 21.2
335(10) 0.01039 316.5 20.2
347(10) 0.00925 316.5 19.4
331(10) 0.01044 316.6 18.6
330(9) 0.01130 316.6 17.9
309(9) 0.01171 316.6 17.2
332(10) 0.01000 316.6 16.6
322(10) 0.01077 316.6 16.0
318(9) 0.01127 316.6 15.4
353(10) 0.01062 316.6 14.9
338(10) 0.01051 316.6 14.5
329(10) 0.00982 316.6 14.1
299(9) 0.01124 316.7 13.7
317(10) 0.01103 316.7 13.3
307(9) 0.01211 316.7 13.0
332(10) 0.01046 316.7 12.6
327(10) 0.01065 316.7 12.3
337(10) 0.01005 316.7 12.0
318(9) 0.01121 316.7 11.7
321(9) 0.01141 316.7 11.5
331(10) 0.01041 316.7 11.3
288(9) 0.01203 316.7 11.0
331(10) 0.01050 316.8 10.8
326(9) 0.01122 316.8 10.6
344(10) 0.01073 316.8 10.4
310(10) 0.01107 316.8 10.3
310(10) 0.01101 316.8 10.1
317(9) 0.01119 316.8 10.0
342(10) 0.01087 316.8 9.8
328(9) 0.01125 316.8 9.7
306(9) 0.01111 316.8 9.6
308(10) 0.01079 316.9 9.5
318(10) 0.01081 316.9 9.4
324(9) 0.01144 316.9 9.3
331(10) 0.01108 316.9 9.2
328(10) 0.01076 316.9 9.2
310(10) 0.01078 316.9 9.1
302(9) 0.01141 317.0 9.1
332(9) 0.01109 317.0 9.1
336(10) 0.01092 317.0 9.0
323(10) 0.01071 317.1 9.0
332(10) 0.00929 317.1 9.0
339(10) 0.00991 317.1 9.1
309(9) 0.01208 317.2 9.1
308(9) 0.01168 317.2 9.2
350(10) 0.00975 317.2 9.2
324(10) 0.01044 317.3 9.3
328(10) 0.01050 317.3 9.4
308(9) 0.01206 317.3 9.6
342(10) 0.01052 317.3 9.8
307(9) 0.01161 317.4 10.1
350(10) 0.00935 317.4 10.4
330(10) 0.01016 317.4 10.8
304(9) 0.01200 317.5 11.5
309(9) 0.01194 317.5 12.7
326(10) 0.01062 317.5 15.2
351(10) 0.00940 317.6 20.2
340(10) 0.01062 317.6 29.2
356(10) 0.01039 317.6 43.3
386(11) 0.00900 317.7 62.3
398(11) 0.00867 317.7 82.9
444(11) 0.00759 317.7 99.1
422(11) 0.00863 317.8 104.0
400(10) 0.00933 317.8 94.9
368(10) 0.00924 317.8 76.7
349(10) 0.00953 317.8 56.6
331(10) 0.01051 317.9 39.6
351(10) 0.01000 317.9 27.7
381(10) 0.00984 317.9 20.9
352(10) 0.00954 318.0 17.4
324(10) 0.01032 318.0 16.0
329(10) 0.01047 318.0 15.5
335(9) 0.01119 318.1 15.5
314(9) 0.01158 318.1 15.8
353(10) 0.00947 318.1 16.1
364(11) 0.00900 318.2 16.6
353(10) 0.00977 318.2 17.2
366(10) 0.00985 318.2 17.8
348(10) 0.01084 318.3 18.5
327(10) 0.01071 318.3 19.3
348(10) 0.00950 318.3 20.2
351(10) 0.00991 318.4 21.1
338(10) 0.01100 318.4 22.1
357(10) 0.01039 318.4 23.2
366(10) 0.00938 318.4 24.4
332(10) 0.00982 318.5 25.6
357(10) 0.00967 318.5 27.0
367(10) 0.01010 318.5 28.4
371(10) 0.00997 318.6 29.8
360(10) 0.00960 318.6 31.4
343(10) 0.00945 318.6 33.0
322(9) 0.01109 318.7 34.6
355(10) 0.01041 318.7 36.3
380(10) 0.00966 318.7 38.0
363(10) 0.00962 318.8 39.8
356(10) 0.00948 318.8 41.5
402(11) 0.00856 318.8 43.2
392(10) 0.00949 318.9 44.8
360(10) 0.00985 318.9 46.3
377(11) 0.00903 318.9 47.7
378(11) 0.00871 319.0 48.9
402(11) 0.00849 319.0 49.9
387(10) 0.00954 319.0 50.7
357(10) 0.01033 319.0 51.2
389(11) 0.00860 319.1 51.4
394(11) 0.00841 319.1 51.3
366(10) 0.00936 319.1 51.0
350(10) 0.01050 319.2 50.5
362(10) 0.00993 319.2 49.6
385(11) 0.00885 319.2 48.5
385(11) 0.00883 319.3 47.2
379(10) 0.00943 319.3 45.8
363(10) 0.01019 319.3 44.2
362(10) 0.00962 319.4 42.5
358(10) 0.00955 319.4 40.8
361(10) 0.00936 319.4 39.0
368(10) 0.00959 319.5 37.2
339(10) 0.01100 319.5 35.5
344(10) 0.01016 319.5 33.7
340(10) 0.00988 319.5 32.0
338(10) 0.01050 319.6 30.4
319(9) 0.01152 319.6 28.8
338(10) 0.01096 319.6 27.3
347(10) 0.01015 319.7 25.9
370(11) 0.00884 319.7 24.5
335(10) 0.01030 319.7 23.2
323(9) 0.01127 319.8 22.0
339(10) 0.01097 319.8 20.8
338(10) 0.01017 319.8 19.8
322(10) 0.01024 319.9 18.7
326(10) 0.01101 319.9 17.8
352(10) 0.01045 319.9 16.9
339(10) 0.01093 320.0 16.1
345(10) 0.00998 320.0 15.3
341(10) 0.00954 320.0 14.6
354(10) 0.00956 320.1 14.0
331(9) 0.01123 320.1 13.4
329(9) 0.01121 320.1 12.9
354(10) 0.00988 320.1 12.3
338(10) 0.00973 320.2 11.9
311(9) 0.01120 320.2 11.5
312(9) 0.01193 320.2 11.1
345(10) 0.01068 320.3 10.7
348(10) 0.01013 320.3 10.4
316(10) 0.01092 320.3 10.1
333(10) 0.01044 320.4 9.9
335(10) 0.01105 320.4 9.7
307(9) 0.01205 320.4 9.4
330(10) 0.01067 320.5 9.3
336(10) 0.01013 320.5 9.1
342(10) 0.00960 320.5 9.0
317(9) 0.01169 320.6 8.8
323(9) 0.01110 320.6 8.7
322(9) 0.01109 320.6 8.6
326(10) 0.01048 320.6 8.5
333(10) 0.01021 320.7 8.4
344(10) 0.01082 320.7 8.3
319(9) 0.01122 320.7 8.2
331(10) 0.01008 320.8 8.1
337(10) 0.01014 320.8 8.0
327(10) 0.01085 320.8 7.8
331(9) 0.01131 320.9 7.7
326(10) 0.01095 320.9 7.6
307(10) 0.01103 320.9 7.5
303(9) 0.01124 321.0 7.3
316(10) 0.01078 321.0 7.2
315(9) 0.01187 321.0 7.1
334(10) 0.01009 321.1 7.0
325(10) 0.01036 321.1 6.9
324(10) 0.01106 321.1 6.9
324(9) 0.01137 321.2 6.8
327(9) 0.01142 321.2 6.8
330(10) 0.01033 321.2 6.8
328(10) 0.00995 321.2 6.8
323(10) 0.01086 321.3 6.9
323(9) 0.01122 321.3 6.9
316(9) 0.01161 321.3 7.1
329(10) 0.01014 321.4 7.3
321(10) 0.00999 321.4 7.6
318(10) 0.01087 321.4 7.9
298(9) 0.01237 321.5 8.4
317(9) 0.01179 321.5 9.2
355(10) 0.00993 321.5 10.4
322(10) 0.01039 321.6 12.4
336(10) 0.01039 321.6 16.1
341(10) 0.01075 321.6 22.7
376(10) 0.00974 321.7 33.6
410(11) 0.00835 321.7 50.3
433(12) 0.00719 321.7 72.7
466(12) 0.00741 321.7 98.6
503(12) 0.00729 321.8 122.7
539(12) 0.00682 321.8 136.9
504(12) 0.00694 321.8 134.3
479(12) 0.00656 321.9 116.4
428(11) 0.00808 321.9 90.9
391(10) 0.00941 321.9 65.6
377(10) 0.00977 322.0 44.7
365(10) 0.00936 322.0 29.7
332(10) 0.00988 322.0 20.0
362(10) 0.00916 322.1 14.4
337(10) 0.01090 322.1 11.2
325(9) 0.01118 322.1 9.4
298(9) 0.01155 322.2 8.3
307(9) 0.01119 322.2 7.6
349(10) 0.00962 322.2 7.1
326(9) 0.01147 322.3 6.6
341(10) 0.01052 322.3 6.3
332(10) 0.01068 322.3 6.1
352(10) 0.00939 322.3 5.9
309(9) 0.01153 322.4 5.7
306(9) 0.01204 322.4 5.6
324(10) 0.01076 322.4 5.4
300(9) 0.01166 322.5 5.4
317(10) 0.01073 322.5 5.3
323(9) 0.01112 322.5 5.3
319(9) 0.01167 322.6 5.2
306(9) 0.01144 322.6 5.2
320(10) 0.01053 322.6 5.2
309(9) 0.01142 322.7 5.2
335(10) 0.01065 322.7 5.3
336(10) 0.01086 322.7 5.3
353(10) 0.00949 322.8 5.4
290(9) 0.01192 322.8 5.4
310(10) 0.01090 322.8 5.5
322(10) 0.01106 322.9 5.6
314(9) 0.01177 322.9 5.6
321(10) 0.01067 322.9 5.7
320(10) 0.01020 322.9 5.8
326(10) 0.01043 323.0 5.9
315(9) 0.01141 323.0 6.0
334(9) 0.01113 323.0 6.2
318(9) 0.01134 323.1 6.3
312(10) 0.01056 323.1 6.4
316(9) 0.01123 323.1 6.6
333(10) 0.01095 323.2 6.7
328(9) 0.01146 323.2 6.9
320(10) 0.01062 323.2 7.1
340(10) 0.00951 323.3 7.2
339(10) 0.01045 323.3 7.4
313(9) 0.01204 323.3 7.6
321(9) 0.01149 323.4 7.8
336(10) 0.00999 323.4 8.0
325(10) 0.00980 323.4 8.3
320(10) 0.01061 323.4 8.6
320(9) 0.01142 323.5 9.0
330(9) 0.01124 323.5 9.6
344(10) 0.01041 323.5 10.5
366(11) 0.00888 323.6 11.9
357(10) 0.00959 323.6 13.9
360(10) 0.01034 323.6 16.6
343(10) 0.01053 323.7 19.7
371(10) 0.00929 323.7 22.8
372(11) 0.00899 323.7 25.1
378(10) 0.00918 323.8 25.7
366(10) 0.01011 323.8 24.2
364(10) 0.00964 323.8 21.4
362(10) 0.00973 323.9 18.2
363(10) 0.00921 323.9 15.2
344(10) 0.00973 323.9 12.9
329(9) 0.01140 324.0 11.2
318(9) 0.01135 324.0 10.0
324(10) 0.01059 324.0 9.3
336(10) 0.00987 324.0 8.9
327(10) 0.01094 324.1 8.6
332(9) 0.01118 324.1 8.4
325(10) 0.01089 324.1 8.3
327(10) 0.01056 324.2 8.2
331(10) 0.01039 324.2 8.1
314(9) 0.01113 324.2 8.1
346(10) 0.01076 324.3 8.1
343(10) 0.01009 324.3 8.1
340(10) 0.00994 324.3 8.2
341(10) 0.01020 324.4 8.2
336(10) 0.01076 324.4 8.3
318(9) 0.01162 324.4 8.4
355(10) 0.00954 324.5 8.6
323(10) 0.01056 324.5 8.7
343(10) 0.01003 324.5 8.9
349(10) 0.01040 324.5 9.1
333(9) 0.01124 324.6 9.3
340(10) 0.01016 324.6 9.5
321(10) 0.00990 324.6 9.8
335(10) 0.01021 324.7 10.0
325(9) 0.01126 324.7 10.3
321(9) 0.01152 324.7 10.5
337(10) 0.01052 324.8 10.7
332(10) 0.00959 324.8 10.9
342(10) 0.01001 324.8 11.1
309(9) 0.01191 324.9 11.2
323(9) 0.01144 324.9 11.2
348(10) 0.01008 324.9 11.3
354(11) 0.00902 325.0 11.2
341(10) 0.01023 325.0 11.1
335(9) 0.01115 325.0 11.0
316(9) 0.01162 325.1 10.8
316(10) 0.01061 325.1 10.5
306(10) 0.01098 325.1 10.3
326(10) 0.01043 325.1 10.0
327(9) 0.01148 325.2 9.7
310(9) 0.01165 325.2 9.4
317(9) 0.01108 325.2 9.1
340(10) 0.00980 325.3 8.8
325(10) 0.01066 325.3 8.5
324(9) 0.01138 325.3 8.2
337(10) 0.01076 325.4 8.0
362(10) 0.00951 325.4 7.7
323(10) 0.01100 325.4 7.5
330(10) 0.01055 325.5 7.3
312(9) 0.01191 325.5 7.2
332(10) 0.01086 325.5 7.0
322(10) 0.01077 325.5 6.9
330(10) 0.01034 325.5 6.8
332(10) 0.01046 325.5 6.7
329(9) 0.01129 325.5 6.6
312(10) 0.01069 325.5 6.6
322(10) 0.01031 325.5 6.6
310(10) 0.01080 325.4 6.6
313(9) 0.01143 325.4 6.6
322(9) 0.01154 325.4 6.7
324(10) 0.01077 325.4 6.8
325(10) 0.01053 325.4 6.9
332(10) 0.01046 325.4 7.0
325(10) 0.01101 325.3 7.1
334(9) 0.01111 325.3 7.3
332(10) 0.01025 325.3 7.5
311(10) 0.01076 325.3 7.8
304(9) 0.01163 325.3 8.0
322(9) 0.01144 325.3 8.3
321(9) 0.01156 325.3 8.6
337(10) 0.01018 325.2 9.0
337(10) 0.00977 325.2 9.3
338(10) 0.01062 325.2 9.8
326(9) 0.01128 325.2 10.2
324(9) 0.01148 325.2 10.7
324(10) 0.01055 325.2 11.1
327(10) 0.00979 325.1 11.7
351(10) 0.00973 325.1 12.2
369(10) 0.00994 325.1 12.8
349(10) 0.01058 325.1 13.4
316(9) 0.01128 325.1 14.0
333(10) 0.00999 325.1 14.6
344(10) 0.00979 325.1 15.2
339(10) 0.01106 325.0 15.8
326(9) 0.01150 325.0 16.4
340(10) 0.01031 325.0 16.9
320(10) 0.01039 325.0 17.4
364(10) 0.00945 325.0 17.9
343(10) 0.01088 325.0 18.3
318(9) 0.01157 324.9 18.6
345(10) 0.01009 324.9 18.8
312(10) 0.01072 324.9 18.9
326(10) 0.01054 324.9 19.0
338(10) 0.01089 324.9 18.9
350(10) 0.01024 324.9 18.8
341(10) 0.01007 324.8 18.6
344(10) 0.00988 324.8 18.3
337(10) 0.01041 324.8 18.0
324(9) 0.01152 324.8 17.6
341(10) 0.01053 324.8 17.2
337(10) 0.01032 324.8 16.8
327(10) 0.01071 324.8 16.4
358(10) 0.01001 324.7 16.0
336(10) 0.01092 324.7 15.6
323(10) 0.01075 324.7 15.3
337(10) 0.00995 324.7 15.0
352(10) 0.00983 324.7 14.8
345(10) 0.01012 324.7 14.8
328(9) 0.01131 324.6 14.8
320(10) 0.01086 324.6 15.1
311(10) 0.01063 324.6 15.6
342(10) 0.00981 324.6 16.5
337(10) 0.01090 324.6 18.1
336(10) 0.01102 324.6 20.7
352(10) 0.00955 324.6 24.5
333(10) 0.01000 324.5 30.0
360(10) 0.00975 324.5 37.5
363(10) 0.01008 324.5 47.1
350(10) 0.01062 324.5 58.4
363(10) 0.00927 324.5 70.4
364(11) 0.00892 324.5 81.1
392(11) 0.00892 324.4 87.7
412(11) 0.00891 324.4 88.0
384(10) 0.00971 324.4 82.1
383(10) 0.00910 324.4 72.6
350(10) 0.00963 324.4 61.8
369(10) 0.00983 324.4 51.4
404(10) 0.00912 324.4 42.1
378(10) 0.00961 324.3 34.1
365(10) 0.00940 324.3 27.5
367(11) 0.00879 324.3 22.4
332(10) 0.01080 324.3 18.5
336(9) 0.01109 324.3 15.6
333(9) 0.01130 324.3 13.6
346(10) 0.00998 324.2 12.0
340(10) 0.00996 324.2 11.0
318(10) 0.01066 324.2 10.2
337(10) 0.01091 324.2 9.6
358(10) 0.01017 324.2 9.1
323(10) 0.01077 324.2 8.8
312(10) 0.01076 324.2 8.6
330(10) 0.01005 324.1 8.4
331(9) 0.01122 324.1 8.4
330(10) 0.01106 324.1 8.3
312(9) 0.01166 324.1 8.3
302(9) 0.01173 324.1 8.4
326(10) 0.01074 324.1 8.5
348(10) 0.01060 324.0 8.7
350(10) 0.01040 324.0 8.9
327(10) 0.01056 324.0 9.3
333(10) 0.01018 324.0 9.7
353(10) 0.00995 324.0 10.2
333(9) 0.01118 324.0 10.9
331(10) 0.01083 323.9 11.8
328(10) 0.01028 323.9 13.0
306(10) 0.01100 323.9 14.4
315(9) 0.01110 323.9 16.2
322(9) 0.01151 323.9 18.4
349(10) 0.01000 323.9 20.9
343(10) 0.00998 323.9 24.0
344(10) 0.00982 323.8 27.4
318(9) 0.01139 323.8 31.0
346(10) 0.01067 323.8 34.8
319(10) 0.01042 323.8 38.2
323(10) 0.01025 323.8 40.9
357(10) 0.00950 323.8 42.2
339(10) 0.01065 323.7 42.0
339(10) 0.01094 323.7 40.3
328(10) 0.01018 323.7 37.4
318(10) 0.01041 323.7 34.0
341(10) 0.01019 323.7 30.5
342(10) 0.01066 323.7 27.1
327(9) 0.01136 323.7 24.0
318(9) 0.01109 323.6 21.3
368(11) 0.00901 323.6 19.1
344(10) 0.01050 323.6 17.2
323(9) 0.01150 323.6 15.7
353(10) 0.01039 323.6 14.5
326(10) 0.01041 323.6 13.5
313(10) 0.01040 323.5 12.8
335(10) 0.01047 323.5 12.2
331(9) 0.01115 323.5 11.8
308(9) 0.01194 323.5 11.4
315(10) 0.01103 323.5 11.0
308(10) 0.01077 323.5 10.7
325(9) 0.01172 323.5 10.6
323(9) 0.01127 323.4 10.3
306(9) 0.01135 323.4 10.1
303(9) 0.01121 323.4 9.9
317(10) 0.01071 323.4 9.7
337(10) 0.01082 323.4 9.5
327(9) 0.01109 323.4 9.2
334(10) 0.01040 323.3 9.0
335(10) 0.01000 323.3 8.9
312(9) 0.01138 323.3 8.7
332(9) 0.01112 323.3 8.4
310(9) 0.01161 323.3 8.2
310(10) 0.01096 323.3 8.0
322(10) 0.01074 323.2 7.8
331(10) 0.01072 323.2 7.6
331(9) 0.01137 323.2 7.4
343(10) 0.01044 323.2 7.2
345(10) 0.00993 323.2 7.1
350(10) 0.00973 323.2 6.9
334(10) 0.01070 323.2 6.7
315(9) 0.01182 323.1 6.6
335(10) 0.01094 323.1 6.4
316(9) 0.01137 323.1 6.3
333(10) 0.01067 323.1 6.1
353(10) 0.01025 323.1 6.0
342(10) 0.01083 323.1 5.8
333(10) 0.01071 323.0 5.7
338(10) 0.00995 323.0 5.5
317(9) 0.01122 323.0 5.4
322(9) 0.01140 323.0 5.3
330(9) 0.01124 323.0 5.2
295(9) 0.01206 323.0 5.1
316(10) 0.01060 323.0 5.0
302(9) 0.01142 322.9 4.9
350(10) 0.01024 322.9 4.8
323(9) 0.01159 322.9 4.7
315(9) 0.01113 322.9 4.6
328(10) 0.00973 322.9 4.6
323(10) 0.01082 322.9 4.5
355(10) 0.01028 322.8 4.4
338(10) 0.01087 322.8 4.4
312(9) 0.01142 322.8 4.3
333(10) 0.00979 322.8 4.2
311(9) 0.01169 322.8 4.2
325(10) 0.01103 322.8 4.2
309(9) 0.01223 322.8 4.1
336(10) 0.01066 322.7 4.1
309(10) 0.01068 322.7 4.1
314(10) 0.01096 322.7 4.0
315(9) 0.01179 322.7 4.0
294(9) 0.01225 322.7 4.0
304(9) 0.01207 322.7 4.0
333(10) 0.01026 322.6 4.0
329(10) 0.01048 322.6 3.9
348(10) 0.01065 322.6 3.9
326(9) 0.01150 322.6 3.9
323(10) 0.01076 322.6 3.9
332(10) 0.00981 322.6 3.9
330(10) 0.01054 322.6 4.0
333(9) 0.01114 322.5 4.0
311(9) 0.01162 322.5 4.0
318(10) 0.01094 322.5 4.0
307(9) 0.01131 322.5 4.0
331(10) 0.01046 322.5 4.1
333(9) 0.01122 322.5 4.1
320(9) 0.01137 322.4 4.1
307(9) 0.01176 322.4 4.2
328(10) 0.01042 322.4 4.2
328(10) 0.01097 322.4 4.2
339(10) 0.01100 322.4 4.3
335(10) 0.01046 322.4 4.3
316(10) 0.01101 322.3 4.4
315(10) 0.01104 322.3 4.5
316(9) 0.01134 322.3 4.5
330(9) 0.01122 322.3 4.6
309(9) 0.01118 322.3 4.7
296(9) 0.01182 322.3 4.7
338(10) 0.01004 322.3 4.8
321(9) 0.01111 322.2 4.9
351(10) 0.01064 322.2 5.0
325(10) 0.01085 322.2 5.1
316(10) 0.01042 322.2 5.2
318(10) 0.01058 322.2 5.4
334(10) 0.01095 322.2 5.5
345(10) 0.01070 322.1 5.6
332(10) 0.01055 322.1 5.8
322(10) 0.01040 322.1 5.9
313(9) 0.01145 322.1 6.1
312(9) 0.01176 322.1 6.3
323(9) 0.01150 322.1 6.5
322(10) 0.01048 322.1 6.7
333(10) 0.00958 322.0 7.0
353(10) 0.00967 322.0 7.2
331(9) 0.01131 322.0 7.5
335(10) 0.01108 322.0 7.7
320(9) 0.01114 322.0 8.0
338(10) 0.00957 322.0 8.4
329(10) 0.01050 321.9 8.7
340(10) 0.01097 321.9 9.1
349(10) 0.01065 321.9 9.5
333(10) 0.01066 321.9 10.0
332(10) 0.00979 321.9 10.5
357(10) 0.00917 321.9 11.0
344(10) 0.01075 321.9 11.7
342(10) 0.01085 321.8 12.4
339(10) 0.00997 321.8 13.2
331(10) 0.01016 321.8 14.1
336(10) 0.01056 321.8 15.1
336(9) 0.01108 321.8 16.3
332(10) 0.01077 321.8 17.8
323(10) 0.01095 321.7 19.5
333(10) 0.01042 321.7 21.7
361(10) 0.00965 321.7 24.6
390(10) 0.00956 321.7 28.6
381(10) 0.00932 321.7 34.4
377(10) 0.00933 321.7 42.6
365(10) 0.00944 321.7 54.2
395(11) 0.00870 321.6 69.8
441(11) 0.00849 321.6 89.8
449(11) 0.00791 321.6 113.7
457(11) 0.00772 321.6 140.0
483(12) 0.00711 321.6 165.5
530(12) 0.00666 321.6 187.1
514(12) 0.00729 321.5 204.9
524(12) 0.00671 321.5 221.1
531(13) 0.00632 321.5 236.4
534(13) 0.00635 321.5 247.0
489(12) 0.00721 321.5 246.7
490(11) 0.00757 321.5 233.0
489(12) 0.00699 321.4 210.5
466(12) 0.00726 321.4 186.4
473(12) 0.00732 321.4 166.1
445(11) 0.00823 321.4 152.0
433(11) 0.00854 321.4 143.8
428(11) 0.00826 321.4 139.6
460(12) 0.00730 321.4 137.0
427(11) 0.00832 321.3 134.6
455(11) 0.00791 321.3 132.6
444(11) 0.00845 321.3 131.6
461(12) 0.00751 321.3 132.1
423(11) 0.00779 321.3 133.8
451(11) 0.00758 321.3 135.9
461(11) 0.00801 321.2 137.5
480(11) 0.00758 321.2 137.4
472(12) 0.00718 321.2 134.8
452(12) 0.00687 321.2 129.3
455(12) 0.00738 321.2 121.5
415(11) 0.00881 321.2 111.9
429(11) 0.00843 321.2 101.5
390(11) 0.00887 321.1 91.0
428(12) 0.00729 321.1 80.8
381(10) 0.00931 321.1 71.4
351(10) 0.01058 321.1 62.8
387(10) 0.00956 321.1 55.2
370(10) 0.00923 321.1 48.6
347(10) 0.00963 321.0 42.9
354(10) 0.00988 321.0 38.0
373(10) 0.00994 321.0 33.8
352(10) 0.01028 321.0 30.3
361(10) 0.00990 321.0 27.4
345(10) 0.00979 321.0 24.9
325(10) 0.01061 321.0 22.8
335(9) 0.01110 320.9 21.0
347(10) 0.01053 320.9 19.5
356(10) 0.00988 320.9 18.2
348(10) 0.00988 320.9 17.0
372(11) 0.00900 320.9 16.0
340(10) 0.01091 320.9 15.1
328(10) 0.01101 320.8 14.3
331(10) 0.01029 320.8 13.6
326(10) 0.01059 320.8 13.0
340(10) 0.01061 320.8 12.4
339(10) 0.01099 320.8 11.9
355(10) 0.00978 320.8 11.4
321(10) 0.01035 320.8 11.0
334(10) 0.01011 320.7 10.6
330(10) 0.01049 320.7 10.2
298(9) 0.01249 320.7 9.9
309(9) 0.01119 320.7 9.6
347(10) 0.00953 320.7 9.3
341(10) 0.01029 320.7 9.2
341(10) 0.01042 320.6 9.0
362(10) 0.01032 320.6 8.8
366(10) 0.00947 320.6 8.6
316(10) 0.01075 320.6 8.4
312(10) 0.01079 320.6 8.3
324(9) 0.01129 320.6 8.1
368(10) 0.01002 320.5 8.0
331(10) 0.01055 320.5 7.9
316(10) 0.01026 320.5 7.9
353(10) 0.00945 320.5 7.8
344(10) 0.01072 320.5 7.8
341(10) 0.01103 320.5 7.8
344(10) 0.01015 320.5 7.8
344(10) 0.00949 320.4 7.9
338(10) 0.01027 320.4 8.0
331(9) 0.01123 320.4 8.2
341(10) 0.01105 320.4 8.4
333(10) 0.01073 320.4 8.8
341(10) 0.00975 320.4 9.2
324(10) 0.01043 320.3 9.8
315(9) 0.01190 320.3 10.5
333(9) 0.01117 320.3 11.5
326(10) 0.01079 320.3 12.6
344(10) 0.00962 320.3 13.8
356(10) 0.00951 320.3 15.3
358(10) 0.01046 320.3 16.8
315(9) 0.01171 320.2 18.3
339(10) 0.00991 320.2 19.7
345(10) 0.00965 320.2 20.6
336(10) 0.01033 320.2 21.0
310(9) 0.01190 320.2 20.7
338(10) 0.01090 320.2 19.8
350(10) 0.00982 320.1 18.5
332(10) 0.01002 320.1 16.9
320(10) 0.01094 320.1 15.4
357(10) 0.01046 320.1 13.9
325(9) 0.01110 320.1 12.6
316(10) 0.01088 320.1 11.4
317(9) 0.01113 320.1 10.5
341(10) 0.01026 320.0 9.7
341(10) 0.01089 320.0 9.0
339(10) 0.01032 320.0 8.5
349(10) 0.00968 320.0 8.1
328(10) 0.01058 320.0 7.8
347(10) 0.01044 320.0 7.6
333(9) 0.01115 319.9 7.5
333(10) 0.01047 319.9 7.3
337(10) 0.00960 319.9 7.3
311(9) 0.01119 319.9 7.2
306(9) 0.01202 319.9 7.2
332(9) 0.01122 319.9 7.1
334(10) 0.00987 319.8 7.2
318(10) 0.01048 319.8 7.2
322(10) 0.01063 319.8 7.2
304(9) 0.01189 319.8 7.2
314(9) 0.01194 319.8 7.4
336(10) 0.01041 319.8 7.4
343(10) 0.00957 319.9 7.5
309(9) 0.01115 320.0 7.6
317(9) 0.01142 320.1 7.7
321(9) 0.01164 320.2 7.8
331(10) 0.01063 320.3 7.9
310(10) 0.01071 320.4 8.0
320(10) 0.01090 320.5 8.1
342(10) 0.01085 320.5 8.3
327(9) 0.01137 320.6 8.4
303(9) 0.01121 320.7 8.6
305(10) 0.01100 320.8 8.8
342(10) 0.01042 320.9 8.9
335(10) 0.01088 321.0 9.1
346(10) 0.01062 321.1 9.3
320(9) 0.01119 321.2 9.6
380(11) 0.00875 321.3 9.8
369(10) 0.00930 321.3 10.0
317(9) 0.01172 321.4 10.3
313(9) 0.01141 321.5 10.6
360(10) 0.00928 321.6 10.9
336(10) 0.00964 321.7 11.2
328(10) 0.01018 321.8 11.5
339(10) 0.01102 321.9 11.8
324(10) 0.01086 322.0 12.2
344(10) 0.00992 322.1 12.6
336(10) 0.01013 322.1 13.0
339(10) 0.01010 322.2 13.4
325(9) 0.01148 322.3 13.8
315(9) 0.01145 322.4 14.3
334(10) 0.00997 322.5 14.7
319(10) 0.01093 322.6 15.2
352(10) 0.01010 322.7 15.6
338(10) 0.01105 322.8 16.1
349(10) 0.01001 322.9 16.6
335(10) 0.01010 323.0 17.1
323(10) 0.01088 323.0 17.5
359(10) 0.00966 323.1 18.0
323(9) 0.01145 323.2 18.5
358(10) 0.00968 323.3 19.0
358(10) 0.00972 323.4 19.5
360(10) 0.01010 323.5 20.0
347(10) 0.01056 323.6 20.6
362(10) 0.01019 323.7 21.2
357(10) 0.00960 323.8 21.8
344(10) 0.00975 323.8 22.6
349(10) 0.01032 323.9 23.3
371(10) 0.01000 324.0 24.2
341(10) 0.01095 324.1 25.1
357(10) 0.00971 324.2 26.1
329(10) 0.00989 324.3 27.2
339(10) 0.01041 324.4 28.5
382(10) 0.00950 324.5 29.9
358(10) 0.01048 324.6 31.4
337(10) 0.01061 324.7 33.2
358(10) 0.00928 324.7 35.3
368(10) 0.00940 324.8 37.7
359(10) 0.01032 324.9 40.7
356(10) 0.01026 325.0 44.4
385(11) 0.00886 325.1 49.1
367(11) 0.00903 325.2 55.5
396(11) 0.00877 325.3 64.3
397(10) 0.00937 325.4 76.4
428(11) 0.00850 325.5 92.6
431(11) 0.00819 325.5 113.9
430(11) 0.00777 325.6 140.3
480(12) 0.00718 325.7 171.5
482(11) 0.00775 325.8 205.3
524(12) 0.00701 325.9 237.4
562(13) 0.00612 326.0 261.1
550(13) 0.00604 326.1 269.4
556(13) 0.00615 326.2 259.6
519(12) 0.00713 326.3 236.5
490(12) 0.00753 326.3 207.4
488(12) 0.00733 326.4 178.9
475(12) 0.00715 326.5 154.6
430(11) 0.00800 326.6 136.4
440(11) 0.00841 326.7 124.6
451(11) 0.00783 326.8 118.9
442(12) 0.00749 326.9 118.5
478(12) 0.00700 327.0 122.4
450(11) 0.00781 327.1 129.4
483(11) 0.00781 327.2 138.3
492(12) 0.00726 327.2 147.6
506(12) 0.00691 327.3 155.4
463(11) 0.00773 327.4 160.0
477(11) 0.00761 327.5 160.1
472(11) 0.00787 327.6 155.1
432(11) 0.00780 327.7 145.8
451(12) 0.00739 327.8 133.9
468(12) 0.00741 327.9 120.7
435(11) 0.00850 328.0 107.6
405(10) 0.00913 328.0 95.3
429(11) 0.00784 328.1 84.4
414(11) 0.00790 328.2 74.9
394(11) 0.00875 328.3 66.8
390(10) 0.00921 328.4 60.2
393(10) 0.00946 328.5 54.8
383(11) 0.00904 328.6 50.5
377(11) 0.00885 328.7 47.2
369(10) 0.00980 328.8 44.7
391(10) 0.00933 328.9 42.8
375(10) 0.00988 328.9 41.4
369(10) 0.00950 329.0 40.4
381(11) 0.00879 329.1 39.8
365(10) 0.00961 329.2 39.5
387(10) 0.00942 329.3 39.4
408(10) 0.00917 329.4 39.5
375(11) 0.00894 329.5 39.8
388(11) 0.00816 329.6 40.3
387(11) 0.00903 329.7 41.0
383(10) 0.00966 329.7 41.8
383(10) 0.00992 329.8 43.0
387(11) 0.00871 329.9 44.4
390(11) 0.00836 330.0 46.2
366(10) 0.00959 330.1 48.6
403(10) 0.00924 330.2 51.6
402(10) 0.00922 330.3 55.6
373(10) 0.00947 330.4 60.7
387(11) 0.00834 330.5 67.0
381(10) 0.00937 330.6 74.7
431(11) 0.00861 330.6 83.7
399(10) 0.00929 330.7 93.5
419(11) 0.00836 330.8 103.2
397(11) 0.00825 330.9 111.3
417(11) 0.00816 331.0 115.9
424(11) 0.00877 331.1 115.8
406(11) 0.00880 331.2 111.2
398(11) 0.00877 331.3 103.6
392(11) 0.00879 331.4 95.1
411(11) 0.00833 331.4 87.0
421(11) 0.00880 331.5 80.1
384(10) 0.00943 331.6 74.7
388(11) 0.00866 331.7 71.1
409(11) 0.00842 331.8 69.0
388(10) 0.00935 331.9 68.3
371(10) 0.00999 332.0 68.9
399(11) 0.00852 332.1 70.2
419(11) 0.00822 332.2 72.0
405(11) 0.00854 332.2 73.6
399(11) 0.00906 332.3 74.5
397(10) 0.00936 332.4 74.2
416(11) 0.00808 332.5 72.2
375(10) 0.00944 332.6 68.7
415(11) 0.00831 332.7 64.2
389(10) 0.00946 332.8 59.1
386(10) 0.00960 332.9 54.0
411(11) 0.00817 333.0 49.1
374(11) 0.00896 333.1 44.6
369(10) 0.00951 333.1 40.7
378(10) 0.00950 333.2 37.2
367(10) 0.01017 333.3 34.1
372(10) 0.00934 333.4 31.5
360(10) 0.00951 333.5 29.3
365(10) 0.00996 333.6 27.3
399(10) 0.00925 333.7 25.7
375(10) 0.00989 333.8 24.2
358(10) 0.00981 333.9 22.9
362(11) 0.00903 333.9 21.7
338(10) 0.01042 334.0 20.7
357(10) 0.01044 334.1 19.7
370(10) 0.00997 334.2 18.9
346(10) 0.01031 334.3 18.0
351(10) 0.00942 334.4 17.3
350(10) 0.01001 334.5 16.6
364(10) 0.01018 334.6 15.9
362(10) 0.00993 334.7 15.3
344(10) 0.01017 334.8 14.7
345(10) 0.00968 334.8 14.2
357(10) 0.00995 334.9 13.7
343(10) 0.01081 335.0 13.2
343(10) 0.01034 335.1 12.8
327(10) 0.01009 335.2 12.4
342(10) 0.00950 335.3 12.0
339(10) 0.01042 335.4 11.6
341(10) 0.01083 335.5 11.2
350(10) 0.01018 335.6 10.9
339(10) 0.00986 335.6 10.6
323(10) 0.01051 335.7 10.3
307(9) 0.01172 335.8 10.1
361(10) 0.01029 335.9 9.8
347(10) 0.01027 336.0 9.6
346(10) 0.00967 336.1 9.3
335(10) 0.01021 336.2 9.1
369(10) 0.00944 336.3 8.9
340(10) 0.01092 336.4 8.7
348(10) 0.01006 336.4 8.6
348(10) 0.00995 336.5 8.4
364(10) 0.00974 336.6 8.2
359(10) 0.00993 336.7 8.1
328(9) 0.01120 336.8 7.9
344(10) 0.01027 336.9 7.8
345(10) 0.00987 337.0 7.7
360(10) 0.00960 337.1 7.5
339(10) 0.01061 337.2 7.4
350(10) 0.01062 337.3 7.3
336(10) 0.01016 337.3 7.2
325(10) 0.01054 337.4 7.1
349(10) 0.01004 337.5 7.0
374(10) 0.00965 337.6 7.0
344(10) 0.01084 337.7 6.9
347(10) 0.00962 337.8 6.8
341(10) 0.00951 337.9 6.7
335(10) 0.01023 338.0 6.6
359(10) 0.01023 338.1 6.6
351(10) 0.01053 338.1 6.5
356(10) 0.00949 338.2 6.5
320(10) 0.00988 338.3 6.4
307(9) 0.01179 338.4 6.3
351(10) 0.01054 338.5 6.3
314(9) 0.01180 338.6 6.2
317(10) 0.01096 338.7 6.2
331(10) 0.00987 338.8 6.2
357(10) 0.00948 338.9 6.1
344(10) 0.01073 339.0 6.1
354(10) 0.01058 339.0 6.0
379(11) 0.00906 339.1 6.0
349(10) 0.00972 339.2 6.0
343(10) 0.01018 339.3 5.9
365(10) 0.01013 339.4 5.9
368(10) 0.00999 339.5 5.9
341(10) 0.01070 339.6 5.9
354(10) 0.00945 339.7 5.8
354(10) 0.00986 339.8 5.8
308(9) 0.01209 339.8 5.8
326(9) 0.01113 339.9 5.8
366(10) 0.00927 340.0 5.8
353(10) 0.00932 340.1 5.8
352(10) 0.00973 340.2 5.8
325(9) 0.01147 340.3 5.8
350(10) 0.01011 340.4 5.8
317(10) 0.01041 340.5 5.8
334(10) 0.01001 340.6 5.8
316(10) 0.01094 340.7 5.8
357(10) 0.01037 340.7 5.8
340(10) 0.01067 340.8 5.8
338(10) 0.01011 340.9 5.9
342(10) 0.00976 341.0 5.9
357(10) 0.01014 341.1 5.9
324(9) 0.01147 341.2 5.9
327(10) 0.01033 341.3 6.0
320(9) 0.01110 341.4 6.0
344(10) 0.01012 341.5 6.1
330(10) 0.01082 341.5 6.1
328(9) 0.01139 341.6 6.1
335(10) 0.01025 341.7 6.2
383(11) 0.00832 341.8 6.2
352(10) 0.00951 341.9 6.3
354(10) 0.01020 342.0 6.4
333(9) 0.01122 342.1 6.4
352(10) 0.00964 342.2 6.5
351(11) 0.00894 342.3 6.6
329(10) 0.01042 342.3 6.6
336(10) 0.01077 342.4 6.7
360(10) 0.01021 342.5 6.8
335(10) 0.01044 342.6 6.9
346(10) 0.00919 342.7 7.0
319(9) 0.01126 342.8 7.1
375(10) 0.00955 342.9 7.2
343(10) 0.01080 342.9 7.3
318(10) 0.01094 342.9 7.4
337(10) 0.00923 342.9 7.6
347(10) 0.00981 342.9 7.7
341(10) 0.01078 343.0 7.9
351(10) 0.01030 343.0 8.0
338(10) 0.01069 343.0 8.2
357(10) 0.00927 343.0 8.3
338(10) 0.01055 343.0 8.5
325(9) 0.01137 343.1 8.7
367(10) 0.00978 343.1 8.9
340(10) 0.01011 343.1 9.1
363(11) 0.00868 343.1 9.4
326(10) 0.01078 343.1 9.6
342(10) 0.01091 343.2 9.9
334(10) 0.01041 343.2 10.2
341(10) 0.00993 343.2 10.5
329(10) 0.01009 343.2 10.9
342(10) 0.00942 343.2 11.3
360(10) 0.01014 343.3 11.7
348(10) 0.01039 343.3 12.2
368(10) 0.00925 343.3 12.7
355(10) 0.00925 343.3 13.2
340(10) 0.01037 343.3 13.8
350(10) 0.01055 343.4 14.5
379(11) 0.00881 343.4 15.2
372(11) 0.00889 343.4 16.0
363(10) 0.00962 343.4 16.9
377(10) 0.00936 343.4 17.8
344(10) 0.01072 343.5 18.8
350(10) 0.01012 343.5 19.8
370(10) 0.00915 343.5 20.9
345(10) 0.00999 343.5 22.1
358(10) 0.00982 343.5 23.2
387(10) 0.00956 343.6 24.3
364(10) 0.00929 343.6 25.4
338(10) 0.01004 343.6 26.4
368(10) 0.00917 343.6 27.2
377(10) 0.00954 343.6 27.9
371(10) 0.00987 343.7 28.4
354(10) 0.00956 343.7 28.8
361(10) 0.00910 343.7 29.1
392(11) 0.00896 343.7 29.4
385(10) 0.00939 343.7 29.8
352(10) 0.01040 343.8 30.2
369(10) 0.00963 343.8 30.7
354(10) 0.00935 343.8 31.3
343(10) 0.01003 343.8 32.0
351(10) 0.01041 343.8 32.8
352(10) 0.01075 343.9 33.8
382(10) 0.00912 343.9 35.0
388(11) 0.00798 343.9 36.3
355(10) 0.00991 343.9 37.8
374(10) 0.00999 343.9 39.5
378(10) 0.00968 344.0 41.3
362(10) 0.00948 344.0 43.4
364(10) 0.00914 344.0 45.6
385(11) 0.00876 344.0 47.9
363(10) 0.01017 344.0 50.5
377(10) 0.00978 344.1 53.3
376(10) 0.00917 344.1 56.4
413(11) 0.00781 344.1 59.6
379(11) 0.00902 344.1 62.9
361(10) 0.01046 344.1 66.5
388(10) 0.00921 344.2 70.3
371(10) 0.00942 344.2 74.2
406(11) 0.00829 344.2 78.3
409(11) 0.00822 344.2 82.5
404(10) 0.00924 344.2 86.9
411(11) 0.00864 344.3 91.4
435(11) 0.00761 344.3 96.0
420(11) 0.00807 344.3 100.6
448(11) 0.00766 344.3 105.2
452(11) 0.00823 344.3 109.7
468(12) 0.00751 344.4 114.2
455(11) 0.00766 344.4 118.5
460(12) 0.00745 344.4 122.7
436(11) 0.00826 344.4 126.5
454(11) 0.00818 344.4 130.0
494(12) 0.00701 344.5 133.1
476(12) 0.00710 344.5 135.5
456(11) 0.00767 344.5 137.3
479(12) 0.00753 344.5 138.3
482(11) 0.00771 344.5 138.4
461(12) 0.00736 344.6 137.6
432(11) 0.00775 344.6 135.8
436(11) 0.00806 344.6 133.1
446(11) 0.00794 344.6 129.6
439(11) 0.00854 344.6 125.3
453(12) 0.00754 344.7 120.5
407(11) 0.00837 344.7 115.3
412(11) 0.00868 344.7 109.7
403(11) 0.00897 344.7 103.9
392(10) 0.00943 344.7 98.1
408(11) 0.00854 344.8 92.3
401(11) 0.00841 344.8 86.7
397(11) 0.00874 344.8 81.2
396(10) 0.00925 344.8 75.9
377(10) 0.00987 344.8 70.9
380(10) 0.00948 344.9 66.1
396(11) 0.00815 344.9 61.7
391(11) 0.00900 344.9 57.6
387(10) 0.00969 344.9 53.7
352(10) 0.01038 345.0 50.2
375(11) 0.00894 345.0 47.0
396(11) 0.00793 345.0 44.0
377(10) 0.00919 345.0 41.3
325(9) 0.01146 345.0 38.8
338(10) 0.01098 345.1 36.6
358(10) 0.00960 345.1 34.7
399(11) 0.00815 345.1 33.3
363(10) 0.00938 345.1 33.0
378(10) 0.00986 345.1 36.3
379(10) 0.00971 345.2 47.6
395(11) 0.00873 345.2 71.1
401(11) 0.00812 345.2 102.5
419(11) 0.00838 345.2 125.3
412(11) 0.00895 345.2 121.6
412(11) 0.00870 345.3 93.7
362(10) 0.00957 345.3 60.8
372(11) 0.00899 345.3 37.4
373(10) 0.00931 345.3 25.7
387(10) 0.00964 345.3 21.1
361(10) 0.00972 345.4 19.3
327(10) 0.01061 345.4 18.4
353(10) 0.00938 345.4 17.7
353(10) 0.00990 345.4 17.1
382(10) 0.00974 345.4 16.6
345(10) 0.01039 345.5 16.2
380(11) 0.00879 345.5 15.8
357(10) 0.00990 345.5 15.4
372(10) 0.00959 345.5 15.1
362(10) 0.01031 345.5 14.8
332(10) 0.01032 345.6 14.5
349(10) 0.00967 345.6 14.3
358(10) 0.00976 345.6 14.1
372(10) 0.00930 345.6 13.9
343(10) 0.01082 345.6 13.8
362(10) 0.00929 345.7 13.6
363(11) 0.00894 345.7 13.5
346(10) 0.01028 345.7 13.5
341(10) 0.01068 345.7 13.4
344(10) 0.01088 345.7 13.4
387(11) 0.00878 345.8 13.4
363(10) 0.00915 345.8 13.4
361(10) 0.00959 345.8 13.4
350(10) 0.01021 345.8 13.5
347(10) 0.01080 345.8 13.6
404(11) 0.00847 345.9 13.7
374(11) 0.00848 345.9 13.9
348(10) 0.01011 345.9 14.1
363(10) 0.01025 345.9 14.4
364(10) 0.01016 345.9 14.7
376(11) 0.00905 346.0 15.1
346(10) 0.00953 346.0 15.6
396(11) 0.00860 346.0 16.2
374(10) 0.00978 346.0 17.0
373(10) 0.00989 346.0 18.0
376(10) 0.00947 346.1 19.3
390(11) 0.00805 346.1 21.1
365(11) 0.00905 346.1 23.8
385(10) 0.00967 346.1 28.0
397(10) 0.00935 346.1 34.5
446(11) 0.00785 346.2 44.0
448(12) 0.00739 346.2 57.6
482(12) 0.00718 346.2 75.7
515(12) 0.00722 346.2 98.0
507(12) 0.00725 346.2 122.6
555(13) 0.00628 346.3 145.4
562(13) 0.00574 346.3 160.2
523(13) 0.00629 346.3 161.1
514(12) 0.00725 346.3 147.9
476(11) 0.00760 346.3 126.0
463(12) 0.00712 346.4 101.9
461(12) 0.00716 346.4 79.9
418(11) 0.00827 346.4 62.0
431(11) 0.00868 346.4 48.7
412(11) 0.00852 346.4 39.6
389(11) 0.00856 346.5 33.9
411(11) 0.00804 346.5 30.6
368(10) 0.00982 346.5 28.9
383(10) 0.00974 346.5 28.3
389(11) 0.00874 346.5 28.4
385(11) 0.00887 346.6 29.1
369(10) 0.00933 346.6 30.1
387(10) 0.00916 346.6 31.6
369(10) 0.01007 346.6 33.3
377(11) 0.00903 346.6 35.2
377(10) 0.00927 346.7 37.4
387(10) 0.00909 346.7 39.6
405(11) 0.00892 346.7 41.9
381(10) 0.00973 346.7 43.9
404(11) 0.00829 346.7 45.6
390(11) 0.00849 346.8 46.8
393(10) 0.00913 346.8 47.3
404(10) 0.00935 346.8 47.1
406(11) 0.00899 346.8 46.3
385(10) 0.00910 346.8 45.0
350(10) 0.00917 346.9 43.4
351(10) 0.00964 346.9 41.6
386(10) 0.00958 346.9 39.7
355(10) 0.01051 346.9 37.9
402(11) 0.00853 347.0 36.3
355(10) 0.00911 347.0 34.8
370(10) 0.00930 347.0 33.5
375(10) 0.01002 347.0 32.4
376(10) 0.00974 347.0 31.5
374(10) 0.00929 347.1 30.7
376(10) 0.00908 347.1 30.2
405(11) 0.00853 347.1 29.8
362(10) 0.01022 347.1 29.6
385(10) 0.00957 347.1 29.5
401(11) 0.00863 347.2 29.4
396(11) 0.00851 347.2 29.5
391(11) 0.00855 347.2 29.7
402(10) 0.00922 347.2 29.9
394(10) 0.00933 347.2 30.2
373(10) 0.00918 347.3 30.5
378(11) 0.00886 347.3 30.9
401(11) 0.00835 347.3 31.4
418(11) 0.00889 347.3 32.0
380(10) 0.00942 347.3 32.8
396(11) 0.00872 347.4 33.8
395(11) 0.00899 347.4 35.2
412(11) 0.00850 347.4 37.2
396(10) 0.00937 347.4 39.9
400(11) 0.00875 347.4 43.7
382(10) 0.00917 347.5 49.0
438(11) 0.00770 347.5 56.2
403(11) 0.00900 347.5 65.5
425(11) 0.00880 347.5 77.4
445(11) 0.00788 347.5 91.9
504(12) 0.00669 347.6 108.8
534(12) 0.00649 347.6 127.1
560(13) 0.00640 347.6 145.2
529(12) 0.00705 347.6 160.0
513(12) 0.00676 347.6 168.1
507(12) 0.00666 347.7 166.9
480(12) 0.00706 347.7 156.6
495(12) 0.00746 347.7 140.1
501(12) 0.00748 347.7 120.8
470(12) 0.00756 347.7 101.6
455(12) 0.00713 347.8 84.0
441(11) 0.00811 347.8 68.9
457(11) 0.00806 347.8 56.4
421(11) 0.00860 347.8 46.4
402(11) 0.00838 347.8 38.6
382(11) 0.00873 347.9 32.7
394(11) 0.00892 347.9 28.1
397(10) 0.00942 347.9 24.7
393(10) 0.00938 347.9 22.0
361(10) 0.00984 347.9 20.0
371(11) 0.00871 348.0 18.3
334(10) 0.01083 348.0 16.9
371(10) 0.00975 348.0 15.8
336(9) 0.01136 348.0 14.8
366(10) 0.00949 348.0 14.0
375(11) 0.00866 348.1 13.2
362(10) 0.00969 348.1 12.6
380(10) 0.00986 348.1 12.1
364(10) 0.01002 348.1 11.7
372(10) 0.00918 348.1 11.3
354(10) 0.00922 348.2 11.0
344(10) 0.01003 348.2 10.8
355(10) 0.01055 348.2 10.6
370(10) 0.00936 348.2 10.5
383(11) 0.00875 348.2 10.4
330(10) 0.01038 348.3 10.4
354(10) 0.00958 348.3 10.5
374(10) 0.00995 348.3 10.6
347(10) 0.01031 348.3 10.8
326(10) 0.01078 348.3 10.9
355(10) 0.00958 348.4 11.1
355(10) 0.00978 348.4 11.3
350(10) 0.01067 348.4 11.4
350(10) 0.01032 348.4 11.5
345(10) 0.01004 348.4 11.4
324(10) 0.01049 348.5 11.3
353(10) 0.01006 348.5 11.0
368(10) 0.01008 348.5 10.7
372(10) 0.00974 348.5 10.3
343(10) 0.01010 348.5 9.9
385(11) 0.00890 348.6 9.4
374(10) 0.00960 348.6 9.0
359(10) 0.01043 348.6 8.7
346(10) 0.01011 348.6 8.3
343(10) 0.00984 348.6 8.0
335(10) 0.01036 348.6 7.7
353(10) 0.01022 348.5 7.5
356(10) 0.01037 348.5 7.3
339(10) 0.01049 348.5 7.1
347(10) 0.00947 348.5 7.0
357(10) 0.00979 348.4 6.9
377(10) 0.00959 348.4 6.8
354(10) 0.01062 348.4 6.7
351(10) 0.00975 348.4 6.7
354(10) 0.00921 348.4 6.7
355(10) 0.00970 348.3 6.7
360(10) 0.01016 348.3 6.7
345(10) 0.01084 348.3 6.8
311(9) 0.01146 348.3 6.8
355(10) 0.00913 348.3 6.9
375(10) 0.00931 348.2 7.0
370(10) 0.01000 348.2 7.1
353(10) 0.01056 348.2 7.2
339(10) 0.01029 348.2 7.3
364(11) 0.00867 348.2 7.5
378(11) 0.00897 348.1 7.7
350(10) 0.01085 348.1 7.9
365(10) 0.01006 348.1 8.1
374(10) 0.00923 348.1 8.4
381(11) 0.00869 348.1 8.7
345(10) 0.01057 348.0 9.0
342(10) 0.01095 348.0 9.4
327(9) 0.01116 348.0 9.8
352(10) 0.01006 348.0 10.3
352(10) 0.00963 348.0 10.9
355(11) 0.00905 347.9 11.5
351(10) 0.01059 347.9 12.2
367(10) 0.00981 347.9 13.1
355(10) 0.00976 347.9 14.0
375(11) 0.00850 347.9 15.2
360(10) 0.00946 347.8 16.5
376(10) 0.00985 347.8 18.1
393(10) 0.00925 347.8 20.2
385(11) 0.00869 347.8 22.7
380(11) 0.00866 347.7 26.0
368(10) 0.00947 347.7 30.2
364(10) 0.01022 347.7 35.7
378(10) 0.00937 347.7 42.8
404(11) 0.00830 347.7 51.8
396(11) 0.00881 347.6 63.2
423(11) 0.00836 347.6 77.1
454(11) 0.00815 347.6 93.5
463(11) 0.00760 347.6 112.3
469(12) 0.00704 347.6 132.5
478(12) 0.00710 347.5 152.5
526(12) 0.00673 347.5 169.7
562(12) 0.00665 347.5 180.6
520(12) 0.00698 347.5 182.5
518(12) 0.00652 347.5 174.9
516(12) 0.00663 347.4 160.0
461(11) 0.00792 347.4 140.9
436(11) 0.00857 347.4 120.9
445(12) 0.00753 347.4 101.9
369(10) 0.00917 347.4 85.0
402(11) 0.00867 347.3 70.7
401(10) 0.00912 347.3 58.9
388(10) 0.00968 347.3 49.7
397(11) 0.00856 347.3 42.6
376(11) 0.00883 347.3 37.4
384(10) 0.00931 347.2 33.7
371(10) 0.01009 347.2 31.1
365(10) 0.01015 347.2 29.4
349(10) 0.00991 347.2 28.5
390(11) 0.00781 347.2 28.1
362(10) 0.00974 347.1 28.1
383(10) 0.00971 347.1 28.5
364(10) 0.01024 347.1 29.1
354(10) 0.00981 347.1 29.9
363(11) 0.00872 347.1 30.7
387(10) 0.00922 347.0 31.4
395(10) 0.00926 347.0 32.0
366(10) 0.01026 347.0 32.2
373(10) 0.00917 347.0 32.0
342(10) 0.00981 346.9 31.4
373(10) 0.00949 346.9 30.3
341(10) 0.01078 346.9 28.8
339(10) 0.01099 346.9 27.2
334(10) 0.00983 346.9 25.3
369(11) 0.00852 346.8 23.5
342(10) 0.01035 346.8 21.6
384(10) 0.00976 346.8 19.8
364(10) 0.01003 346.8 18.2
334(10) 0.01058 346.8 16.7
348(10) 0.01001 346.7 15.3
376(10) 0.00951 346.7 14.0
359(10) 0.01042 346.7 12.9
333(10) 0.01083 346.7 12.0
357(10) 0.00967 346.7 11.1
363(10) 0.00947 346.6 10.4
352(10) 0.01017 346.6 9.7
333(9) 0.01116 346.6 9.1
363(10) 0.00936 346.6 8.6
356(10) 0.00950 346.6 8.2
342(10) 0.01009 346.5 7.8
372(10) 0.00974 346.5 7.5
353(10) 0.01055 346.5 7.2
347(10) 0.00968 346.5 6.9
345(10) 0.00987 346.5 6.7
348(10) 0.00980 346.4 6.5
316(9) 0.01172 346.4 6.3
352(10) 0.01051 346.4 6.1
332(10) 0.01078 346.4 6.0
358(11) 0.00907 346.4 5.8
333(10) 0.01059 346.3 5.7
367(10) 0.00998 346.3 5.6
360(10) 0.01032 346.3 5.5
373(10) 0.00911 346.3 5.4
355(10) 0.00914 346.2 5.3
397(11) 0.00882 346.2 5.2
366(10) 0.01009 346.2 5.2
323(9) 0.01153 346.2 5.1
320(9) 0.01126 346.2 5.1
339(10) 0.00929 346.1 5.0
337(10) 0.01049 346.1 5.0
348(10) 0.01084 346.1 4.9
345(10) 0.01076 346.1 4.9
355(10) 0.00967 346.1 4.9
365(11) 0.00881 346.0 4.9
342(10) 0.01037 346.0 4.8
354(10) 0.01044 346.0 4.8
359(10) 0.01034 346.0 4.8
359(10) 0.00987 346.0 4.8
345(10) 0.00968 345.9 4.8
333(10) 0.01058 345.9 4.8
335(9) 0.01117 345.9 4.8
345(10) 0.01037 345.9 4.8
373(10) 0.00928 345.9 4.8
351(10) 0.00980 345.8 4.9
348(10) 0.00971 345.8 4.9
357(10) 0.01046 345.8 4.9
362(10) 0.00974 345.8 4.9
350(10) 0.00983 345.8 4.9
362(10) 0.00959 345.7 5.0
383(11) 0.00900 345.7 5.0
388(10) 0.00957 345.8 5.0
339(10) 0.01093 345.8 5.1
359(10) 0.00953 345.8 5.1
334(10) 0.01020 345.8 5.2
340(10) 0.01022 345.9 5.2
308(9) 0.01200 345.9 5.3
354(10) 0.00972 345.9 5.3
353(10) 0.00940 345.9 5.4
356(10) 0.00966 345.9 5.5
347(10) 0.01016 346.0 5.5
366(10) 0.01015 346.0 5.6
347(10) 0.01006 346.0 5.7
346(10) 0.00971 346.0 5.8
343(10) 0.00986 346.0 5.9
332(10) 0.01094 346.1 6.0
354(10) 0.01050 346.1 6.1
336(10) 0.01042 346.1 6.2
319(10) 0.01042 346.1 6.3
340(10) 0.00983 346.1 6.4
370(10) 0.00991 346.2 6.5
380(10) 0.00965 346.2 6.7
357(10) 0.00988 346.2 6.8
367(10) 0.00913 346.2 6.9
379(10) 0.00909 346.3 7.1
360(10) 0.01016 346.3 7.2
349(10) 0.01067 346.3 7.4
374(10) 0.00937 346.3 7.6
349(10) 0.00939 346.3 7.8
339(10) 0.00997 346.4 8.0
335(9) 0.01111 346.4 8.2
357(10) 0.01017 346.4 8.4
338(10) 0.00996 346.4 8.7
382(11) 0.00812 346.4 8.9
347(10) 0.00990 346.5 9.2
367(10) 0.01013 346.5 9.5
343(10) 0.01076 346.5 9.8
355(10) 0.00959 346.5 10.1
364(11) 0.00903 346.5 10.5
348(10) 0.01030 346.6 10.9
357(10) 0.01052 346.6 11.3
370(10) 0.00981 346.6 11.8
347(10) 0.00991 346.6 12.3
357(11) 0.00884 346.6 12.8
359(10) 0.00943 346.7 13.4
347(10) 0.01072 346.7 14.0
371(10) 0.00951 346.7 14.7
357(10) 0.00983 346.7 15.4
388(11) 0.00862 346.8 16.2
379(10) 0.00939 346.8 17.0
400(10) 0.00933 346.8 17.9
378(10) 0.00963 346.8 18.9
369(10) 0.00941 346.8 20.0
360(10) 0.00985 346.9 21.1
363(10) 0.00988 346.9 22.3
358(10) 0.01040 346.9 23.6
378(11) 0.00897 346.9 25.0
361(10) 0.00938 346.9 26.5
376(11) 0.00887 347.0 28.1
364(10) 0.00969 347.0 29.8
357(10) 0.01039 347.0 31.5
354(10) 0.00964 347.0 33.3
360(10) 0.00945 347.0 35.3
373(10) 0.00933 347.1 37.2
379(10) 0.00953 347.1 39.2
395(10) 0.00941 347.1 41.3
375(10) 0.00927 347.1 43.4
372(10) 0.00922 347.2 45.4
403(11) 0.00862 347.2 47.5
369(10) 0.00997 347.2 49.5
384(10) 0.00972 347.2 51.4
386(11) 0.00892 347.2 53.3
405(11) 0.00845 347.3 55.0
402(11) 0.00880 347.3 56.6
407(11) 0.00904 347.3 58.0
403(11) 0.00906 347.3 59.2
405(11) 0.00853 347.3 60.1
375(11) 0.00865 347.4 60.8
388(10) 0.00908 347.4 61.2
394(10) 0.00944 347.4 61.2
377(10) 0.00984 347.4 61.0
390(11) 0.00889 347.4 60.5
408(11) 0.00780 347.5 59.7
392(10) 0.00915 347.5 58.6
403(10) 0.00922 347.5 57.4
368(10) 0.01006 347.5 56.0
389(10) 0.00940 347.6 54.5
379(11) 0.00886 347.6 52.9
404(11) 0.00855 347.6 51.3
372(10) 0.00996 347.6 49.8
376(10) 0.00998 347.6 48.3
405(11) 0.00827 347.7 46.8
391(11) 0.00831 347.7 45.5
380(10) 0.00930 347.7 44.4
391(10) 0.00959 347.7 43.4
382(10) 0.00949 347.7 42.7
409(11) 0.00840 347.8 42.2
424(11) 0.00786 347.8 41.9
418(11) 0.00842 347.8 41.9
404(10) 0.00914 347.8 42.2
416(11) 0.00841 347.8 42.9
401(11) 0.00857 347.9 43.8
388(11) 0.00866 347.9 45.0
394(11) 0.00837 347.9 46.6
405(10) 0.00922 347.9 48.4
410(11) 0.00881 347.9 50.4
410(11) 0.00832 348.0 52.5
430(11) 0.00814 348.0 54.6
440(11) 0.00810 348.0 56.4
415(11) 0.00897 348.0 57.7
416(11) 0.00858 348.1 58.5
418(11) 0.00816 348.1 58.4
407(11) 0.00876 348.1 57.7
410(11) 0.00887 348.1 56.3
418(11) 0.00881 348.1 54.5
416(11) 0.00818 348.2 52.4
428(11) 0.00783 348.2 50.3
420(11) 0.00820 348.2 48.3
390(10) 0.00935 348.2 46.6
422(11) 0.00882 348.2 45.3
415(11) 0.00838 348.3 44.3
403(11) 0.00807 348.3 43.8
404(11) 0.00869 348.3 43.8
415(11) 0.00872 348.3 44.2
373(10) 0.01002 348.3 44.8
382(10) 0.00923 348.4 45.3
387(11) 0.00858 348.4 45.6
388(10) 0.00915 348.4 45.5
412(11) 0.00899 348.4 45.1
394(10) 0.00933 348.5 44.7
389(10) 0.00928 348.5 44.4
399(11) 0.00793 348.5 44.3
393(11) 0.00887 348.5 44.5
402(10) 0.00929 348.5 44.9
411(11) 0.00904 348.6 45.4
412(11) 0.00850 348.6 46.1
390(11) 0.00839 348.6 46.8
389(11) 0.00874 348.6 47.6
406(10) 0.00922 348.6 48.3
408(11) 0.00880 348.7 48.9
381(10) 0.00918 348.7 49.5
399(11) 0.00814 348.7 49.9
408(11) 0.00845 348.7 50.2
387(10) 0.00961 348.7 50.4
418(11) 0.00867 348.8 50.3
394(11) 0.00898 348.8 50.2
403(11) 0.00838 348.8 49.8
433(11) 0.00800 348.8 49.4
411(11) 0.00904 348.8 48.7
383(10) 0.00921 348.9 47.9
397(11) 0.00805 348.9 47.1
410(11) 0.00810 348.9 46.1
406(11) 0.00891 348.9 45.0
386(10) 0.00951 349.0 43.8
390(10) 0.00928 349.0 42.6
404(11) 0.00852 349.0 41.4
406(11) 0.00845 349.0 40.2
406(11) 0.00871 349.0 38.9
359(10) 0.01039 349.1 37.7
391(11) 0.00886 349.1 36.4
411(11) 0.00805 349.1 35.2
363(10) 0.00941 349.1 34.0
384(10) 0.00931 349.1 32.9
381(10) 0.00970 349.2 31.7
374(10) 0.00935 349.2 30.6
388(11) 0.00870 349.2 29.6
384(11) 0.00869 349.2 28.6
369(10) 0.00984 349.2 27.6
381(10) 0.00965 349.3 26.7
371(10) 0.00952 349.3 25.7
370(11) 0.00899 349.3 24.9
400(11) 0.00852 349.3 24.0
370(10) 0.00988 349.4 23.3
362(10) 0.01025 349.4 22.5
365(10) 0.00917 349.4 21.8
408(11) 0.00764 349.4 21.1
368(10) 0.00956 349.4 20.4
373(10) 0.00996 349.5 19.7
386(10) 0.00959 349.5 19.1
370(10) 0.00908 349.5 18.5
361(11) 0.00872 349.5 18.0
373(10) 0.00929 349.5 17.4
387(10) 0.00968 349.6 16.9
368(10) 0.01004 349.6 16.5
358(10) 0.00973 349.6 16.0
382(11) 0.00856 349.6 15.5
379(11) 0.00903 349.6 15.1
390(10) 0.00948 349.7 14.7
369(10) 0.01003 349.7 14.3
373(10) 0.00942 349.7 13.9
369(10) 0.00913 349.7 13.6
378(11) 0.00889 349.8 13.3
361(10) 0.01036 349.8 12.9
381(10) 0.00966 349.8 12.6
371(10) 0.00922 349.8 12.4
372(11) 0.00900 349.8 12.1
346(10) 0.01004 349.9 11.8
372(10) 0.00985 349.9 11.6
360(10) 0.00983 349.9 11.4
352(10) 0.00979 349.9 11.2
360(10) 0.00927 349.9 11.0
355(10) 0.01008 350.0 10.8
378(10) 0.00990 350.0 10.6
374(10) 0.00917 350.0 10.4
340(10) 0.01044 350.0 10.3
384(11) 0.00871 350.0 10.2
350(10) 0.01015 350.1 10.1
355(10) 0.01046 350.1 10.0
374(11) 0.00890 350.1 9.9
351(10) 0.00959 350.1 9.8
329(10) 0.01064 350.1 9.8
368(10) 0.00915 350.2 9.7
366(10) 0.01017 350.2 9.7
352(10) 0.00966 350.2 9.7
352(10) 0.00941 350.2 9.7
347(10) 0.01001 350.3 9.8
348(10) 0.01045 350.3 9.9
337(10) 0.01097 350.3 10.0
359(10) 0.00957 350.3 10.1
345(10) 0.00986 350.3 10.2
364(10) 0.00961 350.4 10.4
360(10) 0.01037 350.4 10.6
366(10) 0.01015 350.4 10.8
368(10) 0.00949 350.4 11.0
370(11) 0.00872 350.4 11.3
359(10) 0.00969 350.5 11.5
388(10) 0.00944 350.5 11.7
399(10) 0.00924 350.5 12.0
388(11) 0.00881 350.5 12.2
364(11) 0.00881 350.5 12.5
366(10) 0.00936 350.6 12.7
370(10) 0.01005 350.6 13.0
363(10) 0.01008 350.6 13.3
348(10) 0.00964 350.6 13.6
348(11) 0.00905 350.7 13.9
352(10) 0.00973 350.7 14.3
347(10) 0.01058 350.7 14.6
374(10) 0.00984 350.7 15.0
368(10) 0.00946 350.7 15.4
376(11) 0.00873 350.8 15.9
369(10) 0.00928 350.8 16.4
397(10) 0.00941 350.8 17.0
362(10) 0.00996 350.8 17.7
368(10) 0.00917 350.8 18.6
349(10) 0.01024 350.9 19.6
411(11) 0.00838 350.9 20.9
378(10) 0.00979 350.9 22.5
398(11) 0.00885 350.9 24.3
377(10) 0.00919 350.9 26.5
382(11) 0.00864 351.0 29.0
393(11) 0.00894 351.0 31.6
370(10) 0.00999 351.0 34.4
388(10) 0.00921 351.0 37.2
378(10) 0.00917 351.1 39.6
385(10) 0.00914 351.1 41.3
402(11) 0.00862 351.1 42.1
414(11) 0.00893 351.1 41.8
418(11) 0.00826 351.1 40.4
359(10) 0.00972 351.2 38.1
357(10) 0.00971 351.2 35.3
380(10) 0.00941 351.2 32.2
386(10) 0.00951 351.2 29.2
402(11) 0.00827 351.2 26.4
360(10) 0.00949 351.3 23.8
352(10) 0.00995 351.3 21.5
370(10) 0.00967 351.3 19.6
383(10) 0.00966 351.3 18.0
382(10) 0.00914 351.3 16.6
371(11) 0.00893 351.4 15.5
377(11) 0.00902 351.4 14.6
339(10) 0.01075 351.4 13.9
347(10) 0.01076 351.4 13.4
370(10) 0.00966 351.4 13.0
344(10) 0.00980 351.5 12.7
388(11) 0.00821 351.5 12.5
387(10) 0.00931 351.5 12.4
349(10) 0.01055 351.5 12.3
374(11) 0.00887 351.6 12.3
358(11) 0.00905 351.6 12.4
370(10) 0.00965 351.6 12.5
378(10) 0.00984 351.6 12.7
336(10) 0.01107 351.6 12.9
350(10) 0.01014 351.7 13.2
367(11) 0.00905 351.7 13.5
365(10) 0.00968 351.7 13.9
377(10) 0.00968 351.7 14.3
400(10) 0.00923 351.7 14.8
402(11) 0.00870 351.8 15.4
393(11) 0.00812 351.8 16.1
367(10) 0.00953 351.8 16.9
380(10) 0.00991 351.8 17.8
365(10) 0.01000 351.8 18.9
387(11) 0.00897 351.9 20.2
383(11) 0.00870 351.9 21.8
395(11) 0.00864 351.9 23.7
393(10) 0.00945 351.9 26.0
391(10) 0.00943 352.0 28.7
413(11) 0.00851 352.0 32.0
374(10) 0.00922 352.0 35.9
396(11) 0.00888 352.0 40.6
431(11) 0.00855 352.0 46.1
422(11) 0.00844 352.1 52.5
410(11) 0.00868 352.1 59.8
427(11) 0.00789 352.1 67.9
428(11) 0.00797 352.1 76.6
451(11) 0.00829 352.1 85.7
439(11) 0.00819 352.2 94.6
488(12) 0.00696 352.2 102.4
517(12) 0.00645 352.2 108.3
466(12) 0.00742 352.2 111.3
508(12) 0.00729 352.2 110.9
474(12) 0.00743 352.3 107.3
474(12) 0.00697 352.3 101.1
475(12) 0.00715 352.3 93.3
457(11) 0.00790 352.3 84.8
436(11) 0.00856 352.4 76.2
445(12) 0.00748 352.4 68.2
431(11) 0.00773 352.4 60.8
408(11) 0.00854 352.4 54.4
386(10) 0.00958 352.4 48.8
404(10) 0.00916 352.5 44.0
379(11) 0.00868 352.5 40.0
386(11) 0.00866 352.5 36.8
397(11) 0.00900 352.5 34.1
373(10) 0.00981 352.5 32.0
407(10) 0.00918 352.6 30.3
406(11) 0.00873 352.6 28.9
403(11) 0.00827 352.6 27.8
382(10) 0.00913 352.6 26.9
393(10) 0.00938 352.6 26.3
400(10) 0.00940 352.7 25.7
412(11) 0.00822 352.7 25.2
375(11) 0.00858 352.7 24.9
366(10) 0.00942 352.7 24.5
365(10) 0.01017 352.7 24.3
365(10) 0.01014 352.8 24.0
391(11) 0.00869 352.8 23.8
376(11) 0.00860 352.8 23.7
382(10) 0.00909 352.8 23.5
355(10) 0.01068 352.9 23.3
374(10) 0.00973 352.9 23.2
377(11) 0.00906 352.9 23.0
369(11) 0.00885 352.9 22.9
372(10) 0.00943 352.9 22.7
371(10) 0.01001 353.0 22.6
385(10) 0.00952 353.0 22.4
354(10) 0.01006 353.0 22.3
396(11) 0.00801 353.0 22.1
353(10) 0.00955 353.0 21.9
378(10) 0.00972 353.1 21.8
398(10) 0.00918 353.1 21.6
361(10) 0.00988 353.1 21.4
404(11) 0.00802 353.1 21.2
389(10) 0.00907 353.1 21.0
351(10) 0.01047 353.2 20.8
381(10) 0.00940 353.2 20.6
361(10) 0.00948 353.2 20.4
350(10) 0.00990 353.2 20.1
362(10) 0.00980 353.3 19.9
358(10) 0.01049 353.3 19.6
359(10) 0.00996 353.3 19.4
350(10) 0.01003 353.3 19.2
378(10) 0.00909 353.3 18.9
374(10) 0.00965 353.4 18.6
372(10) 0.00996 353.4 18.4
378(11) 0.00893 353.4 18.1
367(11) 0.00907 353.4 17.9
368(10) 0.00942 353.4 17.6
367(10) 0.00996 353.5 17.3
380(10) 0.00984 353.5 17.1
368(10) 0.00970 353.5 16.8
366(11) 0.00902 353.5 16.5
353(10) 0.00974 353.5 16.3
352(10) 0.01043 353.6 16.0
372(10) 0.01004 353.6 15.8
337(10) 0.01036 353.6 15.5
351(10) 0.00937 353.6 15.2
343(10) 0.01019 353.6 15.0
336(9) 0.01112 353.7 14.8
344(10) 0.01072 353.7 14.6
353(10) 0.00982 353.7 14.3
369(11) 0.00849 353.7 14.1
364(10) 0.00986 353.8 13.9
383(10) 0.00984 353.8 13.7
386(10) 0.00938 353.8 13.5
367(10) 0.00966 353.8 13.4
391(11) 0.00831 353.8 13.2
386(11) 0.00907 353.9 13.0
397(10) 0.00951 353.9 12.9
348(10) 0.01046 353.9 12.8
353(10) 0.00981 353.9 12.6
363(10) 0.00921 353.9 12.5
380(11) 0.00900 354.0 12.4
371(10) 0.00982 354.0 12.3
333(9) 0.01117 354.0 12.3
355(10) 0.00984 354.0 12.2
369(10) 0.00920 354.0 12.1
345(10) 0.01010 354.1 12.1
382(10) 0.00971 354.1 12.1
375(10) 0.00976 354.1 12.0
386(11) 0.00907 354.1 12.0
348(10) 0.00938 354.2 12.0
359(10) 0.00950 354.2 12.0
355(10) 0.01051 354.2 12.1
375(10) 0.00957 354.2 12.1
370(10) 0.00915 354.2 12.1
381(11) 0.00844 354.3 12.2
332(10) 0.01099 354.3 12.3
348(10) 0.01067 354.3 12.3
387(11) 0.00900 354.3 12.4
381(11) 0.00900 354.3 12.5
353(10) 0.01029 354.4 12.6
364(10) 0.00980 354.4 12.7
356(10) 0.01033 354.4 12.8
372(10) 0.00937 354.4 12.9
381(10) 0.00910 354.4 13.1
363(10) 0.00996 354.5 13.2
385(10) 0.00956 354.5 13.4
373(10) 0.00995 354.5 13.5
369(10) 0.00953 354.5 13.6
368(11) 0.00893 354.5 13.7
337(10) 0.01014 354.6 13.9
326(9) 0.01111 354.6 14.0
365(10) 0.00996 354.6 14.1
363(10) 0.00966 354.6 14.2
369(11) 0.00898 354.6 14.2
390(11) 0.00890 354.7 14.3
358(10) 0.01018 354.7 14.4
348(10) 0.01082 354.7 14.4
376(10) 0.00941 354.7 14.4
380(11) 0.00863 354.8 14.4
360(10) 0.00986 354.8 14.3
339(10) 0.01092 354.8 14.2
377(10) 0.00979 354.8 14.1
372(10) 0.00921 354.8 14.0
387(11) 0.00822 354.9 13.9
386(10) 0.00909 354.9 13.7
344(10) 0.01082 354.9 13.5
357(10) 0.01036 354.9 13.3
383(11) 0.00892 354.9 13.1
376(11) 0.00867 355.0 12.8
382(11) 0.00901 355.0 12.6
377(10) 0.00993 355.0 12.3
354(10) 0.01027 355.0 12.0
389(11) 0.00899 355.0 11.8
376(11) 0.00875 355.1 11.5
347(10) 0.00983 355.1 11.2
355(10) 0.01037 355.1 10.9
354(10) 0.00989 355.1 10.7
369(11) 0.00889 355.1 10.4
348(10) 0.00979 355.2 10.1
379(11) 0.00899 355.2 9.9
384(10) 0.00976 355.2 9.6
383(10) 0.00925 355.2 9.4
355(10) 0.00977 355.2 9.1
359(10) 0.00929 355.3 8.9
348(10) 0.01008 355.3 8.7
370(10) 0.01011 355.3 8.5
359(10) 0.00998 355.3 8.3
344(10) 0.01004 355.3 8.1
347(10) 0.00969 355.4 8.0
354(10) 0.00998 355.4 7.8
360(10) 0.01039 355.4 7.7
367(10) 0.00917 355.4 7.5
367(10) 0.00916 355.4 7.4
340(10) 0.01060 355.5 7.3
373(10) 0.00944 355.5 7.2
331(10) 0.01106 355.5 7.1
357(10) 0.00976 355.5 7.1
355(10) 0.00922 355.5 7.0
344(10) 0.01014 355.6 7.0
362(10) 0.01011 355.6 7.0
349(10) 0.01057 355.6 7.0
363(10) 0.00973 355.6 7.0
389(11) 0.00858 355.6 7.1
364(10) 0.00971 355.7 7.1
345(10) 0.01058 355.7 7.3
343(10) 0.01093 355.7 7.5
360(10) 0.00919 355.7 7.7
362(11) 0.00892 355.7 8.1
362(10) 0.00971 355.8 8.7
355(10) 0.01025 355.8 9.5
380(10) 0.00982 355.8 10.8
377(10) 0.00907 355.8 12.7
392(11) 0.00819 355.9 15.6
376(10) 0.00919 355.9 19.5
400(10) 0.00913 355.9 24.5
410(10) 0.00910 355.9 30.5
416(11) 0.00807 355.9 36.8
460(12) 0.00690 356.0 42.5
419(11) 0.00836 356.0 45.8
424(11) 0.00884 356.0 45.4
372(10) 0.00968 356.0 41.6
414(11) 0.00838 356.0 35.7
386(11) 0.00850 356.1 29.3
379(10) 0.00927 356.1 23.5
387(10) 0.00952 356.1 18.7
396(10) 0.00915 356.1 15.0
382(10) 0.00909 356.1 12.3
377(11) 0.00900 356.2 10.5
352(10) 0.01010 356.2 9.3
354(10) 0.01059 356.2 8.5
367(10) 0.00959 356.2 8.0
362(10) 0.00919 356.2 7.7
362(11) 0.00906 356.3 7.4
347(10) 0.01006 356.3 7.2
342(10) 0.01086 356.3 7.1
343(10) 0.01045 356.3 7.0
355(10) 0.00953 356.3 7.0
364(11) 0.00906 356.4 7.0
347(10) 0.01054 356.4 7.0
332(9) 0.01131 356.4 7.0
371(10) 0.00938 356.4 7.0
344(10) 0.01016 356.4 7.1
372(10) 0.00961 356.5 7.2
386(10) 0.00956 356.5 7.3
332(9) 0.01115 356.5 7.4
389(11) 0.00848 356.5 7.5
347(10) 0.00962 356.5 7.7
369(10) 0.00914 356.6 7.9
352(10) 0.01060 356.6 8.1
368(10) 0.00995 356.6 8.3
379(11) 0.00885 356.6 8.5
347(10) 0.00956 356.6 8.8
349(10) 0.01016 356.7 9.1
368(10) 0.00996 356.7 9.4
370(10) 0.01002 356.7 9.7
359(10) 0.00937 356.7 10.1
369(11) 0.00865 356.7 10.4
382(10) 0.00913 356.8 10.9
357(10) 0.01055 356.8 11.3
370(10) 0.00980 356.8 11.8
377(10) 0.00916 356.8 12.3
366(10) 0.00913 356.8 12.9
365(10) 0.00976 356.9 13.4
378(10) 0.00983 356.9 14.1
362(10) 0.01007 356.9 14.7
365(10) 0.00917 356.9 15.5
362(11) 0.00894 357.0 16.2
377(11) 0.00898 357.0 16.9
350(10) 0.01061 357.0 17.6
372(10) 0.00998 357.0 18.4
383(10) 0.00931 357.0 19.2
376(11) 0.00895 357.1 19.9
390(11) 0.00864 357.1 20.6
374(10) 0.00995 357.1 21.3
363(10) 0.00998 357.1 22.0
333(10) 0.01056 357.1 22.6
361(10) 0.00917 357.2 23.1
389(11) 0.00871 357.2 23.5
370(10) 0.00997 357.2 23.8
379(10) 0.00958 357.2 24.1
360(10) 0.00975 357.2 24.2
386(11) 0.00872 357.3 24.3
359(10) 0.00994 357.3 24.3
374(10) 0.01001 357.3 24.2
366(10) 0.00970 357.3 24.0
355(10) 0.00977 357.3 23.8
375(10) 0.00919 357.4 23.6
365(10) 0.00959 357.4 23.3
377(10) 0.00995 357.4 23.0
359(10) 0.00976 357.4 22.7
366(11) 0.00905 357.4 22.4
372(10) 0.00941 357.5 22.1
396(11) 0.00903 357.5 21.8
416(11) 0.00892 357.5 21.4
396(11) 0.00879 357.5 21.1
371(10) 0.00914 357.5 20.9
385(11) 0.00902 357.6 20.6
363(10) 0.00980 357.6 20.4
376(10) 0.00986 357.6 20.3
363(10) 0.00970 357.6 20.2
383(11) 0.00888 357.6 20.1
388(11) 0.00888 357.7 20.2
378(10) 0.00970 357.7 20.3
390(10) 0.00958 357.7 20.6
359(10) 0.00965 357.7 20.9
376(11) 0.00874 357.7 21.5
391(11) 0.00903 357.8 22.3
383(10) 0.00957 357.8 23.3
403(10) 0.00911 357.8 24.8
372(10) 0.00921 357.8 26.7
382(11) 0.00828 357.8 29.3
387(10) 0.00917 357.9 32.6
386(10) 0.00969 357.9 36.9
413(11) 0.00880 357.9 42.1
381(10) 0.00957 357.9 48.4
395(11) 0.00866 357.9 55.7
410(11) 0.00849 358.0 63.8
436(11) 0.00852 358.0 72.1
398(10) 0.00923 358.0 79.7
465(12) 0.00736 358.0 85.4
443(12) 0.00747 358.1 88.1
445(11) 0.00764 358.1 87.0
443(11) 0.00845 358.1 82.6
382(10) 0.00977 358.1 76.0
421(11) 0.00809 358.1 68.7
397(11) 0.00834 358.2 61.5
389(11) 0.00885 358.2 55.1
395(10) 0.00940 358.2 50.0
437(11) 0.00826 358.2 46.1
388(11) 0.00835 358.2 43.5
412(11) 0.00788 358.3 42.2
419(11) 0.00835 358.3 42.1
402(10) 0.00926 358.3 43.0
415(11) 0.00853 358.3 44.8
380(11) 0.00890 358.3 47.3
395(11) 0.00881 358.4 50.4
408(11) 0.00846 358.4 53.7
376(10) 0.00983 358.4 57.0
415(11) 0.00856 358.4 59.7
357(10) 0.01009 358.4 61.5
377(10) 0.00920 358.5 62.1
411(11) 0.00873 358.5 61.6
399(10) 0.00929 358.5 60.2
415(11) 0.00816 358.5 58.3
416(11) 0.00811 358.5 56.3
380(10) 0.00932 358.6 54.4
419(11) 0.00871 358.6 52.8
414(11) 0.00894 358.6 51.5
435(11) 0.00796 358.6 50.6
433(11) 0.00769 358.6 49.8
392(10) 0.00908 358.7 49.3
389(10) 0.00938 358.7 48.8
392(10) 0.00949 358.7 48.2
390(11) 0.00874 358.7 47.5
433(12) 0.00745 358.7 46.7
390(10) 0.00914 358.8 45.5
396(10) 0.00945 358.8 44.1
399(10) 0.00941 358.8 42.5
375(10) 0.00945 358.8 40.7
391(11) 0.00827 358.8 38.7
368(10) 0.00971 358.9 36.7
378(10) 0.00981 358.9 34.6
405(11) 0.00895 358.9 32.5
373(10) 0.00930 358.9 30.4
353(10) 0.00930 358.9 28.4
382(10) 0.00928 359.0 26.5
390(10) 0.00953 359.0 24.7
381(10) 0.00976 359.0 23.1
394(11) 0.00886 359.0 21.5
360(10) 0.00922 359.0 20.1
362(10) 0.00956 359.1 18.7
389(10) 0.00959 359.1 17.5
376(10) 0.00976 359.1 16.4
401(11) 0.00826 359.1 15.4
357(10) 0.00942 359.2 14.5
388(11) 0.00885 359.2 13.6
361(10) 0.01023 359.2 12.9
359(10) 0.01020 359.2 12.2
361(10) 0.00971 359.2 11.6
369(11) 0.00894 359.3 11.0
355(10) 0.01010 359.3 10.5
362(10) 0.01027 359.3 10.0
337(10) 0.01018 359.3 9.6
345(10) 0.00978 359.3 9.3
353(10) 0.00984 359.4 8.9
374(10) 0.00948 359.4 8.6
375(10) 0.01000 359.4 8.3
357(10) 0.01013 359.4 8.1
341(10) 0.01027 359.4 7.8
344(10) 0.01016 359.5 7.6
366(10) 0.00969 359.5 7.4
379(10) 0.00982 359.5 7.2
354(10) 0.01024 359.5 7.1
380(11) 0.00906 359.5 6.9
343(10) 0.01022 359.6 6.8
378(10) 0.00933 359.6 6.7
359(10) 0.01043 359.6 6.5
359(10) 0.00952 359.6 6.4
340(10) 0.01018 359.6 6.3
375(10) 0.00933 359.7 6.3
342(10) 0.01081 359.7 6.2
363(10) 0.01013 359.7 6.1
344(10) 0.01003 359.7 6.0
355(10) 0.00908 359.7 6.0
369(10) 0.00966 359.8 5.9
371(10) 0.00996 359.8 6.0
364(10) 0.01032 359.8 5.9
346(10) 0.01002 359.8 5.9
361(10) 0.00911 359.8 5.9
363(10) 0.00998 359.9 5.9
361(10) 0.01024 359.9 5.8
399(10) 0.00913 359.9 6.1
374(10) 0.00962 359.9 6.1
369(11) 0.00892 359.9 6.1
355(10) 0.00978 360.0 6.1
386(10) 0.00969 360.0 6.1
384(10) 0.00953 360.0 6.2
350(10) 0.00997 360.0 6.2
350(10) 0.00940 360.0 6.2
372(10) 0.00930 360.1 6.3
366(10) 0.01024 360.1 6.4
357(10) 0.01024 360.1 6.4
338(10) 0.01057 360.1 6.5
361(10) 0.00925 360.1 6.6
381(11) 0.00903 360.1 6.7
354(10) 0.01056 360.0 6.8
353(10) 0.01024 360.0 6.9
366(10) 0.00925 359.9 7.0
361(11) 0.00900 359.9 7.1
359(10) 0.00942 359.9 7.3
376(10) 0.00993 359.8 7.4
352(10) 0.01010 359.8 7.6
378(11) 0.00876 359.7 7.8
365(10) 0.00909 359.7 8.0
356(10) 0.00958 359.6 8.2
324(9) 0.01153 359.6 8.4
355(10) 0.00987 359.5 8.7
378(11) 0.00890 359.5 8.9
356(10) 0.00951 359.5 9.2
355(10) 0.00977 359.4 9.5
350(10) 0.01076 359.4 9.8
364(10) 0.00937 359.3 10.1
358(10) 0.00962 359.3 10.5
360(10) 0.00958 359.2 10.8
352(10) 0.01027 359.2 11.2
356(10) 0.01031 359.1 11.6
364(10) 0.00954 359.1 12.0
361(10) 0.00916 359.1 12.3
358(10) 0.00973 359.0 12.7
395(10) 0.00919 359.0 13.1
357(10) 0.01029 358.9 13.5
351(10) 0.01000 358.9 13.9
406(11) 0.00812 358.8 14.2
385(11) 0.00888 358.8 14.6
385(10) 0.00937 358.7 14.9
396(10) 0.00934 358.7 15.1
386(11) 0.00879 358.7 15.4
378(11) 0.00860 358.6 15.5
361(10) 0.01023 358.6 15.7
354(10) 0.01051 358.5 15.8
374(10) 0.00994 358.5 15.9
370(10) 0.00949 358.4 15.9
366(10) 0.00914 358.4 15.9
377(10) 0.00934 358.3 16.0
360(10) 0.01014 358.3 16.0
365(10) 0.01018 358.3 16.1
373(10) 0.00973 358.2 16.2
376(11) 0.00897 358.2 16.3
390(11) 0.00869 358.1 16.6
383(10) 0.00964 358.1 16.9
384(10) 0.00963 358.0 17.3
373(10) 0.00929 358.0 17.9
385(11) 0.00873 358.0 18.7
375(10) 0.00924 357.9 19.6
375(10) 0.01004 357.9 20.8
374(10) 0.00968 357.8 22.2
369(10) 0.00942 357.8 23.7
394(11) 0.00819 357.7 25.4
391(11) 0.00871 357.7 27.1
386(10) 0.00954 357.6 28.7
382(10) 0.00954 357.6 30.2
376(10) 0.00911 357.6 31.4
405(11) 0.00867 357.5 32.5
411(11) 0.00875 357.5 33.8
425(11) 0.00871 357.4 35.6
404(11) 0.00856 357.4 38.5
418(11) 0.00814 357.3 43.4
433(11) 0.00764 357.3 51.5
437(11) 0.00805 357.2 64.6
461(11) 0.00805 357.2 85.1
484(12) 0.00740 357.2 115.1
527(12) 0.00648 357.1 155.8
555(13) 0.00620 357.1 205.8
650(14) 0.00537 357.0 259.6
661(13) 0.00562 357.0 305.9
680(14) 0.00512 356.9 328.9
698(15) 0.00465 356.9 317.3
628(13) 0.00552 356.8 276.3
568(12) 0.00651 356.8 221.9
507(12) 0.00732 356.8 167.7
458(12) 0.00755 356.7 121.6
425(11) 0.00786 356.7 86.6
415(11) 0.00872 356.6 62.4
436(11) 0.00835 356.6 46.8
415(11) 0.00903 356.5 37.3
408(11) 0.00854 356.5 31.5
409(11) 0.00794 356.4 27.9
399(11) 0.00862 356.4 25.6
419(11) 0.00867 356.4 24.0
393(10) 0.00949 356.3 22.8
378(10) 0.00943 356.3 21.9
374(11) 0.00874 356.2 21.3
407(11) 0.00843 356.2 20.8
416(11) 0.00899 356.1 20.5
407(10) 0.00917 356.1 20.4
387(10) 0.00908 356.1 20.3
377(11) 0.00867 356.0 20.3
386(10) 0.00916 356.0 20.4
391(10) 0.00961 355.9 20.6
357(10) 0.01017 355.9 20.9
374(10) 0.00959 355.8 21.2
379(11) 0.00901 355.8 21.7
380(10) 0.00917 355.7 22.1
370(10) 0.01015 355.7 22.6
384(10) 0.00955 355.7 23.2
417(11) 0.00826 355.6 23.9
414(11) 0.00802 355.6 24.6
399(11) 0.00880 355.5 25.4
389(10) 0.00948 355.5 26.2
403(11) 0.00904 355.4 27.1
430(11) 0.00789 355.4 28.1
386(11) 0.00906 355.3 29.1
369(10) 0.00921 355.3 30.2
381(10) 0.00977 355.3 31.4
393(10) 0.00916 355.2 32.7
390(11) 0.00882 355.2 34.0
404(11) 0.00824 355.1 35.4
384(10) 0.00912 355.1 36.9
433(11) 0.00860 355.0 38.5
401(11) 0.00887 355.0 40.2
415(11) 0.00814 354.9 42.0
405(11) 0.00867 354.9 43.9
451(11) 0.00788 354.9 45.9
401(10) 0.00931 354.8 48.0
444(11) 0.00779 354.8 50.3
416(11) 0.00830 354.7 52.7
411(11) 0.00848 354.7 55.2
398(10) 0.00915 354.6 58.0
407(10) 0.00909 354.6 61.0
455(11) 0.00764 354.5 64.2
436(11) 0.00771 354.5 67.7
417(11) 0.00837 354.5 71.5
422(11) 0.00861 354.4 75.6
458(11) 0.00812 354.4 80.1
466(12) 0.00739 354.3 85.1
454(12) 0.00738 354.3 90.4
440(11) 0.00814 354.2 96.3
467(11) 0.00794 354.2 102.6
491(12) 0.00752 354.2 109.3
506(12) 0.00699 354.1 116.4
516(13) 0.00636 354.1 123.8
532(12) 0.00647 354.0 131.2
519(12) 0.00711 354.0 138.3
528(12) 0.00702 353.9 144.8
519(12) 0.00668 353.9 150.0
523(13) 0.00613 353.8 153.5
544(13) 0.00637 353.8 154.6
531(12) 0.00701 353.8 153.3
471(11) 0.00792 353.7 149.4
495(12) 0.00698 353.7 143.5
502(12) 0.00645 353.6 136.0
481(12) 0.00732 353.6 127.6
471(11) 0.00793 353.5 118.8
466(11) 0.00775 353.5 109.9
431(11) 0.00820 353.4 101.4
449(12) 0.00738 353.4 93.4
439(11) 0.00769 353.4 85.9
455(11) 0.00811 353.3 79.0
444(11) 0.00836 353.3 72.8
443(11) 0.00784 353.2 67.2
438(12) 0.00748 353.2 62.2
409(11) 0.00859 353.1 57.8
445(11) 0.00823 353.1 53.8
409(11) 0.00855 353.0 50.2
391(11) 0.00873 353.0 47.1
422(11) 0.00795 353.0 44.2
402(11) 0.00879 352.9 41.7
386(10) 0.00966 352.9 39.4
396(11) 0.00872 352.8 37.3
405(11) 0.00831 352.8 35.5
387(11) 0.00897 352.7 33.8
396(11) 0.00893 352.7 32.3
363(10) 0.01012 352.6 30.9
382(10) 0.00921 352.6 29.6
399(11) 0.00849 352.6 28.5
389(11) 0.00883 352.5 27.4
372(10) 0.00973 352.5 26.4
363(10) 0.01022 352.4 25.5
355(10) 0.00979 352.4 24.7
348(10) 0.00980 352.3 24.0
378(10) 0.00923 352.3 23.4
380(10) 0.00972 352.2 22.8
379(10) 0.00981 352.2 22.3
410(11) 0.00841 352.2 21.8
391(11) 0.00819 352.1 21.5
380(10) 0.00910 352.1 21.1
398(10) 0.00917 352.0 20.9
359(10) 0.01034 352.0 20.7
370(10) 0.00923 351.9 20.5
362(10) 0.00924 351.9 20.5
370(10) 0.00936 351.9 20.5
377(10) 0.00967 351.8 20.5
368(10) 0.00995 351.8 20.6
380(10) 0.00935 351.7 20.9
399(11) 0.00810 351.7 21.2
381(10) 0.00910 351.6 21.6
387(10) 0.00956 351.6 22.1
364(10) 0.01014 351.5 22.7
405(11) 0.00810 351.5 23.5
383(11) 0.00860 351.5 24.5
411(11) 0.00834 351.4 25.6
386(10) 0.00967 351.4 27.1
401(10) 0.00930 351.3 28.8
407(11) 0.00843 351.3 30.9
419(11) 0.00785 351.2 33.4
420(11) 0.00816 351.2 36.4
436(11) 0.00858 351.1 40.0
421(11) 0.00834 351.1 44.3
415(11) 0.00826 351.1 49.3
457(12) 0.00705 351.0 55.0
418(11) 0.00837 351.0 61.7
434(11) 0.00858 350.9 69.2
458(11) 0.00761 350.9 77.5
451(11) 0.00766 350.8 86.7
470(12) 0.00715 350.8 96.4
469(12) 0.00747 350.7 106.4
493(12) 0.00753 350.7 116.1
485(12) 0.00734 350.7 124.9
499(12) 0.00684 350.6 132.0
527(12) 0.00641 350.6 136.7
527(12) 0.00671 350.5 138.3
579(12) 0.00642 350.5 136.8
520(12) 0.00664 350.4 132.2
522(12) 0.00655 350.4 125.3
505(12) 0.00697 350.3 116.6
508(12) 0.00689 350.3 106.9
477(11) 0.00781 350.3 96.8
471(12) 0.00736 350.2 86.9
445(12) 0.00750 350.2 77.6
420(11) 0.00834 350.1 68.9
434(11) 0.00834 350.1 61.1
456(11) 0.00813 350.0 54.2
394(11) 0.00873 350.0 48.1
431(12) 0.00739 350.0 42.8
387(11) 0.00880 349.9 38.2
403(11) 0.00891 349.9 34.3
393(10) 0.00945 349.8 31.0
383(10) 0.00930 349.8 28.2
385(11) 0.00841 349.7 25.9
403(11) 0.00831 349.7 23.9
363(10) 0.01032 349.6 22.2
358(10) 0.01025 349.6 20.8
351(10) 0.01031 349.6 19.7
406(12) 0.00748 349.5 18.7
383(10) 0.00915 349.5 17.9
380(10) 0.00981 349.4 17.2
392(10) 0.00929 349.4 16.7
386(10) 0.00914 349.3 16.2
384(11) 0.00829 349.3 15.8
368(10) 0.00963 349.2 15.5
405(10) 0.00916 349.2 15.3
383(10) 0.00957 349.2 15.1
368(10) 0.00948 349.1 15.0
356(10) 0.00975 349.1 14.9
362(10) 0.00955 349.0 14.7
357(10) 0.01049 349.0 14.6
358(10) 0.01024 348.9 14.4
340(10) 0.01011 348.9 14.2
344(10) 0.00983 348.8 14.0
357(10) 0.00967 348.8 13.7
348(10) 0.01054 348.8 13.3
348(10) 0.01022 348.7 13.0
391(11) 0.00858 348.7 12.6
360(10) 0.00939 348.6 12.2
350(10) 0.01009 348.6 11.8
350(10) 0.01069 348.5 11.4
379(10) 0.00916 348.5 11.0
351(10) 0.00974 348.4 10.7
351(10) 0.00954 348.4 10.3
341(10) 0.01004 348.4 9.9
365(10) 0.01020 348.3 9.6
365(10) 0.00944 348.3 9.2
363(10) 0.00917 348.2 8.9
357(10) 0.00965 348.2 8.6
366(10) 0.00966 348.1 8.3
391(10) 0.00946 348.1 8.0
359(10) 0.00966 348.1 7.7
346(10) 0.00946 348.0 7.5
350(10) 0.00994 348.0 7.2
377(10) 0.00950 347.9 7.0
353(10) 0.01066 347.9 6.8
359(10) 0.00978 347.8 6.6
363(10) 0.00931 347.8 6.4
404(11) 0.00845 347.7 6.2
327(9) 0.01130 347.7 6.1
350(10) 0.01064 347.7 5.9
383(11) 0.00905 347.6 5.8
352(10) 0.00933 347.6 5.7
368(10) 0.00921 347.5 5.6
352(10) 0.01054 347.5 5.5
371(10) 0.00996 347.4 5.4
363(10) 0.00969 347.4 5.4
360(11) 0.00869 347.3 5.3
344(10) 0.01022 347.3 5.2
356(10) 0.01072 347.3 5.2
355(10) 0.01014 347.2 5.1
335(10) 0.01025 347.2 5.0
336(10) 0.00998 347.1 5.0
340(10) 0.01032 347.1 4.9
366(10) 0.01030 347.0 4.8
364(10) 0.00999 347.0 4.7
390(11) 0.00880 346.9 4.7
362(10) 0.00916 346.9 4.6
367(10) 0.00930 346.9 4.5
327(9) 0.01120 346.8 4.4
375(10) 0.00990 346.8 4.4
356(10) 0.00995 346.7 4.3
366(11) 0.00906 346.7 4.2
337(10) 0.01040 346.6 4.2
337(10) 0.01106 346.6 4.1
343(10) 0.01061 346.5 4.1
351(10) 0.00971 346.5 4.0
372(10) 0.00917 346.5 4.0
361(10) 0.00968 346.4 3.9
376(10) 0.00997 346.4 3.9
363(10) 0.00995 346.3 3.9
344(10) 0.01018 346.3 3.8
346(10) 0.00981 346.2 3.8
331(10) 0.01067 346.2 3.8
368(10) 0.01008 346.1 3.8
343(10) 0.01056 346.1 3.7
360(10) 0.00918 346.1 3.7
327(10) 0.01043 346.0 3.7
332(10) 0.01096 346.0 3.7
356(10) 0.01044 345.9 3.7
364(10) 0.00932 345.9 3.7
359(10) 0.00938 345.8 3.7
359(10) 0.00972 345.8 3.7
343(10) 0.01061 345.8 3.7
357(10) 0.01039 345.7 3.7
362(10) 0.00954 345.8 3.7
357(10) 0.00916 345.8 3.7
328(10) 0.01064 345.8 3.7
340(10) 0.01072 345.8 3.7
341(10) 0.01092 345.9 3.7
353(10) 0.00978 345.9 3.7
355(10) 0.00916 345.9 3.7
359(10) 0.00980 346.0 3.7
346(10) 0.01061 346.0 3.7
361(10) 0.01022 346.0 3.7
353(10) 0.00981 346.0 3.7
324(10) 0.01015 346.1 3.8
353(10) 0.00991 346.1 3.8
347(10) 0.01087 346.1 3.8
335(10) 0.01102 346.1 3.8
359(10) 0.00964 346.2 3.9
332(10) 0.00995 346.2 3.9
373(10) 0.00950 346.2 3.9
365(10) 0.01027 346.2 4.0
362(10) 0.01023 346.3 4.0
346(10) 0.00963 346.3 4.0
345(10) 0.00933 346.3 4.1
349(10) 0.00997 346.3 4.1
351(10) 0.01060 346.4 4.2
354(10) 0.01050 346.4 4.2
365(10) 0.00973 346.4 4.3
365(10) 0.00921 346.4 4.3
343(10) 0.01003 346.5 4.4
362(10) 0.01034 346.5 4.5
370(10) 0.00973 346.5 4.5
340(10) 0.01039 346.5 4.6
333(10) 0.01045 346.6 4.7
379(10) 0.00929 346.6 4.7
350(10) 0.01068 346.6 4.8
349(10) 0.00971 346.7 4.9
344(10) 0.01014 346.7 5.0
370(10) 0.00912 346.7 5.1
350(10) 0.01024 346.7 5.2
367(10) 0.01021 346.8 5.3
324(10) 0.01102 346.8 5.4
335(10) 0.01010 346.8 5.6
345(10) 0.01007 346.8 5.7
333(10) 0.01085 346.9 5.8
331(9) 0.01117 346.9 5.9
332(10) 0.01041 346.9 6.1
359(10) 0.00942 346.9 6.2
351(10) 0.01005 347.0 6.4
348(10) 0.01034 347.0 6.5
370(10) 0.01002 347.0 6.7
363(11) 0.00896 347.0 6.9
359(11) 0.00882 347.1 7.1
353(10) 0.00953 347.1 7.2
357(10) 0.01023 347.1 7.4
352(10) 0.01058 347.1 7.6
356(10) 0.00946 347.2 7.8
359(10) 0.00918 347.2 8.0
360(10) 0.00967 347.2 8.2
344(10) 0.01040 347.2 8.5
354(10) 0.01051 347.3 8.7
381(11) 0.00891 347.3 8.9
342(10) 0.00977 347.3 9.2
333(10) 0.01046 347.4 9.4
323(9) 0.01149 347.4 9.7
371(10) 0.01011 347.4 10.0
371(10) 0.00961 347.4 10.3
399(11) 0.00837 347.5 10.7
360(10) 0.00984 347.5 11.1
371(10) 0.00999 347.5 11.5
365(10) 0.01024 347.5 11.9
361(10) 0.00966 347.6 12.4
367(11) 0.00884 347.6 12.9
368(10) 0.00963 347.6 13.5
329(9) 0.01133 347.6 14.1
360(10) 0.01019 347.7 14.8
363(10) 0.00972 347.7 15.5
363(10) 0.00912 347.7 16.3
363(10) 0.00936 347.7 17.2
365(10) 0.01018 347.8 18.1
368(10) 0.00996 347.8 19.2
376(11) 0.00887 347.8 20.3
362(10) 0.00914 347.8 21.5
353(10) 0.00972 347.9 22.8
363(10) 0.01012 347.9 24.3
358(10) 0.01025 347.9 25.8
383(11) 0.00889 347.9 27.4
349(10) 0.00990 348.0 29.2
367(10) 0.00962 348.0 31.0
381(10) 0.00984 348.0 33.0
389(11) 0.00903 348.1 35.0
409(11) 0.00822 348.1 37.1
377(11) 0.00898 348.1 39.4
397(11) 0.00905 348.1 41.6
403(10) 0.00927 348.2 44.0
397(11) 0.00894 348.2 46.3
397(11) 0.00837 348.2 48.6
423(11) 0.00801 348.2 50.8
426(11) 0.00844 348.3 52.9
430(11) 0.00859 348.3 54.8
404(11) 0.00861 348.3 56.5
401(11) 0.00859 348.3 57.9
424(11) 0.00823 348.4 59.0
407(10) 0.00908 348.4 59.7
397(10) 0.00933 348.4 60.0
425(11) 0.00821 348.4 59.8
386(11) 0.00874 348.5 59.3
379(10) 0.00907 348.5 58.3
402(11) 0.00906 348.5 57.0
401(10) 0.00923 348.5 55.4
379(10) 0.00938 348.6 53.6
387(11) 0.00866 348.6 51.6
421(11) 0.00785 348.6 49.4
392(10) 0.00920 348.6 47.1
396(10) 0.00955 348.7 44.8
399(11) 0.00894 348.7 42.6
395(11) 0.00833 348.7 40.3
417(11) 0.00800 348.8 38.1
372(10) 0.00987 348.8 36.0
393(10) 0.00942 348.8 33.9
389(11) 0.00889 348.8 32.0
374(11) 0.00855 348.9 30.2
393(11) 0.00860 348.9 28.5
383(10) 0.00975 348.9 26.9
354(10) 0.01050 348.9 25.4
341(10) 0.01023 349.0 24.0
370(11) 0.00860 349.0 22.7
351(10) 0.00986 349.0 21.6
346(10) 0.01076 349.0 20.5
387(10) 0.00939 349.1 19.5
386(11) 0.00900 349.1 18.6
352(10) 0.00941 349.1 17.8
356(10) 0.00950 349.1 17.1
353(10) 0.01047 349.2 16.5
360(10) 0.00975 349.2 15.9
355(10) 0.00953 349.2 15.4
341(10) 0.01001 349.2 14.9
377(10) 0.00918 349.3 14.5
341(10) 0.01094 349.3 14.1
384(10) 0.00929 349.3 13.8
387(11) 0.00896 349.4 13.5
387(11) 0.00848 349.4 13.2
366(10) 0.00979 349.4 12.9
333(9) 0.01112 349.4 12.6
345(10) 0.01060 349.5 12.3
360(10) 0.00970 349.5 11.9
340(10) 0.01027 349.5 11.6
369(10) 0.00954 349.5 11.3
351(10) 0.01060 349.6 10.9
344(10) 0.01031 349.6 10.6
370(10) 0.00922 349.6 10.3
345(10) 0.01039 349.6 9.9
335(9) 0.01112 349.7 9.6
348(10) 0.01070 349.7 9.3
351(10) 0.00959 349.7 8.9
356(10) 0.00922 349.7 8.6
348(10) 0.00989 349.8 8.4
371(10) 0.00982 349.8 8.1
360(10) 0.01034 349.8 7.8
375(10) 0.00910 349.8 7.6
382(11) 0.00836 349.9 7.4
363(10) 0.00962 349.9 7.2
330(10) 0.01104 349.9 7.0
349(10) 0.01070 349.9 6.8
341(10) 0.01032 350.0 6.6
355(11) 0.00890 350.0 6.4
368(10) 0.00956 350.0 6.3
367(10) 0.01012 350.1 6.2
368(10) 0.01002 350.1 6.0
370(10) 0.00974 350.1 5.9
375(11) 0.00888 350.1 5.8
350(10) 0.01018 350.2 5.7
325(9) 0.01149 350.2 5.6
358(10) 0.01025 350.2 5.5
365(10) 0.00942 350.2 5.5
362(11) 0.00896 350.3 5.4
356(10) 0.01004 350.3 5.3
363(10) 0.01033 350.3 5.3
348(10) 0.01080 350.3 5.2
370(10) 0.00940 350.4 5.2
364(10) 0.00924 350.4 5.2
357(10) 0.00974 350.4 5.1
360(10) 0.01032 350.4 5.1
324(9) 0.01143 350.5 5.1
381(11) 0.00875 350.5 5.1
349(10) 0.00968 350.5 5.1
339(10) 0.00988 350.5 5.0
352(10) 0.01053 350.6 5.0
330(10) 0.01082 350.6 5.0
363(10) 0.00942 350.6 5.1
350(10) 0.00973 350.6 5.1
363(10) 0.00944 350.7 5.1
352(10) 0.01071 350.7 5.1
368(10) 0.00956 350.7 5.1
340(10) 0.00996 350.8 5.1
347(10) 0.00990 350.8 5.2
346(10) 0.01009 350.8 5.2
346(10) 0.01072 350.8 5.3
367(11) 0.00894 350.9 5.3
381(11) 0.00874 350.9 5.4
369(11) 0.00903 350.9 5.5
314(9) 0.01168 350.9 5.5
367(10) 0.01010 351.0 5.6
353(10) 0.01008 351.0 5.7
352(10) 0.00947 351.0 5.8
381(11) 0.00856 351.0 6.0
354(10) 0.01040 351.1 6.1
376(10) 0.00971 351.1 6.3
329(10) 0.01069 351.1 6.5
362(10) 0.00911 351.1 6.8
354(10) 0.00975 351.2 7.1
366(10) 0.01004 351.2 7.5
338(10) 0.01104 351.2 8.0
349(10) 0.01013 351.2 8.6
379(11) 0.00860 351.3 9.5
383(11) 0.00903 351.3 11.1
365(10) 0.01010 351.3 13.8
376(10) 0.00988 351.3 18.7
392(11) 0.00887 351.4 27.0
400(11) 0.00796 351.4 39.6
413(11) 0.00851 351.4 56.6
459(11) 0.00804 351.5 76.4
474(11) 0.00777 351.5 94.9
460(11) 0.00772 351.5 105.8
475(12) 0.00670 351.5 103.9
437(11) 0.00782 351.6 90.5
385(10) 0.00974 351.6 71.5
376(10) 0.00964 351.6 52.6
378(10) 0.00926 351.6 37.4
389(11) 0.00856 351.7 26.7
382(11) 0.00898 351.7 20.1
372(10) 0.00996 351.7 16.6
372(10) 0.00946 351.7 14.9
363(10) 0.00998 351.8 14.3
386(11) 0.00874 351.8 14.1
364(10) 0.00923 351.8 14.2
356(10) 0.01036 351.8 14.4
371(10) 0.00964 351.9 14.7
376(11) 0.00888 351.9 15.1
350(10) 0.00976 351.9 15.6
342(10) 0.01029 351.9 16.2
368(10) 0.01011 352.0 16.9
381(10) 0.00912 352.0 17.7
356(10) 0.00983 352.0 18.5
384(11) 0.00907 352.0 19.3
372(10) 0.00953 352.1 20.1
380(10) 0.00987 352.1 21.0
399(11) 0.00849 352.1 21.7
377(11) 0.00902 352.2 22.4
387(11) 0.00872 352.2 23.0
362(10) 0.01029 352.2 23.4
372(10) 0.00991 352.2 23.7
401(11) 0.00866 352.3 23.8
385(11) 0.00888 352.3 23.7
408(11) 0.00849 352.3 23.4
364(10) 0.01012 352.3 23.0
389(10) 0.00960 352.4 22.4
384(10) 0.00927 352.4 21.7
393(11) 0.00809 352.4 20.9
389(11) 0.00866 352.4 20.1
397(10) 0.00927 352.5 19.3
367(10) 0.01019 352.5 18.4
379(10) 0.00923 352.5 17.6
360(10) 0.00934 352.5 16.8
400(11) 0.00862 352.6 16.0
382(10) 0.00962 352.6 15.2
375(10) 0.00989 352.6 14.5
352(10) 0.00985 352.6 13.9
360(11) 0.00863 352.7 13.3
396(11) 0.00843 352.7 12.8
365(10) 0.01029 352.7 12.3
391(10) 0.00945 352.7 11.8
355(10) 0.00998 352.8 11.5
403(11) 0.00779 352.8 11.1
379(11) 0.00886 352.8 10.8
354(10) 0.01050 352.9 10.6
351(10) 0.01051 352.9 10.4
338(10) 0.01012 352.9 10.2
345(10) 0.00995 352.9 10.1
367(10) 0.00980 353.0 10.0
361(10) 0.01033 353.0 9.9
366(10) 0.01020 353.0 9.9
359(10) 0.00977 353.0 9.9
370(11) 0.00884 353.1 10.0
373(10) 0.00921 353.1 10.0
343(10) 0.01098 353.1 10.1
368(10) 0.00982 353.1 10.3
352(10) 0.00991 353.2 10.4
355(10) 0.00967 353.2 10.6
347(10) 0.00987 353.2 10.8
352(10) 0.01058 353.2 11.1
339(10) 0.01060 353.3 11.3
359(10) 0.00953 353.3 11.6
370(10) 0.00916 353.3 12.0
348(10) 0.01050 353.3 12.4
380(10) 0.00986 353.4 12.8
360(10) 0.00965 353.4 13.2
352(10) 0.00967 353.4 13.6
361(10) 0.00954 353.5 14.1
353(10) 0.01002 353.5 14.6
383(10) 0.00971 353.5 15.2
370(10) 0.00950 353.5 15.7
360(10) 0.00968 353.6 16.3
375(10) 0.00932 353.6 16.9
382(10) 0.00965 353.6 17.5
360(10) 0.01030 353.6 18.2
351(10) 0.00965 353.7 18.8
362(10) 0.00913 353.7 19.5
368(10) 0.00958 353.7 20.1
380(10) 0.00954 353.7 20.8
376(10) 0.00997 353.8 21.4
361(10) 0.00967 353.8 22.0
346(10) 0.00968 353.8 22.7
399(11) 0.00871 353.8 23.3
372(10) 0.00997 353.9 23.9
367(10) 0.01016 353.9 24.5
354(10) 0.00978 353.9 25.1
378(11) 0.00833 353.9 25.6
360(10) 0.00970 354.0 26.1
365(10) 0.01012 354.0 26.6
360(10) 0.01039 354.0 26.8
379(10) 0.00927 354.0 26.9
373(11) 0.00889 354.1 26.7
367(10) 0.00925 354.1 26.3
377(10) 0.01003 354.1 25.8
362(10) 0.01006 354.2 25.1
354(10) 0.01012 354.2 24.5
399(11) 0.00803 354.2 23.9
369(10) 0.00916 354.2 23.4
340(10) 0.01093 354.3 23.0
359(10) 0.00991 354.3 22.7
338(10) 0.01043 354.3 22.6
377(11) 0.00867 354.3 22.6
380(10) 0.00910 354.4 22.8
365(10) 0.01011 354.4 23.0
350(10) 0.01015 354.3 23.3
353(10) 0.00988 354.3 23.5
366(10) 0.00940 354.3 23.6
374(10) 0.00941 354.3 23.6
330(9) 0.01137 354.2 23.6
360(10) 0.00996 354.2 23.5
377(11) 0.00889 354.2 23.5
398(11) 0.00861 354.1 23.5
388(10) 0.00911 354.1 23.6
362(10) 0.01031 354.1 23.8
360(10) 0.00959 354.1 24.0
362(10) 0.00957 354.0 24.3
367(10) 0.00916 354.0 24.6
368(10) 0.00945 354.0 24.9
345(10) 0.01078 353.9 25.2
356(10) 0.00987 353.9 25.5
349(10) 0.00992 353.9 25.8
393(11) 0.00862 353.8 26.1
375(10) 0.00966 353.8 26.3
332(9) 0.01113 353.8 26.6
363(10) 0.00917 353.8 26.7
384(11) 0.00848 353.7 26.9
360(10) 0.00992 353.7 27.0
367(10) 0.01020 353.7 27.0
346(10) 0.01076 353.6 27.0
379(10) 0.00929 353.6 27.0
362(11) 0.00906 353.6 26.9
361(10) 0.00958 353.6 26.8
391(10) 0.00939 353.5 26.7
386(10) 0.00940 353.5 26.6
365(10) 0.00956 353.5 26.5
360(11) 0.00897 353.4 26.4
360(10) 0.00973 353.4 26.3
376(10) 0.00990 353.4 26.3
362(10) 0.01018 353.3 26.4
358(10) 0.00971 353.3 26.8
369(11) 0.00833 353.3 27.6
349(10) 0.00983 353.3 29.2
360(10) 0.01034 353.2 32.1
418(11) 0.00891 353.2 36.7
387(10) 0.00942 353.2 43.0
402(11) 0.00822 353.1 50.8
417(11) 0.00812 353.1 59.0
405(10) 0.00921 353.1 65.4
401(11) 0.00905 353.0 67.6
394(11) 0.00889 353.0 64.7
399(11) 0.00835 353.0 58.4
390(11) 0.00884 353.0 51.2
388(10) 0.00949 352.9 44.9
385(10) 0.00943 352.9 40.2
380(10) 0.00940 352.9 37.0
378(11) 0.00895 352.8 34.9
400(11) 0.00849 352.8 33.2
393(10) 0.00940 352.8 31.6
376(10) 0.00952 352.8 30.0
376(10) 0.00921 352.7 28.5
360(10) 0.00963 352.7 27.3
389(11) 0.00898 352.7 26.4
368(10) 0.01012 352.6 25.8
359(10) 0.00972 352.6 25.6
368(10) 0.00919 352.6 25.7
393(11) 0.00866 352.5 26.1
358(10) 0.01013 352.5 26.8
370(10) 0.01008 352.5 27.5
378(11) 0.00882 352.5 28.4
360(11) 0.00906 352.4 29.2
367(10) 0.00924 352.4 30.0
371(10) 0.00962 352.4 30.7
404(10) 0.00928 352.3 31.4
369(10) 0.00957 352.3 32.2
384(11) 0.00847 352.3 33.0
359(10) 0.01005 352.3 34.0
387(10) 0.00956 352.2 35.1
404(10) 0.00924 352.2 36.3
367(10) 0.00986 352.2 37.5
381(11) 0.00840 352.1 38.7
356(10) 0.00991 352.1 39.8
382(10) 0.00952 352.1 40.7
385(10) 0.00972 352.0 41.3
393(10) 0.00910 352.0 41.6
399(11) 0.00802 352.0 41.7
412(11) 0.00829 352.0 41.6
376(10) 0.00993 351.9 41.4
388(10) 0.00932 351.9 41.4
391(10) 0.00908 351.9 41.7
404(11) 0.00777 351.8 42.3
391(11) 0.00901 351.8 43.6
407(11) 0.00902 351.8 45.4
405(10) 0.00918 351.8 47.7
397(11) 0.00866 351.7 50.4
382(11) 0.00857 351.7 53.0
404(11) 0.00855 351.7 54.9
399(10) 0.00933 351.6 55.4
358(10) 0.01034 351.6 54.0
394(11) 0.00864 351.6 50.9
361(10) 0.00910 351.5 46.7
365(10) 0.00929 351.5 42.1
362(10) 0.01024 351.5 37.6
390(10) 0.00946 351.5 33.6
376(10) 0.00923 351.4 30.1
382(11) 0.00867 351.4 27.3
365(10) 0.00921 351.4 25.1
361(10) 0.01030 351.3 23.3
357(10) 0.00982 351.3 22.1
340(10) 0.01006 351.3 21.1
345(10) 0.00984 351.3 20.5
348(10) 0.01028 351.2 20.1
395(10) 0.00938 351.2 19.9
379(10) 0.00942 351.2 19.8
402(11) 0.00852 351.1 19.9
365(10) 0.00947 351.1 20.0
349(10) 0.00988 351.1 20.3
351(10) 0.01066 351.0 20.6
372(10) 0.00958 351.0 21.1
398(11) 0.00843 351.0 21.6
388(11) 0.00894 351.0 22.4
374(10) 0.00946 350.9 23.4
375(10) 0.01003 350.9 24.7
377(10) 0.00920 350.9 26.5
379(11) 0.00876 350.8 29.0
361(10) 0.00968 350.8 32.4
381(10) 0.00933 350.8 36.6
407(10) 0.00914 350.8 41.6
414(11) 0.00841 350.7 46.9
430(11) 0.00775 350.7 51.8
415(11) 0.00813 350.7 55.0
387(10) 0.00958 350.6 55.5
384(10) 0.00966 350.6 53.2
414(11) 0.00834 350.6 49.3
380(11) 0.00879 350.5 45.0
378(11) 0.00904 350.5 41.0
372(10) 0.00986 350.5 37.7
404(10) 0.00923 350.5 35.2
385(11) 0.00892 350.4 33.4
376(11) 0.00817 350.4 32.1
368(10) 0.00944 350.4 31.3
370(10) 0.00991 350.3 30.7
353(10) 0.01057 350.3 30.2
399(11) 0.00847 350.3 29.7
371(11) 0.00883 350.3 29.3
379(10) 0.00909 350.2 28.9
374(10) 0.01009 350.2 28.5
381(10) 0.00960 350.2 28.0
379(10) 0.00923 350.1 27.6
353(10) 0.00936 350.1 27.1
338(10) 0.01013 350.1 26.6
349(10) 0.01069 350.0 26.0
388(10) 0.00931 350.0 25.5
362(10) 0.00985 350.0 24.9
358(10) 0.00945 350.0 24.2
350(10) 0.00972 349.9 23.6
356(10) 0.01045 349.9 22.9
370(10) 0.00988 349.9 22.3
360(10) 0.00987 349.8 21.6
357(10) 0.00947 349.8 21.0
347(10) 0.00992 349.8 20.4
367(10) 0.01008 349.7 19.8
370(10) 0.00998 349.7 19.3
348(10) 0.01001 349.7 18.7
355(10) 0.00961 349.7 18.2
345(10) 0.01029 349.6 17.8
330(9) 0.01124 349.6 17.3
346(10) 0.00994 349.6 16.9
353(10) 0.00973 349.5 16.5
347(10) 0.01009 349.5 16.2
341(10) 0.01072 349.5 15.9
335(9) 0.01123 349.5 15.6
356(10) 0.00966 349.4 15.3
376(11) 0.00889 349.4 15.0
371(10) 0.00934 349.4 14.8
353(10) 0.01020 349.3 14.6
371(10) 0.01008 349.3 14.4
367(10) 0.00967 349.3 14.2
359(10) 0.00946 349.2 14.1
394(11) 0.00840 349.2 13.9
341(10) 0.01079 349.2 13.8
354(10) 0.01038 349.2 13.7
367(10) 0.00947 349.1 13.7
366(11) 0.00902 349.1 13.6
345(10) 0.01024 349.1 13.6
363(10) 0.01029 349.0 13.6
354(10) 0.01044 349.0 13.6
392(11) 0.00859 349.0 13.6
340(10) 0.00982 349.0 13.6
361(10) 0.00964 348.9 13.7
356(10) 0.01045 348.9 13.8
346(10) 0.01061 348.9 13.9
361(10) 0.00952 348.8 14.0
366(11) 0.00891 348.8 14.1
369(10) 0.00929 348.8 14.3
336(9) 0.01117 348.7 14.4
332(10) 0.01104 348.7 14.6
336(10) 0.01060 348.7 14.9
368(11) 0.00867 348.7 15.1
356(10) 0.00989 348.6 15.4
346(10) 0.01086 348.6 15.7
351(10) 0.01067 348.6 16.0
372(11) 0.00899 348.5 16.4
338(10) 0.00958 348.5 16.7
372(11) 0.00906 348.5 17.2
385(10) 0.00970 348.5 17.6
352(10) 0.01035 348.4 18.1
357(10) 0.00936 348.4 18.7
347(10) 0.00965 348.4 19.2
410(11) 0.00824 348.3 19.9
342(10) 0.01074 348.3 20.6
359(10) 0.00979 348.3 21.3
377(11) 0.00893 348.2 22.1
357(10) 0.00930 348.2 23.0
334(10) 0.01035 348.2 23.9
366(10) 0.01009 348.2 24.9
409(11) 0.00843 348.1 25.9
370(10) 0.00935 348.1 27.0
406(11) 0.00824 348.1 28.2
378(10) 0.00975 348.0 29.3
372(10) 0.00985 348.0 30.3
378(11) 0.00897 348.0 31.3
382(11) 0.00895 348.0 32.2
389(10) 0.00933 347.9 32.8
419(11) 0.00866 347.9 33.3
383(10) 0.00961 347.9 33.5
382(11) 0.00907 347.8 33.6
397(11) 0.00827 347.8 33.5
388(10) 0.00915 347.8 33.3
387(10) 0.00958 347.7 33.1
395(10) 0.00931 347.7 33.0
377(10) 0.00912 347.7 32.9
378(11) 0.00842 347.7 32.8
391(11) 0.00881 347.6 32.9
387(10) 0.00937 347.6 33.0
361(10) 0.01033 347.6 33.3
381(10) 0.00918 347.5 33.6
420(12) 0.00739 347.5 34.1
388(11) 0.00888 347.5 34.6
389(10) 0.00956 347.5 35.2
377(10) 0.00997 347.4 35.9
391(11) 0.00885 347.4 36.6
388(11) 0.00817 347.4 37.5
392(11) 0.00884 347.3 38.3
377(10) 0.00982 347.3 39.3
391(10) 0.00925 347.3 40.2
375(10) 0.00962 347.2 41.3
394(11) 0.00840 347.2 42.3
419(11) 0.00840 347.2 43.3
406(10) 0.00914 347.2 44.4
398(10) 0.00934 347.1 45.5
379(10) 0.00933 347.1 46.5
439(12) 0.00733 347.1 47.5
418(11) 0.00787 347.0 48.5
410(10) 0.00919 347.0 49.5
391(10) 0.00916 347.0 50.3
393(11) 0.00887 347.0 51.1
378(11) 0.00900 346.9 51.8
420(11) 0.00821 346.9 52.4
398(10) 0.00928 346.9 52.9
406(11) 0.00905 346.8 53.2
387(10) 0.00908 346.8 53.5
401(11) 0.00834 346.8 53.5
421(11) 0.00825 346.7 53.5
426(11) 0.00868 346.7 53.3
401(11) 0.00892 346.7 53.0
405(11) 0.00829 346.7 52.5
385(11) 0.00888 346.6 51.9
392(10) 0.00910 346.6 51.3
387(10) 0.00968 346.6 50.5
418(11) 0.00839 346.5 49.6
398(11) 0.00862 346.5 48.7
391(11) 0.00862 346.5 47.7
387(10) 0.00909 346.4 46.6
409(10) 0.00913 346.4 45.5
398(11) 0.00850 346.4 44.4
392(11) 0.00866 346.4 43.3
391(11) 0.00906 346.3 42.2
402(10) 0.00934 346.3 41.1
397(10) 0.00931 346.3 40.0
398(11) 0.00870 346.2 38.9
408(11) 0.00786 346.2 37.8
392(11) 0.00881 346.2 36.8
380(10) 0.00945 346.2 35.7
376(10) 0.01001 346.1 34.7
408(11) 0.00866 346.1 33.7
373(11) 0.00889 346.1 32.8
403(11) 0.00833 346.0 31.8
374(10) 0.01003 346.0 30.9
374(10) 0.00991 346.0 30.0
342(10) 0.01000 345.9 29.1
356(11) 0.00871 345.9 28.3
377(10) 0.00933 345.9 27.5
398(10) 0.00934 345.9 26.8
364(10) 0.01015 345.8 26.1
367(10) 0.00935 345.8 25.4
374(11) 0.00880 345.8 24.8
360(10) 0.00979 345.7 24.2
401(10) 0.00931 345.7 23.6
389(10) 0.00968 345.7 23.1
364(10) 0.00937 345.7 22.7
370(11) 0.00891 345.6 22.2
354(10) 0.01011 345.6 21.8
378(10) 0.00985 345.6 21.5
398(10) 0.00922 345.5 21.2
384(10) 0.00918 345.5 20.9
376(11) 0.00896 345.5 20.7
381(10) 0.00911 345.4 20.5
349(10) 0.01058 345.4 20.4
377(10) 0.00964 345.4 20.3
376(10) 0.00911 345.4 20.2
336(10) 0.00997 345.3 20.1
357(10) 0.00988 345.3 20.1
376(10) 0.00996 345.3 20.2
394(11) 0.00889 345.2 20.3
351(10) 0.00974 345.2 20.4
357(10) 0.00964 345.2 20.6
383(10) 0.00934 345.2 20.8
346(10) 0.01069 345.1 21.0
365(10) 0.00956 345.1 21.4
360(10) 0.00972 345.1 21.8
376(10) 0.00908 345.0 22.3
357(10) 0.01028 345.0 22.8
384(10) 0.00970 345.0 23.5
382(11) 0.00906 344.9 24.2
379(11) 0.00895 344.9 25.1
393(11) 0.00879 344.9 26.2
380(10) 0.00985 344.9 27.4
382(10) 0.00978 344.8 28.8
359(10) 0.00977 344.8 30.4
352(10) 0.00935 344.8 32.3
377(10) 0.00957 344.7 34.4
374(10) 0.00998 344.7 36.9
425(11) 0.00877 344.7 39.7
387(10) 0.00935 344.7 42.8
372(11) 0.00903 344.6 46.3
391(11) 0.00904 344.6 50.1
392(10) 0.00947 344.6 54.2
414(11) 0.00903 344.5 58.5
415(11) 0.00845 344.5 62.9
443(12) 0.00706 344.5 67.2
414(11) 0.00843 344.4 71.1
407(10) 0.00909 344.4 74.5
423(11) 0.00874 344.4 76.9
450(11) 0.00770 344.4 78.0
467(12) 0.00704 344.3 77.8
421(11) 0.00793 344.3 76.3
376(10) 0.01008 344.3 73.5
394(10) 0.00936 344.2 69.8
401(11) 0.00886 344.2 65.6
380(11) 0.00874 344.2 61.2
388(11) 0.00880 344.2 56.7
390(10) 0.00942 344.1 52.4
394(10) 0.00944 344.1 48.4
415(11) 0.00811 344.1 44.6
374(11) 0.00907 344.0 41.3
389(11) 0.00898 344.0 38.2
378(10) 0.00988 344.0 35.4
358(10) 0.01001 343.9 33.0
373(11) 0.00901 343.9 30.8
370(11) 0.00893 343.9 28.9
369(10) 0.00947 343.9 27.2
388(10) 0.00958 343.8 25.6
377(10) 0.00922 343.8 24.3
372(10) 0.00919 343.8 23.0
370(11) 0.00906 343.7 21.9
361(10) 0.00981 343.7 20.9
390(10) 0.00958 343.7 20.0
373(10) 0.00925 343.7 19.1
338(10) 0.01029 343.6 18.3
366(10) 0.00928 343.6 17.6
355(10) 0.01011 343.6 16.9
358(10) 0.01032 343.5 16.2
356(10) 0.00951 343.5 15.6
346(10) 0.00952 343.5 15.1
371(10) 0.00926 343.4 14.6
348(10) 0.01062 343.4 14.1
319(9) 0.01158 343.4 13.6
359(10) 0.00946 343.4 13.2
369(11) 0.00906 343.3 12.8
344(10) 0.01033 343.3 12.4
342(10) 0.01049 343.3 12.0
342(10) 0.01089 343.2 11.7
378(10) 0.00915 343.2 11.4
368(11) 0.00895 343.2 11.1
378(10) 0.00934 343.1 10.8
346(10) 0.01068 343.1 10.5
341(10) 0.01089 343.1 10.3
357(10) 0.00976 343.1 10.0
348(11) 0.00901 343.0 9.8
344(10) 0.01019 343.0 9.6
358(10) 0.01048 343.0 9.4
343(10) 0.01088 342.9 9.3
339(10) 0.01040 342.9 9.1
336(10) 0.00998 342.9 9.0
353(10) 0.00982 342.9 8.8
358(10) 0.01021 342.8 8.7
347(10) 0.01083 342.8 8.6
348(10) 0.00977 342.8 8.4
348(10) 0.00934 342.8 8.3
365(10) 0.00940 342.8 8.3
355(10) 0.01046 342.7 8.2
338(10) 0.01066 342.7 8.1
333(10) 0.01044 342.7 8.0
347(10) 0.00973 342.7 8.0
375(10) 0.00936 342.7 7.9
342(10) 0.01090 342.6 7.9
366(10) 0.00973 342.6 7.8
369(10) 0.00938 342.6 7.8
361(10) 0.00941 342.6 7.8
354(10) 0.00975 342.6 7.8
346(10) 0.01067 342.5 7.8
365(10) 0.01011 342.5 7.9
359(10) 0.00969 342.5 7.9
376(10) 0.00943 342.5 8.0
386(10) 0.00938 342.5 8.0
360(10) 0.01039 342.4 8.1
351(10) 0.00998 342.4 8.1
360(10) 0.00940 342.4 8.2
364(10) 0.00931 342.4 8.3
343(10) 0.01063 342.4 8.4
363(10) 0.01021 342.3 8.5
368(10) 0.00933 342.3 8.6
387(11) 0.00873 342.3 8.8
346(10) 0.01014 342.3 9.2
349(10) 0.01013 342.3 9.7
366(10) 0.01021 342.2 10.5
375(11) 0.00868 342.2 11.8
378(11) 0.00851 342.2 13.8
384(11) 0.00866 342.2 16.9
376(10) 0.00960 342.2 21.2
385(10) 0.00966 342.1 26.7
386(10) 0.00928 342.1 33.2
392(11) 0.00822 342.1 39.7
388(11) 0.00872 342.1 44.5
378(10) 0.00968 342.1 46.0
370(10) 0.01009 342.0 43.4
392(11) 0.00895 342.0 38.0
375(11) 0.00861 342.0 31.6
379(10) 0.00911 342.0 25.5
364(10) 0.01027 342.0 20.5
374(10) 0.00989 341.9 16.8
345(10) 0.01043 341.9 14.2
365(11) 0.00894 341.9 12.6
371(10) 0.00930 341.9 11.7
358(10) 0.01039 341.9 11.2
348(10) 0.01033 341.8 11.0
376(10) 0.00920 341.8 10.9
368(10) 0.00914 341.8 10.9
375(11) 0.00899 341.8 11.0
351(10) 0.01067 341.8 11.2
315(9) 0.01184 341.8 11.4
340(10) 0.01019 341.7 11.7
349(10) 0.00963 341.7 12.0
383(11) 0.00899 341.7 12.3
343(10) 0.01082 341.7 12.7
344(10) 0.01081 341.7 13.1
361(10) 0.00940 341.6 13.6
363(10) 0.00911 341.6 14.1
387(11) 0.00889 341.6 14.6
370(10) 0.01006 341.6 15.1
365(10) 0.00986 341.6 15.7
367(10) 0.00952 341.5 16.3
363(10) 0.00941 341.5 16.9
370(10) 0.00953 341.5 17.6
354(10) 0.01051 341.5 18.3
362(10) 0.00979 341.5 18.9
351(10) 0.00972 341.4 19.6
371(10) 0.00936 341.4 20.2
407(11) 0.00869 341.4 20.9
372(10) 0.00991 341.4 21.5
375(10) 0.00922 341.4 22.0
357(10) 0.00939 341.3 22.5
385(11) 0.00903 341.3 22.9
376(10) 0.00982 341.3 23.3
362(10) 0.01031 341.3 23.6
361(10) 0.00958 341.3 23.8
365(10) 0.00908 341.2 24.0
396(11) 0.00858 341.2 24.0
389(10) 0.00945 341.2 24.0
372(10) 0.01001 341.2 23.9
372(11) 0.00881 341.2 23.8
387(11) 0.00842 341.1 23.7
354(10) 0.01030 341.1 23.5
350(10) 0.01051 341.1 23.3
371(10) 0.01013 341.1 23.0
393(11) 0.00870 341.1 22.8
375(11) 0.00899 341.0 22.6
399(11) 0.00881 341.0 22.4
376(10) 0.00984 341.0 22.2
364(10) 0.01037 341.0 22.0
352(10) 0.00985 341.0 21.9
354(10) 0.00920 340.9 21.7
353(10) 0.00967 340.9 21.6
347(10) 0.01081 340.9 21.4
351(10) 0.01062 340.9 21.2
359(10) 0.00957 340.9 21.1
346(10) 0.00915 340.8 20.9
340(10) 0.01011 340.8 20.6
336(9) 0.01112 340.8 20.4
351(10) 0.01061 340.8 20.1
355(10) 0.01006 340.8 19.8
339(10) 0.01007 340.8 19.4
350(10) 0.01008 340.7 19.0
364(10) 0.01030 340.7 18.6
337(10) 0.01082 340.7 18.1
351(10) 0.00961 340.7 17.5
345(10) 0.00951 340.7 16.8
363(10) 0.00954 340.6 16.1
340(10) 0.01081 340.6 15.3
367(10) 0.00970 340.6 14.6
358(10) 0.00937 340.6 13.9
365(11) 0.00894 340.6 13.2
347(10) 0.01020 340.5 12.6
365(10) 0.01015 340.5 12.0
350(10) 0.01009 340.5 11.4
352(10) 0.00952 340.5 10.9
344(10) 0.00982 340.5 10.4
365(10) 0.00963 340.4 9.9
347(10) 0.01065 340.4 9.5
398(11) 0.00845 340.4 9.1
358(10) 0.00963 340.4 8.7
353(10) 0.00977 340.4 8.3
336(10) 0.01060 340.3 8.0
332(9) 0.01112 340.3 7.7
333(10) 0.01035 340.3 7.4
342(10) 0.01000 340.3 7.1
373(10) 0.00918 340.3 6.8
352(10) 0.01029 340.2 6.6
358(10) 0.01043 340.2 6.4
360(10) 0.00990 340.2 6.2
371(11) 0.00871 340.2 6.0
340(10) 0.00953 340.2 5.8
346(10) 0.01006 340.1 5.7
339(9) 0.01111 340.1 5.5
347(10) 0.01008 340.1 5.4
345(10) 0.00963 340.1 5.3
354(10) 0.00964 340.1 5.2
328(9) 0.01113 340.0 5.1
343(10) 0.01077 340.0 5.0
344(10) 0.01062 340.0 4.9
351(10) 0.00921 340.0 4.8
341(10) 0.01003 340.0 4.8
349(10) 0.01064 339.9 4.7
359(10) 0.01039 339.9 4.7
351(10) 0.01014 339.9 4.6
364(11) 0.00902 339.9 4.6
353(10) 0.01005 339.9 4.6
333(10) 0.01094 339.8 4.6
325(9) 0.01135 339.8 4.6
330(10) 0.01083 339.8 4.7
352(10) 0.00941 339.8 4.8
341(10) 0.01006 339.8 4.9
353(10) 0.01053 339.8 5.0
335(10) 0.01089 339.7 5.2
335(10) 0.01012 339.7 5.5
352(11) 0.00905 339.7 5.8
336(10) 0.01011 339.7 6.4
367(10) 0.00994 339.7 7.1
339(10) 0.01068 339.6 8.0
345(10) 0.00994 339.6 9.2
350(10) 0.00978 339.6 10.6
354(10) 0.00985 339.6 12.3
343(10) 0.01085 339.6 14.3
351(10) 0.01021 339.5 16.4
373(10) 0.00928 339.5 18.3
354(10) 0.00973 339.5 19.8
346(10) 0.01052 339.5 20.4
357(10) 0.01038 339.5 20.0
339(10) 0.01043 339.4 18.7
350(10) 0.00935 339.4 16.9
319(9) 0.01115 339.4 14.8
334(10) 0.01060 339.4 12.7
328(9) 0.01142 339.4 10.9
344(10) 0.00961 339.3 9.3
323(10) 0.01058 339.3 8.0
341(10) 0.01022 339.3 7.0
362(10) 0.01005 339.3 6.2
362(10) 0.01009 339.3 5.6
351(10) 0.00984 339.2 5.2
343(10) 0.00967 339.2 4.8
350(10) 0.00988 339.2 4.6
356(10) 0.01018 339.2 4.4
373(10) 0.00988 339.2 4.3
326(10) 0.01036 339.1 4.1
331(10) 0.00969 339.1 4.1
377(10) 0.00919 339.1 4.0
370(10) 0.00982 339.1 3.9
334(9) 0.01123 339.1 3.9
360(10) 0.00980 339.0 3.8
358(10) 0.00931 339.0 3.8
348(10) 0.00994 339.0 3.8
361(10) 0.01035 339.0 3.7
331(10) 0.01105 339.0 3.7
352(10) 0.00961 338.9 3.6
331(10) 0.00990 338.9 3.6
328(10) 0.01063 338.9 3.5
337(10) 0.01093 338.9 3.5
347(10) 0.01066 338.9 3.4
345(10) 0.01050 338.8 3.4
336(10) 0.01011 338.8 3.3
331(10) 0.01034 338.8 3.3
336(10) 0.01102 338.8 3.3
341(10) 0.01082 338.8 3.2
369(10) 0.00925 338.8 3.2
344(10) 0.00986 338.7 3.1
350(10) 0.00996 338.7 3.1
350(10) 0.01081 338.7 3.1
340(10) 0.01047 338.7 3.1
340(10) 0.00978 338.7 3.1
326(10) 0.00987 338.6 3.0
343(10) 0.01008 338.6 3.0
335(10) 0.01094 338.6 3.0
357(10) 0.00986 338.6 3.0
385(11) 0.00876 338.6 3.0
340(10) 0.01000 338.5 3.0
335(10) 0.01065 338.5 3.0
369(10) 0.01006 338.5 3.0
342(10) 0.01033 338.5 3.0
326(10) 0.01025 338.5 3.0
332(10) 0.01048 338.4 3.0
338(10) 0.01057 338.4 3.0
316(9) 0.01170 338.4 3.1
355(10) 0.00970 338.4 3.1
337(10) 0.01046 338.4 3.1
357(10) 0.00955 338.3 3.1
336(10) 0.01071 338.3 3.1
332(9) 0.01113 338.3 3.1
336(10) 0.01082 338.3 3.1
328(10) 0.01001 338.3 3.1
357(10) 0.00936 338.2 3.1
369(10) 0.00988 338.2 3.1
356(10) 0.01046 338.2 3.1
364(10) 0.00926 338.2 3.1
335(10) 0.00959 338.2 3.1
358(10) 0.00958 338.1 3.0
336(10) 0.01089 338.1 3.0
329(9) 0.01126 338.1 3.0
353(10) 0.00999 338.1 3.0
349(10) 0.00916 338.1 3.0
348(10) 0.00957 338.0 3.0
345(10) 0.01058 338.0 2.9
367(10) 0.01018 338.0 2.9
357(10) 0.00985 338.0 2.9
343(10) 0.00936 338.0 2.9
326(10) 0.01072 337.9 2.8
373(10) 0.00991 337.9 2.8
337(10) 0.01093 337.9 2.8
348(10) 0.00997 337.9 2.7
348(10) 0.00929 337.9 2.7
324(10) 0.01089 337.8 2.7
328(9) 0.01128 337.8 2.6
352(10) 0.01029 337.8 2.6
330(10) 0.01069 337.8 2.6
359(10) 0.00931 337.8 2.5
365(10) 0.00963 337.8 2.5
336(10) 0.01106 337.7 2.5
341(10) 0.01061 337.7 2.5
347(10) 0.00974 337.7 2.4
351(10) 0.00954 337.7 2.4
328(10) 0.01045 337.7 2.4
340(10) 0.01093 337.6 2.4
342(10) 0.01018 337.6 2.3
362(10) 0.00961 337.6 2.3
353(10) 0.00994 337.6 2.3
338(10) 0.01051 337.6 2.3
355(10) 0.01049 337.5 2.3
358(10) 0.01006 337.5 2.3
355(10) 0.00966 337.5 2.2
346(10) 0.00990 337.5 2.2
329(10) 0.01095 337.5 2.2
331(9) 0.01115 337.4 2.2
353(10) 0.00969 337.4 2.2
326(9) 0.01112 337.4 2.2
370(10) 0.00929 337.4 2.2
343(10) 0.01077 337.4 2.2
351(10) 0.01059 337.3 2.2
316(10) 0.01104 337.3 2.2
347(10) 0.00959 337.3 2.2
336(10) 0.01051 337.3 2.2
337(10) 0.01093 337.3 2.2
335(10) 0.01096 337.2 2.2
342(10) 0.01028 337.2 2.2
362(11) 0.00901 337.2 2.2
364(10) 0.00934 337.2 2.2
317(9) 0.01154 337.2 2.2
355(10) 0.01029 337.1 2.2
332(10) 0.01043 337.1 2.2
355(10) 0.00926 337.1 2.2
345(10) 0.01038 337.1 2.2
373(10) 0.01004 337.1 2.2
344(10) 0.01068 337.1 2.2
347(10) 0.01013 337.2 2.2
341(10) 0.00928 337.2 2.2
321(10) 0.01080 337.2 2.3
316(9) 0.01171 337.3 2.3
339(10) 0.01081 337.3 2.3
351(10) 0.01012 337.3 2.3
355(10) 0.00933 337.4 2.3
327(10) 0.01076 337.4 2.3
343(10) 0.01075 337.4 2.3
343(10) 0.01056 337.5 2.3
369(10) 0.00935 337.5 2.3
351(10) 0.01001 337.5 2.3
343(10) 0.01032 337.5 2.3
318(9) 0.01169 337.6 2.4
334(10) 0.01087 337.6 2.4
358(10) 0.00961 337.6 2.4
339(10) 0.00989 337.7 2.4
359(11) 0.00898 337.7 2.4
331(9) 0.01115 337.7 2.4
370(10) 0.00979 337.8 2.5
367(10) 0.00911 337.8 2.5
331(10) 0.01020 337.8 2.5
333(10) 0.01024 337.9 2.5
357(10) 0.01035 337.9 2.5
331(10) 0.01077 337.9 2.6
324(10) 0.01056 338.0 2.6
333(10) 0.01033 338.0 2.6
350(10) 0.01029 338.0 2.7
365(10) 0.01025 338.1 2.7
345(10) 0.00977 338.1 2.7
330(10) 0.01006 338.1 2.8
332(10) 0.01040 338.1 2.8
329(9) 0.01109 338.2 2.9
358(10) 0.01037 338.2 2.9
321(10) 0.01095 338.2 3.0
343(10) 0.00993 338.3 3.0
339(10) 0.01033 338.3 3.1
337(10) 0.01082 338.3 3.2
342(10) 0.01093 338.4 3.2
345(10) 0.01039 338.4 3.3
370(11) 0.00874 338.4 3.4
327(10) 0.01081 338.5 3.5
357(10) 0.01018 338.5 3.6
336(9) 0.01120 338.5 3.6
340(10) 0.01036 338.6 3.7
345(10) 0.00980 338.6 3.9
361(10) 0.00967 338.6 4.0
368(10) 0.01011 338.7 4.1
325(9) 0.01126 338.7 4.2
331(10) 0.01008 338.7 4.3
344(11) 0.00894 338.7 4.5
358(10) 0.00958 338.8 4.7
335(9) 0.01113 338.8 4.8
332(9) 0.01112 338.8 5.0
343(10) 0.01022 338.9 5.2
386(11) 0.00840 338.9 5.4
355(10) 0.00998 338.9 5.6
362(10) 0.01046 339.0 5.8
339(10) 0.01088 339.0 6.1
326(10) 0.01071 339.0 6.3
353(10) 0.00942 339.1 6.6
357(10) 0.00956 339.1 6.9
355(10) 0.01038 339.1 7.2
353(10) 0.01033 339.2 7.6
366(10) 0.00941 339.2 7.9
356(10) 0.00942 339.2 8.3
367(10) 0.00960 339.3 8.7
369(10) 0.01013 339.3 9.1
351(10) 0.00994 339.3 9.6
317(10) 0.01072 339.3 10.1
350(10) 0.00986 339.4 10.6
364(10) 0.00971 339.4 11.2
350(10) 0.01062 339.4 11.8
338(10) 0.01061 339.5 12.5
351(10) 0.00958 339.5 13.2
370(11) 0.00893 339.5 14.0
378(10) 0.00942 339.6 14.8
359(10) 0.01043 339.6 15.6
356(10) 0.01006 339.6 16.6
322(10) 0.01094 339.7 17.6
365(10) 0.00944 339.7 18.6
367(10) 0.00967 339.7 19.8
381(10) 0.00975 339.8 21.0
388(11) 0.00851 339.8 22.3
367(10) 0.00937 339.8 23.7
388(11) 0.00883 339.8 25.2
354(10) 0.01018 339.9 26.7
372(10) 0.00989 339.9 28.4
346(10) 0.01055 339.9 30.1
384(11) 0.00890 340.0 31.8
367(10) 0.00924 340.0 33.5
360(10) 0.01019 340.0 35.2
348(10) 0.01087 340.1 36.7
361(10) 0.00968 340.1 38.0
371(11) 0.00875 340.1 39.1
382(10) 0.00925 340.2 39.9
416(11) 0.00869 340.2 40.3
386(10) 0.00975 340.2 40.2
398(11) 0.00869 340.3 39.9
385(11) 0.00810 340.3 39.1
348(10) 0.00971 340.3 38.2
377(10) 0.00967 340.4 37.0
381(10) 0.00976 340.4 35.7
400(11) 0.00840 340.4 34.3
382(11) 0.00810 340.4 32.9
374(10) 0.00948 340.5 31.6
394(10) 0.00934 340.5 30.3
360(10) 0.01021 340.5 29.1
352(10) 0.01000 340.6 28.0
357(10) 0.00931 340.6 26.9
350(10) 0.01017 340.6 26.0
351(10) 0.01052 340.7 25.0
353(10) 0.01053 340.7 24.1
342(10) 0.01011 340.7 23.3
353(10) 0.00947 340.8 22.4
369(10) 0.00912 340.8 21.6
352(10) 0.01065 340.8 20.7
359(10) 0.01015 340.9 19.9
339(10) 0.01028 340.9 19.1
352(10) 0.00957 340.9 18.3
352(10) 0.00997 341.0 17.5
328(9) 0.01132 341.0 16.7
343(10) 0.01035 341.0 16.0
317(9) 0.01137 341.0 15.3
334(10) 0.01016 341.1 14.6
354(10) 0.00985 341.1 14.0
360(10) 0.01031 341.1 13.4
360(10) 0.00985 341.2 12.8
358(10) 0.00983 341.2 12.3
358(10) 0.00939 341.2 11.9
323(9) 0.01124 341.3 11.4
385(10) 0.00955 341.3 11.1
365(10) 0.00941 341.3 10.7
345(10) 0.00943 341.4 10.4
358(10) 0.00954 341.4 10.1
341(10) 0.01070 341.4 9.9
361(10) 0.01022 341.5 9.7
351(10) 0.00969 341.5 9.5
354(10) 0.00927 341.5 9.4
344(10) 0.00982 341.6 9.3
369(10) 0.00984 341.6 9.2
349(10) 0.01060 341.6 9.2
372(10) 0.00930 341.6 9.1
351(10) 0.00949 341.7 9.1
331(10) 0.01024 341.7 9.2
343(10) 0.01073 341.7 9.2
335(10) 0.01072 341.8 9.3
322(10) 0.01039 341.8 9.3
312(10) 0.01009 341.8 9.5
334(10) 0.00980 341.9 9.6
328(9) 0.01119 341.9 9.7
327(9) 0.01148 341.9 9.9
339(10) 0.01047 342.0 10.0
361(11) 0.00900 342.0 10.2
356(10) 0.01000 342.0 10.4
358(10) 0.01041 342.1 10.6
370(10) 0.01011 342.1 10.8
364(10) 0.00988 342.1 11.0
375(11) 0.00886 342.2 11.2
353(10) 0.00995 342.2 11.4
358(10) 0.01045 342.2 11.6
366(10) 0.00990 342.2 11.8
369(10) 0.00931 342.3 12.0
345(10) 0.00961 342.3 12.2
357(10) 0.00935 342.3 12.5
350(10) 0.01063 342.4 12.8
359(10) 0.01014 342.4 13.1
369(10) 0.00930 342.4 13.6
357(10) 0.00951 342.5 14.3
346(10) 0.00986 342.5 15.2
352(10) 0.01045 342.5 16.5
360(10) 0.00980 342.6 18.3
335(10) 0.01021 342.6 20.4
324(10) 0.01041 342.6 22.9
342(10) 0.01036 342.7 25.3
367(10) 0.01016 342.7 27.3
347(10) 0.01054 342.7 28.1
364(10) 0.00961 342.8 27.3
346(10) 0.00975 342.8 25.4
343(10) 0.01034 342.8 22.8
366(10) 0.01010 342.8 20.0
365(10) 0.00945 342.9 17.6
327(10) 0.01073 342.9 15.6
362(10) 0.00967 342.9 14.0
369(10) 0.00966 343.0 12.8
352(10) 0.01049 343.0 11.9
366(10) 0.00930 343.0 11.3
380(11) 0.00861 343.1 10.9
338(10) 0.01020 343.1 10.5
351(10) 0.01004 343.1 10.3
362(10) 0.01019 343.2 10.1
356(10) 0.00975 343.2 10.0
341(10) 0.00963 343.2 9.9
330(10) 0.01073 343.3 9.8
361(10) 0.01025 343.3 9.7
325(9) 0.01135 343.3 9.6
365(10) 0.00916 343.3 9.6
373(11) 0.00827 343.4 9.6
352(10) 0.00979 343.4 9.5
352(10) 0.01048 343.4 9.6
352(10) 0.01060 343.5 9.6
330(10) 0.01050 343.5 9.6
353(11) 0.00905 343.5 9.7
365(10) 0.00974 343.6 9.7
389(10) 0.00969 343.6 9.8
366(10) 0.01019 343.6 9.9
356(10) 0.01009 343.7 9.9
375(11) 0.00853 343.7 10.0
360(10) 0.00962 343.7 10.1
365(10) 0.01022 343.8 10.2
350(10) 0.01054 343.8 10.3
350(10) 0.01001 343.8 10.3
348(10) 0.00958 343.9 10.4
351(10) 0.01014 343.9 10.6
350(10) 0.01068 343.9 10.7
357(10) 0.01027 343.9 10.8
355(10) 0.01006 344.0 11.0
361(10) 0.00933 344.0 11.1
332(10) 0.01077 344.0 11.3
362(10) 0.01020 344.1 11.5
332(10) 0.01101 344.1 11.7
351(10) 0.00983 344.1 11.9
396(11) 0.00845 344.2 12.1
376(10) 0.00941 344.2 12.3
392(10) 0.00950 344.2 12.5
384(10) 0.00912 344.3 12.7
355(10) 0.00977 344.3 12.9
355(10) 0.00997 344.3 13.1
377(10) 0.00947 344.4 13.3
369(10) 0.01011 344.4 13.5
347(10) 0.01000 344.4 13.7
343(10) 0.00961 344.5 13.9
364(10) 0.00932 344.5 14.1
350(10) 0.01012 344.5 14.2
340(10) 0.01095 344.5 14.4
363(10) 0.00922 344.6 14.6
360(11) 0.00906 344.6 14.7
369(11) 0.00897 344.6 15.0
358(10) 0.01019 344.7 15.3
349(10) 0.01060 344.7 15.8
371(10) 0.00926 344.7 16.6
366(10) 0.00924 344.8 17.7
383(10) 0.00911 344.8 19.0
365(10) 0.00993 344.8 20.3
374(10) 0.00990 344.9 21.0
369(10) 0.00983 344.9 20.8
373(11) 0.00891 344.9 19.8
352(10) 0.00972 345.0 18.4
375(10) 0.00950 345.0 17.0
372(10) 0.00997 345.0 15.8
345(10) 0.01030 345.1 14.9
347(11) 0.00887 345.1 14.3
351(10) 0.01008 345.1 14.0
366(10) 0.00997 345.1 13.7
345(10) 0.01059 345.2 13.5
358(10) 0.00938 345.2 13.3
350(10) 0.00910 345.2 13.1
346(10) 0.00973 345.3 12.8
346(10) 0.01051 345.3 12.6
350(10) 0.01032 345.3 12.3
335(10) 0.01027 345.4 12.0
364(11) 0.00861 345.4 11.7
350(10) 0.00954 345.4 11.4
346(10) 0.01056 345.5 11.1
350(10) 0.01049 345.5 10.8
357(10) 0.00982 345.5 10.5
345(10) 0.00967 345.6 10.2
326(10) 0.01058 345.6 10.0
356(10) 0.01049 345.6 9.8
337(10) 0.01047 345.7 9.6
341(10) 0.01026 345.7 9.4
335(10) 0.01045 345.7 9.3
330(10) 0.01056 345.7 9.2
350(10) 0.01065 345.8 9.1
357(10) 0.00987 345.8 9.1
352(10) 0.00946 345.8 9.1
375(10) 0.00910 345.9 9.1
388(11) 0.00907 345.9 9.2
349(10) 0.01073 345.9 9.3
383(11) 0.00904 346.0 9.5
346(10) 0.00975 346.0 9.7
363(10) 0.00945 346.0 10.0
371(10) 0.00961 346.1 10.2
347(10) 0.01061 346.1 10.5
366(10) 0.00936 346.1 10.8
359(10) 0.00947 346.2 11.1
359(10) 0.00973 346.2 11.3
373(10) 0.00967 346.2 11.5
340(10) 0.01098 346.3 11.5
358(10) 0.00959 346.3 11.5
367(10) 0.00920 346.3 11.4
357(10) 0.00984 346.3 11.2
354(10) 0.01027 346.4 11.0
354(10) 0.01060 346.4 10.7
346(10) 0.01000 346.4 10.4
339(10) 0.00945 346.5 10.1
348(10) 0.00963 346.5 9.8
332(9) 0.01116 346.5 9.6
322(9) 0.01167 346.6 9.4
316(9) 0.01119 346.6 9.2
381(11) 0.00825 346.6 9.1
342(10) 0.01026 346.7 9.1
375(10) 0.00978 346.7 9.2
358(10) 0.01034 346.7 9.4
352(10) 0.01019 346.8 9.7
375(11) 0.00876 346.8 10.3
366(10) 0.00964 346.8 11.2
354(10) 0.01033 346.8 12.5
327(9) 0.01145 346.9 14.5
348(10) 0.01005 346.9 17.4
405(11) 0.00805 346.9 21.6
366(10) 0.00964 347.0 27.0
378(10) 0.00981 347.0 33.9
390(10) 0.00937 347.0 42.1
400(11) 0.00867 347.1 50.9
405(11) 0.00832 347.1 59.1
394(11) 0.00880 347.1 64.8
416(11) 0.00893 347.2 66.0
384(10) 0.00945 347.2 62.4
357(10) 0.00964 347.2 55.2
363(10) 0.00918 347.3 46.6
396(11) 0.00868 347.3 38.1
373(10) 0.00993 347.3 30.8
392(11) 0.00902 347.4 24.9
356(10) 0.00978 347.4 20.5
367(10) 0.00911 347.4 17.6
314(9) 0.01126 347.4 15.9
359(10) 0.01035 347.5 15.3
355(10) 0.01008 347.5 15.5
376(10) 0.00909 347.5 16.5
405(11) 0.00855 347.6 18.0
367(10) 0.00953 347.6 19.8
386(10) 0.00963 347.6 21.6
358(10) 0.00981 347.7 22.8
383(11) 0.00863 347.7 23.0
395(11) 0.00838 347.7 22.0
350(10) 0.01044 347.8 20.0
362(10) 0.01024 347.8 17.7
362(10) 0.00970 347.8 15.3
361(10) 0.00940 347.9 13.2
369(10) 0.00947 347.9 11.4
359(10) 0.01001 347.9 10.0
370(10) 0.01000 348.0 8.9
360(10) 0.00963 348.0 8.1
313(10) 0.01072 348.0 7.5
336(10) 0.01044 348.0 7.0
346(10) 0.01066 348.1 6.7
327(9) 0.01110 348.1 6.4
346(10) 0.00984 348.1 6.2
360(11) 0.00900 348.2 6.0
353(10) 0.00979 348.2 5.8
353(10) 0.01005 348.2 5.6
350(10) 0.01066 348.3 5.4
344(10) 0.00996 348.3 5.2
339(10) 0.00953 348.3 5.1
361(10) 0.00972 348.4 4.9
330(9) 0.01124 348.4 4.8
344(10) 0.01069 348.4 4.6
363(10) 0.00968 348.5 4.5
338(10) 0.00988 348.5 4.3
360(10) 0.00968 348.5 4.2
355(10) 0.01035 348.6 4.0
370(10) 0.00979 348.6 3.9
332(10) 0.01040 348.6 3.8
352(11) 0.00877 348.6 3.7
334(10) 0.01013 348.6 3.5
344(10) 0.01078 348.6 3.4
354(10) 0.00999 348.6 3.3
341(10) 0.01026 348.6 3.2
327(10) 0.01077 348.6 3.1
349(10) 0.01017 348.6 3.0
337(10) . . .
333(10) . . .
356(10) . . .
356(10) . . .
347(10) . . .
331(9) . . .
332(10) . . .
324(10) . . .
335(10) . . .
330(10) . . .
322(9) . . .
331(10) . . .
337(10) . . .
339(10) . . .
341(10) . . .
338(10) . . .
316(10) . . .
331(10) . . .
357(10) . . .
365(10) . . .
336(10) . . .
339(10) . . .
315(9) . . .
328(10) . . .
344(10) . . .
368(10) . . .
374(10) . . .
336(10) . . .
345(10) . . .
343(10) . . .
361(10) . . .
356(10) . . .
360(11) . . .
343(10) . . .
339(10) . . .
369(10) . . .
330(10) . . .
364(11) . . .
341(10) . . .
327(9) . . .
339(10) . . .
337(10) . . .
343(10) . . .
346(10) . . .
304(9) . . .
308(9) . . .
320(10) . . .
333(10) . . .
345(10) . . .
320(9) . . .
363(10) . . .
357(10) . . .
330(10) . . .
322(10) . . .
314(9) . . .
326(9) . . .
349(10) . . .
328(10) . . .
332(10) . . .
346(10) . . .
332(10) . . .
367(10) . . .
325(10) . . .
343(10) . . .
344(10) . . .
339(10) . . .
346(10) . . .
338(10) . . .
341(10) . . .
324(9) . . .
339(10) . . .
309(10) . . .
353(10) . . .
349(10) . . .
321(9) . . .
346(10) . . .
344(10) . . .
374(10) . . .
365(10) . . .
354(10) . . .
335(10) . . .
303(10) . . .
311(9) . . .
354(10) . . .
352(10) . . .
333(10) . . .
327(10) . . .
337(10) . . .
331(9) . . .
366(10) . . .
352(10) . . .
331(10) . . .
337(10) . . .
357(10) . . .
323(9) . . .
353(10) . . .
358(10) . . .
347(10) . . .
360(10) . . .
342(10) . . .
342(10) . . .
345(10) . . .
354(10) . . .
342(10) . . .
331(10) . . .
353(10) . . .
350(10) . . .
349(10) . . .
341(10) . . .
334(10) . . .
353(10) . . .
336(10) . . .
348(10) . . .
340(10) . . .
349(10) . . .
356(10) . . .
364(10) . . .
365(10) . . .
349(10) . . .
326(10) . . .
338(10) . . .
322(10) . . .
359(10) . . .
371(10) . . .
357(10) . . .
318(10) . . .
355(10) . . .
341(10) . . .
370(10) . . .
350(10) . . .
379(11) . . .
347(10) . . .
347(10) . . .
351(10) . . .
372(10) . . .
349(10) . . .
365(10) . . .
391(10) . . .
367(10) . . .
358(10) . . .
354(10) . . .
373(10) . . .
376(10) . . .
351(10) . . .
346(10) . . .
375(11) . . .
368(10) . . .
340(10) . . .
326(10) . . .
331(10) . . .
343(10) . . .
338(10) . . .
370(10) . . .
335(10) . . .
360(10) . . .
357(10) . . .
355(10) . . .
364(10) . . .
348(10) . . .
389(11) . . .
349(10) . . .
358(10) . . .
374(10) . . .
360(10) . . .
355(10) . . .
346(10) . . .
352(10) . . .
346(10) . . .
334(10) . . .
346(10) . . .
353(10) . . .
342(10) . . .
366(10) . . .
349(10) . . .
354(10) . . .
344(10) . . .
351(10) . . .
337(10) . . .
340(10) . . .
340(10) . . .
348(10) . . .
306(9) . . .
303(9) . . .
342(10) . . .
338(10) . . .
342(10) . . .
357(10) . . .
335(9) . . .
311(9) . . .
353(10) . . .
322(10) . . .
329(9) . . .
324(10) . . .
346(10) . . .
324(10) . . .
323(10) . . .
310(9) . . .
309(9) . . .
322(10) . . .
358(10) . . .
336(10) . . .
353(10) . . .
344(10) . . .
308(9) . . .
339(10) . . .
326(10) . . .
313(9) . . .
310(9) . . .
319(10) . . .
335(10) . . .
340(10) . . .
359(10) . . .
347(10) . . .
338(10) . . .
348(10) . . .
390(10) . . .
351(10) . . .
367(10) . . .
358(10) . . .
358(10) . . .
381(10) . . .
365(10) . . .
371(10) . . .
343(10) . . .
333(10) . . .
329(9) . . .
345(10) . . .
344(10) . . .
342(10) . . .
340(10) . . .
343(10) . . .
370(10) . . .
365(10) . . .
346(10) . . .
369(10) . . .
355(10) . . .
328(9) . . .
348(10) . . .
342(10) . . .
335(10) . . .
338(10) . . .
314(9) . . .
349(10) . . .
378(11) . . .
371(10) . . .
344(10) . . .
351(10) . . .
321(9) . . .
340(10) . . .
337(10) . . .
337(10) . . .
366(10) . . .
344(10) . . .
339(10) . . .
349(10) . . .
337(10) . . .
364(10) . . .
359(10) . . .
375(10) . . .
369(10) . . .
358(10) . . .
409(11) . . .
357(10) . . .
383(11) . . .
401(11) . . .
406(10) . . .
435(11) . . .
435(12) . . .
406(11) . . .
411(11) . . .
415(10) . . .
428(11) . . .
372(10) . . .
415(11) . . .
408(11) . . .
412(11) . . .
408(11) . . .
406(11) . . .
390(11) . . .
428(11) . . .
431(11) . . .
417(11) . . .
367(11) . . .
403(11) . . .
376(10) . . .
359(10) . . .
355(10) . . .
347(10) . . .
371(10) . . .
333(10) . . .
346(10) . . .
340(10) . . .
328(10) . . .
336(10) . . .
359(10) . . .
342(10) . . .
334(10) . . .
327(10) . . .
355(10) . . .
327(9) . . .
334(10) . . .
344(10) . . .
359(10) . . .
358(10) . . .
335(9) . . .
349(10) . . .
313(9) . . .
322(10) . . .
323(10) . . .
331(9) . . .
354(10) . . .
349(10) . . .
334(10) . . .
350(10) . . .
311(9) . . .
332(10) . . .
311(10) . . .
326(10) . . .
336(10) . . .
330(9) . . .
338(10) . . .
324(10) . . .
310(10) . . .
331(10) . . .
320(9) . . .
313(9) . . .
341(10) . . .
329(10) . . .
315(9) . . .
361(10) . . .
319(9) . . .
323(10) . . .
307(9) . . .
313(9) . . .
300(9) . . .
310(9) . . .
342(10) . . .
338(10) . . .
332(9) . . .
316(9) . . .
357(10) . . .
356(10) . . .
327(10) . . .
338(9) . . .
350(10) . . .
336(10) . . .
333(10) . . .
335(10) . . .
345(10) . . .
330(10) . . .
355(10) . . .
341(10) . . .
327(10) . . .
349(10) . . .
328(10) . . .
318(10) . . .
322(10) . . .
332(10) . . .
304(9) . . .
339(10) . . .
325(10) . . .
310(10) . . .
321(10) . . .
315(9) . . .
306(9) . . .
353(10) . . .
313(9) . . .
319(10) . . .
325(9) . . .
322(10) . . .
301(9) . . .
316(9) . . .
314(9) . . .
345(10) . . .
330(10) . . .
321(10) . . .
337(10) . . .
333(9) . . .
322(9) . . .
315(10) . . .
309(10) . . .
308(9) . . .
330(9) . . .
331(9) . . .
310(9) . . .
347(10) . . .
319(9) . . .
337(10) . . .
337(10) . . .
307(9) . . .
311(10) . . .
331(10) . . .
340(10) . . .
343(10) . . .
330(10) . . .
312(9) . . .
323(10) . . .
327(9) . . .
303(9) . . .
294(9) . . .
336(10) . . .
291(9) . . .
311(9) . . .
333(10) . . .
313(10) . . .
321(10) . . .
341(10) . . .
341(10) . . .
342(10) . . .
308(9) . . .
322(10) . . .
306(9) . . .
284(9) . . .
316(9) . . .
318(10) . . .
306(9) . . .
328(10) . . .
324(9) . . .
317(10) . . .
329(10) . . .
323(10) . . .
312(9) . . .
330(9) . . .
317(10) . . .
303(10) . . .
321(10) . . .
328(9) . . .
309(9) . . .
313(9) . . .
310(10) . . .
329(10) . . .
319(9) . . .
321(9) . . .
346(10) . . .
322(10) . . .
313(9) . . .
333(9) . . .
342(10) . . .
320(9) . . .
337(10) . . .
335(10) . . .
342(10) . . .
308(9) . . .
336(10) . . .
334(10) . . .
379(11) . . .
344(10) . . .
361(10) . . .
382(11) . . .
344(10) . . .
335(10) . . .
354(10) . . .
366(10) . . .
366(10) . . .
357(10) . . .
347(10) . . .
374(10) . . .
336(10) . . .
360(10) . . .
329(10) . . .
346(10) . . .
360(10) . . .
352(10) . . .
373(11) . . .
357(10) . . .
356(10) . . .
374(10) . . .
339(10) . . .
355(10) . . .
367(10) . . .
384(10) . . .
376(10) . . .
398(11) . . .
383(11) . . .
357(10) . . .
371(10) . . .
357(10) . . .
344(10) . . .
384(11) . . .
384(10) . . .
396(10) . . .
359(10) . . .
374(10) . . .
364(11) . . .
386(11) . . .
368(10) . . .
345(10) . . .
319(10) . . .
329(10) . . .
339(10) . . .
356(10) . . .
308(9) . . .
336(10) . . .
315(10) . . .
327(10) . . .
323(9) . . .
324(9) . . .
320(10) . . .
325(10) . . .
315(10) . . .
326(9) . . .
325(9) . . .
311(9) . . .
329(10) . . .
324(10) . . .
328(9) . . .
332(10) . . .
297(9) . . .
302(9) . . .
301(9) . . .
313(9) . . .
316(9) . . .
318(10) . . .
299(9) . . .
308(9) . . .
330(10) . . .
324(10) . . .
311(10) . . .
281(9) . . .
285(9) . . .
285(9) . . .
292(9) . . .
319(10) . . .
332(10) . . .
316(9) . . .
280(9) . . .
309(10) . . .
275(9) . . .
287(9) . . .
302(9) . . .
325(9) . . .
291(9) . . .
333(10) . . .
332(10) . . .
301(9) . . .
302(9) . . .
296(9) . . .
327(10) . . .
303(9) . . .
298(9) . . .
316(9) . . .
299(9) . . .
282(9) . . .
284(9) . . .
291(9) . . .
295(9) . . .
327(10) . . .
273(9) . . .
278(9) . . .
314(9) . . .
318(9) . . .
297(9) . . .
297(9) . . .
291(9) . . .
312(9) . . .
262(8) . . .
300(9) . . .
281(9) . . .
303(10) . . .
284(9) . . .
300(9) . . .
312(10) . . .
307(9) . . .
306(9) . . .
296(9) . . .
315(9) . . .
277(9) . . .
294(9) . . .
336(10) . . .
294(9) . . .
305(9) . . .
326(10) . . .
304(9) . . .
304(9) . . .
286(9) . . .
338(10) . . .
335(10) . . .
314(9) . . .
298(9) . . .
302(9) . . .
310(9) . . .
304(10) . . .
333(10) . . .
338(10) . . .
306(9) . . .
300(9) . . .
312(10) . . .
303(9) . . .
299(9) . . .
328(9) . . .
317(10) . . .
307(10) . . .
313(10) . . .
313(9) . . .
302(9) . . .
295(9) . . .
320(10) . . .
307(9) . . .
279(9) . . .
299(9) . . .
300(9) . . .
309(10) . . .
303(9) . . .
315(9) . . .
307(9) . . .
298(9) . . .
281(9) . . .
299(9) . . .
299(9) . . .
305(9) . . .
313(10) . . .
278(9) . . .
307(9) . . .
295(9) . . .
306(10) . . .
312(10) . . .
315(10) . . .
302(9) . . .
294(9) . . .
312(9) . . .
300(9) . . .
312(10) . . .
315(9) . . .
307(9) . . .
278(9) . . .
289(9) . . .
296(9) . . .
272(9) . . .
280(9) . . .
295(9) . . .
271(9) . . .
296(9) . . .
301(9) . . .
301(9) . . .
287(9) . . .
268(9) . . .
280(9) . . .
288(9) . . .
295(9) . . .
295(9) . . .
302(10) . . .
286(9) . . .
316(9) . . .
329(9) . . .
308(9) . . .
295(9) . . .
331(10) . . .
304(9) . . .
320(9) . . .
288(9) . . .
319(10) . . .
301(9) . . .
338(10) . . .
346(10) . . .
351(10) . . .
350(10) . . .
344(10) . . .
345(10) . . .
303(9) . . .
317(10) . . .
318(10) . . .
303(9) . . .
321(9) . . .
297(9) . . .
324(10) . . .
313(10) . . .
271(9) . . .
304(9) . . .
286(9) . . .
294(9) . . .
312(10) . . .
278(9) . . .
301(9) . . .
302(9) . . .
320(10) . . .
305(9) . . .
298(9) . . .
301(9) . . .
312(10) . . .
262(9) . . .
269(9) . . .
310(9) . . .
309(9) . . .
333(10) . . .
350(11) . . .
345(10) . . .
349(10) . . .
332(9) . . .
340(10) . . .
360(11) . . .
330(10) . . .
328(9) . . .
324(9) . . .
320(10) . . .
327(10) . . .
301(9) . . .
319(9) . . .
298(9) . . .
311(9) . . .
298(10) . . .
286(9) . . .
301(9) . . .
297(9) . . .
298(9) . . .
291(9) . . .
280(9) . . .
288(9) . . .
275(9) . . .
323(10) . . .
284(9) . . .
286(9) . . .
289(9) . . .
285(9) . . .
300(9) . . .
303(9) . . .
303(9) . . .
291(9) . . .
288(9) . . .
278(9) . . .
282(9) . . .
262(8) . . .
282(9) . . .
304(9) . . .
301(9) . . .
273(9) . . .
289(9) . . .
287(9) . . .
267(9) . . .
272(9) . . .
293(9) . . .
271(9) . . .
280(9) . . .
272(9) . . .
287(10) . . .
280(9) . . .
272(9) . . .
297(9) . . .
281(9) . . .
268(9) . . .
272(9) . . .
293(9) . . .
269(9) . . .
266(9) . . .
290(10) . . .
287(9) . . .
280(9) . . .
280(9) . . .
288(9) . . .
316(10) . . .
271(9) . . .
289(9) . . .
286(9) . . .
270(9) . . .
258(9) . . .
268(9) . . .
294(9) . . .
267(9) . . .
296(9) . . .
282(9) . . .
287(9) . . .
266(8) . . .
283(9) . . .
275(9) . . .
282(9) . . .
284(9) . . .
295(9) . . .
285(9) . . .
287(9) . . .
294(9) . . .
273(9) . . .
275(9) . . .
301(9) . . .
302(10) . . .
271(9) . . .
290(9) . . .
283(9) . . .
302(9) . . .
267(9) . . .
294(9) . . .
268(8) . . .
281(9) . . .
286(9) . . .
271(9) . . .
289(9) . . .
284(9) . . .
282(9) . . .
277(9) . . .
301(10) . . .
282(9) . . .
286(9) . . .
284(9) . . .
253(8) . . .
262(9) . . .
276(9) . . .
264(8) . . .
284(9) . . .
288(9) . . .
284(9) . . .
274(9) . . .
281(9) . . .
295(9) . . .
296(9) . . .
314(10) . . .
324(10) . . .
332(9) . . .
318(10) . . .
301(9) . . .
326(10) . . .
294(9) . . .
306(9) . . .
321(9) . . .
290(9) . . .
332(10) . . .
320(10) . . .
283(9) . . .
313(9) . . .
304(9) . . .
297(9) . . .
305(9) . . .
320(9) . . .
325(10) . . .
310(9) . . .
313(9) . . .
303(9) . . .
277(9) . . .
280(9) . . .
292(9) . . .
301(9) . . .
302(9) . . .
278(9) . . .
294(9) . . .
297(10) . . .
290(9) . . .
304(9) . . .
326(9) . . .
309(9) . . .
300(10) . . .
290(9) . . .
292(9) . . .
281(9) . . .
311(10) . . .
306(10) . . .
292(9) . . .
299(9) . . .
307(9) . . .
306(9) . . .
320(10) . . .
305(9) . . .
292(9) . . .
290(9) . . .
300(9) . . .
287(9) . . .
313(9) . . .
321(9) . . .
301(9) . . .
301(9) . . .
348(10) . . .
304(9) . . .
340(9) . . .
305(9) . . .
314(9) . . .
333(10) . . .
316(9) . . .
323(9) . . .
327(10) . . .
318(10) . . .
300(9) . . .
295(9) . . .
312(9) . . .
321(10) . . .
277(9) . . .
296(9) . . .
287(9) . . .
292(9) . . .
309(9) . . .
296(9) . . .
294(9) . . .
310(9) . . .
293(9) . . .
287(9) . . .
302(10) . . .
317(10) . . .
289(9) . . .
276(9) . . .
283(9) . . .
312(10) . . .
296(9) . . .
286(9) . . .
287(9) . . .
290(9) . . .
274(9) . . .
252(8) . . .
258(8) . . .
253(8) . . .
277(9) . . .
250(8) . . .
285(9) . . .
262(8) . . .
289(9) . . .
285(9) . . .
258(9) . . .
261(9) . . .
245(8) . . .
265(8) . . .
270(9) . . .
263(9) . . .
271(9) . . .
262(8) . . .
254(8) . . .
280(9) . . .
237(8) . . .
268(9) . . .
285(9) . . .
273(9) . . .
250(8) . . .
253(8) . . .
249(8) . . .
277(9) . . .
268(9) . . .
258(9) . . .
248(8) . . .
254(8) . . .
258(8) . . .
262(9) . . .
262(9) . . .
252(8) . . .
281(9) . . .
303(9) . . .
275(9) . . .
274(9) . . .
265(9) . . .
256(8) . . .
273(9) . . .
250(8) . . .
278(9) . . .
265(9) . . .
244(8) . . .
250(8) . . .
250(8) . . .
257(9) . . .
266(9) . . .
260(8) . . .
258(8) . . .
258(9) . . .
267(9) . . .
289(9) . . .
277(9) . . .
250(8) . . .
267(9) . . .
267(9) . . .
274(9) . . .
253(8) . . .
257(8) . . .
242(8) . . .
256(9) . . .
249(9) . . .
258(8) . . .
259(8) . . .
276(9) . . .
243(9) . . .
258(9) . . .
280(9) . . .
266(9) . . .
276(9) . . .
259(9) . . .
248(8) . . .
265(8) . . .
273(9) . . .
257(9) . . .
259(9) . . .
242(8) . . .
265(9) . . .
270(9) . . .
265(9) . . .
255(9) . . .
252(8) . . .
223(8) . . .
252(9) . . .
295(9) . . .
255(9) . . .
238(8) . . .
284(9) . . .
273(9) . . .
255(9) . . .
245(8) . . .
247(8) . . .
272(9) . . .
253(9) . . .
250(9) . . .
250(8) . . .
264(8) . . .
269(9) . . .
262(9) . . .
255(9) . . .
243(8) . . .
243(8) . . .
259(8) . . .
261(9) . . .
253(9) . . .
261(9) . . .
275(9) . . .
270(9) . . .
247(8) . . .
252(8) . . .
282(9) . . .
255(8) . . .
285(9) . . .
262(9) . . .
275(9) . . .
276(9) . . .
255(8) . . .
267(9) . . .
262(9) . . .
299(9) . . .
257(8) . . .
269(9) . . .
257(9) . . .
260(9) . . .
250(8) . . .
270(9) . . .
287(9) . . .
255(9) . . .
254(9) . . .
270(9) . . .
259(8) . . .
251(8) . . .
245(8) . . .
261(9) . . .
275(9) . . .
290(9) . . .
279(9) . . .
267(9) . . .
275(9) . . .
263(9) . . .
230(8) . . .
260(8) . . .
261(8) . . .
272(9) . . .
272(9) . . .
280(9) . . .
266(8) . . .
283(9) . . .
249(9) . . .
240(8) . . .
239(8) . . .
256(8) . . .
260(9) . . .
244(9) . . .
245(8) . . .
245(8) . . .
279(9) . . .
286(9) . . .
245(9) . . .
254(9) . . .
257(8) . . .
244(8) . . .
225(8) . . .
261(9) . . .
254(8) . . .
261(8) . . .
261(8) . . .
245(8) . . .
255(9) . . .
248(9) . . .
269(8) . . .
247(8) . . .
235(8) . . .
253(9) . . .
247(8) . . .
239(8) . . .
242(8) . . .
293(9) . . .
262(9) . . .
242(8) . . .
238(8) . . .
252(9) . . .
269(9) . . .
255(8) . . .
248(8) . . .
256(8) . . .
243(8) . . .
259(9) . . .
256(8) . . .
251(8) . . .
253(8) . . .
300(10) . . .
257(9) . . .
235(8) . . .
256(8) . . .
243(8) . . .
253(8) . . .
252(9) . . .
255(9) . . .
246(8) . . .
257(8) . . .
257(9) . . .
246(9) . . .
245(9) . . .
233(8) . . .
242(8) . . .
233(8) . . .
233(8) . . .
253(9) . . .
251(8) . . .
247(8) . . .
226(8) . . .
221(8) . . .
257(9) . . .
231(8) . . .
242(8) . . .
241(9) . . .
248(9) . . .
254(9) . . .
246(8) . . .
230(8) . . .
223(8) . . .
246(8) . . .
252(8) . . .
260(8) . . .
247(8) . . .
251(9) . . .
269(9) . . .
259(9) . . .
254(8) . . .
252(9) . . .
253(9) . . .
253(9) . . .
260(9) . . .
261(8) . . .
256(8) . . .
244(9) . . .
242(8) . . .
257(8) . . .
263(8) . . .
235(8) . . .
260(9) . . .
242(8) . . .
243(8) . . .
264(8) . . .
265(9) . . .
249(9) . . .
276(9) . . .
246(8) . . .
254(8) . . .
247(8) . . .
263(9) . . .
265(9) . . .
258(8) . . .
245(8) . . .
245(9) . . .
244(9) . . .
241(8) . . .
228(8) . . .
247(8) . . .
252(9) . . .
222(8) . . .
255(9) . . .
247(8) . . .
229(8) . . .
251(9) . . .
280(9) . . .
266(9) . . .
250(8) . . .
249(8) . . .
266(9) . . .
241(8) . . .
253(8) . . .
248(8) . . .
225(8) . . .
231(8) . . .
254(9) . . .
257(8) . . .
249(8) . . .
209(8) . . .
257(9) . . .
232(8) . . .
235(8) . . .
254(8) . . .
252(9) . . .
248(9) . . .
231(8) . . .
253(8) . . .
243(8) . . .
250(8) . . .
231(8) . . .
237(8) . . .
258(8) . . .
233(8) . . .
229(8) . . .
222(8) . . .
260(9) . . .
236(8) . . .
224(8) . . .
236(8) . . .
244(9) . . .
271(9) . . .
245(8) . . .
252(8) . . .
250(8) . . .
266(9) . . .
242(8) . . .
249(8) . . .
216(8) . . .
228(8) . . .
223(8) . . .
231(8) . . .
241(8) . . .
228(8) . . .
215(8) . . .
247(8) . . .
244(8) . . .
227(8) . . .
240(8) . . .
257(9) . . .
231(8) . . .
247(9) . . .
247(8) . . .
253(8) . . .
239(8) . . .
268(9) . . .
249(8) . . .
239(8) . . .
255(9) . . .
245(9) . . .
239(8) . . .
225(8) . . .
224(8) . . .
218(8) . . .
236(8) . . .
243(8) . . .
224(8) . . .
231(8) . . .
228(8) . . .
223(8) . . .
222(8) . . .
239(8) . . .
247(8) . . .
223(8) . . .
236(9) . . .
249(9) . . .
220(8) . . .
225(8) . . .
220(8) . . .
244(9) . . .
239(8) . . .
246(8) . . .
227(8) . . .
255(9) . . .
236(9) . . .
218(8) . . .
226(8) . . .
227(8) . . .
247(8) . . .
246(9) . . .
243(8) . . .
233(8) . . .
238(8) . . .
236(8) . . .
255(9) . . .
234(8) . . .
231(8) . . .
244(8) . . .
232(8) . . .
219(8) . . .
256(9) . . .
226(8) . . .
226(8) . . .
248(9) . . .
253(9) . . .
214(8) . . .
230(8) . . .
237(8) . . .
239(8) . . .
217(8) . . .
241(8) . . .
250(8) . . .
228(8) . . .
229(8) . . .
252(9) . . .
245(8) . . .
234(8) . . .
228(8) . . .
228(8) . . .
236(8) . . .
247(8) . . .
249(8) . . .
253(9) . . .
255(9) . . .
239(8) . . .
267(9) . . .
257(8) . . .
267(9) . . .
267(9) . . .
307(9) . . .
297(9) . . .
304(9) . . .
327(10) . . .
279(9) . . .
294(9) . . .
268(9) . . .
276(9) . . .
267(9) . . .
256(9) . . .
247(8) . . .
263(8) . . .
258(8) . . .
269(9) . . .
273(9) . . .
282(9) . . .
273(9) . . .
256(8) . . .
249(8) . . .
268(9) . . .
267(9) . . .
280(9) . . .
281(9) . . .
265(9) . . .
257(9) . . .
260(8) . . .
287(9) . . .
254(8) . . .
261(9) . . .
239(8) . . .
270(9) . . .
253(8) . . .
230(8) . . .
232(8) . . .
255(9) . . .
250(8) . . .
262(8) . . .
255(8) . . .
240(8) . . .
247(8) . . .
269(9) . . .
230(8) . . .
240(8) . . .
254(9) . . .
241(8) . . .
252(8) . . .
240(8) . . .
258(9) . . .
266(9) . . .
255(8) . . .
250(8) . . .
261(9) . . .
260(9) . . .
259(9) . . .
244(8) . . .
244(8) . . .
249(8) . . .
247(8) . . .
254(9) . . .
251(8) . . .
250(8) . . .
273(9) . . .
252(9) . . .
227(8) . . .
231(8) . . .
253(8) . . .
271(9) . . .
271(9) . . .
252(9) . . .
235(8) . . .
230(8) . . .
220(8) . . .
241(8) . . .
255(9) . . .
234(8) . . .
257(8) . . .
265(9) . . .
244(8) . . .
241(8) . . .
271(9) . . .
271(9) . . .
251(8) . . .
242(8) . . .
241(8) . . .
241(8) . . .
249(8) . . .
247(8) . . .
263(9) . . .
257(9) . . .
262(8) . . .
247(8) . . .
258(9) . . .
273(9) . . .
249(8) . . .
256(8) . . .
246(8) . . .
251(8) . . .
252(9) . . .
237(8) . . .
244(8) . . .
224(8) . . .
252(8) . . .
266(9) . . .
244(8) . . .
233(8) . . .
233(8) . . .
262(9) . . .
240(8) . . .
276(9) . . .
262(8) . . .
267(9) . . .
244(8) . . .
243(9) . . .
231(8) . . .
259(8) . . .
259(9) . . .
235(8) . . .
249(9) . . .
270(9) . . .
281(9) . . .
260(9) . . .
243(8) . . .
282(9) . . .
262(9) . . .
260(8) . . .
257(9) . . .
278(9) . . .
258(8) . . .
259(9) . . .
266(8) . . .
246(8) . . .
256(8) . . .
285(9) . . .
272(9) . . .
275(9) . . .
304(10) . . .
255(9) . . .
254(9) . . .
263(8) . . .
257(8) . . .
252(9) . . .
250(9) . . .
261(9) . . .
238(8) . . .
276(9) . . .
252(8) . . .
239(9) . . .
241(8) . . .
216(8) . . .
233(8) . . .
240(8) . . .
245(9) . . .
237(8) . . .
248(8) . . .
249(8) . . .
254(9) . . .
246(9) . . .
234(8) . . .
221(8) . . .
249(8) . . .
242(8) . . .
238(8) . . .
235(8) . . .
249(8) . . .
256(9) . . .
241(8) . . .
233(8) . . .
238(9) . . .
246(8) . . .
242(8) . . .
232(8) . . .
237(8) . . .
261(9) . . .
239(8) . . .
241(8) . . .
248(9) . . .
232(8) . . .
247(8) . . .
226(8) . . .
232(8) . . .
242(8) . . .
232(8) . . .
230(8) . . .
229(8) . . .
215(8) . . .
232(8) . . .
227(8) . . .
209(8) . . .
249(8) . . .
231(8) . . .
214(8) . . .
208(8) . . .
239(8) . . .
248(8) . . .
219(8) . . .
224(8) . . .
240(8) . . .
233(8) . . .
215(8) . . .
235(8) . . .
231(8) . . .
220(8) . . .
225(8) . . .
223(8) . . .
208(8) . . .
230(8) . . .
240(8) . . .
224(8) . . .
206(7) . . .
223(8) . . .
224(8) . . .
230(8) . . .
224(8) . . .
231(8) . . .
227(8) . . .
240(9) . . .
219(8) . . .
231(8) . . .
230(8) . . .
232(8) . . .
224(8) . . .
244(8) . . .
233(8) . . .
222(8) . . .
242(9) . . .
229(8) . . .
216(8) . . .
242(8) . . .
247(8) . . .
235(8) . . .
264(9) . . .
244(8) . . .
248(8) . . .
244(8) . . .
234(8) . . .
222(8) . . .
237(8) . . .
257(8) . . .
223(8) . . .
225(8) . . .
238(8) . . .
231(8) . . .
206(7) . . .
208(8) . . .
232(9) . . .
232(8) . . .
214(8) . . .
229(8) . . .
222(8) . . .
227(9) . . .
227(8) . . .
229(8) . . .
229(8) . . .
230(8) . . .
234(9) . . .
235(8) . . .
205(7) . . .
231(8) . . .
224(8) . . .
243(9) . . .
225(8) . . .
222(8) . . .
226(8) . . .
215(8) . . .
224(8) . . .
219(8) . . .
233(8) . . .
231(8) . . .
239(8) . . .
240(8) . . .
257(9) . . .
212(8) . . .
232(8) . . .
235(8) . . .
225(8) . . .
215(8) . . .
230(8) . . .
220(8) . . .
206(8) . . .
217(8) . . .
213(8) . . .
236(8) . . .
230(8) . . .
216(8) . . .
233(8) . . .
230(8) . . .
220(8) . . .
240(8) . . .
242(8) . . .
217(8) . . .
230(8) . . .
226(8) . . .
232(8) . . .
227(8) . . .
220(8) . . .
219(8) . . .
227(8) . . .
236(8) . . .
237(8) . . .
257(9) . . .
237(8) . . .
219(8) . . .
249(9) . . .
212(8) . . .
208(8) . . .
199(7) . . .
232(8) . . .
203(7) . . .
225(8) . . .
234(8) . . .
233(8) . . .
217(8) . . .
227(8) . . .
222(8) . . .
216(8) . . .
235(8) . . .
230(8) . . .
224(8) . . .
215(8) . . .
214(8) . . .
202(7) . . .
222(8) . . .
226(8) . . .
220(8) . . .
209(8) . . .
228(8) . . .
228(8) . . .
229(8) . . .
205(8) . . .
226(8) . . .
234(8) . . .
235(8) . . .
224(8) . . .
218(8) . . .
225(8) . . .
215(8) . . .
217(8) . . .
215(8) . . .
214(8) . . .
223(8) . . .
238(8) . . .
206(8) . . .
251(9) . . .
233(8) . . .
224(8) . . .
228(8) . . .
210(8) . . .
235(9) . . .
225(8) . . .
203(7) . . .
212(8) . . .
223(8) . . .
235(9) . . .
226(8) . . .
233(8) . . .
209(8) . . .
245(8) . . .
257(9) . . .
266(9) . . .
274(9) . . .
236(8) . . .
224(8) . . .
239(9) . . .
230(8) . . .
253(8) . . .
216(8) . . .
233(8) . . .
234(8) . . .
223(8) . . .
253(8) . . .
247(8) . . .
214(8) . . .
232(8) . . .
223(8) . . .
226(8) . . .
229(8) . . .
235(8) . . .
201(8) . . .
239(8) . . .
221(8) . . .
218(8) . . .
222(8) . . .
235(8) . . .
224(8) . . .
231(8) . . .
213(8) . . .
230(8) . . .
224(8) . . .
209(8) . . .
205(7) . . .
213(8) . . .
229(8) . . .
222(8) . . .
212(8) . . .
220(8) . . .
205(8) . . .
213(8) . . .
239(8) . . .
219(8) . . .
230(8) . . .
227(8) . . .
223(9) . . .
214(8) . . .
234(8) . . .
235(8) . . .
235(8) . . .
237(9) . . .
241(8) . . .
220(8) . . .
223(8) . . .
233(8) . . .
215(8) . . .
201(8) . . .
211(8) . . .
203(7) . . .
222(8) . . .
225(8) . . .
209(8) . . .
216(8) . . .
222(8) . . .
214(8) . . .
217(8) . . .
202(8) . . .
221(8) . . .
205(7) . . .
203(8) . . .
218(8) . . .
205(8) . . .
231(8) . . .
221(8) . . .
231(8) . . .
212(8) . . .
207(8) . . .
228(8) . . .
211(8) . . .
221(8) . . .
219(8) . . .
203(7) . . .
221(8) . . .
221(8) . . .
213(8) . . .
207(8) . . .
178(7) . . .
224(8) . . .
222(8) . . .
217(8) . . .
220(8) . . .
221(8) . . .
213(8) . . .
215(8) . . .
221(8) . . .
235(8) . . .
233(8) . . .
213(8) . . .
214(8) . . .
218(8) . . .
210(8) . . .
241(8) . . .
218(8) . . .
213(8) . . .
216(8) . . .
212(8) . . .
211(8) . . .
201(7) . . .
210(8) . . .
210(8) . . .
210(8) . . .
214(8) . . .
207(7) . . .
206(8) . . .
214(8) . . .
228(8) . . .
233(8) . . .
211(8) . . .
221(8) . . .
220(8) . . .
202(7) . . .
230(8) . . .
221(8) . . .
203(8) . . .
214(8) . . .
224(8) . . .
228(8) . . .
204(8) . . .
218(8) . . .
224(8) . . .
220(8) . . .
225(8) . . .
214(8) . . .
207(8) . . .
220(8) . . .
223(8) . . .
219(8) . . .
231(8) . . .
215(8) . . .
217(8) . . .
225(8) . . .
222(8) . . .
218(8) . . .
202(8) . . .
214(8) . . .
231(8) . . .
223(8) . . .
214(8) . . .
217(8) . . .
229(8) . . .
229(8) . . .
230(8) . . .
200(8) . . .
197(8) . . .
212(8) . . .
236(8) . . .
241(8) . . .
222(8) . . .
212(8) . . .
217(8) . . .
216(8) . . .
209(8) . . .
227(8) . . .
228(8) . . .
216(8) . . .
213(8) . . .
226(8) . . .
192(7) . . .
215(8) . . .
214(8) . . .
220(8) . . .
222(8) . . .
232(8) . . .
235(8) . . .
233(8) . . .
247(8) . . .
249(9) . . .
234(8) . . .
242(9) . . .
250(8) . . .
238(8) . . .
260(9) . . .
270(9) . . .
270(9) . . .
287(9) . . .
254(8) . . .
256(8) . . .
282(9) . . .
258(9) . . .
227(8) . . .
255(8) . . .
247(8) . . .
237(8) . . .
244(9) . . .
231(8) . . .
231(8) . . .
232(8) . . .
225(8) . . .
252(9) . . .
225(8) . . .
215(8) . . .
233(8) . . .
232(8) . . .
231(8) . . .
250(8) . . .
245(8) . . .
230(8) . . .
220(8) . . .
222(8) . . .
209(8) . . .
217(8) . . .
217(8) . . .
212(8) . . .
209(8) . . .
210(8) . . .
209(8) . . .
216(8) . . .
223(8) . . .
224(8) . . .
221(8) . . .
232(8) . . .
207(8) . . .
205(8) . . .
233(8) . . .
216(8) . . .
233(8) . . .
221(8) . . .
223(8) . . .
236(8) . . .
199(7) . . .
225(8) . . .
192(7) . . .
214(8) . . .
221(8) . . .
211(8) . . .
210(8) . . .
199(8) . . .
213(8) . . .
228(8) . . .
205(7) . . .
208(8) . . .
216(8) . . .
221(8) . . .
223(8) . . .
212(8) . . .
222(8) . . .
226(8) . . .
208(8) . . .
212(8) . . .
202(7) . . .
212(8) . . .
222(8) . . .
193(7) . . .
204(7) . . .
200(7) . . .
199(7) . . .
202(8) . . .
210(8) . . .
219(8) . . .
218(8) . . .
212(8) . . .
246(9) . . .
247(8) . . .
206(7) . . .
208(8) . . .
218(8) . . .
237(9) . . .
239(8) . . .
225(8) . . .
217(8) . . .
214(8) . . .
220(8) . . .
221(8) . . .
212(8) . . .
206(8) . . .
219(8) . . .
191(7) . . .
197(8) . . .
214(8) . . .
236(8) . . .
211(8) . . .
219(8) . . .
202(7) . . .
200(7) . . .
228(8) . . .
236(8) . . .
204(7) . . .
214(8) . . .
196(7) . . .
222(8) . . .
197(8) . . .
227(8) . . .
232(8) . . .
198(7) . . .
203(8) . . .
198(8) . . .
189(7) . . .
192(7) . . .
218(8) . . .
200(8) . . .
205(8) . . .
212(8) . . .
219(8) . . .
193(7) . . .
223(8) . . .
208(8) . . .
208(8) . . .
188(7) . . .
207(8) . . .
221(8) . . .
215(8) . . .
213(8) . . .
221(8) . . .
203(7) . . .
204(7) . . .
210(8) . . .
227(8) . . .
208(7) . . .
203(7) . . .
225(8) . . .
207(8) . . .
216(8) . . .
222(8) . . .
234(8) . . .
228(8) . . .
235(8) . . .
206(8) . . .
198(7) . . .
230(8) . . .
225(8) . . .
204(8) . . .
207(8) . . .
201(7) . . .
218(8) . . .
221(8) . . .
228(8) . . .
228(8) . . .
207(7) . . .
210(8) . . .
221(8) . . .
210(8) . . .
210(8) . . .
207(7) . . .
201(8) . . .
222(8) . . .
198(8) . . .
217(8) . . .
217(8) . . .
200(7) . . .
230(8) . . .
228(8) . . .
238(8) . . .
190(7) . . .
207(8) . . .
202(8) . . .
209(8) . . .
201(7) . . .
225(8) . . .
209(8) . . .
194(8) . . .
221(8) . . .
209(7) . . .
204(8) . . .
211(8) . . .
219(8) . . .
235(8) . . .
242(8) . . .
215(8) . . .
218(8) . . .
232(8) . . .
195(7) . . .
220(8) . . .
233(8) . . .
199(8) . . .
211(8) . . .
207(8) . . .
211(8) . . .
206(8) . . .
220(8) . . .
226(8) . . .
206(7) . . .
205(7) . . .
209(8) . . .
224(8) . . .
216(8) . . .
214(8) . . .
212(8) . . .
204(8) . . .
202(8) . . .
212(8) . . .
217(8) . . .
221(8) . . .
227(8) . . .
226(8) . . .
243(8) . . .
242(8) . . .
260(8) . . .
237(8) . . .
248(9) . . .
244(8) . . .
259(8) . . .
244(8) . . .
235(8) . . .
227(8) . . .
250(9) . . .
217(8) . . .
218(8) . . .
204(7) . . .
235(9) . . .
217(8) . . .
217(8) . . .
234(8) . . .
224(8) . . .
218(8) . . .
217(8) . . .
210(7) . . .
237(8) . . .
229(8) . . .
225(8) . . .
222(8) . . .
217(8) . . .
188(7) . . .
200(8) . . .
234(8) . . .
213(8) . . .
206(7) . . .
219(8) . . .
211(8) . . .
214(8) . . .
215(8) . . .
208(8) . . .
200(8) . . .
199(8) . . .
206(8) . . .
207(8) . . .
218(8) . . .
210(8) . . .
228(8) . . .
227(8) . . .
207(8) . . .
210(8) . . .
204(7) . . .
226(8) . . .
214(8) . . .
184(7) . . .
203(7) . . .
213(8) . . .
212(8) . . .
210(8) . . .
214(8) . . .
227(8) . . .
229(8) . . .
216(8) . . .
206(8) . . .
221(8) . . .
206(8) . . .
232(8) . . .
202(8) . . .
212(8) . . .
206(7) . . .
196(7) . . .
203(8) . . .
202(8) . . .
220(8) . . .
212(8) . . .
221(8) . . .
221(8) . . .
224(8) . . .
215(8) . . .
218(8) . . .
210(8) . . .
247(9) . . .
222(8) . . .
226(8) . . .
227(8) . . .
216(8) . . .
210(8) . . .
210(8) . . .
208(8) . . .
209(7) . . .
225(8) . . .
221(8) . . .
207(8) . . .
235(8) . . .
230(8) . . .
214(8) . . .
227(8) . . .
231(8) . . .
212(8) . . .
221(8) . . .
211(8) . . .
227(8) . . .
211(8) . . .
225(8) . . .
224(8) . . .
219(8) . . .
248(9) . . .
212(8) . . .
220(8) . . .
228(8) . . .
207(8) . . .
232(9) . . .
234(8) . . .
218(8) . . .
240(8) . . .
224(8) . . .
205(8) . . .
239(8) . . .
219(8) . . .
229(8) . . .
239(8) . . .
232(8) . . .
199(7) . . .
190(7) . . .
216(8) . . .
227(8) . . .
245(9) . . .
255(9) . . .
260(8) . . .
239(8) . . .
243(8) . . .
240(8) . . .
255(9) . . .
251(8) . . .
249(8) . . .
241(9) . . .
234(8) . . .
246(8) . . .
230(8) . . .
222(8) . . .
238(9) . . .
252(9) . . .
237(8) . . .
224(8) . . .
226(8) . . .
236(9) . . .
214(8) . . .
217(8) . . .
229(8) . . .
222(8) . . .
224(8) . . .
225(8) . . .
230(8) . . .
213(8) . . .
216(8) . . .
229(9) . . .
224(8) . . .
244(8) . . .
234(8) . . .
213(8) . . .
223(9) . . .
205(8) . . .
205(7) . . .
232(8) . . .
225(8) . . .
218(8) . . .
194(7) . . .
228(8) . . .
226(8) . . .
232(8) . . .
213(8) . . .
207(8) . . .
225(8) . . .
235(8) . . .
200(8) . . .
208(8) . . .
209(8) . . .
217(8) . . .
211(8) . . .
210(8) . . .
202(8) . . .
204(8) . . .
214(8) . . .
217(8) . . .
199(8) . . .
213(8) . . .
202(8) . . .
230(8) . . .
184(7) . . .
224(8) . . .
215(8) . . .
207(8) . . .
205(7) . . .
210(8) . . .
195(8) . . .
205(8) . . .
219(8) . . .
199(7) . . .
212(8) . . .
203(8) . . .
222(8) . . .
218(8) . . .
201(7) . . .
220(8) . . .
205(8) . . .
196(8) . . .
205(7) . . .
225(8) . . .
217(8) . . .
199(8) . . .
213(8) . . .
189(7) . . .
212(8) . . .
210(8) . . .
196(8) . . .
229(8) . . .
216(8) . . .
207(8) . . .
195(8) . . .
212(8) . . .
207(8) . . .
206(7) . . .
206(8) . . .
200(7) . . .
221(8) . . .
197(8) . . .
218(8) . . .
214(8) . . .
223(8) . . .
211(8) . . .
222(8) . . .
205(7) . . .
204(7) . . .
206(8) . . .
222(8) . . .
215(8) . . .
208(7) . . .
192(7) . . .
207(8) . . .
211(8) . . .
212(8) . . .
217(8) . . .
220(8) . . .
225(8) . . .
203(8) . . .
229(8) . . .
205(7) . . .
198(7) . . .
209(8) . . .
215(8) . . .
219(8) . . .
225(8) . . .
214(8) . . .
201(8) . . .
221(8) . . .
217(8) . . .
212(8) . . .
210(8) . . .
216(8) . . .
198(7) . . .
198(7) . . .
215(8) . . .
216(8) . . .
220(8) . . .
235(8) . . .
241(8) . . .
259(8) . . .
245(8) . . .
241(9) . . .
254(9) . . .
234(8) . . .
247(8) . . .
248(9) . . .
251(9) . . .
271(9) . . .
251(8) . . .
275(9) . . .
272(9) . . .
246(8) . . .
225(8) . . .
235(8) . . .
259(9) . . .
234(8) . . .
245(8) . . .
218(8) . . .
205(7) . . .
227(8) . . .
224(8) . . .
233(8) . . .
224(8) . . .
235(8) . . .
225(8) . . .
218(8) . . .
214(8) . . .
208(8) . . .
205(8) . . .
206(8) . . .
198(8) . . .
213(8) . . .
205(7) . . .
212(7) . . .
213(8) . . .
210(8) . . .
202(8) . . .
200(7) . . .
226(8) . . .
220(8) . . .
225(8) . . .
216(8) . . .
211(8) . . .
201(7) . . .
216(8) . . .
216(8) . . .
202(8) . . .
201(7) . . .
205(7) . . .
209(8) . . .
198(8) . . .
210(8) . . .
206(7) . . .
207(7) . . .
212(8) . . .
207(8) . . .
220(8) . . .
215(8) . . .
202(8) . . .
200(8) . . .
184(7) . . .
194(8) . . .
213(8) . . .
228(8) . . .
199(7) . . .
227(8) . . .
217(8) . . .
201(7) . . .
217(8) . . .
211(8) . . .
202(8) . . .
192(7) . . .
216(8) . . .
208(8) . . .
227(8) . . .
212(8) . . .
201(8) . . .
230(8) . . .
201(8) . . .
218(8) . . .
201(8) . . .
196(7) . . .
223(8) . . .
205(8) . . .
222(8) . . .
217(8) . . .
209(7) . . .
214(8) . . .
219(8) . . .
213(8) . . .
228(8) . . .
221(8) . . .
232(8) . . .
214(8) . . .
214(8) . . .
221(8) . . .
207(8) . . .
233(8) . . .
196(7) . . .
205(8) . . .
219(8) . . .
203(7) . . .
205(7) . . .
204(8) . . .
211(8) . . .
208(8) . . .
221(8) . . .
225(8) . . .
219(8) . . .
217(8) . . .
211(8) . . .
228(8) . . .
204(8) . . .
200(8) . . .
202(8) . . .
197(7) . . .
197(7) . . .
215(8) . . .
212(8) . . .
193(7) . . .
219(8) . . .
199(7) . . .
202(8) . . .
210(8) . . .
197(7) . . .
220(8) . . .
224(8) . . .
205(8) . . .
198(8) . . .
217(8) . . .
209(8) . . .
214(8) . . .
217(8) . . .
217(8) . . .
251(9) . . .
208(7) . . .
192(7) . . .
205(8) . . .
220(8) . . .
182(7) . . .
205(7) . . .
196(7) . . .
226(8) . . .
210(8) . . .
207(8) . . .
209(8) . . .
230(8) . . .
206(8) . . .
224(8) . . .
217(8) . . .
214(8) . . .
218(8) . . .
228(8) . . .
234(8) . . .
250(9) . . .
222(8) . . .
257(8) . . .
263(9) . . .
257(9) . . .
231(8) . . .
245(8) . . .
232(8) . . .
265(9) . . .
277(9) . . .
248(9) . . .
245(8) . . .
234(8) . . .
240(8) . . .
246(9) . . .
217(8) . . .
234(8) . . .
216(8) . . .
225(8) . . .
214(8) . . .
228(8) . . .
244(8) . . .
215(8) . . .
216(8) . . .
205(8) . . .
232(8) . . .
226(8) . . .
216(8) . . .
213(8) . . .
214(8) . . .
224(8) . . .
210(7) . . .
196(7) . . .
228(8) . . .
231(8) . . .
218(8) . . .
218(8) . . .
199(8) . . .
212(8) . . .
202(8) . . .
211(7) . . .
207(8) . . .
206(8) . . .
222(8) . . .
209(8) . . .
204(7) . . .
211(8) . . .
204(8) . . .
208(8) . . .
230(8) . . .
217(8) . . .
199(7) . . .
206(8) . . .
201(8) . . .
197(8) . . .
202(7) . . .
230(8) . . .
215(8) . . .
217(8) . . .
194(7) . . .
206(7) . . .
200(7) . . .
219(8) . . .
207(8) . . .
216(8) . . .
216(8) . . .
206(8) . . .
243(9) . . .
207(8) . . .
193(7) . . .
207(7) . . .
204(8) . . .
211(8) . . .
208(8) . . .
199(7) . . .
226(8) . . .
209(8) . . .
233(9) . . .
226(8) . . .
222(8) . . .
176(7) . . .
202(8) . . .
196(8) . . .
208(8) . . .
208(8) . . .
212(8) . . .
224(8) . . .
219(8) . . .
208(8) . . .
223(8) . . .
203(7) . . .
212(8) . . .
193(8) . . .
210(8) . . .
214(8) . . .
212(8) . . .
191(7) . . .
171(7) . . .
206(8) . . .
212(8) . . .
203(7) . . .
203(8) . . .
201(8) . . .
212(8) . . .
222(8) . . .
218(8) . . .
220(8) . . .
228(8) . . .
221(8) . . .
206(7) . . .
200(7) . . .
191(7) . . .
187(7) . . .
186(7) . . .
204(7) . . .
210(8) . . .
204(8) . . .
199(8) . . .
219(8) . . .
216(8) . . .
212(8) . . .
210(8) . . .
210(8) . . .
190(7) . . .
214(8) . . .
189(7) . . .
190(8) . . .
213(8) . . .
220(8) . . .
197(7) . . .
202(8) . . .
213(8) . . .
219(8) . . .
227(8) . . .
220(8) . . .
211(8) . . .
208(8) . . .
221(8) . . .
196(7) . . .
220(8) . . .
243(8) . . .
224(8) . . .
222(8) . . .
237(8) . . .
215(8) . . .
211(8) . . .
225(8) . . .
221(8) . . .
219(8) . . .
206(7) . . .
222(8) . . .
233(8) . . .
201(8) . . .
211(7) . . .
195(7) . . .
228(8) . . .
208(8) . . .
224(8) . . .
204(7) . . .
201(8) . . .
190(7) . . .
213(8) . . .
196(7) . . .
233(8) . . .
205(8) . . .
196(8) . . .
205(8) . . .
230(8) . . .
219(8) . . .
188(7) . . .
208(8) . . .
216(8) . . .
200(8) . . .
200(7) . . .
188(7) . . .
210(8) . . .
195(7) . . .
237(8) . . .
197(7) . . .
204(8) . . .
223(8) . . .
228(8) . . .
201(7) . . .
241(8) . . .
216(8) . . .
196(8) . . .
215(8) . . .
195(7) . . .
211(8) . . .
202(8) . . .
205(8) . . .
216(8) . . .
190(7) . . .
203(7) . . .
219(8) . . .
198(8) . . .
198(8) . . .
197(7) . . .
219(8) . . .
206(7) . . .
216(8) . . .
218(8) . . .
196(7) . . .
208(8) . . .
205(8) . . .
204(8) . . .
206(8) . . .
203(7) . . .
224(8) . . .
217(8) . . .
201(8) . . .
202(8) . . .
218(8) . . .
217(8) . . .
219(8) . . .
231(8) . . .
227(8) . . .
233(8) . . .
266(9) . . .
239(8) . . .
245(8) . . .
221(8) . . .
235(8) . . .
219(8) . . .
234(8) . . .
240(8) . . .
206(8) . . .
227(8) . . .
219(8) . . .
214(8) . . .
224(8) . . .
231(8) . . .
232(8) . . .
225(8) . . .
251(9) . . .
231(8) . . .
233(8) . . .
228(8) . . .
232(8) . . .
242(9) . . .
232(8) . . .
259(8) . . .
246(8) . . .
263(9) . . .
240(9) . . .
262(9) . . .
286(9) . . .
284(9) . . .
250(8) . . .
252(9) . . .
254(9) . . .
274(9) . . .
256(8) . . .
261(9) . . .
243(9) . . .
222(8) . . .
253(8) . . .
238(8) . . .
231(8) . . .
215(8) . . .
228(8) . . .
240(8) . . .
216(8) . . .
213(8) . . .
233(8) . . .
224(8) . . .
203(7) . . .
230(8) . . .
225(8) . . .
213(8) . . .
215(8) . . .
209(8) . . .
227(8) . . .
225(8) . . .
224(8) . . .
191(7) . . .
202(7) . . .
203(8) . . .
197(8) . . .
211(8) . . .
229(8) . . .
211(7) . . .
211(8) . . .
216(8) . . .
211(8) . . .
195(7) . . .
210(8) . . .
210(8) . . .
211(8) . . .
217(8) . . .
181(7) . . .
192(7) . . .
225(8) . . .
215(8) . . .
216(8) . . .
219(8) . . .
206(7) . . .
194(7) . . .
199(8) . . .
202(8) . . .
214(8) . . .
209(8) . . .
209(8) . . .
212(8) . . .
211(8) . . .
214(8) . . .
225(8) . . .
229(8) . . .
207(8) . . .
218(8) . . .
215(8) . . .
221(8) . . .
223(8) . . .
219(8) . . .
228(8) . . .
230(8) . . .
217(8) . . .
202(8) . . .
206(8) . . .
202(8) . . .
214(8) . . .
200(8) . . .
197(7) . . .
215(8) . . .
196(7) . . .
192(7) . . .
202(8) . . .
203(8) . . .
196(7) . . .
222(8) . . .
200(7) . . .
206(8) . . .
203(8) . . .
209(8) . . .
214(8) . . .
201(7) . . .
189(7) . . .
194(8) . . .
212(8) . . .
206(7) . . .
195(7) . . .
184(7) . . .
202(8) . . .
202(7) . . .
215(8) . . .
211(8) . . .
206(8) . . .
216(8) . . .
216(8) . . .
217(8) . . .
203(7) . . .
227(8) . . .
187(7) . . .
206(8) . . .
203(7) . . .
200(7) . . .
197(8) . . .
203(8) . . .
196(8) . . .
206(7) . . .
214(8) . . .
212(8) . . .
200(8) . . .
202(8) . . .
203(7) . . .
211(8) . . .
221(8) . . .
187(7) . . .
179(7) . . .
200(7) . . .
200(7) . . .
200(8) . . .
208(8) . . .
205(7) . . .
194(7) . . .
202(8) . . .
207(8) . . .
202(8) . . .
213(8) . . .
206(7) . . .
226(8) . . .
201(8) . . .
200(8) . . .
202(7) . . .
210(8) . . .
220(8) . . .
203(8) . . .
194(7) . . .
205(7) . . .
217(8) . . .
198(7) . . .
203(8) . . .
203(8) . . .
211(7) . . .
191(7) . . .
225(8) . . .
227(8) . . .
241(8) . . .
208(7) . . .
212(8) . . .
214(8) . . .
219(8) . . .
190(7) . . .
194(7) . . .
213(8) . . .
213(8) . . .
197(8) . . .
214(8) . . .
226(8) . . .
218(8) . . .
223(8) . . .
219(8) . . .
224(8) . . .
251(8) . . .
218(8) . . .
211(8) . . .
228(8) . . .
234(8) . . .
211(7) . . .
207(8) . . .
204(8) . . .
212(8) . . .
227(8) . . .
222(8) . . .
207(8) . . .
211(8) . . .
213(8) . . .
218(8) . . .
220(8) . . .
209(8) . . .
222(8) . . .
207(8) . . .
204(8) . . .
214(8) . . .
214(8) . . .
212(8) . . .
191(7) . . .
200(7) . . .
225(8) . . .
201(7) . . .
199(8) . . .
223(8) . . .
198(7) . . .
216(8) . . .
204(8) . . .
200(8) . . .
198(7) . . .
207(7) . . .
211(8) . . .
206(8) . . .
208(8) . . .
219(8) . . .
211(8) . . .
200(7) . . .
206(8) . . .
197(8) . . .
208(8) . . .
202(7) . . .
220(8) . . .
215(8) . . .
230(8) . . .
238(8) . . .
224(8) . . .
206(8) . . .
232(8) . . .
246(9) . . .
221(8) . . .
235(8) . . .
223(8) . . .
222(8) . . .
248(9) . . .
249(8) . . .
226(8) . . .
207(8) . . .
212(8) . . .
220(8) . . .
221(8) . . .
211(8) . . .
194(7) . . .
213(8) . . .
216(8) . . .
211(8) . . .
204(7) . . .
218(8) . . .
237(9) . . .
216(8) . . .
205(8) . . .
217(8) . . .
215(8) . . .
211(8) . . .
228(8) . . .
225(8) . . .
218(8) . . .
202(8) . . .
211(8) . . .
236(8) . . .
212(8) . . .
216(8) . . .
219(8) . . .
227(8) . . .
215(8) . . .
223(8) . . .
225(8) . . .
219(8) . . .
210(8) . . .
226(8) . . .
227(8) . . .
221(8) . . .
213(8) . . .
218(8) . . .
214(8) . . .
194(7) . . .
227(8) . . .
223(8) . . .
216(8) . . .
198(7) . . .
208(7) . . .
195(7) . . .
204(8) . . .
205(8) . . .
213(8) . . .
208(7) . . .
207(8) . . .
197(7) . . .
196(7) . . .
201(7) . . .
195(7) . . .
202(8) . . .
218(8) . . .
193(7) . . .
192(7) . . .
215(8) . . .
208(8) . . .
195(8) . . .
205(8) . . .
185(7) . . .
189(7) . . .
216(8) . . .
199(8) . . .
217(8) . . .
235(8) . . .
205(8) . . .
200(8) . . .
207(8) . . .
221(8) . . .
197(7) . . .
212(8) . . .
200(8) . . .
209(8) . . .
208(8) . . .
206(7) . . .
198(7) . . .
209(8) . . .
194(8) . . .
193(7) . . .
211(7) . . .
187(7) . . .
199(8) . . .
211(8) . . .
206(8) . . .
207(7) . . .
200(7) . . .
207(8) . . .
202(8) . . .
204(8) . . .
204(7) . . .
206(8) . . .
207(8) . . .
192(7) . . .
215(8) . . .
206(7) . . .
214(8) . . .
193(7) . . .
225(8) . . .
195(7) . . .
200(7) . . .
187(7) . . .
187(7) . . .
204(8) . . .
195(7) . . .
198(7) . . .
220(8) . . .
196(8) . . .
217(8) . . .
204(8) . . .
201(7) . . .
197(8) . . .
182(7) . . .
191(8) . . .
203(8) . . .
199(7) . . .
199(8) . . .
197(8) . . .
209(8) . . .
207(7) . . .
204(7) . . .
197(7) . . .
196(8) . . .
194(7) . . .
201(7) . . .
199(7) . . .
189(7) . . .
205(8) . . .
187(7) . . .
226(8) . . .
214(8) . . .
197(7) . . .
202(8) . . .
228(8) . . .
211(8) . . .
227(8) . . .
215(8) . . .
193(7) . . .
233(8) . . .
195(7) . . .
217(8) . . .
195(7) . . .
213(8) . . .
206(8) . . .
191(7) . . .
216(8) . . .
224(8) . . .
206(8) . . .
199(7) . . .
207(7) . . .
204(8) . . .
211(8) . . .
191(7) . . .
216(8) . . .
200(7) . . .
206(8) . . .
199(8) . . .
211(8) . . .
197(7) . . .
195(7) . . .
220(8) . . .
209(8) . . .
226(8) . . .
196(7) . . .
210(8) . . .
205(8) . . .
223(8) . . .
221(8) . . .
210(8) . . .
214(8) . . .
218(8) . . .
240(9) . . .
212(8) . . .
203(7) . . .
196(7) . . .
213(8) . . .
233(9) . . .
225(8) . . .
205(7) . . .
222(8) . . .
229(8) . . .
213(8) . . .
207(8) . . .
216(8) . . .
219(8) . . .
206(8) . . .
204(8) . . .
200(8) . . .
213(8) . . .
213(8) . . .
225(8) . . .
206(8) . . .
235(8) . . .
222(8) . . .
211(8) . . .
194(7) . . .
196(7) . . .
213(8) . . .
200(7) . . .
179(7) . . .
202(8) . . .
222(8) . . .
212(8) . . .
209(7) . . .
189(7) . . .
231(8) . . .
224(8) . . .
230(8) . . .
216(8) . . .
203(8) . . .
202(8) . . .
198(8) . . .
198(7) . . .
224(8) . . .
206(8) . . .
206(8) . . .
185(7) . . .
193(7) . . .
219(8) . . .
204(7) . . .
221(8) . . .
236(8) . . .
206(7) . . .
207(7) . . .
196(7) . . .
207(8) . . .
203(8) . . .
203(7) . . .
214(8) . . .
198(8) . . .
205(8) . . .
207(8) . . .
217(8) . . .
211(8) . . .
203(8) . . .
208(8) . . .
215(8) . . .
201(7) . . .
209(8) . . .
202(8) . . .
208(8) . . .
189(8) . . .
188(7) . . .
194(7) . . .
223(8) . . .
200(8) . . .
221(8) . . .
201(7) . . .
191(8) . . .
210(8) . . .
205(8) . . .
217(8) . . .
215(8) . . .
223(8) . . .
229(8) . . .
201(7) . . .
208(8) . . .
196(7) . . .
200(8) . . .
203(8) . . .
203(8) . . .
212(7) . . .
215(8) . . .
213(8) . . .
203(8) . . .
202(8) . . .
208(8) . . .
201(7) . . .
211(8) . . .
205(8) . . .
215(8) . . .
215(8) . . .
182(7) . . .
179(7) . . .
204(8) . . .
192(7) . . .
199(7) . . .
203(7) . . .
208(8) . . .
197(8) . . .
207(8) . . .
209(8) . . .
224(8) . . .
199(8) . . .
191(7) . . .
214(8) . . .
208(7) . . .
207(8) . . .
187(7) . . .
195(8) . . .
203(8) . . .
182(7) . . .
176(7) . . .
197(8) . . .
191(8) . . .
207(8) . . .
210(7) . . .
202(8) . . .
200(8) . . .
198(7) . . .
205(8) . . .
218(8) . . .
210(8) . . .
209(8) . . .
210(8) . . .
198(7) . . .
214(8) . . .
206(8) . . .
228(8) . . .
216(8) . . .
217(8) . . .
215(8) . . .
212(8) . . .
206(8) . . .
219(8) . . .
207(8) . . .
209(8) . . .
206(8) . . .
215(8) . . .
220(8) . . .
222(8) . . .
177(7) . . .
205(8) . . .
194(8) . . .
204(8) . . .
204(7) . . .
201(7) . . .
197(7) . . .
214(8) . . .
207(8) . . .
212(8) . . .
229(8) . . .
195(7) . . .
205(8) . . .
209(8) . . .
199(7) . . .
194(7) . . .
206(8) . . .
200(8) . . .
198(7) . . .
202(7) . . .
197(7) . . .
191(7) . . .
202(8) . . .
196(7) . . .
211(8) . . .
205(8) . . .
212(8) . . .
203(8) . . .
212(8) . . .
223(8) . . .
206(8) . . .
197(8) . . .
224(8) . . .
206(7) . . .
210(8) . . .
194(7) . . .
202(8) . . .
215(8) . . .
184(7) . . .
201(7) . . .
202(8) . . .
198(8) . . .
193(8) . . .
196(7) . . .
190(7) . . .
202(8) . . .
199(8) . . .
181(7) . . .
173(7) . . .
200(7) . . .
181(7) . . .
206(8) . . .
195(7) . . .
212(8) . . .
229(8) . . .
201(8) . . .
200(8) . . .
203(8) . . .
209(7) . . .
188(7) . . .
208(8) . . .
209(8) . . .
227(8) . . .
208(7) . . .
222(8) . . .
202(8) . . .
188(7) . . .
192(7) . . .
203(7) . . .
210(8) . . .
212(8) . . .
204(8) . . .
199(7) . . .
213(8) . . .
219(8) . . .
200(8) . . .
197(7) . . .
200(7) . . .
189(7) . . .
208(8) . . .
214(8) . . .
211(8) . . .
196(7) . . .
188(7) . . .
213(8) . . .
195(8) . . .
203(8) . . .
196(7) . . .
211(8) . . .
178(7) . . .
201(8) . . .
187(7) . . .
200(7) . . .
205(7) . . .
200(8) . . .
177(7) . . .
195(8) . . .
218(8) . . .
211(8) . . .
184(7) . . .
182(7) . . .
207(8) . . .
194(7) . . .
194(7) . . .
197(7) . . .
213(8) . . .
198(8) . . .
193(7) . . .
213(8) . . .
191(7) . . .
215(8) . . .
202(8) . . .
202(7) . . .
210(8) . . .
224(8) . . .
201(8) . . .
201(8) . . .
214(8) . . .
208(8) . . .
190(7) . . .
200(8) . . .
214(8) . . .
217(8) . . .
227(8) . . .
209(8) . . .
205(8) . . .
194(7) . . .
227(8) . . .
210(8) . . .
220(8) . . .
219(8) . . .
199(7) . . .
193(7) . . .
193(8) . . .
194(8) . . .
208(8) . . .
204(7) . . .
206(7) . . .
225(8) . . .
184(7) . . .
192(7) . . .
200(7) . . .
189(7) . . .
190(7) . . .
203(8) . . .
195(7) . . .
191(7) . . .
203(8) . . .
201(8) . . .
217(8) . . .
244(8) . . .
202(7) . . .
184(7) . . .
186(7) . . .
214(8) . . .
209(8) . . .
205(7) . . .
207(8) . . .
203(8) . . .
205(8) . . .
201(8) . . .
204(7) . . .
222(8) . . .
194(8) . . .
187(7) . . .
196(7) . . .
191(7) . . .
196(7) . . .
211(8) . . .
182(7) . . .
177(7) . . .
184(7) . . .
183(7) . . .
199(8) . . .
198(7) . . .
221(8) . . .
194(7) . . .
185(7) . . .
195(8) . . .
228(8) . . .
200(7) . . .
213(8) . . .
190(7) . . .
205(8) . . .
194(7) . . .
209(8) . . .
199(7) . . .
187(7) . . .
206(8) . . .
197(8) . . .
193(7) . . .
218(8) . . .
191(7) . . .
205(8) . . .
205(8) . . .
201(8) . . .
212(8) . . .
187(7) . . .
197(8) . . .
203(8) . . .
184(7) . . .
202(7) . . .
194(7) . . .
175(7) . . .
183(7) . . .
177(7) . . .
177(7) . . .
186(7) . . .
201(8) . . .
198(7) . . .
193(7) . . .
187(7) . . .
197(7) . . .
171(7) . . .
189(7) . . .
210(7) . . .
185(7) . . .
202(8) . . .
199(8) . . .
203(8) . . .
204(7) . . .
185(7) . . .
176(7) . . .
213(8) . . .
181(7) . . .
189(7) . . .
183(7) . . .
190(7) . . .
188(7) . . .
187(7) . . .
176(7) . . .
208(8) . . .
192(8) . . .
187(7) . . .
182(7) . . .
189(7) . . .
189(7) . . .
195(8) . . .
211(8) . . .
215(8) . . .
192(7) . . .
193(7) . . .
208(8) . . .
211(8) . . .
219(8) . . .
203(7) . . .
179(7) . . .
168(7) . . .
196(7) . . .
182(7) . . .
189(7) . . .
212(8) . . .
192(8) . . .
205(8) . . .
190(7) . . .
189(7) . . .
176(7) . . .
171(7) . . .
188(7) . . .
192(7) . . .
181(7) . . .
186(7) . . .
177(7) . . .
176(7) . . .
194(7) . . .
178(7) . . .
198(8) . . .
193(8) . . .
198(8) . . .
206(7) . . .
201(7) . . .
206(8) . . .
197(8) . . .
211(8) . . .
198(7) . . .
193(8) . . .
195(8) . . .
196(7) . . .
200(7) . . .
197(7) . . .
169(7) . . .
211(8) . . .
186(7) . . .
177(7) . . .
202(7) . . .
184(7) . . .
190(8) . . .
189(7) . . .
184(7) . . .
169(7) . . .
183(7) . . .
193(8) . . .
181(7) . . .
187(7) . . .
199(7) . . .
192(7) . . .
195(8) . . .
210(8) . . .
178(7) . . .
177(7) . . .
176(7) . . .
212(8) . . .
195(7) . . .
206(7) . . .
200(7) . . .
196(7) . . .
199(8) . . .
176(7) . . .
178(7) . . .
179(7) . . .
184(7) . . .
184(8) . . .
177(7) . . .
196(7) . . .
190(7) . . .
186(7) . . .
174(7) . . .
182(7) . . .
206(7) . . .
183(7) . . .
185(7) . . .
174(7) . . .
200(8) . . .
205(7) . . .
202(8) . . .
178(7) . . .
198(8) . . .
225(8) . . .
166(7) . . .
193(7) . . .
198(8) . . .
177(7) . . .
220(8) . . .
207(7) . . .
214(8) . . .
195(8) . . .
200(8) . . .
189(7) . . .
189(7) . . .
193(7) . . .
180(7) . . .
199(8) . . .
197(7) . . .
190(7) . . .
173(7) . . .
188(8) . . .
193(8) . . .
197(7) . . .
181(7) . . .
187(7) . . .
188(8) . . .
191(8) . . .
186(7) . . .
174(7) . . .
203(8) . . .
193(8) . . .
199(8) . . .
189(7) . . .
180(7) . . .
182(7) . . .
198(8) . . .
209(8) . . .
192(7) . . .
200(7) . . .
213(8) . . .
197(8) . . .
196(7) . . .
183(7) . . .
184(7) . . .
177(7) . . .
190(7) . . .
204(8) . . .
198(7) . . .
182(7) . . .
198(7) . . .
205(8) . . .
203(8) . . .
195(7) . . .
203(8) . . .
193(8) . . .
191(8) . . .
197(8) . . .
206(7) . . .
199(7) . . .
196(8) . . .
180(7) . . .
202(7) . . .
183(7) . . .
189(7) . . .
194(8) . . .
189(7) . . .
205(7) . . .
179(7) . . .
175(7) . . .
195(8) . . .
194(7) . . .
188(7) . . .
202(7) . . .
194(7) . . .
198(8) . . .
197(7) . . .
203(7) . . .
206(8) . . .
184(7) . . .
182(7) . . .
176(7) . . .
189(7) . . .
186(7) . . .
204(8) . . .
192(8) . . .
187(7) . . .
198(7) . . .
192(7) . . .
197(8) . . .
186(7) . . .
210(8) . . .
180(7) . . .
192(7) . . .
201(8) . . .
189(7) . . .
208(8) . . .
202(7) . . .
204(8) . . .
200(8) . . .
184(7) . . .
199(8) . . .
214(8) . . .
197(7) . . .
213(8) . . .
228(8) . . .
211(8) . . .
200(7) . . .
184(7) . . .
216(8) . . .
191(8) . . .
196(7) . . .
194(7) . . .
204(8) . . .
188(8) . . .
174(7) . . .
194(7) . . .
207(7) . . .
191(7) . . .
207(8) . . .
206(8) . . .
212(8) . . .
196(7) . . .
186(7) . . .
199(8) . . .
184(7) . . .
177(7) . . .
209(8) . . .
208(8) . . .
201(8) . . .
188(7) . . .
187(7) . . .
194(7) . . .
195(7) . . .
176(7) . . .
198(8) . . .
195(7) . . .
210(8) . . .
189(7) . . .
177(7) . . .
209(8) . . .
204(7) . . .
174(7) . . .
188(7) . . .
224(8) . . .
209(8) . . .
186(7) . . .
216(8) . . .
205(8) . . .
189(7) . . .
214(8) . . .
191(7) . . .
199(8) . . .
196(7) . . .
209(8) . . .
196(7) . . .
191(7) . . .
199(8) . . .
196(8) . . .
198(8) . . .
222(8) . . .
207(7) . . .
191(7) . . .
216(8) . . .
206(8) . . .
197(7) . . .
205(7) . . .
216(8) . . .
225(8) . . .
192(7) . . .
221(8) . . .
209(8) . . .
203(8) . . .
199(8) . . .
197(7) . . .
200(7) . . .
194(7) . . .
184(7) . . .
186(7) . . .
197(7) . . .
184(7) . . .
198(7) . . .
211(8) . . .
193(8) . . .
205(8) . . .
200(7) . . .
204(8) . . .
201(8) . . .
196(8) . . .
200(8) . . .
196(7) . . .
204(7) . . .
200(7) . . .
214(8) . . .
207(8) . . .
190(7) . . .
182(7) . . .
187(7) . . .
185(8) . . .
220(8) . . .
209(8) . . .
193(7) . . .
201(8) . . .
205(8) . . .
192(7) . . .
192(7) . . .
199(8) . . .
199(8) . . .
202(8) . . .
200(7) . . .
201(7) . . .
218(8) . . .
195(8) . . .
210(8) . . .
202(7) . . .
213(8) . . .
225(8) . . .
195(8) . . .
187(7) . . .
168(7) . . .
193(7) . . .
200(8) . . .
194(8) . . .
195(8) . . .
198(7) . . .
231(8) . . .
205(8) . . .
192(8) . . .
219(8) . . .
192(7) . . .
211(8) . . .
171(7) . . .
165(7) . . .
185(7) . . .
208(7) . . .
207(8) . . .
187(7) . . .
189(8) . . .
194(8) . . .
182(7) . . .
203(7) . . .
201(7) . . .
199(8) . . .
200(8) . . .
201(7) . . .
191(7) . . .
188(7) . . .
197(8) . . .
204(8) . . .
196(7) . . .
200(7) . . .
185(7) . . .
170(7) . . .
207(8) . . .
176(7) . . .
192(7) . . .
191(7) . . .
181(7) . . .
178(7) . . .
199(7) . . .
202(8) . . .
172(7) . . .
191(7) . . .
201(8) . . .
171(7) . . .
191(7) . . .
205(8) . . .
201(7) . . .
195(7) . . .
196(7) . . .
202(8) . . .
175(7) . . .
202(8) . . .
169(7) . . .
186(7) . . .
179(7) . . .
200(8) . . .
201(7) . . .
202(7) . . .
217(8) . . .
191(7) . . .
185(8) . . .
184(7) . . .
195(7) . . .
196(7) . . .
185(7) . . .
188(8) . . .
184(7) . . .
189(7) . . .
201(7) . . .
177(7) . . .
178(8) . . .
184(7) . . .
193(7) . . .
202(7) . . .
185(7) . . .
203(8) . . .
205(8) . . .
195(7) . . .
193(7) . . .
163(7) . . .
185(7) . . .
183(7) . . .
199(7) . . .
188(7) . . .
194(8) . . .
174(7) . . .
188(7) . . .
208(7) . . .
212(8) . . .
186(7) . . .
208(8) . . .
203(8) . . .
181(7) . . .
187(8) . . .
207(8) . . .
201(7) . . .
205(8) . . .
175(7) . . .
189(7) . . .
190(8) . . .
180(7) . . .
202(7) . . .
194(7) . . .
187(7) . . .
192(8) . . .
197(8) . . .
186(7) . . .
194(7) . . .
186(7) . . .
187(7) . . .
189(7) . . .
192(7) . . .
195(7) . . .
200(7) . . .
213(8) . . .
221(8) . . .
190(7) . . .
186(7) . . .
193(7) . . .
197(8) . . .
200(8) . . .
190(7) . . .
192(7) . . .
207(8) . . .
203(8) . . .
187(7) . . .
176(7) . . .
198(7) . . .
211(8) . . .
208(8) . . .
220(8) . . .
207(7) . . .
201(8) . . .
202(8) . . .
219(8) . . .
209(8) . . .
215(8) . . .
190(7) . . .
211(8) . . .
208(8) . . .
214(8) . . .
215(8) . . .
206(8) . . .
211(8) . . .
216(8) . . .
209(8) . . .
209(7) . . .
194(7) . . .
197(8) . . .
219(8) . . .
202(7) . . .
206(8) . . .
199(8) . . .
184(8) . . .
189(7) . . .
207(8) . . .
187(7) . . .
196(7) . . .
185(8) . . .
196(7) . . .
186(7) . . .
199(7) . . .
194(8) . . .
185(7) . . .
200(8) . . .
197(7) . . .
190(7) . . .
199(8) . . .
206(8) . . .
198(7) . . .
208(8) . . .
211(8) . . .
186(7) . . .
215(8) . . .
201(8) . . .
200(7) . . .
198(7) . . .
207(8) . . .
206(8) . . .
181(7) . . .
201(7) . . .
202(8) . . .
176(7) . . .
201(8) . . .
188(7) . . .
181(7) . . .
200(8) . . .
194(8) . . .
222(8) . . .
177(7) . . .
181(7) . . .
182(7) . . .
193(8) . . .
203(8) . . .
179(7) . . .
202(7) . . .
218(8) . . .
200(8) . . .
193(7) . . .
203(7) . . .
200(7) . . .
184(7) . . .
180(7) . . .
192(7) . . .
191(7) . . .
199(7) . . .
201(8) . . .
197(8) . . .
196(7) . . .
176(7) . . .
200(7) . . .
174(7) . . .
194(8) . . .
184(7) . . .
186(7) . . .
179(7) . . .
200(8) . . .
203(8) . . .
200(8) . . .
162(7) . . .
189(7) . . .
204(8) . . .
203(8) . . .
179(7) . . .
193(7) . . .
196(7) . . .
207(8) . . .
211(8) . . .
183(7) . . .
200(7) . . .
183(7) . . .
172(7) . . .
185(7) . . .
184(7) . . .
161(7) . . .
186(7) . . .
216(8) . . .
202(8) . . .
188(7) . . .
189(7) . . .
198(8) . . .
191(7) . . .
204(8) . . .
193(7) . . .
211(7) . . .
178(7) . . .
178(7) . . .
181(7) . . .
183(7) . . .
183(7) . . .
170(7) . . .
193(8) . . .
176(7) . . .
184(7) . . .
183(7) . . .
187(7) . . .
166(7) . . .
177(7) . . .
194(7) . . .
197(7) . . .
207(8) . . .
190(8) . . .
185(7) . . .
202(7) . . .
188(7) . . .
197(8) . . .
175(7) . . .
171(7) . . .
199(7) . . .
184(7) . . .
193(8) . . .
210(8) . . .
182(7) . . .
195(7) . . .
189(7) . . .
171(7) . . .
195(8) . . .
186(7) . . .
173(7) . . .
168(7) . . .
171(7) . . .
197(8) . . .
191(7) . . .
201(7) . . .
160(7) . . .
188(8) . . .
188(7) . . .
185(7) . . .
184(7) . . .
182(7) . . .
199(8) . . .
184(7) . . .
198(7) . . .
194(7) . . .
179(7) . . .
157(7) . . .
180(7) . . .
177(7) . . .
185(7) . . .
189(7) . . .
177(8) . . .
165(7) . . .
171(7) . . .
184(7) . . .
190(8) . . .
173(7) . . .
187(7) . . .
182(7) . . .
185(7) . . .
193(8) . . .
179(7) . . .
181(7) . . .
198(7) . . .
193(7) . . .
211(8) . . .
189(8) . . .
180(7) . . .
185(7) . . .
175(7) . . .
163(7) . . .
167(7) . . .
187(8) . . .
177(7) . . .
194(7) . . .
200(8) . . .
198(8) . . .
180(7) . . .
187(7) . . .
186(7) . . .
176(7) . . .
198(8) . . .
200(7) . . .
192(7) . . .
196(7) . . .
183(7) . . .
181(7) . . .
189(7) . . .
190(7) . . .
183(7) . . .
188(7) . . .
203(8) . . .
193(7) . . .
188(7) . . .
187(7) . . .
197(8) . . .
202(8) . . .
195(7) . . .
196(7) . . .
191(7) . . .
208(8) . . .
204(8) . . .
190(7) . . .
190(7) . . .
199(8) . . .
204(8) . . .
207(8) . . .
184(7) . . .
181(7) . . .
180(7) . . .
175(7) . . .
174(7) . . .
192(7) . . .
197(7) . . .
185(7) . . .
186(8) . . .
177(7) . . .
170(7) . . .
176(7) . . .
179(7) . . .
196(8) . . .
188(7) . . .
189(7) . . .
200(8) . . .
199(8) . . .
188(8) . . .
204(8) . . .
185(7) . . .
183(7) . . .
189(7) . . .
196(7) . . .
195(7) . . .
198(7) . . .
195(7) . . .
197(8) . . .
189(7) . . .
187(7) . . .
180(7) . . .
174(7) . . .
191(8) . . .
201(8) . . .
185(7) . . .
187(7) . . .
194(8) . . .
187(7) . . .
200(7) . . .
197(7) . . .
190(7) . . .
197(7) . . .
174(7) . . .
177(7) . . .
188(7) . . .
200(7) . . .
199(7) . . .
188(7) . . .
198(8) . . .
201(7) . . .
182(7) . . .
189(7) . . .
193(8) . . .
187(7) . . .
173(7) . . .
190(7) . . .
172(7) . . .
167(7) . . .
190(8) . . .
172(7) . . .
162(7) . . .
174(7) . . .
196(8) . . .
170(7) . . .
182(7) . . .
187(7) . . .
185(7) . . .
174(7) . . .
162(7) . . .
182(7) . . .
176(7) . . .
191(7) . . .
177(7) . . .
183(7) . . .
187(7) . . .
178(7) . . .
181(7) . . .
203(8) . . .
191(7) . . .
173(7) . . .
181(7) . . .
174(7) . . .
204(8) . . .
187(7) . . .
181(7) . . .
192(8) . . .
194(8) . . .
184(7) . . .
194(7) . . .
210(8) . . .
170(7) . . .
173(7) . . .
187(7) . . .
197(7) . . .
185(7) . . .
197(8) . . .
177(7) . . .
183(7) . . .
188(7) . . .
174(7) . . .
177(7) . . .
172(7) . . .
194(7) . . .
188(7) . . .
195(7) . . .
175(7) . . .
191(8) . . .
194(7) . . .
178(7) . . .
171(7) . . .
191(7) . . .
185(8) . . .
173(7) . . .
192(7) . . .
204(7) . . .
184(7) . . .
193(8) . . .
177(7) . . .
192(7) . . .
177(7) . . .
182(7) . . .
183(7) . . .
192(7) . . .
191(7) . . .
193(7) . . .
170(7) . . .
184(7) . . .
200(8) . . .
183(7) . . .
182(7) . . .
187(7) . . .
194(7) . . .
194(7) . . .
193(7) . . .
191(7) . . .
194(8) . . .
173(7) . . .
186(7) . . .
209(8) . . .
186(7) . . .
177(7) . . .
186(7) . . .
181(7) . . .
188(7) . . .
200(8) . . .
189(8) . . .
195(7) . . .
180(7) . . .
188(7) . . .
184(7) . . .
175(7) . . .
165(7) . . .
201(7) . . .
191(7) . . .
172(7) . . .
185(8) . . .
182(7) . . .
181(7) . . .
184(7) . . .
175(7) . . .
183(8) . . .
183(7) . . .
201(7) . . .
196(7) . . .
186(7) . . .
154(7) . . .
197(7) . . .
204(7) . . .
181(7) . . .
204(8) . . .
178(7) . . .
183(7) . . .
175(7) . . .
190(7) . . .
163(7) . . .
190(8) . . .
194(8) . . .
182(7) . . .
195(7) . . .
191(8) . . .
177(7) . . .
187(7) . . .
184(7) . . .
194(7) . . .
170(7) . . .
185(7) . . .
188(7) . . .
193(7) . . .
183(7) . . .
190(8) . . .
184(7) . . .
196(7) . . .
189(7) . . .
195(7) . . .
206(8) . . .
204(8) . . .
188(7) . . .
194(7) . . .
193(7) . . .
164(7) . . .
184(7) . . .
203(7) . . .
203(7) . . .
184(7) . . .
170(7) . . .
193(7) . . .
203(7) . . .
188(7) . . .
172(7) . . .
190(8) . . .
189(7) . . .
191(7) . . .
189(7) . . .
188(7) . . .
185(7) . . .
180(7) . . .
197(7) . . .
190(7) . . .
182(7) . . .
176(7) . . .
166(7) . . .
172(7) . . .
169(7) . . .
174(7) . . .
194(8) . . .
201(7) . . .
191(7) . . .
194(7) . . .
175(7) . . .
167(7) . . .
179(7) . . .
181(7) . . .
186(7) . . .
197(8) . . .
185(7) . . .
196(7) . . .
174(7) . . .
198(8) . . .
185(7) . . .
200(8) . . .
179(7) . . .
175(7) . . .
179(7) . . .
168(7) . . .
180(7) . . .
173(7) . . .
196(7) . . .
189(7) . . .
192(8) . . .
185(7) . . .
162(7) . . .
168(7) . . .
176(7) . . .
172(7) . . .
177(7) . . .
198(7) . . .
189(7) . . .
192(7) . . .
188(8) . . .
184(7) . . .
217(8) . . .
199(7) . . .
194(7) . . .
192(7) . . .
187(7) . . .
201(7) . . .
209(8) . . .
210(8) . . .
196(8) . . .
180(7) . . .
191(7) . . .
179(7) . . .
205(8) . . .
198(8) . . .
215(8) . . .
213(8) . . .
199(8) . . .
209(8) . . .
207(8) . . .
205(7) . . .
209(8) . . .
208(8) . . .
208(8) . . .
189(7) . . .
179(7) . . .
175(7) . . .
190(7) . . .
166(7) . . .
188(7) . . .
199(8) . . .
181(7) . . .
180(7) . . .
207(8) . . .
181(7) . . .
181(7) . . .
198(7) . . .
193(8) . . .
179(7) . . .
185(7) . . .
188(7) . . .
194(7) . . .
177(7) . . .
193(8) . . .
181(7) . . .
180(7) . . .
201(8) . . .
185(7) . . .
195(8) . . .
177(7) . . .
165(7) . . .
189(7) . . .
187(7) . . .
189(8) . . .
177(7) . . .
188(7) . . .
191(7) . . .
185(7) . . .
184(7) . . .
201(8) . . .
178(7) . . .
180(7) . . .
192(8) . . .
190(8) . . .
202(8) . . .
169(7) . . .
196(7) . . .
195(8) . . .
225(8) . . .
212(8) . . .
206(7) . . .
198(8) . . .
183(7) . . .
212(8) . . .
187(7) . . .
208(8) . . .
188(7) . . .
182(7) . . .
198(8) . . .
181(7) . . .
188(7) . . .
188(7) . . .
203(8) . . .
207(8) . . .
183(7) . . .
215(8) . . .
179(7) . . .
192(8) . . .
174(7) . . .
188(7) . . .
177(7) . . .
180(7) . . .
176(7) . . .
160(7) . . .
175(7) . . .
180(7) . . .
223(8) . . .
181(7) . . .
168(7) . . .
194(7) . . .
187(7) . . .
173(7) . . .
189(8) . . .
188(7) . . .
182(7) . . .
196(7) . . .
163(7) . . .
188(8) . . .
204(8) . . .
192(7) . . .
189(7) . . .
191(7) . . .
175(7) . . .
198(8) . . .
205(7) . . .
203(8) . . .
181(7) . . .
173(7) . . .
207(8) . . .
205(7) . . .
203(8) . . .
205(8) . . .
185(7) . . .
200(7) . . .
176(7) . . .
167(7) . . .
173(7) . . .
190(7) . . .
187(7) . . .
178(7) . . .
185(7) . . .
176(8) . . .
185(7) . . .
189(7) . . .
181(7) . . .
183(7) . . .
185(7) . . .
183(7) . . .
195(7) . . .
185(7) . . .
184(7) . . .
189(8) . . .
163(7) . . .
177(7) . . .
178(7) . . .
212(8) . . .
179(7) . . .
182(7) . . .
183(7) . . .
175(7) . . .
165(7) . . .
188(8) . . .
195(8) . . .
189(7) . . .
194(7) . . .
212(8) . . .
192(8) . . .
187(7) . . .
179(7) . . .
196(7) . . .
181(7) . . .
181(7) . . .
175(7) . . .
173(7) . . .
188(7) . . .
180(7) . . .
181(7) . . .
168(7) . . .
174(7) . . .
187(7) . . .
183(7) . . .
176(7) . . .
198(8) . . .
201(7) . . .
181(7) . . .
165(7) . . .
197(8) . . .
172(7) . . .
186(7) . . .
176(7) . . .
161(7) . . .
185(7) . . .
190(7) . . .
175(7) . . .
182(7) . . .
196(8) . . .
179(7) . . .
176(7) . . .
169(7) . . .
196(7) . . .
175(7) . . .
167(7) . . .
172(7) . . .
184(7) . . .
200(8) . . .
177(7) . . .
170(7) . . .
178(7) . . .
192(7) . . .
169(7) . . .
170(7) . . .
184(7) . . .
166(7) . . .
175(7) . . .
178(7) . . .
175(7) . . .
186(7) . . .
187(7) . . .
196(7) . . .
182(7) . . .
184(8) . . .
177(7) . . .
184(7) . . .
182(7) . . .
186(7) . . .
176(7) . . .
178(7) . . .
183(7) . . .
162(7) . . .
182(7) . . .
183(7) . . .
181(7) . . .
187(7) . . .
173(7) . . .
183(7) . . .
193(8) . . .
179(7) . . .
183(7) . . .
177(7) . . .
176(7) . . .
190(7) . . .
188(7) . . .
183(7) . . .
190(7) . . .
183(8) . . .
191(8) . . .
176(7) . . .
177(7) . . .
170(7) . . .
174(7) . . .
184(7) . . .
184(7) . . .
173(7) . . .
189(7) . . .
179(7) . . .
168(7) . . .
190(7) . . .
182(7) . . .
170(7) . . .
183(8) . . .
176(7) . . .
173(7) . . .
192(7) . . .
180(7) . . .
177(7) . . .
172(7) . . .
190(7) . . .
190(7) . . .
184(7) . . .
173(7) . . .
170(7) . . .
177(7) . . .
170(7) . . .
200(8) . . .
180(7) . . .
182(7) . . .
186(7) . . .
209(8) . . .
164(7) . . .
184(7) . . .
185(7) . . .
182(7) . . .
180(7) . . .
194(7) . . .
189(8) . . .
174(7) . . .
177(7) . . .
191(8) . . .
192(8) . . .
174(7) . . .
170(7) . . .
169(7) . . .
191(7) . . .
230(8) . . .
185(7) . . .
195(7) . . .
187(7) . . .
195(7) . . .
178(7) . . .
172(7) . . .
186(7) . . .
183(7) . . .
187(7) . . .
196(8) . . .
189(7) . . .
191(7) . . .
181(7) . . .
193(7) . . .
210(8) . . .
191(7) . . .
189(7) . . .
194(7) . . .
173(7) . . .
170(7) . . .
185(7) . . .
167(7) . . .
200(7) . . .
181(7) . . .
167(7) . . .
179(7) . . .
163(7) . . .
196(7) . . .
183(7) . . .
143(7) . . .
165(7) . . .
188(7) . . .
186(7) . . .
161(7) . . .
184(7) . . .
167(7) . . .
187(7) . . .
175(7) . . .
161(7) . . .
175(7) . . .
165(7) . . .
170(7) . . .
186(7) . . .
171(7) . . .
177(7) . . .
192(7) . . .
175(7) . . .
167(7) . . .
162(7) . . .
187(7) . . .
162(7) . . .
170(7) . . .
198(8) . . .
185(8) . . .
196(8) . . .
183(7) . . .
182(7) . . .
183(7) . . .
179(7) . . .
175(7) . . .
173(7) . . .
167(7) . . .
184(7) . . .
175(8) . . .
168(7) . . .
178(7) . . .
190(7) . . .
181(7) . . .
181(7) . . .
195(7) . . .
182(7) . . .
188(7) . . .
162(7) . . .
185(8) . . .
181(7) . . .
185(7) . . .
182(7) . . .
181(7) . . .
164(7) . . .
173(7) . . .
197(7) . . .
187(7) . . .
191(8) . . .
190(8) . . .
179(7) . . .
192(7) . . .
159(7) . . .
174(7) . . .
177(7) . . .
191(7) . . .
171(7) . . .
188(7) . . .
197(7) . . .
180(7) . . .
187(7) . . .
182(7) . . .
169(7) . . .
157(7) . . .
183(7) . . .
176(7) . . .
172(7) . . .
176(7) . . .
158(7) . . .
171(7) . . .
191(7) . . .
171(7) . . .
153(7) . . .
176(7) . . .
179(7) . . .
184(7) . . .
185(7) . . .
186(7) . . .
191(8) . . .
185(7) . . .
182(7) . . .
169(7) . . .
174(7) . . .
188(8) . . .
186(7) . . .
173(7) . . .
184(7) . . .
184(7) . . .
178(8) . . .
169(7) . . .
185(7) . . .
191(7) . . .
173(7) . . .
165(7) . . .
185(7) . . .
169(7) . . .
167(7) . . .
187(7) . . .
181(7) . . .
170(7) . . .
171(7) . . .
185(7) . . .
167(7) . . .
172(7) . . .
172(7) . . .
190(7) . . .
173(7) . . .
179(7) . . .
172(7) . . .
187(7) . . .
177(7) . . .
195(7) . . .
179(7) . . .
174(7) . . .
166(7) . . .
160(7) . . .
170(7) . . .
179(7) . . .
153(7) . . .
167(7) . . .
183(7) . . .
178(7) . . .
179(7) . . .
168(7) . . .
181(7) . . .
175(7) . . .
169(7) . . .
190(8) . . .
189(8) . . .
177(7) . . .
186(7) . . .
159(7) . . .
167(7) . . .
183(8) . . .
163(7) . . .
176(7) . . .
177(7) . . .
189(8) . . .
174(7) . . .
186(7) . . .
163(7) . . .
171(7) . . .
163(7) . . .
170(7) . . .
155(7) . . .
180(7) . . .
168(7) . . .
157(7) . . .
184(7) . . .
184(7) . . .
174(7) . . .
174(7) . . .
166(7) . . .
165(7) . . .
180(7) . . .
164(7) . . .
164(7) . . .
182(8) . . .
182(7) . . .
163(7) . . .
186(7) . . .
166(7) . . .
164(7) . . .
181(7) . . .
165(7) . . .
167(7) . . .
172(7) . . .
172(7) . . .
164(7) . . .
166(7) . . .
188(7) . . .
151(7) . . .
155(7) . . .
162(7) . . .
180(7) . . .
165(7) . . .
172(7) . . .
179(7) . . .
155(6) . . .
175(7) . . .
163(7) . . .
181(8) . . .
186(7) . . .
170(7) . . .
168(7) . . .
160(7) . . .
157(7) . . .
159(7) . . .
160(7) . . .
172(7) . . .
161(7) . . .
174(7) . . .
176(7) . . .
161(7) . . .
163(7) . . .
172(7) . . .
183(7) . . .
159(7) . . .
170(7) . . .
168(7) . . .
172(7) . . .
178(7) . . .
160(7) . . .
159(7) . . .
156(7) . . .
173(7) . . .
170(7) . . .
167(7) . . .
171(7) . . .
159(7) . . .
173(7) . . .
167(7) . . .
164(7) . . .
159(7) . . .
151(7) . . .
172(7) . . .
183(7) . . .
170(7) . . .
159(7) . . .
166(7) . . .
176(7) . . .
153(7) . . .
164(7) . . .
168(7) . . .
177(7) . . .
177(7) . . .
187(7) . . .
179(7) . . .
180(7) . . .
155(7) . . .
154(7) . . .
157(7) . . .
163(7) . . .
185(7) . . .
184(7) . . .
179(7) . . .
175(7) . . .
166(7) . . .
157(6) . . .
153(7) . . .
163(7) . . .
157(7) . . .
175(7) . . .
182(7) . . .
162(7) . . .
187(8) . . .
168(7) . . .
173(7) . . .
160(7) . . .
147(6) . . .
179(7) . . .
162(7) . . .
170(7) . . .
175(7) . . .
168(7) . . .
186(8) . . .
143(6) . . .
161(7) . . .
162(7) . . .
171(7) . . .
166(7) . . .
168(7) . . .
168(7) . . .
162(7) . . .
175(7) . . .
156(7) . . .
154(6) . . .
154(6) . . .
167(7) . . .
163(7) . . .
164(7) . . .
169(7) . . .
159(7) . . .
175(7) . . .
165(7) . . .
180(7) . . .
170(7) . . .
164(7) . . .
181(7) . . .
156(7) . . .
150(7) . . .
166(7) . . .
172(7) . . .
154(7) . . .
154(7) . . .
192(8) . . .
166(7) . . .
170(7) . . .
180(7) . . .
173(7) . . .
165(7) . . .
185(7) . . .
164(7) . . .
157(7) . . .
180(7) . . .
160(7) . . .
165(7) . . .
155(7) . . .
184(7) . . .
158(7) . . .
181(7) . . .
163(7) . . .
173(7) . . .
185(7) . . .
171(7) . . .
160(7) . . .
161(7) . . .
160(7) . . .
156(7) . . .
184(7) . . .
168(7) . . .
182(7) . . .
163(7) . . .
162(7) . . .
178(7) . . .
180(7) . . .
175(7) . . .
180(7) . . .
168(7) . . .
195(7) . . .
171(7) . . .
163(7) . . .
180(7) . . .
171(7) . . .
151(7) . . .
177(7) . . .
180(7) . . .
168(7) . . .
172(7) . . .
168(7) . . .
177(7) . . .
171(7) . . .
177(7) . . .
151(7) . . .
161(7) . . .
161(7) . . .
185(7) . . .
156(7) . . .
173(7) . . .
173(7) . . .
173(7) . . .
192(7) . . .
166(7) . . .
164(7) . . .
175(7) . . .
173(7) . . .
168(7) . . .
173(7) . . .
166(7) . . .
174(7) . . .
160(7) . . .
174(7) . . .
178(7) . . .
170(7) . . .
162(7) . . .
151(6) . . .
159(7) . . .
150(7) . . .
177(7) . . .
168(7) . . .
172(7) . . .
179(7) . . .
176(7) . . .
181(7) . . .
190(7) . . .
174(7) . . .
158(7) . . .
161(7) . . .
177(7) . . .
146(6) . . .
162(7) . . .
189(7) . . .
169(7) . . .
161(7) . . .
172(7) . . .
193(7) . . .
203(8) . . .
165(7) . . .
146(7) . . .
174(7) . . .
201(7) . . .
179(7) . . .
159(7) . . .
184(7) . . .
150(6) . . .
173(7) . . .
170(7) . . .
165(7) . . .
180(7) . . .
176(7) . . .
149(6) . . .
166(7) . . .
182(8) . . .
180(7) . . .
179(7) . . .
173(7) . . .
178(7) . . .
168(7) . . .
183(7) . . .
159(7) . . .
187(7) . . .
157(7) . . .
167(7) . . .
166(7) . . .
163(7) . . .
159(7) . . .
166(7) . . .
189(7) . . .
181(7) . . .
172(7) . . .
171(7) . . .
160(7) . . .
181(7) . . .
195(8) . . .
169(7) . . .
175(7) . . .
164(7) . . .
169(7) . . .
163(7) . . .
166(7) . . .
168(7) . . .
165(7) . . .
180(7) . . .
170(7) . . .
165(7) . . .
169(7) . . .
166(7) . . .
156(7) . . .
154(6) . . .
169(7) . . .
169(7) . . .
157(7) . . .
181(7) . . .
172(7) . . .
167(7) . . .
173(7) . . .
174(7) . . .
186(7) . . .
162(7) . . .
174(7) . . .
159(7) . . .
162(7) . . .
165(7) . . .
186(7) . . .
178(7) . . .
187(7) . . .
168(7) . . .
179(7) . . .
187(7) . . .
166(7) . . .
162(7) . . .
171(7) . . .
182(7) . . .
164(7) . . .
177(7) . . .
190(8) . . .
165(7) . . .
173(7) . . .
167(7) . . .
155(7) . . .
176(7) . . .
165(7) . . .
180(7) . . .
175(7) . . .
188(7) . . .
166(7) . . .
171(7) . . .
176(7) . . .
163(7) . . .
165(7) . . .
158(7) . . .
168(7) . . .
165(7) . . .
178(7) . . .
163(7) . . .
173(7) . . .
157(7) . . .
151(6) . . .
165(7) . . .
178(7) . . .
158(7) . . .
166(7) . . .
176(7) . . .
160(7) . . .
184(7) . . .
175(7) . . .
179(7) . . .
187(7) . . .
159(7) . . .
176(7) . . .
176(7) . . .
163(7) . . .
160(7) . . .
173(7) . . .
180(7) . . .
144(6) . . .
163(7) . . .
163(7) . . .
171(7) . . .
170(7) . . .
172(7) . . .
178(7) . . .
156(6) . . .
160(7) . . .
161(7) . . .
173(7) . . .
159(7) . . .
159(7) . . .
164(7) . . .
155(7) . . .
174(7) . . .
169(7) . . .
175(7) . . .
164(7) . . .
157(7) . . .
179(7) . . .
171(7) . . .
167(7) . . .
177(7) . . .
169(7) . . .
160(7) . . .
158(7) . . .
166(7) . . .
194(7) . . .
178(7) . . .
170(7) . . .
158(7) . . .
156(6) . . .
151(6) . . .
173(7) . . .
173(7) . . .
189(7) . . .
151(6) . . .
164(7) . . .
156(7) . . .
166(7) . . .
166(7) . . .
173(7) . . .
163(7) . . .
150(7) . . .
170(7) . . .
159(7) . . .
163(7) . . .
178(8) . . .
154(7) . . .
185(8) . . .
174(7) . . .
172(7) . . .
152(7) . . .
161(7) . . .
157(7) . . .
158(7) . . .
173(7) . . .
156(7) . . .
155(7) . . .
170(7) . . .
177(7) . . .
160(7) . . .
159(7) . . .
145(6) . . .
179(7) . . .
177(7) . . .
154(7) . . .
172(7) . . .
163(7) . . .
155(7) . . .
159(7) . . .
149(7) . . .
162(7) . . .
162(7) . . .
173(7) . . .
174(7) . . .
171(7) . . .
165(7) . . .
166(7) . . .
165(7) . . .
182(7) . . .
153(7) . . .
165(7) . . .
161(7) . . .
141(6) . . .
145(6) . . .
169(7) . . .
170(7) . . .
177(7) . . .
159(7) . . .
147(6) . . .
156(7) . . .
159(7) . . .
161(7) . . .
171(7) . . .
167(7) . . .
167(7) . . .
166(7) . . .
181(7) . . .
160(7) . . .
167(7) . . .
154(7) . . .
158(7) . . .
183(7) . . .
175(7) . . .
169(7) . . .
155(7) . . .
149(7) . . .
172(7) . . .
151(6) . . .
158(7) . . .
161(7) . . .
171(7) . . .
163(7) . . .
166(7) . . .
167(7) . . .
163(7) . . .
174(7) . . .
189(7) . . .
162(7) . . .
161(7) . . .
168(7) . . .
162(7) . . .
173(7) . . .
156(6) . . .
165(7) . . .
150(7) . . .
147(6) . . .
148(6) . . .
142(6) . . .
153(7) . . .
166(7) . . .
155(7) . . .
164(7) . . .
168(7) . . .
174(7) . . .
151(7) . . .
147(6) . . .
164(7) . . .
168(7) . . .
171(7) . . .
159(7) . . .
153(7) . . .
174(7) . . .
182(7) . . .
173(7) . . .
183(7) . . .
186(7) . . .
180(7) . . .
179(7) . . .
189(7) . . .
181(7) . . .
182(7) . . .
169(7) . . .
175(7) . . .
180(7) . . .
180(7) . . .
174(7) . . .
155(6) . . .
151(7) . . .
156(7) . . .
158(7) . . .
170(7) . . .
181(7) . . .
156(7) . . .
174(7) . . .
174(7) . . .
159(7) . . .
176(7) . . .
168(7) . . .
163(7) . . .
178(7) . . .
168(7) . . .
172(7) . . .
177(7) . . .
167(7) . . .
169(7) . . .
171(7) . . .
160(7) . . .
176(7) . . .
173(7) . . .
169(7) . . .
168(7) . . .
160(7) . . .
155(7) . . .
150(7) . . .
157(7) . . .
167(7) . . .
169(7) . . .
175(7) . . .
160(7) . . .
179(7) . . .
181(7) . . .
165(7) . . .
148(6) . . .
171(7) . . .
182(7) . . .
182(7) . . .
172(7) . . .
179(7) . . .
165(7) . . .
150(6) . . .
166(7) . . .
177(7) . . .
175(7) . . .
184(8) . . .
164(7) . . .
171(7) . . .
177(7) . . .
166(7) . . .
154(7) . . .
158(7) . . .
152(6) . . .
148(6) . . .
160(7) . . .
158(7) . . .
174(7) . . .
164(7) . . .
156(7) . . .
165(7) . . .
178(7) . . .
179(7) . . .
156(6) . . .
170(7) . . .
169(7) . . .
166(7) . . .
167(7) . . .
156(6) . . .
169(7) . . .
155(7) . . .
168(7) . . .
172(7) . . .
157(6) . . .
163(7) . . .
178(7) . . .
147(6) . . .
177(7) . . .
179(7) . . .
154(7) . . .
174(8) . . .
159(7) . . .
172(7) . . .
168(7) . . .
159(7) . . .
169(7) . . .
161(7) . . .
172(7) . . .
159(7) . . .
176(7) . . .
156(7) . . .
160(7) . . .
166(7) . . .
172(7) . . .
171(7) . . .
156(7) . . .
151(7) . . .
181(7) . . .
164(7) . . .
158(7) . . .
158(7) . . .
177(7) . . .
174(7) . . .
165(7) . . .
164(7) . . .
160(7) . . .
175(7) . . .
153(6) . . .
167(7) . . .
162(7) . . .
154(6) . . .
164(7) . . .
178(7) . . .
163(7) . . .
167(7) . . .
182(7) . . .
174(7) . . .
165(7) . . .
171(7) . . .
141(6) . . .
159(7) . . .
170(7) . . .
169(7) . . .
163(7) . . .
156(7) . . .
151(6) . . .
176(7) . . .
161(7) . . .
156(7) . . .
148(7) . . .
152(7) . . .
167(7) . . .
176(7) . . .
167(7) . . .
157(7) . . .
162(7) . . .
160(7) . . .
170(7) . . .
176(7) . . .
151(7) . . .
179(7) . . .
176(7) . . .
164(7) . . .
172(7) . . .
170(7) . . .
169(7) . . .
178(7) . . .
165(7) . . .
179(7) . . .
181(7) . . .
153(7) . . .
160(7) . . .
148(6) . . .
162(7) . . .
169(7) . . .
157(7) . . .
169(7) . . .
167(7) . . .
166(7) . . .
162(7) . . .
177(7) . . .
169(7) . . .
152(7) . . .
147(7) . . .
165(7) . . .
163(7) . . .
157(6) . . .
162(7) . . .
176(7) . . .
156(7) . . .
155(6) . . .
176(7) . . .
157(7) . . .
159(7) . . .
174(7) . . .
165(7) . . .
162(7) . . .
150(7) . . .
151(7) . . .
157(7) . . .
151(6) . . .
166(7) . . .
150(6) . . .
166(7) . . .
158(7) . . .
149(6) . . .
150(6) . . .
156(7) . . .
150(7) . . .
164(7) . . .
159(7) . . .
148(6) . . .
163(7) . . .
159(7) . . .
168(7) . . .
157(6) . . .
166(7) . . .
161(7) . . .
148(7) . . .
147(6) . . .
171(7) . . .
162(7) . . .
169(7) . . .
164(7) . . .
162(7) . . .
150(6) . . .
155(7) . . .
148(6) . . .
168(7) . . .
140(6) . . .
169(7) . . .
157(7) . . .
150(6) . . .
164(7) . . .
175(7) . . .
172(7) . . .
181(7) . . .
191(8) . . .
172(7) . . .
155(7) . . .
163(7) . . .
163(7) . . .
155(7) . . .
154(7) . . .
161(7) . . .
150(6) . . .
152(7) . . .
153(7) . . .
146(6) . . .
168(7) . . .
160(7) . . .
163(7) . . .
164(7) . . .
144(6) . . .
169(7) . . .
176(7) . . .
171(7) . . .
174(7) . . .
163(7) . . .
156(7) . . .
152(6) . . .
158(7) . . .
181(7) . . .
157(7) . . .
138(6) . . .
148(6) . . .
161(7) . . .
151(7) . . .
151(7) . . .
171(7) . . .
172(7) . . .
157(7) . . .
151(7) . . .
164(7) . . .
178(7) . . .
159(7) . . .
163(7) . . .
141(6) . . .
149(7) . . .
162(7) . . .
161(7) . . .
175(7) . . .
166(7) . . .
154(7) . . .
153(6) . . .
171(7) . . .
141(6) . . .
162(7) . . .
163(7) . . .
166(7) . . .
165(7) . . .
188(8) . . .
160(7) . . .
159(7) . . .
146(6) . . .
158(7) . . .
175(7) . . .
156(7) . . .
175(7) . . .
155(6) . . .
165(7) . . .
169(7) . . .
150(6) . . .
155(6) . . .
152(6) . . .
163(7) . . .
149(7) . . .
167(7) . . .
159(7) . . .
184(7) . . .
175(7) . . .
157(7) . . .
155(7) . . .
151(6) . . .
174(7) . . .
160(7) . . .
152(7) . . .
169(7) . . .
156(6) . . .
172(7) . . .
173(7) . . .
162(7) . . .
170(7) . . .
176(7) . . .
165(7) . . .
163(7) . . .
166(7) . . .
159(7) . . .
167(7) . . .
159(7) . . .
173(7) . . .
163(7) . . .
178(7) . . .
169(7) . . .
165(7) . . .
172(7) . . .
161(7) . . .
161(7) . . .
145(6) . . .
167(7) . . .
168(7) . . .
179(7) . . .
148(6) . . .
165(7) . . .
153(7) . . .
161(7) . . .
157(7) . . .
135(6) . . .
169(7) . . .
178(7) . . .
161(7) . . .
174(7) . . .
169(7) . . .
178(7) . . .
163(7) . . .
158(7) . . .
147(6) . . .
166(7) . . .
161(7) . . .
163(7) . . .
166(7) . . .
157(7) . . .
151(6) . . .
181(7) . . .
156(7) . . .
157(7) . . .
147(6) . . .
174(7) . . .
164(7) . . .
169(7) . . .
175(7) . . .
161(7) . . .
148(6) . . .
160(7) . . .
173(7) . . .
168(7) . . .
172(7) . . .
164(7) . . .
153(7) . . .
175(7) . . .
179(7) . . .
160(7) . . .
150(6) . . .
169(7) . . .
170(7) . . .
176(7) . . .
169(7) . . .
146(6) . . .
157(7) . . .
160(7) . . .
160(7) . . .
174(7) . . .
161(7) . . .
166(7) . . .
161(7) . . .
157(7) . . .
162(7) . . .
164(7) . . .
160(7) . . .
145(7) . . .
167(7) . . .
155(6) . . .
159(7) . . .
164(7) . . .
157(7) . . .
164(7) . . .
171(7) . . .
161(7) . . .
169(7) . . .
167(7) . . .
153(7) . . .
161(7) . . .
146(6) . . .
175(7) . . .
165(7) . . .
142(6) . . .
140(6) . . .
152(7) . . .
159(7) . . .
147(7) . . .
161(7) . . .
171(7) . . .
145(6) . . .
150(7) . . .
168(7) . . .
149(7) . . .
155(6) . . .
144(6) . . .
169(7) . . .
171(7) . . .
169(7) . . .
140(6) . . .
166(7) . . .
157(7) . . .
158(7) . . .
168(7) . . .
159(7) . . .
171(7) . . .
152(7) . . .
170(7) . . .
158(7) . . .
145(6) . . .
154(7) . . .
149(7) . . .
148(7) . . .
166(7) . . .
178(7) . . .
169(7) . . .
147(7) . . .
144(6) . . .
162(7) . . .
145(6) . . .
148(7) . . .
158(7) . . .
155(7) . . .
142(6) . . .
128(6) . . .
150(6) . . .
157(7) . . .
162(7) . . .
145(6) . . .
151(6) . . .
146(6) . . .
151(7) . . .
157(7) . . .
155(7) . . .
159(7) . . .
156(7) . . .
174(7) . . .
182(7) . . .
160(7) . . .
152(6) . . .
155(7) . . .
147(6) . . .
176(7) . . .
145(6) . . .
174(7) . . .
147(6) . . .
150(7) . . .
134(6) . . .
136(6) . . .
156(7) . . .
156(7) . . .
136(6) . . .
152(7) . . .
157(6) . . .
149(6) . . .
151(7) . . .
152(7) . . .
150(7) . . .
160(7) . . .
153(7) . . .
146(7) . . .
147(6) . . .
160(7) . . .
153(6) . . .
156(7) . . .
184(8) . . .
157(7) . . .
164(7) . . .
153(6) . . .
154(7) . . .
149(7) . . .
164(7) . . .
150(6) . . .
142(6) . . .
162(7) . . .
153(7) . . .
161(7) . . .
150(6) . . .
152(6) . . .
159(7) . . .
152(7) . . .
154(7) . . .
171(7) . . .
160(7) . . .
155(7) . . .
158(7) . . .
152(7) . . .
161(7) . . .
152(6) . . .
170(7) . . .
163(7) . . .
150(7) . . .
162(7) . . .
162(7) . . .
142(6) . . .
172(7) . . .
174(7) . . .
143(6) . . .
159(7) . . .
153(7) . . .
169(7) . . .
169(7) . . .
166(7) . . .
156(7) . . .
155(7) . . .
149(7) . . .
133(6) . . .
164(7) . . .
162(7) . . .
147(7) . . .
150(7) . . .
166(7) . . .
166(7) . . .
146(6) . . .
151(7) . . .
165(7) . . .
179(7) . . .
158(7) . . .
149(6) . . .
150(7) . . .
173(7) . . .
151(6) . . .
157(7) . . .
155(6) . . .
161(7) . . .
169(7) . . .
164(7) . . .
158(7) . . .
156(7) . . .
133(6) . . .
139(6) . . .
160(7) . . .
169(7) . . .
147(7) . . .
151(7) . . .
158(7) . . .
159(7) . . .
152(7) . . .
170(7) . . .
170(7) . . .
146(6) . . .
154(6) . . .
150(6) . . .
152(7) . . .
164(7) . . .
150(7) . . .
136(6) . . .
145(6) . . .
157(7) . . .
180(7) . . .
157(7) . . .
161(7) . . .
158(7) . . .
141(6) . . .
139(6) . . .
144(6) . . .
155(6) . . .
153(7) . . .
155(7) . . .
142(6) . . .
147(6) . . .
144(6) . . .
136(6) . . .
153(7) . . .
156(7) . . .
173(7) . . .
160(7) . . .
161(7) . . .
172(7) . . .
168(7) . . .
160(7) . . .
156(7) . . .
173(7) . . .
155(7) . . .
157(7) . . .
149(6) . . .
160(7) . . .
152(7) . . .
173(7) . . .
137(6) . . .
160(7) . . .
155(7) . . .
154(7) . . .
147(7) . . .
153(7) . . .
167(7) . . .
155(7) . . .
158(7) . . .
175(7) . . .
161(7) . . .
161(7) . . .
161(7) . . .
166(7) . . .
157(7) . . .
156(7) . . .
166(7) . . .
158(7) . . .
153(6) . . .
147(6) . . .
159(7) . . .
161(7) . . .
156(7) . . .
156(7) . . .
155(7) . . .
157(7) . . .
131(6) . . .
142(6) . . .
152(7) . . .
168(7) . . .
140(6) . . .
160(7) . . .
141(6) . . .
138(6) . . .
172(7) . . .
171(7) . . .
147(6) . . .
145(6) . . .
149(7) . . .
146(6) . . .
159(7) . . .
181(7) . . .
156(7) . . .
166(7) . . .
141(6) . . .
161(7) . . .
162(7) . . .
151(7) . . .
163(7) . . .
139(6) . . .
142(6) . . .
150(7) . . .
130(6) . . .
138(6) . . .
144(6) . . .
150(6) . . .
138(6) . . .
151(7) . . .
142(6) . . .
148(6) . . .
144(6) . . .
173(7) . . .
153(7) . . .
149(7) . . .
157(7) . . .
179(7) . . .
162(7) . . .
155(7) . . .
148(7) . . .
156(7) . . .
147(6) . . .
156(7) . . .
165(7) . . .
168(7) . . .
155(7) . . .
162(7) . . .
156(7) . . .
159(7) . . .
169(7) . . .
157(7) . . .
193(7) . . .
174(7) . . .
181(7) . . .
182(7) . . .
184(7) . . .
168(7) . . .
156(7) . . .
186(7) . . .
178(7) . . .
169(7) . . .
162(7) . . .
182(7) . . .
191(8) . . .
165(7) . . .
145(6) . . .
155(6) . . .
167(7) . . .
167(7) . . .
161(7) . . .
173(7) . . .
150(6) . . .
152(7) . . .
141(7) . . .
162(7) . . .
164(7) . . .
149(6) . . .
159(7) . . .
133(6) . . .
147(7) . . .
152(6) . . .
195(7) . . .
171(7) . . .
159(7) . . .
151(7) . . .
153(6) . . .
160(7) . . .
150(7) . . .
178(7) . . .
161(7) . . .
159(7) . . .
143(6) . . .
172(7) . . .
163(7) . . .
143(6) . . .
165(7) . . .
157(7) . . .
169(7) . . .
181(7) . . .
168(7) . . .
167(7) . . .
168(7) . . .
174(7) . . .
184(7) . . .
182(7) . . .
195(7) . . .
174(7) . . .
175(7) . . .
162(7) . . .
181(7) . . .
187(7) . . .
166(7) . . .
171(7) . . .
184(7) . . .
190(7) . . .
174(7) . . .
186(7) . . .
183(7) . . .
192(7) . . .
173(7) . . .
187(7) . . .
183(7) . . .
162(7) . . .
174(7) . . .
181(7) . . .
196(7) . . .
168(7) . . .
164(7) . . .
156(7) . . .
166(7) . . .
170(7) . . .
154(7) . . .
172(7) . . .
171(7) . . .
172(7) . . .
176(7) . . .
179(7) . . .
154(7) . . .
176(7) . . .
176(7) . . .
163(7) . . .
181(7) . . .
165(7) . . .
184(7) . . .
157(6) . . .
154(7) . . .
169(7) . . .
164(7) . . .
172(7) . . .
175(7) . . .
185(7) . . .
162(7) . . .
164(7) . . .
179(7) . . .
178(7) . . .
174(7) . . .
158(7) . . .
176(7) . . .
183(7) . . .
175(7) . . .
166(7) . . .
170(7) . . .
172(7) . . .
180(7) . . .
189(7) . . .
165(7) . . .
169(7) . . .
161(7) . . .
160(7) . . .
180(7) . . .
154(7) . . .
158(7) . . .
142(6) . . .
160(7) . . .
203(8) . . .
172(7) . . .
161(7) . . .
175(7) . . .
179(7) . . .
161(7) . . .
173(7) . . .
178(7) . . .
174(7) . . .
170(7) . . .
166(7) . . .
178(7) . . .
182(7) . . .
153(6) . . .
143(6) . . .
157(7) . . .
183(7) . . .
172(7) . . .
181(7) . . .
177(7) . . .
179(7) . . .
167(7) . . .
164(7) . . .
169(7) . . .
173(7) . . .
166(7) . . .
174(7) . . .
166(7) . . .
161(7) . . .
169(7) . . .
156(7) . . .
187(8) . . .
160(7) . . .
159(7) . . .
163(7) . . .
158(7) . . .
164(7) . . .
178(7) . . .
159(7) . . .
145(6) . . .
155(7) . . .
156(7) . . .
153(7) . . .
156(7) . . .
142(6) . . .
151(7) . . .
160(7) . . .
148(6) . . .
150(6) . . .
153(7) . . .
153(7) . . .
149(7) . . .
157(7) . . .
151(6) . . .
159(7) . . .
164(7) . . .
156(7) . . .
151(6) . . .
146(6) . . .
155(7) . . .
168(7) . . .
149(6) . . .
150(6) . . .
145(6) . . .
162(7) . . .
150(7) . . .
159(7) . . .
159(7) . . .
164(7) . . .
157(7) . . .
162(7) . . .
142(6) . . .
159(7) . . .
176(7) . . .
136(6) . . .
173(7) . . .
187(7) . . .
151(6) . . .
154(7) . . .
137(6) . . .
165(7) . . .
162(7) . . .
164(7) . . .
150(6) . . .
162(7) . . .
151(7) . . .
139(6) . . .
157(7) . . .
148(6) . . .
153(7) . . .
179(8) . . .
143(6) . . .
173(7) . . .
162(7) . . .
159(7) . . .
160(7) . . .
149(7) . . .
166(7) . . .
156(6) . . .
156(7) . . .
153(7) . . .
159(7) . . .
157(7) . . .
146(6) . . .
157(7) . . .
147(7) . . .
165(7) . . .
158(7) . . .
144(6) . . .
173(7) . . .
157(7) . . .
150(7) . . .
158(7) . . .
170(7) . . .
155(7) . . .
163(7) . . .
169(7) . . .
153(6) . . .
163(7) . . .
154(7) . . .
170(7) . . .
154(7) . . .
179(7) . . .
174(7) . . .
178(7) . . .
154(7) . . .
164(7) . . .
160(7) . . .
155(7) . . .
170(7) . . .
166(7) . . .
171(7) . . .
150(6) . . .
176(7) . . .
156(7) . . .
182(7) . . .
181(7) . . .
155(6) . . .
165(7) . . .
170(7) . . .
152(7) . . .
161(7) . . .
154(6) . . .
167(7) . . .
156(7) . . .
168(7) . . .
165(7) . . .
161(7) . . .
163(7) . . .
163(7) . . .
144(7) . . .
158(7) . . .
170(7) . . .
161(7) . . .
144(7) . . .
158(7) . . .
164(7) . . .
146(6) . . .
158(7) . . .
147(7) . . .
155(7) . . .
156(6) . . .
175(7) . . .
157(7) . . .
165(7) . . .
149(6) . . .
155(6) . . .
173(7) . . .
160(7) . . .
161(7) . . .
155(7) . . .
167(7) . . .
154(7) . . .
154(7) . . .
171(7) . . .
155(7) . . .
163(7) . . .
150(7) . . .
160(7) . . .
161(7) . . .
173(7) . . .
166(7) . . .
154(7) . . .
152(7) . . .
155(7) . . .
148(6) . . .
144(6) . . .
162(7) . . .
160(7) . . .
160(7) . . .
167(7) . . .
161(7) . . .
169(7) . . .
169(7) . . .
165(7) . . .
174(7) . . .
160(7) . . .
148(7) . . .
160(7) . . .
165(7) . . .
188(7) . . .
175(7) . . .
175(7) . . .
184(7) . . .
168(7) . . .
150(6) . . .
162(7) . . .
169(7) . . .
161(7) . . .
165(7) . . .
170(7) . . .
160(7) . . .
167(7) . . .
163(7) . . .
168(7) . . .
167(7) . . .
167(7) . . .
171(7) . . .
157(7) . . .
140(6) . . .
162(7) . . .
148(7) . . .
181(7) . . .
162(7) . . .
147(6) . . .
157(7) . . .
160(7) . . .
164(7) . . .
142(6) . . .
158(7) . . .
147(6) . . .
168(7) . . .
169(7) . . .
158(7) . . .
147(6) . . .
155(6) . . .
150(7) . . .
165(7) . . .
159(7) . . .
152(6) . . .
144(6) . . .
157(7) . . .
162(7) . . .
157(7) . . .
159(7) . . .
156(7) . . .
146(6) . . .
155(7) . . .
160(7) . . .
154(7) . . .
146(6) . . .
164(7) . . .
161(7) . . .
153(7) . . .
142(6) . . .
164(7) . . .
143(6) . . .
163(7) . . .
156(7) . . .
159(7) . . .
154(7) . . .
168(7) . . .
153(7) . . .
147(6) . . .
165(7) . . .
160(7) . . .
168(7) . . .
151(7) . . .
155(7) . . .
133(6) . . .
159(7) . . .
176(7) . . .
157(7) . . .
155(7) . . .
150(6) . . .
164(7) . . .
149(7) . . .
141(6) . . .
154(6) . . .
149(6) . . .
164(7) . . .
155(7) . . .
159(7) . . .
152(6) . . .
192(7) . . .
170(7) . . .
147(7) . . .
167(7) . . .
147(6) . . .
158(6) . . .
162(7) . . .
140(6) . . .
167(7) . . .
152(6) . . .
156(6) . . .
150(6) . . .
160(7) . . .
169(7) . . .
159(7) . . .
157(7) . . .
175(7) . . .
137(6) . . .
152(7) . . .
128(6) . . .
151(6) . . .
169(7) . . .
161(7) . . .
167(7) . . .
158(6) . . .
156(7) . . .
153(7) . . .
157(7) . . .
162(7) . . .
153(6) . . .
150(6) . . .
153(7) . . .
172(7) . . .
159(7) . . .
133(6) . . .
148(6) . . .
159(7) . . .
155(7) . . .
161(7) . . .
167(7) . . .
150(7) . . .
164(7) . . .
150(7) . . .
130(6) . . .
152(6) . . .
149(7) . . .
133(6) . . .
164(7) . . .
145(6) . . .
146(6) . . .
150(7) . . .
147(7) . . .
154(7) . . .
164(7) . . .
149(6) . . .
154(7) . . .
161(7) . . .
155(7) . . .
151(6) . . .
156(7) . . .
155(7) . . .
170(7) . . .
166(7) . . .
145(6) . . .
171(7) . . .
162(7) . . .
153(7) . . .
149(6) . . .
158(7) . . .
171(7) . . .
168(7) . . .
154(7) . . .
165(7) . . .
151(6) . . .
176(7) . . .
160(7) . . .
159(7) . . .
142(6) . . .
152(6) . . .
146(6) . . .
159(7) . . .
152(7) . . .
157(7) . . .
146(6) . . .
165(7) . . .
161(7) . . .
149(6) . . .
141(6) . . .
156(6) . . .
146(6) . . .
155(7) . . .
161(7) . . .
151(6) . . .
145(6) . . .
162(7) . . .
159(7) . . .
162(7) . . .
147(6) . . .
147(6) . . .
151(7) . . .
153(7) . . .
126(6) . . .
158(7) . . .
150(6) . . .
149(6) . . .
164(7) . . .
164(7) . . .
144(6) . . .
146(6) . . .
146(7) . . .
143(7) . . .
152(7) . . .
162(7) . . .
136(6) . . .
154(7) . . .
156(7) . . .
155(7) . . .
150(6) . . .
140(6) . . .
168(7) . . .
140(6) . . .
163(7) . . .
147(6) . . .
153(6) . . .
150(6) . . .
149(7) . . .
145(6) . . .
140(6) . . .
152(6) . . .
153(7) . . .
141(7) . . .
157(7) . . .
168(7) . . .
154(7) . . .
160(7) . . .
153(7) . . .
151(6) . . .
158(7) . . .
148(6) . . .
156(7) . . .
177(7) . . .
154(6) . . .
148(6) . . .
154(7) . . .
151(7) . . .
159(7) . . .
144(6) . . .
134(6) . . .
153(7) . . .
169(7) . . .
159(7) . . .
152(6) . . .
147(6) . . .
163(7) . . .
150(7) . . .
159(7) . . .
141(6) . . .
148(6) . . .
159(7) . . .
161(7) . . .
152(7) . . .
154(6) . . .
178(7) . . .
163(7) . . .
134(6) . . .
175(7) . . .
177(7) . . .
149(6) . . .
166(7) . . .
163(7) . . .
161(7) . . .
163(7) . . .
146(6) . . .
138(6) . . .
159(7) . . .
153(7) . . .
154(6) . . .
175(7) . . .
166(7) . . .
143(6) . . .
142(6) . . .
141(6) . . .
126(6) . . .
137(6) . . .
154(7) . . .
173(7) . . .
171(7) . . .
161(7) . . .
164(7) . . .
146(7) . . .
150(6) . . .
167(7) . . .
157(7) . . .
179(7) . . .
186(7) . . .
163(7) . . .
153(6) . . .
161(7) . . .
153(7) . . .
153(6) . . .
142(6) . . .
168(7) . . .
147(6) . . .
141(6) . . .
153(7) . . .
169(7) . . .
162(7) . . .
143(6) . . .
142(6) . . .
156(7) . . .
145(7) . . .
148(7) . . .
145(6) . . .
141(6) . . .
160(7) . . .
153(7) . . .
154(7) . . .
147(6) . . .
150(6) . . .
153(7) . . .
145(7) . . .
145(6) . . .
140(6) . . .
163(7) . . .
128(6) . . .
156(7) . . .
150(7) . . .
155(6) . . .
148(6) . . .
146(6) . . .
161(7) . . .
150(6) . . .
143(6) . . .
147(6) . . .
159(7) . . .
146(7) . . .
139(6) . . .
146(6) . . .
136(6) . . .
147(7) . . .
147(7) . . .
161(7) . . .
132(6) . . .
133(6) . . .
141(7) . . .
151(7) . . .
147(6) . . .
143(6) . . .
143(6) . . .
136(6) . . .
151(7) . . .
132(6) . . .
140(6) . . .
148(7) . . .
129(6) . . .
139(6) . . .
139(6) . . .
157(6) . . .
166(7) . . .
141(6) . . .
151(7) . . .
146(6) . . .
153(6) . . .
152(7) . . .
165(7) . . .
154(7) . . .
130(6) . . .
133(6) . . .
167(7) . . .
154(7) . . .
141(6) . . .
159(7) . . .
170(7) . . .
130(6) . . .
140(7) . . .
146(7) . . .
140(6) . . .
138(6) . . .
134(6) . . .
143(7) . . .
128(6) . . .
132(6) . . .
138(6) . . .
146(7) . . .
159(7) . . .
166(7) . . .
156(6) . . .
144(7) . . .
144(6) . . .
151(7) . . .
153(7) . . .
142(6) . . .
142(6) . . .
156(7) . . .
137(6) . . .
152(6) . . .
141(6) . . .
153(7) . . .
152(7) . . .
150(7) . . .
138(6) . . .
145(6) . . .
143(6) . . .
148(7) . . .
143(6) . . .
136(6) . . .
147(6) . . .
157(7) . . .
161(7) . . .
134(6) . . .
149(6) . . .
146(6) . . .
153(7) . . .
149(7) . . .
151(6) . . .
159(7) . . .
152(6) . . .
139(6) . . .
142(7) . . .
141(6) . . .
143(6) . . .
157(7) . . .
148(7) . . .
138(6) . . .
164(7) . . .
158(7) . . .
148(6) . . .
151(7) . . .
147(7) . . .
169(7) . . .
150(6) . . .
153(6) . . .
138(6) . . .
136(6) . . .
141(6) . . .
139(6) . . .
148(6) . . .
162(7) . . .
166(7) . . .
173(7) . . .
168(7) . . .
153(7) . . .
146(7) . . .
147(7) . . .
136(6) . . .
145(6) . . .
145(6) . . .
150(7) . . .
127(6) . . .
142(6) . . .
154(6) . . .
160(7) . . .
146(7) . . .
149(7) . . .
169(7) . . .
140(6) . . .
138(7) . . .
167(7) . . .
142(6) . . .
135(6) . . .
154(6) . . .
135(6) . . .
144(7) . . .
136(6) . . .
163(7) . . .
139(6) . . .
151(7) . . .
134(6) . . .
140(6) . . .
118(6) . . .
137(6) . . .
145(6) . . .
137(6) . . .
150(7) . . .
151(6) . . .
140(6) . . .
153(7) . . .
134(6) . . .
147(6) . . .
151(6) . . .
145(6) . . .
128(6) . . .
138(6) . . .
137(6) . . .
159(7) . . .
150(6) . . .
132(6) . . .
144(7) . . .
152(6) . . .
143(6) . . .
157(7) . . .
153(7) . . .
148(7) . . .
158(7) . . .
156(7) . . .
143(6) . . .
150(7) . . .
135(6) . . .
152(6) . . .
134(6) . . .
136(6) . . .
140(7) . . .
147(7) . . .
152(6) . . .
150(6) . . .
134(6) . . .
148(7) . . .
145(6) . . .
149(6) . . .
152(6) . . .
143(6) . . .
146(7) . . .
161(7) . . .
148(6) . . .
144(6) . . .
145(6) . . .
143(7) . . .
154(7) . . .
147(6) . . .
168(7) . . .
157(7) . . .
138(7) . . .
139(6) . . .
140(6) . . .
141(6) . . .
152(7) . . .
143(7) . . .
154(7) . . .
141(6) . . .
148(6) . . .
149(7) . . .
139(6) . . .
145(6) . . .
133(6) . . .
159(7) . . .
161(7) . . .
147(7) . . .
138(6) . . .
153(6) . . .
151(6) . . .
130(6) . . .
126(6) . . .
136(6) . . .
136(6) . . .
135(6) . . .
129(6) . . .
130(6) . . .
145(6) . . .
146(6) . . .
156(7) . . .
148(7) . . .
136(6) . . .
140(6) . . .
147(6) . . .
141(6) . . .
141(7) . . .
137(6) . . .
141(6) . . .
160(7) . . .
159(7) . . .
167(7) . . .
151(7) . . .
153(6) . . .
147(6) . . .
161(7) . . .
136(6) . . .
161(7) . . .
163(7) . . .
148(6) . . .
151(7) . . .
143(6) . . .
150(7) . . .
155(6) . . .
145(6) . . .
155(7) . . .
127(6) . . .
150(7) . . .
140(6) . . .
152(7) . . .
140(6) . . .
146(7) . . .
143(6) . . .
143(6) . . .
141(6) . . .
158(7) . . .
152(7) . . .
137(6) . . .
142(6) . . .
148(7) . . .
151(7) . . .
142(7) . . .
138(6) . . .
147(6) . . .
131(6) . . .
132(6) . . .
145(7) . . .
148(6) . . .
132(6) . . .
145(6) . . .
137(6) . . .
147(7) . . .
155(6) . . .
156(7) . . .
134(6) . . .
132(6) . . .
128(6) . . .
130(6) . . .
144(6) . . .
128(6) . . .
146(6) . . .
139(6) . . .
147(6) . . .
147(6) . . .
158(7) . . .
151(7) . . .
144(6) . . .
136(6) . . .
144(6) . . .
128(6) . . .
132(6) . . .
126(6) . . .
157(7) . . .
156(7) . . .
151(7) . . .
136(6) . . .
140(7) . . .
144(6) . . .
134(6) . . .
142(6) . . .
148(6) . . .
147(6) . . .
136(6) . . .
140(6) . . .
147(7) . . .
142(7) . . .
139(6) . . .
145(6) . . .
149(6) . . .
149(6) . . .
164(7) . . .
150(6) . . .
141(6) . . .
141(6) . . .
135(6) . . .
138(6) . . .
154(7) . . .
150(6) . . .
139(6) . . .
144(7) . . .
158(7) . . .
154(6) . . .
148(6) . . .
139(6) . . .
132(6) . . .
138(6) . . .
137(6) . . .
150(6) . . .
150(7) . . .
153(7) . . .
155(7) . . .
160(7) . . .
142(6) . . .
156(7) . . .
155(7) . . .
142(6) . . .
154(6) . . .
137(6) . . .
150(7) . . .
149(7) . . .
150(7) . . .
151(7) . . .
141(6) . . .
145(6) . . .
153(7) . . .
149(7) . . .
142(6) . . .
138(6) . . .
141(6) . . .
145(7) . . .
164(7) . . .
134(6) . . .
150(6) . . .
150(7) . . .
149(7) . . .
130(6) . . .
153(6) . . .
159(7) . . .
150(7) . . .
135(6) . . .
144(6) . . .
148(6) . . .
156(7) . . .
161(7) . . .
143(6) . . .
144(6) . . .
168(7) . . .
163(7) . . .
135(6) . . .
150(7) . . .
152(7) . . .
139(6) . . .
149(6) . . .
134(6) . . .
137(6) . . .
133(6) . . .
145(6) . . .
132(6) . . .
138(7) . . .
145(6) . . .
165(7) . . .
159(7) . . .
132(6) . . .
159(7) . . .
164(7) . . .
135(6) . . .
139(6) . . .
143(6) . . .
148(7) . . .
151(7) . . .
146(6) . . .
134(6) . . .
126(6) . . .
121(6) . . .
139(6) . . .
133(6) . . .
144(6) . . .
153(7) . . .
129(6) . . .
140(7) . . .
138(6) . . .
140(6) . . .
141(6) . . .
140(6) . . .
141(6) . . .
132(6) . . .
159(7) . . .
137(6) . . .
140(7) . . .
138(6) . . .
150(6) . . .
149(6) . . .
146(7) . . .
144(6) . . .
160(7) . . .
154(6) . . .
141(6) . . .
147(7) . . .
157(7) . . .
136(6) . . .
159(7) . . .
161(7) . . .
132(6) . . .
141(6) . . .
151(6) . . .
150(6) . . .
157(7) . . .
164(7) . . .
159(7) . . .
140(6) . . .
144(6) . . .
163(7) . . .
146(6) . . .
160(7) . . .
150(6) . . .
143(6) . . .
163(7) . . .
154(7) . . .
181(7) . . .
141(6) . . .
155(6) . . .
143(6) . . .
151(7) . . .
148(6) . . .
144(6) . . .
164(7) . . .
144(6) . . .
150(7) . . .
140(6) . . .
156(6) . . .
151(6) . . .
150(6) . . .
150(7) . . .
169(7) . . .
153(6) . . .
148(7) . . .
138(7) . . .
134(6) . . .
150(7) . . .
153(6) . . .
151(7) . . .
155(7) . . .
149(7) . . .
128(6) . . .
153(6) . . .
152(7) . . .
164(7) . . .
152(7) . . .
153(7) . . .
159(7) . . .
152(7) . . .
147(7) . . .
149(7) . . .
136(6) . . .
158(7) . . .
139(6) . . .
162(7) . . .
157(7) . . .
157(7) . . .
148(6) . . .
136(6) . . .
137(6) . . .
153(7) . . .
134(6) . . .
127(6) . . .
144(7) . . .
144(7) . . .
160(7) . . .
134(6) . . .
162(7) . . .
142(6) . . .
149(7) . . .
152(7) . . .
139(6) . . .
145(6) . . .
147(6) . . .
158(7) . . .
175(7) . . .
155(6) . . .
174(7) . . .
167(7) . . .
161(7) . . .
166(7) . . .
157(6) . . .
161(7) . . .
170(7) . . .
166(7) . . .
163(7) . . .
167(7) . . .
156(7) . . .
139(6) . . .
167(7) . . .
171(7) . . .
144(6) . . .
161(7) . . .
154(7) . . .
136(6) . . .
159(7) . . .
154(6) . . .
154(7) . . .
165(7) . . .
164(7) . . .
169(7) . . .
142(6) . . .
153(7) . . .
142(6) . . .
151(7) . . .
142(6) . . .
156(6) . . .
153(7) . . .
147(7) . . .
163(7) . . .
162(7) . . .
151(6) . . .
149(6) . . .
153(7) . . .
152(6) . . .
156(6) . . .
141(6) . . .
149(7) . . .
154(7) . . .
141(6) . . .
150(6) . . .
151(7) . . .
162(7) . . .
180(7) . . .
165(7) . . .
146(6) . . .
160(7) . . .
157(7) . . .
156(7) . . .
146(7) . . .
142(6) . . .
141(6) . . .
146(7) . . .
145(6) . . .
155(7) . . .
142(6) . . .
156(7) . . .
166(7) . . .
157(7) . . .
155(6) . . .
158(7) . . .
157(7) . . .
167(7) . . .
137(6) . . .
147(6) . . .
147(6) . . .
152(6) . . .
162(7) . . .
161(7) . . .
174(7) . . .
171(7) . . .
153(6) . . .
146(7) . . .
155(7) . . .
157(7) . . .
152(6) . . .
159(7) . . .
146(7) . . .
157(7) . . .
164(7) . . .
158(7) . . .
158(7) . . .
163(7) . . .
142(6) . . .
150(6) . . .
154(7) . . .
176(7) . . .
167(7) . . .
140(6) . . .
149(6) . . .
150(6) . . .
174(7) . . .
141(6) . . .
148(7) . . .
152(6) . . .
163(7) . . .
170(7) . . .
147(7) . . .
149(7) . . .
148(6) . . .
157(7) . . .
159(7) . . .
163(7) . . .
165(7) . . .
186(7) . . .
165(7) . . .
162(7) . . .
156(7) . . .
178(7) . . .
162(7) . . .
164(7) . . .
187(8) . . .
177(7) . . .
160(7) . . .
168(7) . . .
152(7) . . .
172(7) . . .
165(7) . . .
165(7) . . .
138(6) . . .
152(7) . . .
147(7) . . .
159(7) . . .
165(7) . . .
146(6) . . .
159(7) . . .
158(7) . . .
163(7) . . .
164(7) . . .
166(7) . . .
172(7) . . .
143(6) . . .
152(7) . . .
134(6) . . .
156(6) . . .
167(7) . . .
152(7) . . .
155(7) . . .
152(6) . . .
163(7) . . .
150(7) . . .
138(7) . . .
137(6) . . .
142(6) . . .
146(6) . . .
142(7) . . .
150(7) . . .
139(6) . . .
159(7) . . .
159(7) . . .
146(7) . . .
135(6) . . .
154(7) . . .
159(7) . . .
139(6) . . .
150(7) . . .
138(6) . . .
160(7) . . .
137(6) . . .
143(6) . . .
154(7) . . .
158(7) . . .
173(7) . . .
158(7) . . .
152(7) . . .
136(6) . . .
137(6) . . .
139(6) . . .
147(6) . . .
160(7) . . .
141(7) . . .
149(7) . . .
159(7) . . .
158(6) . . .
161(7) . . .
145(7) . . .
143(7) . . .
140(6) . . .
163(7) . . .
150(7) . . .
157(7) . . .
139(6) . . .
139(6) . . .
154(6) . . .
156(7) . . .
136(6) . . .
145(6) . . .
147(6) . . .
161(7) . . .
169(7) . . .
156(7) . . .
138(6) . . .
162(7) . . .
139(6) . . .
151(7) . . .
163(7) . . .
138(6) . . .
147(6) . . .
151(6) . . .
137(6) . . .
158(7) . . .
160(7) . . .
148(6) . . .
130(6) . . .
152(7) . . .
143(6) . . .
170(7) . . .
155(6) . . .
136(6) . . .
147(6) . . .
135(6) . . .
133(6) . . .
148(6) . . .
145(6) . . .
156(7) . . .
140(6) . . .
137(6) . . .
145(6) . . .
163(7) . . .
156(7) . . .
148(7) . . .
148(6) . . .
141(6) . . .
149(7) . . .
156(7) . . .
142(6) . . .
159(7) . . .
149(6) . . .
153(7) . . .
147(7) . . .
145(6) . . .
151(6) . . .
146(6) . . .
156(7) . . .
155(7) . . .
130(6) . . .
160(7) . . .
153(6) . . .
152(7) . . .
154(7) . . .
133(6) . . .
152(6) . . .
154(7) . . .
149(7) . . .
157(7) . . .
144(7) . . .
148(6) . . .
163(7) . . .
153(7) . . .
138(6) . . .
145(7) . . .
158(7) . . .
160(7) . . .
184(7) . . .
158(7) . . .
158(7) . . .
153(6) . . .
147(6) . . .
155(7) . . .
137(6) . . .
152(7) . . .
149(6) . . .
164(7) . . .
174(7) . . .
146(7) . . .
149(6) . . .
156(6) . . .
160(7) . . .
160(7) . . .
158(7) . . .
156(7) . . .
167(7) . . .
154(7) . . .
168(7) . . .
156(7) . . .
157(7) . . .
145(6) . . .
136(6) . . .
143(7) . . .
164(7) . . .
156(7) . . .
134(6) . . .
128(6) . . .
130(6) . . .
151(7) . . .
153(6) . . .
165(7) . . .
147(6) . . .
141(7) . . .
154(7) . . .
140(6) . . .
141(6) . . .
161(7) . . .
136(6) . . .
130(6) . . .
143(6) . . .
132(6) . . .
132(6) . . .
137(6) . . .
140(6) . . .
140(6) . . .
164(7) . . .
164(7) . . .
148(6) . . .
157(7) . . .
142(6) . . .
156(7) . . .
151(7) . . .
139(6) . . .
141(6) . . .
132(6) . . .
147(7) . . .
148(7) . . .
147(7) . . .
150(7) . . .
145(6) . . .
157(7) . . .
157(7) . . .
137(6) . . .
150(7) . . .
149(6) . . .
159(7) . . .
142(7) . . .
147(7) . . .
157(7) . . .
144(6) . . .
146(6) . . .
167(7) . . .
149(6) . . .
144(6) . . .
156(6) . . .
136(6) . . .
138(7) . . .
148(6) . . .
155(7) . . .
153(6) . . .
153(7) . . .
158(7) . . .
152(7) . . .
143(6) . . .
155(6) . . .
158(7) . . .
167(7) . . .
156(7) . . .
152(6) . . .
156(6) . . .
174(7) . . .
152(7) . . .
161(7) . . .
162(7) . . .
156(7) . . .
166(7) . . .
164(7) . . .
149(7) . . .
165(7) . . .
144(6) . . .
148(7) . . .
149(7) . . .
160(7) . . .
145(6) . . .
133(6) . . .
133(6) . . .
154(7) . . .
138(6) . . .
144(6) . . .
145(6) . . .
145(7) . . .
136(6) . . .
141(6) . . .
159(7) . . .
153(7) . . .
154(7) . . .
152(7) . . .
141(6) . . .
138(6) . . .
137(6) . . .
140(6) . . .
131(6) . . .
122(6) . . .
155(6) . . .
140(6) . . .
142(7) . . .
133(6) . . .
141(6) . . .
153(6) . . .
151(6) . . .
147(7) . . .
157(7) . . .
155(6) . . .
144(6) . . .
127(6) . . .
142(7) . . .
165(7) . . .
147(6) . . .
141(6) . . .
144(6) . . .
127(6) . . .
138(6) . . .
143(6) . . .
159(7) . . .
152(7) . . .
137(6) . . .
136(6) . . .
137(6) . . .
151(6) . . .
143(7) . . .
142(6) . . .
142(6) . . .
138(6) . . .
134(6) . . .
138(6) . . .
155(7) . . .
147(7) . . .
157(6) . . .
147(6) . . .
140(6) . . .
165(7) . . .
147(6) . . .
143(6) . . .
147(7) . . .
134(6) . . .
149(7) . . .
139(6) . . .
143(6) . . .
151(7) . . .
155(7) . . .
131(6) . . .
150(6) . . .
152(6) . . .
156(7) . . .
149(7) . . .
143(6) . . .
155(7) . . .
156(6) . . .
150(6) . . .
146(7) . . .
147(7) . . .
150(6) . . .
150(6) . . .
138(6) . . .
135(6) . . .
150(7) . . .
154(6) . . .
154(7) . . .
124(6) . . .
135(7) . . .
150(7) . . .
158(7) . . .
151(6) . . .
140(6) . . .
153(7) . . .
144(7) . . .
139(6) . . .
155(6) . . .
151(7) . . .
172(7) . . .
158(7) . . .
154(6) . . .
163(7) . . .
171(7) . . .
167(7) . . .
164(7) . . .
156(7) . . .
131(6) . . .
148(7) . . .
156(7) . . .
140(6) . . .
125(6) . . .
147(7) . . .
146(7) . . .
126(6) . . .
129(6) . . .
153(6) . . .
153(7) . . .
157(7) . . .
154(6) . . .
144(6) . . .
140(6) . . .
138(6) . . .
136(6) . . .
152(7) . . .
166(7) . . .
131(6) . . .
143(7) . . .
138(6) . . .
153(7) . . .
143(6) . . .
145(6) . . .
151(7) . . .
137(6) . . .
148(7) . . .
145(6) . . .
138(6) . . .
152(7) . . .
161(7) . . .
151(6) . . .
145(6) . . .
155(6) . . .
140(6) . . .
158(7) . . .
149(6) . . .
141(6) . . .
158(7) . . .
165(7) . . .
155(7) . . .
151(7) . . .
164(7) . . .
167(7) . . .
147(7) . . .
150(7) . . .
138(6) . . .
142(6) . . .
147(6) . . .
159(7) . . .
142(6) . . .
148(6) . . .
157(6) . . .
161(7) . . .
143(7) . . .
160(7) . . .
159(7) . . .
129(6) . . .
144(6) . . .
144(7) . . .
149(7) . . .
153(6) . . .
158(7) . . .
144(6) . . .
136(6) . . .
160(7) . . .
150(6) . . .
134(6) . . .
151(7) . . .
157(7) . . .
162(7) . . .
164(7) . . .
174(7) . . .
171(7) . . .
165(7) . . .
165(7) . . .
144(6) . . .
153(6) . . .
183(7) . . .
164(7) . . .
167(7) . . .
161(7) . . .
152(6) . . .
139(6) . . .
152(7) . . .
146(7) . . .
141(6) . . .
136(6) . . .
148(7) . . .
135(6) . . .
142(6) . . .
148(6) . . .
159(7) . . .
139(6) . . .
159(7) . . .
148(6) . . .
148(6) . . .
159(7) . . .
150(6) . . .
150(7) . . .
140(6) . . .
144(6) . . .
138(6) . . .
138(6) . . .
138(6) . . .
147(6) . . .
158(7) . . .
159(7) . . .
153(7) . . .
168(7) . . .
160(7) . . .
164(7) . . .
146(6) . . .
145(7) . . .
150(7) . . .
158(7) . . .
131(6) . . .
146(7) . . .
144(7) . . .
161(7) . . .
159(7) . . .
142(6) . . .
154(7) . . .
146(7) . . .
148(6) . . .
156(6) . . .
165(7) . . .
144(6) . . .
151(7) . . .
153(7) . . .
140(6) . . .
155(6) . . .
177(7) . . .
144(6) . . .
148(7) . . .
134(6) . . .
143(6) . . .
134(6) . . .
139(6) . . .
135(6) . . .
142(6) . . .
136(6) . . .
142(7) . . .
144(7) . . .
147(7) . . .
145(6) . . .
150(6) . . .
138(6) . . .
145(7) . . .
148(6) . . .
148(6) . . .
148(6) . . .
154(7) . . .
144(6) . . .
158(7) . . .
162(7) . . .
136(6) . . .
161(7) . . .
156(7) . . .
146(6) . . .
145(6) . . .
152(7) . . .
158(7) . . .
143(6) . . .
161(7) . . .
143(6) . . .
142(6) . . .
143(7) . . .
144(6) . . .
146(6) . . .
142(6) . . .
150(7) . . .
143(7) . . .
164(7) . . .
149(6) . . .
150(6) . . .
165(7) . . .
157(7) . . .
151(7) . . .
152(6) . . .
154(7) . . .
138(6) . . .
161(7) . . .
174(7) . . .
148(6) . . .
156(7) . . .
150(6) . . .
151(7) . . .
172(7) . . .
134(6) . . .
140(6) . . .
133(6) . . .
140(7) . . .
134(6) . . .
128(6) . . .
157(7) . . .
141(6) . . .
142(6) . . .
142(6) . . .
137(6) . . .
142(6) . . .
153(7) . . .
135(6) . . .
151(7) . . .
131(6) . . .
152(7) . . .
157(7) . . .
158(7) . . .
160(7) . . .
151(6) . . .
155(7) . . .
155(7) . . .
149(7) . . .
143(6) . . .
145(6) . . .
143(7) . . .
140(6) . . .
151(7) . . .
150(6) . . .
132(6) . . .
131(6) . . .
148(7) . . .
144(6) . . .
137(6) . . .
134(6) . . .
150(7) . . .
151(7) . . .
153(7) . . .
151(6) . . .
159(7) . . .
131(6) . . .
148(7) . . .
141(6) . . .
150(6) . . .
140(6) . . .
158(7) . . .
143(6) . . .
147(7) . . .
149(6) . . .
162(7) . . .
140(7) . . .
136(6) . . .
148(7) . . .
144(6) . . .
157(7) . . .
165(7) . . .
148(7) . . .
143(6) . . .
148(6) . . .
143(6) . . .
156(7) . . .
146(7) . . .
155(7) . . .
152(6) . . .
148(6) . . .
150(7) . . .
148(6) . . .
174(7) . . .
154(6) . . .
159(7) . . .
162(7) . . .
153(7) . . .
156(7) . . .
156(6) . . .
157(7) . . .
167(7) . . .
136(6) . . .
170(7) . . .
169(7) . . .
153(7) . . .
150(7) . . .
175(7) . . .
180(7) . . .
164(7) . . .
144(6) . . .
152(7) . . .
166(7) . . .
140(6) . . .
153(6) . . .
152(7) . . .
151(7) . . .
169(7) . . .
161(7) . . .
160(7) . . .
133(6) . . .
140(6) . . .
183(7) . . .
162(7) . . .
148(6) . . .
147(6) . . .
151(7) . . .
162(7) . . .
160(7) . . .
148(6) . . .
165(7) . . .
156(7) . . .
151(7) . . .
143(6) . . .
159(7) . . .
154(7) . . .
153(7) . . .
157(7) . . .
141(6) . . .
146(6) . . .
146(6) . . .
142(6) . . .
160(7) . . .
144(6) . . .
156(7) . . .
142(6) . . .
145(6) . . .
153(7) . . .
158(6) . . .
156(7) . . .
151(7) . . .
141(7) . . .
140(6) . . .
155(6) . . .
137(6) . . .
140(7) . . .
152(7) . . .
148(6) . . .
138(6) . . .
138(6) . . .
145(7) . . .
151(7) . . .
156(6) . . .
154(6) . . .
156(7) . . .
147(7) . . .
134(6) . . .
137(6) . . .
142(6) . . .
145(7) . . .
145(6) . . .
146(7) . . .
144(6) . . .
139(6) . . .
140(6) . . .
137(6) . . .
151(7) . . .
136(6) . . .
154(7) . . .
158(7) . . .
137(6) . . .
152(7) . . .
165(7) . . .
148(6) . . .
147(6) . . .
164(7) . . .
151(6) . . .
150(6) . . .
159(7) . . .
146(7) . . .
149(7) . . .
158(7) . . .
136(6) . . .
153(7) . . .
141(6) . . .
135(6) . . .
162(7) . . .
144(6) . . .
141(6) . . .
143(7) . . .
154(7) . . .
139(6) . . .
151(6) . . .
147(7) . . .
151(7) . . .
143(6) . . .
152(6) . . .
164(7) . . .
147(7) . . .
150(7) . . .
138(6) . . .
136(6) . . .
143(6) . . .
142(6) . . .
150(7) . . .
136(6) . . .
160(7) . . .
159(7) . . .
144(6) . . .
156(7) . . .
162(7) . . .
149(6) . . .
146(6) . . .
137(6) . . .
152(7) . . .
145(6) . . .
155(7) . . .
151(6) . . .
146(6) . . .
146(7) . . .
161(7) . . .
139(6) . . .
151(7) . . .
142(6) . . .
161(7) . . .
136(6) . . .
144(6) . . .
148(6) . . .
150(7) . . .
183(7) . . .
149(6) . . .
141(6) . . .
148(6) . . .
160(7) . . .
146(7) . . .
150(7) . . .
150(6) . . .
154(7) . . .
145(7) . . .
147(6) . . .
154(6) . . .
142(6) . . .
127(6) . . .
156(7) . . .
155(7) . . .
161(7) . . .
150(6) . . .
167(7) . . .
156(7) . . .
153(7) . . .
140(6) . . .
154(7) . . .
159(7) . . .
152(7) . . .
153(7) . . .
143(6) . . .
141(6) . . .
141(6) . . .
156(7) . . .
143(7) . . .
159(7) . . .
147(6) . . .
156(7) . . .
172(7) . . .
140(6) . . .
119(6) . . .
148(6) . . .
151(7) . . .
149(7) . . .
160(7) . . .
155(6) . . .
152(6) . . .
150(6) . . .
143(6) . . .
144(6) . . .
141(6) . . .
142(6) . . .
158(7) . . .
154(7) . . .
140(6) . . .
156(6) . . .
147(7) . . .
142(7) . . .
128(6) . . .
141(6) . . .
147(6) . . .
134(6) . . .
134(6) . . .
152(7) . . .
152(7) . . .
152(6) . . .
140(6) . . .
147(7) . . .
136(6) . . .
143(6) . . .
156(6) . . .
146(6) . . .
143(7) . . .
151(7) . . .
157(7) . . .
130(6) . . .
144(6) . . .
148(7) . . .
138(6) . . .
142(6) . . .
131(6) . . .
154(7) . . .
138(6) . . .
163(7) . . .
155(7) . . .
161(7) . . .
140(6) . . .
150(7) . . .
142(6) . . .
134(6) . . .
136(6) . . .
139(6) . . .
131(6) . . .
150(6) . . .
150(6) . . .
136(6) . . .
165(7) . . .
147(7) . . .
141(6) . . .
151(6) . . .
150(7) . . .
143(7) . . .
154(7) . . .
126(6) . . .
148(6) . . .
148(6) . . .
137(6) . . .
143(7) . . .
142(6) . . .
140(6) . . .
130(6) . . .
139(7) . . .
138(6) . . .
143(6) . . .
141(6) . . .
141(6) . . .
151(7) . . .
145(6) . . .
149(6) . . .
159(7) . . .
146(7) . . .
134(6) . . .
154(7) . . .
153(7) . . .
167(7) . . .
166(7) . . .
145(7) . . .
154(7) . . .
138(6) . . .
138(6) . . .
146(6) . . .
145(7) . . .
147(6) . . .
145(6) . . .
144(6) . . .
143(6) . . .
146(7) . . .
161(7) . . .
155(6) . . .
144(6) . . .
151(7) . . .
170(7) . . .
155(7) . . .
129(6) . . .
134(6) . . .
143(6) . . .
138(6) . . .
161(7) . . .
177(7) . . .
147(6) . . .
152(7) . . .
143(6) . . .
149(6) . . .
155(6) . . .
154(7) . . .
148(7) . . .
146(7) . . .
146(6) . . .
142(6) . . .
137(6) . . .
160(7) . . .
126(6) . . .
143(6) . . .
141(6) . . .
150(7) . . .
141(6) . . .
147(7) . . .
131(6) . . .
152(6) . . .
147(7) . . .
141(7) . . .
135(6) . . .
143(6) . . .
141(6) . . .
135(6) . . .
152(7) . . .
163(7) . . .
150(6) . . .
153(6) . . .
159(7) . . .
140(6) . . .
143(6) . . .
143(6) . . .
144(6) . . .
128(6) . . .
143(7) . . .
173(7) . . .
139(6) . . .
156(7) . . .
148(7) . . .
139(6) . . .
140(6) . . .
174(7) . . .
158(7) . . .
157(7) . . .
160(7) . . .
146(7) . . .
147(6) . . .
147(7) . . .
149(7) . . .
138(6) . . .
158(7) . . .
151(6) . . .
140(6) . . .
163(7) . . .
133(6) . . .
152(6) . . .
139(6) . . .
149(7) . . .
146(7) . . .
146(7) . . .
131(6) . . .
139(6) . . .
146(7) . . .
169(7) . . .
175(7) . . .
144(6) . . .
142(6) . . .
173(7) . . .
149(7) . . .
140(6) . . .
153(6) . . .
141(6) . . .
162(7) . . .
137(6) . . .
140(6) . . .
139(6) . . .
147(6) . . .
142(6) . . .
152(7) . . .
157(7) . . .
136(6) . . .
141(6) . . .
162(7) . . .
138(6) . . .
150(7) . . .
143(6) . . .
150(6) . . .
155(7) . . .
166(7) . . .
152(7) . . .
140(6) . . .
140(6) . . .
156(7) . . .
153(7) . . .
152(7) . . .
155(7) . . .
141(6) . . .
144(6) . . .
133(6) . . .
136(6) . . .
158(7) . . .
150(6) . . .
138(6) . . .
127(6) . . .
132(6) . . .
141(6) . . .
143(7) . . .
149(7) . . .
152(7) . . .
134(6) . . .
141(6) . . .
149(7) . . .
149(7) . . .
176(7) . . .
135(6) . . .
138(6) . . .
151(7) . . .
124(6) . . .
140(6) . . .
135(6) . . .
156(7) . . .
162(7) . . .
146(7) . . .
143(6) . . .
150(6) . . .
131(6) . . .
129(6) . . .
143(7) . . .
142(7) . . .
149(6) . . .
145(6) . . .
135(6) . . .
147(7) . . .
137(6) . . .
138(6) . . .
142(6) . . .
144(6) . . .
135(6) . . .
151(7) . . .
160(7) . . .
142(6) . . .
128(6) . . .
144(7) . . .
151(7) . . .
122(6) . . .
145(6) . . .
149(7) . . .
146(7) . . .
143(6) . . .
155(6) . . .
138(6) . . .
135(6) . . .
146(7) . . .
133(6) . . .
147(6) . . .
140(6) . . .
151(7) . . .
143(6) . . .
162(7) . . .
142(6) . . .
151(7) . . .
168(7) . . .
148(6) . . .
153(6) . . .
152(6) . . .
137(6) . . .
157(7) . . .
139(6) . . .
154(6) . . .
150(6) . . .
147(7) . . .
146(7) . . .
145(6) . . .
141(6) . . .
134(6) . . .
142(6) . . .
136(6) . . .
151(7) . . .
149(6) . . .
147(6) . . .
154(7) . . .
144(7) . . .
126(6) . . .
147(6) . . .
147(6) . . .
143(7) . . .
141(7) . . .
157(7) . . .
156(6) . . .
148(6) . . .
146(7) . . .
150(7) . . .
150(7) . . .
149(6) . . .
160(7) . . .
151(7) . . .
129(6) . . .
143(7) . . .
135(6) . . .
153(7) . . .
149(7) . . .
147(7) . . .
129(6) . . .
140(6) . . .
152(7) . . .
143(7) . . .
136(6) . . .
149(7) . . .
147(6) . . .
152(7) . . .
145(7) . . .
130(6) . . .
157(7) . . .
146(6) . . .
147(6) . . .
140(6) . . .
146(6) . . .
138(6) . . .
134(6) . . .
151(6) . . .
146(7) . . .
153(7) . . .
152(6) . . .
136(6) . . .
131(6) . . .
157(7) . . .
152(6) . . .
148(6) . . .
158(7) . . .
152(7) . . .
143(7) . . .
129(6) . . .
150(6) . . .
164(7) . . .
167(7) . . .
147(6) . . .
163(7) . . .
167(7) . . .
152(6) . . .
151(7) . . .
136(6) . . .
147(7) . . .
141(6) . . .
149(7) . . .
139(6) . . .
127(6) . . .
133(6) . . .
166(7) . . .
137(6) . . .
147(7) . . .
135(6) . . .
145(7) . . .
135(6) . . .
142(6) . . .
145(7) . . .
150(7) . . .
151(6) . . .
164(7) . . .
153(7) . . .
155(7) . . .
150(7) . . .
156(7) . . .
175(7) . . .
155(7) . . .
151(7) . . .
147(7) . . .
140(6) . . .
131(6) . . .
130(6) . . .
150(7) . . .
166(7) . . .
146(6) . . .
160(7) . . .
145(6) . . .
148(7) . . .
135(6) . . .
151(6) . . .
155(6) . . .
140(6) . . .
137(7) . . .
142(6) . . .
140(6) . . .
126(6) . . .
140(6) . . .
153(7) . . .
141(6) . . .
143(6) . . .
144(6) . . .
143(7) . . .
134(6) . . .
151(7) . . .
128(6) . . .
162(7) . . .
144(6) . . .
142(6) . . .
137(6) . . .
141(6) . . .
153(7) . . .
139(6) . . .
139(6) . . .
144(7) . . .
152(6) . . .
144(6) . . .
150(7) . . .
151(7) . . .
137(6) . . .
143(6) . . .
151(7) . . .
154(7) . . .
166(7) . . .
158(7) . . .
159(7) . . .
140(6) . . .
151(7) . . .
152(7) . . .
148(6) . . .
165(7) . . .
153(7) . . .
147(7) . . .
153(7) . . .
156(7) . . .
149(6) . . .
160(7) . . .
144(6) . . .
140(6) . . .
136(6) . . .
150(6) . . .
166(7) . . .
148(7) . . .
131(6) . . .
166(7) . . .
144(6) . . .
143(6) . . .
166(7) . . .
161(7) . . .
152(6) . . .
164(7) . . .
142(6) . . .
129(6) . . .
133(6) . . .
131(6) . . .
149(6) . . .
137(6) . . .
135(6) . . .
140(6) . . .
155(6) . . .
146(6) . . .
156(7) . . .
147(6) . . .
147(7) . . .
146(6) . . .
133(6) . . .
140(7) . . .
149(7) . . .
147(7) . . .
152(6) . . .
157(7) . . .
145(7) . . .
150(7) . . .
147(6) . . .
149(6) . . .
148(7) . . .
147(7) . . .
150(7) . . .
152(7) . . .
133(6) . . .
142(6) . . .
149(7) . . .
146(7) . . .
123(6) . . .
143(6) . . .
147(7) . . .
150(7) . . .
152(7) . . .
152(6) . . .
140(6) . . .
140(6) . . .
136(6) . . .
153(6) . . .
164(7) . . .
152(6) . . .
164(7) . . .
144(7) . . .
130(6) . . .
148(6) . . .
135(6) . . .
137(6) . . .
137(6) . . .
151(7) . . .
144(6) . . .
158(7) . . .
137(6) . . .
151(7) . . .
125(6) . . .
149(6) . . .
166(7) . . .
144(6) . . .
157(7) . . .
144(6) . . .
134(6) . . .
145(6) . . .
151(7) . . .
154(7) . . .
137(6) . . .
144(6) . . .
145(7) . . .
136(6) . . .
146(6) . . .
149(6) . . .
137(6) . . .
131(6) . . .
140(6) . . .
145(6) . . .
154(7) . . .
155(7) . . .
136(6) . . .
147(7) . . .
169(7) . . .
150(6) . . .
133(6) . . .
154(7) . . .
156(7) . . .
142(7) . . .
135(6) . . .
141(6) . . .
141(6) . . .
139(7) . . .
144(6) . . .
145(6) . . .
131(6) . . .
147(7) . . .
126(6) . . .
141(6) . . .
147(6) . . .
154(6) . . .
162(7) . . .
147(7) . . .
138(6) . . .
143(6) . . .
160(7) . . .
143(7) . . .
159(7) . . .
158(7) . . .
154(6) . . .
154(7) . . .
154(7) . . .
154(7) . . .
149(7) . . .
152(6) . . .
151(6) . . .
144(6) . . .
141(6) . . .
136(6) . . .
157(7) . . .
145(6) . . .
154(7) . . .
134(6) . . .
153(7) . . .
149(6) . . .
148(7) . . .
153(7) . . .
140(6) . . .
145(6) . . .
129(6) . . .
152(7) . . .
156(7) . . .
134(6) . . .
162(7) . . .
154(6) . . .
142(6) . . .
150(7) . . .
148(7) . . .
131(6) . . .
141(6) . . .
152(7) . . .
141(7) . . .
143(6) . . .
143(6) . . .
148(6) . . .
147(7) . . .
149(7) . . .
165(7) . . .
152(7) . . .
149(6) . . .
148(6) . . .
144(7) . . .
146(6) . . .
146(6) . . .
142(6) . . .
134(6) . . .
158(7) . . .
151(7) . . .
154(6) . . .
121(6) . . .
121(6) . . .
132(6) . . .
165(7) . . .
147(6) . . .
150(6) . . .
129(6) . . .
140(6) . . .
146(7) . . .
163(7) . . .
154(7) . . .
145(7) . . .
138(6) . . .
134(6) . . .
140(6) . . .
155(7) . . .
155(7) . . .
142(6) . . .
145(6) . . .
134(6) . . .
145(7) . . .
150(7) . . .
146(7) . . .
128(6) . . .
146(6) . . .
142(6) . . .
148(7) . . .
147(7) . . .
143(6) . . .
136(6) . . .
152(7) . . .
160(7) . . .
150(6) . . .
127(6) . . .
133(6) . . .
134(6) . . .
137(6) . . .
138(6) . . .
131(6) . . .
137(6) . . .
155(7) . . .
133(6) . . .
140(6) . . .
134(6) . . .
122(6) . . .
137(6) . . .
150(7) . . .
137(6) . . .
151(6) . . .
143(6) . . .
140(6) . . .
139(6) . . .
143(6) . . .
140(6) . . .
151(6) . . .
146(7) . . .
152(7) . . .
133(6) . . .
137(6) . . .
155(7) . . .
138(6) . . .
135(6) . . .
155(7) . . .
145(6) . . .
130(6) . . .
142(7) . . .
142(7) . . .
135(6) . . .
136(6) . . .
160(7) . . .
137(6) . . .
134(6) . . .
124(6) . . .
152(6) . . .
148(6) . . .
142(7) . . .
148(7) . . .
140(6) . . .
146(6) . . .
146(7) . . .
138(7) . . .
141(7) . . .
137(6) . . .
140(6) . . .
129(6) . . .
136(7) . . .
134(6) . . .
150(6) . . .
148(6) . . .
152(7) . . .
138(7) . . .
143(6) . . .
143(6) . . .
157(7) . . .
143(6) . . .
148(7) . . .
120(6) . . .
141(6) . . .
135(6) . . .
145(6) . . .
130(6) . . .
151(7) . . .
163(7) . . .
144(6) . . .
152(7) . . .
156(7) . . .
147(7) . . .
149(6) . . .
148(6) . . .
147(6) . . .
141(6) . . .
144(7) . . .
140(6) . . .
142(6) . . .
137(6) . . .
139(7) . . .
123(6) . . .
133(6) . . .
130(6) . . .
121(6) . . .
138(6) . . .
150(6) . . .
144(6) . . .
138(6) . . .
141(7) . . .
148(7) . . .
145(6) . . .
140(6) . . .
130(6) . . .
135(6) . . .
155(7) . . .
144(6) . . .
147(6) . . .
128(6) . . .
130(6) . . .
134(6) . . .
148(6) . . .
138(6) . . .
138(6) . . .
128(6) . . .
129(6) . . .
139(6) . . .
128(6) . . .
143(6) . . .
140(7) . . .
132(6) . . .
136(6) . . .
136(6) . . .
136(6) . . .
140(7) . . .
139(6) . . .
136(6) . . .
132(6) . . .
143(7) . . .
131(6) . . .
147(7) . . .
140(6) . . .
147(6) . . .
131(6) . . .
140(6) . . .
152(7) . . .
140(6) . . .
137(6) . . .
139(6) . . .
124(6) . . .
137(6) . . .
145(6) . . .
138(6) . . .
130(6) . . .
137(6) . . .
141(6) . . .
146(6) . . .
147(7) . . .
148(7) . . .
141(6) . . .
140(6) . . .
124(6) . . .
130(6) . . .
152(7) . . .
136(6) . . .
148(6) . . .
127(6) . . .
131(6) . . .
132(6) . . .
131(6) . . .
132(6) . . .
129(6) . . .
130(6) . . .
139(6) . . .
131(6) . . .
134(6) . . .
125(6) . . .
151(7) . . .
146(7) . . .
142(6) . . .
137(6) . . .
137(6) . . .
137(6) . . .
151(7) . . .
129(6) . . .
136(6) . . .
140(6) . . .
146(6) . . .
126(6) . . .
134(6) . . .
133(6) . . .
141(6) . . .
132(6) . . .
139(6) . . .
139(6) . . .
134(6) . . .
132(6) . . .
141(6) . . .
156(7) . . .
152(6) . . .
154(6) . . .
141(6) . . .
135(6) . . .
136(6) . . .
137(6) . . .
127(6) . . .
133(6) . . .
152(7) . . .
147(7) . . .
142(6) . . .
151(6) . . .
144(6) . . .
135(6) . . .
116(6) . . .
137(6) . . .
129(6) . . .
151(7) . . .
137(6) . . .
134(6) . . .
128(6) . . .
125(6) . . .
139(6) . . .
149(7) . . .
139(6) . . .
131(6) . . .
146(6) . . .
135(6) . . .
135(6) . . .
154(7) . . .
134(6) . . .
133(6) . . .
148(7) . . .
147(7) . . .
150(7) . . .
145(6) . . .
164(7) . . .
136(6) . . .
149(6) . . .
141(6) . . .
140(6) . . .
143(6) . . .
133(6) . . .
130(6) . . .
131(6) . . .
136(6) . . .
142(6) . . .
138(6) . . .
143(6) . . .
153(7) . . .
140(6) . . .
150(7) . . .
133(6) . . .
154(7) . . .
159(7) . . .
139(6) . . .
121(6) . . .
139(7) . . .
124(6) . . .
147(6) . . .
145(6) . . .
132(6) . . .
129(6) . . .
125(6) . . .
143(6) . . .
152(6) . . .
156(7) . . .
147(6) . . .
146(6) . . .
149(6) . . .
129(6) . . .
115(6) . . .
143(7) . . .
152(7) . . .
125(6) . . .
147(6) . . .
152(6) . . .
152(7) . . .
141(6) . . .
140(6) . . .
127(6) . . .
163(7) . . .
138(6) . . .
142(7) . . .
148(6) . . .
139(6) . . .
138(6) . . .
134(6) . . .
134(6) . . .
141(6) . . .
146(6) . . .
150(7) . . .
125(6) . . .
129(6) . . .
132(6) . . .
135(6) . . .
147(7) . . .
140(6) . . .
133(6) . . .
126(6) . . .
139(6) . . .
145(7) . . .
123(6) . . .
125(6) . . .
126(6) . . .
136(6) . . .
130(6) . . .
133(6) . . .
127(6) . . .
132(6) . . .
140(6) . . .
135(6) . . .
140(6) . . .
152(6) . . .
137(6) . . .
148(7) . . .
155(7) . . .
137(6) . . .
136(6) . . .
122(6) . . .
135(6) . . .
140(7) . . .
154(7) . . .
137(6) . . .
124(6) . . .
149(6) . . .
132(6) . . .
131(6) . . .
116(6) . . .
122(6) . . .
136(6) . . .
129(6) . . .
145(6) . . .
143(6) . . .
138(6) . . .
156(7) . . .
142(6) . . .
149(7) . . .
132(6) . . .
126(6) . . .
128(6) . . .
140(7) . . .
129(6) . . .
149(6) . . .
133(6) . . .
154(7) . . .
141(6) . . .
135(6) . . .
123(6) . . .
121(6) . . .
137(6) . . .
138(6) . . .
126(6) . . .
112(6) . . .
151(7) . . .
145(7) . . .
149(7) . . .
150(6) . . .
135(6) . . .
131(6) . . .
146(7) . . .
140(6) . . .
152(7) . . .
157(6) . . .
156(7) . . .
157(7) . . .
131(6) . . .
129(6) . . .
133(6) . . .
134(6) . . .
148(7) . . .
148(7) . . .
124(6) . . .
123(6) . . .
142(6) . . .
142(7) . . .
142(6) . . .
127(6) . . .
132(6) . . .
128(6) . . .
140(7) . . .
149(6) . . .
148(6) . . .
134(6) . . .
114(6) . . .
129(6) . . .
135(6) . . .
129(6) . . .
136(6) . . .
131(6) . . .
121(6) . . .
132(6) . . .
130(6) . . .
155(7) . . .
137(6) . . .
126(6) . . .
142(6) . . .
125(6) . . .
137(6) . . .
134(6) . . .
129(6) . . .
136(6) . . .
143(6) . . .
162(7) . . .
144(7) . . .
134(6) . . .
143(6) . . .
147(6) . . .
144(7) . . .
128(6) . . .
139(6) . . .
128(6) . . .
137(6) . . .
135(6) . . .
130(6) . . .
137(6) . . .
140(6) . . .
137(6) . . .
149(7) . . .
142(7) . . .
121(6) . . .
135(6) . . .
119(6) . . .
133(6) . . .
128(6) . . .
152(7) . . .
127(6) . . .
142(6) . . .
143(7) . . .
151(7) . . .
142(6) . . .
139(6) . . .
140(6) . . .
151(7) . . .
154(7) . . .
133(6) . . .
146(6) . . .
139(6) . . .
137(6) . . .
131(6) . . .
145(7) . . .
160(7) . . .
158(7) . . .
135(6) . . .
142(7) . . .
152(7) . . .
125(6) . . .
134(6) . . .
145(7) . . .
143(7) . . .
129(6) . . .
135(6) . . .
137(6) . . .
141(7) . . .
135(6) . . .
144(6) . . .
149(6) . . .
116(6) . . .
135(6) . . .
134(6) . . .
135(6) . . .
126(6) . . .
136(6) . . .
125(6) . . .
129(6) . . .
143(6) . . .
125(6) . . .
125(6) . . .
131(6) . . .
134(6) . . .
125(6) . . .
139(6) . . .
129(6) . . .
131(6) . . .
140(6) . . .
142(6) . . .
144(6) . . .
140(6) . . .
135(6) . . .
122(6) . . .
129(6) . . .
131(6) . . .
121(6) . . .
120(6) . . .
136(6) . . .
130(6) . . .
141(6) . . .
132(6) . . .
130(6) . . .
140(7) . . .
144(6) . . .
139(6) . . .
150(7) . . .
142(6) . . .
139(6) . . .
135(6) . . .
139(6) . . .
130(6) . . .
135(6) . . .
140(6) . . .
140(6) . . .
112(6) . . .
119(6) . . .
131(6) . . .
138(6) . . .
126(6) . . .
147(6) . . .
157(7) . . .
157(7) . . .
139(6) . . .
138(6) . . .
144(6) . . .
136(6) . . .
149(7) . . .
147(6) . . .
127(6) . . .
147(7) . . .
139(6) . . .
145(7) . . .
138(6) . . .
134(6) . . .
129(6) . . .
136(7) . . .
130(6) . . .
132(6) . . .
137(6) . . .
130(6) . . .
125(6) . . .
141(6) . . .
155(6) . . .
141(6) . . .
142(7) . . .
122(6) . . .
115(6) . . .
124(6) . . .
135(6) . . .
126(6) . . .
133(6) . . .
135(6) . . .
132(6) . . .
132(6) . . .
148(7) . . .
134(6) . . .
135(6) . . .
127(6) . . .
144(6) . . .
136(6) . . .
140(6) . . .
143(6) . . .
132(6) . . .
132(6) . . .
132(6) . . .
141(7) . . .
119(6) . . .
129(6) . . .
114(6) . . .
125(6) . . .
119(6) . . .
138(6) . . .
141(6) . . .
144(6) . . .
145(7) . . .
131(6) . . .
137(6) . . .
131(6) . . .
138(6) . . .
139(6) . . .
136(6) . . .
122(6) . . .
122(6) . . .
140(6) . . .
149(7) . . .
131(6) . . .
107(5) . . .
140(6) . . .
149(7) . . .
143(7) . . .
143(6) . . .
137(6) . . .
131(6) . . .
137(6) . . .
131(6) . . .
133(6) . . .
125(6) . . .
129(6) . . .
141(6) . . .
137(6) . . .
125(6) . . .
123(6) . . .
136(6) . . .
130(6) . . .
137(6) . . .
137(6) . . .
150(6) . . .
141(6) . . .
135(6) . . .
134(6) . . .
124(6) . . .
123(6) . . .
138(6) . . .
129(6) . . .
150(7) . . .
137(6) . . .
138(6) . . .
140(6) . . .
134(6) . . .
131(6) . . .
140(6) . . .
139(6) . . .
129(6) . . .
135(6) . . .
140(6) . . .
144(6) . . .
133(6) . . .
138(6) . . .
158(7) . . .
147(6) . . .
144(6) . . .
135(6) . . .
132(6) . . .
123(6) . . .
127(6) . . .
130(6) . . .
135(6) . . .
122(6) . . .
147(7) . . .
140(6) . . .
127(6) . . .
138(6) . . .
160(7) . . .
126(6) . . .
134(6) . . .
132(6) . . .
130(6) . . .
127(6) . . .
137(6) . . .
136(6) . . .
134(6) . . .
139(6) . . .
132(6) . . .
122(6) . . .
142(6) . . .
136(6) . . .
143(7) . . .
145(7) . . .
139(6) . . .
145(6) . . .
141(6) . . .
128(6) . . .
133(6) . . .
125(6) . . .
132(6) . . .
141(6) . . .
141(6) . . .
118(6) . . .
116(6) . . .
140(6) . . .
145(6) . . .
142(6) . . .
134(6) . . .
144(6) . . .
122(6) . . .
122(6) . . .
131(6) . . .
147(7) . . .
133(6) . . .
117(6) . . .
135(6) . . .
134(6) . . .
133(7) . . .
134(6) . . .
131(6) . . .
143(6) . . .
131(6) . . .
132(6) . . .
140(6) . . .
146(6) . . .
129(6) . . .
142(6) . . .
160(7) . . .
145(6) . . .
140(6) . . .
126(6) . . .
137(6) . . .
144(6) . . .
134(6) . . .
126(6) . . .
126(6) . . .
144(6) . . .
136(6) . . .
125(6) . . .
126(6) . . .
134(6) . . .
143(7) . . .
128(6) . . .
129(6) . . .
152(6) . . .
142(6) . . .
142(6) . . .
118(6) . . .
126(6) . . .
129(6) . . .
142(6) . . .
135(7) . . .
141(6) . . .
128(6) . . .
123(6) . . .
138(6) . . .
142(7) . . .
135(6) . . .
116(6) . . .
129(6) . . .
127(6) . . .
130(6) . . .
133(6) . . .
136(6) . . .
132(6) . . .
144(6) . . .
133(6) . . .
134(6) . . .
134(6) . . .
137(6) . . .
136(6) . . .
146(7) . . .
122(6) . . .
132(6) . . .
118(6) . . .
145(6) . . .
132(6) . . .
128(6) . . .
139(6) . . .
147(6) . . .
129(6) . . .
136(7) . . .
133(6) . . .
113(6) . . .
128(6) . . .
130(6) . . .
127(6) . . .
139(6) . . .
149(6) . . .
122(6) . . .
144(7) . . .
142(7) . . .
133(6) . . .
127(6) . . .
134(6) . . .
129(6) . . .
110(6) . . .
124(6) . . .
130(6) . . .
146(7) . . .
130(6) . . .
134(6) . . .
143(6) . . .
130(6) . . .
132(6) . . .
131(6) . . .
140(6) . . .
113(6) . . .
136(6) . . .
143(7) . . .
134(6) . . .
144(6) . . .
131(6) . . .
123(6) . . .
139(6) . . .
136(6) . . .
138(6) . . .
131(6) . . .
117(6) . . .
130(6) . . .
128(6) . . .
139(6) . . .
144(6) . . .
138(6) . . .
136(6) . . .
137(7) . . .
123(6) . . .
122(6) . . .
116(6) . . .
120(6) . . .
131(6) . . .
148(7) . . .
133(6) . . .
129(6) . . .
128(6) . . .
137(6) . . .
133(6) . . .
138(6) . . .
150(7) . . .
120(6) . . .
130(6) . . .
127(6) . . .
128(6) . . .
133(6) . . .
123(6) . . .
126(6) . . .
124(6) . . .
124(6) . . .
133(6) . . .
129(6) . . .
144(6) . . .
137(6) . . .
131(6) . . .
131(6) . . .
125(6) . . .
133(6) . . .
125(6) . . .
126(6) . . .
125(6) . . .
125(6) . . .
142(7) . . .
121(6) . . .
132(6) . . .
142(7) . . .
126(6) . . .
148(7) . . .
131(6) . . .
140(6) . . .
134(6) . . .
127(6) . . .
121(6) . . .
119(6) . . .
109(5) . . .
121(6) . . .
133(7) . . .
126(6) . . .
126(6) . . .
130(6) . . .
140(6) . . .
148(7) . . .
137(6) . . .
113(5) . . .
119(6) . . .
128(6) . . .
128(6) . . .
134(6) . . .
132(6) . . .
140(6) . . .
130(6) . . .
125(6) . . .
125(6) . . .
129(6) . . .
137(6) . . .
122(6) . . .
123(6) . . .
127(6) . . .
138(6) . . .
119(6) . . .
129(6) . . .
122(6) . . .
117(6) . . .
141(6) . . .
128(6) . . .
127(6) . . .
141(6) . . .
138(6) . . .
126(6) . . .
127(6) . . .
129(6) . . .
122(6) . . .
142(6) . . .
144(6) . . .
131(6) . . .
118(6) . . .
132(6) . . .
111(5) . . .
128(6) . . .
123(6) . . .
122(6) . . .
141(6) . . .
133(6) . . .
132(6) . . .
131(6) . . .
133(6) . . .
147(7) . . .
136(6) . . .
122(6) . . .
137(6) . . .
126(6) . . .
129(6) . . .
134(6) . . .
118(6) . . .
133(6) . . .
129(6) . . .
123(6) . . .
139(6) . . .
144(6) . . .
124(6) . . .
144(7) . . .
167(7) . . .
140(6) . . .
127(6) . . .
140(6) . . .
131(6) . . .
119(6) . . .
133(6) . . .
144(6) . . .
128(6) . . .
121(6) . . .
131(6) . . .
114(6) . . .
127(6) . . .
131(6) . . .
122(6) . . .
129(6) . . .
134(6) . . .
136(6) . . .
135(6) . . .
127(6) . . .
130(6) . . .
128(6) . . .
132(6) . . .
117(6) . . .
121(6) . . .
128(6) . . .
133(6) . . .
133(6) . . .
123(6) . . .
125(6) . . .
135(6) . . .
129(6) . . .
141(7) . . .
117(6) . . .
149(7) . . .
138(6) . . .
130(6) . . .
129(6) . . .
121(6) . . .
122(6) . . .
132(6) . . .
118(6) . . .
125(6) . . .
144(7) . . .
134(6) . . .
125(6) . . .
141(6) . . .
154(7) . . .
134(6) . . .
125(6) . . .
132(6) . . .
131(6) . . .
133(6) . . .
133(6) . . .
132(6) . . .
145(6) . . .
134(6) . . .
137(6) . . .
128(6) . . .
143(6) . . .
146(6) . . .
121(6) . . .
125(6) . . .
137(6) . . .
128(6) . . .
126(6) . . .
122(6) . . .
129(6) . . .
140(6) . . .
132(6) . . .
126(6) . . .
139(6) . . .
117(6) . . .
143(6) . . .
141(6) . . .
138(6) . . .
124(6) . . .
134(6) . . .
117(6) . . .
127(6) . . .
125(6) . . .
137(6) . . .
134(6) . . .
123(6) . . .
137(6) . . .
138(6) . . .
144(7) . . .
127(6) . . .
141(6) . . .
132(6) . . .
128(6) . . .
129(6) . . .
130(6) . . .
132(6) . . .
144(6) . . .
133(6) . . .
144(6) . . .
112(6) . . .
137(6) . . .
138(6) . . .
137(6) . . .
140(6) . . .
125(6) . . .
123(6) . . .
120(6) . . .
131(6) . . .
122(6) . . .
129(6) . . .
133(6) . . .
126(6) . . .
134(6) . . .
138(6) . . .
136(6) . . .
136(6) . . .
135(6) . . .
144(6) . . .
132(6) . . .
131(6) . . .
133(6) . . .
136(6) . . .
126(6) . . .
141(7) . . .
114(6) . . .
129(6) . . .
138(6) . . .
117(6) . . .
128(6) . . .
123(6) . . .
110(5) . . .
124(6) . . .
141(6) . . .
140(7) . . .
131(6) . . .
125(6) . . .
129(6) . . .
127(6) . . .
133(6) . . .
124(6) . . .
122(6) . . .
131(6) . . .
134(6) . . .
125(6) . . .
114(6) . . .
133(6) . . .
128(6) . . .
127(6) . . .
119(6) . . .
138(6) . . .
132(6) . . .
139(6) . . .
133(6) . . .
130(6) . . .
138(7) . . .
129(6) . . .
129(6) . . .
132(6) . . .
141(6) . . .
128(6) . . .
129(6) . . .
132(6) . . .
136(6) . . .
114(6) . . .
103(5) . . .
127(6) . . .
130(6) . . .
120(6) . . .
110(6) . . .
122(6) . . .
136(6) . . .
128(6) . . .
113(6) . . .
115(6) . . .
135(6) . . .
126(6) . . .
122(6) . . .
133(6) . . .
125(6) . . .
143(6) . . .
127(6) . . .
129(6) . . .
138(7) . . .
135(6) . . .
129(6) . . .
122(6) . . .
129(6) . . .
133(6) . . .
130(6) . . .
122(6) . . .
120(6) . . .
136(6) . . .
121(6) . . .
128(6) . . .
147(6) . . .
128(6) . . .
137(7) . . .
125(6) . . .
136(6) . . .
128(6) . . .
134(6) . . .
140(6) . . .
127(6) . . .
132(6) . . .
126(6) . . .
118(6) . . .
137(6) . . .
131(6) . . .
130(6) . . .
140(6) . . .
130(6) . . .
118(6) . . .
121(6) . . .
134(6) . . .
135(6) . . .
133(6) . . .
134(6) . . .
137(6) . . .
137(6) . . .
130(6) . . .
125(6) . . .
126(6) . . .
133(6) . . .
125(6) . . .
129(6) . . .
135(6) . . .
127(6) . . .
132(6) . . .
128(6) . . .
127(6) . . .
126(6) . . .
131(7) . . .
129(6) . . .
130(6) . . .
136(6) . . .
110(6) . . .
125(6) . . .
137(6) . . .
129(6) . . .
140(6) . . .
134(6) . . .
136(7) . . .
131(6) . . .
126(6) . . .
124(6) . . .
128(6) . . .
137(7) . . .
110(5) . . .
120(6) . . .
129(6) . . .
133(6) . . .
124(6) . . .
127(6) . . .
131(6) . . .
137(6) . . .
132(6) . . .
120(6) . . .
131(6) . . .
143(6) . . .
134(6) . . .
134(6) . . .
121(6) . . .
123(6) . . .
136(6) . . .
125(6) . . .
129(6) . . .
145(7) . . .
145(6) . . .
128(6) . . .
134(6) . . .
138(6) . . .
131(6) . . .
136(6) . . .
136(6) . . .
119(6) . . .
126(6) . . .
142(6) . . .
129(6) . . .
121(6) . . .
126(6) . . .
134(6) . . .
142(6) . . .
134(6) . . .
131(6) . . .
117(6) . . .
136(7) . . .
116(6) . . .
130(6) . . .
141(6) . . .
123(6) . . .
140(7) . . .
129(6) . . .
128(6) . . .
114(6) . . .
132(6) . . .
133(6) . . .
127(6) . . .
130(6) . . .
108(5) . . .
129(6) . . .
117(6) . . .
124(6) . . .
121(6) . . .
127(6) . . .
121(6) . . .
146(6) . . .
129(6) . . .
127(6) . . .
130(6) . . .
133(6) . . .
126(6) . . .
127(6) . . .
112(5) . . .
125(6) . . .
117(6) . . .
116(6) . . .
117(6) . . .
129(6) . . .
126(6) . . .
129(6) . . .
117(6) . . .
122(6) . . .
139(6) . . .
131(6) . . .
128(6) . . .
143(7) . . .
147(6) . . .
130(6) . . .
123(6) . . .
134(6) . . .
147(6) . . .
123(6) . . .
136(6) . . .
132(6) . . .
145(7) . . .
140(6) . . .
119(6) . . .
111(5) . . .
134(6) . . .
128(6) . . .
130(6) . . .
115(6) . . .
128(6) . . .
132(6) . . .
118(6) . . .
132(6) . . .
122(6) . . .
109(5) . . .
130(6) . . .
133(7) . . .
118(6) . . .
127(6) . . .
117(6) . . .
128(6) . . .
134(6) . . .
132(6) . . .
140(6) . . .
133(6) . . .
133(6) . . .
135(6) . . .
119(6) . . .
131(6) . . .
127(6) . . .
135(6) . . .
141(6) . . .
132(6) . . .
126(6) . . .
114(6) . . .
136(6) . . .
116(6) . . .
142(6) . . .
118(6) . . .
121(6) . . .
114(6) . . .
119(6) . . .
123(6) . . .
116(6) . . .
131(6) . . .
116(6) . . .
109(6) . . .
129(6) . . .
134(6) . . .
126(6) . . .
126(6) . . .
124(6) . . .
133(6) . . .
127(6) . . .
123(6) . . .
116(6) . . .
127(6) . . .
129(6) . . .
108(5) . . .
111(6) . . .
129(7) . . .
125(6) . . .
131(6) . . .
117(6) . . .
126(6) . . .
129(6) . . .
123(6) . . .
126(6) . . .
127(6) . . .
125(6) . . .
128(6) . . .
123(6) . . .
115(6) . . .
111(6) . . .
126(6) . . .
134(7) . . .
124(6) . . .
119(6) . . .
134(6) . . .
131(6) . . .
128(6) . . .
133(6) . . .
116(6) . . .
114(6) . . .
126(6) . . .
122(6) . . .
107(5) . . .
132(6) . . .
133(6) . . .
119(6) . . .
123(6) . . .
123(6) . . .
114(6) . . .
115(6) . . .
122(6) . . .
126(6) . . .
133(6) . . .
118(6) . . .
136(6) . . .
131(6) . . .
122(6) . . .
114(6) . . .
129(6) . . .
124(6) . . .
122(6) . . .
124(6) . . .
135(6) . . .
128(6) . . .
118(6) . . .
113(6) . . .
125(6) . . .
120(6) . . .
127(6) . . .
116(6) . . .
124(6) . . .
116(6) . . .
130(6) . . .
136(6) . . .
118(6) . . .
142(7) . . .
147(6) . . .
130(6) . . .
124(6) . . .
122(6) . . .
111(6) . . .
125(6) . . .
112(5) . . .
114(6) . . .
119(6) . . .
126(6) . . .
113(6) . . .
129(6) . . .
136(6) . . .
126(6) . . .
123(6) . . .
127(6) . . .
123(6) . . .
128(6) . . .
118(6) . . .
129(6) . . .
124(6) . . .
125(6) . . .
141(6) . . .
132(6) . . .
143(7) . . .
122(6) . . .
119(6) . . .
122(6) . . .
130(6) . . .
122(6) . . .
143(6) . . .
137(6) . . .
134(6) . . .
141(7) . . .
145(6) . . .
138(6) . . .
124(6) . . .
134(6) . . .
128(6) . . .
129(6) . . .
129(6) . . .
125(6) . . .
117(6) . . .
118(6) . . .
134(6) . . .
131(6) . . .
135(6) . . .
128(6) . . .
124(6) . . .
136(6) . . .
150(6) . . .
152(7) . . .
123(6) . . .
119(6) . . .
128(6) . . .
115(6) . . .
131(6) . . .
127(6) . . .
115(6) . . .
132(6) . . .
132(6) . . .
138(6) . . .
137(6) . . .
132(6) . . .
131(6) . . .
141(6) . . .
117(6) . . .
127(6) . . .
117(6) . . .
116(6) . . .
124(6) . . .
130(6) . . .
111(6) . . .
129(6) . . .
117(6) . . .
123(6) . . .
118(6) . . .
130(6) . . .
132(6) . . .
130(6) . . .
132(6) . . .
126(6) . . .
134(6) . . .
116(6) . . .
118(6) . . .
137(6) . . .
130(6) . . .
126(6) . . .
130(6) . . .
125(6) . . .
124(6) . . .
130(6) . . .
123(6) . . .
116(6) . . .
125(6) . . .
133(6) . . .
107(6) . . .
130(6) . . .
114(6) . . .
119(6) . . .
123(6) . . .
130(6) . . .
139(7) . . .
121(6) . . .
122(6) . . .
132(6) . . .
137(6) . . .
127(6) . . .
121(6) . . .
127(6) . . .
119(6) . . .
121(6) . . .
107(5) . . .
121(6) . . .
120(6) . . .
137(6) . . .
126(6) . . .
116(6) . . .
118(6) . . .
136(6) . . .
149(7) . . .
127(6) . . .
124(6) . . .
115(6) . . .
110(5) . . .
120(6) . . .
117(6) . . .
130(6) . . .
115(6) . . .
121(6) . . .
126(6) . . .
119(6) . . .
134(6) . . .
123(6) . . .
120(6) . . .
118(6) . . .
127(6) . . .
121(6) . . .
104(5) . . .
120(6) . . .
113(6) . . .
117(6) . . .
113(6) . . .
116(6) . . .
118(6) . . .
129(6) . . .
128(6) . . .
112(6) . . .
106(5) . . .
105(5) . . .
108(6) . . .
123(6) . . .
118(6) . . .
114(6) . . .
117(6) . . .
131(6) . . .
124(6) . . .
127(6) . . .
133(6) . . .
135(6) . . .
130(6) . . .
121(6) . . .
120(6) . . .
115(6) . . .
135(6) . . .
119(6) . . .
113(6) . . .
117(6) . . .
124(6) . . .
118(6) . . .
133(6) . . .
127(6) . . .
134(6) . . .
124(6) . . .
122(6) . . .
120(6) . . .
115(6) . . .
131(6) . . .
126(6) . . .
131(6) . . .
127(6) . . .
119(6) . . .
110(5) . . .
129(6) . . .
130(6) . . .
123(6) . . .
122(6) . . .
120(6) . . .
111(5) . . .
121(6) . . .
108(6) . . .
117(6) . . .
132(6) . . .
127(6) . . .
132(6) . . .
139(7) . . .
115(6) . . .
129(6) . . .
127(6) . . .
133(6) . . .
118(6) . . .
124(6) . . .
121(6) . . .
120(6) . . .
128(6) . . .
115(6) . . .
128(6) . . .
113(6) . . .
114(6) . . .
127(6) . . .
115(6) . . .
129(6) . . .
129(6) . . .
125(6) . . .
113(6) . . .
130(6) . . .
114(6) . . .
128(6) . . .
115(6) . . .
102(5) . . .
120(6) . . .
110(5) . . .
129(6) . . .
116(6) . . .
117(6) . . .
109(6) . . .
119(6) . . .
123(6) . . .
128(6) . . .
128(6) . . .
131(6) . . .
109(5) . . .
120(6) . . .
117(6) . . .
123(6) . . .
105(6) . . .
123(6) . . .
125(6) . . .
122(6) . . .
116(6) . . .
117(6) . . .
119(6) . . .
101(5) . . .
101(5) . . .
116(6) . . .
117(6) . . .
117(6) . . .
126(6) . . .
130(6) . . .
117(6) . . .
106(5) . . .
114(5) . . .
133(6) . . .
119(6) . . .
117(6) . . .
116(6) . . .
120(6) . . .
113(6) . . .
133(6) . . .
120(6) . . .
129(6) . . .
116(6) . . .
135(6) . . .
120(6) . . .
111(6) . . .
111(6) . . .
106(5) . . .
116(6) . . .
121(6) . . .
131(6) . . .
126(6) . . .
138(6) . . .
117(6) . . .
106(5) . . .
122(6) . . .
108(5) . . .
119(6) . . .
114(6) . . .
113(6) . . .
126(6) . . .
111(5) . . .
123(6) . . .
120(6) . . .
132(6) . . .
133(6) . . .
126(6) . . .
117(6) . . .
113(6) . . .
109(6) . . .
117(6) . . .
107(5) . . .
137(6) . . .
118(6) . . .
124(6) . . .
126(6) . . .
133(6) . . .
117(6) . . .
134(6) . . .
124(6) . . .
132(6) . . .
114(6) . . .
100(5) . . .
127(6) . . .
118(6) . . .
115(6) . . .
112(5) . . .
124(6) . . .
110(6) . . .
109(6) . . .
116(6) . . .
115(6) . . .
114(6) . . .
120(6) . . .
134(6) . . .
122(6) . . .
113(6) . . .
122(6) . . .
116(6) . . .
128(6) . . .
113(6) . . .
121(6) . . .
117(6) . . .
117(6) . . .
122(6) . . .
150(7) . . .
118(6) . . .
119(6) . . .
121(6) . . .
126(6) . . .
128(6) . . .
122(6) . . .
116(6) . . .
128(6) . . .
118(6) . . .
117(6) . . .
122(6) . . .
123(6) . . .
124(6) . . .
125(6) . . .
120(6) . . .
103(5) . . .
118(6) . . .
125(6) . . .
121(6) . . .
115(6) . . .
123(6) . . .
125(6) . . .
119(6) . . .
130(6) . . .
118(6) . . .
107(5) . . .
125(6) . . .
106(5) . . .
124(6) . . .
134(6) . . .
119(6) . . .
117(6) . . .
124(6) . . .
117(6) . . .
121(6) . . .
119(6) . . .
125(6) . . .
122(6) . . .
120(6) . . .
144(6) . . .
123(6) . . .
121(6) . . .
112(6) . . .
104(5) . . .
115(6) . . .
134(6) . . .
136(6) . . .
123(6) . . .
119(6) . . .
117(6) . . .
116(6) . . .
121(6) . . .
126(6) . . .
119(6) . . .
122(6) . . .
120(6) . . .
131(6) . . .
129(6) . . .
125(6) . . .
128(6) . . .
132(6) . . .
133(6) . . .
124(6) . . .
117(6) . . .
125(6) . . .
114(6) . . .
117(6) . . .
127(6) . . .
119(6) . . .
125(6) . . .
103(5) . . .
114(6) . . .
130(6) . . .
127(6) . . .
121(6) . . .
122(6) . . .
121(6) . . .
144(7) . . .
130(6) . . .
136(6) . . .
115(6) . . .
124(6) . . .
128(6) . . .
116(6) . . .
124(6) . . .
127(6) . . .
122(6) . . .
130(6) . . .
122(6) . . .
113(6) . . .
116(6) . . .
113(6) . . .
116(6) . . .
119(6) . . .
119(6) . . .
125(6) . . .
123(6) . . .
121(6) . . .
122(6) . . .
116(6) . . .
133(6) . . .
122(6) . . .
123(6) . . .
104(5) . . .
111(6) . . .
107(6) . . .
127(6) . . .
122(6) . . .
119(6) . . .
134(6) . . .
107(6) . . .
127(6) . . .
127(6) . . .
115(6) . . .
117(6) . . .
134(7) . . .
121(6) . . .
119(6) . . .
112(6) . . .
127(6) . . .
137(7) . . .
120(6) . . .
134(6) . . .
118(6) . . .
117(6) . . .
119(6) . . .
99(5) . . .
120(6) . . .
121(6) . . .
146(7) . . .
119(6) . . .
120(6) . . .
133(6) . . .
125(6) . . .
130(6) . . .
129(6) . . .
104(5) . . .
104(5) . . .
118(6) . . .
112(6) . . .
112(6) . . .
124(6) . . .
135(6) . . .
134(6) . . .
138(7) . . .
126(6) . . .
131(6) . . .
119(6) . . .
118(6) . . .
114(6) . . .
130(6) . . .
117(6) . . .
127(6) . . .
125(6) . . .
114(6) . . .
116(6) . . .
112(6) . . .
110(5) . . .
119(6) . . .
107(6) . . .
121(6) . . .
115(6) . . .
117(6) . . .
116(6) . . .
114(6) . . .
124(6) . . .
117(6) . . .
119(6) . . .
118(6) . . .
119(6) . . .
113(6) . . .
111(5) . . .
125(6) . . .
130(6) . . .
120(6) . . .
130(6) . . .
123(6) . . .
121(6) . . .
114(6) . . .
114(6) . . .
122(6) . . .
119(6) . . .
117(6) . . .
117(6) . . .
121(6) . . .
116(6) . . .
97(5) . . .
121(6) . . .
112(6) . . .
114(6) . . .
114(6) . . .
117(6) . . .
118(6) . . .
125(6) . . .
110(6) . . .
118(6) . . .
120(6) . . .
131(6) . . .
117(6) . . .
125(6) . . .
118(6) . . .
120(6) . . .
120(6) . . .
116(6) . . .
131(6) . . .
121(6) . . .
118(6) . . .
109(6) . . .
119(6) . . .
117(6) . . .
121(6) . . .
140(6) . . .
114(6) . . .
113(6) . . .
124(6) . . .
130(6) . . .
116(6) . . .
124(6) . . .
120(6) . . .
122(6) . . .
121(6) . . .
109(5) . . .
121(6) . . .
125(6) . . .
128(6) . . .
113(6) . . .
127(6) . . .
117(6) . . .
118(6) . . .
136(7) . . .
125(6) . . .
125(6) . . .
112(6) . . .
119(6) . . .
133(6) . . .
124(6) . . .
110(5) . . .
109(6) . . .
118(6) . . .
114(6) . . .
112(5) . . .
117(6) . . .
131(6) . . .
140(6) . . .
97(5) . . .
127(6) . . .
121(6) . . .
125(6) . . .
116(6) . . .
119(6) . . .
109(5) . . .
113(6) . . .
106(6) . . .
121(6) . . .
123(6) . . .
116(6) . . .
120(6) . . .
123(6) . . .
119(6) . . .
110(5) . . .
112(6) . . .
120(6) . . .
119(6) . . .
134(6) . . .
114(6) . . .
103(5) . . .
123(6) . . .
113(6) . . .
118(6) . . .
129(6) . . .
105(5) . . .
120(6) . . .
98(5) . . .
120(6) . . .
129(6) . . .
113(6) . . .
111(6) . . .
142(7) . . .
136(6) . . .
131(6) . . .
135(6) . . .
127(6) . . .
124(6) . . .
124(6) . . .
122(6) . . .
129(6) . . .
127(6) . . .
125(6) . . .
122(6) . . .
124(6) . . .
114(6) . . .
128(6) . . .
120(6) . . .
113(5) . . .
98(5) . . .
124(6) . . .
107(6) . . .
110(6) . . .
111(5) . . .
112(6) . . .
112(6) . . .
129(6) . . .
116(6) . . .
108(5) . . .
108(5) . . .
114(6) . . .
120(6) . . .
121(6) . . .
116(6) . . .
138(6) . . .
109(6) . . .
133(6) . . .
123(6) . . .
115(6) . . .
131(6) . . .
131(6) . . .
121(6) . . .
142(6) . . .
117(6) . . .
127(6) . . .
127(6) . . .
133(7) . . .
125(6) . . .
116(6) . . .
123(6) . . .
110(6) . . .
133(7) . . .
121(6) . . .
109(5) . . .
108(5) . . .
129(6) . . .
130(6) . . .
117(6) . . .
113(6) . . .
118(6) . . .
121(6) . . .
131(6) . . .
133(6) . . .
129(6) . . .
100(5) . . .
118(6) . . .
107(5) . . .
132(6) . . .
120(6) . . .
119(6) . . .
108(6) . . .
132(6) . . .
121(6) . . .
117(6) . . .
127(6) . . .
125(6) . . .
119(6) . . .
108(5) . . .
102(5) . . .
117(6) . . .
116(6) . . .
120(6) . . .
126(6) . . .
109(5) . . .
127(6) . . .
127(6) . . .
124(6) . . .
130(6) . . .
118(6) . . .
117(6) . . .
111(6) . . .
138(6) . . .
125(6) . . .
127(6) . . .
114(6) . . .
121(6) . . .
134(6) . . .
102(5) . . .
115(6) . . .
122(6) . . .
131(6) . . .
125(6) . . .
127(6) . . .
118(6) . . .
124(6) . . .
132(6) . . .
111(6) . . .
115(6) . . .
126(6) . . .
122(6) . . .
130(6) . . .
106(5) . . .
139(6) . . .
114(6) . . .
114(6) . . .
132(6) . . .
117(6) . . .
136(6) . . .
117(6) . . .
111(6) . . .
137(6) . . .
122(6) . . .
129(6) . . .
128(6) . . .
114(6) . . .
116(6) . . .
136(6) . . .
136(6) . . .
118(6) . . .
120(6) . . .
112(6) . . .
113(6) . . .
113(6) . . .
124(6) . . .
121(6) . . .
113(6) . . .
108(5) . . .
115(6) . . .
121(6) . . .
123(6) . . .
114(6) . . .
116(6) . . .
121(6) . . .
117(6) . . .
130(6) . . .
119(6) . . .
129(6) . . .
117(6) . . .
108(6) . . .
119(6) . . .
123(6) . . .
92(5) . . .
136(6) . . .
118(6) . . .
102(5) . . .
118(6) . . .
121(6) . . .
132(6) . . .
111(6) . . .
99(5) . . .
117(6) . . .
122(6) . . .
112(5) . . .
125(6) . . .
124(6) . . .
105(6) . . .
122(6) . . .
109(5) . . .
117(6) . . .
121(6) . . .
118(6) . . .
122(6) . . .
106(5) . . .
109(6) . . .
105(5) . . .
122(6) . . .
114(6) . . .
118(6) . . .
116(6) . . .
108(6) . . .
114(6) . . .
130(6) . . .
107(5) . . .
121(6) . . .
114(6) . . .
116(6) . . .
118(6) . . .
116(6) . . .
116(6) . . .
123(6) . . .
128(6) . . .
109(5) . . .
104(5) . . .
124(6) . . .
101(5) . . .
120(6) . . .
112(6) . . .
114(6) . . .
108(6) . . .
125(6) . . .
119(6) . . .
116(6) . . .
113(6) . . .
105(6) . . .
116(6) . . .
102(5) . . .
114(6) . . .
119(6) . . .
114(6) . . .
104(5) . . .
135(6) . . .
119(6) . . .
120(6) . . .
119(6) . . .
124(6) . . .
105(5) . . .
120(6) . . .
113(6) . . .
114(6) . . .
105(6) . . .
117(6) . . .
116(6) . . .
123(6) . . .
120(6) . . .
116(6) . . .
111(5) . . .
106(6) . . .
110(6) . . .
129(6) . . .
139(6) . . .
118(6) . . .
114(6) . . .
118(6) . . .
119(6) . . .
130(6) . . .
112(6) . . .
117(6) . . .
111(6) . . .
98(5) . . .
108(6) . . .
103(5) . . .
113(6) . . .
104(6) . . .
116(6) . . .
120(6) . . .
111(6) . . .
115(6) . . .
106(6) . . .
122(6) . . .
123(6) . . .
129(6) . . .
114(6) . . .
117(6) . . .
106(5) . . .
126(6) . . .
108(5) . . .
125(6) . . .
121(6) . . .
125(6) . . .
115(6) . . .
110(6) . . .
117(6) . . .
108(6) . . .
115(6) . . .
124(6) . . .
122(6) . . .
113(6) . . .
121(6) . . .
105(5) . . .
114(6) . . .
118(6) . . .
133(6) . . .
129(6) . . .
110(5) . . .
118(6) . . .
124(6) . . .
120(6) . . .
125(6) . . .
121(6) . . .
112(6) . . .
113(6) . . .
113(6) . . .
129(6) . . .
112(6) . . .
109(5) . . .
119(6) . . .
129(6) . . .
116(6) . . .
123(6) . . .
118(6) . . .
107(6) . . .
125(6) . . .
114(6) . . .
120(6) . . .
102(5) . . .
121(6) . . .
126(6) . . .
123(6) . . .
121(6) . . .
119(6) . . .
116(6) . . .
117(6) . . .
100(5) . . .
118(6) . . .
109(5) . . .
118(6) . . .
127(6) . . .
122(6) . . .
118(6) . . .
112(6) . . .
106(6) . . .
110(6) . . .
116(6) . . .
106(5) . . .
111(6) . . .
116(6) . . .
111(6) . . .
135(6) . . .
118(6) . . .
116(6) . . .
111(6) . . .
116(6) . . .
118(6) . . .
127(6) . . .
111(6) . . .
119(6) . . .
115(6) . . .
105(5) . . .
98(5) . . .
112(6) . . .
118(6) . . .
98(5) . . .
115(6) . . .
124(6) . . .
131(6) . . .
121(6) . . .
118(6) . . .
120(6) . . .
117(6) . . .
105(5) . . .
122(6) . . .
118(6) . . .
111(5) . . .
126(6) . . .
108(6) . . .
112(6) . . .
127(6) . . .
116(6) . . .
110(5) . . .
128(6) . . .
110(6) . . .
107(6) . . .
107(5) . . .
102(5) . . .
108(6) . . .
101(5) . . .
105(6) . . .
114(6) . . .
116(6) . . .
109(6) . . .
114(6) . . .
109(5) . . .
118(6) . . .
104(5) . . .
108(6) . . .
111(6) . . .
110(6) . . .
110(5) . . .
121(6) . . .
133(6) . . .
112(6) . . .
106(5) . . .
126(6) . . .
106(6) . . .
99(5) . . .
112(6) . . .
135(6) . . .
106(5) . . .
109(6) . . .
109(6) . . .
113(6) . . .
112(6) . . .
122(6) . . .
109(6) . . .
121(6) . . .
126(6) . . .
124(6) . . .
105(5) . . .
118(6) . . .
107(5) . . .
129(6) . . .
120(6) . . .
99(5) . . .
132(6) . . .
109(6) . . .
110(6) . . .
107(5) . . .
119(6) . . .
121(6) . . .
107(6) . . .
111(6) . . .
100(5) . . .
110(6) . . .
111(6) . . .
108(6) . . .
132(6) . . .
109(5) . . .
111(6) . . .
115(6) . . .
113(6) . . .
111(6) . . .
109(5) . . .
106(5) . . .
108(6) . . .
112(6) . . .
106(6) . . .
103(5) . . .
105(5) . . .
108(6) . . .
118(6) . . .
119(6) . . .
129(6) . . .
112(6) . . .
111(6) . . .
108(6) . . .
117(6) . . .
117(6) . . .
120(6) . . .
105(6) . . .
116(6) . . .
106(5) . . .
111(5) . . .
115(6) . . .
118(6) . . .
111(6) . . .
98(5) . . .
99(5) . . .
105(6) . . .
115(6) . . .
105(6) . . .
102(5) . . .
121(6) . . .
103(5) . . .
98(5) . . .
111(6) . . .
124(6) . . .
121(6) . . .
99(5) . . .
107(6) . . .
107(6) . . .
112(6) . . .
114(6) . . .
111(6) . . .
108(6) . . .
117(6) . . .
113(6) . . .
124(6) . . .
127(6) . . .
110(6) . . .
105(5) . . .
111(6) . . .
100(5) . . .
114(6) . . .
102(6) . . .
104(6) . . .
111(5) . . .
95(5) . . .
110(6) . . .
113(6) . . .
115(6) . . .
110(5) . . .
120(6) . . .
114(6) . . .
92(5) . . .
98(5) . . .
110(5) . . .
102(5) . . .
106(6) . . .
109(6) . . .
115(6) . . .
115(6) . . .
118(6) . . .
110(6) . . .
114(6) . . .
110(5) . . .
117(6) . . .
110(6) . . .
110(6) . . .
119(6) . . .
101(5) . . .
99(5) . . .
109(6) . . .
111(6) . . .
115(6) . . .
99(5) . . .
108(5) . . .
116(6) . . .
112(6) . . .
107(6) . . .
108(5) . . .
124(6) . . .
107(6) . . .
116(6) . . .
109(6) . . .
117(6) . . .
119(6) . . .
110(5) . . .
115(6) . . .
112(6) . . .
117(6) . . .
124(6) . . .
113(6) . . .
103(6) . . .
116(6) . . .
126(6) . . .
117(6) . . .
111(6) . . .
117(6) . . .
129(6) . . .
113(5) . . .
116(6) . . .
112(6) . . .
104(6) . . .
107(5) . . .
111(5) . . .
113(6) . . .
110(6) . . .
114(6) . . .
101(5) . . .
113(6) . . .
112(6) . . .
93(5) . . .
97(5) . . .
119(6) . . .
114(6) . . .
113(6) . . .
110(6) . . .
112(6) . . .
111(5) . . .
115(6) . . .
107(6) . . .
104(6) . . .
105(6) . . .
102(5) . . .
113(6) . . .
118(6) . . .
123(6) . . .
101(5) . . .
105(5) . . .
111(5) . . .
110(6) . . .
106(6) . . .
129(6) . . .
120(6) . . .
115(6) . . .
101(5) . . .
107(6) . . .
127(6) . . .
126(6) . . .
118(6) . . .
115(6) . . .
113(6) . . .
110(6) . . .
117(6) . . .
109(6) . . .
117(6) . . .
104(5) . . .
111(6) . . .
113(6) . . .
109(5) . . .
114(6) . . .
112(6) . . .
113(6) . . .
97(5) . . .
119(6) . . .
125(6) . . .
130(6) . . .
113(6) . . .
111(5) . . .
105(5) . . .
123(6) . . .
116(6) . . .
112(6) . . .
115(6) . . .
113(6) . . .
108(6) . . .
121(6) . . .
104(5) . . .
111(5) . . .
103(5) . . .
121(6) . . .
120(6) . . .
116(6) . . .
115(6) . . .
117(6) . . .
108(6) . . .
108(6) . . .
105(5) . . .
117(6) . . .
112(6) . . .
111(6) . . .
110(6) . . .
100(5) . . .
114(6) . . .
99(5) . . .
111(6) . . .
98(5) . . .
112(6) . . .
133(6) . . .
117(6) . . .
123(6) . . .
124(6) . . .
103(5) . . .
120(6) . . .
119(6) . . .
109(6) . . .
126(6) . . .
122(6) . . .
120(6) . . .
114(6) . . .
133(6) . . .
103(5) . . .
109(5) . . .
108(5) . . .
104(6) . . .
122(6) . . .
114(6) . . .
117(6) . . .
114(6) . . .
111(6) . . .
114(6) . . .
116(6) . . .
118(6) . . .
127(6) . . .
110(6) . . .
117(6) . . .
99(5) . . .
118(6) . . .
113(6) . . .
104(6) . . .
113(6) . . .
115(6) . . .
107(5) . . .
110(6) . . .
103(6) . . .
112(6) . . .
114(6) . . .
115(6) . . .
123(6) . . .
116(6) . . .
115(6) . . .
105(5) . . .
123(6) . . .
110(6) . . .
110(6) . . .
109(6) . . .
114(6) . . .
120(6) . . .
112(6) . . .
96(5) . . .
96(5) . . .
104(5) . . .
93(5) . . .
102(5) . . .
113(6) . . .
114(6) . . .
121(6) . . .
110(5) . . .
109(6) . . .
98(5) . . .
99(5) . . .
111(5) . . .
102(5) . . .
110(6) . . .
118(6) . . .
115(6) . . .
105(5) . . .
113(6) . . .
110(6) . . .
117(6) . . .
109(5) . . .
110(5) . . .
99(5) . . .
108(6) . . .
109(6) . . .
88(5) . . .
100(5) . . .
120(6) . . .
111(6) . . .
115(6) . . .
116(6) . . .
109(5) . . .
103(5) . . .
113(6) . . .
111(6) . . .
109(5) . . .
109(5) . . .
113(6) . . .
112(6) . . .
111(6) . . .
110(5) . . .
119(6) . . .
107(5) . . .
115(6) . . .
117(6) . . .
117(6) . . .
96(5) . . .
108(5) . . .
118(6) . . .
113(6) . . .
124(6) . . .
117(6) . . .
112(6) . . .
117(6) . . .
107(6) . . .
100(5) . . .
129(6) . . .
117(6) . . .
115(6) . . .
120(6) . . .
112(5) . . .
124(6) . . .
104(5) . . .
128(6) . . .
119(6) . . .
95(5) . . .
114(6) . . .
115(6) . . .
113(6) . . .
101(5) . . .
103(5) . . .
102(6) . . .
104(6) . . .
122(6) . . .
112(5) . . .
102(5) . . .
110(6) . . .
128(6) . . .
99(5) . . .
111(6) . . .
124(6) . . .
108(6) . . .
129(6) . . .
112(6) . . .
102(5) . . .
99(5) . . .
105(5) . . .
114(6) . . .
114(6) . . .
115(6) . . .
111(6) . . .
106(5) . . .
115(6) . . .
120(6) . . .
123(6) . . .
114(6) . . .
120(6) . . .
99(5) . . .
114(6) . . .
109(5) . . .
112(5) . . .
114(6) . . .
114(6) . . .
106(6) . . .
96(5) . . .
91(5) . . .
111(5) . . .
110(6) . . .
116(6) . . .
110(5) . . .
119(6) . . .
99(5) . . .
98(5) . . .
107(6) . . .
109(5) . . .
105(5) . . .
108(6) . . .
114(6) . . .
110(5) . . .
115(6) . . .
114(6) . . .
114(6) . . .
111(6) . . .
125(6) . . .
106(5) . . .
107(6) . . .
123(6) . . .
100(5) . . .
108(5) . . .
117(6) . . .
106(6) . . .
104(6) . . .
105(6) . . .
106(5) . . .
106(5) . . .
96(5) . . .
109(6) . . .
100(5) . . .
120(6) . . .
110(6) . . .
103(5) . . .
96(5) . . .
102(5) . . .
113(6) . . .
97(5) . . .
112(6) . . .
119(6) . . .
97(5) . . .
117(6) . . .
112(5) . . .
99(5) . . .
110(6) . . .
123(6) . . .
110(5) . . .
109(5) . . .
102(5) . . .
104(6) . . .
106(5) . . .
106(5) . . .
109(6) . . .
109(6) . . .
98(5) . . .
103(5) . . .
113(6) . . .
117(6) . . .
106(6) . . .
95(5) . . .
113(6) . . .
116(6) . . .
105(6) . . .
112(6) . . .
114(6) . . .
109(5) . . .
112(6) . . .
115(6) . . .
111(6) . . .
102(5) . . .
108(6) . . .
120(6) . . .
121(6) . . .
98(5) . . .
97(5) . . .
104(5) . . .
114(6) . . .
111(5) . . .
115(6) . . .
99(5) . . .
106(5) . . .
104(5) . . .
115(6) . . .
127(6) . . .
108(6) . . .
105(5) . . .
108(5) . . .
117(6) . . .
89(5) . . .
107(6) . . .
109(5) . . .
107(5) . . .
110(6) . . .
128(6) . . .
102(5) . . .
97(5) . . .
103(5) . . .
97(5) . . .
106(6) . . .
106(5) . . .
121(6) . . .
102(5) . . .
107(6) . . .
112(6) . . .
103(5) . . .
96(5) . . .
114(6) . . .
127(6) . . .
109(6) . . .
107(6) . . .
102(5) . . .
97(5) . . .
119(6) . . .
103(5) . . .
122(6) . . .
105(5) . . .
111(6) . . .
100(5) . . .
113(6) . . .
108(5) . . .
99(5) . . .
110(6) . . .
102(6) . . .
92(5) . . .
100(5) . . .
98(5) . . .
106(6) . . .
98(6) . . .
101(5) . . .
102(5) . . .
99(5) . . .
104(5) . . .
109(6) . . .
112(6) . . .
103(5) . . .
104(5) . . .
106(5) . . .
105(6) . . .
113(6) . . .
103(5) . . .
103(5) . . .
112(6) . . .
104(6) . . .
105(5) . . .
112(5) . . .
124(6) . . .
109(6) . . .
107(6) . . .
99(5) . . .
117(6) . . .
116(6) . . .
112(6) . . .
103(5) . . .
103(6) . . .
101(5) . . .
125(6) . . .
101(5) . . .
95(5) . . .
114(6) . . .
113(6) . . .
94(5) . . .
111(6) . . .
109(6) . . .
97(5) . . .
106(5) . . .
99(5) . . .
95(5) . . .
106(5) . . .
105(5) . . .
114(5) . . .
92(5) . . .
114(6) . . .
103(5) . . .
109(5) . . .
97(5) . . .
99(6) . . .
103(6) . . .
103(5) . . .
106(5) . . .
120(6) . . .
105(6) . . .
124(6) . . .
109(6) . . .
111(5) . . .
102(5) . . .
95(5) . . .
102(6) . . .
92(5) . . .
89(5) . . .
109(5) . . .
113(6) . . .
108(6) . . .
95(5) . . .
114(6) . . .
100(5) . . .
112(6) . . .
126(6) . . .
121(6) . . .
110(5) . . .
103(5) . . .
104(5) . . .
99(5) . . .
89(5) . . .
98(5) . . .
111(6) . . .
101(5) . . .
107(6) . . .
100(5) . . .
106(5) . . .
105(6) . . .
113(6) . . .
110(5) . . .
126(6) . . .
109(5) . . .
109(6) . . .
119(6) . . .
103(5) . . .
114(6) . . .
105(5) . . .
106(6) . . .
95(5) . . .
93(5) . . .
113(6) . . .
95(5) . . .
103(5) . . .
115(6) . . .
101(5) . . .
107(5) . . .
97(5) . . .
100(5) . . .
106(6) . . .
100(5) . . .
108(5) . . .
100(5) . . .
100(5) . . .
108(6) . . .
102(5) . . .
110(5) . . .
122(6) . . .
99(5) . . .
108(6) . . .
93(5) . . .
100(5) . . .
107(5) . . .
110(6) . . .
111(6) . . .
101(5) . . .
92(5) . . .
96(5) . . .
103(5) . . .
107(6) . . .
102(5) . . .
116(6) . . .
114(6) . . .
117(6) . . .
102(6) . . .
103(5) . . .
121(6) . . .
107(5) . . .
123(6) . . .
104(5) . . .
101(5) . . .
124(6) . . .
107(6) . . .
109(6) . . .
112(6) . . .
105(5) . . .
95(5) . . .
104(6) . . .
103(6) . . .
115(6) . . .
110(5) . . .
102(5) . . .
99(5) . . .
95(5) . . .
102(5) . . .
110(5) . . .
107(5) . . .
112(5) . . .
108(6) . . .
110(6) . . .
105(5) . . .
109(5) . . .
117(6) . . .
105(6) . . .
99(5) . . .
103(5) . . .
116(6) . . .
98(5) . . .
116(6) . . .
114(6) . . .
103(5) . . .
114(6) . . .
113(6) . . .
106(6) . . .
99(5) . . .
116(6) . . .
95(5) . . .
97(5) . . .
101(5) . . .
105(6) . . .
108(5) . . .
108(6) . . .
114(6) . . .
100(5) . . .
95(5) . . .
105(5) . . .
118(6) . . .
99(5) . . .
101(5) . . .
113(6) . . .
113(6) . . .
101(5) . . .
91(5) . . .
97(5) . . .
94(5) . . .
95(5) . . .
106(6) . . .
98(5) . . .
91(5) . . .
106(5) . . .
96(5) . . .
105(6) . . .
113(6) . . .
102(5) . . .
111(6) . . .
111(5) . . .
99(5) . . .
117(6) . . .
113(6) . . .
106(5) . . .
121(6) . . .
115(6) . . .
99(6) . . .
108(6) . . .
103(5) . . .
102(5) . . .
106(5) . . .
108(6) . . .
99(5) . . .
102(5) . . .
105(5) . . .
100(5) . . .
110(6) . . .
98(5) . . .
106(5) . . .
94(5) . . .
102(5) . . .
106(5) . . .
107(6) . . .
100(5) . . .
100(5) . . .
91(5) . . .
116(6) . . .
119(6) . . .
103(5) . . .
102(5) . . .
96(5) . . .
84(5) . . .
114(6) . . .
108(5) . . .
104(5) . . .
95(5) . . .
101(5) . . .
99(5) . . .
97(5) . . .
103(5) . . .
104(6) . . .
106(6) . . .
104(5) . . .
117(6) . . .
102(5) . . .
106(6) . . .
108(6) . . .
109(5) . . .
123(6) . . .
103(5) . . .
101(6) . . .
102(5) . . .
113(5) . . .
107(5) . . .
103(6) . . .
106(6) . . .
113(6) . . .
97(5) . . .
102(5) . . .
108(6) . . .
114(6) . . .
101(5) . . .
114(6) . . .
106(5) . . .
99(5) . . .
109(6) . . .
101(5) . . .
98(5) . . .
94(5) . . .
99(5) . . .
109(6) . . .
101(5) . . .
92(5) . . .
104(5) . . .
94(5) . . .
97(5) . . .
107(5) . . .
100(5) . . .
103(5) . . .
97(5) . . .
107(6) . . .
99(5) . . .
102(5) . . .
104(5) . . .
104(6) . . .
107(6) . . .
99(5) . . .
96(5) . . .
94(5) . . .
90(5) . . .
104(6) . . .
99(5) . . .
107(5) . . .
93(5) . . .
109(6) . . .
101(5) . . .
90(5) . . .
100(5) . . .
108(6) . . .
117(6) . . .
107(5) . . .
117(6) . . .
103(5) . . .
95(5) . . .
93(5) . . .
105(6) . . .
102(5) . . .
113(5) . . .
96(5) . . .
96(5) . . .
108(6) . . .
109(5) . . .
96(5) . . .
103(5) . . .
101(6) . . .
106(6) . . .
115(6) . . .
112(5) . . .
104(6) . . .
86(5) . . .
105(6) . . .
114(6) . . .
100(5) . . .
103(6) . . .
98(6) . . .
109(6) . . .
103(5) . . .
116(6) . . .
111(6) . . .
101(5) . . .
105(5) . . .
109(5) . . .
87(5) . . .
104(5) . . .
101(6) . . .
100(5) . . .
109(5) . . .
106(5) . . .
105(6) . . .
106(5) . . .
108(6) . . .
112(5) . . .
95(5) . . .
112(6) . . .
103(5) . . .
104(5) . . .
107(5) . . .
104(5) . . .
104(6) . . .
89(5) . . .
90(5) . . .
109(5) . . .
110(6) . . .
107(6) . . .
114(6) . . .
92(5) . . .
105(5) . . .
91(5) . . .
101(6) . . .
95(5) . . .
99(5) . . .
90(5) . . .
107(6) . . .
100(6) . . .
94(5) . . .
101(5) . . .
107(5) . . .
117(6) . . .
98(5) . . .
104(5) . . .
106(5) . . .
103(5) . . .
90(5) . . .
108(6) . . .
98(5) . . .
109(5) . . .
105(5) . . .
95(5) . . .
104(5) . . .
96(5) . . .
97(5) . . .
90(5) . . .
109(6) . . .
92(5) . . .
91(5) . . .
98(5) . . .
107(6) . . .
93(5) . . .
109(6) . . .
115(6) . . .
105(5) . . .
104(6) . . .
80(5) . . .
84(5) . . .
96(5) . . .
100(5) . . .
95(5) . . .
105(6) . . .
96(5) . . .
96(5) . . .
101(5) . . .
105(6) . . .
114(6) . . .
105(5) . . .
109(5) . . .
107(5) . . .
97(5) . . .
95(5) . . .
113(6) . . .
101(5) . . .
102(5) . . .
93(5) . . .
93(6) . . .
91(5) . . .
102(5) . . .
103(6) . . .
91(5) . . .
106(6) . . .
95(5) . . .
92(5) . . .
105(5) . . .
105(5) . . .
111(6) . . .
98(5) . . .
100(5) . . .
119(6) . . .
105(6) . . .
104(6) . . .
107(5) . . .
91(5) . . .
111(6) . . .
110(6) . . .
105(6) . . .
96(5) . . .
99(5) . . .
112(5) . . .
93(5) . . .
88(5) . . .
89(5) . . .
98(5) . . .
90(5) . . .
98(6) . . .
106(6) . . .
103(5) . . .
102(5) . . .
102(5) . . .
95(5) . . .
84(5) . . .
99(5) . . .
99(5) . . .
93(5) . . .
114(6) . . .
101(5) . . .
98(5) . . .
99(5) . . .
104(6) . . .
100(5) . . .
106(5) . . .
109(5) . . .
87(5) . . .
99(5) . . .
103(6) . . .
103(5) . . .
108(5) . . .
86(5) . . .
102(5) . . .
98(5) . . .
103(5) . . .
109(5) . . .
100(5) . . .
93(5) . . .
100(6) . . .
111(6) . . .
92(5) . . .
109(5) . . .
114(6) . . .
102(6) . . .
105(6) . . .
107(5) . . .
94(5) . . .
95(5) . . .
98(5) . . .
95(5) . . .
97(5) . . .
95(5) . . .
94(5) . . .
104(6) . . .
101(5) . . .
95(5) . . .
104(6) . . .
108(6) . . .
96(5) . . .
105(6) . . .
93(5) . . .
96(5) . . .
104(6) . . .
96(5) . . .
88(5) . . .
90(5) . . .
101(5) . . .
122(6) . . .
92(5) . . .
97(5) . . .
103(5) . . .
81(5) . . .
90(5) . . .
111(6) . . .
106(5) . . .
98(5) . . .
105(5) . . .
100(5) . . .
101(5) . . .
100(5) . . .
112(6) . . .
101(5) . . .
101(6) . . .
95(5) . . .
106(5) . . .
83(5) . . .
109(6) . . .
104(5) . . .
106(6) . . .
108(5) . . .
113(6) . . .
104(6) . . .
97(5) . . .
105(6) . . .
105(5) . . .
102(5) . . .
104(5) . . .
106(5) . . .
86(5) . . .
101(5) . . .
94(5) . . .
96(5) . . .
104(6) . . .
107(6) . . .
91(5) . . .
103(5) . . .
95(5) . . .
94(5) . . .
102(5) . . .
97(5) . . .
106(5) . . .
101(5) . . .
100(5) . . .
96(5) . . .
97(5) . . .
106(6) . . .
112(6) . . .
97(5) . . .
101(5) . . .
96(5) . . .
100(5) . . .
95(5) . . .
100(5) . . .
103(5) . . .
100(5) . . .
109(6) . . .
93(5) . . .
98(5) . . .
84(5) . . .
90(5) . . .
106(6) . . .
95(5) . . .
101(5) . . .
102(5) . . .
102(5) . . .
97(5) . . .
101(6) . . .
103(5) . . .
100(5) . . .
106(6) . . .
99(6) . . .
87(5) . . .
109(6) . . .
91(5) . . .
119(6) . . .
111(6) . . .
102(5) . . .
117(6) . . .
115(6) . . .
100(5) . . .
102(5) . . .
88(5) . . .
108(6) . . .
111(5) . . .
104(6) . . .
96(5) . . .
95(5) . . .
94(5) . . .
96(5) . . .
99(5) . . .
102(6) . . .
90(5) . . .
96(5) . . .
98(5) . . .
91(5) . . .
93(5) . . .
102(5) . . .
114(6) . . .
98(5) . . .
88(5) . . .
88(5) . . .
106(6) . . .
101(5) . . .
94(5) . . .
105(6) . . .
84(5) . . .
90(5) . . .
88(5) . . .
103(5) . . .
88(5) . . .
97(6) . . .
85(5) . . .
90(5) . . .
108(6) . . .
97(5) . . .
98(6) . . .
98(5) . . .
98(5) . . .
108(5) . . .
102(5) . . .
103(5) . . .
101(5) . . .
95(5) . . .
98(5) . . .
103(6) . . .
97(5) . . .
92(5) . . .
104(5) . . .
101(5) . . .
91(5) . . .
99(5) . . .
93(5) . . .
93(5) . . .
103(5) . . .
99(5) . . .
90(5) . . .
98(5) . . .
105(5) . . .
96(5) . . .
105(6) . . .
112(6) . . .
98(5) . . .
108(5) . . .
102(5) . . .
111(6) . . .
105(5) . . .
119(6) . . .
104(5) . . .
92(5) . . .
96(6) . . .
87(5) . . .
97(5) . . .
98(5) . . .
94(5) . . .
100(6) . . .
104(5) . . .
106(5) . . .
99(5) . . .
85(5) . . .
101(6) . . .
102(5) . . .
93(5) . . .
100(5) . . .
113(6) . . .
114(6) . . .
106(6) . . .
104(5) . . .
95(5) . . .
113(6) . . .
87(5) . . .
89(5) . . .
94(5) . . .
104(5) . . .
97(5) . . .
96(5) . . .
105(5) . . .
88(5) . . .
93(5) . . .
96(5) . . .
100(6) . . .
92(5) . . .
97(5) . . .
105(5) . . .
100(5) . . .
90(5) . . .
91(5) . . .
92(5) . . .
92(5) . . .
101(5) . . .
84(5) . . .
92(5) . . .
100(5) . . .
108(6) . . .
107(6) . . .
106(6) . . .
112(6) . . .
111(5) . . .
109(6) . . .
115(6) . . .
100(5) . . .
101(5) . . .
88(5) . . .
98(5) . . .
100(6) . . .
104(6) . . .
105(5) . . .
106(5) . . .
101(5) . . .
93(5) . . .
105(6) . . .
100(5) . . .
111(6) . . .
115(6) . . .
88(5) . . .
101(5) . . .
101(5) . . .
115(6) . . .
102(5) . . .
103(6) . . .
100(5) . . .
97(5) . . .
91(5) . . .
88(5) . . .
94(5) . . .
94(5) . . .
103(5) . . .
104(5) . . .
102(6) . . .
106(6) . . .
110(6) . . .
99(5) . . .
101(5) . . .
102(5) . . .
88(5) . . .
106(5) . . .
101(5) . . .
92(5) . . .
95(5) . . .
97(5) . . .
94(5) . . .
96(5) . . .
99(5) . . .
113(6) . . .
99(5) . . .
92(5) . . .
102(5) . . .
114(6) . . .
107(6) . . .
112(6) . . .
91(5) . . .
98(5) . . .
122(6) . . .
90(5) . . .
98(5) . . .
99(5) . . .
87(5) . . .
100(6) . . .
96(6) . . .
98(5) . . .
100(5) . . .
112(6) . . .
105(5) . . .
91(5) . . .
110(6) . . .
98(5) . . .
101(5) . . .
93(5) . . .
101(6) . . .
96(5) . . .
100(5) . . .
96(5) . . .
103(5) . . .
106(6) . . .
109(6) . . .
90(5) . . .
90(5) . . .
96(5) . . .
93(5) . . .
100(5) . . .
96(5) . . .
110(6) . . .
92(5) . . .
97(5) . . .
97(5) . . .
106(5) . . .
95(5) . . .
94(5) . . .
98(5) . . .
102(5) . . .
93(5) . . .
89(5) . . .
80(5) . . .
91(5) . . .
81(5) . . .
81(5) . . .
94(5) . . .
96(5) . . .
94(5) . . .
94(5) . . .
102(5) . . .
101(5) . . .
100(5) . . .
98(5) . . .
100(5) . . .
105(5) . . .
97(5) . . .
92(5) . . .
105(6) . . .
95(5) . . .
101(5) . . .
106(5) . . .
104(6) . . .
92(5) . . .
87(5) . . .
89(5) . . .
101(6) . . .
108(6) . . .
100(5) . . .
96(5) . . .
114(6) . . .
94(5) . . .
88(5) . . .
97(5) . . .
107(5) . . .
84(5) . . .
97(5) . . .
88(5) . . .
97(5) . . .
92(5) . . .
98(5) . . .
95(5) . . .
96(5) . . .
103(6) . . .
110(5) . . .
112(6) . . .
101(5) . . .
103(5) . . .
102(5) . . .
93(5) . . .
86(5) . . .
106(6) . . .
106(6) . . .
105(5) . . .
108(5) . . .
90(5) . . .
94(5) . . .
100(5) . . .
102(5) . . .
102(5) . . .
94(5) . . .
103(6) . . .
92(5) . . .
104(5) . . .
104(5) . . .
101(5) . . .
94(5) . . .
116(6) . . .
95(5) . . .
91(5) . . .
88(5) . . .
101(5) . . .
107(6) . . .
94(5) . . .
90(5) . . .
93(5) . . .
103(5) . . .
95(5) . . .
106(5) . . .
92(5) . . .
104(6) . . .
90(5) . . .
90(5) . . .
101(5) . . .
110(5) . . .
90(5) . . .
89(5) . . .
95(5) . . .
99(5) . . .
106(5) . . .
90(5) . . .
113(6) . . .
117(6) . . .
101(5) . . .
100(6) . . .
93(5) . . .
101(6) . . .
99(5) . . .
95(5) . . .
97(5) . . .
100(5) . . .
108(6) . . .
108(6) . . .
103(5) . . .
102(5) . . .
105(6) . . .
96(5) . . .
100(5) . . .
101(5) . . .
103(6) . . .
100(6) . . .
103(6) . . .
99(5) . . .
106(5) . . .
93(5) . . .
93(5) . . .
92(5) . . .
86(5) . . .
85(5) . . .
103(5) . . .
109(6) . . .
104(6) . . .
96(5) . . .
102(5) . . .
100(5) . . .
98(6) . . .
95(5) . . .
84(5) . . .
107(5) . . .
89(5) . . .
91(5) . . .
94(5) . . .
84(5) . . .
98(5) . . .
103(6) . . .
106(6) . . .
98(6) . . .
89(5) . . .
91(5) . . .
91(5) . . .
105(6) . . .
108(5) . . .
91(5) . . .
84(5) . . .
98(5) . . .
91(5) . . .
82(5) . . .
94(5) . . .
97(5) . . .
110(6) . . .
97(5) . . .
98(5) . . .
93(5) . . .
89(5) . . .
89(5) . . .
87(5) . . .
89(5) . . .
105(5) . . .
82(5) . . .
92(5) . . .
111(6) . . .
100(5) . . .
104(5) . . .
97(5) . . .
104(6) . . .
98(5) . . .
98(5) . . .
90(5) . . .
98(5) . . .
98(6) . . .
90(5) . . .
92(5) . . .
90(5) . . .
87(5) . . .
82(5) . . .
102(5) . . .
111(5) . . .
99(5) . . .
102(5) . . .
104(6) . . .
93(5) . . .
105(5) . . .
111(6) . . .
105(6) . . .
84(5) . . .
97(5) . . .
111(5) . . .
103(5) . . .
96(5) . . .
103(6) . . .
92(5) . . .
107(5) . . .
88(5) . . .
91(5) . . .
88(5) . . .
87(5) . . .
105(5) . . .
103(6) . . .
91(5) . . .
100(5) . . .
98(5) . . .
87(5) . . .
102(5) . . .
103(6) . . .
101(5) . . .
109(6) . . .
99(5) . . .
88(5) . . .
108(6) . . .
103(5) . . .
102(5) . . .
94(5) . . .
99(5) . . .
100(5) . . .
93(5) . . .
107(5) . . .
94(5) . . .
95(5) . . .
100(6) . . .
90(5) . . .
89(5) . . .
96(5) . . .
97(5) . . .
98(6) . . .
94(5) . . .
91(5) . . .
104(5) . . .
110(6) . . .
87(5) . . .
92(5) . . .
90(5) . . .
81(5) . . .
93(5) . . .
91(5) . . .
91(5) . . .
95(5) . . .
96(5) . . .
103(5) . . .
97(5) . . .
100(5) . . .
99(5) . . .
97(5) . . .
99(5) . . .
90(5) . . .
93(5) . . .
102(5) . . .
89(5) . . .
97(5) . . .
86(5) . . .
103(5) . . .
108(5) . . .
103(6) . . .
97(5) . . .
108(6) . . .
110(6) . . .
95(5) . . .
93(5) . . .
102(6) . . .
105(5) . . .
99(5) . . .
105(5) . . .
96(5) . . .
96(5) . . .
95(5) . . .
99(5) . . .
101(5) . . .
104(5) . . .
102(5) . . .
101(5) . . .
100(5) . . .
80(5) . . .
97(5) . . .
92(5) . . .
103(5) . . .
102(5) . . .
81(5) . . .
98(5) . . .
95(5) . . .
99(5) . . .
83(5) . . .
98(5) . . .
96(5) . . .
92(5) . . .
95(5) . . .
102(5) . . .
110(6) . . .
102(6) . . .
100(6) . . .
101(5) . . .
95(5) . . .
88(5) . . .
86(5) . . .
86(5) . . .
101(5) . . .
100(5) . . .
92(5) . . .
96(5) . . .
99(5) . . .
85(5) . . .
89(5) . . .
101(6) . . .
95(5) . . .
93(5) . . .
95(5) . . .
81(5) . . .
102(5) . . .
102(5) . . .
97(5) . . .
97(5) . . .
88(5) . . .
95(5) . . .
85(5) . . .
104(6) . . .
91(5) . . .
103(5) . . .
91(5) . . .
79(5) . . .
95(5) . . .
81(5) . . .
93(5) . . .
107(5) . . .
96(5) . . .
117(6) . . .
92(5) . . .
92(5) . . .
96(5) . . .
80(5) . . .
96(5) . . .
87(5) . . .
94(5) . . .
86(5) . . .
94(5) . . .
92(5) . . .
99(5) . . .
114(6) . . .
95(5) . . .
110(6) . . .
92(5) . . .
105(5) . . .
99(5) . . .
98(5) . . .
82(5) . . .
97(5) . . .
86(5) . . .
85(5) . . .
96(5) . . .
100(6) . . .
102(5) . . .
102(5) . . .
101(5) . . .
90(5) . . .
91(5) . . .
95(5) . . .
81(5) . . .
93(5) . . .
95(5) . . .
99(6) . . .
91(5) . . .
98(5) . . .
90(5) . . .
97(5) . . .
94(5) . . .
99(5) . . .
86(5) . . .
94(5) . . .
102(6) . . .
99(5) . . .
106(5) . . .
97(5) . . .
93(5) . . .
94(6) . . .
100(6) . . .
96(5) . . .
106(5) . . .
92(5) . . .
85(5) . . .
87(5) . . .
95(5) . . .
108(5) . . .
108(6) . . .
84(5) . . .
95(5) . . .
92(5) . . .
107(5) . . .
78(5) . . .
86(5) . . .
86(5) . . .
95(5) . . .
102(5) . . .
109(6) . . .
90(5) . . .
87(5) . . .
88(5) . . .
99(5) . . .
93(5) . . .
104(6) . . .
95(5) . . .
92(5) . . .
108(6) . . .
88(5) . . .
96(5) . . .
88(5) . . .
101(5) . . .
95(5) . . .
95(5) . . .
99(5) . . .
93(5) . . .
86(5) . . .
89(5) . . .
92(5) . . .
94(5) . . .
94(5) . . .
79(5) . . .
104(6) . . .
85(5) . . .
97(5) . . .
84(5) . . .
100(5) . . .
115(6) . . .
102(6) . . .
101(5) . . .
93(5) . . .
98(5) . . .
94(5) . . .
88(5) . . .
108(6) . . .
100(5) . . .
83(5) . . .
96(5) . . .
92(5) . . .
106(5) . . .
95(5) . . .
99(5) . . .
96(5) . . .
110(6) . . .
107(6) . . .
109(6) . . .
97(5) . . .
81(5) . . .
100(5) . . .
104(5) . . .
89(5) . . .
103(5) . . .
103(5) . . .
93(5) . . .
83(5) . . .
110(5) . . .
88(5) . . .
96(6) . . .
90(5) . . .
101(5) . . .
81(5) . . .
91(5) . . .
89(5) . . .
99(5) . . .
97(5) . . .
93(5) . . .
104(5) . . .
98(5) . . .
101(5) . . .
91(5) . . .
104(5) . . .
99(5) . . .
105(6) . . .
95(5) . . .
95(5) . . .
107(5) . . .
94(5) . . .
92(5) . . .
84(5) . . .
93(5) . . .
87(5) . . .
88(5) . . .
86(5) . . .
88(5) . . .
96(5) . . .
92(5) . . .
90(5) . . .
96(5) . . .
99(5) . . .
93(5) . . .
86(5) . . .
89(5) . . .
95(5) . . .
91(5) . . .
86(5) . . .
92(5) . . .
98(5) . . .
96(5) . . .
112(6) . . .
106(5) . . .
85(5) . . .
95(5) . . .
98(5) . . .
104(5) . . .
90(5) . . .
98(5) . . .
84(5) . . .
95(5) . . .
87(5) . . .
95(5) . . .
93(5) . . .
104(6) . . .
100(5) . . .
91(5) . . .
96(5) . . .
97(5) . . .
91(5) . . .
88(5) . . .
102(5) . . .
98(5) . . .
98(5) . . .
111(6) . . .
106(6) . . .
87(5) . . .
82(5) . . .
92(5) . . .
89(5) . . .
93(5) . . .
83(5) . . .
85(5) . . .
86(5) . . .
97(6) . . .
99(5) . . .
95(5) . . .
91(5) . . .
93(5) . . .
106(6) . . .
99(5) . . .
105(5) . . .
91(5) . . .
90(5) . . .
90(5) . . .
92(5) . . .
101(5) . . .
103(5) . . .
93(5) . . .
86(5) . . .
92(5) . . .
99(5) . . .
101(5) . . .
93(5) . . .
83(5) . . .
85(5) . . .
84(5) . . .
90(5) . . .
86(5) . . .
97(5) . . .
112(6) . . .
84(5) . . .
93(5) . . .
85(5) . . .
85(5) . . .
92(5) . . .
106(5) . . .
96(5) . . .
103(6) . . .
112(6) . . .
90(5) . . .
100(5) . . .
91(5) . . .
88(5) . . .
109(6) . . .
95(5) . . .
96(5) . . .
96(5) . . .
99(5) . . .
97(5) . . .
97(5) . . .
90(5) . . .
102(5) . . .
92(5) . . .
90(5) . . .
82(5) . . .
92(5) . . .
96(5) . . .
104(6) . . .
87(5) . . .
83(5) . . .
94(5) . . .
96(5) . . .
94(5) . . .
99(5) . . .
105(5) . . .
93(5) . . .
92(5) . . .
99(5) . . .
96(5) . . .
104(5) . . .
94(5) . . .
90(5) . . .
97(5) . . .
97(5) . . .
94(5) . . .
95(5) . . .
99(5) . . .
96(5) . . .
97(5) . . .
93(5) . . .
91(5) . . .
101(5) . . .
91(5) . . .
69(4) . . .
87(5) . . .
91(5) . . .
101(6) . . .
98(5) . . .
93(5) . . .
88(5) . . .
100(5) . . .
104(6) . . .
99(5) . . .
90(5) . . .
96(5) . . .
100(5) . . .
96(5) . . .
96(5) . . .
99(5) . . .
92(5) . . .
102(6) . . .
98(5) . . .
99(5) . . .
109(5) . . .
89(5) . . .
89(5) . . .
93(5) . . .
94(5) . . .
89(5) . . .
109(5) . . .
93(5) . . .
86(5) . . .
95(5) . . .
85(5) . . .
102(5) . . .
93(5) . . .
89(5) . . .
103(5) . . .
93(5) . . .
92(5) . . .
97(5) . . .
103(6) . . .
101(6) . . .
88(5) . . .
92(5) . . .
100(5) . . .
96(5) . . .
96(5) . . .
103(5) . . .
98(5) . . .
103(6) . . .
98(5) . . .
95(5) . . .
116(6) . . .
104(5) . . .
118(6) . . .
108(5) . . .
102(5) . . .
88(5) . . .
93(5) . . .
105(6) . . .
92(5) . . .
90(5) . . .
89(5) . . .
90(5) . . .
99(6) . . .
95(5) . . .
91(5) . . .
103(5) . . .
97(5) . . .
94(5) . . .
98(5) . . .
89(5) . . .
96(5) . . .
99(5) . . .
93(5) . . .
86(5) . . .
106(5) . . .
93(5) . . .
95(5) . . .
96(5) . . .
103(5) . . .
85(5) . . .
92(5) . . .
100(5) . . .
98(5) . . .
88(5) . . .
114(6) . . .
89(5) . . .
95(5) . . .
87(5) . . .
92(5) . . .
89(5) . . .
92(5) . . .
87(5) . . .
102(6) . . .
100(5) . . .
91(5) . . .
88(5) . . .
94(5) . . .
91(5) . . .
91(5) . . .
83(5) . . .
89(5) . . .
93(5) . . .
85(5) . . .
86(5) . . .
97(5) . . .
91(5) . . .
91(5) . . .
102(5) . . .
90(5) . . .
90(5) . . .
98(5) . . .
102(5) . . .
104(6) . . .
79(5) . . .
90(5) . . .
81(5) . . .
84(5) . . .
87(5) . . .
91(5) . . .
82(5) . . .
89(5) . . .
97(6) . . .
88(5) . . .
92(5) . . .
99(5) . . .
97(5) . . .
98(6) . . .
95(5) . . .
90(5) . . .
86(5) . . .
91(5) . . .
99(6) . . .
88(5) . . .
95(5) . . .
93(5) . . .
91(5) . . .
94(5) . . .
88(5) . . .
104(5) . . .
89(5) . . .
83(5) . . .
83(5) . . .
93(5) . . .
89(5) . . .
100(5) . . .
83(5) . . .
89(5) . . .
94(5) . . .
93(5) . . .
81(5) . . .
95(5) . . .
96(5) . . .
103(5) . . .
89(5) . . .
98(5) . . .
115(6) . . .
86(5) . . .
92(5) . . .
97(5) . . .
99(6) . . .
92(5) . . .
99(5) . . .
88(5) . . .
102(5) . . .
93(5) . . .
114(6) . . .
99(5) . . .
94(5) . . .
99(5) . . .
85(5) . . .
96(6) . . .
90(5) . . .
79(5) . . .
94(5) . . .
102(6) . . .
95(5) . . .
87(5) . . .
92(5) . . .
87(5) . . .
86(5) . . .
83(5) . . .
96(5) . . .
102(5) . . .
92(5) . . .
86(5) . . .
98(5) . . .
100(5) . . .
92(5) . . .
84(5) . . .
78(5) . . .
93(5) . . .
89(5) . . .
99(5) . . .
87(5) . . .
90(5) . . .
102(6) . . .
101(5) . . .
103(5) . . .
93(5) . . .
97(5) . . .
91(5) . . .
97(5) . . .
93(5) . . .
87(5) . . .
77(5) . . .
88(5) . . .
96(5) . . .
99(5) . . .
100(5) . . .
86(5) . . .
100(5) . . .
89(5) . . .
92(5) . . .
85(5) . . .
99(5) . . .
96(5) . . .
94(5) . . .
95(5) . . .
105(6) . . .
90(5) . . .
95(5) . . .
91(5) . . .
92(5) . . .
86(5) . . .
99(6) . . .
91(5) . . .
82(5) . . .
85(5) . . .
87(5) . . .
90(5) . . .
87(5) . . .
95(5) . . .
93(5) . . .
91(5) . . .
92(5) . . .
88(5) . . .
87(5) . . .
91(5) . . .
85(5) . . .
88(5) . . .
92(5) . . .
101(5) . . .
91(5) . . .
97(5) . . .
94(5) . . .
92(5) . . .
86(5) . . .
97(5) . . .
84(5) . . .
94(5) . . .
94(5) . . .
95(5) . . .
87(5) . . .
100(6) . . .
90(5) . . .
94(5) . . .
89(5) . . .
81(5) . . .
84(5) . . .
90(5) . . .
96(5) . . .
76(5) . . .
87(5) . . .
86(5) . . .
95(5) . . .
100(5) . . .
95(5) . . .
88(5) . . .
74(5) . . .
80(5) . . .
91(5) . . .
93(5) . . .
98(5) . . .
95(6) . . .
89(5) . . .
95(5) . . .
103(5) . . .
94(5) . . .
99(6) . . .
96(5) . . .
98(5) . . .
98(5) . . .
96(5) . . .
90(5) . . .
89(5) . . .
89(5) . . .
91(5) . . .
97(5) . . .
94(5) . . .
78(5) . . .
94(5) . . .
98(5) . . .
87(5) . . .
90(5) . . .
84(5) . . .
91(5) . . .
100(5) . . .
97(5) . . .
100(5) . . .
95(5) . . .
83(5) . . .
100(5) . . .
88(5) . . .
85(5) . . .
89(5) . . .
92(5) . . .
98(5) . . .
102(5) . . .
106(6) . . .
79(5) . . .
87(5) . . .
87(5) . . .
102(6) . . .
90(5) . . .
80(5) . . .
84(5) . . .
98(5) . . .
87(5) . . .
83(5) . . .
76(5) . . .
89(5) . . .
99(5) . . .
89(5) . . .
88(5) . . .
97(5) . . .
101(5) . . .
94(5) . . .
95(5) . . .
93(5) . . .
87(5) . . .
99(5) . . .
89(5) . . .
91(5) . . .
83(5) . . .
73(4) . . .
99(5) . . .
92(5) . . .
98(6) . . .
95(5) . . .
94(5) . . .
81(5) . . .
90(5) . . .
97(5) . . .
98(5) . . .
85(5) . . .
74(5) . . .
87(5) . . .
84(5) . . .
89(5) . . .
89(5) . . .
99(5) . . .
82(5) . . .
78(5) . . .
88(5) . . .
86(5) . . .
91(5) . . .
87(5) . . .
88(5) . . .
99(5) . . .
91(5) . . .
83(5) . . .
96(5) . . .
87(5) . . .
96(5) . . .
88(5) . . .
93(5) . . .
77(5) . . .
88(5) . . .
81(5) . . .
90(5) . . .
93(5) . . .
94(5) . . .
84(5) . . .
85(5) . . .
88(5) . . .
85(5) . . .
82(5) . . .
81(5) . . .
107(5) . . .
106(5) . . .
94(5) . . .
90(5) . . .
103(6) . . .
85(5) . . .
94(5) . . .
92(5) . . .
99(5) . . .
93(5) . . .
92(5) . . .
93(5) . . .
77(5) . . .
86(5) . . .
92(5) . . .
79(5) . . .
88(5) . . .
84(5) . . .
89(5) . . .
94(5) . . .
95(5) . . .
96(5) . . .
97(5) . . .
95(5) . . .
97(5) . . .
82(5) . . .
84(5) . . .
90(5) . . .
111(6) . . .
106(5) . . .
89(5) . . .
82(5) . . .
86(5) . . .
75(5) . . .
88(5) . . .
96(5) . . .
84(5) . . .
94(5) . . .
80(5) . . .
93(5) . . .
94(5) . . .
78(5) . . .
87(5) . . .
88(5) . . .
105(5) . . .
94(5) . . .
87(5) . . .
88(5) . . .
94(5) . . .
89(5) . . .
90(5) . . .
95(5) . . .
91(5) . . .
91(5) . . .
77(5) . . .
90(5) . . .
82(5) . . .
98(5) . . .
96(5) . . .
91(5) . . .
85(5) . . .
89(5) . . .
97(6) . . .
80(5) . . .
89(5) . . .
87(5) . . .
81(5) . . .
89(5) . . .
86(5) . . .
88(5) . . .
94(5) . . .
99(6) . . .
89(5) . . .
89(5) . . .
83(5) . . .
83(5) . . .
82(5) . . .
91(5) . . .
81(5) . . .
83(5) . . .
81(5) . . .
88(5) . . .
87(5) . . .
92(5) . . .
93(5) . . .
86(5) . . .
85(5) . . .
87(5) . . .
89(5) . . .
91(5) . . .
80(5) . . .
92(5) . . .
99(5) . . .
98(5) . . .
86(5) . . .
79(5) . . .
85(5) . . .
91(5) . . .
82(5) . . .
87(5) . . .
84(5) . . .
84(5) . . .
91(5) . . .
93(5) . . .
89(5) . . .
100(5) . . .
92(5) . . .
85(5) . . .
85(5) . . .
85(5) . . .
77(5) . . .
89(5) . . .
87(5) . . .
83(5) . . .
95(5) . . .
92(5) . . .
89(5) . . .
81(5) . . .
100(5) . . .
87(5) . . .
92(5) . . .
91(5) . . .
79(5) . . .
80(5) . . .
87(5) . . .
89(5) . . .
78(5) . . .
98(5) . . .
89(5) . . .
79(5) . . .
91(5) . . .
102(6) . . .
97(5) . . .
79(5) . . .
83(5) . . .
93(5) . . .
89(5) . . .
90(5) . . .
101(5) . . .
89(5) . . .
90(5) . . .
77(5) . . .
79(5) . . .
90(5) . . .
87(5) . . .
97(6) . . .
76(5) . . .
75(4) . . .
106(5) . . .
92(5) . . .
86(5) . . .
87(5) . . .
87(5) . . .
73(4) . . .
87(5) . . .
87(5) . . .
81(5) . . .
73(4) . . .
99(5) . . .
85(5) . . .
80(5) . . .
86(5) . . .
88(5) . . .
76(5) . . .
92(5) . . .
98(5) . . .
87(5) . . .
86(5) . . .
82(5) . . .
89(5) . . .
81(5) . . .
89(5) . . .
92(5) . . .
81(5) . . .
83(5) . . .
92(5) . . .
96(5) . . .
93(5) . . .
80(5) . . .
83(5) . . .
87(5) . . .
81(5) . . .
87(5) . . .
84(5) . . .
96(5) . . .
103(6) . . .
76(5) . . .
77(5) . . .
91(5) . . .
96(5) . . .
86(5) . . .
87(5) . . .
78(5) . . .
81(5) . . .
90(5) . . .
94(5) . . .
81(5) . . .
86(5) . . .
88(5) . . .
97(6) . . .
91(5) . . .
97(5) . . .
80(5) . . .
81(5) . . .
82(5) . . .
84(5) . . .
94(5) . . .
88(5) . . .
89(5) . . .
89(5) . . .
86(5) . . .
93(5) . . .
92(5) . . .
91(5) . . .
94(5) . . .
90(5) . . .
88(5) . . .
85(5) . . .
74(5) . . .
82(5) . . .
93(5) . . .
73(4) . . .
77(5) . . .
79(5) . . .
96(5) . . .
92(5) . . .
93(5) . . .
81(5) . . .
85(5) . . .
84(5) . . .
90(5) . . .
85(5) . . .
81(5) . . .
88(5) . . .
100(5) . . .
86(5) . . .
91(5) . . .
92(5) . . .
94(5) . . .
100(5) . . .
87(5) . . .
78(5) . . .
86(5) . . .
90(5) . . .
84(5) . . .
79(5) . . .
94(5) . . .
81(5) . . .
91(5) . . .
92(5) . . .
90(5) . . .
98(5) . . .
94(5) . . .
89(5) . . .
97(5) . . .
88(5) . . .
79(5) . . .
93(5) . . .
82(5) . . .
98(5) . . .
84(5) . . .
83(5) . . .
84(5) . . .
77(5) . . .
87(5) . . .
91(5) . . .
92(5) . . .
86(5) . . .
102(6) . . .
94(5) . . .
86(5) . . .
100(5) . . .
84(5) . . .
74(5) . . .
86(5) . . .
86(5) . . .
86(5) . . .
91(5) . . .
96(5) . . .
80(5) . . .
78(5) . . .
95(5) . . .
87(5) . . .
77(5) . . .
76(5) . . .
93(5) . . .
82(5) . . .
84(5) . . .
100(5) . . .
84(5) . . .
93(5) . . .
86(5) . . .
83(5) . . .
92(5) . . .
91(5) . . .
91(5) . . .
103(5) . . .
92(5) . . .
89(5) . . .
88(5) . . .
86(5) . . .
79(5) . . .
95(6) . . .
93(5) . . .
93(5) . . .
87(5) . . .
96(5) . . .
96(5) . . .
85(5) . . .
88(5) . . .
93(5) . . .
85(5) . . .
100(6) . . .
97(5) . . .
93(5) . . .
84(5) . . .
109(6) . . .
93(5) . . .
92(5) . . .
95(5) . . .
89(5) . . .
95(5) . . .
94(5) . . .
95(5) . . .
88(5) . . .
98(5) . . .
97(5) . . .
86(5) . . .
90(5) . . .
76(5) . . .
84(5) . . .
93(5) . . .
95(5) . . .
78(5) . . .
100(5) . . .
86(5) . . .
80(5) . . .
84(5) . . .
95(5) . . .
80(5) . . .
87(5) . . .
77(5) . . .
75(5) . . .
94(5) . . .
97(5) . . .
92(5) . . .
89(5) . . .
80(5) . . .
82(5) . . .
87(5) . . .
91(5) . . .
88(5) . . .
75(5) . . .
92(5) . . .
89(5) . . .
92(5) . . .
85(5) . . .
79(5) . . .
81(5) . . .
84(5) . . .
77(5) . . .
78(5) . . .
83(5) . . .
94(5) . . .
84(5) . . .
89(5) . . .
86(5) . . .
87(5) . . .
89(5) . . .
84(5) . . .
88(5) . . .
94(5) . . .
92(5) . . .
73(4) . . .
80(5) . . .
76(5) . . .
96(5) . . .
90(5) . . .
84(5) . . .
84(5) . . .
87(5) . . .
87(5) . . .
85(5) . . .
77(4) . . .
77(5) . . .
84(5) . . .
76(5) . . .
82(5) . . .
91(5) . . .
84(5) . . .
88(5) . . .
90(5) . . .
73(4) . . .
89(5) . . .
81(5) . . .
98(6) . . .
81(5) . . .
84(5) . . .
87(5) . . .
87(5) . . .
81(5) . . .
74(5) . . .
80(5) . . .
80(5) . . .
79(5) . . .
76(5) . . .
77(5) . . .
88(5) . . .
79(5) . . .
89(5) . . .
89(5) . . .
85(5) . . .
81(5) . . .
91(5) . . .
75(5) . . .
83(5) . . .
85(5) . . .
85(5) . . .
102(5) . . .
84(5) . . .
91(5) . . .
84(5) . . .
83(5) . . .
102(5) . . .
71(5) . . .
71(5) . . .
82(5) . . .
81(5) . . .
88(5) . . .
85(5) . . .
83(5) . . .
85(5) . . .
83(5) . . .
88(5) . . .
83(5) . . .
92(5) . . .
75(5) . . .
87(5) . . .
94(5) . . .
88(5) . . .
76(5) . . .
82(5) . . .
87(5) . . .
100(5) . . .
97(6) . . .
84(5) . . .
75(5) . . .
82(5) . . .
86(5) . . .
88(5) . . .
92(5) . . .
81(5) . . .
89(5) . . .
89(5) . . .
82(5) . . .
83(5) . . .
87(5) . . .
87(5) . . .
84(5) . . .
81(5) . . .
72(4) . . .
75(4) . . .
94(5) . . .
82(5) . . .
82(5) . . .
87(5) . . .
83(5) . . .
86(5) . . .
76(5) . . .
76(5) . . .
90(5) . . .
73(4) . . .
87(5) . . .
92(5) . . .
81(5) . . .
84(5) . . .
78(5) . . .
92(5) . . .
87(5) . . .
83(5) . . .
87(5) . . .
79(5) . . .
84(5) . . .
76(5) . . .
79(5) . . .
77(5) . . .
97(5) . . .
80(5) . . .
87(5) . . .
77(5) . . .
82(5) . . .
72(4) . . .
82(5) . . .
87(5) . . .
88(5) . . .
80(5) . . .
89(5) . . .
78(5) . . .
85(5) . . .
83(5) . . .
82(5) . . .
89(5) . . .
95(5) . . .
86(5) . . .
89(5) . . .
83(5) . . .
88(5) . . .
82(5) . . .
73(5) . . .
81(5) . . .
74(4) . . .
84(5) . . .
88(5) . . .
78(5) . . .
84(5) . . .
82(5) . . .
102(5) . . .
86(5) . . .
73(4) . . .
88(5) . . .
86(5) . . .
85(5) . . .
80(5) . . .
87(5) . . .
77(5) . . .
82(5) . . .
92(5) . . .
84(5) . . .
78(5) . . .
74(4) . . .
88(5) . . .
73(5) . . .
87(5) . . .
85(5) . . .
91(5) . . .
88(5) . . .
80(5) . . .
75(5) . . .
81(5) . . .
89(5) . . .
95(5) . . .
74(5) . . .
76(5) . . .
88(5) . . .
87(5) . . .
87(5) . . .
82(5) . . .
85(5) . . .
76(5) . . .
85(5) . . .
89(5) . . .
87(5) . . .
80(5) . . .
86(5) . . .
91(5) . . .
86(5) . . .
84(5) . . .
77(5) . . .
77(5) . . .
83(5) . . .
87(5) . . .
78(5) . . .
78(5) . . .
82(5) . . .
96(5) . . .
88(5) . . .
88(5) . . .
84(5) . . .
81(5) . . .
84(5) . . .
78(5) . . .
79(5) . . .
72(5) . . .
82(5) . . .
75(5) . . .
92(5) . . .
87(5) . . .
97(5) . . .
79(5) . . .
75(4) . . .
71(4) . . .
87(5) . . .
83(5) . . .
96(5) . . .
77(5) . . .
88(5) . . .
79(5) . . .
76(5) . . .
74(5) . . .
84(5) . . .
84(5) . . .
97(5) . . .
81(5) . . .
85(5) . . .
82(5) . . .
100(5) . . .
88(5) . . .
86(5) . . .
89(5) . . .
75(5) . . .
85(5) . . .
82(5) . . .
74(5) . . .
87(5) . . .
84(5) . . .
79(5) . . .
94(5) . . .
104(5) . . .
88(5) . . .
76(5) . . .
78(5) . . .
90(5) . . .
81(5) . . .
81(5) . . .
84(5) . . .
77(5) . . .
75(5) . . .
84(5) . . .
86(5) . . .
74(4) . . .
82(5) . . .
72(4) . . .
88(5) . . .
81(5) . . .
83(5) . . .
91(5) . . .
77(5) . . .
74(5) . . .
83(5) . . .
74(5) . . .
84(5) . . .
96(5) . . .
87(5) . . .
89(5) . . .
77(5) . . .
91(5) . . .
80(5) . . .
74(5) . . .
77(5) . . .
79(5) . . .
82(5) . . .
83(5) . . .
88(5) . . .
84(5) . . .
89(5) . . .
93(5) . . .
89(5) . . .
79(5) . . .
70(4) . . .
78(5) . . .
89(5) . . .
95(5) . . .
92(5) . . .
82(5) . . .
78(5) . . .
74(5) . . .
72(5) . . .
82(5) . . .
86(5) . . .
83(5) . . .
78(5) . . .
88(5) . . .
83(5) . . .
87(5) . . .
88(5) . . .
82(5) . . .
89(5) . . .
110(5) . . .
102(5) . . .
74(4) . . .
90(5) . . .
78(5) . . .
77(5) . . .
74(5) . . .
87(5) . . .
80(5) . . .
84(5) . . .
91(5) . . .
83(5) . . .
84(5) . . .
73(5) . . .
79(5) . . .
85(5) . . .
81(5) . . .
76(5) . . .
86(5) . . .
78(5) . . .
84(5) . . .
79(5) . . .
85(5) . . .
88(5) . . .
99(5) . . .
86(5) . . .
80(5) . . .
89(6) . . .
79(5) . . .
84(5) . . .
68(4) . . .
87(5) . . .
74(5) . . .
81(5) . . .
79(5) . . .
85(5) . . .
80(5) . . .
77(5) . . .
72(4) . . .
84(5) . . .
84(5) . . .
78(5) . . .
86(5) . . .
81(5) . . .
85(5) . . .
70(4) . . .
78(5) . . .
84(5) . . .
77(5) . . .
79(5) . . .
77(5) . . .
81(5) . . .
74(5) . . .
78(5) . . .
98(5) . . .
80(5) . . .
89(5) . . .
77(5) . . .
76(5) . . .
81(5) . . .
84(5) . . .
83(5) . . .
63(4) . . .
66(4) . . .
75(5) . . .
79(5) . . .
73(5) . . .
73(5) . . .
79(5) . . .
94(5) . . .
82(5) . . .
84(5) . . .
69(4) . . .
86(5) . . .
77(5) . . .
74(5) . . .
90(5) . . .
85(5) . . .
81(5) . . .
87(5) . . .
94(5) . . .
75(5) . . .
70(4) . . .
87(5) . . .
73(4) . . .
81(5) . . .
89(5) . . .
75(5) . . .
86(5) . . .
75(4) . . .
78(5) . . .
100(6) . . .
85(5) . . .
75(5) . . .
79(5) . . .
96(5) . . .
82(5) . . .
78(5) . . .
76(5) . . .
84(5) . . .
77(5) . . .
78(5) . . .
76(5) . . .
76(5) . . .
86(5) . . .
94(5) . . .
84(5) . . .
72(4) . . .
74(4) . . .
78(5) . . .
74(5) . . .
80(5) . . .
79(5) . . .
84(5) . . .
77(5) . . .
77(5) . . .
86(5) . . .
81(5) . . .
81(5) . . .
73(5) . . .
79(5) . . .
85(5) . . .
94(5) . . .
94(5) . . .
105(6) . . .
73(5) . . .
67(4) . . .
93(5) . . .
77(5) . . .
79(5) . . .
93(5) . . .
87(5) . . .
90(5) . . .
77(5) . . .
82(5) . . .
88(5) . . .
97(5) . . .
86(5) . . .
77(5) . . .
81(5) . . .
85(5) . . .
71(4) . . .
77(5) . . .
83(5) . . .
87(5) . . .
67(4) . . .
85(5) . . .
80(5) . . .
77(5) . . .
81(5) . . .
94(5) . . .
82(5) . . .
82(5) . . .
76(5) . . .
81(5) . . .
85(5) . . .
87(5) . . .
88(5) . . .
88(5) . . .
83(5) . . .
91(5) . . .
82(5) . . .
65(4) . . .
79(5) . . .
85(5) . . .
81(5) . . .
89(5) . . .
79(5) . . .
76(5) . . .
91(5) . . .
95(5) . . .
79(5) . . .
77(5) . . .
84(5) . . .
94(5) . . .
93(5) . . .
91(5) . . .
72(4) . . .
82(5) . . .
87(5) . . .
81(5) . . .
78(5) . . .
75(4) . . .
91(5) . . .
71(4) . . .
79(5) . . .
79(5) . . .
87(5) . . .
83(5) . . .
80(5) . . .
82(5) . . .
88(5) . . .
88(5) . . .
81(5) . . .
88(5) . . .
84(5) . . .
83(5) . . .
80(5) . . .
79(5) . . .
84(5) . . .
75(5) . . .
86(5) . . .
70(4) . . .
74(5) . . .
83(5) . . .
81(5) . . .
83(5) . . .
96(5) . . .
90(5) . . .
87(5) . . .
81(5) . . .
79(5) . . .
81(5) . . .
82(5) . . .
67(5) . . .
86(5) . . .
77(5) . . .
81(5) . . .
90(5) . . .
94(5) . . .
78(5) . . .
87(5) . . .
85(5) . . .
77(5) . . .
81(5) . . .
79(5) . . .
91(5) . . .
87(5) . . .
81(5) . . .
71(4) . . .
73(5) . . .
83(5) . . .
88(5) . . .
96(6) . . .
82(5) . . .
83(5) . . .
86(5) . . .
87(5) . . .
90(5) . . .
89(5) . . .
76(5) . . .
75(4) . . .
87(5) . . .
68(4) . . .
71(5) . . .
83(5) . . .
81(5) . . .
83(5) . . .
87(5) . . .
81(5) . . .
79(5) . . .
80(5) . . .
86(5) . . .
69(4) . . .
85(5) . . .
80(5) . . .
87(5) . . .
85(5) . . .
73(5) . . .
83(5) . . .
95(5) . . .
89(5) . . .
88(5) . . .
88(5) . . .
76(5) . . .
98(5) . . .
76(5) . . .
74(5) . . .
85(5) . . .
77(5) . . .
69(4) . . .
83(5) . . .
83(5) . . .
86(5) . . .
94(5) . . .
88(5) . . .
89(5) . . .
91(5) . . .
90(5) . . .
68(4) . . .
77(5) . . .
80(5) . . .
87(5) . . .
74(5) . . .
83(5) . . .
82(5) . . .
81(5) . . .
83(5) . . .
76(5) . . .
88(5) . . .
83(5) . . .
84(5) . . .
89(5) . . .
69(4) . . .
72(4) . . .
78(5) . . .
78(5) . . .
84(5) . . .
89(5) . . .
81(5) . . .
83(5) . . .
67(4) . . .
82(5) . . .
86(5) . . .
82(5) . . .
83(5) . . .
84(5) . . .
70(5) . . .
79(5) . . .
80(5) . . .
84(5) . . .
92(5) . . .
80(5) . . .
92(5) . . .
87(5) . . .
79(5) . . .
77(5) . . .
78(5) . . .
82(5) . . .
86(5) . . .
85(5) . . .
73(5) . . .
80(5) . . .
83(5) . . .
73(4) . . .
75(5) . . .
80(5) . . .
79(5) . . .
87(5) . . .
85(5) . . .
82(5) . . .
78(5) . . .
74(5) . . .
79(5) . . .
73(4) . . .
76(5) . . .
80(5) . . .
80(5) . . .
65(4) . . .
83(5) . . .
79(5) . . .
82(5) . . .
77(5) . . .
83(5) . . .
89(5) . . .
65(4) . . .
65(5) . . .
72(5) . . .
74(4) . . .
73(5) . . .
64(4) . . .
82(5) . . .
78(5) . . .
69(4) . . .
91(5) . . .
83(5) . . .
81(5) . . .
74(4) . . .
82(5) . . .
76(5) . . .
71(5) . . .
76(5) . . .
81(5) . . .
76(4) . . .
76(5) . . .
65(4) . . .
89(5) . . .
76(5) . . .
65(4) . . .
82(5) . . .
78(5) . . .
72(4) . . .
70(4) . . .
77(5) . . .
75(5) . . .
72(5) . . .
76(5) . . .
75(5) . . .
79(5) . . .
78(5) . . .
82(5) . . .
76(5) . . .
95(5) . . .
74(4) . . .
71(4) . . .
86(5) . . .
89(5) . . .
72(4) . . .
75(4) . . .
76(5) . . .
84(5) . . .
72(4) . . .
73(4) . . .
70(4) . . .
72(5) . . .
83(5) . . .
77(5) . . .
75(5) . . .
95(5) . . .
75(5) . . .
95(5) . . .
85(5) . . .
76(5) . . .
68(4) . . .
76(5) . . .
77(5) . . .
82(5) . . .
96(5) . . .
84(5) . . .
88(5) . . .
77(5) . . .
87(5) . . .
87(5) . . .
88(5) . . .
82(5) . . .
69(5) . . .
73(5) . . .
76(5) . . .
79(5) . . .
72(5) . . .
72(4) . . .
77(5) . . .
81(5) . . .
75(5) . . .
78(5) . . .
74(5) . . .
73(5) . . .
76(4) . . .
90(5) . . .
75(5) . . .
64(4) . . .
73(5) . . .
71(4) . . .
78(5) . . .
88(5) . . .
93(5) . . .
84(5) . . .
72(5) . . .
88(5) . . .
74(5) . . .
75(5) . . .
68(4) . . .
78(5) . . .
71(4) . . .
88(5) . . .
85(5) . . .
77(5) . . .
86(5) . . .
83(5) . . .
82(5) . . .
78(5) . . .
84(5) . . .
93(5) . . .
81(5) . . .
84(5) . . .
71(5) . . .
74(5) . . .
74(5) . . .
76(5) . . .
66(4) . . .
72(5) . . .
81(5) . . .
89(5) . . .
79(5) . . .
81(5) . . .
84(5) . . .
81(5) . . .
79(5) . . .
77(5) . . .
84(5) . . .
78(5) . . .
81(5) . . .
82(5) . . .
86(5) . . .
81(5) . . .
77(5) . . .
81(5) . . .
91(5) . . .
56(4) . . .
73(5) . . .
88(5) . . .
79(5) . . .
85(5) . . .
78(5) . . .
70(4) . . .
86(5) . . .
77(5) . . .
70(4) . . .
74(5) . . .
73(5) . . .
77(5) . . .
76(5) . . .
80(5) . . .
79(5) . . .
70(4) . . .
88(5) . . .
83(5) . . .
80(5) . . .
87(5) . . .
86(5) . . .
96(5) . . .
75(5) . . .
81(5) . . .
85(5) . . .
86(5) . . .
71(4) . . .
73(4) . . .
86(5) . . .
77(5) . . .
81(5) . . .
84(5) . . .
83(5) . . .
86(5) . . .
81(5) . . .
79(5) . . .
86(5) . . .
82(5) . . .
83(5) . . .
84(5) . . .
93(5) . . .
83(5) . . .
86(5) . . .
73(5) . . .
82(5) . . .
70(4) . . .
88(5) . . .
98(5) . . .
78(5) . . .
83(5) . . .
76(5) . . .
81(5) . . .
71(4) . . .
65(4) . . .
79(5) . . .
83(5) . . .
76(4) . . .
72(4) . . .
76(5) . . .
73(5) . . .
77(5) . . .
81(5) . . .
72(4) . . .
84(5) . . .
83(5) . . .
71(4) . . .
78(5) . . .
80(5) . . .
85(5) . . .
86(5) . . .
89(5) . . .
74(4) . . .
72(5) . . .
70(5) . . .
83(5) . . .
66(4) . . .
87(5) . . .
77(5) . . .
70(5) . . .
75(5) . . .
90(5) . . .
79(5) . . .
87(5) . . .
91(5) . . .
89(5) . . .
90(5) . . .
81(5) . . .
78(5) . . .
74(5) . . .
80(5) . . .
77(5) . . .
76(5) . . .
71(5) . . .
72(5) . . .
81(5) . . .
71(4) . . .
80(5) . . .
74(5) . . .
65(4) . . .
80(5) . . .
62(4) . . .
70(4) . . .
77(5) . . .
79(5) . . .
79(5) . . .
78(5) . . .
81(5) . . .
83(5) . . .
77(5) . . .
75(4) . . .
75(4) . . .
77(5) . . .
80(5) . . .
72(5) . . .
72(4) . . .
80(5) . . .
86(5) . . .
81(5) . . .
75(5) . . .
78(5) . . .
68(4) . . .
67(4) . . .
87(5) . . .
83(5) . . .
81(5) . . .
81(5) . . .
74(5) . . .
75(5) . . .
74(5) . . .
82(5) . . .
78(5) . . .
78(5) . . .
81(5) . . .
71(4) . . .
73(4) . . .
64(4) . . .
82(5) . . .
79(5) . . .
78(5) . . .
71(4) . . .
83(5) . . .
72(5) . . .
63(4) . . .
84(5) . . .
74(4) . . .
77(5) . . .
77(5) . . .
73(5) . . .
77(5) . . .
76(5) . . .
78(5) . . .
86(5) . . .
82(5) . . .
90(5) . . .
75(5) . . .
76(5) . . .
73(5) . . .
69(4) . . .
88(5) . . .
90(5) . . .
71(4) . . .
76(5) . . .
92(5) . . .
75(5) . . .
75(5) . . .
84(5) . . .
82(5) . . .
81(5) . . .
87(5) . . .
78(5) . . .
83(5) . . .
88(5) . . .
74(4) . . .
79(5) . . .
71(4) . . .
72(5) . . .
72(5) . . .
80(5) . . .
79(5) . . .
84(5) . . .
81(5) . . .
87(5) . . .
77(5) . . .
70(4) . . .
90(5) . . .
75(5) . . .
77(5) . . .
70(4) . . .
79(5) . . .
75(5) . . .
66(4) . . .
81(5) . . .
87(5) . . .
74(4) . . .
76(5) . . .
80(5) . . .
64(4) . . .
73(4) . . .
71(4) . . .
84(5) . . .
77(5) . . .
88(5) . . .
85(5) . . .
85(5) . . .
75(5) . . .
83(5) . . .
84(5) . . .
75(4) . . .
67(4) . . .
93(5) . . .
83(5) . . .
81(5) . . .
75(5) . . .
75(5) . . .
67(5) . . .
78(5) . . .
73(5) . . .
65(4) . . .
76(5) . . .
82(5) . . .
84(5) . . .
82(5) . . .
78(5) . . .
70(4) . . .
66(4) . . .
74(5) . . .
72(4) . . .
78(5) . . .
76(5) . . .
82(5) . . .
91(5) . . .
68(4) . . .
84(5) . . .
80(5) . . .
88(5) . . .
79(5) . . .
73(5) . . .
73(4) . . .
81(5) . . .
85(5) . . .
84(5) . . .
75(5) . . .
59(4) . . .
71(5) . . .
83(5) . . .
71(4) . . .
70(4) . . .
74(4) . . .
76(5) . . .
69(5) . . .
91(5) . . .
74(4) . . .
72(4) . . .
67(4) . . .
86(5) . . .
81(5) . . .
88(5) . . .
73(5) . . .
75(5) . . .
80(5) . . .
86(5) . . .
87(5) . . .
79(5) . . .
80(5) . . .
91(5) . . .
71(4) . . .
70(4) . . .
74(4) . . .
82(5) . . .
85(5) . . .
84(5) . . .
68(4) . . .
89(5) . . .
83(5) . . .
84(5) . . .
70(4) . . .
86(5) . . .
69(4) . . .
78(5) . . .
84(5) . . .
76(5) . . .
86(5) . . .
77(5) . . .
87(5) . . .
81(5) . . .
77(5) . . .
71(4) . . .
75(5) . . .
69(4) . . .
71(5) . . .
76(5) . . .
89(5) . . .
74(5) . . .
67(5) . . .
77(5) . . .
76(5) . . .
82(5) . . .
80(5) . . .
76(5) . . .
72(4) . . .
64(4) . . .
83(5) . . .
80(5) . . .
92(6) . . .
76(5) . . .
76(5) . . .
86(5) . . .
79(5) . . .
73(5) . . .
71(5) . . .
75(5) . . .
98(5) . . .
77(5) . . .
70(5) . . .
72(5) . . .
76(5) . . .
74(5) . . .
62(4) . . .
66(4) . . .
70(5) . . .
74(4) . . .
62(4) . . .
67(4) . . .
85(5) . . .
82(5) . . .
84(5) . . .
89(5) . . .
80(5) . . .
81(5) . . .
78(5) . . .
72(4) . . .
82(5) . . .
74(4) . . .
77(5) . . .
81(5) . . .
77(5) . . .
76(5) . . .
72(5) . . .
67(4) . . .
81(5) . . .
80(5) . . .
83(5) . . .
74(5) . . .
83(5) . . .
69(4) . . .
77(5) . . .
78(5) . . .
75(5) . . .
73(5) . . .
77(5) . . .
69(4) . . .
76(5) . . .
75(5) . . .
64(4) . . .
77(5) . . .
65(4) . . .
84(5) . . .
82(5) . . .
83(5) . . .
83(5) . . .
90(5) . . .
90(5) . . .
74(5) . . .
75(5) . . .
77(5) . . .
78(5) . . .
82(5) . . .
84(5) . . .
83(5) . . .
76(5) . . .
75(5) . . .
74(5) . . .
80(5) . . .
80(5) . . .
72(4) . . .
77(5) . . .
76(5) . . .
83(5) . . .
80(5) . . .
73(5) . . .
88(5) . . .
81(5) . . .
76(5) . . .
78(5) . . .
79(5) . . .
74(5) . . .
72(5) . . .
70(5) . . .
73(5) . . .
96(5) . . .
67(4) . . .
73(5) . . .
67(4) . . .
90(5) . . .
86(5) . . .
63(4) . . .
74(5) . . .
75(5) . . .
90(5) . . .
76(4) . . .
75(5) . . .
76(5) . . .
72(4) . . .
86(5) . . .
84(5) . . .
61(4) . . .
78(5) . . .
73(5) . . .
69(4) . . .
83(5) . . .
79(5) . . .
78(5) . . .
80(5) . . .
83(5) . . .
78(5) . . .
74(5) . . .
71(5) . . .
77(5) . . .
71(4) . . .
76(5) . . .
83(5) . . .
81(5) . . .
80(5) . . .
78(5) . . .
80(5) . . .
75(5) . . .
88(5) . . .
80(5) . . .
79(5) . . .
78(5) . . .
84(5) . . .
67(4) . . .
87(5) . . .
78(5) . . .
80(5) . . .
88(5) . . .
88(5) . . .
83(5) . . .
73(4) . . .
78(5) . . .
76(5) . . .
87(5) . . .
82(5) . . .
68(4) . . .
87(5) . . .
75(5) . . .
70(4) . . .
76(5) . . .
82(5) . . .
82(5) . . .
78(5) . . .
74(5) . . .
83(5) . . .
76(5) . . .
85(5) . . .
88(5) . . .
82(5) . . .
75(4) . . .
82(5) . . .
85(5) . . .
73(5) . . .
80(5) . . .
85(5) . . .
75(4) . . .
58(4) . . .
82(5) . . .
85(5) . . .
75(5) . . .
97(5) . . .
92(5) . . .
78(5) . . .
73(5) . . .
78(5) . . .
68(4) . . .
59(4) . . .
70(5) . . .
66(4) . . .
71(4) . . .
77(5) . . .
67(4) . . .
85(5) . . .
69(4) . . .
80(5) . . .
70(4) . . .
80(5) . . .
72(5) . . .
76(5) . . .
63(4) . . .
69(5) . . .
64(4) . . .
74(5) . . .
79(5) . . .
79(5) . . .
86(5) . . .
82(5) . . .
92(5) . . .
62(4) . . .
76(5) . . .
70(4) . . .
97(5) . . .
87(5) . . .
74(4) . . .
83(5) . . .
79(5) . . .
75(5) . . .
93(5) . . .
80(5) . . .
79(5) . . .
85(5) . . .
80(5) . . .
70(4) . . .
85(5) . . .
77(4) . . .
69(4) . . .
76(5) . . .
80(5) . . .
79(5) . . .
68(4) . . .
78(5) . . .
80(5) . . .
84(5) . . .
76(5) . . .
80(5) . . .
77(5) . . .
83(5) . . .
76(5) . . .
76(5) . . .
73(5) . . .
65(4) . . .
68(4) . . .
68(4) . . .
70(4) . . .
85(5) . . .
65(4) . . .
78(5) . . .
76(5) . . .
68(4) . . .
86(5) . . .
85(5) . . .
80(5) . . .
71(4) . . .
70(4) . . .
75(5) . . .
79(5) . . .
82(5) . . .
73(5) . . .
81(5) . . .
81(5) . . .
63(4) . . .
79(5) . . .
77(5) . . .
72(4) . . .
80(5) . . .
79(5) . . .
66(4) . . .
71(4) . . .
82(5) . . .
84(5) . . .
91(5) . . .
72(4) . . .
73(4) . . .
74(5) . . .
71(4) . . .
75(5) . . .
66(4) . . .
76(4) . . .
74(4) . . .
79(5) . . .
73(5) . . .
83(5) . . .
76(5) . . .
69(4) . . .
80(5) . . .
73(5) . . .
66(4) . . .
81(5) . . .
66(4) . . .
70(5) . . .
59(4) . . .
64(4) . . .
80(5) . . .
70(4) . . .
77(5) . . .
66(4) . . .
74(5) . . .
69(4) . . .
72(4) . . .
67(5) . . .
65(4) . . .
79(5) . . .
86(5) . . .
77(5) . . .
75(5) . . .
83(5) . . .
82(5) . . .
74(4) . . .
70(5) . . .
73(5) . . .
73(4) . . .
76(5) . . .
69(4) . . .
80(5) . . .
74(5) . . .
73(5) . . .
72(5) . . .
66(4) . . .
65(4) . . .
83(5) . . .
62(4) . . .
71(4) . . .
64(4) . . .
83(5) . . .
83(5) . . .
66(4) . . .
71(4) . . .
72(4) . . .
71(4) . . .
80(5) . . .
68(4) . . .
58(4) . . .
98(5) . . .
83(5) . . .
75(5) . . .
81(5) . . .
68(4) . . .
76(5) . . .
81(5) . . .
73(5) . . .
81(5) . . .
84(5) . . .
74(5) . . .
83(5) . . .
82(5) . . .
71(4) . . .
87(5) . . .
89(5) . . .
71(5) . . .
64(5) . . .
66(4) . . .
63(4) . . .
69(5) . . .
83(5) . . .
71(5) . . .
76(5) . . .
77(5) . . .
87(5) . . .
79(5) . . .
77(5) . . .
66(4) . . .
76(5) . . .
63(4) . . .
84(5) . . .
73(5) . . .
80(5) . . .
84(5) . . .
80(5) . . .
84(5) . . .
77(5) . . .
85(5) . . .
76(5) . . .
70(4) . . .
72(5) . . .
67(5) . . .
69(5) . . .
73(4) . . .
70(5) . . .
65(4) . . .
76(5) . . .
79(5) . . .
72(4) . . .
66(4) . . .
78(5) . . .
67(4) . . .
60(4) . . .
76(5) . . .
79(5) . . .
73(5) . . .
81(5) . . .
79(5) . . .
76(5) . . .
76(5) . . .
76(5) . . .
65(4) . . .
66(4) . . .
64(4) . . .
68(4) . . .
90(5) . . .
84(5) . . .
73(4) . . .
77(5) . . .
83(5) . . .
74(5) . . .
66(4) . . .
71(4) . . .
82(5) . . .
93(5) . . .
73(5) . . .
64(4) . . .
69(4) . . .
83(5) . . .
67(4) . . .
70(4) . . .
71(4) . . .
68(4) . . .
72(4) . . .
86(5) . . .
80(5) . . .
68(4) . . .
72(4) . . .
71(4) . . .
69(5) . . .
64(4) . . .
71(4) . . .
75(5) . . .
73(4) . . .
77(5) . . .
79(5) . . .
82(5) . . .
77(5) . . .
81(5) . . .
71(5) . . .
82(5) . . .
72(4) . . .
74(5) . . .
86(5) . . .
88(5) . . .
72(5) . . .
73(4) . . .
69(4) . . .
71(4) . . .
94(5) . . .
79(5) . . .
66(4) . . .
68(4) . . .
55(4) . . .
71(5) . . .
74(5) . . .
71(4) . . .
78(5) . . .
76(5) . . .
75(5) . . .
71(4) . . .
64(4) . . .
73(4) . . .
84(5) . . .
74(5) . . .
70(4) . . .
76(5) . . .
74(5) . . .
71(4) . . .
76(5) . . .
85(5) . . .
69(4) . . .
60(4) . . .
70(5) . . .
66(4) . . .
80(5) . . .
80(5) . . .
81(5) . . .
67(5) . . .
75(5) . . .
89(5) . . .
72(4) . . .
82(5) . . .
78(5) . . .
70(5) . . .
67(4) . . .
71(4) . . .
81(5) . . .
72(5) . . .
70(5) . . .
86(5) . . .
76(5) . . .
66(4) . . .
68(4) . . .
80(5) . . .
83(5) . . .
69(4) . . .
78(5) . . .
74(5) . . .
69(4) . . .
83(5) . . .
82(5) . . .
66(4) . . .
73(5) . . .
71(4) . . .
73(4) . . .
66(4) . . .
74(5) . . .
92(5) . . .
91(5) . . .
71(4) . . .
80(5) . . .
97(5) . . .
81(5) . . .
77(5) . . .
67(4) . . .
74(5) . . .
80(5) . . .
74(5) . . .
72(4) . . .
74(4) . . .
72(5) . . .
73(5) . . .
71(5) . . .
70(5) . . .
66(4) . . .
72(5) . . .
82(5) . . .
73(5) . . .
74(5) . . .
84(5) . . .
78(5) . . .
93(5) . . .
71(4) . . .
71(4) . . .
82(5) . . .
75(5) . . .
71(5) . . .
78(5) . . .
68(4) . . .
73(5) . . .
74(5) . . .
79(5) . . .
69(4) . . .
70(4) . . .
85(5) . . .
80(5) . . .
66(4) . . .
64(4) . . .
75(5) . . .
91(5) . . .
79(5) . . .
87(5) . . .
83(5) . . .
85(5) . . .
70(4) . . .
71(5) . . .
63(4) . . .
76(5) . . .
81(5) . . .
80(5) . . .
76(5) . . .
78(5) . . .
69(4) . . .
69(4) . . .
67(4) . . .
76(5) . . .
78(5) . . .
64(4) . . .
73(4) . . .
71(5) . . .
63(4) . . .
68(4) . . .
85(5) . . .
79(5) . . .
85(5) . . .
75(5) . . .
75(5) . . .
84(5) . . .
72(4) . . .
69(4) . . .
80(5) . . .
77(5) . . .
74(5) . . .
88(5) . . .
72(4) . . .
74(5) . . .
72(5) . . .
63(4) . . .
75(5) . . .
86(5) . . .
75(5) . . .
72(4) . . .
70(4) . . .
78(5) . . .
78(5) . . .
67(4) . . .
74(5) . . .
73(4) . . .
73(4) . . .
64(4) . . .
75(5) . . .
67(4) . . .
69(4) . . .
67(4) . . .
77(5) . . .
72(5) . . .
67(4) . . .
72(4) . . .
92(5) . . .
71(5) . . .
71(5) . . .
79(5) . . .
85(5) . . .
80(5) . . .
78(5) . . .
62(4) . . .
78(5) . . .
71(4) . . .
65(4) . . .
77(5) . . .
77(5) . . .
84(5) . . .
69(4) . . .
66(4) . . .
66(4) . . .
70(5) . . .
74(4) . . .
75(4) . . .
74(5) . . .
92(6) . . .
78(5) . . .
55(4) . . .
62(4) . . .
67(4) . . .
68(5) . . .
85(5) . . .
74(4) . . .
71(4) . . .
68(4) . . .
71(5) . . .
73(4) . . .
73(4) . . .
68(4) . . .
73(5) . . .
69(5) . . .
67(4) . . .
74(4) . . .
77(5) . . .
76(5) . . .
75(5) . . .
69(4) . . .
62(4) . . .
70(5) . . .
72(5) . . .
62(4) . . .
74(5) . . .
66(4) . . .
76(5) . . .
78(5) . . .
73(5) . . .
66(4) . . .
69(4) . . .
87(5) . . .
71(4) . . .
73(5) . . .
70(5) . . .
72(4) . . .
69(4) . . .
70(5) . . .
68(4) . . .
60(4) . . .
81(5) . . .
85(5) . . .
92(5) . . .
74(5) . . .
67(4) . . .
76(5) . . .
75(5) . . .
76(5) . . .
76(5) . . .
68(4) . . .
74(5) . . .
76(5) . . .
69(5) . . .
64(4) . . .
69(4) . . .
73(4) . . .
68(4) . . .
83(5) . . .
74(5) . . .
61(4) . . .
74(5) . . .
71(4) . . .
69(4) . . .
74(5) . . .
69(4) . . .
69(4) . . .
61(4) . . .
66(5) . . .
73(5) . . .
60(4) . . .
72(5) . . .
83(5) . . .
71(4) . . .
74(5) . . .
75(5) . . .
73(5) . . .
75(5) . . .
66(4) . . .
80(5) . . .
75(5) . . .
70(4) . . .
67(4) . . .
74(5) . . .
72(5) . . .
67(4) . . .
75(5) . . .
79(5) . . .
79(5) . . .
74(5) . . .
65(4) . . .
68(4) . . .
79(5) . . .
72(4) . . .
69(4) . . .
72(4) . . .
77(5) . . .
74(5) . . .
62(4) . . .
67(4) . . .
64(4) . . .
82(5) . . .
71(5) . . .
60(4) . . .
84(5) . . .
87(5) . . .
74(5) . . .
73(5) . . .
68(5) . . .
74(5) . . .
80(5) . . .
78(5) . . .
72(5) . . .
69(5) . . .
76(5) . . .
78(5) . . .
70(5) . . .
69(5) . . .
81(5) . . .
64(4) . . .
70(4) . . .
67(4) . . .
74(5) . . .
72(4) . . .
71(4) . . .
71(5) . . .
64(4) . . .
64(4) . . .
77(5) . . .
83(5) . . .
80(5) . . .
78(5) . . .
79(5) . . .
79(5) . . .
74(4) . . .
72(5) . . .
62(4) . . .
72(5) . . .
65(4) . . .
63(4) . . .
63(4) . . .
74(5) . . .
78(5) . . .
77(5) . . .
87(5) . . .
67(4) . . .
89(6) . . .
72(5) . . .
91(5) . . .
79(5) . . .
77(5) . . .
58(4) . . .
78(5) . . .
83(5) . . .
72(4) . . .
89(5) . . .
84(5) . . .
78(5) . . .
71(4) . . .
77(5) . . .
76(5) . . .
68(4) . . .
66(4) . . .
70(4) . . .
70(4) . . .
83(5) . . .
77(5) . . .
76(5) . . .
70(4) . . .
70(4) . . .
79(5) . . .
71(5) . . .
77(5) . . .
83(5) . . .
85(5) . . .
80(5) . . .
74(5) . . .
74(5) . . .
75(5) . . .
75(5) . . .
65(4) . . .
76(5) . . .
77(5) . . .
83(5) . . .
68(4) . . .
74(5) . . .
66(4) . . .
88(5) . . .
63(4) . . .
67(4) . . .
72(5) . . .
79(5) . . .
71(4) . . .
76(5) . . .
76(5) . . .
61(4) . . .
76(5) . . .
86(5) . . .
79(5) . . .
85(5) . . .
83(5) . . .
79(5) . . .
71(4) . . .
75(4) . . .
81(5) . . .
82(5) . . .
69(4) . . .
83(5) . . .
73(4) . . .
69(5) . . .
79(5) . . .
77(5) . . .
71(4) . . .
72(4) . . .
76(5) . . .
77(5) . . .
83(5) . . .
65(4) . . .
71(4) . . .
80(5) . . .
68(5) . . .
66(4) . . .
67(4) . . .
60(4) . . .
74(5) . . .
79(5) . . .
78(5) . . .
78(5) . . .
67(4) . . .
74(5) . . .
77(5) . . .
72(5) . . .
77(5) . . .
75(5) . . .
78(5) . . .
73(5) . . .
77(5) . . .
80(5) . . .
74(5) . . .
74(5) . . .
73(4) . . .
84(5) . . .
77(5) . . .
71(4) . . .
80(5) . . .
75(5) . . .
73(4) . . .
79(5) . . .
87(5) . . .
71(5) . . .
57(4) . . .
64(4) . . .
72(4) . . .
75(5) . . .
78(5) . . .
74(5) . . .
78(5) . . .
73(5) . . .
66(4) . . .
73(5) . . .
73(5) . . .
77(5) . . .
73(5) . . .
80(5) . . .
75(5) . . .
66(4) . . .
71(4) . . .
79(5) . . .
76(5) . . .
68(4) . . .
65(4) . . .
81(5) . . .
76(5) . . .
64(4) . . .
77(5) . . .
70(5) . . .
69(4) . . .
60(4) . . .
68(4) . . .
74(5) . . .
74(5) . . .
77(5) . . .
75(5) . . .
76(5) . . .
66(4) . . .
69(4) . . .
72(4) . . .
64(4) . . .
66(4) . . .
78(5) . . .
66(4) . . .
75(4) . . .
85(5) . . .
80(5) . . .
86(5) . . .
74(4) . . .
83(5) . . .
78(5) . . .
76(5) . . .
76(5) . . .
78(5) . . .
83(5) . . .
69(5) . . .
68(5) . . .
68(4) . . .
75(5) . . .
66(4) . . .
85(5) . . .
77(5) . . .
70(4) . . .
73(4) . . .
80(5) . . .
68(5) . . .
74(5) . . .
69(4) . . .
75(5) . . .
85(5) . . .
89(5) . . .
75(5) . . .
65(4) . . .
75(4) . . .
79(5) . . .
92(5) . . .
78(5) . . .
83(5) . . .
93(5) . . .
70(4) . . .
73(5) . . .
78(5) . . .
73(4) . . .
68(4) . . .
70(5) . . .
77(5) . . .
72(5) . . .
60(4) . . .
65(4) . . .
74(4) . . .
79(5) . . .
69(4) . . .
76(5) . . .
71(4) . . .
67(5) . . .
73(5) . . .
67(4) . . .
73(4) . . .
71(4) . . .
72(5) . . .
78(5) . . .
76(5) . . .
74(4) . . .
77(5) . . .
74(5) . . .
72(5) . . .
69(5) . . .
79(5) . . .
73(4) . . .
75(5) . . .
71(5) . . .
74(5) . . .
71(4) . . .
81(5) . . .
77(5) . . .
58(4) . . .
76(5) . . .
79(5) . . .
83(5) . . .
79(5) . . .
83(5) . . .
80(5) . . .
63(4) . . .
59(4) . . .
85(5) . . .
77(5) . . .
73(5) . . .
65(4) . . .
85(5) . . .
77(5) . . .
79(5) . . .
77(5) . . .
77(5) . . .
78(5) . . .
76(5) . . .
76(5) . . .
86(5) . . .
72(4) . . .
67(4) . . .
63(4) . . .
67(4) . . .
77(5) . . .
75(5) . . .
71(5) . . .
73(5) . . .
69(4) . . .
68(4) . . .
74(4) . . .
61(4) . . .
75(5) . . .
79(5) . . .
82(5) . . .
75(4) . . .
75(5) . . .
70(5) . . .
79(5) . . .
59(4) . . .
75(4) . . .
79(5) . . .
74(5) . . .
78(5) . . .
73(4) . . .
77(5) . . .
75(5) . . .
77(5) . . .
68(5) . . .
66(4) . . .
80(5) . . .
78(5) . . .
71(5) . . .
69(5) . . .
74(5) . . .
76(5) . . .
73(5) . . .
70(5) . . .
66(4) . . .
59(4) . . .
81(5) . . .
65(4) . . .
72(5) . . .
79(5) . . .
96(5) . . .
78(5) . . .
76(5) . . .
66(4) . . .
76(5) . . .
72(4) . . .
64(4) . . .
78(5) . . .
75(5) . . .
73(5) . . .
71(4) . . .
70(5) . . .
63(4) . . .
67(5) . . .
73(5) . . .
70(4) . . .
73(5) . . .
68(5) . . .
76(5) . . .
73(5) . . .
68(4) . . .
65(4) . . .
72(5) . . .
64(4) . . .
77(5) . . .
71(4) . . .
77(5) . . .
77(5) . . .
77(5) . . .
72(5) . . .
76(4) . . .
66(4) . . .
65(5) . . .
64(4) . . .
69(4) . . .
70(4) . . .
71(4) . . .
68(4) . . .
71(5) . . .
74(4) . . .
69(5) . . .
79(5) . . .
75(5) . . .
64(4) . . .
71(4) . . .
77(5) . . .
70(4) . . .
70(5) . . .
88(5) . . .
69(4) . . .
80(5) . . .
69(5) . . .
69(5) . . .
61(4) . . .
64(4) . . .
75(5) . . .
76(5) . . .
76(5) . . .
67(4) . . .
67(4) . . .
70(5) . . .
63(4) . . .
73(4) . . .
71(4) . . .
70(4) . . .
75(5) . . .
82(5) . . .
78(5) . . .
78(5) . . .
69(4) . . .
68(4) . . .
70(5) . . .
58(4) . . .
63(4) . . .
66(4) . . .
68(4) . . .
65(4) . . .
75(5) . . .
71(4) . . .
60(4) . . .
68(5) . . .
53(4) . . .
64(4) . . .
60(4) . . .
76(5) . . .
80(5) . . .
75(5) . . .
67(4) . . .
85(5) . . .
84(5) . . .
76(5) . . .
74(5) . . .
70(4) . . .
78(5) . . .
77(5) . . .
81(5) . . .
69(4) . . .
80(5) . . .
75(4) . . .
73(5) . . .
67(5) . . .
68(5) . . .
73(5) . . .
57(4) . . .
75(5) . . .
63(4) . . .
67(5) . . .
59(4) . . .
62(4) . . .
62(4) . . .
70(5) . . .
67(5) . . .
70(4) . . .
68(4) . . .
76(5) . . .
71(5) . . .
73(5) . . .
70(4) . . .
79(5) . . .
62(4) . . .
74(5) . . .
65(4) . . .
71(4) . . .
78(5) . . .
72(5) . . .
77(5) . . .
78(5) . . .
72(4) . . .
84(5) . . .
68(4) . . .
61(4) . . .
80(5) . . .
71(4) . . .
65(4) . . .
77(5) . . .
64(4) . . .
75(5) . . .
66(4) . . .
73(5) . . .
62(4) . . .
67(4) . . .
64(4) . . .
75(4) . . .
83(5) . . .
63(4) . . .
67(4) . . .
75(5) . . .
66(4) . . .
71(4) . . .
68(4) . . .
59(4) . . .
76(5) . . .
63(4) . . .
58(4) . . .
69(5) . . .
67(5) . . .
67(4) . . .
65(4) . . .
75(5) . . .
73(5) . . .
74(5) . . .
77(5) . . .
69(4) . . .
73(5) . . .
68(5) . . .
58(4) . . .
70(4) . . .
63(4) . . .
72(5) . . .
78(5) . . .
70(4) . . .
73(5) . . .
70(4) . . .
85(5) . . .
68(5) . . .
61(4) . . .
62(4) . . .
83(5) . . .
76(5) . . .
65(4) . . .
77(5) . . .
75(5) . . .
76(5) . . .
75(5) . . .
71(5) . . .
70(5) . . .
79(5) . . .
80(5) . . .
73(5) . . .
68(4) . . .
70(4) . . .
57(4) . . .
71(5) . . .
73(5) . . .
68(5) . . .
67(4) . . .
64(4) . . .
66(4) . . .
80(5) . . .
73(5) . . .
81(5) . . .
62(4) . . .
73(5) . . .
72(5) . . .
64(4) . . .
63(4) . . .
74(4) . . .
61(4) . . .
69(4) . . .
71(4) . . .
66(4) . . .
72(4) . . .
69(4) . . .
68(5) . . .
61(4) . . .
71(5) . . .
63(4) . . .
79(5) . . .
71(5) . . .
65(4) . . .
73(4) . . .
70(4) . . .
66(4) . . .
63(4) . . .
72(5) . . .
81(5) . . .
71(4) . . .
67(4) . . .
74(5) . . .
58(4) . . .
67(4) . . .
71(4) . . .
82(5) . . .
76(5) . . .
65(4) . . .
67(4) . . .
75(5) . . .
73(4) . . .
74(5) . . .
79(5) . . .
77(5) . . .
69(4) . . .
63(4) . . .
75(5) . . .
68(4) . . .
68(4) . . .
77(5) . . .
71(5) . . .
64(4) . . .
64(4) . . .
69(4) . . .
74(5) . . .
66(4) . . .
72(5) . . .
74(5) . . .
84(5) . . .
69(4) . . .
73(4) . . .
69(4) . . .
67(5) . . .
74(4) . . .
67(4) . . .
74(5) . . .
81(5) . . .
85(5) . . .
64(4) . . .
70(5) . . .
64(4) . . .
82(5) . . .
76(5) . . .
70(4) . . .
69(4) . . .
73(5) . . .
70(5) . . .
73(5) . . .
72(4) . . .
79(5) . . .
89(5) . . .
63(4) . . .
63(4) . . .
58(4) . . .
69(5) . . .
76(5) . . .
63(4) . . .
85(5) . . .
78(5) . . .
60(4) . . .
61(4) . . .
74(5) . . .
77(5) . . .
70(4) . . .
78(5) . . .
76(5) . . .
75(5) . . .
78(5) . . .
75(4) . . .
71(5) . . .
73(5) . . .
72(5) . . .
72(5) . . .
64(4) . . .
72(5) . . .
63(4) . . .
63(4) . . .
67(4) . . .
69(4) . . .
65(4) . . .
68(4) . . .
64(4) . . .
77(5) . . .
72(5) . . .
70(5) . . .
69(4) . . .
74(4) . . .
73(4) . . .
75(5) . . .
78(5) . . .
68(4) . . .
77(5) . . .
80(5) . . .
77(5) . . .
80(5) . . .
76(5) . . .
76(5) . . .
76(5) . . .
77(5) . . .
80(5) . . .
67(4) . . .
72(4) . . .
70(4) . . .
79(5) . . .
70(4) . . .
77(5) . . .
86(5) . . .
86(5) . . .
62(4) . . .
80(5) . . .
66(4) . . .
63(4) . . .
79(5) . . .
73(5) . . .
83(5) . . .
80(5) . . .
87(5) . . .
74(5) . . .
63(4) . . .
74(5) . . .
77(5) . . .
69(4) . . .
76(5) . . .
75(5) . . .
77(5) . . .
76(5) . . .
63(4) . . .
65(4) . . .
82(5) . . .
74(5) . . .
82(5) . . .
61(4) . . .
74(5) . . .
64(4) . . .
75(5) . . .
64(4) . . .
66(4) . . .
80(5) . . .
79(5) . . .
73(5) . . .
73(4) . . .
67(4) . . .
68(4) . . .
71(5) . . .
64(4) . . .
64(4) . . .
61(4) . . .
75(5) . . .
74(5) . . .
83(5) . . .
73(4) . . .
70(4) . . .
72(4) . . .
74(5) . . .
71(4) . . .
67(4) . . .
68(4) . . .
73(5) . . .
82(5) . . .
72(4) . . .
84(5) . . .
76(5) . . .
70(4) . . .
75(5) . . .
79(5) . . .
85(5) . . .
62(4) . . .
62(4) . . .
76(5) . . .
71(5) . . .
71(4) . . .
76(5) . . .
83(5) . . .
71(5) . . .
69(4) . . .
76(5) . . .
68(4) . . .
80(5) . . .
81(5) . . .
72(4) . . .
81(5) . . .
72(4) . . .
64(4) . . .
71(5) . . .
80(5) . . .
71(4) . . .
82(5) . . .
74(5) . . .
69(4) . . .
68(4) . . .
68(4) . . .
81(5) . . .
81(5) . . .
71(5) . . .
62(4) . . .
66(4) . . .
71(5) . . .
64(4) . . .
66(5) . . .
74(4) . . .
75(5) . . .
71(4) . . .
74(5) . . .
79(5) . . .
72(4) . . .
75(5) . . .
77(5) . . .
70(4) . . .
70(4) . . .
87(5) . . .
57(4) . . .
67(4) . . .
69(4) . . .
77(5) . . .
75(5) . . .
65(4) . . .
71(4) . . .
66(5) . . .
71(5) . . .
57(4) . . .
72(5) . . .
66(4) . . .
78(5) . . .
53(4) . . .
70(4) . . .
67(4) . . .
79(5) . . .
63(4) . . .
62(4) . . .
78(5) . . .
70(4) . . .
75(5) . . .
70(5) . . .
71(4) . . .
74(4) . . .
83(5) . . .
76(5) . . .
68(4) . . .
69(4) . . .
74(4) . . .
82(5) . . .
73(5) . . .
72(5) . . .
74(4) . . .
71(4) . . .
67(4) . . .
52(4) . . .
64(4) . . .
61(4) . . .
70(4) . . .
77(5) . . .
82(5) . . .
66(4) . . .
69(4) . . .
65(4) . . .
85(5) . . .
80(5) . . .
74(5) . . .
65(4) . . .
72(4) . . .
64(4) . . .
69(5) . . .
89(5) . . .
73(4) . . .
68(4) . . .
78(5) . . .
72(5) . . .
64(4) . . .
71(4) . . .
71(5) . . .
71(4) . . .
92(5) . . .
71(5) . . .
76(5) . . .
68(4) . . .
65(4) . . .
74(5) . . .
70(4) . . .
80(5) . . .
74(5) . . .
68(4) . . .
80(5) . . .
70(5) . . .
68(4) . . .
76(5) . . .
82(5) . . .
64(4) . . .
72(4) . . .
77(5) . . .
78(5) . . .
73(5) . . .
73(5) . . .
82(5) . . .
70(4) . . .
79(5) . . .
72(4) . . .
74(5) . . .
75(4) . . .
74(4) . . .
73(5) . . .
68(5) . . .
78(5) . . .
75(4) . . .
79(5) . . .
74(4) . . .
74(5) . . .
64(4) . . .
75(5) . . .
75(4) . . .
83(5) . . .
67(4) . . .
65(4) . . .
66(4) . . .
68(4) . . .
69(4) . . .
72(5) . . .
73(5) . . .
62(4) . . .
77(5) . . .
79(5) . . .
73(5) . . .
72(4) . . .
71(4) . . .
80(5) . . .
67(4) . . .
64(5) . . .
66(4) . . .
81(5) . . .
76(5) . . .
74(5) . . .
62(4) . . .
60(4) . . .
71(4) . . .
85(5) . . .
71(5) . . .
70(4) . . .
64(4) . . .
71(4) . . .
68(4) . . .
66(4) . . .
67(4) . . .
67(4) . . .
71(4) . . .
74(5) . . .
61(4) . . .
67(4) . . .
81(5) . . .
78(5) . . .
65(4) . . .
80(5) . . .
82(5) . . .
84(5) . . .
74(4) . . .
68(4) . . .
68(5) . . .
76(5) . . .
78(5) . . .
78(5) . . .
65(4) . . .
69(5) . . .
71(4) . . .
71(4) . . .
66(4) . . .
69(4) . . .
62(4) . . .
65(4) . . .
66(4) . . .
77(5) . . .
71(5) . . .
63(4) . . .
65(4) . . .
71(4) . . .
72(4) . . .
70(4) . . .
76(5) . . .
84(5) . . .
66(4) . . .
63(4) . . .
72(5) . . .
68(5) . . .
73(5) . . .
80(5) . . .
69(4) . . .
62(4) . . .
73(5) . . .
72(4) . . .
79(5) . . .
64(4) . . .
74(5) . . .
69(4) . . .
61(4) . . .
70(4) . . .
68(4) . . .
77(5) . . .
71(5) . . .
77(5) . . .
70(4) . . .
63(5) . . .
67(5) . . .
67(4) . . .
66(4) . . .
68(4) . . .
71(5) . . .
76(5) . . .
86(5) . . .
70(4) . . .
70(4) . . .
71(5) . . .
71(5) . . .
74(5) . . .
74(4) . . .
63(4) . . .
63(4) . . .
76(5) . . .
70(4) . . .
72(4) . . .
76(5) . . .
74(5) . . .
67(4) . . .
70(4) . . .
73(4) . . .
63(4) . . .
67(4) . . .
67(4) . . .
67(4) . . .
68(4) . . .
75(5) . . .
73(5) . . .
68(4) . . .
71(4) . . .
75(5) . . .
71(5) . . .
72(5) . . .
87(5) . . .
74(5) . . .
66(4) . . .
66(4) . . .
76(5) . . .
70(4) . . .
69(4) . . .
67(4) . . .
74(5) . . .
74(5) . . .
56(4) . . .
63(4) . . .
70(4) . . .
62(4) . . .
70(5) . . .
72(5) . . .
64(4) . . .
79(5) . . .
71(4) . . .
74(5) . . .
84(5) . . .
72(4) . . .
68(4) . . .
65(4) . . .
69(5) . . .
81(5) . . .
75(4) . . .
77(5) . . .
69(4) . . .
58(4) . . .
75(5) . . .
72(4) . . .
80(5) . . .
62(4) . . .
65(5) . . .
61(4) . . .
63(4) . . .
65(4) . . .
66(4) . . .
76(5) . . .
72(4) . . .
75(5) . . .
71(4) . . .
71(5) . . .
69(5) . . .
60(4) . . .
69(4) . . .
66(5) . . .
78(5) . . .
76(5) . . .
81(5) . . .
67(4) . . .
71(5) . . .
59(4) . . .
71(5) . . .
70(5) . . .
63(4) . . .
84(5) . . .
74(5) . . .
69(5) . . .
61(4) . . .
57(4) . . .
57(4) . . .
69(5) . . .
76(5) . . .
74(4) . . .
74(5) . . .
71(4) . . .
69(5) . . .
68(5) . . .
73(4) . . .
79(5) . . .
57(4) . . .
64(4) . . .
63(4) . . .
69(4) . . .
77(5) . . .
59(4) . . .
71(5) . . .
81(5) . . .
69(4) . . .
76(5) . . .
80(5) . . .
73(5) . . .
75(5) . . .
79(5) . . .
65(4) . . .
68(4) . . .
56(4) . . .
67(4) . . .
76(5) . . .
72(4) . . .
61(4) . . .
70(5) . . .
73(5) . . .
64(4) . . .
76(5) . . .
74(5) . . .
68(5) . . .
57(4) . . .
71(4) . . .
54(4) . . .
65(4) . . .
68(5) . . .
72(5) . . .
79(5) . . .
60(4) . . .
67(4) . . .
60(4) . . .
72(4) . . .
61(4) . . .
70(4) . . .
75(5) . . .
68(5) . . .
62(4) . . .
60(4) . . .
67(5) . . .
70(5) . . .
64(4) . . .
67(4) . . .
70(4) . . .
68(4) . . .
64(5) . . .
71(5) . . .
65(4) . . .
70(4) . . .
68(4) . . .
65(4) . . .
75(5) . . .
64(4) . . .
60(4) . . .
64(4) . . .
63(4) . . .
81(5) . . .
75(5) . . .
67(4) . . .
64(4) . . .
57(4) . . .
60(4) . . .
67(4) . . .
73(5) . . .
74(5) . . .
69(4) . . .
72(5) . . .
74(4) . . .
67(4) . . .
67(4) . . .
66(4) . . .
64(4) . . .
64(4) . . .
64(4) . . .
60(4) . . .
77(5) . . .
74(5) . . .
75(5) . . .
71(4) . . .
77(5) . . .
66(4) . . .
54(4) . . .
65(4) . . .
63(4) . . .
70(5) . . .
61(4) . . .
69(4) . . .
67(4) . . .
71(5) . . .
76(5) . . .
60(4) . . .
79(5) . . .
80(5) . . .
66(4) . . .
60(4) . . .
74(5) . . .
76(5) . . .
67(4) . . .
63(4) . . .
68(5) . . .
53(4) . . .
79(5) . . .
71(4) . . .
71(5) . . .
68(5) . . .
66(4) . . .
58(4) . . .
63(4) . . .
72(5) . . .
70(4) . . .
81(5) . . .
63(4) . . .
61(4) . . .
71(5) . . .
72(5) . . .
73(5) . . .
73(4) . . .
72(4) . . .
72(5) . . .
79(5) . . .
67(4) . . .
71(5) . . .
66(4) . . .
79(5) . . .
71(4) . . .
67(4) . . .
60(4) . . .
73(5) . . .
72(4) . . .
65(4) . . .
63(4) . . .
85(5) . . .
74(5) . . .
58(4) . . .
61(4) . . .
75(5) . . .
74(5) . . .
60(4) . . .
63(4) . . .
69(4) . . .
55(4) . . .
73(5) . . .
71(4) . . .
75(5) . . .
72(4) . . .
58(4) . . .
74(5) . . .
63(4) . . .
73(5) . . .
65(4) . . .
82(5) . . .
74(5) . . .
64(4) . . .
69(4) . . .
67(4) . . .
71(4) . . .
74(5) . . .
74(5) . . .
65(4) . . .
81(5) . . .
65(4) . . .
75(5) . . .
74(5) . . .
64(4) . . .
65(4) . . .
65(4) . . .
77(5) . . .
69(4) . . .
78(5) . . .
70(4) . . .
81(5) . . .
63(4) . . .
67(4) . . .
78(5) . . .
78(5) . . .
72(5) . . .
76(5) . . .
78(5) . . .
80(5) . . .
81(5) . . .
73(5) . . .
80(5) . . .
73(5) . . .
72(4) . . .
69(4) . . .
72(5) . . .
76(5) . . .
69(4) . . .
73(4) . . .
62(4) . . .
67(5) . . .
72(5) . . .
75(5) . . .
73(4) . . .
64(4) . . .
84(5) . . .
73(5) . . .
70(4) . . .
69(4) . . .
67(4) . . .
67(4) . . .
69(4) . . .
66(4) . . .
61(4) . . .
54(4) . . .
68(5) . . .
66(4) . . .
65(4) . . .
61(4) . . .
79(5) . . .
69(4) . . .
65(4) . . .
73(4) . . .
70(4) . . .
74(5) . . .
64(4) . . .
69(4) . . .
71(4) . . .
72(4) . . .
67(4) . . .
55(4) . . .
56(4) . . .
80(5) . . .
63(4) . . .
67(4) . . .
64(4) . . .
69(4) . . .
72(4) . . .
65(4) . . .
65(4) . . .
69(4) . . .
58(4) . . .
68(4) . . .
70(4) . . .
82(5) . . .
69(4) . . .
77(5) . . .
62(4) . . .
58(4) . . .
62(4) . . .
70(5) . . .
74(4) . . .
66(4) . . .
80(5) . . .
76(5) . . .
63(4) . . .
70(4) . . .
65(4) . . .
75(5) . . .
57(4) . . .
59(4) . . .
76(5) . . .
69(4) . . .
66(4) . . .
86(5) . . .
65(4) . . .
59(4) . . .
66(4) . . .
69(4) . . .
66(4) . . .
68(5) . . .
64(4) . . .
72(4) . . .
68(4) . . .
76(5) . . .
68(4) . . .
66(4) . . .
66(4) . . .
68(5) . . .
63(4) . . .
80(5) . . .
72(4) . . .
71(4) . . .
70(5) . . .
63(4) . . .
56(4) . . .
66(4) . . .
64(4) . . .
74(5) . . .
79(5) . . .
61(4) . . .
68(4) . . .
65(4) . . .
64(4) . . .
72(5) . . .
72(4) . . .
71(4) . . .
65(4) . . .
68(5) . . .
68(5) . . .
63(4) . . .
68(4) . . .
75(5) . . .
73(5) . . .
62(4) . . .
63(4) . . .
77(5) . . .
77(5) . . .
68(5) . . .
78(5) . . .
72(4) . . .
68(4) . . .
68(4) . . .
63(4) . . .
74(5) . . .
57(4) . . .
50(4) . . .
62(4) . . .
68(5) . . .
67(4) . . .
63(4) . . .
73(5) . . .
68(4) . . .
67(4) . . .
61(4) . . .
77(5) . . .
74(4) . . .
56(4) . . .
63(4) . . .
64(4) . . .
72(4) . . .
78(5) . . .
68(4) . . .
73(5) . . .
66(4) . . .
63(4) . . .
68(4) . . .
69(4) . . .
75(5) . . .
65(4) . . .
63(4) . . .
60(4) . . .
69(4) . . .
68(4) . . .
72(4) . . .
70(4) . . .
70(4) . . .
68(4) . . .
71(4) . . .
73(5) . . .
66(4) . . .
65(4) . . .
72(5) . . .
71(4) . . .
78(5) . . .
78(5) . . .
84(5) . . .
71(5) . . .
69(4) . . .
60(4) . . .
65(4) . . .
62(4) . . .
72(5) . . .
72(4) . . .
63(4) . . .
70(4) . . .
70(5) . . .
67(5) . . .
76(5) . . .
66(4) . . .
72(5) . . .
72(5) . . .
74(5) . . .
57(4) . . .
63(4) . . .
67(4) . . .
67(5) . . .
68(5) . . .
73(5) . . .
66(4) . . .
76(5) . . .
79(5) . . .
73(5) . . .
67(4) . . .
73(4) . . .
79(5) . . .
63(4) . . .
59(4) . . .
76(5) . . .
78(5) . . .
65(4) . . .
63(4) . . .
61(4) . . .
59(4) . . .
82(5) . . .
63(4) . . .
64(4) . . .
62(4) . . .
69(4) . . .
77(5) . . .
76(5) . . .
87(5) . . .
80(5) . . .
63(4) . . .
73(4) . . .
65(4) . . .
86(5) . . .
66(4) . . .
65(4) . . .
80(5) . . .
65(4) . . .
61(4) . . .
66(4) . . .
57(4) . . .
67(4) . . .
72(5) . . .
66(4) . . .
68(5) . . .
71(4) . . .
62(4) . . .
72(5) . . .
76(5) . . .
74(5) . . .
67(4) . . .
66(4) . . .
70(4) . . .
70(4) . . .
66(4) . . .
66(4) . . .
67(4) . . .
62(4) . . .
56(4) . . .
72(5) . . .
73(4) . . .
74(5) . . .
61(4) . . .
66(5) . . .
65(4) . . .
67(4) . . .
59(4) . . .
68(4) . . .
69(5) . . .
63(4) . . .
60(4) . . .
56(4) . . .
70(5) . . .
66(4) . . .
68(4) . . .
70(4) . . .
72(5) . . .
59(4) . . .
59(4) . . .
68(4) . . .
70(4) . . .
71(5) . . .
58(4) . . .
64(4) . . .
62(4) . . .
65(4) . . .
65(4) . . .
75(5) . . .
66(4) . . .
66(4) . . .
74(4) . . .
68(4) . . .
75(5) . . .
71(5) . . .
61(4) . . .
70(4) . . .
71(5) . . .
74(5) . . .
63(4) . . .
58(4) . . .
61(4) . . .
65(4) . . .
65(4) . . .
67(4) . . .
71(4) . . .
63(4) . . .
63(4) . . .
58(4) . . .
74(5) . . .
75(5) . . .
67(4) . . .
80(5) . . .
70(5) . . .
68(4) . . .
63(4) . . .
61(4) . . .
65(4) . . .
75(5) . . .
73(4) . . .
62(4) . . .
63(4) . . .
60(4) . . .
69(5) . . .
63(4) . . .
67(4) . . .
52(4) . . .
74(5) . . .
83(5) . . .
74(5) . . .
75(5) . . .
61(4) . . .
67(5) . . .
57(4) . . .
69(4) . . .
83(5) . . .
65(4) . . .
54(4) . . .
71(5) . . .
79(5) . . .
70(4) . . .
66(4) . . .
71(5) . . .
65(4) . . .
68(4) . . .
70(4) . . .
69(5) . . .
71(5) . . .
73(5) . . .
77(4) . . .
76(5) . . .
65(4) . . .
69(5) . . .
68(5) . . .
72(4) . . .
69(4) . . .
53(4) . . .
72(5) . . .
61(4) . . .
68(4) . . .
75(5) . . .
73(5) . . .
70(5) . . .
69(4) . . .
64(4) . . .
60(4) . . .
70(5) . . .
64(4) . . .
59(4) . . .
64(4) . . .
68(4) . . .
66(5) . . .
61(4) . . .
60(4) . . .
53(4) . . .
70(5) . . .
68(5) . . .
65(4) . . .
64(4) . . .
66(4) . . .
60(4) . . .
71(5) . . .
72(5) . . .
72(4) . . .
76(5) . . .
64(4) . . .
66(5) . . .
63(4) . . .
67(4) . . .
64(4) . . .
56(4) . . .
68(5) . . .
55(4) . . .
67(4) . . .
65(4) . . .
72(5) . . .
68(5) . . .
58(4) . . .
80(5) . . .
71(4) . . .
79(5) . . .
61(4) . . .
78(5) . . .
68(4) . . .
69(4) . . .
67(4) . . .
69(5) . . .
69(4) . . .
70(4) . . .
73(5) . . .
73(5) . . .
69(4) . . .
71(5) . . .
67(4) . . .
75(5) . . .
70(5) . . .
68(4) . . .
58(4) . . .
76(5) . . .
67(5) . . .
66(5) . . .
68(4) . . .
70(4) . . .
63(4) . . .
64(4) . . .
69(5) . . .
67(4) . . .
79(5) . . .
72(4) . . .
66(4) . . .
67(5) . . .
68(4) . . .
65(4) . . .
67(4) . . .
58(4) . . .
75(5) . . .
67(4) . . .
60(4) . . .
77(5) . . .
70(4) . . .
72(5) . . .
68(4) . . .
72(4) . . .
72(4) . . .
67(4) . . .
67(4) . . .
81(5) . . .
77(5) . . .
70(4) . . .
71(5) . . .
76(5) . . .
71(5) . . .
61(4) . . .
77(5) . . .
66(4) . . .
77(5) . . .
69(5) . . .
51(4) . . .
60(4) . . .
66(4) . . .
65(4) . . .
65(4) . . .
60(4) . . .
70(4) . . .
76(5) . . .
71(5) . . .
65(4) . . .
70(4) . . .
63(5) . . .
61(4) . . .
70(5) . . .
66(4) . . .
73(4) . . .
73(5) . . .
79(5) . . .
59(4) . . .
73(5) . . .
64(4) . . .
76(5) . . .
75(5) . . .
59(4) . . .
68(4) . . .
65(4) . . .
72(4) . . .
67(4) . . .
75(5) . . .
64(4) . . .
67(5) . . .
71(5) . . .
74(5) . . .
70(5) . . .
71(4) . . .
66(4) . . .
62(4) . . .
75(5) . . .
63(4) . . .
70(4) . . .
72(4) . . .
69(5) . . .
68(5) . . .
59(4) . . .
57(4) . . .
73(5) . . .
63(4) . . .
62(4) . . .
71(4) . . .
69(4) . . .
62(4) . . .
67(5) . . .
75(5) . . .
69(4) . . .
65(4) . . .
66(4) . . .
81(5) . . .
65(4) . . .
58(4) . . .
62(4) . . .
67(4) . . .
76(5) . . .
70(4) . . .
72(4) . . .
63(4) . . .
59(4) . . .
61(4) . . .
65(4) . . .
63(4) . . .
60(4) . . .
68(4) . . .
67(5) . . .
67(4) . . .
65(4) . . .
66(4) . . .
64(4) . . .
63(4) . . .
82(5) . . .
66(4) . . .
70(4) . . .
59(4) . . .
70(4) . . .
68(4) . . .
68(4) . . .
70(4) . . .
68(4) . . .
58(4) . . .
64(4) . . .
60(4) . . .
69(4) . . .
84(5) . . .
71(5) . . .
69(4) . . .
70(4) . . .
70(4) . . .
64(4) . . .
66(4) . . .
61(4) . . .
67(4) . . .
64(4) . . .
71(4) . . .
72(5) . . .
66(4) . . .
58(4) . . .
54(4) . . .
70(5) . . .
62(4) . . .
73(5) . . .
59(4) . . .
66(4) . . .
69(5) . . .
68(4) . . .
68(4) . . .
79(5) . . .
67(4) . . .
60(4) . . .
70(5) . . .
64(4) . . .
61(4) . . .
57(4) . . .
64(4) . . .
70(4) . . .
63(4) . . .
70(4) . . .
61(4) . . .
70(5) . . .
66(4) . . .
62(4) . . .
67(4) . . .
62(4) . . .
65(5) . . .
63(4) . . .
73(4) . . .
71(4) . . .
61(4) . . .
74(5) . . .
69(4) . . .
64(4) . . .
68(4) . . .
67(5) . . .
57(4) . . .
61(4) . . .
64(4) . . .
60(4) . . .
63(4) . . .
67(4) . . .
72(5) . . .
66(4) . . .
82(5) . . .
62(4) . . .
76(5) . . .
66(4) . . .
68(4) . . .
65(4) . . .
65(4) . . .
61(4) . . .
62(4) . . .
64(4) . . .
79(5) . . .
66(4) . . .
67(4) . . .
68(4) . . .
65(4) . . .
64(4) . . .
55(4) . . .
59(4) . . .
60(4) . . .
67(4) . . .
69(4) . . .
69(5) . . .
64(4) . . .
64(4) . . .
61(4) . . .
65(4) . . .
58(4) . . .
77(5) . . .
72(4) . . .
66(4) . . .
77(5) . . .
63(4) . . .
60(4) . . .
57(4) . . .
65(4) . . .
65(4) . . .
64(4) . . .
67(5) . . .
68(4) . . .
62(4) . . .
65(4) . . .
72(5) . . .
75(5) . . .
67(4) . . .
68(4) . . .
57(4) . . .
68(5) . . .
63(4) . . .
67(4) . . .
60(4) . . .
60(4) . . .
67(5) . . .
73(4) . . .
77(5) . . .
74(5) . . .
63(4) . . .
65(4) . . .
73(5) . . .
63(4) . . .
62(4) . . .
73(5) . . .
76(5) . . .
75(5) . . .
68(4) . . .
71(5) . . .
62(4) . . .
66(4) . . .
62(4) . . .
61(4) . . .
79(5) . . .
76(5) . . .
69(4) . . .
70(4) . . .
60(4) . . .
75(5) . . .
72(5) . . .
68(4) . . .
63(4) . . .
68(4) . . .
60(4) . . .
65(5) . . .
62(4) . . .
71(4) . . .
71(4) . . .
64(4) . . .
61(4) . . .
57(4) . . .
66(4) . . .
69(4) . . .
75(5) . . .
52(4) . . .
60(4) . . .
64(4) . . .
58(4) . . .
71(5) . . .
65(4) . . .
63(4) . . .
67(4) . . .
63(4) . . .
67(5) . . .
67(5) . . .
60(4) . . .
65(4) . . .
58(4) . . .
63(4) . . .
73(5) . . .
63(4) . . .
67(4) . . .
65(4) . . .
69(4) . . .
70(4) . . .
75(5) . . .
52(4) . . .
73(5) . . .
72(5) . . .
59(4) . . .
68(5) . . .
66(4) . . .
60(4) . . .
59(4) . . .
60(4) . . .
60(4) . . .
71(4) . . .
68(4) . . .
65(4) . . .
75(5) . . .
71(4) . . .
73(5) . . .
65(4) . . .
59(5) . . .
69(4) . . .
64(4) . . .
70(4) . . .
74(5) . . .
67(4) . . .
81(5) . . .
71(4) . . .
63(4) . . .
56(4) . . .
71(5) . . .
65(4) . . .
67(4) . . .
65(4) . . .
60(4) . . .
65(5) . . .
61(4) . . .
60(4) . . .
67(4) . . .
55(4) . . .
66(5) . . .
64(4) . . .
75(4) . . .
71(4) . . .
67(4) . . .
64(4) . . .
62(4) . . .
68(4) . . .
68(4) . . .
67(4) . . .
56(4) . . .
62(4) . . .
63(4) . . .
65(5) . . .
64(4) . . .
65(4) . . .
62(4) . . .
51(4) . . .
70(5) . . .
74(5) . . .
53(4) . . .
61(4) . . .
62(4) . . .
61(4) . . .
62(4) . . .
55(4) . . .
66(4) . . .
66(4) . . .
56(4) . . .
69(5) . . .
66(4) . . .
67(4) . . .
64(4) . . .
74(5) . . .
56(4) . . .
63(4) . . .
77(5) . . .
71(4) . . .
66(4) . . .
72(5) . . .
69(4) . . .
68(4) . . .
63(4) . . .
66(4) . . .
66(4) . . .
59(4) . . .
59(4) . . .
62(4) . . .
61(4) . . .
61(4) . . .
60(4) . . .
58(4) . . .
63(4) . . .
67(5) . . .
62(4) . . .
73(5) . . .
64(4) . . .
63(4) . . .
61(4) . . .
59(4) . . .
56(4) . . .
60(4) . . .
58(4) . . .
71(5) . . .
61(4) . . .
58(4) . . .
75(4) . . .
57(4) . . .
68(5) . . .
60(4) . . .
79(5) . . .
68(4) . . .
66(4) . . .
65(4) . . .
77(5) . . .
69(4) . . .
60(4) . . .
60(4) . . .
70(5) . . .
77(5) . . .
56(4) . . .
63(4) . . .
63(4) . . .
55(4) . . .
58(4) . . .
66(4) . . .
63(4) . . .
57(4) . . .
67(5) . . .
67(4) . . .
65(4) . . .
62(4) . . .
77(5) . . .
76(5) . . .
67(4) . . .
63(4) . . .
68(4) . . .
61(4) . . .
72(5) . . .
60(4) . . .
67(4) . . .
67(4) . . .
76(5) . . .
68(5) . . .
80(5) . . .
70(4) . . .
49(4) . . .
54(4) . . .
66(4) . . .
68(4) . . .
70(4) . . .
59(4) . . .
75(5) . . .
60(4) . . .
58(4) . . .
53(4) . . .
76(5) . . .
62(4) . . .
67(4) . . .
77(5) . . .
62(4) . . .
64(4) . . .
64(4) . . .
53(4) . . .
57(4) . . .
65(4) . . .
53(4) . . .
76(5) . . .
60(4) . . .
76(4) . . .
70(4) . . .
73(5) . . .
60(4) . . .
60(4) . . .
55(4) . . .
63(4) . . .
58(4) . . .
57(4) . . .
65(4) . . .
62(4) . . .
76(5) . . .
63(4) . . .
58(4) . . .
60(4) . . .
60(4) . . .
71(4) . . .
69(4) . . .
66(4) . . .
73(5) . . .
65(4) . . .
60(4) . . .
69(5) . . .
74(5) . . .
63(4) . . .
59(4) . . .
60(4) . . .
77(5) . . .
62(4) . . .
71(4) . . .
73(4) . . .
66(4) . . .
57(4) . . .
57(4) . . .
53(4) . . .
52(4) . . .
60(4) . . .
73(5) . . .
63(4) . . .
56(4) . . .
66(4) . . .
59(4) . . .
61(4) . . .
58(4) . . .
58(4) . . .
64(4) . . .
58(4) . . .
63(5) . . .
64(4) . . .
78(5) . . .
73(4) . . .
60(4) . . .
62(4) . . .
66(4) . . .
66(4) . . .
57(4) . . .
72(5) . . .
65(5) . . .
66(4) . . .
67(4) . . .
65(4) . . .
58(4) . . .
63(4) . . .
62(4) . . .
61(4) . . .
57(4) . . .
61(4) . . .
73(5) . . .
65(4) . . .
64(4) . . .
65(4) . . .
58(4) . . .
64(4) . . .
73(5) . . .
69(4) . . .
66(4) . . .
65(4) . . .
65(4) . . .
74(5) . . .
67(4) . . .
65(4) . . .
75(5) . . .
66(4) . . .
76(5) . . .
73(4) . . .
75(5) . . .
61(4) . . .
61(4) . . .
68(4) . . .
73(4) . . .
60(4) . . .
54(4) . . .
63(4) . . .
65(4) . . .
77(5) . . .
76(5) . . .
75(5) . . .
62(4) . . .
55(4) . . .
57(4) . . .
64(4) . . .
73(5) . . .
71(4) . . .
69(4) . . .
63(4) . . .
63(4) . . .
58(4) . . .
68(5) . . .
70(4) . . .
72(5) . . .
80(5) . . .
67(4) . . .
68(4) . . .
72(4) . . .
66(4) . . .
59(4) . . .
60(4) . . .
62(4) . . .
64(4) . . .
59(4) . . .
66(4) . . .
66(5) . . .
78(5) . . .
66(4) . . .
61(4) . . .
72(5) . . .
57(4) . . .
64(4) . . .
65(4) . . .
68(5) . . .
64(4) . . .
63(4) . . .
59(4) . . .
61(4) . . .
57(4) . . .
60(4) . . .
59(4) . . .
70(5) . . .
60(4) . . .
48(4) . . .
50(4) . . .
69(4) . . .
71(5) . . .
73(4) . . .
58(4) . . .
67(4) . . .
67(4) . . .
70(4) . . .
54(4) . . .
63(4) . . .
71(5) . . .
64(4) . . .
53(4) . . .
66(4) . . .
63(4) . . .
68(5) . . .
60(4) . . .
55(4) . . .
51(4) . . .
69(5) . . .
55(4) . . .
77(5) . . .
72(4) . . .
71(4) . . .
63(4) . . .
57(4) . . .
65(4) . . .
66(4) . . .
62(4) . . .
61(4) . . .
72(5) . . .
59(4) . . .
57(4) . . .
64(4) . . .
71(5) . . .
74(5) . . .
60(4) . . .
69(4) . . .
69(4) . . .
58(4) . . .
62(4) . . .
64(4) . . .
57(4) . . .
63(4) . . .
61(4) . . .
66(5) . . .
53(4) . . .
68(4) . . .
58(4) . . .
61(4) . . .
64(4) . . .
62(4) . . .
62(4) . . .
66(4) . . .
49(4) . . .
71(5) . . .
61(4) . . .
60(4) . . .
62(4) . . .
53(4) . . .
59(4) . . .
57(4) . . .
55(4) . . .
57(4) . . .
63(5) . . .
67(4) . . .
62(4) . . .
61(4) . . .
61(4) . . .
71(5) . . .
55(4) . . .
54(4) . . .
59(4) . . .
62(4) . . .
63(4) . . .
59(4) . . .
62(4) . . .
62(4) . . .
66(4) . . .
56(4) . . .
55(4) . . .
54(4) . . .
68(4) . . .
67(5) . . .
62(4) . . .
65(4) . . .
62(4) . . .
60(4) . . .
62(4) . . .
62(4) . . .
60(4) . . .
63(4) . . .
55(4) . . .
74(5) . . .
59(4) . . .
55(4) . . .
60(4) . . .
66(4) . . .
53(4) . . .
62(4) . . .
63(4) . . .
69(4) . . .
64(4) . . .
65(4) . . .
62(4) . . .
66(4) . . .
59(4) . . .
67(4) . . .
77(5) . . .
58(4) . . .
71(4) . . .
67(4) . . .
53(4) . . .
55(4) . . .
63(4) . . .
65(4) . . .
62(4) . . .
66(4) . . .
63(4) . . .
58(4) . . .
64(4) . . .
51(4) . . .
66(4) . . .
65(5) . . .
56(4) . . .
57(4) . . .
76(5) . . .
62(4) . . .
59(4) . . .
66(4) . . .
69(4) . . .
63(4) . . .
64(5) . . .
71(5) . . .
62(4) . . .
60(4) . . .
54(4) . . .
57(4) . . .
56(4) . . .
60(4) . . .
66(4) . . .
68(4) . . .
57(4) . . .
57(4) . . .
72(5) . . .
59(4) . . .
66(4) . . .
74(5) . . .
62(4) . . .
51(4) . . .
63(4) . . .
67(4) . . .
70(4) . . .
68(5) . . .
60(4) . . .
59(4) . . .
63(4) . . .
60(4) . . .
56(4) . . .
70(4) . . .
70(4) . . .
56(4) . . .
49(4) . . .
57(4) . . .
72(4) . . .
65(4) . . .
54(4) . . .
62(4) . . .
61(4) . . .
60(4) . . .
61(4) . . .
70(5) . . .
70(5) . . .
48(4) . . .
49(4) . . .
61(4) . . .
60(4) . . .
65(4) . . .
64(4) . . .
53(4) . . .
56(4) . . .
60(4) . . .
59(4) . . .
49(4) . . .
63(4) . . .
60(4) . . .
64(4) . . .
62(4) . . .
52(4) . . .
72(4) . . .
56(4) . . .
58(4) . . .
71(5) . . .
61(4) . . .
63(4) . . .
62(4) . . .
62(4) . . .
52(4) . . .
62(4) . . .
65(4) . . .
60(4) . . .
65(4) . . .
69(5) . . .
55(4) . . .
57(4) . . .
72(5) . . .
58(4) . . .
60(4) . . .
67(4) . . .
63(4) . . .
49(4) . . .
48(4) . . .
45(4) . . .
62(4) . . .
65(4) . . .
65(4) . . .
66(5) . . .
67(4) . . .
58(4) . . .
60(4) . . .
56(4) . . .
60(4) . . .
70(5) . . .
70(4) . . .
67(4) . . .
73(5) . . .
65(4) . . .
69(4) . . .
62(4) . . .
73(5) . . .
72(4) . . .
67(5) . . .
58(4) . . .
57(4) . . .
63(4) . . .
58(4) . . .
58(4) . . .
55(4) . . .
69(4) . . .
61(4) . . .
58(4) . . .
56(4) . . .
64(4) . . .
61(4) . . .
69(4) . . .
70(5) . . .
62(4) . . .
72(5) . . .
58(4) . . .
68(5) . . .
62(4) . . .
63(4) . . .
65(4) . . .
70(4) . . .
62(4) . . .
47(4) . . .
64(4) . . .
63(4) . . .
60(4) . . .
55(4) . . .
62(4) . . .
73(5) . . .
69(4) . . .
60(4) . . .
63(4) . . .
69(5) . . .
62(4) . . .
69(4) . . .
59(4) . . .
67(5) . . .
62(4) . . .
67(4) . . .
64(4) . . .
66(4) . . .
69(4) . . .
66(4) . . .
62(4) . . .
60(4) . . .
69(4) . . .
70(4) . . .
62(4) . . .
56(4) . . .
64(4) . . .
54(4) . . .
61(4) . . .
54(4) . . .
60(4) . . .
64(4) . . .
70(4) . . .
61(4) . . .
65(4) . . .
69(4) . . .
61(4) . . .
61(4) . . .
62(4) . . .
64(4) . . .
71(5) . . .
71(4) . . .
64(4) . . .
54(4) . . .
64(4) . . .
67(4) . . .
66(4) . . .
53(4) . . .
59(4) . . .
66(5) . . .
68(4) . . .
60(4) . . .
56(4) . . .
59(4) . . .
61(4) . . .
58(4) . . .
57(4) . . .
67(4) . . .
60(4) . . .
61(4) . . .
64(4) . . .
65(4) . . .
57(4) . . .
62(4) . . .
68(4) . . .
66(4) . . .
70(4) . . .
68(5) . . .
58(4) . . .
71(5) . . .
66(4) . . .
56(4) . . .
56(4) . . .
54(4) . . .
58(4) . . .
70(4) . . .
61(4) . . .
60(4) . . .
64(4) . . .
57(4) . . .
66(4) . . .
54(4) . . .
65(4) . . .
65(4) . . .
56(4) . . .
58(4) . . .
57(4) . . .
64(4) . . .
59(4) . . .
52(4) . . .
59(4) . . .
61(4) . . .
63(4) . . .
71(4) . . .
58(4) . . .
63(4) . . .
71(5) . . .
61(4) . . .
70(4) . . .
60(4) . . .
61(4) . . .
69(4) . . .
69(5) . . .
75(5) . . .
65(4) . . .
61(4) . . .
67(4) . . .
58(4) . . .
53(4) . . .
60(4) . . .
66(4) . . .
73(5) . . .
61(4) . . .
73(5) . . .
52(4) . . .
67(4) . . .
78(5) . . .
68(4) . . .
58(4) . . .
57(4) . . .
67(4) . . .
65(4) . . .
65(5) . . .
59(4) . . .
65(4) . . .
55(4) . . .
56(4) . . .
63(4) . . .
61(4) . . .
61(4) . . .
60(4) . . .
51(4) . . .
65(5) . . .
58(4) . . .
67(4) . . .
66(4) . . .
64(4) . . .
60(4) . . .
63(4) . . .
63(4) . . .
69(5) . . .
58(4) . . .
57(4) . . .
60(4) . . .
65(4) . . .
56(4) . . .
50(4) . . .
69(4) . . .
67(4) . . .
61(4) . . .
66(4) . . .
61(4) . . .
61(4) . . .
66(4) . . .
63(4) . . .
79(5) . . .
53(4) . . .
61(4) . . .
50(4) . . .
54(4) . . .
49(4) . . .
63(5) . . .
63(4) . . .
68(4) . . .
51(4) . . .
56(4) . . .
60(4) . . .
69(4) . . .
61(4) . . .
65(4) . . .
60(4) . . .
47(4) . . .
54(4) . . .
60(4) . . .
66(4) . . .
67(4) . . .
59(4) . . .
57(4) . . .
68(4) . . .
69(4) . . .
64(4) . . .
65(5) . . .
60(4) . . .
63(4) . . .
54(4) . . .
55(4) . . .
63(4) . . .
59(4) . . .
66(4) . . .
57(4) . . .
61(4) . . .
57(4) . . .
64(4) . . .
57(4) . . .
63(4) . . .
56(4) . . .
59(4) . . .
60(4) . . .
71(4) . . .
64(4) . . .
61(4) . . .
68(5) . . .
55(4) . . .
62(4) . . .
70(5) . . .
63(4) . . .
64(4) . . .
67(4) . . .
61(4) . . .
53(4) . . .
55(4) . . .
66(4) . . .
52(4) . . .
51(4) . . .
60(4) . . .
57(4) . . .
56(4) . . .
53(4) . . .
58(4) . . .
60(4) . . .
65(5) . . .
59(4) . . .
60(4) . . .
64(4) . . .
57(4) . . .
60(4) . . .
62(4) . . .
58(4) . . .
59(4) . . .
59(4) . . .
67(4) . . .
72(5) . . .
54(4) . . .
65(4) . . .
59(4) . . .
50(4) . . .
55(4) . . .
62(4) . . .
57(4) . . .
52(4) . . .
58(4) . . .
56(4) . . .
50(4) . . .
61(5) . . .
59(4) . . .
51(4) . . .
47(4) . . .
59(4) . . .
63(4) . . .
58(4) . . .
58(4) . . .
56(4) . . .
63(4) . . .
66(4) . . .
65(4) . . .
68(4) . . .
68(4) . . .
68(4) . . .
74(5) . . .
69(5) . . .
62(4) . . .
65(4) . . .
62(4) . . .
57(4) . . .
62(4) . . .
63(4) . . .
57(4) . . .
63(4) . . .
58(4) . . .
70(5) . . .
70(5) . . .
60(4) . . .
62(4) . . .
52(4) . . .
71(5) . . .
67(4) . . .
80(5) . . .
63(4) . . .
59(4) . . .
56(4) . . .
56(4) . . .
60(4) . . .
66(4) . . .
59(4) . . .
67(4) . . .
68(4) . . .
70(4) . . .
54(4) . . .
46(4) . . .
65(5) . . .
59(4) . . .
60(4) . . .
67(4) . . .
53(4) . . .
56(4) . . .
59(4) . . .
63(4) . . .
68(4) . . .
64(4) . . .
54(4) . . .
62(4) . . .
53(4) . . .
66(4) . . .
55(4) . . .
54(4) . . .
55(4) . . .
67(4) . . .
67(4) . . .
52(4) . . .
53(4) . . .
60(4) . . .
59(4) . . .
72(5) . . .
62(4) . . .
72(5) . . .
56(4) . . .
54(4) . . .
54(4) . . .
67(5) . . .
73(5) . . .
61(4) . . .
55(4) . . .
62(4) . . .
68(5) . . .
61(4) . . .
64(4) . . .
62(4) . . .
63(4) . . .
67(5) . . .
64(4) . . .
58(4) . . .
54(4) . . .
67(5) . . .
67(4) . . .
61(4) . . .
58(4) . . .
63(4) . . .
57(4) . . .
58(4) . . .
64(4) . . .
53(4) . . .
42.1(35) . . .
54(4) . . .
60(4) . . .
70(5) . . .
57(4) . . .
76(5) . . .
61(4) . . .
61(4) . . .
57(4) . . .
53(4) . . .
57(4) . . .
65(4) . . .
63(4) . . .
59(4) . . .
60(4) . . .
61(4) . . .
56(4) . . .
66(4) . . .
52(4) . . .
70(4) . . .
65(4) . . .
69(5) . . .
66(4) . . .
63(4) . . .
55(4) . . .
58(4) . . .
53(4) . . .
55(4) . . .
58(4) . . .
59(4) . . .
78(5) . . .
69(5) . . .
63(4) . . .
55(4) . . .
67(4) . . .
62(4) . . .
77(5) . . .
61(4) . . .
66(4) . . .
60(4) . . .
69(5) . . .
57(4) . . .
59(4) . . .
69(4) . . .
62(4) . . .
56(4) . . .
63(4) . . .
67(4) . . .
66(4) . . .
66(4) . . .
69(4) . . .
76(5) . . .
72(4) . . .
57(4) . . .
64(4) . . .
70(4) . . .
72(5) . . .
56(4) . . .
62(4) . . .
53(4) . . .
65(4) . . .
56(4) . . .
56(4) . . .
56(4) . . .
64(4) . . .
58(4) . . .
67(5) . . .
58(4) . . .
62(4) . . .
56(4) . . .
59(4) . . .
63(4) . . .
62(4) . . .
57(4) . . .
66(4) . . .
68(4) . . .
71(5) . . .
67(4) . . .
61(4) . . .
58(4) . . .
53(4) . . .
57(4) . . .
52(4) . . .
63(4) . . .
70(4) . . .
66(4) . . .
56(4) . . .
49(4) . . .
67(4) . . .
63(4) . . .
60(4) . . .
63(4) . . .
75(4) . . .
60(4) . . .
64(4) . . .
62(4) . . .
61(4) . . .
67(4) . . .
52(4) . . .
52(4) . . .
53(4) . . .
58(4) . . .
63(4) . . .
64(5) . . .
58(4) . . .
57(4) . . .
69(4) . . .
69(4) . . .
60(4) . . .
55(4) . . .
66(4) . . .
59(4) . . .
63(4) . . .
56(4) . . .
52(4) . . .
50(4) . . .
49(4) . . .
64(4) . . .
65(4) . . .
55(4) . . .
65(4) . . .
62(4) . . .
57(4) . . .
62(4) . . .
67(5) . . .
52(4) . . .
61(4) . . .
54(4) . . .
63(4) . . .
63(4) . . .
54(4) . . .
62(4) . . .
59(4) . . .
59(4) . . .
54(4) . . .
62(4) . . .
58(4) . . .
61(4) . . .
64(4) . . .
60(4) . . .
55(4) . . .
49(4) . . .
62(4) . . .
54(4) . . .
68(5) . . .
54(4) . . .
59(4) . . .
66(4) . . .
67(5) . . .
69(4) . . .
67(4) . . .
47(4) . . .
54(4) . . .
48(4) . . .
57(4) . . .
58(4) . . .
66(4) . . .
64(4) . . .
63(4) . . .
67(4) . . .
58(4) . . .
71(4) . . .
67(5) . . .
56(4) . . .
57(4) . . .
56(4) . . .
52(4) . . .
57(4) . . .
67(5) . . .
56(4) . . .
62(4) . . .
66(4) . . .
64(4) . . .
69(5) . . .
65(4) . . .
57(4) . . .
58(4) . . .
49(4) . . .
60(4) . . .
53(4) . . .
52(4) . . .
53(4) . . .
53(4) . . .
63(4) . . .
69(5) . . .
63(4) . . .
56(4) . . .
58(4) . . .
59(4) . . .
64(4) . . .
64(4) . . .
65(4) . . .
62(4) . . .
61(4) . . .
63(4) . . .
58(4) . . .
57(4) . . .
61(4) . . .
50(4) . . .
59(4) . . .
55(4) . . .
63(4) . . .
58(4) . . .
59(4) . . .
56(4) . . .
72(4) . . .
68(4) . . .
56(4) . . .
58(4) . . .
53(4) . . .
52(4) . . .
58(4) . . .
63(5) . . .
58(4) . . .
60(4) . . .
62(4) . . .
68(5) . . .
57(4) . . .
71(5) . . .
66(4) . . .
58(4) . . .
64(4) . . .
62(4) . . .
62(4) . . .
64(4) . . .
67(4) . . .
57(4) . . .
63(4) . . .
51(4) . . .
58(4) . . .
67(4) . . .
56(4) . . .
67(5) . . .
61(4) . . .
55(4) . . .
66(4) . . .
59(4) . . .
61(4) . . .
59(4) . . .
58(4) . . .
61(4) . . .
54(4) . . .
54(4) . . .
71(5) . . .
55(4) . . .
55(4) . . .
60(4) . . .
55(4) . . .
64(4) . . .
74(4) . . .
66(4) . . .
67(4) . . .
65(4) . . .
58(4) . . .
52(4) . . .
51(4) . . .
53(4) . . .
59(4) . . .
43.1(34) . . .
48(4) . . .
49(4) . . .
57(4) . . .
58(4) . . .
52(4) . . .
57(4) . . .
66(4) . . .
65(5) . . .
53(4) . . .
53(4) . . .
63(4) . . .
58(4) . . .
49(4) . . .
51(4) . . .
58(4) . . .
61(4) . . .
63(4) . . .
54(4) . . .
59(4) . . .
56(4) . . .
57(4) . . .
55(4) . . .
55(4) . . .
64(4) . . .
53(4) . . .
59(4) . . .
54(4) . . .
61(4) . . .
64(4) . . .
54(4) . . .
55(4) . . .
60(4) . . .
67(5) . . .
59(4) . . .
68(4) . . .
59(4) . . .
58(4) . . .
61(4) . . .
59(4) . . .
52(4) . . .
63(4) . . .
72(5) . . .
55(4) . . .
63(4) . . .
67(4) . . .
74(4) . . .
62(4) . . .
59(4) . . .
63(4) . . .
60(4) . . .
58(4) . . .
55(4) . . .
63(4) . . .
52(4) . . .
56(4) . . .
59(4) . . .
60(4) . . .
65(4) . . .
69(4) . . .
64(4) . . .
61(4) . . .
62(4) . . .
64(4) . . .
64(4) . . .
67(4) . . .
65(4) . . .
70(5) . . .
64(4) . . .
56(4) . . .
57(4) . . .
60(4) . . .
61(4) . . .
63(4) . . .
69(4) . . .
56(4) . . .
57(4) . . .
57(4) . . .
51(4) . . .
51(4) . . .
62(4) . . .
58(4) . . .
61(4) . . .
60(4) . . .
58(4) . . .
66(4) . . .
62(4) . . .
68(5) . . .
58(4) . . .
66(4) . . .
55(4) . . .
58(4) . . .
61(4) . . .
57(4) . . .
58(4) . . .
57(4) . . .
57(4) . . .
59(4) . . .
62(4) . . .
53(4) . . .
54(4) . . .
55(4) . . .
55(4) . . .
64(4) . . .
66(4) . . .
54(4) . . .
54(4) . . .
68(5) . . .
55(4) . . .
69(4) . . .
58(4) . . .
63(4) . . .
60(4) . . .
67(4) . . .
58(4) . . .
62(4) . . .
64(4) . . .
48(4) . . .
55(4) . . .
57(4) . . .
68(4) . . .
71(5) . . .
57(4) . . .
57(4) . . .
52(4) . . .
56(4) . . .
45(4) . . .
54(4) . . .
65(4) . . .
61(4) . . .
56(4) . . .
56(4) . . .
61(4) . . .
62(4) . . .
50(4) . . .
63(4) . . .
63(4) . . .
50(4) . . .
59(4) . . .
60(4) . . .
57(4) . . .
64(4) . . .
61(4) . . .
60(4) . . .
54(4) . . .
63(4) . . .
64(4) . . .
55(4) . . .
65(4) . . .
68(5) . . .
61(4) . . .
57(4) . . .
58(4) . . .
57(4) . . .
63(5) . . .
60(4) . . .
62(4) . . .
54(4) . . .
56(4) . . .
58(4) . . .
50(4) . . .
72(4) . . .
75(5) . . .
67(4) . . .
65(4) . . .
64(5) . . .
68(4) . . .
68(4) . . .
66(4) . . .
62(4) . . .
61(5) . . .
57(4) . . .
57(4) . . .
64(4) . . .
69(5) . . .
56(4) . . .
47(4) . . .
51(4) . . .
60(4) . . .
60(4) . . .
54(4) . . .
65(4) . . .
49(4) . . .
73(5) . . .
60(4) . . .
66(4) . . .
60(4) . . .
59(4) . . .
64(4) . . .
65(4) . . .
62(4) . . .
53(4) . . .
55(4) . . .
68(4) . . .
66(4) . . .
68(4) . . .
68(4) . . .
61(4) . . .
63(4) . . .
55(4) . . .
57(4) . . .
68(4) . . .
60(4) . . .
63(4) . . .
70(5) . . .
70(5) . . .
57(4) . . .
63(4) . . .
64(4) . . .
57(4) . . .
56(4) . . .
65(4) . . .
50(4) . . .
60(4) . . .
62(4) . . .
58(4) . . .
49(4) . . .
51(4) . . .
62(4) . . .
58(4) . . .
57(4) . . .
53(4) . . .
53(4) . . .
61(4) . . .
66(5) . . .
53(4) . . .
55(4) . . .
66(4) . . .
50(4) . . .
62(5) . . .
62(4) . . .
62(4) . . .
67(4) . . .
62(4) . . .
51(4) . . .
53(4) . . .
64(4) . . .
53(4) . . .
54(4) . . .
69(5) . . .
59(4) . . .
60(4) . . .
59(4) . . .
60(4) . . .
58(4) . . .
70(4) . . .
63(4) . . .
57(4) . . .
63(5) . . .
51(4) . . .
55(4) . . .
59(4) . . .
68(4) . . .
60(4) . . .
68(5) . . .
64(4) . . .
63(4) . . .
57(4) . . .
58(4) . . .
68(4) . . .
56(4) . . .
56(4) . . .
62(4) . . .
66(4) . . .
71(4) . . .
63(4) . . .
59(4) . . .
64(4) . . .
63(4) . . .
68(4) . . .
58(4) . . .
68(4) . . .
55(4) . . .
53(4) . . .
58(4) . . .
68(4) . . .
64(4) . . .
62(4) . . .
49(4) . . .
60(4) . . .
61(4) . . .
65(4) . . .
63(4) . . .
58(4) . . .
73(5) . . .
57(4) . . .
60(4) . . .
68(5) . . .
61(4) . . .
59(4) . . .
62(4) . . .
45(4) . . .
60(4) . . .
55(4) . . .
63(4) . . .
60(4) . . .
61(4) . . .
57(4) . . .
57(4) . . .
59(4) . . .
59(4) . . .
49(4) . . .
57(4) . . .
57(4) . . .
58(4) . . .
58(4) . . .
52(4) . . .
59(4) . . .
60(4) . . .
51(4) . . .
55(4) . . .
56(4) . . .
60(5) . . .
59(4) . . .
64(4) . . .
64(4) . . .
63(4) . . .
61(5) . . .
65(4) . . .
66(4) . . .
50(4) . . .
55(4) . . .
59(4) . . .
66(4) . . .
58(4) . . .
69(4) . . .
64(4) . . .
53(4) . . .
45.8(35) . . .
60(4) . . .
72(5) . . .
67(4) . . .
73(5) . . .
60(4) . . .
60(4) . . .
63(4) . . .
57(4) . . .
54(4) . . .
63(4) . . .
68(4) . . .
60(4) . . .
53(4) . . .
68(5) . . .
54(4) . . .
71(4) . . .
60(4) . . .
57(4) . . .
63(4) . . .
66(4) . . .
61(4) . . .
58(4) . . .
64(4) . . .
63(4) . . .
63(4) . . .
70(4) . . .
56(4) . . .
61(4) . . .
65(5) . . .
53(4) . . .
58(4) . . .
62(4) . . .
58(4) . . .
57(4) . . .
70(5) . . .
69(4) . . .
66(4) . . .
60(4) . . .
64(4) . . .
69(4) . . .
62(4) . . .
58(4) . . .
62(4) . . .
64(5) . . .
56(4) . . .
52(4) . . .
48(4) . . .
66(5) . . .
60(4) . . .
68(4) . . .
54(4) . . .
62(4) . . .
65(5) . . .
59(4) . . .
63(4) . . .
62(4) . . .
63(4) . . .
64(4) . . .
61(4) . . .
69(4) . . .
68(4) . . .
66(4) . . .
68(5) . . .
57(4) . . .
67(4) . . .
56(4) . . .
62(4) . . .
63(4) . . .
61(4) . . .
61(4) . . .
50(4) . . .
61(4) . . .
68(4) . . .
66(4) . . .
71(4) . . .
67(4) . . .
55(4) . . .
54(4) . . .
56(4) . . .
56(4) . . .
61(4) . . .
51(4) . . .
61(4) . . .
68(4) . . .
56(4) . . .
55(4) . . .
65(4) . . .
63(4) . . .
68(4) . . .
66(4) . . .
65(4) . . .
65(4) . . .
60(4) . . .
57(4) . . .
67(4) . . .
60(4) . . .
50(4) . . .
57(4) . . .
63(4) . . .
52(4) . . .
52(4) . . .
57(4) . . .
61(4) . . .
56(4) . . .
60(4) . . .
56(4) . . .
67(5) . . .
55(4) . . .
67(4) . . .
54(4) . . .
49(4) . . .
65(4) . . .
57(4) . . .
64(4) . . .
61(4) . . .
59(4) . . .
62(4) . . .
61(4) . . .
62(4) . . .
70(5) . . .
57(4) . . .
58(4) . . .
59(4) . . .
50(4) . . .
62(4) . . .
62(4) . . .
56(4) . . .
58(4) . . .
53(4) . . .
60(4) . . .
64(4) . . .
57(4) . . .
62(4) . . .
61(4) . . .
58(4) . . .
52(4) . . .
53(4) . . .
47(4) . . .
48(4) . . .
61(4) . . .
64(4) . . .
69(4) . . .
63(4) . . .
58(4) . . .
51(4) . . .
65(4) . . .
68(4) . . .
67(4) . . .
68(4) . . .
57(4) . . .
56(4) . . .
55(4) . . .
58(4) . . .
58(4) . . .
57(4) . . .
57(4) . . .
54(4) . . .
58(4) . . .
63(4) . . .
56(4) . . .
59(4) . . .
55(4) . . .
57(4) . . .
56(4) . . .
58(4) . . .
62(4) . . .
57(4) . . .
58(4) . . .
60(4) . . .
56(4) . . .
62(4) . . .
55(4) . . .
53(4) . . .
63(4) . . .
57(4) . . .
49(4) . . .
61(4) . . .
57(4) . . .
64(4) . . .
65(5) . . .
52(4) . . .
53(4) . . .
55(4) . . .
61(4) . . .
55(4) . . .
53(4) . . .
54(4) . . .
65(4) . . .
54(4) . . .
59(4) . . .
55(4) . . .
56(4) . . .
53(4) . . .
55(4) . . .
63(4) . . .
53(4) . . .
68(4) . . .
67(4) . . .
61(4) . . .
66(5) . . .
64(4) . . .
54(4) . . .
66(4) . . .
62(4) . . .
47(4) . . .
50(4) . . .
60(4) . . .
63(4) . . .
61(4) . . .
62(4) . . .
48(4) . . .
52(4) . . .
57(4) . . .
49(4) . . .
60(4) . . .
62(4) . . .
58(4) . . .
52(4) . . .
55(4) . . .
53(4) . . .
55(4) . . .
57(4) . . .
57(4) . . .
61(4) . . .
57(4) . . .
62(4) . . .
57(4) . . .
54(4) . . .
67(5) . . .
60(4) . . .
68(4) . . .
61(4) . . .
54(4) . . .
59(4) . . .
59(4) . . .
61(4) . . .
55(4) . . .
55(4) . . .
55(4) . . .
54(4) . . .
68(4) . . .
50(4) . . .
68(5) . . .
64(4) . . .
58(4) . . .
65(4) . . .
71(4) . . .
68(4) . . .
73(5) . . .
64(4) . . .
56(4) . . .
65(4) . . .
65(4) . . .
52(4) . . .
56(4) . . .
60(4) . . .
60(4) . . .
56(4) . . .
58(4) . . .
57(4) . . .
61(4) . . .
54(4) . . .
56(4) . . .
65(4) . . .
64(4) . . .
61(4) . . .
57(4) . . .
53(4) . . .
59(4) . . .
53(4) . . .
51(4) . . .
69(4) . . .
67(5) . . .
63(4) . . .
68(4) . . .
55(4) . . .
61(4) . . .
61(4) . . .
61(4) . . .
61(4) . . .
57(4) . . .
61(4) . . .
66(5) . . .
69(5) . . .
61(4) . . .
54(4) . . .
59(4) . . .
53(4) . . .
62(4) . . .
64(4) . . .
53(4) . . .
48(4) . . .
55(4) . . .
53(4) . . .
61(4) . . .
64(4) . . .
56(4) . . .
64(4) . . .
63(4) . . .
66(4) . . .
56(4) . . .
48(4) . . .
49(4) . . .
67(5) . . .
55(4) . . .
57(4) . . .
57(4) . . .
62(4) . . .
53(4) . . .
69(4) . . .
57(4) . . .
57(4) . . .
51(4) . . .
63(4) . . .
57(4) . . .
60(4) . . .
65(4) . . .
58(4) . . .
49(4) . . .
55(4) . . .
63(4) . . .
58(4) . . .
50(4) . . .
58(4) . . .
56(4) . . .
55(4) . . .
50(4) . . .
57(4) . . .
60(4) . . .
50(4) . . .
59(4) . . .
55(4) . . .
56(4) . . .
61(4) . . .
51(4) . . .
55(4) . . .
52(4) . . .
57(4) . . .
59(4) . . .
59(4) . . .
57(4) . . .
62(5) . . .
60(4) . . .
50(4) . . .
60(4) . . .
60(4) . . .
57(4) . . .
48(4) . . .
62(4) . . .
61(4) . . .
54(4) . . .
52(4) . . .
60(4) . . .
53(4) . . .
59(4) . . .
54(4) . . .
65(5) . . .
57(4) . . .
49(4) . . .
61(4) . . .
54(4) . . .
67(4) . . .
66(4) . . .
61(4) . . .
53(4) . . .
53(4) . . .
58(4) . . .
56(4) . . .
59(4) . . .
52(4) . . .
58(4) . . .
61(4) . . .
56(4) . . .
59(4) . . .
61(4) . . .
59(4) . . .
53(4) . . .
56(4) . . .
61(4) . . .
62(4) . . .
56(4) . . .
51(4) . . .
55(4) . . .
60(4) . . .
59(4) . . .
58(4) . . .
64(4) . . .
55(4) . . .
57(4) . . .
60(4) . . .
61(4) . . .
52(4) . . .
58(4) . . .
58(4) . . .
62(4) . . .
57(4) . . .
68(4) . . .
60(4) . . .
66(4) . . .
65(4) . . .
64(4) . . .
58(4) . . .
65(4) . . .
59(4) . . .
58(4) . . .
49(4) . . .
69(4) . . .
61(4) . . .
66(4) . . .
66(4) . . .
70(5) . . .
65(4) . . .
61(4) . . .
61(4) . . .
58(4) . . .
52(4) . . .
57(4) . . .
68(4) . . .
48(4) . . .
52(4) . . .
56(4) . . .
50(4) . . .
53(4) . . .
57(4) . . .
61(4) . . .
56(4) . . .
57(4) . . .
62(4) . . .
55(4) . . .
61(4) . . .
57(4) . . .
64(4) . . .
55(4) . . .
58(4) . . .
56(4) . . .
67(5) . . .
56(4) . . .
59(4) . . .
60(4) . . .
57(4) . . .
67(4) . . .
62(4) . . .
55(4) . . .
57(4) . . .
50(4) . . .
56(4) . . .
65(4) . . .
48(4) . . .
54(4) . . .
54(4) . . .
63(4) . . .
60(4) . . .
51(4) . . .
63(4) . . .
56(4) . . .
53(4) . . .
64(4) . . .
53(4) . . .
61(4) . . .
54(4) . . .
54(4) . . .
59(4) . . .
60(4) . . .
56(4) . . .
49(4) . . .
54(4) . . .
62(4) . . .
66(4) . . .
67(4) . . .
56(4) . . .
55(4) . . .
58(4) . . .
70(5) . . .
53(4) . . .
59(4) . . .
59(4) . . .
61(4) . . .
53(4) . . .
62(5) . . .
62(4) . . .
60(4) . . .
57(4) . . .
50(4) . . .
55(4) . . .
56(4) . . .
63(4) . . .
66(4) . . .
57(4) . . .
60(4) . . .
58(4) . . .
54(4) . . .
54(4) . . .
51(4) . . .
65(5) . . .
55(4) . . .
61(4) . . .
64(4) . . .
61(4) . . .
59(4) . . .
64(4) . . .
56(4) . . .
58(4) . . .
47(4) . . .
58(4) . . .
62(4) . . .
59(4) . . .
65(4) . . .
69(4) . . .
58(4) . . .
63(4) . . .
70(4) . . .
63(4) . . .
59(4) . . .
64(4) . . .
65(4) . . .
63(4) . . .
52(4) . . .
59(4) . . .
55(4) . . .
53(4) . . .
50(4) . . .
69(5) . . .
55(4) . . .
52(4) . . .
54(4) . . .
62(4) . . .
57(4) . . .
65(4) . . .
64(4) . . .
55(4) . . .
59(4) . . .
66(5) . . .
48(4) . . .
50(4) . . .
53(4) . . .
56(4) . . .
62(4) . . .
57(4) . . .
56(4) . . .
51(4) . . .
48(4) . . .
56(4) . . .
54(4) . . .
61(4) . . .
54(4) . . .
51(4) . . .
55(4) . . .
55(4) . . .
53(4) . . .
61(4) . . .
62(4) . . .
69(5) . . .
61(4) . . .
67(4) . . .
47(4) . . .
57(4) . . .
67(5) . . .
53(4) . . .
55(4) . . .
71(4) . . .
63(4) . . .
59(4) . . .
57(4) . . .
61(4) . . .
54(4) . . .
56(4) . . .
59(4) . . .
59(4) . . .
65(4) . . .
53(4) . . .
60(4) . . .
61(4) . . .
60(4) . . .
59(4) . . .
51(4) . . .
59(4) . . .
56(4) . . .
54(4) . . .
45.0(35) . . .
57(4) . . .
59(4) . . .
53(4) . . .
58(4) . . .
61(4) . . .
50(4) . . .
54(4) . . .
56(4) . . .
66(5) . . .
64(4) . . .
62(4) . . .
55(4) . . .
55(4) . . .
53(4) . . .
64(4) . . .
65(4) . . .
50(4) . . .
57(4) . . .
52(4) . . .
56(4) . . .
61(4) . . .
63(4) . . .
57(4) . . .
57(4) . . .
58(4) . . .
53(4) . . .
58(4) . . .
65(4) . . .
65(4) . . .
57(4) . . .
56(4) . . .
61(4) . . .
61(4) . . .
60(4) . . .
60(4) . . .
59(4) . . .
70(5) . . .
49(4) . . .
60(4) . . .
59(4) . . .
60(4) . . .
60(4) . . .
60(4) . . .
57(4) . . .
51(4) . . .
63(4) . . .
63(4) . . .
58(4) . . .
58(4) . . .
55(4) . . .
53(4) . . .
60(4) . . .
69(5) . . .
56(4) . . .
55(4) . . .
60(4) . . .
62(4) . . .
54(4) . . .
58(4) . . .
52(4) . . .
59(4) . . .
67(5) . . .
51(4) . . .
56(4) . . .
63(4) . . .
56(4) . . .
55(4) . . .
58(4) . . .
60(4) . . .
54(4) . . .
55(4) . . .
63(4) . . .
61(4) . . .
67(4) . . .
60(4) . . .
52(4) . . .
66(4) . . .
63(4) . . .
60(4) . . .
65(4) . . .
61(4) . . .
67(4) . . .
68(4) . . .
70(4) . . .
54(4) . . .
52(4) . . .
60(4) . . .
52(4) . . .
57(4) . . .
62(4) . . .
62(4) . . .
50(4) . . .
62(4) . . .
63(4) . . .
59(4) . . .
52(4) . . .
57(4) . . .
58(4) . . .
58(4) . . .
61(4) . . .
46(4) . . .
56(4) . . .
53(4) . . .
50(4) . . .
56(4) . . .
53(4) . . .
57(4) . . .
58(4) . . .
59(4) . . .
67(4) . . .
54(4) . . .
58(4) . . .
61(4) . . .
51(4) . . .
61(4) . . .
49(4) . . .
53(4) . . .
43.5(35) . . .
57(4) . . .
68(5) . . .
53(4) . . .
57(4) . . .
57(4) . . .
65(4) . . .
59(4) . . .
55(4) . . .
60(4) . . .
62(4) . . .
47(4) . . .
54(4) . . .
57(4) . . .
55(4) . . .
57(4) . . .
54(4) . . .
52(4) . . .
57(4) . . .
59(4) . . .
55(4) . . .
51(4) . . .
55(4) . . .
48.4(35) . . .
49(4) . . .
52(4) . . .
58(4) . . .
68(4) . . .
62(4) . . .
59(4) . . .
52(4) . . .
58(4) . . .
55(4) . . .
58(4) . . .
61(4) . . .
56(4) . . .
59(4) . . .
58(4) . . .
52(4) . . .
54(4) . . .
57(4) . . .
59(4) . . .
58(4) . . .
52(4) . . .
57(4) . . .
63(4) . . .
49(4) . . .
64(5) . . .
63(4) . . .
65(4) . . .
61(4) . . .
64(4) . . .
67(5) . . .
58(4) . . .
55(4) . . .
43.3(34) . . .
53(4) . . .
48(4) . . .
60(4) . . .
55(4) . . .
58(4) . . .
53(4) . . .
60(4) . . .
67(5) . . .
63(4) . . .
62(4) . . .
55(4) . . .
71(5) . . .
55(4) . . .
58(4) . . .
55(4) . . .
57(4) . . .
51(4) . . .
58(4) . . .
60(4) . . .
69(4) . . .
54(4) . . .
53(4) . . .
44(4) . . .
63(4) . . .
49(4) . . .
59(4) . . .
54(4) . . .
50(4) . . .
55(4) . . .
59(4) . . .
56(4) . . .
51(4) . . .
57(4) . . .
56(4) . . .
58(4) . . .
71(5) . . .
64(4) . . .
44.4(35) . . .
61(4) . . .
54(4) . . .
60(4) . . .
59(4) . . .
60(4) . . .
54(4) . . .
68(5) . . .
58(4) . . .
57(4) . . .
63(4) . . .
66(4) . . .
50(4) . . .
59(4) . . .
52(4) . . .
59(4) . . .
59(4) . . .
55(4) . . .
58(4) . . .
48(4) . . .
53(4) . . .
58(4) . . .
47(4) . . .
65(5) . . .
58(4) . . .
62(4) . . .
49(4) . . .
55(4) . . .
55(4) . . .
60(4) . . .
66(4) . . .
55(4) . . .
55(4) . . .
68(5) . . .
50(4) . . .
55(4) . . .
56(4) . . .
44(4) . . .
53(4) . . .
51(4) . . .
62(4) . . .
66(5) . . .
60(4) . . .
68(4) . . .
57(4) . . .
57(4) . . .
54(4) . . .
60(4) . . .
56(4) . . .
59(4) . . .
66(4) . . .
64(4) . . .
48(4) . . .
62(4) . . .
57(4) . . .
57(4) . . .
60(4) . . .
65(5) . . .
59(4) . . .
59(4) . . .
55(4) . . .
55(4) . . .
56(4) . . .
53(4) . . .
51(4) . . .
51(4) . . .
71(5) . . .
55(4) . . .
51(4) . . .
64(4) . . .
62(4) . . .
59(4) . . .
58(4) . . .
52(4) . . .
58(4) . . .
63(4) . . .
56(4) . . .
59(4) . . .
54(4) . . .
50(4) . . .
60(4) . . .
60(4) . . .
57(4) . . .
60(4) . . .
59(4) . . .
58(4) . . .
61(4) . . .
61(4) . . .
60(4) . . .
56(4) . . .
57(4) . . .
52(4) . . .
59(4) . . .
60(4) . . .
55(4) . . .
43.7(34) . . .
56(4) . . .
58(4) . . .
55(4) . . .
58(4) . . .
63(4) . . .
61(4) . . .
54(4) . . .
53(4) . . .
65(4) . . .
48(4) . . .
50(4) . . .
53(4) . . .
57(4) . . .
51(4) . . .
46.3(35) . . .
58(4) . . .
50(4) . . .
65(4) . . .
58(4) . . .
64(4) . . .
59(4) . . .
50(4) . . .
59(4) . . .
54(4) . . .
59(4) . . .
59(4) . . .
57(4) . . .
57(4) . . .
60(4) . . .
59(4) . . .
59(4) . . .
50(4) . . .
52(4) . . .
52(4) . . .
56(4) . . .
55(4) . . .
57(4) . . .
65(4) . . .
64(4) . . .
52(4) . . .
53(4) . . .
60(4) . . .
53(4) . . .
48(4) . . .
64(5) . . .
49(4) . . .
57(4) . . .
50(4) . . .
63(4) . . .
49(4) . . .
65(5) . . .
49(4) . . .
62(4) . . .
62(4) . . .
59(4) . . .
64(4) . . .
48(4) . . .
65(4) . . .
52(4) . . .
55(4) . . .
53(4) . . .
52(4) . . .
64(4) . . .
65(4) . . .
61(4) . . .
63(4) . . .
54(4) . . .
64(4) . . .
64(5) . . .
54(4) . . .
60(4) . . .
61(4) . . .
48(4) . . .
48(4) . . .
57(4) . . .
56(4) . . .
57(4) . . .
60(4) . . .
61(4) . . .
45(4) . . .
54(4) . . .
60(4) . . .
67(4) . . .
61(4) . . .
39.5(34) . . .
43(4) . . .
61(4) . . .
67(5) . . .
68(5) . . .
61(4) . . .
57(4) . . .
57(4) . . .
59(4) . . .
60(4) . . .
56(4) . . .
58(4) . . .
60(4) . . .
61(4) . . .
60(4) . . .
57(4) . . .
54(4) . . .
50(4) . . .
55(4) . . .
58(4) . . .
56(4) . . .
59(4) . . .
61(4) . . .
52(4) . . .
60(4) . . .
59(4) . . .
59(4) . . .
57(4) . . .
59(4) . . .
63(4) . . .
58(4) . . .
51(4) . . .
63(4) . . .
56(4) . . .
56(4) . . .
57(4) . . .
50(4) . . .
55(4) . . .
57(4) . . .
66(5) . . .
50(4) . . .
66(4) . . .
52(4) . . .
58(4) . . .
58(4) . . .
58(4) . . .
64(4) . . .
47(4) . . .
51(4) . . .
55(4) . . .
58(4) . . .
48(4) . . .
56(4) . . .
59(4) . . .
53(4) . . .
58(4) . . .
53(4) . . .
49(4) . . .
49(4) . . .
58(4) . . .
58(4) . . .
47(4) . . .
49(4) . . .
52(4) . . .
62(4) . . .
59(4) . . .
42.9(34) . . .
62(4) . . .
66(4) . . .
68(4) . . .
58(4) . . .
58(4) . . .
61(4) . . .
55(4) . . .
64(4) . . .
56(4) . . .
57(4) . . .
52(4) . . .
49(4) . . .
51(4) . . .
56(4) . . .
57(4) . . .
51(4) . . .
58(4) . . .
56(4) . . .
55(4) . . .
63(4) . . .
57(4) . . .
69(5) . . .
67(4) . . .
60(4) . . .
60(4) . . .
59(4) . . .
55(4) . . .
58(4) . . .
55(4) . . .
55(4) . . .
53(4) . . .
62(4) . . .
70(5) . . .
72(4) . . .
48(4) . . .
45(4) . . .
57(4) . . .
58(4) . . .
55(4) . . .
56(4) . . .
64(4) . . .
67(4) . . .
59(4) . . .
63(4) . . .
60(4) . . .
52(4) . . .
61(4) . . .
61(4) . . .
56(4) . . .
48(4) . . .
50(4) . . .
59(4) . . .
63(4) . . .
57(4) . . .
58(4) . . .
53(4) . . .
59(4) . . .
62(4) . . .
53(4) . . .
60(4) . . .
55(4) . . .
50(4) . . .
60(4) . . .
57(4) . . .
49(4) . . .
59(4) . . .
58(4) . . .
61(4) . . .
58(4) . . .
50(4) . . .
61(4) . . .
73(5) . . .
57(4) . . .
50(4) . . .
43.0(35) . . .
67(5) . . .
57(4) . . .
55(4) . . .
56(4) . . .
58(4) . . .
52(4) . . .
57(4) . . .
57(4) . . .
54(4) . . .
54(4) . . .
61(4) . . .
53(4) . . .
54(4) . . .
61(4) . . .
58(4) . . .
57(4) . . .
54(4) . . .
46.1(35) . . .
59(4) . . .
60(4) . . .
62(4) . . .
59(4) . . .
59(4) . . .
62(4) . . .
71(5) . . .
53(4) . . .
50(4) . . .
55(4) . . .
68(4) . . .
60(4) . . .
57(4) . . .
59(4) . . .
50(4) . . .
52(4) . . .
57(4) . . .
56(4) . . .
60(4) . . .
58(4) . . .
50(4) . . .
43.2(34) . . .
52(4) . . .
72(4) . . .
60(4) . . .
63(4) . . .
66(5) . . .
54(4) . . .
64(4) . . .
48(4) . . .
61(4) . . .
55(4) . . .
48(4) . . .
54(4) . . .
58(4) . . .
54(4) . . .
54(4) . . .
49(4) . . .
55(4) . . .
59(4) . . .
63(4) . . .
56(4) . . .
57(4) . . .
55(4) . . .
50(4) . . .
49(4) . . .
63(4) . . .
47(4) . . .
50(4) . . .
53(4) . . .
59(4) . . .
49(4) . . .
55(4) . . .
59(4) . . .
64(4) . . .
59(4) . . .
68(4) . . .
59(4) . . .
49(4) . . .
48(4) . . .
51(4) . . .
58(4) . . .
54(4) . . .
46(4) . . .
59(4) . . .
53(4) . . .
64(4) . . .
62(4) . . .
56(4) . . .
52(4) . . .
51(4) . . .
48(4) . . .
56(4) . . .
62(4) . . .
74(5) . . .
59(4) . . .
51(4) . . .
47.2(35) . . .
60(4) . . .
54(4) . . .
58(4) . . .
54(4) . . .
61(4) . . .
54(4) . . .
57(4) . . .
58(4) . . .
51(4) . . .
53(4) . . .
49(4) . . .
45(4) . . .
56(4) . . .
60(4) . . .
61(4) . . .
65(4) . . .
59(4) . . .
54(4) . . .
53(4) . . .
62(4) . . .
65(4) . . .
55(4) . . .
51(4) . . .
61(4) . . .
58(4) . . .
52(4) . . .
60(4) . . .
49(4) . . .
67(5) . . .
66(4) . . .
61(4) . . .
63(4) . . .
56(4) . . .
54(4) . . .
53(4) . . .
52(4) . . .
63(5) . . .
62(4) . . .
56(4) . . .
61(4) . . .
53(4) . . .
74(5) . . .
64(4) . . .
58(4) . . .
56(4) . . .
52(4) . . .
52(4) . . .
57(4) . . .
57(4) . . .
65(4) . . .
58(4) . . .
48(4) . . .
46(4) . . .
50(4) . . .
61(4) . . .
55(4) . . .
48(4) . . .
50(4) . . .
52(4) . . .
48(4) . . .
52(4) . . .
51(4) . . .
45(4) . . .
60(4) . . .
50(4) . . .
66(4) . . .
56(4) . . .
61(4) . . .
51(4) . . .
57(4) . . .
62(4) . . .
55(4) . . .
55(4) . . .
58(4) . . .
53(4) . . .
50(4) . . .
58(4) . . .
58(4) . . .
47(4) . . .
61(5) . . .
54(4) . . .
66(5) . . .
56(4) . . .
68(4) . . .
49(4) . . .
57(4) . . .
54(4) . . .
54(4) . . .
54(4) . . .
63(4) . . .
55(4) . . .
57(4) . . .
50(4) . . .
53(4) . . .
53(4) . . .
55(4) . . .
51(4) . . .
52(4) . . .
57(4) . . .
57(4) . . .
61(4) . . .
62(4) . . .
45.6(35) . . .
46(4) . . .
55(4) . . .
48(4) . . .
61(4) . . .
62(4) . . .
54(4) . . .
54(4) . . .
59(4) . . .
54(4) . . .
50(4) . . .
60(4) . . .
52(4) . . .
63(5) . . .
53(4) . . .
50(4) . . .
47(4) . . .
52(4) . . .
49(4) . . .
70(4) . . .
63(4) . . .
55(4) . . .
49(4) . . .
56(4) . . .
58(4) . . .
54(4) . . .
61(4) . . .
49(4) . . .
46(4) . . .
54(4) . . .
65(4) . . .
54(4) . . .
74(5) . . .
64(4) . . .
58(4) . . .
64(4) . . .
55(4) . . .
57(4) . . .
63(4) . . .
54(4) . . .
60(4) . . .
62(4) . . .
58(4) . . .
50(4) . . .
57(4) . . .
46.1(35) . . .
58(4) . . .
47(4) . . .
45(4) . . .
52(4) . . .
56(4) . . .
50(4) . . .
52(4) . . .
53(4) . . .
58(4) . . .
57(4) . . .
60(4) . . .
59(4) . . .
63(4) . . .
51(4) . . .
58(4) . . .
59(4) . . .
58(4) . . .
63(4) . . .
58(4) . . .
46(4) . . .
60(4) . . .
60(4) . . .
50(4) . . .
63(4) . . .
65(4) . . .
71(5) . . .
61(4) . . .
56(4) . . .
57(4) . . .
57(4) . . .
56(4) . . .
52(4) . . .
60(4) . . .
58(4) . . .
50(4) . . .
62(5) . . .
58(4) . . .
57(4) . . .
67(4) . . .
61(4) . . .
49(4) . . .
55(4) . . .
63(4) . . .
65(4) . . .
55(4) . . .
57(4) . . .
55(4) . . .
59(4) . . .
58(4) . . .
58(4) . . .
66(5) . . .
48(4) . . .
62(4) . . .
62(4) . . .
60(4) . . .
57(4) . . .
66(4) . . .
49(4) . . .
48(4) . . .
54(4) . . .
60(4) . . .
56(4) . . .
51(4) . . .
55(4) . . .
58(4) . . .
70(5) . . .
59(4) . . .
56(4) . . .
63(4) . . .
60(4) . . .
54(4) . . .
64(4) . . .
57(4) . . .
56(4) . . .
51(4) . . .
60(4) . . .
55(4) . . .
46(4) . . .
63(4) . . .
47(4) . . .
46(4) . . .
53(4) . . .
54(4) . . .
70(5) . . .
61(4) . . .
59(4) . . .
64(4) . . .
61(4) . . .
51(4) . . .
63(4) . . .
64(4) . . .
59(4) . . .
57(4) . . .
59(4) . . .
59(4) . . .
57(4) . . .
59(4) . . .
55(4) . . .
60(4) . . .
44(4) . . .
51(4) . . .
45.5(35) . . .
61(4) . . .
57(4) . . .
60(4) . . .
62(4) . . .
60(4) . . .
55(4) . . .
52(4) . . .
54(4) . . .
65(4) . . .
61(4) . . .
58(4) . . .
52(4) . . .
63(4) . . .
59(4) . . .
62(4) . . .
57(4) . . .
62(4) . . .
57(4) . . .
57(4) . . .
51(4) . . .
73(5) . . .
72(5) . . .
63(4) . . .
58(4) . . .
58(4) . . .
52(4) . . .
60(4) . . .
59(4) . . .
56(4) . . .
55(4) . . .
55(4) . . .
52(4) . . .
48(4) . . .
53(4) . . .
59(4) . . .
49(4) . . .
57(4) . . .
59(4) . . .
54(4) . . .
53(4) . . .
74(5) . . .
70(5) . . .
67(5) . . .
51(4) . . .
62(4) . . .
50(4) . . .
56(4) . . .
58(4) . . .
59(4) . . .
50(4) . . .
63(4) . . .
50(4) . . .
55(4) . . .
49(4) . . .
62(4) . . .
53(4) . . .
63(4) . . .
59(4) . . .
59(4) . . .
59(4) . . .
54(4) . . .
65(5) . . .
47(4) . . .
59(4) . . .
59(4) . . .
50(4) . . .
56(4) . . .
52(4) . . .
65(4) . . .
53(4) . . .
60(4) . . .
65(4) . . .
47(4) . . .
62(4) . . .
53(4) . . .
50(4) . . .
54(4) . . .
55(4) . . .
58(4) . . .
67(5) . . .
61(4) . . .
61(4) . . .
52(4) . . .
45.6(35) . . .
53(4) . . .
58(4) . . .
52(4) . . .
47(4) . . .
60(4) . . .
60(4) . . .
61(4) . . .
58(4) . . .
58(4) . . .
64(4) . . .
60(4) . . .
54(4) . . .
58(4) . . .
50(4) . . .
45.3(35) . . .
51(4) . . .
59(4) . . .
53(4) . . .
61(4) . . .
59(4) . . .
48(4) . . .
53(4) . . .
67(5) . . .
54(4) . . .
66(4) . . .
67(4) . . .
62(4) . . .
65(5) . . .
57(4) . . .
55(4) . . .
56(4) . . .
56(4) . . .
50(4) . . .
52(4) . . .
59(4) . . .
61(4) . . .
51(4) . . .
63(4) . . .
61(4) . . .
59(4) . . .
64(4) . . .
54(4) . . .
49(4) . . .
54(4) . . .
63(4) . . .
54(4) . . .
45(4) . . .
59(4) . . .
69(4) . . .
59(4) . . .
48(4) . . .
58(4) . . .
53(4) . . .
56(4) . . .
54(4) . . .
61(4) . . .
64(4) . . .
60(4) . . .
48(4) . . .
44(4) . . .
61(4) . . .
54(4) . . .
56(4) . . .
56(4) . . .
63(4) . . .
54(4) . . .
62(4) . . .
58(4) . . .
61(4) . . .
56(4) . . .
54(4) . . .
57(4) . . .
54(4) . . .
62(4) . . .
55(4) . . .
59(4) . . .
61(4) . . .
53(4) . . .
51(4) . . .
53(4) . . .
53(4) . . .
55(4) . . .
51(4) . . .
57(4) . . .
63(4) . . .
58(4) . . .
57(4) . . .
48(4) . . .
57(4) . . .
60(4) . . .
70(5) . . .
61(4) . . .
59(4) . . .
56(4) . . .
47(4) . . .
54(4) . . .
59(4) . . .
52(4) . . .
55(4) . . .
51(4) . . .
52(4) . . .
47(4) . . .
55(4) . . .
69(4) . . .
55(4) . . .
47(4) . . .
57(4) . . .
59(4) . . .
61(4) . . .
58(4) . . .
57(4) . . .
57(4) . . .
64(4) . . .
54(4) . . .
44(4) . . .
55(4) . . .
63(4) . . .
59(4) . . .
54(4) . . .
50(4) . . .
55(4) . . .
56(4) . . .
55(4) . . .
55(4) . . .
57(4) . . .
51(4) . . .
58(4) . . .
61(4) . . .
61(4) . . .
69(4) . . .
59(4) . . .
56(4) . . .
65(4) . . .
54(4) . . .
58(4) . . .
53(4) . . .
58(4) . . .
55(4) . . .
59(4) . . .
52(4) . . .
67(4) . . .
60(4) . . .
46(4) . . .
53(4) . . .
64(4) . . .
39.3(32) . . .
53(4) . . .
54(4) . . .
51(4) . . .
52(4) . . .
55(4) . . .
60(4) . . .
61(4) . . .
61(4) . . .
50(4) . . .
51(4) . . .
63(4) . . .
46(4) . . .
49(4) . . .
51(4) . . .
55(4) . . .
57(4) . . .
59(4) . . .
50(4) . . .
56(4) . . .
48(4) . . .
57(4) . . .
57(4) . . .
60(4) . . .
54(4) . . .
64(4) . . .
63(4) . . .
51(4) . . .
62(4) . . .
48(4) . . .
61(4) . . .
59(4) . . .
48(4) . . .
65(4) . . .
61(4) . . .
52(4) . . .
62(4) . . .
59(4) . . .
54(4) . . .
60(4) . . .
66(4) . . .
55(4) . . .
53(4) . . .
53(4) . . .
60(4) . . .
53(4) . . .
59(4) . . .
59(4) . . .
55(4) . . .
62(4) . . .
63(4) . . .
52(4) . . .
58(4) . . .
59(4) . . .
58(4) . . .
57(4) . . .
56(4) . . .
55(4) . . .
56(4) . . .
56(4) . . .
59(4) . . .
55(4) . . .
59(4) . . .
60(4) . . .
55(4) . . .
52(4) . . .
49(4) . . .
63(4) . . .
52(4) . . .
49(4) . . .
56(4) . . .
59(4) . . .
54(4) . . .
57(4) . . .
52(4) . . .
56(4) . . .
60(4) . . .
58(4) . . .
54(4) . . .
45.5(35) . . .
51(4) . . .
44(4) . . .
53(4) . . .
54(4) . . .
53(4) . . .
67(4) . . .
57(4) . . .
52(4) . . .
48(4) . . .
57(4) . . .
50(4) . . .
60(4) . . .
58(4) . . .
59(4) . . .
63(4) . . .
70(4) . . .
59(4) . . .
62(4) . . .
61(4) . . .
65(4) . . .
54(4) . . .
57(4) . . .
50(4) . . .
55(4) . . .
53(4) . . .
59(4) . . .
60(4) . . .
53(4) . . .
63(4) . . .
57(4) . . .
60(4) . . .
47(4) . . .
61(4) . . .
54(4) . . .
54(4) . . .
46(4) . . .
46(4) . . .
60(4) . . .
59(4) . . .
58(4) . . .
50(4) . . .
50(4) . . .
57(4) . . .
55(4) . . .
49(4) . . .
58(4) . . .
61(4) . . .
57(4) . . .
67(4) . . .
62(4) . . .
59(4) . . .
58(4) . . .
52(4) . . .
62(4) . . .
55(4) . . .
50(4) . . .
57(4) . . .
55(4) . . .
55(4) . . .
64(4) . . .
52(4) . . .
50(4) . . .
60(4) . . .
57(4) . . .
56(4) . . .
60(4) . . .
60(4) . . .
58(4) . . .
57(4) . . .
61(4) . . .
61(4) . . .
63(4) . . .
58(4) . . .
50(4) . . .
56(4) . . .
40.8(34) . . .
54(4) . . .
48(4) . . .
54(4) . . .
52(4) . . .
48(4) . . .
54(4) . . .
52(4) . . .
44.3(35) . . .
53(4) . . .
52(4) . . .
52(4) . . .
52(4) . . .
61(4) . . .
48(4) . . .
63(5) . . .
53(4) . . .
52(4) . . .
57(4) . . .
56(4) . . .
45(4) . . .
51(4) . . .
57(4) . . .
49(4) . . .
58(4) . . .
49(4) . . .
58(4) . . .
58(4) . . .
68(4) . . .
47(4) . . .
59(4) . . .
55(4) . . .
64(4) . . .
56(4) . . .
52(4) . . .
48(4) . . .
53(4) . . .
63(4) . . .
61(4) . . .
60(4) . . .
54(4) . . .
54(4) . . .
54(4) . . .
46(4) . . .
44.5(35) . . .
56(4) . . .
54(4) . . .
49(4) . . .
52(4) . . .
65(5) . . .
60(4) . . .
55(4) . . .
57(4) . . .
60(4) . . .
62(5) . . .
59(4) . . .
59(4) . . .
53(4) . . .
59(4) . . .
54(4) . . .
54(4) . . .
67(4) . . .
58(4) . . .
63(4) . . .
65(5) . . .
51(4) . . .
43.6(34) . . .
51(4) . . .
55(4) . . .
63(5) . . .
50(4) . . .
55(4) . . .
61(4) . . .
47(4) . . .
54(4) . . .
43(4) . . .
54(4) . . .
57(4) . . .
56(4) . . .
52(4) . . .
60(4) . . .
56(4) . . .
64(4) . . .
51(4) . . .
56(4) . . .
68(4) . . .
55(4) . . .
52(4) . . .
56(4) . . .
48(4) . . .
53(4) . . .
55(4) . . .
62(4) . . .
58(4) . . .
44(4) . . .
70(5) . . .
52(4) . . .
62(4) . . .
55(4) . . .
61(4) . . .
60(4) . . .
56(4) . . .
65(4) . . .
52(4) . . .
49(4) . . .
51(4) . . .
47(4) . . .
53(4) . . .
65(5) . . .
67(5) . . .
60(4) . . .
51(4) . . .
56(4) . . .
54(4) . . .
59(5) . . .
54(4) . . .
54(4) . . .
51(4) . . .
62(4) . . .
55(4) . . .
62(4) . . .
57(4) . . .
59(4) . . .
61(4) . . .
57(4) . . .
46(4) . . .
59(4) . . .
52(4) . . .
70(5) . . .
50(4) . . .
53(4) . . .
50(4) . . .
59(4) . . .
61(4) . . .
59(4) . . .
53(4) . . .
54(4) . . .
54(4) . . .
50(4) . . .
57(4) . . .
55(4) . . .
59(4) . . .
58(4) . . .
54(4) . . .
45.5(35) . . .
55(4) . . .
55(4) . . .
56(4) . . .
56(4) . . .
57(4) . . .
64(4) . . .
55(4) . . .
62(4) . . .
58(4) . . .
67(4) . . .
55(4) . . .
67(4) . . .
54(4) . . .
51(4) . . .
54(4) . . .
48(4) . . .
55(4) . . .
61(4) . . .
57(4) . . .
65(4) . . .
65(4) . . .
61(4) . . .
60(4) . . .
49(4) . . .
57(4) . . .
52(4) . . .
48(4) . . .
48(4) . . .
53(4) . . .
60(4) . . .
61(4) . . .
57(4) . . .
53(4) . . .
67(5) . . .
54(4) . . .
56(4) . . .
56(4) . . .
62(4) . . .
51(4) . . .
55(4) . . .
58(4) . . .
51(4) . . .
61(4) . . .
62(4) . . .
53(4) . . .
58(4) . . .
49(4) . . .
59(4) . . .
66(4) . . .
58(4) . . .
54(4) . . .
50(4) . . .
52(4) . . .
51(4) . . .
51(4) . . .
58(4) . . .
65(4) . . .
54(4) . . .
62(4) . . .
62(4) . . .
65(4) . . .
57(4) . . .
55(4) . . .
64(4) . . .
60(4) . . .
49(4) . . .
61(4) . . .
49(4) . . .
60(4) . . .
49(4) . . .
51(4) . . .
58(4) . . .
56(4) . . .
57(4) . . .
57(4) . . .
51(4) . . .
57(4) . . .
48(4) . . .
65(4) . . .
63(4) . . .
70(5) . . .
59(4) . . .
63(4) . . .
57(4) . . .
57(4) . . .
58(4) . . .
63(4) . . .
52(4) . . .
55(4) . . .
64(4) . . .
55(4) . . .
59(4) . . .
61(4) . . .
61(4) . . .
64(4) . . .
53(4) . . .
50(4) . . .
58(4) . . .
62(4) . . .
45(4) . . .
54(4) . . .
60(4) . . .
59(4) . . .
45(4) . . .
64(4) . . .
61(4) . . .
56(4) . . .
52(4) . . .
57(4) . . .
55(4) . . .
55(4) . . .
60(4) . . .
54(4) . . .
63(4) . . .
57(4) . . .
64(5) . . .
52(4) . . .
50(4) . . .
56(4) . . .
50(4) . . .
58(4) . . .
62(4) . . .
48(4) . . .
56(4) . . .
60(4) . . .
64(5) . . .
45.5(35) . . .
50(4) . . .
43.5(35) . . .
49(4) . . .
56(4) . . .
53(4) . . .
65(4) . . .
62(4) . . .
60(4) . . .
57(4) . . .
58(4) . . .
57(4) . . .
50(4) . . .
60(4) . . .
53(4) . . .
53(4) . . .
55(4) . . .
56(4) . . .
53(4) . . .
64(4) . . .
68(4) . . .
58(4) . . .
56(4) . . .
58(4) . . .
54(4) . . .
63(4) . . .
53(4) . . .
67(4) . . .
58(4) . . .
55(4) . . .
49(4) . . .
52(4) . . .
63(4) . . .
57(4) . . .
63(4) . . .
57(4) . . .
64(4) . . .
66(4) . . .
64(5) . . .
59(4) . . .
62(4) . . .
65(4) . . .
55(4) . . .
60(4) . . .
53(4) . . .
52(4) . . .
60(4) . . .
62(4) . . .
54(4) . . .
51(4) . . .
56(4) . . .
62(4) . . .
55(4) . . .
53(4) . . .
49(4) . . .
47(4) . . .
66(4) . . .
53(4) . . .
54(4) . . .
55(4) . . .
68(4) . . .
49(4) . . .
57(4) . . .
49(4) . . .
52(4) . . .
60(4) . . .
54(4) . . .
55(4) . . .
54(4) . . .
56(4) . . .
50(4) . . .
58(4) . . .
49(4) . . .
55(4) . . .
62(4) . . .
65(4) . . .
59(4) . . .
57(4) . . .
52(4) . . .
61(4) . . .
49(4) . . .
57(4) . . .
48(4) . . .
47(4) . . .
53(4) . . .
57(4) . . .
52(4) . . .
50(4) . . .
61(4) . . .
60(4) . . .
59(4) . . .
60(4) . . .
42(4) . . .
50(4) . . .
59(4) . . .
63(4) . . .
61(4) . . .
56(4) . . .
54(4) . . .
57(4) . . .
58(4) . . .
54(4) . . .
55(4) . . .
57(4) . . .
61(4) . . .
60(4) . . .
61(4) . . .
60(4) . . .
55(4) . . .
65(4) . . .
58(4) . . .
59(4) . . .
53(4) . . .
53(4) . . .
52(4) . . .
59(4) . . .
50(4) . . .
45(4) . . .
55(4) . . .
48(4) . . .
50(4) . . .
56(4) . . .
54(4) . . .
58(4) . . .
62(4) . . .
50(4) . . .
51(4) . . .
53(4) . . .
47(4) . . .
40.4(33) . . .
51(4) . . .
53(4) . . .
61(4) . . .
60(4) . . .
60(4) . . .
56(4) . . .
53(4) . . .
58(4) . . .
50(4) . . .
61(4) . . .
60(4) . . .
54(4) . . .
53(4) . . .
54(4) . . .
62(4) . . .
53(4) . . .
53(4) . . .
63(4) . . .
58(4) . . .
57(4) . . .
43.3(35) . . .
57(4) . . .
51(4) . . .
47(4) . . .
41.9(34) . . .
61(4) . . .
54(4) . . .
47(4) . . .
43.2(34) . . .
64(4) . . .
67(5) . . .
56(4) . . .
61(4) . . .
62(4) . . .
66(4) . . .
62(4) . . .
60(4) . . .
60(4) . . .
60(4) . . .
51(4) . . .
60(4) . . .
53(4) . . .
63(4) . . .
51(4) . . .
55(4) . . .
57(4) . . .
56(4) . . .
52(4) . . .
66(4) . . .
57(4) . . .
53(4) . . .
56(4) . . .
53(4) . . .
56(4) . . .
60(4) . . .
64(4) . . .
60(4) . . .
60(4) . . .
57(4) . . .
47(4) . . .
57(4) . . .
60(4) . . .
61(4) . . .
58(4) . . .
55(4) . . .
64(5) . . .
64(4) . . .
57(4) . . .
63(4) . . .
48(4) . . .
56(4) . . .
58(4) . . .
51(4) . . .
54(4) . . .
60(4) . . .
61(4) . . .
56(4) . . .
58(4) . . .
63(4) . . .
56(4) . . .
56(4) . . .
57(4) . . .
61(4) . . .
60(4) . . .
61(4) . . .
57(4) . . .
50(4) . . .
55(4) . . .
48(4) . . .
55(4) . . .
55(4) . . .
59(4) . . .
53(4) . . .
59(4) . . .
63(4) . . .
52(4) . . .
60(4) . . .
55(4) . . .
59(4) . . .
53(4) . . .
46.2(35) . . .
59(4) . . .
57(4) . . .
65(4) . . .
62(4) . . .
60(4) . . .
61(4) . . .
56(4) . . .
65(4) . . .
54(4) . . .
71(5) . . .
54(4) . . .
51(4) . . .
57(4) . . .
48(4) . . .
51(4) . . .
57(4) . . .
63(4) . . .
55(4) . . .
49(4) . . .
64(4) . . .
55(4) . . .
53(4) . . .
49(4) . . .
54(4) . . .
61(4) . . .
53(4) . . .
52(4) . . .
61(4) . . .
62(4) . . .
49(4) . . .
59(4) . . .
51(4) . . .
48(4) . . .
51(4) . . .
58(4) . . .
61(4) . . .
56(4) . . .
51(4) . . .
48(4) . . .
58(4) . . .
69(4) . . .
52(4) . . .
64(4) . . .
56(4) . . .
54(4) . . .
62(4) . . .
60(4) . . .
47(4) . . .
60(4) . . .
59(4) . . .
58(4) . . .
55(4) . . .
62(4) . . .
59(4) . . .
61(4) . . .
62(4) . . .
53(4) . . .
49(4) . . .
47(4) . . .
50(4) . . .
56(4) . . .
62(4) . . .
51(4) . . .
48(4) . . .
53(4) . . .
54(4) . . .
54(4) . . .
48(4) . . .
62(4) . . .
60(4) . . .
60(4) . . .
53(4) . . .
54(4) . . .
49(4) . . .
62(4) . . .
58(4) . . .
49(4) . . .
55(4) . . .
50(4) . . .
56(4) . . .
57(4) . . .
42.7(34) . . .
54(4) . . .
62(4) . . .
65(4) . . .
57(4) . . .
53(4) . . .
63(5) . . .
50(4) . . .
58(4) . . .
49(4) . . .
57(4) . . .
65(4) . . .
57(4) . . .
62(4) . . .
39.0(33) . . .
54(4) . . .
54(4) . . .
59(4) . . .
52(4) . . .
64(4) . . .
61(4) . . .
66(4) . . .
69(4) . . .
54(4) . . .
63(4) . . .
50(4) . . .
56(4) . . .
52(4) . . .
59(4) . . .
50(4) . . .
54(4) . . .
64(4) . . .
51(4) . . .
53(4) . . .
56(4) . . .
61(4) . . .
64(4) . . .
59(4) . . .
56(4) . . .
51(4) . . .
49(4) . . .
57(4) . . .
57(4) . . .
62(4) . . .
59(4) . . .
58(4) . . .
58(4) . . .
59(4) . . .
63(4) . . .
55(4) . . .
48(4) . . .
50(4) . . .
51(4) . . .
52(4) . . .
56(4) . . .
58(4) . . .
54(4) . . .
65(4) . . .
56(4) . . .
64(4) . . .
53(4) . . .
57(4) . . .
58(4) . . .
57(4) . . .
58(4) . . .
57(4) . . .
64(4) . . .
61(4) . . .
56(4) . . .
48(4) . . .
44.7(35) . . .
50(4) . . .
56(4) . . .
56(4) . . .
62(4) . . .
68(4) . . .
52(4) . . .
53(4) . . .
58(4) . . .
56(4) . . .
47(4) . . .
50(4) . . .
48(4) . . .
54(4) . . .
56(4) . . .
57(4) . . .
55(4) . . .
59(4) . . .
66(4) . . .
57(4) . . .
65(4) . . .
53(4) . . .
59(4) . . .
60(4) . . .
52(4) . . .
51(4) . . .
57(4) . . .
57(4) . . .
53(4) . . .
55(4) . . .
52(4) . . .
52(4) . . .
61(4) . . .
45(4) . . .
57(4) . . .
53(4) . . .
44.6(35) . . .
44(4) . . .
49(4) . . .
58(4) . . .
57(4) . . .
63(4) . . .
54(4) . . .
57(4) . . .
64(4) . . .
53(4) . . .
47(4) . . .
55(4) . . .
51(4) . . .
59(4) . . .
49(4) . . .
54(4) . . .
52(4) . . .
50(4) . . .
52(4) . . .
52(4) . . .
62(4) . . .
60(4) . . .
56(4) . . .
51(4) . . .
61(4) . . .
63(4) . . .
58(4) . . .
49(4) . . .
60(5) . . .
61(4) . . .
53(4) . . .
56(4) . . .
50(4) . . .
57(4) . . .
50(4) . . .
45(4) . . .
42(4) . . .
52(4) . . .
59(4) . . .
68(4) . . .
49(4) . . .
50(4) . . .
47(4) . . .
48(4) . . .
52(4) . . .
59(4) . . .
52(4) . . .
60(4) . . .
51(4) . . .
50(4) . . .
55(4) . . .
58(4) . . .
51(4) . . .
54(4) . . .
51(4) . . .
49(4) . . .
60(4) . . .
56(4) . . .
60(4) . . .
55(4) . . .
52(4) . . .
46(4) . . .
55(4) . . .
55(4) . . .
47(4) . . .
58(4) . . .
42.5(34) . . .
57(4) . . .
60(4) . . .
55(4) . . .
48(4) . . .
53(4) . . .
52(4) . . .
57(4) . . .
47.5(35) . . .
50(4) . . .
52(4) . . .
54(4) . . .
53(4) . . .
58(4) . . .
57(4) . . .
48(4) . . .
50(4) . . .
59(4) . . .
61(4) . . .
52(4) . . .
56(4) . . .
57(4) . . .
60(4) . . .
56(4) . . .
49(4) . . .
52(4) . . .
64(4) . . .
58(4) . . .
48(4) . . .
69(5) . . .
62(4) . . .
60(4) . . .
48(4) . . .
51(4) . . .
50(4) . . .
45(4) . . .
49(4) . . .
62(4) . . .
59(4) . . .
66(4) . . .
56(4) . . .
53(4) . . .
64(4) . . .
53(4) . . .
61(4) . . .
51(4) . . .
60(4) . . .
53(4) . . .
48(4) . . .
48(4) . . .
54(4) . . .
48(4) . . .
52(4) . . .
57(4) . . .
58(4) . . .
56(4) . . .
57(4) . . .
54(4) . . .
60(4) . . .
44.5(35) . . .
50(4) . . .
53(4) . . .
61(4) . . .
58(4) . . .
56(4) . . .
58(4) . . .
49(4) . . .
56(4) . . .
65(4) . . .
54(4) . . .
56(4) . . .
50(4) . . .
56(4) . . .
51(4) . . .
52(4) . . .
53(4) . . .
53(4) . . .
64(4) . . .
60(4) . . .
63(4) . . .
60(4) . . .
66(4) . . .
61(4) . . .
61(4) . . .
50(4) . . .
57(4) . . .
64(4) . . .
49(4) . . .
51(4) . . .
55(4) . . .
61(4) . . .
52(4) . . .
60(4) . . .
47(4) . . .
63(5) . . .
58(4) . . .
59(4) . . .
69(4) . . .
50(4) . . .
52(4) . . .
60(4) . . .
69(4) . . .
58(4) . . .
59(5) . . .
51(4) . . .
50(4) . . .
50(4) . . .
54(4) . . .
52(4) . . .
53(4) . . .
56(4) . . .
66(4) . . .
56(4) . . .
51(4) . . .
52(4) . . .
53(4) . . .
64(4) . . .
52(4) . . .
53(4) . . .
57(4) . . .
57(4) . . .
52(4) . . .
60(4) . . .
58(4) . . .
56(4) . . .
48(4) . . .
46(4) . . .
65(4) . . .
45(4) . . .
45(4) . . .
48(4) . . .
52(4) . . .
55(4) . . .
58(4) . . .
48(4) . . .
60(4) . . .
48(4) . . .
56(4) . . .
61(4) . . .
66(4) . . .
55(4) . . .
52(4) . . .
56(4) . . .
63(4) . . .
59(4) . . .
59(4) . . .
51(4) . . .
57(4) . . .
60(4) . . .
60(4) . . .
55(4) . . .
54(4) . . .
55(4) . . .
45(4) . . .
52(4) . . .
53(4) . . .
60(4) . . .
61(4) . . .
54(4) . . .
54(4) . . .
63(4) . . .
53(4) . . .
56(4) . . .
60(4) . . .
59(4) . . .
56(4) . . .
48(4) . . .
54(4) . . .
60(4) . . .
54(4) . . .
50(4) . . .
61(4) . . .
49(4) . . .
61(4) . . .
56(4) . . .
49(4) . . .
49(4) . . .
55(4) . . .
50(4) . . .
46(4) . . .
55(4) . . .
71(5) . . .
66(5) . . .
58(4) . . .
61(4) . . .
50(4) . . .
45(4) . . .
48(4) . . .
49(4) . . .
57(4) . . .
58(4) . . .
53(4) . . .
59(4) . . .
58(4) . . .
61(4) . . .
61(4) . . .
59(4) . . .
59(4) . . .
52(4) . . .
52(4) . . .
52(4) . . .
58(4) . . .
42.0(34) . . .
50(4) . . .
56(4) . . .
57(4) . . .
65(4) . . .
62(4) . . .
54(4) . . .
56(4) . . .
55(4) . . .
53(4) . . .
56(4) . . .
53(4) . . .
57(4) . . .
53(4) . . .
58(4) . . .
66(5) . . .
48(4) . . .
62(4) . . .
54(4) . . .
53(4) . . .
61(5) . . .
47(4) . . .
61(4) . . .
45(4) . . .
53(4) . . .
68(4) . . .
52(4) . . .
56(4) . . .
62(4) . . .
55(4) . . .
60(4) . . .
57(4) . . .
64(4) . . .
60(4) . . .
47(4) . . .
47(4) . . .
55(4) . . .
51(4) . . .
55(4) . . .
46(4) . . .
54(4) . . .
44(4) . . .
60(4) . . .
60(4) . . .
61(4) . . .
52(4) . . .
56(4) . . .
65(4) . . .
62(4) . . .
54(4) . . .
57(4) . . .
77(5) . . .
64(4) . . .
70(5) . . .
53(4) . . .
57(4) . . .
61(4) . . .
56(4) . . .
53(4) . . .
51(4) . . .
54(4) . . .
48(4) . . .
53(4) . . .
53(4) . . .
66(4) . . .
50(4) . . .
57(4) . . .
47(4) . . .
54(4) . . .
55(4) . . .
59(4) . . .
58(4) . . .
54(4) . . .
57(4) . . .
57(4) . . .
52(4) . . .
56(4) . . .
54(4) . . .
53(4) . . .
55(4) . . .
59(4) . . .
62(4) . . .
56(4) . . .
57(4) . . .
52(4) . . .
57(4) . . .
56(4) . . .
52(4) . . .
59(4) . . .
55(4) . . .
59(4) . . .
58(4) . . .
56(4) . . .
62(4) . . .
52(4) . . .
64(4) . . .
54(4) . . .
59(4) . . .
60(4) . . .
53(4) . . .
52(4) . . .
68(4) . . .
58(4) . . .
50(4) . . .
62(4) . . .
59(4) . . .
57(4) . . .
57(4) . . .
55(4) . . .
57(4) . . .
51(4) . . .
55(4) . . .
59(4) . . .
62(4) . . .
58(4) . . .
56(4) . . .
59(4) . . .
66(5) . . .
56(4) . . .
55(4) . . .
53(4) . . .
54(4) . . .
58(4) . . .
52(4) . . .
55(4) . . .
53(4) . . .
52(4) . . .
53(4) . . .
64(5) . . .
61(4) . . .
54(4) . . .
54(4) . . .
55(4) . . .
54(4) . . .
55(4) . . .
55(4) . . .
58(4) . . .
59(4) . . .
56(4) . . .
60(4) . . .
55(4) . . .
47(4) . . .
64(5) . . .
53(4) . . .
44.2(35) . . .
55(4) . . .
51(4) . . .
56(4) . . .
59(4) . . .
57(4) . . .
62(4) . . .
59(4) . . .
60(4) . . .
51(4) . . .
49(4) . . .
55(4) . . .
57(4) . . .
54(4) . . .
58(4) . . .
56(4) . . .
57(4) . . .
66(4) . . .
57(4) . . .
42.4(34) . . .
62(4) . . .
53(4) . . .
63(5) . . .
44(4) . . .
52(4) . . .
59(4) . . .
65(5) . . .
56(4) . . .
56(4) . . .
58(4) . . .
62(4) . . .
57(4) . . .
49(4) . . .
48(4) . . .
57(4) . . .
48(4) . . .
48(4) . . .
58(4) . . .
65(4) . . .
57(4) . . .
59(4) . . .
67(5) . . .
55(4) . . .
50(4) . . .
52(4) . . .
53(4) . . .
59(4) . . .
64(4) . . .
61(4) . . .
53(4) . . .
51(4) . . .
55(4) . . .
54(4) . . .
49(4) . . .
60(4) . . .
48(4) . . .
53(4) . . .
48(4) . . .
67(4) . . .
63(4) . . .
53(4) . . .
67(5) . . .
56(4) . . .
51(4) . . .
54(4) . . .
57(4) . . .
50(4) . . .
47(4) . . .
49(4) . . .
61(4) . . .
56(4) . . .
58(4) . . .
61(4) . . .
54(4) . . .
47(4) . . .
49(4) . . .
61(4) . . .
54(4) . . .
54(4) . . .
57(4) . . .
52(4) . . .
52(4) . . .
61(4) . . .
60(4) . . .
58(4) . . .
55(4) . . .
58(4) . . .
48(4) . . .
58(4) . . .
71(4) . . .
60(4) . . .
51(4) . . .
50(4) . . .
58(4) . . .
46.2(35) . . .
63(5) . . .
51(4) . . .
55(4) . . .
49(4) . . .
48(4) . . .
50(4) . . .
51(4) . . .
64(4) . . .
63(4) . . .
52(4) . . .
47(4) . . .
50(4) . . .
60(4) . . .
56(4) . . .
54(4) . . .
56(4) . . .
59(4) . . .
55(4) . . .
54(4) . . .
52(4) . . .
59(4) . . .
59(4) . . .
50(4) . . .
51(4) . . .
51(4) . . .
57(4) . . .
58(4) . . .
63(4) . . .
61(4) . . .
61(4) . . .
47(4) . . .
56(4) . . .
48(4) . . .
58(4) . . .
52(4) . . .
64(4) . . .
63(4) . . .
55(4) . . .
58(4) . . .
57(4) . . .
64(4) . . .
55(4) . . .
65(4) . . .
59(4) . . .
46(4) . . .
49(4) . . .
42.0(34) . . .
57(4) . . .
64(4) . . .
54(4) . . .
61(4) . . .
62(4) . . .
56(4) . . .
49(4) . . .
62(4) . . .
53(4) . . .
55(4) . . .
56(4) . . .
61(5) . . .
58(4) . . .
49(4) . . .
57(4) . . .
53(4) . . .
59(4) . . .
59(4) . . .
50(4) . . .
53(4) . . .
53(4) . . .
61(4) . . .
57(4) . . .
55(4) . . .
47(4) . . .
57(4) . . .
53(4) . . .
52(4) . . .
60(4) . . .
58(4) . . .
50(4) . . .
49(4) . . .
52(4) . . .
50(4) . . .
58(4) . . .
58(4) . . .
57(4) . . .
60(4) . . .
56(4) . . .
52(4) . . .
68(4) . . .
52(4) . . .
52(4) . . .
57(4) . . .
48(4) . . .
48(4) . . .
46(4) . . .
48(4) . . .
43.5(34) . . .
53(4) . . .
57(4) . . .
70(5) . . .
59(4) . . .
53(4) . . .
61(4) . . .
51(4) . . .
58(4) . . .
53(4) . . .
48(4) . . .
60(4) . . .
51(4) . . .
64(4) . . .
50(4) . . .
60(4) . . .
74(4) . . .
57(4) . . .
62(4) . . .
50(4) . . .
55(4) . . .
55(4) . . .
59(4) . . .
59(4) . . .
52(4) . . .
55(4) . . .
49(4) . . .
55(4) . . .
58(4) . . .
57(4) . . .
56(4) . . .
64(4) . . .
51(4) . . .
44(4) . . .
48(4) . . .
53(4) . . .
56(4) . . .
57(4) . . .
46(4) . . .
64(4) . . .
62(4) . . .
61(4) . . .
55(4) . . .
45(4) . . .
50(4) . . .
63(4) . . .
62(4) . . .
51(4) . . .
45(4) . . .
58(4) . . .
52(4) . . .
56(4) . . .
59(4) . . .
48(4) . . .
53(4) . . .
54(4) . . .
58(4) . . .
55(4) . . .
44.0(35) . . .
54(4) . . .
64(4) . . .
63(4) . . .
55(4) . . .
57(4) . . .
58(4) . . .
56(4) . . .
57(4) . . .
63(4) . . .
54(4) . . .
61(4) . . .
51(4) . . .
60(4) . . .
61(4) . . .
62(4) . . .
59(4) . . .
60(4) . . .
57(4) . . .
55(4) . . .
52(4) . . .
49(4) . . .
56(4) . . .
65(4) . . .
57(4) . . .
51(4) . . .
52(4) . . .
52(4) . . .
60(4) . . .
57(4) . . .
51(4) . . .
50(4) . . .
52(4) . . .
62(4) . . .
54(4) . . .
54(4) . . .
48(4) . . .
50(4) . . .
59(4) . . .
50(4) . . .
49(4) . . .
55(4) . . .
49(4) . . .
57(4) . . .
60(4) . . .
59(4) . . .
66(4) . . .
69(4) . . .
58(4) . . .
48(4) . . .
63(4) . . .
57(4) . . .
54(4) . . .
49(4) . . .
49(4) . . .
55(4) . . .
47(4) . . .
47(4) . . .
53(4) . . .
55(4) . . .
53(4) . . .
56(4) . . .
59(4) . . .
52(4) . . .
59(4) . . .
55(4) . . .
64(4) . . .
54(4) . . .
50(4) . . .
60(4) . . .
53(4) . . .
64(4) . . .
63(4) . . .
54(4) . . .
49(4) . . .
64(4) . . .
46(4) . . .
42.2(35) . . .
45(4) . . .
63(4) . . .
65(4) . . .
61(4) . . .
56(4) . . .
53(4) . . .
54(4) . . .
53(4) . . .
52(4) . . .
56(4) . . .
54(4) . . .
55(4) . . .
48(4) . . .
52(4) . . .
49(4) . . .
47.4(35) . . .
57(4) . . .
56(4) . . .
59(4) . . .
61(4) . . .
58(4) . . .
60(4) . . .
55(4) . . .
57(4) . . .
66(4) . . .
63(4) . . .
57(4) . . .
60(4) . . .
55(4) . . .
56(4) . . .
53(4) . . .
57(4) . . .
64(4) . . .
57(4) . . .
57(4) . . .
48(4) . . .
66(4) . . .
63(4) . . .
54(4) . . .
58(4) . . .
51(4) . . .
49(4) . . .
68(4) . . .
67(4) . . .
58(4) . . .
53(4) . . .
47(4) . . .
62(4) . . .
60(4) . . .
57(4) . . .
58(4) . . .
56(4) . . .
47(4) . . .
63(4) . . .
64(4) . . .
53(4) . . .
54(4) . . .
43.2(34) . . .
59(4) . . .
44(4) . . .
49(4) . . .
55(4) . . .
66(5) . . .
54(4) . . .
46(4) . . .
57(4) . . .
53(4) . . .
62(4) . . .
49(4) . . .
51(4) . . .
51(4) . . .
50(4) . . .
58(4) . . .
63(4) . . .
44(4) . . .
45(4) . . .
51(4) . . .
62(4) . . .
64(4) . . .
58(4) . . .
60(4) . . .
62(4) . . .
56(4) . . .
62(4) . . .
67(4) . . .
61(4) . . .
50(4) . . .
52(4) . . .
50(4) . . .
51(4) . . .
53(4) . . .
56(4) . . .
51(4) . . .
58(4) . . .
62(4) . . .
54(4) . . .
59(4) . . .
61(4) . . .
57(4) . . .
53(4) . . .
60(4) . . .
66(4) . . .
61(4) . . .
64(4) . . .
53(4) . . .
73(4) . . .
61(4) . . .
54(4) . . .
52(4) . . .
50(4) . . .
59(4) . . .
54(4) . . .
51(4) . . .
59(4) . . .
55(4) . . .
55(4) . . .
64(4) . . .
62(4) . . .
50(4) . . .
45(4) . . .
49(4) . . .
56(4) . . .
52(4) . . .
57(4) . . .
56(4) . . .
51(4) . . .
51(4) . . .
61(4) . . .
59(4) . . .
59(4) . . .
53(4) . . .
52(4) . . .
49(4) . . .
54(4) . . .
52(4) . . .
51(4) . . .
53(4) . . .
51(4) . . .
60(4) . . .
60(4) . . .
54(4) . . .
42.3(35) . . .
57(4) . . .
55(4) . . .
53(4) . . .
52(4) . . .
54(4) . . .
55(4) . . .
52(4) . . .
56(4) . . .
58(4) . . .
52(4) . . .
53(4) . . .
48(4) . . .
56(4) . . .
52(4) . . .
61(4) . . .
66(4) . . .
66(4) . . .
54(4) . . .
55(4) . . .
57(4) . . .
63(4) . . .
59(4) . . .
48(4) . . .
53(4) . . .
53(4) . . .
47(4) . . .
56(4) . . .
65(4) . . .
66(4) . . .
62(4) . . .
54(4) . . .
56(4) . . .
64(4) . . .
54(4) . . .
73(5) . . .
50(4) . . .
50(4) . . .
63(4) . . .
61(4) . . .
52(4) . . .
48(4) . . .
54(4) . . .
57(4) . . .
51(4) . . .
66(5) . . .
60(4) . . .
44.4(35) . . .
50(4) . . .
58(4) . . .
51(4) . . .
58(4) . . .
61(4) . . .
50(4) . . .
52(4) . . .
62(4) . . .
53(4) . . .
51(4) . . .
60(4) . . .
47(4) . . .
50(4) . . .
54(4) . . .
60(4) . . .
55(4) . . .
56(4) . . .
53(4) . . .
62(4) . . .
59(4) . . .
54(4) . . .
52(4) . . .
53(4) . . .
51(4) . . .
48(4) . . .
63(4) . . .
65(4) . . .
60(4) . . .
58(4) . . .
53(4) . . .
44(4) . . .
54(4) . . .
67(4) . . .
52(4) . . .
43.8(34) . . .
67(4) . . .
52(4) . . .
58(4) . . .
57(4) . . .
54(4) . . .
56(4) . . .
52(4) . . .
68(4) . . .
65(4) . . .
56(4) . . .
59(4) . . .
53(4) . . .
56(4) . . .
57(4) . . .
62(4) . . .
46(4) . . .
55(4) . . .
55(4) . . .
63(4) . . .
51(4) . . .
62(4) . . .
54(4) . . .
44(4) . . .
53(4) . . .
60(4) . . .
60(4) . . .
48(4) . . .
44.5(34) . . .
54(4) . . .
55(4) . . .
54(4) . . .
56(4) . . .
52(4) . . .
56(4) . . .
54(4) . . .
50(4) . . .
58(4) . . .
56(4) . . .
50(4) . . .
54(4) . . .
52(4) . . .
60(4) . . .
63(4) . . .
59(4) . . .
57(4) . . .
58(4) . . .
61(4) . . .
59(4) . . .
53(4) . . .
49(4) . . .
61(4) . . .
50(4) . . .
60(4) . . .
56(4) . . .
54(4) . . .
56(4) . . .
48(4) . . .
56(4) . . .
54(4) . . .
44(4) . . .
44(4) . . .
66(4) . . .
54(4) . . .
48(4) . . .
54(4) . . .
55(4) . . .
48(4) . . .
53(4) . . .
54(4) . . .
66(4) . . .
53(4) . . .
55(4) . . .
47(4) . . .
55(4) . . .
57(4) . . .
45.6(34) . . .
57(4) . . .
53(4) . . .
61(4) . . .
50(4) . . .
61(4) . . .
53(4) . . .
56(4) . . .
65(4) . . .
52(4) . . .
64(4) . . .
67(4) . . .
55(4) . . .
57(4) . . .
65(4) . . .
56(4) . . .
62(4) . . .
66(4) . . .
50(4) . . .
56(4) . . .
48(4) . . .
53(4) . . .
56(4) . . .
58(4) . . .
59(4) . . .
59(4) . . .
64(4) . . .
53(4) . . .
61(4) . . .
58(4) . . .
72(5) . . .
55(4) . . .
52(4) . . .
46(4) . . .
51(4) . . .
61(4) . . .
52(4) . . .
61(4) . . .
49(4) . . .
50(4) . . .
53(4) . . .
66(4) . . .
53(4) . . .
52(4) . . .
51(4) . . .
57(4) . . .
52(4) . . .
53(4) . . .
53(4) . . .
46(4) . . .
57(4) . . .
54(4) . . .
62(4) . . .
57(4) . . .
62(5) . . .
55(4) . . .
62(4) . . .
49(4) . . .
46(4) . . .
54(4) . . .
58(4) . . .
52(4) . . .
48(4) . . .
48(4) . . .
44(4) . . .
63(4) . . .
53(4) . . .
40.9(33) . . .
49(4) . . .
57(4) . . .
55(4) . . .
54(4) . . .
57(4) . . .
70(5) . . .
61(4) . . .
56(4) . . .
54(4) . . .
58(4) . . .
53(4) . . .
51(4) . . .
49(4) . . .
56(4) . . .
57(4) . . .
52(4) . . .
53(4) . . .
62(4) . . .
48(4) . . .
51(4) . . .
58(4) . . .
56(4) . . .
53(4) . . .
48(4) . . .
56(4) . . .
65(4) . . .
53(4) . . .
57(4) . . .
62(4) . . .
59(4) . . .
62(4) . . .
61(4) . . .
58(4) . . .
59(4) . . .
57(4) . . .
50(4) . . .
47(4) . . .
68(4) . . .
58(4) . . .
55(4) . . .
56(4) . . .
53(4) . . .
58(4) . . .
59(4) . . .
60(4) . . .
56(4) . . .
54(4) . . .
62(4) . . .
63(4) . . .
52(4) . . .
53(4) . . .
46(4) . . .
54(4) . . .
60(4) . . .
64(4) . . .
50(4) . . .
54(4) . . .
57(4) . . .
51(4) . . .
57(4) . . .
61(4) . . .
55(4) . . .
47(4) . . .
61(4) . . .
59(4) . . .
62(4) . . .
51(4) . . .
46.7(35) . . .
61(5) . . .
48(4) . . .
47(4) . . .
48(4) . . .
51(4) . . .
48(4) . . .
58(4) . . .
49(4) . . .
52(4) . . .
58(4) . . .
53(4) . . .
60(5) . . .
51(4) . . .
46(4) . . .
45(4) . . .
52(4) . . .
58(4) . . .
57(4) . . .
45(4) . . .
52(4) . . .
62(4) . . .
53(4) . . .
50(4) . . .
56(4) . . .
62(4) . . .
51(4) . . .
53(4) . . .
60(4) . . .
55(4) . . .
48(4) . . .
50(4) . . .
61(4) . . .
43(4) . . .
45.1(35) . . .
58(4) . . .
63(4) . . .
63(4) . . .
43.5(34) . . .
47(4) . . .
50(4) . . .
58(4) . . .
54(4) . . .
47(4) . . .
46(4) . . .
58(4) . . .
56(4) . . .
48(4) . . .
62(4) . . .
58(4) . . .
48(4) . . .
50(4) . . .
60(4) . . .
60(4) . . .
53(4) . . .
50(4) . . .
48(4) . . .
56(4) . . .
51(4) . . .
62(4) . . .
52(4) . . .
58(4) . . .
55(4) . . .
64(4) . . .
64(4) . . .
57(4) . . .
59(4) . . .
72(5) . . .
57(4) . . .
50(4) . . .
53(4) . . .
51(4) . . .
62(4) . . .
60(4) . . .
47(4) . . .
57(4) . . .
55(4) . . .
58(4) . . .
53(4) . . .
46(4) . . .
52(4) . . .
54(4) . . .
59(4) . . .
50(4) . . .
53(4) . . .
51(4) . . .
46(4) . . .
67(4) . . .
54(4) . . .
48(4) . . .
57(4) . . .
57(4) . . .
58(4) . . .
55(4) . . .
51(4) . . .
61(4) . . .
50(4) . . .
43.2(34) . . .
61(4) . . .
51(4) . . .
51(4) . . .
48(4) . . .
64(4) . . .
54(4) . . .
50(4) . . .
57(4) . . .
49(4) . . .
59(4) . . .
54(4) . . .
49(4) . . .
56(4) . . .
60(4) . . .
55(4) . . .
57(4) . . .
58(4) . . .
64(4) . . .
58(4) . . .
59(4) . . .
60(4) . . .
54(4) . . .
54(4) . . .
46(4) . . .
54(4) . . .
46(4) . . .
51(4) . . .
53(4) . . .
54(4) . . .
60(4) . . .
60(4) . . .
57(4) . . .
47(4) . . .
45(4) . . .
52(4) . . .
49(4) . . .
53(4) . . .
64(4) . . .
47(4) . . .
49(4) . . .
49(4) . . .
49(4) . . .
45(4) . . .
59(4) . . .
52(4) . . .
63(4) . . .
45(4) . . .
60(4) . . .
59(4) . . .
58(4) . . .
51(4) . . .
68(5) . . .
65(4) . . .
58(4) . . .
50(4) . . .
47(4) . . .
53(4) . . .
52(4) . . .
60(4) . . .
53(4) . . .
55(4) . . .
55(4) . . .
57(4) . . .
57(4) . . .
57(4) . . .
59(4) . . .
49(4) . . .
55(4) . . .
52(4) . . .
54(4) . . .
46(4) . . .
50(4) . . .
52(4) . . .
48(4) . . .
58(4) . . .
54(4) . . .
58(4) . . .
49(4) . . .
52(4) . . .
55(4) . . .
55(4) . . .
65(4) . . .
58(4) . . .
57(4) . . .
49(4) . . .
54(4) . . .
59(4) . . .
45(4) . . .
57(4) . . .
52(4) . . .
62(4) . . .
62(4) . . .
58(4) . . .
48(4) . . .
61(4) . . .
59(4) . . .
57(4) . . .
50(4) . . .
58(4) . . .
58(4) . . .
52(4) . . .
53(4) . . .
58(4) . . .
60(4) . . .
52(4) . . .
54(4) . . .
53(4) . . .
60(4) . . .
52(4) . . .
63(4) . . .
61(4) . . .
54(4) . . .
58(4) . . .
55(4) . . .
56(4) . . .
53(4) . . .
57(4) . . .
53(4) . . .
49(4) . . .
48(4) . . .
58(4) . . .
47(4) . . .
55(4) . . .
52(4) . . .
51(4) . . .
55(4) . . .
52(4) . . .
53(4) . . .
49(4) . . .
61(4) . . .
62(4) . . .
60(5) . . .
54(4) . . .
51(4) . . .
54(4) . . .
43(4) . . .
56(4) . . .
61(4) . . .
65(4) . . .
59(4) . . .
49(4) . . .
53(4) . . .
57(4) . . .
58(4) . . .
61(4) . . .
49(4) . . .
58(4) . . .
50(4) . . .
45.2(35) . . .
56(4) . . .
53(4) . . .
49(4) . . .
53(4) . . .
53(4) . . .
58(4) . . .
57(4) . . .
60(4) . . .
58(4) . . .
62(4) . . .
67(5) . . .
62(4) . . .
50(4) . . .
50(4) . . .
66(4) . . .
58(4) . . .
69(4) . . .
56(4) . . .
59(4) . . .
63(4) . . .
59(4) . . .
52(4) . . .
54(4) . . .
60(4) . . .
43(4) . . .
52(4) . . .
58(4) . . .
50(4) . . .
56(4) . . .
48(4) . . .
50(4) . . .
47(4) . . .
52(4) . . .
46.8(35) . . .
47(4) . . .
53(4) . . .
58(4) . . .
56(4) . . .
55(4) . . .
47(4) . . .
41.5(33) . . .
55(4) . . .
49(4) . . .
50(4) . . .
49(4) . . .
40.4(33) . . .
53(4) . . .
66(4) . . .
53(4) . . .
54(4) . . .
57(4) . . .
49(4) . . .
55(4) . . .
54(4) . . .
51(4) . . .
53(4) . . .
48(4) . . .
66(4) . . .
50(4) . . .
50(4) . . .
56(4) . . .
53(4) . . .
54(4) . . .
56(4) . . .
55(4) . . .
48(4) . . .
58(4) . . .
48(4) . . .
57(4) . . .
55(4) . . .
47(4) . . .
43.8(34) . . .
53(4) . . .
66(4) . . .
62(5) . . .
55(4) . . .
52(4) . . .
57(4) . . .
54(4) . . .
60(4) . . .
53(4) . . .
57(4) . . .
54(4) . . .
57(4) . . .
60(4) . . .
63(4) . . .
59(4) . . .
63(4) . . .
52(4) . . .
53(4) . . .
55(4) . . .
58(4) . . .
53(4) . . .
50(4) . . .
54(4) . . .
50(4) . . .
57(4) . . .
52(4) . . .
59(4) . . .
53(4) . . .
59(4) . . .
55(4) . . .
56(4) . . .
62(4) . . .
56(4) . . .
67(4) . . .
57(4) . . .
43.2(34) . . .
48(4) . . .
60(4) . . .
51(4) . . .
54(4) . . .
50(4) . . .
51(4) . . .
49(4) . . .
62(4) . . .
57(4) . . .
50(4) . . .
59(4) . . .
51(4) . . .
57(4) . . .
58(4) . . .
51(4) . . .
48(4) . . .
46(4) . . .
48(4) . . .
65(4) . . .
55(4) . . .
61(4) . . .
61(4) . . .
55(4) . . .
60(4) . . .
57(4) . . .
54(4) . . .
50(4) . . .
44.8(35) . . .
57(4) . . .
56(4) . . .
56(4) . . .
52(4) . . .
44.9(35) . . .
57(4) . . .
56(4) . . .
58(4) . . .
57(4) . . .
57(4) . . .
54(4) . . .
52(4) . . .
54(4) . . .
54(4) . . .
53(4) . . .
45.2(35) . . .
53(4) . . .
51(4) . . .
74(5) . . .
53(4) . . .
60(4) . . .
63(4) . . .
55(4) . . .
51(4) . . .
59(4) . . .
51(4) . . .
45(4) . . .
53(4) . . .
58(4) . . .
58(4) . . .
52(4) . . .
53(4) . . .
58(4) . . .
58(4) . . .
62(4) . . .
60(4) . . .
56(4) . . .
47(4) . . .
54(4) . . .
56(4) . . .
53(4) . . .
54(4) . . .
68(5) . . .
52(4) . . .
51(4) . . .
46(4) . . .
58(4) . . .
55(4) . . .
50(4) . . .
52(4) . . .
53(4) . . .
59(4) . . .
65(4) . . .
55(4) . . .
57(4) . . .
51(4) . . .
49(4) . . .
51(4) . . .
53(4) . . .
59(4) . . .
57(4) . . .
52(4) . . .
60(4) . . .
44.3(34) . . .
46(4) . . .
57(4) . . .
54(4) . . .
53(4) . . .
49(4) . . .
48(4) . . .
45(4) . . .
65(4) . . .
52(4) . . .
56(4) . . .
54(4) . . .
69(5) . . .
72(5) . . .
58(4) . . .
58(4) . . .
53(4) . . .
53(4) . . .
47(4) . . .
52(4) . . .
60(4) . . .
50(4) . . .
40.3(33) . . .
52(4) . . .
49(4) . . .
55(4) . . .
50(4) . . .
51(4) . . .
52(4) . . .
55(4) . . .
41.2(33) . . .
51(4) . . .
51(4) . . .
60(4) . . .
67(4) . . .
46(4) . . .
49(4) . . .
55(4) . . .
59(4) . . .
50(4) . . .
56(4) . . .
52(4) . . .
62(4) . . .
56(4) . . .
59(4) . . .
48(4) . . .
55(4) . . .
59(4) . . .
53(4) . . .
65(4) . . .
53(4) . . .
73(5) . . .
48(4) . . .
53(4) . . .
68(4) . . .
58(4) . . .
63(4) . . .
56(4) . . .
54(4) . . .
55(4) . . .
57(4) . . .
57(4) . . .
46(4) . . .
47(4) . . .
56(4) . . .
51(4) . . .
40.4(35) . . .
49(4) . . .
49(4) . . .
57(4) . . .
52(4) . . .
56(4) . . .
58(4) . . .
56(4) . . .
53(4) . . .
59(4) . . .
65(5) . . .
53(4) . . .
62(4) . . .
57(4) . . .
53(4) . . .
52(4) . . .
46(4) . . .
59(4) . . .
54(4) . . .
47(4) . . .
56(4) . . .
62(4) . . .
47(4) . . .
43.7(35) . . .
58(4) . . .
53(4) . . .
48(4) . . .
51(4) . . .
50(4) . . .
57(4) . . .
57(4) . . .
56(4) . . .
59(4) . . .
54(4) . . .
66(4) . . .
61(4) . . .
54(4) . . .
69(4) . . .
56(4) . . .
53(4) . . .
55(4) . . .
59(4) . . .
56(4) . . .
57(4) . . .
61(4) . . .
57(4) . . .
53(4) . . .
50(4) . . .
45(4) . . .
44(4) . . .
52(4) . . .
59(4) . . .
49(4) . . .
52(4) . . .
54(4) . . .
56(4) . . .
49(4) . . .
48(4) . . .
48(4) . . .
52(4) . . .
58(4) . . .
68(4) . . .
58(4) . . .
48(4) . . .
49(4) . . .
51(4) . . .
52(4) . . .
53(4) . . .
60(4) . . .
50(4) . . .
60(4) . . .
51(4) . . .
56(4) . . .
51(4) . . .
70(5) . . .
56(4) . . .
46(4) . . .
56(4) . . .
54(4) . . .
58(4) . . .
59(4) . . .
57(4) . . .
60(4) . . .
67(4) . . .
59(4) . . .
48(4) . . .
52(4) . . .
51(4) . . .
61(4) . . .
48(4) . . .
53(4) . . .
57(4) . . .
56(4) . . .
52(4) . . .
59(4) . . .
53(4) . . .
55(4) . . .
48(4) . . .
60(4) . . .
59(4) . . .
52(4) . . .
44.4(35) . . .
51(4) . . .
55(4) . . .
55(4) . . .
56(4) . . .
43.5(35) . . .
66(4) . . .
56(4) . . .
44(4) . . .
57(4) . . .
44.5(34) . . .
50(4) . . .
55(4) . . .
51(4) . . .
42.9(34) . . .
44.1(34) . . .
62(4) . . .
59(4) . . .
52(4) . . .
45.6(35) . . .
53(4) . . .
53(4) . . .
55(4) . . .
52(4) . . .
59(4) . . .
56(4) . . .
59(4) . . .
50(4) . . .
54(4) . . .
60(4) . . .
57(4) . . .
54(4) . . .
57(4) . . .
51(4) . . .
51(4) . . .
53(4) . . .
50(4) . . .
56(4) . . .
47(4) . . .
51(4) . . .
58(4) . . .
43(4) . . .
53(4) . . .
60(4) . . .
57(4) . . .
62(4) . . .
67(5) . . .
56(4) . . .
43(4) . . .
55(4) . . .
61(4) . . .
60(4) . . .
48(4) . . .
57(4) . . .
54(4) . . .
52(4) . . .
58(4) . . .
55(4) . . .
52(4) . . .
57(4) . . .
51(4) . . .
45(4) . . .
45(4) . . .
59(4) . . .
61(4) . . .
54(4) . . .
58(4) . . .
65(4) . . .
55(4) . . .
47(4) . . .
54(4) . . .
50(4) . . .
59(4) . . .
53(4) . . .
63(4) . . .
58(4) . . .
52(4) . . .
58(4) . . .
65(4) . . .
62(4) . . .
55(4) . . .
55(4) . . .
46(4) . . .
40.9(33) . . .
52(4) . . .
62(4) . . .
50(4) . . .
50(4) . . .
49(4) . . .
63(4) . . .
56(4) . . .
65(4) . . .
57(4) . . .
57(4) . . .
54(4) . . .
54(4) . . .
57(4) . . .
50(4) . . .
61(4) . . .
54(4) . . .
51(4) . . .
54(4) . . .
59(4) . . .
57(4) . . .
53(4) . . .
56(4) . . .
51(4) . . .
51(4) . . .
49(4) . . .
53(4) . . .
49(4) . . .
65(4) . . .
50(4) . . .
58(4) . . .
47(4) . . .
46(4) . . .
56(4) . . .
56(4) . . .
52(4) . . .
48(4) . . .
56(4) . . .
42.9(34) . . .
64(4) . . .
64(4) . . .
51(4) . . .
52(4) . . .
44.7(35) . . .
50(4) . . .
51(4) . . .
51(4) . . .
48(4) . . .
47(4) . . .
48(4) . . .
52(4) . . .
51(4) . . .
52(4) . . .
46.0(35) . . .
50(4) . . .
46(4) . . .
50(4) . . .
53(4) . . .
41.7(35) . . .
52(4) . . .
50(4) . . .
55(4) . . .
60(4) . . .
48(4) . . .
60(4) . . .
55(4) . . .
51(4) . . .
59(4) . . .
58(4) . . .
49(4) . . .
50(4) . . .
48(4) . . .
53(4) . . .
55(4) . . .
67(4) . . .
57(4) . . .
55(4) . . .
50(4) . . .
53(4) . . .
59(4) . . .
48(4) . . .
57(4) . . .
61(4) . . .
52(4) . . .
51(4) . . .
51(4) . . .
64(5) . . .
55(4) . . .
52(4) . . .
63(4) . . .
63(4) . . .
46(4) . . .
52(4) . . .
58(4) . . .
50(4) . . .
47(4) . . .
47(4) . . .
53(4) . . .
64(4) . . .
61(4) . . .
56(4) . . .
56(4) . . .
52(4) . . .
58(4) . . .
60(4) . . .
58(4) . . .
47(4) . . .
53(4) . . .
55(4) . . .
60(4) . . .
57(4) . . .
49(4) . . .
57(4) . . .
48(4) . . .
47(4) . . .
48(4) . . .
58(4) . . .
48(4) . . .
55(4) . . .
55(4) . . .
64(4) . . .
54(4) . . .
54(4) . . .
47(4) . . .
49(4) . . .
51(4) . . .
54(4) . . .
53(4) . . .
55(4) . . .
51(4) . . .
51(4) . . .
53(4) . . .
55(4) . . .
54(4) . . .
48(4) . . .
52(4) . . .
49(4) . . .
57(4) . . .
62(4) . . .
54(4) . . .
49(4) . . .
48(4) . . .
60(4) . . .
52(4) . . .
58(4) . . .
54(4) . . .
56(4) . . .
54(4) . . .
41.6(34) . . .
52(4) . . .
44(4) . . .
51(4) . . .
59(4) . . .
57(4) . . .
58(4) . . .
55(4) . . .
49(4) . . .
51(4) . . .
56(4) . . .
55(4) . . .
55(4) . . .
51(4) . . .
50(4) . . .
61(4) . . .
61(4) . . .
55(4) . . .
59(4) . . .
70(4) . . .
56(4) . . .
51(4) . . .
47(4) . . .
46(4) . . .
47(4) . . .
55(4) . . .
48(4) . . .
62(4) . . .
55(4) . . .
54(4) . . .
51(4) . . .
57(4) . . .
54(4) . . .
43(4) . . .
55(4) . . .
59(4) . . .
57(4) . . .
50(4) . . .
56(4) . . .
50(4) . . .
49(4) . . .
58(4) . . .
54(4) . . .
62(4) . . .
63(4) . . .
53(4) . . .
51(4) . . .
55(4) . . .
54(4) . . .
51(4) . . .
55(4) . . .
48(4) . . .
47(4) . . .
41.6(33) . . .
48(4) . . .
50(4) . . .
46(4) . . .
51(4) . . .
47(4) . . .
47(4) . . .
55(4) . . .
55(4) . . .
65(4) . . .
59(4) . . .
55(4) . . .
48(4) . . .
44(4) . . .
56(4) . . .
49(4) . . .
43.7(34) . . .
51(4) . . .
51(4) . . .
50(4) . . .
52(4) . . .
53(4) . . .
47(4) . . .
44.5(35) . . .
57(4) . . .
58(4) . . .
56(4) . . .
53(4) . . .
51(4) . . .
52(4) . . .
49(4) . . .
52(4) . . .
46(4) . . .
58(4) . . .
60(4) . . .
61(4) . . .
57(4) . . .
54(4) . . .
57(4) . . .
50(4) . . .
57(4) . . .
46(4) . . .
51(4) . . .
44(4) . . .
58(4) . . .
50(4) . . .
52(4) . . .
58(4) . . .
54(4) . . .
51(4) . . .
52(4) . . .
47(4) . . .
56(4) . . .
51(4) . . .
62(4) . . .
60(4) . . .
61(4) . . .
49(4) . . .
49(4) . . .
52(4) . . .
50(4) . . .
41.7(35) . . .
49(4) . . .
49(4) . . .
52(4) . . .
59(4) . . .
63(4) . . .
62(4) . . .
55(4) . . .
62(4) . . .
53(4) . . .
50(4) . . .
36.4(31) . . .
51(4) . . .
57(4) . . .
52(4) . . .
55(4) . . .
49(4) . . .
62(4) . . .
46.1(35) . . .
54(4) . . .
42.0(34) . . .
61(4) . . .
54(4) . . .
54(4) . . .
59(4) . . .
54(4) . . .
56(4) . . .
51(4) . . .
59(4) . . .
52(4) . . .
53(4) . . .
55(4) . . .
54(4) . . .
52(4) . . .
50(4) . . .
55(4) . . .
49(4) . . .
57(4) . . .
60(4) . . .
54(4) . . .
55(4) . . .
50(4) . . .
56(4) . . .
50(4) . . .
57(4) . . .
63(4) . . .
57(4) . . .
59(4) . . .
48(4) . . .
51(4) . . .
54(4) . . .
43.3(35) . . .
55(4) . . .
42.6(34) . . .
50(4) . . .
52(4) . . .
50(4) . . .
55(4) . . .
60(4) . . .
53(4) . . .
62(4) . . .
59(4) . . .
59(4) . . .
56(4) . . .
57(4) . . .
53(4) . . .
60(4) . . .
49(4) . . .
54(4) . . .
42(4) . . .
40.9(34) . . .
48(4) . . .
57(4) . . .
56(4) . . .
48(4) . . .
46(4) . . .
48(4) . . .
54(4) . . .
46(4) . . .
47(4) . . .
52(4) . . .
57(4) . . .
57(4) . . .
54(4) . . .
48(4) . . .
45(4) . . .
50(4) . . .
50(4) . . .
47(4) . . .
54(4) . . .
65(4) . . .
56(4) . . .
48(4) . . .
53(4) . . .
52(4) . . .
51(4) . . .
54(4) . . .
50(4) . . .
50(4) . . .
58(4) . . .
53(4) . . .
60(4) . . .
51(4) . . .
60(4) . . .
58(4) . . .
53(4) . . .
59(4) . . .
57(4) . . .
49(4) . . .
51(4) . . .
51(4) . . .
58(4) . . .
53(4) . . .
56(4) . . .
48(4) . . .
46(4) . . .
62(4) . . .
59(4) . . .
57(4) . . .
55(4) . . .
65(4) . . .
48(4) . . .
47(4) . . .
58(4) . . .
48(4) . . .
54(4) . . .
62(4) . . .
50(4) . . .
55(4) . . .
64(4) . . .
55(4) . . .
57(4) . . .
52(4) . . .
57(4) . . .
59(4) . . .
47(4) . . .
62(4) . . .
61(4) . . .
65(4) . . .
46(4) . . .
40.4(33) . . .
51(4) . . .
52(4) . . .
63(4) . . .
41.7(34) . . .
50(4) . . .
58(4) . . .
56(4) . . .
60(4) . . .
61(4) . . .
53(4) . . .
54(4) . . .
54(4) . . .
49(4) . . .
43.9(35) . . .
57(4) . . .
55(4) . . .
56(4) . . .
53(4) . . .
58(4) . . .
56(4) . . .
48(4) . . .
50(4) . . .
57(4) . . .
54(4) . . .
47(4) . . .
54(4) . . .
63(4) . . .
57(4) . . .
62(4) . . .
62(4) . . .
56(4) . . .
60(4) . . .
51(4) . . .
43.3(34) . . .
51(4) . . .
59(4) . . .
52(4) . . .
50(4) . . .
53(4) . . .
51(4) . . .
50(4) . . .
56(4) . . .
57(4) . . .
55(4) . . .
52(4) . . .
67(5) . . .
47(4) . . .
45(4) . . .
53(4) . . .
45.9(35) . . .
49(4) . . .
48(4) . . .
50(4) . . .
54(4) . . .
59(4) . . .
59(4) . . .
50(4) . . .
47(4) . . .
57(4) . . .
51(4) . . .
58(4) . . .
59(4) . . .
54(4) . . .
49(4) . . .
51(4) . . .
59(4) . . .
57(4) . . .
52(4) . . .
51(4) . . .
60(4) . . .
48(4) . . .
46(4) . . .
48(4) . . .
59(4) . . .
49(4) . . .
52(4) . . .
56(4) . . .
55(4) . . .
59(4) . . .
65(4) . . .
66(5) . . .
53(4) . . .
56(4) . . .
50(4) . . .
48(4) . . .
51(4) . . .
53(4) . . .
57(4) . . .
42(4) . . .
43(4) . . .
48(4) . . .
50(4) . . .
42.7(33) . . .
57(4) . . .
55(4) . . .
54(4) . . .
56(4) . . .
45(4) . . .
49(4) . . .
46(4) . . .
62(4) . . .
45.2(35) . . .
54(4) . . .
54(4) . . .
57(4) . . .
52(4) . . .
54(4) . . .
56(4) . . .
54(4) . . .
55(4) . . .
47(4) . . .
45.0(35) . . .
59(4) . . .
63(4) . . .
57(4) . . .
56(4) . . .
62(4) . . .
54(4) . . .
59(4) . . .
60(5) . . .
53(4) . . .
60(4) . . .
53(4) . . .
53(4) . . .
56(4) . . .
50(4) . . .
46(4) . . .
50(4) . . .
44(4) . . .
49(4) . . .
47(4) . . .
51(4) . . .
59(4) . . .
64(4) . . .
46(4) . . .
50(4) . . .
50(4) . . .
54(4) . . .
60(4) . . .
58(4) . . .
49(4) . . .
59(4) . . .
52(4) . . .
54(4) . . .
57(4) . . .
53(4) . . .
48(4) . . .
56(4) . . .
52(4) . . .
48(4) . . .
59(4) . . .
64(4) . . .
46(4) . . .
58(4) . . .
53(4) . . .
55(4) . . .
61(4) . . .
55(4) . . .
56(4) . . .
47(4) . . .
48(4) . . .
41.5(34) . . .
40.7(34) . . .
44(4) . . .
58(4) . . .
51(4) . . .
48(4) . . .
57(4) . . .
52(4) . . .
46(4) . . .
47(4) . . .
47(4) . . .
56(4) . . .
54(4) . . .
60(4) . . .
65(4) . . .
49(4) . . .
39.8(34) . . .
60(4) . . .
47(4) . . .
63(4) . . .
45.6(34) . . .
56(4) . . .
55(4) . . .
54(4) . . .
69(4) . . .
53(4) . . .
60(4) . . .
60(4) . . .
65(4) . . .
52(4) . . .
41.3(34) . . .
54(4) . . .
53(4) . . .
52(4) . . .
54(4) . . .
51(4) . . .
54(4) . . .
58(4) . . .
54(4) . . .
45(4) . . .
54(4) . . .
51(4) . . .
47(4) . . .
44(4) . . .
60(4) . . .
59(4) . . .
57(4) . . .
53(4) . . .
46(4) . . .
51(4) . . .
50(4) . . .
58(4) . . .
48(4) . . .
49(4) . . .
46(4) . . .
60(4) . . .
59(4) . . .
57(4) . . .
56(4) . . .
57(4) . . .
57(4) . . .
49(4) . . .
46(4) . . .
61(4) . . .
52(4) . . .
55(4) . . .
49(4) . . .
54(4) . . .
53(4) . . .
60(4) . . .
55(4) . . .
59(4) . . .
52(4) . . .
56(4) . . .
58(4) . . .
43.2(33) . . .
56(4) . . .
52(4) . . .
61(4) . . .
57(4) . . .
50(4) . . .
51(4) . . .
57(4) . . .
47(4) . . .
65(4) . . .
68(5) . . .
52(4) . . .
57(4) . . .
59(4) . . .
63(4) . . .
51(4) . . .
52(4) . . .
52(4) . . .
48(4) . . .
56(4) . . .
62(4) . . .
58(4) . . .
51(4) . . .
54(4) . . .
42(4) . . .
53(4) . . .
51(4) . . .
59(4) . . .
56(4) . . .
54(4) . . .
53(4) . . .
53(4) . . .
62(4) . . .
57(4) . . .
54(4) . . .
49(4) . . .
55(4) . . .
50(4) . . .
52(4) . . .
53(4) . . .
53(4) . . .
52(4) . . .
41.4(33) . . .
57(4) . . .
55(4) . . .
50(4) . . .
51(4) . . .
55(4) . . .
72(4) . . .
48(4) . . .
55(4) . . .
49(4) . . .
53(4) . . .
62(4) . . .
46(4) . . .
47(4) . . .
39.8(34) . . .
49(4) . . .
49(4) . . .
45.2(35) . . .
45(4) . . .
52(4) . . .
53(4) . . .
54(4) . . .
50(4) . . .
46(4) . . .
55(4) . . .
50(4) . . .
54(4) . . .
64(5) . . .
56(4) . . .
53(4) . . .
54(4) . . .
45.3(35) . . .
45(4) . . .
60(4) . . .
52(4) . . .
54(4) . . .
53(4) . . .
56(4) . . .
48(4) . . .
56(4) . . .
49(4) . . .
50(4) . . .
56(4) . . .
53(4) . . .
52(4) . . .
50(4) . . .
51(4) . . .
58(4) . . .
55(4) . . .
49(4) . . .
37.2(32) . . .
51(4) . . .
53(4) . . .
62(4) . . .
55(4) . . .
50(4) . . .
48(4) . . .
57(4) . . .
49(4) . . .
51(4) . . .
49(4) . . .
56(4) . . .
43.9(35) . . .
51(4) . . .
64(4) . . .
59(4) . . .
50(4) . . .
50(4) . . .
53(4) . . .
62(4) . . .
54(4) . . .
54(4) . . .
47(4) . . .
47(4) . . .
44.4(34) . . .
49(4) . . .
47(4) . . .
54(4) . . .
63(4) . . .
65(4) . . .
60(4) . . .
52(4) . . .
49(4) . . .
55(4) . . .
51(4) . . .
54(4) . . .
55(4) . . .
56(4) . . .
56(4) . . .
54(4) . . .
56(4) . . .
52(4) . . .
49(4) . . .
50(4) . . .
46(4) . . .
52(4) . . .
44(4) . . .
52(4) . . .
41.4(34) . . .
57(4) . . .
41.6(34) . . .
45(4) . . .
57(4) . . .
54(4) . . .
56(4) . . .
57(4) . . .
50(4) . . .
49(4) . . .
47(4) . . .
47(4) . . .
54(4) . . .
46(4) . . .
48(4) . . .
49(4) . . .
45(4) . . .
61(5) . . .
59(4) . . .
54(4) . . .
56(4) . . .
51(4) . . .
52(4) . . .
51(4) . . .
58(4) . . .
52(4) . . .
61(4) . . .
56(4) . . .
64(4) . . .
75(5) . . .
59(4) . . .
55(4) . . .
55(4) . . .
44(4) . . .
56(4) . . .
65(4) . . .
51(4) . . .
48(4) . . .
52(4) . . .
59(4) . . .
58(4) . . .
53(4) . . .
54(4) . . .
55(4) . . .
53(4) . . .
43.5(34) . . .
47(4) . . .
60(4) . . .
49(4) . . .
57(4) . . .
48(4) . . .
57(4) . . .
47(4) . . .
44(4) . . .
54(4) . . .
51(4) . . .
57(4) . . .
56(4) . . .
58(4) . . .
60(4) . . .
49(4) . . .
52(4) . . .
56(4) . . .
52(4) . . .
44.4(34) . . .
49(4) . . .
48(4) . . .
55(4) . . .
56(4) . . .
48(4) . . .
47(4) . . .
56(4) . . .
43(4) . . .
59(4) . . .
51(4) . . .
48(4) . . .
44.0(34) . . .
54(4) . . .
53(4) . . .
49(4) . . .
56(4) . . .
58(4) . . .
50(4) . . .
55(4) . . .
53(4) . . .
49(4) . . .
58(4) . . .
47(4) . . .
43.5(35) . . .
48(4) . . .
65(4) . . .
55(4) . . .
47(4) . . .
49(4) . . .
44.5(35) . . .
52(4) . . .
66(5) . . .
51(4) . . .
55(4) . . .
56(4) . . .
53(4) . . .
50(4) . . .
50(4) . . .
61(4) . . .
55(4) . . .
44.2(34) . . .
57(4) . . .
55(4) . . .
45.7(35) . . .
58(4) . . .
56(4) . . .
58(4) . . .
49(4) . . .
58(4) . . .
57(4) . . .
46(4) . . .
51(4) . . .
53(4) . . .
49(4) . . .
63(4) . . .
55(4) . . .
50(4) . . .
55(4) . . .
54(4) . . .
55(4) . . .
56(4) . . .
51(4) . . .
57(4) . . .
50(4) . . .
55(4) . . .
48(4) . . .
64(5) . . .
57(4) . . .
47(4) . . .
53(4) . . .
57(4) . . .
47(4) . . .
52(4) . . .
62(4) . . .
52(4) . . .
56(4) . . .
58(4) . . .
50(4) . . .
45(4) . . .
49(4) . . .
54(4) . . .
54(4) . . .
54(4) . . .
39.3(33) . . .
49(4) . . .
43(4) . . .
45(4) . . .
55(4) . . .
60(4) . . .
48(4) . . .
44(4) . . .
48(4) . . .
51(4) . . .
52(4) . . .
58(4) . . .
60(4) . . .
53(4) . . .
55(4) . . .
54(4) . . .
57(4) . . .
53(4) . . .
59(4) . . .
41.3(33) . . .
50(4) . . .
57(4) . . .
48(4) . . .
62(4) . . .
52(4) . . .
54(4) . . .
57(4) . . .
58(4) . . .
46(4) . . .
56(4) . . .
56(4) . . .
51(4) . . .
53(4) . . .
61(4) . . .
55(4) . . .
52(4) . . .
41.1(33) . . .
54(4) . . .
51(4) . . .
55(4) . . .
53(4) . . .
58(4) . . .
50(4) . . .
57(4) . . .
58(4) . . .
52(4) . . .
60(4) . . .
56(4) . . .
51(4) . . .
50(4) . . .
57(4) . . .
47(4) . . .
51(4) . . .
52(4) . . .
51(4) . . .
50(4) . . .
58(4) . . .
55(4) . . .
45(4) . . .
63(4) . . .
63(4) . . .
57(4) . . .
51(4) . . .
48(4) . . .
55(4) . . .
56(4) . . .
59(4) . . .
55(4) . . .
58(4) . . .
45(4) . . .
49(4) . . .
44.7(35) . . .
48(4) . . .
55(4) . . .
47(4) . . .
54(4) . . .
48(4) . . .
49(4) . . .
57(4) . . .
56(4) . . .
47(4) . . .
43.3(35) . . .
47(4) . . .
57(4) . . .
60(4) . . .
49(4) . . .
53(4) . . .
41.7(34) . . .
54(4) . . .
44(4) . . .
56(4) . . .
56(4) . . .
51(4) . . .
54(4) . . .
57(4) . . .
51(4) . . .
60(4) . . .
53(4) . . .
37.3(31) . . .
42.1(35) . . .
52(4) . . .
45(4) . . .
59(4) . . .
49(4) . . .
50(4) . . .
53(4) . . .
44.3(34) . . .
53(4) . . .
49(4) . . .
52(4) . . .
58(4) . . .
50(4) . . .
53(4) . . .
54(4) . . .
51(4) . . .
51(4) . . .
56(4) . . .
58(4) . . .
52(4) . . .
52(4) . . .
48(4) . . .
57(4) . . .
60(4) . . .
51(4) . . .
49(4) . . .
57(4) . . .
50(4) . . .
67(4) . . .
49(4) . . .
51(4) . . .
51(4) . . .
48(4) . . .
53(4) . . .
51(4) . . .
51(4) . . .
45(4) . . .
56(4) . . .
47(4) . . .
57(4) . . .
59(4) . . .
50(4) . . .
57(4) . . .
53(4) . . .
59(4) . . .
54(4) . . .
54(4) . . .
57(4) . . .
55(4) . . .
56(4) . . .
46(4) . . .
58(4) . . .
59(4) . . .
48(4) . . .
53(4) . . .
46(4) . . .
52(4) . . .
49(4) . . .
50(4) . . .
41.7(34) . . .
60(4) . . .
47(4) . . .
46(4) . . .
46(4) . . .
58(4) . . .
56(4) . . .
40.7(34) . . .
53(4) . . .
55(4) . . .
54(4) . . .
51(4) . . .
54(4) . . .
49(4) . . .
55(4) . . .
54(4) . . .
43(4) . . .
52(4) . . .
53(4) . . .
41(4) . . .
43(4) . . .
46(4) . . .
52(4) . . .
62(4) . . .
52(4) . . .
62(4) . . .
50(4) . . .
57(4) . . .
51(4) . . .
55(4) . . .
49(4) . . .
59(4) . . .
41.2(33) . . .
52(4) . . .
56(4) . . .
49(4) . . .
53(4) . . .
51(4) . . .
46(4) . . .
44(4) . . .
40(4) . . .
41.4(34) . . .
47(4) . . .
55(4) . . .
64(4) . . .
49(4) . . .
47(4) . . .
58(4) . . .
47.1(35) . . .
48(4) . . .
46(4) . . .
47(4) . . .
51(4) . . .
51(4) . . .
49(4) . . .
45(4) . . .
53(4) . . .
57(4) . . .
56(4) . . .
55(4) . . .
56(4) . . .
39.3(34) . . .
46(4) . . .
55(4) . . .
45(4) . . .
57(4) . . .
43.5(35) . . .
47(4) . . .
54(4) . . .
58(4) . . .
48(4) . . .
41.2(34) . . .
47(4) . . .
58(4) . . .
56(4) . . .
55(4) . . .
51(4) . . .
52(4) . . .
53(4) . . .
47(4) . . .
49(4) . . .
62(4) . . .
52(4) . . .
49(4) . . .
56(4) . . .
50(4) . . .
48(4) . . .
49(4) . . .
52(4) . . .
53(4) . . .
49(4) . . .
58(4) . . .
54(4) . . .
55(4) . . .
49(4) . . .
45(4) . . .
53(4) . . .
48(4) . . .
57(4) . . .
56(4) . . .
43.9(35) . . .
58(4) . . .
58(4) . . .
53(4) . . .
52(4) . . .
60(4) . . .
58(4) . . .
62(4) . . .
62(4) . . .
64(4) . . .
52(4) . . .
44.2(35) . . .
58(4) . . .
56(4) . . .
55(4) . . .
47(4) . . .
48(4) . . .
53(4) . . .
47(4) . . .
60(4) . . .
46(4) . . .
62(4) . . .
56(4) . . .
43.2(35) . . .
52(4) . . .
49(4) . . .
54(4) . . .
51(4) . . .
50(4) . . .
55(4) . . .
55(4) . . .
55(4) . . .
49(4) . . .
37.5(34) . . .
52(4) . . .
63(4) . . .
56(4) . . .
55(4) . . .
57(4) . . .
50(4) . . .
52(4) . . .
62(4) . . .
55(4) . . .
62(5) . . .
56(4) . . .
52(4) . . .
48(4) . . .
53(4) . . .
44(4) . . .
57(4) . . .
58(4) . . .
54(4) . . .
52(4) . . .
54(4) . . .
53(4) . . .
46(4) . . .
63(4) . . .
54(4) . . .
44(4) . . .
47(4) . . .
50(4) . . .
48(4) . . .
55(4) . . .
42(4) . . .
49(4) . . .
49(4) . . .
55(4) . . .
53(4) . . .
47(4) . . .
58(4) . . .
43.6(35) . . .
42.3(34) . . .
55(4) . . .
55(4) . . .
47(4) . . .
53(4) . . .
50(4) . . .
59(4) . . .
49(4) . . .
53(4) . . .
57(4) . . .
62(4) . . .
64(4) . . .
48(4) . . .
48(4) . . .
57(4) . . .
57(4) . . .
55(4) . . .
59(4) . . .
53(4) . . .
56(4) . . .
51(4) . . .
50(4) . . .
48(4) . . .
43.1(34) . . .
56(4) . . .
53(4) . . .
47(4) . . .
50(4) . . .
51(4) . . .
59(4) . . .
57(4) . . .
51(4) . . .
49(4) . . .
54(4) . . .
50(4) . . .
52(4) . . .
58(4) . . .
55(4) . . .
47(4) . . .
46(4) . . .
45(4) . . .
54(4) . . .
58(4) . . .
50(4) . . .
55(4) . . .
46(4) . . .
48(4) . . .
50(4) . . .
48(4) . . .
55(4) . . .
56(4) . . .
50(4) . . .
57(4) . . .
48(4) . . .
63(4) . . .
49(4) . . .
49(4) . . .
51(4) . . .
51(4) . . .
53(4) . . .
51(4) . . .
50(4) . . .
45.0(35) . . .
52(4) . . .
51(4) . . .
50(4) . . .
62(4) . . .
46(4) . . .
54(4) . . .
51(4) . . .
46(4) . . .
49(4) . . .
56(4) . . .
56(4) . . .
50(4) . . .
46(4) . . .
50(4) . . .
44.8(35) . . .
46(4) . . .
56(4) . . .
53(4) . . .
54(4) . . .
52(4) . . .
59(4) . . .
61(4) . . .
49(4) . . .
50(4) . . .
53(4) . . .
56(4) . . .
53(4) . . .
56(4) . . .
44.8(35) . . .
58(4) . . .
54(4) . . .
53(4) . . .
45(4) . . .
46(4) . . .
53(4) . . .
51(4) . . .
54(4) . . .
61(4) . . .
63(4) . . .
56(4) . . .
49(4) . . .
56(4) . . .
55(4) . . .
46(4) . . .
62(4) . . .
55(4) . . .
57(4) . . .
48(4) . . .
59(4) . . .
45.0(35) . . .
54(4) . . .
50(4) . . .
42.0(35) . . .
49(4) . . .
51(4) . . .
51(4) . . .
55(4) . . .
58(4) . . .
41.6(33) . . .
47(4) . . .
41.6(33) . . .
48(4) . . .
38.4(32) . . .
49(4) . . .
57(4) . . .
60(4) . . .
49(4) . . .
35.6(32) . . .
54(4) . . .
49(4) . . .
52(4) . . .
49(4) . . .
42.9(35) . . .
51(4) . . .
50(4) . . .
54(4) . . .
54(4) . . .
52(4) . . .
60(4) . . .
53(4) . . .
56(4) . . .
46(4) . . .
50(4) . . .
49(4) . . .
53(4) . . .
51(4) . . .
45(4) . . .
46(4) . . .
61(4) . . .
52(4) . . .
56(4) . . .
53(4) . . .
48(4) . . .
54(4) . . .
42.1(35) . . .
51(4) . . .
46.2(35) . . .
45.0(35) . . .
42.9(34) . . .
57(4) . . .
64(4) . . .
52(4) . . .
60(4) . . .
55(4) . . .
55(4) . . .
56(4) . . .
52(4) . . .
51(4) . . .
46(4) . . .
47(4) . . .
50(4) . . .
59(4) . . .
45.7(35) . . .
55(4) . . .
60(4) . . .
56(4) . . .
51(4) . . .
51(4) . . .
39.6(33) . . .
41.3(34) . . .
41.6(35) . . .
49(4) . . .
58(4) . . .
51(4) . . .
48(4) . . .
56(4) . . .
54(4) . . .
55(4) . . .
50(4) . . .
50(4) . . .
43(4) . . .
54(4) . . .
48(4) . . .
50(4) . . .
51(4) . . .
48(4) . . .
47(4) . . .
54(4) . . .
56(4) . . .
59(4) . . .
49(4) . . .
54(4) . . .
57(4) . . .
62(4) . . .
49(4) . . .
54(4) . . .
55(4) . . .
53(4) . . .
54(4) . . .
55(4) . . .
42.8(33) . . .
49(4) . . .
49(4) . . .
52(4) . . .
44(4) . . .
47(4) . . .
50(4) . . .
51(4) . . .
54(4) . . .
48(4) . . .
50(4) . . .
47(4) . . .
41.1(33) . . .
49(4) . . .
40.0(35) . . .
47(4) . . .
59(4) . . .
50(4) . . .
53(4) . . .
47(4) . . .
47(4) . . .
49(4) . . .
57(4) . . .
42.4(33) . . .
44(4) . . .
50(4) . . .
52(4) . . .
55(4) . . .
60(4) . . .
41.5(33) . . .
49(4) . . .
53(4) . . .
57(4) . . .
63(4) . . .
50(4) . . .
55(4) . . .
45.9(35) . . .
47(4) . . .
51(4) . . .
43(4) . . .
43(4) . . .
47(4) . . .
45(4) . . .
49(4) . . .
47(4) . . .
52(4) . . .
40.5(33) . . .
58(4) . . .
61(4) . . .
49(4) . . .
54(4) . . .
52(4) . . .
49(4) . . .
42(4) . . .
50(4) . . .
55(4) . . .
51(4) . . .
45.6(35) . . .
57(4) . . .
47(4) . . .
53(4) . . .
50(4) . . .
58(4) . . .
47(4) . . .
45(4) . . .
44.1(34) . . .
43.3(34) . . .
42(4) . . .
46(4) . . .
44(4) . . .
49(4) . . .
49(4) . . .
55(4) . . .
59(4) . . .
45(4) . . .
59(4) . . .
55(4) . . .
47(4) . . .
56(4) . . .
54(4) . . .
52(4) . . .
51(4) . . .
49(4) . . .
45(4) . . .
43(4) . . .
47(4) . . .
48(4) . . .
43.0(35) . . .
52(4) . . .
56(4) . . .
56(4) . . .
50(4) . . .
48(4) . . .
53(4) . . .
45(4) . . .
53(4) . . .
57(4) . . .
55(4) . . .
46(4) . . .
43.9(35) . . .
58(4) . . .
51(4) . . .
46(4) . . .
53(4) . . .
51(4) . . .
62(4) . . .
54(4) . . .
61(4) . . .
54(4) . . .
53(4) . . .
48(4) . . .
51(4) . . .
57(4) . . .
50(4) . . .
41.2(33) . . .
55(4) . . .
55(4) . . .
49(4) . . .
47(4) . . .
57(4) . . .
54(4) . . .
51(4) . . .
37.5(33) . . .
40.7(34) . . .
51(4) . . .
52(4) . . .
47(4) . . .
50(4) . . .
51(4) . . .
45.2(35) . . .
49(4) . . .
46(4) . . .
50(4) . . .
56(4) . . .
49(4) . . .
49(4) . . .
55(4) . . .
47(4) . . .
42.0(33) . . .
45.9(35) . . .
46(4) . . .
49(4) . . .
55(4) . . .
52(4) . . .
57(4) . . .
56(4) . . .
43.6(35) . . .
54(4) . . .
44.9(35) . . .
45(4) . . .
51(4) . . .
48(4) . . .
55(4) . . .
53(4) . . .
46(4) . . .
54(4) . . .
46(4) . . .
43(4) . . .
43.2(34) . . .
53(4) . . .
56(4) . . .
52(4) . . .
48(4) . . .
52(4) . . .
49(4) . . .
56(4) . . .
52(4) . . .
47(4) . . .
44.3(35) . . .
50(4) . . .
59(4) . . .
54(4) . . .
52(4) . . .
58(4) . . .
52(4) . . .
44.3(35) . . .
55(4) . . .
56(4) . . .
54(4) . . .
45(4) . . .
50(4) . . .
52(4) . . .
53(4) . . .
62(4) . . .
46(4) . . .
51(4) . . .
51(4) . . .
53(4) . . .
52(4) . . .
51(4) . . .
47(4) . . .
50(4) . . .
56(4) . . .
49(4) . . .
48(4) . . .
49(4) . . .
57(4) . . .
59(4) . . .
55(4) . . .
53(4) . . .
51(4) . . .
51(4) . . .
50(4) . . .
46.0(35) . . .
45(4) . . .
51(4) . . .
48(4) . . .
57(4) . . .
53(4) . . .
54(4) . . .
52(4) . . .
43.1(35) . . .
49(4) . . .
41.3(34) . . .
51(4) . . .
51(4) . . .
48(4) . . .
46.7(35) . . .
55(4) . . .
46(4) . . .
53(4) . . .
42.5(35) . . .
48(4) . . .
55(4) . . .
50(4) . . .
38(4) . . .
43(4) . . .
51(4) . . .
49(4) . . .
51(4) . . .
42.5(35) . . .
47(4) . . .
55(4) . . .
47(4) . . .
47(4) . . .
53(4) . . .
54(4) . . .
47(4) . . .
44(4) . . .
48(4) . . .
51(4) . . .
46.8(35) . . .
51(4) . . .
52(4) . . .
48(4) . . .
40.6(34) . . .
53(4) . . .
50(4) . . .
45(4) . . .
51(4) . . .
57(4) . . .
66(4) . . .
53(4) . . .
47(4) . . .
53(4) . . .
55(4) . . .
64(4) . . .
55(4) . . .
53(4) . . .
53(4) . . .
54(4) . . .
45.1(35) . . .
55(4) . . .
55(4) . . .
45(4) . . .
48(4) . . .
46(4) . . .
47(4) . . .
53(4) . . .
48(4) . . .
50(4) . . .
55(4) . . .
52(4) . . .
51(4) . . .
48(4) . . .
51(4) . . .
57(4) . . .
55(4) . . .
43.0(34) . . .
53(4) . . .
47(4) . . .
52(4) . . .
50(4) . . .
52(4) . . .
40.9(35) . . .
44(4) . . .
52(4) . . .
48(4) . . .
43.7(34) . . .
43.2(33) . . .
55(4) . . .
45(4) . . .
52(4) . . .
38.2(33) . . .
55(4) . . .
50(4) . . .
47(4) . . .
49(4) . . .
40(4) . . .
40.5(35) . . .
47(4) . . .
51(4) . . .
53(4) . . .
46(4) . . .
50(4) . . .
60(4) . . .
52(4) . . .
50(4) . . .
52(4) . . .
53(4) . . .
52(4) . . .
56(4) . . .
50(4) . . .
46(4) . . .
50(4) . . .
51(4) . . .
50(4) . . .
47(4) . . .
51(4) . . .
49(4) . . .
52(4) . . .
41.1(34) . . .
54(4) . . .
43(4) . . .
46(4) . . .
55(4) . . .
48(4) . . .
51(4) . . .
40.7(34) . . .
41.5(35) . . .
59(4) . . .
52(4) . . .
53(4) . . .
48(4) . . .
50(4) . . .
46(4) . . .
52(4) . . .
47(4) . . .
41.3(35) . . .
59(4) . . .
47(4) . . .
41.4(35) . . .
50(4) . . .
49(4) . . .
41.4(34) . . .
53(4) . . .
51(4) . . .
53(4) . . .
49(4) . . .
58(4) . . .
54(4) . . .
40.1(33) . . .
51(4) . . .
47(4) . . .
53(4) . . .
46(4) . . .
59(4) . . .
48(4) . . .
38.9(33) . . .
51(4) . . .
41.3(33) . . .
41.9(35) . . .
52(4) . . .
44(4) . . .
40.5(33) . . .
48(4) . . .
46(4) . . .
43(4) . . .
41.7(34) . . .
51(4) . . .
52(4) . . .
49(4) . . .
52(4) . . .
49(4) . . .
44(4) . . .
52(4) . . .
46(4) . . .
56(4) . . .
41(4) . . .
52(4) . . .
58(4) . . .
43.3(33) . . .
49(4) . . .
47(4) . . .
62(4) . . .
54(4) . . .
40.4(34) . . .
46(4) . . .
54(4) . . .
50(4) . . .
45(4) . . .
53(4) . . .
61(4) . . .
53(4) . . .
46(4) . . .
46(4) . . .
54(4) . . .
49(4) . . .
47(4) . . .
61(4) . . .
54(4) . . .
59(4) . . .
47(4) . . .
40.3(33) . . .
56(4) . . .
53(4) . . .
41.3(34) . . .
44(4) . . .
37.2(32) . . .
44.9(34) . . .
42.5(34) . . .
52(4) . . .
44(4) . . .
40.1(33) . . .
49(4) . . .
41.9(34) . . .
44(4) . . .
42.4(35) . . .
41.0(34) . . .
50(4) . . .
48(4) . . .
44(4) . . .
46(4) . . .
54(4) . . .
37.1(32) . . .
43.0(35) . . .
47(4) . . .
42(4) . . .
38.2(33) . . .
56(4) . . .
54(4) . . .
53(4) . . .
46(4) . . .
45(4) . . .
47(4) . . .
46(4) . . .
45(4) . . .
45(4) . . .
39.4(33) . . .
45(4) . . .
44(4) . . .
48(4) . . .
51(4) . . .
60(4) . . .
42(4) . . .
47(4) . . .
46(4) . . .
45(4) . . .
50(4) . . .
52(4) . . .
45(4) . . .
45(4) . . .
46(4) . . .
44.9(35) . . .
49(4) . . .
39.3(32) . . .
57(4) . . .
54(4) . . .
50(4) . . .
56(4) . . .
51(4) . . .
57(4) . . .
40.8(34) . . .
44.2(35) . . .
48(4) . . .
55(4) . . .
41.0(34) . . .
56(4) . . .
52(4) . . .
50(4) . . .
55(4) . . .
59(4) . . .
50(4) . . .
47(4) . . .
50(4) . . .
45(4) . . .
40.3(34) . . .
49(4) . . .
54(4) . . .
50(4) . . .
43(4) . . .
48(4) . . .
49(4) . . .
49(4) . . .
40.3(34) . . .
53(4) . . .
53(4) . . .
51(4) . . .
43.9(35) . . .
59(4) . . .
53(4) . . .
44.7(34) . . .
47(4) . . .
53(4) . . .
46(4) . . .
47(4) . . .
48(4) . . .
56(4) . . .
46(4) . . .
53(4) . . .
43(4) . . .
48(4) . . .
48(4) . . .
54(4) . . .
51(4) . . .
42.5(35) . . .
49(4) . . .
49(4) . . .
55(4) . . .
41(4) . . .
38.0(34) . . .
45(4) . . .
48(4) . . .
45(4) . . .
53(4) . . .
48(4) . . .
41.3(33) . . .
38.3(32) . . .
47(4) . . .
57(4) . . .
47(4) . . .
55(4) . . .
53(4) . . .
35.3(31) . . .
51(4) . . .
35.3(31) . . .
48(4) . . .
50(4) . . .
53(4) . . .
54(4) . . .
44(4) . . .
55(4) . . .
44.7(35) . . .
47(4) . . .
47(4) . . .
51(4) . . .
51(4) . . .
47(4) . . .
42.3(35) . . .
49(4) . . .
42.7(34) . . .
52(4) . . .
46(4) . . .
54(4) . . .
45(4) . . .
48(4) . . .
44.8(35) . . .
59(4) . . .
44(4) . . .
52(4) . . .
44(4) . . .
46(4) . . .
48(4) . . .
46(4) . . .
44(4) . . .
50(4) . . .
45.0(35) . . .
54(4) . . .
61(4) . . .
59(4) . . .
46.2(35) . . .
51(4) . . .
51(4) . . .
49(4) . . .
47(4) . . .
49(4) . . .
48(4) . . .
52(4) . . .
41.7(33) . . .
56(4) . . .
58(4) . . .
60(4) . . .
58(4) . . .
50(4) . . .
48(4) . . .
45.4(35) . . .
48(4) . . .
47(4) . . .
50(4) . . .
46(4) . . .
44.1(35) . . .
51(4) . . .
51(4) . . .
48(4) . . .
47(4) . . .
42.1(34) . . .
52(4) . . .
50(4) . . .
56(4) . . .
55(4) . . .
60(4) . . .
60(4) . . .
53(4) . . .
48(4) . . .
57(4) . . .
57(4) . . .
46(4) . . .
64(4) . . .
49(4) . . .
50(4) . . .
50(4) . . .
50(4) . . .
44(4) . . .
48(4) . . .
50(4) . . .
40.5(33) . . .
44(4) . . .
52(4) . . .
46(4) . . .
49(4) . . .
64(4) . . .
45.5(35) . . .
54(4) . . .
44(4) . . .
54(4) . . .
53(4) . . .
41.3(35) . . .
50(4) . . .
60(4) . . .
49(4) . . .
60(4) . . .
58(4) . . .
45.5(35) . . .
52(4) . . .
56(4) . . .
52(4) . . .
49(4) . . .
52(4) . . .
51(4) . . .
55(4) . . .
56(4) . . .
43.7(35) . . .
50(4) . . .
50(4) . . .
50(4) . . .
52(4) . . .
50(4) . . .
43(4) . . .
40(4) . . .
40.4(33) . . .
49(4) . . .
53(4) . . .
49(4) . . .
51(4) . . .
41.0(34) . . .
57(4) . . .
55(4) . . .
51(4) . . .
46(4) . . .
48(4) . . .
56(4) . . .
56(4) . . .
52(4) . . .
42.3(34) . . .
44.7(35) . . .
54(4) . . .
46(4) . . .
50(4) . . .
59(4) . . .
46.2(35) . . .
45(4) . . .
43(4) . . .
44(4) . . .
51(4) . . .
45.9(35) . . .
55(4) . . .
52(4) . . .
51(4) . . .
56(4) . . .
63(4) . . .
50(4) . . .
46(4) . . .
41.8(35) . . .
51(4) . . .
58(4) . . .
49(4) . . .
46(4) . . .
52(4) . . .
41.7(34) . . .
39.8(33) . . .
49(4) . . .
58(4) . . .
54(4) . . .
48(4) . . .
53(4) . . .
49(4) . . .
50(4) . . .
56(4) . . .
51(4) . . .
42.7(34) . . .
45(4) . . .
56(4) . . .
64(4) . . .
51(4) . . .
55(4) . . .
49(4) . . .
49(4) . . .
44.8(35) . . .
52(4) . . .
50(4) . . .
47(4) . . .
43.9(34) . . .
46(4) . . .
49(4) . . .
40.6(33) . . .
50(4) . . .
52(4) . . .
48(4) . . .
50(4) . . .
63(4) . . .
40.2(33) . . .
43(4) . . .
42.2(33) . . .
53(4) . . .
44(4) . . .
51(4) . . .
51(4) . . .
47(4) . . .
50(4) . . .
42.6(34) . . .
47(4) . . .
38.2(32) . . .
50(4) . . .
57(4) . . .
53(4) . . .
50(4) . . .
49(4) . . .
59(4) . . .
41.8(34) . . .
41.0(34) . . .
43.1(35) . . .
49(4) . . .
52(4) . . .
57(4) . . .
43(4) . . .
45(4) . . .
46(4) . . .
44.2(34) . . .
47(4) . . .
49(4) . . .
40.1(35) . . .
50(4) . . .
44.9(34) . . .
52(4) . . .
49(4) . . .
50(4) . . .
44(4) . . .
50(4) . . .
57(4) . . .
52(4) . . .
55(4) . . .
47(4) . . .
54(4) . . .
47(4) . . .
48(4) . . .
53(4) . . .
49(4) . . .
49(4) . . .
47(4) . . .
46(4) . . .
52(4) . . .
52(4) . . .
48(4) . . .
59(4) . . .
46(4) . . .
44.3(35) . . .
50(4) . . .
41.8(33) . . .
50(4) . . .
55(4) . . .
55(4) . . .
41.6(33) . . .
46(4) . . .
43(4) . . .
44(4) . . .
44(4) . . .
40.9(33) . . .
53(4) . . .
49(4) . . .
47(4) . . .
47(4) . . .
56(4) . . .
54(4) . . .
48(4) . . .
45(4) . . .
44.6(35) . . .
45(4) . . .
49(4) . . .
43(4) . . .
48(4) . . .
54(4) . . .
45(4) . . .
50(4) . . .
48(4) . . .
51(4) . . .
48(4) . . .
40.2(33) . . .
45(4) . . .
50(4) . . .
45(4) . . .
44.8(35) . . .
51(4) . . .
51(4) . . .
56(4) . . .
54(4) . . .
52(4) . . .
48(4) . . .
48(4) . . .
45(4) . . .
47(4) . . .
41.9(33) . . .
47(4) . . .
51(4) . . .
48(4) . . .
41.1(33) . . .
43.0(35) . . .
43.7(35) . . .
49(4) . . .
48(4) . . .
55(4) . . .
59(4) . . .
50(4) . . .
42.6(34) . . .
48(4) . . .
51(4) . . .
53(4) . . .
43(4) . . .
46(4) . . .
47(4) . . .
55(4) . . .
48(4) . . .
56(4) . . .
45.2(35) . . .
46(4) . . .
48(4) . . .
45.5(35) . . .
40.4(34) . . .
47(4) . . .
45(4) . . .
57(4) . . .
49(4) . . .
46(4) . . .
53(4) . . .
49(4) . . .
54(4) . . .
43.4(34) . . .
47(4) . . .
54(4) . . .
50(4) . . .
55(4) . . .
47(4) . . .
52(4) . . .
47(4) . . .
49(4) . . .
41.3(34) . . .
49(4) . . .
39.2(33) . . .
44(4) . . .
47(4) . . .
49(4) . . .
45.0(35) . . .
55(4) . . .
46(4) . . .
44.6(34) . . .
50(4) . . .
51(4) . . .
44(4) . . .
51(4) . . .
51(4) . . .
48(4) . . .
50(4) . . .
43(4) . . .
47(4) . . .
49(4) . . .
61(4) . . .
50(4) . . .
49(4) . . .
47(4) . . .
45(4) . . .
55(4) . . .
50(4) . . .
47(4) . . .
68(5) . . .
50(4) . . .
47(4) . . .
46(4) . . .
48(4) . . .
53(4) . . .
51(4) . . .
52(4) . . .
53(4) . . .
46(4) . . .
58(4) . . .
45(4) . . .
47(4) . . .
57(4) . . .
56(4) . . .
46(4) . . .
35.7(31) . . .
49(4) . . .
40.9(33) . . .
47(4) . . .
59(4) . . .
51(4) . . .
39.8(33) . . .
38.7(32) . . .
49(4) . . .
42.0(34) . . .
40.1(33) . . .
49(4) . . .
45(4) . . .
55(4) . . .
47(4) . . .
45(4) . . .
58(4) . . .
51(4) . . .
51(4) . . .
52(4) . . .
48(4) . . .
48(4) . . .
43.4(34) . . .
49(4) . . .
47(4) . . .
47(4) . . .
49(4) . . .
55(4) . . .
45(4) . . .
52(4) . . .
54(4) . . .
51(4) . . .
50(4) . . .
47(4) . . .
46(4) . . .
38.5(32) . . .
42.5(34) . . .
42(4) . . .
44(4) . . .
46(4) . . .
44.6(35) . . .
46(4) . . .
55(4) . . .
47(4) . . .
52(4) . . .
42.8(34) . . .
40.8(33) . . .
56(4) . . .
49(4) . . .
47(4) . . .
52(4) . . .
40.8(34) . . .
41(4) . . .
38.1(34) . . .
38.2(33) . . .
52(4) . . .
55(4) . . .
52(4) . . .
50(4) . . .
48(4) . . .
59(4) . . .
59(4) . . .
49(4) . . .
53(4) . . .
52(4) . . .
46(4) . . .
43.1(35) . . .
55(4) . . .
50(4) . . .
45.6(35) . . .
43.0(34) . . .
55(4) . . .
42(4) . . .
38.2(32) . . .
40.3(33) . . .
44.6(35) . . .
50(4) . . .
55(4) . . .
62(4) . . .
61(4) . . .
44.6(35) . . .
46(4) . . .
39(4) . . .
49(4) . . .
45(4) . . .
46(4) . . .
58(4) . . .
52(4) . . .
50(4) . . .
58(4) . . .
44.0(34) . . .
43(4) . . .
47(4) . . .
39(4) . . .
47(4) . . .
52(4) . . .
44(4) . . .
42(4) . . .
53(4) . . .
43.6(34) . . .
55(4) . . .
50(4) . . .
36.0(31) . . .
51(4) . . .
45.6(35) . . .
41.3(33) . . .
53(4) . . .
53(4) . . .
46(4) . . .
42.6(34) . . .
44(4) . . .
50(4) . . .
48(4) . . .
45.4(35) . . .
45(4) . . .
54(4) . . .
52(4) . . .
55(4) . . .
48(4) . . .
49(4) . . .
48(4) . . .
48(4) . . .
49(4) . . .
44(4) . . .
48(4) . . .
47(4) . . .
45(4) . . .
55(4) . . .
43.7(35) . . .
43.9(35) . . .
37.8(34) . . .
41.9(34) . . .
44.9(35) . . .
42.8(34) . . .
55(4) . . .
43(4) . . .
42(4) . . .
53(4) . . .
53(4) . . .
53(4) . . .
45(4) . . .
46(4) . . .
47(4) . . .
48(4) . . .
41.8(35) . . .
53(4) . . .
50(4) . . .
46(4) . . .
60(4) . . .
48(4) . . .
43(4) . . .
48(4) . . .
47(4) . . .
53(4) . . .
46(4) . . .
47(4) . . .
40.8(35) . . .
48(4) . . .
43.5(34) . . .
55(4) . . .
50(4) . . .
51(4) . . .
47(4) . . .
52(4) . . .
45(4) . . .
53(4) . . .
40.7(34) . . .
51(4) . . .
52(4) . . .
49(4) . . .
46(4) . . .
52(4) . . .
51(4) . . .
50(4) . . .
47(4) . . .
53(4) . . .
54(4) . . .
45.0(35) . . .
49(4) . . .
45(4) . . .
40.0(34) . . .
45(4) . . .
47(4) . . .
43.1(35) . . .
49(4) . . .
46(4) . . .
37.7(33) . . .
44.4(35) . . .
45.3(35) . . .
51(4) . . .
55(4) . . .
52(4) . . .
43.4(34) . . .
54(4) . . .
52(4) . . .
57(4) . . .
55(4) . . .
54(4) . . .
50(4) . . .
44(4) . . .
41.9(32) . . .
46(4) . . .
57(4) . . .
45(4) . . .
51(4) . . .
40.5(34) . . .
46(4) . . .
48(4) . . .
42(4) . . .
41.4(35) . . .
50(4) . . .
49(4) . . .
44.9(35) . . .
51(4) . . .
47(4) . . .
48(4) . . .
56(4) . . .
58(4) . . .
46(4) . . .
49(4) . . .
51(4) . . .
44.4(35) . . .
49(4) . . .
53(4) . . .
47(4) . . .
45(4) . . .
43.1(34) . . .
53(4) . . .
49(4) . . .
46(4) . . .
54(4) . . .
51(4) . . .
60(4) . . .
42.8(35) . . .
52(4) . . .
37.5(32) . . .
49(4) . . .
53(4) . . .
40.9(34) . . .
44(4) . . .
50(4) . . .
42.3(34) . . .
51(4) . . .
44.1(34) . . .
54(4) . . .
47(4) . . .
44.7(35) . . .
47(4) . . .
45(4) . . .
48(4) . . .
54(4) . . .
45.3(35) . . .
55(4) . . .
44(4) . . .
49(4) . . .
48(4) . . .
45.1(35) . . .
47(4) . . .
49(4) . . .
50(4) . . .
54(4) . . .
42.9(35) . . .
47(4) . . .
51(4) . . .
40.6(34) . . .
38.6(32) . . .
43.5(34) . . .
51(4) . . .
43.6(34) . . .
47(4) . . .
53(4) . . .
52(4) . . .
48(4) . . .
53(4) . . .
52(4) . . .
43.4(34) . . .
46.1(35) . . .
50(4) . . .
41(4) . . .
40(4) . . .
39.1(33) . . .
39.5(33) . . .
42.5(35) . . .
43.7(35) . . .
53(4) . . .
47(4) . . .
46(4) . . .
41(4) . . .
40.3(34) . . .
48(4) . . .
38.2(32) . . .
44(4) . . .
36.7(32) . . .
40.6(34) . . .
54(4) . . .
45.4(35) . . .
50(4) . . .
45(4) . . .
49(4) . . .
47(4) . . .
44.8(35) . . .
55(4) . . .
48(4) . . .
39.8(33) . . .
39.0(32) . . .
43.0(34) . . .
45(4) . . .
37.9(35) . . .
48(4) . . .
59(4) . . .
53(4) . . .
45(4) . . .
46(4) . . .
52(4) . . .
52(4) . . .
53(4) . . .
50(4) . . .
53(4) . . .
51(4) . . .
48(4) . . .
49(4) . . .
56(4) . . .
46(4) . . .
42.7(34) . . .
48(4) . . .
42.5(34) . . .
38.4(32) . . .
41(4) . . .
48(4) . . .
51(4) . . .
59(4) . . .
48(4) . . .
49(4) . . .
52(4) . . .
54(4) . . .
54(4) . . .
52(4) . . .
52(4) . . .
37.6(32) . . .
53(4) . . .
41.9(33) . . .
47(4) . . .
39.1(33) . . .
47(4) . . .
48(4) . . .
41.6(35) . . .
45(4) . . .
46(4) . . .
45(4) . . .
49(4) . . .
37.1(33) . . .
47(4) . . .
54(4) . . .
47(4) . . .
53(4) . . .
47(4) . . .
54(4) . . .
48(4) . . .
53(4) . . .
42.4(34) . . .
40.6(35) . . .
37.5(34) . . .
34.6(31) . . .
58(4) . . .
43.8(34) . . .
43(4) . . .
52(4) . . .
44.8(35) . . .
39.8(33) . . .
40.4(33) . . .
41.7(34) . . .
37.7(35) . . .
52(4) . . .
44.0(35) . . .
49(4) . . .
41.5(35) . . .
55(4) . . .
46(4) . . .
49(4) . . .
50(4) . . .
54(4) . . .
50(4) . . .
48(4) . . .
50(4) . . .
49(4) . . .
53(4) . . .
53(4) . . .
40.9(33) . . .
49(4) . . .
47(4) . . .
46(4) . . .
55(4) . . .
41.2(34) . . .
48(4) . . .
49(4) . . .
51(4) . . .
47(4) . . .
53(4) . . .
51(4) . . .
39.1(34) . . .
50(4) . . .
49(4) . . .
43.2(35) . . .
48(4) . . .
50(4) . . .
39.8(33) . . .
47(4) . . .
38.4(34) . . .
35.6(31) . . .
48(4) . . .
45(4) . . .
48(4) . . .
52(4) . . .
55(4) . . .
44(4) . . .
45(4) . . .
53(4) . . .
40.7(33) . . .
40.3(33) . . .
47(4) . . .
54(4) . . .
49(4) . . .
44.7(35) . . .
39.9(34) . . .
59(4) . . .
42(4) . . .
42.5(34) . . .
48(4) . . .
46(4) . . .
57(4) . . .
51(4) . . .
52(4) . . .
47(4) . . .
44(4) . . .
36.0(32) . . .
50(4) . . .
49(4) . . .
49(4) . . .
44(4) . . .
48(4) . . .
42(4) . . .
42.5(35) . . .
55(4) . . .
47(4) . . .
49(4) . . .
38.0(32) . . .
58(4) . . .
42.2(34) . . .
48(4) . . .
48(4) . . .
50(4) . . .
53(4) . . .
47(4) . . .
50(4) . . .
36.6(31) . . .
46(4) . . .
45(4) . . .
42.9(35) . . .
44.2(35) . . .
40.6(32) . . .
42.4(33) . . .
50(4) . . .
45(4) . . .
49(4) . . .
49(4) . . .
47(4) . . .
54(4) . . .
52(4) . . .
44.8(35) . . .
54(4) . . .
45(4) . . .
55(4) . . .
44(4) . . .
47(4) . . .
44(4) . . .
46(4) . . .
52(4) . . .
53(4) . . .
45.0(35) . . .
47(4) . . .
50(4) . . .
57(4) . . .
54(4) . . .
49(4) . . .
51(4) . . .
50(4) . . .
52(4) . . .
48(4) . . .
43.0(35) . . .
49(4) . . .
52(4) . . .
49(4) . . .
52(4) . . .
45(4) . . .
43(4) . . .
50(4) . . .
49(4) . . .
49(4) . . .
37.0(34) . . .
40(4) . . .
46(4) . . .
38.0(32) . . .
45(4) . . .
45(4) . . .
42(4) . . .
44(4) . . .
42.3(34) . . .
40(4) . . .
42(4) . . .
50(4) . . .
50(4) . . .
49(4) . . .
48(4) . . .
50(4) . . .
48(4) . . .
50(4) . . .
39.9(33) . . .
48(4) . . .
39.7(34) . . .
40.3(33) . . .
45(4) . . .
50(4) . . .
46(4) . . .
47(4) . . .
50(4) . . .
47(4) . . .
52(4) . . .
44(4) . . .
44(4) . . .
38.6(34) . . .
39.5(33) . . .
43.7(34) . . .
41.5(34) . . .
38.5(34) . . .
45(4) . . .
49(4) . . .
54(4) . . .
50(4) . . .
46(4) . . .
39.1(33) . . .
50(4) . . .
42.3(35) . . .
54(4) . . .
50(4) . . .
39.2(33) . . .
40.0(33) . . .
53(4) . . .
43(4) . . .
46(4) . . .
58(4) . . .
41.0(33) . . .
42.5(35) . . .
47(4) . . .
52(4) . . .
47(4) . . .
50(4) . . .
44(4) . . .
51(4) . . .
46(4) . . .
46(4) . . .
47(4) . . .
44(4) . . .
51(4) . . .
49(4) . . .
49(4) . . .
46(4) . . .
45(4) . . .
44(4) . . .
46(4) . . .
48(4) . . .
48(4) . . .
56(4) . . .
55(4) . . .
61(4) . . .
43.5(35) . . .
40.1(33) . . .
40.0(34) . . .
43(4) . . .
49(4) . . .
48(4) . . .
50(4) . . .
57(4) . . .
43(4) . . .
45(4) . . .
39.9(33) . . .
42.0(33) . . .
37.2(33) . . .
40.3(35) . . .
51(4) . . .
47(4) . . .
43.6(34) . . .
52(4) . . .
50(4) . . .
53(4) . . .
50(4) . . .
41.3(33) . . .
46(4) . . .
36.7(32) . . .
52(4) . . .
46(4) . . .
47(4) . . .
61(4) . . .
52(4) . . .
39.2(33) . . .
44(4) . . .
46(4) . . .
39.3(34) . . .
55(4) . . .
50(4) . . .
43.3(35) . . .
46(4) . . .
47(4) . . .
44(4) . . .
50(4) . . .
47(4) . . .
45(4) . . .
35.4(30) . . .
46(4) . . .
51(4) . . .
42.8(34) . . .
51(4) . . .
48(4) . . .
49(4) . . .
42.0(33) . . .
48(4) . . .
51(4) . . .
42.8(34) . . .
56(4) . . .
47(4) . . .
37.2(32) . . .
46(4) . . .
48(4) . . .
44.0(34) . . .
50(4) . . .
41.2(34) . . .
48(4) . . .
42(4) . . .
54(4) . . .
49(4) . . .
39.4(34) . . .
49(4) . . .
45(4) . . .
41.6(35) . . .
37.7(32) . . .
44.4(35) . . .
46(4) . . .
41(4) . . .
49(4) . . .
32.6(29) . . .
48(4) . . .
49(4) . . .
42.8(35) . . .
46(4) . . .
41.0(34) . . .
47(4) . . .
49(4) . . .
53(4) . . .
37.8(33) . . .
40.0(33) . . .
40.8(34) . . .
51(4) . . .
44.8(35) . . .
44.9(35) . . .
44.0(34) . . .
51(4) . . .
49(4) . . .
45(4) . . .
46(4) . . .
46(4) . . .
44.5(35) . . .
51(4) . . .
51(4) . . .
42.5(34) . . .
36.0(31) . . .
43.5(35) . . .
48(4) . . .
60(4) . . .
42.1(34) . . .
47(4) . . .
45.0(34) . . .
43(4) . . .
43(4) . . .
44.4(35) . . .
41.6(33) . . .
46(4) . . .
45(4) . . .
39.6(34) . . .
40.7(33) . . .
39.2(33) . . .
45(4) . . .
45(4) . . .
44(4) . . .
42.5(34) . . .
50(4) . . .
47(4) . . .
42.5(35) . . .
46(4) . . .
42.7(34) . . .
48(4) . . .
40.6(35) . . .
50(4) . . .
54(4) . . .
51(4) . . .
42.2(35) . . .
55(4) . . .
49(4) . . .
46(4) . . .
56(4) . . .
38.6(34) . . .
48(4) . . .
46(4) . . .
47(4) . . .
40.5(34) . . .
50(4) . . .
41(4) . . .
48(4) . . .
44(4) . . .
43.7(35) . . .
47(4) . . .
48(4) . . .
50(4) . . .
45.1(35) . . .
52(4) . . .
47(4) . . .
39.0(33) . . .
48(4) . . .
45.9(35) . . .
48(4) . . .
58(4) . . .
45(4) . . .
43.3(34) . . .
47(4) . . .
49(4) . . .
51(4) . . .
31.4(30) . . .
43.3(34) . . .
44.7(35) . . .
52(4) . . .
53(4) . . .
42.0(34) . . .
49(4) . . .
50(4) . . .
53(4) . . .
43.7(34) . . .
55(4) . . .
31.3(29) . . .
51(4) . . .
56(4) . . .
57(4) . . .
48(4) . . .
41.2(35) . . .
44.7(35) . . .
48(4) . . .
43(4) . . .
47(4) . . .
42.7(34) . . .
39.7(33) . . .
39.1(33) . . .
40.2(34) . . .
48(4) . . .
57(4) . . .
46(4) . . .
48(4) . . .
41.5(34) . . .
45(4) . . .
45(4) . . .
49(4) . . .
51(4) . . .
47(4) . . .
46(4) . . .
46(4) . . .
56(4) . . .
41.1(34) . . .
53(4) . . .
35.4(31) . . .
37.6(31) . . .
52(4) . . .
43.7(34) . . .
45(4) . . .
37.1(32) . . .
47(4) . . .
51(4) . . .
52(4) . . .
46(4) . . .
51(4) . . .
40.4(33) . . .
38.8(34) . . .
33.8(30) . . .
48(4) . . .
41.3(34) . . .
47(4) . . .
48(4) . . .
46(4) . . .
43(4) . . .
37.5(34) . . .
43.2(35) . . .
51(4) . . .
44.6(35) . . .
45(4) . . .
47(4) . . .
42.4(34) . . .
44.0(34) . . .
44(4) . . .
48(4) . . .
40.8(34) . . .
44.7(35) . . .
43.3(35) . . .
56(4) . . .
57(4) . . .
45(4) . . .
47(4) . . .
48(4) . . .
46(4) . . .
49(4) . . .
49(4) . . .
47(4) . . .
51(4) . . .
54(4) . . .
41(4) . . .
33.4(30) . . .
41.7(33) . . .
36.6(32) . . .
49(4) . . .
52(4) . . .
45.5(35) . . .
56(4) . . .
49(4) . . .
49(4) . . .
42(4) . . .
43.4(34) . . .
44.2(34) . . .
46(4) . . .
43(4) . . .
40.1(33) . . .
39.8(34) . . .
46(4) . . .
53(4) . . .
45(4) . . .
44(4) . . .
43.7(35) . . .
36.2(31) . . .
42.7(34) . . .
51(4) . . .
54(4) . . .
43.6(35) . . .
48(4) . . .
59(4) . . .
46(4) . . .
44(4) . . .
53(4) . . .
38.9(33) . . .
51(4) . . .
47(4) . . .
38.9(34) . . .
37.1(32) . . .
38.0(33) . . .
48(4) . . .
55(4) . . .
48(4) . . .
53(4) . . .
48(4) . . .
55(4) . . .
43(4) . . .
50(4) . . .
40.0(32) . . .
49(4) . . .
42(4) . . .
41(4) . . .
38.8(34) . . .
45.0(35) . . .
45(4) . . .
48(4) . . .
57(4) . . .
38.9(32) . . .
52(4) . . .
47(4) . . .
47(4) . . .
42(4) . . .
54(4) . . .
38.7(33) . . .
41.5(34) . . .
48(4) . . .
50(4) . . .
49(4) . . .
41.6(34) . . .
36.7(32) . . .
50(4) . . .
47(4) . . .
39.1(33) . . .
54(4) . . .
53(4) . . .
51(4) . . .
48(4) . . .
50(4) . . .
38.1(33) . . .
48(4) . . .
52(4) . . .
55(4) . . .
54(4) . . .
48(4) . . .
46(4) . . .
47(4) . . .
44(4) . . .
45.1(35) . . .
38.9(33) . . .
40.3(35) . . .
49(4) . . .
48(4) . . .
37.5(33) . . .
52(4) . . .
42.4(35) . . .
39.6(35) . . .
41(4) . . .
44.4(35) . . .
44(4) . . .
38.5(33) . . .
42.4(35) . . .
46.5(35) . . .
50(4) . . .
48(4) . . .
41.8(34) . . .
42(4) . . .
49(4) . . .
52(4) . . .
46(4) . . .
50(4) . . .
47(4) . . .
54(4) . . .
41.1(34) . . .
54(4) . . .
51(4) . . .
48(4) . . .
51(4) . . .
48(4) . . .
43.8(34) . . .
48(4) . . .
47(4) . . .
44.9(35) . . .
38.2(32) . . .
44(4) . . .
44.8(35) . . .
49(4) . . .
49(4) . . .
46(4) . . .
42(4) . . .
43(4) . . .
48(4) . . .
51(4) . . .
48(4) . . .
54(4) . . .
42.0(35) . . .
44(4) . . .
45(4) . . .
46(4) . . .
50(4) . . .
58(4) . . .
52(4) . . .
46(4) . . .
43(4) . . .
49(4) . . .
48(4) . . .
45.1(35) . . .
48(4) . . .
53(4) . . .
45.3(34) . . .
53(4) . . .
44.9(35) . . .
40.9(33) . . .
47(4) . . .
52(4) . . .
49(4) . . .
39.8(33) . . .
48(4) . . .
51(4) . . .
40.1(34) . . .
54(4) . . .
44.8(35) . . .
46(4) . . .
50(4) . . .
45(4) . . .
44(4) . . .
38.7(32) . . .
43.0(33) . . .
40.4(34) . . .
51(4) . . .
52(4) . . .
44.2(34) . . .
50(4) . . .
51(4) . . .
36.9(32) . . .
39.1(33) . . .
40.8(33) . . .
34.6(32) . . .
33.8(30) . . .
50(4) . . .
48(4) . . .
47(4) . . .
51(4) . . .
43.6(33) . . .
38.2(32) . . .
38.9(33) . . .
43.1(35) . . .
43.9(35) . . .
48(4) . . .
36.3(32) . . .
49(4) . . .
44.0(35) . . .
46(4) . . .
42(4) . . .
41.2(34) . . .
43.4(35) . . .
37.4(32) . . .
46(4) . . .
42(4) . . .
40.9(34) . . .
45.2(35) . . .
52(4) . . .
53(4) . . .
44.3(34) . . .
41.3(34) . . .
39.0(33) . . .
51(4) . . .
45(4) . . .
38.3(34) . . .
44(4) . . .
46(4) . . .
46(4) . . .
43.8(35) . . .
45(4) . . .
36.9(34) . . .
43.2(34) . . .
46(4) . . .
42.3(34) . . .
42(4) . . .
45(4) . . .
55(4) . . .
42.9(35) . . .
48(4) . . .
47(4) . . .
45(4) . . .
36.7(31) . . .
41.3(35) . . .
45(4) . . .
39.2(34) . . .
43(4) . . .
45.4(35) . . .
39.4(32) . . .
35.4(31) . . .
48(4) . . .
49(4) . . .
47(4) . . .
44.8(35) . . .
41.3(35) . . .
41.2(34) . . .
49(4) . . .
47(4) . . .
41(4) . . .
34.8(31) . . .
50(4) . . .
35.9(31) . . .
43.0(34) . . .
43.2(34) . . .
48(4) . . .
34.4(31) . . .
39.3(33) . . .
46.6(35) . . .
48(4) . . .
48(4) . . .
51(4) . . .
48(4) . . .
42.7(34) . . .
46(4) . . .
43(4) . . .
42.2(35) . . .
43.1(35) . . .
41.2(34) . . .
44(4) . . .
47(4) . . .
44(4) . . .
44(4) . . .
50(4) . . .
44(4) . . .
39.3(34) . . .
48(4) . . .
48(4) . . .
43.3(35) . . .
34.2(30) . . .
40(4) . . .
44(4) . . .
40.6(34) . . .
29.8(28) . . .
48(4) . . .
43(4) . . .
43.7(35) . . .
48(4) . . .
40.5(33) . . .
45(4) . . .
45(4) . . .
39.0(33) . . .
37.3(32) . . .
44.4(35) . . .
44(4) . . .
45(4) . . .
38.0(34) . . .
47(4) . . .
55(4) . . .
43(4) . . .
39.9(34) . . .
36.9(32) . . .
48(4) . . .
47(4) . . .
45(4) . . .
45(4) . . .
43.9(35) . . .
34.4(30) . . .
42.9(35) . . .
43(4) . . .
38.5(32) . . .
42.2(34) . . .
46(4) . . .
38.6(32) . . .
38.1(33) . . .
39.5(34) . . .
40.7(33) . . .
38.3(32) . . .
38(4) . . .
44(4) . . .
43.1(35) . . .
48(4) . . .
43.0(35) . . .
43.2(34) . . .
49(4) . . .
44(4) . . .
47(4) . . .
46(4) . . .
44(4) . . .
37.1(33) . . .
49(4) . . .
44.9(35) . . .
48(4) . . .
44(4) . . .
49(4) . . .
45(4) . . .
40.4(34) . . .
33.1(29) . . .
43.1(35) . . .
46(4) . . .
47(4) . . .
48(4) . . .
45.5(35) . . .
47(4) . . .
36.8(33) . . .
40.2(34) . . .
39.9(33) . . .
40.6(34) . . .
42.7(35) . . .
47(4) . . .
42.8(34) . . .
48(4) . . .
44.0(34) . . .
39.4(34) . . .
48(4) . . .
48(4) . . .
45(4) . . .
50(4) . . .
37.8(32) . . .
50(4) . . .
43.3(34) . . .
36.7(32) . . .
41.7(34) . . .
43(4) . . .
45(4) . . .
44.6(34) . . .
43.6(34) . . .
41.4(34) . . .
43(4) . . .
42.4(34) . . .
53(4) . . .
48(4) . . .
54(4) . . .
45(4) . . .
56(4) . . .
53(4) . . .
41.3(34) . . .
41.0(34) . . .
43(4) . . .
43(4) . . .
48(4) . . .
44.8(35) . . .
34.4(33) . . .
44(4) . . .
46(4) . . .
36.5(32) . . .
35.9(31) . . .
46(4) . . .
46(4) . . .
36.4(32) . . .
39.5(33) . . .
52(4) . . .
44.8(35) . . .
48(4) . . .
42(4) . . .
41.7(34) . . .
34.1(31) . . .
38.3(35) . . .
41.8(35) . . .
49(4) . . .
47(4) . . .
43.8(34) . . .
42(4) . . .
38.2(33) . . .
56(4) . . .
46(4) . . .
45(4) . . .
42(4) . . .
47(4) . . .
46(4) . . .
46(4) . . .
42(4) . . .
41(4) . . .
46(4) . . .
38.1(33) . . .
46(4) . . .
48(4) . . .
42(4) . . .
48(4) . . .
48(4) . . .
44.2(34) . . .
44.5(34) . . .
44.8(35) . . .
48(4) . . .
38.4(32) . . .
35.1(32) . . .
40.9(34) . . .
49(4) . . .
45.8(34) . . .
45.8(35) . . .
41.5(34) . . .
46(4) . . .
41.1(34) . . .
43(4) . . .
37.7(32) . . .
42.9(34) . . .
34.8(31) . . .
49(4) . . .
34.5(31) . . .
40.0(33) . . .
43.1(35) . . .
40(4) . . .
49(4) . . .
48(4) . . .
46(4) . . .
41.2(33) . . .
43(4) . . .
41.8(35) . . .
42.8(35) . . .
44.8(35) . . .
42.4(35) . . .
46(4) . . .
38.4(32) . . .
41.5(35) . . .
33.8(30) . . .
41.7(34) . . .
43(4) . . .
46(4) . . .
41.5(34) . . .
40.8(33) . . .
48(4) . . .
41.6(35) . . .
47(4) . . .
48(4) . . .
42.6(33) . . .
42.0(34) . . .
40.5(35) . . .
38.5(33) . . .
47(4) . . .
51(4) . . .
40.7(35) . . .
46(4) . . .
44.3(34) . . .
45(4) . . .
44(4) . . .
50(4) . . .
44(4) . . .
37.7(32) . . .
35.6(30) . . .
46(4) . . .
33.5(30) . . .
52(4) . . .
45(4) . . .
42.2(34) . . .
47(4) . . .
48(4) . . .
40.9(34) . . .
44(4) . . .
46(4) . . .
55(4) . . .
44(4) . . .
40.3(34) . . .
47(4) . . .
46(4) . . .
48(4) . . .
52(4) . . .
48(4) . . .
42.9(35) . . .
54(4) . . .
50(4) . . .
48(4) . . .
41.8(35) . . .
43.0(35) . . .
39.6(33) . . .
56(4) . . .
53(4) . . .
43.2(35) . . .
43.7(34) . . .
48(4) . . .
38.3(33) . . .
40.5(34) . . .
44(4) . . .
47(4) . . .
51(4) . . .
45(4) . . .
38.7(35) . . .
35.3(33) . . .
42.1(34) . . .
36.2(32) . . .
42(4) . . .
43(4) . . .
46(4) . . .
35.9(31) . . .
35.6(31) . . .
38.6(33) . . .
34.3(33) . . .
41.2(35) . . .
47(4) . . .
37.5(32) . . .
39.3(34) . . .
38.4(34) . . .
41.0(34) . . .
41.6(33) . . .
47(4) . . .
41.8(35) . . .
48(4) . . .
47(4) . . .
47(4) . . .
45.4(35) . . .
42.8(34) . . .
35.6(31) . . .
46(4) . . .
44.9(35) . . .
45(4) . . .
50(4) . . .
42(4) . . .
44(4) . . .
37.4(32) . . .
41.2(34) . . .
40(4) . . .
37.2(34) . . .
40.9(34) . . .
43.7(34) . . .
40.8(34) . . .
42(4) . . .
38.7(33) . . .
47(4) . . .
48(4) . . .
40.8(34) . . .
48(4) . . .
52(4) . . .
41.4(34) . . .
44.2(35) . . .
47(4) . . .
41(4) . . .
45(4) . . .
41(4) . . .
45(4) . . .
40.7(34) . . .
39(4) . . .
41.8(35) . . .
45(4) . . .
35.5(31) . . .
49(4) . . .
48(4) . . .
46(4) . . .
53(4) . . .
42.9(35) . . .
42(4) . . .
36.6(33) . . .
46(4) . . .
40.8(34) . . .
37.8(32) . . .
40.0(33) . . .
43(4) . . .
50(4) . . .
46(4) . . .
45.0(34) . . .
45(4) . . .
50(4) . . .
47(4) . . .
48(4) . . .
45(4) . . .
34.9(30) . . .
51(4) . . .
35.0(35) . . .
47(4) . . .
40.7(35) . . .
50(4) . . .
29.1(30) . . .
35.1(32) . . .
42.5(34) . . .
46(4) . . .
49(4) . . .
34.0(32) . . .
37.2(33) . . .
48(4) . . .
57(4) . . .
46(4) . . .
42.7(34) . . .
43.3(34) . . .
36.3(32) . . .
47(4) . . .
53(4) . . .
43.1(35) . . .
47(4) . . .
42.9(34) . . .
48(4) . . .
46(4) . . .
46(4) . . .
54(4) . . .
49(4) . . .
38.6(33) . . .
40(4) . . .
36.7(33) . . .
46(4) . . .
44.8(34) . . .
36.9(31) . . .
36.8(32) . . .
41(4) . . .
51(4) . . .
44.5(35) . . .
40.3(34) . . .
44(4) . . .
46(4) . . .
32.7(30) . . .
38.8(32) . . .
39.2(35) . . .
45(4) . . .
50(4) . . .
51(4) . . .
55(4) . . .
40(4) . . .
43(4) . . .
40(4) . . .
44.6(35) . . .
48(4) . . .
51(4) . . .
37.0(33) . . .
45(4) . . .
44.8(35) . . .
45(4) . . .
45(4) . . .
39.5(35) . . .
40.6(35) . . .
41.1(33) . . .
31.2(31) . . .
49(4) . . .
44.0(35) . . .
53(4) . . .
44.1(35) . . .
47(4) . . .
39.6(35) . . .
35.8(32) . . .
40.7(34) . . .
41.3(34) . . .
47(4) . . .
46(4) . . .
36.8(31) . . .
48(4) . . .
48(4) . . .
41(4) . . .
40(4) . . .
47(4) . . .
33.4(30) . . .
42(4) . . .
36.6(32) . . .
40(4) . . .
52(4) . . .
50(4) . . .
30.1(28) . . .
44(4) . . .
47(4) . . .
42.1(34) . . .
40.6(34) . . .
50(4) . . .
39.5(34) . . .
48(4) . . .
60(4) . . .
45(4) . . .
47(4) . . .
39.6(33) . . .
41(4) . . .
33.2(33) . . .
46.4(35) . . .
42(4) . . .
45(4) . . .
38.2(34) . . .
38.7(33) . . .
38.8(33) . . .
44.4(35) . . .
45(4) . . .
38.6(33) . . .
51(4) . . .
46(4) . . .
47(4) . . .
48(4) . . .
41.2(35) . . .
35.7(31) . . .
42.5(34) . . .
33.6(30) . . .
48(4) . . .
33.6(30) . . .
46(4) . . .
52(4) . . .
43.9(35) . . .
31.5(30) . . .
31.7(32) . . .
45(4) . . .
54(4) . . .
55(4) . . .
39.0(33) . . .
38.6(33) . . .
37.9(32) . . .
48(4) . . .
40.0(34) . . .
41(4) . . .
26.3(26) . . .
45(4) . . .
43.3(35) . . .
41(4) . . .
44(4) . . .
57(4) . . .
38.3(33) . . .
38.6(32) . . .
39.9(33) . . .
40.8(34) . . .
48(4) . . .
37.8(33) . . .
39.3(32) . . .
37.5(33) . . .
35.8(33) . . .
45(4) . . .
42.6(34) . . .
37.6(33) . . .
43(4) . . .
37.2(34) . . .
47(4) . . .
41.3(34) . . .
44(4) . . .
41.5(35) . . .
46(4) . . .
42.8(35) . . .
44.0(35) . . .
41.3(34) . . .
44(4) . . .
41(4) . . .
43.4(35) . . .
43.3(35) . . .
34.8(32) . . .
36.3(32) . . .
36.9(33) . . .
41(4) . . .
38.0(32) . . .
42.0(35) . . .
44(4) . . .
35.0(34) . . .
41.7(34) . . .
40.3(33) . . .
32.9(30) . . .
38.8(34) . . .
45(4) . . .
47(4) . . .
33.5(30) . . .
48(4) . . .
42(4) . . .
45(4) . . .
41.9(33) . . .
46(4) . . .
35.5(32) . . .
45(4) . . .
45(4) . . .
48(4) . . .
40.9(33) . . .
52(4) . . .
42.4(34) . . .
61(4) . . .
48(4) . . .
42.2(34) . . .
38.0(34) . . .
31.0(30) . . .
39.9(33) . . .
44.3(34) . . .
39.3(34) . . .
47(4) . . .
53(4) . . .
55(4) . . .
44(4) . . .
50(4) . . .
44(4) . . .
44(4) . . .
43.8(35) . . .
40.0(33) . . .
35.8(32) . . .
43(4) . . .
44(4) . . .
44(4) . . .
35.9(31) . . .
42(4) . . .
35.5(33) . . .
45(4) . . .
42.8(34) . . .
50(4) . . .
32.8(31) . . .
46(4) . . .
39.5(34) . . .
45(4) . . .
50(4) . . .
42.0(34) . . .
38.8(35) . . .
56(4) . . .
41.4(33) . . .
34.5(31) . . .
48(4) . . .
47(4) . . .
37.4(32) . . .
41.1(33) . . .
42.3(34) . . .
44(4) . . .
43(4) . . .
38.0(34) . . .
43.0(35) . . .
40.8(33) . . .
43(4) . . .
41(4) . . .
42(4) . . .
43.5(35) . . .
41.5(34) . . .
43.1(34) . . .
39.9(34) . . .
40.7(34) . . .
47(4) . . .
47(4) . . .
43(4) . . .
48(4) . . .
36.2(33) . . .
50(4) . . .
36.3(34) . . .
34.5(30) . . .
44.8(35) . . .
46(4) . . .
43.9(35) . . .
41.0(34) . . .
46(4) . . .
41.4(34) . . .
35.2(31) . . .
37.5(32) . . .
39.6(34) . . .
35.5(32) . . .
39.5(34) . . .
39.8(34) . . .
27.3(27) . . .
38.4(34) . . .
45(4) . . .
41.2(35) . . .
38.9(34) . . .
50(4) . . .
48(4) . . .
52(4) . . .
49(4) . . .
43.3(34) . . .
40.9(33) . . .
50(4) . . .
44(4) . . .
40.5(35) . . .
45(4) . . .
45.8(35) . . .
39.5(34) . . .
42(4) . . .
51(4) . . .
35.9(31) . . .
38.2(32) . . .
36.3(33) . . .
45(4) . . .
42.0(35) . . .
47(4) . . .
43.2(34) . . .
44(4) . . .
42(4) . . .
44(4) . . .
36.7(33) . . .
43.8(35) . . .
36.7(32) . . .
46(4) . . .
39.8(33) . . .
37.7(32) . . .
47(4) . . .
39.4(34) . . .
49(4) . . .
39.9(33) . . .
46(4) . . .
53(4) . . .
50(4) . . .
41.9(33) . . .
45(4) . . .
44.7(34) . . .
47(4) . . .
38.8(33) . . .
43(4) . . .
43.7(35) . . .
42.9(35) . . .
38.2(32) . . .
48(4) . . .
40.1(34) . . .
34.4(31) . . .
38.3(32) . . .
44(4) . . .
38.0(33) . . .
44.8(35) . . .
36.9(31) . . .
44.4(34) . . .
48(4) . . .
42(4) . . .
38.0(33) . . .
35.9(32) . . .
48(4) . . .
43.7(35) . . .
51(4) . . .
40(4) . . .
46(4) . . .
47(4) . . .
46(4) . . .
44(4) . . .
33.7(33) . . .
48(4) . . .
54(4) . . .
46(4) . . .
47(4) . . .
42(4) . . .
33.3(30) . . .
42.3(34) . . .
49(4) . . .
50(4) . . .
36.9(32) . . .
43.3(34) . . .
45(4) . . .
37.5(32) . . .
40(4) . . .
42.0(34) . . .
42.1(34) . . .
38.7(32) . . .
44(4) . . .
33.7(30) . . .
38.7(32) . . .
41.5(33) . . .
38.6(33) . . .
41.9(34) . . .
30.1(30) . . .
36.9(33) . . .
42.0(34) . . .
48(4) . . .
49(4) . . .
49(4) . . .
49(4) . . .
50(4) . . .
38.0(32) . . .
39(4) . . .
46(4) . . .
37.5(32) . . .
46(4) . . .
46(4) . . .
43(4) . . .
44(4) . . .
45(4) . . .
40.8(33) . . .
50(4) . . .
46(4) . . .
46(4) . . .
37.3(32) . . .
41.3(34) . . .
37.0(32) . . .
39(4) . . .
33.2(30) . . .
50(4) . . .
37.5(33) . . .
40.5(35) . . .
43(4) . . .
46(4) . . .
51(4) . . .
35.6(31) . . .
43.2(35) . . .
43(4) . . .
39(4) . . .
45.0(35) . . .
47(4) . . .
32.0(31) . . .
41(4) . . .
36.0(33) . . .
46(4) . . .
47(4) . . .
50(4) . . .
53(4) . . .
39.9(32) . . .
41.1(34) . . .
46(4) . . .
39.3(34) . . .
36.9(33) . . .
38.3(32) . . .
40.8(34) . . .
43(4) . . .
38.0(32) . . .
42(4) . . .
43.0(34) . . .
50(4) . . .
39.4(33) . . .
42(4) . . .
40.2(34) . . .
38.5(33) . . .
45.1(35) . . .
44(4) . . .
34.3(32) . . .
43.2(35) . . .
47(4) . . .
44(4) . . .
43(4) . . .
51(4) . . .
50(4) . . .
41.0(33) . . .
38.7(32) . . .
38.7(33) . . .
45(4) . . .
34.6(32) . . .
36.3(31) . . .
41(4) . . .
38.5(33) . . .
40.1(35) . . .
38.3(33) . . .
42.5(35) . . .
40.4(34) . . .
42(4) . . .
43.6(35) . . .
39.8(33) . . .
35.2(31) . . .
47(4) . . .
43(4) . . .
44(4) . . .
39.0(34) . . .
44.0(35) . . .
49(4) . . .
49(4) . . .
49(4) . . .
52(4) . . .
40.8(33) . . .
44(4) . . .
44(4) . . .
40.7(34) . . .
44(4) . . .
35.2(31) . . .
47(4) . . .
48(4) . . .
50(4) . . .
48(4) . . .
52(4) . . .
44.6(35) . . .
38.8(33) . . .
41(4) . . .
43.5(34) . . .
45(4) . . .
41.3(34) . . .
43(4) . . .
52(4) . . .
51(4) . . .
45.8(35) . . .
35.1(30) . . .
43.1(35) . . .
38.3(33) . . .
36.0(31) . . .
38.3(33) . . .
48(4) . . .
52(4) . . .
45(4) . . .
43.6(34) . . .
34.1(31) . . .
37.5(32) . . .
40.7(35) . . .
42.0(35) . . .
39.2(32) . . .
45(4) . . .
38.1(32) . . .
32.2(31) . . .
36.8(32) . . .
44.5(34) . . .
46(4) . . .
45(4) . . .
39.3(34) . . .
45(4) . . .
37.3(32) . . .
45(4) . . .
48(4) . . .
40.5(34) . . .
42.0(35) . . .
41.8(34) . . .
48(4) . . .
46(4) . . .
45(4) . . .
35.9(32) . . .
34.2(31) . . .
36.0(32) . . .
33.7(31) . . .
43.3(34) . . .
42.5(34) . . .
46(4) . . .
38.3(33) . . .
42(4) . . .
45(4) . . .
43.3(34) . . .
35.3(32) . . .
29.4(29) . . .
31.9(31) . . .
35.5(33) . . .
42.7(34) . . .
38.5(33) . . .
38.0(34) . . .
46(4) . . .
41.2(34) . . .
44.4(35) . . .
38.3(33) . . .
44(4) . . .
48(4) . . .
42.6(35) . . .
49(4) . . .
53(4) . . .
36.0(31) . . .
38.7(35) . . .
36.8(33) . . .
39.1(32) . . .
49(4) . . .
50(4) . . .
50(4) . . .
42.0(34) . . .
42(4) . . .
40.3(34) . . .
33.8(30) . . .
41(4) . . .
42.5(34) . . .
40.0(33) . . .
35.7(32) . . .
45(4) . . .
38.6(32) . . .
47(4) . . .
39.6(33) . . .
38.5(33) . . .
42(4) . . .
41(4) . . .
33.8(30) . . .
43.7(34) . . .
46(4) . . .
41(4) . . .
44.8(35) . . .
55(4) . . .
38.0(31) . . .
41(4) . . .
36.3(33) . . .
40.6(35) . . .
41.0(34) . . .
46(4) . . .
48(4) . . .
48(4) . . .
41(4) . . .
44.5(35) . . .
43.2(34) . . .
53(4) . . .
43.6(35) . . .
47(4) . . .
33.1(30) . . .
47(4) . . .
41.1(34) . . .
39.3(34) . . .
37.0(32) . . .
48(4) . . .
38.6(32) . . .
36.3(32) . . .
41(4) . . .
32.3(32) . . .
39.5(33) . . .
40.2(33) . . .
41.6(32) . . .
45(4) . . .
43(4) . . .
49(4) . . .
53(4) . . .
37.9(32) . . .
36.6(33) . . .
34.0(32) . . .
46(4) . . .
48(4) . . .
32.0(31) . . .
38.4(34) . . .
43.2(35) . . .
36.8(32) . . .
37.2(32) . . .
36.6(33) . . .
33.5(32) . . .
37.0(32) . . .
41.2(34) . . .
45(4) . . .
38.6(34) . . .
40(4) . . .
40.8(33) . . .
37.7(32) . . .
40(4) . . .
38.9(34) . . .
33.8(32) . . .
41.1(35) . . .
46(4) . . .
42.3(35) . . .
37.2(33) . . .
38.4(33) . . .
38.0(33) . . .
33.8(30) . . .
39.1(33) . . .
44(4) . . .
45(4) . . .
41.8(34) . . .
44.4(35) . . .
42(4) . . .
41(4) . . .
44(4) . . .
37.1(32) . . .
35.3(30) . . .
39.8(33) . . .
38.6(33) . . .
34.2(31) . . .
40.1(33) . . .
35.2(32) . . .
34.3(32) . . .
42(4) . . .
49(4) . . .
41.8(34) . . .
41.1(35) . . .
50(4) . . .
34.6(31) . . .
43.6(35) . . .
47(4) . . .
35.2(31) . . .
30.9(30) . . .
37.9(34) . . .
36.0(33) . . .
42.9(34) . . .
42.7(35) . . .
33.5(33) . . .
36.4(34) . . .
40.6(34) . . .
38.3(32) . . .
38.6(34) . . .
51(4) . . .
45(4) . . .
41.3(34) . . .
46(4) . . .
44(4) . . .
46(4) . . .
37.3(33) . . .
41.6(35) . . .
42(4) . . .
46(4) . . .
39.4(34) . . .
44.8(35) . . .
36.7(31) . . .
42.7(34) . . .
40(4) . . .
37.4(35) . . .
41.2(35) . . .
38.9(33) . . .
45(4) . . .
49(4) . . .
42(4) . . .
46(4) . . .
36.7(31) . . .
49(4) . . .
38.1(32) . . .
38.2(35) . . .
47(4) . . .
48(4) . . .
30.8(29) . . .
40.5(34) . . .
43(4) . . .
36.8(34) . . .
34.9(32) . . .
40.1(33) . . .
51(4) . . .
49(4) . . .
48(4) . . .
39.7(33) . . .
44(4) . . .
48(4) . . .
43(4) . . .
44.5(35) . . .
48(4) . . .
39.7(33) . . .
38.4(33) . . .
44(4) . . .
45(4) . . .
39.9(34) . . .
40.6(33) . . .
50(4) . . .
47(4) . . .
37.7(32) . . .
33.7(30) . . .
38.5(33) . . .
44(4) . . .
43(4) . . .
42.2(35) . . .
35.5(32) . . .
41.9(34) . . .
44(4) . . .
37.9(33) . . .
42.4(34) . . .
40.2(33) . . .
37.8(32) . . .
43(4) . . .
49(4) . . .
39.4(33) . . .
40.1(33) . . .
42.6(35) . . .
35.7(31) . . .
41.4(34) . . .
44.7(35) . . .
35.5(31) . . .
35.9(31) . . .
42(4) . . .
39.4(34) . . .
34.4(31) . . .
42.5(35) . . .
38.2(33) . . .
45(4) . . .
45(4) . . .
40.2(33) . . .
41.4(34) . . .
47(4) . . .
48(4) . . .
47(4) . . .
44.7(35) . . .
52(4) . . .
48(4) . . .
50(4) . . .
45(4) . . .
40.6(33) . . .
46(4) . . .
43(4) . . .
36.9(34) . . .
44(4) . . .
50(4) . . .
46(4) . . .
35.2(31) . . .
41(4) . . .
45(4) . . .
50(4) . . .
43(4) . . .
37.1(33) . . .
38.0(33) . . .
49(4) . . .
44.6(35) . . .
36.9(32) . . .
45(4) . . .
37.3(32) . . .
36.9(32) . . .
50(4) . . .
52(4) . . .
48(4) . . .
45(4) . . .
43(4) . . .
40.6(33) . . .
39.0(33) . . .
51(4) . . .
38.7(32) . . .
38.9(33) . . .
34.4(30) . . .
39.8(34) . . .
40(4) . . .
44(4) . . .
30.6(29) . . .
52(4) . . .
32.4(30) . . .
38.1(35) . . .
46(4) . . .
42.3(34) . . .
50(4) . . .
41.1(35) . . .
38.9(34) . . .
41.2(34) . . .
42.6(34) . . .
49(4) . . .
40.0(33) . . .
46(4) . . .
37.5(34) . . .
50(4) . . .
35.8(33) . . .
34.5(32) . . .
41(4) . . .
38.6(33) . . .
36.3(31) . . .
43.3(35) . . .
36.4(32) . . .
47(4) . . .
39.3(33) . . .
37.3(32) . . .
52(4) . . .
46(4) . . .
50(4) . . .
41.8(33) . . .
34.2(31) . . .
47(4) . . .
43(4) . . .
46(4) . . .
44.8(35) . . .
47(4) . . .
43(4) . . .
42.9(35) . . .
43.4(34) . . .
34.1(30) . . .
32.8(30) . . .
43.3(35) . . .
46(4) . . .
36.6(32) . . .
41.8(34) . . .
46(4) . . .
46(4) . . .
43(4) . . .
37.1(32) . . .
50(4) . . .
29.9(29) . . .
38.3(33) . . .
39.3(35) . . .
40.2(33) . . .
45.4(35) . . .
37.9(33) . . .
33.1(31) . . .
33.4(33) . . .
51(4) . . .
36.8(32) . . .
42(4) . . .
49(4) . . .
42.5(35) . . .
34.6(31) . . .
31.8(29) . . .
38.0(32) . . .
34.4(32) . . .
41(4) . . .
30.3(31) . . .
36.5(31) . . .
42.3(35) . . .
36.6(32) . . .
37.2(32) . . .
35.9(32) . . .
45.6(35) . . .
31.6(30) . . .
39(4) . . .
43(4) . . .
33.4(30) . . .
45.0(35) . . .
44(4) . . .
40(4) . . .
40.5(34) . . .
36.8(33) . . .
45.9(35) . . .
41.4(34) . . .
51(4) . . .
41.5(34) . . .
35.0(31) . . .
38.5(32) . . .
39.6(34) . . .
39(4) . . .
37.8(33) . . .
39.1(32) . . .
43.6(35) . . .
44(4) . . .
44(4) . . .
41.2(34) . . .
43.2(34) . . .
33.9(31) . . .
50(4) . . .
40.8(35) . . .
41.9(35) . . .
40.7(33) . . .
38.5(32) . . .
31.9(30) . . .
43(4) . . .
39.0(32) . . .
41.4(33) . . .
42.6(33) . . .
40.5(35) . . .
31.4(32) . . .
37(4) . . .
38.0(32) . . .
36.8(32) . . .
40(4) . . .
32.3(31) . . .
38(4) . . .
36.6(31) . . .
33.5(31) . . .
42.3(34) . . .
50(4) . . .
42.2(35) . . .
35.9(31) . . .
40.6(34) . . .
39.1(33) . . .
46(4) . . .
44(4) . . .
38.3(32) . . .
33.2(30) . . .
38.1(33) . . .
47(4) . . .
38.1(33) . . .
37.4(32) . . .
50(4) . . .
45.6(34) . . .
43.5(34) . . .
38.2(32) . . .
37.3(32) . . .
38.7(33) . . .
45(4) . . .
42.9(33) . . .
38.6(32) . . .
35.3(31) . . .
42(4) . . .
34.3(31) . . .
46(4) . . .
40.1(33) . . .
37.8(32) . . .
41.4(34) . . .
39(4) . . .
41(4) . . .
42.0(33) . . .
51(4) . . .
42.0(34) . . .
38.2(32) . . .
47(4) . . .
47(4) . . .
46(4) . . .
47(4) . . .
42(4) . . .
38.8(33) . . .
39.7(34) . . .
41.1(33) . . .
48(4) . . .
35.7(32) . . .
46(4) . . .
37.5(33) . . .
40.8(33) . . .
35.2(33) . . .
27.6(30) . . .
31.3(31) . . .
34.8(31) . . .
47(4) . . .
45.2(35) . . .
44(4) . . .
46(4) . . .
40.8(34) . . .
42.8(35) . . .
44(4) . . .
38.3(32) . . .
39.1(32) . . .
48(4) . . .
41.1(34) . . .
37.8(33) . . .
38.9(35) . . .
40.0(34) . . .
49(4) . . .
48(4) . . .
38.5(35) . . .
39.2(33) . . .
40.5(33) . . .
36.8(32) . . .
38.8(33) . . .
44(4) . . .
41.5(33) . . .
45.7(35) . . .
38.4(33) . . .
43(4) . . .
42(4) . . .
39.5(34) . . .
40.7(33) . . .
33.2(30) . . .
30.6(29) . . .
39(4) . . .
34.8(31) . . .
43.6(35) . . .
37.8(32) . . .
45(4) . . .
45(4) . . .
43(4) . . .
41.7(33) . . .
42.4(34) . . .
40.0(34) . . .
56(4) . . .
50(4) . . .
42.6(34) . . .
54(4) . . .
43(4) . . .
31.5(31) . . .
34.1(31) . . .
41.9(34) . . .
38.8(33) . . .
42(4) . . .
47(4) . . .
36.0(35) . . .
49(4) . . .
48(4) . . .
31.5(28) . . .
43.1(34) . . .
39.4(33) . . .
37.7(32) . . .
31.9(31) . . .
40(4) . . .
44(4) . . .
42.1(33) . . .
40.0(33) . . .
38(4) . . .
47(4) . . .
43(4) . . .
51(4) . . .
44.8(35) . . .
41.1(34) . . .
28.7(27) . . .
37.7(32) . . .
34.2(30) . . .
34.0(30) . . .
41(4) . . .
35.8(33) . . .
40(4) . . .
42.9(34) . . .
43.4(35) . . .
45(4) . . .
46(4) . . .
55(4) . . .
33.2(30) . . .
39.6(32) . . .
30.1(29) . . .
33.6(32) . . .
52(4) . . .
40.7(34) . . .
36.8(32) . . .
50(4) . . .
43(4) . . .
41.3(35) . . .
47(4) . . .
48(4) . . .
41(4) . . .
40.8(34) . . .
40.3(33) . . .
26.3(26) . . .
38.0(33) . . .
39.5(34) . . .
47(4) . . .
46(4) . . .
37.6(32) . . .
35.6(31) . . .
37.0(32) . . .
33.7(31) . . .
45(4) . . .
53(4) . . .
46(4) . . .
50(4) . . .
42(4) . . .
32.9(30) . . .
41.1(33) . . .
39.3(33) . . .
40(4) . . .
31.0(30) . . .
40.0(33) . . .
39.5(33) . . .
37.4(34) . . .
42(4) . . .
41(4) . . .
41.4(35) . . .
39.5(33) . . .
41(4) . . .
38.7(34) . . .
32.6(30) . . .
38.8(34) . . .
42.8(34) . . .
43(4) . . .
48(4) . . .
37.5(33) . . .
41.9(34) . . .
44.5(34) . . .
39.7(34) . . .
35.9(34) . . .
36.2(31) . . .
42.0(34) . . .
40.1(34) . . .
34.5(32) . . .
40.6(35) . . .
42(4) . . .
38.1(32) . . .
38.0(33) . . .
41(4) . . .
41(4) . . .
46(4) . . .
37.3(32) . . .
39.6(33) . . .
48(4) . . .
46(4) . . .
42.8(34) . . .
36.8(31) . . .
57(4) . . .
43.1(34) . . .
54(4) . . .
48(4) . . .
38.3(33) . . .
42(4) . . .
42(4) . . .
41.8(35) . . .
35.6(32) . . .
41.0(34) . . .
41.7(34) . . .
39.0(34) . . .
34.0(31) . . .
48(4) . . .
43.8(34) . . .
38.7(33) . . .
31.7(28) . . .
37.2(31) . . .
41.5(33) . . .
40.9(33) . . .
44.3(35) . . .
43(4) . . .
47(4) . . .
41.3(33) . . .
46(4) . . .
34.6(30) . . .
44(4) . . .
42.4(35) . . .
40.3(32) . . .
39.5(34) . . .
36.9(32) . . .
26.3(29) . . .
42(4) . . .
37.9(32) . . .
30.7(30) . . .
40(4) . . .
42(4) . . .
39.5(34) . . .
43.8(35) . . .
46(4) . . .
37.6(32) . . .
33.8(30) . . .
37.1(32) . . .
36.8(32) . . .
35.2(31) . . .
46(4) . . .
45(4) . . .
37.4(32) . . .
39.1(33) . . .
49(4) . . .
42(4) . . .
41.8(35) . . .
42.2(34) . . .
42.2(34) . . .
30.3(28) . . .
39.8(33) . . .
46(4) . . .
29.5(28) . . .
39.0(33) . . .
36.6(33) . . .
41(4) . . .
35.7(31) . . .
47(4) . . .
40.5(33) . . .
34.6(31) . . .
36.5(32) . . .
42(4) . . .
41.6(34) . . .
43.0(34) . . .
39(4) . . .
41(4) . . .
41.8(34) . . .
38.0(33) . . .
36.7(31) . . .
48(4) . . .
37.0(34) . . .
40.6(35) . . .
41.3(33) . . .
50(4) . . .
46(4) . . .
36.5(35) . . .
34.3(33) . . .
42.6(34) . . .
37.9(32) . . .
34.8(30) . . .
39.3(34) . . .
35.9(32) . . .
25.8(26) . . .
40.1(33) . . .
44(4) . . .
51(4) . . .
40.9(33) . . .
49(4) . . .
42.4(33) . . .
45(4) . . .
37.3(33) . . .
43(4) . . .
39.6(33) . . .
41(4) . . .
43(4) . . .
41.5(34) . . .
44(4) . . .
36.0(32) . . .
35.9(32) . . .
36.2(32) . . .
38.4(32) . . .
45(4) . . .
40.7(33) . . .
30.8(31) . . .
41(4) . . .
39.4(33) . . .
39.7(34) . . .
38.8(32) . . .
40.5(33) . . .
56(4) . . .
48(4) . . .
40.8(34) . . .
37.3(32) . . .
44.3(35) . . .
38.8(33) . . .
45(4) . . .
39.2(33) . . .
34.9(32) . . .
44(4) . . .
38.1(34) . . .
48(4) . . .
29.2(28) . . .
40.0(33) . . .
41.4(33) . . .
38.4(35) . . .
41.4(35) . . .
44.8(35) . . .
41.6(33) . . .
42.3(35) . . .
43(4) . . .
40.5(34) . . .
35.0(31) . . .
46(4) . . .
39.7(33) . . .
44(4) . . .
37.8(33) . . .
36.2(31) . . .
40.8(34) . . .
47(4) . . .
45(4) . . .
33.7(30) . . .
38.3(32) . . .
48(4) . . .
37.3(33) . . .
42.8(35) . . .
39.8(34) . . .
27.3(28) . . .
32.2(30) . . .
44(4) . . .
36.3(33) . . .
39.1(34) . . .
37.6(32) . . .
40.0(33) . . .
50(4) . . .
37.6(33) . . .
41.3(33) . . .
42.9(34) . . .
45(4) . . .
42(4) . . .
43(4) . . .
33.8(31) . . .
36.5(31) . . .
38.2(33) . . .
39.5(35) . . .
38.9(34) . . .
40.2(34) . . .
43(4) . . .
47(4) . . .
43(4) . . .
47(4) . . .
34.8(31) . . .
37.0(33) . . .
33.4(32) . . .
40(4) . . .
43(4) . . .
41.4(34) . . .
35.3(31) . . .
36.6(34) . . .
43(4) . . .
42.2(35) . . .
41.3(34) . . .
37.5(31) . . .
34.2(32) . . .
42(4) . . .
37.6(34) . . .
43.1(34) . . .
44.0(35) . . .
34.9(31) . . .
34.6(32) . . .
45(4) . . .
42.2(34) . . .
42.3(34) . . .
46(4) . . .
38.9(34) . . .
39.0(34) . . .
43.0(34) . . .
38.2(32) . . .
41.5(34) . . .
33.1(30) . . .
38.4(33) . . .
30.5(29) . . .
35.8(31) . . .
38.2(34) . . .
48(4) . . .
45(4) . . .
43.4(34) . . .
29.4(30) . . .
27.5(28) . . .
41.2(35) . . .
38.4(32) . . .
39.9(33) . . .
35.1(33) . . .
36.4(33) . . .
39.6(34) . . .
40.9(33) . . .
43.7(35) . . .
44.9(35) . . .
43(4) . . .
47(4) . . .
39.8(33) . . .
42.6(34) . . .
43(4) . . .
40(4) . . .
38.8(33) . . .
38.7(33) . . .
37.3(31) . . .
34.1(31) . . .
40(4) . . .
37.2(32) . . .
38.2(32) . . .
48(4) . . .
40.0(33) . . .
41(4) . . .
36.2(33) . . .
40.0(34) . . .
41.7(34) . . .
34.8(33) . . .
33.4(32) . . .
40.0(34) . . .
35.7(32) . . .
43.3(34) . . .
45(4) . . .
42.1(35) . . .
41.4(34) . . .
38.3(33) . . .
32.3(30) . . .
36.1(32) . . .
43.1(35) . . .
39.3(34) . . .
28.7(28) . . .
38.1(34) . . .
40(4) . . .
41(4) . . .
46(4) . . .
43.8(34) . . .
47(4) . . .
46(4) . . .
50(4) . . .
41.5(33) . . .
46(4) . . .
50(4) . . .
40.9(35) . . .
47(4) . . .
30.7(29) . . .
41.8(34) . . .
48(4) . . .
42(4) . . .
37.7(32) . . .
34.3(31) . . .
36.9(32) . . .
44(4) . . .
38.8(35) . . .
36.9(32) . . .
36.0(31) . . .
45(4) . . .
33.8(31) . . .
38.7(34) . . .
39.1(33) . . .
40.6(33) . . .
37.2(32) . . .
34.8(30) . . .
38(4) . . .
29.1(29) . . .
48(4) . . .
40.3(33) . . .
39.2(35) . . .
45(4) . . .
32.7(30) . . .
38.2(32) . . .
35.9(31) . . .
44(4) . . .
42.1(34) . . .
43(4) . . .
50(4) . . .
37.6(32) . . .
40.3(34) . . .
43.9(34) . . .
48(4) . . .
46(4) . . .
44.2(34) . . .
40.3(33) . . .
41.8(33) . . .
40.6(34) . . .
39.0(33) . . .
38.0(32) . . .
44(4) . . .
43(4) . . .
40.8(33) . . .
38.1(33) . . .
34.0(30) . . .
38.1(32) . . .
40.5(33) . . .
38.7(32) . . .
39.5(33) . . .
33.7(32) . . .
43(4) . . .
40.5(34) . . .
40.5(34) . . .
40.0(34) . . .
40.0(34) . . .
36.7(33) . . .
35.2(35) . . .
45(4) . . .
43.5(35) . . .
47(4) . . .
41(4) . . .
30.6(28) . . .
48(4) . . .
54(4) . . .
37.8(32) . . .
38.4(33) . . .
39.7(33) . . .
33.3(30) . . .
43.0(34) . . .
39.4(34) . . .
42(4) . . .
37.5(32) . . .
37.6(32) . . .
35.3(31) . . .
45(4) . . .
44(4) . . .
45(4) . . .
39.2(33) . . .
39.9(34) . . .
49(4) . . .
42.5(35) . . .
40.5(33) . . .
42.4(34) . . .
44(4) . . .
39.7(34) . . .
41.1(35) . . .
46(4) . . .
33.4(30) . . .
39.1(34) . . .
31.0(31) . . .
36.6(34) . . .
41.9(35) . . .
39.2(32) . . .
43(4) . . .
40(4) . . .
42(4) . . .
37.8(33) . . .
34.9(31) . . .
45(4) . . .
48(4) . . .
46(4) . . .
39.5(34) . . .
44.4(35) . . .
42(4) . . .
32.0(31) . . .
41(4) . . .
40.8(34) . . .
38.2(32) . . .
40.0(32) . . .
51(4) . . .
42(4) . . .
38.9(34) . . .
48(4) . . .
35.3(31) . . .
38.4(34) . . .
36.7(32) . . .
40.9(33) . . .
45.6(35) . . .
41(4) . . .
40.2(34) . . .
38.4(32) . . .
43.9(35) . . .
39.1(33) . . .
34.3(33) . . .
45(4) . . .
39.2(33) . . .
43.7(34) . . .
41.8(34) . . .
43(4) . . .
31.2(31) . . .
45(4) . . .
40.2(33) . . .
43(4) . . .
42(4) . . .
45(4) . . .
44(4) . . .
54(4) . . .
39.8(35) . . .
44(4) . . .
35.7(31) . . .
36.0(31) . . .
38.7(33) . . .
31.9(31) . . .
31.5(30) . . .
37.5(33) . . .
35.1(30) . . .
41.8(34) . . .
42(4) . . .
48(4) . . .
39.0(34) . . .
25.6(27) . . .
41.1(34) . . .
33.4(31) . . .
38.3(33) . . .
48(4) . . .
39.4(32) . . .
37.4(32) . . .
39.0(32) . . .
37.5(34) . . .
30.8(29) . . .
37.4(32) . . .
33.0(30) . . .
34.9(33) . . .
34.0(34) . . .
38.8(35) . . .
43.8(34) . . .
35.7(31) . . .
56(4) . . .
44(4) . . .
38.7(33) . . .
47(4) . . .
39.3(33) . . .
36.0(31) . . .
44(4) . . .
35.3(32) . . .
36.0(31) . . .
31.5(30) . . .
39.4(33) . . .
44(4) . . .
42.8(34) . . .
43.0(34) . . .
30.6(30) . . .
43(4) . . .
41(4) . . .
35.9(33) . . .
40.3(33) . . .
35.7(32) . . .
45(4) . . .
49(4) . . .
51(4) . . .
33.7(30) . . .
36.4(33) . . .
35.8(34) . . .
46(4) . . .
36.1(32) . . .
38.6(33) . . .
47(4) . . .
40.2(35) . . .
39.5(34) . . .
43.8(35) . . .
35.7(31) . . .
32.4(29) . . .
46(4) . . .
41.2(34) . . .
40.4(35) . . .
39.7(32) . . .
38.6(34) . . .
33.9(32) . . .
45(4) . . .
48(4) . . .
37.0(32) . . .
37.8(32) . . .
44(4) . . .
37.7(33) . . .
43.0(34) . . .
42.0(34) . . .
37.3(32) . . .
45(4) . . .
46(4) . . .
38.7(32) . . .
38.7(32) . . .
38.6(34) . . .
40(4) . . .
41(4) . . .
30.4(29) . . .
42.0(35) . . .
39(4) . . .
36.7(33) . . .
42(4) . . .
43.3(35) . . .
42.9(34) . . .
39.3(35) . . .
37.0(33) . . .
35.3(32) . . .
33.3(30) . . .
44(4) . . .
47(4) . . .
41.0(34) . . .
51(4) . . .
41.3(33) . . .
46(4) . . .
38.8(33) . . .
45(4) . . .
41.8(33) . . .
35.9(31) . . .
29.1(31) . . .
37.3(33) . . .
47(4) . . .
37.5(32) . . .
39.2(33) . . .
38.4(34) . . .
43(4) . . .
45(4) . . .
41.7(33) . . .
41.8(34) . . .
40.0(35) . . .
43(4) . . .
45(4) . . .
37.3(32) . . .
42.2(34) . . .
43(4) . . .
36.6(33) . . .
35.3(31) . . .
40.7(33) . . .
47(4) . . .
43(4) . . .
37.8(35) . . .
44(4) . . .
40.0(32) . . .
33.4(30) . . .
44(4) . . .
32.4(31) . . .
41(4) . . .
35.6(32) . . .
36.5(32) . . .
40.1(34) . . .
37.5(33) . . .
38.1(33) . . .
46(4) . . .
47(4) . . .
47(4) . . .
41.1(35) . . .
43(4) . . .
46(4) . . .
35.8(32) . . .
41.8(35) . . .
40.9(34) . . .
38.3(32) . . .
44.0(34) . . .
33.2(32) . . .
43(4) . . .
38.0(32) . . .
33.8(31) . . .
31.2(29) . . .
38.5(35) . . .
30.7(29) . . .
32.8(30) . . .
38.2(32) . . .
37.0(31) . . .
39.9(33) . . .
39.4(35) . . .
46(4) . . .
40.7(33) . . .
52(4) . . .
39.7(35) . . .
32.1(30) . . .
42.7(35) . . .
34.9(31) . . .
42.2(34) . . .
38.7(34) . . .
37.3(33) . . .
56(4) . . .
46(4) . . .
38.0(32) . . .
38.8(32) . . .
43(4) . . .
38.6(35) . . .
41.0(33) . . .
32.0(30) . . .
33.5(31) . . .
42(4) . . .
40.4(34) . . .
40.4(34) . . .
49(4) . . .
45(4) . . .
44(4) . . .
50(4) . . .
48(4) . . .
50(4) . . .
39.8(33) . . .
35.1(32) . . .
38.6(33) . . .
32.6(30) . . .
50(4) . . .
40(4) . . .
42(4) . . .
41.3(34) . . .
32.9(29) . . .
35.8(32) . . .
34.2(32) . . .
45(4) . . .
44.3(35) . . .
29.6(28) . . .
34.8(33) . . .
37.2(34) . . .
37.2(33) . . .
41.0(34) . . .
40.2(33) . . .
40.1(35) . . .
45(4) . . .
32.9(30) . . .
31.9(30) . . .
39.7(32) . . .
47(4) . . .
42(4) . . .
36.4(32) . . .
32.0(29) . . .
39.6(33) . . .
35.5(32) . . .
40(4) . . .
40.5(34) . . .
44(4) . . .
39.8(33) . . .
41(4) . . .
32.9(31) . . .
44(4) . . .
30.7(29) . . .
39.9(33) . . .
38.1(33) . . .
36(4) . . .
25.6(28) . . .
40.6(33) . . .
35.9(32) . . .
48(4) . . .
42.5(35) . . .
41.6(33) . . .
40.8(33) . . .
38.7(32) . . .
37(4) . . .
45(4) . . .
42.3(34) . . .
40.0(33) . . .
41.1(34) . . .
49(4) . . .
43(4) . . .
38.4(33) . . .
45(4) . . .
46(4) . . .
45(4) . . .
34.9(31) . . .
36.0(31) . . .
40.7(33) . . .
46(4) . . .
36.3(33) . . .
34.3(31) . . .
42.0(35) . . .
42.6(34) . . .
45(4) . . .
39.0(34) . . .
35.6(31) . . .
40.1(33) . . .
37.5(32) . . .
39.6(35) . . .
47(4) . . .
49(4) . . .
32.5(31) . . .
38.8(33) . . .
34.5(33) . . .
38(4) . . .
35.2(33) . . .
34.2(30) . . .
30.4(29) . . .
35.8(32) . . .
43(4) . . .
46(4) . . .
37.8(33) . . .
35.7(31) . . .
34.8(31) . . .
36.6(34) . . .
43.5(35) . . .
41.8(34) . . .
44.7(35) . . .
34.6(33) . . .
43(4) . . .
36.2(31) . . .
39.8(33) . . .
36.9(32) . . .
35.8(32) . . .
33.1(30) . . .
43(4) . . .
37.7(32) . . .
36.0(34) . . .
31.2(30) . . .
48(4) . . .
49(4) . . .
36.6(31) . . .
33.7(31) . . .
45(4) . . .
41.7(35) . . .
40.3(34) . . .
46(4) . . .
43(4) . . .
39.9(34) . . .
44.8(35) . . .
44.1(35) . . .
40.2(33) . . .
40(4) . . .
35.8(32) . . .
44(4) . . .
39.6(33) . . .
35.0(31) . . .
36.2(33) . . .
41(4) . . .
45(4) . . .
41.6(33) . . .
40.2(33) . . .
28.3(27) . . .
39.7(35) . . .
42.6(35) . . .
35.2(30) . . .
43.1(35) . . .
48(4) . . .
41.4(34) . . .
44(4) . . .
35.3(31) . . .
39.4(33) . . .
44(4) . . .
40(4) . . .
42.9(35) . . .
44.2(34) . . .
37.7(32) . . .
35.8(33) . . .
31.4(32) . . .
38.4(33) . . .
46(4) . . .
36.4(32) . . .
43(4) . . .
39.0(35) . . .
33.5(31) . . .
38.9(32) . . .
32.9(31) . . .
27.7(27) . . .
40.5(34) . . .
49(4) . . .
39.7(33) . . .
47(4) . . .
43(4) . . .
34.0(32) . . .
38.7(35) . . .
40.2(33) . . .
43(4) . . .
34.9(33) . . .
41.2(35) . . .
33.9(30) . . .
41.6(33) . . .
35.8(31) . . .
33.0(30) . . .
46(4) . . .
42.6(34) . . .
36.6(31) . . .
39.3(34) . . .
44(4) . . .
37.6(32) . . .
43.4(34) . . .
53(4) . . .
42.1(35) . . .
40(4) . . .
41(4) . . .
40.7(32) . . .
51(4) . . .
48(4) . . .
42(4) . . .
36.7(33) . . .
36.5(32) . . .
49(4) . . .
50(4) . . .
44(4) . . .
46(4) . . .
39.8(33) . . .
48(4) . . .
47(4) . . .
37.7(35) . . .
40.7(35) . . .
46(4) . . .
37.9(33) . . .
37.6(33) . . .
41.9(35) . . .
37.3(35) . . .
39.2(33) . . .
32.6(29) . . .
35.3(33) . . .
36.1(32) . . .
44(4) . . .
51(4) . . .
45(4) . . .
33.6(30) . . .
43(4) . . .
38.7(33) . . .
38.1(31) . . .
31.3(32) . . .
40.7(35) . . .
45(4) . . .
33.4(30) . . .
39.1(33) . . .
39.8(34) . . .
33.4(31) . . .
35.0(31) . . .
53(4) . . .
48(4) . . .
39.8(33) . . .
36.2(31) . . .
45(4) . . .
50(4) . . .
43.0(34) . . .
39.1(33) . . .
43(4) . . .
35.3(32) . . .
31.5(30) . . .
49(4) . . .
45(4) . . .
41(4) . . .
45(4) . . .
40.1(33) . . .
36.0(31) . . .
36.2(32) . . .
46(4) . . .
41.0(33) . . .
43.3(34) . . .
38.0(32) . . .
40.2(34) . . .
43(4) . . .
45(4) . . .
36.5(31) . . .
32.5(31) . . .
43(4) . . .
33.7(34) . . .
33.6(31) . . .
41.8(34) . . .
37.7(32) . . .
42(4) . . .
34.9(31) . . .
34.5(32) . . .
37.0(32) . . .
31.8(29) . . .
51(4) . . .
39.5(34) . . .
45(4) . . .
49(4) . . .
48(4) . . .
49(4) . . .
31.6(30) . . .
34.5(32) . . .
36.0(32) . . .
41(4) . . .
33.8(33) . . .
39(4) . . .
43.6(34) . . .
46(4) . . .
33.3(30) . . .
35.2(34) . . .
37.8(34) . . .
39.6(33) . . .
37.7(32) . . .
44(4) . . .
42.6(35) . . .
50(4) . . .
46(4) . . .
41.3(34) . . .
41.2(34) . . .
38.8(34) . . .
38.2(33) . . .
35.8(31) . . .
48(4) . . .
44(4) . . .
39.3(33) . . .
50(4) . . .
49(4) . . .
32.9(29) . . .
32.7(31) . . .
43(4) . . .
53(4) . . .
37.4(32) . . .
39.9(33) . . .
37.4(34) . . .
38.0(34) . . .
40.2(34) . . .
41.4(34) . . .
47(4) . . .
40.2(33) . . .
36.8(33) . . .
36.0(32) . . .
34.8(31) . . .
39.0(34) . . .
45(4) . . .
38.6(33) . . .
45(4) . . .
36.9(32) . . .
49(4) . . .
39.6(35) . . .
45(4) . . .
36.1(33) . . .
37.2(32) . . .
43(4) . . .
46(4) . . .
37.9(33) . . .
44(4) . . .
41.8(34) . . .
36.2(32) . . .
34.4(31) . . .
43(4) . . .
31.6(29) . . .
37.0(32) . . .
50(4) . . .
37.2(33) . . .
37.3(32) . . .
48(4) . . .
46(4) . . .
30.7(29) . . .
32.2(30) . . .
45(4) . . .
40.5(33) . . .
51(4) . . .
41.5(35) . . .
40(4) . . .
35.3(31) . . .
46(4) . . .
51(4) . . .
42.7(34) . . .
45(4) . . .
44(4) . . .
40.7(33) . . .
35.6(31) . . .
42(4) . . .
39(4) . . .
31.9(31) . . .
44.8(35) . . .
47(4) . . .
39.2(33) . . .
30.1(29) . . .
48(4) . . .
45(4) . . .
42.0(33) . . .
42.3(35) . . .
34.4(30) . . .
41.1(34) . . .
37.6(32) . . .
36.2(34) . . .
43(4) . . .
35.1(33) . . .
36.5(31) . . .
38.5(33) . . .
42(4) . . .
40(4) . . .
36.8(33) . . .
40.0(33) . . .
44.3(34) . . .
39(4) . . .
38(4) . . .
39.8(35) . . .
38.8(32) . . .
38.7(32) . . .
43(4) . . .
39(4) . . .
33.8(33) . . .
44(4) . . .
44(4) . . .
50(4) . . .
43(4) . . .
28.0(29) . . .
38.1(33) . . .
49(4) . . .
47(4) . . .
44(4) . . .
50(4) . . .
44.1(34) . . .
41.3(35) . . .
48(4) . . .
42(4) . . .
38.8(34) . . .
28.1(28) . . .
30.3(29) . . .
44(4) . . .
37.5(34) . . .
34.8(31) . . .
44.4(35) . . .
42.5(33) . . .
34.6(31) . . .
35.7(33) . . .
42.0(35) . . .
50(4) . . .
47(4) . . .
40(4) . . .
36.3(34) . . .
35.5(32) . . .
40.3(34) . . .
37.7(33) . . .
46(4) . . .
35.6(31) . . .
40.1(33) . . .
40.6(33) . . .
45(4) . . .
43.5(35) . . .
37.7(32) . . .
41.9(35) . . .
42.5(34) . . .
36.5(33) . . .
32.4(30) . . .
43(4) . . .
38.3(33) . . .
41.3(34) . . .
40.3(35) . . .
37(4) . . .
32.2(30) . . .
41.3(33) . . .
44.6(34) . . .
45(4) . . .
36.3(32) . . .
51(4) . . .
36.9(31) . . .
43.4(34) . . .
35.4(31) . . .
38.8(35) . . .
35.7(34) . . .
40.3(33) . . .
46(4) . . .
37.7(34) . . .
30.5(32) . . .
33.2(31) . . .
39.3(33) . . .
38.2(32) . . .
45(4) . . .
36.2(34) . . .
29.9(30) . . .
39.7(33) . . .
38.0(32) . . .
44(4) . . .
39.1(33) . . .
45(4) . . .
52(4) . . .
51(4) . . .
41.9(33) . . .
43(4) . . .
40.2(35) . . .
30.7(30) . . .
30.3(31) . . .
36.4(32) . . .
34.5(32) . . .
42(4) . . .
35.9(31) . . .
27.9(28) . . .
43(4) . . .
39.6(35) . . .
41.5(34) . . .
35.6(32) . . .
39.7(34) . . .
36.8(32) . . .
37.4(33) . . .
34.3(31) . . .
47(4) . . .
50(4) . . .
34.7(32) . . .
42(4) . . .
42.0(34) . . .
32.7(30) . . .
36.6(33) . . .
41(4) . . .
40.1(34) . . .
35.2(32) . . .
34.0(30) . . .
47(4) . . .
46(4) . . .
44(4) . . .
40.1(33) . . .
37.7(32) . . .
47(4) . . .
35.5(32) . . .
41(4) . . .
41.2(33) . . .
47(4) . . .
39.4(33) . . .
35.3(31) . . .
45.7(35) . . .
45(4) . . .
39.8(34) . . .
40.4(34) . . .
38.3(34) . . .
30.7(28) . . .
43.9(34) . . .
38.7(34) . . .
40.5(34) . . .
43(4) . . .
45(4) . . .
48(4) . . .
45.3(35) . . .
36.1(30) . . .
43(4) . . .
45(4) . . .
36.8(31) . . .
38.7(34) . . .
45(4) . . .
36.1(31) . . .
41(4) . . .
38.4(32) . . .
45(4) . . .
32.3(33) . . .
32.0(31) . . .
47(4) . . .
38.6(33) . . .
41.1(35) . . .
41(4) . . .
30.7(29) . . .
42.2(34) . . .
37.6(32) . . .
41.0(34) . . .
43(4) . . .
34.8(31) . . .
35.8(31) . . .
40.7(33) . . .
36.2(31) . . .
32.2(30) . . .
44(4) . . .
38.2(32) . . .
44(4) . . .
40.3(32) . . .
47(4) . . .
47(4) . . .
44.0(35) . . .
39.5(33) . . .
40.2(34) . . .
39.3(35) . . .
34.1(31) . . .
39.4(33) . . .
41.7(34) . . .
42.3(34) . . .
42(4) . . .
40.8(34) . . .
46.1(35) . . .
47(4) . . .
40.0(34) . . .
28.6(29) . . .
41.2(35) . . .
41.3(34) . . .
33.4(31) . . .
42.6(34) . . .
30.5(28) . . .
41.5(35) . . .
39.8(33) . . .
32.8(30) . . .
50(4) . . .
40.8(34) . . .
30.3(28) . . .
43.6(35) . . .
45(4) . . .
39.4(35) . . .
44(4) . . .
32.0(30) . . .
41.5(33) . . .
45(4) . . .
38.6(33) . . .
39.2(34) . . .
27.7(29) . . .
37.9(32) . . .
40(4) . . .
40.1(35) . . .
37.8(33) . . .
32.5(30) . . .
37.3(32) . . .
39(4) . . .
38.8(34) . . .
34.7(31) . . .
39.4(33) . . .
37.0(31) . . .
33.7(33) . . .
31.5(30) . . .
37.1(32) . . .
40.0(33) . . .
36.5(32) . . .
38.0(33) . . .
39.9(34) . . .
47(4) . . .
44.3(34) . . .
39.4(33) . . .
43(4) . . .
37.8(33) . . .
38.6(32) . . .
45.1(35) . . .
39.7(34) . . .
39.4(34) . . .
39.1(35) . . .
46(4) . . .
36.5(31) . . .
33.4(31) . . .
40.7(34) . . .
49(4) . . .
54(4) . . .
50(4) . . .
39.1(34) . . .
32.3(30) . . .
45(4) . . .
38.8(35) . . .
31.1(29) . . .
40.3(33) . . .
43.3(35) . . .
48(4) . . .
28.7(27) . . .
46(4) . . .
43.1(35) . . .
41.9(34) . . .
37.2(31) . . .
31.3(29) . . .
32.7(29) . . .
31.4(29) . . .
32.0(29) . . .
35.3(32) . . .
31.0(29) . . .
30.4(28) . . .
44(4) . . .
36.4(33) . . .
36.3(32) . . .
33.0(30) . . .
38.9(33) . . .
44.9(35) . . .
38.5(35) . . .
42.2(35) . . .
38.4(32) . . .
31.7(29) . . .
45(4) . . .
41(4) . . .
35.7(33) . . .
37.4(32) . . .
37.1(32) . . .
37.0(32) . . .
54(4) . . .
49(4) . . .
41.7(33) . . .
34.5(30) . . .
34.8(31) . . .
35.3(33) . . .
42(4) . . .
38.1(32) . . .
39.0(32) . . .
31.6(29) . . .
32.7(30) . . .
32.8(30) . . .
44.1(34) . . .
41(4) . . .
34.1(31) . . .
33.0(33) . . .
34.8(31) . . .
41.8(34) . . .
40.7(34) . . .
45(4) . . .
41.1(34) . . .
37.5(33) . . .
37.4(32) . . .
36.6(33) . . .
39(4) . . .
44(4) . . .
34.0(31) . . .
33.6(31) . . .
36.7(34) . . .
35.9(33) . . .
36.6(32) . . .
40.8(33) . . .
47(4) . . .
36.6(32) . . .
41(4) . . .
40.9(35) . . .
45.0(35) . . .
42.3(34) . . .
39.0(34) . . .
38(4) . . .
30.9(31) . . .
41.3(33) . . .
35.7(31) . . .
39.1(33) . . .
26.4(28) . . .
43(4) . . .
38.6(32) . . .
39.2(33) . . .
40.3(34) . . .
36.7(34) . . .
40.1(34) . . .
34.9(31) . . .
38.5(33) . . .
42(4) . . .
35.0(32) . . .
40.1(34) . . .
35.5(31) . . .
32.1(29) . . .
35.9(32) . . .
35.4(33) . . .
38.5(35) . . .
38.1(32) . . .
39.5(34) . . .
35.3(31) . . .
34.8(32) . . .
31.7(30) . . .
37.3(32) . . .
34.1(31) . . .
36.5(34) . . .
35.4(31) . . .
30.3(30) . . .
40.6(33) . . .
39.6(33) . . .
42.3(35) . . .
40.7(34) . . .
49(4) . . .
43.9(34) . . .
43(4) . . .
38.4(34) . . .
42(4) . . .
40.3(34) . . .
32.1(30) . . .
39.9(34) . . .
48(4) . . .
39.8(35) . . .
32.3(30) . . .
36.0(31) . . .
37.5(33) . . .
45(4) . . .
45(4) . . .
31.6(29) . . .
37.9(32) . . .
43.4(34) . . .
39.2(34) . . .
39.9(35) . . .
37.5(32) . . .
38.4(33) . . .
41.5(33) . . .
41(4) . . .
43(4) . . .
36.0(31) . . .
30.0(28) . . .
39.8(35) . . .
43(4) . . .
39.6(33) . . .
42.0(34) . . .
40.6(35) . . .
35.0(33) . . .
38.9(35) . . .
39.4(34) . . .
47(4) . . .
33.9(30) . . .
36.4(33) . . .
31.7(31) . . .
46(4) . . .
45(4) . . .
31.7(30) . . .
36.5(34) . . .
39.7(34) . . .
47(4) . . .
37.6(31) . . .
40.5(34) . . .
46(4) . . .
42.0(35) . . .
46(4) . . .
39.1(32) . . .
36.6(32) . . .
46(4) . . .
40.5(34) . . .
35.4(32) . . .
36.8(32) . . .
39.8(33) . . .
36.3(33) . . .
44(4) . . .
43.1(35) . . .
37.6(32) . . .
39.2(34) . . .
36.4(32) . . .
43(4) . . .
37.2(33) . . .
33.4(30) . . .
37.0(31) . . .
42(4) . . .
40.3(34) . . .
34.4(31) . . .
38.3(33) . . .
49(4) . . .
34.1(33) . . .
43(4) . . .
24.7(26) . . .
33.0(31) . . .
39.3(33) . . .
44(4) . . .
45(4) . . .
38.0(32) . . .
41.9(34) . . .
36.2(31) . . .
38.9(34) . . .
40.1(35) . . .
34.6(31) . . .
34.0(32) . . .
33.8(29) . . .
43(4) . . .
45(4) . . .
42.4(34) . . .
38.0(32) . . .
38.9(33) . . .
48(4) . . .
39.5(34) . . .
36.9(32) . . .
45(4) . . .
40.8(34) . . .
43(4) . . .
36.3(31) . . .
40.2(33) . . .
36.8(32) . . .
40.5(34) . . .
45(4) . . .
39.7(34) . . .
40.9(33) . . .
35.5(32) . . .
44(4) . . .
43(4) . . .
36.4(33) . . .
37.3(31) . . .
27.3(26) . . .
31.2(29) . . .
37.1(32) . . .
37.4(32) . . .
29.7(29) . . .
43(4) . . .
39(4) . . .
34.7(32) . . .
39.5(33) . . .
42.5(34) . . .
34.4(30) . . .
44(4) . . .
30.4(30) . . .
52(4) . . .
41.6(35) . . .
40(4) . . .
41.2(35) . . .
36.1(31) . . .
45(4) . . .
40.2(33) . . .
42.5(34) . . .
37.7(33) . . .
44(4) . . .
46(4) . . .
32.5(31) . . .
40(4) . . .
41(4) . . .
42(4) . . .
41.0(33) . . .
45(4) . . .
33.0(32) . . .
32.4(30) . . .
37.4(32) . . .
42.7(34) . . .
43(4) . . .
39.7(35) . . .
31.4(30) . . .
38.0(32) . . .
37.3(32) . . .
36.5(34) . . .
44(4) . . .
36.4(31) . . .
37.8(32) . . .
36.8(31) . . .
40.1(34) . . .
39.0(34) . . .
31.3(34) . . .
42.0(35) . . .
32.6(30) . . .
43(4) . . .
35.6(33) . . .
38.0(34) . . .
46(4) . . .
38.3(32) . . .
43(4) . . .
39.4(34) . . .
37.0(33) . . .
40.7(33) . . .
43.8(35) . . .
38.0(33) . . .
48(4) . . .
40.2(33) . . .
40.2(33) . . .
49(4) . . .
35.3(31) . . .
41(4) . . .
35.4(34) . . .
38.3(32) . . .
44(4) . . .
41.1(34) . . .
44(4) . . .
34.8(30) . . .
35.4(31) . . .
45(4) . . .
44(4) . . .
43(4) . . .
31.1(29) . . .
36.1(31) . . .
38.9(33) . . .
44(4) . . .
40.1(34) . . .
48(4) . . .
50(4) . . .
48(4) . . .
39.0(34) . . .
41(4) . . .
36.4(31) . . .
31.5(29) . . .
44(4) . . .
39.5(34) . . .
43(4) . . .
45.1(35) . . .
40.8(34) . . .
35.0(32) . . .
39(4) . . .
34.4(31) . . .
37.9(32) . . .
40.6(33) . . .
35.0(32) . . .
40.1(33) . . .
45(4) . . .
37.5(33) . . .
27.6(27) . . .
44(4) . . .
43(4) . . .
45(4) . . .
41.2(33) . . .
30.7(29) . . .
43(4) . . .
40.3(34) . . .
40.4(35) . . .
46(4) . . .
32.1(30) . . .
40(4) . . .
32.5(32) . . .
40.9(35) . . .
40.4(33) . . .
33.5(32) . . .
33.8(31) . . .
31.2(32) . . .
38.8(34) . . .
35.7(31) . . .
43.4(34) . . .
34.5(30) . . .
40(4) . . .
40.7(34) . . .
37.4(32) . . .
36.6(32) . . .
38.7(32) . . .
45(4) . . .
43(4) . . .
36.9(32) . . .
42(4) . . .
45(4) . . .
42.4(34) . . .
42.6(34) . . .
48(4) . . .
45(4) . . .
40(4) . . .
39.8(34) . . .
32.9(30) . . .
34.2(31) . . .
28.6(29) . . .
31.0(31) . . .
39.7(35) . . .
43.7(35) . . .
47(4) . . .
44(4) . . .
49(4) . . .
44(4) . . .
31.6(29) . . .
35.6(31) . . .
38.3(34) . . .
35.5(33) . . .
42.5(35) . . .
42.1(34) . . .
40.4(33) . . .
31.9(31) . . .
43(4) . . .
48(4) . . .
46(4) . . .
45(4) . . .
45(4) . . .
44(4) . . .
39(4) . . .
48(4) . . .
43.4(34) . . .
35.9(31) . . .
41.2(35) . . .
50(4) . . .
44.2(35) . . .
37.2(33) . . .
31.2(31) . . .
33.7(31) . . .
39.6(32) . . .
40.0(33) . . .
40(4) . . .
34.7(31) . . .
29.1(30) . . .
35.1(33) . . .
38.9(32) . . .
40.0(34) . . .
40.0(33) . . .
40.3(34) . . .
35.4(31) . . .
41.1(33) . . .
40.8(33) . . .
43(4) . . .
37.7(34) . . .
43.8(35) . . .
52(4) . . .
43(4) . . .
31.1(29) . . .
42(4) . . .
40.0(34) . . .
36.7(32) . . .
38.1(34) . . .
32.2(30) . . .
31.8(30) . . .
34.8(31) . . .
33.8(31) . . .
39.7(34) . . .
32.1(32) . . .
36.5(32) . . .
39.0(32) . . .
38.5(33) . . .
43.0(35) . . .
40(4) . . .
36.0(33) . . .
35.1(31) . . .
40.3(33) . . .
40.7(33) . . .
37.1(33) . . .
41(4) . . .
30.0(28) . . .
38.1(32) . . .
47(4) . . .
52(4) . . .
39.4(33) . . .
43.4(35) . . .
32.9(29) . . .
33.3(32) . . .
44(4) . . .
40.2(33) . . .
46(4) . . .
39.7(33) . . .
36.4(31) . . .
42(4) . . .
38.6(32) . . .
44.0(35) . . .
26.2(27) . . .
38.5(34) . . .
44(4) . . .
47(4) . . .
43.4(34) . . .
40.5(33) . . .
43.5(35) . . .
46(4) . . .
38.2(34) . . .
36.8(31) . . .
47(4) . . .
34.8(31) . . .
37.0(32) . . .
38.5(32) . . .
34.9(31) . . .
36.4(32) . . .
35.5(32) . . .
37.3(33) . . .
37.1(32) . . .
36.6(32) . . .
37.5(33) . . .
29.2(28) . . .
32.1(30) . . .
39.8(33) . . .
42.5(33) . . .
48(4) . . .
46(4) . . .
39.2(34) . . .
39.3(33) . . .
41.7(33) . . .
41(4) . . .
41(4) . . .
33.1(29) . . .
37.7(32) . . .
33.2(30) . . .
28.5(28) . . .
46(4) . . .
30.7(29) . . .
34.4(31) . . .
46(4) . . .
40.6(34) . . .
38.2(35) . . .
36.0(33) . . .
31.2(29) . . .
39.4(34) . . .
26.3(27) . . .
32.3(32) . . .
37.4(32) . . .
40.8(34) . . .
32.0(29) . . .
45(4) . . .
39.0(33) . . .
46(4) . . .
33.9(30) . . .
33.6(30) . . .
45(4) . . .
47(4) . . .
31.5(29) . . .
39.5(33) . . .
32.6(32) . . .
32.5(32) . . .
38.5(34) . . .
35.1(31) . . .
36.7(32) . . .
31.7(31) . . .
48(4) . . .
36.2(33) . . .
33.9(31) . . .
32.8(30) . . .
36.2(33) . . .
32.3(30) . . .
43.7(35) . . .
42.5(34) . . .
44.7(35) . . .
32.6(31) . . .
41(4) . . .
30.7(29) . . .
37.8(34) . . .
36.2(31) . . .
35.2(30) . . .
45(4) . . .
38.5(34) . . .
41.1(33) . . .
36.4(31) . . .
37.6(34) . . .
31.8(31) . . .
37.1(32) . . .
49(4) . . .
35.3(32) . . .
30.5(29) . . .
33.9(34) . . .
44(4) . . .
38.2(32) . . .
38.5(33) . . .
38.4(33) . . .
33.6(31) . . .
39.2(33) . . .
35.3(32) . . .
40.0(33) . . .
36.5(35) . . .
34.4(33) . . .
39.6(34) . . .
31.7(30) . . .
41(4) . . .
40.5(34) . . .
35.7(32) . . .
31.8(29) . . .
36.3(32) . . .
40.4(34) . . .
37.8(33) . . .
44(4) . . .
39.1(34) . . .
36.8(32) . . .
37.2(32) . . .
35.8(34) . . .
37.4(34) . . .
35.3(32) . . .
45(4) . . .
42.7(35) . . .
38.9(33) . . .
36.5(33) . . .
32.2(30) . . .
38.0(32) . . .
39.0(32) . . .
44(4) . . .
36.5(32) . . .
40.5(33) . . .
38.2(32) . . .
32.3(32) . . .
33.8(35) . . .
29.4(30) . . .
32.3(31) . . .
39.4(32) . . .
47(4) . . .
43(4) . . .
34.7(33) . . .
33.8(30) . . .
37.2(32) . . .
40.7(35) . . .
44(4) . . .
42.6(35) . . .
39.1(33) . . .
28.4(29) . . .
36.0(34) . . .
38.9(33) . . .
36.5(32) . . .
38.5(32) . . .
43(4) . . .
41(4) . . .
34.0(32) . . .
43.0(35) . . .
48(4) . . .
39.1(34) . . .
34.4(33) . . .
36.9(34) . . .
36.8(31) . . .
35.2(31) . . .
34.5(32) . . .
40.3(34) . . .
39.2(33) . . .
37.8(32) . . .
34.4(30) . . .
34.4(31) . . .
41(4) . . .
46(4) . . .
37.7(32) . . .
41.0(34) . . .
37.8(33) . . .
38.7(33) . . .
36.1(32) . . .
40.9(34) . . .
34.3(31) . . .
41(4) . . .
41(4) . . .
36.4(32) . . .
47(4) . . .
34.1(31) . . .
39.1(35) . . .
41(4) . . .
33.8(32) . . .
38.9(32) . . .
44(4) . . .
36.1(32) . . .
32.6(30) . . .
38.6(33) . . .
44.7(35) . . .
46(4) . . .
38.0(35) . . .
31.6(32) . . .
41(4) . . .
46(4) . . .
51(4) . . .
37.2(31) . . .
38.0(33) . . .
44(4) . . .
32.3(29) . . .
31.3(29) . . .
41(4) . . .
44(4) . . .
45(4) . . .
40.5(33) . . .
42.5(34) . . .
41(4) . . .
35.0(33) . . .
31.4(30) . . .
36.7(31) . . .
37.6(34) . . .
29.9(28) . . .
34.5(31) . . .
35.8(33) . . .
38.9(32) . . .
39.0(35) . . .
31.0(30) . . .
42(4) . . .
37.8(35) . . .
41.6(34) . . .
44(4) . . .
34.9(32) . . .
34.0(31) . . .
33.8(30) . . .
31.9(29) . . .
35.5(31) . . .
40(4) . . .
35.3(34) . . .
41.0(34) . . .
46(4) . . .
46(4) . . .
39.6(35) . . .
37.9(32) . . .
42.0(34) . . .
36.5(31) . . .
38.4(33) . . .
40.6(35) . . .
43(4) . . .
40.5(33) . . .
34.5(31) . . .
37.6(33) . . .
30.7(32) . . .
30.9(30) . . .
32.1(30) . . .
33.8(30) . . .
34.7(33) . . .
40(4) . . .
39.6(34) . . .
48(4) . . .
34.4(31) . . .
43(4) . . .
40.0(34) . . .
37.7(32) . . .
34.4(31) . . .
50(4) . . .
35.4(33) . . .
42(4) . . .
32.3(29) . . .
44.5(35) . . .
45(4) . . .
38.6(33) . . .
40.4(33) . . .
38.2(33) . . .
41.5(34) . . .
38.1(32) . . .
44(4) . . .
34.0(32) . . .
36.8(33) . . .
34.0(30) . . .
39.9(35) . . .
37.0(34) . . .
34.8(32) . . .
33.4(31) . . .
36.3(31) . . .
39.7(33) . . .
38.5(34) . . .
57(4) . . .
35.0(31) . . .
34.2(30) . . .
38.5(32) . . .
32.6(30) . . .
38.6(34) . . .
41.9(34) . . .
37.3(32) . . .
39.7(35) . . .
39.3(35) . . .
41.8(35) . . .
37.2(32) . . .
40.4(33) . . .
35.6(32) . . .
31.2(31) . . .
41(4) . . .
36.5(32) . . .
38.9(33) . . .
32.9(32) . . .
46(4) . . .
35.5(32) . . .
37.4(32) . . .
40.4(33) . . .
45(4) . . .
40.3(35) . . .
35.4(31) . . .
36.0(31) . . .
35.3(32) . . .
44(4) . . .
47(4) . . .
45(4) . . .
42.0(34) . . .
40.3(34) . . .
41.3(35) . . .
44(4) . . .
41(4) . . .
41.4(34) . . .
36.1(31) . . .
41.1(34) . . .
39.3(34) . . .
32.5(30) . . .
48(4) . . .
40.2(33) . . .
43.4(35) . . .
43.7(35) . . .
39.5(33) . . .
39.1(33) . . .
42.2(35) . . .
37.3(32) . . .
45(4) . . .
30.9(29) . . .
37.6(32) . . .
33.3(31) . . .
37.2(35) . . .
35.0(32) . . .
32.5(29) . . .
36.9(31) . . .
36.2(34) . . .
37.1(34) . . .
41(4) . . .
29.7(28) . . .
33.3(30) . . .
37.3(32) . . .
47(4) . . .
34.3(32) . . .
47(4) . . .
39.7(32) . . .
34.7(33) . . .
36.5(35) . . .
39.0(33) . . .
43.4(34) . . .
34.1(31) . . .
33.0(31) . . .
36.8(35) . . .
41(4) . . .
50(4) . . .
37.8(32) . . .
35.2(32) . . .
40(4) . . .
34.3(31) . . .
45(4) . . .
34.0(30) . . .
39.0(33) . . .
42(4) . . .
32.4(31) . . .
34.7(31) . . .
33.7(30) . . .
36.6(34) . . .
33.3(30) . . .
47(4) . . .
39.8(33) . . .
34.8(32) . . .
34.6(32) . . .
42(4) . . .
43(4) . . .
38.8(32) . . .
32.3(30) . . .
44(4) . . .
35.5(31) . . .
38.5(32) . . .
35.0(31) . . .
54(4) . . .
35.0(31) . . .
38.9(35) . . .
34.0(30) . . .
37.2(32) . . .
40.7(34) . . .
36.6(31) . . .
41(4) . . .
34.5(31) . . .
39.5(32) . . .
35.2(31) . . .
35.5(35) . . .
40(4) . . .
40.4(34) . . .
35.1(32) . . .
40.9(33) . . .
44(4) . . .
47(4) . . .
40.3(33) . . .
40.7(34) . . .
36.0(34) . . .
37(4) . . .
35.7(34) . . .
32.8(30) . . .
33.9(32) . . .
33.2(31) . . .
36.6(31) . . .
34.9(33) . . .
36.1(31) . . .
44(4) . . .
43(4) . . .
43(4) . . .
40.8(34) . . .
47(4) . . .
34.6(32) . . .
43(4) . . .
42.2(34) . . .
39.2(34) . . .
34.8(31) . . .
42(4) . . .
43(4) . . .
43(4) . . .
32.3(30) . . .
38.8(33) . . .
39.7(33) . . .
33.2(30) . . .
36.6(33) . . .
39.3(34) . . .
36.5(31) . . .
36.5(32) . . .
36.4(32) . . .
35.6(31) . . .
51(4) . . .
43.1(34) . . .
43(4) . . .
44(4) . . .
35.5(32) . . .
32.5(30) . . .
33.5(30) . . .
46(4) . . .
45(4) . . .
44(4) . . .
28.1(29) . . .
36.9(31) . . .
29.6(29) . . .
32.3(33) . . .
32.5(29) . . .
44.5(35) . . .
41.6(33) . . .
43(4) . . .
38(4) . . .
44(4) . . .
29.0(28) . . .
32.5(29) . . .
41.4(35) . . .
45(4) . . .
42.9(35) . . .
39.8(33) . . .
45(4) . . .
29.2(29) . . .
35.0(32) . . .
41.0(35) . . .
40.0(33) . . .
41.4(35) . . .
37.0(33) . . .
36.0(32) . . .
44(4) . . .
46(4) . . .
38.6(33) . . .
34.3(32) . . .
40(4) . . .
45(4) . . .
39.6(33) . . .
27.7(28) . . .
30.0(31) . . .
39.2(34) . . .
39.3(33) . . .
38.8(33) . . .
35.8(32) . . .
33.7(32) . . .
38.8(34) . . .
30.3(28) . . .
37.2(32) . . .
38.7(34) . . .
38.2(34) . . .
40.2(34) . . .
40.4(33) . . .
42.7(34) . . .
36.9(32) . . .
30.9(29) . . .
42(4) . . .
42.5(35) . . .
39.1(34) . . .
37.7(33) . . .
41(4) . . .
40.0(34) . . .
39.3(32) . . .
47(4) . . .
41(4) . . .
36.4(34) . . .
39.4(34) . . .
40.0(33) . . .
40.7(33) . . .
35.8(30) . . .
36.6(33) . . .
40.8(34) . . .
44(4) . . .
45(4) . . .
38.5(33) . . .
30.8(29) . . .
35.5(32) . . .
40.3(33) . . .
34.7(31) . . .
38.3(33) . . .
45(4) . . .
38.4(32) . . .
41.6(34) . . .
43.0(35) . . .
42.3(34) . . .
39.5(33) . . .
28.4(28) . . .
35.3(31) . . .
40.8(34) . . .
37.2(32) . . .
36.5(31) . . .
33.8(30) . . .
38.3(33) . . .
40.8(34) . . .
38.5(34) . . .
36.6(33) . . .
31.4(30) . . .
36.6(32) . . .
45(4) . . .
32.6(33) . . .
38.4(33) . . .
51(4) . . .
37.9(33) . . .
39.9(35) . . .
38(4) . . .
38.9(33) . . .
32.1(31) . . .
34.0(31) . . .
43(4) . . .
41(4) . . .
44(4) . . .
41.2(35) . . .
40.0(33) . . .
35.4(32) . . .
31.3(29) . . .
37.2(33) . . .
30.9(29) . . .
36.3(31) . . .
37.2(33) . . .
36.5(33) . . .
31.8(30) . . .
49(4) . . .
36.9(32) . . .
38.7(32) . . .
52(4) . . .
42.7(35) . . .
37.7(32) . . .
43.0(34) . . .
46(4) . . .
35.7(33) . . .
48(4) . . .
36.4(32) . . .
44(4) . . .
38.0(33) . . .
34.6(31) . . .
39.6(33) . . .
41.6(34) . . .
45(4) . . .
32.9(32) . . .
33.6(31) . . .
42.2(34) . . .
37.5(32) . . .
35.7(33) . . .
36.6(34) . . .
35.2(32) . . .
34.2(32) . . .
35.4(32) . . .
32.2(31) . . .
29.0(29) . . .
35.8(34) . . .
27.7(27) . . .
42.4(35) . . .
44(4) . . .
32.3(32) . . .
38.3(35) . . .
27.5(29) . . .
32.5(30) . . .
39.5(35) . . .
35.6(33) . . .
38.5(33) . . .
51(4) . . .
41.1(34) . . .
38.7(32) . . .
42(4) . . .
34.2(31) . . .
28.9(28) . . .
37.8(33) . . .
40.8(34) . . .
38.1(33) . . .
31.5(29) . . .
38.2(32) . . .
41.0(34) . . .
41.2(34) . . .
41.1(34) . . .
38.2(34) . . .
38.4(32) . . .
33.3(31) . . .
35.0(33) . . .
45(4) . . .
38.5(33) . . .
41.4(33) . . .
28.2(28) . . .
36.8(32) . . .
36.2(34) . . .
37.7(33) . . .
36.9(32) . . .
31.8(29) . . .
38.0(33) . . .
38.6(33) . . .
38.3(35) . . .
35.8(32) . . .
44(4) . . .
32.7(31) . . .
33.5(31) . . .
47(4) . . .
36.8(31) . . .
35.4(32) . . .
36.8(34) . . .
40(4) . . .
35.6(31) . . .
38.7(33) . . .
40.9(34) . . .
42(4) . . .
36.2(33) . . .
41.8(34) . . .
36.2(31) . . .
46(4) . . .
27.6(27) . . .
37.2(32) . . .
33.0(30) . . .
35.1(31) . . .
34.7(31) . . .
41.9(35) . . .
34.5(32) . . .
40.4(34) . . .
40.5(33) . . .
37.5(34) . . .
34.0(33) . . .
37.5(34) . . .
42.0(34) . . .
41.1(34) . . .
42(4) . . .
37.0(33) . . .
38.2(35) . . .
36.5(31) . . .
38.5(33) . . .
42(4) . . .
33.5(30) . . .
36.3(33) . . .
35.6(31) . . .
31.5(31) . . .
32.7(31) . . .
37.5(34) . . .
33.9(31) . . .
36.7(31) . . .
30.1(29) . . .
34.2(31) . . .
39.0(33) . . .
38.0(32) . . .
30.8(29) . . .
42(4) . . .
30.1(30) . . .
34.4(31) . . .
30.4(28) . . .
28.7(29) . . .
32.4(31) . . .
33.2(31) . . .
42(4) . . .
41.9(34) . . .
33.2(30) . . .
30.4(29) . . .
33.0(31) . . .
44(4) . . .
40.2(33) . . .
36.8(31) . . .
37.9(33) . . .
33.8(31) . . .
37.2(33) . . .
27.8(29) . . .
42.8(35) . . .
38.3(32) . . .
42(4) . . .
42.6(34) . . .
34.8(31) . . .
42.5(34) . . .
36.4(33) . . .
36.3(34) . . .
34.6(31) . . .
28.2(28) . . .
34.3(32) . . .
34.8(32) . . .
37.1(35) . . .
39.2(34) . . .
44.6(34) . . .
38.1(33) . . .
42.5(35) . . .
36.4(32) . . .
31.2(31) . . .
40.7(34) . . .
39.2(33) . . .
45(4) . . .
35.9(32) . . .
37.1(32) . . .
41.6(34) . . .
35.5(32) . . .
40(4) . . .
40.5(34) . . .
36.7(35) . . .
29.6(28) . . .
35.3(33) . . .
34.9(31) . . .
39.1(35) . . .
35.4(31) . . .
36.2(31) . . .
31.1(32) . . .
32.5(30) . . .
48(4) . . .
30.4(28) . . .
43.4(35) . . .
34.0(31) . . .
37.9(34) . . .
42.2(35) . . .
38.3(32) . . .
28.8(30) . . .
35.0(31) . . .
46(4) . . .
37.3(32) . . .
30.4(29) . . .
32.5(30) . . .
37.7(32) . . .
42(4) . . .
34.0(31) . . .
39.8(33) . . .
40.5(34) . . .
41(4) . . .
30.7(30) . . .
32.3(32) . . .
33.8(31) . . .
39.4(33) . . .
38.7(34) . . .
35.3(33) . . .
37.2(34) . . .
39.2(32) . . .
41.7(34) . . .
33.0(30) . . .
35.4(31) . . .
30.0(29) . . .
37.9(32) . . .
35.3(32) . . .
43.1(35) . . .
32.6(30) . . .
32.2(30) . . .
46(4) . . .
38.6(32) . . .
31.6(32) . . .
34.8(32) . . .
37.3(34) . . .
43.5(34) . . .
44(4) . . .
36.6(33) . . .
40(4) . . .
34.9(32) . . .
34.8(30) . . .
46(4) . . .
37.5(32) . . .
47(4) . . .
35.9(31) . . .
45(4) . . .
40(4) . . .
38(4) . . .
39.8(34) . . .
30.5(29) . . .
41.3(34) . . .
31.4(29) . . .
35.7(35) . . .
28.0(30) . . .
47(4) . . .
40.5(34) . . .
41.0(34) . . .
36.8(33) . . .
31.0(29) . . .
37.0(32) . . .
49(4) . . .
44(4) . . .
38.3(33) . . .
39.5(34) . . .
34.2(31) . . .
38.0(32) . . .
34.2(30) . . .
37.4(35) . . .
34.9(32) . . .
45(4) . . .
35.9(31) . . .
50(4) . . .
36.4(31) . . .
43(4) . . .
35.8(31) . . .
34.4(31) . . .
42(4) . . .
30.0(30) . . .
34.0(34) . . .
41.2(33) . . .
34.3(31) . . .
38.2(33) . . .
39.4(33) . . .
37.6(33) . . .
38.4(32) . . .
33.7(31) . . .
38.5(34) . . .
30.3(28) . . .
43(4) . . .
34.2(31) . . .
38.0(33) . . .
34.2(32) . . .
37.0(32) . . .
47(4) . . .
35.6(31) . . .
38(4) . . .
35.5(33) . . .
46(4) . . .
48(4) . . .
38.4(33) . . .
36.3(33) . . .
34.7(31) . . .
34.8(32) . . .
37.1(31) . . .
35.0(31) . . .
33.8(32) . . .
36.5(34) . . .
33.4(30) . . .
37.7(31) . . .
42.1(34) . . .
47(4) . . .
37(4) . . .
33.5(32) . . .
34.7(30) . . .
48(4) . . .
34.6(31) . . .
31.8(31) . . .
34.8(31) . . .
44.0(34) . . .
31.1(29) . . .
44(4) . . .
36.2(35) . . .
43(4) . . .
37.6(32) . . .
30.8(29) . . .
39(4) . . .
38(4) . . .
34.6(32) . . .
29.5(28) . . .
41.3(34) . . .
40.3(34) . . .
45(4) . . .
35.8(33) . . .
38.8(32) . . .
37.2(32) . . .
34.1(30) . . .
39.1(33) . . .
38.7(33) . . .
35.0(32) . . .
37.3(32) . . .
42(4) . . .
35.6(34) . . .
42.7(35) . . .
48(4) . . .
39(4) . . .
36.2(34) . . .
36.9(32) . . .
42.9(35) . . .
45(4) . . .
40.7(35) . . .
42(4) . . .
38.6(33) . . .
39.0(32) . . .
34.7(31) . . .
35.8(32) . . .
47(4) . . .
34.5(30) . . .
42.3(34) . . .
35.7(32) . . .
42(4) . . .
38.2(33) . . .
41.5(35) . . .
41.7(34) . . .
29.0(28) . . .
38.9(34) . . .
39.5(35) . . .
39.1(34) . . .
29.9(29) . . .
46(4) . . .
35.2(30) . . .
43(4) . . .
30.1(29) . . .
34.6(31) . . .
38.8(33) . . .
42.9(35) . . .
41(4) . . .
35.4(34) . . .
35.3(31) . . .
29.8(29) . . .
41.7(35) . . .
34.8(33) . . .
32.5(32) . . .
40.3(33) . . .
40.6(34) . . .
38.4(34) . . .
30.6(31) . . .
36.7(34) . . .
32.6(30) . . .
33.3(30) . . .
35.2(33) . . .
30.3(29) . . .
45(4) . . .
30.5(30) . . .
34.8(32) . . .
39(4) . . .
41.8(34) . . .
47(4) . . .
43.6(35) . . .
31.9(29) . . .
35.4(33) . . .
38.2(32) . . .
40.1(34) . . .
35.8(32) . . .
38.2(33) . . .
37.2(34) . . .
38.4(33) . . .
44.1(35) . . .
42.0(34) . . .
35.6(34) . . .
39(4) . . .
43(4) . . .
33.1(31) . . .
42.3(34) . . .
35.2(33) . . .
34.0(33) . . .
37.1(32) . . .
36.5(31) . . .
30.3(28) . . .
32.8(31) . . .
33.3(32) . . .
32.6(31) . . .
40.9(34) . . .
43.7(34) . . .
48(4) . . .
33.1(30) . . .
37.1(33) . . .
40.3(34) . . .
41.6(34) . . .
38(4) . . .
38.5(34) . . .
46(4) . . .
32.4(30) . . .
41(4) . . .
23.9(26) . . .
34.8(33) . . .
38.8(34) . . .
32.4(30) . . .
33.1(30) . . .
40.4(34) . . .
42.2(35) . . .
40.5(33) . . .
36.0(31) . . .
43(4) . . .
41(4) . . .
44(4) . . .
38.3(32) . . .
39.3(33) . . .
27.3(28) . . .
36(4) . . .
32.3(33) . . .
33.7(30) . . .
36.8(32) . . .
37.1(34) . . .
39(4) . . .
41(4) . . .
32.4(31) . . .
39.4(33) . . .
33.8(31) . . .
32.0(30) . . .
38.8(32) . . .
29.8(29) . . .
38.5(32) . . .
26.1(27) . . .
42(4) . . .
34.7(32) . . .
29.5(29) . . .
39.1(33) . . .
36.1(32) . . .
34.3(31) . . .
38.5(34) . . .
47(4) . . .
42.3(33) . . .
33.0(31) . . .
33.0(31) . . .
37.1(32) . . .
42.8(34) . . .
36.5(32) . . .
38.0(33) . . .
37.5(34) . . .
37.3(32) . . .
32.0(29) . . .
33.5(32) . . .
29.0(29) . . .
31.8(31) . . .
30.5(30) . . .
33.3(30) . . .
34.9(32) . . .
39(4) . . .
38.2(34) . . .
48(4) . . .
35.8(32) . . .
40.3(35) . . .
29.3(29) . . .
35.0(32) . . .
33.5(30) . . .
38.7(32) . . .
35.9(32) . . .
30.9(31) . . .
30.0(29) . . .
35.4(31) . . .
38.5(32) . . .
32.1(32) . . .
25.7(30) . . .
35.1(33) . . .
41.6(34) . . .
44.5(34) . . .
40.2(34) . . .
32.5(30) . . .
34.8(32) . . .
37.9(32) . . .
42.8(33) . . .
33.9(30) . . .
39(4) . . .
38.9(33) . . .
39.6(33) . . .
37.7(32) . . .
45(4) . . .
36.1(34) . . .
35.0(31) . . .
34.2(31) . . .
33.6(32) . . .
42.0(34) . . .
42(4) . . .
32.9(32) . . .
38.2(32) . . .
39.6(33) . . .
38.4(33) . . .
39.2(35) . . .
34.0(30) . . .
43.9(34) . . .
41.9(34) . . .
40.0(34) . . .
35.4(31) . . .
43(4) . . .
37.3(32) . . .
39.0(35) . . .
39.7(34) . . .
49(4) . . .
38.2(32) . . .
38.0(32) . . .
39.1(34) . . .
46(4) . . .
48(4) . . .
44.8(35) . . .
36.3(31) . . .
30.3(30) . . .
37.0(35) . . .
31.4(30) . . .
27.2(28) . . .
39.9(32) . . .
34.0(34) . . .
31.2(31) . . .
37.9(34) . . .
32.6(29) . . .
33.0(30) . . .
34.8(31) . . .
30.8(31) . . .
39(4) . . .
29.9(28) . . .
31.6(29) . . .
28.8(28) . . .
37(4) . . .
36.7(33) . . .
41.1(33) . . .
48(4) . . .
39.0(32) . . .
38.3(33) . . .
42(4) . . .
33.5(30) . . .
40.6(35) . . .
34.3(32) . . .
31.5(30) . . .
37.8(34) . . .
37.9(32) . . .
34.0(30) . . .
34.1(34) . . .
30.7(30) . . .
34.3(30) . . .
35.3(32) . . .
40.9(35) . . .
43(4) . . .
44(4) . . .
40.0(33) . . .
40.8(33) . . .
40.9(33) . . .
45(4) . . .
44(4) . . .
33.4(31) . . .
46.5(35) . . .
47(4) . . .
44(4) . . .
36.2(31) . . .
43(4) . . .
38.4(32) . . .
35.9(32) . . .
37.3(32) . . .
40.5(33) . . .
36.9(31) . . .
33.7(30) . . .
33.2(30) . . .
38(4) . . .
33.2(33) . . .
40.7(34) . . .
36.3(31) . . .
39.0(35) . . .
35.8(33) . . .
34.8(31) . . .
41.5(33) . . .
39.2(32) . . .
38.1(32) . . .
34.7(33) . . .
38.7(33) . . .
43.7(34) . . .
30.1(28) . . .
39.3(34) . . .
40.0(35) . . .
39.8(34) . . .
32.4(30) . . .
35.5(32) . . .
37.5(34) . . .
34.3(33) . . .
36.2(31) . . .
43.4(34) . . .
45(4) . . .
34.0(30) . . .
40.8(35) . . .
37.5(32) . . .
44.1(35) . . .
37.0(32) . . .
44(4) . . .
39.5(34) . . .
33.8(30) . . .
44.5(35) . . .
35.1(31) . . .
40(4) . . .
30.0(29) . . .
36.7(31) . . .
33.3(30) . . .
40.5(34) . . .
45(4) . . .
39.5(32) . . .
37.4(32) . . .
44.4(35) . . .
38.9(35) . . .
33.0(31) . . .
44(4) . . .
32.7(31) . . .
37.5(32) . . .
34.0(30) . . .
37.9(33) . . .
37.6(32) . . .
32.8(30) . . .
38.1(32) . . .
33.6(31) . . .
37.3(33) . . .
38.5(35) . . .
36.3(31) . . .
33.3(30) . . .
37.9(33) . . .
38(4) . . .
40.4(34) . . .
38.8(32) . . .
42.2(34) . . .
35.8(32) . . .
34.2(33) . . .
34.8(32) . . .
34.1(31) . . .
35.6(31) . . .
31.3(29) . . .
35.8(33) . . .
39.1(33) . . .
48(4) . . .
34.5(30) . . .
48(4) . . .
44(4) . . .
36.1(31) . . .
36.3(32) . . .
44.7(35) . . .
30.3(29) . . .
44(4) . . .
46(4) . . .
28.9(29) . . .
45(4) . . .
44(4) . . .
31.7(30) . . .
33.3(30) . . .
37.1(31) . . .
37.8(33) . . .
43(4) . . .
42.3(35) . . .
31.3(29) . . .
40.2(33) . . .
39.3(34) . . .
39.0(34) . . .
37.6(34) . . .
38.7(33) . . .
45.5(35) . . .
41(4) . . .
45(4) . . .
50(4) . . .
39.1(33) . . .
40.7(33) . . .
40.1(34) . . .
35.2(32) . . .
37.4(32) . . .
41.0(34) . . .
46(4) . . .
36.4(33) . . .
31.8(31) . . .
38.1(32) . . .
45(4) . . .
46(4) . . .
40.1(33) . . .
41.2(35) . . .
41.8(35) . . .
37.3(32) . . .
38.7(34) . . .
30.4(31) . . .
27.8(30) . . .
38.9(35) . . .
36.2(32) . . .
39.7(33) . . .
34.7(31) . . .
36.3(34) . . .
38(4) . . .
39.3(32) . . .
32.0(30) . . .
35.3(33) . . .
36.0(35) . . .
36.3(34) . . .
37.6(32) . . .
36.8(32) . . .
35.0(31) . . .
40.0(35) . . .
33.8(30) . . .
41.9(34) . . .
31.1(29) . . .
33.6(33) . . .
35.9(33) . . .
35.4(32) . . .
39.2(33) . . .
36.7(31) . . .
36.1(31) . . .
45(4) . . .
37.8(31) . . .
42.6(34) . . .
36.4(33) . . .
52(4) . . .
37.8(35) . . .
38.1(33) . . .
43.3(35) . . .
36.2(34) . . .
28.8(30) . . .
39.8(35) . . .
40.4(33) . . .
27.2(27) . . .
34.5(32) . . .
43(4) . . .
37.1(32) . . .
36.0(32) . . .
39.4(33) . . .
36.9(32) . . .
45(4) . . .
51(4) . . .
36.8(32) . . .
41.3(33) . . .
29.2(29) . . .
33.6(33) . . .
31.5(31) . . .
33.7(31) . . .
35.5(31) . . .
33.9(31) . . .
35.2(33) . . .
39.0(33) . . .
34.8(31) . . .
38.2(32) . . .
44(4) . . .
33.2(31) . . .
36.8(31) . . .
31.9(30) . . .
29.8(28) . . .
33.4(34) . . .
38(4) . . .
31.9(30) . . .
33.6(30) . . .
29.4(29) . . .
38.1(34) . . .
33.2(30) . . .
27.4(28) . . .
28.5(29) . . .
31.4(29) . . .
44(4) . . .
34.0(31) . . .
38.1(34) . . .
50(4) . . .
48(4) . . .
39(4) . . .
30.6(32) . . .
34.0(30) . . .
39.0(32) . . .
47(4) . . .
42(4) . . .
42.0(35) . . .
36.1(31) . . .
42.5(34) . . .
41(4) . . .
39(4) . . .
29.6(28) . . .
32.3(30) . . .
32.5(30) . . .
42(4) . . .
47(4) . . .
40(4) . . .
33.6(31) . . .
43.4(34) . . .
38.5(33) . . .
35.0(35) . . .
35.4(33) . . .
34.9(31) . . .
39.9(33) . . .
44(4) . . .
42(4) . . .
42.1(34) . . .
33.4(31) . . .
31.5(32) . . .
24.3(26) . . .
40(4) . . .
33.6(32) . . .
35.1(31) . . .
38.5(34) . . .
30.5(29) . . .
30.9(31) . . .
27.1(29) . . .
39.6(33) . . .
35.4(32) . . .
43(4) . . .
37.5(32) . . .
33.2(30) . . .
33.9(30) . . .
47(4) . . .
32.3(30) . . .
41(4) . . .
32.7(30) . . .
38.1(32) . . .
37.9(34) . . .
33.9(30) . . .
40.1(34) . . .
37.1(32) . . .
35.4(31) . . .
37.0(32) . . .
35.4(32) . . .
37.7(34) . . .
41(4) . . .
37.3(33) . . .
39.4(35) . . .
42(4) . . .
38.5(33) . . .
41.0(34) . . .
28.0(28) . . .
37.4(34) . . .
33.7(32) . . .
37.2(32) . . .
38.4(32) . . .
43(4) . . .
41(4) . . .
37.3(32) . . .
35.9(32) . . .
33.2(31) . . .
33.2(30) . . .
41(4) . . .
32.6(31) . . .
44(4) . . .
34.7(31) . . .
29.9(29) . . .
33.6(32) . . .
34.4(31) . . .
40.0(34) . . .
36.7(32) . . .
37.8(32) . . .
32.6(30) . . .
37.3(34) . . .
50(4) . . .
42.6(34) . . .
42.9(34) . . .
42(4) . . .
38(4) . . .
34.0(31) . . .
35.7(31) . . .
39.9(35) . . .
37.5(32) . . .
44(4) . . .
41.8(34) . . .
34.8(31) . . .
39.8(33) . . .
33.8(31) . . .
37.6(34) . . .
35.4(33) . . .
30.4(29) . . .
40.3(34) . . .
36.9(34) . . .
41(4) . . .
37.1(33) . . .
37.2(32) . . .
41(4) . . .
30.8(31) . . .
36.0(33) . . .
34.3(30) . . .
38.9(33) . . .
31.5(30) . . .
33.3(32) . . .
34.6(32) . . .
40.9(33) . . .
38.2(32) . . .
39(4) . . .
28.7(30) . . .
36.1(32) . . .
37.5(32) . . .
38.7(32) . . .
49(4) . . .
35.8(32) . . .
36.0(32) . . .
33.9(30) . . .
43(4) . . .
44(4) . . .
47(4) . . .
43(4) . . .
37.4(32) . . .
44.7(35) . . .
46(4) . . .
44(4) . . .
32.9(31) . . .
36.5(32) . . .
31.5(30) . . .
41(4) . . .
33.3(31) . . .
32.8(30) . . .
36.4(31) . . .
39(4) . . .
34.9(34) . . .
39(4) . . .
39.1(33) . . .
32.0(29) . . .
29.3(28) . . .
40(4) . . .
37.8(33) . . .
38.0(34) . . .
34.8(31) . . .
34.1(30) . . .
41(4) . . .
40.6(32) . . .
34.0(30) . . .
36.4(31) . . .
27.6(28) . . .
35.4(34) . . .
45(4) . . .
39.6(33) . . .
40.4(33) . . .
39.6(35) . . .
32.6(31) . . .
45(4) . . .
41.5(33) . . .
35.1(31) . . .
34.9(32) . . .
35.7(32) . . .
45(4) . . .
31.3(29) . . .
42.3(34) . . .
40.2(33) . . .
38.6(33) . . .
39.9(34) . . .
35.0(31) . . .
32.1(31) . . .
33.9(31) . . .
39.0(34) . . .
31.4(30) . . .
37.8(32) . . .
42.5(35) . . .
41.1(34) . . .
45(4) . . .
44(4) . . .
39.8(33) . . .
40.1(33) . . .
35.8(33) . . .
38.2(32) . . .
41.3(33) . . .
30.9(29) . . .
37.3(32) . . .
38.4(34) . . .
34.2(31) . . .
38.2(32) . . .
37.0(32) . . .
41.9(35) . . .
37.4(33) . . .
46(4) . . .
48(4) . . .
35.6(31) . . .
37.3(33) . . .
40(4) . . .
31.5(31) . . .
36.8(33) . . .
41.7(33) . . .
42.8(35) . . .
40(4) . . .
34.9(31) . . .
37.5(32) . . .
35.3(31) . . .
39.7(34) . . .
43(4) . . .
37.6(32) . . .
37.0(32) . . .
26.4(28) . . .
39(4) . . .
31.1(30) . . .
42.6(34) . . .
39.3(33) . . .
42.2(33) . . .
38.6(32) . . .
38(4) . . .
38.0(35) . . .
37.7(32) . . .
38.7(34) . . .
34.2(30) . . .
48(4) . . .
32.4(29) . . .
39.1(33) . . .
43.8(35) . . .
40.3(33) . . .
36(4) . . .
31.3(30) . . .
32.8(30) . . .
34.9(32) . . .
34.0(31) . . .
45(4) . . .
35.8(31) . . .
39.0(32) . . .
34.0(33) . . .
27.6(29) . . .
41(4) . . .
44.7(35) . . .
34.6(31) . . .
39.7(34) . . .
35.5(33) . . .
34.6(31) . . .
36.7(32) . . .
45(4) . . .
32.8(32) . . .
31.2(29) . . .
38.2(32) . . .
35.8(31) . . .
37.4(32) . . .
32.4(30) . . .
30.5(30) . . .
44(4) . . .
37.2(34) . . .
42.0(34) . . .
39.6(34) . . .
34.9(33) . . .
35.9(32) . . .
34.8(31) . . .
38.2(32) . . .
43(4) . . .
34.2(31) . . .
36.2(33) . . .
34.0(31) . . .
30.2(28) . . .
36.1(32) . . .
35.0(33) . . .
33.0(30) . . .
36.4(32) . . .
31.5(30) . . .
30.6(29) . . .
38(4) . . .
30.8(29) . . .
29.5(28) . . .
32.3(29) . . .
35.1(31) . . .
45(4) . . .
42.1(34) . . .
36.8(31) . . .
39.8(34) . . .
35.6(31) . . .
48(4) . . .
40.4(33) . . .
39.7(33) . . .
36.3(33) . . .
45(4) . . .
38.7(33) . . .
35.4(33) . . .
30.8(28) . . .
34.5(33) . . .
43(4) . . .
41.2(35) . . .
46(4) . . .
49(4) . . .
32.2(29) . . .
40(4) . . .
43(4) . . .
29.5(29) . . .
33.9(30) . . .
35.6(31) . . .
45(4) . . .
40(4) . . .
33.7(30) . . .
46.1(35) . . .
29.6(29) . . .
37.0(32) . . .
37.0(33) . . .
38.8(32) . . .
35.6(31) . . .
42(4) . . .
43(4) . . .
41(4) . . .
33.3(30) . . .
46(4) . . .
36.8(31) . . .
43(4) . . .
39.6(33) . . .
32.0(30) . . .
37.7(32) . . .
30.1(29) . . .
37.4(34) . . .
37.3(33) . . .
28.8(28) . . .
33.1(31) . . .
40.3(34) . . .
44(4) . . .
38.8(34) . . .
35.8(31) . . .
37.0(32) . . .
37.5(32) . . .
35.3(33) . . .
48(4) . . .
47(4) . . .
33.0(29) . . .
35.6(33) . . .
37.3(33) . . .
37.4(35) . . .
33.8(30) . . .
41.8(34) . . .
22.4(23) . . .
37.6(35) . . .
42(4) . . .
41.1(33) . . .
28.2(27) . . .
32.3(30) . . .
37.8(32) . . .
30.6(28) . . .
44.5(35) . . .
32.8(31) . . .
36.4(34) . . .
35.5(33) . . .
34.5(30) . . .
31.0(29) . . .
31.2(29) . . .
42(4) . . .
43(4) . . .
38.3(32) . . .
37.4(32) . . .
33.3(31) . . .
37.1(32) . . .
39.2(34) . . .
34.8(30) . . .
34.0(30) . . .
35.2(32) . . .
40(4) . . .
30.2(29) . . .
41.8(33) . . .
43(4) . . .
35.7(31) . . .
37.4(33) . . .
35.9(34) . . .
31.4(29) . . .
33.8(30) . . .
34.7(32) . . .
35.8(32) . . .
42(4) . . .
31.5(29) . . .
35.2(32) . . .
33.7(32) . . .
39(4) . . .
33.0(31) . . .
37.1(31) . . .
37.3(32) . . .
37.2(34) . . .
29.0(31) . . .
22.1(26) . . .
30.4(28) . . .
43(4) . . .
42(4) . . .
29.9(31) . . .
35.1(33) . . .
39.3(33) . . .
36.3(32) . . .
38.4(33) . . .
38.8(35) . . .
33.2(31) . . .
38.5(32) . . .
39.5(34) . . .
37.2(34) . . .
39.3(33) . . .
44(4) . . .
28.9(28) . . .
34.7(34) . . .
34.3(33) . . .
37.2(34) . . .
40.0(33) . . .
39.0(32) . . .
39.0(32) . . .
46(4) . . .
32.2(30) . . .
35.0(31) . . .
37.8(31) . . .
44.1(35) . . .
42(4) . . .
38.1(33) . . .
44(4) . . .
37.5(32) . . .
46(4) . . .
42(4) . . .
30.7(29) . . .
34.5(31) . . .
36.1(32) . . .
33.9(30) . . .
36.5(33) . . .
40(4) . . .
34.1(30) . . .
30.2(28) . . .
37.4(33) . . .
45(4) . . .
36.1(31) . . .
29.8(29) . . .
39.1(33) . . .
29.5(30) . . .
44(4) . . .
37.7(32) . . .
27.7(27) . . .
41.7(34) . . .
33.6(30) . . .
38.8(34) . . .
30.3(28) . . .
32.8(29) . . .
35.8(31) . . .
40(4) . . .
29.9(29) . . .
26.1(26) . . .
30.7(29) . . .
35.2(32) . . .
35.9(34) . . .
36.8(33) . . .
32.5(30) . . .
37.8(33) . . .
40.0(35) . . .
33.8(31) . . .
42(4) . . .
45.0(35) . . .
48(4) . . .
42.3(34) . . .
31.6(33) . . .
28.2(27) . . .
40.8(33) . . .
39.3(32) . . .
39.0(33) . . .
41(4) . . .
42.5(34) . . .
41.5(33) . . .
31.9(29) . . .
34.8(32) . . .
26.6(28) . . .
38.8(33) . . .
41.3(34) . . .
29.3(28) . . .
35.3(33) . . .
35.6(33) . . .
39.8(34) . . .
32.5(29) . . .
34.5(30) . . .
37.2(33) . . .
44(4) . . .
44.5(35) . . .
42.5(34) . . .
38.2(32) . . .
38.7(33) . . .
31.3(30) . . .
41.2(34) . . .
42.9(34) . . .
34.6(30) . . .
38.6(33) . . .
36.7(32) . . .
31.9(29) . . .
36.6(31) . . .
36.3(33) . . .
35.5(33) . . .
30.6(28) . . .
40.0(33) . . .
40.8(33) . . .
36.3(32) . . .
36.0(32) . . .
36.4(32) . . .
27.3(27) . . .
26.9(28) . . .
28.0(28) . . .
34.6(32) . . .
41(4) . . .
35.2(31) . . .
46(4) . . .
37.7(33) . . .
35.0(33) . . .
43(4) . . .
33.5(30) . . .
36.7(31) . . .
33.0(31) . . .
40(4) . . .
38.1(32) . . .
39.7(33) . . .
34.3(30) . . .
33.3(33) . . .
33(4) . . .
37.0(32) . . .
37.8(32) . . .
38.5(33) . . .
35.0(30) . . .
32.0(32) . . .
40(4) . . .
29.3(28) . . .
38.3(32) . . .
36.6(31) . . .
29.6(29) . . .
30.0(30) . . .
36.3(31) . . .
32.3(31) . . .
34.2(32) . . .
43(4) . . .
39.9(35) . . .
32.5(30) . . .
38.1(32) . . .
36.5(31) . . .
36.6(31) . . .
46(4) . . .
34.4(31) . . .
38.0(33) . . .
33.9(31) . . .
39.2(33) . . .
41.5(34) . . .
29.3(28) . . .
35.7(33) . . .
39(4) . . .
35.6(32) . . .
37.2(32) . . .
35.4(31) . . .
39(4) . . .
34.0(32) . . .
41.3(35) . . .
37.4(32) . . .
40.9(34) . . .
30.5(31) . . .
37.7(35) . . .
30.5(29) . . .
30.4(28) . . .
43.6(35) . . .
37.4(33) . . .
36(4) . . .
43(4) . . .
41.4(34) . . .
44.2(34) . . .
39(4) . . .
30.4(31) . . .
37.8(33) . . .
41.8(34) . . .
37.4(33) . . .
39.9(35) . . .
34.4(34) . . .
36.6(34) . . .
36.0(31) . . .
34.8(33) . . .
37.6(32) . . .
35.4(33) . . .
33.2(31) . . .
37.2(33) . . .
31.7(29) . . .
36.4(33) . . .
35.0(33) . . .
29.8(29) . . .
34.3(30) . . .
37.8(33) . . .
34.4(32) . . .
39.2(35) . . .
42(4) . . .
39.0(32) . . .
38.7(34) . . .
34.8(32) . . .
31.8(31) . . .
41(4) . . .
41.5(34) . . .
37.3(33) . . .
38(4) . . .
32.5(31) . . .
37.8(32) . . .
34.7(31) . . .
41.8(35) . . .
33.9(32) . . .
31.6(30) . . .
40.5(33) . . .
39.2(33) . . .
40.7(34) . . .
38.3(34) . . .
35.9(31) . . .
30.8(29) . . .
37.3(32) . . .
36.6(34) . . .
34.8(33) . . .
29.4(29) . . .
35.9(32) . . .
40.8(33) . . .
40.6(35) . . .
27.5(29) . . .
46(4) . . .
29.2(28) . . .
38.5(32) . . .
41.4(35) . . .
34.1(32) . . .
27.1(28) . . .
37.4(32) . . .
32.3(30) . . .
37.0(34) . . .
35.7(35) . . .
31.1(30) . . .
37.6(32) . . .
42.0(35) . . .
39.2(32) . . .
37.6(32) . . .
38.0(33) . . .
31.9(29) . . .
39.2(33) . . .
44(4) . . .
39.3(33) . . .
33.5(32) . . .
33.8(30) . . .
34.6(30) . . .
40.0(34) . . .
34.0(31) . . .
32.8(29) . . .
40.1(33) . . .
50(4) . . .
32.8(31) . . .
35.5(32) . . .
34.8(33) . . .
33.7(30) . . .
46(4) . . .
45(4) . . .
39.1(33) . . .
38.8(32) . . .
37.4(33) . . .
33.0(32) . . .
40.3(34) . . .
43.2(35) . . .
36.8(32) . . .
45.8(35) . . .
42(4) . . .
40.0(35) . . .
36.6(33) . . .
35.2(32) . . .
40.5(32) . . .
37.4(33) . . .
30.0(30) . . .
35.8(32) . . .
41.4(34) . . .
45(4) . . .
32.1(30) . . .
35.5(35) . . .
36.8(34) . . .
34.4(31) . . .
33.2(30) . . .
32.4(29) . . .
37.8(33) . . .
43(4) . . .
37.0(32) . . .
42.4(34) . . .
33.5(31) . . .
38(4) . . .
41.0(34) . . .
33.0(30) . . .
42.8(35) . . .
40.2(33) . . .
40.4(33) . . .
41.9(35) . . .
35.3(31) . . .
42.1(34) . . .
43(4) . . .
41(4) . . .
39.2(32) . . .
44.6(35) . . .
39.6(34) . . .
37.7(32) . . .
37.4(32) . . .
34.9(30) . . .
31.3(29) . . .
34.9(31) . . .
26.4(26) . . .
31.2(30) . . .
25.4(28) . . .
39.1(33) . . .
42.3(35) . . .
37.5(32) . . .
42.5(34) . . .
40.2(33) . . .
29.6(29) . . .
41.2(34) . . .
34.8(31) . . .
33.3(30) . . .
31.0(29) . . .
29.4(28) . . .
32.9(31) . . .
33.2(32) . . .
29.1(28) . . .
27.7(28) . . .
33.2(31) . . .
25.7(27) . . .
34.3(32) . . .
39.0(34) . . .
33.0(30) . . .
37.4(32) . . .
36.6(34) . . .
39(4) . . .
37.5(33) . . .
39.8(32) . . .
35.7(31) . . .
45(4) . . .
37(4) . . .
33.3(31) . . .
32.4(29) . . .
38.1(32) . . .
43(4) . . .
37.8(33) . . .
43(4) . . .
42.5(34) . . .
44.5(35) . . .
38.9(33) . . .
29.7(29) . . .
38.5(32) . . .
47(4) . . .
42(4) . . .
39.5(34) . . .
28.1(27) . . .
30.8(29) . . .
22.0(25) . . .
34.2(31) . . .
39.3(33) . . .
31.9(29) . . .
31.9(30) . . .
39.9(33) . . .
41.9(34) . . .
33.5(31) . . .
30.6(31) . . .
31.8(29) . . .
41.5(33) . . .
39(4) . . .
39.5(35) . . .
39.6(33) . . .
36.9(32) . . .
31.7(29) . . .
35.2(30) . . .
38.4(34) . . .
39.8(33) . . .
39.0(33) . . .
33.4(30) . . .
29.0(28) . . .
38(4) . . .
39.8(35) . . .
35.8(30) . . .
37.0(32) . . .
35.5(31) . . .
36.7(35) . . .
35.0(33) . . .
36.3(32) . . .
29.9(28) . . .
34.9(33) . . .
37.0(34) . . .
39.8(34) . . .
31.5(29) . . .
28.8(28) . . .
29.6(30) . . .
35.0(33) . . .
30.0(29) . . .
38.0(32) . . .
45(4) . . .
35.2(32) . . .
38.3(35) . . .
39.5(34) . . .
48(4) . . .
30.7(28) . . .
39.9(34) . . .
43(4) . . .
37.2(33) . . .
33.0(30) . . .
30.5(29) . . .
34.8(32) . . .
37.7(33) . . .
37.1(32) . . .
37.2(31) . . .
35.3(31) . . .
31.0(30) . . .
39.0(34) . . .
33.6(30) . . .
30.3(29) . . .
31.6(30) . . .
32.5(29) . . .
30.7(29) . . .
29.3(29) . . .
34.9(31) . . .
32.3(30) . . .
38(4) . . .
33.3(32) . . .
43(4) . . .
35.5(31) . . .
33.7(30) . . .
40(4) . . .
35.3(32) . . .
29.7(28) . . .
36.4(32) . . .
27.3(27) . . .
27.6(28) . . .
37.4(33) . . .
42.8(34) . . .
28.0(28) . . .
29.4(29) . . .
34.9(33) . . .
38.2(33) . . .
32.1(30) . . .
30.6(30) . . .
29.8(31) . . .
31.5(31) . . .
35.3(32) . . .
30.4(29) . . .
33.6(31) . . .
35.4(31) . . .
31.5(30) . . .
36.4(33) . . .
34.3(31) . . .
39.2(32) . . .
28.9(29) . . .
27.3(29) . . .
34.2(31) . . .
42.5(34) . . .
34.6(30) . . .
36.3(32) . . .
46(4) . . .
42.6(33) . . .
47(4) . . .
34.7(31) . . .
43(4) . . .
37.9(33) . . .
36.2(32) . . .
32.7(30) . . .
35.5(31) . . .
34.3(31) . . .
35.4(34) . . .
38.4(32) . . .
39.8(33) . . .
37.4(34) . . .
37.9(34) . . .
30.1(31) . . .
34.9(30) . . .
38.3(33) . . .
41.4(34) . . .
27.1(27) . . .
39(4) . . .
43.6(35) . . .
35.1(30) . . .
35.3(32) . . .
41(4) . . .
35.8(32) . . .
39.2(32) . . .
43(4) . . .
46(4) . . .
32.2(31) . . .
38.3(34) . . .
39.5(33) . . .
27.4(28) . . .
29.4(30) . . .
30.7(32) . . .
33.7(33) . . .
38.3(33) . . .
40.4(33) . . .
44(4) . . .
35.0(32) . . .
38.5(35) . . .
30.9(29) . . .
38.2(33) . . .
39.2(32) . . .
46(4) . . .
37.0(34) . . .
45(4) . . .
48(4) . . .
37.6(33) . . .
39.4(34) . . .
42(4) . . .
28.9(28) . . .
34.4(32) . . .
31.8(29) . . .
37.0(32) . . .
38.2(34) . . .
34.2(31) . . .
38.0(34) . . .
26.1(27) . . .
34.7(31) . . .
26.4(28) . . .
33.0(30) . . .
38.5(33) . . .
35.1(32) . . .
38.2(33) . . .
36.0(31) . . .
32.6(31) . . .
37.9(33) . . .
30.7(29) . . .
37.8(33) . . .
34.7(31) . . .
36.3(32) . . .
37.3(35) . . .
33.1(32) . . .
35.1(30) . . .
39.6(32) . . .
39.1(32) . . .
39.0(33) . . .
35.2(33) . . .
32.8(30) . . .
38.8(32) . . .
44.1(35) . . .
41.8(35) . . .
40(4) . . .
38.9(34) . . .
35.4(31) . . .
38.8(33) . . .
35.5(33) . . .
33.5(32) . . .
37.3(32) . . .
35.3(31) . . .
38.2(32) . . .
30.8(29) . . .
37.5(34) . . .
34.8(32) . . .
32.9(30) . . .
53(4) . . .
34.7(30) . . .
41(4) . . .
34.6(31) . . .
40.2(33) . . .
39.6(33) . . .
40.1(35) . . .
37.1(32) . . .
37.8(32) . . .
43.1(34) . . .
37.8(33) . . .
35.8(32) . . .
36.0(33) . . .
35.2(31) . . .
29.2(28) . . .
34.2(30) . . .
33.8(33) . . .
36.3(32) . . .
32.2(29) . . .
33.6(30) . . .
35.9(33) . . .
32.5(32) . . .
41.0(35) . . .
36.6(32) . . .
38.7(34) . . .
39.0(32) . . .
34.5(31) . . .
42(4) . . .
27.1(27) . . .
34.7(31) . . .
33.4(32) . . .
34.4(33) . . .
32.4(32) . . .
30.3(29) . . .
36.1(32) . . .
42.5(35) . . .
38.0(32) . . .
36.8(33) . . .
42.3(34) . . .
36.0(31) . . .
38.7(33) . . .
29.2(29) . . .
38.1(34) . . .
34.0(30) . . .
33.4(30) . . .
34.6(31) . . .
32.5(34) . . .
35.9(33) . . .
37.5(32) . . .
33.6(31) . . .
36.2(31) . . .
37.5(31) . . .
38.3(32) . . .
38.0(33) . . .
42.0(34) . . .
42(4) . . .
35.0(31) . . .
38.2(32) . . .
34.1(30) . . .
31.9(30) . . .
29.9(30) . . .
30.7(29) . . .
41.1(33) . . .
37.1(32) . . .
32.1(30) . . .
33.4(33) . . .
46(4) . . .
34.6(30) . . .
38.8(32) . . .
40.0(34) . . .
36.6(33) . . .
38(4) . . .
38.1(33) . . .
32.6(29) . . .
34.1(32) . . .
29.4(32) . . .
39.7(34) . . .
39.1(33) . . .
39.4(33) . . .
30.8(30) . . .
38.2(35) . . .
34.9(30) . . .
42.1(34) . . .
35.5(30) . . .
27.4(28) . . .
33.9(33) . . .
41.0(34) . . .
37.3(32) . . .
37.1(32) . . .
34.5(32) . . .
35.9(35) . . .
36.1(34) . . .
37.1(32) . . .
43.3(34) . . .
31.5(31) . . .
32.4(30) . . .
31.3(30) . . .
34.2(31) . . .
33.7(30) . . .
32.8(30) . . .
38.3(35) . . .
31.7(29) . . .
32.8(30) . . .
34.9(31) . . .
34.7(31) . . .
47(4) . . .
45(4) . . .
37.4(31) . . .
34.1(31) . . .
30.9(29) . . .
35.4(31) . . .
34.9(31) . . .
43.6(34) . . .
41.1(34) . . .
36.6(34) . . .
42(4) . . .
40.5(33) . . .
33.0(30) . . .
29.1(30) . . .
31.3(31) . . .
36.5(33) . . .
41.7(35) . . .
38.9(32) . . .
30.8(32) . . .
39(4) . . .
39.8(34) . . .
37.3(32) . . .
46.0(35) . . .
34.2(31) . . .
27.2(29) . . .
38.0(33) . . .
36.1(32) . . .
35.5(31) . . .
37.3(32) . . .
33.1(33) . . .
34.6(31) . . .
29.5(28) . . .
37.6(33) . . .
43(4) . . .
30.4(29) . . .
46(4) . . .
37.3(32) . . .
34.5(33) . . .
38.7(35) . . .
36.4(31) . . .
38.7(33) . . .
46(4) . . .
36.0(31) . . .
41.0(34) . . .
37.4(32) . . .
35.6(32) . . .
37.4(32) . . .
34.0(31) . . .
31.4(30) . . .
35.4(32) . . .
36.6(32) . . .
32.3(30) . . .
33.9(31) . . .
36.6(32) . . .
33.1(31) . . .
27.8(28) . . .
30.6(29) . . .
37.6(34) . . .
33.3(31) . . .
36.0(33) . . .
36.3(32) . . .
33.9(30) . . .
44(4) . . .
37.2(33) . . .
35.5(32) . . .
40.4(33) . . .
37.0(32) . . .
29.5(28) . . .
38.1(35) . . .
27.6(28) . . .
35.5(32) . . .
39.3(32) . . .
38.5(34) . . .
37(4) . . .
30.8(29) . . .
39.7(33) . . .
39.4(33) . . .
40(4) . . .
31.4(30) . . .
34.4(31) . . .
35.4(31) . . .
34.6(31) . . .
42(4) . . .
43(4) . . .
47(4) . . .
34.6(30) . . .
30.7(30) . . .
33.1(32) . . .
35.0(32) . . .
33.2(31) . . .
35.9(31) . . .
33.4(30) . . .
36.7(32) . . .
33.3(31) . . .
33.0(32) . . .
26.5(27) . . .
34.8(31) . . .
39.7(34) . . .
41.4(35) . . .
32.4(29) . . .
28.5(28) . . .
33.4(31) . . .
33.3(31) . . .
38.7(33) . . .
42.9(34) . . .
39.0(33) . . .
35.5(32) . . .
43(4) . . .
23.9(25) . . .
37.0(33) . . .
41.5(35) . . .
37.3(33) . . .
41(4) . . .
32.8(31) . . .
38.4(32) . . .
34.3(31) . . .
32.6(31) . . .
35.5(35) . . .
38.8(35) . . .
35.7(31) . . .
26.4(27) . . .
37.7(33) . . .
47(4) . . .
42(4) . . .
33.4(30) . . .
39.2(33) . . .
34.2(31) . . .
37.5(33) . . .
35.8(31) . . .
40.3(33) . . .
36.6(32) . . .
32.3(32) . . .
40(4) . . .
32.0(29) . . .
38.5(32) . . .
36.2(32) . . .
29.8(29) . . .
30.1(29) . . .
33.4(34) . . .
34.3(31) . . .
37.5(32) . . .
34.6(31) . . .
40.2(35) . . .
40.6(35) . . .
38.1(32) . . .
30.8(31) . . .
32.2(31) . . .
33.7(31) . . .
35.0(31) . . .
40.0(33) . . .
35.7(32) . . .
37.0(33) . . .
36.3(32) . . .
37.3(32) . . .
33.7(30) . . .
39.2(32) . . .
43(4) . . .
35.1(32) . . .
35.8(31) . . .
45(4) . . .
27.9(30) . . .
31.5(30) . . .
37.3(32) . . .
37.2(33) . . .
34.2(30) . . .
33.0(31) . . .
36.6(33) . . .
32.7(30) . . .
31.0(30) . . .
33.1(30) . . .
38.1(33) . . .
29.7(30) . . .
39(4) . . .
33.0(31) . . .
36.4(31) . . .
41.9(35) . . .
35.5(33) . . .
40.9(33) . . .
44.9(35) . . .
37.5(32) . . .
30.6(29) . . .
30.7(31) . . .
37.1(35) . . .
33.5(31) . . .
34.2(30) . . .
37.0(32) . . .
34.1(32) . . .
33.8(30) . . .
38.5(33) . . .
40.7(34) . . .
34.9(30) . . .
45(4) . . .
36.1(32) . . .
32.4(30) . . .
35.7(32) . . .
40.4(34) . . .
33.6(33) . . .
33.8(31) . . .
31.7(29) . . .
30.0(29) . . .
43(4) . . .
37.4(33) . . .
37.7(33) . . .
30.9(28) . . .
30.8(31) . . .
41(4) . . .
35.6(33) . . .
37.2(32) . . .
32.8(29) . . .
31.4(30) . . .
43(4) . . .
30.6(30) . . .
39.3(33) . . .
33.7(30) . . .
40(4) . . .
40.4(35) . . .
43(4) . . .
40.1(33) . . .
40.7(33) . . .
29.2(28) . . .
34(4) . . .
34.3(33) . . .
39.3(33) . . .
36.5(32) . . .
35.4(32) . . .
39(4) . . .
36.2(33) . . .
30.3(28) . . .
35.4(31) . . .
47(4) . . .
37.7(34) . . .
35.8(31) . . .
31.5(29) . . .
34.4(31) . . .
38.2(33) . . .
35.4(33) . . .
34.9(32) . . .
33.8(30) . . .
28.5(28) . . .
35.2(32) . . .
28.1(27) . . .
35.5(33) . . .
29.6(28) . . .
35.0(33) . . .
43(4) . . .
29.9(28) . . .
38.5(34) . . .
39.3(33) . . .
35.4(33) . . .
27.3(29) . . .
34.3(31) . . .
35.2(32) . . .
35.0(31) . . .
44(4) . . .
32.8(32) . . .
36.1(34) . . .
36.7(32) . . .
32.9(30) . . .
34.5(33) . . .
39.4(35) . . .
45(4) . . .
29.1(28) . . .
36.4(31) . . .
42(4) . . .
30.2(28) . . .
44(4) . . .
25.5(26) . . .
35.7(31) . . .
38.1(34) . . .
32.2(33) . . .
36.7(32) . . .
35.5(31) . . .
35.9(32) . . .
44(4) . . .
38.4(35) . . .
36.3(33) . . .
41.1(34) . . .
30.1(28) . . .
26.7(27) . . .
34.0(31) . . .
42(4) . . .
39.9(33) . . .
39.2(33) . . .
27.6(29) . . .
38(4) . . .
32.5(30) . . .
35.3(31) . . .
24.4(26) . . .
32.3(31) . . .
37.7(34) . . .
39.9(33) . . .
41.8(34) . . .
47(4) . . .
34.0(31) . . .
39.7(35) . . .
36.1(32) . . .
39.6(33) . . .
44(4) . . .
35.3(32) . . .
31.5(29) . . .
36.6(32) . . .
35.3(31) . . .
34.2(32) . . .
34.9(33) . . .
36(4) . . .
31.6(30) . . .
33.4(31) . . .
35.7(32) . . .
31.4(29) . . .
32.9(31) . . .
37.2(33) . . .
37.8(32) . . .
31.1(31) . . .
41(4) . . .
37.8(33) . . .
34.8(31) . . .
32.4(30) . . .
32.4(31) . . .
36.4(34) . . .
43(4) . . .
33.9(31) . . .
31.9(29) . . .
39.1(35) . . .
41(4) . . .
41(4) . . .
35.4(31) . . .
33.2(31) . . .
31.5(33) . . .
33.8(32) . . .
40.3(34) . . .
35.0(31) . . .
36.8(33) . . .
41.9(35) . . .
37.1(32) . . .
30.8(29) . . .
36.1(32) . . .
33.7(30) . . .
28.8(31) . . .
33.3(33) . . .
29.4(29) . . .
34.7(32) . . .
35.3(30) . . .
39.5(34) . . .
34.3(31) . . .
41.0(34) . . .
38.6(33) . . .
46(4) . . .
38.7(33) . . .
38(4) . . .
47(4) . . .
34.3(30) . . .
32.7(30) . . .
28.1(27) . . .
34.7(35) . . .
34.0(33) . . .
49(4) . . .
38.8(33) . . .
34.1(33) . . .
39.9(34) . . .
40.2(33) . . .
38.2(32) . . .
43(4) . . .
35.1(34) . . .
34.8(32) . . .
45(4) . . .
40.9(34) . . .
35.1(32) . . .
35.6(34) . . .
31.1(31) . . .
38.7(32) . . .
40.6(33) . . .
34.7(31) . . .
31.0(33) . . .
31.0(29) . . .
36.9(32) . . .
28.3(28) . . .
34.5(33) . . .
28.7(28) . . .
35.1(33) . . .
34.6(31) . . .
34.3(30) . . .
32.1(30) . . .
43(4) . . .
44(4) . . .
37.9(32) . . .
32.6(30) . . .
40(4) . . .
41(4) . . .
32.3(32) . . .
34.7(31) . . .
37.3(32) . . .
37.2(33) . . .
42(4) . . .
30.1(30) . . .
27.7(28) . . .
37.8(32) . . .
35.2(33) . . .
36.3(34) . . .
31.8(30) . . .
35.1(31) . . .
32.7(31) . . .
30.1(29) . . .
39.3(34) . . .
42.0(33) . . .
31.7(29) . . .
37.3(33) . . .
33.8(33) . . .
34.1(33) . . .
30.6(28) . . .
41.5(33) . . .
43(4) . . .
35.3(33) . . .
39.6(34) . . .
42.1(34) . . .
35.3(31) . . .
34.4(31) . . .
41(4) . . .
43(4) . . .
42.4(34) . . .
34.6(30) . . .
36.3(32) . . .
37.0(33) . . .
38.4(32) . . .
36.6(32) . . .
29.9(29) . . .
38.1(34) . . .
41(4) . . .
26.8(27) . . .
33.1(30) . . .
30.8(28) . . .
36.7(33) . . .
34.1(32) . . .
38.2(34) . . .
36.3(31) . . .
42.3(34) . . .
36.5(33) . . .
35.5(33) . . .
34.2(30) . . .
48(4) . . .
35.4(32) . . .
35.6(31) . . .
29.9(29) . . .
25.4(28) . . .
32.8(30) . . .
35.4(31) . . .
37.1(33) . . .
35.8(32) . . .
28.5(28) . . .
35.3(31) . . .
38.1(32) . . .
41.3(35) . . .
33.3(29) . . .
30.1(29) . . .
37.3(32) . . .
37.4(33) . . .
37.3(35) . . .
36(4) . . .
34.7(31) . . .
41.2(34) . . .
34.7(31) . . .
36.6(31) . . .
33.1(30) . . .
32.7(30) . . .
31.4(29) . . .
28.8(28) . . .
40(4) . . .
31.4(30) . . .
39.1(32) . . .
33.7(31) . . .
37.9(34) . . .
37.4(34) . . .
41(4) . . .
24.9(26) . . .
38.1(32) . . .
38.5(32) . . .
41(4) . . .
29.4(30) . . .
30.8(29) . . .
36.3(31) . . .
39.0(34) . . .
29.7(29) . . .
36.3(35) . . .
32.7(31) . . .
30.7(29) . . .
40.0(34) . . .
37.7(34) . . .
29.4(30) . . .
33.8(30) . . .
34.6(30) . . .
30.9(29) . . .
33.9(32) . . .
36.7(33) . . .
34.3(31) . . .
36.9(32) . . .
35.7(33) . . .
37.9(33) . . .
35.9(32) . . .
40.9(34) . . .
34.3(30) . . .
34.5(31) . . .
38.2(33) . . .
37.5(34) . . .
36.9(32) . . .
30.6(30) . . .
35.5(32) . . .
30.0(30) . . .
35.2(31) . . .
35.3(32) . . .
46(4) . . .
39.9(33) . . .
36.7(31) . . .
40.1(34) . . .
40.2(34) . . .
41(4) . . .
38(4) . . .
42(4) . . .
26.9(28) . . .
36.2(32) . . .
33.8(30) . . .
29.5(28) . . .
30.7(29) . . .
31.0(29) . . .
36.7(32) . . .
44(4) . . .
34.8(33) . . .
37.6(34) . . .
35.9(31) . . .
35.5(32) . . .
32.9(31) . . .
37(4) . . .
42.8(35) . . .
37.0(31) . . .
32.4(29) . . .
34.3(33) . . .
37.3(33) . . .
39.3(32) . . .
32.2(30) . . .
37.6(32) . . .
46(4) . . .
42(4) . . .
37(4) . . .
38.3(32) . . .
37.1(33) . . .
30.3(29) . . .
31.0(29) . . .
36.0(32) . . .
35.0(30) . . .
42(4) . . .
32.6(32) . . .
31.9(31) . . .
38(4) . . .
31.0(29) . . .
34.7(32) . . .
38.3(35) . . .
32.4(31) . . .
39.5(34) . . .
36.4(31) . . .
37.7(33) . . .
28.8(28) . . .
36.8(32) . . .
44(4) . . .
32.2(30) . . .
31.0(29) . . .
35.4(33) . . .
39.9(35) . . .
34.3(31) . . .
32.5(29) . . .
42(4) . . .
35.0(32) . . .
38.7(35) . . .
38.2(32) . . .
44(4) . . .
39.6(34) . . .
42(4) . . .
40.1(34) . . .
33.3(31) . . .
42.3(34) . . .
40(4) . . .
30.9(30) . . .
33.5(31) . . .
34.0(31) . . .
29.1(29) . . .
34.9(32) . . .
47(4) . . .
29.8(29) . . .
36.4(32) . . .
33.2(31) . . .
35.3(32) . . .
41.8(34) . . .
45(4) . . .
32.2(30) . . .
39.3(33) . . .
38.8(32) . . .
40.3(34) . . .
31.2(29) . . .
35.3(31) . . .
36.0(31) . . .
31.4(29) . . .
45(4) . . .
34.3(30) . . .
34.5(30) . . .
36.7(32) . . .
42(4) . . .
31.5(31) . . .
28.2(29) . . .
25.0(26) . . .
31.5(33) . . .
24.3(28) . . .
23.4(26) . . .
38.0(33) . . .
31.5(30) . . .
24.5(26) . . .
34.6(32) . . .
43(4) . . .
32.2(29) . . .
38.7(33) . . .
38.2(35) . . .
38(4) . . .
33.0(30) . . .
32.3(30) . . .
36.8(32) . . .
38(4) . . .
40(4) . . .
27.1(27) . . .
36.3(31) . . .
35.8(31) . . .
38.2(32) . . .
40(4) . . .
37.1(34) . . .
35.8(31) . . .
31.2(29) . . .
33.3(30) . . .
35.6(33) . . .
35.2(32) . . .
32.2(30) . . .
34.2(30) . . .
37.3(35) . . .
27.3(28) . . .
39.9(34) . . .
37.2(32) . . .
39.8(34) . . .
34.1(30) . . .
36.3(33) . . .
29.6(29) . . .
32.2(30) . . .
34.2(31) . . .
36.0(32) . . .
38.2(33) . . .
32.0(30) . . .
43.7(35) . . .
34.4(31) . . .
40(4) . . .
28.3(28) . . .
43(4) . . .
35.6(31) . . .
34.0(30) . . .
34.8(31) . . .
34.5(31) . . .
39.9(33) . . .
35.1(31) . . .
29.2(30) . . .
29.2(29) . . .
41.4(34) . . .
39.5(33) . . .
32.2(30) . . .
34.8(31) . . .
35.4(32) . . .
28.6(28) . . .
27.1(28) . . .
30.4(28) . . .
39.0(34) . . .
29.3(29) . . .
33.4(31) . . .
32.8(30) . . .
41.1(34) . . .
32.2(33) . . .
34.2(33) . . .
39.6(35) . . .
40.8(33) . . .
38.9(32) . . .
30.0(29) . . .
35.7(33) . . .
36.1(33) . . .
33.4(30) . . .
30.8(29) . . .
37.3(33) . . .
32.3(30) . . .
31.9(29) . . .
22.5(25) . . .
28.4(29) . . .
39.3(34) . . .
35.5(33) . . .
27.7(28) . . .
39.5(33) . . .
33.8(30) . . .
37.8(33) . . .
28.5(29) . . .
28.0(27) . . .
34.5(31) . . .
39.6(34) . . .
32.3(30) . . .
37.7(35) . . .
39.1(34) . . .
37.5(32) . . .
28.4(28) . . .
37(4) . . .
43(4) . . .
44(4) . . .
36.1(31) . . .
35.0(31) . . .
39.1(34) . . .
37.6(32) . . .
29.6(28) . . .
36.1(31) . . .
39.3(34) . . .
47(4) . . .
35.0(31) . . .
23.9(25) . . .
38.0(32) . . .
30.0(29) . . .
43(4) . . .
30.2(28) . . .
31.4(31) . . .
31.6(29) . . .
20.3(24) . . .
31.7(33) . . .
39(4) . . .
28.8(28) . . .
30.4(29) . . .
35.5(33) . . .
42(4) . . .
37.0(31) . . .
35.3(31) . . .
30.8(29) . . .
41(4) . . .
31.8(32) . . .
31.7(31) . . .
37.3(32) . . .
31.0(28) . . .
39.8(35) . . .
36.0(32) . . .
34.4(31) . . .
36.3(31) . . .
32.9(30) . . .
27.1(32) . . .
31.6(30) . . .
38.8(33) . . .
33.5(30) . . .
31.9(29) . . .
37.3(34) . . .
36.3(34) . . .
31.6(30) . . .
40.4(34) . . .
38.0(34) . . .
34.2(33) . . .
39.3(35) . . .
42(4) . . .
41.7(34) . . .
37.4(33) . . .
42.0(34) . . .
35.7(31) . . .
36.2(31) . . .
32.4(30) . . .
33.6(31) . . .
39(4) . . .
32.1(30) . . .
36.5(33) . . .
41.0(33) . . .
39.8(35) . . .
36.4(35) . . .
33.8(31) . . .
37.1(32) . . .
36.7(32) . . .
30.8(30) . . .
34.0(34) . . .
35.9(32) . . .
42.6(34) . . .
43.5(34) . . .
31.2(31) . . .
29.0(31) . . .
38.4(34) . . .
34.8(30) . . .
46(4) . . .
33.2(31) . . .
34.3(31) . . .
35.0(30) . . .
38.9(33) . . .
37.8(32) . . .
40.1(34) . . .
38.4(33) . . .
36.3(32) . . .
39.1(33) . . .
45(4) . . .
45(4) . . .
37.3(34) . . .
36.6(33) . . .
27.2(27) . . .
35.7(32) . . .
37.1(33) . . .
32.3(30) . . .
30.1(29) . . .
37.5(33) . . .
43(4) . . .
33.9(32) . . .
29.8(28) . . .
33.9(30) . . .
40.9(34) . . .
28.3(30) . . .
30.6(30) . . .
44(4) . . .
32.5(29) . . .
36.2(32) . . .
33.5(30) . . .
39.1(33) . . .
37.2(31) . . .
37.9(33) . . .
36.9(31) . . .
42.2(35) . . .
37.2(32) . . .
30.4(28) . . .
28.1(28) . . .
33.9(30) . . .
25.9(28) . . .
40(4) . . .
33.6(32) . . .
32.3(30) . . .
36.0(31) . . .
40.8(34) . . .
29.8(29) . . .
32.2(31) . . .
35.0(31) . . .
40.0(33) . . .
36.0(31) . . .
36.7(33) . . .
33.1(32) . . .
40.4(33) . . .
43.2(34) . . .
39.5(33) . . .
38.8(35) . . .
35.4(32) . . .
35.2(33) . . .
40.7(34) . . .
45(4) . . .
36.5(32) . . .
35.2(32) . . .
34.1(30) . . .
44(4) . . .
28.8(29) . . .
32.8(32) . . .
32.4(31) . . .
35.4(31) . . .
45(4) . . .
31.9(29) . . .
33.8(31) . . .
34.3(31) . . .
28.4(28) . . .
40.2(35) . . .
30.6(31) . . .
34.9(33) . . .
31.1(29) . . .
33.1(30) . . .
31.3(30) . . .
29.6(30) . . .
33.3(33) . . .
41.7(34) . . .
49(4) . . .
31.4(31) . . .
30.9(31) . . .
36.3(32) . . .
33.8(31) . . .
34.5(31) . . .
32.3(30) . . .
31.4(30) . . .
33.2(32) . . .
35.1(31) . . .
31.1(30) . . .
33.6(31) . . .
35.8(34) . . .
34.5(32) . . .
37.7(32) . . .
29.2(30) . . .
33.7(32) . . .
34.7(33) . . .
39.8(34) . . .
39.4(33) . . .
31.2(29) . . .
35.9(32) . . .
41(4) . . .
38.0(33) . . .
45(4) . . .
39.7(33) . . .
33.8(30) . . .
40(4) . . .
44(4) . . .
32.9(30) . . .
28.3(30) . . .
26.2(27) . . .
38(4) . . .
36.0(33) . . .
41.7(33) . . .
29.3(29) . . .
31.2(29) . . .
39.1(35) . . .
29.5(31) . . .
29.8(29) . . .
48(4) . . .
36.4(32) . . .
32.1(31) . . .
39.4(34) . . .
31.6(29) . . .
40.2(34) . . .
30.3(32) . . .
23.1(27) . . .
28.0(28) . . .
32.8(30) . . .
31.8(32) . . .
31.4(32) . . .
27.7(27) . . .
33.1(30) . . .
29.6(28) . . .
37.6(34) . . .
31.9(30) . . .
34.1(31) . . .
36.7(32) . . .
36.5(31) . . .
28.9(29) . . .
31.0(34) . . .
35.0(33) . . .
37.8(32) . . .
34.1(30) . . .
36.9(32) . . .
38.0(33) . . .
38.8(33) . . .
34.5(31) . . .
38.9(32) . . .
36.7(33) . . .
42(4) . . .
30.7(31) . . .
28.7(29) . . .
29.9(28) . . .
27.4(27) . . .
45(4) . . .
39.0(33) . . .
33.5(31) . . .
41(4) . . .
33.0(31) . . .
38.4(34) . . .
35.9(33) . . .
42.0(34) . . .
37.6(33) . . .
32.2(30) . . .
32.9(32) . . .
35.5(33) . . .
34.5(31) . . .
32.5(31) . . .
36.0(33) . . .
41(4) . . .
38.1(34) . . .
36.5(31) . . .
37.2(32) . . .
37.8(32) . . .
37.2(33) . . .
35.8(31) . . .
29.2(28) . . .
32.3(31) . . .
31.7(31) . . .
30.8(31) . . .
31.1(29) . . .
36.0(31) . . .
39.7(34) . . .
31.5(31) . . .
33.1(30) . . .
37.3(32) . . .
31.0(29) . . .
41(4) . . .
29.8(30) . . .
39.4(35) . . .
34.3(30) . . .
28.4(28) . . .
32.5(31) . . .
35.9(34) . . .
38.3(32) . . .
34.1(30) . . .
31.3(31) . . .
42(4) . . .
34.8(33) . . .
35.5(34) . . .
35.5(31) . . .
37.5(32) . . .
45(4) . . .
35.8(35) . . .
35.0(31) . . .
40.0(33) . . .
30.2(28) . . .
33.8(31) . . .
31.0(30) . . .
37.4(34) . . .
32.1(29) . . .
35.0(32) . . .
38.7(34) . . .
29.8(28) . . .
26.2(27) . . .
39.1(32) . . .
38.1(34) . . .
34.2(30) . . .
31.0(28) . . .
33.9(31) . . .
40.1(33) . . .
35.4(30) . . .
36.0(32) . . .
39.0(33) . . .
40.5(34) . . .
33.5(30) . . .
31.6(31) . . .
37.8(34) . . .
30.6(29) . . .
38.8(33) . . .
28.7(28) . . .
37(4) . . .
34.1(35) . . .
31.3(30) . . .
27.9(27) . . .
35.8(31) . . .
35.7(31) . . .
39.7(35) . . .
38.4(32) . . .
31.7(29) . . .
43(4) . . .
29.7(28) . . .
36.3(34) . . .
36.4(32) . . .
30.4(29) . . .
35.3(31) . . .
33.6(34) . . .
33.1(31) . . .
38.3(35) . . .
34.6(32) . . .
33.4(30) . . .
37.6(33) . . .
29.7(29) . . .
30.1(32) . . .
29.0(29) . . .
44.2(35) . . .
39.9(35) . . .
41.6(35) . . .
36.8(32) . . .
35.8(31) . . .
33.3(30) . . .
36.1(34) . . .
24.3(26) . . .
34.0(31) . . .
28.8(28) . . .
31.5(30) . . .
24.6(29) . . .
33.1(35) . . .
33.0(31) . . .
40.3(32) . . .
32.3(31) . . .
41.0(34) . . .
42.7(35) . . .
37.2(31) . . .
36.4(31) . . .
33.7(34) . . .
28.9(30) . . .
39.1(33) . . .
36.1(31) . . .
30.5(28) . . .
33.1(33) . . .
40(4) . . .
31.9(30) . . .
32.3(30) . . .
28.3(27) . . .
32.6(30) . . .
32.7(31) . . .
34.8(32) . . .
31.0(29) . . .
34.5(31) . . .
28.5(28) . . .
39(4) . . .
41(4) . . .
40.2(34) . . .
35.5(30) . . .
34.7(32) . . .
35.5(34) . . .
31.4(30) . . .
31.6(31) . . .
37.6(32) . . .
29.4(28) . . .
27.5(30) . . .
32.2(31) . . .
39.5(33) . . .
34.5(30) . . .
28.3(30) . . .
30.6(31) . . .
34.5(32) . . .
33.5(31) . . .
31.5(31) . . .
31.6(30) . . .
37.0(33) . . .
29.0(29) . . .
29.4(28) . . .
33.2(31) . . .
41(4) . . .
31.3(30) . . .
32.0(30) . . .
28.6(28) . . .
47(4) . . .
45(4) . . .
37.4(33) . . .
34.2(30) . . .
37.6(32) . . .
32.0(31) . . .
32.9(33) . . .
29.5(29) . . .
36.9(32) . . .
40.3(33) . . .
33.1(32) . . .
45(4) . . .
33.5(30) . . .
37.9(32) . . .
31.8(29) . . .
29.3(28) . . .
37.0(34) . . .
33.7(30) . . .
34.7(31) . . .
35.0(31) . . .
33.8(30) . . .
33.8(34) . . .
37.7(34) . . .
38.9(32) . . .
37.4(32) . . .
37.5(33) . . .
35.6(33) . . .
37.6(34) . . .
33.7(31) . . .
37.4(32) . . .
35.0(32) . . .
35.5(33) . . .
40.4(34) . . .
31.7(29) . . .
41.1(33) . . .
36.8(32) . . .
33.0(30) . . .
43(4) . . .
41.7(34) . . .
27.7(27) . . .
38.0(32) . . .
30.3(28) . . .
32.5(31) . . .
35.2(31) . . .
38.8(35) . . .
33.8(33) . . .
28.8(29) . . .
38.8(34) . . .
28.6(27) . . .
32.0(31) . . .
33.4(33) . . .
33.3(31) . . .
28.7(30) . . .
45.0(35) . . .
36.6(34) . . .
29.1(28) . . .
35.4(31) . . .
36.1(31) . . .
34.3(31) . . .
31.6(31) . . .
33.4(32) . . .
33.3(31) . . .
35.4(31) . . .
39.0(32) . . .
40(4) . . .
34.1(31) . . .
35.4(32) . . .
33.7(31) . . .
38.5(32) . . .
38.5(34) . . .
28.7(29) . . .
29.4(29) . . .
36.8(32) . . .
43.2(34) . . .
31.0(29) . . .
32.4(32) . . .
29.7(31) . . .
30.8(30) . . .
40.7(33) . . .
43(4) . . .
34.0(31) . . .
37(4) . . .
31.6(30) . . .
41.8(34) . . .
39.9(34) . . .
38(4) . . .
39.8(34) . . .
30.9(29) . . .
29.4(29) . . .
33.4(29) . . .
49(4) . . .
47(4) . . .
29.4(29) . . .
37.3(32) . . .
34.3(33) . . .
28.2(27) . . .
42(4) . . .
38.9(32) . . .
31.6(31) . . .
32.0(31) . . .
50(4) . . .
47(4) . . .
35.4(31) . . .
30.0(29) . . .
38(4) . . .
32.7(32) . . .
39.9(35) . . .
31.9(29) . . .
31.5(31) . . .
37(4) . . .
39.0(34) . . .
38.2(33) . . .
34.1(30) . . .
29.3(30) . . .
32.0(31) . . .
41(4) . . .
30.0(29) . . .
36.1(32) . . .
38.6(34) . . .
44(4) . . .
32.1(30) . . .
36.0(33) . . .
34.2(30) . . .
36.2(31) . . .
34.1(31) . . .
34.9(31) . . .
34.4(31) . . .
34.1(30) . . .
35.2(32) . . .
41(4) . . .
35.9(31) . . .
37.8(32) . . .
37.9(33) . . .
30.0(28) . . .
31.0(31) . . .
30.5(29) . . .
36.8(32) . . .
41.2(33) . . .
46(4) . . .
42(4) . . .
31.8(29) . . .
40.4(33) . . .
40.1(33) . . .
34.7(32) . . .
35.0(34) . . .
39.8(34) . . .
44.0(34) . . .
34.6(31) . . .
36.1(34) . . .
35.6(32) . . .
38.0(33) . . .
33.6(31) . . .
39.1(34) . . .
28.0(28) . . .
31.3(30) . . .
43(4) . . .
30.9(29) . . .
29.1(29) . . .
35.5(33) . . .
32.0(29) . . .
34.1(30) . . .
30.9(29) . . .
33.0(32) . . .
32.8(33) . . .
34.7(34) . . .
32.4(30) . . .
29.5(28) . . .
29.9(29) . . .
34.4(32) . . .
33.5(31) . . .
28.7(28) . . .
40.3(33) . . .
32.0(29) . . .
27.4(27) . . .
39.2(35) . . .
37.9(32) . . .
36.0(31) . . .
36.7(32) . . .
29.6(30) . . .
28.6(28) . . .
39.3(32) . . .
36.2(31) . . .
49(4) . . .
41(4) . . .
38.5(32) . . .
34.6(31) . . .
33.6(32) . . .
29.5(29) . . .
36.9(34) . . .
25.5(27) . . .
38.8(32) . . .
32.5(31) . . .
27.9(29) . . .
27.1(28) . . .
45(4) . . .
38.7(33) . . .
35.7(31) . . .
35.3(32) . . .
38.3(35) . . .
35.5(32) . . .
29.6(29) . . .
40.8(35) . . .
36.6(33) . . .
36.5(35) . . .
30.9(29) . . .
44.0(35) . . .
42(4) . . .
32.5(29) . . .
41(4) . . .
37.0(31) . . .
39.7(33) . . .
36.9(33) . . .
44(4) . . .
29.4(30) . . .
29.3(30) . . .
32.6(29) . . .
33.5(31) . . .
30.4(30) . . .
30.7(30) . . .
33.2(30) . . .
28.2(28) . . .
44(4) . . .
39.8(34) . . .
38.0(34) . . .
29.3(28) . . .
29.8(28) . . .
45(4) . . .
42.4(35) . . .
33.0(30) . . .
33.3(30) . . .
36.5(31) . . .
35.1(30) . . .
37.8(34) . . .
40.5(34) . . .
31.8(29) . . .
28.7(28) . . .
37.5(33) . . .
32.5(31) . . .
39(4) . . .
32.5(30) . . .
38.6(34) . . .
39.3(34) . . .
37.7(35) . . .
32.0(29) . . .
35.4(31) . . .
36.8(32) . . .
37.4(33) . . .
33.3(31) . . .
28.0(30) . . .
37.7(32) . . .
38.7(32) . . .
33.8(32) . . .
32.5(32) . . .
33.2(31) . . .
33.8(30) . . .
34.4(33) . . .
36.4(33) . . .
39.0(34) . . .
38.2(34) . . .
33.4(31) . . .
31.0(30) . . .
37.3(34) . . .
34.6(30) . . .
34.6(30) . . .
44(4) . . .
33.8(31) . . .
39(4) . . .
41(4) . . .
30.3(28) . . .
37.2(31) . . .
36.0(33) . . .
33.2(33) . . .
38.8(34) . . .
29.5(29) . . .
36.5(33) . . .
42.4(34) . . .
34.3(33) . . .
36.4(35) . . .
29.5(28) . . .
32.2(29) . . .
42.4(35) . . .
41.3(35) . . .
35.3(32) . . .
31.3(30) . . .
33.1(30) . . .
43(4) . . .
30.0(28) . . .
40.2(34) . . .
32.2(29) . . .
37.7(32) . . .
43(4) . . .
28.4(28) . . .
32.2(32) . . .
34.6(31) . . .
36.3(32) . . .
26.5(27) . . .
38.8(35) . . .
41.1(35) . . .
39.6(33) . . .
33.9(32) . . .
32.3(31) . . .
35.8(32) . . .
29.5(31) . . .
36.0(31) . . .
38.6(34) . . .
37.5(35) . . .
33.8(31) . . .
34.6(31) . . .
38.1(32) . . .
32.4(31) . . .
39.7(33) . . .
39(4) . . .
29.5(29) . . .
27.9(27) . . .
34.7(31) . . .
33.7(31) . . .
36.0(32) . . .
37.9(32) . . .
33.1(30) . . .
35.6(31) . . .
42(4) . . .
37.3(33) . . .
38.8(32) . . .
32.9(29) . . .
32.8(30) . . .
43(4) . . .
33.5(31) . . .
30.9(29) . . .
41.5(34) . . .
26.1(29) . . .
42(4) . . .
38.2(34) . . .
37.4(32) . . .
39.6(33) . . .
36.1(32) . . .
34.6(32) . . .
32.8(31) . . .
36.6(32) . . .
42.6(34) . . .
36.1(32) . . .
38.3(34) . . .
37.0(32) . . .
28.9(29) . . .
25.1(27) . . .
22.1(24) . . .
36.0(35) . . .
31.0(29) . . .
37.7(33) . . .
36.6(33) . . .
43(4) . . .
33.6(30) . . .
35.2(32) . . .
28.4(28) . . .
29.6(29) . . .
32.8(32) . . .
36.7(33) . . .
42.3(35) . . .
38.4(32) . . .
46(4) . . .
32.9(29) . . .
43(4) . . .
34.0(31) . . .
31.6(29) . . .
29.4(29) . . .
29.2(31) . . .
28.1(30) . . .
37.9(33) . . .
34.9(31) . . .
30.5(28) . . .
40.0(34) . . .
45(4) . . .
32.5(30) . . .
35.0(31) . . .
34.4(32) . . .
32.8(30) . . .
34.3(32) . . .
38.2(32) . . .
29.6(29) . . .
37.7(35) . . .
35.0(34) . . .
37.2(33) . . .
37.4(32) . . .
33.5(31) . . .
31.4(29) . . .
51(4) . . .
27.5(28) . . .
34.4(30) . . .
47(4) . . .
32.3(31) . . .
28.5(31) . . .
37.2(32) . . .
34.1(31) . . .
46(4) . . .
44(4) . . .
29.4(29) . . .
35.0(31) . . .
41.5(34) . . .
30.1(30) . . .
31.3(32) . . .
29.5(30) . . .
34.6(30) . . .
30.1(29) . . .
37.9(34) . . .
32.8(31) . . .
40.6(34) . . .
36.4(33) . . .
33.6(31) . . .
36.4(32) . . .
49(4) . . .
36.4(33) . . .
31.5(30) . . .
32.8(30) . . .
40(4) . . .
29.5(32) . . .
41(4) . . .
37.7(32) . . .
33.3(30) . . .
45(4) . . .
38.1(33) . . .
36.3(35) . . .
29.7(28) . . .
36.2(32) . . .
37.6(33) . . .
36(4) . . .
38(4) . . .
34.6(31) . . .
24.4(26) . . .
36.5(34) . . .
39(4) . . .
31.1(29) . . .
34.9(31) . . .
40.8(34) . . .
38(4) . . .
34.8(33) . . .
34.5(31) . . .
33.7(30) . . .
37.7(34) . . .
36.2(34) . . .
32.9(32) . . .
36.0(33) . . .
36.6(32) . . .
29.9(28) . . .
30.1(31) . . .
42(4) . . .
38.8(33) . . .
34.9(31) . . .
42.9(35) . . .
45(4) . . .
30.5(29) . . .
25.8(27) . . .
31.3(29) . . .
32.5(31) . . .
34.3(31) . . .
31.9(31) . . .
34.0(32) . . .
40.8(33) . . .
36.7(33) . . .
41(4) . . .
35.5(31) . . .
32.0(30) . . .
38.7(32) . . .
44(4) . . .
35.2(30) . . .
36.7(32) . . .
30.1(30) . . .
36.5(31) . . .
32.9(31) . . .
35.9(33) . . .
30.7(29) . . .
30.4(28) . . .
47(4) . . .
29.7(28) . . .
33.5(32) . . .
36.4(33) . . .
38.2(32) . . .
35.3(32) . . .
28.6(27) . . .
29.1(31) . . .
35.0(33) . . .
35.8(32) . . .
29.4(28) . . .
35.6(31) . . .
44(4) . . .
40.8(33) . . .
40.0(32) . . .
40.3(34) . . .
31.4(31) . . .
31.6(32) . . .
31.3(30) . . .
41.0(34) . . .
30.4(29) . . .
43(4) . . .
37.6(33) . . .
33.0(31) . . .
30.1(29) . . .
28.5(27) . . .
35.5(31) . . .
30.3(31) . . .
37.0(34) . . .
38.5(33) . . .
31.6(30) . . .
32.2(33) . . .
28.3(30) . . .
32.3(31) . . .
32.8(30) . . .
32.6(32) . . .
35.4(34) . . .
33.9(33) . . .
28.0(27) . . .
34.0(30) . . .
37.0(34) . . .
32.1(33) . . .
29.0(31) . . .
32.9(31) . . .
34.2(31) . . .
32.6(31) . . .
34.6(34) . . .
33.7(33) . . .
37.4(32) . . .
34.2(30) . . .
36.0(32) . . .
33.0(31) . . .
31.3(29) . . .
39.6(32) . . .
36.8(31) . . .
38.8(33) . . .
37.2(34) . . .
32.6(30) . . .
31.8(30) . . .
34.2(30) . . .
35.5(30) . . .
36.6(31) . . .
43(4) . . .
34.6(31) . . .
33.8(31) . . .
33.5(32) . . .
30.6(31) . . .
27.3(27) . . .
36.0(32) . . .
34.5(31) . . .
27.8(28) . . .
30.5(30) . . .
28.3(28) . . .
32.2(31) . . .
34.8(31) . . .
33.2(30) . . .
33.9(31) . . .
30.2(29) . . .
31.2(29) . . .
36.3(31) . . .
35.0(31) . . .
34.3(31) . . .
36.7(32) . . .
32.0(30) . . .
40.1(34) . . .
35.6(34) . . .
33.9(33) . . .
34.5(31) . . .
37.4(32) . . .
44(4) . . .
36.4(31) . . .
41.5(34) . . .
33.3(33) . . .
31.7(29) . . .
36.1(33) . . .
41(4) . . .
35.8(32) . . .
39.6(33) . . .
36.3(32) . . .
38.1(33) . . .
48(4) . . .
36.6(31) . . .
40.3(34) . . .
34.0(30) . . .
36.4(33) . . .
36.9(33) . . .
30.3(31) . . .
36.2(31) . . .
39.8(33) . . .
32.6(30) . . .
31.8(32) . . .
35.1(33) . . .
33.1(29) . . .
43(4) . . .
37.6(34) . . .
33.0(32) . . .
29.8(30) . . .
25.1(26) . . .
36.9(32) . . .
38.7(33) . . .
37.4(33) . . .
34.6(30) . . .
33.8(30) . . .
43.0(35) . . .
34.4(31) . . .
35.8(32) . . .
42.1(35) . . .
34.7(31) . . .
36.6(33) . . .
35.4(33) . . .
28.8(30) . . .
30.1(30) . . .
30.2(29) . . .
29.5(30) . . .
41(4) . . .
40.5(33) . . .
33.3(31) . . .
29.9(29) . . .
26.4(26) . . .
33.1(31) . . .
35.5(33) . . .
35.0(31) . . .
38.2(33) . . .
36.9(33) . . .
37(4) . . .
29.4(28) . . .
33.5(31) . . .
46(4) . . .
48(4) . . .
35.1(32) . . .
31.3(30) . . .
34.7(31) . . .
27.9(27) . . .
35.1(32) . . .
37.4(35) . . .
32.6(30) . . .
37.4(32) . . .
32.1(30) . . .
34.0(31) . . .
39(4) . . .
42.3(34) . . .
40.2(33) . . .
32.9(30) . . .
38.2(34) . . .
27.5(30) . . .
33.5(33) . . .
30.2(30) . . .
34.8(31) . . .
32.1(31) . . .
41(4) . . .
31.4(30) . . .
41.2(33) . . .
37.3(32) . . .
28.2(28) . . .
30.1(28) . . .
34.1(32) . . .
29.5(28) . . .
34.2(32) . . .
38.6(33) . . .
27.8(27) . . .
32.9(30) . . .
25.6(27) . . .
24.2(27) . . .
30.0(31) . . .
40(4) . . .
34.2(31) . . .
30.6(30) . . .
37.0(34) . . .
35.7(33) . . .
41(4) . . .
36.0(31) . . .
41.0(33) . . .
32.9(30) . . .
37.7(34) . . .
35.1(32) . . .
40.6(33) . . .
38.0(33) . . .
27.9(28) . . .
34.5(33) . . .
39.7(33) . . .
35.9(31) . . .
34.1(30) . . .
37.3(34) . . .
31.5(32) . . .
31.1(31) . . .
30.0(29) . . .
31.0(29) . . .
36.7(34) . . .
34.8(33) . . .
31.9(30) . . .
29.1(28) . . .
36.4(32) . . .
26.5(30) . . .
30.9(32) . . .
32.2(30) . . .
34.2(30) . . .
35.3(33) . . .
35.3(34) . . .
42(4) . . .
35.3(33) . . .
30.2(29) . . .
33.1(30) . . .
45(4) . . .
38.7(34) . . .
30.0(29) . . .
36.7(33) . . .
41.7(34) . . .
35.4(31) . . .
29.2(29) . . .
23.4(27) . . .
39.8(33) . . .
35.3(34) . . .
40(4) . . .
29.9(28) . . .
35.3(32) . . .
42.3(34) . . .
36.5(33) . . .
32.9(30) . . .
37(4) . . .
28.6(29) . . .
37.3(32) . . .
28.1(30) . . .
32.3(32) . . .
42(4) . . .
37.5(33) . . .
26.0(26) . . .
31.5(30) . . .
36(4) . . .
31.3(31) . . .
37.2(32) . . .
38.0(32) . . .
45(4) . . .
38.1(35) . . .
39.7(35) . . .
39.4(32) . . .
37.5(33) . . .
37.0(34) . . .
38(4) . . .
35.3(32) . . .
44.8(35) . . .
39.5(33) . . .
33.8(30) . . .
36.4(33) . . .
41(4) . . .
33.8(30) . . .
32.2(30) . . .
30.7(30) . . .
33.7(33) . . .
37.9(34) . . .
38.7(32) . . .
27.2(27) . . .
36.8(33) . . .
37.5(32) . . .
30.2(29) . . .
39.5(34) . . .
34.4(32) . . .
38(4) . . .
29.2(28) . . .
46(4) . . .
33.1(30) . . .
33.8(30) . . .
40.5(34) . . .
28.8(28) . . .
35.8(34) . . .
34.3(30) . . .
39.1(32) . . .
39(4) . . .
33.2(32) . . .
33.2(32) . . .
26.0(27) . . .
28.7(29) . . .
32.3(32) . . .
42(4) . . .
40.9(33) . . .
33.7(31) . . .
41.4(35) . . .
34.8(31) . . .
40.1(35) . . .
33.9(31) . . .
36.1(31) . . .
31.9(31) . . .
31.7(31) . . .
34.8(32) . . .
35.0(31) . . .
26.1(26) . . .
31.5(34) . . .
33.4(35) . . .
30.0(29) . . .
34.3(31) . . .
38.5(32) . . .
34.5(32) . . .
29.0(29) . . .
43(4) . . .
40.0(33) . . .
31.0(29) . . .
31.4(30) . . .
31.2(32) . . .
36(4) . . .
34.1(32) . . .
33.0(29) . . .
37.2(33) . . .
33.4(31) . . .
36.3(32) . . .
36.5(32) . . .
35.9(31) . . .
38.7(32) . . .
31.9(31) . . .
25.6(27) . . .
30.2(28) . . .
38.1(34) . . .
36.5(33) . . .
37(4) . . .
34.2(32) . . .
38.3(32) . . .
41.8(34) . . .
30.3(30) . . .
32.6(32) . . .
36.6(32) . . .
33.1(31) . . .
29.0(28) . . .
36.5(33) . . .
37.4(33) . . .
31.9(30) . . .
33.8(30) . . .
42(4) . . .
37.3(35) . . .
28.9(29) . . .
31.3(29) . . .
37.7(31) . . .
31.4(30) . . .
28.8(30) . . .
31.6(30) . . .
33.5(30) . . .
32.1(29) . . .
34.1(31) . . .
32.3(31) . . .
38.5(32) . . .
41.5(33) . . .
40.1(33) . . .
38.8(33) . . .
42(4) . . .
33.9(30) . . .
36.0(32) . . .
31.7(30) . . .
29.0(29) . . .
35.3(31) . . .
34.2(30) . . .
37.6(31) . . .
42.3(34) . . .
30.4(28) . . .
27.2(28) . . .
37.8(33) . . .
38.1(33) . . .
34.3(30) . . .
27.8(27) . . .
28.6(27) . . .
41.7(35) . . .
31.7(30) . . .
32.4(31) . . .
30.5(32) . . .
36.5(34) . . .
40.5(35) . . .
36.3(32) . . .
40.6(34) . . .
37.6(35) . . .
26.8(27) . . .
37.8(35) . . .
35.4(31) . . .
33.0(30) . . .
21.6(25) . . .
34.4(33) . . .
31.9(29) . . .
29.2(29) . . .
40.8(34) . . .
40(4) . . .
29.6(29) . . .
39.7(35) . . .
36.0(31) . . .
41.5(35) . . .
35.2(33) . . .
38(4) . . .
33.2(31) . . .
31.7(30) . . .
33.6(33) . . .
34.0(32) . . .
38.6(32) . . .
45(4) . . .
34.3(31) . . .
31.0(31) . . .
28.0(30) . . .
27.7(28) . . .
38.7(33) . . .
43(4) . . .
29.5(30) . . .
29.2(31) . . .
32.4(31) . . .
36.8(32) . . .
30.4(29) . . .
29.3(29) . . .
34.4(33) . . .
30.4(29) . . .
34.3(30) . . .
41.5(35) . . .
41(4) . . .
31.8(31) . . .
30.8(30) . . .
29.4(29) . . .
37.8(33) . . .
27.3(28) . . .
29.4(29) . . .
37.8(33) . . .
31.5(30) . . .
34.8(33) . . .
36.0(33) . . .
35.6(34) . . .
34.6(32) . . .
37.3(32) . . .
41.2(35) . . .
32.7(29) . . .
31.8(30) . . .
38.1(32) . . .
32.6(30) . . .
36.8(33) . . .
32.2(31) . . .
41(4) . . .
32.4(31) . . .
30.8(29) . . .
36.3(33) . . .
33.5(32) . . .
41.4(35) . . .
42.6(34) . . .
38.3(32) . . .
32.9(30) . . .
29.7(31) . . .
37.9(34) . . .
31.3(29) . . .
34.8(31) . . .
32.3(30) . . .
36.0(34) . . .
38.2(32) . . .
36.7(31) . . .
28.4(29) . . .
28.7(31) . . .
27.1(29) . . .
35.3(32) . . .
30.2(29) . . .
33.2(30) . . .
42(4) . . .
34.1(32) . . .
37.3(33) . . .
26.4(26) . . .
36.6(32) . . .
37.1(35) . . .
44(4) . . .
35.6(32) . . .
28.3(27) . . .
38.8(33) . . .
30.8(28) . . .
30.8(29) . . .
30.3(29) . . .
30.2(29) . . .
32.6(33) . . .
34.2(32) . . .
39(4) . . .
32.7(29) . . .
42.8(34) . . .
37.7(34) . . .
33.5(30) . . .
47(4) . . .
29.2(29) . . .
32.0(29) . . .
34.5(31) . . .
36.6(34) . . .
27.3(27) . . .
31.8(29) . . .
34.9(30) . . .
39(4) . . .
44(4) . . .
41.2(35) . . .
28.8(29) . . .
33.3(30) . . .
36.5(34) . . .
35.3(33) . . .
36.3(33) . . .
37.3(34) . . .
34.7(31) . . .
35.5(33) . . .
42(4) . . .
40.1(34) . . .
40.7(34) . . .
28.2(28) . . .
34.8(32) . . .
27.7(28) . . .
31.4(30) . . .
27.4(27) . . .
32.5(30) . . .
32.0(30) . . .
32.5(31) . . .
39.2(33) . . .
31.8(29) . . .
40.9(34) . . .
26.3(26) . . .
34.2(31) . . .
36.4(34) . . .
41.2(33) . . .
25.3(27) . . .
39.4(35) . . .
32.0(30) . . .
33.1(32) . . .
44.6(35) . . .
42.3(35) . . .
35.8(31) . . .
31.3(28) . . .
32.4(30) . . .
32.3(30) . . .
31.2(30) . . .
31.9(33) . . .
34.8(32) . . .
44(4) . . .
37.5(32) . . .
38.5(34) . . .
33.2(32) . . .
30.4(28) . . .
36.8(32) . . .
34.5(32) . . .
34.6(32) . . .
30.9(30) . . .
37.6(33) . . .
34.6(32) . . .
37.1(33) . . .
42(4) . . .
33.0(32) . . .
30.5(31) . . .
35.0(31) . . .
38.9(33) . . .
41(4) . . .
37.1(33) . . .
32.1(30) . . .
36.3(31) . . .
35.0(30) . . .
32.8(32) . . .
31.9(32) . . .
38.7(33) . . .
45.1(35) . . .
33.6(30) . . .
38.9(34) . . .
39.0(34) . . .
38.0(33) . . .
34.0(30) . . .
37.0(31) . . .
33.3(31) . . .
38(4) . . .
39(4) . . .
35.6(31) . . .
30.2(29) . . .
31.2(29) . . .
32.3(29) . . .
46(4) . . .
33.4(30) . . .
28.0(28) . . .
29.3(30) . . .
39.3(35) . . .
32.1(30) . . .
33.0(30) . . .
31.8(30) . . .
33.2(30) . . .
31.4(29) . . .
37.9(33) . . .
33.0(31) . . .
34.7(33) . . .
41.1(35) . . .
49(4) . . .
39.1(33) . . .
38.5(32) . . .
28.3(28) . . .
21.0(27) . . .
23.6(26) . . .
32.8(31) . . .
31.2(29) . . .
30.5(30) . . .
33.1(31) . . .
28.7(29) . . .
30.4(30) . . .
37.4(32) . . .
48(4) . . .
38(4) . . .
29.3(29) . . .
28.8(28) . . .
23.6(26) . . .
27.8(28) . . .
26.8(30) . . .
35.7(33) . . .
36.4(31) . . .
33.6(30) . . .
33.9(32) . . .
34.3(32) . . .
27.5(28) . . .
29.4(29) . . .
37.3(32) . . .
30.2(28) . . .
45(4) . . .
39(4) . . .
30.5(29) . . .
30.3(29) . . .
37(4) . . .
32.3(31) . . .
29.9(29) . . .
36.5(32) . . .
36.1(32) . . .
33.8(32) . . .
37.8(34) . . .
43(4) . . .
29.0(28) . . .
27.0(28) . . .
37.4(34) . . .
37.7(34) . . .
39.5(34) . . .
24.7(26) . . .
33.0(31) . . .
35.1(32) . . .
31.8(30) . . .
31.9(29) . . .
35.0(31) . . .
36.3(32) . . .
32.5(32) . . .
42(4) . . .
26.6(27) . . .
39.1(32) . . .
36.8(32) . . .
31.0(30) . . .
28.3(28) . . .
41.1(34) . . .
34.0(30) . . .
36.5(32) . . .
30.7(31) . . .
30.3(29) . . .
32.0(29) . . .
41.2(34) . . .
30.6(29) . . .
29.2(29) . . .
33.0(31) . . .
35.8(31) . . .
35.4(31) . . .
33.8(31) . . .
33.2(33) . . .
36.7(34) . . .
34.1(32) . . .
34.5(30) . . .
37.9(34) . . .
33.3(33) . . .
32.5(31) . . .
26.5(28) . . .
35.5(31) . . .
44(4) . . .
33.8(31) . . .
31.9(32) . . .
30.6(29) . . .
40.5(34) . . .
32.6(30) . . .
23.3(26) . . .
36.8(35) . . .
30.1(29) . . .
37.3(33) . . .
36.0(33) . . .
34.8(34) . . .
37.9(33) . . .
34.3(30) . . .
36.0(32) . . .
37.3(33) . . .
41(4) . . .
27.5(27) . . .
35.0(31) . . .
37.6(34) . . .
30.8(31) . . .
37.7(35) . . .
32.2(30) . . .
32.4(30) . . .
33.1(31) . . .
29.5(29) . . .
28.7(28) . . .
35.2(31) . . .
26.5(27) . . .
37.8(35) . . .
33.5(32) . . .
33.7(31) . . .
40.7(34) . . .
34.2(30) . . .
36.8(32) . . .
32.1(31) . . .
36.8(33) . . .
35.5(31) . . .
34.1(30) . . .
37.7(32) . . .
35.6(32) . . .
41.7(35) . . .
40.9(34) . . .
38.6(33) . . .
42(4) . . .
31.2(29) . . .
29.7(28) . . .
38.0(32) . . .
41.0(34) . . .
39.2(33) . . .
41.2(35) . . .
40.9(34) . . .
40.7(34) . . .
42.2(35) . . .
25.1(26) . . .
33.9(33) . . .
31.3(30) . . .
30.9(29) . . .
39.6(35) . . .
31.3(30) . . .
36.7(33) . . .
46(4) . . .
34.5(31) . . .
29.6(29) . . .
29.1(29) . . .
39.0(35) . . .
36.7(34) . . .
39.2(33) . . .
33.7(31) . . .
40.2(34) . . .
32.2(29) . . .
47(4) . . .
38.0(32) . . .
35.0(33) . . .
40(4) . . .
31.8(32) . . .
33.6(31) . . .
35.2(31) . . .
38.9(34) . . .
31.4(30) . . .
36.7(34) . . .
31.5(29) . . .
32.9(30) . . .
25.8(28) . . .
28.2(31) . . .
40.0(34) . . .
34.5(30) . . .
30.7(29) . . .
35.4(32) . . .
30.9(28) . . .
37.0(31) . . .
37.0(31) . . .
27.3(27) . . .
34.1(33) . . .
33.1(32) . . .
46(4) . . .
36.6(33) . . .
39.3(33) . . .
31.3(30) . . .
35.3(34) . . .
43(4) . . .
28.8(30) . . .
35.4(31) . . .
35.0(31) . . .
34.2(31) . . .
31.3(29) . . .
34.7(31) . . .
39.3(34) . . .
36.5(33) . . .
43(4) . . .
43.1(35) . . .
30.3(28) . . .
25.2(27) . . .
41(4) . . .
35.7(33) . . .
29.1(29) . . .
35.3(31) . . .
29.3(31) . . .
41.2(34) . . .
42.8(34) . . .
33.7(30) . . .
38.5(32) . . .
43.6(35) . . .
32.3(30) . . .
32.7(30) . . .
38.3(34) . . .
35.1(31) . . .
37.9(35) . . .
34.1(31) . . .
33.1(31) . . .
27.2(27) . . .
26.6(27) . . .
29.5(29) . . .
42(4) . . .
42(4) . . .
38.5(33) . . .
34.3(31) . . .
35.4(32) . . .
34.3(33) . . .
36.0(32) . . .
33.0(30) . . .
40.4(33) . . .
36.7(33) . . .
32.1(31) . . .
40.6(34) . . .
39.2(33) . . .
35.0(30) . . .
27.5(28) . . .
35.0(33) . . .
36.0(32) . . .
40.3(34) . . .
23.1(24) . . .
30.2(29) . . .
29.3(28) . . .
25.4(28) . . .
27.7(28) . . .
31.7(29) . . .
31.1(32) . . .
28.5(29) . . .
32.0(30) . . .
34.2(31) . . .
37.8(34) . . .
32.0(33) . . .
41(4) . . .
32.9(30) . . .
28.0(28) . . .
36.5(32) . . .
38.7(34) . . .
31.3(29) . . .
34.5(33) . . .
32.7(30) . . .
39(4) . . .
33.8(33) . . .
30.7(32) . . .
28.6(28) . . .
36.1(31) . . .
26.4(26) . . .
36.1(33) . . .
42.3(35) . . .
37.3(32) . . .
28.9(28) . . .
30.8(30) . . .
31.4(30) . . .
29.8(30) . . .
40.0(33) . . .
41.3(33) . . .
40(4) . . .
28.4(29) . . .
34.9(33) . . .
27.8(28) . . .
41.4(33) . . .
38.6(33) . . .
36.0(34) . . .
41.5(35) . . .
32.0(29) . . .
26.0(27) . . .
32.0(29) . . .
28.2(29) . . .
35.1(33) . . .
36.8(32) . . .
31.0(30) . . .
31.3(29) . . .
43(4) . . .
41.6(35) . . .
39.0(33) . . .
35.0(32) . . .
35.0(32) . . .
33.8(34) . . .
27.8(29) . . .
40.7(34) . . .
35.5(31) . . .
35.9(32) . . .
34.4(32) . . .
33.7(31) . . .
29.7(28) . . .
38.3(34) . . .
37.4(34) . . .
35.9(33) . . .
30.5(29) . . .
32.3(30) . . .
34.3(31) . . .
30.5(31) . . .
31.3(31) . . .
31.9(30) . . .
37.9(32) . . .
31.5(29) . . .
42(4) . . .
29.9(28) . . .
33.0(30) . . .
34.4(31) . . .
35.7(32) . . .
35.8(34) . . .
31.5(30) . . .
36.5(32) . . .
38.8(32) . . .
36.3(34) . . .
31.5(30) . . .
34.7(32) . . .
28.6(28) . . .
37.6(32) . . .
29.5(30) . . .
24.6(29) . . .
33.0(31) . . .
32.4(30) . . .
34.1(31) . . .
39.6(34) . . .
39(4) . . .
33.7(31) . . .
32.8(30) . . .
39.7(33) . . .
40.7(35) . . .
34.9(34) . . .
33.8(33) . . .
31.9(29) . . .
24.8(26) . . .
33.9(33) . . .
32.1(32) . . .
27.4(28) . . .
33.1(30) . . .
32.5(31) . . .
40(4) . . .
35.2(32) . . .
35.4(34) . . .
32.2(30) . . .
33.7(31) . . .
41.0(34) . . .
39.8(35) . . .
36.7(33) . . .
34.5(31) . . .
34.0(32) . . .
37.8(34) . . .
25.6(27) . . .
31.2(30) . . .
42.3(34) . . .
34.0(30) . . .
29.6(29) . . .
36.9(33) . . .
32.6(30) . . .
34.8(31) . . .
35.5(32) . . .
30.2(29) . . .
38.8(33) . . .
32.9(30) . . .
36.1(32) . . .
23.4(28) . . .
20.1(23) . . .
27.5(27) . . .
36.3(31) . . .
29.9(28) . . .
32.8(30) . . .
36.5(32) . . .
35.4(31) . . .
33.3(30) . . .
34.6(31) . . .
32.5(31) . . .
42(4) . . .
40.1(34) . . .
29.8(29) . . .
36.9(31) . . .
43(4) . . .
36.4(33) . . .
34.7(32) . . .
33.6(31) . . .
32.9(30) . . .
29.7(30) . . .
30.2(30) . . .
31.8(32) . . .
36.7(32) . . .
29.1(28) . . .
33.9(35) . . .
31.6(31) . . .
36.5(33) . . .
29.2(28) . . .
40.2(33) . . .
30.1(29) . . .
30.8(30) . . .
30.4(29) . . .
30.2(29) . . .
31.9(31) . . .
34.6(31) . . .
35.5(32) . . .
36.6(31) . . .
33.7(30) . . .
31.5(29) . . .
30.1(29) . . .
35.8(32) . . .
34.4(30) . . .
36.2(31) . . .
38(4) . . .
31.7(30) . . .
33.1(32) . . .
33.5(30) . . .
34.6(31) . . .
35.3(32) . . .
35.0(34) . . .
40(4) . . .
34.4(30) . . .
29.8(29) . . .
24.9(28) . . .
20.4(24) . . .
37.9(33) . . .
36.5(32) . . .
32.9(30) . . .
38.2(34) . . .
33.3(29) . . .
32.5(30) . . .
36.0(31) . . .
36.1(31) . . .
26.9(26) . . .
31.0(29) . . .
34.7(32) . . .
29.2(28) . . .
30.6(29) . . .
33.0(31) . . .
32.3(33) . . .
32.4(34) . . .
34.3(30) . . .
41.9(33) . . .
35.5(33) . . .
29.0(29) . . .
31.2(32) . . .
37.1(32) . . .
30.5(29) . . .
31.8(29) . . .
32.5(29) . . .
30.0(29) . . .
34.3(30) . . .
30.3(29) . . .
35.1(33) . . .
32.8(31) . . .
39.4(34) . . .
36.8(32) . . .
37.7(35) . . .
28.3(30) . . .
39.5(34) . . .
37.6(33) . . .
30.9(29) . . .
32.1(31) . . .
32.9(30) . . .
34.0(31) . . .
25.6(26) . . .
29.5(29) . . .
37.7(32) . . .
29.0(27) . . .
45(4) . . .
41.7(34) . . .
40.5(34) . . .
31.6(30) . . .
29.7(29) . . .
39.9(34) . . .
33.7(30) . . .
30.3(29) . . .
35.1(32) . . .
30.3(30) . . .
35.7(32) . . .
34.8(30) . . .
31.5(29) . . .
30.1(30) . . .
34.1(32) . . .
42(4) . . .
30.1(29) . . .
31.1(30) . . .
26.8(27) . . .
44(4) . . .
31.5(30) . . .
41.5(34) . . .
40.0(32) . . .
33.0(30) . . .
27.2(27) . . .
37.7(34) . . .
23.6(25) . . .
46(4) . . .
41.9(35) . . .
39.9(34) . . .
42.1(35) . . .
34.6(31) . . .
34.1(34) . . .
38.0(33) . . .
31.7(30) . . .
34.1(31) . . .
35.4(31) . . .
25.6(29) . . .
32.0(32) . . .
37.4(32) . . .
39.6(33) . . .
38.8(33) . . .
32.3(30) . . .
42(4) . . .
42(4) . . .
28.6(28) . . .
32.6(30) . . .
47(4) . . .
27.3(29) . . .
29.6(28) . . .
28.4(27) . . .
46(4) . . .
37.1(32) . . .
32.5(29) . . .
35.0(34) . . .
39.8(33) . . .
36.0(31) . . .
35.0(31) . . .
47(4) . . .
34.3(31) . . .
31.1(29) . . .
36.3(34) . . .
32.4(31) . . .
30.1(29) . . .
36.7(32) . . .
31.5(30) . . .
31.7(30) . . .
31.8(31) . . .
33.9(33) . . .
27.9(27) . . .
37.2(31) . . .
30.7(30) . . .
36.5(32) . . .
33.5(32) . . .
39.7(35) . . .
34.0(31) . . .
34.8(32) . . .
38(4) . . .
32.7(30) . . .
37.3(33) . . .
35.3(31) . . .
38.1(32) . . .
32.9(30) . . .
32.3(31) . . .
34.6(30) . . .
37.5(32) . . .
35.1(31) . . .
36.4(33) . . .
40.4(35) . . .
39.9(33) . . .
35.5(31) . . .
35.6(31) . . .
35.0(32) . . .
28.4(29) . . .
40.4(33) . . .
36.2(31) . . .
30.3(29) . . .
27.9(28) . . .
35.8(33) . . .
31.8(29) . . .
26.7(27) . . .
31.5(33) . . .
25.6(25) . . .
28.7(28) . . .
40.8(34) . . .
34.6(31) . . .
29.4(28) . . .
35.5(33) . . .
35.9(32) . . .
27.1(27) . . .
39.0(34) . . .
33.7(32) . . .
35.1(34) . . .
31.1(30) . . .
36.5(32) . . .
35.5(31) . . .
33.1(30) . . .
33.3(33) . . .
36.9(32) . . .
46(4) . . .
28.2(29) . . .
32.7(31) . . .
30.3(29) . . .
31.7(30) . . .
31.5(29) . . .
33.0(31) . . .
34.3(31) . . .
34.0(31) . . .
31.6(29) . . .
37.9(32) . . .
29.6(28) . . .
29.3(28) . . .
35.8(31) . . .
41(4) . . .
42.7(35) . . .
31.6(31) . . .
28.0(29) . . .
36.0(33) . . .
33.8(30) . . .
38.1(32) . . .
25.6(27) . . .
30.7(31) . . .
36.4(33) . . .
36.8(32) . . .
35.1(31) . . .
36(4) . . .
27.3(28) . . .
22.5(26) . . .
29.4(28) . . .
35.1(30) . . .
33.3(31) . . .
28.6(31) . . .
31.5(31) . . .
28.2(28) . . .
38.6(33) . . .
38.5(33) . . .
32.1(33) . . .
35.3(31) . . .
40.8(33) . . .
34.0(30) . . .
32.0(29) . . .
38.7(35) . . .
36.6(32) . . .
33.6(30) . . .
33.7(31) . . .
36.9(33) . . .
37(4) . . .
34.0(30) . . .
37.2(32) . . .
32.0(30) . . .
35.2(33) . . .
38.5(33) . . .
36.4(32) . . .
36.7(31) . . .
34.6(31) . . .
33.3(32) . . .
37(4) . . .
40.7(35) . . .
31.2(29) . . .
31.5(30) . . .
31.0(30) . . .
39(4) . . .
38.1(33) . . .
47(4) . . .
36.2(33) . . .
31.0(32) . . .
30.6(30) . . .
39.3(33) . . .
34.7(31) . . .
29.6(30) . . .
25.6(28) . . .
38.4(35) . . .
39.6(33) . . .
37.6(32) . . .
34.8(34) . . .
33.8(32) . . .
36.6(34) . . .
30.6(29) . . .
28.1(28) . . .
23.4(26) . . .
34.4(33) . . .
30.0(29) . . .
37.4(32) . . .
39.9(33) . . .
35.9(31) . . .
37.4(34) . . .
41(4) . . .
31.4(29) . . .
38.6(33) . . .
48(4) . . .
30.2(28) . . .
43(4) . . .
38.4(32) . . .
34.8(31) . . .
39.6(34) . . .
33.9(31) . . .
31.8(29) . . .
29.0(28) . . .
43.0(35) . . .
42.1(35) . . .
41.6(35) . . .
44(4) . . .
30.6(29) . . .
36.4(32) . . .
31.4(31) . . .
27.9(30) . . .
32.7(32) . . .
38.2(32) . . .
36.5(32) . . .
30.7(30) . . .
25.6(27) . . .
32.4(30) . . .
42.9(34) . . .
39.6(34) . . .
44(4) . . .
42(4) . . .
26.5(28) . . .
27.1(27) . . .
28.2(30) . . .
31.5(33) . . .
31.1(30) . . .
32.5(30) . . .
34.5(32) . . .
30.0(30) . . .
38.0(34) . . .
36.3(32) . . .
33.0(30) . . .
27.6(28) . . .
36.5(34) . . .
24.7(28) . . .
33.7(32) . . .
42.4(35) . . .
36.5(32) . . .
34.8(31) . . .
39.2(33) . . .
31.4(29) . . .
36.9(32) . . .
26.2(27) . . .
44(4) . . .
39.5(34) . . .
34.0(30) . . .
40.4(33) . . .
29.1(28) . . .
28.9(31) . . .
38(4) . . .
34.6(31) . . .
30.7(29) . . .
36.9(32) . . .
34.3(32) . . .
28.8(31) . . .
29.6(29) . . .
28.9(28) . . .
33.3(30) . . .
35.4(32) . . .
37.3(34) . . .
43(4) . . .
35.5(31) . . .
27.4(28) . . .
39(4) . . .
44(4) . . .
25.3(26) . . .
29.7(28) . . .
28.2(28) . . .
43(4) . . .
32.6(31) . . .
34.8(31) . . .
33.1(30) . . .
34.1(34) . . .
33.7(32) . . .
41.9(35) . . .
43(4) . . .
36.7(31) . . .
35.7(32) . . .
34.2(31) . . .
34.9(30) . . .
38.3(32) . . .
37.2(33) . . .
32.5(31) . . .
29.6(29) . . .
37.8(34) . . .
38.4(32) . . .
40.2(33) . . .
40.5(34) . . .
33.1(33) . . .
29.1(31) . . .
36.0(33) . . .
35.5(31) . . .
39.1(33) . . .
42(4) . . .
37.8(32) . . .
34.3(30) . . .
30.9(29) . . .
37.9(33) . . .
32.2(31) . . .
30.5(29) . . .
37.5(32) . . .
41.6(34) . . .
29.8(28) . . .
33.5(30) . . .
41.6(35) . . .
40.3(33) . . .
32.4(31) . . .
30.6(31) . . .
28.3(29) . . .
29.6(29) . . .
22.5(24) . . .
34.2(32) . . .
39(4) . . .
25.8(28) . . .
37.8(34) . . .
34.2(30) . . .
33.9(31) . . .
31.2(29) . . .
45(4) . . .
30.4(29) . . .
31.3(29) . . .
36.7(33) . . .
38.9(34) . . .
37.7(33) . . .
32.2(30) . . .
35.1(31) . . .
35.5(33) . . .
32.8(33) . . .
29.3(30) . . .
32.5(31) . . .
30.2(29) . . .
33.2(31) . . .
40(4) . . .
24.1(25) . . .
38.2(33) . . .
41.0(33) . . .
37.7(33) . . .
27.8(31) . . .
35.7(35) . . .
34.0(30) . . .
39.2(33) . . .
34.4(31) . . .
28.6(30) . . .
35.8(33) . . .
27.9(27) . . .
28.5(28) . . .
33.9(32) . . .
35.3(34) . . .
32.5(32) . . .
35.1(31) . . .
36.3(33) . . .
44(4) . . .
39.7(34) . . .
33.9(32) . . .
33.6(30) . . .
28.9(28) . . .
31.4(31) . . .
31.5(31) . . .
32.4(30) . . .
38.2(32) . . .
24.0(26) . . .
27.5(28) . . .
35.6(32) . . .
44(4) . . .
38.4(32) . . .
34.7(31) . . .
22.4(25) . . .
33.2(31) . . .
33.2(31) . . .
21.5(24) . . .
30.8(29) . . .
28.0(28) . . .
35.9(32) . . .
34.3(32) . . .
29.8(29) . . .
31.6(30) . . .
44(4) . . .
34.4(32) . . .
29.4(29) . . .
28.2(27) . . .
28.2(29) . . .
33.9(34) . . .
30.1(29) . . .
39.6(33) . . .
39.2(33) . . .
27.5(27) . . .
39(4) . . .
36.5(32) . . .
36.1(31) . . .
36.2(31) . . .
32.9(31) . . .
34.8(34) . . .
32.9(32) . . .
23.3(25) . . .
23.5(25) . . .
26.9(28) . . .
34.6(34) . . .
28.3(27) . . .
34.7(31) . . .
30.1(30) . . .
34.4(30) . . .
33.3(30) . . .
32.2(32) . . .
25.0(27) . . .
37.4(33) . . .
30.0(32) . . .
32.3(33) . . .
27.5(28) . . .
34.5(31) . . .
26.6(28) . . .
21.7(24) . . .
32.7(31) . . .
36.5(32) . . .
28.8(29) . . .
36.7(33) . . .
34.8(31) . . .
31.2(29) . . .
37.9(32) . . .
41.1(33) . . .
32.4(30) . . .
33.5(30) . . .
34.4(33) . . .
35.3(31) . . .
46(4) . . .
38.4(34) . . .
30.1(28) . . .
35.6(32) . . .
41.1(33) . . .
28.9(29) . . .
40.7(33) . . .
41(4) . . .
35.8(33) . . .
30.3(29) . . .
27.6(28) . . .
33.1(35) . . .
30.3(32) . . .
38.9(34) . . .
36.0(32) . . .
30.5(29) . . .
36.1(33) . . .
41(4) . . .
29.1(30) . . .
29.2(28) . . .
30.5(28) . . .
32.4(31) . . .
30.7(32) . . .
38.5(33) . . .
43.6(34) . . .
39.3(32) . . .
31.0(31) . . .
32.5(32) . . .
31.9(29) . . .
36.9(32) . . .
37.8(32) . . .
32.1(33) . . .
35.5(35) . . .
31.8(30) . . .
27.6(28) . . .
29.5(29) . . .
35.5(32) . . .
38.9(34) . . .
37.6(32) . . .
41.8(34) . . .
38.0(33) . . .
30.5(31) . . .
24.5(27) . . .
42(4) . . .
32.0(30) . . .
35.4(31) . . .
40.5(35) . . .
31.1(30) . . .
37.7(32) . . .
36.8(32) . . .
30.1(30) . . .
32.1(31) . . .
28.7(29) . . .
31.8(29) . . .
41.2(34) . . .
35.0(31) . . .
37.6(34) . . .
34.6(32) . . .
36.5(32) . . .
32.8(30) . . .
39.1(33) . . .
50(4) . . .
43(4) . . .
31.6(30) . . .
37.2(31) . . .
33.7(30) . . .
36.2(34) . . .
29.2(30) . . .
28.6(28) . . .
31.9(29) . . .
37.3(34) . . .
28.1(29) . . .
36.0(33) . . .
42.6(34) . . .
36.1(31) . . .
36.3(32) . . .
29.3(29) . . .
33.8(31) . . .
35.1(31) . . .
36.2(32) . . .
35.4(33) . . .
28.1(31) . . .
28.7(29) . . .
30.7(29) . . .
39.6(32) . . .
34.3(32) . . .
42(4) . . .
39.7(33) . . .
39.9(33) . . .
36.0(31) . . .
38(4) . . .
28.0(29) . . .
38.7(32) . . .
36.5(32) . . .
36.7(32) . . .
33.6(33) . . .
31.8(31) . . .
37.1(31) . . .
34.3(30) . . .
32.4(32) . . .
30.0(31) . . .
37.3(33) . . .
42.6(35) . . .
34.0(30) . . .
42(4) . . .
27.7(29) . . .
31.5(31) . . .
36.7(34) . . .
29.0(28) . . .
32.8(31) . . .
39(4) . . .
25.2(26) . . .
32.7(31) . . .
37.5(32) . . .
30.5(29) . . .
39(4) . . .
28.3(31) . . .
27.3(28) . . .
37.5(32) . . .
38.0(35) . . .
35.6(33) . . .
39.8(33) . . .
48(4) . . .
32.8(29) . . .
42(4) . . .
36.9(33) . . .
34.5(32) . . .
33.2(31) . . .
39.0(33) . . .
28.4(28) . . .
29.5(30) . . .
36.2(32) . . .
34.0(31) . . .
33.8(31) . . .
30.7(30) . . .
34.0(33) . . .
34.6(32) . . .
39.8(33) . . .
30.2(29) . . .
33.6(33) . . .
29.8(31) . . .
34.4(32) . . .
31.1(29) . . .
37.1(32) . . .
34.0(30) . . .
31.1(31) . . .
29.6(28) . . .
29.1(28) . . .
28.1(28) . . .
35.5(33) . . .
34.8(33) . . .
37.6(34) . . .
35.1(31) . . .
30.2(29) . . .
38.8(35) . . .
30.7(31) . . .
29.8(30) . . .
34.2(30) . . .
36.1(31) . . .
41(4) . . .
35.4(33) . . .
32.7(31) . . .
32.3(31) . . .
35.8(31) . . .
35.0(32) . . .
37.1(33) . . .
38.4(33) . . .
36.3(32) . . .
37.4(34) . . .
26.6(28) . . .
27.7(27) . . .
41.6(34) . . .
28.4(28) . . .
33.2(30) . . .
36.5(33) . . .
30.9(29) . . .
36.9(32) . . .
27.9(27) . . .
37.3(34) . . .
34.5(34) . . .
31.0(30) . . .
34.1(30) . . .
40.3(33) . . .
42.1(35) . . .
33.0(33) . . .
33.1(30) . . .
40.3(33) . . .
40.7(34) . . .
39.9(35) . . .
36.6(34) . . .
38.0(32) . . .
31.7(30) . . .
34.0(32) . . .
36.5(33) . . .
32.4(30) . . .
34.2(31) . . .
29.1(28) . . .
36.6(32) . . .
34.5(31) . . .
35.1(32) . . .
37.1(32) . . .
32.2(30) . . .
36.0(31) . . .
35.8(35) . . .
38.8(33) . . .
40.4(33) . . .
35.8(31) . . .
25.5(27) . . .
30.9(31) . . .
29.7(30) . . .
38.6(32) . . .
31.1(29) . . .
42(4) . . .
32.4(33) . . .
29.4(29) . . .
35.2(31) . . .
30.1(29) . . .
29.8(30) . . .
24.4(27) . . .
28.7(28) . . .
28.7(28) . . .
37.7(32) . . .
31.3(30) . . .
34.0(33) . . .
32.5(32) . . .
38.1(32) . . .
35.1(32) . . .
39.9(35) . . .
31.9(31) . . .
34.7(33) . . .
32.2(29) . . .
32.5(31) . . .
35.6(31) . . .
38.3(33) . . .
30.4(31) . . .
29.1(27) . . .
29.7(30) . . .
28.0(29) . . .
36.3(32) . . .
30.1(30) . . .
36.8(31) . . .
36.9(33) . . .
27.2(30) . . .
27.1(29) . . .
35.7(31) . . .
39.9(33) . . .
37.4(33) . . .
37.0(33) . . .
35.4(31) . . .
37.1(32) . . .
30.2(29) . . .
32.1(29) . . .
36.3(34) . . .
36.3(32) . . .
40.2(34) . . .
30.2(29) . . .
26.3(28) . . .
27.9(29) . . .
35.4(32) . . .
37.3(32) . . .
39.8(33) . . .
40.6(34) . . .
30.9(30) . . .
36(4) . . .
38.8(33) . . .
36.4(31) . . .
41(4) . . .
33.2(33) . . .
39.1(35) . . .
32.6(30) . . .
37.5(32) . . .
38.7(35) . . .
24.7(26) . . .
32.3(30) . . .
32.3(29) . . .
33.0(30) . . .
40(4) . . .
29.4(31) . . .
30.1(29) . . .
40.9(33) . . .
35.2(31) . . .
33.1(33) . . .
33.9(33) . . .
33.9(32) . . .
35.6(32) . . .
27.2(27) . . .
30.4(31) . . .
32.7(30) . . .
35.2(32) . . .
32.3(30) . . .
31.8(30) . . .
36.7(33) . . .
41(4) . . .
35.8(32) . . .
29.1(28) . . .
40.8(35) . . .
40(4) . . .
41(4) . . .
31.3(31) . . .
35.6(31) . . .
32.2(29) . . .
40(4) . . .
34.7(31) . . .
44(4) . . .
37.7(32) . . .
29.6(28) . . .
34.3(33) . . .
31.5(33) . . .
36.4(32) . . .
39.0(33) . . .
44.2(35) . . .
41(4) . . .
37.4(33) . . .
36.8(32) . . .
39.0(32) . . .
30.7(32) . . .
31.8(32) . . .
31.9(31) . . .
26.4(27) . . .
34.0(30) . . .
35.3(33) . . .
31.8(32) . . .
28.5(29) . . .
30.2(28) . . .
36.2(31) . . .
40(4) . . .
32.2(33) . . .
35.9(32) . . .
46(4) . . .
35.7(32) . . .
38.6(35) . . .
29.0(30) . . .
40(4) . . .
42.0(34) . . .
40.6(34) . . .
35.3(32) . . .
23.3(25) . . .
34.3(33) . . .
34.4(30) . . .
34.6(30) . . .
34.6(31) . . .
32.8(30) . . .
30.6(30) . . .
31.8(29) . . .
29.2(29) . . .
39(4) . . .
22.0(24) . . .
32.0(29) . . .
33.8(31) . . .
30.2(29) . . .
43(4) . . .
31.0(30) . . .
31.5(29) . . .
31.1(30) . . .
39.3(34) . . .
35.0(31) . . .
31.5(30) . . .
32.5(31) . . .
26.0(27) . . .
37.9(32) . . .
41(4) . . .
38.7(33) . . .
35.5(32) . . .
31.2(29) . . .
32.7(30) . . .
29.8(31) . . .
39.8(34) . . .
43.9(34) . . .
46(4) . . .
33.8(31) . . .
25.1(27) . . .
34.7(32) . . .
40.9(34) . . .
40.8(35) . . .
29.8(29) . . .
28.4(30) . . .
29.3(29) . . .
25.5(26) . . .
28.2(29) . . .
40(4) . . .
40.3(34) . . .
32.3(30) . . .
33.5(31) . . .
36.6(33) . . .
41(4) . . .
34.9(30) . . .
32.1(30) . . .
35.8(31) . . .
29.0(28) . . .
33.1(31) . . .
36.8(34) . . .
36.4(31) . . .
51(4) . . .
31.5(30) . . .
40(4) . . .
35.1(32) . . .
35.1(31) . . .
27.3(27) . . .
36.2(34) . . .
31.2(31) . . .
30.7(31) . . .
28.5(28) . . .
34.3(31) . . .
45(4) . . .
35.2(33) . . .
34.6(32) . . .
34.1(31) . . .
35.5(31) . . .
30.8(31) . . .
36.3(34) . . .
29.8(30) . . .
36.0(32) . . .
33.4(30) . . .
29.8(32) . . .
25.3(29) . . .
27.4(28) . . .
38.8(33) . . .
35.8(31) . . .
41.2(35) . . .
31.7(33) . . .
35.0(31) . . .
33.0(30) . . .
40.3(32) . . .
37.8(35) . . .
31.3(33) . . .
34.3(33) . . .
25.5(27) . . .
31.8(30) . . .
29.0(28) . . .
36.8(34) . . .
39.1(33) . . .
40.9(34) . . .
33.6(30) . . .
33.5(30) . . .
42(4) . . .
37.5(33) . . .
33.0(30) . . .
33.3(31) . . .
34.0(30) . . .
34.9(31) . . .
37.5(33) . . .
29.6(28) . . .
29.9(29) . . .
35.7(34) . . .
35.3(33) . . .
39.3(35) . . .
31.0(29) . . .
30.4(29) . . .
39.6(35) . . .
32.2(30) . . .
37.2(33) . . .
36.6(32) . . .
30.5(29) . . .
30.5(31) . . .
39(4) . . .
26.5(27) . . .
32.5(30) . . .
33.9(31) . . .
30.2(29) . . .
36.7(32) . . .
31.5(29) . . .
32.9(29) . . .
26.5(28) . . .
26.8(27) . . .
38.9(34) . . .
35.7(31) . . .
30.0(28) . . .
34.9(34) . . .
38.2(35) . . .
44(4) . . .
38.8(33) . . .
35.0(32) . . .
28.0(28) . . .
28.1(29) . . .
32.5(31) . . .
31.3(29) . . .
37.1(31) . . .
34.4(32) . . .
29.8(29) . . .
37.2(32) . . .
26.5(27) . . .
36.6(32) . . .
31.9(29) . . .
31.2(29) . . .
32.0(30) . . .
45(4) . . .
34.0(30) . . .
32.5(31) . . .
34.4(34) . . .
35.8(32) . . .
41.4(33) . . .
34.0(31) . . .
37.4(33) . . .
34.3(33) . . .
34.7(32) . . .
33.4(30) . . .
32.1(31) . . .
40(4) . . .
31.6(31) . . .
33.8(32) . . .
33.6(30) . . .
34.7(32) . . .
31.2(31) . . .
37.4(34) . . .
34.0(30) . . .
43.2(34) . . .
38.6(34) . . .
37.5(34) . . .
36.8(34) . . .
33.9(30) . . .
27.7(27) . . .
33.4(31) . . .
24.0(25) . . .
25.7(29) . . .
31.5(29) . . .
31.5(30) . . .
33.5(32) . . .
31.6(31) . . .
31.9(30) . . .
33.1(30) . . .
22.4(25) . . .
30.6(29) . . .
34.3(32) . . .
28.5(28) . . .
37.0(31) . . .
34.3(30) . . .
34.1(31) . . .
34.6(33) . . .
41(4) . . .
25.4(27) . . .
30.4(29) . . .
35.0(31) . . .
37.6(34) . . .
30.1(30) . . .
32.4(30) . . .
33.9(30) . . .
23.1(26) . . .
28.6(30) . . .
40.3(35) . . .
34.0(30) . . .
28.0(27) . . .
30.8(30) . . .
30.3(28) . . .
39.1(32) . . .
32.8(30) . . .
35.1(31) . . .
31.5(30) . . .
28.3(28) . . .
37.0(31) . . .
37.7(32) . . .
27.7(27) . . .
33.8(31) . . .
30.0(30) . . .
30.7(30) . . .
30.4(29) . . .
28.6(28) . . .
34.1(31) . . .
27.0(26) . . .
38.8(33) . . .
32.6(31) . . .
40.7(34) . . .
43(4) . . .
35.3(31) . . .
31.8(29) . . .
36.2(32) . . .
39.3(35) . . .
29.3(28) . . .
35.6(32) . . .
32.6(30) . . .
34.2(32) . . .
26.7(31) . . .
39(4) . . .
24.9(27) . . .
31.4(30) . . .
26.7(27) . . .
34.9(32) . . .
36.0(34) . . .
28.9(28) . . .
35.6(31) . . .
38.1(32) . . .
36.9(31) . . .
29.7(29) . . .
28.5(28) . . .
29.5(29) . . .
39.6(33) . . .
39.5(35) . . .
35.1(32) . . .
39.5(35) . . .
29.2(28) . . .
25.8(27) . . .
25.2(30) . . .
23.6(25) . . .
33.8(32) . . .
39.5(33) . . .
28.4(27) . . .
34.7(34) . . .
31.0(32) . . .
40.7(34) . . .
35.1(31) . . .
32.7(31) . . .
36.1(32) . . .
35.2(32) . . .
39.1(33) . . .
33.1(31) . . .
33.8(31) . . .
28.8(31) . . .
27.4(29) . . .
37.5(32) . . .
34.5(31) . . .
30.8(29) . . .
33.4(31) . . .
29.8(29) . . .
34.3(31) . . .
36.1(31) . . .
41(4) . . .
32.0(31) . . .
44(4) . . .
39.5(32) . . .
42.3(34) . . .
36.7(34) . . .
31.8(32) . . .
22.8(26) . . .
29.5(29) . . .
22.9(25) . . .
32.0(30) . . .
29.0(29) . . .
36.6(35) . . .
34.3(32) . . .
37.5(31) . . .
32.1(32) . . .
33.5(33) . . .
30.9(30) . . .
30.9(29) . . .
32.2(29) . . .
34.7(32) . . .
34.2(32) . . .
31.1(29) . . .
30.6(29) . . .
41.5(33) . . .
35.4(31) . . .
35.6(32) . . .
33.8(31) . . .
39.5(32) . . .
42(4) . . .
30.7(30) . . .
29.8(30) . . .
28.7(27) . . .
38.4(32) . . .
32.4(30) . . .
40.7(35) . . .
33.3(30) . . .
36.5(31) . . .
30.3(29) . . .
36.7(32) . . .
31.6(29) . . .
38(4) . . .
39.9(34) . . .
35.7(31) . . .
32.9(32) . . .
33.4(33) . . .
31.6(31) . . .
34.2(31) . . .
33.4(30) . . .
31.8(30) . . .
33.7(35) . . .
31.4(30) . . .
40.2(34) . . .
41.1(33) . . .
38.7(32) . . .
34.8(32) . . .
29.6(28) . . .
37.5(32) . . .
28.7(29) . . .
32.8(30) . . .
39(4) . . .
32.8(30) . . .
34.1(30) . . .
31.2(30) . . .
33.9(32) . . .
30.1(31) . . .
26.4(27) . . .
37.2(32) . . .
30.2(29) . . .
24.9(29) . . .
37(4) . . .
40.7(35) . . .
39.8(33) . . .
30.7(29) . . .
33.1(31) . . .
32.2(31) . . .
32.8(31) . . .
36.3(32) . . .
38.8(32) . . .
31.0(29) . . .
38.2(34) . . .
30.1(29) . . .
33.0(30) . . .
33.0(30) . . .
31.9(31) . . .
33.7(30) . . .
38.1(32) . . .
30.2(29) . . .
38(4) . . .
35.5(35) . . .
34.4(33) . . .
40.1(34) . . .
38.7(32) . . .
33.0(31) . . .
32.0(33) . . .
39(4) . . .
37.3(32) . . .
26.8(27) . . .
34.5(32) . . .
33.8(32) . . .
43(4) . . .
35.1(32) . . .
32.1(30) . . .
42(4) . . .
32.0(32) . . .
31.9(32) . . .
36.4(31) . . .
46(4) . . .
32.5(29) . . .
42(4) . . .
24.8(25) . . .
33.3(30) . . .
35.8(31) . . .
35.6(31) . . .
38.2(35) . . .
27.9(30) . . .
36.1(32) . . .
34.4(31) . . .
34.2(31) . . .
33.5(33) . . .
34.0(30) . . .
36.7(32) . . .
24.2(26) . . .
26.4(29) . . .
37.5(34) . . .
35.0(32) . . .
37.0(32) . . .
36.3(32) . . .
32.3(29) . . .
48(4) . . .
41.5(34) . . .
27.0(27) . . .
29.3(29) . . .
34.8(33) . . .
30.1(29) . . .
32.5(32) . . .
34.8(31) . . .
33.3(30) . . .
32.1(30) . . .
35.3(32) . . .
40.0(33) . . .
35.1(31) . . .
34.4(33) . . .
32.2(30) . . .
31.2(31) . . .
27.5(28) . . .
33.9(31) . . .
35.1(33) . . .
20.6(24) . . .
30.3(29) . . .
31.5(29) . . .
38.0(33) . . .
26.9(27) . . .
38.4(33) . . .
37.8(32) . . .
38.9(32) . . .
32.1(30) . . .
35.5(33) . . .
25.6(27) . . .
35.3(32) . . .
36.6(32) . . .
32.0(30) . . .
32.4(31) . . .
36.6(33) . . .
32.2(30) . . .
33.1(30) . . .
33.7(30) . . .
34.4(30) . . .
35.5(32) . . .
39.4(33) . . .
37.7(32) . . .
32.1(30) . . .
38.8(33) . . .
40(4) . . .
36.8(32) . . .
31.5(30) . . .
26.2(27) . . .
29.7(28) . . .
37(4) . . .
34.0(31) . . .
34.6(31) . . .
34.0(30) . . .
38.6(34) . . .
35.0(32) . . .
37.1(33) . . .
32.9(31) . . .
32.7(32) . . .
41(4) . . .
41(4) . . .
29.5(29) . . .
31.5(29) . . .
32.0(32) . . .
27.6(28) . . .
36.6(32) . . .
42.2(34) . . .
36.8(32) . . .
29.3(30) . . .
27.1(29) . . .
26.1(27) . . .
30.5(29) . . .
29.5(28) . . .
30.9(31) . . .
33.6(32) . . .
33.9(31) . . .
36.3(32) . . .
31.6(29) . . .
32.9(30) . . .
33.7(32) . . .
38.0(33) . . .
41.5(33) . . .
36.0(31) . . .
35.4(32) . . .
43(4) . . .
40.7(34) . . .
43.3(35) . . .
33.7(31) . . .
30.8(28) . . .
36.7(34) . . .
35.5(33) . . .
32.8(30) . . .
31.2(29) . . .
27.1(27) . . .
32.5(30) . . .
36.1(32) . . .
31.0(29) . . .
31.1(30) . . .
39(4) . . .
25.5(28) . . .
33.4(30) . . .
30.7(29) . . .
31.4(29) . . .
37.3(32) . . .
34.9(32) . . .
33.6(31) . . .
31.4(30) . . .
37.1(32) . . .
33.8(32) . . .
33.1(31) . . .
32.9(30) . . .
30.5(28) . . .
37.4(34) . . .
40(4) . . .
34.3(30) . . .
32.3(29) . . .
37.3(32) . . .
37.2(33) . . .
35.3(33) . . .
35.3(33) . . .
34.5(30) . . .
27.7(28) . . .
32.3(30) . . .
35.7(33) . . .
30.8(30) . . .
36.6(32) . . .
34.2(31) . . .
23.8(27) . . .
26.7(29) . . .
26.2(29) . . .
37.7(32) . . .
29.0(28) . . .
30.3(32) . . .
34.5(34) . . .
36.6(34) . . .
29.1(28) . . .
28.5(28) . . .
40(4) . . .
35.2(33) . . .
39(4) . . .
42.0(35) . . .
27.8(28) . . .
38(4) . . .
31.8(32) . . .
31.6(30) . . .
40.4(34) . . .
26.9(26) . . .
32.4(31) . . .
27.3(29) . . .
41(4) . . .
33.7(30) . . .
34.9(31) . . .
30.9(29) . . .
37.7(34) . . .
32.5(32) . . .
32.0(30) . . .
41.2(35) . . .
35.8(32) . . .
30.9(30) . . .
35.6(34) . . .
46(4) . . .
33.4(30) . . .
33.1(31) . . .
34.0(30) . . .
38.4(34) . . .
38.0(32) . . .
29.1(31) . . .
32.4(30) . . .
38.4(33) . . .
28.1(27) . . .
36.6(32) . . .
34.7(32) . . .
32.6(32) . . .
33.9(30) . . .
35.5(31) . . .
27.8(27) . . .
27.0(28) . . .
32.9(32) . . .
26.2(26) . . .
34.5(31) . . .
34.4(30) . . .
47(4) . . .
31.0(31) . . .
39(4) . . .
30.6(29) . . .
37.1(32) . . .
34.5(30) . . .
36.6(34) . . .
39.3(34) . . .
32.9(31) . . .
33.4(30) . . .
34.2(32) . . .
34.6(33) . . .
34.6(33) . . .
33.2(29) . . .
36.3(33) . . .
44(4) . . .
35.7(34) . . .
34.1(32) . . .
38.4(32) . . .
37.9(32) . . .
38.0(35) . . .
32.8(33) . . .
33.0(31) . . .
28.6(29) . . .
37.5(32) . . .
36.2(34) . . .
28.1(30) . . .
35.1(31) . . .
29.7(28) . . .
38.4(35) . . .
35.8(32) . . .
31.5(30) . . .
38.6(34) . . .
31.5(30) . . .
40.1(34) . . .
45(4) . . .
37.8(32) . . .
27.5(28) . . .
28.8(28) . . .
38.1(33) . . .
35.9(34) . . .
27.9(28) . . .
28.6(28) . . .
28.4(28) . . .
33.6(31) . . .
40(4) . . .
28.0(29) . . .
30.7(29) . . .
35.9(32) . . .
29.7(29) . . .
30.4(30) . . .
39.0(34) . . .
30.2(28) . . .
45(4) . . .
34.8(33) . . .
33.5(31) . . .
37.2(33) . . .
38.6(32) . . .
34.4(31) . . .
35.2(32) . . .
38.8(35) . . .
34.0(30) . . .
35.7(31) . . .
36.3(31) . . .
31.9(29) . . .
36.2(32) . . .
31.4(30) . . .
33.1(30) . . .
33.4(31) . . .
35.7(34) . . .
32.3(32) . . .
30.7(29) . . .
41.0(34) . . .
39.4(35) . . .
36.2(34) . . .
27.7(31) . . .
28.7(29) . . .
34.8(31) . . .
43.5(35) . . .
32.7(29) . . .
39.3(33) . . .
36.9(34) . . .
30.6(29) . . .
29.8(29) . . .
36.9(33) . . .
33.3(30) . . .
36.6(31) . . .
38.3(32) . . .
25.0(27) . . .
37(4) . . .
35.8(32) . . .
41.7(35) . . .
36.3(32) . . .
36.4(34) . . .
27.6(28) . . .
39(4) . . .
37.4(34) . . .
28.4(28) . . .
33.4(34) . . .
29.6(30) . . .
33.1(33) . . .
30.0(29) . . .
29.6(28) . . .
35.3(32) . . .
43(4) . . .
27.7(28) . . .
35.8(32) . . .
31.2(30) . . .
27.2(27) . . .
29.4(32) . . .
31.7(30) . . .
31.3(29) . . .
28.2(28) . . .
36.3(34) . . .
38(4) . . .
33.6(30) . . .
39.5(33) . . .
37.4(33) . . .
43(4) . . .
41.5(33) . . .
32.2(30) . . .
35.9(31) . . .
30.1(29) . . .
33.2(31) . . .
37(4) . . .
36.4(35) . . .
25.3(26) . . .
35.2(33) . . .
30.0(28) . . .
32.4(30) . . .
30.7(30) . . .
35.3(31) . . .
31.2(30) . . .
40(4) . . .
36.3(33) . . .
30.4(29) . . .
33.8(31) . . .
29.8(30) . . .
33.8(33) . . .
35.9(33) . . .
31.6(30) . . .
31.9(29) . . .
40(4) . . .
31.0(29) . . .
30.7(29) . . .
38.5(32) . . .
38.5(34) . . .
32.0(30) . . .
42(4) . . .
38.5(32) . . .
39.3(33) . . .
32.9(30) . . .
36.7(32) . . .
40(4) . . .
28.8(29) . . .
27.8(28) . . .
37.5(32) . . .
36.1(31) . . .
29.3(28) . . .
34.8(31) . . .
30.0(28) . . .
27.3(27) . . .
35.2(32) . . .
29.2(30) . . .
35.8(34) . . .
35.0(31) . . .
24.8(26) . . .
31.2(32) . . .
31.9(32) . . .
37.8(32) . . .
30.7(30) . . .
28.0(29) . . .
30.2(29) . . .
34.1(30) . . .
34.9(31) . . .
33.8(30) . . .
35.9(31) . . .
33.8(31) . . .
33.4(31) . . .
39.8(34) . . .
38.2(33) . . .
36.5(34) . . .
26.1(27) . . .
32.5(32) . . .
36.2(32) . . .
34.6(31) . . .
37.9(32) . . .
35.2(32) . . .
36.3(33) . . .
33.7(31) . . .
32.6(30) . . .
31.4(33) . . .
39(4) . . .
31.5(30) . . .
33.0(30) . . .
37.2(32) . . .
40.0(34) . . .
37.6(34) . . .
30.1(29) . . .
27.1(28) . . .
31.7(29) . . .
33.4(30) . . .
36.3(33) . . .
34.4(33) . . .
26.2(26) . . .
39.8(33) . . .
29.1(28) . . .
37(4) . . .
31.3(29) . . .
29.4(28) . . .
25.9(27) . . .
37.7(34) . . .
31.4(30) . . .
37.3(34) . . .
28.2(28) . . .
33.7(30) . . .
31.0(29) . . .
31.7(32) . . .
36.3(33) . . .
36.7(31) . . .
32.1(33) . . .
26.8(28) . . .
37.0(34) . . .
35.2(32) . . .
36.4(32) . . .
44(4) . . .
36.7(33) . . .
34.2(32) . . .
28.3(29) . . .
31.4(30) . . .
40.0(34) . . .
29.1(28) . . .
38.4(33) . . .
36.6(33) . . .
33.9(30) . . .
34.2(32) . . .
30.1(29) . . .
30.9(29) . . .
27.4(30) . . .
39.7(32) . . .
43(4) . . .
39.4(35) . . .
33.0(31) . . .
24.3(26) . . .
31.5(30) . . .
31.9(29) . . .
34.2(32) . . .
34.4(32) . . .
27.6(28) . . .
28.4(28) . . .
36.9(34) . . .
29.7(30) . . .
42.1(35) . . .
37.8(32) . . .
30.2(28) . . .
43.3(35) . . .
34.5(32) . . .
35.0(31) . . .
32.7(30) . . .
34.0(31) . . .
34.4(31) . . .
30.8(30) . . .
32.1(31) . . .
30.8(31) . . .
32.8(29) . . .
30.3(30) . . .
29.7(30) . . .
34.1(31) . . .
32.9(30) . . .
29.6(29) . . .
30.9(31) . . .
35.0(32) . . .
29.1(29) . . .
26.9(27) . . .
26.9(28) . . .
35.4(33) . . .
33.8(32) . . .
34.9(32) . . .
30.1(29) . . .
40.4(34) . . .
37.5(33) . . .
33.7(30) . . .
31.4(30) . . .
34.1(31) . . .
35.9(32) . . .
36.9(32) . . .
28.3(28) . . .
34.2(31) . . .
33.8(30) . . .
29.3(28) . . .
23.3(27) . . .
30.1(30) . . .
32.0(29) . . .
38.9(33) . . .
36.8(31) . . .
32.3(30) . . .
34.4(34) . . .
25.2(29) . . .
34.6(31) . . .
26.9(28) . . .
27.3(28) . . .
35.5(32) . . .
40.0(34) . . .
32.1(29) . . .
23.1(27) . . .
30.9(33) . . .
27.2(27) . . .
35.0(31) . . .
40.8(34) . . .
43(4) . . .
33.4(32) . . .
24.5(26) . . .
37.2(31) . . .
35.8(31) . . .
33.7(30) . . .
35.0(32) . . .
37.3(35) . . .
39.7(33) . . .
40.5(33) . . .
37.3(34) . . .
35.2(33) . . .
35.7(32) . . .
29.3(29) . . .
34.5(32) . . .
39(4) . . .
27.5(28) . . .
34.2(32) . . .
33.7(31) . . .
34.1(31) . . .
36.6(32) . . .
32.4(30) . . .
30.7(31) . . .
35.0(32) . . .
44(4) . . .
29.9(28) . . .
45(4) . . .
33.7(31) . . .
28.9(28) . . .
35.0(32) . . .
28.4(29) . . .
31.7(30) . . .
43(4) . . .
45.4(35) . . .
36.8(33) . . .
34.0(31) . . .
34.6(33) . . .
27.9(27) . . .
34.5(30) . . .
25.8(27) . . .
32.0(31) . . .
36.6(33) . . .
40.3(34) . . .
29.1(28) . . .
39.3(33) . . .
27.7(29) . . .
29.3(29) . . .
33.4(30) . . .
37.9(32) . . .
35.5(32) . . .
29.1(31) . . .
34.3(31) . . .
30.9(29) . . .
29.9(29) . . .
41.4(34) . . .
30.9(28) . . .
29.0(29) . . .
33.9(30) . . .
38.3(32) . . .
37.0(33) . . .
31.7(31) . . .
31.0(29) . . .
33.5(30) . . .
32.1(29) . . .
28.6(29) . . .
29.7(30) . . .
31.5(30) . . .
34.5(31) . . .
34.2(32) . . .
33.0(29) . . .
38.0(35) . . .
26.0(28) . . .
34.3(31) . . .
35.9(32) . . .
31.6(32) . . .
32.4(33) . . .
28.1(28) . . .
36.0(31) . . .
33.2(33) . . .
37.2(34) . . .
35.4(32) . . .
31.6(29) . . .
41.6(34) . . .
40.3(34) . . .
36.0(33) . . .
41.5(35) . . .
38.8(32) . . .
33.9(31) . . .
35.4(32) . . .
34.7(31) . . .
39.5(33) . . .
31.8(30) . . .
32.0(30) . . .
36.1(31) . . .
39.8(34) . . .
30.1(29) . . .
32.1(29) . . .
36.0(32) . . .
31.2(32) . . .
32.7(33) . . .
29.6(28) . . .
34.9(31) . . .
29.5(28) . . .
30.2(31) . . .
30.6(31) . . .
40.3(34) . . .
36.7(31) . . .
32.2(29) . . .
37.0(33) . . .
29.3(31) . . .
26.8(28) . . .
26.8(27) . . .
30.3(29) . . .
33.4(31) . . .
34.0(31) . . .
31.5(31) . . .
36.4(32) . . .
30.5(29) . . .
40.1(34) . . .
33.8(32) . . .
33.5(32) . . .
29.5(28) . . .
37.5(33) . . .
33.1(32) . . .
36.7(34) . . .
36.6(32) . . .
40.1(33) . . .
35.6(31) . . .
45(4) . . .
34.4(31) . . .
32.2(29) . . .
36.9(32) . . .
33.3(31) . . .
40(4) . . .
39.5(33) . . .
loop_
_refln_index_h
_refln_index_k
_refln_index_l
_refln_observed_status
_refln_F_squared_meas
_refln_F_squared_calc
_refln_phase_calc
_refln_d_spacing
_gsas_i100_meas
0 2 0 o 1446.028 1407.973 180.00 8.36999 6.34
0 0 2 o 637.862 34.239 180.00 6.40861 1.64
1 0 1 o 13829.599 14114.651 0.00 5.88814 60.10
0 2 2 o 30795.842 30846.268 0.00 5.08837 100.00
0 3 1 o 1208.799 1299.233 180.00 5.11618 3.97
1 2 1 o 1751.380 1731.550 0.00 4.81586 10.19
1 1 2 o 4367.206 4239.686 0.00 4.44234 21.63
0 1 3 o 244.104 17.485 0.00 4.13971 0.53
0 4 0 o 4028.759 871.045 0.00 4.18499 4.43
1 0 3 o 847.933 242.785 180.00 3.59118 1.37
1 3 2 o 3676.258 3617.376 0.00 3.55287 11.66
0 0 4 o 390.087 153.029 180.00 3.20431 0.25
0 3 3 o 11801.580 11528.581 0.00 3.39225 17.08
0 4 2 o 3.294 1.517 0.00 3.50403 0.01
1 4 1 o 868.483 893.552 180.00 3.41117 2.54
1 2 3 o 1131.610 1215.599 0.00 3.30023 3.10
0 5 1 o 87.218 61.893 180.00 3.23931 0.12
2 0 0 o 2163.293 2062.817 180.00 3.31453 1.49
0 2 4 o 2087.467 1799.640 0.00 2.99251 2.35
2 1 1 o 954.967 967.316 180.00 3.15158 2.39
2 2 0 o 205.106 208.394 0.00 3.08169 0.25
1 1 4 o 146.230 25.614 0.00 2.84304 0.30
2 0 2 o 448.366 407.096 0.00 2.94407 0.49
0 6 0 o 1323.371 1381.161 0.00 2.79000 0.65
2 3 1 o 831.214 919.524 0.00 2.78177 1.62
2 2 2 o 2172.325 2246.558 180.00 2.77728 4.22
0 1 5 o 1811.055 1853.110 180.00 2.53391 1.47
1 4 3 o 5010.302 5108.423 0.00 2.72532 9.38
1 5 2 o 3052.539 2798.437 180.00 2.70847 5.65
1 3 4 o 45.844 90.768 0.00 2.56270 0.08
2 1 3 o 1348.954 1340.997 0.00 2.58737 2.28
2 4 0 o 1779.139 1814.536 180.00 2.59832 1.52
0 5 3 o 587.796 560.710 180.00 2.63525 0.51
0 4 4 o 9651.006 11464.204 0.00 2.54419 7.88
0 6 2 o 71.135 141.765 0.00 2.55809 0.06
1 0 5 o 608.597 310.057 180.00 2.39091 0.44
1 6 1 o 717.018 708.247 0.00 2.52128 1.15
0 3 5 o 58.611 183.788 0.00 2.32940 0.04
1 2 5 o 382.273 442.358 0.00 2.29895 0.51
0 7 1 o 94.963 281.904 0.00 2.35086 0.07
2 0 4 o 2038.948 2260.574 180.00 2.30377 1.37
2 3 3 o 72.004 133.748 180.00 2.37073 0.10
2 4 2 o 81.243 50.956 180.00 2.40793 0.12
2 5 1 o 0.729 3.735 180.00 2.31667 0.00
0 0 6 o 2931.043 3563.556 0.00 2.13620 0.85
2 2 4 o 17.665 37.917 0.00 2.22117 0.02
0 2 6 o 149.263 147.355 180.00 2.06985 0.08
1 5 4 o 5118.999 5489.381 0.00 2.18549 6.19
1 6 3 o 4715.474 4636.252 180.00 2.20322 5.79
1 1 6 o 784.035 763.069 180.00 2.01841 0.81
0 8 0 o 23.167 16.642 180.00 2.09250 0.01
2 6 0 o 1170.801 1303.365 180.00 2.13447 0.68
1 7 2 o 2511.964 2465.509 0.00 2.12256 2.87
1 4 5 o 15.374 15.813 180.00 2.07600 0.02
3 0 1 o 3028.432 2678.804 180.00 2.17756 1.82
2 1 5 o 363.921 346.898 180.00 2.01304 0.37
0 6 4 o 9264.052 7511.575 180.00 2.10416 5.20
0 5 5 o 19858.674 20705.141 0.00 2.03535 10.43
0 7 3 o 6783.753 5756.255 0.00 2.08677 3.74
3 2 1 o 43.933 48.934 0.00 2.10741 0.05
3 1 2 o 2795.898 2905.352 180.00 2.07292 3.05
2 4 4 o 1262.698 1293.549 180.00 2.01819 1.30
2 6 2 o 547.288 501.685 180.00 2.02510 0.57
0 8 2 o 2812.097 2485.836 180.00 1.98915 1.41
2 5 3 o 386.692 338.263 0.00 2.06275 0.42
1 3 6 o 685.225 611.371 0.00 1.91037 0.64
1 8 1 o 702.669 755.888 180.00 1.97169 0.69
0 4 6 o 2027.897 1726.447 180.00 1.90266 0.93
3 0 3 o 2432.251 2628.652 0.00 1.96271 1.19
0 1 7 o 319.207 545.904 0.00 1.82018 0.13
2 3 5 o 1139.904 920.596 0.00 1.90582 1.05
2 7 1 o 266.572 280.848 180.00 1.91752 0.25
3 3 2 o 1175.844 711.482 0.00 1.95639 1.14
3 2 3 o 4859.207 4172.948 180.00 1.91088 4.51
3 4 1 o 867.886 477.299 180.00 1.93171 0.82
1 0 7 o 1239.052 1113.157 0.00 1.76494 0.49
0 9 1 o 2810.944 3035.065 0.00 1.84072 1.21
2 0 6 o 1.295 1.101 180.00 1.79559 0.00
0 3 7 o 1343.645 1409.767 0.00 1.73976 0.52
1 2 7 o 658.581 680.941 180.00 1.72697 0.50
2 2 6 o 1515.700 1402.444 180.00 1.75564 1.19
3 1 4 o 3206.556 3032.777 0.00 1.80844 2.67
1 6 5 o 247.721 403.627 0.00 1.81548 0.21
1 7 4 o 460.365 450.168 180.00 1.84112 0.40
1 8 3 o 130.597 121.375 0.00 1.80797 0.11
1 5 6 o 1134.723 1272.480 0.00 1.73787 0.87
2 8 0 o 47.186 38.260 0.00 1.76940 0.02
2 5 5 o 2156.498 2463.769 180.00 1.73444 1.65
0 0 8 o 48.633 80.776 0.00 1.60215 0.01
3 4 3 o 336.181 283.879 180.00 1.77699 0.27
2 6 4 o 1554.914 1300.391 0.00 1.77643 1.25
2 7 3 o 1647.169 1502.119 180.00 1.76593 1.31
3 5 2 o 504.616 410.589 0.00 1.77230 0.40
1 9 2 o 5.773 5.901 0.00 1.72476 0.00
0 7 5 o 1728.905 1458.231 180.00 1.74865 0.67
3 3 4 o 241.513 248.522 180.00 1.72951 0.18
0 6 6 o 5398.481 6302.573 0.00 1.69612 1.98
0 8 4 o 1088.528 924.820 0.00 1.75201 0.43
0 10 0 o 10621.530 10653.597 180.00 1.67400 1.90
2 8 2 o 6.843 6.393 0.00 1.70558 0.01
0 9 3 o 184.817 171.474 180.00 1.70539 0.07
3 6 1 o 1811.943 1509.792 180.00 1.71660 1.36
1 4 7 o 190.540 265.136 180.00 1.62624 0.13
3 0 5 o 2549.038 2541.548 180.00 1.67370 0.91
2 4 6 o 1847.244 1779.532 0.00 1.65012 1.29
2 1 7 o 160.464 354.221 0.00 1.59544 0.10
0 2 8 o 576.761 569.799 180.00 1.57358 0.18
3 2 5 o 33.132 48.610 0.00 1.64121 0.02
0 5 7 o 0.172 0.262 0.00 1.60648 0.00
1 1 8 o 806.575 815.750 0.00 1.55062 0.50
1 10 1 o 306.225 513.728 180.00 1.61019 0.20
0 10 2 o 260.695 478.873 0.00 1.61965 0.09
2 9 1 o 33.255 52.965 180.00 1.60922 0.02
4 0 0 o 1769.812 1864.572 0.00 1.65726 0.31
2 3 7 o 1890.872 1960.489 180.00 1.54045 1.15
1 3 8 o 150.321 141.459 0.00 1.49999 0.09
4 1 1 o 1008.782 791.545 0.00 1.63572 0.69
4 2 0 o 394.263 233.985 180.00 1.62570 0.13
3 1 6 o 7.578 10.032 180.00 1.52942 0.00
0 4 8 o 0.857 0.785 0.00 1.49625 0.00
3 5 4 o 179.945 467.966 180.00 1.59839 0.12
3 6 3 o 511.656 668.939 0.00 1.60529 0.34
4 0 2 o 149.338 152.718 180.00 1.60448 0.05
3 4 5 o 45.274 43.480 180.00 1.55403 0.03
3 7 2 o 1945.794 1960.229 180.00 1.57327 1.23
1 7 6 o 283.873 298.061 0.00 1.54904 0.17
4 3 1 o 769.622 761.476 180.00 1.57661 0.49
4 2 2 o 1330.629 1506.760 0.00 1.57579 0.85
1 8 5 o 415.137 458.447 180.00 1.57462 0.26
0 11 1 o 3766.173 5027.822 180.00 1.51120 1.10
1 9 4 o 223.636 211.605 0.00 1.56326 0.14
1 6 7 o 833.649 736.894 0.00 1.49155 0.48
2 0 8 o 1193.636 1060.888 180.00 1.44247 0.32
2 7 5 o 1916.544 1922.323 0.00 1.54661 1.18
2 6 6 o 2155.844 2836.691 180.00 1.50991 1.26
2 10 0 o 279.440 264.039 0.00 1.49424 0.08
0 1 9 o 1977.092 2154.856 0.00 1.41901 0.51
1 10 3 o 11.577 16.878 180.00 1.51725 0.01
2 8 4 o 1948.344 2179.478 180.00 1.54894 1.20
4 1 3 o 529.142 540.207 180.00 1.53855 0.32
3 8 1 o 81.722 113.810 0.00 1.50879 0.05
2 9 3 o 158.236 220.522 0.00 1.51644 0.09
4 4 0 o 1319.844 1552.365 0.00 1.54085 0.40
3 3 6 o 1.976 2.335 180.00 1.48078 0.00
2 2 8 o 709.905 707.314 0.00 1.42152 0.37
1 0 9 o 394.438 490.161 180.00 1.39237 0.10
0 8 6 o 1323.987 1314.154 180.00 1.49483 0.38
2 5 7 o 2164.436 1965.883 0.00 1.44563 1.16
0 7 7 o 4063.625 4414.925 0.00 1.45382 1.10
1 5 8 o 94.875 112.937 180.00 1.41203 0.05
0 10 4 o 130.708 202.971 180.00 1.48373 0.04
0 3 9 o 15.232 24.966 0.00 1.37990 0.00
1 11 2 o 224.816 203.457 180.00 1.44504 0.12
1 2 9 o 27.073 28.993 180.00 1.37349 0.01
2 10 2 o 220.453 248.465 180.00 1.45521 0.12
4 4 2 o 1758.963 1318.644 180.00 1.49815 1.01
4 3 3 o 2276.379 1935.317 0.00 1.48906 1.30
4 0 4 o 721.002 1109.733 0.00 1.47204 0.20
0 9 5 o 504.609 832.221 0.00 1.50545 0.15
3 0 7 o 964.201 1163.340 180.00 1.40989 0.25
4 5 1 o 2220.554 2428.729 0.00 1.47539 1.24
0 11 3 o 463.436 420.336 0.00 1.43359 0.12
4 2 4 o 920.134 776.826 180.00 1.44979 0.50
3 2 7 o 24.468 29.638 0.00 1.39030 0.01
0 6 8 o 5.729 7.111 180.00 1.38937 0.00
0 12 0 o 2089.139 2702.872 0.00 1.39500 0.26
2 4 8 o 2178.459 1849.242 180.00 1.36374 1.05
3 6 5 o 22.061 18.458 180.00 1.43525 0.01
3 7 4 o 66.322 62.234 0.00 1.44782 0.04
3 8 3 o 658.259 629.618 180.00 1.43153 0.35
4 6 0 o 4580.307 3847.190 180.00 1.42485 1.20
1 4 9 o 43.706 45.812 0.00 1.32117 0.02
3 5 6 o 240.404 335.616 180.00 1.39597 0.12
2 11 1 o 371.703 454.356 0.00 1.37503 0.18
0 12 2 o 4740.686 4066.736 180.00 1.36308 1.14
3 9 2 o 8.043 9.787 180.00 1.38915 0.00
1 12 1 o 14.499 11.318 180.00 1.35742 0.01
2 1 9 o 877.234 1267.090 180.00 1.30449 0.39
4 1 5 o 1000.463 1294.707 0.00 1.38696 0.50
0 5 9 o 22.475 29.638 0.00 1.31050 0.00
0 0 10 o 5246.534 5033.431 180.00 1.28172 0.56
4 5 3 o 571.534 430.695 180.00 1.40290 0.29
4 4 4 o 554.051 707.543 0.00 1.38864 0.28
4 6 2 o 996.566 1150.856 0.00 1.39089 0.50
3 4 7 o 85.632 87.027 0.00 1.33610 0.04
0 2 10 o 456.327 346.950 0.00 1.26695 0.10
1 8 7 o 94.294 69.146 0.00 1.34912 0.04
2 8 6 o 2753.110 2423.600 0.00 1.36266 1.32
2 3 9 o 783.310 719.631 0.00 1.27391 0.33
4 3 5 o 193.747 160.181 180.00 1.35038 0.09
2 7 7 o 2811.253 2861.750 180.00 1.33138 1.29
1 9 6 o 227.952 204.659 180.00 1.37238 0.11
1 1 10 o 64.054 48.917 0.00 1.25488 0.03
1 11 4 o 28.393 16.578 180.00 1.34602 0.01
2 10 4 o 1133.078 845.773 0.00 1.35423 0.54
3 1 8 o 946.962 1266.415 180.00 1.29321 0.41
1 10 5 o 134.621 114.980 0.00 1.37129 0.07
4 7 1 o 3271.813 2444.756 180.00 1.35452 1.55
2 9 5 o 3168.125 2972.188 180.00 1.37069 1.54
3 10 1 o 133.733 162.285 0.00 1.32716 0.06
1 7 8 o 451.440 726.207 0.00 1.30500 0.20
4 0 6 o 868.804 1321.784 180.00 1.30942 0.19
2 11 3 o 995.655 844.485 180.00 1.31579 0.45
2 6 8 o 1936.415 1797.763 0.00 1.28135 0.83
0 13 1 o 2861.461 2651.110 0.00 1.28124 0.61
1 12 3 o 89.477 116.249 180.00 1.30034 0.04
1 3 10 o 0.418 0.438 180.00 1.22759 0.00
2 12 0 o 513.022 555.395 180.00 1.28576 0.11
3 3 8 o 21.222 15.302 180.00 1.26340 0.01
0 4 10 o 3.061 3.242 180.00 1.22553 0.00
4 2 6 o 353.496 455.926 0.00 1.29368 0.15
0 9 7 o 12.320 22.375 180.00 1.30486 0.00
0 8 8 o 885.640 841.720 0.00 1.27209 0.19
0 11 5 o 145.063 255.607 0.00 1.30859 0.03
1 6 9 o 317.627 149.675 180.00 1.24584 0.13
4 8 0 o 1379.168 1714.551 0.00 1.29916 0.30
5 0 1 o 1875.371 1758.208 0.00 1.31877 0.42
0 10 6 o 11.613 10.536 180.00 1.31763 0.00
0 12 4 o 142.760 128.375 180.00 1.27904 0.03
3 7 6 o 40.467 68.322 0.00 1.29229 0.02
3 8 5 o 13.725 32.555 180.00 1.30703 0.01
3 9 4 o 67.383 91.161 180.00 1.30051 0.03
4 7 3 o 427.041 583.848 0.00 1.29778 0.19
4 5 5 o 327.992 307.177 0.00 1.28513 0.14
2 12 2 o 1407.231 1099.828 0.00 1.26064 0.58
4 6 4 o 124.973 152.092 180.00 1.30193 0.05
2 5 9 o 1355.108 1440.962 180.00 1.21870 0.52
3 6 7 o 728.760 675.298 180.00 1.25834 0.30
3 10 3 o 218.719 208.544 180.00 1.27366 0.09
5 2 1 o 342.628 433.951 0.00 1.30270 0.15
0 7 9 o 380.575 394.697 0.00 1.22360 0.07
5 1 2 o 351.753 366.873 0.00 1.29443 0.15
4 8 2 o 1686.800 1637.345 180.00 1.27326 0.71
1 13 2 o 39.719 16.974 180.00 1.24017 0.02
4 4 6 o 70.661 40.702 180.00 1.24968 0.03
4 1 7 o 439.047 500.479 180.00 1.22542 0.17
0 13 3 o 956.941 763.089 180.00 1.23291 0.19
5 0 3 o 28.970 13.687 0.00 1.26624 0.01
3 5 8 o 112.077 278.029 0.00 1.20949 0.04
5 3 2 o 582.261 449.487 0.00 1.26454 0.24
3 11 2 o 479.642 564.633 0.00 1.23003 0.19
5 4 1 o 8.591 11.544 180.00 1.25780 0.00
5 2 3 o 233.174 311.310 0.00 1.25200 0.10
4 9 1 o 1331.347 1275.296 0.00 1.23163 0.53
2 9 7 o 78.350 112.315 0.00 1.21416 0.03
5 1 4 o 16.715 13.155 0.00 1.22182 0.01
2 11 5 o 12.353 23.310 180.00 1.21717 0.00
2 10 6 o 125.904 247.928 180.00 1.22443 0.05
1 10 7 o 86.361 100.413 180.00 1.21457 0.03
1 11 6 o 76.366 64.516 0.00 1.21835 0.03
5 4 3 o 752.254 943.745 0.00 1.21198 0.29
5 5 2 o 266.299 260.565 180.00 1.21049 0.10
