#------------------------------------------------------------------------------
#$Date: 2019-11-04 17:48:55 +0200 (Mon, 04 Nov 2019) $
#$Revision: 223181 $
#$URL: file:///home/coder/svn-repositories/cod/cif/4/00/29/4002909.cif $
#------------------------------------------------------------------------------
#
# This file is available in the Crystallography Open Database (COD),
# http://www.crystallography.net/
#
# All data on this site have been placed in the public domain by the
# contributors.
#
data_4002909
loop_
_publ_author_name
'Arhangelskis, Mihails'
'Katsenis, Athanassios D.'
'Novendra, Novendra'
'Akimbekov, Zamirbek'
'Gandrath, Dayaker'
'Marrett, Joseph M.'
'Ayoub, Ghada'
'Morris, Andrew J.'
'Farha, Omar K.'
'Fri\<s\<ci\'c, Tomislav'
'Navrotsky, Alexandra'
_publ_section_title
;
 Theoretical Prediction and Experimental Evaluation of Topological
 Landscape and Thermodynamic Stability of a Fluorinated Zeolitic
 Imidazolate Framework
;
_journal_issue                   10
_journal_name_full               'Chemistry of Materials'
_journal_page_first              3777
_journal_paper_doi               10.1021/acs.chemmater.9b00994
_journal_volume                  31
_journal_year                    2019
_chemical_formula_moiety         'C4 H3 F3 N2'
_chemical_formula_sum            'C4 H3 F3 N2'
_chemical_formula_weight         136.08
_space_group_IT_number           14
_space_group_name_Hall           '-P 2ybc'
_space_group_name_H-M_alt        'P 1 21/c 1'
_symmetry_cell_setting           monoclinic
_symmetry_Int_Tables_number      14
_symmetry_space_group_name_Hall  '-P 2ybc'
_symmetry_space_group_name_H-M   'P 1 21/c 1'
_atom_sites_solution_hydrogens   geom
_audit_creation_date             2018-07-28T13:25:17-00:00
_audit_creation_method           'WinGX routine CIF_UPDATE'
_cell_angle_alpha                90
_cell_angle_beta                 108.970(18)
_cell_angle_gamma                90
_cell_formula_units_Z            4
_cell_length_a                   7.5862(16)
_cell_length_b                   9.8792(18)
_cell_length_c                   7.6926(18)
_cell_measurement_reflns_used    981
_cell_measurement_temperature    293(2)
_cell_measurement_theta_max      54
_cell_measurement_theta_min      6.169
_cell_volume                     545.2(2)
_computing_cell_refinement       'Bruker (2012), SAINT'
_computing_data_collection       'Bruker (2012), APEX3 (v2016.5-0)'
_computing_data_reduction        'Bruker (2012), SAINT'
_computing_molecular_graphics    'Ortep-3, Farrugia (2012)'
_computing_publication_material  'WinGX v2014.1, Farrugia (2012)'
_computing_structure_refinement  'SHELXL Version 2014/7'
_computing_structure_solution    'SHELXT, (Sheldrick, 2015)'
_diffrn_ambient_temperature      293(2)
_diffrn_measured_fraction_theta_full 0.969
_diffrn_measured_fraction_theta_max 0.969
_diffrn_measurement_device_type  'Bruker SMART APEX II Duo CCD'
_diffrn_measurement_method       '\f and \w scans'
_diffrn_radiation_type           CuK\a
_diffrn_radiation_wavelength     1.54178
_diffrn_reflns_av_R_equivalents  0.0991
_diffrn_reflns_av_unetI/netI     0.0948
_diffrn_reflns_Laue_measured_fraction_full 0.969
_diffrn_reflns_Laue_measured_fraction_max 0.969
_diffrn_reflns_limit_h_max       8
_diffrn_reflns_limit_h_min       -8
_diffrn_reflns_limit_k_max       8
_diffrn_reflns_limit_k_min       -11
_diffrn_reflns_limit_l_max       8
_diffrn_reflns_limit_l_min       -8
_diffrn_reflns_number            3499
_diffrn_reflns_point_group_measured_fraction_full 0.969
_diffrn_reflns_point_group_measured_fraction_max 0.969
_diffrn_reflns_theta_full        64.801
_diffrn_reflns_theta_max         64.801
_diffrn_reflns_theta_min         6.169
_exptl_absorpt_coefficient_mu    1.615
_exptl_absorpt_correction_T_max  1
_exptl_absorpt_correction_T_min  0.706
_exptl_absorpt_correction_type   multi-scan
_exptl_absorpt_process_details
;
SADABS-2016/2 - Bruker AXS area detector scaling and absorption correction
;
_exptl_crystal_colour            colorless
_exptl_crystal_density_diffrn    1.658
_exptl_crystal_density_method    'not measured'
_exptl_crystal_description       needle
_exptl_crystal_F_000             272
_exptl_crystal_size_max          0.2
_exptl_crystal_size_mid          0.1
_exptl_crystal_size_min          0.1
_refine_diff_density_max         0.198
_refine_diff_density_min         -0.303
_refine_diff_density_rms         0.065
_refine_ls_extinction_method     none
_refine_ls_goodness_of_fit_ref   1.031
_refine_ls_hydrogen_treatment    mixed
_refine_ls_matrix_type           full
_refine_ls_number_parameters     111
_refine_ls_number_reflns         898
_refine_ls_number_restraints     36
_refine_ls_restrained_S_all      1.039
_refine_ls_R_factor_all          0.1909
_refine_ls_R_factor_gt           0.0825
_refine_ls_shift/su_max          0
_refine_ls_shift/su_mean         0
_refine_ls_structure_factor_coef Fsqd
_refine_ls_weighting_details
'w=1/[\s^2^(Fo^2^)+(0.1365P)^2^] where P=(Fo^2^+2Fc^2^)/3'
_refine_ls_weighting_scheme      calc
_refine_ls_wR_factor_gt          0.1868
_refine_ls_wR_factor_ref         0.2401
_reflns_Friedel_coverage         0
_reflns_number_gt                442
_reflns_number_total             898
_reflns_threshold_expression     'I > 2\s(I)'
_cod_data_source_file            cm9b00994_si_002.cif
_cod_data_source_block           HCF3Im
_cod_depositor_comments
'Adding full bibliography for 4002907--4002909.cif.'
_cod_original_sg_symbol_H-M      'P 21/c'
_cod_database_code               4002909
_shelx_res_file
;

    shelx.res created by SHELXL-2014/7

TITL shelxt_a.res in P2(1)/c
CELL  1.54178   7.5862   9.8792   7.6926   90.000  108.970   90.000
ZERR     4.00   0.0016   0.0018   0.0018    0.000    0.018    0.000
LATT   1
SYMM  - X, 1/2 + Y, 1/2 - Z
SFAC  C    H    N    F
UNIT  16 12 8 12
MERG   2
ISOR   0.010 F1A F2A F3A F1B F2B F3B
FMAP   2
PLAN    5
ACTA
BOND   $H
LIST   6
L.S.  20
TEMP    20.00
WGHT    0.136500
FVAR       0.28402   0.19559
C1    1    0.740463    0.348484    0.291289    11.00000    0.08799    0.05758 =
         0.10274    0.00146    0.02515   -0.00180
C2    1    0.542369    0.341084    0.261288    11.00000    0.06239    0.05228 =
         0.07106    0.00022    0.01411    0.00268
C3    1    0.259915    0.401662    0.216502    11.00000    0.06399    0.06303 =
         0.15105   -0.00749    0.03244    0.00223
AFIX  43
H3    2    0.153605    0.453527    0.201113    11.00000   -1.20000
AFIX   0
C4    1    0.268494    0.265463    0.216126    11.00000    0.06736    0.05696 =
         0.15088    0.00520    0.03140   -0.00358
AFIX  43
H4    2    0.167619    0.207445    0.198412    11.00000   -1.20000
AFIX   0
PART    1
F1A   4    0.798887    0.443459    0.230742    21.00000    0.08147    0.07816 =
         0.08796    0.01156    0.03037    0.00595
F2A   4    0.787737    0.239772    0.213868    21.00000    0.08070    0.08220 =
         0.11982   -0.03632    0.03483    0.00847
F3A   4    0.837533    0.369784    0.453033    21.00000    0.14646    0.15541 =
         0.15202   -0.00196    0.04903    0.00461
PART    2
F1B   4    0.826987    0.230645    0.322658   -21.00000    0.07603    0.07197 =
         0.17970    0.00627    0.02436    0.01025
F2B   4    0.830155    0.420894    0.440631   -21.00000    0.07642    0.11862 =
         0.15572   -0.04447   -0.00300   -0.01430
F3B   4    0.779371    0.411970    0.151674   -21.00000    0.10780    0.17382 =
         0.12682    0.02829    0.05017   -0.01934
PART    0
N2    3    0.447132    0.226130    0.245600    11.00000    0.06959    0.05080 =
         0.10347   -0.00313    0.02278   -0.00671
N1    3    0.433590    0.449235    0.243265    11.00000    0.07067    0.05241 =
         0.10278    0.00092    0.02406   -0.00033
AFIX  43
H1    2    0.467095    0.532676    0.247750    11.00000    0.23108
AFIX   0
HKLF    4

REM  shelxt_a.res in P2(1)/c
REM R1 =  0.0825 for     442 Fo > 4sig(Fo)  and  0.1909 for all     898 data
REM    111 parameters refined using     36 restraints

END

WGHT      0.1389      0.0000

REM Highest difference peak  0.198,  deepest hole -0.303,  1-sigma level  0.065
Q1    1   0.1387  0.4698  0.0368  11.00000  0.05    0.20
Q2    1   0.1961  0.3717  0.3669  11.00000  0.05    0.17
Q3    1   0.8701  0.4250  0.0100  11.00000  0.05    0.17
Q4    1   0.1769  0.4740  0.3341  11.00000  0.05    0.16
Q5    1   0.4775  0.1556  0.2494  11.00000  0.05    0.16
;
_shelx_res_checksum              78852
_shelx_hkl_file
;
  -1   0   0  104.28    6.42
   2   0   0  280.61   17.27
  -2   0   0  269.10   17.21
  -2   0   0  290.92   17.23
   3   0   0  351.62   23.12
  -3   0   0  376.95   22.95
  -3   0   0  391.46   22.98
  -4   0   0   47.54    3.25
   4   0   0   56.86    3.39
  -4   0   0   54.14    3.25
  -4   0   0   51.30    3.35
  -5   0   0   18.10    1.21
   5   0   0   19.05    1.47
  -6   0   0    1.36    0.33
   6   0   0    1.20    0.65
  -7   0   0    3.22    0.62
   7   0   0    3.35    0.79
   8   0   0    0.84    0.96
   0  -1   0    0.12    0.13
   0   1   0    0.04    0.13
  -1  -1   0   76.87    4.61
   1   1   0   71.71    4.61
  -2  -1   0  151.92   10.02
   2  -1   0  151.68   10.08
  -2  -1   0  169.73   10.05
   2   1   0  151.07   10.09
  -2   1   0  185.44   10.06
  -2   1   0  169.09   10.03
   3  -1   0   12.13    1.03
  -3  -1   0   11.70    0.73
  -3  -1   0   11.72    0.77
  -3  -1   0   11.67    0.78
   3   1   0    9.46    1.07
  -3   1   0   13.56    0.88
  -4  -1   0   24.89    1.60
   4  -1   0   24.73    1.79
  -4  -1   0   24.17    1.59
  -4   1   0   25.58    1.73
  -4   1   0   26.72    1.59
   4   1   0   25.07    1.80
   5  -1   0   13.51    1.21
  -5  -1   0   11.73    0.89
  -5  -1   0   11.09    0.83
   5   1   0   13.03    1.17
  -5   1   0   12.69    0.81
  -5   1   0    9.46    1.33
   6  -1   0    4.26    0.85
   6   1   0    4.68    0.72
  -6   1   0    4.76    0.51
   7  -1   0    2.55    0.92
  -7   1   0    1.95    0.43
   7   1   0    1.76    0.64
   0  -2   0   68.18    4.09
   0   2   0   63.35    4.08
  -1  -2   0   10.93    0.87
   1   2   0   10.99    0.93
  -2  -2   0    1.70    0.12
  -2  -2   0    1.95    0.19
   2  -2   0    1.63    0.24
  -2  -2   0    1.49    0.21
  -2   2   0    1.54    0.25
   2   2   0    2.62    0.53
  -2   2   0    2.06    0.21
  -3  -2   0    3.82    0.30
   3  -2   0    4.05    0.56
   3  -2   0    3.82    0.42
  -3  -2   0    2.74    0.46
  -3  -2   0    4.03    0.24
  -3   2   0    3.32    0.30
  -3   2   0    4.33    0.51
   4  -2   0    3.01    0.57
  -4  -2   0    2.24    0.28
  -4  -2   0    2.34    0.17
  -4   2   0    2.41    0.48
   4   2   0    2.49    0.62
  -4   2   0    2.65    0.26
   5  -2   0    1.40    0.68
  -5  -2   0    1.41    0.45
  -5  -2   0    0.65    0.20
  -5   2   0    0.48    0.69
  -5   2   0    0.67    0.17
   5   2   0    1.48    0.59
  -6  -2   0    0.20    0.32
   6  -2   0    0.46    0.82
   6   2   0   -0.16    0.60
  -6   2   0   -0.02    0.20
   7  -2   0   -0.44    1.10
  -7   2   0   -0.01    0.30
   7   2   0    0.16    0.55
  -8   2   0    0.31    0.72
   8   2   0   -0.08    0.77
   0  -3   0    0.08    0.12
   0  -3   0    0.03    0.02
   0  -3   0    0.12    0.11
   0  -3   0    0.05    0.12
   0  -3   0    0.46    0.42
  -1  -3   0   27.73    1.74
   1  -3   0   27.19    1.73
  -1  -3   0   27.86    1.73
  -1  -3   0   29.45    1.86
  -1  -3   0   26.49    1.70
  -2  -3   0    1.58    0.10
  -2  -3   0    1.42    0.19
   2  -3   0    1.41    0.22
  -2  -3   0    1.27    0.19
  -2   3   0    1.00    0.25
   2   3   0    0.90    0.68
  -2   3   0    1.28    0.21
  -3  -3   0    4.30    0.47
  -3  -3   0    4.21    0.35
   3  -3   0    4.08    0.39
  -3   3   0    4.08    0.58
  -3   3   0    4.80    0.35
   3   3   0    3.42    0.69
   4  -3   0    0.83    0.68
  -4  -3   0    1.44    0.26
   4  -3   0    1.09    0.27
  -4  -3   0    1.37    0.11
  -4   3   0    1.54    0.46
  -4   3   0    1.40    0.24
   4   3   0    1.31    0.63
  -5  -3   0    0.80    0.09
  -5  -3   0    0.72    0.21
   5  -3   0    0.62    0.85
  -5   3   0    0.76    0.18
  -5   3   0    0.68    0.74
   5   3   0    1.72    0.66
  -6  -3   0   -0.12    0.26
  -6   3   0    0.02    0.22
   6   3   0   -0.89    0.62
  -6   3   0   -1.82    2.44
  -7   3   0   -0.03    0.28
   7   3   0    0.52    0.59
   8   3   0   -1.15    0.74
   0  -4   0    4.65    0.39
   0  -4   0    4.83    0.36
   0  -4   0    5.00    0.38
   1  -4   0    2.66    0.42
  -1  -4   0    3.79    0.30
  -1  -4   0    3.76    0.22
  -1  -4   0    3.57    0.33
  -1  -4   0    3.18    0.34
   2  -4   0    5.84    0.44
  -2   4   0    5.98    0.60
  -2   4   0    5.86    0.44
  -3  -4   0    1.94    0.26
   3  -4   0    1.98    0.30
  -3  -4   0    1.75    0.13
  -3  -4   0    2.88    0.40
   3   4   0    2.44    0.80
  -3   4   0    2.16    0.26
  -3   4   0    1.92    0.42
  -4  -4   0    2.26    0.16
  -4  -4   0    2.36    0.31
   4  -4   0    1.78    0.29
   4   4   0    1.85    0.78
  -4   4   0    2.71    0.30
  -4   4   0    1.62    0.55
  -5   4   0   -0.95    0.85
  -6  -4   0    0.32    0.27
  -6  -4   0    0.01    0.11
  -6   4   0    0.18    0.22
   6   4   0   -0.15    0.70
  -7   4   0    0.29    0.27
   7   4   0   -0.96    0.59
   0  -5   0    0.59    0.91
   0  -5   0    0.20    0.12
   1  -5   0    2.56    0.43
  -1  -5   0    1.92    0.14
  -1  -5   0    2.37    0.32
  -1  -5   0    3.43    0.90
  -1  -5   0    2.37    0.27
   1  -5   0    2.18    0.27
  -1   5   0    1.86    0.34
   2  -5   0   82.84    4.83
  -2  -5   0   74.15    4.79
  -2  -5   0   79.73    4.83
  -2  -5   0   79.91    4.83
  -2   5   0   77.25    4.81
  -2   5   0   73.68    4.90
  -3  -5   0   11.83    0.82
  -3  -5   0   10.34    0.68
   3  -5   0   10.95    0.77
  -3  -5   0   11.18    0.76
  -3   5   0   10.02    1.02
  -3   5   0   10.94    0.75
  -4  -5   0    0.31    0.05
  -4  -5   0    0.33    0.22
  -4  -5   0    0.79    0.37
   4  -5   0    0.16    0.24
  -4   5   0   -0.36    0.68
  -4   5   0    0.10    0.16
   4   5   0    1.09    0.87
   5  -5   0   19.39    1.48
  -5  -5   0   19.86    1.31
  -5  -5   0   19.47    1.20
  -5   5   0   18.12    1.27
   5   5   0   20.41    1.88
  -6  -5   0    5.20    0.40
  -6  -5   0    6.46    0.59
   6   5   0    6.60    0.97
  -6   5   0    5.50    0.57
   7   5   0    0.89    0.87
   0  -6   0   80.33    4.87
   0  -6   0   79.02    4.81
   0  -6   0   78.34    4.85
   0  -6   0   78.41    4.85
   0   6   0   75.39    4.93
  -1  -6   0    3.06    0.43
  -1  -6   0    3.89    0.24
   1  -6   0    3.41    0.58
   1  -6   0    3.81    0.36
  -1  -6   0    3.60    0.37
  -1  -6   0    3.25    0.40
  -1   6   0    3.72    0.68
  -2  -6   0   21.08    1.29
  -2  -6   0   21.02    1.36
   2  -6   0   21.70    1.36
  -2  -6   0   21.22    1.39
  -2   6   0   19.28    1.56
  -3  -6   0    8.14    0.49
  -3  -6   0    8.04    0.71
   3  -6   0    7.75    0.62
  -3  -6   0    8.19    0.61
  -3   6   0    6.81    1.13
  -3   6   0    6.85    0.62
   4  -6   0    0.47    0.29
  -4  -6   0    0.19    0.06
  -4  -6   0    0.91    0.42
  -4  -6   0   -0.15    0.23
   4   6   0   -1.33    1.22
  -4   6   0    0.24    0.26
  -4   6   0   -0.49    0.96
  -5  -6   0    1.48    0.15
   5  -6   0    1.19    0.53
  -5  -6   0    1.52    0.30
  -5   6   0    0.90    0.28
   5   6   0    1.73    1.12
  -6  -6   0    0.02    0.41
  -6  -6   0    0.09    0.11
   6   6   0   -0.35    0.92
  -6   6   0    0.07    0.26
  -7   6   0    0.60    0.34
   0  -7   0   -0.12    0.30
   0  -7   0    0.00    0.29
   0  -7   0   -0.07    0.19
   0  -7   0    0.01    0.05
   0   7   0   -0.70    0.78
  -1  -7   0    0.74    0.27
  -1  -7   0    0.44    0.05
   1  -7   0   -0.50    0.49
   1  -7   0    0.16    0.19
  -1  -7   0    0.60    0.29
  -1  -7   0    0.43    0.23
  -1   7   0    0.50    0.74
  -2  -7   0    5.85    0.52
  -2  -7   0    5.68    0.35
   2  -7   0    4.69    0.51
  -2  -7   0    5.76    0.61
  -2   7   0    2.66    1.17
  -3  -7   0    2.82    0.44
  -3  -7   0    3.05    0.21
   3  -7   0    2.77    0.46
  -3  -7   0    2.72    0.55
  -3   7   0    2.54    1.04
  -4  -7   0    1.39    0.31
  -4  -7   0    1.57    0.15
   4  -7   0    1.54    0.34
  -4   7   0    1.86    0.37
  -5  -7   0    3.30    0.25
   5  -7   0    3.13    0.59
  -5  -7   0    3.73    0.56
  -5   7   0    2.89    0.46
  -6  -7   0    0.65    0.51
  -6   7   0    0.13    0.37
   0  -8   0    1.34    0.47
   0  -8   0    0.65    0.48
  -1  -8   0    1.40    0.44
  -1  -8   0    0.99    0.40
  -1   8   0    1.12    1.53
   2  -8   0    1.83    0.31
  -2  -8   0    1.93    0.16
  -2  -8   0    1.73    0.42
  -2  -8   0    1.47    0.47
  -2   8   0    1.30    1.52
   3  -8   0    0.22    0.26
  -3  -8   0    0.19    0.07
  -3  -8   0    0.47    0.32
  -3  -8   0   -0.14    0.46
   4  -8   0    0.08    0.34
  -4  -8   0   -0.04    0.31
  -4  -8   0    0.19    0.07
  -5  -8   0    0.30    0.16
  -5  -8   0    0.21    0.55
   5  -8   0   -1.11    0.53
  -5   8   0   -0.71    0.57
  -6  -8   0   -1.26    0.84
   0  -9   0    0.86    0.75
   0  -9   0    0.06    0.33
  -1  -9   0   -0.04    0.48
  -1  -9   0    1.36    0.50
   1  -9   0    0.49    0.32
   2  -9   0   -0.11    0.27
  -2  -9   0    0.25    0.08
  -2  -9   0    0.25    0.58
  -2  -9   0    0.19    0.41
  -3  -9   0    0.29    0.09
  -3  -9   0    0.55    0.38
   3  -9   0    0.69    0.31
  -4  -9   0   -0.05    0.43
  -4  -9   0   -0.02    0.12
  -5  -9   0    0.09    0.10
  -5  -9   0   -0.74    0.58
   0 -10   0    4.69    0.78
   1 -10   0    1.26    0.36
  -1 -10   0    1.80    0.82
  -1 -10   0    1.89    0.20
   2 -10   0    0.09    0.31
  -2 -10   0   -0.32    0.70
   3 -10   0   -0.04    0.37
  -3 -10   0    0.46    0.13
  -3 -10   0    0.85    0.56
   4 -10   0    0.19    0.52
  -4 -10   0    0.68    0.14
  -4 -10   0    1.93    0.66
   0 -11   0   -0.46    0.96
   2 -11   0   -0.86    0.56
  -7   0   1    0.33    0.50
   7   0  -1   -0.18    0.71
  -6   0   1   -0.37    0.29
  -5   0   1   -0.44    0.55
  -5   0   1   -0.25    0.18
   5   0  -1    0.84    0.45
   4   0  -1    0.64    0.39
  -4   0   1    0.29    0.16
  -4   0   1    0.32    0.28
  -3   0   1   -0.26    0.17
   3   0  -1    0.05    0.31
  -3   0   1   -0.07    0.13
   1   0  -1    0.05    0.14
  -1   0   1    0.15    0.15
   0   0  -1    0.15    0.13
   0   0   1    0.03    0.07
   0   0   1    0.03    0.12
  -1   0  -1    0.27    0.18
   1   0   1    0.09    0.17
  -2   0  -1    0.01    0.20
  -2   0  -1    0.06    0.08
   2   0   1    0.73    0.47
  -3   0  -1    0.06    0.29
   3   0   1   -0.38    0.49
  -4   0  -1   -0.11    0.51
  -4   0  -1    0.00    0.13
   4   0   1    0.50    0.57
  -5   0  -1   -2.07    1.18
  -5   0  -1    0.08    0.21
  -5   0  -1    0.01    0.20
   5   0   1    0.01    0.64
   6   0   1   -0.22    0.75
  -6   0  -1   -0.09    0.29
   7   0   1    0.54    0.83
   8  -1  -1   -2.43    1.13
   8   1  -1    0.44    0.75
   7  -1  -1    0.06    0.80
  -7   1   1    1.45    0.41
   7   1  -1    1.14    0.70
   6  -1  -1    4.97    1.25
  -6  -1   1    3.99    0.74
   6   1  -1    5.87    1.00
  -5  -1   1    0.38    0.26
   5  -1  -1   -0.76    0.45
  -5  -1   1    0.19    0.27
   5   1  -1   -0.06    0.46
  -5   1   1   -0.27    0.48
  -5   1   1    0.16    0.17
  -4  -1   1    9.75    0.70
   4  -1  -1   10.53    0.96
  -4  -1   1   10.85    0.76
  -4   1   1   12.75    0.90
   4   1  -1   11.20    0.95
  -4   1   1   12.15    0.74
  -3  -1   1   38.33    2.23
   3  -1  -1   34.90    2.29
  -3  -1   1   35.14    2.26
   3  -1  -1   35.36    2.32
   3   1  -1   37.26    2.34
   2  -1  -1   23.69    1.65
   2  -1  -1   25.80    1.60
  -2  -1   1   27.84    1.55
  -2  -1   1   25.75    1.66
   2   1  -1   21.36    1.67
   2   1  -1   23.91    1.64
  -2   1   1   27.54    1.57
  -1  -1   1   25.28    1.84
  -1  -1   1   25.84    1.79
   1  -1  -1   30.02    1.77
   1   1  -1   31.41    1.79
   1   1  -1   27.91    1.80
  -1   1   1   29.68    1.76
   0  -1   1    4.89    0.40
   0   1   1    5.17    0.51
   0   1  -1    6.06    0.42
  -1  -1  -1    1.63    0.27
   1  -1   1    1.63    0.25
  -1   1  -1    1.62    0.29
   1   1   1    1.51    0.26
  -2  -1  -1   19.63    1.24
  -2  -1  -1   19.53    1.29
  -2  -1  -1   18.90    1.26
   2  -1   1   18.65    1.51
  -2  -1  -1   20.94    1.35
  -2   1  -1   23.19    1.34
  -2   1  -1   20.29    1.26
   2   1   1   18.91    1.54
  -3  -1  -1    0.40    0.14
  -3  -1  -1    0.01    0.35
   3  -1   1    0.10    0.48
   3   1   1   -0.10    0.52
  -3   1  -1    0.22    0.33
  -3   1  -1    0.20    0.11
   4  -1   1   -0.09    0.58
  -4  -1  -1    0.05    0.64
  -4  -1  -1    0.13    0.17
   4   1   1   -0.01    0.59
  -4   1  -1    0.35    0.13
  -4   1  -1    0.47    0.51
  -5  -1  -1    0.93    0.26
   5  -1   1    1.07    0.72
  -5   1  -1    2.30    1.05
   5   1   1    1.05    0.63
   6  -1   1    0.23    0.84
   6   1   1    0.40    0.67
  -6   1  -1    0.25    0.24
   7  -1   1   -1.04    0.99
   7   1   1    0.18    0.68
  -7   1  -1    0.23    0.49
   8   2  -1    0.57    0.70
  -8   2   1    0.46    0.55
   7  -2  -1    1.08    0.95
   7   2  -1   -0.67    0.65
  -7   2   1    0.39    0.31
   6   2  -1    1.76    0.53
  -6   2   1   -1.84    1.25
  -5  -2   1    1.76    0.27
   5  -2  -1    3.72    0.60
  -5  -2   1    2.43    0.46
  -5  -2   1    2.14    0.19
   5   2  -1    2.15    0.53
  -5   2   1    2.61    0.32
  -5   2   1    1.71    0.60
  -4  -2   1   35.49    2.20
   4  -2  -1   34.03    2.35
  -4  -2   1   34.73    2.24
  -4  -2   1   34.72    2.29
   4  -2  -1   32.55    2.28
   4   2  -1   38.76    2.37
  -4   2   1   37.65    2.34
  -4   2   1   37.96    2.24
   3  -2  -1   12.73    0.88
   3  -2  -1   13.05    1.02
  -3  -2   1   12.84    0.81
  -3  -2   1   14.14    0.86
  -3  -2   1   11.64    0.92
  -3  -2   1   14.43    1.20
   3   2  -1   13.10    1.05
  -3   2   1   13.36    0.85
  -2  -2   1   99.49    6.16
  -2  -2   1  105.77    6.19
  -2  -2   1   95.13    6.20
  -2  -2   1  104.20    6.25
   2  -2  -1  103.46    6.19
   2   2  -1   91.60    6.22
  -2   2   1  102.62    6.18
  -1  -2   1   67.57    3.96
   1  -2  -1   67.85    3.96
  -1  -2   1   63.57    4.00
  -1  -2   1   60.64    3.93
   1   2  -1   60.47    3.99
   0  -2   1  405.14   26.51
   0   2   1  445.32   26.54
   0   2  -1  443.60   26.51
  -1  -2  -1    0.31    0.12
  -1  -2  -1    0.33    0.04
   1  -2   1    0.19    0.10
   1  -2   1   -0.03    0.29
  -1   2  -1    0.18    0.10
   1   2   1    0.16    0.33
  -1   2  -1    0.25    0.19
  -2  -2  -1   16.16    1.01
  -2  -2  -1   14.71    1.14
   2  -2   1   14.44    0.99
  -2  -2  -1   15.61    0.95
   2  -2   1   13.74    1.37
  -2   2  -1   14.92    0.97
   2   2   1   14.66    1.38
  -2   2  -1   18.00    1.08
  -3  -2  -1    6.25    0.54
  -3  -2  -1    5.00    0.30
  -3  -2  -1    3.36    0.59
  -3  -2  -1    3.57    0.46
  -3   2  -1    4.50    0.36
  -3   2  -1    5.26    0.63
   3   2   1    6.21    1.00
  -4  -2  -1    7.54    0.54
  -4  -2  -1    6.13    0.68
   4  -2   1    8.14    1.25
  -4  -2  -1    7.35    0.47
  -4   2  -1    7.85    0.97
   4   2   1    8.74    1.13
  -4   2  -1    8.21    0.54
   5  -2   1    0.29    0.84
  -5  -2  -1    0.58    0.20
   5   2   1    0.20    0.65
  -5   2  -1    0.39    0.16
  -5   2  -1   -0.29    1.02
  -6  -2  -1    2.92    0.53
   6  -2   1    2.90    1.05
   6   2   1    4.23    0.77
  -6   2  -1    3.77    0.51
  -7   2  -1    0.55    0.36
   7   2   1    0.27    0.65
  -8   3   1   -0.74    0.42
   8   3  -1    0.36    0.64
  -7   3   1    0.48    0.27
   7   3  -1    0.84    0.68
  -6  -3   1    4.18    0.64
  -6   3   1    3.56    1.54
  -6   3   1    4.29    0.47
   6   3  -1    4.62    0.72
  -5  -3   1    6.22    0.41
   5  -3  -1    6.91    1.19
  -5  -3   1    5.99    0.54
  -5   3   1    6.52    1.01
  -5   3   1    6.48    0.51
   5   3  -1    6.30    0.94
  -4  -3   1   10.27    0.65
  -4  -3   1   10.12    0.72
   4  -3  -1   10.29    0.79
  -4   3   1    9.86    0.71
  -4   3   1   10.44    0.94
   4   3  -1   12.98    1.03
  -3  -3   1   23.22    1.72
   3  -3  -1   26.66    1.69
  -3  -3   1   27.35    2.01
  -3  -3   1   27.67    1.68
  -3  -3   1   27.05    1.64
  -3   3   1   27.73    1.67
  -2  -3   1   25.23    1.74
  -2  -3   1   26.20    1.57
  -2  -3   1   24.92    1.59
   2  -3  -1   25.32    1.57
  -2   3   1   24.70    1.56
   2   3  -1   22.96    1.70
   1  -3  -1    5.32    0.39
  -1  -3   1    5.14    0.40
  -1  -3   1    5.00    0.64
   0  -3  -1    0.42    0.15
   0  -3   1    0.41    0.11
   0  -3  -1    0.61    0.05
   0  -3   1    0.82    0.18
   0  -3  -1    0.68    0.11
   0  -3   1    1.55    0.42
   0  -3  -1    0.64    0.14
   0   3  -1    0.32    0.17
  -1  -3  -1    6.61    0.40
  -1  -3  -1    6.67    0.46
   1  -3   1    6.37    0.44
   1  -3   1    6.27    0.62
  -1   3  -1    7.06    0.57
   1   3   1    4.97    0.72
  -1   3  -1    6.19    0.45
   2  -3   1   28.52    1.83
  -2   3  -1   31.53    1.93
  -2   3  -1   31.05    1.83
   2   3   1   24.41    2.21
  -3  -3  -1   16.82    1.09
   3  -3   1   15.03    1.63
  -3  -3  -1   14.54    0.99
   3  -3   1   15.35    1.05
  -3  -3  -1   16.59    1.04
   3   3   1   16.88    1.54
  -3   3  -1   16.74    1.03
  -3   3  -1   16.59    1.21
   4  -3   1    3.73    0.93
  -4  -3  -1    4.22    0.28
  -4  -3  -1    4.63    0.39
   4   3   1    5.28    0.91
  -4   3  -1    4.40    0.38
  -4   3  -1    4.39    0.72
  -5  -3  -1    7.68    0.67
   5  -3   1    8.14    1.25
  -5  -3  -1    7.28    0.49
   5   3   1    7.71    1.28
  -5   3  -1    5.80    1.29
  -5   3  -1    8.12    0.57
  -6  -3  -1    1.86    0.30
  -6   3  -1    1.80    0.27
   6   3   1    2.76    0.79
   8   4  -1   -0.01    0.71
   7   4  -1   -0.28    0.70
  -7   4   1   -0.09    0.27
  -6  -4   1    0.15    0.34
  -6   4   1   -0.23    0.21
   6   4  -1    0.84    0.59
  -5  -4   1   15.84    1.08
  -5  -4   1   16.38    0.99
   5  -4  -1   14.78    1.23
   5   4  -1   16.11    1.41
  -5   4   1   15.88    1.06
  -4  -4   1    0.91    0.20
  -4  -4   1    1.03    0.11
   4  -4  -1    1.46    0.27
  -4   4   1    0.84    0.47
   4   4  -1    1.00    0.58
  -4   4   1    0.97    0.19
  -3  -4   1   26.49    1.64
  -3  -4   1   28.02    1.70
  -3  -4   1   26.23    1.74
   3  -4  -1   27.48    1.70
  -3  -4   1   25.48    2.16
  -3   4   1   27.36    1.68
   3   4  -1   24.86    1.87
  -2  -4   1   17.97    1.17
  -2  -4   1   19.20    1.48
  -2   4   1   17.81    1.16
  -1  -4   1    8.37    0.49
  -1  -4   1    7.60    0.54
  -1  -4   1    8.63    0.57
   1  -4  -1    6.53    0.58
  -1  -4   1    8.61    0.90
   1  -4  -1    8.07    0.55
   1  -4  -1    7.85    0.55
   1  -4  -1    7.92    0.49
   0  -4  -1  104.45    6.66
   0  -4  -1  102.62    6.63
   0  -4   1  105.56    6.74
   0  -4   1  106.14    6.64
   0  -4  -1  112.53    6.66
   0  -4   1  107.66    6.66
   0  -4  -1  106.19    6.66
   0  -4   1  118.46    6.68
   0   4  -1  108.87    6.69
   1  -4   1    2.52    0.58
   1  -4   1    1.48    0.32
  -2  -4  -1    0.62    0.06
  -2  -4  -1    0.88    0.15
   2  -4   1    0.60    0.14
  -2  -4  -1    0.78    0.18
  -2   4  -1    0.32    0.34
  -2   4  -1    0.71    0.14
  -3  -4  -1   10.29    0.76
  -3  -4  -1    9.82    0.62
   3  -4   1    9.87    0.71
  -3  -4  -1    9.90    0.69
  -3   4  -1   10.36    0.68
  -3   4  -1    8.96    0.96
   3   4   1   12.12    1.51
  -4  -4  -1    2.99    0.46
   4  -4   1    3.32    0.56
  -4  -4  -1    3.42    0.36
  -4  -4  -1    3.69    0.23
  -4   4  -1    3.14    0.35
  -4   4  -1    3.33    0.81
   4   4   1    2.06    0.94
  -5  -4  -1    0.66    0.22
   5   4   1   -0.51    1.15
  -5   4  -1    0.72    0.19
  -5   4  -1    1.78    1.41
  -6  -4  -1    0.09    0.25
  -6   4  -1    0.14    0.20
   6   4   1   -0.64    0.81
  -7   4  -1    0.15    0.29
   7   4   1   -0.60    0.67
   7   5  -1   -0.49    1.36
  -7   5   1   -0.86    0.52
  -6  -5   1    2.82    0.47
   6   5  -1    4.19    0.88
  -6   5   1    3.06    0.37
  -5  -5   1    2.25    0.18
  -5  -5   1    1.76    0.32
   5  -5  -1    1.69    0.44
   5   5  -1    2.38    0.79
  -5   5   1    0.42    0.88
  -5   5   1    1.86    0.30
  -4  -5   1    2.73    0.20
  -4  -5   1    2.47    0.37
   4  -5  -1    3.17    0.46
   4   5  -1    2.30    0.70
  -4   5   1    3.31    0.66
  -4   5   1    2.27    0.37
   3  -5  -1   11.71    0.83
  -3  -5   1   13.32    0.73
  -3  -5   1   12.43    0.91
  -3  -5   1   11.33    0.81
  -3   5   1    9.81    1.06
  -3   5   1   11.11    0.81
   2  -5  -1   11.32    0.77
  -2  -5   1   11.11    0.82
   2  -5  -1   10.23    0.77
  -2  -5   1   10.80    1.39
  -2  -5   1   12.47    0.70
  -2  -5   1   10.84    0.77
  -1  -5   1    8.15    0.56
   1  -5  -1    8.20    0.66
  -1  -5   1    9.34    0.62
  -1  -5   1    9.99    0.65
   1  -5  -1    9.59    0.63
   1  -5  -1    9.14    0.62
  -1  -5   1    8.22    1.14
   0  -5   1    2.73    0.27
   0  -5   1    4.42    0.83
   0  -5  -1    2.91    0.30
   0  -5  -1    2.46    0.17
   0   5  -1    2.72    0.52
   1  -5   1    0.25    0.13
   1  -5   1    1.59    0.77
  -1  -5  -1    0.30    0.16
   1  -5   1    0.09    0.35
  -1  -5  -1    0.18    0.13
  -1   5  -1    0.22    0.34
  -2  -5  -1   12.31    0.83
  -2  -5  -1   13.48    0.77
   2  -5   1   12.02    0.83
  -2  -5  -1   12.04    0.85
  -2   5  -1   11.38    1.07
  -2   5  -1   12.31    0.83
  -3  -5  -1    0.07    0.04
   3  -5   1   -0.13    0.17
  -3  -5  -1    0.46    0.24
  -3  -5  -1    0.14    0.17
  -3   5  -1    0.33    0.57
   3   5   1    0.50    1.13
  -3   5  -1    0.02    0.17
  -4  -5  -1    0.65    0.37
   4  -5   1    0.59    0.30
  -4  -5  -1    0.38    0.06
  -4   5  -1    0.18    0.20
   4   5   1   -0.27    1.07
  -5  -5  -1    2.18    0.41
  -5  -5  -1    2.92    0.21
   5   5   1    1.99    1.10
  -5   5  -1    2.17    0.37
  -6  -5  -1    0.24    0.14
  -6  -5  -1   -0.22    0.26
  -6   5  -1   -0.05    0.23
   7   5   1    0.42    1.02
  -7   5  -1    0.55    0.30
  -7   6   1    0.77    0.34
   7   6  -1   -0.73    0.93
  -6  -6   1   -0.27    0.44
  -6   6   1    0.32    0.30
   6   6  -1    0.22    0.86
  -5  -6   1   -0.24    0.28
   5  -6  -1   -0.38    0.42
  -5  -6   1    0.06    0.07
  -5   6   1   -0.08    0.27
   5   6  -1    0.18    0.81
  -4  -6   1    1.06    0.37
  -4  -6   1    0.91    0.11
  -4   6   1    1.44    0.30
  -4   6   1    1.09    0.88
   3  -6  -1    1.31    0.26
  -3  -6   1    1.50    0.12
  -3  -6   1    0.83    0.23
   3  -6  -1    0.93    0.27
  -3  -6   1    1.28    0.40
  -3   6   1    1.63    0.28
  -2  -6   1    2.59    1.42
  -2  -6   1    2.29    0.29
   2  -6  -1    2.39    0.35
  -2  -6   1    2.10    0.34
   2  -6  -1    2.18    0.28
  -2  -6   1    2.21    0.35
  -2  -6   1    2.44    0.17
   1  -6  -1    0.44    0.17
   1  -6  -1    0.34    0.04
  -1  -6   1    0.41    0.17
   1  -6  -1   -0.10    0.29
  -1  -6   1    0.35    1.08
  -1  -6   1    0.01    0.20
  -1  -6   1    0.34    0.05
   1  -6  -1    0.44    0.19
   0  -6   1    4.85    0.39
   0  -6   1    4.93    1.09
   0  -6   1    3.49    0.50
   0  -6  -1    4.27    0.42
   0  -6  -1    4.44    0.42
   0  -6  -1    4.14    0.42
   0   6  -1    3.97    0.81
   1  -6   1    2.67    1.07
  -1  -6  -1    0.97    0.08
   1  -6   1    0.54    0.17
  -1  -6  -1    0.53    0.20
  -1  -6  -1    0.43    0.18
  -1   6  -1    0.63    0.54
  -2  -6  -1    0.33    0.22
  -2  -6  -1    0.20    0.18
   2  -6   1   -0.01    0.18
  -2   6  -1   -0.30    0.60
   3  -6   1    1.45    0.27
  -3  -6  -1    1.50    0.11
  -3  -6  -1    1.17    0.29
  -3  -6  -1    0.94    0.25
  -3   6  -1    1.34    0.24
  -3   6  -1    0.40    0.82
  -4  -6  -1    0.32    0.40
   4  -6   1    0.37    0.32
  -4  -6  -1    0.12    0.23
  -4   6  -1    0.07    0.21
   4   6   1    1.17    1.26
  -4   6  -1   -0.99    1.38
  -5  -6  -1   -0.03    0.07
  -5  -6  -1   -0.27    0.24
   5   6   1    0.16    1.36
  -5   6  -1    0.30    0.23
  -6  -6  -1   -0.03    0.13
   6   6   1   -0.63    1.02
  -6   6  -1    0.01    0.28
  -6  -7   1    0.71    0.56
  -6   7   1    0.34    0.39
  -5  -7   1    0.84    0.38
   5  -7  -1    0.40    0.44
  -5  -7   1    0.60    0.09
  -5   7   1    0.90    0.38
  -4  -7   1    0.24    0.30
   4  -7  -1    0.47    0.30
  -4   7   1    0.64    0.39
  -4   7   1    0.91    1.61
  -3  -7   1    1.62    0.32
   3  -7  -1    0.87    0.28
  -3  -7   1    1.29    0.53
  -3  -7   1    0.74    0.12
  -3   7   1    0.61    0.82
  -2  -7   1    1.23    0.29
  -2  -7   1    1.25    0.33
   2  -7  -1    1.50    0.28
   2  -7  -1    1.35    0.26
  -2  -7   1    1.24    0.13
  -2  -7   1    1.07    0.43
  -2   7   1    1.80    0.77
  -1  -7   1    4.93    1.67
  -1  -7   1    6.13    0.55
   1  -7  -1    6.53    0.57
   1  -7  -1    7.28    0.82
  -1  -7   1    5.97    0.41
   1  -7  -1    6.22    0.56
  -1  -7   1    6.14    0.63
  -1   7   1    8.42    1.11
   0  -7  -1    0.59    0.24
   0  -7   1    0.47    0.19
   0  -7   1    0.76    1.44
   0  -7  -1    0.18    0.27
   0  -7  -1    0.44    0.05
   0  -7  -1    0.79    0.24
   0  -7   1    0.22    0.35
   0   7  -1   -0.92    0.98
  -1  -7  -1    8.56    0.64
  -1  -7  -1    8.62    0.67
   1  -7   1    9.00    0.63
  -1  -7  -1    7.49    0.51
   1  -7   1    6.18    0.95
  -1   7  -1    6.96    1.43
   2  -7   1    0.00    0.20
  -2  -7  -1    0.06    0.05
  -2  -7  -1   -0.17    0.21
  -2  -7  -1   -0.18    0.27
  -2   7  -1   -0.03    0.97
  -3  -7  -1    1.87    0.35
   3  -7   1    1.48    0.29
  -3  -7  -1    1.51    0.13
  -3  -7  -1    1.58    0.31
  -3   7  -1    2.05    1.43
  -3   7  -1    1.44    0.32
  -4  -7  -1    0.94    0.48
   4  -7   1    0.25    0.36
  -4  -7  -1    0.23    0.06
  -4  -7  -1    0.53    0.28
  -4   7  -1    0.01    0.28
  -5  -7  -1    0.55    0.28
  -5  -7  -1    0.59    0.09
  -5   7  -1    0.69    0.33
  -6  -7  -1   -0.08    0.57
  -6   7  -1   -0.11    0.36
  -6  -8   1    0.38    0.73
   5  -8  -1    1.30    0.48
  -5  -8   1    0.20    0.09
  -5  -8   1    0.51    0.44
  -5   8   1    1.05    0.65
  -4  -8   1    0.40    0.34
   4  -8  -1    0.37    0.37
   3  -8  -1    3.94    0.54
  -3  -8   1    3.57    0.27
  -3  -8   1    4.05    0.59
  -2  -8   1    5.03    0.62
  -2  -8   1    4.09    0.31
  -2  -8   1    4.30    0.75
   2  -8  -1    4.77    0.54
  -2   8   1    6.17    1.47
  -1  -8   1    8.55    0.80
  -1  -8   1    7.41    0.77
   1  -8  -1    7.59    0.68
  -1   8   1    6.28    1.40
   0  -8  -1   11.89    1.01
   0  -8   1   10.74    1.21
   0  -8   1   12.66    0.94
   0  -8   1   12.59    3.49
   1  -8   1    5.37    0.53
  -1  -8  -1    4.77    0.34
  -1  -8  -1    5.85    0.62
  -1  -8  -1    5.42    0.63
  -1   8  -1    3.15    2.01
  -2  -8  -1    3.92    0.52
   2  -8   1    3.23    0.47
  -2  -8  -1    2.92    0.23
  -2   8  -1    7.50    2.15
   3  -8   1    3.35    0.54
  -3  -8  -1    3.62    0.51
  -3  -8  -1    3.50    0.50
  -3  -8  -1    3.23    0.24
  -4  -8  -1   -0.05    0.29
  -4  -8  -1   -0.06    0.06
   4  -8   1    0.12    0.37
  -4   8  -1    0.79    0.49
   5  -8   1    1.06    0.83
  -5  -8  -1    0.71    0.40
  -5   8  -1   -0.21    0.55
  -5  -9   1    0.70    0.61
  -4  -9   1    0.51    0.10
   4  -9  -1    0.29    0.41
  -4  -9   1    0.22    0.44
  -3  -9   1    6.97    0.83
   3  -9  -1    6.68    0.75
  -3  -9   1    7.39    0.48
  -2  -9   1    0.63    0.48
  -2  -9   1    0.50    0.11
   2  -9  -1    0.43    0.32
   1  -9  -1    4.57    0.65
  -1  -9   1    4.70    0.73
  -1  -9   1    5.13    0.38
  -1  -9   1    4.78    0.68
   0  -9  -1    0.16    0.43
   0  -9  -1    1.93    0.74
   0  -9   1    0.74    0.29
   0  -9  -1    0.95    0.47
   0  -9   1   -0.71    0.75
   0  -9  -1    0.58    0.10
  -1  -9  -1    3.44    0.54
   1  -9   1    3.30    0.51
  -1  -9  -1    4.04    0.74
  -1  -9  -1    3.11    0.25
  -2  -9  -1    3.16    0.21
   2  -9   1    2.10    0.36
  -2  -9  -1    2.17    0.46
  -2  -9  -1    2.87    0.51
  -3  -9  -1    3.61    0.61
  -3  -9  -1    4.05    0.28
   3  -9   1    3.75    0.60
   4  -9   1    0.67    0.49
  -4  -9  -1    0.37    0.40
  -4 -10   1    0.68    0.69
   3 -10  -1    1.16    0.42
  -3 -10   1    1.01    0.60
  -2 -10   1    1.22    0.68
   2 -10  -1    0.33    0.45
   1 -10  -1    0.86    0.47
  -1 -10   1    0.31    0.79
  -1 -10   1    1.23    0.53
   0 -10  -1    1.43    0.73
   0 -10   1    2.41    0.41
  -1 -10  -1    0.31    0.13
   1 -10   1    0.26    0.30
  -2 -10  -1    0.62    0.64
  -2 -10  -1    1.15    0.13
   2 -10   1    1.06    0.61
  -2 -10  -1   -0.52    0.70
  -3 -10  -1    2.08    0.56
   3 -10   1    0.42    0.38
  -3 -10  -1    0.95    0.14
   2 -11  -1   -1.02    0.61
   1 -11  -1   -0.92    0.84
   0 -11   1   -1.11    0.56
   1 -11   1   -0.59    0.43
   2 -11   1    0.29    0.47
   7   0  -2   -0.17    0.67
  -7   0   2    0.62    0.52
  -6   0   2    4.16    0.60
   6   0  -2    4.06    0.63
   5   0  -2    5.08    0.75
   4   0  -2  110.40    6.64
  -4   0   2  103.30    6.60
   3   0  -2   42.51    2.71
  -3   0   2   41.65    2.75
  -3   0   2   44.85    2.68
   2   0  -2   30.38    1.93
  -2   0   2   29.15    2.13
  -2   0   2   32.64    1.95
  -2   0   2   30.21    1.92
  -1   0   2  509.38   30.77
   1   0  -2  460.27   30.76
  -1   0   2  532.89   30.76
   0   0  -2 1000.00   55.17
   0   0  -2  789.24   55.11
   0   0   2  903.68   55.17
   1   0   2   30.23    2.26
  -1   0  -2   38.10    2.16
  -1   0  -2   30.54    2.05
  -2   0  -2    4.66    0.62
  -2   0  -2    4.24    0.34
  -3   0  -2   11.30    0.75
  -3   0  -2   10.44    1.09
   3   0   2   13.27    1.26
   4   0   2   14.82    1.42
  -4   0  -2    9.85    1.62
  -4   0  -2   13.20    0.86
   5   0   2    0.20    0.79
  -5   0  -2   -2.09    3.35
   6   0   2    9.10    1.46
  -6   0  -2    8.51    0.85
   7   0   2    0.53    1.04
   8  -1  -2    0.11    0.90
  -8   1   2    1.39    1.02
  -7  -1   2    1.60    0.84
   7  -1  -2    1.43    0.74
  -7   1   2    1.35    0.37
   7   1  -2   -0.14    0.62
   6  -1  -2   12.49    1.22
  -6  -1   2   12.68    1.08
  -6   1   2   12.54    0.92
   5  -1  -2    1.88    0.46
  -5  -1   2    2.93    0.50
  -5   1   2    1.08    0.47
  -5   1   2    1.58    0.25
   5   1  -2    1.34    0.41
  -4  -1   2    8.83    0.74
  -4  -1   2   10.08    0.72
   4  -1  -2    9.60    0.82
   4   1  -2   10.64    0.82
  -4   1   2    9.47    0.67
  -3  -1   2   22.26    1.41
  -3  -1   2   20.80    1.42
   3  -1  -2   21.66    1.45
  -3   1   2   23.34    1.49
  -2  -1   2   22.36    1.52
  -2  -1   2   24.73    1.57
  -2  -1   2   23.64    1.57
   2  -1  -2   23.73    1.53
  -2  -1   2   22.93    1.53
  -2   1   2   25.57    1.51
   2   1  -2   22.81    1.53
  -2   1   2   25.47    1.53
  -1  -1   2    0.46    0.29
  -1  -1   2    0.14    0.22
  -1  -1   2    0.17    0.25
  -1  -1   2    0.25    0.21
   1   1  -2   -0.24    0.29
   1   1  -2   -0.17    0.29
  -1   1   2   -0.05    0.14
  -1   1   2    0.24    0.16
   0  -1   2    2.08    0.62
   0   1  -2    2.43    0.41
   0   1   2    2.60    0.52
   0   1   2    2.17    0.25
  -1  -1  -2   12.52    0.93
   1  -1   2   10.52    1.20
  -1  -1  -2   10.86    0.72
  -1   1  -2   10.86    0.72
  -1   1  -2   11.58    0.96
   1   1   2   10.23    1.17
  -2  -1  -2    5.10    0.68
  -2  -1  -2    4.00    0.28
  -2  -1  -2    4.53    0.35
  -2   1  -2    5.17    0.60
  -3  -1  -2   -0.04    0.55
  -3  -1  -2    1.18    0.19
   3  -1   2    0.73    0.63
   3   1   2    1.42    0.65
  -3   1  -2    1.63    0.49
  -3   1  -2    1.17    0.21
   4  -1   2    0.13    0.74
  -4  -1  -2    2.14    1.05
  -4  -1  -2    1.98    0.36
   4   1   2    1.73    0.73
  -4   1  -2    3.69    0.84
  -4   1  -2    2.35    0.29
  -5  -1  -2    1.21    0.27
   5  -1   2    2.11    0.91
  -5  -1  -2    0.78    0.38
   5   1   2    0.72    0.74
  -5   1  -2    1.09    0.20
  -5   1  -2    1.46    1.84
  -6  -1  -2    0.14    0.42
   6  -1   2    0.30    1.03
   6   1   2    0.31    0.77
  -6   1  -2   -0.07    0.29
   7  -1   2    2.37    1.44
   7   1   2   -1.27    0.84
   8   2  -2   -0.80    0.70
  -8   2   2    1.01    0.53
   7  -2  -2    1.53    0.83
   7   2  -2   -0.32    0.59
  -7   2   2    0.00    0.34
   6  -2  -2    0.72    0.66
  -6   2   2    0.43    0.24
  -6   2   2   -0.94    1.02
   6   2  -2    0.74    0.55
   5  -2  -2    0.94    0.49
  -5  -2   2    0.04    0.44
  -5  -2   2    0.44    0.29
  -5   2   2    0.58    0.47
  -5   2   2    0.23    0.18
   5   2  -2    0.21    0.39
  -4  -2   2    5.41    0.52
   4  -2  -2    6.92    0.73
  -4   2   2    6.68    0.49
   4   2  -2    6.70    0.69
  -3  -2   2    1.73    0.32
  -3  -2   2    2.03    0.31
  -3  -2   2    1.81    0.14
  -3  -2   2    2.42    0.73
   3  -2  -2    1.61    0.34
   3   2  -2    1.91    0.56
  -3   2   2    1.87    0.26
  -2  -2   2   12.20    0.78
   2  -2  -2   13.79    0.86
   2  -2  -2   11.56    0.90
  -2  -2   2   12.85    0.85
  -2  -2   2    9.99    1.06
   2   2  -2   12.11    0.88
  -2   2   2   12.92    0.86
  -2   2   2   14.47    0.84
  -1  -2   2   23.10    1.47
  -1  -2   2   25.32    1.50
   1  -2  -2   23.89    1.45
  -1  -2   2   19.17    1.47
   1   2  -2   22.84    1.43
  -1   2   2   23.23    1.43
   1   2  -2   21.05    1.48
  -1   2   2   22.17    1.42
   0  -2  -2   58.64    3.92
   0  -2   2   69.29    3.99
   0   2  -2   68.01    3.99
   0   2  -2   58.72    3.92
   0   2   2   63.63    3.93
  -1  -2  -2    7.99    0.57
   1  -2   2    7.71    0.98
  -1   2  -2    7.99    0.54
   1   2   2    7.75    1.16
  -1   2  -2    8.96    0.71
   2  -2   2    0.91    0.15
  -2  -2  -2    0.90    0.23
  -2  -2  -2    0.58    0.19
  -2  -2  -2    1.23    0.50
   2  -2   2    1.23    0.70
  -2   2  -2    1.48    0.38
   2   2   2    1.17    0.63
  -3  -2  -2   11.24    0.95
   3  -2   2   14.53    1.52
  -3  -2  -2   12.91    0.80
  -3  -2  -2   11.03    1.36
  -3   2  -2   13.59    1.16
   3   2   2   13.53    1.38
  -3   2  -2   13.64    0.84
   4  -2   2   -0.73    0.89
  -4  -2  -2    0.79    0.37
  -4   2  -2    0.12    0.78
   4   2   2    0.49    0.72
  -4   2  -2    0.12    0.15
   5  -2   2    0.44    1.08
   5   2   2    0.75    0.76
  -5   2  -2   -1.44    1.76
   6  -2   2   -1.03    1.31
  -6  -2  -2   -0.04    0.28
   6   2   2    0.50    0.74
  -6   2  -2    0.10    0.25
   7   2   2   -0.64    0.78
  -8   3   2    0.69    0.44
   8   3  -2    0.16    0.64
   7   3  -2   -0.07    0.60
  -7   3   2    0.42    0.29
  -6   3   2    0.34    0.24
   6   3  -2    0.03    0.57
  -6   3   2   -1.34    1.08
  -5  -3   2    0.91    0.27
   5  -3  -2    0.82    0.63
  -5   3   2    0.44    0.58
   5   3  -2    0.76    0.45
  -5   3   2    1.10    0.22
  -4  -3   2   -0.17    1.56
  -4  -3   2    0.88    0.08
  -4  -3   2    0.59    0.20
   4  -3  -2    1.03    0.27
   4   3  -2    1.34    0.41
  -4   3   2    0.87    0.18
  -3  -3   2    2.48    0.85
  -3  -3   2    1.11    0.12
  -3  -3   2    1.55    0.28
   3  -3  -2    2.30    0.38
  -3   3   2    1.65    0.27
   3   3  -2    1.53    0.36
  -2  -3   2    2.09    0.59
  -2  -3   2    1.58    0.29
  -2   3   2    1.92    0.31
   1  -3  -2   11.45    0.78
  -1  -3   2   11.84    0.72
  -1  -3   2   12.73    0.96
  -1   3   2   11.89    0.78
  -1   3   2   11.37    0.81
   1   3  -2   10.83    0.79
   0  -3   2    6.68    0.62
   0  -3  -2    6.42    0.57
   0  -3  -2    7.30    0.51
   0  -3   2    8.96    0.73
   0   3   2    7.52    0.54
   0   3  -2    7.10    0.51
   0   3  -2    7.33    0.96
   1  -3   2    5.10    0.64
  -1  -3  -2    4.41    0.29
   1  -3   2    4.58    0.36
   1   3   2    4.84    0.85
  -1   3  -2    4.66    0.41
  -1   3  -2    4.91    0.57
  -2  -3  -2   21.26    1.31
   2  -3   2   20.72    1.57
  -2  -3  -2   21.12    1.38
   2  -3   2   22.01    1.35
   2  -3   2   17.60    2.38
  -2   3  -2   22.35    1.35
  -2   3  -2   22.27    1.53
   2   3   2   19.67    1.84
   3  -3   2    0.60    0.20
  -3  -3  -2    1.19    0.27
   3  -3   2    0.87    0.99
   3   3   2    0.32    0.80
  -3   3  -2    1.03    0.16
  -3   3  -2    0.79    0.54
  -4  -3  -2    4.10    0.39
  -4  -3  -2    4.27    0.28
   4  -3   2    5.68    1.21
  -4   3  -2    2.85    0.94
  -4   3  -2    4.16    0.40
   4   3   2    4.56    0.91
   5  -3   2    3.52    1.61
  -5  -3  -2    3.48    0.40
  -5   3  -2    4.45    2.02
   5   3   2    2.02    0.86
  -5   3  -2    3.22    0.37
  -6  -3  -2   -0.33    0.25
  -6   3  -2    0.08    0.22
   6   3   2   -1.09    0.77
   7   3   2   -0.09    0.89
  -7   3  -2   -0.31    0.43
   8   4  -2    2.17    0.64
  -8   4   2    1.27    0.43
   7   4  -2    0.09    0.61
  -7   4   2   -0.15    0.27
  -6  -4   2    0.23    0.43
  -6   4   2   -0.22    1.62
   6   4  -2    0.97    0.66
  -6   4   2    0.33    0.26
  -5  -4   2    3.51    0.48
  -5  -4   2    2.75    0.24
  -5   4   2    3.21    0.41
  -5   4   2    3.55    0.75
   4  -4  -2    0.50    0.27
  -4  -4   2    0.03    0.05
  -4  -4   2   -2.22    1.94
  -4  -4   2   -0.16    0.18
   4   4  -2   -0.37    0.47
  -4   4   2    0.16    0.19
  -3  -4   2    7.99    0.61
  -3  -4   2    7.79    0.51
   3  -4  -2    8.19    0.64
  -3  -4   2    8.54    1.33
   3   4  -2    8.55    0.80
  -3   4   2    8.45    0.61
  -2  -4   2    2.23    0.16
  -2  -4   2    2.30    0.33
  -2  -4   2    2.71    0.74
   2  -4  -2    2.54    0.32
   2   4  -2    1.78    0.35
  -2   4   2    1.93    0.27
   1  -4  -2    3.08    0.36
  -1  -4   2    3.46    0.23
  -1  -4   2    3.67    0.69
   1   4  -2    3.81    0.53
   0  -4  -2   24.28    1.47
   0  -4   2   22.71    1.65
   0   4  -2   22.82    1.47
   0   4   2   22.11    1.49
   0   4  -2   24.03    1.59
  -1  -4  -2    3.19    0.23
  -1  -4  -2    3.82    0.34
   1  -4   2    3.67    0.32
   1  -4   2    3.87    0.70
  -1   4  -2    3.38    0.63
  -1   4  -2    4.03    0.33
  -2  -4  -2    1.69    0.25
   2  -4   2    1.74    0.80
   2  -4   2    1.67    0.29
  -2  -4  -2    1.99    0.13
   2   4   2    2.21    0.99
  -2   4  -2    1.94    0.26
  -2   4  -2    1.29    0.49
  -3  -4  -2    6.28    0.59
  -3  -4  -2    5.99    0.46
  -3  -4  -2    5.16    0.36
   3  -4   2    5.63    0.50
  -3   4  -2    6.11    0.46
  -3   4  -2    5.51    1.07
   3   4   2   10.07    1.59
  -4  -4  -2    4.32    0.29
  -4   4  -2    5.12    0.60
  -4   4  -2    2.57    1.13
  -5  -4  -2    0.31    0.10
  -5  -4  -2    0.12    0.22
   5   4   2   -0.04    0.92
  -5   4  -2   -0.01    0.17
   6   4   2    1.32    0.97
   7   4   2   -1.08    0.83
  -8   5   2    1.45    0.83
  -7   5   2   -0.04    0.30
   7   5  -2   -0.87    0.70
  -6  -5   2   12.80    1.12
  -6   5   2   12.40    0.98
   6   5  -2   16.02    1.38
  -5  -5   2    9.27    0.62
  -5  -5   2   10.54    0.82
  -5   5   2    9.44    0.78
  -5   5   2    9.99    1.56
   5   5  -2   10.21    1.18
  -4  -5   2   -0.12    0.22
   4  -5  -2    0.27    0.28
  -4  -5   2    0.06    0.06
   4   5  -2    1.03    0.54
  -4   5   2    0.20    0.23
  -3  -5   2   20.44    1.30
  -3  -5   2   19.77    1.27
  -3  -5   2   19.82    1.20
  -3  -5   2   18.08    2.12
   3  -5  -2   19.81    1.29
  -3   5   2   18.99    1.29
   3   5  -2   17.57    1.41
  -2  -5   2   38.06    2.83
   2  -5  -2   42.86    2.48
   2  -5  -2   35.84    2.43
  -2  -5   2   40.94    2.47
  -2  -5   2   40.25    2.44
   2  -5  -2   37.05    2.49
  -2  -5   2   41.71    2.51
   1  -5  -2    2.22    0.28
   1  -5  -2    1.89    0.35
  -1  -5   2    1.60    0.83
  -1  -5   2    2.20    0.26
   1  -5  -2    2.38    0.32
   1  -5  -2    1.96    0.14
  -1  -5   2    1.86    0.16
  -1  -5   2    1.76    0.29
   0  -5   2    0.26    0.29
   0  -5  -2    0.68    0.20
   0  -5   2    0.39    0.13
   0  -5  -2    0.67    0.17
   0  -5  -2    0.75    0.20
   0  -5   2    2.03    0.81
   0   5  -2    0.66    0.49
   0   5   2    0.70    0.34
   1  -5   2   18.79    1.75
  -1  -5  -2   20.21    1.29
  -1  -5  -2   22.32    1.34
  -1  -5  -2   21.61    1.35
   1  -5   2   21.59    1.34
  -1   5  -2   18.86    1.57
  -1   5  -2   21.35    1.34
  -2  -5  -2   18.53    1.20
   2  -5   2   18.79    1.18
  -2  -5  -2   16.62    1.11
  -2  -5  -2   18.28    1.18
  -2   5  -2   18.46    1.17
  -2   5  -2   17.13    1.53
   3  -5   2    0.15    0.20
  -3  -5  -2    0.69    0.29
  -3  -5  -2    0.20    0.19
  -3   5  -2    0.42    0.19
  -3   5  -2    0.73    0.87
   3   5   2    1.04    1.21
  -4  -5  -2    6.28    0.85
  -4  -5  -2    7.04    0.56
   4  -5   2    6.39    0.73
  -4  -5  -2    6.07    0.42
  -4   5  -2    6.90    0.55
   4   5   2    7.56    1.40
  -5  -5  -2    8.19    0.56
  -5  -5  -2    9.26    0.70
   5   5   2   10.55    1.48
  -5   5  -2    8.45    0.65
  -6  -5  -2    0.02    0.26
  -6   5  -2    0.05    0.24
   6   5   2    0.44    0.99
   7   6  -2   -1.22    0.80
  -7   6   2   -0.51    0.38
  -6  -6   2   -0.61    0.55
   6  -6  -2    0.08    0.41
   6   6  -2   -0.65    0.73
  -6   6   2    0.16    0.32
  -5  -6   2    1.40    0.13
  -5  -6   2    1.32    0.40
  -5   6   2    1.73    0.37
   5   6  -2    0.63    0.68
  -4  -6   2    0.89    0.35
  -4  -6   2    0.71    0.10
   4  -6  -2    1.51    0.64
   4   6  -2    2.09    0.62
  -4   6   2    0.65    0.35
  -4   6   2    0.59    0.95
  -3  -6   2    0.10    0.29
  -3  -6   2    1.09    2.32
  -3  -6   2    0.65    0.27
  -3  -6   2    0.07    0.06
   3  -6  -2    0.27    0.24
   3  -6  -2    0.06    0.23
  -3   6   2   -0.28    0.34
   2  -6  -2    8.17    0.52
  -2  -6   2    9.06    0.70
   2  -6  -2    8.30    0.65
  -2  -6   2    7.91    0.53
  -2  -6   2    8.28    0.63
  -2  -6   2    9.17    1.56
   2  -6  -2    8.43    0.62
   1  -6  -2    1.96    0.36
   1  -6  -2    1.59    0.22
   1  -6  -2    1.82    0.32
   1  -6  -2    1.42    0.12
  -1  -6   2    1.38    0.31
  -1  -6   2    1.69    0.15
  -1  -6   2    1.75    1.21
  -1  -6   2    1.78    0.27
   0  -6   2    3.36    0.61
   0  -6   2    5.06    0.41
   0  -6   2    4.67    1.15
   0  -6  -2    4.95    0.45
   0  -6  -2    4.54    0.44
   0  -6  -2    4.58    0.30
   0  -6  -2    4.82    0.53
   0   6   2    4.98    0.80
   0   6  -2    4.75    0.87
   1  -6   2    0.63    0.18
  -1  -6  -2    0.40    0.20
  -1  -6  -2    0.69    0.08
  -1  -6  -2    0.63    0.22
   1  -6   2   -0.39    1.25
  -1   6  -2    0.71    0.77
   1   6   2    0.77    0.61
  -2  -6  -2    0.46    0.24
   2  -6   2   -0.12    0.18
  -2  -6  -2    0.37    0.20
  -2   6  -2    0.28    0.24
  -2   6  -2    0.92    1.26
  -3  -6  -2    0.37    0.06
  -3  -6  -2    0.64    0.30
  -3  -6  -2    0.51    0.23
   3  -6   2    0.30    0.25
  -3   6  -2    0.68    0.25
  -3   6  -2    1.09    1.25
   4  -6   2   -0.32    0.46
  -4  -6  -2    0.29    0.44
  -4  -6  -2    0.11    0.23
  -4  -6  -2    0.16    0.05
  -4   6  -2   -0.13    0.22
   4   6   2   -2.83    1.60
  -5  -6  -2    0.19    0.09
  -5  -6  -2    0.28    0.26
  -5   6  -2    0.14    0.24
   5   6   2   -0.50    1.58
  -6  -6  -2    0.67    0.32
   6   6   2   -0.68    1.29
  -6   6  -2    0.33    0.30
  -6  -7   2    1.31    1.01
  -6   7   2    0.58    0.65
  -5  -7   2    1.36    0.44
   5  -7  -2    1.88    0.40
  -5   7   2    1.28    0.47
  -4  -7   2    1.98    0.21
   4  -7  -2    2.45    0.37
  -4  -7   2    2.10    0.41
   4  -7  -2    2.60    0.46
  -4   7   2    2.63    0.53
  -3  -7   2    0.71    0.34
   3  -7  -2    1.08    0.31
  -3  -7   2    1.72    3.77
   3  -7  -2    1.01    0.32
  -3  -7   2   -0.11    0.44
  -3   7   2    0.70    0.99
  -2  -7   2    2.69    0.42
   2  -7  -2    2.16    0.30
  -2  -7   2    2.18    0.34
  -2  -7   2   -1.64    1.95
  -2  -7   2    2.33    0.20
   2  -7  -2    2.56    0.47
   1  -7  -2    1.74    0.14
  -1  -7   2    1.54    0.26
  -1  -7   2    1.59    0.41
  -1  -7   2    1.43    1.59
   1  -7  -2    1.54    0.27
   1  -7  -2    1.70    0.31
  -1  -7   2    1.69    0.19
   0  -7   2   -0.30    0.42
   0  -7  -2    0.37    0.05
   0  -7   2    0.13    1.62
   0  -7  -2    0.47    0.30
   0  -7   2    0.58    0.20
   0  -7  -2    0.84    0.35
   0   7  -2    1.11    1.47
  -1  -7  -2    5.23    0.53
  -1  -7  -2    5.13    0.33
  -1  -7  -2    5.41    0.55
   1  -7   2    5.35    0.50
   1  -7   2    4.24    2.02
   1   7   2    5.05    1.15
  -1   7  -2    4.04    1.44
  -2  -7  -2    0.70    0.29
   2  -7   2    0.17    0.23
  -2  -7  -2    0.02    0.05
  -2  -7  -2    0.28    0.25
   2   7   2   -1.11    1.36
  -2   7  -2    0.43    0.34
  -2   7  -2   -1.51    1.66
  -3  -7  -2    1.41    0.37
  -3  -7  -2    2.01    0.15
  -3  -7  -2    1.75    0.30
   3  -7   2    1.94    0.33
  -3   7  -2    1.29    0.32
   4  -7   2   -0.19    0.49
  -4  -7  -2    0.37    0.07
  -4  -7  -2    0.36    0.27
  -4   7  -2    0.12    0.27
  -5  -7  -2    0.57    0.10
  -5  -7  -2    0.46    0.28
  -5   7  -2    0.79    0.31
  -6  -8   2   -0.76    0.81
  -6   8   2    3.13    1.57
  -5  -8   2   -0.32    0.50
  -5   8   2    0.31    0.71
   4  -8  -2   -0.07    0.39
  -4  -8   2   -0.02    0.09
  -4  -8   2   -0.35    0.43
   4  -8  -2   -0.18    0.39
  -3  -8   2    0.21    0.10
   3  -8  -2    0.78    0.35
  -3  -8   2   -0.36    0.40
   3  -8  -2    0.84    0.37
  -2  -8   2    1.47    0.15
  -2  -8   2    2.36    0.39
  -2  -8   2    9.91    5.07
  -2  -8   2    1.30    0.44
   2  -8  -2    1.74    0.35
   2  -8  -2    1.81    0.38
  -2   8   2    3.39    1.48
  -1  -8   2    0.76    0.50
   1  -8  -2    0.01    0.30
   1  -8  -2    0.62    0.36
  -1  -8   2    3.38    2.69
  -1   8   2   -0.37    1.58
   0  -8  -2    0.34    0.52
   0  -8   2    0.39    2.92
   0  -8  -2    0.51    0.43
   0  -8  -2    0.15    0.06
   0  -8   2    0.31    0.23
   0  -8  -2    0.02    0.29
   0  -8   2    0.89    0.58
   1  -8   2    0.85    0.26
  -1  -8  -2    0.51    0.34
  -1  -8  -2    1.13    0.34
   2  -8   2    0.96    0.28
  -2  -8  -2    1.12    0.31
  -2  -8  -2    0.75    0.35
   3  -8   2    0.00    0.29
  -3  -8  -2    0.14    0.28
  -3  -8  -2   -0.08    0.39
  -3  -8  -2    0.12    0.06
  -3   8  -2   -0.65    0.46
  -4  -8  -2    0.10    0.13
  -4  -8  -2   -0.16    0.32
   4  -8   2    0.01    0.59
  -4   8  -2    0.28    0.44
  -5  -8  -2    0.35    0.50
  -5  -8  -2    0.01    0.13
  -5  -9   2    0.57    0.67
  -4  -9   2    0.62    0.52
   3  -9  -2    0.52    0.41
  -3  -9   2    0.84    0.51
  -2  -9   2    0.11    0.54
   2  -9  -2    0.49    0.47
   2  -9  -2   -0.09    0.41
  -2  -9   2   -0.35    0.44
  -1  -9   2    0.73    0.32
  -1  -9   2    0.19    0.62
   1  -9  -2    0.13    0.49
   1  -9  -2    0.70    0.41
   0  -9  -2   -1.06    0.76
   0  -9  -2    0.18    0.09
   0  -9  -2    0.36    0.40
   0  -9   2    0.51    0.32
  -1  -9  -2   -0.03    0.48
   1  -9   2    0.58    0.27
  -1  -9  -2    0.45    0.51
  -1  -9  -2    0.22    0.08
  -2  -9  -2    0.37    0.08
  -2  -9  -2    0.76    0.42
   2  -9   2   -0.06    0.29
  -2  -9  -2    0.43    0.41
  -3  -9  -2    0.55    0.39
   3  -9   2    0.46    0.40
  -4  -9  -2   -0.66    0.46
  -4  -9  -2   -0.11    0.09
  -4 -10   2   -0.85    0.72
  -1 -10   2    1.41    0.50
   0 -10   2    3.76    0.59
   0 -10  -2    2.54    0.61
   0 -10  -2    3.18    0.31
  -1 -10  -2    1.32    0.65
  -1 -10  -2    0.47    0.11
  -2 -10  -2   -0.27    0.59
   2 -10   2    0.10    0.31
  -2 -10  -2   -0.71    0.70
  -2 -10  -2    0.25    0.10
   3 -10   2   -0.31    0.47
  -3 -10  -2    0.32    0.12
   0 -11   2   -0.74    0.52
   1 -11   2    0.47    0.46
   7   0  -3   -0.18    0.62
  -7   0   3   -0.27    0.53
  -6   0   3    0.63    0.71
   5   0  -3   -0.47    0.40
  -5   0   3    0.46    0.28
  -5   0   3    0.42    0.51
   4   0  -3   -0.64    0.29
  -4   0   3   -0.08    0.19
  -3   0   3    0.19    0.41
   3   0  -3   -0.06    0.22
  -2   0   3    0.05    0.19
  -2   0   3    0.25    0.27
  -1   0   3    0.23    0.18
   1   0  -3    0.06    0.13
   0   0   3    0.45    0.58
   0   0  -3   -0.30    0.40
   0   0   3    0.21    0.19
  -1   0  -3    0.65    0.42
   1   0   3    0.60    0.63
  -2   0  -3    0.39    0.52
  -2   0  -3    0.16    0.12
   2   0   3    0.69    0.67
  -3   0  -3   -0.59    0.76
  -3   0  -3    0.07    0.14
   3   0   3    1.31    0.75
  -4   0  -3   -2.06    1.48
  -4   0  -3    0.05    0.20
   4   0   3    0.07    0.84
  -5   0  -3    0.15    0.31
   5   0   3    0.82    1.07
   6   0   3    2.52    1.04
   8  -1  -3   -0.42    0.80
   8   1  -3   -0.57    1.10
  -8   1   3    0.79    0.81
   7  -1  -3    0.61    0.62
  -7  -1   3    1.64    0.90
   7   1  -3    0.13    0.60
  -7   1   3    0.43    0.42
  -6  -1   3    0.79    0.50
   6  -1  -3   -0.71    0.74
   6   1  -3   -0.07    0.59
  -5  -1   3    3.70    0.44
   5  -1  -3    3.82    0.68
  -5   1   3    3.19    0.44
   5   1  -3    3.99    0.66
  -4  -1   3    0.85    0.27
  -4  -1   3    0.57    0.41
   4  -1  -3    0.58    0.31
  -4   1   3    1.10    0.22
   4   1  -3    0.35    0.32
  -4   1   3   -0.08    0.59
  -3  -1   3    3.92    0.58
  -3  -1   3    4.05    0.70
  -2  -1   3   13.88    0.94
  -2  -1   3   12.76    0.96
   2  -1  -3   13.28    0.89
  -2  -1   3   12.50    0.99
  -2   1   3   13.63    0.91
   1  -1  -3   34.41    2.22
  -1  -1   3   36.77    2.50
  -1  -1   3   34.79    2.29
   1   1  -3   38.27    2.47
  -1   1   3   34.48    2.24
  -1   1   3   35.58    2.23
   0  -1  -3   28.46    1.91
   0  -1   3   32.88    2.29
   0   1   3   31.69    2.22
   0   1  -3   30.94    2.05
   0   1   3   30.25    1.93
  -1  -1  -3    5.30    0.38
  -1  -1  -3    5.09    0.83
   1   1   3    5.00    0.46
  -1   1  -3    4.12    0.37
  -1   1  -3    5.35    0.72
  -2  -1  -3   10.69    1.22
   2  -1   3   13.42    1.43
  -2  -1  -3   11.48    0.77
  -2  -1  -3   11.13    0.70
   2   1   3   10.89    0.86
  -2   1  -3   10.82    1.10
   2   1   3   12.60    1.35
  -2   1  -3   11.65    0.75
   3  -1   3    4.44    0.90
  -3  -1  -3    3.09    0.99
  -3  -1  -3    3.80    0.40
  -3   1  -3    4.17    0.35
  -3   1  -3    2.06    0.80
   3   1   3    2.89    0.83
  -4  -1  -3    4.54    1.84
   4  -1   3    1.21    0.96
  -4  -1  -3    1.77    0.30
  -4   1  -3    2.66    0.34
  -4   1  -3    0.54    1.48
   5  -1   3    0.51    1.14
  -5  -1  -3    0.89    0.23
  -5   1  -3    0.85    0.24
   5   1   3    0.60    0.87
   6   1   3   -1.34    0.90
  -6   1  -3   -0.30    0.44
   8   2  -3    0.05    1.04
  -8   2   3   -0.29    0.54
   7  -2  -3    2.26    0.78
  -7   2   3    3.19    0.46
   7   2  -3    2.38    0.62
  -6   2   3    0.53    0.27
   6   2  -3    0.48    0.52
  -5  -2   3    4.99    0.88
   5  -2  -3    8.07    0.82
  -5   2   3    6.95    0.58
   5   2  -3    6.92    0.77
  -4  -2   3   -0.06    0.39
   4  -2  -3   -0.31    0.35
  -4  -2   3    0.23    0.31
  -4   2   3   -0.60    0.64
  -4   2   3    0.26    0.19
   4   2  -3    0.38    0.35
   3  -2  -3    1.21    0.32
  -3  -2   3    1.56    0.37
  -3  -2   3    1.51    0.31
  -3  -2   3    1.43    0.79
  -3   2   3    1.54    0.41
  -3   2   3    1.41    0.23
   3   2  -3    1.60    0.30
  -2  -2   3   18.46    1.44
  -2  -2   3   18.52    1.38
  -2  -2   3   23.52    2.05
   2  -2  -3   20.35    1.34
  -2  -2   3   21.41    1.47
  -2   2   3   22.60    1.35
   2   2  -3   20.89    1.35
   1  -2  -3    6.81    0.58
  -1  -2   3    7.22    0.73
  -1  -2   3    4.87    1.08
  -1   2   3    7.57    0.61
   1   2  -3    8.02    0.54
   1   2  -3    8.71    0.82
  -1   2   3    8.06    0.56
   0  -2   3   10.00    1.58
   0  -2   3    9.48    0.83
   0  -2  -3    7.90    0.64
   0  -2  -3    9.73    0.62
   0   2  -3    9.47    0.62
   0   2   3    7.86    1.30
   0   2  -3    9.08    0.86
   0   2   3    8.62    0.66
  -1  -2  -3   26.97    1.83
  -1   2  -3   30.00    1.82
   1   2   3   28.74    1.85
  -1   2  -3   29.32    2.01
   1   2   3   30.75    2.23
  -2  -2  -3    3.43    0.40
  -2  -2  -3    3.86    0.25
   2  -2   3    6.54    0.98
  -2   2  -3    3.39    0.63
   2   2   3    4.12    0.88
   2   2   3    4.10    0.46
  -2   2  -3    3.76    0.33
   3  -2   3    1.30    1.01
  -3  -2  -3    0.91    0.10
  -3  -2  -3    0.86    0.30
   3   2   3    1.89    0.88
  -3   2  -3    0.89    0.17
  -3   2  -3    0.61    0.75
   4  -2   3   12.65    2.46
   4   2   3    8.47    1.52
  -4   2  -3   10.19    0.73
  -5  -2  -3    0.11    0.21
   5  -2   3   -0.18    1.33
   5   2   3    0.90    0.82
  -5   2  -3   -0.01    0.20
  -6  -2  -3    1.99    0.37
   6   2   3    3.18    1.00
   8   3  -3   -0.87    0.57
  -8   3   3   -0.69    0.43
   7   3  -3    0.95    0.56
  -7   3   3    0.76    0.35
  -6  -3   3    7.70    1.29
  -6   3   3    5.34    0.56
   6   3  -3    5.75    0.85
  -6   3   3    3.22    1.22
   5  -3  -3    1.64    0.76
  -5  -3   3    4.50    0.69
   5   3  -3    3.27    0.54
  -5   3   3    3.45    0.44
  -4  -3   3    0.94    1.68
  -4  -3   3    2.87    0.49
   4   3  -3    3.90    0.61
  -4   3   3    2.48    0.40
  -3  -3   3   20.40    1.41
  -3  -3   3   21.39    1.73
  -3   3   3   21.14    1.38
   3   3  -3   22.54    1.41
  -3   3   3   20.05    1.48
  -2  -3   3    9.91    1.03
  -2  -3   3    9.83    0.78
  -2   3   3    9.84    0.72
  -2   3   3    9.22    0.74
   2   3  -3    9.94    0.71
  -1  -3   3    0.56    0.54
  -1  -3   3   -0.23    0.34
   1  -3  -3    0.10    0.15
   1   3  -3    0.53    0.41
   1   3  -3    0.23    0.16
  -1   3   3    0.17    0.23
   0  -3  -3    0.02    0.13
   0  -3   3    0.55    0.57
   0   3   3   -0.92    0.77
   0   3  -3   -0.02    0.39
   0   3   3    0.00    0.25
   0   3  -3    0.08    0.14
  -1  -3  -3    6.02    0.36
   1  -3   3    5.78    0.44
   1  -3   3    5.75    0.90
  -1  -3  -3    5.64    0.48
   1  -3   3    5.67    1.25
  -1   3  -3    5.77    0.43
  -1   3  -3    5.13    0.81
   1   3   3    5.46    0.57
   1   3   3    5.95    0.95
  -2  -3  -3    8.03    0.52
   2  -3   3    8.54    0.61
   2  -3   3    6.96    1.27
   2  -3   3    9.37    1.38
  -2  -3  -3    8.35    0.67
   2   3   3    9.76    1.49
  -2   3  -3    7.53    1.08
   2   3   3    8.15    0.78
  -2   3  -3    8.90    0.59
   3  -3   3    5.15    1.54
   3  -3   3    1.53    1.38
  -3  -3  -3    1.81    0.14
  -3  -3  -3    1.75    0.38
   3   3   3    3.29    1.00
  -3   3  -3    1.47    0.87
  -3   3  -3    2.25    0.29
  -4  -3  -3    4.95    0.44
   4  -3   3    3.23    1.92
  -4  -3  -3    4.15    0.31
  -4   3  -3    4.63    0.45
   4   3   3    4.43    1.01
   4   3   3    5.13    1.33
  -4   3  -3    2.88    1.69
  -5  -3  -3    2.32    0.38
  -5   3  -3    2.38    0.38
   5   3   3    3.22    0.97
  -6  -3  -3   -0.09    0.30
  -6   3  -3   -0.41    0.26
   6   3   3    0.78    0.93
   8   4  -3    1.84    0.61
  -8   4   3    1.08    0.43
   7   4  -3    0.54    0.55
  -7   4   3   -0.16    0.34
  -6  -4   3   -0.40    0.65
   6   4  -3   -0.23    0.59
  -6   4   3   -0.37    0.26
  -5  -4   3    4.25    0.68
  -5   4   3    3.99    0.71
  -4  -4   3   -0.78    2.15
  -4  -4   3    0.15    0.28
   4   4  -3    0.02    0.40
  -4   4   3    0.41    0.24
  -3  -4   3    3.19    0.49
  -3  -4   3    3.14    1.34
  -3   4   3    3.58    0.46
   3   4  -3    3.02    0.54
   2  -4  -3    3.08    0.47
  -2  -4   3    3.27    0.51
  -2  -4   3    5.43    0.97
  -2   4   3    3.38    0.50
   2   4  -3    4.22    0.46
  -2   4   3    4.15    0.55
  -1  -4   3    0.21    0.29
  -1  -4   3    0.28    0.73
   1  -4  -3    0.31    0.14
  -1   4   3    0.38    0.29
  -1   4   3    0.04    0.29
   1   4  -3    0.27    0.19
   1   4  -3    0.59    0.51
   0  -4  -3    0.58    0.06
   0  -4   3    1.02    0.75
   0  -4  -3    0.74    0.17
   0   4   3    0.10    1.02
   0   4   3    0.53    0.33
   0   4  -3    0.70    0.17
   0   4  -3    1.19    0.49
   1  -4   3   11.19    0.72
  -1  -4  -3   10.86    0.65
   1  -4   3    8.88    1.26
  -1  -4  -3   10.02    0.75
   1   4   3   10.56    0.87
  -1   4  -3   10.59    1.12
  -1   4  -3   11.03    0.72
   1   4   3    7.87    1.30
   2  -4   3    1.43    0.23
  -2  -4  -3    1.69    0.28
   2  -4   3    1.03    1.24
  -2  -4  -3    1.53    0.11
  -2   4  -3    1.23    0.73
  -2   4  -3    1.36    0.20
   2   4   3    1.68    0.55
   2   4   3    1.58    1.09
  -3  -4  -3    2.18    0.14
  -3  -4  -3    1.77    0.35
   3  -4   3    1.42    0.27
  -3  -4  -3    1.69    0.31
  -3   4  -3    1.42    0.22
   3   4   3    1.69    1.13
  -3   4  -3    0.98    1.05
   3   4   3    2.31    0.87
  -4  -4  -3   -0.08    0.06
  -4  -4  -3   -0.11    0.21
   4   4   3   -0.43    1.06
  -4   4  -3   -0.05    0.19
  -5  -4  -3    0.25    0.23
  -5   4  -3   -0.05    0.18
   5   4   3   -0.57    1.08
  -6  -4  -3   -0.02    0.31
   6   4   3   -1.34    0.95
  -6   4  -3    0.12    0.25
  -8   5   3    1.08    0.57
   7   5  -3    1.35    0.69
  -7   5   3   -0.10    0.36
  -6  -5   3   -0.15    0.64
   6   5  -3    1.22    0.63
  -6   5   3    1.05    0.37
  -5  -5   3    1.04    0.45
   5   5  -3    2.19    0.55
  -5   5   3    1.51    0.33
  -5   5   3    0.72    1.12
  -4  -5   3    2.64    2.92
  -4  -5   3    0.59    0.36
   4   5  -3    1.03    0.47
  -4   5   3    1.19    0.31
  -3  -5   3   -1.49    1.77
   3  -5  -3    0.02    0.27
  -3  -5   3   -0.12    0.29
  -3   5   3   -0.02    0.30
   3   5  -3   -0.14    0.35
   2  -5  -3    2.92    0.48
  -2  -5   3    2.54    1.19
   2  -5  -3    2.66    0.36
  -2  -5   3    3.14    0.52
   2   5  -3    3.07    0.51
  -2   5   3    2.83    0.43
   1  -5  -3    4.57    0.40
  -1  -5   3    3.84    0.59
  -1  -5   3    5.33    1.16
  -1  -5   3    4.49    0.38
   1  -5  -3    3.86    0.45
   1  -5  -3    3.96    0.53
  -1   5   3    4.42    0.66
   1   5  -3    3.04    0.80
   1   5  -3    4.42    0.48
   0  -5  -3    3.21    0.38
   0  -5   3    4.42    1.14
   0  -5  -3    3.23    0.36
   0  -5   3    3.54    0.35
   0   5   3    3.83    0.54
   0   5  -3    3.83    0.39
   0   5  -3    3.32    0.76
  -1  -5  -3    2.45    0.33
  -1  -5  -3    2.64    0.40
   1  -5   3    2.43    0.33
   1  -5   3    3.10    1.29
  -1  -5  -3    3.03    0.18
   1   5   3    1.20    1.38
  -1   5  -3    1.47    0.81
   1   5   3    2.78    0.59
  -1   5  -3    2.80    0.37
  -2  -5  -3    0.53    0.06
   2  -5   3    0.01    2.29
   2  -5   3    0.55    0.21
  -2  -5  -3    0.73    0.19
  -2  -5  -3    0.70    0.27
  -2   5  -3    0.67    0.91
   2   5   3   -1.80    1.37
   2   5   3    0.39    0.77
  -2   5  -3    0.68    0.19
  -3  -5  -3    1.03    0.35
  -3  -5  -3    0.61    0.22
  -3  -5  -3    0.79    0.09
   3  -5   3    1.12    0.30
  -3   5  -3   -2.16    1.31
   3   5   3   -0.85    1.43
  -3   5  -3    0.73    0.20
   3   5   3    2.44    1.22
  -4  -5  -3    1.31    0.30
  -4  -5  -3    1.48    0.14
  -4   5  -3    1.00    0.24
   4   5   3   -0.19    1.41
  -5  -5  -3    0.16    0.25
  -5   5  -3    0.04    0.19
   5   5   3   -0.62    1.39
  -6   5  -3    0.71    0.29
   7  -6  -3   -0.26    0.62
  -7   6   3    0.00    0.40
   7   6  -3    0.69    0.70
  -6  -6   3    0.15    0.69
   6  -6  -3    0.15    0.35
  -6   6   3   -0.53    0.36
   6   6  -3    0.12    0.62
   5  -6  -3    0.20    0.29
  -5  -6   3    0.85    0.49
   5   6  -3    0.13    0.58
  -5   6   3   -0.03    0.36
  -4  -6   3    0.87    0.38
   4  -6  -3    0.99    0.28
  -4  -6   3   -5.54    4.11
  -4   6   3    1.36    0.42
   4   6  -3    0.26    0.51
   3  -6  -3    0.08    0.32
  -3  -6   3    0.87    0.37
  -3  -6   3    3.80    2.54
  -3  -6   3    0.33    0.26
   3  -6  -3    0.27    0.22
   3   6  -3    0.12    0.41
  -3   6   3    0.90    0.43
   2  -6  -3    0.27    0.05
   2  -6  -3    0.11    0.19
  -2  -6   3   -1.42    1.75
  -2  -6   3    0.20    0.33
   2  -6  -3    0.48    0.30
  -2  -6   3    0.03    0.18
   1  -6  -3    1.43    0.11
  -1  -6   3    0.47    0.40
  -1  -6   3    1.15    0.20
   1  -6  -3    1.05    0.33
   1  -6  -3    1.39    0.36
  -1  -6   3    1.32    2.19
   1  -6  -3    1.01    0.22
   0  -6   3    0.54    0.17
   0  -6  -3    0.57    0.22
   0  -6  -3    0.77    0.23
   0  -6  -3    0.81    0.08
   0   6  -3   -0.04    1.08
   0   6   3    0.49    0.79
   0   6  -3    0.29    0.25
   1  -6   3    0.43    0.21
  -1  -6  -3    0.39    0.23
  -1  -6  -3    0.24    0.24
   1  -6   3   -0.27    1.97
  -1   6  -3   -1.17    1.33
  -1   6  -3    0.46    0.23
   1   6   3   -0.21    0.86
   2  -6   3    1.45    3.73
  -2  -6  -3    0.35    0.23
   2  -6   3    0.10    0.22
  -2  -6  -3   -0.24    0.28
  -2   6  -3    0.09    0.24
  -2   6  -3   -1.77    1.62
   2   6   3    2.15    1.21
   3  -6   3    0.21    0.30
  -3  -6  -3    0.75    0.35
  -3  -6  -3    0.40    0.23
  -3   6  -3    0.98    0.25
   3   6   3   -1.05    1.87
  -4  -6  -3    0.11    0.23
  -4  -6  -3    0.13    0.07
  -4   6  -3    0.10    0.22
   4   6   3   -2.88    1.88
  -5  -6  -3   -0.07    0.26
  -5  -6  -3    0.17    0.14
   5   6   3    1.31    1.77
  -5   6  -3   -0.01    0.23
  -6  -7   3   -0.82    0.78
   6  -7  -3    0.41    0.38
  -6   7   3   -0.55    0.47
   6   7  -3   -0.89    0.71
   5  -7  -3    1.35    0.35
  -5  -7   3    0.55    0.53
  -5   7   3    1.51    0.52
  -4  -7   3    0.38    0.45
   4  -7  -3   -0.05    0.25
  -4   7   3    0.89    0.55
   3  -7  -3    2.13    0.31
  -3  -7   3    2.16    0.39
  -3  -7   3    0.69    3.80
  -3  -7   3    1.60    0.48
   3  -7  -3    2.08    0.43
   2  -7  -3    3.69    0.47
  -2  -7   3    4.43    0.75
   2  -7  -3    4.06    0.66
  -2  -7   3    4.12    2.20
   2  -7  -3    3.36    0.26
  -2  -7   3    4.01    0.53
  -1  -7   3    2.75    1.97
   1  -7  -3    4.59    0.61
   0  -7  -3    6.95    0.68
   0  -7   3    4.31    2.13
   0  -7  -3    7.52    0.64
   0  -7   3    6.64    0.61
   0  -7  -3    7.38    0.45
   0   7   3    8.92    1.41
   1  -7   3    3.08    0.42
  -1  -7  -3    2.79    0.47
  -1  -7  -3    2.95    0.40
  -1  -7  -3    2.58    0.20
   1  -7   3    1.45    3.21
  -1   7  -3    1.59    2.15
   1   7   3    5.78    1.48
  -1   7  -3    3.17    0.56
  -2  -7  -3    1.93    0.33
  -2  -7  -3    1.80    0.14
   2  -7   3    1.60    0.32
  -2  -7  -3    1.48    0.37
  -2   7  -3    1.67    0.33
  -3  -7  -3    0.12    0.39
  -3  -7  -3   -0.12    0.26
   3  -7   3   -0.15    0.32
  -3  -7  -3    0.01    0.05
  -3   7  -3   -0.31    0.28
  -4  -7  -3    0.77    0.27
  -5  -7  -3    0.18    0.32
  -5   7  -3    0.39    0.34
  -6  -8   3    1.72    0.99
  -5  -8   3    1.08    0.63
   5  -8  -3    0.40    0.43
   4  -8  -3    0.33    0.34
  -4  -8   3    0.32    0.52
   3  -8  -3    2.20    0.39
  -3  -8   3    2.42    0.54
  -3  -8   3    3.47    0.53
   2  -8  -3    0.80    0.31
  -2  -8   3    1.12    0.33
  -2  -8   3    0.70    0.54
   1  -8  -3    7.33    0.46
   1  -8  -3    7.22    0.67
  -1  -8   3    6.71    0.63
   0  -8  -3    4.39    0.84
   0  -8   3    6.60    0.57
   0  -8  -3    5.98    0.64
   0  -8  -3    5.83    0.38
  -1  -8  -3    0.71    0.34
   1  -8   3    0.35    0.26
  -1  -8  -3    0.52    0.38
  -1  -8  -3    0.41    0.07
  -2  -8  -3    2.53    0.18
  -2  -8  -3    2.78    0.44
  -2  -8  -3    2.39    0.41
   2  -8   3    2.14    0.35
  -2   8  -3    1.81    0.49
  -3  -8  -3    1.50    0.46
  -3  -8  -3    1.24    0.14
  -3   8  -3    0.62    0.42
  -4  -8  -3    0.30    0.10
  -4  -8  -3    0.26    0.53
  -4   8  -3    0.12    0.52
  -5  -9   3   -0.12    0.79
  -4  -9   3    0.77    1.08
   4  -9  -3   -0.02    0.56
  -3  -9   3    2.61    0.66
   3  -9  -3    4.57    0.71
   2  -9  -3   -0.09    0.36
  -2  -9   3    0.21    0.79
  -2  -9   3   -0.69    0.48
   1  -9  -3    0.80    0.11
  -1  -9   3    0.57    0.31
   1  -9  -3   -0.10    0.61
   0  -9   3    0.72    0.28
   0  -9  -3    0.78    0.38
   0  -9  -3    1.03    0.11
  -1  -9  -3    0.48    0.36
  -1  -9  -3    0.19    0.09
  -1  -9  -3    0.53    0.70
   1  -9   3    0.26    0.27
  -2  -9  -3    0.79    0.48
  -3  -9  -3    0.71    0.45
  -3  -9  -3    0.40    0.08
  -3  -9  -3    0.17    0.58
   3  -9   3   -0.99    0.54
   2 -10  -3   -0.11    0.54
  -2 -10   3   -0.05    0.59
  -1 -10   3    0.54    0.37
   1 -10  -3    0.71    0.48
   0 -10   3   -0.14    0.30
   0 -10  -3    0.72    0.45
   0 -10  -3    0.01    0.15
  -1 -10  -3   -0.19    0.47
  -1 -10  -3    0.44    0.12
   1 -10   3    0.57    0.32
  -2 -10  -3   -0.07    0.62
  -2 -10  -3    0.18    0.15
   2 -10   3    1.23    0.40
   8   0  -4   -0.43    0.63
   7   0  -4    5.33    0.88
  -7   0   4    5.50    0.84
   6   0  -4   -0.18    0.47
  -6   0   4    0.34    0.43
   5   0  -4    8.19    0.79
   4   0  -4    0.70    0.31
  -4   0   4    1.45    0.72
  -4   0   4    0.74    0.28
  -3   0   4    2.66    0.48
  -3   0   4    2.87    0.56
   3   0  -4    3.05    0.41
  -2   0   4   35.62    2.41
   2   0  -4   41.20    2.36
  -2   0   4   35.76    2.48
  -1   0   4   66.94    4.38
   1   0  -4   71.94    4.36
  -1   0   4   72.55    4.60
   0   0   4   76.88    4.60
   0   0  -4   64.59    4.53
   0   0   4   68.37    4.34
   0   0  -4   69.73    4.32
  -1   0  -4   17.70    1.17
   1   0   4   19.50    1.76
  -1   0  -4   18.29    1.63
  -2   0  -4    0.57    0.90
   2   0   4    1.11    0.86
  -3   0  -4    3.72    0.43
   3   0   4    5.27    1.07
  -3   0  -4    2.72    1.54
  -4   0  -4    2.28    0.34
   4   0   4    2.20    1.11
   5   0   4    0.17    1.10
   6   0   4    7.13    1.68
  -8   1   4   -1.30    0.86
   8   1  -4   -0.15    0.57
  -7  -1   4    1.12    1.30
   7  -1  -4    1.22    0.60
   7   1  -4    0.18    0.52
  -7   1   4   -0.31    0.47
  -6  -1   4    1.34    0.66
   6  -1  -4    0.45    0.49
  -6   1   4    1.38    0.76
   6   1  -4    1.42    0.47
  -5  -1   4    1.91    0.50
   5  -1  -4    2.13    0.43
  -5   1   4    2.40    0.36
   5   1  -4    1.67    0.44
  -4  -1   4    0.21    0.34
   4  -1  -4   -0.65    0.31
   4   1  -4   -0.25    0.30
  -4   1   4    1.11    0.71
  -4   1   4   -0.03    0.24
  -3  -1   4    0.28    0.96
  -3  -1   4    0.14    0.32
   3  -1  -4    0.33    0.25
  -3  -1   4    0.21    0.58
   3   1  -4   -0.35    0.23
  -3   1   4    0.26    0.43
  -3   1   4    0.30    0.25
   2  -1  -4    6.51    0.55
  -2  -1   4    6.75    0.88
  -2  -1   4    7.95    0.75
  -2  -1   4    9.31    1.38
  -2   1   4    6.53    0.65
  -2   1   4    7.15    0.62
   2   1  -4    6.80    0.54
  -1  -1   4    6.09    0.61
  -1  -1   4    4.03    0.77
  -1  -1   4    3.98    0.93
  -1   1   4    5.11    0.53
  -1   1   4    5.55    0.85
   1   1  -4    5.60    0.42
   1   1  -4    3.83    0.73
   0  -1   4    0.29    0.85
   0  -1  -4    1.74    0.29
   0   1   4    1.42    0.78
   0   1  -4    1.84    0.25
   0   1   4    1.59    0.33
   0   1  -4    1.00    0.65
   1  -1   4    1.67    0.90
  -1  -1  -4    0.96    0.18
  -1   1  -4    0.70    0.66
   1   1   4    1.01    0.83
   1   1   4    1.27    0.40
  -2  -1  -4    0.89    1.03
   2  -1   4    1.69    1.00
   2   1   4    0.58    0.87
  -2   1  -4   -0.01    0.81
  -3  -1  -4    0.31    0.25
   3  -1   4   -1.22    1.03
  -3  -1  -4    0.89    1.61
  -3   1  -4   -0.95    1.35
   4  -1   4   -0.93    1.26
   4   1   4    0.09    0.95
  -4   1  -4   -0.02    0.22
   5  -1   4   -2.25    1.40
  -5  -1  -4    0.10    0.23
   5   1   4   -0.23    0.94
  -5   1  -4    0.12    0.32
   6   1   4    2.97    1.29
   8   2  -4   -0.47    0.53
  -8   2   4   -0.39    0.67
   7   2  -4    0.62    0.50
  -7   2   4   -0.15    0.47
   6  -2  -4    0.06    0.56
  -6   2   4    0.09    0.31
   6   2  -4   -0.07    0.45
  -5  -2   4    1.06    0.72
   5  -2  -4    0.58    0.47
   5   2  -4    0.42    0.39
  -5   2   4    0.46    0.26
   4  -2  -4    9.67    0.87
  -4   2   4    7.84    1.17
   4   2  -4   11.62    0.81
  -4   2   4    9.50    0.77
  -3  -2   4    2.11    1.28
   3  -2  -4    0.67    0.30
  -3  -2   4    1.92    1.09
  -3   2   4    0.51    0.49
  -3   2   4    1.49    0.29
   3   2  -4    1.08    0.29
  -2  -2   4    5.26    0.88
  -2  -2   4    4.99    0.87
  -2   2   4    4.46    0.59
   2   2  -4    5.28    0.46
  -2   2   4    4.23    0.54
   1  -2  -4   23.37    1.60
   1  -2  -4   24.57    1.59
  -1  -2   4   24.44    1.80
   1   2  -4   27.63    1.59
  -1   2   4   30.13    2.09
   1   2  -4   23.43    1.90
  -1   2   4   23.11    1.62
   0  -2   4    4.82    0.88
   0  -2  -4    3.74    0.44
   0  -2   4    4.45    1.13
   0   2   4    3.43    0.95
   0   2  -4    4.06    0.34
   0   2  -4    4.04    0.73
   0   2   4    3.60    0.52
   1  -2   4    5.11    1.15
   1  -2   4    5.56    1.03
  -1  -2  -4    3.49    0.49
  -1   2  -4    4.08    0.79
   1   2   4    4.44    0.96
  -1   2  -4    4.80    0.38
   1   2   4    4.28    0.63
  -2  -2  -4    1.59    0.12
   2  -2   4    1.43    1.17
  -2  -2  -4    0.96    0.32
  -2   2  -4    1.28    1.61
   2   2   4    3.16    0.66
   2   2   4    0.89    0.93
   3  -2   4    1.10    1.53
   3  -2   4    0.15    2.09
   3   2   4    0.29    0.92
  -3   2  -4    2.67    1.49
   3   2   4    0.06    1.08
   4  -2   4   -0.05    1.53
  -4   2  -4   -0.18    0.42
   4   2   4   -0.14    0.95
  -5  -2  -4   -0.20    0.22
  -5   2  -4    0.07    0.24
   5   2   4   -1.47    0.90
   6   2   4    2.56    1.22
  -8   3   4   -0.93    0.52
   8   3  -4    0.24    0.53
  -7   3   4   -0.03    0.37
   7   3  -4    0.11    0.49
   6   3  -4    2.64    0.57
  -6   3   4    2.18    0.39
   5   3  -4    6.16    0.89
  -5   3   4    3.80    0.68
  -4  -3   4   -1.68    2.18
  -4  -3   4    1.08    0.41
  -4   3   4   -0.75    1.06
  -4   3   4    0.41    0.27
   4   3  -4    0.85    0.34
  -3  -3   4   16.10    1.76
   3   3  -4   16.98    1.13
  -3   3   4   15.84    1.32
  -3   3   4   16.11    1.14
  -2  -3   4    4.45    1.04
   2  -3  -4    4.87    0.44
  -2   3   4    4.01    0.62
   2   3  -4    4.26    0.46
  -2   3   4    5.23    0.59
  -1  -3   4    4.86    1.02
   1  -3  -4    5.35    0.45
   1   3  -4    3.99    0.87
   1   3  -4    4.95    0.45
  -1   3   4    6.46    1.04
  -1   3   4    5.39    0.58
   0  -3   4   11.53    1.28
   0  -3  -4   11.73    0.80
   0  -3   4   11.44    1.69
   0   3   4   13.05    1.71
   0   3  -4   10.42    1.27
   0   3   4    9.78    0.90
   0   3  -4   11.79    0.76
  -1  -3  -4    1.07    0.27
   1  -3   4    1.34    1.49
   1  -3   4    1.07    0.20
   1  -3   4    1.84    1.17
  -1  -3  -4    1.27    0.10
   1   3   4    2.13    0.97
   1   3   4    1.25    0.51
  -1   3  -4    1.59    0.28
  -1   3  -4    0.96    0.78
   2  -3   4    1.26    0.24
  -2  -3  -4    1.83    0.13
   2  -3   4    3.89    1.61
   2  -3   4    4.62    1.63
  -2  -3  -4    1.16    0.36
  -2   3  -4    1.75    0.29
  -2   3  -4    0.83    1.13
   2   3   4    2.70    0.76
   2   3   4   -0.07    1.00
   3  -3   4    3.45    2.74
  -3   3  -4   -0.51    1.63
   3   3   4    0.74    1.02
  -3   3  -4    1.45    0.22
   3   3   4    1.05    1.30
  -4   3  -4    0.29    0.21
   4   3   4    1.96    1.02
   5   3   4    0.48    1.01
  -5   3  -4    0.22    0.26
   8   4  -4   -1.07    0.54
  -8   4   4    1.18    0.51
   7   4  -4   -0.89    0.49
  -7   4   4    0.29    0.36
  -6  -4   4   -0.53    0.89
   6   4  -4    0.08    0.48
  -6   4   4    0.12    0.33
  -5  -4   4    2.48    0.60
  -5  -4   4    0.50    3.96
   5   4  -4    4.27    0.71
  -4  -4   4    0.77    0.41
  -4  -4   4    4.62    2.75
   4   4  -4    1.51    0.39
  -4   4   4    1.56    0.34
  -4   4   4    1.65    2.73
  -3  -4   4    0.27    0.38
  -3   4   4    2.02    0.81
   3   4  -4    0.38    0.29
  -3   4   4    1.18    0.36
  -2  -4   4    3.50    1.31
  -2  -4   4    1.16    0.40
   2  -4  -4    2.16    0.34
   2   4  -4    1.50    0.28
  -2   4   4    0.89    0.51
  -2   4   4    1.38    0.37
  -1  -4   4    3.25    1.23
   1  -4  -4    2.84    0.36
   1   4  -4    2.63    0.99
  -1   4   4    3.08    0.50
   1   4  -4    2.73    0.38
  -1   4   4    4.53    1.15
   0  -4  -4    0.57    0.21
   0  -4  -4    0.27    0.04
   0  -4   4    1.14    1.15
   0   4   4    0.42    0.51
   0   4   4    1.38    1.19
   0   4  -4    0.42    0.18
   0   4  -4   -0.42    0.83
  -1  -4  -4    0.06    0.03
   1  -4   4    0.22    0.18
  -1  -4  -4    0.05    0.24
   1  -4   4    3.02    2.60
  -1   4  -4   -0.01    0.18
   1   4   4    0.06    0.78
  -1   4  -4    0.55    1.14
   1   4   4    3.24    1.23
   2  -4   4    1.22    0.27
  -2  -4  -4    1.81    0.13
   2  -4   4    0.46    2.02
  -2  -4  -4    1.70    0.38
  -2   4  -4    1.36    1.26
   2   4   4   -0.29    1.38
   2   4   4    1.19    0.95
  -3  -4  -4    0.24    0.06
  -3  -4  -4    0.38    0.22
  -3  -4  -4    0.49    0.51
   3   4   4    0.45    1.20
  -3   4  -4    0.08    0.19
  -4  -4  -4   -0.15    0.23
   4   4   4    0.36    1.19
  -4   4  -4    0.18    0.21
  -5  -4  -4   -0.22    0.26
  -5   4  -4   -0.10    0.21
   5   4   4   -0.50    1.23
   7   5  -4   -1.18    0.55
  -7   5   4   -0.25    0.47
  -6  -5   4    4.18    0.94
   6   5  -4    6.40    0.86
  -6   5   4    5.68    0.73
  -5  -5   4    3.56    0.64
   5   5  -4    3.62    0.55
  -5   5   4    4.78    0.68
  -4  -5   4   -1.30    3.47
  -4  -5   4   -0.13    0.45
   4   5  -4    0.59    0.47
  -4   5   4    0.30    0.39
   3  -5  -4    2.94    0.40
  -3  -5   4    4.61    2.50
  -3  -5   4    2.25    0.50
   3   5  -4    1.90    0.37
  -3   5   4    3.40    0.50
   2  -5  -4   15.52    1.04
  -2  -5   4   14.58    2.34
   2   5  -4   15.66    1.08
  -2   5   4   16.06    1.49
  -2   5   4   14.58    1.23
   1  -5  -4    2.39    0.43
   1  -5  -4    2.37    0.39
   1  -5  -4    2.14    0.16
  -1   5   4    3.53    0.77
  -1   5   4    3.07    1.49
   1   5  -4    3.39    1.44
   1   5  -4    3.10    0.42
   0  -5  -4    7.54    0.59
   0  -5   4    9.36    1.92
   0  -5  -4    7.35    0.47
   0  -5   4    8.15    0.59
   0  -5  -4    7.01    0.62
   0   5  -4    7.74    0.60
   0   5   4    7.51    1.04
   0   5  -4    5.02    1.31
   0   5   4    6.63    1.59
  -1  -5  -4    6.34    0.65
  -1  -5  -4    6.49    0.55
   1  -5   4    8.39    2.12
  -1  -5  -4    6.45    0.43
   1  -5   4    6.98    0.56
  -1   5  -4    7.20    1.45
   1   5   4    8.58    1.05
   1   5   4    7.87    1.66
  -1   5  -4    7.02    0.57
   2  -5   4    5.03    3.02
   2   5   4    1.24    1.30
   2   5   4    2.44    1.61
  -3  -5  -4    1.02    0.53
  -3  -5  -4    1.27    0.12
  -3  -5  -4    1.12    0.26
  -3   5  -4    0.91    0.24
   3   5   4   -0.95    1.57
  -4  -5  -4    3.62    0.30
  -4  -5  -4    3.63    0.46
   4   5   4    3.16    1.61
  -4   5  -4    3.64    0.44
  -5  -5  -4    0.80    0.29
  -5   5  -4    0.25    0.25
   5   5   4    0.72    1.37
   7  -6  -4    0.15    0.37
  -7   6   4    0.17    0.52
   7   6  -4    0.97    0.62
   6  -6  -4   -0.38    0.28
  -6  -6   4   -0.55    0.92
   6   6  -4    0.06    0.54
  -6   6   4   -0.08    0.43
  -5  -6   4    0.55    0.60
   5  -6  -4   -0.25    0.25
   5   6  -4   -0.27    0.48
  -5   6   4    0.07    0.45
  -4  -6   4    6.24    6.38
  -4  -6   4    0.11    0.50
   4  -6  -4    0.41    0.25
  -4  -6   4    0.26    0.37
   4   6  -4    0.13    0.44
  -4   6   4    0.55    0.50
  -3  -6   4   -0.16    0.25
  -3  -6   4   -0.12    0.45
   3  -6  -4   -0.16    0.21
  -3  -6   4   -1.61    3.54
   3  -6  -4    0.04    0.06
   3   6  -4   -0.15    0.38
  -3   6   4    0.73    0.57
   2  -6  -4    0.10    0.07
  -2  -6   4    0.08    2.34
  -2  -6   4   -0.06    0.53
   2   6  -4   -0.30    0.33
  -2   6   4    0.16    1.47
   1  -6  -4   -0.11    0.38
  -1  -6   4    0.68    1.88
   1   6  -4    0.06    0.26
  -1   6   4   -1.85    2.02
  -1   6   4    0.32    1.07
   0  -6   4    0.23    0.20
   0  -6  -4    0.29    0.28
   0  -6  -4    0.12    0.05
   0  -6   4    1.02    2.36
   0   6  -4    1.02    2.02
   0   6   4    2.03    2.10
   0   6   4   -0.77    1.10
  -1  -6  -4    0.44    0.33
  -1  -6  -4    0.27    0.05
   1  -6   4    1.55    2.87
  -1  -6  -4   -0.16    0.25
   1  -6   4    0.36    0.24
   1   6   4    0.61    2.06
  -1   6  -4    1.39    2.23
   1   6   4    1.73    1.37
  -1   6  -4   -0.01    0.25
   2  -6   4    0.28    0.28
  -2  -6  -4    0.66    0.36
  -2  -6  -4    0.76    0.28
  -2  -6  -4    0.26    0.06
  -2   6  -4    0.43    0.23
   2   6   4   -0.64    2.12
  -3  -6  -4   -0.10    0.51
   3  -6   4    0.13    0.42
  -3  -6  -4    0.10    0.25
  -3  -6  -4    0.02    0.06
  -3   6  -4    0.13    0.25
  -4  -6  -4    0.32    0.27
   4   6   4    3.17    2.40
   6  -7  -4    0.81    0.34
  -6   7   4    0.30    0.64
   6   7  -4    1.05    0.69
   5  -7  -4    0.25    0.29
  -5  -7   4    0.34    0.65
   5   7  -4    0.58    0.55
  -5   7   4    0.05    0.63
  -4  -7   4   -0.17    0.55
   4  -7  -4    0.45    0.27
  -4  -7   4    0.87    0.52
  -4   7   4   -0.79    0.72
   4   7  -4   -0.97    0.52
  -3  -7   4   -0.18    0.49
   3  -7  -4    0.33    0.09
   3  -7  -4    0.53    0.27
  -3  -7   4    0.18    0.31
   3   7  -4    0.39    0.48
   2  -7  -4    0.71    0.26
  -2  -7   4    0.67    0.24
   1  -7  -4    0.66    0.31
   1  -7  -4    0.21    0.06
  -1  -7   4   -0.22    2.80
  -1  -7   4    0.23    0.21
   1   7  -4   -0.03    0.36
   0  -7  -4    0.67    0.40
   0  -7   4    0.53    0.25
   0  -7  -4    1.01    0.11
   0  -7  -4    1.16    0.35
   0   7  -4    1.12    0.35
  -1  -7  -4    0.65    0.31
  -1  -7  -4    0.53    0.36
   1  -7   4    0.76    0.29
  -1  -7  -4    0.41    0.06
  -1   7  -4    0.66    0.31
  -2  -7  -4    0.13    0.39
   2  -7   4    0.13    0.31
  -2  -7  -4   -0.16    0.29
  -2  -7  -4    0.00    0.05
  -2   7  -4   -0.04    0.28
   3  -7   4   -0.03    0.50
  -3  -7  -4    0.11    0.11
  -3  -7  -4   -0.03    0.32
  -4  -7  -4    0.47    0.31
  -4  -7  -4    0.10    0.27
  -4   7  -4    0.61    0.30
   5  -8  -4   -0.29    0.35
  -5  -8   4    0.16    0.74
  -4  -8   4    0.47    0.59
   4  -8  -4    0.05    0.34
   3  -8  -4    0.71    0.32
  -3  -8   4    0.80    0.56
  -3  -8   4    0.50    0.49
   2  -8  -4   -0.13    0.30
  -2  -8   4    0.45    0.31
   1  -8  -4   -0.17    0.30
  -1  -8   4   -0.03    0.25
   0  -8  -4   -0.16    0.33
   0  -8  -4    0.06    0.06
   0  -8   4   -0.07    0.24
  -1  -8  -4    0.87    0.39
   1  -8   4    1.17    0.29
  -1  -8  -4    1.06    0.46
  -1  -8  -4    0.94    0.09
  -1   8  -4    0.72    0.45
   2  -8   4    0.44    0.56
  -2  -8  -4   -0.34    0.42
  -2  -8  -4    0.16    0.47
  -2   8  -4    0.58    0.43
  -3  -8  -4    0.14    0.09
  -3  -8  -4    0.07    0.38
  -3   8  -4   -0.23    0.47
   4  -9  -4   -0.06    0.46
   3  -9  -4    0.50    0.51
  -3  -9   4   -0.93    0.60
  -2  -9   4    0.45    0.40
   2  -9  -4    0.16    0.37
  -1  -9   4   -0.30    0.29
   1  -9  -4   -0.12    0.37
   0  -9   4    0.07    0.30
   0  -9  -4    0.35    0.38
  -1  -9  -4    0.04    0.43
   1  -9   4   -0.48    0.30
  -1  -9  -4    0.13    0.08
  -2  -9  -4   -0.28    0.55
   2  -9   4    0.92    0.41
  -2  -9  -4    0.12    0.10
  -2 -10   4    0.95    0.59
   2 -10  -4    0.57    0.50
   1 -10  -4    1.11    0.49
  -1 -10   4    0.85    0.37
   0 -10   4    0.70    0.34
   0 -10  -4    0.16    0.48
  -7   0   5    0.61    0.80
   7   0  -5   -0.07    0.79
  -6   0   5   -0.49    0.57
   6   0  -5    0.55    0.47
   5   0  -5    0.52    0.46
  -5   0   5   -0.30    0.47
   4   0  -5   -0.45    0.32
  -4   0   5    0.16    0.40
  -4   0   5   -0.11    1.29
  -3   0   5    0.35    0.96
  -3   0   5   -1.21    0.74
   3   0  -5    0.25    0.27
  -2   0   5    1.34    0.92
  -2   0   5   -0.15    1.22
  -2   0   5    0.97    0.59
   1   0  -5    0.26    0.18
  -1   0   5   -0.87    0.94
  -1   0   5    0.43    0.55
  -1   0   5   -0.85    0.99
   0   0   5    0.43    0.94
   0   0  -5    0.02    0.18
  -1   0  -5    0.36    0.20
   1   0   5    0.22    1.05
  -2   0  -5    1.82    1.57
   2   0   5   -0.48    1.09
  -3   0  -5    0.09    0.32
   3   0   5   -0.78    1.31
   4   0   5    1.80    1.33
   5   0   5   -2.57    1.69
  -5   0  -5    1.03    0.42
   8   1  -5   -0.01    0.59
   7  -1  -5   -0.57    0.56
  -7   1   5   -0.19    0.60
   7   1  -5    0.01    0.47
   6  -1  -5    0.89    0.49
  -6   1   5   -0.34    0.46
   6   1  -5    0.18    0.42
   5   1  -5    2.43    0.50
  -4  -1   5    2.02    1.27
   4  -1  -5    0.20    0.31
  -4   1   5   -0.09    1.38
   4   1  -5    0.22    0.32
  -4   1   5    0.11    0.34
  -3  -1   5   -1.14    1.58
  -3  -1   5    1.30    0.87
  -3  -1   5    0.59    1.16
   3  -1  -5    0.98    0.30
  -3   1   5    1.86    0.69
   3   1  -5    0.98    0.28
  -2  -1   5    3.34    0.81
   2  -1  -5    2.76    0.45
  -2  -1   5    2.13    1.13
  -2  -1   5    4.94    1.23
  -2   1   5    4.43    1.25
   2   1  -5    2.83    0.41
  -2   1   5    3.42    0.62
  -2   1   5    3.12    0.97
  -1  -1   5    0.65    1.05
   1  -1  -5    0.65    0.22
  -1  -1   5    1.26    1.17
   1   1  -5    0.42    0.19
  -1   1   5    0.47    0.92
  -1   1   5    0.49    0.50
   0  -1   5    0.42    1.13
   0  -1  -5    0.49    0.22
   0  -1   5   -0.91    1.22
   0   1   5   -0.16    0.56
   0   1   5    0.11    1.01
   0   1  -5   -0.15    1.01
  -1  -1  -5   -0.12    0.21
   1  -1   5    1.90    1.19
  -1   1  -5   -0.49    1.13
  -1   1  -5    0.03    0.17
   1   1   5   -0.32    1.01
  -2  -1  -5    1.16    0.30
   2  -1   5    2.84    1.29
   2   1   5    0.16    1.06
  -2   1  -5    0.23    1.66
   3  -1   5   -2.78    1.46
   3   1   5    0.43    1.08
  -3   1  -5   -0.09    0.25
   4  -1   5    0.07    1.57
   4   1   5   -1.62    1.11
  -4   1  -5   -0.27    0.33
  -5  -1  -5    0.36    0.30
   5   1   5   -0.34    1.33
   8   2  -5    0.23    0.51
  -7   2   5    2.21    0.54
   7   2  -5    1.10    0.47
   6  -2  -5    1.21    0.58
   6   2  -5    0.60    0.42
  -6   2   5    0.90    0.42
  -5  -2   5    8.48    2.42
  -5   2   5    5.57    1.71
  -5   2   5    4.52    0.71
   5   2  -5    5.28    0.64
  -4  -2   5    4.79    1.85
   4  -2  -5    0.17    0.38
  -4   2   5   -0.28    1.20
   4   2  -5    0.32    0.30
  -3  -2   5    0.97    1.14
  -3  -2   5    0.98    1.54
  -3  -2   5    2.80    1.77
   3  -2  -5   -0.29    0.34
   3   2  -5    0.13    0.26
  -3   2   5   -0.53    0.74
  -3   2   5    0.48    0.34
   2  -2  -5    3.13    0.48
  -2  -2   5    3.75    1.33
   2  -2  -5    4.03    0.52
  -2  -2   5    5.56    1.43
  -2   2   5    3.74    1.07
   2   2  -5    3.59    0.44
  -2   2   5    3.99    0.66
   1  -2  -5    5.53    0.61
  -1  -2   5    7.11    1.45
  -1  -2   5    6.86    1.41
   1   2  -5    6.00    0.52
  -1   2   5    6.48    1.21
  -1   2   5    6.33    0.80
   0  -2  -5    2.92    0.40
   0  -2   5    5.57    1.46
   0  -2   5    5.80    1.58
   0   2   5    3.77    1.14
   0   2   5    4.99    0.68
   0   2  -5    4.07    0.39
   0   2  -5    3.76    1.18
  -1  -2  -5    0.28    0.05
   1  -2   5   -2.63    1.76
   1  -2   5    2.53    1.50
  -1   2  -5    0.22    0.18
   1   2   5    0.86    1.06
  -1   2  -5    1.26    1.29
   1   2   5    0.39    0.78
  -2  -2  -5   -0.08    0.06
   2  -2   5   -1.15    1.60
   2  -2   5   -2.75    2.62
  -2   2  -5    1.29    1.78
   2   2   5    0.58    1.09
   2   2   5    2.60    1.27
  -2   2  -5    0.17    0.19
   3  -2   5    5.43    1.79
  -3   2  -5    1.55    0.29
   3   2   5    1.81    1.12
  -4   2  -5   -0.03    0.26
   4   2   5   -0.47    1.02
  -5  -2  -5    0.23    0.31
   5   2   5   -0.15    1.28
  -8   3   5   -0.93    0.67
   8   3  -5   -0.35    0.50
   7   3  -5    0.24    0.44
  -7   3   5   -0.30    0.45
   6   3  -5    2.02    0.46
  -6   3   5    2.14    0.48
  -5   3   5    1.23    0.41
   5   3  -5    1.31    0.39
  -5   3   5    4.89    2.17
  -4  -3   5   -1.52    2.35
  -4   3   5    0.69    1.53
  -4   3   5    1.49    0.46
   4   3  -5    1.45    0.38
   3   3  -5    2.51    0.46
  -3   3   5    0.37    0.95
  -3   3   5    3.25    0.49
  -2  -3   5    3.80    2.24
   2  -3  -5    3.13    0.43
  -2  -3   5    2.79    1.69
  -2   3   5    2.01    1.16
   2   3  -5    3.23    0.44
  -2   3   5    3.40    1.36
  -1  -3   5    1.60    2.05
   1   3  -5    2.49    1.33
  -1   3   5    1.01    1.18
   0  -3   5    4.29    1.86
   0  -3   5    2.08    2.03
   0   3  -5    1.98    0.33
   0   3   5    2.90    1.24
   0   3   5    2.18    0.70
   0   3  -5    2.90    1.32
   1  -3   5    0.53    0.24
  -1  -3  -5    0.62    0.07
   1  -3   5   -1.21    2.11
   1  -3   5    3.45    2.11
   1   3   5    0.03    0.98
  -1   3  -5    1.46    1.54
   2  -3   5   -3.04    3.19
  -2  -3  -5    0.28    0.06
   2  -3   5   -1.35    2.49
   2   3   5    0.56    1.21
   2   3   5   -0.29    1.56
  -2   3  -5    0.19    0.19
  -2   3  -5   -0.83    2.13
  -3   3  -5    1.06    0.24
   3   3   5    0.91    1.17
  -4  -3  -5    1.09    0.24
  -4   3  -5    0.83    0.30
   4   3   5    0.86    1.20
   5   3   5    1.29    1.56
   6   4  -5   -0.55    0.40
  -6   4   5   -0.61    0.42
   5   4  -5    0.31    0.40
  -5   4   5    0.80    0.48
  -4  -4   5    0.11    3.17
  -4   4   5   -1.06    2.12
  -4   4   5    0.95    0.44
   4   4  -5    0.84    0.36
  -3  -4   5    2.66    2.88
   3  -4  -5    1.10    0.27
  -3   4   5    0.65    1.27
  -3   4   5    0.75    0.44
   3   4  -5    0.60    0.33
  -2  -4   5    2.63    2.12
   2  -4  -5    1.05    0.25
  -2   4   5    2.37    1.34
  -2   4   5    0.35    0.96
   2   4  -5    0.85    0.27
   1  -4  -5    0.63    0.26
  -1  -4   5   -0.18    1.93
  -1   4   5    0.07    1.34
   1   4  -5    0.12    0.22
  -1   4   5   -0.26    0.82
   1   4  -5   -0.94    3.02
   0  -4   5    3.13    2.01
   0   4  -5    1.68    1.81
   0   4   5    2.00    0.88
   0   4   5   -0.30    1.52
  -1  -4  -5    0.84    0.10
   1  -4   5    2.44    2.76
   1  -4   5    0.77    0.24
  -1  -4  -5    0.78    0.40
  -1   4  -5   -1.11    1.92
   1   4   5   -0.38    1.43
  -1   4  -5    0.99    0.22
   1   4   5    1.76    1.19
  -2  -4  -5    0.02    0.05
  -2   4  -5    0.04    0.20
   2   4   5   -1.09    1.41
  -3  -4  -5   -0.01    0.09
  -3  -4  -5    0.10    0.23
  -3   4  -5    0.09    0.22
   3   4   5   -2.39    1.38
  -4  -4  -5   -0.37    0.24
  -4   4  -5    0.03    0.23
   4   4   5   -1.18    1.51
   7  -5  -5   -0.18    0.29
   7   5  -5   -0.55    0.48
  -7   5   5   -0.11    0.49
   6  -5  -5   -0.21    0.30
   6   5  -5   -0.03    0.44
  -6   5   5   -0.33    0.45
   5  -5  -5    0.44    0.30
   5   5  -5    1.07    0.44
  -5   5   5    0.36    0.46
   4  -5  -5    0.11    0.26
  -4   5   5    0.27    0.49
   4   5  -5   -0.06    0.37
  -3  -5   5    4.59    3.86
  -3   5   5   -0.91    1.96
   3   5  -5   -0.15    0.34
  -2  -5   5    4.36    2.86
  -2   5   5    1.60    1.82
   2   5  -5    0.56    0.29
  -2   5   5    0.95    1.48
   1  -5  -5   -0.07    0.28
  -1  -5   5    0.87    2.78
   1  -5  -5    0.34    0.33
  -1  -5   5    0.13    0.21
   1   5  -5    0.39    0.24
  -1   5   5    0.68    1.23
  -1   5   5    1.57    1.82
   0  -5   5    4.60    3.05
   0   5  -5    2.99    2.75
   0   5   5    1.08    1.81
   0   5   5   -0.30    1.29
   1  -5   5    0.13    0.25
  -1  -5  -5    0.05    0.05
  -1  -5  -5    0.19    0.25
  -1  -5  -5    0.19    0.41
  -1   5  -5    0.20    0.23
   1   5   5   -1.25    1.80
   2  -5   5    0.38    0.36
  -2  -5  -5    0.22    0.06
  -2  -5  -5   -0.40    0.52
  -2  -5  -5    0.39    0.23
  -2   5  -5    0.10    0.22
   2   5   5   -0.32    1.85
  -3  -5  -5   -0.24    0.24
  -3  -5  -5   -0.02    0.14
   3   5   5   -0.69    1.81
  -3   5  -5    0.04    0.25
  -4  -5  -5   -0.08    0.30
  -4   5  -5   -0.09    0.30
   4   5   5   -0.87    1.98
   7  -6  -5   -0.20    0.34
  -7   6   5    0.14    0.66
   6  -6  -5    0.48    0.33
  -6   6   5    0.35    0.53
  -5  -6   5    1.50    0.61
   5  -6  -5    0.48    0.28
  -5   6   5   -0.98    0.55
   5   6  -5   -0.43    0.43
  -4  -6   5    0.17    0.35
   4  -6  -5    0.63    0.09
   4  -6  -5    0.52    0.27
  -4   6   5    0.60    0.60
   4   6  -5    1.08    0.43
  -3  -6   5   -0.05    0.26
   3  -6  -5    0.30    0.07
   3  -6  -5   -0.07    0.26
   3   6  -5    0.61    0.37
  -3   6   5   -2.91    2.23
   2  -6  -5    0.01    0.05
  -2  -6   5    0.01    0.23
   2  -6  -5   -0.26    0.27
  -2   6   5   -2.95    2.35
   2   6  -5    0.15    0.33
  -1  -6   5    0.99    0.24
  -1   6   5   -2.50    2.38
   1   6  -5    0.77    0.28
   0  -6  -5    0.15    0.05
   0  -6  -5   -0.12    0.35
   0  -6   5    0.10    0.24
   0  -6  -5    0.00    0.35
   0   6   5    0.65    2.42
   0   6  -5   -0.10    0.27
   1  -6   5    0.49    0.30
  -1  -6  -5   -0.15    0.40
  -1  -6  -5    0.18    0.05
  -1  -6  -5    0.18    0.30
  -1   6  -5    0.10    0.24
   1   6   5    0.08    2.50
  -2  -6  -5    0.36    0.50
  -2  -6  -5    0.45    0.29
   2  -6   5   -0.05    0.39
  -2   6  -5   -0.17    0.23
   2   6   5    3.09    2.52
   3   6   5    6.84    2.69
   6  -7  -5    0.21    0.31
   5   7  -5    2.04    1.16
   4  -7  -5   -0.03    0.27
  -4  -7   5   -0.02    0.43
  -4   7   5   -1.21    3.34
   4   7  -5   -0.17    0.48
   3  -7  -5    0.59    0.32
   3  -7  -5    0.31    0.09
  -3  -7   5    0.44    0.29
   3   7  -5   -0.60    0.43
  -3   7   5    1.28    3.63
  -2  -7   5    1.56    0.28
   2  -7  -5    1.45    0.36
   2   7  -5    1.03    0.40
   1  -7  -5    0.05    0.37
  -1  -7   5    0.03    0.25
   1  -7  -5    0.00    0.06
   1   7  -5    0.45    0.36
   0  -7   5    1.54    0.31
   0  -7  -5    1.59    0.40
   0  -7  -5    1.33    0.52
   0  -7  -5    1.60    0.14
   0   7  -5    1.11    0.34
   1  -7   5   -0.25    0.29
  -1  -7  -5   -0.23    0.37
  -1  -7  -5   -0.62    0.40
  -1  -7  -5    0.19    0.06
  -1   7  -5   -0.15    0.31
  -2  -7  -5    0.78    0.35
   2  -7   5   -0.51    0.43
  -2  -7  -5   -0.01    0.07
  -2  -7  -5   -1.28    0.57
  -2   7  -5   -0.11    0.32
  -3  -7  -5   -0.23    0.40
  -3   7  -5   -0.19    0.33
   5  -8  -5    0.15    0.35
   4  -8  -5    0.90    0.32
  -4  -8   5   -0.91    0.66
  -3  -8   5    0.65    0.47
   3  -8  -5    0.84    0.34
   2  -8  -5    0.97    0.12
  -2  -8   5    0.41    0.29
   2  -8  -5    1.12    0.33
   1  -8  -5    1.80    0.40
  -1  -8   5    0.84    0.28
   1   8  -5   -0.30    0.55
   0  -8  -5    1.27    0.41
   0  -8   5    0.94    0.30
   0  -8  -5    0.80    0.10
   0   8  -5    0.98    0.51
  -1  -8  -5    0.69    0.08
   1  -8   5    0.99    0.36
  -1  -8  -5    0.32    0.45
  -1   8  -5    0.47    0.69
  -2  -8  -5   -0.93    0.80
   4  -9  -5   -0.11    0.46
   3  -9  -5   -0.63    0.39
  -3  -9   5    1.04    0.63
  -2  -9   5    0.48    0.37
   2  -9  -5    0.51    0.39
   2  -9  -5   -0.10    0.25
  -1  -9   5    0.05    0.32
   1  -9  -5    0.30    0.42
   1  -9  -5   -0.20    0.12
   0  -9   5    0.04    0.33
   0  -9  -5   -0.21    0.11
   0  -9  -5   -0.26    0.46
  -7   0   6   -0.14    2.90
   7   0  -6   -0.16    0.57
  -6   0   6    2.51    1.94
  -5   0   6    1.19    1.60
   5   0  -6    1.30    0.43
  -4   0   6    2.15    1.36
   4   0  -6    1.34    0.38
  -4   0   6    0.28    1.85
   3   0  -6   -0.49    0.31
  -3   0   6   -1.88    1.26
  -3   0   6    0.10    1.40
  -2   0   6    7.94    2.46
   2   0  -6    6.02    0.58
  -2   0   6    4.19    1.34
   1   0  -6   24.68    1.59
  -1   0   6   21.87    2.28
  -1   0   6   27.04    2.65
   0   0   6   -0.49    2.76
   0   0   6    2.74    1.32
   1   0   6    2.46    1.43
   2   0   6    0.97    1.38
  -2   0  -6    0.73    0.36
   3   0   6   -0.34    1.51
   4   0   6    1.70    2.08
  -6  -1   6    1.19    2.66
   6  -1  -6    0.34    0.51
   6   1  -6   -0.66    0.39
   5  -1  -6    0.17    0.45
  -5  -1   6   -2.09    1.97
   5   1  -6   -0.07    0.40
  -4  -1   6   -2.51    1.69
   4  -1  -6    0.34    0.38
   4   1  -6    0.76    0.35
  -4   1   6    4.05    1.69
  -4   1   6   -0.84    1.20
  -3  -1   6    0.89    1.52
  -3  -1   6    1.46    2.97
  -3  -1   6    3.19    1.72
   3  -1  -6    0.15    0.33
   3   1  -6    0.33    0.33
  -3   1   6    0.06    1.24
  -2  -1   6   -0.88    1.55
  -2  -1   6    0.36    1.43
   2  -1  -6    0.07    0.29
  -2  -1   6    0.34    2.57
  -2   1   6    0.59    1.21
  -2   1   6    0.53    2.94
  -2   1   6    0.71    1.10
   2   1  -6    0.14    0.26
   1  -1  -6    0.42    0.29
  -1  -1   6    3.62    1.53
  -1  -1   6    1.14    2.28
   1   1  -6    0.62    0.24
  -1   1   6   -1.22    2.40
  -1   1   6   -1.09    1.03
   0  -1   6    0.24    1.57
   0   1  -6    0.32    0.24
   0   1   6    0.93    1.26
   0   1   6    0.44    1.32
   1  -1   6   -3.71    4.54
   1  -1   6   -0.46    1.63
  -1  -1  -6    0.19    0.38
  -1   1  -6   -0.03    0.36
   1   1   6    0.54    1.33
   2  -1   6    2.12    1.77
  -2   1  -6    0.45    0.27
   2   1   6   -0.32    1.24
   3  -1   6   -2.47    3.75
   3   1   6   -0.95    1.25
   4   1   6    1.82    1.63
   6   2  -6    0.38    0.40
  -5  -2   6    5.70    5.52
  -4  -2   6    0.27    2.49
   4  -2  -6   -0.51    0.55
  -4   2   6    0.77    2.14
  -4   2   6    0.87    1.22
   4   2  -6    0.20    0.34
  -3  -2   6    0.15    2.11
  -3  -2   6    2.03    3.26
  -3   2   6    0.23    1.36
  -3   2   6   -0.10    1.25
   3   2  -6    0.27    0.29
   2  -2  -6    1.03    0.43
  -2  -2   6   -0.79    1.96
  -2  -2   6    2.50    2.41
  -2   2   6    0.17    1.08
  -2   2   6   -0.26    1.52
  -1  -2   6    0.42    1.90
  -1  -2   6   -0.23    2.55
  -1   2   6    2.03    1.31
   1   2  -6    1.05    0.25
  -1   2   6    1.85    1.11
   0  -2   6   -1.78    3.37
   0  -2   6   -0.59    1.90
   0   2   6   -1.81    1.29
   0   2   6    0.19    1.34
   0   2  -6    0.31    0.23
   1  -2   6    1.38    2.03
   2  -2   6    1.20    2.30
   2   2   6   -1.31    1.25
   3   2   6    0.52    1.19
   4   2   6    2.61    1.53
   7   3  -6    0.15    0.43
   6   3  -6    0.03    0.38
  -6   3   6   -0.82    0.44
   5   3  -6    0.10    0.36
  -4  -3   6    4.70    5.11
   3  -3  -6    0.31    0.30
  -3  -3   6    5.55    3.82
  -3   3   6   -3.47    1.72
   3   3  -6    0.40    0.30
  -3   3   6   -0.43    1.30
  -2  -3   6   -2.29    2.94
   2  -3  -6    0.23    0.42
   2   3  -6    0.40    0.28
  -2   3   6   -2.59    1.28
  -2   3   6    2.26    1.41
  -1  -3   6    4.57    2.69
  -1   3   6    0.79    1.39
  -1   3   6   -0.15    1.22
   0  -3   6    0.67    3.33
   0  -3  -6    0.12    0.05
   0   3   6   -1.24    1.49
   0   3   6    0.26    1.47
   0   3  -6   -0.19    0.22
  -1  -3  -6   -0.03    0.06
   1   3   6   -1.88    1.38
  -1   3  -6    0.08    0.21
  -2  -3  -6    0.11    0.10
  -2   3  -6    0.18    0.23
   2   3   6   -1.85    1.34
  -3  -3  -6   -0.01    0.31
  -3   3  -6   -0.15    0.28
   3   3   6   -0.89    1.42
   7  -4  -6    0.22    0.31
   7   4  -6   -0.66    0.45
   6  -4  -6   -0.27    0.31
   6   4  -6    0.65    0.46
   5  -4  -6    0.59    0.29
   5   4  -6    0.37    0.40
   4  -4  -6    0.11    0.29
   4   4  -6    0.21    0.36
  -4   4   6    2.26    1.55
   3  -4  -6    0.12    0.29
   3   4  -6   -0.05    0.31
  -3   4   6    0.42    1.56
   2  -4  -6   -0.33    0.33
  -2  -4   6   -5.16    3.97
  -2   4   6   -3.02    1.92
  -2   4   6   -2.32    1.63
   2   4  -6    0.48    0.28
   1  -4  -6    0.13    0.37
  -1   4   6    2.65    1.78
   0  -4  -6    0.13    0.05
   0  -4   6    0.21    0.26
   0   4   6   -0.10    1.69
   0   4  -6    0.23    0.24
   1  -4   6    0.37    0.33
  -1  -4  -6    0.51    0.07
   1   4   6    0.80    1.64
  -1   4  -6    0.44    0.22
  -2  -4  -6    0.15    0.25
   2   4   6    1.08    1.62
  -2   4  -6    0.40    0.23
  -3  -4  -6   -0.45    0.26
   3   4   6    0.37    1.76
  -3   4  -6    0.12    0.27
   7  -5  -6    0.00    0.34
   7   5  -6   -0.56    0.54
  -7   5   6    3.00    2.67
   6   5  -6    0.57    0.44
   5  -5  -6    0.97    0.30
   5   5  -6    0.29    0.42
   4  -5  -6   -0.18    0.28
   4   5  -6   -0.23    0.36
  -4   5   6   -3.41    1.90
   3  -5  -6    0.70    0.32
   3   5  -6    0.80    0.35
  -3   5   6   -0.18    1.92
   2  -5  -6    1.85    0.38
   2  -5  -6    1.77    0.14
   2   5  -6    1.00    0.28
  -2   5   6    4.00    2.13
   1  -5  -6    0.08    0.05
  -1  -5   6   -0.09    0.25
   1  -5  -6    0.12    0.39
   1  -5  -6   -0.81    0.54
   1   5  -6    0.03    0.24
  -1   5   6   -0.93    2.17
   0  -5   6    0.68    0.26
   0  -5  -6    1.15    0.12
   0  -5  -6    1.36    0.34
   0   5   6   -1.09    2.09
   0   5  -6    0.93    0.26
   1  -5   6    0.18    0.40
  -1  -5  -6    0.74    0.29
  -1  -5  -6    0.28    0.06
  -1   5  -6    0.20    0.23
   1   5   6    0.92    2.12
  -2  -5  -6    0.04    0.28
  -2  -5  -6    0.06    0.08
  -2   5  -6    0.04    0.34
   2   5   6   -2.38    2.16
  -3  -5  -6    0.38    0.32
   3   5   6   -1.95    1.95
  -3   5  -6   -0.26    0.28
   6  -6  -6   -0.33    0.29
  -6   6   6   -0.77    2.69
   6   6  -6    0.25    0.48
  -5  -6   6   -0.26    0.55
   5   6  -6   -0.44    0.42
  -5   6   6   -2.80    2.54
   4  -6  -6    0.22    0.30
  -4  -6   6    0.00    0.33
   4  -6  -6   -0.04    0.10
   4   6  -6   -0.53    0.37
  -4   6   6   -1.10    2.62
   3  -6  -6    0.38    0.08
  -3  -6   6   -0.14    0.25
   3  -6  -6    0.14    0.34
  -3   6   6   -3.10    2.82
   3   6  -6    0.29    0.34
   2  -6  -6    0.26    0.36
  -2  -6   6    0.31    0.26
   2  -6  -6    0.22    0.06
   2   6  -6   -0.09    0.31
  -2   6   6   -3.71    2.87
   1  -6  -6    0.16    0.44
   1  -6  -6    0.01    0.06
  -1  -6   6   -0.32    0.23
  -1   6   6   -4.70    2.89
   1   6  -6    0.37    0.30
   0  -6  -6    0.16    0.51
   0  -6  -6    0.63    0.45
   0  -6   6    0.10    0.26
   0   6  -6    0.03    0.27
   0   6   6    1.79    2.94
   1  -6   6   -0.05    0.41
  -1  -6  -6    0.27    0.37
   1   6   6   -1.59    2.95
  -2  -6  -6    0.84    0.37
  -2  -6  -6    0.00    0.11
   2   6   6    0.26    3.07
  -2   6  -6   -0.60    0.41
   5  -7  -6    0.58    0.32
  -5   7   6    2.35    3.40
   5   7  -6   -0.26    0.58
   4  -7  -6   -0.38    0.32
  -4  -7   6    0.72    0.44
  -4   7   6   -3.68    4.27
   4   7  -6   -0.90    0.42
  -3  -7   6   -0.04    0.35
   3  -7  -6    0.02    0.11
   3  -7  -6   -0.87    0.36
   3   7  -6   -0.16    0.39
  -3   7   6   -5.20    4.23
  -2   7   6    8.11    4.47
  -1   7   6    1.16    4.55
   0  -7  -6   -0.43    0.54
   0  -7  -6    0.20    0.07
   0  -7   6   -0.10    0.30
   0   7  -6   -0.28    0.31
  -1  -7  -6    0.53    0.90
   1  -7   6    0.09    0.50
  -1   7  -6    0.19    0.33
   4  -8  -6    0.04    0.40
  -3  -8   6   -0.15    0.39
   3  -8  -6   -0.35    0.57
   2  -8  -6    0.27    0.12
   2  -8  -6    0.89    0.43
  -2  -8   6   -0.32    0.30
   2   8  -6    0.39    0.87
   1  -8  -6   -0.01    0.11
   1  -8  -6    0.20    0.49
  -1  -8   6   -0.01    0.30
   0  -8   6    0.67    0.38
   0  -8  -6    1.57    0.78
   6   0  -7    0.24    0.58
   5   0  -7   -0.44    0.42
  -5   0   7   -0.12    2.37
  -4   0   7    2.34    1.88
  -3   0   7    1.73    1.74
   2   0  -7   -0.61    0.34
  -2   0   7    0.22    1.64
   1   0  -7   -0.25    0.35
  -1   0   7   -0.25    1.68
   0   0  -7    0.38    0.36
   0   0   7   -1.38    1.70
   1   0   7    0.09    1.76
  -1   0  -7   -0.97    0.51
   2   0   7    1.70    1.97
  -7   1   7    0.37    3.29
   7   1  -7    0.61    0.58
   6   1  -7   -0.13    0.87
   5  -1  -7   -0.18    0.57
  -5  -1   7   -0.68    2.78
  -5   1   7   -0.24    1.70
   5   1  -7   -0.05    0.38
  -4  -1   7    0.14    2.24
   4  -1  -7    0.19    0.45
   4   1  -7    0.15    0.37
  -4   1   7    1.32    1.64
   3  -1  -7   -0.23    0.43
   3   1  -7   -0.13    0.30
  -3   1   7   -2.13    1.46
   2  -1  -7    0.15    0.46
  -2  -1   7   -3.57    1.95
  -2   1   7    2.65    1.58
   2   1  -7   -0.01    0.29
  -1  -1   7    0.35    2.00
   1  -1  -7    0.90    0.48
  -1   1   7   -2.06    1.54
   1   1  -7    0.11    0.30
   0  -1   7   -0.56    2.04
   0  -1  -7    0.23    0.08
   0   1  -7   -0.05    0.29
   0   1   7   -0.39    1.49
   1  -1   7   -0.55    2.14
  -1   1  -7    0.59    0.34
   1   1   7    0.67    1.52
   2  -1   7    0.29    2.64
   2   1   7    1.22    1.63
  -7   2   7    0.77    2.39
   7   2  -7    0.53    0.47
  -5   2   7   -0.29    1.54
   5   2  -7    0.43    0.37
  -4   2   7   -1.62    1.51
   4   2  -7    0.13    0.33
  -3  -2   7    2.82    2.99
  -2  -2   7    7.12    2.70
  -2   2   7    1.96    1.61
  -1  -2   7    5.43    2.65
  -1   2   7   -0.30    1.48
   0  -2   7    2.67    2.82
   0   2   7    0.99    1.53
   1   2   7    0.03    1.45
  -1   2  -7    0.26    0.31
   2   2   7    4.30    1.54
  -7   3   7   -0.93    2.96
   6  -3  -7    0.02    0.38
   6   3  -7   -0.69    0.36
   5  -3  -7    0.22    0.39
  -5   3   7   -0.38    1.54
   5   3  -7   -0.01    0.35
   4   3  -7    0.07    0.34
  -4   3   7    0.31    1.63
  -3   3   7   -1.23    1.61
   3   3  -7    0.13    0.28
   2   3  -7    0.27    0.27
  -2   3   7    0.93    1.73
   1  -3  -7   -0.01    0.06
  -1   3   7   -1.07    1.58
   1   3  -7   -0.24    0.25
   0  -3   7   -0.24    0.36
   0  -3  -7   -0.01    0.07
   0   3  -7    0.39    0.26
   0   3   7   -2.65    1.60
   1   3   7    2.17    1.58
   2   3   7    4.58    1.79
   6  -4  -7   -0.03    0.37
  -6   4   7    3.32    2.08
  -5   4   7    3.31    2.92
   5   4  -7    0.05    0.42
   4  -4  -7   -0.64    0.41
  -4   4   7   -1.48    1.84
   4   4  -7    0.58    0.33
  -3   4   7    1.11    2.00
  -2   4   7    2.62    2.05
  -1  -4   7   -0.13    0.28
   1  -4  -7    0.08    0.06
   1   4  -7    0.34    0.28
  -1   4   7   -0.50    1.99
   0  -4  -7   -0.13    0.06
   0   4  -7   -0.18    0.23
   0   4   7   -2.50    1.96
  -1  -4  -7   -0.39    0.31
  -1  -4  -7   -0.01    0.09
   1   4   7   -3.57    2.00
  -1   4  -7   -0.12    0.26
  -2  -4  -7    0.61    0.34
  -2   4  -7    0.42    0.35
   2   4   7    1.44    2.29
  -6   5   7   -3.13    2.78
   6   5  -7    1.30    0.46
   5  -5  -7    0.07    0.14
  -5  -5   7   -0.50    0.41
   5  -5  -7    0.06    0.40
   5   5  -7    0.38    0.37
  -5   5   7   -0.38    2.42
   4  -5  -7    0.02    0.41
   4  -5  -7    0.23    0.09
  -4   5   7   -1.57    5.11
  -3  -5   7    0.06    0.27
   3  -5  -7   -0.03    0.07
  -3   5   7   -3.78    2.35
   3   5  -7   -0.50    0.28
  -2   5   7    3.51    2.38
   2   5  -7    0.08    0.27
   1  -5  -7    0.03    0.06
  -1  -5   7   -0.34    0.27
   1   5  -7    0.18    0.27
  -1   5   7   -0.87    2.48
   0  -5  -7   -0.11    0.06
   0  -5  -7    1.35    0.51
   0   5  -7   -0.05    0.25
   0   5   7   -2.06    2.47
  -1  -5  -7   -0.67    0.45
  -1  -5  -7    0.14    0.09
  -1   5  -7   -0.10    0.27
   1   5   7   -2.51    2.60
   5  -6  -7    0.88    0.46
  -5   6   7    0.07    3.11
   5   6  -7   -0.21    0.41
  -4   6   7    7.50    3.27
   3  -6  -7    0.08    0.09
   3  -6  -7   -0.13    0.47
  -3  -6   7   -0.31    0.25
  -3   6   7   -0.11    3.22
   3   6  -7   -0.56    0.31
   2  -6  -7   -0.44    0.62
  -2  -6   7   -0.42    0.26
   2   6  -7   -0.33    0.31
  -2   6   7   -4.15    3.21
  -1   6   7    4.95    3.53
   0  -6   7    0.18    0.49
   0   6   7    3.20    2.76
   0   6  -7    0.19    0.30
  -3  -7   7   -0.54    0.30
  -2  -7   7    0.03    0.32
   2  -7  -7    0.32    0.14
   2   7  -7   -0.27    0.51
   1  -7  -7   -0.12    0.11
  -1  -7   7   -0.16    0.41
  -5   0   8   -2.48    3.17
  -4   0   8    1.33    2.67
  -3   0   8   -2.29    2.24
   3   0  -8   -1.04    0.59
  -2   0   8    0.71    2.28
   2   0  -8   -0.05    0.57
  -1   0   8    1.12    2.55
   0   0   8   -1.12    2.39
  -5   1   8   -3.22    2.25
   5   1  -8    0.08    0.44
   4   1  -8   -0.33    0.41
  -3  -1   8    4.03    3.36
  -3   1   8    0.33    1.92
   3   1  -8   -0.66    0.47
  -2   1   8   -1.25    1.87
   1  -1  -8    0.08    0.09
  -1  -1   8   -1.51    3.08
   1   1  -8   -0.50    0.41
   0   1  -8   -0.18    1.37
   0   1   8   -0.93    2.03
   1   1   8    7.21    4.08
   5   2  -8    0.11    0.35
  -5   2   8   -1.15    1.94
  -4   2   8    0.49    2.09
   4   2  -8   -0.32    0.34
  -3   2   8   -1.75    1.79
  -2   2   8    1.58    1.81
   1  -2  -8    0.01    0.08
  -1  -2   8    0.13    0.57
   1   2  -8   -0.18    0.33
  -1   2   8    0.51    1.75
   0   2   8   -1.49    1.81
   0   2  -8    0.70    0.41
   5   3  -8   -0.64    0.49
  -4   3   8    2.19    1.97
   3   3  -8   -0.42    0.30
  -3   3   8   -0.48    1.90
  -2   3   8    1.56    1.92
  -1  -3   8    0.22    0.45
  -1   3   8   -2.68    1.96
   1   3  -8    0.28    0.29
   0   3   8    2.64    2.15
  -5  -4   8   -0.06    0.50
   5   4  -8   -0.43    0.37
  -5   4   8   -2.23    2.71
   4  -4  -8   -0.33    0.10
   4   4  -8    0.29    0.30
  -4   4   8   -0.07    3.48
  -3  -4   8    0.42    0.28
   3  -4  -8   -0.05    0.08
   3   4  -8   -0.02    0.30
  -3   4   8   -4.70    2.25
  -2  -4   8   -0.13    0.32
   2  -4  -8   -0.07    0.07
   2   4  -8   -0.32    0.30
  -1  -4   8   -0.36    0.61
   1  -4  -8    0.22    0.08
  -1   4   8   -1.75    2.41
   0   4   8   -6.32    3.01
  -4  -5   8    0.18    0.42
   3  -5  -8    0.08    0.10
  -3  -5   8    0.46    0.30
  -3   5   8   -5.79    3.04
   3   5  -8   -0.32    0.33
   2  -5  -8    0.43    0.10
  -2  -5   8   -0.12    0.32
  -2   5   8    0.73    3.14
   2   5  -8    0.43    0.30
   0   0   0    0.00    0.00
;
_shelx_hkl_checksum              48502
loop_
_symmetry_equiv_pos_as_xyz
'x, y, z'
'-x, y+1/2, -z+1/2'
'-x, -y, -z'
'x, -y-1/2, z-1/2'
loop_
_atom_site_label
_atom_site_type_symbol
_atom_site_fract_x
_atom_site_fract_y
_atom_site_fract_z
_atom_site_U_iso_or_equiv
_atom_site_adp_type
_atom_site_occupancy
_atom_site_site_symmetry_order
_atom_site_calc_flag
_atom_site_refinement_flags_posn
_atom_site_refinement_flags_adp
_atom_site_refinement_flags_occupancy
_atom_site_disorder_assembly
_atom_site_disorder_group
C1 C 0.7405(9) 0.3485(5) 0.2913(11) 0.084(2) Uani 1 1 d . . . . .
C2 C 0.5424(7) 0.3411(4) 0.2613(7) 0.0638(15) Uani 1 1 d . . . . .
C3 C 0.2599(8) 0.4017(5) 0.2165(9) 0.093(2) Uani 1 1 d . . . . .
H3 H 0.1536 0.4535 0.2011 0.112 Uiso 1 1 calc R U . . .
C4 C 0.2685(8) 0.2655(5) 0.2161(9) 0.093(2) Uani 1 1 d . . . . .
H4 H 0.1676 0.2074 0.1984 0.111 Uiso 1 1 calc R U . . .
F1A F 0.799(5) 0.443(3) 0.231(6) 0.082(10) Uani 0.20(3) 1 d . U P A 1
F2A F 0.788(5) 0.240(4) 0.214(8) 0.094(10) Uani 0.20(3) 1 d . U P A 1
F3A F 0.838(8) 0.370(6) 0.453(8) 0.15(2) Uani 0.20(3) 1 d . U P A 1
F1B F 0.8270(11) 0.2306(7) 0.323(3) 0.113(4) Uani 0.80(3) 1 d . U P A 2
F2B F 0.8302(11) 0.4209(13) 0.4406(16) 0.127(3) Uani 0.80(3) 1 d . U P A 2
F3B F 0.7794(13) 0.4120(14) 0.152(2) 0.133(4) Uani 0.80(3) 1 d . U P A 2
N2 N 0.4471(6) 0.2261(3) 0.2456(6) 0.0759(15) Uani 1 1 d . . . . .
N1 N 0.4336(6) 0.4492(4) 0.2433(6) 0.0763(15) Uani 1 1 d . . . . .
H1 H 0.4671 0.5327 0.2477 0.23(5) Uiso 1 1 calc R . . . .
loop_
_atom_site_aniso_label
_atom_site_aniso_U_11
_atom_site_aniso_U_22
_atom_site_aniso_U_33
_atom_site_aniso_U_23
_atom_site_aniso_U_13
_atom_site_aniso_U_12
C1 0.088(5) 0.058(4) 0.103(6) 0.001(3) 0.025(4) -0.002(3)
C2 0.062(3) 0.052(2) 0.071(4) 0.000(2) 0.014(2) 0.003(2)
C3 0.064(4) 0.063(4) 0.151(6) -0.007(3) 0.032(3) 0.002(3)
C4 0.067(4) 0.057(3) 0.151(6) 0.005(3) 0.031(3) -0.004(3)
F1A 0.081(12) 0.078(12) 0.088(15) 0.012(8) 0.030(9) 0.006(7)
F2A 0.081(15) 0.082(12) 0.12(2) -0.036(13) 0.035(14) 0.008(10)
F3A 0.15(2) 0.16(2) 0.15(2) -0.002(10) 0.049(12) 0.005(10)
F1B 0.076(4) 0.072(3) 0.180(11) 0.006(4) 0.024(5) 0.010(2)
F2B 0.076(4) 0.119(6) 0.156(8) -0.044(4) -0.003(3) -0.014(3)
F3B 0.108(5) 0.174(7) 0.127(9) 0.028(6) 0.050(5) -0.019(4)
N2 0.070(3) 0.051(2) 0.103(4) -0.0031(19) 0.023(2) -0.007(2)
N1 0.071(3) 0.052(2) 0.103(4) 0.0009(19) 0.024(2) 0.000(2)
loop_
_atom_type_symbol
_atom_type_description
_atom_type_scat_dispersion_real
_atom_type_scat_dispersion_imag
_atom_type_scat_source
C C 0.0181 0.0091 'International Tables Vol C Tables 4.2.6.8 and 6.1.1.4'
H H 0 0 'International Tables Vol C Tables 4.2.6.8 and 6.1.1.4'
N N 0.0311 0.018 'International Tables Vol C Tables 4.2.6.8 and 6.1.1.4'
F F 0.0727 0.0534 'International Tables Vol C Tables 4.2.6.8 and 6.1.1.4'
loop_
_geom_angle_atom_site_label_1
_geom_angle_atom_site_label_2
_geom_angle_atom_site_label_3
_geom_angle
F1A C1 F3A 95(3)
F1A C1 F2A 106(2)
F3A C1 F2A 115(2)
F1B C1 F2B 103.4(9)
F1B C1 F3B 109.2(8)
F2B C1 F3B 104.6(8)
F1A C1 C2 118.4(16)
F3A C1 C2 115(3)
F1B C1 C2 114.4(5)
F2A C1 C2 107.7(16)
F2B C1 C2 112.1(7)
F3B C1 C2 112.3(6)
N1 C2 N2 112.1(5)
N1 C2 C1 123.6(4)
N2 C2 C1 124.3(4)
C4 C3 N1 107.6(5)
C4 C3 H3 126.2
N1 C3 H3 126.2
C3 C4 N2 109.4(5)
C3 C4 H4 125.3
N2 C4 H4 125.3
C1 F1A F3A 43.6(19)
C1 F3A F1A 42(2)
C2 N2 C4 104.7(4)
C2 N1 C3 106.1(4)
C2 N1 H1 126.9
C3 N1 H1 126.9
loop_
_geom_bond_atom_site_label_1
_geom_bond_atom_site_label_2
_geom_bond_distance
C1 F1A 1.19(4)
C1 F3A 1.24(6)
C1 F1B 1.320(8)
C1 F2A 1.33(3)
C1 F2B 1.337(12)
C1 F3B 1.356(12)
C1 C2 1.446(9)
C2 N1 1.329(6)
C2 N2 1.330(5)
C3 C4 1.347(7)
C3 N1 1.350(6)
C3 H3 0.93
C4 N2 1.356(6)
C4 H4 0.93
F1A F3A 1.79(7)
N1 H1 0.86
