#------------------------------------------------------------------------------
#$Date: 2019-10-29 23:20:32 +0200 (Tue, 29 Oct 2019) $
#$Revision: 220416 $
#$URL: file:///home/coder/svn-repositories/cod/cif/4/00/29/4002992.cif $
#------------------------------------------------------------------------------
#
# This file is available in the Crystallography Open Database (COD),
# http://www.crystallography.net/
#
# All data on this site have been placed in the public domain by the
# contributors.
#
data_4002992
loop_
_publ_author_name
'Zhou, Laidong'
'Assoud, Abdeljalil'
'Shyamsunder, Abhinandan'
'Huq, Ashfia'
'Zhang, Qiang'
'Hartmann, Pascal'
'Kulisch, Joern'
'Nazar, Linda F.'
_publ_section_title
;
 An Entropically Stabilized Fast-Ion Conductor: Li3.25[Si0.25P0.75]S4
;
_journal_issue                   19
_journal_name_full               'Chemistry of Materials'
_journal_page_first              7801
_journal_paper_doi               10.1021/acs.chemmater.9b00657
_journal_volume                  31
_journal_year                    2019
_chemical_formula_moiety         'Li3.23 P0.75 S4 Si0.25'
_chemical_formula_sum            'Li3.23 P0.75 S4 Si0.25'
_chemical_formula_weight         180.90
_space_group_crystal_system      orthorhombic
_space_group_IT_number           62
_space_group_name_Hall           '-P 2ac 2n'
_space_group_name_H-M_alt        'P n m a'
_symmetry_space_group_name_Hall  '-P 2ac 2n'
_symmetry_space_group_name_H-M   'P n m a'
_audit_creation_method           SHELXL-2018
_cell_angle_alpha                90
_cell_angle_beta                 90
_cell_angle_gamma                90
_cell_formula_units_Z            4
_cell_length_a                   13.156(7)
_cell_length_b                   8.016(4)
_cell_length_c                   6.132(3)
_cell_measurement_reflns_used    465
_cell_measurement_temperature    180(2)
_cell_measurement_theta_max      30.0
_cell_measurement_theta_min      1.5
_cell_volume                     646.7(6)
_computing_cell_refinement       'SMART, 'Bruker APEX II'
_computing_data_collection       'Bruker kappa APEX II'
_computing_data_reduction        'SAINT, 'Bruker APEX II'
_computing_molecular_graphics    Diamond
_computing_structure_refinement  'SHELXL-2018 (Sheldrick, 2018)'
_computing_structure_solution    'SHELXL-2018 (Sheldrick, 2018)'
_diffrn_ambient_temperature      180(2)
_diffrn_measured_fraction_theta_full 0.997
_diffrn_measured_fraction_theta_max 0.996
_diffrn_measurement_device_type  'BRUKER kappa APEX II'
_diffrn_measurement_method       'Omega and phi scan'
_diffrn_radiation_monochromator  graphite
_diffrn_radiation_source         'fine-focus sealed tube'
_diffrn_radiation_type           MoK\a
_diffrn_radiation_wavelength     0.71073
_diffrn_reflns_av_R_equivalents  0.0482
_diffrn_reflns_av_unetI/netI     0.0436
_diffrn_reflns_Laue_measured_fraction_full 0.997
_diffrn_reflns_Laue_measured_fraction_max 0.996
_diffrn_reflns_limit_h_max       18
_diffrn_reflns_limit_h_min       -14
_diffrn_reflns_limit_k_max       11
_diffrn_reflns_limit_k_min       -7
_diffrn_reflns_limit_l_max       8
_diffrn_reflns_limit_l_min       -8
_diffrn_reflns_number            4308
_diffrn_reflns_point_group_measured_fraction_full 0.997
_diffrn_reflns_point_group_measured_fraction_max 0.996
_diffrn_reflns_theta_full        25.242
_diffrn_reflns_theta_max         30.128
_diffrn_reflns_theta_min         3.666
_diffrn_standards_decay_%        0
_diffrn_standards_interval_time  3
_diffrn_standards_number         3
_exptl_absorpt_coefficient_mu    1.559
_exptl_absorpt_correction_T_max  0.7460
_exptl_absorpt_correction_T_min  0.6980
_exptl_absorpt_correction_type   multi-scan
_exptl_absorpt_process_details   SADABS
_exptl_crystal_colour            colourless
_exptl_crystal_density_diffrn    1.858
_exptl_crystal_description       Block
_exptl_crystal_F_000             354
_exptl_crystal_size_max          0.100
_exptl_crystal_size_mid          0.065
_exptl_crystal_size_min          0.038
_refine_diff_density_max         0.598
_refine_diff_density_min         -0.451
_refine_diff_density_rms         0.109
_refine_ls_extinction_method     none
_refine_ls_goodness_of_fit_ref   0.984
_refine_ls_hydrogen_treatment    undef
_refine_ls_matrix_type           full
_refine_ls_number_parameters     62
_refine_ls_number_reflns         1017
_refine_ls_number_restraints     6
_refine_ls_restrained_S_all      0.981
_refine_ls_R_factor_all          0.0458
_refine_ls_R_factor_gt           0.0311
_refine_ls_shift/su_max          0.000
_refine_ls_shift/su_mean         0.000
_refine_ls_structure_factor_coef Fsqd
_refine_ls_weighting_details
'w=1/[\s^2^(Fo^2^)+(0.0391P)^2^] where P=(Fo^2^+2Fc^2^)/3'
_refine_ls_weighting_scheme      calc
_refine_ls_wR_factor_gt          0.0686
_refine_ls_wR_factor_ref         0.0737
_reflns_Friedel_coverage         0.000
_reflns_number_gt                812
_reflns_number_total             1017
_reflns_threshold_expression     'I > 2\s(I)'
_cod_data_source_file            Li3.25Si0.25P0.75S4-180K.cif
_cod_data_source_block           Li3.25Si0.25P0.75S4-180K
_cod_original_cell_volume        646.8(6)
_cod_database_code               4002992
_shelx_space_group_comment
;
The symmetry employed for this shelxl refinement is uniquely defined
by the following loop, which should always be used as a source of
symmetry information in preference to the above space-group names.
They are only intended as comments.
;
_shelx_estimated_absorpt_t_min   0.860
_shelx_estimated_absorpt_t_max   0.943
_shelx_res_file
;
TITL LN72_0ma in Pnma
    LN72_0ma.res
    created by SHELXL-2018/3 at 10:11:17 on 26-Apr-2019
CELL 0.71073  13.15630   8.01640   6.13240  90.0000  90.0000  90.0000
ZERR    4.00   0.00700   0.00410   0.00310   0.0000   0.0000   0.0000
LATT  1
SYMM 0.5-X, -Y, 0.5+Z
SYMM -X, 0.5+Y, -Z
SYMM 0.5+X, 0.5-Y, 0.5-Z
SFAC LI P S SI
UNIT 12.9164 3 16 1
TEMP -93.000
SIZE 0.038 0.065 0.10
ACTA
L.S. 10
BOND
LIST 4
EXYZ P1 SI1
EADP P1 SI1
SIMU Li1A LI1B
EADP Li1A Li1B

FMAP 2
PLAN 10
WGHT    0.039100
FVAR       0.16222   0.91766
P1    2    0.087141    0.250000    0.155473    10.37500    0.01562    0.01268 =
         0.00885    0.00000    0.00153    0.00000
SI1   4    0.087141    0.250000    0.155473    10.12500    0.01562    0.01268 =
         0.00885    0.00000    0.00153    0.00000
S1    3    0.152762    0.034675    0.275396    11.00000    0.01886    0.01823 =
         0.01765    0.00329    0.00030    0.00270
S2    3   -0.062001    0.250000    0.269074    10.50000    0.01689    0.01597 =
         0.01450    0.00000    0.00099    0.00000
S3    3    0.100623    0.250000   -0.179412    10.50000    0.02727    0.01722 =
         0.00984    0.00000    0.00262    0.00000
LI1A  1    0.330007    0.030308    0.383928    21.00000    0.02691    0.02812 =
         0.04263    0.01650   -0.00640   -0.00080
LI1B  1    0.337855    0.014531    0.216795   -21.00000    0.02691    0.02812 =
         0.04263    0.01650   -0.00640   -0.00080
LI2   1    0.005177    0.044836    0.554382     0.44221    0.02023    0.03302 =
         0.03470    0.01495    0.00999   -0.00370
LI3A  1   -0.083260    0.250000   -0.167156     0.10068    0.06690    0.04607 =
         0.04275    0.00000   -0.00070    0.00000
LI3B  1   -0.070411    0.250000   -0.304722     0.07170    0.02503
HKLF 4




REM  LN72_0ma in Pnma
REM wR2 = 0.073668, GooF = S = 0.98430, Restrained GooF = 0.98122 for all data
REM R1 = 0.031110 for 812 Fo > 4sig(Fo) and 0.045847 for all 1017 data
REM 62 parameters refined using 6 restraints

END

WGHT      0.0396      0.0000

REM Highest difference peak  0.598,  deepest hole -0.451,  1-sigma level  0.109
Q1    1   0.0167  0.2500  0.2118  10.50000  0.05    0.60
Q2    1   0.0905  0.0527  0.3038  11.00000  0.05    0.54
Q3    1   0.1006 -0.0260  0.3027  11.00000  0.05    0.48
Q4    1   0.1323  0.1522  0.2193  11.00000  0.05    0.47
Q5    1   0.0611  0.1774 -0.1832  11.00000  0.05    0.47
Q6    1  -0.0217  0.1812  0.2613  11.00000  0.05    0.44
Q7    1   0.1398  0.1734 -0.1595  11.00000  0.05    0.44
Q8    1  -0.1079  0.1767  0.2872  11.00000  0.05    0.43
Q9    1  -0.1374  0.2500  0.2654  10.50000  0.05    0.42
Q10   1   0.0939  0.2500 -0.0171  10.50000  0.05    0.40
;
_shelx_res_checksum              20789
_shelx_hkl_file
;
   0   0   1    0.69    0.32
   0   0  -2  938.17   41.06
   0   0   2 1000.00   41.05
   0   0  -3    0.25    0.26
   0   0   3   -0.01    0.26
   0   0   4   47.61    2.25
   0   0  -4   47.15    2.29
   0   0  -5    0.37    0.43
   0   0   5   -0.33    0.38
   0   0  -6    0.19    0.49
   0   0   6    0.37    0.47
   0   0   7    0.29    0.62
   0   0  -7    0.64    0.59
   0   0   8    0.12    0.72
   0   1   1  150.89    6.59
   0  -1   2   -0.16    0.20
   0   1  -2   -0.11    0.24
   0   1   2    0.14    0.56
   0   1   2    0.22    0.26
   0   1  -3   29.20    1.52
   0  -1  -3   29.71    1.52
   0  -1   3   29.77    1.46
   0   1   3   33.82    2.02
   0   1   3   30.57    1.51
   0  -1   4    0.44    0.32
   0   1   4   -0.32    0.30
   0   1   4   -0.05    0.65
   0   1  -4    0.02    0.35
   0  -1  -4    0.15    0.31
   0   1   5    9.36    0.83
   0   1  -5    8.97    0.86
   0  -1  -5    9.04    0.85
   0  -1   5    9.69    0.79
   0  -1   6    0.56    0.49
   0   1  -6    0.53    0.56
   0   1   6   -0.74    0.45
   0  -1  -6    0.02    0.51
   0  -1   7   18.58    1.33
   0   1  -7   15.63    1.38
   0  -1  -7   16.76    1.40
   0   1   7   18.21    1.43
   0   1   8   -0.08    0.68
   0   2   0   40.52    2.00
   0   2   1   -0.12    0.37
   0   2  -1    0.39    0.25
   0   2   1    0.08    0.25
   0   2   2    6.68    0.52
   0   2  -2    6.90    0.60
   0   2   2    6.99    0.91
   0   2   3    0.02    0.62
   0   2   3   -0.06    0.29
   0   2  -3    0.16    0.35
   0   2   4   39.11    1.95
   0   2  -4   39.38    1.99
   0  -2   4   37.62    1.90
   0   2   4   41.98    2.62
   0   2   5   -0.33    0.39
   0   2   5   -0.08    0.86
   0   2  -5    0.59    0.48
   0  -2   5    0.06    0.35
   0  -2  -5   -0.04    0.42
   0   2  -6   60.55    3.07
   0   2   6   58.33    3.01
   0  -2  -6   62.98    3.09
   0  -2  -7   -0.10    0.55
   0   2  -7   -0.12    0.62
   0   2   7   -0.38    0.64
   0  -2  -8    3.76    0.95
   0   2   8    4.29    0.86
   0   3   0   -0.52    0.24
   0   3   0    0.53    0.43
   0   3  -1    9.91    0.66
   0   3   1    9.55    0.68
   0   3   1   10.49    0.59
   0   3   1   10.75    0.98
   0   3   2   -0.15    0.23
   0   3  -2    0.17    0.29
   0   3   2   -0.08    0.43
   0   3   2    0.23    0.33
   0   3   3    7.84    0.66
   0   3   3    7.86    1.10
   0   3  -3    9.18    0.73
   0   3   4   -0.59    0.83
   0   3   4   -0.05    0.38
   0   3  -4   -0.30    0.39
   0   3   5    0.81    0.48
   0   3  -5    0.93    0.53
   0   3   5    0.86    0.96
   0   3   6   -0.09    0.54
   0   3  -6   -0.01    0.56
   0   3   6    0.55    1.13
   0  -3  -6    0.61    0.57
   0   3   7    5.70    0.85
   0  -3  -7    4.07    0.86
   0  -3  -8   -0.08    0.73
   0   3   8    0.30    0.74
   0   4   0  730.00   31.30
   0   4   0  727.83   31.00
   0   4  -1   -0.28    0.26
   0   4   1   -0.12    0.26
   0   4   1    0.11    0.20
   0   4   1    0.30    0.46
   0   4   2  285.34   12.10
   0   4   2  286.45   12.19
   0   4   2  280.28   12.50
   0   4  -2  277.64   12.15
   0   4   3    0.17    0.64
   0   4  -3    0.10    0.34
   0   4  -3    0.21    0.24
   0   4   3   -0.12    0.30
   0   4   4   15.40    1.89
   0   4   4   12.56    0.96
   0   4  -4   13.03    1.03
   0   4   5    1.88    1.23
   0   4   5    0.43    0.49
   0   4  -5    0.42    0.58
   0   4   6    1.98    0.66
   0  -4  -6    1.44    0.65
   0   4  -6    0.96    0.67
   0   4   6    1.46    1.35
   0   4   7    0.02    0.68
   0  -4  -7   -0.07    0.68
   0  -4  -8    0.02    0.80
   0   4   8   -0.03    0.74
   0   5   0   -0.13    0.17
   0   5   0   -0.17    0.32
   0   5   0    0.17    0.48
   0   5  -1  174.53    7.76
   0   5   1  175.06    7.63
   0   5   1  179.27    8.16
   0   5   1  181.21    7.78
   0   5   2   -0.15    0.36
   0   5   2    0.09    0.28
   0   5   2   -0.03    0.53
   0   5  -2   -0.67    0.31
   0   5   3   67.89    3.10
   0   5  -3   64.06    3.16
   0   5   3   69.13    3.74
   0   5   3   68.26    3.24
   0   5   4   -0.36    0.36
   0   5   4    0.00    1.00
   0   5  -4    0.33    0.47
   0   5   5   26.14    1.53
   0   5   5   25.06    2.73
   0   5  -5   21.83    1.54
   0   5   6    0.14    1.43
   0   5  -6   -0.35    0.56
   0   5   6   -0.44    0.55
   0  -5  -7   24.19    1.80
   0   5   7   22.85    1.75
   0   6   0  110.46    5.49
   0   6   0  112.37    5.04
   0   6   1   -0.02    0.40
   0   6  -1    0.29    0.59
   0   6   1    0.39    0.60
   0   6  -1    0.21    0.40
   0   6   1    0.19    0.23
   0   6   2   34.54    1.70
   0   6   2   34.55    1.87
   0   6   2   34.88    2.33
   0   6  -2   34.58    1.83
   0   6  -3    0.32    0.45
   0   6   3    0.21    0.34
   0   6   3   -1.34    0.60
   0   6   3   -0.29    0.53
   0   6   4    3.07    1.24
   0   6   4    3.04    0.57
   0   6  -4    4.00    0.70
   0   6   5    0.06    0.50
   0   6  -5   -0.23    0.55
   0   6   5    1.33    1.48
   0   6   6   14.12    1.26
   0   6  -6   13.87    1.29
   0   6   7   -1.79    0.67
   0  -6  -7   -0.32    0.70
   0   7   0    0.08    0.71
   0   7   0   -0.04    0.41
   0   7  -1   17.36    1.82
   0   7  -1   20.63    1.34
   0   7   1   18.87    1.29
   0   7   1   18.53    1.84
   0   7  -2    0.31    0.48
   0   7   2    0.19    0.50
   0   7   2   -0.17    0.70
   0   7   3   13.90    1.29
   0   7  -3   13.99    1.17
   0   7   3   13.52    0.97
   0   7   3   14.62    1.80
   0   7  -4   -1.07    0.51
   0   7   4    0.88    1.06
   0   7   4   -0.51    0.45
   0   7  -5    4.80    0.85
   0   7   5    3.32    1.69
   0   7   5    4.57    0.77
   0   7   6   -0.37    0.65
   0   8   0   82.75    4.62
   0   8   0   79.49    3.91
   0   8   1    0.44    0.56
   0   8  -1   -0.14    0.74
   0   8  -1   -0.05    0.54
   0   8   1    0.46    0.83
   0   8   2   32.48    1.94
   0   8  -2   31.84    2.52
   0   8  -2   30.15    1.86
   0   8   2   28.67    2.50
   0   8  -3    0.25    0.54
   0   8   3   -0.66    0.81
   0   8   3   -0.46    0.65
   0   8  -4    0.38    0.60
   0   8   4    0.42    1.21
   0   8   5    0.59    1.60
   0   8   5    0.54    0.61
   0   8  -5    0.74    0.71
   0   8   6    5.61    0.95
   0   9   0    0.12    0.90
   0   9   0   -0.01    0.58
   0   9  -1   60.56    3.90
   0   9   1   60.96    3.91
   0   9  -1   62.20    3.16
   0   9   1   57.83    3.13
   0   9  -2    0.38    0.59
   0   9  -2    0.21    0.94
   0   9   2    0.01    0.92
   0   9   2    0.24    0.68
   0   9  -3   27.10    1.83
   0   9  -3   25.22    2.54
   0   9   3   25.73    2.57
   0   9  -4   -0.54    0.68
   0   9  -5   10.46    1.25
   0  10   0  109.58    5.29
   0  10  -1    0.15    0.69
   0  10   1   -0.07    0.73
   0  10  -2   49.94    2.78
   0  10   2   46.84    2.83
   0  10  -3    0.06    0.74
   0  10   3    0.32    0.84
   0  10  -4    1.48    0.88
   0  11   0    0.75    0.73
   0  11  -1    0.04    0.73
   0  11   1   -0.44    0.78
   0  11   2    0.55    0.87
   0  11  -2    0.07    0.80
  -1   0   0    0.05    0.07
  -1   0   1   17.56    1.10
   1   0   2   28.52    1.36
  -1   0   2   31.91    1.77
  -1   0   2   29.04    1.39
   1   0  -2   27.99    1.40
  -1   0   3   32.73    1.55
   1   0  -3   31.64    1.59
   1   0   3   31.63    1.54
  -1   0  -3   32.30    1.55
   1   0   4   24.27    1.31
   1   0  -4   26.93    1.41
  -1   0  -4   23.23    1.33
  -1   0   4   25.06    1.34
  -1   0  -5    5.79    0.66
   1   0   5    4.78    0.59
  -1   0   5    5.69    0.64
   1   0  -5    4.73    0.67
   1   0   6   24.14    1.49
  -1   0  -6   23.62    1.51
   1   0  -6   23.02    1.56
  -1   0   6   24.84    1.48
   1   0   7   51.59    2.64
  -1   0   7   48.91    2.64
   1   0  -7   50.39    2.76
   1   0  -8   11.91    1.30
   1   0   8   10.88    1.19
  -1   1   0   -0.01    0.19
   1   1   1   18.23    0.93
  -1   1   1   14.23    1.09
   1   1   2    2.41    0.54
   1   1   2    2.34    0.32
  -1   1  -2    2.06    0.30
   1   1  -2    2.16    0.35
  -1   1   2    2.43    0.74
  -1   1   2    1.88    0.31
   1  -1   2    1.75    0.27
  -1   1  -3   40.04    1.91
   1  -1  -3   40.42    1.96
   1   1   3   40.05    1.90
   1   1   3   43.12    2.32
  -1  -1   3   39.23    1.89
  -1   1   3   40.08    1.91
   1   1  -3   37.12    1.94
  -1   1   3   46.04    2.53
   1  -1   3   40.00    1.88
  -1  -1   4   18.34    1.06
   1   1   4   18.35    1.50
   1   1   4   18.42    1.07
  -1   1  -4   17.30    1.08
   1  -1  -4   18.65    1.12
  -1   1   4   18.91    1.07
   1   1  -4   16.27    1.10
  -1   1   4   19.13    1.72
   1  -1   4   16.98    1.03
  -1  -1  -4   17.88    1.08
  -1  -1   5    6.40    0.67
   1   1   5    7.31    0.70
   1  -1  -5    6.05    0.74
  -1   1  -5    6.84    0.72
  -1  -1  -5    7.34    0.73
  -1   1   5    5.68    0.68
   1  -1   5    6.48    0.66
   1   1  -5    7.09    0.78
  -1   1  -6   30.06    1.76
   1  -1  -6   31.09    1.85
   1   1   6   32.00    1.77
  -1   1   6   30.49    1.76
   1  -1   6   30.29    1.72
  -1  -1  -6   28.21    1.76
   1   1  -6   30.39    1.84
   1  -1  -7    1.64    0.70
   1   1   7    2.11    0.70
   1   1  -7    1.31    0.71
  -1   1   7    2.94    0.73
  -1  -1  -7    1.81    0.64
   1  -1   7    2.41    0.69
   1  -1  -8   10.48    1.29
   1   1   8   13.52    1.27
   1   1  -8   12.84    1.36
  -1   1   8   13.00    1.26
  -1   2   0    0.04    0.33
   1   2   0   -0.05    0.21
   1   2   1   47.08    2.19
   1   2   1   50.81    2.24
   1   2   1   50.29    2.41
   1   2  -1   50.21    2.25
  -1   2   1   51.75    2.27
  -1   2   1   48.97    2.46
  -1   2  -2   24.89    1.27
   1   2   2   24.40    1.25
   1   2   2   27.19    1.54
   1   2   2   25.15    1.30
  -1   2   2   27.34    1.74
  -1   2   2   24.95    1.25
   1   2  -2   26.40    1.31
  -1   2  -3   94.84    4.20
   1   2   3   88.93    4.18
   1   2   3   98.48    4.59
   1  -2   3   90.02    4.13
  -1   2   3   92.34    4.18
  -1   2   3  105.86    4.82
   1   2  -3   91.47    4.23
   1  -2  -4   11.92    0.94
   1   2   4   14.12    1.47
  -1   2  -4   13.05    0.94
   1   2   4   13.30    0.90
   1  -2   4   11.96    0.81
  -1   2   4   14.01    0.89
   1   2  -4   12.62    0.95
  -1   2   4   13.71    1.72
   1  -2  -5   21.62    1.37
   1   2   5   19.84    1.83
   1   2   5   22.09    1.31
  -1   2  -5   22.54    1.36
   1   2  -5   20.45    1.39
  -1   2   5   19.18    2.02
  -1   2   5   21.04    1.31
  -1  -2  -5   21.09    1.31
   1  -2   5   20.94    1.23
   1  -2  -6    5.72    0.84
  -1   2  -6    6.14    0.82
   1   2   6    4.94    0.74
  -1  -2  -6    5.58    0.79
  -1   2   6    5.50    1.35
  -1   2   6    5.11    0.77
   1  -2   6    6.92    0.75
   1   2  -6    5.77    0.86
   1  -2  -7    2.06    0.74
   1   2   7    2.80    0.75
   1   2  -7    2.07    0.80
  -1  -2  -7    2.40    0.70
  -1   2   7    2.65    0.75
   1   2   8    7.62    1.06
   1  -2  -8    7.43    1.13
  -1   2   8    6.81    1.04
  -1   3   0   -0.06    0.25
  -1   3   0    0.18    0.38
   1   3   0   -0.24    0.25
   1   3   1   33.36    1.52
   1   3   1   32.33    1.59
  -1   3  -1   30.13    1.55
   1   3   1   31.54    1.79
  -1   3   1   33.47    1.60
   1   3  -1   33.84    1.59
  -1   3   1   34.80    1.87
  -1   3   1   34.02    1.50
   1   3   2    0.54    0.35
   1   3   2    0.52    0.45
  -1   3  -2    0.19    0.27
   1   3   2   -0.35    0.24
   1   3  -2   -0.22    0.30
  -1   3   2    0.00    0.24
  -1   3   2    0.19    0.36
  -1   3   2   -0.15    0.49
   1   3  -2   -0.23    0.19
   1   3   3   89.42    4.04
  -1   3  -3   89.00    4.06
   1   3   3   95.18    4.51
  -1   3   3   85.21    4.02
   1   3  -3   86.54    4.08
  -1   3   3   98.07    4.72
   1   3   4    0.46    0.78
   1   3   4    0.16    0.35
  -1   3  -4    0.05    0.41
   1   3  -4    0.36    0.48
  -1   3   4    0.68    0.91
  -1   3   4    0.16    0.37
  -1   3  -5   34.77    1.91
   1   3   5   30.98    1.82
   1   3   5   32.91    2.56
   1  -3  -5   33.38    1.91
  -1   3   5   37.99    2.84
   1   3  -5   33.33    1.92
  -1   3   5   34.20    1.85
   1   3   6    7.54    0.85
   1  -3  -6    7.06    0.95
  -1   3  -6    7.79    0.95
  -1   3   6    8.56    1.68
  -1  -3  -6    9.49    0.99
  -1   3   6    7.29    0.89
   1   3  -6    8.90    1.02
   1   3   7    3.13    0.80
   1  -3  -7    3.39    0.84
  -1   3   7    3.16    0.79
  -1  -3  -7    3.88    0.83
   1   3  -7    3.21    0.85
   1  -3  -8    2.66    0.91
   1   3   8    1.90    0.85
  -1   3   8    3.05    0.88
   1   4   0    0.32    0.19
   1   4   0    0.36    0.31
   1   4   0    0.04    0.42
  -1   4   0   -0.29    0.39
  -1   4   0    0.05    0.26
   1   4   1   11.91    0.69
  -1   4  -1   12.84    0.80
   1   4   1   11.70    0.81
   1   4   1   11.46    1.06
   1   4  -1   12.22    0.63
  -1   4   1   12.07    1.12
  -1   4   1   12.28    0.67
   1   4  -1   11.89    0.78
  -1   4   1   12.63    0.82
   1   4   2    4.43    0.44
   1   4   2    3.31    0.68
  -1   4  -2    3.33    0.44
   1   4   2    3.82    0.51
  -1   4   2    3.42    0.75
   1   4  -2    3.58    0.47
   1   4  -2    4.12    0.33
  -1   4   2    3.48    0.51
  -1   4   2    3.92    0.41
   1   4   3   26.24    1.87
  -1   4  -3   24.74    1.37
   1   4   3   25.24    1.36
   1   4  -3   25.31    1.25
   1   4  -3   25.63    1.43
  -1   4   3   27.57    1.37
  -1   4   3   25.85    2.02
   1   4   4    6.70    1.29
  -1   4  -4    5.95    0.69
   1   4   4    7.34    0.73
  -1   4   4    7.18    0.69
   1   4  -4    6.35    0.79
  -1   4   4    7.01    1.48
  -1   4  -5    0.67    0.52
   1   4   5    0.27    0.50
   1   4   5    0.56    1.10
   1   4  -5    1.54    0.62
  -1   4   5    1.70    0.54
  -1   4   5    1.25    1.31
   1  -4  -6    6.81    0.95
   1   4   6    8.06    0.94
  -1   4  -6   12.06    1.74
  -1   4   6   12.35    2.13
   1   4  -6    8.69    1.03
  -1  -4  -6    8.21    0.99
  -1   4   6    6.93    0.91
   1  -4  -7   27.01    1.95
   1   4   7   25.32    1.82
   1   4  -7   28.81    1.98
  -1  -4  -7   27.47    1.90
  -1   4   7   25.59    1.84
   1   4   8    2.53    0.86
   1  -4  -8    4.04    1.01
  -1   4   8    0.10    0.77
  -1   5   0    0.07    0.48
  -1   5   0    0.33    0.35
   1   5   0   -0.07    0.21
   1   5   0   -0.07    0.48
   1   5   0    0.19    0.34
   1   5   1    0.94    0.56
  -1   5  -1    0.79    0.58
   1   5   1    1.13    0.27
  -1   5  -1    1.04    0.36
   1   5   1    1.18    0.41
  -1   5   1    0.85    0.57
   1   5  -1    0.97    0.21
  -1   5   1    1.03    0.38
  -1   5   1    0.66    0.23
   1   5  -1    0.83    0.38
   1   5   2    0.48    0.43
   1   5   2    0.79    0.59
   1   5   2    0.51    0.28
  -1   5  -2    0.54    0.36
   1   5  -2    1.37    0.42
  -1   5   2    1.00    0.64
  -1   5   2    0.97    0.42
  -1   5   2    1.17    0.31
   1   5   3    4.66    0.53
   1   5   3    3.43    0.87
  -1   5  -3    3.53    0.54
   1   5   3    4.77    0.67
  -1   5   3    3.13    0.91
   1   5  -3    3.64    0.56
  -1   5   3    3.44    0.48
   1   5   4   27.61    1.57
  -1   5  -4   25.46    1.57
   1   5   4   29.44    2.42
  -1   5   4   28.78    1.55
  -1   5   4   29.46    2.62
   1   5  -4   26.74    1.64
   1   5   5   -0.07    1.19
  -1   5  -5    0.28    0.52
   1   5   5   -0.99    0.41
  -1   5   5   -0.92    1.24
  -1   5   5    0.64    0.52
   1   5  -5   -0.09    0.54
   1   5   6   38.89    2.20
  -1   5   6   35.52    3.45
   1   5  -6   36.31    2.22
  -1   5   6   41.51    2.21
   1  -5  -7   11.10    1.27
   1   5   7    9.38    1.17
  -1  -5  -7   11.05    1.25
   1   5  -7   12.06    1.31
  -1   5   7    9.82    1.17
  -1   6   0   -0.46    0.53
  -1   6   0    0.01    0.37
   1   6   0   -0.24    0.53
   1   6   0   -0.14    0.37
   1   6   1    9.40    1.23
  -1   6  -1    9.71    0.87
   1   6   1    8.85    0.64
  -1   6  -1   10.42    1.27
   1   6   1   11.15    0.90
   1   6  -1    9.36    0.85
  -1   6   1    9.55    0.87
  -1   6   1   10.38    1.34
  -1   6  -2    1.93    0.48
   1   6   2    1.10    0.35
   1   6   2    2.22    0.55
   1   6   2    1.53    0.75
  -1   6   2    1.38    0.54
   1   6  -2    1.12    0.49
  -1   6   2    0.82    0.32
  -1   6   2    0.62    0.69
  -1   6  -3   26.35    1.51
   1   6   3   27.28    1.43
   1   6   3   23.16    1.96
   1   6   3   25.43    1.62
  -1   6   3   25.77    2.15
   1   6  -3   24.76    1.52
  -1   6   3   23.81    1.60
  -1   6   3   25.76    1.39
  -1   6  -4    0.89    0.52
   1   6   4   -0.10    1.00
   1   6   4   -0.01    0.45
  -1   6   4   -0.33    1.07
   1   6  -4    0.88    0.56
  -1   6   4    0.03    0.40
   1   6   5    2.64    1.41
   1   6   5    2.02    0.61
  -1   6  -5    2.95    0.67
  -1   6   5    2.80    1.59
   1   6  -5    3.37    0.71
  -1   6   5    3.04    0.66
   1   6   6   -0.15    0.66
  -1   6   6    0.60    1.74
  -1   6   6    0.26    0.65
   1   6  -6   -0.21    0.66
   1  -6  -7    5.54    1.06
   1   6   7    7.36    1.06
  -1   6   7    6.47    1.04
  -1  -6  -7    6.87    1.13
   1   7   0    0.36    0.71
  -1   7   0    0.78    0.49
  -1   7   0   -0.41    0.65
   1   7   0   -0.36    0.46
  -1   7  -1   13.51    1.09
   1   7   1   13.66    1.13
   1   7   1   14.08    1.58
  -1   7  -1   15.14    1.66
  -1   7   1   14.86    1.71
   1   7  -1   14.56    1.10
  -1   7   1   14.01    1.12
   1   7  -1   13.96    1.59
   1   7   2    0.18    0.73
  -1   7  -2    0.18    0.70
   1   7   2    1.10    0.36
   1   7   2    0.28    0.50
  -1   7  -2    0.76    0.50
   1   7  -2    0.81    0.50
  -1   7   2    0.36    0.73
  -1   7   2   -0.23    0.53
   1   7   3   42.44    2.38
  -1   7  -3   44.46    2.31
   1   7   3   43.99    2.93
   1   7   3   46.41    2.18
   1   7  -3   42.16    2.32
  -1   7   3   41.51    2.96
  -1   7   3   43.31    2.14
  -1   7  -4    0.97    0.59
   1   7   4    1.27    0.54
   1   7   4    0.25    1.06
  -1   7   4    0.21    1.18
   1   7  -4    0.27    0.58
  -1   7   4    0.47    0.47
   1   7   5   24.00    1.50
   1   7   5   22.44    2.79
  -1   7  -5   23.21    1.59
  -1   7   5   15.30    2.44
   1   7  -5   20.08    1.63
  -1   7   5   23.02    1.46
   1   7   6    1.75    0.74
   1   7  -6   -0.04    0.70
  -1   7   6    0.77    0.69
  -1   8   0    0.58    0.56
   1   8   0   -0.06    0.80
  -1   8   0    0.37    0.81
   1   8   0   -0.30    0.46
   1   8   1    8.15    1.37
   1   8   1    9.26    1.00
  -1   8  -1    6.90    0.87
  -1   8  -1    7.04    1.32
  -1   8   1    8.58    1.44
   1   8  -1    6.26    1.26
  -1   8   1    6.86    0.92
   1   8  -1    6.53    0.89
   1   8   2    0.48    0.59
   1   8   2    0.39    0.86
  -1   8  -2    0.72    0.83
  -1   8  -2    1.55    0.58
  -1   8   2    0.10    0.60
   1   8  -2    0.22    0.87
  -1   8   2    0.41    0.86
   1   8  -2    0.98    0.59
  -1   8  -3   17.36    1.31
  -1   8  -3   16.30    1.94
   1   8   3   15.49    1.88
   1   8   3   16.40    1.43
   1   8  -3   17.16    1.39
  -1   8   3   15.95    2.09
   1   8   4   -0.69    1.00
  -1   8  -4    0.57    0.61
   1   8   4   -0.22    0.45
   1   8  -4    0.61    0.68
  -1   8   4    0.34    1.26
   1   8   5    1.42    0.66
   1   8  -5    0.72    0.76
   1   8   6    0.21    0.71
   1   8  -6    1.01    0.84
  -1   8   6   -0.59    0.64
   1   9   0   -0.24    0.90
  -1   9   0   -0.65    0.84
  -1   9   0   -0.23    0.61
   1   9   0    0.68    0.63
  -1   9  -1    1.82    1.08
   1   9   1    1.41    0.67
   1   9   1    0.57    0.97
  -1   9  -1    0.87    0.66
  -1   9   1    0.06    0.61
   1   9  -1    0.92    0.68
  -1   9   1    0.42    0.99
   1   9  -1    1.01    1.01
  -1   9  -2    0.24    0.64
  -1   9  -2   -0.37    0.87
   1   9   2   -0.04    0.64
   1   9   2    1.07    0.98
   1   9  -2    0.49    0.63
   1   9  -2    1.17    1.02
  -1   9   2    0.05    0.93
  -1   9   2    0.27    0.71
   1   9   3    2.40    1.12
  -1   9  -3    1.88    1.09
   1   9   3    1.76    0.85
  -1   9  -3    0.84    0.68
  -1   9   3    0.95    1.15
   1   9  -3    1.91    1.52
  -1   9   3    1.81    0.81
   1   9  -3    1.70    0.72
  -1   9  -4    7.01    1.00
   1   9  -4    9.01    1.11
   1   9  -5    0.89    0.82
   1  10   0   -0.07    0.73
  -1  10   0    1.71    0.78
   1  10   1    1.87    0.83
  -1  10  -1    1.89    0.80
  -1  10   1    1.19    0.81
   1  10  -1    2.51    0.86
   1  10   2    0.74    0.76
  -1  10  -2    0.91    0.74
   1  10  -2    0.09    0.69
  -1  10   2    0.96    0.84
  -1  10  -3    4.37    0.94
   1  10   3    2.65    0.92
  -1  10   3    2.23    0.95
   1  10  -3    5.48    1.03
  -1  10  -4    1.82    0.92
   1  10  -4    1.94    0.91
  -1  11   0   -0.35    0.75
   1  11   0    0.00    0.70
  -1  11  -1    3.10    0.94
   1  11   1    1.85    0.87
  -1  11   1    2.08    0.90
   1  11  -1    1.51    0.82
  -1  11  -2    0.51    0.79
   1  11  -2   -0.51    0.80
  -2   0   1   55.21    2.70
   2   0  -2    6.45    0.55
   2   0   2    6.03    0.49
  -2   0   2    7.10    0.91
  -2   0   3   23.89    1.19
   2   0   3   22.42    1.17
   2   0  -3   22.43    1.23
  -2   0  -3   22.60    1.15
   2   0  -4    0.97    0.40
  -2   0   4    0.79    0.36
  -2   0  -4   -0.01    0.30
   2   0   4    0.16    0.33
  -2   0   5    3.72    0.56
  -2   0  -5    3.16    0.52
   2   0   5    4.01    0.56
   2   0  -5    4.62    0.66
   2   0  -6    3.92    0.73
  -2   0  -6    3.46    0.61
   2   0   6    3.55    0.61
  -2   0   6    4.00    0.67
   2   0  -7    4.29    0.86
   2   0   7    4.11    0.74
   2   0   8   -0.28    0.70
   2   0  -8   -0.40    0.71
  -2   1   0  170.95    7.40
   2   1   1   25.70    1.20
   2   1   1   24.84    1.24
  -2   1   1   26.60    1.60
   2   1  -1   24.64    1.27
   2   1   2   19.43    0.98
   2   1   2   19.79    1.18
  -2   1   2   19.56    0.99
  -2   1   2   19.78    1.58
   2  -1   2   18.46    0.95
   2   1  -2   19.29    1.05
   2  -1  -3    6.95    0.61
  -2   1  -3    6.41    0.52
   2   1   3    5.62    0.76
   2   1   3    5.89    0.50
  -2   1   3    8.73    1.17
  -2   1   3    6.15    0.54
   2  -1   3    6.70    0.51
   2   1  -3    5.40    0.55
   2   1   4   29.89    1.92
  -2   1  -4   29.16    1.54
   2  -1  -4   31.02    1.64
   2   1   4   29.17    1.54
   2   1  -4   29.37    1.64
   2  -1   4   30.88    1.52
  -2   1   4   31.00    2.21
  -2  -1  -4   30.99    1.56
  -2   1   4   31.07    1.57
   2   1   5    1.14    0.45
   2  -1  -5    0.72    0.48
  -2   1  -5    0.35    0.41
  -2  -1  -5    0.83    0.41
   2  -1   5    0.61    0.37
  -2   1   5    0.80    0.43
   2   1  -5    0.71    0.50
   2   1   6   54.91    2.75
   2  -1  -6   55.89    2.87
  -2   1   6   53.99    2.77
  -2  -1  -6   53.73    2.73
   2   1  -6   53.73    2.83
   2  -1   6   56.24    2.72
   2  -1  -7    3.07    0.80
   2   1   7    2.42    0.71
   2  -1   7    2.32    0.66
  -2   1   7    2.68    0.70
   2   1  -7    2.15    0.77
   2   1   8    9.32    1.11
   2  -1  -8    6.68    1.10
   2   1  -8    8.86    1.21
   2  -1   8    9.07    1.05
  -2   2   0  298.27   12.78
   2   2   0  293.68   12.61
   2   2   1  350.98   15.03
   2   2   1  346.84   15.15
   2   2   1  345.44   15.01
   2   2  -1  332.69   15.00
   2   2  -1  368.01   15.07
  -2   2   1  358.49   15.29
  -2   2   1  368.86   15.07
  -2   2  -2  134.50    5.96
   2   2   2  138.72    6.00
   2   2   2  137.11    6.15
   2   2   2  135.83    5.97
   2   2  -2  142.63    6.05
  -2   2   2  139.64    6.47
  -2   2   2  139.10    5.98
   2   2   3  236.82   10.33
   2   2   3  239.27   10.62
  -2   2  -3  248.12   10.33
  -2   2   3  240.61   10.34
   2  -2   3  241.44   10.27
   2   2  -3  234.88   10.39
  -2   2   3  238.91   10.95
   2   2   4    9.24    0.75
   2   2   4    8.74    1.10
   2  -2  -4    7.15    0.75
  -2   2  -4    8.03    0.76
   2  -2   4    8.60    0.68
  -2   2   4    8.40    0.74
  -2   2   4   10.70    1.55
   2   2  -4    9.34    0.84
   2   2   5   76.20    3.61
   2  -2  -5   76.08    3.70
   2   2   5   75.95    4.08
  -2   2  -5   80.62    3.66
   2  -2   5   77.06    3.56
  -2   2   5   77.55    3.63
  -2   2   5   81.22    4.55
   2   2  -5   77.53    3.71
  -2  -2  -5   75.88    3.63
   2   2   6    0.15    0.50
   2  -2  -6    0.46    0.58
   2   2  -6   -0.18    0.55
  -2   2   6    0.35    1.09
  -2   2   6   -0.36    0.48
  -2  -2  -6   -0.07    0.45
   2  -2   6    0.65    0.47
   2   2   7    2.97    0.76
   2  -2  -7    2.16    0.79
   2   2  -7    3.05    0.81
  -2   2   7    2.41    0.73
   2  -2  -8    0.22    0.72
   2   2   8    1.01    0.74
   2   2  -8    0.47    0.81
  -2   3   0    0.02    0.25
   2   3   0    0.02    0.25
  -2   3   0   -0.27    0.40
   2   3   0   -0.02    0.20
  -2   3  -1   70.93    3.19
   2   3   1   71.28    3.42
   2   3   1   73.70    3.22
   2   3   1   71.86    3.17
  -2   3   1   71.80    3.14
  -2   3   1   73.31    3.24
   2   3  -1   69.74    3.14
  -2   3   1   74.73    3.53
   2   3  -1   71.15    3.23
   2   3   2   28.70    1.38
   2   3   2   28.71    1.43
   2   3   2   27.89    1.63
  -2   3  -2   26.53    1.37
   2   3  -2   28.46    1.33
  -2   3   2   28.26    1.37
   2   3  -2   27.71    1.47
  -2   3   2   29.30    1.88
   2   3   3   11.84    0.82
   2   3   3   13.68    1.30
  -2   3  -3   12.79    0.82
  -2   3   3   15.90    1.74
   2  -3   3   13.36    0.74
  -2   3   3   13.63    0.87
   2   3  -3   12.92    0.97
   2   3   4  129.97    6.10
   2   3   4  121.17    5.61
  -2   3  -4  129.28    5.64
   2   3  -4  121.99    5.69
  -2   3   4  118.58    5.60
   2  -3   4  123.76    5.53
  -2   3   4  140.73    6.60
   2   3   5    6.20    0.76
   2   3   5    5.85    1.19
  -2   3  -5    6.05    0.74
   2  -3  -5    6.05    0.80
   2   3  -5    8.51    0.94
  -2   3   5    7.96    1.65
  -2   3   5    7.54    0.77
   2  -3  -6   90.20    4.19
   2   3   6   83.94    4.06
  -2   3   6   78.53    5.10
  -2  -3  -6   88.30    4.10
  -2   3   6   86.60    4.07
   2   3  -6   84.54    4.18
   2  -3  -7    3.34    0.86
   2   3   7    2.95    0.78
   2   3  -7    4.28    0.93
  -2   3   7    3.44    0.76
   2  -3  -8    8.94    1.28
   2   3   8   10.93    1.22
   2   3  -8   10.74    1.39
  -2   3   8   11.88    1.22
   2   4   0   32.66    1.54
  -2   4   0   35.40    1.66
  -2   4   0   32.95    1.97
   2   4   0   32.66    1.65
  -2   4  -1    2.00    0.58
   2   4   1    2.08    0.38
   2   4   1    1.71    0.28
   2   4   1    1.53    0.52
  -2   4  -1    1.72    0.35
  -2   4   1    2.04    0.40
   2   4  -1    1.81    0.25
  -2   4   1    1.71    0.57
   2   4  -1    1.57    0.36
  -2   4   1    1.32    0.24
   2   4   2   10.09    0.69
   2   4   2   10.20    0.82
  -2   4  -2    9.00    0.70
   2   4   2    9.86    1.04
  -2   4   2    9.12    0.66
   2   4  -2    9.77    0.77
  -2   4   2    9.58    0.83
   2   4  -2   11.29    0.62
  -2   4   2   11.53    1.19
   2   4   3    1.11    0.43
  -2   4  -3    0.10    0.32
   2   4   3    0.21    0.58
   2   4   3    0.26    0.35
   2   4  -3   -0.31    0.42
  -2   4   3   -0.08    0.80
  -2   4   3   -0.04    0.32
   2   4  -3    0.54    0.26
  -2   4  -4   -0.11    0.36
   2   4   4   -0.60    0.77
   2   4   4    0.44    0.43
  -2   4   4    0.06    1.05
   2   4  -4    0.16    0.54
  -2   4   4    0.83    0.44
  -2   4  -5    0.18    0.45
   2   4   5    0.41    0.97
   2   4   5   -0.80    0.45
  -2   4   5   -0.05    1.23
   2   4  -5   -0.47    0.57
  -2   4   5    0.49    0.49
   2   4   6    1.28    0.65
   2  -4  -6    2.63    0.73
  -2   4   6    3.01    1.59
  -2   4   6    1.82    0.67
   2   4  -6    1.99    0.71
   2   4   7    1.65    0.78
   2  -4  -7    2.83    0.82
  -2  -4  -7    2.68    0.78
  -2   4   7    1.52    0.76
  -2   4   7    4.11    1.80
   2   4  -7    0.96    0.77
   2   4   8   -0.64    0.70
   2  -4  -8   -0.87    0.77
   2   4  -8    0.72    1.44
  -2   4   8    0.15    0.81
   2   5   0  149.08    6.50
   2   5   0  149.43    6.63
   2   5   0  151.80    7.01
  -2   5   0  148.29    6.63
  -2   5   0  155.41    7.07
   2   5   1    0.09    0.33
   2   5   1   -0.10    0.50
   2   5   1    0.08    0.23
  -2   5  -1    0.07    0.34
  -2   5  -1    0.33    0.52
   2   5  -1    0.50    0.36
  -2   5   1   -0.07    0.20
  -2   5   1    0.08    0.37
   2   5  -1    0.19    0.21
  -2   5   1    0.15    0.56
  -2   5  -2   63.31    2.92
   2   5   2   64.31    2.98
   2   5   2   61.40    3.31
   2   5   2   63.67    2.87
  -2   5   2   62.24    2.84
   2   5  -2   62.58    2.98
   2   5  -2   62.10    2.79
  -2   5   2   64.20    3.01
  -2   5   2   61.70    3.42
   2   5   3    0.36    0.33
   2   5   3    0.40    0.66
   2   5   3    0.45    0.48
  -2   5  -3    0.75    0.40
   2   5  -3    0.65    0.45
  -2   5   3    0.27    0.76
  -2   5   3    0.31    0.35
  -2   5  -4   -0.42    0.37
   2   5   4    0.88    0.45
   2   5   4   -0.38    0.85
  -2   5   4    0.33    0.43
  -2   5   4    0.36    1.16
   2   5  -4   -0.12    0.50
   2   5   5    0.45    0.53
  -2   5   5    0.68    1.44
  -2   5   5    0.28    0.52
   2   5  -5    0.03    0.60
   2   5   6   19.56    1.50
  -2   5   6   17.26    2.69
  -2   5   6   17.54    1.40
   2   5  -6   17.41    1.53
   2   5   7   -0.22    0.70
   2  -5  -7   -0.32    0.75
  -2   5   7    0.84    0.75
  -2  -5  -7    0.08    0.69
   2   5  -7    0.94    0.75
  -2   6   0   57.04    3.23
   2   6   0   56.30    2.55
   2   6   0   54.65    3.18
   2   6   0   56.50    2.75
  -2   6   0   57.46    2.74
  -2   6  -1   24.73    1.46
  -2   6  -1   24.79    1.89
   2   6   1   24.83    1.92
   2   6   1   26.90    1.51
   2   6   1   25.02    1.29
  -2   6   1   25.67    1.48
   2   6  -1   25.88    1.50
  -2   6   1   26.69    1.98
  -2   6  -2   24.88    1.44
   2   6   2   24.86    1.89
   2   6   2   24.12    1.32
   2   6   2   23.35    1.48
  -2   6  -2   25.79    1.93
  -2   6   2   25.04    1.52
  -2   6   2   24.10    1.28
  -2   6   2   26.10    2.00
   2   6  -2   25.30    1.49
   2   6   3   34.44    2.36
  -2   6  -3   32.33    1.80
   2   6   3   33.42    1.91
   2   6   3   34.42    1.75
   2   6  -3   34.72    1.91
  -2   6   3   32.66    2.51
  -2   6   3   34.10    1.72
  -2   6  -4    1.08    0.51
   2   6   4    0.57    0.96
   2   6   4    0.73    0.51
  -2   6   4    1.87    1.26
  -2   6   4    0.26    0.44
   2   6  -4    2.36    0.63
   2   6   5   18.07    1.32
  -2   6   5   17.91    2.53
   2   6  -5   18.27    1.46
  -2   6   5   17.76    1.32
   2   6   6    0.85    0.69
  -2   6   6   -0.19    1.61
   2   6  -6    0.00    0.70
  -2   6   6   -0.23    0.58
   2  -6  -7    1.29    0.81
   2   6   7   -0.29    0.70
  -2   6   7    1.02    0.80
   2   6  -7    0.88    0.79
   2   7   0    4.07    0.99
   2   7   0    4.11    0.65
  -2   7   0    4.11    0.68
  -2   7   0    4.36    1.05
  -2   7  -1   33.29    1.88
  -2   7  -1   34.74    2.45
   2   7   1   34.28    1.92
   2   7   1   33.86    2.40
  -2   7   1   37.07    1.96
   2   7  -1   34.37    1.92
   2   7  -1   33.22    2.42
  -2   7   1   34.24    2.47
  -2   7  -2   30.30    1.68
   2   7   2   29.92    2.18
   2   7   2   26.69    1.50
   2   7   2   28.76    1.72
  -2   7  -2   29.53    2.29
  -2   7   2   28.46    1.74
  -2   7   2   30.00    2.35
   2   7  -2   26.51    1.68
   2   7   3   10.00    1.38
   2   7   3    8.17    0.96
   2   7   3    9.56    0.80
  -2   7  -3    9.94    0.93
  -2   7   3    8.05    1.40
   2   7  -3    9.27    0.99
  -2   7  -4   80.50    3.73
   2   7   4   79.33    4.52
   2   7   4   81.00    3.66
   2   7  -4   79.29    3.81
  -2   7   4   77.93    3.62
  -2   7   4   63.33    4.64
   2   7   5    3.97    0.74
  -2   7   5    5.58    0.76
   2   7  -5    4.73    0.88
  -2   7   5    3.96    1.81
   2   7   6   53.48    2.82
  -2   7   6   52.12    2.80
   2   7  -6   49.30    2.92
   2   8   0   26.62    2.27
   2   8   0   27.57    1.71
  -2   8   0   27.84    1.73
  -2   8   0   26.78    2.38
  -2   8  -1   13.72    1.17
  -2   8  -1   14.13    1.86
   2   8   1   12.96    1.69
   2   8   1   12.80    1.21
  -2   8   1   14.77    1.90
  -2   8   1   14.56    1.22
   2   8  -1   12.50    1.19
   2   8  -1   13.35    1.82
   2   8   2   12.63    1.78
  -2   8  -2   16.25    1.82
  -2   8  -2   13.79    1.20
   2   8   2   13.92    1.30
  -2   8   2   12.50    1.72
   2   8  -2   14.23    1.25
  -2   8   2   15.11    1.29
   2   8   3   13.21    1.80
  -2   8  -3   14.40    1.90
  -2   8  -3   14.11    1.18
   2   8   3   11.95    1.20
  -2   8   3   11.00    1.72
   2   8  -3   14.22    1.26
   2   8   4    1.05    0.53
   2   8   4   -0.41    1.09
  -2   8  -4    1.21    0.60
  -2   8   4    0.77    1.39
   2   8  -4    0.42    0.67
   2   8   5    3.72    0.79
   2   8  -5    5.20    0.96
   2   8   6    0.70    0.72
  -2   8   6   -0.17    0.73
   2   8  -6   -0.76    0.81
  -2   9   0   55.71    2.98
   2   9   0   54.59    3.00
   2   9   0   57.38    3.71
  -2   9   0   57.79    3.82
   2   9   1    0.23    0.62
  -2   9  -1    0.94    0.65
   2   9   1    0.88    0.97
  -2   9  -1    0.40    0.95
   2   9  -1    0.65    0.64
   2   9  -1   -0.08    0.87
  -2   9   1   -0.16    0.94
  -2   9   1    0.76    0.63
   2   9   2   21.74    1.77
   2   9   2   25.05    2.35
  -2   9  -2   24.37    1.67
  -2   9  -2   24.06    2.38
   2   9  -2   25.07    1.74
  -2   9   2   24.47    2.44
   2   9  -2   24.07    2.41
   2   9   3    0.83    0.79
  -2   9  -3   -0.32    0.62
   2   9   3    0.25    0.96
  -2   9  -3   -0.48    0.89
   2   9  -3   -0.48    0.60
  -2   9   3    0.25    0.80
  -2   9   3    0.67    1.24
   2   9  -4    0.82    0.72
   2   9  -5    1.11    0.79
  -2  10   0    8.15    1.08
   2  10   0    6.17    1.07
   2  10   1   -0.61    0.61
  -2  10  -1    0.17    0.67
   2  10  -1   -1.18    0.59
  -2  10   1    0.00    0.72
   2  10   2    2.13    0.83
  -2  10  -2    3.19    0.87
  -2  10   2    1.87    0.89
   2  10  -2    2.47    0.85
  -2  10  -3    0.48    0.68
   2  10   3    0.61    0.87
   2  10  -3    0.64    0.77
   2  11   0    0.87    0.85
  -2  11   0   -0.90    0.71
  -2  11  -1    6.78    1.04
   2  11   1    5.26    1.09
   2  11  -1    8.17    1.21
  -2  11   1    6.44    1.11
  -3   0   0   -0.05    0.40
  -3   0   1    0.52    0.60
   3   0  -1    3.84    0.37
  -3   0   2    0.74    0.59
   3   0   2    1.79    0.27
   3   0  -2    1.45    0.31
   3   0  -3    2.56    0.42
   3   0   3    2.13    0.34
  -3   0  -3    2.39    0.30
   3   0  -4    0.40    0.41
   3   0   4    0.85    0.36
  -3   0  -4    0.75    0.31
  -3   0  -5   17.69    1.12
   3   0  -5   19.03    1.29
   3   0   5   18.51    1.14
   3   0   6    5.62    0.75
   3   0  -6    6.00    0.87
   3   0   7   15.73    1.26
   3   0  -7   13.35    1.33
   3   0  -8    0.70    0.82
   3   0   8    1.15    0.71
   3   1   0    0.25    0.20
  -3   1   0    0.33    0.35
   3   1   1   65.23    2.79
  -3   1  -1   64.25    2.84
   3   1   1   59.84    2.77
   3   1  -1   64.03    2.78
   3   1   2    2.18    0.29
   3  -1  -2    2.25    0.36
   3   1   2    1.53    0.36
   3   1  -2    2.19    0.38
   3  -1   2    2.21    0.26
  -3   1   2    1.98    0.85
   3   1   3  150.24    6.50
  -3   1  -3  153.35    6.46
   3   1   3  155.46    6.69
   3  -1  -3  149.52    6.57
  -3   1   3  153.22    6.51
   3   1  -3  151.20    6.58
  -3   1   3  130.87    7.08
   3  -1   3  150.91    6.46
   3  -1  -4    2.48    0.51
  -3   1  -4    2.61    0.41
   3   1   4    2.70    0.45
  -3  -1  -4    2.75    0.41
   3  -1   4    3.27    0.43
  -3   1   4    2.68    0.94
  -3   1   4    3.27    0.49
   3   1  -4    2.89    0.58
  -3   1  -5   35.68    1.97
   3   1   5   33.84    1.86
   3  -1  -5   35.96    1.99
  -3   1   5   37.73    1.90
  -3  -1  -5   34.50    1.83
   3   1  -5   36.80    2.01
   3  -1   5   35.30    1.84
   3  -1  -6    1.50    0.63
   3   1   6    0.16    0.51
   3  -1   6    1.12    0.53
   3   1  -6    0.92    0.62
   3   1   7    0.82    0.65
   3  -1  -7   -0.40    0.61
   3   1  -7    0.57    0.70
   3  -1   7   -0.15    0.57
   3  -1  -8    0.41    0.79
   3   1   8    0.65    0.73
   3   1  -8   -0.35    0.73
  -3   2   0    0.14    0.36
   3   2   0   -0.23    0.21
   3   2   0    0.25    0.27
   3   2   1    2.01    0.29
  -3   2  -1    2.25    0.43
   3   2   1    2.36    0.31
   3   2   1    2.31    0.40
   3   2  -1    2.35    0.29
   3   2  -1    1.96    0.37
  -3   2   1    1.83    0.58
   3   2   2    9.07    0.64
   3   2   2    7.89    0.74
   3   2   2    7.77    0.59
  -3   2   2    9.00    0.59
  -3   2   2    7.80    1.16
   3   2  -2    9.09    0.60
   3   2  -2   10.37    0.73
   3   2   3   45.14    2.08
  -3   2  -3   45.02    2.04
   3   2   3   41.71    2.30
   3  -2   3   44.58    2.01
  -3   2   3   43.64    2.08
   3   2  -3   44.82    2.18
   3  -2  -4    3.71    0.57
   3   2   4    2.72    0.73
  -3   2  -4    3.90    0.51
   3   2   4    4.59    0.56
  -3   2   4    6.80    1.40
   3   2  -4    3.69    0.62
  -3   2   4    3.85    0.54
   3  -2   4    4.70    0.48
   3   2   5   57.09    2.80
   3  -2  -5   56.12    2.89
   3   2  -5   58.02    2.91
  -3  -2  -5   55.99    2.77
   3  -2   5   59.08    2.74
  -3   2   5   58.38    2.80
   3  -2  -6   -0.30    0.60
   3   2   6   -0.04    0.48
   3   2  -6    0.28    0.64
  -3   2   6   -0.80    1.09
  -3   2   6    0.11    0.54
   3   2   7   19.85    1.53
   3  -2  -7   21.83    1.67
   3   2  -7   21.47    1.75
   3   2   8    1.05    0.79
   3  -2  -8   -0.20    0.80
   3   2  -8    1.53    0.94
   3   3   0   -0.16    0.25
  -3   3   0   -0.05    0.39
  -3   3   0    0.27    0.24
   3   3   0    0.30    0.20
  -3   3  -1   44.90    2.34
   3   3   1   45.03    2.10
   3   3   1   45.46    2.29
  -3   3  -1   42.93    2.06
   3   3   1   45.92    2.07
  -3   3   1   43.48    2.02
  -3   3   1   45.90    2.45
   3   3  -1   46.05    2.05
   3   3  -1   46.42    2.14
  -3   3   1   47.98    2.15
   3   3   2    1.29    0.44
   3   3   2    1.85    0.34
  -3   3  -2    1.35    0.27
   3   3   2    1.52    0.38
  -3   3   2    1.83    0.32
  -3   3   2    1.73    0.71
   3   3  -2    1.51    0.29
   3   3  -2    1.14    0.40
  -3   3  -3  132.36    6.10
   3   3   3  138.32    6.15
   3   3   3  145.41    6.48
  -3   3   3  148.16    7.00
   3  -3   3  142.61    6.05
  -3   3   3  139.60    6.15
   3   3  -3  136.48    6.11
   3   3  -3  141.75    6.25
   3   3   4    7.05    1.03
  -3   3  -4    7.32    0.66
   3   3   4    6.12    0.66
   3   3  -4    7.64    0.85
  -3   3   4    8.23    0.72
  -3   3   4    9.32    1.68
   3  -3  -5   43.94    2.34
   3   3   5   44.27    2.25
  -3   3   5   42.66    2.23
   3   3  -5   42.59    2.36
   3   3   6   13.77    1.15
   3  -3  -6   12.52    1.21
  -3  -3  -6   13.46    1.13
   3   3  -6   15.24    1.34
  -3   3   6   15.83    1.27
  -3   3   6    7.76    1.84
   3   3   7   -0.07    0.62
   3  -3  -7    0.28    0.72
  -3   3   7    0.27    1.25
  -3   3   7    0.71    0.72
   3   3  -7   -0.08    0.74
   3   3   8    9.08    1.19
   3  -3  -8    8.01    1.24
   3   3  -8    9.74    1.28
   3   4   0    0.02    0.29
   3   4   0    0.34    0.23
  -3   4   0   -0.32    0.41
  -3   4   0   -0.24    0.25
  -3   4  -1    1.35    0.53
   3   4   1    1.30    0.49
   3   4   1    1.83    0.32
  -3   4  -1    1.85    0.35
   3   4   1    1.77    0.36
   3   4  -1    2.27    0.44
  -3   4   1    1.59    0.39
  -3   4   1    1.58    0.26
  -3   4   1    1.53    0.62
   3   4  -1    2.34    0.29
   3   4   2    2.58    0.58
   3   4   2    2.23    0.44
  -3   4  -2    2.42    0.38
   3   4   2    2.40    0.39
   3   4  -2    1.76    0.46
   3   4  -2    2.24    0.33
  -3   4   2    2.35    0.34
  -3   4   2    2.13    0.69
   3   4   3   -0.15    0.52
   3   4   3   -0.25    0.34
   3   4   3   -0.28    0.36
  -3   4  -3    0.57    0.32
  -3   4   3    0.53    0.88
   3   4  -3   -0.11    0.37
   3   4  -3   -0.14    0.26
  -3   4   3    0.23    0.32
   3   4   4    0.08    0.42
  -3   4  -4    0.29    0.35
   3   4   4    0.26    0.76
   3   4  -4    0.29    0.56
  -3   4   4    0.41    1.20
   3   4  -4    0.75    0.33
  -3   4   4    0.27    0.39
   3   4   5    2.25    0.57
  -3   4   5    1.33    1.35
  -3   4   5    1.94    0.57
   3   4  -5    3.38    0.71
   3  -4  -6    2.99    0.77
   3   4   6    2.67    0.72
  -3   4   6    3.30    1.69
   3   4  -6    3.79    0.80
  -3   4   6    2.30    0.66
   3   4   7    4.03    0.88
   3  -4  -7    4.45    0.96
   3   4  -7    3.31    0.89
  -3   4   7    5.07    0.89
  -3   4   7    5.01    1.92
   3   5   0    0.46    0.36
  -3   5   0    0.05    0.49
   3   5   0   -0.05    0.24
  -3   5   0   -0.20    0.33
   3   5   1   18.95    1.11
   3   5   1   22.27    1.25
   3   5   1   21.57    1.60
  -3   5  -1   21.60    1.21
  -3   5  -1   21.38    1.61
  -3   5   1   23.76    1.29
   3   5  -1   21.94    1.09
  -3   5   1   21.21    1.06
   3   5  -1   22.36    1.26
  -3   5   1   21.20    1.67
   3   5   2    5.82    0.55
   3   5   2    5.15    0.85
  -3   5  -2    5.71    0.58
   3   5   2    6.59    0.66
  -3   5  -2    4.73    0.87
  -3   5   2    5.67    0.49
   3   5  -2    5.19    0.63
   3   5  -2    5.92    0.48
  -3   5   2    4.97    0.97
  -3   5   2    4.80    0.65
   3   5   3   66.53    3.07
   3   5   3   68.73    3.54
  -3   5  -3   68.44    3.09
   3   5   3   67.36    3.19
   3   5  -3   66.82    3.19
  -3   5   3   61.77    3.86
   3   5  -3   63.19    3.01
  -3   5   3   66.27    3.05
   3   5   4   14.82    1.08
   3   5   4   16.57    1.80
  -3   5  -4   13.63    1.03
  -3   5   4   19.55    2.48
  -3   5   4   17.26    1.07
   3   5  -4   15.09    1.20
   3   5   5   14.40    1.18
  -3   5   5   18.79    2.59
   3   5  -5   14.27    1.34
  -3   5   5   14.93    1.16
   3  -5  -6   12.87    1.34
   3   5   6   15.12    1.28
   3   5  -6   14.41    1.38
  -3   5   6   21.28    2.99
  -3   5   6   15.69    1.28
   3   5   7    3.01    0.88
   3  -5  -7    2.17    0.82
   3   5  -7    0.33    0.81
  -3   5   7    2.32    0.80
  -3   6   0   -0.18    0.59
   3   6   0   -0.31    0.26
   3   6   0    0.07    0.39
  -3   6   0    0.06    0.43
   3   6   0    0.26    0.62
   3   6   1    0.90    0.48
  -3   6  -1    1.71    0.46
  -3   6  -1    0.66    0.63
   3   6   1    1.26    0.69
   3   6   1    0.37    0.30
   3   6  -1    1.23    0.32
  -3   6   1    1.16    0.46
   3   6  -1   -0.05    0.38
  -3   6   1    0.50    0.69
   3   6   2    3.76    0.87
  -3   6  -2    4.43    0.59
   3   6   2    3.82    0.50
   3   6   2    3.63    0.60
  -3   6  -2    3.89    0.92
  -3   6   2    3.68    0.66
   3   6  -2    2.95    0.56
  -3   6   2    2.30    0.86
  -3   6  -3    5.57    0.66
   3   6   3    5.38    0.65
   3   6   3    5.81    1.02
   3   6   3    3.54    0.70
  -3   6   3    4.27    0.54
  -3   6   3    4.85    1.18
   3   6  -3    4.39    0.70
   3   6   4    1.09    0.97
   3   6   4    0.32    0.45
  -3   6   4    0.54    1.21
   3   6  -4    0.21    0.55
  -3   6   4    0.94    0.45
   3   6   5    4.86    0.76
   3   6  -5    4.54    0.84
  -3   6   5    5.03    0.71
  -3   6   5    5.84    1.90
   3   6   6    0.47    0.67
   3   6  -6    0.21    0.72
  -3   6   6   -0.03    0.61
  -3   6   6   -0.72    1.71
   3   6   7    1.12    0.79
   3  -6  -7    1.98    0.87
  -3   6   7    1.66    0.78
   3   6  -7    2.99    0.90
  -3   7   0    0.46    0.74
  -3   7   0    0.49    0.43
   3   7   0   -0.29    0.48
   3   7   0    0.25    0.72
   3   7   1   18.34    1.81
   3   7   1   17.57    1.06
   3   7   1   19.69    1.37
  -3   7  -1   19.57    1.31
  -3   7  -1   17.00    1.84
   3   7  -1   19.62    1.36
  -3   7   1   17.63    1.82
  -3   7   1   18.29    1.29
   3   7   2    1.45    0.82
  -3   7  -2    1.20    0.82
  -3   7  -2    2.40    0.54
   3   7   2    1.22    0.41
   3   7   2    1.66    0.56
   3   7  -2    1.07    0.54
  -3   7   2    0.87    0.84
  -3   7   2    1.17    0.60
  -3   7  -3   60.33    3.59
   3   7   3   58.92    3.03
   3   7   3   59.65    3.52
  -3   7  -3   58.03    2.93
   3   7   3   62.05    2.88
  -3   7   3   60.54    3.83
   3   7  -3   59.10    3.02
   3   7   4    9.67    0.90
   3   7   4    6.86    0.98
  -3   7   4    7.09    0.74
   3   7  -4    6.86    0.95
  -3   7   4    7.15    1.78
   3   7   5   22.18    1.52
   3   7  -5   22.84    1.72
  -3   7   5   23.02    1.44
  -3   7   5   20.09    2.92
   3   7   6   13.69    1.25
  -3   7   6   12.94    1.18
   3   7  -6   13.22    1.37
   3   8   0    0.15    0.80
  -3   8   0    0.14    0.82
  -3   8   0    0.30    0.53
   3   8   0    0.49    0.54
  -3   8  -1    0.88    0.56
   3   8   1   -0.03    0.78
  -3   8  -1    0.60    0.91
   3   8   1    0.45    0.58
  -3   8   1    0.73    0.60
   3   8  -1    1.24    0.89
  -3   8   1    0.14    0.90
   3   8  -1    0.71    0.57
  -3   8  -2    1.81    0.99
   3   8   2    2.14    0.69
   3   8   2    1.63    0.92
  -3   8  -2    1.71    0.62
  -3   8   2    1.18    0.69
  -3   8   2    1.83    1.05
   3   8  -2    2.40    0.66
   3   8   3    5.23    1.19
  -3   8  -3    5.25    1.28
   3   8   3    6.18    0.69
   3   8   3    5.83    0.91
  -3   8  -3    6.26    0.82
   3   8  -3    5.12    0.82
  -3   8   3    2.97    1.21
   3   8   4    0.42    0.49
  -3   8  -4    0.18    0.89
   3   8   4    0.87    0.80
   3   8  -4    0.83    0.73
  -3   8   4    0.52    1.49
   3   8   5    3.61    0.81
   3   8  -5    4.41    0.95
  -3   9   0   -0.65    0.94
   3   9   0   -0.79    0.55
  -3   9   0    0.18    0.62
   3   9   0    0.34    0.98
   3   9   1    8.72    1.52
   3   9   1    7.68    1.03
  -3   9  -1    7.84    0.99
  -3   9  -1    8.29    1.53
   3   9  -1    9.68    1.12
   3   9  -1    7.80    1.49
  -3   9   1    6.87    0.99
  -3   9   1    5.31    1.44
   3   9   2    0.62    0.71
  -3   9  -2    0.56    0.62
  -3   9  -2    0.91    1.03
   3   9   2    0.61    1.02
   3   9  -2    0.97    1.04
  -3   9   2    0.57    1.07
  -3   9   2    0.42    0.71
   3   9  -2    1.08    0.69
  -3   9  -3   26.62    1.72
  -3   9  -3   27.40    2.55
   3   9   3   23.32    2.44
   3   9  -3   23.38    1.85
   3   9   4    2.18    0.90
   3   9  -4    4.84    0.94
   3   9  -5    4.41    1.04
   3  10   0    0.18    0.78
  -3  10   0   -0.02    0.68
  -3  10  -1   -0.49    0.66
   3  10   1    0.60    0.69
  -3  10   1    0.33    0.76
   3  10  -1   -0.20    0.74
   3  10   2    0.80    0.85
  -3  10  -2    0.88    0.70
  -3  10   2    0.08    0.80
   3  10  -2    0.19    0.76
   3  10   3    0.77    0.83
   3  10  -3   -0.81    0.73
   3  11   0    0.70    0.88
  -3  11   0    0.50    0.74
   3  11   1    4.09    1.01
  -3  11  -1    5.84    1.04
  -3  11   1    4.85    1.06
   3  11  -1    6.38    1.18
   4   0   1  213.14    8.79
   4   0  -1  205.33    8.82
  -4   0   1  191.63    9.13
   4   0  -1  212.72    8.80
   4   0  -2  218.46    9.55
  -4   0   2  230.72    9.97
   4   0   2  215.54    9.47
  -4   0  -3  196.28    8.52
   4   0   3  199.12    8.57
   4   0  -3  201.79    8.67
   4   0   4    5.35    0.54
   4   0  -4    4.59    0.64
  -4   0  -4    6.18    0.52
   4   0  -5   84.10    4.06
   4   0   5   86.75    3.92
   4   0  -6    4.32    0.81
   4   0   6    3.34    0.66
   4   0  -7    6.99    1.10
   4   0   7    6.44    0.91
   4   0  -8    0.42    0.85
   4   0   8    1.17    0.79
   4   1   0    0.38    0.23
  -4   1   0    0.06    0.48
  -4   1  -1   -0.08    0.25
   4   1   1    0.23    0.23
   4  -1  -1    0.00    0.22
   4   1   1    0.20    0.18
   4   1  -1    0.25    0.22
  -4   1   1   -0.21    0.74
   4   1  -1   -0.09    0.28
   4  -1  -2   16.24    0.92
   4   1   2   16.08    0.86
   4   1  -2   14.35    0.93
   4  -1   2   15.86    0.80
   4  -1  -3    0.12    0.32
   4   1   3    0.38    0.28
  -4   1  -3    0.09    0.23
   4  -1   3    0.41    0.26
  -4   1   3    0.45    0.77
   4   1  -3    0.07    0.33
   4   1   4   73.43    3.35
   4  -1  -4   74.00    3.46
   4  -1   4   70.68    3.29
   4   1  -4   69.62    3.45
  -4  -1  -4   68.99    3.29
  -4   1   4   84.16    4.29
   4  -1  -5    0.24    0.52
   4   1   5    1.41    0.45
   4   1  -5   -0.09    0.55
   4  -1   5    0.18    0.39
   4   1   6   50.66    2.63
   4  -1  -6   52.42    2.80
   4   1  -6   50.20    2.78
   4  -1   6   53.16    2.61
   4  -1  -7    2.61    0.85
   4   1   7    3.72    0.78
   4  -1   7    4.33    0.77
   4   1  -7    3.01    0.86
   4   1   8    7.23    1.05
   4  -1  -8    7.68    1.20
   4   1  -8    5.17    1.11
  -4   2   0    0.40    0.32
   4   2   0    0.39    0.25
  -4   2   0    0.53    0.39
   4   2   0    0.48    0.24
  -4   2  -1    0.56    0.34
   4   2   1    0.59    0.29
   4   2   1    0.78    0.25
   4   2   1    0.80    0.27
   4   2  -1    0.57    0.25
  -4   2   1    0.49    0.63
   4   2  -1    1.50    0.38
   4   2   2   18.17    0.93
   4   2   2   14.99    0.97
   4   2   2   17.48    0.92
   4   2  -2   17.63    0.91
   4   2  -2   17.46    1.04
  -4   2  -3    0.18    0.23
   4  -2  -3    0.74    0.35
   4   2   3    0.30    0.40
   4   2   3    0.24    0.30
  -4   2   3   -0.44    0.78
   4   2  -3    0.16    0.43
   4  -2   3   -0.15    0.23
   4  -2  -4   50.05    2.48
   4   2   4   48.93    2.37
   4   2  -4   51.29    2.52
  -4   2   4   51.61    2.42
   4  -2   4   52.75    2.31
  -4   2   4   39.93    3.25
   4   2   5    2.98    0.56
   4  -2  -5    3.55    0.68
  -4  -2  -5    2.92    0.51
   4   2  -5    2.71    0.71
   4  -2   5    3.75    0.55
  -4   2   5    2.38    0.57
  -4   2   5    5.00    1.52
   4   2   6   47.98    2.48
   4  -2  -6   47.13    2.60
   4   2  -6   48.81    2.67
  -4   2   6   43.14    3.53
   4   2   7    0.64    0.66
   4  -2  -7    0.67    0.73
   4   2  -7   -0.27    0.74
   4   2   8    5.39    1.00
   4  -2  -8    5.93    1.12
   4   2  -8    7.59    1.25
  -4   3   0   32.04    1.85
  -4   3   0   32.60    1.55
   4   3   0   33.10    1.53
   4   3   0   32.58    1.59
  -4   3  -1   49.95    2.49
   4   3   1   56.39    2.52
   4   3   1   57.78    2.72
  -4   3  -1   55.74    2.79
   4   3   1   57.06    2.55
  -4   3   1   59.72    2.96
   4   3  -1   55.41    2.58
   4   3  -1   54.77    2.51
   4   3   2    5.40    0.51
   4   3   2    5.27    0.70
   4   3   2    4.68    0.48
  -4   3  -2    5.19    0.46
  -4   3   2    5.76    1.03
  -4   3   2    4.90    0.44
   4   3  -2    5.35    0.61
   4   3  -2    5.85    0.48
   4   3   3   22.22    1.21
  -4   3  -3   21.26    1.11
   4   3   3   21.67    1.45
   4   3   3   20.43    1.20
   4   3  -3   20.54    1.14
  -4   3   3   21.82    1.21
  -4   3   3   24.29    2.17
   4   3  -3   21.99    1.34
   4   3   4   12.59    0.97
  -4   3   4   15.13    1.01
   4   3  -4   15.11    1.17
  -4   3   4   17.72    2.27
   4   3   5    7.89    0.83
   4  -3  -5    6.83    0.85
   4   3  -5    7.95    1.01
  -4   3   5    9.79    2.03
  -4   3   5    5.95    0.74
   4   3   6   26.89    1.73
   4  -3  -6   29.56    1.93
   4   3  -6   28.96    1.98
  -4   3   6   31.49    3.25
  -4   3   6   27.51    1.75
   4   3   7    0.61    0.67
   4  -3  -7   -0.48    0.68
   4   3  -7    1.13    0.78
  -4   3   7    0.08    1.24
   4   3   8    3.94    0.99
   4  -3  -8    3.32    1.00
   4   3  -8    3.26    1.05
  -4   4   0  153.05    6.77
   4   4   0  156.12    6.72
  -4   4   0  154.70    7.15
   4   4   0  158.35    6.80
   4   4   1   59.62    2.68
   4   4   1   56.74    2.91
   4   4   1   54.77    2.60
  -4   4  -1   56.84    2.63
  -4   4  -1   56.56    2.99
   4   4  -1   60.09    2.71
  -4   4   1   57.99    3.08
   4   4  -1   57.18    2.59
  -4   4   1   56.79    2.68
  -4   4  -2   63.01    2.94
   4   4   2   64.90    3.25
  -4   4  -2   63.81    3.33
   4   4   2   66.37    3.02
   4   4   2   65.42    2.97
  -4   4   2   65.06    3.57
   4   4  -2   67.99    2.93
   4   4  -2   63.67    3.05
  -4   4   2   65.73    2.93
   4   4   3   80.46    3.97
   4   4   3   80.36    3.69
   4   4   3   83.60    3.65
  -4   4  -3   77.77    3.58
  -4   4   3   84.33    3.63
   4   4  -3   86.50    3.79
   4   4  -3   82.13    3.61
  -4   4   3   65.00    4.39
   4   4   4    0.68    0.45
   4   4  -4    0.50    0.35
  -4   4   4    1.27    1.25
  -4   4   4   -0.06    0.38
   4   4  -4    0.13    0.56
   4   4   5   48.70    2.37
   4  -4  -5   45.89    2.45
  -4   4   5   44.67    2.34
   4   4  -5   44.71    2.23
  -4   4   5   36.88    3.65
   4   4  -5   47.57    2.51
   4  -4  -6    4.67    0.85
   4   4   6    4.94    0.78
  -4   4   6    5.41    2.03
   4   4  -6    5.20    0.97
  -4   4   6    4.92    0.79
   4   4   7    2.84    0.77
   4  -4  -7    3.08    0.92
   4   4  -7    4.41    0.98
  -4   5   0    7.37    0.68
   4   5   0    8.36    0.62
   4   5   0    9.11    0.77
  -4   5   0    7.55    1.05
   4   5   1   23.61    1.31
   4   5   1   23.67    1.40
   4   5   1   25.26    1.73
  -4   5  -1   27.31    1.83
  -4   5  -1   25.10    1.37
  -4   5   1   25.14    1.84
  -4   5   1   26.37    1.43
   4   5  -1   28.04    1.46
   4   5  -1   25.15    1.28
   4   5   2   37.84    2.30
  -4   5  -2   37.84    1.90
   4   5   2   38.04    1.88
  -4   5  -2   39.45    2.37
   4   5   2   38.81    1.97
   4   5  -2   38.38    2.02
  -4   5   2   37.02    1.83
   4   5  -2   39.73    1.85
  -4   5   2   41.11    2.58
   4   5   3    6.77    0.67
  -4   5  -3    7.54    0.69
   4   5   3    6.76    0.78
   4   5   3    7.05    1.01
  -4   5   3    6.25    1.37
  -4   5   3    7.01    0.64
   4   5  -3    8.39    0.88
   4   5  -3    7.44    0.62
   4   5   4   89.95    3.83
  -4   5   4   67.90    4.88
   4   5  -4   83.37    3.93
  -4   5   4   82.51    3.76
   4   5   5    6.16    0.81
   4   5  -5    7.42    0.99
  -4   5   5    8.74    2.18
  -4   5   5    6.31    0.77
   4  -5  -6   45.40    2.65
   4   5   6   51.93    2.60
   4   5  -6   43.95    2.67
  -4   5   6   45.33    2.51
  -4   5   6   50.67    4.38
   4   5   7    4.80    0.97
   4  -5  -7    7.76    1.14
  -4   5   7    5.29    0.91
   4   5  -7    4.55    1.05
   4   6   0   12.90    0.81
  -4   6   0   12.74    1.44
  -4   6   0   12.51    0.95
   4   6   0   12.58    1.00
   4   6   0   13.60    1.44
   4   6   1    6.61    0.73
   4   6   1    6.04    0.58
  -4   6  -1    5.83    1.07
  -4   6  -1    7.09    0.72
   4   6   1    6.00    1.01
   4   6  -1    4.96    0.49
  -4   6   1    5.65    1.05
  -4   6   1    6.29    0.71
   4   6  -1    6.15    0.70
  -4   6  -2    0.89    0.44
   4   6   2    1.32    0.71
   4   6   2    0.05    0.38
  -4   6  -2    1.36    0.70
   4   6   2    0.93    0.46
  -4   6   2    1.33    0.81
  -4   6   2    0.54    0.58
   4   6  -2    0.65    0.52
   4   6   3   10.32    0.87
  -4   6  -3   10.63    0.87
   4   6   3   11.17    1.42
   4   6   3    9.41    0.98
  -4   6  -3   10.44    1.41
  -4   6   3    9.79    1.56
   4   6  -3   12.17    1.09
  -4   6   3   10.80    0.82
   4   6   4   10.37    0.92
  -4   6   4    8.42    0.79
   4   6  -4    9.69    1.04
  -4   6   4    9.15    1.90
   4   6   5    8.83    0.99
  -4   6   5    9.80    0.92
  -4   6   5    6.61    2.04
   4   6  -5    9.75    1.13
   4   6   6   17.52    1.47
  -4   6   6   17.73    1.44
   4   6  -6   16.48    1.52
   4  -6  -7    0.47    0.78
   4   6   7   -0.02    0.74
  -4   6   7   -0.10    0.68
   4   6  -7   -0.87    0.71
  -4   7   0   25.89    2.16
   4   7   0   25.22    1.62
  -4   7   0   26.01    1.57
   4   7   0   25.18    2.08
  -4   7  -1   44.51    2.26
   4   7   1   42.89    2.80
   4   7   1   43.86    2.32
  -4   7  -1   42.91    2.90
   4   7   1   41.79    2.09
  -4   7   1   43.57    2.32
  -4   7   1   45.58    2.94
   4   7  -1   41.83    2.31
   4   7   2    9.92    0.97
  -4   7  -2   10.26    1.44
  -4   7  -2    9.18    0.86
   4   7   2    8.45    0.74
   4   7   2    8.00    1.25
  -4   7   2    6.91    1.29
  -4   7   2    7.53    0.93
   4   7  -2   10.33    0.98
   4   7   3   20.27    1.88
  -4   7  -3   23.03    1.97
   4   7   3   23.65    1.37
   4   7   3   18.02    1.51
   4   7  -3   21.98    1.52
  -4   7   3   23.35    2.45
   4   7   4    2.14    0.80
   4   7   4    2.05    0.59
  -4   7  -4    0.81    0.88
   4   7  -4    0.94    0.70
  -4   7   4    1.75    1.46
   4   7   5    6.43    0.89
  -4   7   5    6.14    0.79
   4   7  -5    8.05    1.06
  -4   7   5    6.54    2.09
   4   7   6    9.94    1.11
  -4   7   6    7.05    0.93
   4   7  -6    8.48    1.17
   4   8   0   14.61    1.73
  -4   8   0   13.63    1.82
  -4   8   0   14.14    1.20
   4   8   0   15.23    1.31
  -4   8  -1    1.68    0.60
   4   8   1    3.55    1.07
  -4   8  -1    3.13    1.08
   4   8   1    2.83    0.69
   4   8  -1    3.29    0.70
   4   8  -1    1.92    1.00
  -4   8   1    3.49    0.74
  -4   8   1    2.20    1.07
  -4   8  -2    3.04    1.10
  -4   8  -2    2.78    0.65
   4   8   2    2.49    0.70
   4   8   2    1.39    0.89
  -4   8   2    2.11    0.75
  -4   8   2    2.62    1.13
   4   8  -2    2.50    0.69
   4   8   3    6.99    0.98
   4   8   3    9.44    0.83
  -4   8  -3    7.32    1.37
   4   8  -3    8.62    1.04
  -4   8   3    7.99    1.72
   4   8   4    2.90    0.69
  -4   8  -4    3.63    1.17
   4   8   4    2.97    0.84
  -4   8   4    2.69    1.75
   4   8  -4    5.13    0.90
   4   8   5    8.99    1.06
   4   8  -5    9.92    1.25
  -4   9   0    2.46    1.17
   4   9   0    1.35    1.08
   4   9   0    3.67    0.82
  -4   9   0    2.78    0.74
   4   9   1    9.90    1.62
  -4   9  -1   10.61    1.10
   4   9   1    9.91    1.15
  -4   9  -1    9.65    1.65
   4   9  -1   11.60    1.76
   4   9  -1   10.45    1.15
  -4   9   1    9.06    1.11
  -4   9   1    9.52    1.68
  -4   9  -2   13.08    1.87
   4   9   2   11.65    1.22
  -4   9  -2   12.70    1.16
   4   9   2   12.36    1.77
   4   9  -2   13.85    1.94
   4   9  -2   13.40    1.34
  -4   9   2   10.22    1.77
  -4   9  -3    3.51    1.25
   4   9   3    3.72    0.92
   4   9  -3    3.17    0.85
   4   9  -4   32.43    2.21
  -4  10   0   26.24    1.85
   4  10   0   23.75    1.87
   4  10   1   12.96    1.38
  -4  10  -1   12.47    1.22
  -4  10   1    8.22    1.17
   4  10  -1   13.67    1.39
  -4  10  -2    9.78    1.75
   4  10   2    9.24    1.24
   4  10  -2   12.73    1.40
   4  10   3   11.84    1.35
   4  10  -3   14.82    1.49
  -4  11   0    4.09    0.96
   4  11   0    5.50    1.10
  -5   0   0    0.18    0.45
   5   0   0    0.06    0.23
   5   0  -1   34.49    1.66
   5   0   1   35.39    1.61
   5   0  -1   35.43    1.62
   5   0   2   74.15    3.26
   5   0  -2   73.36    3.34
   5   0  -3   75.62    3.47
   5   0   3   74.26    3.34
   5   0   4   62.62    2.92
   5   0  -4   63.67    3.06
   5   0  -5   15.99    1.31
   5   0   5   15.39    1.05
   5   0   6   34.69    1.92
   5   0  -6   34.92    2.15
   5   0   7    5.22    0.86
   5   0  -7    5.40    1.03
   5   0   8   17.77    1.51
   5   0  -8   18.31    1.74
   5   1   0   -0.08    0.22
  -5   1   0    0.18    0.61
   5   1   0   -0.05    0.20
   5  -1   0    0.06    0.19
   5   1   1    6.87    0.52
   5  -1  -1    7.03    0.53
   5  -1  -1    7.23    0.54
  -5   1  -1    7.74    0.62
   5   1  -1    6.85    0.53
  -5   1  -2    0.17    0.22
   5   1   2    0.42    0.27
   5  -1  -2    0.53    0.31
   5  -1   2    0.36    0.23
  -5   1   2    0.77    0.71
   5   1  -2    0.24    0.25
   5   1  -2    0.69    0.35
   5   1   3   20.88    1.15
   5  -1  -3   22.08    1.24
   5   1  -3   21.28    1.27
   5  -1   3   21.70    1.10
   5  -1  -4    3.45    0.60
   5   1   4    3.33    0.52
   5  -1   4    3.62    0.48
  -5   1   4    3.37    1.23
   5   1  -4    5.12    0.70
   5   1   5   11.36    0.95
   5  -1  -5   12.12    1.11
   5  -1   5   12.41    0.93
   5   1  -5   12.73    1.15
   5   1   6   12.16    1.07
   5  -1  -6   12.95    1.25
   5  -1   6   11.60    1.03
   5   1  -6   13.71    1.27
   5  -1  -7    4.52    0.95
   5   1   7    2.78    0.80
   5   1  -7    2.89    0.94
   5  -1  -8    3.44    1.06
   5   1   8    2.99    0.82
   5   1  -8    2.61    1.01
   5  -2   0    0.22    0.18
   5   2   0   -0.05    0.25
  -5   2   0    0.01    0.42
   5   2   0    0.17    0.22
   5   2   1   27.65    1.31
   5   2   1   25.06    1.32
  -5   2  -1   27.00    1.51
   5   2  -1   30.67    1.42
   5   2  -1   26.46    1.33
   5   2   2    0.36    0.26
   5   2   2    0.72    0.27
   5   2   2    0.74    0.27
  -5   2  -2    0.82    0.35
   5   2  -2    0.74    0.41
   5  -2   2    0.78    0.19
  -5   2   2    0.69    0.74
   5   2  -2    0.33    0.27
   5   2   3   75.55    3.52
   5  -2  -3   76.60    3.59
   5  -2   3   76.76    3.44
   5   2  -3   79.15    3.52
   5   2  -3   82.88    3.66
   5   2   4    1.30    0.42
   5  -2  -4    1.60    0.51
  -5   2   4    0.53    0.98
   5  -2   4    1.85    0.39
   5   2  -4    2.18    0.61
   5   2   5    4.85    0.67
   5  -2  -5    4.90    0.78
  -5   2   5    6.12    1.74
   5   2  -5    5.30    0.87
   5   2   6    7.08    0.87
   5  -2  -6    9.24    1.08
   5   2  -6    9.12    1.14
  -5   2   6    9.44    2.00
   5   2   7   11.90    1.10
   5  -2  -7    9.70    1.23
   5   2  -7    9.90    1.25
   5   2   8    5.24    0.97
   5  -2  -8    4.87    1.12
   5   2  -8    8.86    1.31
  -5   3   0   -0.14    0.39
   5   3   0    0.26    0.29
   5   3   0    0.05    0.26
  -5   3   0    0.09    0.26
   5   3   1   -0.03    0.27
   5   3   1   -0.19    0.25
   5   3   1   -0.27    0.33
  -5   3  -1   -0.05    0.21
  -5   3  -1    0.40    0.40
   5   3  -1    0.24    0.33
   5   3  -1   -0.05    0.24
  -5   3   1   -0.06    0.54
   5   3   2    0.04    0.28
   5   3   2    0.08    0.26
  -5   3  -2   -0.09    0.37
  -5   3  -2    0.34    0.22
   5   3   2    0.27    0.35
   5   3  -2    0.23    0.27
  -5   3   2    0.45    0.85
   5   3  -2    0.04    0.40
   5   3   3    0.59    0.36
   5   3   3    0.23    0.32
   5   3   3   -0.01    0.51
  -5   3   3    0.30    1.01
   5   3  -3    0.04    0.48
   5   3  -3    0.14    0.31
   5   3   4    9.73    0.83
   5  -3  -4    8.75    0.89
   5   3  -4   10.91    1.03
  -5   3   4   10.38    1.96
   5   3  -4    8.51    0.74
   5   3   5    0.40    0.50
   5  -3  -5    1.13    0.59
  -5   3   5   -0.22    1.33
   5   3  -5    1.46    0.70
   5  -3  -6   14.35    1.33
   5   3   6   14.29    1.19
  -5   3   6   10.68    2.32
   5   3  -6   14.17    1.42
   5  -3  -7    2.61    0.88
   5   3   7    3.12    0.77
   5   3  -7    2.15    0.91
   5   3   8    2.92    0.89
   5   4   0    0.00    0.31
  -5   4   0    0.09    0.29
  -5   4   0    0.38    0.52
   5   4   0   -0.23    0.26
   5   4   1   16.81    1.08
   5   4   1   18.28    1.00
   5   4   1   18.20    1.31
  -5   4  -1   17.20    1.38
  -5   4  -1   18.56    1.00
  -5   4   1   17.53    1.49
   5   4  -1   19.38    1.11
   5   4  -1   18.47    1.01
  -5   4  -2   27.16    1.73
   5   4   2   25.62    1.42
  -5   4  -2   25.95    1.33
   5   4   2   27.83    1.42
   5   4   2   25.98    1.64
   5   4  -2   27.41    1.48
  -5   4   2   27.18    2.13
   5   4  -2   26.46    1.36
   5   4   3   48.81    2.46
   5   4   3   50.71    2.45
   5   4  -3   52.09    2.60
   5   4  -3   51.98    2.43
  -5   4   3   52.18    3.51
   5   4   4   27.16    1.53
   5   4  -4   26.23    1.72
  -5   4   4   30.30    3.01
   5   4  -4   26.00    1.47
   5  -4  -5    8.63    0.95
   5   4   5    8.73    0.86
   5   4  -5    8.67    0.77
  -5   4   5    3.66    1.74
   5   4  -5   10.62    1.08
   5  -4  -6   12.30    1.28
   5   4   6   13.35    1.19
   5   4  -6   11.37    1.27
  -5   4   6   16.78    2.93
   5   4  -6   12.23    1.01
   5  -4  -7    6.00    1.05
   5   4   7    5.58    0.93
   5   4  -7    3.93    0.98
   5   5   0   -0.03    0.26
  -5   5   0   -0.19    0.50
  -5   5   0    0.50    0.36
   5   5   0   -0.51    0.34
   5   5   1    9.78    1.13
   5   5   1   11.17    0.90
  -5   5  -1   10.68    0.77
  -5   5  -1    9.26    1.16
   5   5   1    9.99    0.77
   5   5  -1   10.61    0.89
  -5   5   1   10.78    0.90
  -5   5   1    9.68    1.23
   5   5  -1   11.98    0.76
  -5   5  -2    0.56    0.58
  -5   5  -2   -0.22    0.31
   5   5   2    0.57    0.35
   5   5   2    0.38    0.53
   5   5   2    0.43    0.41
   5   5  -2    0.66    0.47
   5   5  -2    0.64    0.33
  -5   5   2    0.56    0.72
   5   5   3   36.48    1.88
  -5   5  -3   35.86    2.30
   5   5   3   39.72    1.98
   5   5  -3   36.69    2.00
  -5   5   3   29.86    2.79
   5   5  -3   38.95    1.83
   5   5   4    0.94    0.50
   5   5  -4    0.79    0.56
   5   5  -4   -0.01    0.38
  -5   5   4    0.84    1.40
  -5   5   4    1.24    0.47
   5   5   5   27.66    1.61
   5   5  -5   27.77    1.77
  -5   5   5   17.12    2.86
   5   5   6    5.77    0.91
   5  -5  -6    6.58    0.99
   5   5  -6    5.82    1.00
  -5   5   6    2.38    1.91
   5  -5  -7   16.96    1.62
   5   5   7   14.02    1.40
   5   5  -7   15.79    1.65
  -5   6   0    0.06    0.40
  -5   6   0   -0.50    0.60
   5   6   0   -0.49    0.30
   5   6   0   -0.24    0.44
  -5   6  -1   14.92    1.50
   5   6   1   12.47    0.93
   5   6   1   13.56    1.09
  -5   6  -1   12.66    0.97
   5   6   1   14.40    1.44
   5   6  -1   13.43    0.87
   5   6  -1   14.78    1.09
  -5   6   1   13.38    1.05
  -5   6   1   14.07    1.54
   5   6   2    2.67    0.78
   5   6   2    2.98    0.50
  -5   6  -2    2.91    0.49
   5   6   2    2.74    0.61
  -5   6  -2    3.61    0.91
   5   6  -2    3.19    0.44
  -5   6   2    2.32    0.94
   5   6  -2    3.05    0.65
   5   6   3   37.07    1.99
   5   6   3   36.52    1.87
  -5   6  -3   36.69    2.42
  -5   6   3   27.09    2.77
   5   6  -3   38.66    2.03
   5   6   4    1.85    0.67
  -5   6  -4    1.65    0.77
   5   6   4    3.80    0.68
  -5   6   4    2.73    0.52
  -5   6   4    0.25    1.46
   5   6  -4    2.81    0.72
   5   6   5    4.42    0.82
   5   6  -5    4.71    0.91
  -5   6   5    2.94    1.93
  -5   6   5    4.55    0.68
   5   6   6   -0.15    0.62
   5  -6  -6   -0.22    0.72
   5   6  -6    1.26    0.79
   5   7   0   -0.24    0.33
  -5   7   0    0.25    0.79
   5   7   0   -0.42    0.68
  -5   7   0   -0.45    0.46
   5   7   0    0.80    0.57
   5   7   1   -0.51    0.44
   5   7   1    0.05    0.36
  -5   7  -1    0.56    0.46
   5   7   1   -0.36    0.71
  -5   7  -1   -0.59    0.70
  -5   7   1   -0.19    0.55
  -5   7   1   -0.33    0.74
   5   7  -1   -0.16    0.52
   5   7   2    0.11    0.71
  -5   7  -2   -0.29    0.70
   5   7   2    0.77    0.42
  -5   7  -2    0.25    0.45
   5   7   2    0.16    0.56
   5   7  -2    0.05    0.50
  -5   7   2    0.69    0.95
   5   7   3    1.23    0.61
  -5   7  -3    0.48    0.73
   5   7   3    0.94    0.50
  -5   7   3    1.10    1.24
   5   7  -3    0.38    0.63
   5   7   4    3.55    0.81
   5   7   4    4.15    0.68
  -5   7  -4    3.30    1.02
  -5   7   4    3.46    1.64
   5   7  -4    4.30    0.84
   5   7   5    2.78    0.74
   5   7  -5    2.25    0.80
   5   7   6    8.50    1.08
   5   7  -6    6.98    1.14
   5   8   0   -0.38    0.58
   5   8   0    0.00    0.82
  -5   8   0    0.18    0.52
  -5   8   0   -0.29    0.80
   5   8   1    7.77    0.98
   5   8   1    6.36    1.31
  -5   8  -1    6.52    0.81
  -5   8  -1    7.48    1.41
  -5   8   1    6.37    0.92
  -5   8   1    6.59    1.37
   5   8  -1    5.54    1.24
   5   8  -1    6.04    0.94
  -5   8  -2    1.72    0.97
   5   8   2    1.91    0.50
   5   8   2    1.59    0.70
   5   8   2    1.13    0.89
  -5   8   2    1.27    1.04
   5   8  -2    1.65    0.64
   5   8   3   20.52    1.51
  -5   8  -3   19.37    2.08
   5   8   3   19.79    1.29
  -5   8   3   14.81    2.13
   5   8  -3   21.06    1.62
   5   8   4    2.67    0.69
   5   8   4    1.44    0.82
   5   8  -4    1.35    0.77
   5   8   5    1.95    0.68
   5   8  -5    1.81    0.84
   5   9   0    0.31    0.66
   5   9   0    0.07    0.91
  -5   9   0    0.47    1.01
  -5   9   0   -0.03    0.64
  -5   9  -1    2.01    1.08
   5   9   1    3.20    0.86
  -5   9  -1    4.31    0.80
   5   9   1    4.54    1.27
  -5   9   1    2.28    0.81
   5   9  -1    2.88    0.85
  -5   9   1    2.50    1.20
   5   9  -1    2.70    1.20
  -5   9  -2   -0.58    0.84
   5   9   2   -0.88    0.64
   5   9  -2   -0.27    0.71
   5   9   3    9.64    1.22
  -5   9  -3   12.85    2.13
   5   9  -3   14.32    1.37
   5   9   4    0.27    0.66
   5   9   4   -0.23    0.84
   5   9  -4    0.85    0.77
   5  10   0   -0.57    0.69
  -5  10   0   -1.30    0.65
  -5  10  -1    5.68    0.95
   5  10   1    4.63    1.05
  -5  10   1    3.90    0.93
   5  10  -1    4.67    0.99
   5  10   2    5.20    1.03
   5  10  -2    5.87    1.07
   5  10   3    7.13    1.16
   5  10  -3   10.56    1.32
   6   0   0    2.56    0.32
   6   0   1   59.08    2.71
  -6   0   1   59.02    3.22
   6   0  -1   63.66    2.77
   6   0  -1   62.18    2.73
   6   0  -2   -0.04    0.32
   6   0   2   -0.13    0.24
   6   0  -2   -0.09    0.26
   6   0   3   40.17    1.98
   6   0  -3   44.59    2.13
   6   0   4   36.00    1.83
   6   0  -4   37.64    2.00
   6   0  -5   31.43    1.91
   6   0   5   32.49    1.72
   6   0   6   47.40    2.52
   6   0  -6   50.41    2.79
   6   0   7   13.40    1.21
   6   0  -7   13.56    1.46
   6   0  -8    4.64    1.08
   6   1   0   99.71    4.37
   6  -1   0  100.26    4.34
  -6   1  -1    2.63    0.54
   6   1   1    4.05    0.39
   6  -1  -1    3.85    0.40
   6  -1  -1    3.59    0.36
   6  -1   1    4.26    0.34
   6   1  -1    4.13    0.41
   6   1  -1    2.22    0.41
  -6   1  -2   51.26    2.29
   6   1   2   47.90    2.30
   6  -1  -2   52.34    2.38
   6  -1   2   50.66    2.27
   6   1  -2   50.53    2.32
   6   1  -2   49.31    2.40
   6  -1  -3   -0.14    0.35
   6   1   3   -0.62    0.29
  -6   1   3   -0.57    0.73
   6  -1   3    0.21    0.26
   6   1  -3   -0.03    0.43
   6   1   4    4.85    0.57
   6  -1  -4    5.49    0.72
  -6   1   4    4.31    1.29
   6  -1   4    5.79    0.56
   6   1  -4    6.89    0.81
   6  -1  -5    0.64    0.56
   6   1   5   -0.04    0.44
   6  -1   5   -0.33    0.40
   6   1  -5   -0.21    0.60
   6  -1  -6   -0.05    0.62
   6   1   6   -0.72    0.51
   6   1  -6    0.91    0.69
   6  -1   6    0.81    0.54
   6  -1  -7    2.14    0.85
   6   1   7    2.65    0.77
   6   1  -7    2.39    0.91
   6   1   8   -0.33    0.77
   6  -1  -8    0.21    0.92
   6   1  -8    1.53    0.98
   6  -2   0  616.98   26.63
   6   2   0  649.50   26.70
   6   2   0  617.41   26.68
   6  -2  -1   11.51    0.69
   6   2   1   11.37    0.71
   6   2   1   12.47    0.70
  -6   2  -1   13.21    0.91
   6   2  -1   11.16    0.73
   6  -2   1   11.69    0.63
   6   2  -1    9.86    0.78
  -6   2  -2  220.57    9.20
   6   2   2  214.72    9.04
   6   2   2  220.87    9.10
   6  -2  -2  222.75    9.14
   6   2   2  193.68    9.05
   6   2  -2  221.93    9.11
  -6   2   2  180.02    9.79
   6  -2  -3    1.18    0.41
   6   2   3    0.59    0.32
  -6   2   3    0.55    1.12
   6   2  -3    1.30    0.52
   6  -2   3    0.89    0.28
   6   2  -3    1.26    0.36
   6   2   4   11.11    0.90
   6  -2  -4   12.29    0.99
  -6   2   4    7.56    1.75
   6  -2   4   12.43    0.84
   6   2  -4   11.57    1.07
   6  -2  -5    1.48    0.59
   6   2   5    0.77    0.52
   6   2  -5    0.70    0.62
  -6   2   5   -0.66    1.20
   6   2   6   -0.30    0.54
   6  -2  -6    0.42    0.66
   6   2  -6   -0.26    0.69
   6   2   7    1.97    0.73
   6  -2  -7    2.07    0.88
   6   2  -7    2.57    0.98
   6   2   8    0.60    0.72
   6  -2  -8    0.64    0.94
   6   2  -8   -0.46    0.99
   6   3   0   20.24    1.12
   6   3   0   22.33    1.17
   6  -3   0   20.54    1.02
  -6   3   0   21.94    1.48
   6   3   1   90.41    3.88
  -6   3  -1   87.53    4.13
  -6   3  -1   86.91    3.81
   6   3   1   87.98    3.88
   6   3  -1   81.60    3.87
   6   3  -1   89.25    3.94
   6   3   2    7.49    0.65
   6   3   2    8.11    0.65
   6   3   2    7.35    0.74
  -6   3  -2    7.71    0.85
   6   3  -2    8.48    0.66
   6   3  -2    7.44    0.76
  -6   3   2    8.51    1.48
   6   3   3   22.89    1.26
  -6   3  -3   22.85    1.45
   6   3   3   22.79    1.24
   6   3  -3   23.04    1.27
   6   3  -3   20.99    1.41
   6   3   4   -0.27    0.40
   6  -3  -4   -0.36    0.44
   6   3  -4   -0.61    0.34
   6   3  -4    0.42    0.55
  -6   3   4    0.79    1.30
   6   3   5    4.83    0.69
   6  -3  -5    3.28    0.72
  -6   3   5    1.06    1.43
   6   3  -5    4.46    0.64
   6   3  -5    6.46    0.96
   6  -3  -6    3.15    0.77
   6   3   6    2.98    0.70
  -6   3   6    0.80    1.49
   6   3  -6    1.71    0.55
   6   3  -6    1.76    0.84
   6   3   7    9.69    1.12
   6  -3  -7    8.50    1.24
   6   3  -7    9.34    1.28
  -6   4   0   28.30    1.45
   6   4   0   27.92    1.50
   6   4   0   28.37    1.44
  -6   4   0   29.14    1.86
   6   4   1   19.12    1.12
   6   4   1   21.02    1.19
   6   4   1   20.41    1.41
  -6   4  -1   19.64    1.08
  -6   4  -1   21.96    1.55
   6   4  -1   21.56    1.23
   6   4  -1   18.67    1.12
  -6   4   1   21.72    1.70
  -6   4  -2    6.77    0.89
   6   4   2    5.83    0.60
   6   4   2    6.06    0.60
   6   4   2    5.76    0.75
   6   4  -2    5.48    0.57
  -6   4   2    4.58    1.17
   6   4  -2    5.55    0.66
  -6   4  -3   17.50    1.38
   6   4   3   18.08    1.14
   6   4   3   20.39    1.15
   6   4  -3   15.20    1.27
   6   4  -3   19.16    1.12
   6   4   4   12.21    1.05
  -6   4   4   14.60    2.44
   6   4  -4   13.38    1.02
   6   4  -4   15.83    1.26
   6  -4  -5   18.44    1.38
   6   4   5   16.95    1.26
   6   4  -5   16.85    1.18
   6   4  -5   17.99    1.43
  -6   4   5   14.75    2.71
   6  -4  -6   27.00    1.76
   6   4   6   25.57    1.63
  -6   4   6   15.46    3.05
   6   4  -6   24.23    1.81
   6   4  -6   20.78    1.44
   6   4   7    9.56    1.17
   6  -4  -7    9.55    1.26
   6   4  -7   10.64    1.33
  -6   5   0   96.22    4.29
  -6   5   0   95.95    4.79
   6   5   0   93.85    4.24
   6   5   0   93.75    4.33
   6   5   1   12.09    1.21
   6   5   1   12.35    0.84
  -6   5  -1   11.85    1.33
   6   5   1   11.82    0.94
  -6   5  -1   12.61    0.84
   6   5  -1   14.25    0.89
   6   5  -1   11.10    1.00
  -6   5   1   12.13    1.42
   6   5   2   57.86    2.82
   6   5   2   56.39    3.09
  -6   5  -2   56.62    3.21
   6   5   2   60.90    2.80
  -6   5   2   62.34    3.61
   6   5  -2   59.25    2.89
   6   5  -2   59.16    2.74
  -6   5  -3   13.76    1.37
   6   5   3   13.22    1.07
   6   5   3   14.93    1.03
   6   5  -3   13.33    1.13
  -6   5   3   14.01    1.99
   6   5  -3   13.89    0.97
   6   5   4   12.73    1.04
   6   5  -4   12.52    1.17
   6   5  -4   11.42    0.96
   6  -5  -5    5.16    0.85
   6   5   5    5.44    0.82
  -6   5   5    3.04    1.83
   6   5  -5    5.65    0.96
   6  -5  -6    0.66    0.70
   6   5   6    0.96    0.71
   6   5  -6   -0.37    0.76
   6   5   7    0.99    0.79
   6  -5  -7   -1.12    0.69
   6   5  -7    0.30    0.87
   6   6   0  129.72    5.77
  -6   6   0  129.26    6.44
   6   6   0  132.17    5.92
  -6   6   0  132.22    5.86
   6   6   1    0.18    0.60
  -6   6  -1    0.27    0.38
   6   6   1    0.35    0.35
  -6   6  -1    0.25    0.67
   6   6   1    0.15    0.45
   6   6  -1    0.21    0.48
  -6   6   1   -0.31    0.47
  -6   6   1   -0.32    0.71
   6   6  -1    0.28    0.34
   6   6   2   50.75    2.47
   6   6   2   50.10    2.57
  -6   6  -2   51.75    3.08
   6   6  -2   52.32    2.64
  -6   6   2   49.59    3.31
   6   6  -2   51.39    2.43
   6   6   3    0.20    0.54
  -6   6  -3    0.59    0.67
   6   6   3    0.95    0.46
   6   6  -3    0.65    0.56
  -6   6   3    0.89    1.25
   6   6   4    0.23    0.62
   6   6   4   -1.05    0.47
  -6   6   4   -0.23    1.47
   6   6  -4    0.18    0.55
   6   6   5    1.55    0.65
  -6   6   5    2.39    1.91
   6   6  -5    2.51    0.83
   6   6   6    3.35    0.84
   6  -6  -6    3.34    0.86
   6   6  -6    3.50    0.96
  -6   7   0    3.44    1.08
   6   7   0    3.44    0.70
   6   7   0    2.55    0.92
  -6   7   0    2.22    0.59
   6   7   0    2.42    0.46
   6   7   1   71.06    3.53
  -6   7  -1   72.77    4.15
   6   7   1   73.68    3.38
   6   7   1   71.44    4.02
  -6   7  -1   72.09    3.44
   6   7  -1   71.21    3.56
  -6   7   1   74.09    4.22
  -6   7  -2    0.37    0.79
   6   7   2    0.00    0.57
   6   7   2    1.06    0.43
  -6   7   2    0.25    0.96
   6   7  -2    0.36    0.59
   6   7   3   22.85    1.44
   6   7   3   22.10    1.58
  -6   7  -3   23.69    2.05
  -6   7   3   22.90    2.69
   6   7  -3   22.10    1.62
   6   7   4    0.34    0.71
   6   7   4    0.72    0.58
   6   7  -4    0.89    0.72
  -6   7   4    0.38    1.47
   6   7   5    6.46    0.93
   6   7  -5    6.17    1.00
   6   7   6    2.82    0.77
   6  -7  -6    2.87    0.87
   6   7  -6    1.76    0.94
   6   8   0   69.67    3.65
  -6   8   0   73.01    3.59
  -6   8   0   76.41    4.43
   6   8   0   73.43    4.24
  -6   8  -1    0.04    0.49
   6   8   1    0.25    0.65
  -6   8  -1    0.50    0.88
   6   8   1    1.38    0.91
  -6   8   1    0.21    0.98
   6   8  -1    0.55    0.66
  -6   8   1    0.33    0.65
   6   8   2   25.42    1.69
  -6   8  -2   24.90    2.25
   6   8   2   28.59    1.52
  -6   8   2   22.52    2.48
   6   8  -2   22.08    1.69
   6   8   3    1.15    0.72
  -6   8  -3    1.91    1.02
   6   8   3    1.31    0.55
   6   8  -3    1.45    0.75
  -6   8   3    1.52    1.40
   6   8   4   -0.94    0.69
   6   8   4   -0.24    0.53
   6   8  -4   -0.03    0.75
   6   8   5    3.04    0.75
   6   8  -5    3.11    0.95
   6   9   0   37.58    2.97
  -6   9   0   37.61    2.23
   6   9   0   36.99    2.32
  -6   9   0   36.42    2.98
   6   9   1    5.13    0.96
   6   9   1    4.86    1.33
  -6   9  -1    4.61    1.34
   6   9  -1    3.47    1.28
  -6   9   1    2.71    0.82
   6   9  -1    4.47    0.90
  -6   9   1    3.54    1.29
  -6   9  -2   25.02    2.41
   6   9   2   24.52    1.83
   6   9  -2   23.30    1.79
   6   9   3    4.44    0.95
   6   9  -3    5.58    1.02
   6   9   4    5.20    0.82
   6   9   4    2.41    0.96
   6   9  -4    6.07    1.07
   6  10   0   13.33    1.44
  -6  10   0    9.32    1.16
   6  10   1    1.89    0.86
   6  10  -1    3.37    0.95
  -6  10   1    2.94    0.88
   6  10   2    2.00    0.89
   6  10  -2    2.64    0.89
   7   0   0   -0.08    0.23
   7   0   0    0.26    0.25
   7   0  -1   16.90    0.95
   7   0   1   15.61    0.88
   7   0  -1   16.14    0.92
   7   0  -2    1.28    0.40
   7   0   2    1.48    0.32
   7   0  -2    1.57    0.35
   7   0  -3   37.79    1.95
   7   0   3   37.19    1.81
   7   0  -4    1.12    0.55
   7   0   4    0.94    0.38
   7   0  -5   15.56    1.39
   7   0   5   15.53    1.09
   7   0   6    2.38    0.63
   7   0  -6    2.37    0.82
   7   0  -7    0.71    0.89
   7   0   7   -0.27    0.65
   7  -1   0   -0.09    0.22
   7   1   0    0.25    0.24
   7   1   0   -0.30    0.25
  -7   1   0   -0.25    0.61
   7  -1   0    0.13    0.23
   7  -1  -1   15.95    0.89
   7  -1  -1   15.07    0.86
   7   1   1   16.34    0.90
   7   1  -1   12.53    0.94
   7   1  -1   16.90    0.90
   7  -1   1   16.57    0.84
   7   1   2    2.90    0.38
   7  -1  -2    2.81    0.41
   7  -1  -2    3.26    0.46
   7   1  -2    2.63    0.50
   7  -1   2    3.42    0.35
  -7   1   2    0.21    0.87
   7   1  -2    2.92    0.39
   7   1   3   44.33    2.08
   7  -1  -3   43.29    2.17
   7  -1   3   43.13    2.03
   7   1  -3   41.96    2.08
   7   1  -3   43.17    2.21
   7  -1  -4   -0.08    0.46
   7   1   4    0.03    0.36
   7   1  -4    0.52    0.55
  -7   1   4    0.65    0.97
   7  -1   4    0.06    0.37
   7  -1  -5    7.80    0.94
   7   1   5    7.92    0.78
   7  -1   5    7.89    0.75
   7   1  -5    6.38    0.90
   7  -1  -6    6.91    0.99
   7   1   6    6.75    0.84
   7   1  -6    5.92    0.99
   7   1   7    2.22    0.70
   7  -1  -7    3.26    0.99
   7   1  -7    2.03    0.99
   7   2   0    0.01    0.29
  -7   2   0   -0.35    0.61
   7   2   0    0.04    0.24
   7  -2   0    0.11    0.21
   7  -2   0    0.06    0.20
  -7   2  -1    0.34    0.39
   7   2   1    0.32    0.30
   7  -2  -1    0.37    0.27
   7   2   1    0.57    0.27
   7  -2  -1    0.30    0.24
   7   2  -1    0.37    0.32
   7  -2   1    0.20    0.19
   7   2  -1    0.37    0.35
  -7   2   1   -0.02    0.83
   7  -2  -2    9.11    0.74
  -7   2  -2    9.43    0.78
   7   2   2    8.91    0.69
   7   2  -2   10.71    0.74
   7   2  -2    9.68    0.85
   7  -2   2    9.89    0.62
   7   2   3    0.03    0.36
   7  -2  -3   -0.50    0.35
   7   2  -3   -0.20    0.32
  -7   2   3   -0.31    0.91
   7  -2   3   -0.10    0.25
   7   2  -3    0.01    0.45
   7  -2  -4   16.80    1.25
   7   2   4   16.88    1.11
   7   2  -4   17.77    1.10
   7   2  -4   16.06    1.28
   7   2   5   21.13    1.32
   7  -2  -5   19.94    1.44
   7   2  -5   19.67    1.30
   7   2  -5   18.38    1.52
   7   2   6   17.84    1.34
   7  -2  -6   16.36    1.48
   7   2  -6   17.03    1.57
   7   2   7   45.67    2.55
   7  -2  -7   43.89    2.71
   7   2  -7   44.65    2.81
   7  -3   0   -0.10    0.20
   7   3   0    0.07    0.30
   7   3   0    0.43    0.32
  -7   3   0   -0.21    0.51
   7   3   1    5.32    0.51
   7  -3  -1    5.28    0.45
   7   3   1    5.05    0.52
  -7   3  -1    5.28    0.70
   7   3  -1    5.36    0.53
   7   3  -1    4.71    0.57
  -7   3   1    3.74    1.05
   7  -3   1    4.27    0.40
  -7   3  -2   -0.18    0.38
   7   3   2    0.23    0.31
   7   3   2    0.15    0.29
  -7   3   2   -1.07    1.00
   7   3  -2    0.21    0.33
   7   3  -2   -0.44    0.44
   7   3   3   18.24    1.11
   7  -3  -3   18.38    1.15
  -7   3   3   13.89    2.17
   7   3  -3   16.84    1.08
   7   3  -3   18.41    1.28
   7   3   4   10.63    0.90
   7  -3  -4   11.76    1.01
   7   3  -4   13.69    1.20
   7   3  -4   10.65    0.86
  -7   3   4    6.68    1.93
   7  -3  -5    1.55    0.64
   7   3   5    2.24    0.59
   7   3  -5    1.36    0.72
   7   3  -5    1.41    0.48
  -7   3   5    1.57    1.79
   7   3   6   29.82    1.81
   7  -3  -6   28.82    1.89
   7   3  -6   25.71    1.62
   7   3  -6   29.01    2.09
  -7   3   6   23.57    3.37
   7   3   7    7.95    1.09
   7  -3  -7    8.80    1.26
   7   3  -7    8.36    0.96
   7   3  -7    8.40    1.28
   7   4   0    0.00    0.30
   7   4   0    0.46    0.39
  -7   4   0    0.13    0.50
   7   4   1    7.77    0.67
   7   4   1    6.94    0.65
  -7   4  -1    6.81    0.93
   7   4   1    7.41    0.93
   7  -4  -1    7.26    0.57
   7   4  -1    6.83    0.61
  -7   4   1    5.05    0.97
   7   4  -1    7.55    0.74
   7   4   2   -0.38    0.34
  -7   4  -2   -0.36    0.45
   7   4   2    0.59    0.38
  -7   4   2    0.07    0.96
   7   4  -2   -0.06    0.45
   7   4  -2    0.69    0.39
   7   4   3   17.45    1.13
   7   4  -3   17.47    1.13
   7   4  -3   17.20    1.32
   7  -4  -4    1.53    0.58
   7   4   4    2.04    0.55
   7   4  -4    1.89    0.51
   7   4  -4    1.92    0.66
  -7   4   4    1.15    1.55
   7   4   5    3.88    0.70
   7  -4  -5    4.68    0.80
   7   4  -5    2.66    0.58
  -7   4   5    1.19    1.80
   7   4  -5    4.01    0.90
   7  -4  -6    3.32    0.85
   7   4   6    3.55    0.79
  -7   4   6    1.96    1.93
   7   4  -6    3.33    0.95
   7   4  -6    2.98    0.61
   7   4   7    1.29    0.73
   7  -4  -7    0.24    0.79
   7   4  -7    0.93    0.93
   7   4  -7    0.67    0.63
   7   5   0   -0.37    0.33
   7   5   0    0.08    0.41
  -7   5   0    0.50    0.64
  -7   5   0    1.11    0.42
   7   5   1   16.33    1.10
   7   5   1   14.89    1.03
   7   5   1   15.22    1.39
  -7   5  -1   15.88    1.47
  -7   5   1   16.99    1.68
   7   5  -1   16.18    1.02
   7   5  -1   16.12    1.19
   7   5   2    6.44    0.67
   7   5   2    7.01    0.73
  -7   5  -2    7.29    1.02
   7   5  -2    6.29    0.66
   7   5  -2    6.47    0.81
  -7   5   2    7.36    1.45
   7   5   3   37.32    1.99
   7   5   3   40.97    1.99
  -7   5   3   29.58    3.09
   7   5  -3   39.26    2.12
   7   5  -3   39.78    1.97
   7   5   4    7.51    0.85
  -7   5   4    6.99    2.02
   7   5  -4    9.46    0.82
   7   5  -4    7.38    0.94
   7  -5  -5    8.93    1.05
   7   5   5    8.22    0.91
   7   5  -5    8.70    1.17
   7   5  -5    8.30    0.84
  -7   5   5   10.62    2.62
   7  -5  -6   -1.10    0.63
   7   5   6    0.58    0.68
   7   5  -6    0.62    0.85
   7   5   7   -0.31    0.68
   7  -5  -7   -0.36    0.77
   7   5  -7   -0.61    0.92
   7   6   0   -0.44    0.31
  -7   6   0   -0.17    0.67
   7   6   0    0.32    0.52
  -7   6   0    0.22    0.43
   7   6   1    2.48    0.79
  -7   6  -1    2.46    0.85
   7   6   1    2.61    0.49
   7   6   1    2.58    0.61
   7   6  -1    1.74    0.55
  -7   6   1    1.94    0.90
   7   6  -1    1.32    0.44
   7   6   2    1.50    0.58
   7   6   2    0.99    0.47
  -7   6  -2    0.75    0.69
   7   6  -2    1.38    0.44
  -7   6   2    0.32    1.00
   7   6  -2    1.03    0.63
   7   6   3    3.51    0.68
   7   6   3    2.52    0.58
  -7   6   3    2.64    1.48
   7   6  -3    4.16    0.58
   7   6  -3    3.09    0.70
   7   6   4    4.11    0.67
   7   6  -4    4.41    0.86
  -7   6   4    3.01    1.83
   7   6   5    1.88    0.63
   7   6  -5    2.02    0.81
  -7   6   5   -1.00    2.78
   7   6   6    4.03    0.90
   7  -6  -6    5.28    1.02
   7   6  -6    4.32    1.01
  -7   7   0    0.61    0.51
   7   7   0    0.35    0.74
   7   7   0   -0.22    0.54
  -7   7   0    0.45    0.83
   7   7   0   -0.65    0.34
  -7   7  -1    1.90    0.93
   7   7   1    1.42    0.62
   7   7   1    1.96    0.89
   7   7   1    1.29    0.48
   7   7  -1    1.64    0.44
  -7   7   1    1.13    0.96
   7   7  -1    0.95    0.65
   7   7   2   -0.23    0.44
  -7   7  -2    0.73    0.80
   7   7   2    1.20    0.60
   7   7  -2    0.34    0.64
  -7   7   2    0.34    1.06
   7   7   3    5.56    0.84
   7   7   3    6.44    0.79
  -7   7   3    6.38    1.79
   7   7  -3    7.15    0.98
   7   7   4   11.34    1.02
  -7   7   4    8.29    2.20
   7   7  -4   10.81    1.25
   7   7   5    0.06    0.62
   7   7  -5   -0.14    0.72
  -7   8   0   -0.19    0.87
   7   8   0   -0.44    0.84
   7   8   0    0.04    0.65
  -7   8   0   -0.05    0.57
   7   8   1    0.77    0.69
  -7   8  -1    0.76    0.89
   7   8   1    0.75    0.46
  -7   8   1    1.53    1.09
   7   8  -1    0.42    0.69
  -7   8  -2    0.85    0.95
   7   8   2    0.03    0.46
   7   8   2    1.29    0.67
  -7   8   2    0.34    1.11
   7   8  -2   -1.62    0.63
   7   8   3    2.38    0.62
   7   8   3    0.76    0.66
   7   8  -3    1.32    0.72
   7   8   4    3.16    0.77
   7   8  -4    3.47    0.97
   7   8   5    0.22    0.66
   7   8  -5    1.89    0.89
   7   9   0   -0.57    0.73
   7   9   0    0.20    0.98
  -7   9   0   -0.10    1.03
  -7   9  -1    4.00    1.29
   7   9   1    5.84    1.01
   7   9  -1    4.26    0.94
   7   9  -1    6.26    1.49
   7   9   2    2.20    0.83
  -7   9  -2    3.17    1.23
   7   9  -2    2.73    0.89
   7   9   3   12.24    1.28
   7   9   3   14.15    1.18
   7   9  -3   14.70    1.50
   7   9   4    2.09    0.74
   7   9  -4    2.76    0.97
   7  10   0   -0.61    0.79
   7  10   1    2.83    0.94
   7  10  -1    1.52    0.84
   7  10   2   -1.64    0.76
   7  10  -2    0.44    0.83
   8   0   0   13.27    0.77
   8   0   0   10.83    0.73
   8   0  -1   68.37    3.16
   8   0  -1   69.10    3.13
   8   0   1   70.77    3.12
   8   0  -2    9.37    0.79
   8   0   2    8.71    0.68
   8   0  -2    8.57    0.69
   8   0  -3   76.65    3.94
   8   0  -3   86.47    3.87
   8   0   3   92.04    3.84
   8   0   4    1.70    0.46
   8   0  -4    0.64    0.59
   8   0   5   32.78    1.79
   8   0  -5   33.86    2.05
   8   0   6    2.62    0.67
   8   0  -6    3.00    0.87
   8   0  -7   -0.42    0.77
   8   0   7    0.42    1.06
   8   1   0   42.11    2.01
   8  -1   0   45.53    1.99
   8  -1   0   47.75    1.97
   8   1   0   35.25    1.98
   8   1   1   48.36    2.36
   8  -1  -1   52.09    2.38
   8  -1  -1   51.64    2.36
   8   1  -1   50.78    2.37
   8  -1   1   52.37    2.33
   8   1   2    5.15    0.53
   8  -1  -2    5.43    0.52
   8  -1  -2    5.66    0.59
   8   1  -2    4.71    0.52
   8  -1   2    5.44    0.48
   8   1  -2    4.62    0.62
   8  -1  -3   11.13    0.90
   8   1   3   10.88    0.79
   8  -1   3   10.23    0.72
   8   1  -3    9.10    0.90
   8   1  -3   11.53    0.83
  -8   1   3    5.95    1.57
   8   1   4   20.06    1.21
   8  -1  -4   20.28    1.36
   8   1  -4   21.15    1.44
   8  -1   4   18.62    1.14
  -8   1   4   16.12    2.38
   8   1  -4   18.34    1.21
   8  -1  -5    1.37    0.67
   8   1   5    1.31    0.53
   8  -1   5    1.08    0.50
   8   1  -5   -0.17    0.68
   8  -1  -6   30.89    2.04
   8   1   6   28.51    1.84
   8   1  -6   32.39    2.13
   8   1   7   -0.21    0.61
   8  -1  -7    0.50    0.85
   8   1  -7   -1.82    0.75
   8   2   0   39.79    1.93
   8  -2   0   40.16    1.88
   8  -2   0   38.95    1.86
   8   2   0   43.85    1.96
  -8   2  -1   51.62    2.74
   8  -2  -1   55.77    2.42
   8   2   1   51.83    2.43
   8  -2  -1   51.99    2.39
   8  -2   1   54.55    2.35
   8   2  -1   52.96    2.45
   8   2  -1   45.51    2.48
   8  -2  -2   27.92    1.39
   8  -2  -2   25.19    1.41
   8   2   2   25.35    1.37
   8   2  -2   26.03    1.41
  -8   2   2   26.96    2.64
   8  -2   2   26.04    1.28
   8   2   3   28.74    1.51
   8  -2  -3   27.34    1.58
   8  -2   3   31.39    1.70
  -8   2   3   27.32    3.00
   8   2  -3   28.40    1.69
   8   2  -3   25.95    1.52
   8   2   4   17.41    1.14
   8  -2  -4   17.66    1.25
  -8   2   4   14.14    2.48
   8   2  -4   17.48    1.37
   8   2  -4   17.79    1.15
   8  -2  -5    7.65    0.96
   8   2   5    7.34    0.80
   8   2  -5    5.93    0.74
  -8   2   5    7.15    2.15
   8   2  -5    7.93    1.05
   8   2   6    7.66    0.90
   8  -2  -6    7.24    1.05
   8   2  -6    6.26    0.83
   8   2  -6    7.46    1.19
   8  -2  -7    5.83    1.15
   8   2   7    5.70    0.92
   8   2  -7    7.04    0.93
   8   2  -7    7.99    1.30
   8  -3   0  170.54    7.68
   8   3   0  167.27    7.77
   8   3   0  178.03    7.78
  -8   3   0  199.24    8.34
   8   3   1   46.06    2.26
  -8   3  -1   49.54    2.59
   8   3   1   48.27    2.29
   8  -3  -1   47.96    2.23
   8   3  -1   48.88    2.34
   8   3  -1   48.37    2.30
   8  -3  -2   71.06    3.35
   8   3   2   73.21    3.33
   8   3  -2   73.58    3.33
   8   3   3   19.55    1.22
   8  -3  -3   19.94    1.29
  -8   3   3   21.18    2.69
   8   3  -3   18.12    1.37
   8   3  -3   22.08    1.24
   8   3   4    0.61    0.47
   8  -3  -4    0.29    0.50
  -8   3   4   -0.73    1.33
   8   3  -4   -0.79    0.59
   8   3  -4    0.71    0.44
   8   3   5    0.62    0.55
   8  -3  -5    1.14    0.62
   8   3  -5    0.69    0.49
   8   3  -5    1.82    0.74
  -8   3   5   -0.55    1.76
   8   3   6    8.99    1.02
   8  -3  -6    8.90    1.12
   8   3  -6   11.50    1.34
  -8   3   6    6.53    2.29
   8   3  -6    7.72    0.89
   8  -3  -7    0.10    0.78
   8   3   7    0.47    0.67
   8   3  -7    0.37    0.60
   8   3  -7    0.77    0.96
   8   4   0   13.33    1.00
   8   4   0   13.62    0.93
  -8   4   0   15.52    1.47
   8   4   1   19.54    1.18
   8   4   1   20.71    1.22
   8  -4  -1   17.43    1.32
  -8   4  -1   20.04    1.54
   8   4  -1   19.43    1.20
   8   4  -1   20.62    1.27
  -8   4   1   23.95    2.15
   8   4   2    7.71    0.71
   8   4   2    7.99    0.72
   8   4  -2    9.14    0.75
   8   4  -2    8.17    0.85
   8   4   3   33.34    1.72
   8   4  -3   31.29    1.70
   8   4  -3   29.67    1.87
  -8   4   3   31.00    3.18
   8   4   4    1.89    0.54
   8  -4  -4    1.81    0.58
   8   4  -4    1.38    0.70
  -8   4   4    1.96    1.89
   8   4  -4    1.63    0.52
   8   4   5   15.76    1.22
   8  -4  -5   14.52    1.29
   8   4  -5   14.73    1.15
  -8   4   5   16.27    3.10
   8   4  -5   14.18    1.39
   8  -4  -6    2.50    0.81
   8   4   6    2.91    0.75
   8   4  -6    1.52    0.60
   8   4  -6    2.58    0.90
   8   4   7   -0.29    0.74
   8  -4  -7    0.56    0.79
   8   4  -7   -0.58    0.83
   8   4  -7   -0.12    0.59
   8   5   0    0.82    0.50
   8   5   0    0.56    0.38
  -8   5   0    0.12    0.66
   8   5   1   28.62    1.53
  -8   5  -1   27.80    1.96
   8   5   1   27.70    1.60
   8   5  -1   28.05    1.67
   8   5  -1   25.75    1.52
  -8   5   1   27.73    2.22
   8   5   2    6.63    0.73
   8   5   2    6.10    0.72
  -8   5  -2    6.14    1.10
  -8   5   2    4.41    1.44
   8   5  -2    6.39    0.80
   8   5  -2    5.12    0.64
   8   5   3    1.60    0.52
   8   5  -3    2.97    0.72
  -8   5   3    2.07    1.51
   8   5  -3    4.62    0.63
   8   5   4   46.56    2.43
   8  -5  -4   46.43    2.49
   8   5  -4   45.92    2.36
   8   5  -4   48.30    2.61
  -8   5   4   43.56    4.16
   8  -5  -5    0.34    0.60
   8   5   5    0.10    0.57
  -8   5   5   -0.32    1.77
   8   5  -5    0.93    0.53
   8   5  -5    0.34    0.72
   8   5   6   34.25    2.18
   8  -5  -6   35.64    2.30
   8   5  -6   40.01    2.49
   8   6   0   14.81    1.05
  -8   6   0   17.21    1.74
   8   6   0   16.56    1.29
   8   6   1    1.92    0.61
  -8   6  -1    2.18    0.85
   8   6   1    1.98    0.52
   8   6  -1    1.38    0.63
   8   6  -1    3.69    0.55
  -8   6   1    1.08    0.89
  -8   6  -2   12.24    1.48
   8   6   2   14.02    1.04
   8   6   2   13.34    1.13
   8   6  -2   12.06    1.00
  -8   6   2   12.19    1.93
   8   6  -2   12.64    1.16
   8   6   3   -0.28    0.48
   8   6  -3    0.38    0.64
   8   6  -3    0.44    0.44
  -8   6   3    0.24    1.46
   8   6   4    6.93    0.82
   8   6  -4    6.93    1.00
  -8   6   4    2.86    1.76
   8   6   5   -0.05    0.61
   8  -6  -5   -0.20    0.62
   8   6  -5    0.08    0.74
   8   6   6    3.39    0.87
   8  -6  -6    3.46    0.91
   8   6  -6    1.99    0.98
   8   7   0  123.30    5.74
   8   7   0  125.71    6.27
   8   7   0  121.24    5.56
  -8   7   0  125.63    6.40
  -8   7  -1   26.22    2.29
   8   7   1   29.54    1.79
   8   7   1   26.23    1.59
  -8   7   1   26.04    2.47
   8   7  -1   29.88    1.81
   8   7  -1   29.09    1.56
   8   7   2   58.20    3.02
   8   7   2   59.69    2.91
  -8   7  -2   59.11    3.62
   8   7  -2   61.39    3.14
   8   7  -2   54.42    2.93
  -8   7   2   61.86    4.10
   8   7   3   14.12    1.16
   8   7  -3   14.62    1.40
   8   7   4    3.26    0.71
   8   7  -4    2.78    0.83
   8   7   5    2.12    0.72
   8   7  -5    2.49    0.93
  -8   8   0    7.73    1.45
   8   8   0    9.48    1.16
   8   8   0    7.60    1.03
   8   8   0    8.15    1.46
   8   8   1    1.12    0.73
   8   8   1    0.30    0.51
  -8   8  -1    1.58    1.02
  -8   8   1    0.00    1.04
   8   8  -1    1.22    0.77
   8   8   2    5.59    0.71
   8   8   2    4.75    0.91
  -8   8  -2    4.68    1.67
  -8   8   2    3.29    1.51
   8   8  -2    5.54    0.99
   8   8   3    0.40    0.59
   8   8   3    0.26    0.71
   8   8  -3    0.76    0.74
   8   8   4    1.39    0.64
   8   8  -4    1.44    0.89
   8   9   0    0.20    0.73
  -8   9  -1    7.30    2.17
   8   9   1    7.94    1.15
   8   9  -1   10.07    1.24
   8   9  -1    7.61    1.83
   8   9   2    1.90    0.83
   8   9  -2    2.72    0.93
   8   9   3    0.68    0.80
   8   9   3    1.15    0.62
   8   9  -3    2.31    0.95
   8  10   0    3.00    0.96
   8  10   1    4.24    1.01
   8  10  -1    4.18    1.10
   9   0   0    0.41    0.29
   9   0   0   -0.10    0.30
   9   0  -1    5.14    0.51
   9   0   1    4.53    0.47
   9   0  -1    4.72    0.55
   9   0  -2   15.10    1.00
   9   0  -2   17.78    1.12
   9   0   2   16.22    0.99
   9   0   3   55.91    2.69
   9   0  -3   64.07    2.89
   9   0  -3   52.50    2.70
   9   0  -4   17.75    1.33
   9   0   4   16.50    1.10
   9   0  -4   15.36    1.16
   9   0  -5   54.08    2.90
   9   0   5   52.25    2.65
   9   0  -6    1.52    0.81
   9   0   6    1.77    0.63
   9   0  -7   15.49    1.64
   9  -1   0   -0.06    0.26
   9   1   0    0.07    0.31
   9   1   0    0.00    0.28
  -9   1   0    0.71    0.80
   9  -1  -1   14.37    0.89
   9   1   1   14.76    0.89
   9  -1  -1   12.86    0.88
   9   1  -1   14.56    0.92
   9   1  -1   13.05    0.95
   9  -1   1   14.22    0.85
   9  -1  -2    0.48    0.40
   9   1   2    0.46    0.36
   9  -1  -2    0.64    0.35
   9  -1   2    0.08    0.27
  -9   1   2    0.25    1.15
   9   1  -2    0.02    0.34
   9   1  -2    0.90    0.49
   9   1   3   43.38    2.13
   9  -1  -3   44.61    2.25
   9  -1  -3   44.14    2.15
   9   1  -3   40.82    2.13
   9  -1   3   43.09    2.07
   9   1  -3   35.47    2.24
  -9   1   3   55.32    3.66
   9  -1  -4   -0.04    0.54
   9   1   4   -0.67    0.39
   9  -1   4   -0.24    0.36
   9   1  -4    0.98    0.63
   9   1  -4   -0.18    0.42
   9  -1  -5    9.94    1.12
   9   1   5   10.80    0.95
   9   1  -5   11.83    1.28
   9   1  -5    9.63    0.95
   9  -1  -6    2.27    0.85
   9   1   6    2.41    0.69
   9   1  -6    1.57    0.91
   9   1  -6    2.13    0.66
   9   1   7    0.94    0.76
   9  -1  -7   -0.22    0.86
   9   1  -7    0.88    0.67
   9   1  -7    0.31    0.94
   9   2   0    0.01    0.32
   9  -2   0   -0.30    0.25
  -9   2   0    0.30    0.75
   9   2   0    0.50    0.34
   9   2   1    7.85    0.66
   9  -2  -1    7.54    0.61
   9  -2  -1    7.70    0.66
   9   2  -1    6.35    0.71
   9  -2   1    6.90    0.58
   9   2  -1    8.81    0.70
   9  -2  -2    1.15    0.41
   9   2   2    1.45    0.40
   9  -2  -2    0.87    0.37
   9  -2   2    1.48    0.32
  -9   2   2    0.82    1.25
   9   2  -2    1.48    0.43
   9   2  -2    1.18    0.57
   9  -2  -3    8.97    0.79
   9  -2  -3   10.82    0.92
   9   2   3    9.90    0.80
  -9   2   3    4.39    1.75
   9   2  -3    8.83    0.98
   9   2  -3    9.10    0.82
   9  -2  -4    2.02    0.63
   9   2   4    3.26    0.59
   9   2  -4    2.30    0.56
  -9   2   4    4.07    1.87
   9   2  -4    3.86    0.86
   9  -2  -5    0.45    0.63
   9   2   5    0.31    0.53
   9   2  -5    0.60    0.51
   9   2  -5    0.94    0.82
  -9   2   5    1.68    1.90
   9   2   6   14.69    1.25
   9  -2  -6   14.53    1.46
   9   2  -6   15.89    1.61
   9   2  -6   15.18    1.24
   9   2   7    0.67    0.67
   9  -2  -7    0.88    0.89
   9   2  -7    1.42    0.97
   9   2  -7    1.79    0.68
  -9   3   0   -0.13    0.73
   9   3   0   -0.26    0.35
   9  -3   0   -0.30    0.24
   9   3   0   -0.05    0.34
   9   3   1    7.47    0.76
   9  -3  -1    6.98    0.65
   9  -3  -1    7.32    0.59
   9   3   1    6.66    0.63
  -9   3   1    4.95    1.39
   9   3  -1    7.43    0.71
   9   3  -1    7.15    0.68
   9  -3  -2    3.04    0.51
   9  -3  -2    1.22    0.40
   9   3   2    3.51    0.50
   9   3  -2    2.84    0.62
   9   3  -2    2.23    0.51
  -9   3   2    2.55    1.32
   9   3   3   19.15    1.23
   9  -3  -3   17.88    1.25
  -9   3   3   17.16    2.63
   9   3  -3   19.93    1.23
   9   3  -3   21.10    1.46
   9  -3  -4    5.25    0.76
   9   3   4    4.14    0.64
   9   3  -4    4.63    0.67
   9   3  -4    5.57    0.93
  -9   3   4    4.43    2.07
   9   3   5   -0.52    0.51
   9  -3  -5    0.59    0.61
   9   3  -5    0.24    0.74
   9   3  -5    0.90    0.51
  -9   3   5   -0.61    1.63
   9   3   6    1.41    0.73
   9  -3  -6    2.03    0.80
   9   3  -6    2.56    0.64
   9   3  -6    2.47    1.00
   9  -3  -7    6.14    1.11
   9   3   7    6.08    0.96
   9   3  -7    6.43    0.92
   9   3  -7    7.95    1.39
   9   4   0   -0.06    0.33
  -9   4   0    0.13    0.74
   9   4   0    0.17    0.39
   9   4   1    3.62    0.56
  -9   4  -1    3.86    0.78
   9   4   1    4.77    0.56
  -9   4   1    3.29    1.22
   9   4  -1    4.75    0.59
   9   4  -1    4.41    0.65
   9  -4  -2    8.95    0.75
   9   4   2    8.96    0.79
   9   4  -2    9.64    0.83
   9   4  -2    8.34    0.87
  -9   4   2    8.41    1.84
   9  -4  -3   29.79    1.73
   9   4   3   29.39    1.68
   9   4  -3   28.93    1.67
   9   4  -3   33.59    1.92
   9  -4  -4    7.18    0.88
   9   4   4    7.92    0.82
   9   4  -4    7.20    1.03
   9   4  -4    7.46    0.83
  -9   4   4    9.58    2.53
   9   4   5   23.86    1.59
   9  -4  -5   22.90    1.67
   9   4  -5   28.12    1.95
   9   4  -5   24.70    1.62
   9   4   6    0.64    0.66
   9  -4  -6    0.63    0.73
   9   4  -6    0.02    0.56
   9   4  -6    0.42    0.88
   9   5   0    0.24    0.40
  -9   5   0    0.32    0.75
   9   5   0    0.26    0.49
   9   5   1   11.90    1.03
  -9   5  -1   13.35    1.39
   9   5   1   13.24    1.03
   9   5  -1   12.26    1.12
  -9   5   1   10.97    1.68
   9   5  -1   12.07    1.02
   9   5   2    0.47    0.47
  -9   5   2   -0.43    1.26
   9   5  -2   -0.72    0.53
   9   5  -2   -0.37    0.40
   9   5   3   43.26    2.30
  -9   5   3   43.20    3.88
   9   5  -3   46.39    2.30
   9   5   4    2.07    0.66
   9  -5  -4    3.51    0.72
  -9   5   4    1.16    1.85
   9   5  -4    3.39    0.63
   9   5  -4    3.62    0.88
   9  -5  -5   16.09    1.40
   9   5   5   15.76    1.33
   9   5  -5   16.93    1.28
   9   5  -5   20.05    1.66
   9  -5  -6   10.10    1.24
   9   5   6    9.08    1.08
   9   5  -6    8.64    1.32
   9   5  -6    7.67    0.97
  -9   6   0   -0.11    0.84
   9   6   0   -0.04    0.57
   9   6   0   -0.49    0.39
   9   6   1    3.15    0.58
  -9   6  -1    3.34    0.95
   9   6   1    3.60    0.72
   9   6  -1    2.84    0.57
  -9   6   1    1.61    1.08
   9   6  -1    4.25    0.76
   9   6   2    2.17    0.58
   9   6  -2    1.64    0.73
  -9   6   2    2.39    1.45
   9   6  -2    3.50    0.60
   9   6   3   13.66    1.13
   9   6  -3   15.24    1.37
   9   6  -3   14.94    1.16
   9   6   4    0.72    0.59
   9   6  -4   -0.01    0.75
   9   6  -4   -0.09    0.48
  -9   6   4    1.96    1.91
   9  -6  -5    6.55    0.98
   9   6   5    6.69    0.97
   9   6  -5    5.17    1.02
   9  -6  -6    3.17    0.93
   9   6   6    2.16    0.84
   9   6  -6    2.36    0.98
  -9   7   0    0.93    0.95
   9   7   0   -0.31    0.47
   9   7   0    0.23    0.67
   9   7   1    2.27    0.71
   9   7   1    3.75    0.64
  -9   7  -1    2.62    0.97
   9   7  -1    2.93    0.59
  -9   7   1    1.45    1.17
   9   7  -1    3.13    0.82
   9   7   2    1.30    0.59
   9   7   2    1.77    0.71
   9   7  -2    2.04    0.80
  -9   7   2    0.41    1.33
   9   7  -2    1.67    0.51
   9   7   3    6.44    0.83
   9   7  -3    4.87    0.98
  -9   7   3    5.75    2.05
   9   7   4    4.81    0.80
   9   7  -4    4.06    0.98
   9   7   5   -0.54    0.68
   9  -7  -5    0.01    0.68
   9   7  -5    0.00    0.76
  -9   8   0    0.25    1.02
   9   8   0    0.92    0.77
   9   8   0   -0.24    0.47
   9   8   1    2.29    0.63
  -9   8  -1    2.61    1.12
   9   8   1    2.72    0.84
   9   8  -1    3.41    0.89
  -9   8   1    1.27    1.26
   9   8   2    1.43    0.61
   9   8   2    0.58    0.72
   9   8  -2    2.39    0.81
   9   8   3    5.54    0.84
   9   8  -3    5.98    1.10
   9   8   4    0.23    0.64
   9   8  -4   -0.40    0.83
   9   9   0    0.95    0.81
   9   9   1    5.78    1.02
   9   9  -1    3.88    0.93
   9   9   2    0.17    0.77
   9   9   2   -0.13    0.56
   9   9  -2    0.19    0.86
   9   9   3   16.55    1.37
   9   9  -3   14.73    1.54
  10   0   0   19.67    1.13
  10   0  -1    0.18    0.36
  10   0  -1   -0.47    0.31
  10   0   1   -0.41    0.32
  10   0  -2   53.51    2.61
  10   0   2   52.09    2.56
  10   0  -2   58.14    2.67
  10   0  -3    3.65    0.68
  10   0   3    2.59    0.51
  10   0  -3    2.95    0.54
  10   0  -4   83.22    3.90
  10   0  -4   83.00    4.03
  10   0  -5    8.66    0.95
  10   0  -5   11.91    1.22
  10   0   5   10.53    0.93
  10   0  -6   62.43    3.23
  10   0   6   62.28    3.51
  10   0  -6   60.74    3.40
  10   0  -7    3.43    0.88
  10   0  -7    3.78    1.09
  10  -1   0    0.20    0.30
 -10   1   0    0.34    0.80
  10   1   0   -0.60    0.30
  10  -1  -1   31.35    1.66
  10  -1  -1   35.46    1.71
  10   1   1   33.34    1.70
  10   1  -1   32.53    1.71
  10  -1   1   32.93    1.64
  10   1  -1   33.83    1.76
  10  -1  -2    2.07    0.44
  10   1   2    1.65    0.43
  10  -1  -2    2.21    0.51
  10   1  -2    2.03    0.44
  10  -1   2    1.91    0.39
  10   1  -2    2.03    0.59
 -10   1   2    0.32    1.09
  10  -1  -3   26.32    1.47
  10  -1  -3   25.77    1.54
  10   1   3   25.60    1.43
  10   1  -3   24.38    1.45
  10  -1   3   23.00    1.36
  10   1  -3   26.42    1.63
  10  -1  -4   10.77    1.08
  10  -1  -4    9.21    0.91
  10   1   4    9.93    0.87
  10  -1   4   11.04    0.90
  10   1  -4   12.39    0.99
  10   1  -4   12.16    1.21
  10  -1  -5    7.92    1.03
  10   1   5    9.30    0.90
  10   1  -5    9.59    0.94
  10   1  -5    7.24    1.10
  10   1   6    7.62    0.94
  10  -1  -6    6.34    1.08
  10   1  -6    7.78    1.21
  10   1  -6    6.81    0.92
  10  -1  -7    0.26    0.92
  10   1   7    0.40    0.73
  10   1  -7   -0.07    0.88
  10   1  -7    0.82    0.72
  10  -2   0  107.73    4.55
  10   2   0   95.63    4.59
  10   2   0  104.40    4.83
  10   2   1    0.38    0.40
  10  -2  -1    0.64    0.40
  10  -2  -1    0.59    0.34
 -10   2   1    0.46    1.23
  10   2  -1    0.40    0.40
  10   2  -1    0.28    0.40
  10  -2   1    0.65    0.31
  10  -2  -2   51.42    2.33
  10   2   2   52.16    2.38
  10  -2  -2   49.30    2.38
  10   2  -2   44.00    2.34
  10  -2   2   45.24    2.32
  10   2   3   18.72    1.21
  10  -2  -3   19.57    1.19
  10  -2  -3   18.56    1.24
  10   2  -3   20.16    1.23
 -10   2   3   18.21    2.74
  10   2  -3   15.33    1.36
  10  -2  -4    0.84    0.55
  10  -2  -4   -0.70    0.48
  10   2   4    0.02    0.40
  10   2  -4    0.06    0.46
  10   2  -4    0.33    0.70
 -10   2   4   -0.79    1.38
  10  -2  -5   19.86    1.58
  10   2   5   24.19    1.51
  10   2  -5   22.98    1.50
  10   2  -5   20.28    1.76
  10  -2  -6    7.19    1.03
  10   2   6    6.82    0.89
  10   2  -6    7.52    1.23
  10   2  -6    6.22    0.86
  10  -2  -7    3.00    0.97
  10   2   7    3.48    0.89
  10   2  -7    3.00    0.75
  10   2  -7    1.46    1.02
 -10   3   0    0.36    0.83
  10   3   0    0.47    0.42
  10   3   0    0.39    0.35
  10  -3   0    0.27    0.38
  10  -3  -1    0.48    0.35
  10   3   1    0.39    0.38
  10   3  -1    1.11    0.46
 -10   3   1    0.60    1.13
  10   3  -1    0.97    0.48
  10   3   2    6.95    0.71
  10  -3  -2    6.88    0.64
  10  -3  -2    7.42    0.72
  10   3  -2    6.32    0.83
  10   3  -2    7.99    0.77
 -10   3   2    2.37    1.42
  10  -3  -3   -0.01    0.41
  10  -3  -3    0.10    0.45
  10   3   3    0.22    0.47
  10   3  -3    0.67    0.61
 -10   3   3    0.17    1.43
  10   3  -3    0.78    0.48
  10   3   4   18.17    1.29
  10  -3  -4   18.08    1.38
  10   3  -4   18.91    1.53
 -10   3   4   18.81    3.14
  10   3  -4   17.05    1.26
  10  -3  -5   -0.33    0.60
  10   3   5    0.57    0.59
  10   3  -5    0.43    0.54
 -10   3   5   -0.34    1.87
  10   3  -5   -0.13    0.76
  10   3   6    7.13    0.95
  10  -3  -6    8.46    1.10
  10   3  -6    9.25    1.33
  10   3  -6    7.28    0.92
 -10   4   0    2.76    1.07
  10   4   0    3.04    0.57
  10   4   0    1.54    0.53
  10   4   1    0.46    0.42
  10   4  -1   -0.10    0.37
  10   4  -1   -0.13    0.48
 -10   4   1    1.01    1.23
  10  -4  -2   16.84    1.06
  10   4   2   16.03    1.11
  10  -4  -2   14.05    1.09
  10   4  -2   15.18    1.13
  10   4  -2   18.52    1.26
  10   4   3    3.49    0.68
  10  -4  -3    4.10    0.66
  10  -4  -3    4.20    0.63
 -10   4   3    7.35    2.06
  10   4  -3    3.69    0.64
  10   4  -3    5.18    0.87
  10  -4  -4   43.17    2.39
  10   4   4   44.16    2.32
  10   4  -4   43.38    2.30
  10   4  -4   46.45    2.64
 -10   4   4   42.03    4.24
  10  -4  -5    8.34    1.04
  10   4   5    9.54    1.00
 -10   4   5    1.61    2.12
  10   4  -5    7.92    0.91
  10   4  -5   10.14    1.25
  10   4   6   37.23    2.18
  10  -4  -6   35.50    2.34
  10   4  -6   39.86    2.58
  10   4  -6   33.70    2.14
  10   5   0    0.55    0.53
 -10   5   0    0.08    0.88
  10   5   0   -0.38    0.39
  10   5   1   80.47    3.83
  10   5  -1   81.00    3.91
  10   5  -1   84.65    3.85
  10   5   2   -0.23    0.48
 -10   5   2    1.71    1.54
  10   5  -2    0.49    0.61
  10   5  -2   -0.07    0.47
  10  -5  -3   48.53    2.53
  10   5   3   45.01    2.47
  10   5  -3   48.48    2.49
  10   5  -3   53.12    2.73
  10   5   4    4.07    0.75
  10  -5  -4    4.58    0.78
  10   5  -4    4.42    0.92
 -10   5   4    0.17    1.75
  10   5  -4    3.68    0.70
  10   5   5   19.62    1.43
  10  -5  -5   19.04    1.54
  10   5  -5   17.15    1.65
  10   5  -5   15.68    1.34
  10   5   6    4.38    0.90
  10  -5  -6    4.30    0.95
  10   5  -6    3.46    0.79
  10   5  -6    3.82    1.08
 -10   6   0   19.01    2.06
  10   6   0   17.96    1.42
  10   6   0   19.18    1.27
  10   6   1   -0.56    0.58
  10   6   1    0.37    0.48
  10   6  -1    0.32    0.44
 -10   6   1    0.70    1.29
  10   6  -1    0.08    0.64
  10   6   2    1.73    0.59
  10   6  -2    3.98    0.86
  10   6  -2    3.81    0.69
 -10   6   2    0.99    1.44
  10   6   3    4.83    0.76
 -10   6   3    4.66    2.05
  10   6  -3    5.04    0.90
  10   6  -3    5.10    0.78
  10  -6  -4    4.50    0.83
  10   6   4    5.72    0.83
  10   6  -4    4.85    1.03
  10   6  -4    4.84    0.75
  10   6   5    9.36    1.16
  10  -6  -5   10.24    1.20
  10   6  -5   11.45    1.35
  10   7   0   -0.02    0.65
 -10   7   0    0.64    1.06
  10   7   0    0.47    0.55
  10   7   1    5.73    0.76
  10   7   1    7.02    0.93
 -10   7   1    3.28    1.45
  10   7  -1    6.99    0.80
  10   7  -1    6.30    0.98
  10   7   2    4.89    0.76
  10   7  -2    3.10    0.89
  10   7  -2    4.11    0.68
 -10   7   2    2.72    1.64
  10   7   3    2.09    0.69
  10   7  -3    2.78    0.87
  10  -7  -4   11.85    1.26
  10   7   4   12.10    1.18
  10   7  -4    8.97    1.32
  10   8   0    7.44    1.11
  10   8   0    6.34    0.81
 -10   8   0    4.59    1.42
  10   8   1   -0.15    0.72
  10   8   1    0.61    0.58
 -10   8   1   -0.44    1.24
  10   8  -1    1.35    0.83
  10   8   2    1.02    0.60
  10   8  -2    0.19    0.74
  10   8   3    4.43    0.79
  10   8  -3    4.50    1.01
  10   9   0    0.33    0.79
  10   9   1   33.97    2.34
  10   9  -1   36.24    2.33
  10   9   2    1.56    0.66
  10   9  -2   -0.12    0.90
  11   0   0    0.60    0.37
  11   0   1   14.16    0.98
  11   0  -1   15.06    1.00
  11   0  -2    0.24    0.39
  11   0   2    0.01    0.39
  11   0  -2    0.15    0.43
  11   0  -3   65.53    3.10
  11   0  -3   58.58    2.97
  11   0   3   61.70    2.94
  11   0   4    0.06    0.43
  11   0  -4   -0.03    0.47
  11   0  -4    0.34    0.64
  11   0  -5   18.18    1.61
  11   0   5   18.34    1.32
  11   0  -5   16.66    1.35
  11   0  -6    1.71    0.90
  11   0  -6    2.62    0.76
  11   1   0   -0.08    0.33
  11  -1   0    0.19    0.33
  11   1   1    0.09    0.39
  11  -1  -1   -0.10    0.35
  11   1  -1   -0.11    0.39
  11  -1   1    0.13    0.32
  11   1  -1    0.49    0.41
 -11   1   1   -0.31    0.97
  11  -1  -2    4.04    0.64
  11   1   2    3.70    0.55
  11  -1  -2    4.26    0.54
 -11   1   2    6.01    1.68
  11   1  -2    3.10    0.66
  11  -1   2    4.57    0.55
  11   1  -2    3.52    0.57
  11  -1  -3    0.08    0.48
  11  -1  -3    0.18    0.44
  11   1   3    0.87    0.45
  11   1  -3    0.54    0.63
  11  -1   3    0.62    0.40
  11   1  -3    0.10    0.44
  11  -1  -4    0.65    0.65
  11   1   4    0.59    0.46
  11  -1  -4    1.06    0.52
  11   1  -4    0.79    0.70
  11   1  -4    1.04    0.52
  11  -1  -5    0.98    0.65
  11   1   5    0.47    0.51
  11  -1  -5    0.11    0.69
  11   1  -5    0.80    0.59
  11   1  -5    0.93    0.74
  11   1   6    0.65    0.68
  11  -1  -6    1.46    0.73
  11  -1  -6    0.57    0.85
  11   1  -6    1.80    0.72
  11   1  -6   -0.03    0.89
  11  -2   0    0.38    0.36
  11   2   0   -0.33    0.34
  11   2   1    7.61    0.73
  11  -2  -1    6.77    0.64
  11   2  -1    7.64    0.78
  11   2  -1    8.35    0.75
  11  -2   1    8.52    0.65
 -11   2   1    5.15    1.58
  11   2   2   30.46    1.64
  11  -2  -2   29.72    1.66
  11  -2  -2   29.66    1.62
  11   2  -2   30.95    1.70
  11   2  -2   29.74    1.79
  11   2   3   17.98    1.21
  11  -2  -3   17.88    1.26
  11  -2  -3   19.73    1.18
  11   2  -3   12.37    1.28
 -11   2   3   22.28    2.99
  11   2  -3   17.61    1.22
  11   2   4   33.86    1.78
  11  -2  -4   30.06    1.87
  11  -2  -4   33.75    1.83
 -11   2   4   29.23    3.50
  11   2  -4   26.74    1.99
  11   2  -4   32.59    1.83
  11  -2  -5    2.75    0.79
  11   2   5    4.35    0.76
  11  -2  -5    4.06    0.83
  11   2  -5    2.70    0.68
  11   2  -5    2.72    0.93
  11   2   6   18.18    1.39
  11  -2  -6   12.22    1.38
  11   2  -6   15.78    1.34
  11   2  -6   22.73    2.01
  11   3   0    0.09    0.37
  11  -3  -1    0.22    0.37
  11   3   1    1.48    0.45
  11   3  -1    0.80    0.50
  11   3  -1    0.86    0.47
 -11   3   1    0.45    1.05
  11   3   2    0.58    0.42
  11  -3  -2    0.14    0.41
  11  -3  -2    0.95    0.40
  11   3  -2    0.62    0.47
  11   3  -2    0.42    0.54
 -11   3   2   -0.25    1.24
  11  -3  -3    3.17    0.57
  11   3   3    3.06    0.64
  11  -3  -3    3.17    0.62
 -11   3   3    4.51    2.13
  11   3  -3    3.90    0.81
  11   3  -3    3.00    0.60
  11  -3  -4    0.82    0.56
  11   3   4    0.45    0.50
  11  -3  -4    0.27    0.52
  11   3  -4   -0.77    0.73
  11   3  -4   -0.05    0.50
 -11   3   4   -0.64    1.72
  11   3   5    4.60    0.75
  11  -3  -5    4.28    0.87
  11   3  -5    5.76    1.16
  11   3  -5    4.58    0.77
 -11   3   5    2.39    2.10
  11  -3  -6    2.48    0.86
  11   3   6    3.74    0.82
  11   3  -6    1.75    0.71
  11   3  -6    4.22    1.20
  11   4   0   -0.27    0.37
  11   4   1   10.89    0.94
  11   4  -1   11.35    1.05
  11   4  -1   12.30    1.01
  11   4   2    3.00    0.60
  11   4  -2    2.84    0.70
  11   4  -2    2.48    0.61
 -11   4   2    1.94    1.64
  11   4   3   41.36    2.20
  11  -4  -3   40.64    2.10
  11  -4  -3   37.35    2.15
  11   4  -3   41.38    2.18
  11   4  -3   40.92    2.35
  11  -4  -4    2.77    0.67
  11   4   4    1.39    0.63
  11  -4  -4    2.45    0.63
  11   4  -4    1.32    0.85
  11   4  -4    2.15    0.64
 -11   4   4    2.60    2.06
  11  -4  -5   10.52    1.17
  11   4   5    9.94    1.04
  11   4  -5   10.35    1.43
  11   4  -5    9.49    1.02
  11  -4  -6   -0.64    0.69
  11   4   6   -0.58    0.65
  11   4  -6    0.02    0.64
  11   4  -6    0.04    1.00
  11   5   0   -0.08    0.54
  11   5   0    0.42    0.52
  11   5   1    0.34    0.47
  11   5  -1    0.56    0.53
 -11   5   1    0.09    1.25
  11   5  -1    1.43    0.65
  11   5   2    7.00    0.84
  11   5  -2    6.69    0.79
  11   5  -2    6.00    0.89
  11  -5  -3    4.94    0.74
  11   5   3    4.61    0.73
 -11   5   3    1.64    1.66
  11   5  -3    4.91    0.76
  11   5  -3    4.87    0.96
  11  -5  -4    1.82    0.66
  11   5   4    0.31    0.57
  11   5  -4    1.22    0.65
 -11   5   4   -0.93    1.99
  11   5  -4    2.06    0.78
  11   5   5    4.02    0.87
  11  -5  -5    5.54    0.93
  11   5  -5    4.33    0.77
  11   5  -5    2.93    1.02
  11   6   0    0.08    0.44
  11   6   0   -0.44    0.58
  11   6   1    5.35    0.77
  11   6  -1    5.60    0.89
  11   6  -1    4.32    0.69
 -11   6   1    2.42    1.48
  11   6   2    6.84    0.90
  11   6  -2    8.98    0.94
  11   6  -2    7.98    1.07
  11   6   3   16.04    1.32
  11  -6  -3   15.48    1.28
 -11   6   3   14.94    2.81
  11   6  -3   17.24    1.35
  11   6  -3   19.22    1.60
  11  -6  -4    7.27    0.99
  11   6   4    8.69    0.99
  11   6  -4    9.73    1.25
  11   6  -4    8.26    0.98
  11  -6  -5    2.59    0.88
  11   6   5    3.93    0.84
  11   6  -5    5.44    0.87
  11   6  -5    3.33    1.11
  11   7   0   -0.28    0.64
  11   7   0    0.74    0.53
  11   7   1    1.98    0.61
  11   7  -1    2.04    0.64
 -11   7   1    2.03    1.52
  11   7  -1    0.53    0.73
  11   7   2   -1.09    0.57
 -11   7   2   -0.30    1.52
  11   7  -2    0.21    0.77
  11   7  -2    0.22    0.58
  11   7   3    4.60    0.83
  11   7  -3    3.00    0.81
  11   7  -3    4.39    0.98
  11   7   4    0.55    0.63
  11  -7  -4    0.32    0.72
  11   7  -4   -0.36    0.83
  11   8   0    0.17    0.73
  11   8   0   -0.35    0.57
  11   8   1    5.13    0.85
  11   8  -1    4.20    0.96
  11   8  -1    4.00    0.77
  11   8   2    5.06    0.85
  11   8  -2    5.46    1.09
  11   8   3   13.39    1.28
  11   8  -3   12.59    1.46
  11   9   0    0.14    0.89
  11   9   1   -0.44    0.68
  11   9  -1    0.88    0.93
  12   0   0   76.25    3.52
  12   0   1   19.70    1.21
  12   0  -1   18.94    1.20
  12   0   2   19.58    1.21
  12   0  -2   18.81    1.29
  12   0  -2   18.75    1.27
  12   0  -3    4.00    0.65
  12   0   3    5.31    0.63
  12   0  -3    3.46    0.70
  12   0  -4    0.53    0.53
  12   0  -4   -0.76    0.58
  12   0   4    0.03    0.43
  12   0  -5   -0.13    0.58
  12   0  -5    0.79    0.82
  12   0  -6    0.76    0.94
  12   0  -6    1.42    0.70
  12  -1   0   42.99    2.06
  12   1   0   38.88    2.08
  12   1   1    8.23    0.76
  12  -1  -1    6.45    0.68
  12  -1   1    8.78    0.73
  12   1  -1    7.45    0.75
  12   1   2   21.37    1.31
  12  -1  -2   19.31    1.28
  12   1  -2   19.71    1.29
  12  -1   2   20.87    1.23
  12  -1  -3    0.52    0.57
  12  -1  -3    0.47    0.46
  12   1   3   -0.77    0.41
  12   1  -3    1.04    0.71
  12  -1   3   -0.29    0.42
  12   1  -3    0.71    0.50
  12   1   4   -0.18    0.48
  12  -1  -4    0.82    0.59
  12  -1  -4    1.17    0.69
  12   1  -4    1.07    0.58
  12   1  -4    1.38    0.77
  12   1   5    3.44    0.72
  12  -1  -5    3.91    0.78
  12  -1  -5    2.62    0.87
  12   1  -5    4.64    0.82
  12   1  -5    2.25    0.87
  12  -1  -6    2.51    0.85
  12   1   6    2.29    0.77
  12  -1  -6    1.08    0.85
  12   1  -6    1.38    0.97
  12   1  -6    1.33    0.70
  12  -2   0   -0.44    0.33
  12   2   0    0.09    0.43
  12   2   1   48.37    2.44
  12  -2  -1   48.96    2.40
  12  -2   1   50.87    2.39
  12   2  -1   47.57    2.45
  12   2   2    1.23    0.52
  12  -2  -2    0.80    0.41
 -12   2   2    0.22    1.31
  12   2  -2    0.40    0.50
  12   2  -2    1.65    0.55
  12   2   3   36.86    1.90
  12  -2  -3   35.50    1.86
  12  -2  -3   37.79    1.95
  12   2  -3   36.46    1.93
 -12   2   3   30.70    3.41
  12   2  -3   26.11    1.98
  12  -2  -4   10.72    1.12
  12  -2  -4   12.37    1.09
  12   2   4   13.13    1.08
  12   2  -4   16.05    1.44
  12   2  -4   11.92    1.09
  12   2   5   26.08    1.72
  12  -2  -5   29.08    1.83
  12  -2  -5   24.69    1.88
  12   2  -5   30.66    2.18
  12   2  -5   28.52    1.84
  12  -2  -6   11.52    1.22
  12  -2  -6    7.67    1.16
  12   2   6   11.58    1.19
  12   2  -6   10.49    1.12
  12   2  -6   10.54    1.45
  12   3   0  108.34    4.93
  12   3   1    0.23    0.41
  12  -3  -1   -0.18    0.38
  12   3  -1    0.10    0.39
  12  -3  -2   64.69    2.93
  12   3   2   63.19    2.98
 -12   3   2   48.88    4.32
  12   3  -2   64.79    3.11
  12   3  -2   60.88    2.99
  12  -3  -3    7.55    0.84
  12   3   3    5.67    0.74
  12  -3  -3    6.18    0.73
 -12   3   3    1.93    1.80
  12   3  -3    6.39    0.83
  12   3  -3    8.91    1.13
  12  -3  -4   12.03    1.08
  12   3   4   12.98    1.11
  12  -3  -4   10.49    1.13
  12   3  -4   14.72    1.43
  12   3  -4   13.05    1.13
  12   3   5    6.77    0.88
  12  -3  -5    8.15    1.00
  12  -3  -5    5.91    0.95
  12   3  -5    8.11    1.27
  12   3  -5    8.86    0.97
  12  -3  -6   -1.68    0.68
  12   3   6    1.24    0.72
  12  -3  -6    0.12    0.75
  12   3  -6    0.32    0.94
  12   3  -6   -0.28    0.65
  12   4   0   38.14    2.07
  12   4   1    3.92    0.67
  12   4  -1    3.97    0.72
  12   4  -1    4.04    0.71
  12   4   2    9.03    0.93
  12   4  -2    8.45    1.02
  12   4  -2    9.89    0.97
  12  -4  -3    0.67    0.59
  12   4   3    1.09    0.52
  12  -4  -3    0.13    0.47
 -12   4   3    0.05    1.51
  12   4  -3    0.93    0.76
  12   4  -3    0.43    0.58
  12  -4  -4    1.37    0.59
  12   4   4    1.10    0.58
  12  -4  -4   -0.26    0.56
  12   4  -4    0.51    0.60
  12   4  -4    0.41    0.79
 -12   4   4   -1.89    2.01
  12  -4  -5    0.35    0.63
  12   4   5    0.78    0.64
  12  -4  -5    0.54    0.72
  12   4  -5    0.19    0.60
  12   4  -5    1.54    1.07
  12   5   0    4.65    0.77
  12   5   1   17.78    1.32
  12   5  -1   20.30    1.41
  12   5  -1   17.63    1.43
  12   5  -2    0.28    0.69
  12   5  -2    1.02    0.59
 -12   5   2    1.27    1.54
  12   5   3    2.30    0.64
  12   5  -3    0.41    0.59
 -12   5   3    2.25    1.76
  12   5  -3    0.54    0.77
  12   5   4    1.90    0.70
  12  -5  -4    1.34    0.64
  12   5  -4    1.95    0.65
  12   5  -4    1.90    0.87
  12   5   5    0.86    0.72
  12  -5  -5    1.42    0.77
  12   5  -5    0.36    0.64
  12   5  -5    0.17    0.93
  12   6   0    6.16    0.85
  12   6   1    6.14    0.83
  12   6  -1    6.30    0.88
  12   6  -1    6.34    0.96
  12   6   2    1.16    0.63
 -12   6   2    0.62    1.80
  12   6  -2    0.83    0.77
  12   6  -2    0.56    0.67
  12   6   3    7.13    0.95
  12   6  -3    6.44    1.14
  12   6  -3    8.57    0.94
  12  -6  -4    3.42    0.82
  12   6   4    3.17    0.86
  12   6  -4    3.70    0.79
  12   6  -4    2.81    1.03
  12   7   0   85.18    4.12
  12   7   1    1.09    0.62
  12   7  -1    1.08    0.83
  12   7  -1    1.81    0.68
  12   7   2   54.05    2.89
  12   7  -2   51.24    2.83
  12   7  -2   57.48    3.09
  12   7   3    5.01    0.88
  12   7  -3    4.85    0.95
  12   7  -3    7.01    1.21
  12   8   0    2.21    0.68
  12   8   1    2.76    0.73
  12   8  -1    3.40    1.01
  12   8  -1    2.48    0.73
  12   8   2   -0.64    0.62
  12   8  -2    0.05    0.81
  13   0   0    0.30    0.42
  13   0   1    1.32    0.47
  13   0  -1    0.16    0.42
  13   0   2    0.34    0.42
  13   0  -2    0.12    0.45
  13   0  -3    1.70    0.58
  13   0  -3    3.62    0.78
  13   0   3    2.41    0.54
  13   0  -4    2.94    0.90
  13   0  -4    2.79    0.71
  13   0   4    2.14    0.54
  13   0  -5   14.65    1.51
  13   0  -5   15.31    1.33
  13   0  -6    5.58    0.93
  13   0  -6    3.43    1.02
  13   1   0    0.41    0.48
  13  -1   0   -0.22    0.38
  13  -1  -1    3.90    0.59
  13   1   1    2.59    0.58
  13  -1   1    3.68    0.58
  13   1  -1    3.33    0.63
  13  -1  -2    3.47    0.62
  13   1   2    4.03    0.64
  13  -1   2    4.97    0.64
  13   1  -2    4.29    0.71
  13  -1  -3    8.40    0.89
  13   1   3    9.29    0.89
  13  -1  -3    9.80    1.04
  13   1  -3   10.41    0.96
  13   1  -3    9.95    1.12
  13   1   4    0.53    0.55
  13  -1  -4    1.74    0.76
  13  -1  -4    0.29    0.59
  13   1  -4    1.25    0.61
  13   1  -4    1.74    0.85
  13  -1  -5    0.05    0.66
  13  -1  -5   -0.04    0.75
  13   1   5   -0.71    0.50
  13   1  -5    0.94    0.70
  13   1  -5    0.91    0.90
  13   1   6    1.75    1.15
  13  -1  -6    2.43    0.84
  13  -1  -6    1.73    0.89
  13   1  -6    3.27    0.86
  13   1  -6    1.84    1.04
  13   2   0    0.08    0.38
  13  -2   0   -0.01    0.39
  13   2   1    3.22    0.63
  13  -2  -1    1.44    0.49
  13   2  -1    3.86    0.64
  13   2   2    0.90    0.48
  13  -2  -2    0.00    0.41
  13   2  -2    0.71    0.50
  13   2   3    6.24    0.80
  13  -2  -3    6.24    0.78
  13   2  -3    7.50    1.04
 -13   2   3    2.77    1.69
  13   2  -3    6.86    0.82
  13  -2  -4    5.93    0.90
  13  -2  -4    3.65    0.71
  13   2   4    4.42    0.78
  13   2  -4    3.67    0.77
  13   2  -4    4.62    0.93
  13  -2  -5    5.69    0.90
  13   2   5    3.94    0.75
  13  -2  -5    3.86    0.91
  13   2  -5    3.92    0.83
  13   2  -5    4.73    1.12
  13   3   0   -0.14    0.47
  13   3   1    3.82    0.68
  13   3  -1    5.53    0.75
  13  -3  -2   10.47    0.87
  13   3   2   13.45    1.05
  13   3  -2    8.71    1.03
 -13   3   2    4.55    2.56
  13   3  -2    9.80    1.00
  13   3   3   10.49    1.02
  13  -3  -3   10.57    0.93
 -13   3   3    3.49    1.87
  13   3  -3    8.46    1.13
  13   3  -3    8.90    0.96
  13  -3  -4   10.89    1.13
  13  -3  -4   11.47    1.07
  13   3   4   12.03    1.11
  13   3  -4   10.79    1.07
 -13   3   4    6.40    2.34
  13   3  -4   11.68    1.33
  13   3   5    0.47    0.67
  13  -3  -5    0.60    0.69
  13  -3  -5    0.11    0.72
  13   3  -5   -0.87    0.85
  13   3  -5   -0.45    0.61
  13   4   0   -0.28    0.46
  13   4   1    0.61    0.55
  13   4  -1    0.53    0.55
  13   4   2    0.40    0.56
  13   4  -2    0.22    0.58
 -13   4   2   -0.72    2.17
  13   4  -2    0.35    0.65
  13   4   3   -0.10    0.63
 -13   4   3    0.41    1.59
  13   4  -3    1.12    0.76
  13   4  -3   -0.10    0.57
  13  -4  -4    3.46    0.70
  13   4   4    3.01    0.70
  13  -4  -4    1.80    0.69
  13   4  -4    2.85    0.89
  13   4  -4    1.53    0.72
  13  -4  -5    4.88    0.96
  13  -4  -5    6.40    0.92
  13   4   5    4.89    0.85
  13   4  -5    5.86    1.26
  13   4  -5    5.33    0.88
  13   5   0   -0.36    0.54
  13   5   1    1.26    0.64
  13   5  -1    1.99    0.68
  13   5   2    0.32    0.57
  13   5  -2    0.30    0.76
 -13   5   2    1.78    2.56
  13   5  -2    0.81    0.65
  13   5   3    6.11    0.97
  13   5  -3    7.65    0.94
  13   5  -3    7.89    1.13
 -13   5   3    1.37    1.76
  13   5   4    1.14    0.62
  13   5  -4    1.74    0.95
  13   5  -4    1.01    0.69
  13   6   0    0.44    0.61
  13   6   1   -1.13    0.55
  13   6  -1    1.27    0.69
  13   6   2   -0.31    0.62
  13   6  -2   -1.91    0.60
  13   6  -2   -0.37    0.70
  13   6   3   -0.54    0.68
  13   6  -3    0.62    0.83
  13   6  -3    0.27    0.59
  13   6   4    2.30    0.81
  13   6  -4    3.40    1.01
  13   6  -4    1.57    0.77
  13   7   0    0.35    0.65
  13   7   1    2.16    0.74
  13   7  -1    2.80    0.80
  13   7   2    7.84    1.04
  13   7  -2    7.33    1.01
  13   7  -2    7.24    1.20
  13   7   3    3.97    0.91
  13   7  -3    5.34    0.98
  13   7  -3    6.06    1.12
  13   8   0    1.15    0.67
  14   0   0   16.99    1.23
  14   0  -1   56.57    2.79
  14   0   1   55.07    2.74
  14   0   2   17.44    1.22
  14   0  -2   16.90    1.35
  14   0  -3   23.91    1.59
  14   0   3   24.70    1.54
  14   0  -4   20.84    1.51
  14   0  -4   20.04    1.70
  14   0  -5    2.63    0.81
  14   0  -5    0.52    0.82
  14  -1   0   55.55    2.75
  14   1   0   56.02    2.80
  14   1   1   21.48    1.39
  14  -1  -1   19.97    1.34
  14   1  -1   22.94    1.47
  14  -1   1   21.05    1.33
  14  -1  -2   22.02    1.46
  14   1   2   23.75    1.46
  14   1  -2   22.61    1.53
  14  -1   2   22.80    1.55
  14   1   3    5.83    0.75
  14  -1  -3    4.47    0.73
  14   1  -3    6.25    0.82
  14  -1  -4    0.61    0.60
  14   1   4    0.23    0.54
  14  -1  -4   -0.22    0.70
  14   1  -4   -0.39    0.59
  14   1  -4   -0.11    0.83
  14   1   5   -0.15    0.58
  14  -1  -5   -1.23    0.74
  14  -1  -5    0.78    0.73
  14   1  -5    0.64    0.89
  14   1  -5   -1.19    0.62
  14   2   0    8.04    0.88
  14  -2   0    6.50    0.80
  14  -2  -1    0.20    0.43
  14   2   1    0.01    0.52
  14   2  -1   -0.28    0.54
  14  -2  -2    3.13    0.63
  14   2   2    3.30    0.71
  14   2  -2    4.66    0.74
  14   2   3    6.72    0.80
  14  -2  -3    4.71    0.73
  14   2  -3    6.41    0.87
  14   2  -3    3.88    1.16
  14  -2  -4    0.55    0.64
  14   2   4    0.49    0.64
  14   2  -4    1.45    0.92
  14   2  -4    1.26    0.67
  14   2   5    3.71    0.79
  14  -2  -5    3.31    0.96
  14  -2  -5    4.95    0.91
  14   2  -5    4.79    0.90
  14   2  -5    5.87    1.23
  14   3   0   13.04    1.13
  14   3   1    4.75    0.75
  14   3  -1    3.58    0.78
  14  -3  -2    0.79    0.63
  14   3   2    1.83    0.68
  14   3  -2    1.51    0.64
  14  -3  -3   -0.62    0.50
  14   3   3    0.58    0.62
 -14   3   3    1.03    2.80
  14   3  -3    0.40    0.82
  14   3  -3   -0.91    0.58
  14  -3  -4    5.34    0.81
  14   3   4    2.88    0.79
  14   3  -4    3.69    0.82
  14   3  -4    4.23    1.15
  14   3   5    0.12    0.62
  14  -3  -5    0.38    0.79
  14  -3  -5    1.12    0.69
  14   3  -5    1.34    0.95
  14   3  -5    1.12    0.74
  14   4   0    5.64    0.88
  14   4   1   23.10    1.59
  14   4  -1   26.22    1.73
  14   4   2    7.08    0.88
  14   4  -2    8.12    0.96
  14   4   3    7.58    0.98
 -14   4   3    6.83    2.75
  14   4  -3    6.29    0.92
  14   4  -3    9.94    1.15
  14   4   4    9.69    1.04
  14   4  -4    8.17    1.22
  14   4  -4    8.56    1.05
  14   5   0   74.38    3.67
  14   5   1   35.08    2.08
  14   5  -1   34.30    2.09
  14   5   2   38.17    2.25
  14   5  -2   40.11    2.33
  14   5   3   14.95    1.37
  14   5  -3   16.37    1.53
  14   5  -3   17.05    1.41
  14   5   4    3.19    0.84
  14   5  -4    5.10    0.91
  14   5  -4    5.24    1.11
  14   6   0    0.59    0.64
  14   6   1    4.22    0.87
  14   6  -1    4.58    0.89
  14   6   2   -1.14    0.60
  14   6  -2    0.46    0.66
  14   6   3    0.21    0.63
  14   6  -3    0.19    0.70
  14   6  -3   -0.99    0.78
  14   7   0    1.78    0.78
  14   7   1    0.48    0.65
  14   7  -1    1.31    0.76
  15   0   0    0.00    0.53
  15   0   1    5.14    0.74
  15   0  -1    3.58    0.71
  15   0  -2    0.58    0.60
  15   0   2    0.94    0.59
  15   0   3    6.87    0.82
  15   0  -3    7.64    0.93
  15   0  -4    3.45    0.80
  15   0  -5    1.71    0.81
  15   0  -5    1.45    0.99
  15  -1   0   -1.02    0.50
  15   1   0   -0.61    0.50
  15  -1  -1    1.63    0.57
  15   1   1    1.60    0.61
  15  -1   1    0.77    0.54
  15   1  -1    1.37    0.62
  15   1   2   -0.04    0.57
  15  -1  -2    0.12    0.58
  15   1  -2    0.37    0.62
  15   1   3    0.71    0.58
  15  -1  -3    1.15    0.65
  15   1  -3    1.01    0.64
  15  -1  -4    0.04    0.62
  15   1   4    0.37    0.65
  15   1  -4    0.68    0.72
  15  -1  -5    0.95    0.76
  15  -1  -5   -0.13    0.91
  15   1  -5    0.40    0.73
  15   1  -5    0.60    0.96
  15   2   0    0.41    0.60
  15  -2  -1    1.15    0.58
  15   2   1    1.67    0.63
  15   2  -1    1.23    0.59
  15   2   2   12.17    1.06
  15  -2  -2    9.09    0.95
  15   2  -2    9.95    1.07
  15  -2  -3   14.00    1.17
  15   2   3   13.14    1.18
  15   2  -3   13.70    1.23
  15   2   4   10.79    1.06
  15  -2  -4    8.68    1.02
  15   2  -4   11.09    1.13
  15   2  -4    9.19    1.57
  15   3   0   -0.05    0.56
  15   3   1    3.36    0.77
  15   3  -1    3.58    0.79
  15   3   2    0.24    0.55
  15   3  -2   -0.34    0.53
  15  -3  -3    7.36    0.91
  15   3   3    6.26    0.95
  15   3  -3    7.62    0.97
  15   3   4    0.14    0.59
  15  -3  -4    1.23    0.66
  15   3  -4   -0.29    0.88
  15   3  -4    1.14    0.75
  15   4   0   -0.48    0.66
  15   4   1    4.91    0.87
  15   4  -1    2.74    0.80
  15   4   2    2.05    0.76
  15   4  -2    2.21    0.71
  15   4   3   10.46    1.14
  15   4  -3   10.08    1.14
  15   4   4    0.20    0.67
  15   4  -4    0.16    0.67
  15   4  -4    1.46    0.96
  15   5   0   -0.40    0.65
  15   5   1    0.76    0.65
  15   5  -1    0.36    0.63
  15   5   2   -0.38    0.69
  15   5  -2    0.11    0.71
  15   5   3   -0.07    0.64
  15   5  -3   -0.58    0.64
  15   6   0   -0.75    0.58
  15   6   1    1.62    0.72
  15   6  -1    1.53    0.73
  15   6   2    3.29    0.90
  15   6  -2    3.04    0.87
  16   0   0   26.62    1.67
  16   0  -1   18.20    1.43
  16   0   1   19.14    1.41
  16   0   2   13.13    1.10
  16   0  -2   11.60    1.14
  16   0  -3    0.12    0.69
  16   0  -4   -0.17    0.68
  16  -1   0   -0.24    0.51
  16   1   0    0.88    0.57
  16   1   1    1.53    0.69
  16  -1  -1    1.02    0.61
  16   1  -1    1.24    0.65
  16   1   2    0.63    0.64
  16  -1  -2    0.43    0.66
  16   1  -2   -0.84    0.60
  16   1   3    4.30    0.79
  16  -1  -3    4.01    0.85
  16   1  -3    4.92    0.88
  16   1   4    0.11    0.68
  16  -1  -4   -0.63    0.69
  16   1  -4    0.14    0.74
  16   2   0    9.01    1.01
  16   2   1   -0.70    0.57
  16   2  -1    0.16    0.67
  16  -2  -2   19.52    1.45
  16   2   2   18.99    1.43
  16   2  -2   16.78    1.42
  16  -2  -3    0.73    0.67
  16   2   3    0.19    0.60
  16   2  -3    1.48    0.72
  16   2   4   26.30    1.77
  16   3   0    0.10    0.70
  16   3   1   22.71    1.56
  16   3  -1   18.62    1.56
  16   3   2    0.89    0.70
  16   3  -2   -0.55    0.65
  16   3   3   20.48    1.61
  16   3  -3   21.95    1.66
  16   4   0   12.23    1.28
  16   4   1   10.49    1.14
  16   4  -1   10.96    1.14
  16   4   2    2.68    0.76
  16   4  -2    3.20    0.84
  16   4   3    1.29    0.80
  16   4  -3   -0.35    0.69
  16   5   0    1.94    0.80
  16   5   1    0.94    0.81
  16   5  -1    1.63    0.85
  16   5   2   -1.21    0.69
  16   5  -2    0.55    0.78
  17   0   0   -0.03    0.61
  17   0   1    1.63    0.68
  17   0  -1    0.09    0.65
  17   0  -2    5.88    0.92
  17   0   2    6.83    0.96
  17   0  -3    1.42    0.76
  17   1   0   -0.72    0.62
  17  -1   0    0.83    0.63
  17  -1  -1   -0.71    0.55
  17   1   1    0.49    0.63
  17   1  -1   -0.65    0.67
  17  -1  -2    3.54    0.81
  17   1   2    3.82    0.79
  17   1  -2    3.84    0.85
  17  -1  -3    1.01    0.76
  17   1   3    0.98    0.72
  17   1  -3    0.10    0.74
  17   2   0   -0.96    0.62
  17   2   1    5.36    0.91
  17   2  -1    4.75    0.96
  17   2   2    0.91    0.68
  17  -2  -2    1.38    0.84
  17   2  -2    1.17    0.73
  17   2   3   19.07    1.56
  17  -2  -3   16.31    1.42
  17   3   0    0.32    0.74
  17   3   1    0.95    0.70
  17   3  -1    0.52    0.65
  17   3   2    6.18    0.94
  17   3  -2    6.87    1.02
  17   4   0   -0.57    0.66
  17   4   1   -0.28    0.77
  17   4  -1    0.95    0.78
  18   0   0    0.07    0.62
  18   0  -1   20.68    1.79
  18   0   1   25.79    1.72
  18   0  -2   -0.18    0.74
  18   1   0   21.83    1.69
  18   1   1    0.76    0.69
  18  -1  -1    0.05    0.77
  18   1  -1   -0.15    0.72
  18   2   0   -0.55    0.71
  18   2   1    7.09    1.00
  18   2  -1    6.49    0.97
   0   0   0    0.00    0.00
;
_shelx_hkl_checksum              76038
loop_
_space_group_symop_operation_xyz
'x, y, z'
'-x+1/2, -y, z+1/2'
'-x, y+1/2, -z'
'x+1/2, -y+1/2, -z+1/2'
'-x, -y, -z'
'x-1/2, y, -z-1/2'
'x, -y-1/2, z'
'-x-1/2, y-1/2, z-1/2'
loop_
_atom_site_label
_atom_site_type_symbol
_atom_site_fract_x
_atom_site_fract_y
_atom_site_fract_z
_atom_site_U_iso_or_equiv
_atom_site_adp_type
_atom_site_occupancy
_atom_site_site_symmetry_order
_atom_site_calc_flag
_atom_site_refinement_flags_posn
_atom_site_refinement_flags_adp
_atom_site_refinement_flags_occupancy
P1 P 0.08714(6) 0.250000 0.15547(11) 0.01239(17) Uani 0.75 2 d S T P
Si1 Si 0.08714(6) 0.250000 0.15547(11) 0.01239(17) Uani 0.25 2 d S T P
S1 S 0.15276(4) 0.03467(6) 0.27540(8) 0.01825(15) Uani 1 1 d . . .
S2 S -0.06200(6) 0.250000 0.26907(12) 0.01579(17) Uani 1 2 d S T P
S3 S 0.10062(6) 0.250000 -0.17941(11) 0.01811(18) Uani 1 2 d S T P
Li1A Li 0.3300(4) 0.0303(5) 0.3839(9) 0.0326(13) Uani 0.918(10) 1 d . U P
Li1B Li 0.338(4) 0.015(7) 0.217(10) 0.0326(13) Uani 0.082(10) 1 d . U P
Li2 Li 0.0052(7) 0.0448(11) 0.5544(15) 0.029(3) Uani 0.442(17) 1 d . . .
Li3A Li -0.083(3) 0.250000 -0.167(8) 0.052(18) Uani 0.20(4) 2 d S T .
Li3B Li -0.070(3) 0.250000 -0.305(9) 0.025(16) Uiso 0.14(4) 2 d S . .
loop_
_atom_site_aniso_label
_atom_site_aniso_U_11
_atom_site_aniso_U_22
_atom_site_aniso_U_33
_atom_site_aniso_U_23
_atom_site_aniso_U_13
_atom_site_aniso_U_12
P1 0.0156(4) 0.0127(3) 0.0088(3) 0.000 0.0015(3) 0.000
Si1 0.0156(4) 0.0127(3) 0.0088(3) 0.000 0.0015(3) 0.000
S1 0.0189(3) 0.0182(3) 0.0176(2) 0.00329(19) 0.00030(18) 0.0027(2)
S2 0.0169(4) 0.0160(3) 0.0145(3) 0.000 0.0010(2) 0.000
S3 0.0273(4) 0.0172(3) 0.0098(3) 0.000 0.0026(3) 0.000
Li1A 0.027(2) 0.028(2) 0.043(3) 0.017(2) -0.006(2) -0.0008(18)
Li1B 0.027(2) 0.028(2) 0.043(3) 0.017(2) -0.006(2) -0.0008(18)
Li2 0.020(5) 0.033(6) 0.035(6) 0.015(4) 0.010(4) -0.004(4)
Li3A 0.07(3) 0.05(2) 0.04(3) 0.000 0.00(2) 0.000
loop_
_atom_type_symbol
_atom_type_description
_atom_type_scat_dispersion_real
_atom_type_scat_dispersion_imag
_atom_type_scat_source
Li Li -0.0003 0.0001 'International Tables Vol C Tables 4.2.6.8 and 6.1.1.4'
P P 0.1023 0.0942 'International Tables Vol C Tables 4.2.6.8 and 6.1.1.4'
S S 0.1246 0.1234 'International Tables Vol C Tables 4.2.6.8 and 6.1.1.4'
Si Si 0.0817 0.0704 'International Tables Vol C Tables 4.2.6.8 and 6.1.1.4'
loop_
_geom_angle_atom_site_label_1
_geom_angle_atom_site_label_2
_geom_angle_atom_site_label_3
_geom_angle
_geom_angle_site_symmetry_1
_geom_angle_site_symmetry_3
S3 P1 S1 108.59(3) . .
S3 P1 S1 108.59(3) . 7_565
S1 P1 S1 113.39(6) . 7_565
S3 P1 S2 114.48(5) . .
S1 P1 S2 105.95(3) . .
S1 P1 S2 105.95(3) 7_565 .
S3 P1 Li3A 53.5(10) . .
S1 P1 Li3A 123.30(3) . .
S1 P1 Li3A 123.30(3) 7_565 .
S2 P1 Li3A 61.0(10) . .
S3 P1 Li1A 54.27(11) . 2_554
S1 P1 Li1A 54.56(11) . 2_554
S1 P1 Li1A 132.17(10) 7_565 2_554
S2 P1 Li1A 121.86(9) . 2_554
Li3A P1 Li1A 84.6(7) . 2_554
S3 P1 Li1A 54.27(11) . 8_665
S1 P1 Li1A 132.17(10) . 8_665
S1 P1 Li1A 54.56(11) 7_565 8_665
S2 P1 Li1A 121.86(9) . 8_665
Li3A P1 Li1A 84.6(7) . 8_665
Li1A P1 Li1A 96.9(2) 2_554 8_665
P1 S1 Li2 90.9(2) . 5_556
P1 S1 Li1A 120.78(10) . .
Li2 S1 Li1A 134.9(3) 5_556 .
P1 S1 Li1B 114.5(12) . .
Li2 S1 Li1B 153.7(12) 5_556 .
Li1A S1 Li1B 24.5(14) . .
P1 S1 Li1A 82.44(11) . 2_554
Li2 S1 Li1A 116.4(3) 5_556 2_554
Li1A S1 Li1A 100.12(13) . 2_554
Li1B S1 Li1A 75.7(15) . 2_554
P1 S1 Li3B 126.8(9) . 5
Li2 S1 Li3B 50.4(10) 5_556 5
Li1A S1 Li3B 112.3(9) . 5
Li1B S1 Li3B 111.9(15) . 5
Li1A S1 Li3B 85.3(13) 2_554 5
P1 S1 Li3A 120.4(9) . 5
Li2 S1 Li3A 64.3(11) 5_556 5
Li1A S1 Li3A 113.8(9) . 5
Li1B S1 Li3A 104.9(17) . 5
Li1A S1 Li3A 65.8(12) 2_554 5
Li3B S1 Li3A 19.5(12) 5 5
P1 S1 Li2 84.0(2) . .
Li2 S1 Li2 22.5(4) 5_556 .
Li1A S1 Li2 122.7(3) . .
Li1B S1 Li2 147.0(14) . .
Li1A S1 Li2 135.9(2) 2_554 .
Li3B S1 Li2 70.2(11) 5 .
Li3A S1 Li2 86.1(12) 5 .
P1 S1 Li1B 119.4(11) . 2
Li2 S1 Li1B 64.7(11) 5_556 2
Li1A S1 Li1B 71.5(11) . 2
Li1B S1 Li1B 95.2(17) . 2
Li1A S1 Li1B 158.0(11) 2_554 2
Li3B S1 Li1B 79.6(17) 5 2
Li3A S1 Li1B 98.3(16) 5 2
Li2 S1 Li1B 52.1(11) . 2
P1 S2 Li1B 123.5(13) . 6_556
P1 S2 Li1B 123.5(13) . 4_455
Li1B S2 Li1B 110(3) 6_556 4_455
P1 S2 Li1A 114.73(11) . 6_556
Li1B S2 Li1A 25.0(15) 6_556 6_556
Li1B S2 Li1A 105.8(14) 4_455 6_556
P1 S2 Li1A 114.73(11) . 4_455
Li1B S2 Li1A 105.8(14) 6_556 4_455
Li1B S2 Li1A 25.0(15) 4_455 4_455
Li1A S2 Li1A 91.9(2) 6_556 4_455
P1 S2 Li2 84.4(2) . .
Li1B S2 Li2 69.2(16) 6_556 .
Li1B S2 Li2 134.3(15) 4_455 .
Li1A S2 Li2 90.0(2) 6_556 .
Li1A S2 Li2 157.6(2) 4_455 .
P1 S2 Li2 84.4(2) . 7_565
Li1B S2 Li2 134.3(15) 6_556 7_565
Li1B S2 Li2 69.2(16) 4_455 7_565
Li1A S2 Li2 157.6(2) 6_556 7_565
Li1A S2 Li2 90.0(2) 4_455 7_565
Li2 S2 Li2 80.0(4) . 7_565
P1 S2 Li3B 112.0(9) . 1_556
Li1B S2 Li3B 86.5(16) 6_556 1_556
Li1B S2 Li3B 86.5(16) 4_455 1_556
Li1A S2 Li3B 111.0(6) 6_556 1_556
Li1A S2 Li3B 111.0(6) 4_455 1_556
Li2 S2 Li3B 48.0(5) . 1_556
Li2 S2 Li3B 48.0(5) 7_565 1_556
P1 S2 Li3A 76.4(10) . .
Li1B S2 Li3A 88.7(17) 6_556 .
Li1B S2 Li3A 88.7(17) 4_455 .
Li1A S2 Li3A 63.8(6) 6_556 .
Li1A S2 Li3A 63.8(6) 4_455 .
Li2 S2 Li3A 135.7(4) . .
Li2 S2 Li3A 135.7(4) 7_565 .
Li3B S2 Li3A 171.6(14) 1_556 .
P1 S2 Li2 82.73(19) . 3_556
Li1B S2 Li2 149.2(14) 6_556 3_556
Li1B S2 Li2 55.0(15) 4_455 3_556
Li1A S2 Li2 160.4(2) 6_556 3_556
Li1A S2 Li2 71.7(2) 4_455 3_556
Li2 S2 Li2 101.10(8) . 3_556
Li2 S2 Li2 21.5(4) 7_565 3_556
Li3B S2 Li2 67.2(4) 1_556 3_556
Li3A S2 Li2 115.3(3) . 3_556
P1 S2 Li2 82.73(19) . 5_556
Li1B S2 Li2 55.0(15) 6_556 5_556
Li1B S2 Li2 149.2(14) 4_455 5_556
Li1A S2 Li2 71.7(2) 6_556 5_556
Li1A S2 Li2 160.4(2) 4_455 5_556
Li2 S2 Li2 21.4(4) . 5_556
Li2 S2 Li2 101.10(8) 7_565 5_556
Li3B S2 Li2 67.2(4) 1_556 5_556
Li3A S2 Li2 115.3(3) . 5_556
Li2 S2 Li2 121.8(4) 3_556 5_556
P1 S3 Li1B 107.4(16) . 8_665
P1 S3 Li1B 107.4(16) . 2_554
Li1B S3 Li1B 128(3) 8_665 2_554
P1 S3 Li3B 103.9(14) . .
Li1B S3 Li3B 103.7(14) 8_665 .
Li1B S3 Li3B 103.7(14) 2_554 .
P1 S3 Li3A 83.3(12) . .
Li1B S3 Li3A 110.6(13) 8_665 .
Li1B S3 Li3A 110.6(13) 2_554 .
Li3B S3 Li3A 20.6(13) . .
P1 S3 Li1A 82.79(12) . 8_665
Li1B S3 Li1A 24.8(15) 8_665 8_665
Li1B S3 Li1A 137.6(13) 2_554 8_665
Li3B S3 Li1A 113.75(12) . 8_665
Li3A S3 Li1A 111.5(2) . 8_665
P1 S3 Li1A 82.79(12) . 2_554
Li1B S3 Li1A 137.6(13) 8_665 2_554
Li1B S3 Li1A 24.8(15) 2_554 2_554
Li3B S3 Li1A 113.75(12) . 2_554
Li3A S3 Li1A 111.5(2) . 2_554
Li1A S3 Li1A 132.4(2) 8_665 2_554
P1 S3 Li2 125.18(19) . 1_554
Li1B S3 Li2 123.9(16) 8_665 1_554
Li1B S3 Li2 55.6(14) 2_554 1_554
Li3B S3 Li2 49.4(8) . 1_554
Li3A S3 Li2 62.8(9) . 1_554
Li1A S3 Li2 147.8(2) 8_665 1_554
Li1A S3 Li2 72.8(2) 2_554 1_554
P1 S3 Li2 125.18(19) . 7_564
Li1B S3 Li2 55.6(14) 8_665 7_564
Li1B S3 Li2 123.9(16) 2_554 7_564
Li3B S3 Li2 49.4(8) . 7_564
Li3A S3 Li2 62.8(9) . 7_564
Li1A S3 Li2 72.8(2) 8_665 7_564
Li1A S3 Li2 147.8(2) 2_554 7_564
Li2 S3 Li2 77.2(4) 1_554 7_564
Li1B Li1A S1 80(3) . .
Li1B Li1A S2 70(3) . 6_656
S1 Li1A S2 116.24(17) . 6_656
Li1B Li1A S3 72(3) . 2
S1 Li1A S3 109.09(19) . 2
S2 Li1A S3 112.4(2) 6_656 2
Li1B Li1A S1 158(3) . 2
S1 Li1A S1 111.00(19) . 2
S2 Li1A S1 118.1(2) 6_656 2
S3 Li1A S1 85.79(14) 2 2
Li1B Li1A Li3A 132(3) . 6_656
S1 Li1A Li3A 124.6(9) . 6_656
S2 Li1A Li3A 62.4(9) 6_656 6_656
S3 Li1A Li3A 122.5(8) 2 6_656
S1 Li1A Li3A 58.5(8) 2 6_656
Li1B Li1A P1 115(3) . 2
S1 Li1A P1 120.81(16) . 2
S2 Li1A P1 122.69(17) 6_656 2
S3 Li1A P1 42.94(7) 2 2
S1 Li1A P1 43.01(7) 2 2
Li3A Li1A P1 88.7(7) 6_656 2
Li1B Li1A Li2 41(3) . 2_554
S1 Li1A Li2 120.6(3) . 2_554
S2 Li1A Li2 58.09(19) 6_656 2_554
S3 Li1A Li2 56.3(2) 2 2_554
S1 Li1A Li2 122.8(2) 2 2_554
Li3A Li1A Li2 104.7(10) 6_656 2_554
P1 Li1A Li2 87.8(2) 2 2_554
Li1B Li1A Li1B 136(2) . 2
S1 Li1A Li1B 59.0(12) . 2
S2 Li1A Li1B 140.0(10) 6_656 2
S3 Li1A Li1B 105.6(10) 2 2
S1 Li1A Li1B 52.1(11) 2 2
Li3A Li1A Li1B 87.3(14) 6_656 2
P1 Li1A Li1B 78.6(11) 2 2
Li2 Li1A Li1B 161.7(10) 2_554 2
Li1B Li1A Li3B 141(3) . 6_656
S1 Li1A Li3B 125.0(7) . 6_656
S2 Li1A Li3B 72.2(7) 6_656 6_656
S3 Li1A Li3B 116.9(5) 2 6_656
S1 Li1A Li3B 48.2(6) 2 6_656
Li3A Li1A Li3B 10.3(8) 6_656 6_656
P1 Li1A Li3B 80.0(5) 2 6_656
Li2 Li1A Li3B 109.6(8) 2_554 6_656
Li1B Li1A Li3B 80.2(13) 2 6_656
Li1B Li1A Li1A 97(3) . 7_565
S1 Li1A Li1A 89.17(10) . 7_565
S2 Li1A Li1A 44.03(12) 6_656 7_565
S3 Li1A Li1A 156.18(11) 2 7_565
S1 Li1A Li1A 102.19(11) 2 7_565
Li3A Li1A Li1A 49.7(7) 6_656 7_565
P1 Li1A Li1A 138.47(10) 2 7_565
Li2 Li1A Li1A 101.49(18) 2_554 7_565
Li1B Li1A Li1A 96.8(10) 2 7_565
Li3B Li1A Li1A 58.7(5) 6_656 7_565
Li1A Li1B S2 85(3) . 6_656
Li1A Li1B Li2 122(4) . 2_554
S2 Li1B Li2 71.2(15) 6_656 2_554
Li1A Li1B S3 83(3) . 2
S2 Li1B S3 122(2) 6_656 2
Li2 Li1B S3 68.2(15) 2_554 2
Li1A Li1B S1 76(3) . .
S2 Li1B S1 120(2) 6_656 .
Li2 Li1B S1 161(3) 2_554 .
S3 Li1B S1 111(2) 2 .
Li1A Li1B S1 177(4) . 2_554
S2 Li1B S1 97.4(19) 6_656 2_554
Li2 Li1B S1 60.7(15) 2_554 2_554
S3 Li1B S1 97(2) 2 2_554
S1 Li1B S1 101.4(19) . 2_554
Li1A Li1B Li2 131(4) . 6_656
S2 Li1B Li2 59.7(12) 6_656 6_656
Li2 Li1B Li2 20.2(6) 2_554 6_656
S3 Li1B Li2 88.2(18) 2 6_656
S1 Li1B Li2 150(2) . 6_656
S1 Li1B Li2 51.9(11) 2_554 6_656
Li1A Li1B Li1A 127(4) . 2_554
S2 Li1B Li1A 123(2) 6_656 2_554
Li2 Li1B Li1A 109(2) 2_554 2_554
S3 Li1B Li1A 109(2) 2 2_554
S1 Li1B Li1A 52.1(10) . 2_554
S1 Li1B Li1A 49.4(10) 2_554 2_554
Li2 Li1B Li1A 100.7(19) 6_656 2_554
Li1A Li1B Li3B 135(4) . 6_655
S2 Li1B Li3B 50.6(13) 6_656 6_655
Li2 Li1B Li3B 58.7(13) 2_554 6_655
S3 Li1B Li3B 126(2) 2 6_655
S1 Li1B Li3B 115.2(19) . 6_655
S1 Li1B Li3B 47.5(11) 2_554 6_655
Li2 Li1B Li3B 38.5(10) 6_656 6_655
Li1A Li1B Li3B 79.8(16) 2_554 6_655
Li1A Li1B Li3A 35(2) . 6_656
S2 Li1B Li3A 50.2(14) 6_656 6_656
Li2 Li1B Li3A 100.6(19) 2_554 6_656
S3 Li1B Li3A 99.8(19) 2 6_656
S1 Li1B Li3A 98(2) . 6_656
S1 Li1B Li3A 148(2) 2_554 6_656
Li2 Li1B Li3A 101.0(17) 6_656 6_656
Li1A Li1B Li3A 144(2) 2_554 6_656
Li3B Li1B Li3A 100.5(16) 6_655 6_656
Li2 Li2 Li3B 141.1(18) 5_556 1_556
Li2 Li2 Li1B 105.1(17) 5_556 2
Li3B Li2 Li1B 113.6(19) 1_556 2
Li2 Li2 S1 88.9(10) 5_556 5_556
Li3B Li2 S1 67.8(11) 1_556 5_556
Li1B Li2 S1 121.5(15) 2 5_556
Li2 Li2 S2 87.6(11) 5_556 .
Li3B Li2 S2 67.4(14) 1_556 .
Li1B Li2 S2 136.6(15) 2 .
S1 Li2 S2 99.7(3) 5_556 .
Li2 Li2 S1 68.6(10) 5_556 .
Li3B Li2 S1 130.5(12) 1_556 .
Li1B Li2 S1 67.2(15) 2 .
S1 Li2 S1 157.5(4) 5_556 .
S2 Li2 S1 80.1(3) . .
Li2 Li2 S3 159.4(13) 5_556 1_556
Li3B Li2 S3 58.9(12) 1_556 1_556
Li1B Li2 S3 56.2(13) 2 1_556
S1 Li2 S3 107.9(3) 5_556 1_556
S2 Li2 S3 100.8(3) . 1_556
S1 Li2 S3 94.1(3) . 1_556
Li2 Li2 Li3A 145.8(15) 5_556 1_556
Li3B Li2 Li3A 16.4(12) 1_556 1_556
Li1B Li2 Li3A 103.9(16) 2 1_556
S1 Li2 Li3A 60.3(8) 5_556 1_556
S2 Li2 Li3A 83.7(9) . 1_556
S1 Li2 Li3A 141.0(8) . 1_556
S3 Li2 Li3A 54.6(9) 1_556 1_556
Li2 Li2 S2 70.9(10) 5_556 5_556
Li3B Li2 S2 130.4(14) 1_556 5_556
Li1B Li2 S2 53.7(14) 2 5_556
S1 Li2 S2 80.4(2) 5_556 5_556
S2 Li2 S2 158.6(4) . 5_556
S1 Li2 S2 91.7(3) . 5_556
S3 Li2 S2 99.5(3) 1_556 5_556
Li3A Li2 S2 114.0(9) 1_556 5_556
Li2 Li2 Li1B 54.7(15) 5_556 6_556
Li3B Li2 Li1B 86.5(17) 1_556 6_556
Li1B Li2 Li1B 159.8(6) 2 6_556
S1 Li2 Li1B 63.4(13) 5_556 6_556
S2 Li2 Li1B 51.0(12) . 6_556
S1 Li2 Li1B 101.3(12) . 6_556
S3 Li2 Li1B 143.6(11) 1_556 6_556
Li3A Li2 Li1B 95.3(15) 1_556 6_556
S2 Li2 Li1B 112.5(12) 5_556 6_556
Li2 Li2 Li3B 26.7(13) 5_556 5
Li3B Li2 Li3B 167.8(6) 1_556 5
Li1B Li2 Li3B 78.5(16) 2 5
S1 Li2 Li3B 105.3(8) 5_556 5
S2 Li2 Li3B 105.1(10) . 5
S1 Li2 Li3B 54.0(8) . 5
S3 Li2 Li3B 133.2(9) 1_556 5
Li3A Li2 Li3B 164.7(9) 1_556 5
S2 Li2 Li3B 55.0(10) 5_556 5
Li1B Li2 Li3B 81.3(14) 6_556 5
Li2 Li2 Li1A 113.8(12) 5_556 2
Li3B Li2 Li1A 102.7(14) 1_556 2
Li1B Li2 Li1A 16.9(14) 2 2
S1 Li2 Li1A 106.0(3) 5_556 2
S2 Li2 Li1A 146.4(4) . 2
S1 Li2 Li1A 84.1(3) . 2
S3 Li2 Li1A 50.87(19) 1_556 2
Li3A Li2 Li1A 90.4(10) 1_556 2
S2 Li2 Li1A 50.24(19) 5_556 2
Li1B Li2 Li1A 162.5(12) 6_556 2
Li3B Li2 Li1A 88.8(9) 5 2
Li3B Li3A S3 77(4) . .
Li3B Li3A S1 79.3(19) . 5
S3 Li3A S1 110.5(11) . 5
Li3B Li3A S1 79.3(19) . 3
S3 Li3A S1 110.5(11) . 3
S1 Li3A S1 127.3(18) 5 3
Li3B Li3A Li2 43.9(18) . 1_554
S3 Li3A Li2 62.6(11) . 1_554
S1 Li3A Li2 55.4(6) 5 1_554
S1 Li3A Li2 123.2(19) 3 1_554
Li3B Li3A Li2 43.9(18) . 7_564
S3 Li3A Li2 62.6(11) . 7_564
S1 Li3A Li2 123.2(19) 5 7_564
S1 Li3A Li2 55.4(6) 3 7_564
Li2 Li3A Li2 77.0(15) 1_554 7_564
Li3B Li3A S2 163(5) . .
S3 Li3A S2 85.8(14) . .
S1 Li3A S2 107.3(12) 5 .
S1 Li3A S2 107.3(12) 3 .
Li2 Li3A S2 126.7(12) 1_554 .
Li2 Li3A S2 126.7(12) 7_564 .
Li3B Li3A Li1A 135(2) . 4_455
S3 Li3A Li1A 116.0(14) . 4_455
S1 Li3A Li1A 126.5(18) 5 4_455
S1 Li3A Li1A 55.7(5) 3 4_455
Li2 Li3A Li1A 178.1(15) 1_554 4_455
Li2 Li3A Li1A 101.2(2) 7_564 4_455
S2 Li3A Li1A 53.8(9) . 4_455
Li3B Li3A Li1A 135(2) . 6_556
S3 Li3A Li1A 116.0(14) . 6_556
S1 Li3A Li1A 55.7(5) 5 6_556
S1 Li3A Li1A 126.5(18) 3 6_556
Li2 Li3A Li1A 101.2(2) 1_554 6_556
Li2 Li3A Li1A 178.1(15) 7_564 6_556
S2 Li3A Li1A 53.8(9) . 6_556
Li1A Li3A Li1A 80.6(14) 4_455 6_556
Li3B Li3A P1 120(5) . .
S3 Li3A P1 43.2(7) . .
S1 Li3A P1 116.2(9) 5 .
S1 Li3A P1 116.2(9) 3 .
Li2 Li3A P1 95.6(12) 1_554 .
Li2 Li3A P1 95.6(12) 7_564 .
S2 Li3A P1 42.6(7) . .
Li1A Li3A P1 83.8(12) 4_455 .
Li1A Li3A P1 83.8(12) 6_556 .
Li3B Li3A Li1B 146.2(14) . 4_455
S3 Li3A Li1B 108.7(16) . 4_455
S1 Li3A Li1B 125.6(18) 5 4_455
S1 Li3A Li1B 67.4(12) 3 4_455
Li2 Li3A Li1B 167.4(18) 1_554 4_455
Li2 Li3A Li1B 107.7(9) 7_564 4_455
S2 Li3A Li1B 41.1(11) . 4_455
Li1A Li3A Li1B 12.8(9) 4_455 4_455
Li1A Li3A Li1B 73.8(14) 6_556 4_455
P1 Li3A Li1B 72.6(13) . 4_455
Li3A Li3B Li2 120(3) . 7_564
Li3A Li3B Li2 120(3) . 1_554
Li2 Li3B Li2 103(2) 7_564 1_554
Li3A Li3B S3 82(4) . .
Li2 Li3B S3 71.7(12) 7_564 .
Li2 Li3B S3 71.7(12) 1_554 .
Li3A Li3B S1 81(2) . 5
Li2 Li3B S1 159(3) 7_564 5
Li2 Li3B S1 61.8(3) 1_554 5
S3 Li3B S1 112.5(10) . 5
Li3A Li3B S1 81(2) . 3
Li2 Li3B S1 61.8(3) 7_564 3
Li2 Li3B S1 159(3) 1_554 3
S3 Li3B S1 112.5(10) . 3
S1 Li3B S1 128.6(18) 5 3
Li3A Li3B S2 171(5) . 1_554
Li2 Li3B S2 64.6(14) 7_564 1_554
Li2 Li3B S2 64.6(14) 1_554 1_554
S3 Li3B S2 106.4(18) . 1_554
S1 Li3B S2 95.1(13) 5 1_554
S1 Li3B S2 95.1(13) 3 1_554
Li3A Li3B Li2 124.6(14) . 5
Li2 Li3B Li2 106(2) 7_564 5
Li2 Li3B Li2 12.2(6) 1_554 5
S3 Li3B Li2 83.8(10) . 5
S1 Li3B Li2 55.8(4) 5 5
S1 Li3B Li2 152(2) 3 5
S2 Li3B Li2 57.9(10) 1_554 5
Li3A Li3B Li2 124.6(14) . 3
Li2 Li3B Li2 12.2(6) 7_564 3
Li2 Li3B Li2 106(2) 1_554 3
S3 Li3B Li2 83.8(10) . 3
S1 Li3B Li2 152(2) 5 3
S1 Li3B Li2 55.8(4) 3 3
S2 Li3B Li2 57.9(10) 1_554 3
Li2 Li3B Li2 106.8(17) 5 3
Li3A Li3B Li1B 132(3) . 6
Li2 Li3B Li1B 107(2) 7_564 6
Li2 Li3B Li1B 54.9(13) 1_554 6
S3 Li3B Li1B 125.5(17) . 6
S1 Li3B Li1B 52.9(12) 5 6
S1 Li3B Li1B 113.8(18) 3 6
S2 Li3B Li1B 42.9(13) 1_554 6
Li2 Li3B Li1B 42.8(11) 5 6
Li2 Li3B Li1B 99.4(19) 3 6
Li3A Li3B Li1B 132(3) . 4_454
Li2 Li3B Li1B 54.9(13) 7_564 4_454
Li2 Li3B Li1B 107(2) 1_554 4_454
S3 Li3B Li1B 125.5(17) . 4_454
S1 Li3B Li1B 113.8(18) 5 4_454
S1 Li3B Li1B 52.9(12) 3 4_454
S2 Li3B Li1B 42.9(13) 1_554 4_454
Li2 Li3B Li1B 99.4(19) 5 4_454
Li2 Li3B Li1B 42.8(11) 3 4_454
Li1B Li3B Li1B 68(2) 6 4_454
Li3A Li3B Li1A 34.6(15) . 4_455
Li2 Li3B Li1A 95.1(8) 7_564 4_455
Li2 Li3B Li1A 154(2) 1_554 4_455
S3 Li3B Li1A 96.9(15) . 4_455
S1 Li3B Li1A 104.4(16) 5 4_455
S1 Li3B Li1A 46.5(7) 3 4_455
S2 Li3B Li1A 141.0(10) 1_554 4_455
Li2 Li3B Li1A 157.9(14) 5 4_455
Li2 Li3B Li1A 95.3(4) 3 4_455
Li1B Li3B Li1A 136.2(16) 6 4_455
Li1B Li3B Li1A 98.1(12) 4_454 4_455
loop_
_geom_bond_atom_site_label_1
_geom_bond_atom_site_label_2
_geom_bond_distance
_geom_bond_site_symmetry_2
P1 S3 2.0613(14) .
P1 S1 2.0654(10) .
P1 S1 2.0654(10) 7_565
P1 S2 2.0822(15) .
P1 Li3A 2.99(4) .
P1 Li1A 3.002(4) 2_554
P1 Li1A 3.002(4) 8_665
S1 Li2 2.411(9) 5_556
S1 Li1A 2.425(5) .
S1 Li1B 2.47(5) .
S1 Li1A 2.467(5) 2_554
S1 Li3B 2.533(19) 5
S1 Li3A 2.55(2) 5
S1 Li2 2.589(9) .
S1 Li1B 2.74(6) 2
S2 Li1B 2.30(5) 6_556
S2 Li1B 2.30(5) 4_455
S2 Li1A 2.450(5) 6_556
S2 Li1A 2.450(5) 4_455
S2 Li2 2.559(9) .
S2 Li2 2.559(9) 7_565
S2 Li3B 2.62(6) 1_556
S2 Li3A 2.69(5) .
S2 Li2 2.705(9) 3_556
S2 Li2 2.705(9) 5_556
S3 Li1B 2.36(5) 8_665
S3 Li1B 2.36(5) 2_554
S3 Li3B 2.38(4) .
S3 Li3A 2.42(5) .
S3 Li1A 2.456(5) 8_665
S3 Li1A 2.456(5) 2_554
S3 Li2 2.636(9) 1_554
S3 Li2 2.636(9) 7_564
Li1A Li1B 1.04(6) .
Li1A Li3A 2.72(4) 6_656
Li1A Li2 3.025(11) 2_554
Li1A Li1B 3.03(6) 2
Li1A Li3B 3.39(5) 6_656
Li1A Li1A 3.522(9) 7_565
Li1B Li2 2.34(6) 2_554
Li1B Li2 2.77(6) 6_656
Li1B Li3B 3.38(7) 6_655
Li1B Li3A 3.50(8) 6_656
Li2 Li2 0.990(18) 5_556
Li2 Li3B 2.11(3) 1_556
Li2 Li3A 2.64(4) 1_556
Li2 Li3B 2.94(3) 5
Li3A Li3B 0.86(5) .
