#------------------------------------------------------------------------------
#$Date: 2016-03-21 01:21:50 +0200 (Mon, 21 Mar 2016) $
#$Revision: 178377 $
#$URL: svn://www.crystallography.net/cod/cif/4/00/21/4002102.cif $
#------------------------------------------------------------------------------
#
# This file is available in the Crystallography Open Database (COD),
# http://www.crystallography.net/
#
# All data on this site have been placed in the public domain by the
# contributors.
#
data_4002102
loop_
_publ_author_name
'Nanthamathee, Chompoonoot'
'Ling, Sanliang'
'Slater, Ben'
'Attfield, Martin P.'
_publ_section_title
;
 Contradistinct Thermoresponsive Behavior of Isostructural MIL-53 Type
 Metal--Organic Frameworks by Modifying the Framework Inorganic Anion
;
_journal_name_full               'Chemistry of Materials'
_journal_page_first              141223143002002
_journal_paper_doi               10.1021/cm503311x
_journal_year                    2014
_chemical_formula_sum            'C8 Al F O4'
_chemical_formula_weight         206.06
_chemical_name_systematic        ' ?'
_space_group_IT_number           15
_symmetry_cell_setting           monoclinic
_symmetry_space_group_name_Hall  '-I 2b'
_symmetry_space_group_name_H-M   'I 1 1 2/b'
_audit_creation_date             2014-08-28T13:12
_audit_creation_method           'from EXP file using GSAS2CIF'
_audit_update_record
' 2014-08-28T13:12  Initial CIF as created by GSAS2CIF'
_cell_angle_alpha                90.0
_cell_angle_beta                 90.0
_cell_angle_gamma                90.139(5)
_cell_formula_units_Z            4
_cell_length_a                   6.56677(19)
_cell_length_b                   16.3971(7)
_cell_length_c                   13.2021(8)
_cell_volume                     1421.54(11)
_computing_structure_refinement  GSAS
_diffrn_radiation_polarisn_ratio 0.95
_diffrn_radiation_probe          x-ray
_diffrn_radiation_wavelength     0.825993
_exptl_absorpt_correction_T_max  1.00000
_exptl_absorpt_correction_T_min  1.00000
_exptl_absorpt_process_details
;   GSAS Absorption/surface roughness correction: function number 0
 No correction is applied.
;
_pd_block_id                     2014-08-28T13:12|150K|175K|Synchrotron_I11
_pd_calc_method                  'Rietveld Refinement'
_pd_instr_location               ' ?'
_pd_meas_2theta_range_inc        0.003
_pd_meas_2theta_range_max        149.9955
_pd_meas_2theta_range_min        0.0015
_pd_meas_number_of_points        49999
_pd_phase_name                   300K
_pd_proc_2theta_range_inc        0.003
_pd_proc_2theta_range_max        150.00533
_pd_proc_2theta_range_min        0.011327
_pd_proc_info_datetime           2014-08-28T13:12:25
_pd_proc_info_excluded_regions   ' ?'
_pd_proc_ls_background_function
;   GSAS Background function number 1 with  2 terms.
 Shifted Chebyshev function of 1st kind
      1:    0.00000     2:    0.00000    
;
_pd_proc_ls_peak_cutoff          0.00001
_pd_proc_ls_profile_function
;
 CW Profile function number 4 with  21 terms
 Pseudovoigt profile coefficients as parameterized in
 P. Thompson, D.E. Cox & J.B. Hastings (1987). J. Appl. Cryst.,20,79-83.
 Asymmetry correction of L.W. Finger, D.E. Cox & A. P. Jephcoat (1994).
 J. Appl. Cryst.,27,892-900.
 Microstrain broadening by P.W. Stephens,  (1999). J. Appl. Cryst.,32,281-289.
 Peak tails are ignored  where the intensity is below 0.0000 times the peak
   Aniso. broadening axis   1.0   0.0   1.0
;
_pd_proc_ls_prof_R_factor        0.0334
_pd_proc_ls_prof_wR_expected     0.0242
_pd_proc_ls_prof_wR_factor       0.0429
_pd_proc_number_of_points        49999
_pd_spec_mounting                ' ?'
_refine_ls_goodness_of_fit_all   1.78
_refine_ls_matrix_type           full
_refine_ls_number_parameters     42
_refine_ls_number_restraints     0
_refine_ls_R_Fsqd_factor         0.12471
_refine_ls_shift/su_max          0.03
_refine_ls_shift/su_mean         0.01
_reflns_d_resolution_high        1.208
_reflns_d_resolution_low         8.199
_reflns_limit_h_max              5
_reflns_limit_h_min              -5
_reflns_limit_k_max              14
_reflns_limit_k_min              0
_reflns_limit_l_max              11
_reflns_limit_l_min              0
_reflns_number_total             422
_cod_data_source_file            alf150K.cif
_cod_data_source_block           150K_publ
_cod_depositor_comments
;
The following automatic conversions were performed:

'_geom_bond_publ_flag' value 'N' changed to 'n' according to
/home/saulius/struct/COD-crude-data--automatic-downloads/rss-feeds/ACS/lib/dictionaries/cif_core.dic
dictionary named 'cif_core.dic' version 2.4.2 from 2011-04-26 (22
times).

'_geom_angle_publ_flag' value 'N' changed to 'n' according
to
/home/saulius/struct/COD-crude-data--automatic-downloads/rss-feeds/ACS/lib/dictionaries/cif_core.dic
dictionary named 'cif_core.dic' version 2.4.2 from 2011-04-26 (26
times).

Automatic conversion script
Id: cif_fix_values 2935 2014-11-11 08:27:57Z andrius 
;
_cod_original_cell_volume        1421.54(10)
_cod_database_code               4002102
#BEGIN Tags that were not found in dictionaries:
_gsas_exptl_extinct_corr_t_min   1.00000
_gsas_exptl_extinct_corr_t_max   1.00000
#END Tags that were not found in dictionaries
loop_
_symmetry_equiv_pos_site_id
_symmetry_equiv_pos_as_xyz
1 +x,+y,+z
2 -x,-y+1/2,+z
-1 -x,-y,-z
-2 +x,+y+1/2,-z
101 +x+1/2,+y+1/2,+z+1/2
102 -x+1/2,-y,+z+1/2
-101 -x+1/2,-y+1/2,-z+1/2
-102 +x+1/2,+y,-z+1/2
loop_
_atom_site_type_symbol
_atom_site_label
_atom_site_fract_x
_atom_site_fract_y
_atom_site_fract_z
_atom_site_occupancy
_atom_site_thermal_displace_type
_atom_site_U_iso_or_equiv
_atom_site_symmetry_multiplicity
Al Al1 0.25 0.25 0.75 1.0 Uiso 0.0210(19) 4
F F1 0.0 0.25 0.6907(6) 1.0 Uiso 0.0044(14) 4
O O1 0.1609(16) 0.1692(6) 0.8486(9) 1.0 Uiso 0.0044(14) 8
O O2 -0.1794(16) 0.6652(7) -0.8299(9) 1.0 Uiso 0.0044(14) 8
C C3 -0.1887(31) 0.0246(12) -0.0422(15) 1.0 Uiso 0.0071(22) 8
C C2 -0.0129(34) 0.0668(6) 0.9428(9) 1.0 Uiso 0.0071(22) 8
C C1 0.002(4) 0.1369(7) 0.8696(10) 1.0 Uiso 0.0071(22) 8
C C4 0.2028(31) 0.5333(12) -0.9643(17) 1.0 Uiso 0.0071(22) 8
loop_
_atom_type_symbol
_atom_type_number_in_cell
_atom_type_scat_dispersion_real
_atom_type_scat_dispersion_imag
_atom_type_scat_Cromer_Mann_a1
_atom_type_scat_Cromer_Mann_a2
_atom_type_scat_Cromer_Mann_a3
_atom_type_scat_Cromer_Mann_a4
_atom_type_scat_Cromer_Mann_b1
_atom_type_scat_Cromer_Mann_b2
_atom_type_scat_Cromer_Mann_b3
_atom_type_scat_Cromer_Mann_b4
_atom_type_scat_Cromer_Mann_c
_atom_type_scat_source
Al 4.0 0.000 0.000 6.42020 3.03870 1.90020 0.74260 1.59360 31.5472 1.96460
85.0886 1.11510 International_Tables_Vol_C
F 4.0 0.000 0.000 3.53920 10.2825 2.64120 4.29440 1.51700 0.26150 1.02430
26.1476 0.27760 International_Tables_Vol_C
O 16.0 0.000 0.000 3.04850 13.2771 2.28680 5.70110 1.54630 0.32390 0.86700
32.9089 0.25080 International_Tables_Vol_C
C 32.0 0.000 0.000 2.31000 20.8439 1.02000 10.2075 1.58860 0.56870 0.86500
51.6512 0.21560 International_Tables_Vol_C
loop_
_geom_angle_atom_site_label_1
_geom_angle_atom_site_label_2
_geom_angle_atom_site_label_3
_geom_angle
_geom_angle_site_symmetry_1
_geom_angle_site_symmetry_3
_geom_angle_publ_flag
F1 Al1 F1 180.0 1_555 -101_566 n
F1 Al1 O1 91.0(4) 1_555 1_555 n
F1 Al1 O1 89.0(4) 1_555 -101_445 n
F1 Al1 O2 91.0(4) 1_555 -1_565 n
F1 Al1 O2 89.0(4) 1_555 101_546 n
F1 Al1 O1 89.0(4) -101_445 1_555 n
F1 Al1 O1 91.0(4) -101_445 -101_445 n
F1 Al1 O2 89.0(4) -101_445 -1_565 n
F1 Al1 O2 91.0(4) -101_445 101_546 n
O1 Al1 O1 180.0 1_555 -101_445 n
O1 Al1 O2 93.25(33) 1_555 -1_565 n
O1 Al1 O2 86.75(33) 1_555 101_546 n
O1 Al1 O2 86.75(33) -101_445 -1_565 n
O1 Al1 O2 93.25(33) -101_445 101_546 n
O2 Al1 O2 180.0 -1_565 101_546 n
Al1 F1 Al1 129.0(4) 1_555 2_555 n
Al1 O1 C1 135.5(12) 1_555 1_555 n
Al1 O2 C1 134.6(11) -1_565 -2_565 n
C2 C3 C4 120.4(20) 1_554 2_556 n
C3 C2 C1 122.4(20) 1_556 1_555 n
C3 C2 C4 124.8(10) 1_556 -2_555 n
C1 C2 C4 109.2(20) 1_555 -2_555 n
O1 C1 O2 120.9(10) 1_555 -2_444 n
O1 C1 C2 122.7(20) 1_555 1_555 n
O2 C1 C2 116.3(20) -2_555 1_555 n
C3 C4 C2 108.4(19) 2_554 -2_565 n
loop_
_geom_bond_atom_site_label_1
_geom_bond_atom_site_label_2
_geom_bond_distance
_geom_bond_site_symmetry_2
_geom_bond_publ_flag
Al1 F1 1.8190(34) 1_555 n
Al1 F1 1.8190(34) -101_445 n
Al1 O1 1.946(11) 1_555 n
Al1 O1 1.946(11) -101_445 n
Al1 O2 1.807(11) -1_565 n
Al1 O2 1.807(11) 101_546 n
F1 Al1 1.8190(34) 1_555 n
F1 Al1 1.8190(34) 2_555 n
O1 Al1 1.946(11) 1_555 n
O1 C1 1.200(21) 1_555 n
O2 Al1 1.807(11) -1_565 n
O2 C1 1.384(19) -2_555 n
C3 C2 1.358(24) 1_554 n
C3 C4 1.403(11) 2_556 n
C2 C3 1.358(24) 1_556 n
C2 C1 1.506(10) 1_555 n
C2 C4 1.546(23) -2_545 n
C1 O1 1.200(21) 1_555 n
C1 O2 1.384(19) -2_545 n
C1 C2 1.506(10) 1_555 n
C4 C3 1.403(11) 2_554 n
C4 C2 1.546(23) -2_555 n
loop_
_pd_meas_intensity_total
_pd_proc_ls_weight
_pd_proc_intensity_bkg_calc
_pd_calc_intensity_total
13.5(20) 0.0 0.00 .
20.5(25) 0.0 0.00 .
16.2(23) 0.0 0.00 .
27.1(29) 0.0 0.00 .
51(4) 0.0 0.0 .
178(7) 0.0 0.0 .
159(7) 0.0 0.0 .
952(16) 0.0 0.0 .
1607(21) 0.0 0.0 .
3015(30) 0.0 0.0 .
3330(30) 0.0 0.0 .
3341(30) 0.0 0.0 .
3313(31) 0.0 0.0 .
1145(19) 0.0 0.0 .
108(5) 0.0 0.0 .
69(4) 0.0 0.0 .
52(4) 0.0 0.0 .
44(4) 0.0 0.0 .
38.3(34) 0.0 0.00 .
70(5) 0.0 0.0 .
226(8) 0.0 0.0 .
388(10) 0.0 0.0 .
805(15) 0.0 0.0 .
996(17) 0.0 0.0 .
1020(17) 0.0 0.0 .
1260(18) 0.0 0.0 .
1340(19) 0.0 0.0 .
1604(22) 0.0 0.0 .
1809(23) 0.0 0.0 .
1847(23) 0.0 0.0 .
2095(24) 0.0 0.0 .
2141(24) 0.0 0.0 .
1876(23) 0.0 0.0 .
1582(22) 0.0 0.0 .
1149(18) 0.0 0.0 .
653(13) 0.0 0.0 .
352(10) 0.0 0.0 .
221(8) 0.0 0.0 .
132(6) 0.0 0.0 .
86(5) 0.0 0.0 .
54(4) 0.0 0.0 .
31.6(30) 0.0 0.00 .
34.3(33) 0.0 0.00 .
28.6(27) 0.0 0.00 .
28.3(27) 0.0 0.00 .
26.6(27) 0.0 0.00 .
32.4(30) 0.0 0.00 .
28.6(29) 0.0 0.00 .
26.4(27) 0.0 0.00 .
34.9(31) 0.0 0.00 .
33.0(30) 0.0 0.00 .
26.7(27) 0.0 0.00 .
26.5(28) 0.0 0.00 .
26.8(29) 0.0 0.00 .
32.2(30) 0.0 0.00 .
30.6(29) 0.0 0.00 .
32.2(33) 0.0 0.00 .
22.2(26) 0.0 0.00 .
29.2(29) 0.0 0.00 .
27.0(28) 0.0 0.00 .
35.3(31) 0.0 0.00 .
34.5(30) 0.0 0.00 .
42(4) 0.0 0.0 .
28.8(29) 0.0 0.00 .
40.6(33) 0.0 0.00 .
36.3(34) 0.0 0.00 .
28.1(30) 0.0 0.00 .
32.3(30) 0.0 0.00 .
32.2(30) 0.0 0.00 .
31.9(29) 0.0 0.00 .
30.0(29) 0.0 0.00 .
34.3(31) 0.0 0.00 .
36.4(34) 0.0 0.00 .
36.8(32) 0.0 0.00 .
47(4) 0.0 0.0 .
35.6(31) 0.0 0.00 .
29.1(27) 0.0 0.00 .
38.8(35) 0.0 0.00 .
32.6(31) 0.0 0.00 .
30.9(29) 0.0 0.00 .
48(4) 0.0 0.0 .
40.3(34) 0.0 0.00 .
32.1(31) 0.0 0.00 .
36.8(33) 0.0 0.00 .
35.4(32) 0.0 0.00 .
38.7(33) 0.0 0.00 .
43(4) 0.0 0.0 .
40.6(34) 0.0 0.00 .
39.4(34) 0.0 0.00 .
37.5(32) 0.0 0.00 .
38.6(33) 0.0 0.00 .
42(4) 0.0 0.0 .
44(4) 0.0 0.0 .
58(4) 0.0 0.0 .
69(4) 0.0 0.0 .
63(4) 0.0 0.0 .
76(5) 0.0 0.0 .
75(5) 0.0 0.0 .
74(4) 0.0 0.0 .
82(5) 0.0 0.0 .
107(6) 0.0 0.0 .
120(6) 0.0 0.0 .
136(7) 0.0 0.0 .
129(6) 0.0 0.0 .
120(6) 0.0 0.0 .
159(7) 0.0 0.0 .
155(7) 0.0 0.0 .
155(7) 0.0 0.0 .
177(7) 0.0 0.0 .
195(7) 0.0 0.0 .
206(8) 0.0 0.0 .
207(8) 0.0 0.0 .
219(8) 0.0 0.0 .
218(8) 0.0 0.0 .
235(8) 0.0 0.0 .
241(8) 0.0 0.0 .
249(9) 0.0 0.0 .
249(9) 0.0 0.0 .
260(8) 0.0 0.0 .
256(8) 0.0 0.0 .
286(9) 0.0 0.0 .
296(9) 0.0 0.0 .
299(9) 0.0 0.0 .
319(9) 0.0 0.0 .
302(9) 0.0 0.0 .
328(10) 0.0 0.0 .
347(10) 0.0 0.0 .
347(10) 0.0 0.0 .
372(10) 0.0 0.0 .
362(10) 0.0 0.0 .
378(11) 0.0 0.0 .
362(10) 0.0 0.0 .
386(11) 0.0 0.0 .
385(10) 0.0 0.0 .
377(10) 0.0 0.0 .
431(11) 0.0 0.0 .
437(11) 0.0 0.0 .
448(11) 0.0 0.0 .
450(11) 0.0 0.0 .
438(11) 0.0 0.0 .
474(12) 0.0 0.0 .
480(12) 0.0 0.0 .
491(12) 0.0 0.0 .
484(11) 0.0 0.0 .
524(12) 0.0 0.0 .
469(12) 0.0 0.0 .
518(13) 0.0 0.0 .
478(12) 0.0 0.0 .
474(11) 0.0 0.0 .
489(12) 0.0 0.0 .
519(12) 0.0 0.0 .
543(13) 0.0 0.0 .
533(12) 0.0 0.0 .
530(12) 0.0 0.0 .
530(12) 0.0 0.0 .
535(13) 0.0 0.0 .
555(13) 0.0 0.0 .
515(12) 0.0 0.0 .
544(12) 0.0 0.0 .
572(13) 0.0 0.0 .
546(13) 0.0 0.0 .
538(12) 0.0 0.0 .
573(12) 0.0 0.0 .
549(12) 0.0 0.0 .
567(13) 0.0 0.0 .
582(13) 0.0 0.0 .
569(13) 0.0 0.0 .
564(12) 0.0 0.0 .
612(13) 0.0 0.0 .
590(13) 0.0 0.0 .
601(14) 0.0 0.0 .
594(13) 0.0 0.0 .
592(13) 0.0 0.0 .
553(12) 0.0 0.0 .
581(13) 0.0 0.0 .
605(14) 0.0 0.0 .
606(13) 0.0 0.0 .
589(13) 0.0 0.0 .
615(13) 0.0 0.0 .
598(13) 0.0 0.0 .
620(14) 0.0 0.0 .
623(13) 0.0 0.0 .
612(13) 0.0 0.0 .
625(13) 0.0 0.0 .
652(14) 0.0 0.0 .
644(14) 0.0 0.0 .
627(13) 0.0 0.0 .
635(13) 0.0 0.0 .
650(13) 0.0 0.0 .
681(14) 0.0 0.0 .
663(14) 0.0 0.0 .
655(14) 0.0 0.0 .
644(13) 0.0 0.0 .
637(14) 0.0 0.0 .
663(14) 0.0 0.0 .
674(14) 0.0 0.0 .
645(13) 0.0 0.0 .
644(13) 0.0 0.0 .
667(14) 0.0 0.0 .
704(14) 0.0 0.0 .
649(14) 0.0 0.0 .
712(14) 0.0 0.0 .
682(14) 0.0 0.0 .
702(14) 0.0 0.0 .
696(15) 0.0 0.0 .
699(14) 0.0 0.0 .
705(14) 0.0 0.0 .
689(14) 0.0 0.0 .
726(15) 0.0 0.0 .
718(15) 0.0 0.0 .
727(15) 0.0 0.0 .
751(14) 0.0 0.0 .
714(14) 0.0 0.0 .
700(14) 0.0 0.0 .
739(15) 0.0 0.0 .
697(14) 0.0 0.0 .
739(14) 0.0 0.0 .
758(14) 0.0 0.0 .
730(14) 0.0 0.0 .
749(15) 0.0 0.0 .
757(15) 0.0 0.0 .
751(14) 0.0 0.0 .
764(14) 0.0 0.0 .
789(15) 0.0 0.0 .
788(15) 0.0 0.0 .
791(15) 0.0 0.0 .
766(14) 0.0 0.0 .
797(15) 0.0 0.0 .
830(15) 0.0 0.0 .
800(16) 0.0 0.0 .
763(15) 0.0 0.0 .
803(15) 0.0 0.0 .
779(15) 0.0 0.0 .
813(15) 0.0 0.0 .
782(15) 0.0 0.0 .
821(15) 0.0 0.0 .
817(15) 0.0 0.0 .
796(15) 0.0 0.0 .
795(15) 0.0 0.0 .
796(16) 0.0 0.0 .
813(15) 0.0 0.0 .
809(15) 0.0 0.0 .
784(15) 0.0 0.0 .
801(15) 0.0 0.0 .
824(16) 0.0 0.0 .
837(15) 0.0 0.0 .
818(15) 0.0 0.0 .
844(16) 0.0 0.0 .
815(16) 0.0 0.0 .
821(15) 0.0 0.0 .
813(15) 0.0 0.0 .
829(15) 0.0 0.0 .
799(15) 0.0 0.0 .
848(16) 0.0 0.0 .
838(16) 0.0 0.0 .
869(15) 0.0 0.0 .
809(15) 0.0 0.0 .
826(15) 0.0 0.0 .
831(16) 0.0 0.0 .
862(16) 0.0 0.0 .
848(15) 0.0 0.0 .
870(15) 0.0 0.0 .
840(15) 0.0 0.0 .
884(17) 0.0 0.0 .
879(16) 0.0 0.0 .
858(15) 0.0 0.0 .
847(15) 0.0 0.0 .
881(16) 0.0 0.0 .
894(17) 0.0 0.0 .
924(16) 0.0 0.0 .
888(15) 0.0 0.0 .
849(15) 0.0 0.0 .
915(16) 0.0 0.0 .
919(17) 0.0 0.0 .
915(16) 0.0 0.0 .
899(16) 0.0 0.0 .
907(16) 0.0 0.0 .
841(15) 0.0 0.0 .
915(17) 0.0 0.0 .
901(16) 0.0 0.0 .
887(15) 0.0 0.0 .
900(16) 0.0 0.0 .
888(16) 0.0 0.0 .
876(16) 0.0 0.0 .
906(16) 0.0 0.0 .
908(16) 0.0 0.0 .
935(16) 0.0 0.0 .
904(16) 0.0 0.0 .
895(16) 0.0 0.0 .
888(16) 0.0 0.0 .
898(16) 0.0 0.0 .
901(16) 0.0 0.0 .
854(16) 0.0 0.0 .
960(17) 0.0 0.0 .
962(16) 0.0 0.0 .
931(16) 0.0 0.0 .
892(16) 0.0 0.0 .
918(17) 0.0 0.0 .
928(16) 0.0 0.0 .
962(16) 0.0 0.0 .
927(16) 0.0 0.0 .
945(17) 0.0 0.0 .
953(17) 0.0 0.0 .
964(17) 0.0 0.0 .
920(16) 0.0 0.0 .
937(16) 0.0 0.0 .
964(17) 0.0 0.0 .
976(17) 0.0 0.0 .
950(16) 0.0 0.0 .
969(16) 0.0 0.0 .
943(16) 0.0 0.0 .
977(17) 0.0 0.0 .
973(17) 0.0 0.0 .
949(16) 0.0 0.0 .
953(16) 0.0 0.0 .
984(16) 0.0 0.0 .
945(16) 0.0 0.0 .
998(18) 0.0 0.0 .
1029(17) 0.0 0.0 .
970(16) 0.0 0.0 .
1018(17) 0.0 0.0 .
1046(17) 0.0 0.0 .
1015(18) 0.0 0.0 .
972(17) 0.0 0.0 .
1008(16) 0.0 0.0 .
1012(17) 0.0 0.0 .
987(17) 0.0 0.0 .
1036(18) 0.0 0.0 .
1030(17) 0.0 0.0 .
1066(17) 0.0 0.0 .
1040(17) 0.0 0.0 .
1011(17) 0.0 0.0 .
1081(18) 0.0 0.0 .
1049(17) 0.0 0.0 .
1046(17) 0.0 0.0 .
1063(17) 0.0 0.0 .
1071(18) 0.0 0.0 .
1061(18) 0.0 0.0 .
1072(17) 0.0 0.0 .
1056(17) 0.0 0.0 .
1094(18) 0.0 0.0 .
1054(17) 0.0 0.0 .
1101(18) 0.0 0.0 .
1072(17) 0.0 0.0 .
1087(17) 0.0 0.0 .
1078(18) 0.0 0.0 .
1076(18) 0.0 0.0 .
1067(17) 0.0 0.0 .
1150(18) 0.0 0.0 .
1131(17) 0.0 0.0 .
1075(18) 0.0 0.0 .
1091(18) 0.0 0.0 .
1098(18) 0.0 0.0 .
1112(17) 0.0 0.0 .
1132(17) 0.0 0.0 .
1071(17) 0.0 0.0 .
1137(19) 0.0 0.0 .
1125(18) 0.0 0.0 .
1135(18) 0.0 0.0 .
1150(18) 0.0 0.0 .
1107(18) 0.0 0.0 .
1097(18) 0.0 0.0 .
1116(18) 0.0 0.0 .
1180(18) 0.0 0.0 .
1183(18) 0.0 0.0 .
1135(18) 0.0 0.0 .
1206(20) 0.0 0.0 .
1125(18) 0.0 0.0 .
1155(18) 0.0 0.0 .
1219(18) 0.0 0.0 .
1212(19) 0.0 0.0 .
1173(19) 0.0 0.0 .
1189(19) 0.0 0.0 .
1151(18) 0.0 0.0 .
1149(18) 0.0 0.0 .
1144(18) 0.0 0.0 .
1189(19) 0.0 0.0 .
1197(18) 0.0 0.0 .
1218(18) 0.0 0.0 .
1187(18) 0.0 0.0 .
1221(19) 0.0 0.0 .
1189(19) 0.0 0.0 .
1196(19) 0.0 0.0 .
1252(18) 0.0 0.0 .
1207(18) 0.0 0.0 .
1238(19) 0.0 0.0 .
1270(19) 0.0 0.0 .
1204(19) 0.0 0.0 .
1221(18) 0.0 0.0 .
1220(19) 0.0 0.0 .
1212(19) 0.0 0.0 .
1190(19) 0.0 0.0 .
1226(19) 0.0 0.0 .
1289(19) 0.0 0.0 .
1231(19) 0.0 0.0 .
1209(19) 0.0 0.0 .
1209(19) 0.0 0.0 .
1228(19) 0.0 0.0 .
1249(18) 0.0 0.0 .
1214(19) 0.0 0.0 .
1255(19) 0.0 0.0 .
1261(19) 0.0 0.0 .
1233(19) 0.0 0.0 .
1221(18) 0.0 0.0 .
1271(19) 0.0 0.0 .
1287(20) 0.0 0.0 .
1290(19) 0.0 0.0 .
1314(19) 0.0 0.0 .
1276(18) 0.0 0.0 .
1266(19) 0.0 0.0 .
1266(20) 0.0 0.0 .
1296(19) 0.0 0.0 .
1236(18) 0.0 0.0 .
1299(19) 0.0 0.0 .
1260(19) 0.0 0.0 .
1273(20) 0.0 0.0 .
1287(19) 0.0 0.0 .
1261(18) 0.0 0.0 .
1301(19) 0.0 0.0 .
1255(19) 0.0 0.0 .
1261(20) 0.0 0.0 .
1265(19) 0.0 0.0 .
1306(19) 0.0 0.0 .
1327(19) 0.0 0.0 .
1309(19) 0.0 0.0 .
1300(20) 0.0 0.0 .
1358(20) 0.0 0.0 .
1287(19) 0.0 0.0 .
1292(19) 0.0 0.0 .
1385(20) 0.0 0.0 .
1319(20) 0.0 0.0 .
1299(19) 0.0 0.0 .
1354(19) 0.0 0.0 .
1283(19) 0.0 0.0 .
1287(19) 0.0 0.0 .
1331(20) 0.0 0.0 .
1310(19) 0.0 0.0 .
1314(19) 0.0 0.0 .
1348(19) 0.0 0.0 .
1299(20) 0.0 0.0 .
1289(19) 0.0 0.0 .
1318(19) 0.0 0.0 .
1283(19) 0.0 0.0 .
1327(19) 0.0 0.0 .
1331(20) 0.0 0.0 .
1335(20) 0.0 0.0 .
1318(19) 0.0 0.0 .
1300(19) 0.0 0.0 .
1348(20) 0.0 0.0 .
1338(20) 0.0 0.0 .
1349(20) 0.0 0.0 .
1353(19) 0.0 0.0 .
1317(19) 0.0 0.0 .
1380(20) 0.0 0.0 .
1296(20) 0.0 0.0 .
1338(20) 0.0 0.0 .
1341(19) 0.0 0.0 .
1334(19) 0.0 0.0 .
1339(20) 0.0 0.0 .
1258(19) 0.0 0.0 .
1339(19) 0.0 0.0 .
1344(19) 0.0 0.0 .
1389(19) 0.0 0.0 .
1306(19) 0.0 0.0 .
1317(20) 0.0 0.0 .
1364(20) 0.0 0.0 .
1311(19) 0.0 0.0 .
1335(19) 0.0 0.0 .
1359(20) 0.0 0.0 .
1371(21) 0.0 0.0 .
1338(20) 0.0 0.0 .
1368(19) 0.0 0.0 .
1312(19) 0.0 0.0 .
1352(20) 0.0 0.0 .
1331(20) 0.0 0.0 .
1342(20) 0.0 0.0 .
1356(19) 0.0 0.0 .
1335(19) 0.0 0.0 .
1342(20) 0.0 0.0 .
1347(20) 0.0 0.0 .
1325(20) 0.0 0.0 .
1360(19) 0.0 0.0 .
1396(20) 0.0 0.0 .
1392(20) 0.0 0.0 .
1348(20) 0.0 0.0 .
1336(20) 0.0 0.0 .
1365(19) 0.0 0.0 .
1373(20) 0.0 0.0 .
1366(20) 0.0 0.0 .
1320(20) 0.0 0.0 .
1330(20) 0.0 0.0 .
1355(19) 0.0 0.0 .
1338(19) 0.0 0.0 .
1343(20) 0.0 0.0 .
1323(20) 0.0 0.0 .
1331(19) 0.0 0.0 .
1403(19) 0.0 0.0 .
1391(20) 0.0 0.0 .
1354(20) 0.0 0.0 .
1369(20) 0.0 0.0 .
1379(20) 0.0 0.0 .
1459(20) 0.0 0.0 .
1332(20) 0.0 0.0 .
1333(20) 0.0 0.0 .
1341(20) 0.0 0.0 .
1322(19) 0.0 0.0 .
1354(19) 0.0 0.0 .
1304(19) 0.0 0.0 .
1357(20) 0.0 0.0 .
1358(20) 0.0 0.0 .
1360(19) 0.0 0.0 .
1368(19) 0.0 0.0 .
1318(19) 0.0 0.0 .
1376(21) 0.0 0.0 .
1383(20) 0.0 0.0 .
1365(19) 0.0 0.0 .
1335(19) 0.0 0.0 .
1318(19) 0.0 0.0 .
1349(21) 0.0 0.0 .
1334(20) 0.0 0.0 .
1410(19) 0.0 0.0 .
1370(19) 0.0 0.0 .
1379(20) 0.0 0.0 .
1308(20) 0.0 0.0 .
1331(19) 0.0 0.0 .
1374(19) 0.0 0.0 .
1347(19) 0.0 0.0 .
1292(19) 0.0 0.0 .
1387(21) 0.0 0.0 .
1333(20) 0.0 0.0 .
1377(19) 0.0 0.0 .
1314(19) 0.0 0.0 .
1321(20) 0.0 0.0 .
1318(20) 0.0 0.0 .
1342(20) 0.0 0.0 .
1363(19) 0.0 0.0 .
1348(19) 0.0 0.0 .
1329(20) 0.0 0.0 .
1366(20) 0.0 0.0 .
1320(19) 0.0 0.0 .
1281(19) 0.0 0.0 .
1322(19) 0.0 0.0 .
1340(20) 0.0 0.0 .
1387(20) 0.0 0.0 .
1310(19) 0.0 0.0 .
1319(19) 0.0 0.0 .
1283(19) 0.0 0.0 .
1310(20) 0.0 0.0 .
1305(19) 0.0 0.0 .
1360(19) 0.0 0.0 .
1339(19) 0.0 0.0 .
1311(20) 0.0 0.0 .
1312(20) 0.0 0.0 .
1345(20) 0.0 0.0 .
1336(19) 0.0 0.0 .
1282(19) 0.0 0.0 .
1341(20) 0.0 0.0 .
1329(20) 0.0 0.0 .
1336(20) 0.0 0.0 .
1295(19) 0.0 0.0 .
1291(19) 0.0 0.0 .
1318(20) 0.0 0.0 .
1329(20) 0.0 0.0 .
1357(20) 0.0 0.0 .
1306(19) 0.0 0.0 .
1306(19) 0.0 0.0 .
1347(20) 0.0 0.0 .
1351(21) 0.0 0.0 .
1355(20) 0.0 0.0 .
1307(19) 0.0 0.0 .
1306(19) 0.0 0.0 .
1337(20) 0.0 0.0 .
1351(21) 0.0 0.0 .
1271(19) 0.0 0.0 .
1293(19) 0.0 0.0 .
1302(19) 0.0 0.0 .
1327(20) 0.0 0.0 .
1261(19) 0.0 0.0 .
1316(20) 0.0 0.0 .
1291(19) 0.0 0.0 .
1304(19) 0.0 0.0 .
1282(19) 0.0 0.0 .
1332(20) 0.0 0.0 .
1325(20) 0.0 0.0 .
1325(19) 0.0 0.0 .
1318(19) 0.0 0.0 .
1256(19) 0.0 0.0 .
1263(19) 0.0 0.0 .
1265(19) 0.0 0.0 .
1319(19) 0.0 0.0 .
1343(19) 0.0 0.0 .
1293(19) 0.0 0.0 .
1274(19) 0.0 0.0 .
1323(19) 0.0 0.0 .
1323(19) 0.0 0.0 .
1238(19) 0.0 0.0 .
1299(20) 0.0 0.0 .
1301(19) 0.0 0.0 .
1286(19) 0.0 0.0 .
1283(19) 0.0 0.0 .
1290(19) 0.0 0.0 .
1315(20) 0.0 0.0 .
1277(19) 0.0 0.0 .
1261(19) 0.0 0.0 .
1343(19) 0.0 0.0 .
1308(20) 0.0 0.0 .
1259(19) 0.0 0.0 .
1232(19) 0.0 0.0 .
1239(18) 0.0 0.0 .
1247(18) 0.0 0.0 .
1245(19) 0.0 0.0 .
1232(19) 0.0 0.0 .
1312(20) 0.0 0.0 .
1292(19) 0.0 0.0 .
1269(18) 0.0 0.0 .
1233(19) 0.0 0.0 .
1313(20) 0.0 0.0 .
1286(19) 0.0 0.0 .
1276(19) 0.0 0.0 .
1291(19) 0.0 0.0 .
1302(19) 0.0 0.0 .
1288(20) 0.0 0.0 .
1285(19) 0.0 0.0 .
1250(18) 0.0 0.0 .
1266(19) 0.0 0.0 .
1222(19) 0.0 0.0 .
1252(20) 0.0 0.0 .
1252(19) 0.0 0.0 .
1248(18) 0.0 0.0 .
1210(18) 0.0 0.0 .
1289(19) 0.0 0.0 .
1298(20) 0.0 0.0 .
1262(19) 0.0 0.0 .
1197(18) 0.0 0.0 .
1242(19) 0.0 0.0 .
1275(19) 0.0 0.0 .
1251(19) 0.0 0.0 .
1223(19) 0.0 0.0 .
1251(18) 0.0 0.0 .
1241(19) 0.0 0.0 .
1228(19) 0.0 0.0 .
1201(19) 0.0 0.0 .
1214(19) 0.0 0.0 .
1253(18) 0.0 0.0 .
1218(18) 0.0 0.0 .
1237(19) 0.0 0.0 .
1234(19) 0.0 0.0 .
1224(18) 0.0 0.0 .
1232(18) 0.0 0.0 .
1285(19) 0.0 0.0 .
1241(19) 0.0 0.0 .
1230(19) 0.0 0.0 .
1212(18) 0.0 0.0 .
1221(18) 0.0 0.0 .
1212(19) 0.0 0.0 .
1229(19) 0.0 0.0 .
1255(19) 0.0 0.0 .
1211(18) 0.0 0.0 .
1234(18) 0.0 0.0 .
1168(18) 0.0 0.0 .
1171(19) 0.0 0.0 .
1197(18) 0.0 0.0 .
1231(18) 0.0 0.0 .
1227(18) 0.0 0.0 .
1223(19) 0.0 0.0 .
1180(19) 0.0 0.0 .
1234(19) 0.0 0.0 .
1193(18) 0.0 0.0 .
1187(18) 0.0 0.0 .
1226(19) 0.0 0.0 .
1201(19) 0.0 0.0 .
1211(19) 0.0 0.0 .
1232(18) 0.0 0.0 .
1194(18) 0.0 0.0 .
1201(18) 0.0 0.0 .
1246(19) 0.0 0.0 .
1258(19) 0.0 0.0 .
1227(18) 0.0 0.0 .
1198(18) 0.0 0.0 .
1219(19) 0.0 0.0 .
1198(19) 0.0 0.0 .
1166(18) 0.0 0.0 .
1204(18) 0.0 0.0 .
1248(19) 0.0 0.0 .
1158(18) 0.0 0.0 .
1153(19) 0.0 0.0 .
1205(19) 0.0 0.0 .
1205(18) 0.0 0.0 .
1232(18) 0.0 0.0 .
1159(18) 0.0 0.0 .
1117(18) 0.0 0.0 .
1158(18) 0.0 0.0 .
1176(18) 0.0 0.0 .
1178(18) 0.0 0.0 .
1146(18) 0.0 0.0 .
1183(19) 0.0 0.0 .
1141(18) 0.0 0.0 .
1132(17) 0.0 0.0 .
1178(19) 0.0 0.0 .
1198(19) 0.0 0.0 .
1179(18) 0.0 0.0 .
1155(18) 0.0 0.0 .
1164(18) 0.0 0.0 .
1175(18) 0.0 0.0 .
1180(19) 0.0 0.0 .
1167(18) 0.0 0.0 .
1140(18) 0.0 0.0 .
1141(18) 0.0 0.0 .
1182(18) 0.0 0.0 .
1149(18) 0.0 0.0 .
1202(19) 0.0 0.0 .
1156(18) 0.0 0.0 .
1112(17) 0.0 0.0 .
1179(18) 0.0 0.0 .
1150(19) 0.0 0.0 .
1155(18) 0.0 0.0 .
1193(18) 0.0 0.0 .
1191(18) 0.0 0.0 .
1173(18) 0.0 0.0 .
1186(19) 0.0 0.0 .
1126(18) 0.0 0.0 .
1187(18) 0.0 0.0 .
1204(18) 0.0 0.0 .
1147(18) 0.0 0.0 .
1113(19) 0.0 0.0 .
1146(18) 0.0 0.0 .
1186(18) 0.0 0.0 .
1190(18) 0.0 0.0 .
1182(18) 0.0 0.0 .
1157(19) 0.0 0.0 .
1150(18) 0.0 0.0 .
1136(17) 0.0 0.0 .
1155(18) 0.0 0.0 .
1208(19) 0.0 0.0 .
1125(18) 0.0 0.0 .
1144(18) 0.0 0.0 .
1144(18) 0.0 0.0 .
1144(18) 0.0 0.0 .
1116(18) 0.0 0.0 .
1170(19) 0.0 0.0 .
1153(18) 0.0 0.0 .
1127(17) 0.0 0.0 .
1148(18) 0.0 0.0 .
1131(18) 0.0 0.0 .
1167(19) 0.0 0.0 .
1176(18) 0.0 0.0 .
1086(17) 0.0 0.0 .
1157(18) 0.0 0.0 .
1120(18) 0.0 0.0 .
1147(18) 0.0 0.0 .
1154(18) 0.0 0.0 .
1137(17) 0.0 0.0 .
1126(18) 0.0 0.0 .
1152(19) 0.0 0.0 .
1124(18) 0.0 0.0 .
1102(17) 0.0 0.0 .
1106(17) 0.0 0.0 .
1109(18) 0.0 0.0 .
1103(18) 0.0 0.0 .
1097(18) 0.0 0.0 .
1138(18) 0.0 0.0 .
1137(17) 0.0 0.0 .
1116(18) 0.0 0.0 .
1076(18) 0.0 0.0 .
1115(18) 0.0 0.0 .
1122(17) 0.0 0.0 .
1125(17) 0.0 0.0 .
1108(18) 0.0 0.0 .
1170(19) 0.0 0.0 .
1102(18) 0.0 0.0 .
1099(17) 0.0 0.0 .
1071(17) 0.0 0.0 .
1122(18) 0.0 0.0 .
1111(18) 0.0 0.0 .
1120(18) 0.0 0.0 .
1119(17) 0.0 0.0 .
1150(18) 0.0 0.0 .
1062(17) 0.0 0.0 .
1119(19) 0.0 0.0 .
1117(18) 0.0 0.0 .
1100(17) 0.0 0.0 .
1101(17) 0.0 0.0 .
1099(18) 0.0 0.0 .
1118(18) 0.0 0.0 .
1129(18) 0.0 0.0 .
1057(17) 0.0 0.0 .
1097(17) 0.0 0.0 .
1111(18) 0.0 0.0 .
1077(18) 0.0 0.0 .
1088(18) 0.0 0.0 .
1084(17) 0.0 0.0 .
1119(18) 0.0 0.0 .
1070(18) 0.0 0.0 .
1028(17) 0.0 0.0 .
1114(18) 0.0 0.0 .
1074(17) 0.0 0.0 .
1079(18) 0.0 0.0 .
1089(18) 0.0 0.0 .
1086(18) 0.0 0.0 .
1073(17) 0.0 0.0 .
1101(17) 0.0 0.0 .
1085(18) 0.0 0.0 .
1056(18) 0.0 0.0 .
1070(18) 0.0 0.0 .
1090(17) 0.0 0.0 .
1118(17) 0.0 0.0 .
1097(18) 0.0 0.0 .
1090(18) 0.0 0.0 .
1103(18) 0.0 0.0 .
1047(17) 0.0 0.0 .
1048(17) 0.0 0.0 .
1065(18) 0.0 0.0 .
1084(18) 0.0 0.0 .
1095(18) 0.0 0.0 .
1048(17) 0.0 0.0 .
1087(17) 0.0 0.0 .
1058(18) 0.0 0.0 .
1088(19) 0.0 0.0 .
1035(17) 0.0 0.0 .
1101(17) 0.0 0.0 .
1072(17) 0.0 0.0 .
1033(17) 0.0 0.0 .
1072(18) 0.0 0.0 .
1053(18) 0.0 0.0 .
1068(17) 0.0 0.0 .
1075(17) 0.0 0.0 .
1027(17) 0.0 0.0 .
1017(18) 0.0 0.0 .
1076(18) 0.0 0.0 .
1103(17) 0.0 0.0 .
1102(17) 0.0 0.0 .
1059(17) 0.0 0.0 .
1045(18) 0.0 0.0 .
1077(18) 0.0 0.0 .
1031(17) 0.0 0.0 .
1045(17) 0.0 0.0 .
1036(17) 0.0 0.0 .
1087(18) 0.0 0.0 .
1066(18) 0.0 0.0 .
1061(17) 0.0 0.0 .
1043(17) 0.0 0.0 .
1036(17) 0.0 0.0 .
1029(18) 0.0 0.0 .
1057(17) 0.0 0.0 .
1040(17) 0.0 0.0 .
1035(17) 0.0 0.0 .
1022(17) 0.0 0.0 .
1010(17) 0.0 0.0 .
1031(17) 0.0 0.0 .
1074(17) 0.0 0.0 .
1040(17) 0.0 0.0 .
981(17) 0.0 0.0 .
1028(17) 0.0 0.0 .
1071(17) 0.0 0.0 .
1038(17) 0.0 0.0 .
1020(17) 0.0 0.0 .
1041(18) 0.0 0.0 .
1095(18) 0.0 0.0 .
1021(17) 0.0 0.0 .
1030(17) 0.0 0.0 .
997(17) 0.0 0.0 .
996(18) 0.0 0.0 .
1008(17) 0.0 0.0 .
1000(16) 0.0 0.0 .
1049(17) 0.0 0.0 .
1019(17) 0.0 0.0 .
1046(18) 0.0 0.0 .
1045(17) 0.0 0.0 .
1050(17) 0.0 0.0 .
1036(17) 0.0 0.0 .
1044(17) 0.0 0.0 .
1029(18) 0.0 0.0 .
1014(17) 0.0 0.0 .
983(16) 0.0 0.0 .
1036(17) 0.0 0.0 .
1084(18) 0.0 0.0 .
1027(18) 0.0 0.0 .
991(17) 0.0 0.0 .
1002(16) 0.0 0.0 .
1056(17) 0.0 0.0 .
1014(17) 0.0 0.0 .
989(17) 0.0 0.0 .
966(17) 0.0 0.0 .
1035(17) 0.0 0.0 .
988(17) 0.0 0.0 .
983(17) 0.0 0.0 .
938(17) 0.0 0.0 .
971(17) 0.0 0.0 .
989(16) 0.0 0.0 .
1039(17) 0.0 0.0 .
1017(17) 0.0 0.0 .
1023(17) 0.0 0.0 .
1025(17) 0.0 0.0 .
995(16) 0.0 0.0 .
940(16) 0.0 0.0 .
998(17) 0.0 0.0 .
1043(17) 0.0 0.0 .
995(17) 0.0 0.0 .
1003(16) 0.0 0.0 .
988(17) 0.0 0.0 .
990(17) 0.0 0.0 .
1025(18) 0.0 0.0 .
995(17) 0.0 0.0 .
1003(16) 0.0 0.0 .
1018(17) 0.0 0.0 .
1011(17) 0.0 0.0 .
956(17) 0.0 0.0 .
973(16) 0.0 0.0 .
1015(17) 0.0 0.0 .
960(17) 0.0 0.0 .
974(17) 0.0 0.0 .
980(17) 0.0 0.0 .
976(16) 0.0 0.0 .
1029(17) 0.0 0.0 .
991(17) 0.0 0.0 .
961(17) 0.0 0.0 .
951(16) 0.0 0.0 .
991(16) 0.0 0.0 .
975(16) 0.0 0.0 .
959(17) 0.0 0.0 .
978(17) 0.0 0.0 .
996(17) 0.0 0.0 .
1005(16) 0.0 0.0 .
1011(16) 0.0 0.0 .
971(17) 0.0 0.0 .
998(18) 0.0 0.0 .
959(16) 0.0 0.0 .
958(16) 0.0 0.0 .
980(16) 0.0 0.0 .
986(17) 0.0 0.0 .
952(17) 0.0 0.0 .
955(16) 0.0 0.0 .
996(16) 0.0 0.0 .
1009(17) 0.0 0.0 .
987(17) 0.0 0.0 .
947(17) 0.0 0.0 .
939(16) 0.0 0.0 .
976(16) 0.0 0.0 .
1010(17) 0.0 0.0 .
1006(17) 0.0 0.0 .
967(17) 0.0 0.0 .
987(17) 0.0 0.0 .
972(16) 0.0 0.0 .
973(17) 0.0 0.0 .
999(17) 0.0 0.0 .
947(17) 0.0 0.0 .
1013(17) 0.0 0.0 .
1002(16) 0.0 0.0 .
937(16) 0.0 0.0 .
920(17) 0.0 0.0 .
951(17) 0.0 0.0 .
961(16) 0.0 0.0 .
946(16) 0.0 0.0 .
980(17) 0.0 0.0 .
962(17) 0.0 0.0 .
963(17) 0.0 0.0 .
973(16) 0.0 0.0 .
939(16) 0.0 0.0 .
992(17) 0.0 0.0 .
950(17) 0.0 0.0 .
966(17) 0.0 0.0 .
923(16) 0.0 0.0 .
920(16) 0.0 0.0 .
945(16) 0.0 0.0 .
956(17) 0.0 0.0 .
997(17) 0.0 0.0 .
945(16) 0.0 0.0 .
947(16) 0.0 0.0 .
966(17) 0.0 0.0 .
953(17) 0.0 0.0 .
940(16) 0.0 0.0 .
943(16) 0.0 0.0 .
935(16) 0.0 0.0 .
966(17) 0.0 0.0 .
952(17) 0.0 0.0 .
973(17) 0.0 0.0 .
971(16) 0.0 0.0 .
970(16) 0.0 0.0 .
967(17) 0.0 0.0 .
910(17) 0.0 0.0 .
858(16) 0.0 0.0 .
891(15) 0.0 0.0 .
929(16) 0.0 0.0 .
923(16) 0.0 0.0 .
922(17) 0.0 0.0 .
975(17) 0.0 0.0 .
942(16) 0.0 0.0 .
946(16) 0.0 0.0 .
955(17) 0.0 0.0 .
939(17) 0.0 0.0 .
943(16) 0.0 0.0 .
904(16) 0.0 0.0 .
920(16) 0.0 0.0 .
931(17) 0.0 0.0 .
915(16) 0.0 0.0 .
897(16) 0.0 0.0 .
898(16) 0.0 0.0 .
955(17) 0.0 0.0 .
940(17) 0.0 0.0 .
957(17) 0.0 0.0 .
918(16) 0.0 0.0 .
931(16) 0.0 0.0 .
938(16) 0.0 0.0 .
913(16) 0.0 0.0 .
920(16) 0.0 0.0 .
943(16) 0.0 0.0 .
932(16) 0.0 0.0 .
955(17) 0.0 0.0 .
886(16) 0.0 0.0 .
928(16) 0.0 0.0 .
906(16) 0.0 0.0 .
925(16) 0.0 0.0 .
917(16) 0.0 0.0 .
899(16) 0.0 0.0 .
975(17) 0.0 0.0 .
960(16) 0.0 0.0 .
930(16) 0.0 0.0 .
943(16) 0.0 0.0 .
930(17) 0.0 0.0 .
902(16) 0.0 0.0 .
912(16) 0.0 0.0 .
903(16) 0.0 0.0 .
890(16) 0.0 0.0 .
923(17) 0.0 0.0 .
912(16) 0.0 0.0 .
887(15) 0.0 0.0 .
888(15) 0.0 0.0 .
929(16) 0.0 0.0 .
905(17) 0.0 0.0 .
878(16) 0.0 0.0 .
884(15) 0.0 0.0 .
916(16) 0.0 0.0 .
889(16) 0.0 0.0 .
924(17) 0.0 0.0 .
905(16) 0.0 0.0 .
908(16) 0.0 0.0 .
901(16) 0.0 0.0 .
906(16) 0.0 0.0 .
914(17) 0.0 0.0 .
865(16) 0.0 0.0 .
895(15) 0.0 0.0 .
873(15) 0.0 0.0 .
877(16) 0.0 0.0 .
897(16) 0.0 0.0 .
923(16) 0.0 0.0 .
882(15) 0.0 0.0 .
880(16) 0.0 0.0 .
839(16) 0.0 0.0 .
893(16) 0.0 0.0 .
895(16) 0.0 0.0 .
877(15) 0.0 0.0 .
825(15) 0.0 0.0 .
839(16) 0.0 0.0 .
893(16) 0.0 0.0 .
865(15) 0.0 0.0 .
896(16) 0.0 0.0 .
877(16) 0.0 0.0 .
870(16) 0.0 0.0 .
857(16) 0.0 0.0 .
872(15) 0.0 0.0 .
851(15) 0.0 0.0 .
869(16) 0.0 0.0 .
867(16) 0.0 0.0 .
866(16) 0.0 0.0 .
902(16) 0.0 0.0 .
895(16) 0.0 0.0 .
890(16) 0.0 0.0 .
879(16) 0.0 0.0 .
903(16) 0.0 0.0 .
875(15) 0.0 0.0 .
847(15) 0.0 0.0 .
838(15) 0.0 0.0 .
878(17) 0.0 0.0 .
866(16) 0.0 0.0 .
860(15) 0.0 0.0 .
888(16) 0.0 0.0 .
853(16) 0.0 0.0 .
873(16) 0.0 0.0 .
887(16) 0.0 0.0 .
842(15) 0.0 0.0 .
846(15) 0.0 0.0 .
833(15) 0.0 0.0 .
872(16) 0.0 0.0 .
869(16) 0.0 0.0 .
841(15) 0.0 0.0 .
900(16) 0.0 0.0 .
848(15) 0.0 0.0 .
864(16) 0.0 0.0 .
849(16) 0.0 0.0 .
848(15) 0.0 0.0 .
840(15) 0.0 0.0 .
835(15) 0.0 0.0 .
857(16) 0.0 0.0 .
862(16) 0.0 0.0 .
896(15) 0.0 0.0 .
886(16) 0.0 0.0 .
854(16) 0.0 0.0 .
822(15) 0.0 0.0 .
806(15) 0.0 0.0 .
828(15) 0.0 0.0 .
851(16) 0.0 0.0 .
878(16) 0.0 0.0 .
846(16) 0.0 0.0 .
857(15) 0.0 0.0 .
862(15) 0.0 0.0 .
875(16) 0.0 0.0 .
839(16) 0.0 0.0 .
836(15) 0.0 0.0 .
833(15) 0.0 0.0 .
827(15) 0.0 0.0 .
831(15) 0.0 0.0 .
848(16) 0.0 0.0 .
812(15) 0.0 0.0 .
826(15) 0.0 0.0 .
829(15) 0.0 0.0 .
838(16) 0.0 0.0 .
821(16) 0.0 0.0 .
836(16) 0.0 0.0 .
831(15) 0.0 0.0 .
807(15) 0.0 0.0 .
847(15) 0.0 0.0 .
834(16) 0.0 0.0 .
855(16) 0.0 0.0 .
830(15) 0.0 0.0 .
820(15) 0.0 0.0 .
827(16) 0.0 0.0 .
776(16) 0.0 0.0 .
822(16) 0.0 0.0 .
836(15) 0.0 0.0 .
847(15) 0.0 0.0 .
806(15) 0.0 0.0 .
846(16) 0.0 0.0 .
832(15) 0.0 0.0 .
843(15) 0.0 0.0 .
824(15) 0.0 0.0 .
815(15) 0.0 0.0 .
798(15) 0.0 0.0 .
812(15) 0.0 0.0 .
817(15) 0.0 0.0 .
848(15) 0.0 0.0 .
827(15) 0.0 0.0 .
859(16) 0.0 0.0 .
805(15) 0.0 0.0 .
806(15) 0.0 0.0 .
795(15) 0.0 0.0 .
803(15) 0.0 0.0 .
816(15) 0.0 0.0 .
829(15) 0.0 0.0 .
824(15) 0.0 0.0 .
795(15) 0.0 0.0 .
794(15) 0.0 0.0 .
826(15) 0.0 0.0 .
853(15) 0.0 0.0 .
856(15) 0.0 0.0 .
797(15) 0.0 0.0 .
832(16) 0.0 0.0 .
873(16) 0.0 0.0 .
891(16) 0.0 0.0 .
816(15) 0.0 0.0 .
822(16) 0.0 0.0 .
808(16) 0.0 0.0 .
830(16) 0.0 0.0 .
810(15) 0.0 0.0 .
799(15) 0.0 0.0 .
803(15) 0.0 0.0 .
814(16) 0.0 0.0 .
810(15) 0.0 0.0 .
807(15) 0.0 0.0 .
831(15) 0.0 0.0 .
813(15) 0.0 0.0 .
788(16) 0.0 0.0 .
820(15) 0.0 0.0 .
836(15) 0.0 0.0 .
812(15) 0.0 0.0 .
797(15) 0.0 0.0 .
823(16) 0.0 0.0 .
809(15) 0.0 0.0 .
846(15) 0.0 0.0 .
799(15) 0.0 0.0 .
839(16) 0.0 0.0 .
802(16) 0.0 0.0 .
774(15) 0.0 0.0 .
821(15) 0.0 0.0 .
810(15) 0.0 0.0 .
784(15) 0.0 0.0 .
848(16) 0.0 0.0 .
800(15) 0.0 0.0 .
812(15) 0.0 0.0 .
773(15) 0.0 0.0 .
781(15) 0.0 0.0 .
772(15) 0.0 0.0 .
794(15) 0.0 0.0 .
807(15) 0.0 0.0 .
823(15) 0.0 0.0 .
776(15) 0.0 0.0 .
796(15) 0.0 0.0 .
822(15) 0.0 0.0 .
818(15) 0.0 0.0 .
763(15) 0.0 0.0 .
798(15) 0.0 0.0 .
790(15) 0.0 0.0 .
775(15) 0.0 0.0 .
799(15) 0.0 0.0 .
794(15) 0.0 0.0 .
757(15) 0.0 0.0 .
830(15) 0.0 0.0 .
787(15) 0.0 0.0 .
778(14) 0.0 0.0 .
804(15) 0.0 0.0 .
809(16) 0.0 0.0 .
788(15) 0.0 0.0 .
766(14) 0.0 0.0 .
754(14) 0.0 0.0 .
761(15) 0.0 0.0 .
789(16) 0.0 0.0 .
796(15) 0.0 0.0 .
797(15) 0.0 0.0 .
776(14) 0.0 0.0 .
763(15) 0.0 0.0 .
790(16) 0.0 0.0 .
795(15) 0.0 0.0 .
794(15) 0.0 0.0 .
776(14) 0.0 0.0 .
779(15) 0.0 0.0 .
795(16) 0.0 0.0 .
788(15) 0.0 0.0 .
762(14) 0.0 0.0 .
786(15) 0.0 0.0 .
748(15) 0.0 0.0 .
770(15) 0.0 0.0 .
787(15) 0.0 0.0 .
800(15) 0.0 0.0 .
739(14) 0.0 0.0 .
805(15) 0.0 0.0 .
780(15) 0.0 0.0 .
807(15) 0.0 0.0 .
771(14) 0.0 0.0 .
773(15) 0.0 0.0 .
770(15) 0.0 0.0 .
756(15) 0.0 0.0 .
775(15) 0.0 0.0 .
792(15) 0.0 0.0 .
763(15) 0.0 0.0 .
778(15) 0.0 0.0 .
737(15) 0.0 0.0 .
760(15) 0.0 0.0 .
729(14) 0.0 0.0 .
756(15) 0.0 0.0 .
777(15) 0.0 0.0 .
761(15) 0.0 0.0 .
773(15) 0.0 0.0 .
753(14) 0.0 0.0 .
773(15) 0.0 0.0 .
754(15) 0.0 0.0 .
758(15) 0.0 0.0 .
785(15) 0.0 0.0 .
763(14) 0.0 0.0 .
761(15) 0.0 0.0 .
781(15) 0.0 0.0 .
769(15) 0.0 0.0 .
803(15) 0.0 0.0 .
792(15) 0.0 0.0 .
761(15) 0.0 0.0 .
748(15) 0.0 0.0 .
753(15) 0.0 0.0 .
774(15) 0.0 0.0 .
791(15) 0.0 0.0 .
808(15) 0.0 0.0 .
754(15) 0.0 0.0 .
779(15) 0.0 0.0 .
761(14) 0.0 0.0 .
764(14) 0.0 0.0 .
763(15) 0.0 0.0 .
753(15) 0.0 0.0 .
765(15) 0.0 0.0 .
743(14) 0.0 0.0 .
719(14) 0.0 0.0 .
773(15) 0.0 0.0 .
733(15) 0.0 0.0 .
749(15) 0.0 0.0 .
737(14) 0.0 0.0 .
739(14) 0.0 0.0 .
731(14) 0.0 0.0 .
756(15) 0.0 0.0 .
777(15) 0.0 0.0 .
800(15) 0.0 0.0 .
798(15) 0.0 0.0 .
776(15) 0.0 0.0 .
753(15) 0.0 0.0 .
721(14) 0.0 0.0 .
797(15) 0.0 0.0 .
761(15) 0.0 0.0 .
760(15) 0.0 0.0 .
771(15) 0.0 0.0 .
776(15) 0.0 0.0 .
779(15) 0.0 0.0 .
755(15) 0.0 0.0 .
776(15) 0.0 0.0 .
760(15) 0.0 0.0 .
730(14) 0.0 0.0 .
746(14) 0.0 0.0 .
776(15) 0.0 0.0 .
730(14) 0.0 0.0 .
748(15) 0.0 0.0 .
738(14) 0.0 0.0 .
783(15) 0.0 0.0 .
745(15) 0.0 0.0 .
750(15) 0.0 0.0 .
759(15) 0.0 0.0 .
773(15) 0.0 0.0 .
773(14) 0.0 0.0 .
751(15) 0.0 0.0 .
745(15) 0.0 0.0 .
754(15) 0.0 0.0 .
715(14) 0.0 0.0 .
751(14) 0.0 0.0 .
762(15) 0.0 0.0 .
766(15) 0.0 0.0 .
716(14) 0.0 0.0 .
759(14) 0.0 0.0 .
733(14) 0.0 0.0 .
710(14) 0.0 0.0 .
735(15) 0.0 0.0 .
718(14) 0.0 0.0 .
755(14) 0.0 0.0 .
733(14) 0.0 0.0 .
751(15) 0.0 0.0 .
758(15) 0.0 0.0 .
730(14) 0.0 0.0 .
767(14) 0.0 0.0 .
738(14) 0.0 0.0 .
706(14) 0.0 0.0 .
740(15) 0.0 0.0 .
765(15) 0.0 0.0 .
711(14) 0.0 0.0 .
747(14) 0.0 0.0 .
748(15) 0.0 0.0 .
777(15) 0.0 0.0 .
778(15) 0.0 0.0 .
740(14) 0.0 0.0 .
707(14) 0.0 0.0 .
757(15) 0.0 0.0 .
748(15) 0.0 0.0 .
739(15) 0.0 0.0 .
738(14) 0.0 0.0 .
731(14) 0.0 0.0 .
732(15) 0.0 0.0 .
769(15) 0.0 0.0 .
740(14) 0.0 0.0 .
721(14) 0.0 0.0 .
716(14) 0.0 0.0 .
733(15) 0.0 0.0 .
722(14) 0.0 0.0 .
736(14) 0.0 0.0 .
758(14) 0.0 0.0 .
768(15) 0.0 0.0 .
719(15) 0.0 0.0 .
744(15) 0.0 0.0 .
733(14) 0.0 0.0 .
737(14) 0.0 0.0 .
710(14) 0.0 0.0 .
731(15) 0.0 0.0 .
747(15) 0.0 0.0 .
744(14) 0.0 0.0 .
737(14) 0.0 0.0 .
765(15) 0.0 0.0 .
768(15) 0.0 0.0 .
742(15) 0.0 0.0 .
743(14) 0.0 0.0 .
727(14) 0.0 0.0 .
731(15) 0.0 0.0 .
746(15) 0.0 0.0 .
724(15) 0.0 0.0 .
706(14) 0.0 0.0 .
742(14) 0.0 0.0 .
724(14) 0.0 0.0 .
724(15) 0.0 0.0 .
724(14) 0.0 0.0 .
723(14) 0.0 0.0 .
745(14) 0.0 0.0 .
734(15) 0.0 0.0 .
698(14) 0.0 0.0 .
729(15) 0.0 0.0 .
720(14) 0.0 0.0 .
715(14) 0.0 0.0 .
743(15) 0.0 0.0 .
717(15) 0.0 0.0 .
735(15) 0.0 0.0 .
726(14) 0.0 0.0 .
720(14) 0.0 0.0 .
699(14) 0.0 0.0 .
739(15) 0.0 0.0 .
729(14) 0.0 0.0 .
742(14) 0.0 0.0 .
766(15) 0.0 0.0 .
713(14) 0.0 0.0 .
729(15) 0.0 0.0 .
728(14) 0.0 0.0 .
746(14) 0.0 0.0 .
781(15) 0.0 0.0 .
714(15) 0.0 0.0 .
693(14) 0.0 0.0 .
769(15) 0.0 0.0 .
690(14) 0.0 0.0 .
686(14) 0.0 0.0 .
699(14) 0.0 0.0 .
721(14) 0.0 0.0 .
742(14) 0.0 0.0 .
748(14) 0.0 0.0 .
764(15) 0.0 0.0 .
753(15) 0.0 0.0 .
780(15) 0.0 0.0 .
701(14) 0.0 0.0 .
723(14) 0.0 0.0 .
745(15) 0.0 0.0 .
723(15) 0.0 0.0 .
750(15) 0.0 0.0 .
733(14) 0.0 0.0 .
732(14) 0.0 0.0 .
705(14) 0.0 0.0 .
738(15) 0.0 0.0 .
721(14) 0.0 0.0 .
727(14) 0.0 0.0 .
747(14) 0.0 0.0 .
751(15) 0.0 0.0 .
770(16) 0.0 0.0 .
774(15) 0.0 0.0 .
755(14) 0.0 0.0 .
740(14) 0.0 0.0 .
729(15) 0.0 0.0 .
753(15) 0.0 0.0 .
740(15) 0.0 0.0 .
740(14) 0.0 0.0 .
740(14) 0.0 0.0 .
750(15) 0.0 0.0 .
745(15) 0.0 0.0 .
747(15) 0.0 0.0 .
776(14) 0.0 0.0 .
708(14) 0.0 0.0 .
734(15) 0.0 0.0 .
763(15) 0.0 0.0 .
772(15) 0.0 0.0 .
773(14) 0.0 0.0 .
750(14) 0.0 0.0 .
741(15) 0.0 0.0 .
769(15) 0.0 0.0 .
746(15) 0.0 0.0 .
776(14) 0.0 0.0 .
800(15) 0.0 0.0 .
787(15) 0.0 0.0 .
756(15) 0.0 0.0 .
764(15) 0.0 0.0 .
771(14) 0.0 0.0 .
765(15) 0.0 0.0 .
748(15) 0.0 0.0 .
768(15) 0.0 0.0 .
767(15) 0.0 0.0 .
788(15) 0.0 0.0 .
774(15) 0.0 0.0 .
786(15) 0.0 0.0 .
806(15) 0.0 0.0 .
811(15) 0.0 0.0 .
788(15) 0.0 0.0 .
803(15) 0.0 0.0 .
791(15) 0.0 0.0 .
816(15) 0.0 0.0 .
808(15) 0.0 0.0 .
837(15) 0.0 0.0 .
801(15) 0.0 0.0 .
813(16) 0.0 0.0 .
801(15) 0.0 0.0 .
831(15) 0.0 0.0 .
816(15) 0.0 0.0 .
820(15) 0.0 0.0 .
850(16) 0.0 0.0 .
837(15) 0.0 0.0 .
838(15) 0.0 0.0 .
870(15) 0.0 0.0 .
888(16) 0.0 0.0 .
918(17) 0.0 0.0 .
882(16) 0.0 0.0 .
924(16) 0.0 0.0 .
968(16) 0.0 0.0 .
958(17) 0.0 0.0 .
962(17) 0.0 0.0 .
1014(17) 0.0 0.0 .
1002(16) 0.0 0.0 .
1020(17) 0.0 0.0 .
1075(18) 0.0 0.0 .
1100(18) 0.0 0.0 .
1107(18) 0.0 0.0 .
1149(18) 0.0 0.0 .
1176(18) 0.0 0.0 .
1178(18) 0.0 0.0 .
1245(19) 0.0 0.0 .
1305(19) 0.0 0.0 .
1345(19) 0.0 0.0 .
1454(20) 0.0 0.0 .
1475(21) 0.0 0.0 .
1535(21) 0.0 0.0 .
1563(21) 0.0 0.0 .
1643(21) 0.0 0.0 .
1765(22) 0.0 0.0 .
1894(24) 0.0 0.0 .
2012(24) 0.0 0.0 .
2077(24) 0.0 0.0 .
2178(24) 0.0 0.0 .
2457(27) 0.0 0.0 .
2757(29) 0.0 0.0 .
3067(30) 0.0 0.0 .
3521(31) 0.0 0.0 .
3966(33) 0.0 0.0 .
4641(37) 0.0 0. .
5338(40) 0.0 0. .
6195(42) 0.0 0. .
7255(45) 0.0 0. .
8257(47) 0.0 0. .
9294(52) 0.0 0. .
10527(57) 0.0 0. .
11596(58) 0.0 0. .
12904(60) 0.0 0. .
14407(63) 0.0 0. .
15520(67) 0.0 0. .
16980(74) 0.0 0. .
18835(75) 0.0 0. .
20949(77) 0.0 0. .
23699(82) 0.0 0. .
26830(89) 0.0 0. .
30720(100) 0.0 0. .
34590(100) 0.0 0. .
38320(110) 0.0 0. .
40420(110) 0.0 0. .
38700(110) 0.0 0. .
34640(110) 0.0 0. .
29045(93) 0.0 0. .
24019(82) 0.0 0. .
19777(75) 0.0 0. .
16545(70) 0.0 0. .
13702(64) 0.0 0. .
11588(58) 0.0 0. .
9875(52) 0.0 0. .
8304(48) 0.0 0. .
7122(46) 0.0 0. .
6244(43) 0.0 0. .
5583(40) 0.0 0. .
4842(36) 0.0 0. .
4220(35) 0.0 0.0 .
3773(33) 0.0 0.0 .
3360(31) 0.0 0.0 .
3079(30) 0.0 0.0 .
2822(28) 0.0 0.0 .
2549(27) 0.0 0.0 .
2328(26) 0.0 0.0 .
2135(25) 0.0 0.0 .
1918(23) 0.0 0.0 .
1881(23) 0.0 0.0 .
1743(22) 0.0 0.0 .
1620(22) 0.0 0.0 .
1530(21) 0.0 0.0 .
1523(20) 0.0 0.0 .
1509(20) 0.0 0.0 .
1336(20) 0.0 0.0 .
1332(20) 0.0 0.0 .
1245(19) 0.0 0.0 .
1248(18) 0.0 0.0 .
1193(18) 0.0 0.0 .
1162(18) 0.0 0.0 .
1194(20) 0.0 0.0 .
1104(18) 0.0 0.0 .
1055(17) 0.0 0.0 .
1033(17) 0.0 0.0 .
1020(17) 0.0 0.0 .
1006(18) 0.0 0.0 .
975(17) 0.0 0.0 .
945(16) 0.0 0.0 .
974(16) 0.0 0.0 .
985(17) 0.0 0.0 .
953(17) 0.0 0.0 .
870(16) 0.0 0.0 .
837(15) 0.0 0.0 .
862(15) 0.0 0.0 .
872(16) 0.0 0.0 .
891(17) 0.0 0.0 .
828(15) 0.0 0.0 .
853(15) 0.0 0.0 .
849(15) 0.0 0.0 .
864(16) 0.0 0.0 .
844(16) 0.0 0.0 .
806(15) 0.0 0.0 .
812(15) 0.0 0.0 .
842(15) 0.0 0.0 .
804(15) 0.0 0.0 .
776(15) 0.0 0.0 .
764(15) 0.0 0.0 .
791(15) 0.0 0.0 .
774(15) 0.0 0.0 .
800(15) 0.0 0.0 .
795(15) 0.0 0.0 .
760(15) 0.0 0.0 .
741(14) 0.0 0.0 .
771(15) 0.0 0.0 .
785(15) 0.0 0.0 .
758(15) 0.0 0.0 .
791(15) 0.0 0.0 .
750(14) 0.0 0.0 .
719(14) 0.0 0.0 .
731(15) 0.0 0.0 .
744(15) 0.0 0.0 .
724(14) 0.0 0.0 .
717(14) 0.0 0.0 .
750(15) 0.0 0.0 .
743(15) 0.0 0.0 .
729(15) 0.0 0.0 .
728(14) 0.0 0.0 .
728(14) 0.0 0.0 .
693(14) 0.0 0.0 .
746(15) 0.0 0.0 .
741(15) 0.0 0.0 .
708(14) 0.0 0.0 .
690(14) 0.0 0.0 .
697(14) 0.0 0.0 .
662(14) 0.0 0.0 .
737(15) 0.0 0.0 .
708(14) 0.0 0.0 .
696(14) 0.0 0.0 .
732(14) 0.0 0.0 .
734(15) 0.0 0.0 .
671(14) 0.0 0.0 .
731(14) 0.0 0.0 .
711(14) 0.0 0.0 .
709(14) 0.0 0.0 .
695(15) 0.0 0.0 .
685(14) 0.0 0.0 .
691(14) 0.0 0.0 .
685(14) 0.0 0.0 .
721(14) 0.0 0.0 .
685(14) 0.0 0.0 .
691(14) 0.0 0.0 .
674(13) 0.0 0.0 .
676(14) 0.0 0.0 .
699(14) 0.0 0.0 .
689(14) 0.0 0.0 .
710(14) 0.0 0.0 .
696(14) 0.0 0.0 .
665(14) 0.0 0.0 .
701(14) 0.0 0.0 .
675(14) 0.0 0.0 .
685(14) 0.0 0.0 .
649(13) 0.0 0.0 .
675(14) 0.0 0.0 .
681(14) 0.0 0.0 .
682(14) 0.0 0.0 .
684(14) 0.0 0.0 .
693(14) 0.0 0.0 .
695(14) 0.0 0.0 .
679(14) 0.0 0.0 .
701(14) 0.0 0.0 .
662(14) 0.0 0.0 .
679(13) 0.0 0.0 .
640(14) 0.0 0.0 .
658(14) 0.0 0.0 .
673(14) 0.0 0.0 .
689(14) 0.0 0.0 .
705(14) 0.0 0.0 .
708(14) 0.0 0.0 .
702(15) 0.0 0.0 .
695(14) 0.0 0.0 .
709(14) 0.0 0.0 .
696(14) 0.0 0.0 .
634(13) 0.0 0.0 .
686(15) 0.0 0.0 .
674(14) 0.0 0.0 .
685(14) 0.0 0.0 .
672(13) 0.0 0.0 .
707(14) 0.0 0.0 .
697(15) 0.0 0.0 .
705(14) 0.0 0.0 .
723(14) 0.0 0.0 .
691(14) 0.0 0.0 .
669(14) 0.0 0.0 .
678(15) 0.0 0.0 .
682(14) 0.0 0.0 .
673(13) 0.0 0.0 .
694(14) 0.0 0.0 .
685(14) 0.0 0.0 .
695(15) 0.0 0.0 .
648(14) 0.0 0.0 .
682(14) 0.0 0.0 .
639(13) 0.0 0.0 .
659(14) 0.0 0.0 .
653(14) 0.0 0.0 .
687(14) 0.0 0.0 .
652(13) 0.0 0.0 .
599(13) 0.0 0.0 .
657(14) 0.0 0.0 .
668(14) 0.0 0.0 .
679(14) 0.0 0.0 .
688(14) 0.0 0.0 .
687(14) 0.0 0.0 .
652(14) 0.0 0.0 .
627(14) 0.0 0.0 .
651(14) 0.0 0.0 .
677(14) 0.0 0.0 .
701(14) 0.0 0.0 .
628(13) 0.0 0.0 .
675(14) 0.0 0.0 .
633(13) 0.0 0.0 .
687(14) 0.0 0.0 .
661(14) 0.0 0.0 .
629(14) 0.0 0.0 .
679(14) 0.0 0.0 .
662(13) 0.0 0.0 .
674(13) 0.0 0.0 .
645(14) 0.0 0.0 .
624(14) 0.0 0.0 .
646(14) 0.0 0.0 .
633(13) 0.0 0.0 .
635(13) 0.0 0.0 .
635(13) 0.0 0.0 .
653(14) 0.0 0.0 .
599(13) 0.0 0.0 .
615(13) 0.0 0.0 .
621(13) 0.0 0.0 .
651(14) 0.0 0.0 .
666(14) 0.0 0.0 .
646(14) 0.00541 624.5 20.5
625(13) 0.00593 624.4 20.3
649(13) 0.00562 624.3 20.1
662(14) 0.00524 624.2 19.9
641(14) 0.00515 624.1 19.7
666(14) 0.00524 624.1 19.5
624(13) 0.00595 624.0 19.4
641(13) 0.00560 623.9 19.2
611(13) 0.00582 623.8 19.0
643(14) 0.00517 623.8 18.8
638(14) 0.00545 623.7 18.7
629(13) 0.00590 623.5 18.5
677(13) 0.00554 623.4 18.3
639(13) 0.00554 623.3 18.2
607(13) 0.00550 623.2 18.0
623(13) 0.00566 623.1 17.9
651(13) 0.00572 622.9 17.7
637(13) 0.00562 622.8 17.5
598(13) 0.00576 622.7 17.4
595(13) 0.00568 622.6 17.2
626(13) 0.00562 622.5 17.1
625(13) 0.00595 622.3 17.0
606(13) 0.00597 622.2 16.8
650(14) 0.00534 622.1 16.7
666(14) 0.00514 622.0 16.5
653(14) 0.00548 621.9 16.4
642(13) 0.00580 621.7 16.3
664(14) 0.00541 621.6 16.1
648(14) 0.00527 621.5 16.0
639(14) 0.00545 621.4 15.9
626(13) 0.00572 621.3 15.8
625(13) 0.00594 621.1 15.6
639(14) 0.00546 621.0 15.5
617(13) 0.00550 620.9 15.4
669(14) 0.00515 620.8 15.3
657(13) 0.00560 620.7 15.2
620(13) 0.00600 620.5 15.0
598(13) 0.00571 620.4 14.9
647(14) 0.00503 620.3 14.8
599(13) 0.00598 620.2 14.7
607(13) 0.00607 620.0 14.6
644(13) 0.00574 619.9 14.5
640(14) 0.00536 619.8 14.4
605(13) 0.00575 619.7 14.3
647(13) 0.00551 619.6 14.2
653(13) 0.00562 619.4 14.1
640(13) 0.00578 619.3 14.0
636(14) 0.00548 619.2 13.9
593(14) 0.00545 619.1 13.8
589(13) 0.00603 619.0 13.7
600(13) 0.00621 618.8 13.6
666(13) 0.00552 618.7 13.5
647(13) 0.00549 618.6 13.4
632(14) 0.00519 618.5 13.3
633(14) 0.00548 618.4 13.3
616(13) 0.00600 618.2 13.2
650(13) 0.00560 618.1 13.1
587(13) 0.00609 618.0 13.0
608(14) 0.00539 617.9 12.9
587(13) 0.00588 617.8 12.9
586(13) 0.00638 617.6 12.8
627(13) 0.00573 617.5 12.7
633(13) 0.00559 617.4 12.6
633(14) 0.00527 617.3 12.5
597(13) 0.00598 617.2 12.5
623(13) 0.00596 617.0 12.4
593(13) 0.00597 616.9 12.3
642(14) 0.00546 616.8 12.3
616(14) 0.00537 616.7 12.2
614(14) 0.00544 616.6 12.1
612(13) 0.00609 616.4 12.1
623(13) 0.00570 616.3 12.0
584(13) 0.00592 616.2 11.9
600(13) 0.00564 616.1 11.9
603(13) 0.00592 615.9 11.8
617(13) 0.00608 615.8 11.8
636(13) 0.00561 615.7 11.7
635(14) 0.00537 615.6 11.7
684(14) 0.00489 615.5 11.6
632(13) 0.00576 615.3 11.5
642(13) 0.00576 615.2 11.5
605(13) 0.00594 615.1 11.4
646(14) 0.00524 615.0 11.4
599(13) 0.00579 614.9 11.3
607(13) 0.00598 614.7 11.3
631(13) 0.00587 614.6 11.3
614(13) 0.00568 614.5 11.2
643(14) 0.00506 614.4 11.2
649(14) 0.00521 614.3 11.1
606(13) 0.00607 614.1 11.1
596(13) 0.00620 614.0 11.1
618(13) 0.00572 613.9 11.0
630(14) 0.00528 613.8 11.0
617(13) 0.00578 613.7 11.0
629(13) 0.00595 613.5 10.9
617(13) 0.00598 613.4 10.9
617(13) 0.00549 613.3 10.9
645(14) 0.00484 613.2 10.8
570(13) 0.00611 613.1 10.8
607(13) 0.00613 612.9 10.8
610(13) 0.00605 612.8 10.8
595(13) 0.00588 612.7 10.7
639(14) 0.00501 612.6 10.7
615(13) 0.00579 612.4 10.7
644(13) 0.00576 612.3 10.7
644(13) 0.00565 612.2 10.7
638(14) 0.00530 612.1 10.7
604(14) 0.00526 612.0 10.7
600(14) 0.00546 611.8 10.7
601(13) 0.00617 611.7 10.6
602(13) 0.00616 611.6 10.6
668(14) 0.00526 611.5 10.6
644(14) 0.00534 611.4 10.6
636(14) 0.00545 611.2 10.6
613(13) 0.00610 611.1 10.7
627(13) 0.00582 611.0 10.7
617(13) 0.00549 610.9 10.7
637(14) 0.00514 610.8 10.7
598(13) 0.00584 610.6 10.7
612(13) 0.00607 610.5 10.7
619(13) 0.00584 610.4 10.8
627(14) 0.00532 610.3 10.8
579(13) 0.00592 610.2 10.8
588(13) 0.00598 610.0 10.8
625(13) 0.00595 609.9 10.9
616(13) 0.00572 609.8 10.9
623(13) 0.00561 609.7 11.0
588(13) 0.00595 609.6 11.0
607(13) 0.00583 609.4 11.1
632(13) 0.00591 609.3 11.1
614(13) 0.00572 609.2 11.2
627(14) 0.00534 609.1 11.3
624(14) 0.00536 608.9 11.3
624(13) 0.00559 608.8 11.4
595(13) 0.00627 608.7 11.5
605(13) 0.00559 608.6 11.6
610(13) 0.00552 608.5 11.7
622(13) 0.00563 608.3 11.8
617(13) 0.00587 608.2 11.9
639(13) 0.00582 608.1 12.1
629(14) 0.00541 608.0 12.2
594(13) 0.00559 607.9 12.3
614(13) 0.00560 607.7 12.5
633(13) 0.00577 607.6 12.7
626(13) 0.00593 607.5 12.8
621(13) 0.00571 607.4 13.0
607(14) 0.00548 607.3 13.2
614(13) 0.00573 607.1 13.4
614(13) 0.00597 607.0 13.7
631(13) 0.00586 606.9 13.9
583(13) 0.00592 606.8 14.2
617(14) 0.00510 606.7 14.5
612(13) 0.00567 606.5 14.8
616(13) 0.00597 606.4 15.1
632(13) 0.00582 606.3 15.5
619(13) 0.00558 606.2 15.9
615(14) 0.00533 606.1 16.3
662(14) 0.00523 605.9 16.7
652(13) 0.00567 605.8 17.2
609(13) 0.00598 605.7 17.7
623(13) 0.00569 605.6 18.3
602(14) 0.00547 605.4 18.9
605(13) 0.00575 605.3 19.5
627(13) 0.00594 605.2 20.3
661(14) 0.00548 605.1 21.1
651(14) 0.00531 605.0 21.9
628(14) 0.00535 604.8 22.9
625(13) 0.00565 604.7 23.9
617(13) 0.00600 604.6 25.1
647(14) 0.00545 604.5 26.4
631(14) 0.00542 604.4 27.9
644(14) 0.00520 604.2 29.5
658(14) 0.00536 604.1 31.4
678(14) 0.00543 604.0 33.6
659(14) 0.00530 603.9 36.0
655(14) 0.00524 603.8 38.9
652(14) 0.00533 603.6 42.2
703(14) 0.00509 603.5 46.1
685(14) 0.00540 603.4 50.6
693(14) 0.00496 603.3 55.9
684(14) 0.00484 603.2 62.1
693(14) 0.00484 603.0 69.3
723(14) 0.00487 602.9 77.6
697(14) 0.00533 602.8 87.1
737(15) 0.00469 602.7 98.0
721(15) 0.00466 602.6 110.3
743(15) 0.00462 602.4 124.1
745(14) 0.00492 602.3 139.2
734(14) 0.00505 602.2 155.8
820(15) 0.00426 602.1 173.4
788(15) 0.00428 601.9 191.8
793(15) 0.00446 601.8 210.3
802(15) 0.00457 601.7 228.2
794(15) 0.00469 601.6 244.4
798(15) 0.00445 601.5 257.5
845(16) 0.00379 601.3 266.4
826(15) 0.00425 601.2 270.2
830(15) 0.00443 601.1 268.3
770(14) 0.00484 601.0 261.0
819(15) 0.00435 600.9 249.1
809(16) 0.00405 600.7 233.8
769(15) 0.00449 600.6 216.4
716(14) 0.00520 600.5 197.9
746(14) 0.00490 600.4 179.3
710(14) 0.00488 600.3 161.3
696(15) 0.00469 600.1 144.3
680(14) 0.00499 600.0 128.6
639(13) 0.00581 599.9 114.3
652(13) 0.00558 599.8 101.5
628(14) 0.00547 599.7 90.1
624(14) 0.00537 599.5 80.1
665(14) 0.00520 599.4 71.3
655(13) 0.00563 599.3 63.7
601(13) 0.00612 599.2 57.1
600(13) 0.00577 599.1 51.5
622(14) 0.00543 598.9 46.7
618(13) 0.00564 598.8 42.5
622(13) 0.00599 598.7 39.0
619(13) 0.00586 598.6 35.9
644(14) 0.00520 598.4 33.2
608(13) 0.00555 598.3 30.9
612(13) 0.00565 598.2 28.9
584(12) 0.00641 598.1 27.2
584(13) 0.00602 598.0 25.6
583(13) 0.00585 597.8 24.2
621(14) 0.00549 597.7 22.9
585(13) 0.00599 597.6 21.8
598(13) 0.00625 597.5 20.7
598(13) 0.00586 597.4 19.8
578(13) 0.00609 597.2 18.9
603(13) 0.00582 597.1 18.1
583(13) 0.00613 597.0 17.4
618(13) 0.00598 596.9 16.7
601(13) 0.00588 596.8 16.1
636(14) 0.00520 596.6 15.5
653(14) 0.00528 596.5 15.0
602(13) 0.00605 596.4 14.4
630(13) 0.00587 596.3 14.0
641(14) 0.00544 596.2 13.5
617(14) 0.00538 596.0 13.1
614(13) 0.00555 595.9 12.7
579(13) 0.00632 595.8 12.3
612(13) 0.00614 595.7 12.0
619(13) 0.00574 595.6 11.7
596(13) 0.00554 595.4 11.4
628(14) 0.00545 595.3 11.1
587(13) 0.00618 595.2 10.8
593(13) 0.00625 595.1 10.5
574(13) 0.00605 595.0 10.3
609(14) 0.00536 594.8 10.1
592(13) 0.00589 594.7 9.8
593(13) 0.00626 594.6 9.6
621(13) 0.00598 594.5 9.4
596(13) 0.00592 594.3 9.2
580(13) 0.00555 594.2 9.0
549(13) 0.00640 594.1 8.9
578(12) 0.00643 594.0 8.7
572(12) 0.00646 593.9 8.5
571(13) 0.00609 593.7 8.4
585(13) 0.00566 593.6 8.2
586(13) 0.00613 593.5 8.1
611(13) 0.00612 593.4 8.0
577(13) 0.00616 593.3 7.8
576(13) 0.00593 593.1 7.7
591(13) 0.00560 593.0 7.6
616(13) 0.00568 592.9 7.5
592(13) 0.00633 592.8 7.4
595(13) 0.00601 592.7 7.3
592(13) 0.00583 592.5 7.2
585(13) 0.00574 592.4 7.1
565(13) 0.00618 592.3 7.0
588(13) 0.00640 592.2 6.9
562(13) 0.00635 592.1 6.8
563(13) 0.00614 591.9 6.7
615(14) 0.00548 591.8 6.6
600(13) 0.00585 591.7 6.5
595(13) 0.00632 591.6 6.5
558(13) 0.00639 591.5 6.4
612(14) 0.00538 591.3 6.3
568(13) 0.00610 591.3 6.2
602(13) 0.00588 591.2 6.2
588(13) 0.00630 591.2 6.1
590(13) 0.00581 591.1 6.0
617(14) 0.00545 591.1 6.0
614(13) 0.00558 591.0 5.9
597(13) 0.00608 590.9 5.9
600(13) 0.00623 590.9 5.8
597(13) 0.00573 590.8 5.7
583(13) 0.00577 590.8 5.7
599(13) 0.00577 590.7 5.6
581(13) 0.00632 590.7 5.6
567(12) 0.00650 590.6 5.5
572(13) 0.00601 590.6 5.5
565(13) 0.00589 590.5 5.4
578(13) 0.00607 590.4 5.4
593(13) 0.00619 590.4 5.3
599(13) 0.00625 590.3 5.3
609(13) 0.00563 590.3 5.3
588(13) 0.00553 590.2 5.2
569(13) 0.00629 590.2 5.2
592(13) 0.00630 590.1 5.1
590(13) 0.00615 590.0 5.1
569(13) 0.00618 590.0 5.1
599(14) 0.00526 589.9 5.0
576(13) 0.00605 589.9 5.0
582(12) 0.00643 589.8 4.9
602(13) 0.00609 589.8 4.9
593(13) 0.00580 589.7 4.9
595(14) 0.00538 589.7 4.8
604(13) 0.00586 589.6 4.8
599(13) 0.00618 589.5 4.8
609(13) 0.00599 589.5 4.7
586(13) 0.00612 589.4 4.7
573(13) 0.00597 589.4 4.7
603(13) 0.00577 589.3 4.6
587(13) 0.00633 589.3 4.6
601(13) 0.00600 589.2 4.6
575(13) 0.00592 589.2 4.6
606(14) 0.00543 589.1 4.5
598(13) 0.00579 589.0 4.5
586(13) 0.00634 589.0 4.5
599(13) 0.00589 588.9 4.4
584(13) 0.00595 588.9 4.4
572(13) 0.00595 588.8 4.4
595(13) 0.00599 588.8 4.4
613(13) 0.00609 588.7 4.3
579(13) 0.00605 588.6 4.3
567(13) 0.00605 588.6 4.3
565(13) 0.00619 588.5 4.3
612(13) 0.00581 588.5 4.2
589(13) 0.00636 588.4 4.2
588(13) 0.00586 588.4 4.2
594(13) 0.00570 588.3 4.2
580(13) 0.00590 588.3 4.2
569(12) 0.00641 588.2 4.1
586(13) 0.00625 588.1 4.1
596(13) 0.00555 588.1 4.1
594(14) 0.00544 588.0 4.1
580(13) 0.00606 588.0 4.1
575(12) 0.00641 587.9 4.0
581(12) 0.00641 587.9 4.0
591(13) 0.00579 587.8 4.0
588(13) 0.00577 587.7 4.0
604(13) 0.00589 587.7 4.0
579(13) 0.00640 587.6 3.9
561(12) 0.00659 587.6 3.9
578(13) 0.00590 587.5 3.9
583(13) 0.00552 587.5 3.9
585(13) 0.00593 587.4 3.9
598(13) 0.00620 587.4 3.9
619(13) 0.00603 587.3 3.8
598(13) 0.00592 587.2 3.8
560(13) 0.00573 587.2 3.8
582(13) 0.00578 587.1 3.8
599(13) 0.00624 587.1 3.8
591(13) 0.00627 587.0 3.8
607(13) 0.00571 587.0 3.7
592(13) 0.00558 586.9 3.7
585(13) 0.00594 586.8 3.7
602(13) 0.00613 586.8 3.7
579(13) 0.00628 586.7 3.7
606(13) 0.00573 586.7 3.7
595(14) 0.00544 586.6 3.7
581(13) 0.00596 586.6 3.6
607(13) 0.00619 586.5 3.6
587(13) 0.00615 586.5 3.6
552(13) 0.00602 586.4 3.6
582(13) 0.00570 586.3 3.6
608(13) 0.00551 586.3 3.6
588(12) 0.00640 586.2 3.6
602(13) 0.00586 586.2 3.5
592(13) 0.00583 586.1 3.5
532(12) 0.00660 586.1 3.5
565(13) 0.00614 586.0 3.5
601(13) 0.00622 585.9 3.5
604(13) 0.00564 585.9 3.5
593(13) 0.00579 585.8 3.5
574(13) 0.00579 585.8 3.5
595(13) 0.00601 585.7 3.4
604(13) 0.00617 585.7 3.4
593(13) 0.00594 585.6 3.4
596(13) 0.00570 585.6 3.4
599(13) 0.00579 585.5 3.4
587(13) 0.00612 585.4 3.4
561(12) 0.00662 585.4 3.4
605(13) 0.00581 585.3 3.4
584(13) 0.00578 585.3 3.4
592(13) 0.00586 585.2 3.4
615(13) 0.00594 585.2 3.3
595(13) 0.00627 585.1 3.3
585(13) 0.00600 585.1 3.3
602(13) 0.00552 585.0 3.3
610(13) 0.00570 584.9 3.3
573(12) 0.00642 584.9 3.3
572(12) 0.00646 584.8 3.3
614(13) 0.00574 584.8 3.3
593(13) 0.00558 584.7 3.3
588(13) 0.00585 584.7 3.3
605(13) 0.00600 584.6 3.2
580(12) 0.00644 584.5 3.2
616(13) 0.00569 584.5 3.2
583(13) 0.00571 584.4 3.2
611(13) 0.00568 584.4 3.2
568(12) 0.00652 584.3 3.2
628(13) 0.00579 584.3 3.2
550(12) 0.00646 584.2 3.2
567(13) 0.00567 584.2 3.2
571(13) 0.00611 584.1 3.2
582(12) 0.00644 584.0 3.2
578(12) 0.00643 584.0 3.2
582(13) 0.00569 583.9 3.1
584(13) 0.00558 583.9 3.1
596(13) 0.00579 583.8 3.1
579(12) 0.00643 583.8 3.1
600(13) 0.00606 583.7 3.1
588(13) 0.00581 583.6 3.1
560(13) 0.00588 583.6 3.1
547(13) 0.00632 583.5 3.1
585(13) 0.00635 583.5 3.1
590(13) 0.00611 583.4 3.1
578(13) 0.00582 583.4 3.1
546(13) 0.00620 583.3 3.1
580(13) 0.00613 583.3 3.1
574(12) 0.00648 583.2 3.0
593(13) 0.00596 583.1 3.0
595(13) 0.00578 583.1 3.0
582(13) 0.00574 583.0 3.0
603(13) 0.00569 583.0 3.0
566(12) 0.00656 582.9 3.0
581(13) 0.00612 582.9 3.0
592(13) 0.00580 582.8 3.0
576(13) 0.00602 582.7 3.0
591(13) 0.00608 582.7 3.0
612(13) 0.00608 582.6 3.0
600(13) 0.00563 582.6 3.0
559(13) 0.00606 582.5 3.0
573(13) 0.00589 582.5 3.0
565(13) 0.00630 582.4 3.0
560(12) 0.00667 582.4 3.0
608(13) 0.00564 582.3 3.0
599(13) 0.00552 582.2 2.9
592(13) 0.00583 582.2 2.9
592(13) 0.00627 582.1 2.9
618(13) 0.00599 582.1 2.9
576(13) 0.00599 582.0 2.9
601(14) 0.00548 582.0 2.9
595(13) 0.00583 581.9 2.9
567(12) 0.00648 581.9 2.9
587(13) 0.00635 581.8 2.9
567(13) 0.00609 581.7 2.9
602(14) 0.00539 581.7 2.9
583(13) 0.00585 581.6 2.9
586(13) 0.00615 581.6 2.9
582(12) 0.00651 581.5 2.9
586(13) 0.00595 581.5 2.9
560(13) 0.00583 581.4 2.9
574(13) 0.00604 581.3 2.9
558(12) 0.00664 581.3 2.9
593(13) 0.00624 581.2 2.9
573(13) 0.00614 581.2 2.9
566(13) 0.00580 581.1 2.9
604(13) 0.00566 581.1 2.9
558(12) 0.00662 581.0 2.8
565(12) 0.00657 581.0 2.8
591(13) 0.00592 580.9 2.8
577(13) 0.00585 580.8 2.8
605(13) 0.00581 580.8 2.8
602(13) 0.00614 580.7 2.8
601(13) 0.00607 580.7 2.8
580(13) 0.00598 580.6 2.8
586(13) 0.00569 580.6 2.8
592(13) 0.00580 580.5 2.8
628(13) 0.00596 580.4 2.8
597(13) 0.00605 580.4 2.8
577(13) 0.00614 580.3 2.8
597(13) 0.00567 580.3 2.8
560(13) 0.00632 580.2 2.8
574(12) 0.00646 580.2 2.8
600(13) 0.00583 580.1 2.8
550(13) 0.00626 580.1 2.8
551(13) 0.00609 580.0 2.8
584(13) 0.00595 579.9 2.8
577(12) 0.00644 579.9 2.8
594(13) 0.00589 579.8 2.8
563(13) 0.00600 579.8 2.8
554(13) 0.00628 579.7 2.8
594(13) 0.00612 579.7 2.8
585(13) 0.00637 579.6 2.8
592(13) 0.00563 579.5 2.8
582(13) 0.00573 579.5 2.8
573(13) 0.00612 579.4 2.8
617(13) 0.00587 579.4 2.8
581(13) 0.00639 579.3 2.8
599(13) 0.00580 579.3 2.8
596(13) 0.00550 579.2 2.8
598(13) 0.00580 579.2 2.8
607(13) 0.00610 579.1 2.8
599(13) 0.00621 579.0 2.8
607(13) 0.00559 579.0 2.8
635(14) 0.00502 578.9 2.8
549(12) 0.00652 578.9 2.8
581(12) 0.00644 578.8 2.8
562(12) 0.00657 578.8 2.8
590(13) 0.00595 578.7 2.8
589(13) 0.00563 578.6 2.8
586(13) 0.00602 578.6 2.8
574(12) 0.00645 578.5 2.8
585(13) 0.00634 578.5 2.8
602(13) 0.00576 578.4 2.8
597(14) 0.00547 578.4 2.8
605(13) 0.00586 578.3 2.8
550(12) 0.00671 578.3 2.8
577(13) 0.00633 578.2 2.8
567(13) 0.00597 578.3 2.8
533(13) 0.00637 578.3 2.8
607(13) 0.00564 578.3 2.8
571(12) 0.00654 578.4 2.8
608(13) 0.00595 578.4 2.8
587(13) 0.00586 578.5 2.8
603(13) 0.00563 578.5 2.8
595(13) 0.00574 578.5 2.8
569(12) 0.00654 578.6 2.8
610(13) 0.00576 578.6 2.8
553(13) 0.00626 578.7 2.8
593(13) 0.00565 578.7 2.8
594(13) 0.00588 578.7 2.8
573(12) 0.00653 578.8 2.8
568(13) 0.00612 578.8 2.8
578(13) 0.00573 578.9 2.8
586(13) 0.00569 578.9 2.8
577(13) 0.00625 579.0 2.8
572(12) 0.00652 579.0 2.8
602(13) 0.00580 579.0 2.8
542(13) 0.00630 579.1 2.8
553(13) 0.00621 579.1 2.8
559(12) 0.00662 579.2 2.8
564(12) 0.00657 579.2 2.8
533(12) 0.00664 579.2 2.8
578(13) 0.00590 579.3 2.8
588(13) 0.00612 579.3 2.8
626(13) 0.00585 579.4 2.8
604(13) 0.00615 579.4 2.8
556(13) 0.00612 579.4 2.8
605(14) 0.00540 579.5 2.8
603(13) 0.00561 579.5 2.8
570(13) 0.00636 579.6 2.8
572(12) 0.00655 579.6 2.8
581(13) 0.00591 579.7 2.8
574(13) 0.00566 579.7 2.8
567(13) 0.00586 579.7 2.8
542(12) 0.00687 579.8 2.8
561(12) 0.00654 579.8 2.8
566(13) 0.00609 579.9 2.8
550(13) 0.00604 579.9 2.8
560(13) 0.00623 579.9 2.9
575(12) 0.00640 580.0 2.9
530(12) 0.00700 580.0 2.9
570(13) 0.00600 580.1 2.9
606(14) 0.00512 580.1 2.9
572(13) 0.00596 580.1 2.9
527(12) 0.00707 580.2 2.9
579(13) 0.00633 580.2 2.9
581(13) 0.00588 580.3 2.9
577(13) 0.00569 580.3 2.9
556(13) 0.00627 580.3 2.9
578(12) 0.00646 580.4 2.9
611(13) 0.00597 580.4 2.9
571(13) 0.00621 580.5 2.9
555(13) 0.00603 580.5 3.0
557(13) 0.00617 580.6 3.0
575(12) 0.00657 580.6 3.0
613(13) 0.00578 580.6 3.0
591(13) 0.00589 580.7 3.0
575(13) 0.00605 580.7 3.0
569(13) 0.00606 580.8 3.0
583(13) 0.00635 580.8 3.0
572(13) 0.00627 580.8 3.0
571(13) 0.00594 580.9 3.0
599(13) 0.00559 580.9 3.1
584(13) 0.00603 581.0 3.1
577(12) 0.00647 581.0 3.1
577(13) 0.00602 581.0 3.1
555(13) 0.00611 581.1 3.1
572(13) 0.00594 581.1 3.1
562(13) 0.00636 581.2 3.1
588(13) 0.00628 581.2 3.2
558(13) 0.00615 581.2 3.2
584(13) 0.00574 581.3 3.2
584(13) 0.00595 581.3 3.2
583(13) 0.00622 581.4 3.2
579(12) 0.00640 581.4 3.3
579(13) 0.00594 581.5 3.3
562(13) 0.00588 581.5 3.3
578(13) 0.00597 581.5 3.3
585(13) 0.00632 581.6 3.3
548(12) 0.00681 581.6 3.4
562(13) 0.00619 581.7 3.4
573(13) 0.00568 581.7 3.4
581(13) 0.00598 581.7 3.5
594(13) 0.00617 581.8 3.5
592(13) 0.00625 581.8 3.5
590(13) 0.00587 581.9 3.5
565(13) 0.00575 581.9 3.6
592(13) 0.00569 581.9 3.6
572(12) 0.00650 582.0 3.6
558(12) 0.00660 582.0 3.7
601(13) 0.00568 582.1 3.7
588(13) 0.00566 582.1 3.8
577(13) 0.00610 582.2 3.8
580(12) 0.00649 582.2 3.9
599(13) 0.00617 582.2 3.9
559(13) 0.00628 582.3 4.0
557(13) 0.00587 582.3 4.0
574(13) 0.00592 582.4 4.1
601(13) 0.00623 582.4 4.1
562(13) 0.00636 582.4 4.2
568(13) 0.00606 582.5 4.3
594(13) 0.00554 582.5 4.3
572(13) 0.00603 582.6 4.4
582(13) 0.00638 582.6 4.5
572(13) 0.00633 582.6 4.6
562(13) 0.00601 582.7 4.6
547(13) 0.00607 582.7 4.7
569(13) 0.00614 582.8 4.8
550(12) 0.00672 582.8 5.0
559(12) 0.00644 582.8 5.1
565(13) 0.00616 582.9 5.2
611(13) 0.00565 582.9 5.3
605(13) 0.00588 583.0 5.5
582(13) 0.00640 583.0 5.7
590(13) 0.00610 583.1 5.8
595(13) 0.00587 583.1 6.0
600(13) 0.00568 583.1 6.2
608(13) 0.00587 583.2 6.5
581(13) 0.00635 583.2 6.7
573(13) 0.00615 583.3 7.0
602(13) 0.00559 583.3 7.3
574(13) 0.00607 583.3 7.6
578(13) 0.00624 583.4 7.9
590(13) 0.00627 583.4 8.3
562(13) 0.00613 583.5 8.8
588(13) 0.00560 583.5 9.2
583(13) 0.00586 583.5 9.7
586(13) 0.00612 583.6 10.3
568(12) 0.00658 583.6 10.9
580(13) 0.00581 583.7 11.5
553(13) 0.00593 583.7 12.2
568(13) 0.00616 583.7 13.0
563(12) 0.00644 583.8 13.8
561(12) 0.00663 583.8 14.7
597(13) 0.00583 583.9 15.6
559(13) 0.00587 583.9 16.5
555(13) 0.00635 584.0 17.5
624(13) 0.00585 584.0 18.6
602(13) 0.00618 584.0 19.6
571(13) 0.00615 584.1 20.7
571(13) 0.00574 584.1 21.7
577(13) 0.00607 584.2 22.7
612(13) 0.00604 584.2 23.6
578(12) 0.00640 584.2 24.4
580(13) 0.00586 584.3 25.0
578(13) 0.00576 584.3 25.5
607(13) 0.00580 584.4 25.7
606(13) 0.00615 584.4 25.7
563(12) 0.00660 584.4 25.5
578(13) 0.00587 584.5 25.1
555(13) 0.00585 584.5 24.5
568(13) 0.00605 584.6 23.8
547(12) 0.00683 584.6 22.9
595(13) 0.00606 584.7 22.0
588(13) 0.00594 584.7 20.9
578(13) 0.00580 584.7 19.9
586(13) 0.00586 584.8 18.9
598(13) 0.00618 584.8 17.8
574(13) 0.00623 584.9 16.8
565(13) 0.00603 584.9 15.9
557(13) 0.00630 584.9 15.0
585(13) 0.00607 585.0 14.1
597(13) 0.00624 585.0 13.3
585(13) 0.00603 585.1 12.5
576(13) 0.00597 585.1 11.8
575(13) 0.00585 585.1 11.2
586(13) 0.00593 585.2 10.6
542(12) 0.00688 585.2 10.1
576(13) 0.00597 585.3 9.6
554(13) 0.00618 585.3 9.1
608(13) 0.00562 585.3 8.7
554(12) 0.00649 585.4 8.3
576(12) 0.00648 585.4 8.0
590(13) 0.00585 585.5 7.7
556(13) 0.00611 585.5 7.4
547(12) 0.00656 585.6 7.1
605(13) 0.00610 585.6 6.9
554(12) 0.00672 585.6 6.6
595(13) 0.00573 585.7 6.5
566(13) 0.00568 585.7 6.3
591(13) 0.00563 585.8 6.1
575(13) 0.00636 585.8 6.0
559(12) 0.00662 585.8 5.8
573(13) 0.00620 585.9 5.7
569(13) 0.00592 585.9 5.6
572(13) 0.00601 586.0 5.5
537(12) 0.00688 586.0 5.4
572(12) 0.00656 586.0 5.3
542(12) 0.00653 586.1 5.2
594(14) 0.00539 586.1 5.1
585(13) 0.00597 586.2 5.1
570(12) 0.00654 586.2 5.0
581(13) 0.00629 586.2 4.9
560(13) 0.00634 586.3 4.9
572(13) 0.00579 586.3 4.8
576(13) 0.00611 586.4 4.8
555(12) 0.00675 586.4 4.7
521(12) 0.00712 586.5 4.7
613(13) 0.00554 586.5 4.6
571(13) 0.00586 586.5 4.6
572(13) 0.00594 586.6 4.6
546(12) 0.00678 586.6 4.5
537(12) 0.00690 586.7 4.5
556(13) 0.00627 586.7 4.5
560(13) 0.00602 586.7 4.5
610(13) 0.00553 586.8 4.4
571(12) 0.00651 586.8 4.4
575(13) 0.00615 586.9 4.4
630(14) 0.00541 586.9 4.4
592(13) 0.00575 586.9 4.4
566(13) 0.00623 587.0 4.4
565(12) 0.00659 587.0 4.4
552(12) 0.00640 587.1 4.3
566(13) 0.00595 587.1 4.3
539(12) 0.00646 587.1 4.3
563(13) 0.00640 587.2 4.3
588(13) 0.00630 587.2 4.3
534(12) 0.00668 587.3 4.3
596(13) 0.00564 587.3 4.3
599(13) 0.00584 587.4 4.3
621(13) 0.00583 587.4 4.3
562(12) 0.00660 587.4 4.3
605(13) 0.00577 587.5 4.3
600(13) 0.00555 587.5 4.3
561(13) 0.00608 587.6 4.3
557(13) 0.00629 587.6 4.3
552(12) 0.00677 587.6 4.3
592(13) 0.00575 587.7 4.3
621(14) 0.00526 587.7 4.3
588(13) 0.00594 587.8 4.3
562(12) 0.00652 587.8 4.3
600(13) 0.00620 587.8 4.3
561(13) 0.00606 587.9 4.3
560(13) 0.00578 587.9 4.4
562(13) 0.00624 588.0 4.4
564(12) 0.00655 588.0 4.4
607(13) 0.00612 588.1 4.4
586(13) 0.00593 588.1 4.4
561(13) 0.00575 588.1 4.4
549(13) 0.00640 588.2 4.4
550(12) 0.00672 588.2 4.4
574(12) 0.00642 588.3 4.5
555(13) 0.00636 588.3 4.5
565(13) 0.00591 588.3 4.5
572(13) 0.00616 588.4 4.5
547(12) 0.00679 588.4 4.5
595(13) 0.00623 588.5 4.5
565(13) 0.00627 588.5 4.6
580(13) 0.00580 588.5 4.6
627(13) 0.00550 588.6 4.6
567(12) 0.00654 588.6 4.6
593(13) 0.00618 588.7 4.6
611(13) 0.00563 588.7 4.7
578(13) 0.00567 588.7 4.7
566(13) 0.00605 588.8 4.7
582(13) 0.00632 588.8 4.7
565(13) 0.00628 588.9 4.7
593(13) 0.00564 588.9 4.8
602(13) 0.00572 589.0 4.8
620(13) 0.00566 589.0 4.8
622(13) 0.00599 589.0 4.8
590(13) 0.00603 589.1 4.9
587(13) 0.00583 589.1 4.9
599(13) 0.00569 589.2 4.9
597(13) 0.00591 589.2 5.0
558(12) 0.00668 589.2 5.0
574(13) 0.00619 589.3 5.0
579(13) 0.00589 589.3 5.0
581(13) 0.00589 589.4 5.1
601(13) 0.00587 589.4 5.1
585(13) 0.00637 589.4 5.1
585(13) 0.00595 589.5 5.2
574(13) 0.00586 589.5 5.2
563(13) 0.00636 589.6 5.3
585(13) 0.00629 589.6 5.3
609(13) 0.00612 589.6 5.3
624(13) 0.00552 589.7 5.4
565(13) 0.00594 589.7 5.4
592(13) 0.00584 589.8 5.4
590(13) 0.00612 589.8 5.5
575(12) 0.00649 589.9 5.5
590(13) 0.00595 589.9 5.6
622(14) 0.00522 589.9 5.6
566(13) 0.00625 590.0 5.7
571(13) 0.00637 590.0 5.7
590(13) 0.00630 590.1 5.7
585(13) 0.00589 590.1 5.8
600(14) 0.00537 590.1 5.8
621(13) 0.00559 590.2 5.9
588(13) 0.00630 590.2 5.9
578(13) 0.00633 590.3 6.0
624(13) 0.00563 590.3 6.1
576(13) 0.00581 590.3 6.1
590(13) 0.00589 590.4 6.2
598(13) 0.00623 590.4 6.2
595(13) 0.00622 590.5 6.3
572(13) 0.00611 590.5 6.3
587(14) 0.00547 590.6 6.4
573(13) 0.00603 590.6 6.5
588(13) 0.00634 590.6 6.5
576(13) 0.00634 590.7 6.6
596(13) 0.00581 590.7 6.7
586(13) 0.00564 590.8 6.7
605(13) 0.00577 590.8 6.8
583(13) 0.00636 590.8 6.9
593(13) 0.00611 590.9 6.9
588(13) 0.00583 590.9 7.0
604(13) 0.00564 591.0 7.1
563(13) 0.00618 591.0 7.2
646(13) 0.00577 591.0 7.2
632(13) 0.00563 591.1 7.3
577(13) 0.00617 591.1 7.4
567(13) 0.00608 591.2 7.5
551(13) 0.00631 591.2 7.6
591(13) 0.00625 591.2 7.7
572(13) 0.00605 591.3 7.8
609(13) 0.00552 591.3 7.8
579(13) 0.00600 591.5 7.9
606(13) 0.00583 591.7 8.0
607(13) 0.00611 591.9 8.1
624(13) 0.00564 592.1 8.2
622(14) 0.00529 592.3 8.4
597(13) 0.00559 592.5 8.5
635(13) 0.00561 592.7 8.6
618(13) 0.00601 592.9 8.7
625(13) 0.00552 593.1 8.8
582(13) 0.00579 593.3 8.9
635(14) 0.00543 593.5 9.0
617(13) 0.00593 593.7 9.2
631(13) 0.00581 593.9 9.3
582(13) 0.00607 594.1 9.4
590(13) 0.00562 594.3 9.6
618(13) 0.00557 594.5 9.7
588(13) 0.00628 594.7 9.9
569(13) 0.00639 594.9 10.0
567(13) 0.00620 595.1 10.2
555(13) 0.00581 595.3 10.3
599(13) 0.00580 595.5 10.5
585(13) 0.00627 595.7 10.7
619(13) 0.00595 595.9 10.8
585(13) 0.00600 596.1 11.0
598(14) 0.00544 596.3 11.2
603(13) 0.00581 596.5 11.4
617(13) 0.00594 596.7 11.6
579(12) 0.00640 596.9 11.8
578(13) 0.00612 597.1 12.0
608(13) 0.00552 597.3 12.2
603(13) 0.00590 597.5 12.4
600(13) 0.00617 597.7 12.6
574(12) 0.00648 597.9 12.9
605(13) 0.00574 598.1 13.1
583(13) 0.00584 598.4 13.4
596(13) 0.00588 598.6 13.6
605(13) 0.00618 598.8 13.9
588(13) 0.00630 599.0 14.2
573(13) 0.00604 599.2 14.4
599(13) 0.00556 599.4 14.7
593(13) 0.00586 599.6 15.0
569(12) 0.00646 599.8 15.4
580(13) 0.00618 600.0 15.7
586(13) 0.00599 600.2 16.0
599(13) 0.00563 600.4 16.4
617(13) 0.00560 600.6 16.8
606(13) 0.00618 600.8 17.1
620(13) 0.00575 601.0 17.5
666(14) 0.00501 601.2 17.9
595(13) 0.00596 601.4 18.4
638(13) 0.00563 601.6 18.8
633(13) 0.00585 601.8 19.3
591(13) 0.00593 602.0 19.8
594(13) 0.00565 602.2 20.3
621(14) 0.00542 602.4 20.8
604(13) 0.00595 602.6 21.3
630(13) 0.00590 602.8 21.9
611(13) 0.00554 603.0 22.5
589(13) 0.00586 603.2 23.1
614(13) 0.00566 603.4 23.8
611(13) 0.00595 603.6 24.5
600(13) 0.00624 603.8 25.2
635(14) 0.00525 604.0 25.9
635(14) 0.00528 604.2 26.7
596(13) 0.00615 604.4 27.6
626(13) 0.00583 604.6 28.4
593(13) 0.00625 604.8 29.3
605(13) 0.00562 605.1 30.3
643(14) 0.00477 605.3 31.3
588(13) 0.00602 605.5 32.4
599(13) 0.00618 605.7 33.5
659(13) 0.00567 605.9 34.7
623(13) 0.00560 606.1 36.0
605(14) 0.00520 606.3 37.3
640(14) 0.00535 606.5 38.7
610(13) 0.00603 606.7 40.2
579(13) 0.00634 606.9 41.8
618(13) 0.00556 607.1 43.5
601(14) 0.00542 607.3 45.3
626(13) 0.00565 607.5 47.3
599(13) 0.00623 607.7 49.3
626(13) 0.00577 607.9 51.5
633(13) 0.00560 608.1 53.9
636(14) 0.00520 608.3 56.4
623(13) 0.00559 608.5 59.1
632(13) 0.00585 608.7 62.0
601(13) 0.00607 608.9 65.2
642(14) 0.00532 609.1 68.6
624(14) 0.00537 609.3 72.3
656(14) 0.00522 609.5 76.3
684(14) 0.00545 609.7 80.6
667(13) 0.00549 609.9 85.3
659(14) 0.00523 610.1 90.5
669(14) 0.00509 610.3 96.1
685(14) 0.00514 610.5 102.3
702(14) 0.00530 610.7 109.2
684(14) 0.00526 610.9 116.7
665(14) 0.00517 611.1 125.0
718(15) 0.00473 611.3 134.3
772(15) 0.00451 611.5 144.7
741(14) 0.00505 611.7 156.3
734(14) 0.00481 612.0 169.4
716(15) 0.00475 612.2 184.3
771(15) 0.00442 612.4 201.3
794(15) 0.00446 612.6 221.1
830(15) 0.00449 612.8 244.5
859(16) 0.00403 613.0 272.4
926(17) 0.00362 613.2 306.6
959(17) 0.00359 613.4 349.1
949(16) 0.00382 613.6 402.8
1070(17) 0.003476 613.8 471.5
1145(18) 0.003070 614.0 559.8
1293(20) 0.002612 614.2 673.0
1466(21) 0.002365 614.4 817.2
1699(22) 0.002112 614.6 997.8
1854(22) 0.002014 614.8 1220.0
2139(25) 0.001619 615.0 1487.0
2444(27) 0.001332 615.2 1798.6
2698(28) 0.001264 615.4 2150.5
3001(29) 0.001222 615.6 2530.7
3439(30) 0.001076 615.8 2917.6
3809(33) 0.000919 616.0 3276.1
4246(36) 0.000751 616. 3558.
4575(36) 0.000755 616. 3714.
4480(35) 0.000823 616.6 3710.5
4235(34) 0.000866 616.8 3547.7
3740(33) 0.000919 617.0 3260.5
3349(32) 0.000970 617.2 2899.9
2894(29) 0.001217 617.4 2512.6
2549(26) 0.001454 617.6 2133.3
2351(25) 0.001558 617.8 1783.2
2050(24) 0.001701 618.0 1473.5
1842(24) 0.001791 618.2 1208.8
1683(22) 0.002101 618.4 988.6
1503(20) 0.002478 618.6 809.8
1361(19) 0.002660 618.9 667.3
1267(19) 0.002687 619.1 555.3
1168(19) 0.002920 619.3 468.0
1134(18) 0.003025 619.5 400.2
1050(17) 0.00355 619.7 347.1
979(16) 0.00371 619.9 305.1
932(16) 0.00375 620.1 271.3
915(16) 0.00369 620.3 243.6
913(16) 0.00381 620.5 220.4
852(15) 0.00436 620.7 200.8
810(15) 0.00439 620.9 183.9
810(15) 0.00426 621.1 169.1
778(15) 0.00439 621.3 156.1
766(15) 0.00453 621.5 144.6
725(14) 0.00517 621.7 134.3
736(14) 0.00476 621.9 125.1
743(15) 0.00453 622.1 116.8
709(14) 0.00491 622.3 109.3
743(14) 0.00479 622.5 102.5
727(14) 0.00508 622.7 96.3
689(14) 0.00506 622.9 90.7
687(14) 0.00498 623.1 85.6
688(14) 0.00507 623.3 80.9
678(14) 0.00539 623.5 76.6
698(14) 0.00529 623.7 72.7
680(14) 0.00506 623.9 69.0
662(14) 0.00502 624.1 65.6
666(14) 0.00512 624.3 62.5
676(14) 0.00537 624.5 59.6
650(13) 0.00573 624.7 56.9
634(13) 0.00555 624.9 54.4
647(14) 0.00507 625.1 52.1
652(14) 0.00545 625.3 49.9
660(13) 0.00554 625.6 47.9
644(13) 0.00582 625.8 46.0
646(14) 0.00546 626.0 44.2
635(14) 0.00525 626.2 42.5
638(13) 0.00553 626.4 40.9
633(13) 0.00585 626.6 39.5
636(13) 0.00584 626.8 38.1
625(13) 0.00556 627.0 36.7
620(14) 0.00524 627.2 35.5
647(14) 0.00548 627.4 34.3
624(13) 0.00599 627.6 33.2
652(13) 0.00563 627.8 32.2
653(14) 0.00525 628.0 31.2
635(14) 0.00514 628.2 30.2
604(13) 0.00566 628.4 29.3
647(13) 0.00576 628.6 28.5
640(13) 0.00570 628.8 27.7
649(14) 0.00531 629.0 26.9
629(14) 0.00523 629.2 26.2
615(13) 0.00562 629.4 25.5
633(13) 0.00589 629.6 24.8
629(13) 0.00579 629.8 24.2
644(14) 0.00544 630.0 23.6
653(14) 0.00519 630.2 23.0
643(14) 0.00531 630.4 22.4
632(13) 0.00587 630.6 21.9
656(13) 0.00555 630.8 21.4
635(14) 0.00543 631.0 20.9
631(14) 0.00534 631.2 20.5
630(13) 0.00555 631.4 20.0
612(13) 0.00610 631.6 19.6
648(14) 0.00529 631.8 19.2
630(14) 0.00533 632.0 18.8
593(13) 0.00583 632.2 18.4
657(14) 0.00541 632.5 18.1
639(13) 0.00587 632.7 17.7
645(14) 0.00540 632.9 17.4
639(14) 0.00532 633.1 17.1
615(13) 0.00569 633.3 16.7
655(13) 0.00549 633.5 16.4
633(13) 0.00590 633.7 16.2
632(14) 0.00536 633.9 15.9
659(14) 0.00508 634.1 15.6
630(14) 0.00544 634.3 15.4
672(14) 0.00537 634.5 15.1
634(13) 0.00588 634.7 14.9
639(14) 0.00548 634.9 14.7
629(14) 0.00518 635.1 14.4
650(14) 0.00527 635.3 14.2
654(13) 0.00565 635.5 14.0
626(13) 0.00592 635.7 13.8
613(13) 0.00561 635.9 13.6
649(14) 0.00492 636.1 13.5
610(13) 0.00579 636.3 13.3
625(13) 0.00588 636.5 13.1
612(13) 0.00605 636.7 12.9
586(13) 0.00598 636.9 12.8
627(14) 0.00521 637.1 12.6
719(15) 0.00474 637.3 12.5
619(13) 0.00593 637.5 12.3
648(13) 0.00571 637.7 12.2
621(13) 0.00563 637.9 12.1
616(14) 0.00529 638.1 11.9
604(13) 0.00585 638.3 11.8
613(13) 0.00612 638.5 11.7
668(14) 0.00548 638.7 11.6
663(14) 0.00531 638.9 11.5
650(14) 0.00519 639.1 11.3
641(13) 0.00550 639.4 11.2
634(13) 0.00583 639.6 11.1
679(14) 0.00536 639.8 11.0
633(13) 0.00562 640.0 10.9
633(14) 0.00539 640.2 10.9
630(14) 0.00536 640.4 10.8
621(13) 0.00598 640.6 10.7
665(14) 0.00542 640.8 10.6
657(14) 0.00522 641.0 10.5
642(14) 0.00534 641.2 10.5
659(14) 0.00528 641.4 10.4
654(13) 0.00567 641.6 10.3
644(14) 0.00548 641.8 10.2
598(13) 0.00575 642.0 10.2
640(14) 0.00523 642.2 10.1
648(13) 0.00551 642.4 10.1
629(13) 0.00591 642.6 10.0
626(13) 0.00556 642.8 9.9
615(13) 0.00557 643.0 9.9
599(13) 0.00584 643.2 9.8
612(13) 0.00582 643.4 9.8
602(13) 0.00622 643.6 9.7
654(14) 0.00531 643.8 9.7
629(14) 0.00528 644.0 9.7
639(14) 0.00531 644.2 9.6
608(13) 0.00596 644.4 9.6
628(13) 0.00594 644.6 9.5
641(14) 0.00536 644.8 9.5
620(14) 0.00525 645.0 9.5
610(13) 0.00557 645.2 9.4
621(13) 0.00582 645.4 9.4
651(13) 0.00570 645.6 9.4
672(14) 0.00500 645.8 9.4
641(14) 0.00504 646.1 9.3
647(14) 0.00546 646.3 9.3
642(13) 0.00580 646.5 9.3
626(13) 0.00584 646.7 9.3
630(14) 0.00539 646.9 9.2
618(14) 0.00525 647.1 9.2
622(13) 0.00555 647.3 9.2
621(13) 0.00603 647.5 9.2
621(13) 0.00593 647.7 9.2
639(14) 0.00535 647.9 9.2
639(14) 0.00509 648.1 9.2
632(14) 0.00542 648.3 9.2
632(13) 0.00585 648.5 9.2
631(13) 0.00581 648.7 9.2
663(14) 0.00515 648.9 9.2
664(14) 0.00493 649.1 9.2
662(14) 0.00518 649.3 9.2
624(13) 0.00594 649.5 9.2
645(13) 0.00554 649.7 9.2
627(14) 0.00543 649.9 9.2
643(14) 0.00526 650.1 9.2
652(14) 0.00545 650.3 9.2
642(13) 0.00582 650.5 9.2
648(13) 0.00553 650.7 9.2
628(13) 0.00555 650.9 9.2
659(14) 0.00506 651.1 9.2
606(13) 0.00583 651.3 9.2
640(13) 0.00582 651.5 9.2
657(14) 0.00543 651.7 9.3
659(14) 0.00517 651.9 9.3
683(14) 0.00489 652.1 9.3
644(14) 0.00547 652.3 9.3
637(13) 0.00586 652.5 9.3
672(14) 0.00526 652.7 9.4
661(14) 0.00518 653.0 9.4
672(14) 0.00515 653.2 9.4
640(13) 0.00555 653.4 9.4
598(13) 0.00621 653.6 9.5
664(14) 0.00511 653.8 9.5
666(14) 0.00498 654.0 9.5
680(14) 0.00502 654.2 9.5
626(13) 0.00575 654.4 9.6
641(13) 0.00582 654.6 9.6
648(14) 0.00531 654.8 9.6
658(14) 0.00507 655.0 9.7
657(14) 0.00519 655.2 9.7
659(13) 0.00555 655.4 9.8
665(13) 0.00556 655.6 9.8
662(14) 0.00533 655.8 9.8
639(14) 0.00515 656.0 9.9
664(14) 0.00517 656.4 9.9
658(13) 0.00560 656.8 10.0
630(13) 0.00597 657.3 10.0
643(14) 0.00541 657.7 10.1
656(14) 0.00499 658.1 10.1
662(14) 0.00522 658.6 10.2
670(13) 0.00554 659.0 10.2
692(14) 0.00534 659.4 10.3
677(14) 0.00520 659.9 10.4
662(14) 0.00494 660.3 10.4
635(14) 0.00548 660.7 10.5
681(14) 0.00545 661.2 10.5
660(13) 0.00555 661.6 10.6
656(14) 0.00539 662.0 10.7
680(14) 0.00491 662.5 10.7
660(14) 0.00537 662.9 10.8
690(14) 0.00542 663.3 10.9
674(14) 0.00536 663.8 11.0
685(14) 0.00504 664.2 11.0
638(14) 0.00518 664.6 11.1
670(14) 0.00517 665.1 11.2
649(13) 0.00573 665.5 11.3
669(14) 0.00539 665.9 11.4
693(14) 0.00505 666.4 11.4
672(14) 0.00495 666.8 11.5
688(14) 0.00494 667.2 11.6
675(13) 0.00552 667.7 11.7
637(13) 0.00556 668.1 11.8
684(14) 0.00504 668.5 11.9
671(14) 0.00502 669.0 12.0
651(14) 0.00542 669.4 12.1
665(13) 0.00561 669.8 12.2
694(14) 0.00512 670.3 12.3
710(15) 0.00474 670.7 12.4
645(14) 0.00526 671.1 12.5
647(13) 0.00560 671.6 12.6
675(13) 0.00553 672.0 12.8
664(14) 0.00522 672.4 12.9
713(15) 0.00462 672.9 13.0
657(14) 0.00536 673.3 13.1
692(14) 0.00523 673.7 13.3
663(13) 0.00555 674.2 13.4
635(13) 0.00555 674.6 13.5
679(14) 0.00480 675.0 13.7
655(14) 0.00530 675.5 13.8
634(13) 0.00579 675.9 13.9
647(13) 0.00573 676.3 14.1
661(14) 0.00536 676.8 14.2
681(14) 0.00482 677.2 14.4
674(14) 0.00507 677.6 14.5
636(13) 0.00578 678.1 14.7
667(13) 0.00555 678.5 14.9
672(14) 0.00518 678.9 15.0
679(14) 0.00478 679.4 15.2
679(14) 0.00513 679.8 15.4
648(13) 0.00578 680.2 15.6
664(13) 0.00555 680.7 15.8
664(14) 0.00526 681.1 16.0
690(15) 0.00460 681.5 16.1
656(14) 0.00532 682.0 16.3
637(13) 0.00587 682.4 16.6
632(13) 0.00587 682.8 16.8
679(14) 0.00515 683.3 17.0
694(15) 0.00467 683.7 17.2
674(14) 0.00511 684.1 17.4
696(14) 0.00528 684.6 17.7
645(13) 0.00569 685.0 17.9
675(14) 0.00510 685.4 18.1
683(14) 0.00476 685.9 18.4
655(14) 0.00530 686.3 18.6
694(14) 0.00531 686.7 18.9
681(14) 0.00535 687.2 19.2
670(14) 0.00510 687.6 19.5
651(14) 0.00516 688.0 19.7
656(14) 0.00519 688.5 20.0
698(14) 0.00535 688.9 20.3
662(14) 0.00548 689.3 20.6
683(14) 0.00506 689.8 21.0
693(14) 0.00489 690.2 21.3
674(14) 0.00522 690.6 21.6
683(14) 0.00545 691.1 22.0
645(13) 0.00554 691.5 22.3
688(14) 0.00500 691.9 22.7
702(14) 0.00481 692.4 23.0
687(14) 0.00519 692.8 23.4
672(13) 0.00555 693.2 23.8
682(14) 0.00501 693.7 24.2
698(14) 0.00493 694.1 24.7
695(14) 0.00506 694.5 25.1
689(14) 0.00528 695.0 25.5
670(13) 0.00551 695.4 26.0
644(14) 0.00544 695.8 26.5
692(14) 0.00476 696.3 26.9
681(14) 0.00510 696.7 27.4
691(14) 0.00529 697.1 28.0
690(14) 0.00539 697.6 28.5
705(14) 0.00494 698.0 29.0
706(14) 0.00480 698.4 29.6
679(14) 0.00523 698.9 30.2
715(14) 0.00511 699.3 30.8
689(14) 0.00534 699.7 31.4
661(14) 0.00537 700.2 32.1
706(15) 0.00456 700.6 32.7
720(15) 0.00474 701.0 33.4
705(14) 0.00522 701.5 34.2
695(14) 0.00540 701.9 34.9
737(15) 0.00469 702.3 35.7
695(15) 0.00452 702.8 36.5
725(15) 0.00471 703.2 37.3
684(14) 0.00548 703.6 38.1
710(14) 0.00520 704.1 39.0
685(14) 0.00515 704.5 39.9
678(14) 0.00490 704.9 40.9
740(15) 0.00458 705.4 41.9
725(14) 0.00507 705.8 42.9
732(14) 0.00507 706.2 44.0
714(14) 0.00485 706.7 45.1
760(15) 0.00436 707.1 46.3
754(15) 0.00463 707.5 47.5
748(14) 0.00497 708.0 48.7
742(14) 0.00494 708.4 50.0
728(14) 0.00482 708.8 51.4
758(15) 0.00436 709.3 52.8
730(14) 0.00476 709.7 54.3
725(14) 0.00513 710.1 55.9
761(15) 0.00464 710.6 57.5
737(15) 0.00467 711.0 59.2
731(15) 0.00463 711.4 61.0
744(15) 0.00473 711.9 62.8
750(14) 0.00501 712.3 64.8
769(15) 0.00453 712.7 66.8
748(15) 0.00452 713.2 69.0
747(15) 0.00457 713.6 71.2
754(15) 0.00474 714.0 73.6
743(14) 0.00502 714.5 76.1
759(15) 0.00457 714.9 78.7
777(15) 0.00435 715.3 81.5
741(15) 0.00465 715.8 84.4
755(14) 0.00476 716.2 87.5
781(15) 0.00475 716.6 90.8
773(15) 0.00446 717.1 94.2
768(15) 0.00438 717.5 97.9
779(15) 0.00440 717.9 101.7
738(14) 0.00499 718.4 105.8
746(14) 0.00495 718.8 110.2
817(15) 0.00418 719.2 114.9
763(15) 0.00439 719.7 119.8
762(15) 0.00460 720.1 125.1
762(14) 0.00485 720.5 130.7
792(15) 0.00470 721.0 136.8
813(15) 0.00430 721.4 143.2
774(15) 0.00421 721.9 150.2
790(15) 0.00429 722.3 157.7
813(15) 0.00451 722.7 165.7
831(15) 0.00448 723.2 174.3
833(15) 0.00427 723.6 183.7
854(16) 0.00381 724.0 193.8
872(16) 0.00399 724.5 204.8
865(15) 0.00425 724.9 216.8
874(15) 0.00422 725.3 229.8
860(16) 0.00403 725.8 244.0
878(16) 0.00374 726.2 259.5
897(16) 0.00388 726.6 276.7
951(16) 0.00393 727.1 295.5
921(16) 0.00395 727.5 316.3
954(16) 0.00368 727.9 339.4
986(17) 0.003439 728.4 365.3
1049(18) 0.003250 728.8 394.3
1075(17) 0.003475 729.2 427.1
1103(17) 0.003301 729.7 464.5
1130(18) 0.003034 730.1 507.6
1211(19) 0.002650 730.5 557.7
1207(19) 0.002779 731.0 616.6
1250(18) 0.002969 731.4 686.5
1377(19) 0.002632 731.8 770.3
1520(21) 0.002285 732.3 871.1
1616(22) 0.002056 732.7 993.2
1758(23) 0.001965 733.1 1141.0
1855(22) 0.002011 733.6 1319.4
2177(25) 0.001627 734.0 1533.7
2491(27) 0.001364 734.4 1788.8
2785(29) 0.001217 734.9 2089.3
3154(30) 0.001109 735.3 2438.5
3483(31) 0.001065 735.7 2837.2
4100(34) 0.000856 736.2 3283.3
4657(37) 0.000724 737. 3769.
5194(39) 0.000652 737. 4278.
5918(41) 0.000594 737. 4784.
6433(42) 0.000575 738. 5246.
6817(45) 0.000505 738. 5612.
6972(46) 0.000478 739. 5832.
6752(44) 0.000508 739. 5867.
6231(42) 0.000578 740. 5712.
5759(40) 0.000639 740. 5394.
5266(39) 0.000641 740. 4960.
4821(38) 0.000678 741. 4466.
4329(35) 0.000796 741. 3954.
4062(33) 0.000898 741.8 3457.4
3618(31) 0.001021 742.2 2996.0
3313(31) 0.001038 742.7 2579.8
2981(30) 0.001111 743.1 2213.0
2782(28) 0.001260 743.5 1895.5
2580(27) 0.001421 744.0 1624.5
2436(26) 0.001522 744.4 1396.3
2289(26) 0.001492 744.8 1205.8
2152(26) 0.001503 745.3 1047.8
1986(24) 0.001780 745.7 917.4
1918(23) 0.001931 746.1 809.6
1784(22) 0.002055 746.6 720.5
1656(22) 0.002111 747.0 646.4
1587(22) 0.002050 747.4 584.2
1519(21) 0.002326 747.9 531.7
1452(20) 0.002565 748.3 486.7
1381(19) 0.002652 748.7 447.9
1401(20) 0.002504 749.2 414.2
1335(20) 0.002462 749.6 384.5
1249(19) 0.002807 750.0 358.3
1181(18) 0.003146 750.5 335.0
1143(18) 0.003164 750.9 314.3
1140(18) 0.002984 751.3 295.7
1116(18) 0.002975 751.8 279.0
1114(18) 0.003139 752.2 264.0
1135(17) 0.003282 752.6 250.6
1063(17) 0.003379 753.1 238.6
1052(18) 0.003252 753.5 227.9
1012(17) 0.003294 753.9 218.5
993(17) 0.003472 754.4 210.2
991(16) 0.00377 754.8 203.0
972(16) 0.00369 755.2 196.9
982(17) 0.003480 755.7 191.9
1026(18) 0.003244 756.1 188.1
935(16) 0.00378 756.5 185.4
970(16) 0.00384 757.0 184.0
983(17) 0.00359 757.4 183.8
940(17) 0.00363 757.8 184.9
931(16) 0.00368 758.3 187.3
962(16) 0.00373 758.7 191.2
927(16) 0.00403 759.1 196.4
968(17) 0.00362 759.6 203.1
929(17) 0.00364 760.0 211.0
983(17) 0.003470 760.4 220.0
981(16) 0.00369 760.9 229.8
975(16) 0.00382 761.3 239.7
959(17) 0.00355 761.7 249.0
983(17) 0.003370 762.2 256.7
996(17) 0.00353 762.6 261.9
1017(17) 0.00358 763.0 263.4
1008(16) 0.00369 763.5 260.8
989(17) 0.003506 763.9 254.1
970(17) 0.003375 764.3 243.7
963(17) 0.00358 764.8 230.6
974(16) 0.00378 765.2 215.9
967(16) 0.00381 765.6 200.4
918(16) 0.00373 766.1 185.0
905(17) 0.00356 766.5 170.1
853(15) 0.00417 766.9 156.2
905(16) 0.00409 767.4 143.4
885(15) 0.00416 767.8 131.7
847(16) 0.00412 768.2 121.2
845(16) 0.00389 768.7 111.9
853(16) 0.00404 769.1 103.5
833(15) 0.00447 769.5 96.2
823(15) 0.00449 770.0 89.7
820(15) 0.00430 770.4 84.0
835(16) 0.00385 770.8 79.0
806(15) 0.00426 771.3 74.6
796(15) 0.00465 771.7 70.6
803(15) 0.00457 772.1 67.1
797(15) 0.00443 772.6 64.0
835(16) 0.00388 773.0 61.2
770(15) 0.00458 773.4 58.6
805(15) 0.00462 773.9 56.3
820(15) 0.00439 774.3 54.2
811(15) 0.00421 774.7 52.2
800(15) 0.00421 775.2 50.4
822(15) 0.00425 775.6 48.7
795(15) 0.00467 776.0 47.2
816(15) 0.00432 776.5 45.7
781(15) 0.00449 776.9 44.3
834(16) 0.00402 777.3 43.0
778(15) 0.00448 777.8 41.8
760(14) 0.00492 778.2 40.6
807(15) 0.00431 778.6 39.5
794(15) 0.00429 779.1 38.5
767(15) 0.00438 779.5 37.5
794(15) 0.00452 779.9 36.6
819(15) 0.00455 780.4 35.7
797(15) 0.00441 780.8 34.8
777(15) 0.00445 781.2 34.0
786(15) 0.00437 781.7 33.2
787(15) 0.00464 782.1 32.5
807(15) 0.00456 782.5 31.8
807(15) 0.00436 783.0 31.1
828(16) 0.00401 783.4 30.4
820(16) 0.00412 783.8 29.8
764(14) 0.00480 784.3 29.2
784(15) 0.00473 784.7 28.6
773(15) 0.00446 785.1 28.1
791(16) 0.00411 785.6 27.5
786(15) 0.00437 786.0 27.0
808(15) 0.00453 786.4 26.5
793(15) 0.00467 786.9 26.0
797(15) 0.00433 787.3 25.6
795(16) 0.00406 787.7 25.1
799(15) 0.00428 788.2 24.7
805(15) 0.00455 788.6 24.3
786(15) 0.00474 789.0 23.9
808(15) 0.00436 789.5 23.5
820(16) 0.00387 789.9 23.1
771(15) 0.00451 790.3 22.8
782(15) 0.00475 790.8 22.4
785(15) 0.00473 791.2 22.1
816(15) 0.00428 791.6 21.8
753(15) 0.00442 792.1 21.5
802(15) 0.00436 792.5 21.2
796(15) 0.00469 792.9 20.9
800(15) 0.00458 793.4 20.6
818(15) 0.00419 793.8 20.3
816(16) 0.00413 794.2 20.1
787(15) 0.00433 794.7 19.8
765(14) 0.00486 795.1 19.6
781(15) 0.00465 795.5 19.3
818(15) 0.00425 796.0 19.1
782(15) 0.00428 796.4 18.9
764(15) 0.00453 796.8 18.7
807(15) 0.00461 797.3 18.5
803(15) 0.00440 797.7 18.3
776(15) 0.00449 798.1 18.1
804(16) 0.00414 798.6 17.9
791(15) 0.00435 799.0 17.7
764(14) 0.00486 799.4 17.5
787(15) 0.00451 799.9 17.4
823(15) 0.00419 800.3 17.2
838(16) 0.00401 800.7 17.1
828(15) 0.00425 801.2 16.9
803(15) 0.00460 801.6 16.8
821(15) 0.00425 802.0 16.6
805(15) 0.00423 802.5 16.5
785(15) 0.00437 802.9 16.4
798(15) 0.00457 803.3 16.3
813(15) 0.00450 803.8 16.2
809(15) 0.00428 804.2 16.1
824(16) 0.00404 804.6 16.0
793(15) 0.00437 805.1 15.9
805(15) 0.00449 805.5 15.8
821(15) 0.00454 805.9 15.7
803(15) 0.00428 806.4 15.7
773(15) 0.00419 806.8 15.6
794(15) 0.00425 807.3 15.6
803(15) 0.00449 807.7 15.5
821(15) 0.00454 808.1 15.5
838(16) 0.00415 808.6 15.4
823(16) 0.00403 809.0 15.4
817(15) 0.00429 809.4 15.4
799(15) 0.00456 809.9 15.4
810(15) 0.00457 810.3 15.3
805(15) 0.00441 810.7 15.3
823(16) 0.00385 811.2 15.4
784(15) 0.00445 811.6 15.4
846(15) 0.00435 812.0 15.4
801(15) 0.00464 812.5 15.4
815(15) 0.00424 813.0 15.5
822(16) 0.00392 813.5 15.5
809(15) 0.00423 814.1 15.6
828(15) 0.00446 814.6 15.6
819(15) 0.00451 815.1 15.7
827(15) 0.00423 815.7 15.8
808(15) 0.00417 816.2 15.9
827(15) 0.00424 816.7 16.0
789(15) 0.00471 817.3 16.2
846(15) 0.00419 817.8 16.3
802(15) 0.00435 818.3 16.5
820(16) 0.00409 818.9 16.6
822(15) 0.00421 819.4 16.8
849(15) 0.00441 819.9 17.0
795(15) 0.00451 820.4 17.3
832(16) 0.00408 821.0 17.5
830(16) 0.00406 821.5 17.8
793(15) 0.00435 822.0 18.1
799(15) 0.00467 822.6 18.4
845(15) 0.00425 823.1 18.8
843(16) 0.00407 823.6 19.1
854(16) 0.00404 824.2 19.6
877(16) 0.00403 824.7 20.0
847(15) 0.00439 825.2 20.5
864(16) 0.00406 825.8 21.0
815(15) 0.00428 826.3 21.6
874(16) 0.00394 826.8 22.3
816(15) 0.00440 827.4 23.0
826(15) 0.00447 827.9 23.7
855(16) 0.00401 828.4 24.6
846(16) 0.00397 829.0 25.5
829(16) 0.00414 829.5 26.5
835(15) 0.00434 830.0 27.6
846(15) 0.00438 830.6 28.8
868(16) 0.00393 831.1 30.2
857(16) 0.00381 831.6 31.7
841(16) 0.00414 832.1 33.4
873(15) 0.00424 832.7 35.2
844(15) 0.00440 833.2 37.3
874(16) 0.00398 833.7 39.7
845(16) 0.00402 834.3 42.4
885(16) 0.00392 834.8 45.5
861(15) 0.00427 835.3 49.1
889(16) 0.00416 835.9 53.3
877(16) 0.00398 836.4 58.3
891(17) 0.00362 836.9 64.4
904(16) 0.00386 837.5 71.7
926(16) 0.00398 838.0 80.8
950(16) 0.00392 838.5 92.0
957(17) 0.00362 839.1 105.9
936(17) 0.003448 839.6 123.1
1020(17) 0.003355 840.1 144.2
1040(17) 0.00359 840.7 169.8
1124(18) 0.003254 841.2 200.4
1109(18) 0.003139 841.7 236.1
1134(19) 0.002864 842.3 277.0
1148(18) 0.003043 842.8 322.3
1246(18) 0.002990 843.3 370.3
1300(19) 0.002758 843.9 418.0
1317(20) 0.002607 844.4 461.0
1371(20) 0.002419 844.9 494.4
1366(20) 0.002507 845.4 514.6
1426(20) 0.002603 846.0 520.8
1456(20) 0.002455 846.5 515.3
1403(20) 0.002505 847.0 501.6
1382(20) 0.002461 847.6 482.7
1312(19) 0.002664 848.1 459.6
1324(19) 0.002801 848.6 432.3
1272(19) 0.002790 849.2 400.3
1169(19) 0.002920 849.7 364.3
1211(19) 0.002839 850.2 326.0
1193(18) 0.002945 850.8 287.4
1106(17) 0.003378 851.3 250.6
1090(18) 0.003243 851.8 216.9
1077(18) 0.003201 852.4 186.9
996(17) 0.003430 852.9 160.9
983(17) 0.00355 853.4 138.6
928(16) 0.00398 854.0 119.7
910(16) 0.00382 854.5 104.0
912(16) 0.00370 855.0 90.9
932(17) 0.00367 855.6 80.0
887(16) 0.00402 856.1 71.0
878(15) 0.00425 856.6 63.5
853(16) 0.00397 857.1 57.3
923(17) 0.00359 857.7 52.1
926(16) 0.00379 858.2 47.8
891(16) 0.00414 858.7 44.0
886(15) 0.00416 859.3 40.8
902(16) 0.00379 859.8 38.0
882(16) 0.00371 860.3 35.6
864(16) 0.00408 860.9 33.4
862(15) 0.00425 861.4 31.5
876(15) 0.00426 861.9 29.7
885(16) 0.00398 862.5 28.2
888(16) 0.00373 863.0 26.7
921(16) 0.00378 863.5 25.5
864(15) 0.00427 864.1 24.3
858(15) 0.00434 864.6 23.2
884(16) 0.00394 865.1 22.2
880(16) 0.00370 865.7 21.3
898(16) 0.00391 866.2 20.5
897(16) 0.00414 866.7 19.7
819(15) 0.00448 867.3 19.0
871(16) 0.00400 867.8 18.4
883(16) 0.00367 868.3 17.8
857(16) 0.00403 868.9 17.2
855(15) 0.00433 869.4 16.7
907(16) 0.00395 869.9 16.2
900(16) 0.00377 870.4 15.7
858(16) 0.00386 871.0 15.3
900(16) 0.00383 871.5 14.9
918(16) 0.00404 872.0 14.5
843(15) 0.00434 872.6 14.2
871(16) 0.00395 873.1 13.9
910(17) 0.00367 873.6 13.5
836(15) 0.00419 874.2 13.3
878(15) 0.00423 874.7 13.0
887(16) 0.00392 875.2 12.7
857(16) 0.00397 875.8 12.5
874(16) 0.00383 876.3 12.3
871(16) 0.00405 876.8 12.0
925(16) 0.00401 877.4 11.8
887(16) 0.00402 877.9 11.6
851(16) 0.00403 878.4 11.5
853(16) 0.00402 879.0 11.3
888(16) 0.00399 879.5 11.1
900(16) 0.00412 880.0 11.0
885(16) 0.00396 880.6 10.8
885(16) 0.00385 881.1 10.7
893(16) 0.00392 881.6 10.6
892(16) 0.00405 882.1 10.4
883(15) 0.00420 882.7 10.3
866(16) 0.00395 883.2 10.2
905(16) 0.00368 883.7 10.1
918(16) 0.00383 884.3 10.0
925(16) 0.00397 884.8 9.9
888(15) 0.00418 885.3 9.8
852(16) 0.00412 885.9 9.7
872(16) 0.00383 886.4 9.7
906(16) 0.00385 886.9 9.6
876(16) 0.00416 887.5 9.5
914(16) 0.00409 888.0 9.5
927(16) 0.00371 888.5 9.4
886(17) 0.00367 889.1 9.4
918(16) 0.00373 889.6 9.3
874(15) 0.00423 890.1 9.3
864(15) 0.00430 890.7 9.2
854(16) 0.00401 891.2 9.2
868(16) 0.00368 891.7 9.1
827(15) 0.00424 892.3 9.1
902(16) 0.00406 892.8 9.1
881(15) 0.00422 893.3 9.1
925(16) 0.00373 893.9 9.0
912(17) 0.00353 894.4 9.0
914(16) 0.00375 894.9 9.0
863(15) 0.00434 895.4 9.0
918(16) 0.00401 896.0 9.0
880(16) 0.00393 896.5 9.0
898(17) 0.00362 897.0 9.0
890(16) 0.00390 897.6 9.0
892(15) 0.00416 898.1 9.0
912(16) 0.00401 898.6 9.0
885(16) 0.00394 899.2 9.0
903(17) 0.00365 899.7 9.0
897(16) 0.00381 900.2 9.0
900(16) 0.00414 900.8 9.0
860(15) 0.00426 901.3 9.0
930(16) 0.00376 901.8 9.1
874(16) 0.00399 902.4 9.1
906(16) 0.00388 902.9 9.1
908(16) 0.00409 903.4 9.2
904(16) 0.00392 904.0 9.2
888(16) 0.00387 904.5 9.2
922(16) 0.00378 905.0 9.3
957(17) 0.00367 905.6 9.3
893(16) 0.00415 906.1 9.4
945(16) 0.00370 906.6 9.4
920(16) 0.00371 907.1 9.5
910(16) 0.00375 907.7 9.5
904(16) 0.00394 908.2 9.6
918(16) 0.00404 908.7 9.7
905(16) 0.00379 909.3 9.7
894(16) 0.00378 909.8 9.8
937(16) 0.00368 910.3 9.9
959(16) 0.00376 910.9 10.0
916(16) 0.00405 911.4 10.0
894(16) 0.00392 911.9 10.1
907(16) 0.00371 912.5 10.2
931(16) 0.00368 913.0 10.3
903(16) 0.00401 913.5 10.4
950(16) 0.00392 914.1 10.5
955(17) 0.00362 914.6 10.6
939(17) 0.003476 915.1 10.8
933(16) 0.00373 915.7 10.9
924(16) 0.00400 916.2 11.0
927(16) 0.00402 916.7 11.1
942(16) 0.00374 917.3 11.3
946(17) 0.003397 917.8 11.4
938(16) 0.00371 918.3 11.6
927(16) 0.00404 918.9 11.7
920(16) 0.00396 919.4 11.9
921(16) 0.00380 919.9 12.1
916(17) 0.00358 920.4 12.2
917(16) 0.00381 921.0 12.4
933(16) 0.00399 921.5 12.6
989(16) 0.00368 922.0 12.8
915(16) 0.00381 922.6 13.0
916(17) 0.00361 923.1 13.3
938(17) 0.00366 923.6 13.5
928(16) 0.00401 924.1 13.7
896(16) 0.00406 924.7 14.0
861(16) 0.00401 925.2 14.3
899(17) 0.00362 925.7 14.5
881(16) 0.00392 926.2 14.8
905(16) 0.00411 926.7 15.1
920(16) 0.00394 927.2 15.4
927(17) 0.00365 927.7 15.8
932(17) 0.00354 928.2 16.1
901(16) 0.00389 928.7 16.5
962(16) 0.00386 929.2 16.8
954(16) 0.00374 929.7 17.2
948(17) 0.00351 930.2 17.6
936(17) 0.00367 930.8 18.1
953(16) 0.00377 931.3 18.5
959(16) 0.00388 931.8 19.0
957(17) 0.00367 932.3 19.5
919(16) 0.00372 932.8 20.0
971(17) 0.003431 933.3 20.6
912(16) 0.00399 933.8 21.2
931(16) 0.00400 934.3 21.8
974(17) 0.00353 934.8 22.5
943(17) 0.00362 935.3 23.1
955(16) 0.00367 935.8 23.9
973(16) 0.00370 936.3 24.6
1005(16) 0.00371 936.9 25.4
1021(17) 0.003353 937.4 26.3
964(17) 0.003483 937.9 27.2
972(17) 0.003470 938.4 28.2
961(16) 0.00374 938.9 29.2
988(16) 0.00379 939.4 30.3
1001(17) 0.00353 939.9 31.4
969(17) 0.003420 940.4 32.7
935(16) 0.00377 940.9 34.0
957(16) 0.00387 941.4 35.4
966(16) 0.00385 941.9 36.9
1004(17) 0.003441 942.4 38.5
947(17) 0.003469 943.0 40.2
963(17) 0.00363 943.5 42.0
943(16) 0.00393 944.0 44.0
964(16) 0.00380 944.5 46.2
988(17) 0.003479 945.0 48.5
991(17) 0.003288 945.5 51.0
963(16) 0.00371 946.0 53.7
987(16) 0.00380 946.5 56.6
1035(17) 0.00355 947.0 59.8
1015(17) 0.003430 947.5 63.3
984(17) 0.003374 948.0 67.2
994(17) 0.00354 948.5 71.4
1038(17) 0.00360 949.1 76.1
1007(17) 0.00361 949.6 81.3
1047(17) 0.003332 950.1 87.1
1030(18) 0.003207 950.6 93.7
1017(17) 0.003352 951.1 101.0
1024(17) 0.00363 951.6 109.4
1060(17) 0.003390 952.1 118.9
1071(18) 0.003220 952.6 129.7
1064(18) 0.003166 953.1 142.1
1075(18) 0.003196 953.6 156.3
1150(18) 0.003234 954.1 172.5
1176(18) 0.003048 954.6 191.1
1144(18) 0.003051 955.1 212.4
1191(19) 0.002874 955.7 236.6
1241(19) 0.002816 956.2 264.1
1257(18) 0.002969 956.7 295.0
1282(19) 0.002773 957.2 329.7
1326(20) 0.002569 957.7 368.2
1397(20) 0.002433 958.2 410.5
1434(20) 0.002479 958.7 456.3
1471(20) 0.002526 959.2 504.8
1582(21) 0.002221 959.7 554.9
1623(22) 0.002072 960.2 604.9
1720(22) 0.002000 960.7 652.2
1802(23) 0.001975 961.2 693.9
1759(22) 0.002100 961.8 726.8
1728(23) 0.001972 962.3 748.1
1764(23) 0.001879 962.8 756.2
1777(23) 0.001951 963.3 750.4
1691(21) 0.002165 963.8 731.9
1603(21) 0.002306 964.3 702.7
1557(21) 0.002238 964.8 665.2
1618(22) 0.002016 965.3 622.1
1531(21) 0.002264 965.8 576.0
1516(20) 0.002399 966.3 528.8
1414(19) 0.002641 966.8 482.3
1414(20) 0.002406 967.3 437.6
1364(21) 0.002375 967.9 395.5
1349(20) 0.002533 968.4 356.6
1328(19) 0.002771 968.9 321.1
1289(19) 0.002878 969.4 288.9
1281(19) 0.002750 969.9 260.1
1341(21) 0.002357 970.4 234.3
1271(19) 0.002757 970.9 211.5
1227(18) 0.003028 971.4 191.3
1195(18) 0.003061 971.9 173.4
1157(18) 0.003025 972.4 157.7
1179(19) 0.002761 972.9 143.8
1172(18) 0.002932 973.4 131.6
1145(18) 0.003220 974.0 120.8
1176(18) 0.003107 974.5 111.2
1113(18) 0.003152 975.0 102.7
1125(19) 0.002903 975.5 95.2
1109(18) 0.003067 976.0 88.5
1083(17) 0.003456 976.5 82.5
1042(17) 0.003488 977.0 77.1
1090(18) 0.003198 977.5 72.2
1134(18) 0.002931 978.0 67.8
1123(18) 0.003072 978.5 63.9
1061(17) 0.003499 979.0 60.2
1060(17) 0.003408 979.5 56.9
1064(18) 0.003248 980.1 53.9
1063(18) 0.003190 980.6 51.1
1061(17) 0.003289 981.1 48.5
1032(17) 0.00357 981.6 46.1
1018(17) 0.00351 982.1 43.9
1112(18) 0.003008 982.6 41.9
1059(18) 0.003238 983.1 40.0
1049(17) 0.003422 983.6 38.2
1094(17) 0.003388 984.1 36.6
1072(17) 0.003293 984.6 35.0
1059(18) 0.003212 985.1 33.6
1021(17) 0.003359 985.6 32.2
1018(17) 0.00353 986.2 31.0
1037(17) 0.00357 986.7 29.8
1061(18) 0.003185 987.2 28.6
1071(18) 0.003039 987.7 27.6
1002(17) 0.00352 988.2 26.6
1021(17) 0.00354 988.7 25.6
1035(17) 0.00358 989.2 24.7
1032(17) 0.003343 989.7 23.9
984(17) 0.003365 990.2 23.1
986(17) 0.00358 990.7 22.3
1062(17) 0.003461 991.2 21.6
1079(17) 0.003433 991.7 20.9
1040(17) 0.003307 992.3 20.3
1013(18) 0.003236 992.8 19.7
1037(17) 0.003325 993.3 19.1
976(16) 0.00381 993.8 18.5
1018(17) 0.00360 994.3 18.0
961(16) 0.00369 994.8 17.5
999(18) 0.003198 995.3 17.0
1034(17) 0.003418 995.8 16.5
1046(17) 0.00356 996.3 16.1
1002(16) 0.00370 996.8 15.7
990(17) 0.00352 997.3 15.3
1004(17) 0.003279 997.8 14.9
1054(17) 0.003287 998.4 14.5
1013(17) 0.00366 998.9 14.1
1054(17) 0.003497 999.4 13.8
1007(17) 0.003496 999.9 13.5
1013(17) 0.003294 1000.4 13.2
995(17) 0.00351 1000.9 12.9
1007(16) 0.00367 1001.4 12.6
1008(17) 0.00364 1001.9 12.3
1047(17) 0.003279 1002.4 12.0
1039(18) 0.003173 1002.9 11.7
983(17) 0.00352 1003.4 11.5
1001(16) 0.00373 1003.9 11.3
1047(17) 0.003413 1004.5 11.0
1015(17) 0.003459 1005.0 10.8
1025(17) 0.003359 1005.5 10.6
1037(17) 0.003386 1006.0 10.4
1038(17) 0.00358 1006.5 10.2
966(16) 0.00373 1007.0 10.0
1014(17) 0.003368 1007.5 9.8
992(17) 0.003397 1008.0 9.6
1003(17) 0.003492 1008.5 9.4
1007(16) 0.00369 1009.0 9.2
1003(17) 0.00352 1009.5 9.1
1007(17) 0.003336 1010.0 8.9
1027(17) 0.003306 1010.6 8.8
1035(17) 0.003445 1011.1 8.6
1036(17) 0.00359 1011.6 8.5
1044(17) 0.003302 1012.1 8.3
1056(18) 0.003194 1012.6 8.2
1035(17) 0.003291 1013.1 8.1
1011(17) 0.00364 1013.6 7.9
1026(17) 0.00364 1014.1 7.8
1002(17) 0.003477 1014.6 7.7
1027(18) 0.003213 1015.1 7.6
1001(17) 0.003492 1015.6 7.4
958(16) 0.00384 1016.1 7.3
1069(17) 0.003469 1016.7 7.2
1027(17) 0.003434 1017.2 7.1
1003(18) 0.003200 1017.7 7.0
1046(18) 0.003232 1018.2 6.9
1021(17) 0.00357 1018.7 6.8
1002(16) 0.00370 1019.2 6.7
1057(17) 0.003300 1019.7 6.6
1037(18) 0.003085 1020.2 6.5
1009(17) 0.00351 1020.7 6.5
1051(17) 0.00354 1021.2 6.4
1037(17) 0.00355 1021.7 6.3
1021(17) 0.003409 1022.2 6.2
1067(18) 0.003010 1022.8 6.1
1119(18) 0.003082 1023.3 6.0
1022(16) 0.00368 1023.8 6.0
1056(17) 0.003422 1024.3 5.9
1043(17) 0.003295 1024.8 5.8
1051(18) 0.003100 1025.3 5.8
1016(17) 0.003358 1025.8 5.7
1035(17) 0.00360 1026.3 5.6
1017(17) 0.00358 1026.8 5.6
1035(17) 0.003305 1027.3 5.5
1060(18) 0.003121 1027.8 5.4
1047(17) 0.003288 1028.3 5.4
1058(17) 0.003505 1028.9 5.3
1005(17) 0.00361 1029.4 5.3
1067(18) 0.003211 1029.9 5.2
1038(17) 0.003280 1030.4 5.2
1072(18) 0.003177 1030.9 5.1
1009(16) 0.00370 1031.4 5.1
990(17) 0.00359 1031.9 5.0
1046(18) 0.003263 1032.4 5.0
1017(17) 0.003380 1032.9 4.9
1061(17) 0.003329 1033.4 4.9
1065(17) 0.003490 1033.9 4.8
1123(18) 0.003134 1034.4 4.8
1049(18) 0.003265 1035.0 4.7
1068(18) 0.003174 1035.5 4.7
1056(17) 0.003398 1036.0 4.7
1043(17) 0.00356 1036.5 4.6
1036(17) 0.003288 1037.0 4.6
1018(18) 0.003229 1037.5 4.5
1040(18) 0.003243 1038.0 4.5
1047(17) 0.003390 1038.5 4.5
1009(16) 0.00369 1039.0 4.4
1087(18) 0.003120 1039.5 4.4
1036(18) 0.003202 1040.0 4.4
1011(17) 0.003483 1040.5 4.3
1058(17) 0.003473 1041.1 4.3
1071(17) 0.003491 1041.6 4.3
1025(17) 0.003287 1042.1 4.3
1027(18) 0.003184 1042.6 4.2
994(17) 0.00360 1043.1 4.2
1020(17) 0.00359 1043.6 4.2
1098(17) 0.003411 1044.1 4.2
1014(17) 0.003424 1044.6 4.2
1004(18) 0.003217 1045.1 4.1
1009(17) 0.003413 1045.6 4.1
1052(17) 0.00351 1046.1 4.1
1044(17) 0.00353 1046.6 4.1
1053(17) 0.003280 1047.2 4.1
1010(18) 0.003197 1047.7 4.1
1027(17) 0.003361 1048.2 4.1
1025(17) 0.00364 1048.7 4.1
1062(17) 0.003480 1049.2 4.1
1064(18) 0.003204 1049.7 4.0
1058(18) 0.003115 1050.2 4.0
1046(17) 0.003311 1050.7 4.0
1074(17) 0.003466 1051.2 4.0
1042(17) 0.00355 1051.7 4.1
1070(17) 0.003270 1052.2 4.1
1011(17) 0.003312 1052.7 4.1
1081(18) 0.003197 1053.3 4.1
1087(17) 0.003398 1053.8 4.1
1052(17) 0.003483 1054.3 4.1
1044(17) 0.003312 1054.8 4.1
1025(18) 0.003231 1055.3 4.1
1093(18) 0.003140 1055.8 4.1
1088(17) 0.003414 1056.3 4.1
1051(17) 0.003387 1056.8 4.1
1086(18) 0.003183 1057.3 4.1
1065(18) 0.003233 1057.8 4.1
1045(17) 0.003286 1058.3 4.1
1042(17) 0.00359 1058.8 4.1
1062(17) 0.003288 1059.4 4.1
1031(17) 0.003359 1059.9 4.1
1062(18) 0.003181 1060.4 4.1
1054(17) 0.003395 1060.9 4.1
1043(17) 0.00358 1061.4 4.0
1073(17) 0.003279 1061.8 4.0
1062(18) 0.003221 1061.9 4.0
1132(18) 0.003005 1061.9 3.9
1044(17) 0.003477 1062.0 3.9
1071(17) 0.003457 1062.0 3.8
1048(17) 0.003311 1062.1 3.8
1092(18) 0.003064 1062.1 3.8
1064(18) 0.003264 1062.2 3.7
1069(17) 0.003451 1062.2 3.7
1108(17) 0.003341 1062.3 3.6
1101(18) 0.003157 1062.3 3.6
1116(18) 0.002951 1062.3 3.6
1023(17) 0.003410 1062.4 3.5
1060(17) 0.003427 1062.4 3.5
1073(17) 0.003467 1062.5 3.5
1088(18) 0.003195 1062.5 3.4
1106(19) 0.002904 1062.6 3.4
1109(18) 0.003129 1062.6 3.4
1083(17) 0.003408 1062.7 3.4
1091(17) 0.003379 1062.7 3.3
1074(18) 0.003239 1062.8 3.3
1042(18) 0.003132 1062.8 3.3
1076(18) 0.003170 1062.9 3.3
1023(17) 0.00365 1062.9 3.3
1106(17) 0.003304 1063.0 3.2
1046(17) 0.003293 1063.0 3.2
1051(18) 0.003094 1063.1 3.2
1064(17) 0.003291 1063.1 3.2
1075(17) 0.003471 1063.2 3.2
1050(17) 0.003465 1063.2 3.2
1032(17) 0.003373 1063.3 3.2
1083(18) 0.003017 1063.3 3.2
1073(18) 0.003207 1063.4 3.1
1064(17) 0.003502 1063.4 3.1
1093(17) 0.003274 1063.5 3.1
1067(17) 0.003332 1063.5 3.1
1133(18) 0.002949 1063.6 3.1
1046(17) 0.003309 1063.6 3.1
1037(17) 0.00357 1063.7 3.1
1068(17) 0.003284 1063.7 3.1
1058(18) 0.003264 1063.8 3.1
1087(18) 0.003074 1063.8 3.1
1066(17) 0.003269 1063.8 3.1
1097(17) 0.003384 1063.9 3.1
1045(17) 0.003452 1063.9 3.1
1053(18) 0.003244 1064.0 3.1
1056(18) 0.003202 1064.0 3.1
1080(17) 0.003277 1064.1 3.1
1084(17) 0.003420 1064.1 3.1
1068(18) 0.003198 1064.2 3.1
1052(18) 0.003189 1064.2 3.2
1074(18) 0.003254 1064.3 3.2
1056(17) 0.003410 1064.3 3.2
1039(17) 0.00356 1064.4 3.2
1030(17) 0.003390 1064.4 3.2
1096(18) 0.003096 1064.5 3.2
1057(17) 0.003269 1064.5 3.2
1096(17) 0.003282 1064.6 3.2
1079(17) 0.003423 1064.6 3.3
1058(17) 0.003284 1064.7 3.3
1036(18) 0.003214 1064.7 3.3
1100(18) 0.003152 1064.8 3.3
1059(17) 0.003458 1064.8 3.3
1067(17) 0.003463 1064.9 3.4
1076(18) 0.003231 1064.9 3.4
1084(18) 0.002993 1065.0 3.4
1036(17) 0.003333 1065.0 3.5
1077(17) 0.003441 1065.1 3.5
1086(17) 0.003413 1065.1 3.5
1050(17) 0.003288 1065.2 3.6
1080(19) 0.002855 1065.2 3.6
1049(18) 0.003259 1065.2 3.6
1117(17) 0.003306 1065.3 3.7
1087(17) 0.003419 1065.3 3.7
1065(17) 0.003353 1065.4 3.8
1068(18) 0.003061 1065.4 3.8
1082(18) 0.003226 1065.5 3.9
1102(17) 0.003395 1065.5 3.9
1061(17) 0.003470 1065.6 4.0
1113(18) 0.003083 1065.6 4.0
1100(18) 0.003001 1065.7 4.1
1063(17) 0.003361 1065.7 4.2
1087(17) 0.003418 1065.8 4.3
1078(17) 0.003400 1065.8 4.3
1087(18) 0.003130 1065.9 4.4
1062(18) 0.003128 1065.9 4.5
1084(18) 0.003142 1066.0 4.6
1100(17) 0.003375 1066.0 4.7
1102(18) 0.003264 1066.1 4.8
1051(18) 0.003256 1066.1 4.9
1052(18) 0.003183 1066.2 5.1
1057(18) 0.003187 1066.2 5.2
1142(18) 0.003261 1066.3 5.3
1085(17) 0.003292 1066.3 5.5
1088(18) 0.003117 1066.4 5.7
1056(18) 0.003234 1066.4 5.8
1072(18) 0.003257 1066.5 6.0
1091(17) 0.003402 1066.5 6.2
1083(18) 0.003251 1066.6 6.5
1073(18) 0.003195 1066.6 6.7
1096(18) 0.003115 1066.7 7.0
1087(17) 0.003312 1066.7 7.3
1079(17) 0.003437 1066.7 7.6
1088(18) 0.003188 1066.8 7.9
1094(18) 0.003020 1066.8 8.3
1050(18) 0.003218 1066.9 8.7
1069(17) 0.003374 1066.9 9.1
1108(17) 0.003384 1067.0 9.6
1095(18) 0.003132 1067.0 10.1
1122(19) 0.002897 1067.1 10.7
1094(18) 0.003200 1067.1 11.3
1082(17) 0.003395 1067.2 11.9
1059(17) 0.00351 1067.2 12.6
1095(18) 0.003166 1067.3 13.4
1105(18) 0.002961 1067.3 14.3
1124(18) 0.003073 1067.4 15.2
1100(17) 0.003310 1067.4 16.1
1074(17) 0.003456 1067.5 17.2
1117(18) 0.003059 1067.5 18.3
1084(18) 0.003001 1067.6 19.5
1145(18) 0.002998 1067.6 20.8
1070(17) 0.003453 1067.7 22.1
1083(17) 0.003393 1067.7 23.5
1109(18) 0.003116 1067.8 24.9
1118(19) 0.002889 1067.8 26.4
1086(18) 0.003204 1067.9 27.8
1091(17) 0.003399 1067.9 29.2
1105(17) 0.003290 1068.0 30.6
1101(18) 0.003120 1068.0 31.9
1083(18) 0.003067 1068.1 33.0
1112(18) 0.003117 1068.1 33.9
1137(18) 0.003216 1068.1 34.6
1131(18) 0.003223 1068.2 35.1
1127(18) 0.003065 1068.2 35.2
1121(19) 0.002886 1068.3 35.1
1081(18) 0.003191 1068.3 34.7
1121(18) 0.003211 1068.4 34.0
1112(17) 0.003275 1068.4 33.1
1093(18) 0.003074 1068.5 32.0
1133(18) 0.002945 1068.5 30.8
1123(18) 0.003042 1068.6 29.4
1097(17) 0.003342 1068.6 28.0
1120(18) 0.003207 1068.7 26.5
1117(18) 0.003022 1068.7 25.1
1134(18) 0.002986 1068.8 23.6
1100(18) 0.003189 1068.8 22.2
1093(17) 0.003379 1068.9 20.9
1097(18) 0.003168 1068.9 19.6
1087(18) 0.003135 1069.0 18.4
1117(18) 0.003084 1069.0 17.2
1093(18) 0.003180 1069.1 16.2
1095(17) 0.003366 1069.1 15.2
1078(18) 0.003183 1069.2 14.2
1108(18) 0.002938 1069.2 13.4
1115(18) 0.002997 1069.3 12.6
1100(17) 0.003294 1069.3 11.8
1072(17) 0.003451 1069.4 11.2
1116(18) 0.003010 1069.4 10.5
1096(18) 0.003089 1069.5 10.0
1123(18) 0.003038 1069.5 9.4
1148(18) 0.003137 1069.6 8.9
1097(17) 0.003354 1069.6 8.5
1091(18) 0.003176 1069.6 8.1
1096(18) 0.002984 1069.7 7.7
1115(18) 0.003023 1069.7 7.3
1097(17) 0.003316 1069.8 7.0
1072(17) 0.003451 1069.8 6.7
1092(18) 0.003136 1069.9 6.4
1079(18) 0.003038 1069.9 6.2
1030(17) 0.003408 1070.0 5.9
1033(17) 0.00353 1070.0 5.7
1094(17) 0.003424 1070.1 5.5
1061(18) 0.003201 1070.1 5.3
1057(18) 0.003046 1070.2 5.2
1068(17) 0.003336 1070.2 5.0
1035(17) 0.00359 1070.3 4.8
1098(17) 0.003388 1070.3 4.7
1097(18) 0.003237 1070.4 4.5
1089(18) 0.003037 1070.4 4.4
1066(18) 0.003239 1070.5 4.3
1094(17) 0.003401 1070.5 4.2
1063(17) 0.003451 1070.6 4.1
1050(17) 0.003287 1070.6 4.0
1050(18) 0.003130 1070.7 3.9
1050(17) 0.003352 1070.7 3.8
1107(17) 0.003341 1070.8 3.7
1092(17) 0.003346 1070.8 3.6
1098(18) 0.003158 1070.9 3.5
1093(18) 0.003071 1070.9 3.5
1140(18) 0.003011 1071.0 3.4
1117(17) 0.003342 1071.0 3.3
1082(17) 0.003272 1071.0 3.3
1061(18) 0.003227 1071.1 3.2
1098(18) 0.003074 1071.1 3.1
1063(17) 0.003342 1071.2 3.1
1089(17) 0.003425 1071.2 3.0
1038(17) 0.003379 1071.3 3.0
1068(18) 0.003212 1071.3 2.9
1110(18) 0.003073 1071.4 2.9
1121(18) 0.003160 1071.4 2.8
1112(17) 0.003364 1071.5 2.8
1103(18) 0.003192 1071.5 2.8
1099(18) 0.003042 1071.6 2.7
1095(18) 0.003148 1071.6 2.7
1095(17) 0.003310 1071.7 2.6
1075(17) 0.003446 1071.7 2.6
1115(18) 0.003059 1071.8 2.6
1095(18) 0.003093 1071.8 2.5
1093(18) 0.003151 1071.9 2.5
1096(17) 0.003275 1071.8 2.5
1086(17) 0.003431 1071.4 2.4
1047(17) 0.003302 1071.0 2.4
1100(18) 0.002946 1070.6 2.4
1060(17) 0.003269 1070.1 2.4
1065(17) 0.003431 1069.7 2.3
1093(17) 0.003422 1069.3 2.3
1115(18) 0.003103 1068.9 2.3
1102(18) 0.003002 1068.4 2.3
1090(18) 0.003201 1068.0 2.2
1074(17) 0.003445 1067.6 2.2
1083(17) 0.003433 1067.2 2.2
1072(18) 0.003264 1066.7 2.2
1085(18) 0.002940 1066.3 2.1
1089(18) 0.003201 1065.9 2.1
1095(17) 0.003379 1065.4 2.1
1083(17) 0.003386 1065.0 2.1
1019(17) 0.003472 1064.6 2.1
1050(18) 0.003154 1064.2 2.1
1114(18) 0.003111 1063.7 2.0
1111(17) 0.003336 1063.3 2.0
1106(17) 0.003296 1062.9 2.0
1046(17) 0.003365 1062.5 2.0
1046(18) 0.003222 1062.0 2.0
1046(17) 0.003308 1061.6 2.0
1058(17) 0.003497 1061.2 1.9
1049(17) 0.003481 1060.8 1.9
1096(18) 0.003170 1060.3 1.9
1088(18) 0.003040 1059.9 1.9
1096(18) 0.003100 1059.5 1.9
1098(17) 0.003378 1059.1 1.9
1054(17) 0.003399 1058.6 1.9
1037(17) 0.003357 1058.2 1.9
1098(18) 0.003052 1057.8 1.8
1026(17) 0.003375 1057.4 1.8
1056(17) 0.00353 1056.9 1.8
1049(17) 0.003452 1056.5 1.8
1053(18) 0.003236 1056.1 1.8
1082(18) 0.003111 1055.7 1.8
1068(17) 0.003356 1055.2 1.8
1067(17) 0.003495 1054.8 1.8
1062(17) 0.003339 1054.4 1.8
1104(18) 0.002966 1053.9 1.8
1077(18) 0.003204 1053.5 1.7
1089(17) 0.003325 1053.1 1.7
1149(18) 0.003210 1052.7 1.7
1074(18) 0.003163 1052.2 1.7
1054(18) 0.003177 1051.8 1.7
1042(17) 0.003350 1051.4 1.7
1050(17) 0.003469 1051.0 1.7
1066(17) 0.003507 1050.5 1.7
1068(18) 0.003253 1050.1 1.7
1075(18) 0.003161 1049.7 1.7
1121(18) 0.003076 1049.3 1.7
1076(17) 0.003442 1048.8 1.7
1083(17) 0.003438 1048.4 1.7
1039(17) 0.003420 1048.0 1.6
1088(18) 0.003004 1047.6 1.6
1075(17) 0.003266 1047.1 1.6
1088(17) 0.003387 1046.7 1.6
1111(17) 0.003347 1046.3 1.6
1111(18) 0.003140 1045.9 1.6
1085(18) 0.002940 1045.4 1.6
1057(18) 0.003229 1045.0 1.6
1057(17) 0.003495 1044.6 1.6
1054(17) 0.00352 1044.2 1.6
1062(17) 0.003343 1043.7 1.6
1079(18) 0.003052 1043.3 1.6
1103(18) 0.003147 1042.9 1.6
1053(17) 0.00356 1042.4 1.6
1071(17) 0.003432 1042.0 1.6
1052(17) 0.003283 1041.6 1.6
1092(18) 0.003006 1041.2 1.6
1075(18) 0.003190 1040.7 1.5
1043(17) 0.00357 1040.3 1.5
1111(18) 0.003223 1039.9 1.5
1076(18) 0.003156 1039.5 1.5
1049(18) 0.003127 1039.0 1.5
1046(18) 0.003244 1038.6 1.5
1039(17) 0.00358 1038.2 1.5
1112(18) 0.003253 1037.8 1.5
1079(18) 0.003242 1037.3 1.5
1031(17) 0.003279 1036.9 1.5
1040(17) 0.003405 1036.5 1.5
1127(17) 0.003318 1036.1 1.5
1044(17) 0.003421 1035.6 1.5
1057(18) 0.003182 1035.2 1.5
1026(17) 0.003345 1034.8 1.5
1008(17) 0.003501 1034.4 1.5
1054(17) 0.00353 1033.9 1.5
1106(18) 0.003122 1033.5 1.5
1089(18) 0.003119 1033.1 1.5
1076(18) 0.003157 1032.7 1.5
1085(18) 0.003264 1032.2 1.5
1090(17) 0.003433 1031.8 1.5
1074(18) 0.003215 1031.4 1.5
1087(18) 0.003124 1030.9 1.5
1052(17) 0.003336 1030.5 1.5
1084(17) 0.003323 1030.1 1.5
1048(17) 0.00354 1029.7 1.5
1104(18) 0.003128 1029.2 1.5
1020(17) 0.003293 1028.8 1.5
1062(18) 0.003216 1028.4 1.5
1066(17) 0.003376 1028.0 1.4
1064(17) 0.003495 1027.5 1.4
1066(18) 0.003223 1027.1 1.4
1045(18) 0.003139 1026.7 1.4
1026(17) 0.003401 1026.3 1.4
1024(17) 0.00363 1025.8 1.4
1056(17) 0.003507 1025.4 1.4
1071(18) 0.003202 1025.0 1.4
1035(18) 0.003182 1024.6 1.4
1068(17) 0.003314 1024.1 1.4
1026(17) 0.00360 1023.7 1.4
1056(17) 0.00353 1023.3 1.4
1041(17) 0.003361 1022.9 1.4
1022(18) 0.003186 1022.4 1.4
1141(18) 0.002987 1022.0 1.4
1083(17) 0.003484 1021.6 1.4
1117(18) 0.003250 1021.2 1.4
1046(17) 0.003302 1020.7 1.4
1050(18) 0.003131 1020.3 1.4
1028(17) 0.003368 1019.9 1.4
1026(17) 0.00362 1019.4 1.4
1020(17) 0.00353 1019.0 1.4
1007(17) 0.003440 1018.6 1.4
1038(18) 0.003229 1018.2 1.4
1094(18) 0.003173 1017.7 1.4
1082(17) 0.003456 1017.3 1.4
1050(17) 0.003412 1016.9 1.4
1069(18) 0.003257 1016.5 1.4
1076(18) 0.003053 1016.0 1.4
1029(17) 0.003362 1015.6 1.4
1047(17) 0.00355 1015.2 1.4
1050(17) 0.003439 1014.8 1.4
1000(17) 0.003491 1014.3 1.4
1033(18) 0.003252 1013.9 1.4
1087(18) 0.003165 1013.5 1.4
1041(17) 0.00356 1013.1 1.4
1045(17) 0.003334 1012.6 1.4
1048(18) 0.003238 1012.2 1.4
1055(17) 0.003275 1011.8 1.4
1044(17) 0.003356 1011.4 1.4
1031(17) 0.00362 1010.9 1.4
1051(17) 0.003336 1010.5 1.4
1061(18) 0.003198 1010.1 1.4
1073(18) 0.003184 1009.7 1.4
1057(17) 0.003419 1009.2 1.4
1036(17) 0.00359 1008.8 1.4
1042(17) 0.003321 1008.4 1.4
1025(18) 0.003216 1007.9 1.4
1053(17) 0.003281 1007.5 1.4
1049(17) 0.00351 1007.1 1.4
1058(17) 0.00353 1006.7 1.4
1033(17) 0.003346 1006.2 1.4
1046(18) 0.003158 1005.8 1.4
995(17) 0.00358 1005.4 1.4
1011(17) 0.00362 1005.0 1.4
1021(17) 0.00366 1004.5 1.4
977(17) 0.00360 1004.1 1.4
984(17) 0.003396 1003.7 1.4
1049(17) 0.003309 1003.3 1.4
1010(16) 0.00368 1002.8 1.4
1038(17) 0.00355 1002.4 1.4
1020(17) 0.003432 1002.0 1.4
1044(18) 0.003043 1001.6 1.4
1015(17) 0.003448 1001.1 1.4
1033(17) 0.00360 1000.7 1.4
1058(17) 0.003491 1000.3 1.4
1034(17) 0.003327 999.9 1.4
976(17) 0.003406 999.4 1.4
1050(17) 0.003267 999.0 1.4
1009(17) 0.00367 998.6 1.4
976(16) 0.00378 998.1 1.4
1032(17) 0.003388 997.7 1.4
993(17) 0.003430 997.3 1.4
1034(17) 0.003373 996.9 1.4
1057(17) 0.00354 996.4 1.4
1038(17) 0.003458 996.0 1.4
1031(17) 0.003327 995.6 1.4
984(17) 0.003461 995.2 1.4
1028(17) 0.003344 994.7 1.4
1015(17) 0.00366 994.3 1.4
986(16) 0.00370 993.9 1.4
1007(17) 0.003450 993.5 1.4
1030(18) 0.003178 993.0 1.4
992(17) 0.003441 992.6 1.4
1014(16) 0.00368 992.2 1.4
1025(17) 0.003444 991.8 1.4
1029(17) 0.003314 991.3 1.4
1004(17) 0.003478 990.9 1.4
991(17) 0.00359 990.5 1.4
995(16) 0.00373 990.1 1.4
987(17) 0.00354 989.6 1.4
1012(17) 0.003355 989.2 1.4
1019(17) 0.003410 988.8 1.4
1003(17) 0.00355 988.4 1.4
972(16) 0.00383 987.9 1.4
1039(18) 0.003262 987.5 1.4
1051(18) 0.003145 987.1 1.4
993(17) 0.00354 986.6 1.4
982(16) 0.00371 986.2 1.4
1007(16) 0.00368 985.8 1.4
992(17) 0.003448 985.4 1.4
962(17) 0.003460 984.9 1.4
1024(17) 0.003322 984.5 1.4
996(17) 0.00364 984.1 1.4
1030(17) 0.00362 983.7 1.4
1034(17) 0.003315 983.2 1.5
1044(18) 0.003092 982.8 1.5
1035(17) 0.003392 982.4 1.5
1027(17) 0.00357 982.0 1.5
1038(17) 0.00359 981.5 1.5
1000(17) 0.00352 981.1 1.5
986(18) 0.003239 980.7 1.5
994(17) 0.00352 980.3 1.5
1013(16) 0.00371 979.8 1.5
989(16) 0.00377 979.4 1.5
1004(17) 0.003447 979.0 1.5
1030(18) 0.003090 978.6 1.5
990(17) 0.00354 978.1 1.5
990(16) 0.00376 977.7 1.5
1022(17) 0.00360 977.3 1.5
1015(17) 0.003421 976.9 1.5
1017(18) 0.003224 976.4 1.5
1009(17) 0.003433 976.0 1.5
997(16) 0.00373 975.6 1.5
984(16) 0.00373 975.1 1.5
988(17) 0.003445 974.7 1.5
1004(17) 0.003352 974.3 1.5
978(17) 0.003479 973.9 1.5
979(16) 0.00381 973.4 1.5
1019(17) 0.00352 973.0 1.5
1020(17) 0.003306 972.6 1.5
1023(18) 0.003265 972.2 1.5
952(16) 0.00373 971.7 1.5
968(16) 0.00386 971.3 1.5
968(17) 0.00366 970.9 1.5
999(17) 0.003319 970.5 1.5
958(17) 0.00364 970.0 1.5
982(17) 0.00362 969.6 1.5
1023(17) 0.00364 969.2 1.5
981(17) 0.00355 968.7 1.6
970(17) 0.003446 968.2 1.6
1019(17) 0.003337 967.7 1.6
1030(17) 0.003494 967.2 1.6
986(16) 0.00376 966.6 1.6
965(17) 0.00354 966.1 1.6
957(17) 0.00355 965.6 1.6
964(17) 0.00356 965.1 1.6
984(16) 0.00370 964.5 1.6
959(16) 0.00387 964.0 1.6
994(17) 0.003425 963.5 1.6
1019(18) 0.003265 962.9 1.6
997(17) 0.003467 962.4 1.6
925(16) 0.00399 961.9 1.6
987(16) 0.00378 961.4 1.6
977(17) 0.003492 960.8 1.6
935(17) 0.003436 960.3 1.6
978(17) 0.00355 959.8 1.6
951(16) 0.00389 959.2 1.6
962(16) 0.00386 958.7 1.6
955(17) 0.00360 958.2 1.6
963(17) 0.003342 957.7 1.7
963(16) 0.00373 957.1 1.7
985(16) 0.00376 956.6 1.7
964(16) 0.00387 956.1 1.7
1002(17) 0.003404 955.6 1.7
991(18) 0.003249 955.0 1.7
991(17) 0.003416 954.5 1.7
984(16) 0.00378 954.0 1.7
961(16) 0.00383 953.4 1.7
974(17) 0.00362 952.9 1.7
986(17) 0.003290 952.4 1.7
944(16) 0.00368 951.9 1.7
1001(16) 0.00372 951.3 1.7
987(17) 0.00366 950.8 1.7
990(17) 0.003474 950.3 1.7
943(17) 0.00351 949.8 1.8
974(17) 0.003483 949.2 1.8
968(16) 0.00383 948.7 1.8
970(16) 0.00375 948.2 1.8
999(17) 0.003402 947.6 1.8
979(17) 0.003492 947.1 1.8
953(16) 0.00371 946.6 1.8
964(16) 0.00387 946.1 1.8
994(17) 0.00360 945.5 1.8
966(17) 0.00357 945.0 1.8
967(17) 0.00357 944.5 1.8
986(17) 0.00358 944.0 1.8
999(16) 0.00373 943.4 1.9
963(17) 0.00362 942.9 1.9
968(17) 0.003498 942.4 1.9
945(17) 0.00367 941.8 1.9
957(16) 0.00377 941.3 1.9
968(16) 0.00384 940.8 1.9
972(17) 0.00359 940.3 1.9
991(17) 0.003415 939.7 1.9
988(17) 0.003495 939.2 1.9
1000(17) 0.00362 938.7 1.9
933(16) 0.00396 938.1 2.0
946(17) 0.00366 937.6 2.0
981(17) 0.003426 937.1 2.0
1015(17) 0.003457 936.6 2.0
973(16) 0.00377 936.0 2.0
927(16) 0.00400 935.5 2.0
954(17) 0.00362 935.0 2.0
941(17) 0.003450 934.5 2.0
947(17) 0.00363 933.9 2.1
962(16) 0.00381 933.4 2.1
955(16) 0.00389 932.9 2.1
936(16) 0.00377 932.3 2.1
956(17) 0.003385 931.8 2.1
975(17) 0.00360 931.3 2.1
914(16) 0.00406 930.8 2.1
958(16) 0.00384 930.2 2.2
912(16) 0.00386 929.7 2.2
970(18) 0.003247 929.2 2.2
939(16) 0.00373 928.7 2.2
971(16) 0.00381 928.1 2.2
925(16) 0.00398 927.6 2.2
952(16) 0.00370 927.1 2.3
970(17) 0.003342 926.5 2.3
960(17) 0.003473 926.0 2.3
937(16) 0.00393 925.5 2.3
937(16) 0.00390 925.0 2.3
899(16) 0.00390 924.4 2.4
907(16) 0.00372 923.9 2.4
951(17) 0.00363 923.4 2.4
949(16) 0.00392 922.9 2.4
973(16) 0.00374 922.3 2.5
936(16) 0.00375 921.8 2.5
943(17) 0.00361 921.3 2.5
950(17) 0.00367 920.7 2.5
958(16) 0.00387 920.2 2.6
949(16) 0.00378 919.7 2.6
943(17) 0.00365 919.2 2.6
928(16) 0.00376 918.6 2.7
934(16) 0.00376 918.1 2.7
946(16) 0.00391 917.6 2.7
967(17) 0.00360 917.0 2.8
947(17) 0.00361 916.5 2.8
910(16) 0.00385 916.0 2.8
934(16) 0.00382 915.5 2.9
971(16) 0.00383 914.9 2.9
907(16) 0.00389 914.4 3.0
927(16) 0.00370 913.9 3.0
939(17) 0.00367 913.4 3.1
941(16) 0.00382 912.8 3.1
942(16) 0.00395 912.3 3.2
924(16) 0.00379 911.8 3.2
926(17) 0.00364 911.2 3.3
893(16) 0.00394 910.7 3.3
900(16) 0.00401 910.2 3.4
938(16) 0.00397 909.7 3.5
922(16) 0.00376 909.1 3.5
950(17) 0.003481 908.6 3.6
905(16) 0.00394 908.1 3.7
868(15) 0.00426 907.6 3.8
910(16) 0.00406 907.0 3.9
925(16) 0.00375 906.5 4.0
922(17) 0.003456 906.0 4.1
940(16) 0.00371 905.4 4.2
966(16) 0.00379 904.9 4.3
926(16) 0.00401 904.4 4.4
934(16) 0.00376 903.9 4.5
923(17) 0.003488 903.3 4.7
892(16) 0.00401 902.8 4.8
955(16) 0.00389 902.3 5.0
912(16) 0.00409 901.8 5.2
889(16) 0.00397 901.2 5.4
922(17) 0.00353 900.7 5.6
939(16) 0.00369 900.2 5.8
927(16) 0.00399 899.6 6.0
897(16) 0.00408 899.1 6.2
895(16) 0.00382 898.6 6.5
898(16) 0.00368 898.1 6.7
905(16) 0.00388 897.5 7.0
903(16) 0.00411 897.0 7.3
978(16) 0.00374 896.5 7.6
926(16) 0.00368 896.0 7.9
913(16) 0.00369 895.4 8.2
920(16) 0.00373 894.9 8.6
907(16) 0.00412 894.4 8.9
935(16) 0.00394 893.8 9.2
954(17) 0.00359 893.3 9.6
883(16) 0.00383 892.8 9.9
908(16) 0.00389 892.3 10.2
938(16) 0.00395 891.7 10.5
923(16) 0.00389 891.2 10.8
934(17) 0.00364 890.7 11.0
902(16) 0.00375 890.1 11.2
899(16) 0.00389 889.6 11.4
901(16) 0.00413 889.1 11.4
920(16) 0.00373 888.6 11.5
908(16) 0.00372 888.0 11.5
915(16) 0.00376 887.5 11.4
897(16) 0.00401 887.0 11.3
876(15) 0.00426 886.5 11.1
900(16) 0.00382 885.9 10.9
933(17) 0.00361 885.4 10.7
949(17) 0.00365 884.9 10.4
891(16) 0.00410 884.3 10.2
925(16) 0.00402 883.8 9.9
921(16) 0.00374 883.3 9.6
922(17) 0.00362 882.8 9.3
914(16) 0.00381 882.2 9.0
938(16) 0.00393 881.7 8.8
879(15) 0.00423 881.2 8.5
898(16) 0.00378 880.7 8.3
898(17) 0.00366 880.1 8.0
937(16) 0.00370 879.6 7.8
899(16) 0.00409 879.1 7.6
888(15) 0.00418 878.5 7.4
900(16) 0.00394 878.0 7.2
948(17) 0.003395 877.5 7.1
908(16) 0.00377 877.0 6.9
954(16) 0.00387 876.4 6.8
889(16) 0.00415 875.9 6.7
903(16) 0.00386 875.4 6.5
881(17) 0.00362 874.9 6.4
887(16) 0.00383 874.3 6.4
843(15) 0.00444 873.8 6.3
892(16) 0.00412 873.3 6.2
910(16) 0.00379 872.7 6.1
874(16) 0.00382 872.2 6.1
907(16) 0.00377 871.7 6.1
892(16) 0.00416 871.2 6.0
916(16) 0.00396 870.6 6.0
901(16) 0.00387 870.1 6.0
853(16) 0.00397 869.6 6.0
863(16) 0.00398 869.0 6.0
904(16) 0.00413 868.5 6.0
905(16) 0.00399 868.0 6.0
875(16) 0.00404 867.5 6.0
883(16) 0.00384 866.9 6.0
875(16) 0.00390 866.4 6.0
902(16) 0.00414 865.9 6.1
886(16) 0.00394 865.4 6.1
860(16) 0.00397 864.8 6.2
875(16) 0.00383 864.3 6.2
857(16) 0.00415 863.8 6.3
843(15) 0.00442 863.2 6.3
880(16) 0.00395 862.7 6.4
898(16) 0.00374 862.2 6.4
884(16) 0.00395 861.7 6.5
898(16) 0.00398 861.1 6.6
874(15) 0.00424 860.6 6.7
835(16) 0.00408 860.1 6.8
888(16) 0.00370 859.6 6.8
856(16) 0.00403 859.0 6.9
858(15) 0.00418 858.5 7.0
855(15) 0.00437 858.0 7.1
900(16) 0.00374 857.4 7.3
859(16) 0.00387 856.9 7.4
882(16) 0.00391 856.4 7.5
880(16) 0.00415 855.9 7.6
864(15) 0.00433 855.3 7.8
845(15) 0.00417 854.8 7.9
859(16) 0.00378 854.3 8.1
886(16) 0.00387 853.8 8.2
857(15) 0.00426 853.2 8.4
839(15) 0.00444 852.7 8.5
852(16) 0.00411 852.2 8.7
873(16) 0.00378 851.6 8.9
917(16) 0.00380 851.1 9.1
856(15) 0.00433 850.6 9.3
872(15) 0.00427 850.1 9.5
828(15) 0.00426 849.5 9.8
838(16) 0.00389 849.0 10.0
837(15) 0.00422 848.5 10.3
825(15) 0.00451 848.0 10.5
845(15) 0.00440 847.4 10.8
840(15) 0.00424 846.9 11.1
915(17) 0.00357 846.4 11.4
883(16) 0.00386 845.8 11.8
869(15) 0.00426 845.3 12.1
877(16) 0.00413 844.8 12.5
845(16) 0.00415 844.3 12.9
829(16) 0.00403 843.7 13.3
844(16) 0.00406 843.2 13.7
834(15) 0.00444 842.7 14.2
854(15) 0.00426 842.1 14.7
831(15) 0.00427 841.6 15.2
868(16) 0.00392 841.1 15.8
858(16) 0.00415 840.6 16.4
831(15) 0.00449 840.0 17.0
857(16) 0.00413 839.5 17.7
864(16) 0.00398 839.0 18.5
860(16) 0.00403 838.5 19.2
843(15) 0.00422 837.9 20.1
863(15) 0.00430 837.4 21.0
890(16) 0.00400 836.9 22.0
904(16) 0.00373 836.3 23.0
867(16) 0.00391 835.8 24.2
880(16) 0.00406 835.3 25.4
852(15) 0.00433 834.8 26.8
844(16) 0.00407 834.2 28.3
855(16) 0.00388 833.7 29.9
896(16) 0.00384 833.2 31.6
886(16) 0.00413 832.7 33.6
904(16) 0.00409 832.1 35.7
868(16) 0.00409 831.6 38.1
863(16) 0.00389 831.1 40.7
862(16) 0.00405 830.5 43.7
880(16) 0.00412 830.0 46.9
871(15) 0.00428 829.5 50.7
895(16) 0.00394 829.0 54.9
853(16) 0.00388 828.4 59.7
867(16) 0.00400 827.9 65.3
858(15) 0.00427 827.4 71.8
905(16) 0.00408 826.9 79.6
899(16) 0.00393 826.3 88.9
946(17) 0.003449 825.8 100.3
947(16) 0.00372 825.3 114.4
910(16) 0.00410 824.7 131.9
939(16) 0.00397 824.2 153.5
1009(17) 0.003429 823.7 180.3
1008(18) 0.003116 823.2 213.2
1001(17) 0.003453 822.6 253.0
1101(17) 0.003345 822.1 300.3
1208(18) 0.003013 821.6 355.4
1233(19) 0.002769 821.1 417.4
1275(20) 0.002569 820.5 484.3
1372(20) 0.002520 820.0 551.7
1351(19) 0.002761 819.5 612.9
1427(20) 0.002548 818.9 659.5
1484(21) 0.002359 818.4 685.2
1481(21) 0.002236 817.9 688.6
1400(20) 0.002490 817.4 674.1
1427(20) 0.002598 816.8 648.7
1420(20) 0.002575 816.3 618.7
1417(20) 0.002459 815.8 587.2
1317(20) 0.002592 815.2 554.5
1308(19) 0.002638 814.7 519.3
1247(18) 0.002960 814.2 480.7
1228(19) 0.002882 813.7 438.6
1151(18) 0.002986 813.1 394.6
1128(18) 0.003012 812.6 350.6
1150(18) 0.003025 812.1 308.7
1063(17) 0.003501 811.6 270.1
1030(17) 0.003464 811.0 235.5
1004(17) 0.003418 810.5 205.1
993(17) 0.003425 810.0 178.8
972(17) 0.00362 809.4 156.2
944(16) 0.00392 808.9 136.9
897(16) 0.00386 808.4 120.5
898(16) 0.00373 807.9 106.7
911(16) 0.00378 807.3 95.0
937(16) 0.00384 806.8 85.1
906(16) 0.00409 806.3 76.8
893(16) 0.00392 805.8 69.8
899(17) 0.00367 805.2 63.8
828(15) 0.00424 804.7 58.6
878(16) 0.00410 804.2 54.1
880(15) 0.00417 803.6 50.3
842(16) 0.00407 803.1 46.9
839(16) 0.00388 802.6 43.9
844(16) 0.00411 802.1 41.2
847(15) 0.00436 801.5 38.8
843(15) 0.00438 801.0 36.7
833(16) 0.00414 800.5 34.8
812(16) 0.00399 800.0 33.0
845(16) 0.00404 799.4 31.5
792(15) 0.00470 798.9 30.0
811(15) 0.00450 798.4 28.7
800(15) 0.00444 797.8 27.5
807(16) 0.00394 797.3 26.5
803(15) 0.00434 796.8 25.5
798(15) 0.00461 796.3 24.6
776(15) 0.00468 795.7 23.7
781(15) 0.00445 795.2 23.0
805(16) 0.00405 794.7 22.3
778(15) 0.00441 794.1 21.6
816(15) 0.00453 793.6 21.0
813(15) 0.00453 793.1 20.5
819(15) 0.00419 792.6 20.0
834(16) 0.00396 792.0 19.5
815(15) 0.00417 791.5 19.1
831(15) 0.00441 791.0 18.7
801(15) 0.00443 790.5 18.4
770(15) 0.00439 789.9 18.1
797(15) 0.00421 789.4 17.8
832(16) 0.00414 788.9 17.5
794(15) 0.00464 788.3 17.3
811(15) 0.00439 787.8 17.1
765(15) 0.00455 787.3 16.9
797(15) 0.00434 786.8 16.7
824(15) 0.00416 786.2 16.6
817(15) 0.00455 785.7 16.5
809(15) 0.00441 785.2 16.4
796(15) 0.00426 784.7 16.3
830(16) 0.00410 784.1 16.3
818(15) 0.00435 783.6 16.2
813(15) 0.00455 783.1 16.2
765(15) 0.00443 782.5 16.2
822(16) 0.00407 782.0 16.3
794(15) 0.00427 781.5 16.4
776(15) 0.00459 781.0 16.5
795(15) 0.00469 780.5 16.6
829(16) 0.00416 780.1 16.8
818(16) 0.00415 779.6 17.0
825(15) 0.00423 779.2 17.3
839(15) 0.00435 778.7 17.6
849(15) 0.00438 778.3 17.9
839(16) 0.00403 777.9 18.3
799(16) 0.00415 777.4 18.7
768(15) 0.00469 777.0 19.2
788(15) 0.00467 776.5 19.6
819(15) 0.00451 776.1 19.9
815(15) 0.00426 775.6 20.2
799(16) 0.00402 775.2 20.3
789(15) 0.00434 774.7 20.4
785(15) 0.00468 774.3 20.4
807(15) 0.00460 773.8 20.3
831(16) 0.00411 773.4 20.3
782(16) 0.00413 773.0 20.4
780(15) 0.00446 772.5 20.5
755(14) 0.00489 772.1 20.6
776(14) 0.00483 771.6 20.8
794(15) 0.00439 771.2 21.0
767(15) 0.00432 770.7 21.3
778(15) 0.00447 770.3 21.7
785(15) 0.00466 769.8 22.0
775(15) 0.00473 769.4 22.5
804(15) 0.00428 768.9 23.0
779(15) 0.00422 768.5 23.5
766(15) 0.00452 768.1 24.0
773(14) 0.00483 767.6 24.6
774(14) 0.00481 767.2 25.3
748(15) 0.00474 766.7 26.0
814(16) 0.00402 766.3 26.7
791(15) 0.00434 765.8 27.5
803(15) 0.00461 765.4 28.4
782(15) 0.00460 764.9 29.3
796(15) 0.00430 764.5 30.3
773(15) 0.00440 764.0 31.3
786(15) 0.00451 763.6 32.4
808(15) 0.00458 763.2 33.6
795(15) 0.00449 762.7 34.8
794(15) 0.00434 762.3 36.2
793(15) 0.00436 761.8 37.6
811(15) 0.00436 761.4 39.2
785(15) 0.00473 760.9 40.9
782(15) 0.00464 760.5 42.7
820(16) 0.00415 760.0 44.6
761(15) 0.00461 759.6 46.7
793(15) 0.00456 759.1 48.9
818(15) 0.00453 758.7 51.3
787(15) 0.00435 758.3 54.0
809(16) 0.00415 757.8 56.8
798(15) 0.00438 757.4 60.0
780(15) 0.00463 756.9 63.4
775(14) 0.00481 756.5 67.1
836(15) 0.00421 756.0 71.2
799(15) 0.00420 755.6 75.7
814(15) 0.00421 755.1 80.7
839(15) 0.00433 754.7 86.3
836(15) 0.00444 754.2 92.6
851(16) 0.00404 753.8 99.6
856(16) 0.00388 753.4 107.5
800(15) 0.00444 752.9 116.4
837(15) 0.00440 752.5 126.6
891(15) 0.00417 752.0 138.2
895(16) 0.00386 751.6 151.5
872(16) 0.00373 751.1 166.7
897(16) 0.00381 750.7 184.2
918(16) 0.00402 750.2 204.1
958(16) 0.00387 749.8 226.9
973(17) 0.00366 749.3 252.8
1053(18) 0.003089 748.9 282.3
1047(17) 0.003325 748.4 315.5
1149(18) 0.003232 748.0 352.8
1210(18) 0.002989 747.6 394.2
1264(19) 0.002765 747.1 439.6
1334(20) 0.002462 746.7 488.8
1400(20) 0.002484 746.2 541.0
1459(20) 0.002540 745.8 594.9
1604(21) 0.002258 745.3 648.3
1626(22) 0.002152 744.9 698.5
1591(22) 0.002099 744.4 742.0
1604(21) 0.002176 744.0 774.9
1566(21) 0.002371 743.5 793.9
1524(21) 0.002367 743.1 796.8
1477(21) 0.002349 742.7 783.3
1414(20) 0.002397 742.2 755.0
1342(20) 0.002567 741.8 714.8
1325(19) 0.002815 741.3 666.6
1321(19) 0.002690 740.9 614.0
1211(19) 0.002881 740.4 560.1
1246(19) 0.002695 740.0 507.2
1163(18) 0.003051 739.5 456.9
1176(18) 0.003138 739.1 410.1
1120(18) 0.003120 738.6 367.4
1056(18) 0.003214 738.2 328.8
1072(18) 0.003162 737.8 294.2
1038(17) 0.003466 737.3 263.5
995(16) 0.00372 736.9 236.5
996(17) 0.003448 736.4 212.7
985(17) 0.003408 736.0 191.9
984(17) 0.003503 735.5 173.7
960(16) 0.00378 735.1 157.8
926(16) 0.00401 734.6 143.9
921(16) 0.00370 734.2 131.8
898(16) 0.00376 733.7 121.3
906(16) 0.00384 733.3 112.0
890(16) 0.00408 732.9 103.8
881(15) 0.00424 732.4 96.6
878(16) 0.00393 732.0 90.2
850(16) 0.00387 731.5 84.5
830(16) 0.00415 731.1 79.4
878(16) 0.00416 730.6 74.8
830(15) 0.00446 730.2 70.7
832(16) 0.00412 729.7 67.0
779(15) 0.00417 729.3 63.6
756(15) 0.00471 728.8 60.5
779(15) 0.00474 728.4 57.7
797(15) 0.00467 728.0 55.1
792(15) 0.00438 727.5 52.8
782(16) 0.00411 727.1 50.6
785(15) 0.00446 726.6 48.6
812(15) 0.00455 726.2 46.8
836(15) 0.00440 725.7 45.2
765(15) 0.00457 725.3 43.7
793(16) 0.00403 724.8 42.3
787(15) 0.00437 724.4 41.0
775(14) 0.00481 723.9 39.8
750(14) 0.00485 723.5 38.8
742(15) 0.00471 723.1 37.9
749(15) 0.00447 722.6 37.0
758(15) 0.00458 722.2 36.2
792(15) 0.00469 721.7 35.6
745(14) 0.00484 721.3 35.0
731(15) 0.00475 720.8 34.5
776(15) 0.00433 720.4 34.0
740(15) 0.00474 719.9 33.7
798(15) 0.00468 719.5 33.4
786(15) 0.00448 719.0 33.3
721(14) 0.00489 718.6 33.2
762(15) 0.00449 718.2 33.2
752(15) 0.00468 717.7 33.2
741(14) 0.00501 717.3 33.4
771(15) 0.00457 716.8 33.7
763(15) 0.00453 716.4 34.1
796(15) 0.00435 715.9 34.5
745(15) 0.00474 715.5 35.1
780(14) 0.00478 715.0 35.8
756(15) 0.00468 714.6 36.6
756(15) 0.00444 714.1 37.6
760(15) 0.00455 713.7 38.7
789(15) 0.00456 713.2 40.0
765(14) 0.00483 712.8 41.4
780(15) 0.00447 712.4 43.0
735(15) 0.00456 711.9 44.7
728(15) 0.00463 711.5 46.7
749(14) 0.00476 711.0 48.8
769(14) 0.00483 710.6 51.2
722(14) 0.00491 710.1 53.7
738(15) 0.00445 709.7 56.5
766(15) 0.00452 709.2 59.4
787(15) 0.00464 708.8 62.5
786(15) 0.00474 708.3 65.7
801(15) 0.00428 707.9 69.0
750(15) 0.00443 707.5 72.4
782(15) 0.00445 707.0 75.8
771(14) 0.00481 706.6 79.2
793(15) 0.00463 706.1 82.4
789(15) 0.00446 705.7 85.5
857(16) 0.00374 705.2 88.5
848(16) 0.00415 704.8 91.2
806(15) 0.00460 704.3 93.8
809(15) 0.00451 703.9 96.1
805(15) 0.00439 703.4 98.2
816(16) 0.00396 703.0 99.8
790(15) 0.00440 702.6 101.1
767(14) 0.00491 702.1 101.8
795(15) 0.00452 701.7 101.7
751(15) 0.00455 701.2 101.0
730(15) 0.00448 700.8 99.4
777(15) 0.00440 700.3 97.1
787(15) 0.00474 699.9 94.2
795(15) 0.00455 699.4 91.0
776(15) 0.00449 699.0 87.5
795(15) 0.00421 698.5 83.9
790(15) 0.00434 698.1 80.6
773(14) 0.00479 697.7 77.5
749(15) 0.00474 697.2 74.7
757(15) 0.00461 696.8 72.4
780(15) 0.00436 696.3 70.6
757(15) 0.00464 695.9 69.2
724(14) 0.00515 695.4 68.4
756(15) 0.00468 695.0 68.0
779(15) 0.00442 694.5 68.1
768(15) 0.00443 694.1 68.7
798(15) 0.00440 693.6 69.6
780(15) 0.00475 693.2 71.0
808(15) 0.00436 692.8 72.6
808(15) 0.00418 692.3 74.5
754(15) 0.00465 691.9 76.5
826(15) 0.00434 691.4 78.5
835(15) 0.00445 691.0 80.3
798(15) 0.00439 690.5 81.9
771(15) 0.00439 690.1 83.0
785(15) 0.00441 689.6 83.6
764(15) 0.00466 689.2 83.6
724(14) 0.00515 688.7 82.8
777(15) 0.00429 688.3 81.4
751(15) 0.00432 687.9 79.4
723(14) 0.00481 687.4 76.8
735(14) 0.00503 687.0 73.8
737(14) 0.00501 686.5 70.5
778(15) 0.00444 686.1 67.1
742(15) 0.00450 685.6 63.5
717(14) 0.00484 685.2 59.9
717(14) 0.00515 684.7 56.4
755(14) 0.00494 684.3 53.0
740(15) 0.00474 683.8 49.7
706(15) 0.00465 683.4 46.6
712(14) 0.00485 683.0 43.6
753(14) 0.00494 682.5 40.9
752(14) 0.00488 682.1 38.3
756(15) 0.00472 681.6 36.0
712(14) 0.00479 681.2 33.8
713(14) 0.00489 680.7 31.8
717(14) 0.00520 680.3 29.9
694(14) 0.00532 679.8 28.2
677(14) 0.00515 679.4 26.7
683(15) 0.00472 678.9 25.3
696(14) 0.00504 678.5 24.0
702(14) 0.00527 678.1 22.8
700(14) 0.00523 677.6 21.7
683(14) 0.00511 677.2 20.8
692(14) 0.00482 676.7 19.9
697(14) 0.00496 676.3 19.0
677(13) 0.00551 675.8 18.3
716(14) 0.00499 675.4 17.6
663(14) 0.00534 674.9 17.0
715(15) 0.00468 674.5 16.4
691(14) 0.00502 674.0 15.9
653(13) 0.00570 673.6 15.4
695(14) 0.00516 673.1 14.9
712(14) 0.00486 672.7 14.5
694(14) 0.00483 672.3 14.2
685(14) 0.00512 671.8 13.8
697(14) 0.00536 671.4 13.5
700(14) 0.00489 670.9 13.2
668(14) 0.00506 670.5 13.0
712(15) 0.00465 670.0 12.7
688(14) 0.00521 669.6 12.5
703(14) 0.00529 669.1 12.3
716(14) 0.00487 668.7 12.1
653(14) 0.00527 668.2 12.0
668(14) 0.00524 667.8 11.8
686(14) 0.00537 667.4 11.7
697(14) 0.00528 666.9 11.6
700(14) 0.00488 666.5 11.5
685(15) 0.00474 666.0 11.5
687(14) 0.00504 665.6 11.4
698(14) 0.00527 665.1 11.4
673(13) 0.00557 664.7 11.3
710(14) 0.00492 664.2 11.3
696(14) 0.00492 663.8 11.4
685(14) 0.00518 663.3 11.4
704(14) 0.00523 662.9 11.5
690(14) 0.00531 662.5 11.6
684(14) 0.00514 662.0 11.7
672(15) 0.00465 661.6 11.9
652(14) 0.00533 661.1 12.2
664(13) 0.00550 660.7 12.5
655(13) 0.00572 660.2 12.8
676(14) 0.00508 659.8 13.3
658(14) 0.00505 659.3 13.9
721(14) 0.00484 658.9 14.6
686(14) 0.00532 658.4 15.6
664(13) 0.00557 658.0 16.8
672(14) 0.00520 657.6 18.5
667(14) 0.00499 657.1 20.9
670(14) 0.00521 656.7 24.4
676(13) 0.00554 656.2 29.5
729(14) 0.00498 655.8 36.9
720(15) 0.00471 655.3 47.1
717(15) 0.00460 654.9 60.9
750(15) 0.00467 654.4 78.2
756(14) 0.00491 654.0 98.7
717(14) 0.00513 653.5 120.6
812(15) 0.00419 653.1 140.4
844(16) 0.00404 652.7 153.1
847(16) 0.00402 652.2 153.9
823(15) 0.00450 651.8 142.5
797(15) 0.00450 651.3 123.1
793(15) 0.00426 650.9 101.1
735(15) 0.00466 650.4 80.1
680(14) 0.00520 650.0 62.1
673(13) 0.00552 649.5 47.6
693(14) 0.00504 649.1 36.7
730(15) 0.00459 648.6 28.8
649(14) 0.00529 648.2 23.2
706(14) 0.00501 647.8 19.3
653(13) 0.00569 647.3 16.6
668(14) 0.00521 646.9 14.6
642(14) 0.00524 646.4 13.1
606(13) 0.00576 646.0 11.9
628(13) 0.00576 645.5 11.0
641(13) 0.00582 645.1 10.2
652(14) 0.00524 644.6 9.5
647(14) 0.00520 644.2 8.9
652(14) 0.00529 643.7 8.4
635(13) 0.00573 643.3 7.9
655(13) 0.00569 642.9 7.5
683(14) 0.00511 642.4 7.2
669(14) 0.00497 642.0 6.9
642(14) 0.00535 641.5 6.6
637(13) 0.00577 641.1 6.3
618(13) 0.00602 640.6 6.1
675(14) 0.00498 640.2 5.9
623(14) 0.00502 639.7 5.7
615(13) 0.00557 639.3 5.5
667(14) 0.00538 638.8 5.4
648(13) 0.00572 638.4 5.2
656(14) 0.00535 637.9 5.1
651(14) 0.00491 637.5 5.0
600(13) 0.00590 637.1 4.8
613(13) 0.00603 636.6 4.7
634(13) 0.00582 636.2 4.6
634(14) 0.00540 635.7 4.5
609(14) 0.00541 635.3 4.4
646(14) 0.00531 634.8 4.3
632(13) 0.00586 634.4 4.3
632(13) 0.00576 633.9 4.2
623(14) 0.00547 633.5 4.1
650(14) 0.00509 633.0 4.0
610(13) 0.00580 632.6 4.0
643(13) 0.00576 632.2 3.9
631(13) 0.00576 631.7 3.8
635(14) 0.00540 631.3 3.8
633(14) 0.00531 630.8 3.7
644(14) 0.00535 630.4 3.7
641(13) 0.00582 629.9 3.6
644(13) 0.00559 629.5 3.6
588(13) 0.00583 629.0 3.5
620(14) 0.00536 628.6 3.5
617(13) 0.00577 628.1 3.4
633(13) 0.00588 627.7 3.4
613(13) 0.00590 627.3 3.4
636(14) 0.00547 626.8 3.3
643(14) 0.00538 626.4 3.3
658(14) 0.00538 625.9 3.3
637(13) 0.00584 625.5 3.2
612(13) 0.00581 625.0 3.2
638(14) 0.00524 624.6 3.2
633(14) 0.00548 624.1 3.1
651(13) 0.00558 623.7 3.1
650(13) 0.00570 623.2 3.1
607(13) 0.00559 622.8 3.0
611(13) 0.00549 622.4 3.0
654(14) 0.00518 621.9 3.0
600(13) 0.00604 621.5 3.0
636(13) 0.00583 621.0 2.9
630(14) 0.00545 620.6 2.9
628(14) 0.00519 620.1 2.9
620(13) 0.00558 619.7 2.9
599(13) 0.00606 619.2 2.8
619(13) 0.00599 618.8 2.8
635(14) 0.00540 618.3 2.8
616(14) 0.00523 617.9 2.8
645(14) 0.00530 617.5 2.8
583(13) 0.00635 617.0 2.7
613(13) 0.00611 616.6 2.7
592(13) 0.00577 616.1 2.7
606(14) 0.00523 615.7 2.7
565(13) 0.00619 615.2 2.7
594(13) 0.00626 614.8 2.7
637(13) 0.00584 614.3 2.6
648(14) 0.00526 613.9 2.6
642(14) 0.00506 613.4 2.6
630(13) 0.00564 613.0 2.6
579(12) 0.00645 612.6 2.6
595(13) 0.00618 612.1 2.6
617(13) 0.00563 611.7 2.6
622(14) 0.00533 611.2 2.6
630(13) 0.00557 610.8 2.5
618(13) 0.00598 610.3 2.5
633(13) 0.00574 609.9 2.5
684(14) 0.00504 609.4 2.5
634(14) 0.00540 609.0 2.5
655(14) 0.00523 608.5 2.5
587(13) 0.00630 608.1 2.5
611(13) 0.00587 607.7 2.5
596(13) 0.00574 607.2 2.5
599(13) 0.00563 606.8 2.5
611(13) 0.00565 606.3 2.5
612(13) 0.00607 605.9 2.5
629(13) 0.00554 605.4 2.5
604(13) 0.00567 605.0 2.4
607(13) 0.00564 604.5 2.4
606(13) 0.00589 604.1 2.4
615(13) 0.00610 603.6 2.4
608(13) 0.00579 603.2 2.4
649(14) 0.00520 602.7 2.4
615(13) 0.00572 602.3 2.4
614(13) 0.00588 601.9 2.4
580(13) 0.00640 601.4 2.4
650(14) 0.00523 601.0 2.4
636(14) 0.00523 600.5 2.4
615(13) 0.00562 600.1 2.5
614(13) 0.00590 599.6 2.5
632(13) 0.00584 599.2 2.5
595(13) 0.00580 598.7 2.5
609(14) 0.00540 598.3 2.5
558(13) 0.00620 597.8 2.5
626(13) 0.00569 597.4 2.5
580(12) 0.00641 597.0 2.5
632(14) 0.00540 596.5 2.5
609(14) 0.00537 596.1 2.6
602(13) 0.00586 595.6 2.6
617(13) 0.00593 595.2 2.6
589(13) 0.00638 594.7 2.6
629(14) 0.00541 594.3 2.7
617(14) 0.00536 593.8 2.7
599(13) 0.00600 593.4 2.7
602(13) 0.00613 592.9 2.8
600(13) 0.00613 592.5 2.8
615(13) 0.00573 592.1 2.8
593(14) 0.00547 591.6 2.9
611(13) 0.00574 591.2 2.9
588(13) 0.00635 590.7 3.0
582(13) 0.00633 590.3 3.0
591(13) 0.00591 589.8 3.1
619(14) 0.00524 589.4 3.1
582(13) 0.00599 588.9 3.2
560(12) 0.00662 588.5 3.3
618(13) 0.00592 588.0 3.3
593(13) 0.00581 587.6 3.4
602(13) 0.00553 587.2 3.4
612(13) 0.00560 586.7 3.5
606(13) 0.00611 586.3 3.6
577(13) 0.00632 585.8 3.6
585(13) 0.00594 585.4 3.6
578(13) 0.00580 584.9 3.7
597(13) 0.00562 584.5 3.7
619(13) 0.00598 584.0 3.7
601(13) 0.00602 583.6 3.7
571(13) 0.00609 583.1 3.7
597(13) 0.00567 582.7 3.7
590(13) 0.00605 582.3 3.6
604(13) 0.00616 581.8 3.6
586(13) 0.00592 581.4 3.5
577(13) 0.00589 581.0 3.5
620(14) 0.00539 580.7 3.4
596(13) 0.00581 580.4 3.4
590(13) 0.00633 580.2 3.3
583(13) 0.00591 579.9 3.3
564(13) 0.00599 579.6 3.3
568(13) 0.00603 579.3 3.2
579(13) 0.00634 579.0 3.2
584(13) 0.00635 578.8 3.1
575(13) 0.00612 578.5 3.1
593(13) 0.00574 578.2 3.1
607(13) 0.00588 577.9 3.0
574(12) 0.00643 577.6 3.0
602(13) 0.00614 577.4 3.0
596(13) 0.00576 577.1 3.0
576(13) 0.00571 576.8 3.0
591(13) 0.00592 576.5 2.9
581(12) 0.00643 576.3 2.9
592(13) 0.00625 576.0 2.9
576(13) 0.00607 575.7 2.9
588(14) 0.00536 575.4 2.9
578(13) 0.00605 575.1 2.9
583(13) 0.00632 574.9 2.9
612(13) 0.00607 574.6 3.0
611(13) 0.00570 574.3 3.0
573(13) 0.00563 574.0 3.0
555(13) 0.00630 573.7 3.0
587(13) 0.00625 573.5 3.0
578(12) 0.00647 573.2 3.1
593(13) 0.00591 572.9 3.1
574(13) 0.00573 572.6 3.1
593(13) 0.00588 572.3 3.2
551(12) 0.00677 572.1 3.2
564(12) 0.00657 571.8 3.3
597(13) 0.00571 571.5 3.3
584(13) 0.00570 571.2 3.4
573(13) 0.00613 570.9 3.4
581(13) 0.00630 570.7 3.5
595(13) 0.00622 570.4 3.6
554(12) 0.00646 570.1 3.6
578(13) 0.00587 569.8 3.7
585(13) 0.00585 569.6 3.8
563(12) 0.00657 569.3 3.9
568(12) 0.00641 569.0 4.0
571(13) 0.00632 568.7 4.1
600(13) 0.00562 568.4 4.2
578(13) 0.00586 568.2 4.4
526(12) 0.00705 567.9 4.5
556(13) 0.00637 567.6 4.7
590(13) 0.00588 567.3 4.9
568(13) 0.00612 567.0 5.0
570(13) 0.00638 566.8 5.2
574(12) 0.00645 566.5 5.5
587(13) 0.00589 566.2 5.7
585(13) 0.00579 565.9 6.0
585(13) 0.00590 565.6 6.3
588(13) 0.00617 565.4 6.6
566(12) 0.00660 565.1 7.0
584(13) 0.00582 564.8 7.5
564(13) 0.00601 564.5 7.9
591(13) 0.00589 564.2 8.5
539(12) 0.00672 564.0 9.1
573(12) 0.00651 563.7 9.8
600(13) 0.00561 563.4 10.7
609(14) 0.00543 563.1 11.7
582(13) 0.00611 562.9 12.9
592(13) 0.00624 562.6 14.3
573(12) 0.00652 562.3 16.0
595(13) 0.00581 562.0 18.2
620(14) 0.00530 561.7 21.2
618(13) 0.00563 561.5 25.3
623(13) 0.00594 561.2 31.4
593(13) 0.00627 560.9 40.3
629(13) 0.00551 560.6 53.2
647(14) 0.00493 560.3 70.8
660(14) 0.00536 560.1 92.9
675(14) 0.00548 559.8 117.6
707(14) 0.00523 559.5 141.0
728(15) 0.00464 559.2 156.8
741(15) 0.00435 558.9 159.9
697(14) 0.00498 558.7 151.2
683(14) 0.00547 558.4 136.1
704(14) 0.00517 558.1 119.4
685(14) 0.00505 557.8 103.6
663(14) 0.00501 557.5 89.8
665(14) 0.00503 557.3 78.1
659(13) 0.00569 557.0 68.2
631(13) 0.00585 556.7 59.6
601(13) 0.00571 556.4 52.1
592(13) 0.00575 556.1 45.5
619(13) 0.00565 555.9 39.6
614(13) 0.00601 555.6 34.5
613(13) 0.00588 555.3 30.0
585(13) 0.00567 555.0 26.2
525(12) 0.00662 554.8 23.0
583(13) 0.00596 554.5 20.2
598(13) 0.00626 554.2 17.9
549(12) 0.00661 553.9 16.0
573(13) 0.00595 553.6 14.4
556(13) 0.00616 553.4 13.0
567(13) 0.00638 553.1 11.9
547(12) 0.00679 552.8 11.0
579(13) 0.00607 552.5 10.2
570(13) 0.00601 552.2 9.5
545(13) 0.00630 552.0 8.9
530(12) 0.00693 551.7 8.4
592(13) 0.00628 551.4 7.9
567(13) 0.00613 551.1 7.5
554(13) 0.00604 550.8 7.2
597(13) 0.00578 550.6 6.9
563(12) 0.00657 550.3 6.6
553(12) 0.00667 550.0 6.4
593(13) 0.00585 549.7 6.1
546(13) 0.00627 549.4 5.9
559(13) 0.00636 549.2 5.8
582(13) 0.00623 548.9 5.6
556(12) 0.00674 548.6 5.5
525(12) 0.00673 548.3 5.4
565(13) 0.00575 548.1 5.3
564(13) 0.00611 547.8 5.2
557(12) 0.00663 547.5 5.1
565(12) 0.00661 547.2 5.0
576(13) 0.00593 546.9 4.9
540(13) 0.00591 546.7 4.9
556(13) 0.00622 546.4 4.8
550(12) 0.00674 546.1 4.8
569(12) 0.00653 545.8 4.8
568(13) 0.00615 545.5 4.8
557(13) 0.00600 545.3 4.7
558(13) 0.00626 545.0 4.7
558(12) 0.00671 544.7 4.7
579(13) 0.00627 544.4 4.7
536(12) 0.00652 544.1 4.7
532(13) 0.00625 543.9 4.8
548(13) 0.00623 543.6 4.8
525(12) 0.00712 543.3 4.8
549(12) 0.00662 543.0 4.9
556(13) 0.00623 542.7 4.9
560(13) 0.00593 542.5 5.0
539(12) 0.00648 542.2 5.0
566(12) 0.00656 541.9 5.1
545(12) 0.00660 541.6 5.2
539(13) 0.00640 541.3 5.3
566(13) 0.00599 541.1 5.3
514(12) 0.00676 540.8 5.4
526(12) 0.00711 540.5 5.5
555(12) 0.00645 540.2 5.7
537(12) 0.00644 540.0 5.8
569(13) 0.00597 539.7 5.9
552(12) 0.00651 539.4 6.1
521(12) 0.00709 539.1 6.2
557(13) 0.00630 538.8 6.4
532(12) 0.00642 538.6 6.6
536(13) 0.00638 538.3 6.8
557(12) 0.00645 538.0 7.0
537(12) 0.00689 537.7 7.2
552(13) 0.00610 537.4 7.4
539(13) 0.00624 537.2 7.7
557(13) 0.00606 536.9 7.9
521(12) 0.00709 536.6 8.2
523(12) 0.00709 536.3 8.5
554(13) 0.00616 536.0 8.8
538(13) 0.00638 535.8 9.2
548(12) 0.00646 535.5 9.5
564(12) 0.00662 535.2 9.9
554(12) 0.00671 534.9 10.3
546(12) 0.00646 534.6 10.7
546(13) 0.00603 534.4 11.1
545(13) 0.00627 534.1 11.6
564(12) 0.00647 533.8 12.1
580(13) 0.00631 533.5 12.6
526(12) 0.00666 533.3 13.1
561(13) 0.00564 533.0 13.6
536(12) 0.00671 532.7 14.2
550(12) 0.00668 532.4 14.8
532(12) 0.00694 532.1 15.4
553(13) 0.00610 531.9 16.0
535(13) 0.00607 531.6 16.6
561(13) 0.00623 531.3 17.2
583(13) 0.00637 531.0 17.8
555(12) 0.00671 530.7 18.4
562(13) 0.00638 530.5 19.0
551(13) 0.00603 530.2 19.5
538(12) 0.00646 529.9 20.0
574(12) 0.00655 529.6 20.5
570(13) 0.00627 529.3 21.0
585(13) 0.00561 529.1 21.3
569(13) 0.00577 528.8 21.6
610(13) 0.00562 528.5 21.9
593(13) 0.00628 528.2 22.0
553(12) 0.00659 527.9 22.1
545(13) 0.00636 527.7 22.1
567(13) 0.00593 527.4 22.0
558(13) 0.00627 527.1 21.9
573(12) 0.00646 526.8 21.6
577(13) 0.00624 526.6 21.3
557(13) 0.00611 526.3 21.0
565(13) 0.00602 526.0 20.5
582(13) 0.00614 525.7 20.1
551(12) 0.00668 525.4 19.6
555(12) 0.00643 525.2 19.1
532(12) 0.00651 524.9 18.6
577(13) 0.00592 524.6 18.1
557(13) 0.00634 524.3 17.7
517(12) 0.00717 524.0 17.2
532(12) 0.00647 523.8 16.8
522(13) 0.00630 523.5 16.3
561(13) 0.00615 523.2 15.9
557(13) 0.00637 522.9 15.5
541(12) 0.00685 522.6 15.0
551(13) 0.00620 522.4 14.4
548(13) 0.00600 522.1 13.8
532(12) 0.00654 521.8 13.2
543(12) 0.00669 521.5 12.6
525(12) 0.00706 521.2 12.0
555(13) 0.00610 521.0 11.4
565(13) 0.00582 520.7 10.8
524(12) 0.00663 520.4 10.3
538(12) 0.00675 520.1 9.8
563(12) 0.00661 519.8 9.3
527(12) 0.00647 519.6 8.9
525(13) 0.00612 519.3 8.5
553(13) 0.00613 519.0 8.1
527(12) 0.00701 518.7 7.8
612(13) 0.00606 518.5 7.5
568(13) 0.00603 518.2 7.2
530(13) 0.00598 517.9 6.9
525(12) 0.00676 517.6 6.6
533(12) 0.00705 517.3 6.4
557(12) 0.00661 517.1 6.1
584(13) 0.00600 516.8 5.9
540(13) 0.00607 516.5 5.7
538(13) 0.00634 516.2 5.5
512(12) 0.00729 515.9 5.3
544(12) 0.00672 515.7 5.1
539(12) 0.00641 515.4 5.0
521(13) 0.00640 515.1 4.8
498(12) 0.00707 514.8 4.7
537(12) 0.00687 514.5 4.6
496(12) 0.00719 514.3 4.4
499(12) 0.00689 514.0 4.3
519(12) 0.00647 513.7 4.2
516(12) 0.00665 513.4 4.1
516(12) 0.00721 513.1 4.0
537(12) 0.00670 512.9 3.9
539(13) 0.00636 512.6 3.8
539(13) 0.00637 512.3 3.7
535(12) 0.00653 512.0 3.6
521(12) 0.00710 511.8 3.5
497(12) 0.00719 511.5 3.5
472(12) 0.00740 511.2 3.4
524(12) 0.00648 510.9 3.3
501(12) 0.00712 510.6 3.3
518(12) 0.00724 510.4 3.2
502(12) 0.00701 510.1 3.1
523(13) 0.00636 509.8 3.1
522(12) 0.00658 509.5 3.0
512(12) 0.00702 509.2 3.0
554(12) 0.00677 509.0 2.9
505(12) 0.00690 508.7 2.9
520(13) 0.00637 508.4 2.8
513(12) 0.00655 508.1 2.8
512(12) 0.00703 507.8 2.7
497(12) 0.00747 507.6 2.7
515(12) 0.00679 507.3 2.6
509(12) 0.00641 507.0 2.6
514(12) 0.00683 506.7 2.6
519(12) 0.00699 506.4 2.5
517(12) 0.00722 506.2 2.5
536(13) 0.00631 505.9 2.5
506(13) 0.00637 505.6 2.4
527(13) 0.00640 505.3 2.4
500(12) 0.00742 505.0 2.4
478(11) 0.00773 504.8 2.3
484(12) 0.00700 504.5 2.3
487(12) 0.00651 504.2 2.3
506(12) 0.00681 503.9 2.3
510(12) 0.00732 503.7 2.2
505(12) 0.00717 503.4 2.2
501(12) 0.00699 503.1 2.2
529(13) 0.00620 502.8 2.2
519(12) 0.00668 502.5 2.2
502(12) 0.00750 502.3 2.1
500(12) 0.00722 502.0 2.1
501(12) 0.00683 501.7 2.1
518(12) 0.00644 501.4 2.1
527(12) 0.00660 501.1 2.1
516(12) 0.00710 500.9 2.0
529(12) 0.00687 500.6 2.0
540(12) 0.00654 500.3 2.0
521(13) 0.00634 500.0 2.0
513(12) 0.00660 499.7 2.0
509(12) 0.00729 499.5 2.0
483(12) 0.00748 499.2 1.9
500(12) 0.00703 498.9 1.9
506(12) 0.00682 498.6 1.9
502(12) 0.00706 498.3 1.9
524(12) 0.00709 498.1 1.9
519(12) 0.00688 497.8 1.9
515(12) 0.00651 497.5 1.9
466(12) 0.00747 497.2 1.9
486(12) 0.00731 497.0 1.8
516(12) 0.00720 496.7 1.8
509(12) 0.00710 496.4 1.8
522(12) 0.00643 496.1 1.8
498(12) 0.00684 495.8 1.8
469(12) 0.00755 495.6 1.8
477(11) 0.00781 495.3 1.8
488(12) 0.00727 495.1 1.8
505(12) 0.00667 494.8 1.8
482(12) 0.00717 494.6 1.8
495(12) 0.00754 494.4 1.8
490(12) 0.00754 494.2 1.8
525(12) 0.00646 494.0 1.8
500(12) 0.00651 493.8 1.7
482(12) 0.00702 493.6 1.7
523(12) 0.00719 493.4 1.7
516(12) 0.00718 493.2 1.7
520(12) 0.00684 493.0 1.7
504(12) 0.00660 492.7 1.7
515(12) 0.00664 492.5 1.7
537(12) 0.00700 492.3 1.7
520(12) 0.00713 492.1 1.7
482(12) 0.00722 491.9 1.7
491(12) 0.00664 491.7 1.7
503(12) 0.00699 491.5 1.7
512(12) 0.00732 491.3 1.7
517(12) 0.00714 491.1 1.7
522(12) 0.00655 490.9 1.7
505(12) 0.00642 490.6 1.7
509(12) 0.00692 490.4 1.7
490(11) 0.00756 490.2 1.7
512(12) 0.00712 490.0 1.7
489(12) 0.00701 489.8 1.7
467(12) 0.00727 489.6 1.7
488(12) 0.00702 489.4 1.7
507(12) 0.00734 489.2 1.7
500(12) 0.00725 489.0 1.7
544(13) 0.00628 488.7 1.7
452(11) 0.00770 488.5 1.7
461(12) 0.00740 488.3 1.7
444(11) 0.00832 488.1 1.7
493(12) 0.00728 487.9 1.7
489(12) 0.00713 487.7 1.7
508(12) 0.00652 487.5 1.7
507(12) 0.00685 487.3 1.7
481(11) 0.00767 487.1 1.7
507(12) 0.00701 486.9 1.7
476(12) 0.00706 486.6 1.7
498(12) 0.00687 486.4 1.8
499(12) 0.00711 486.2 1.8
497(12) 0.00756 486.0 1.8
484(12) 0.00731 485.8 1.8
526(13) 0.00639 485.6 1.8
511(12) 0.00677 485.4 1.8
512(12) 0.00690 485.2 1.8
530(12) 0.00697 485.0 1.8
506(12) 0.00683 484.8 1.8
486(12) 0.00702 484.5 1.9
492(12) 0.00673 484.3 1.9
472(11) 0.00765 484.1 1.9
465(11) 0.00795 483.9 1.9
496(12) 0.00678 483.7 1.9
491(12) 0.00680 483.5 2.0
490(12) 0.00703 483.3 2.0
500(12) 0.00726 483.1 2.0
497(12) 0.00746 482.9 2.0
472(12) 0.00742 482.7 2.1
475(12) 0.00699 482.4 2.1
507(12) 0.00684 482.2 2.1
482(11) 0.00761 482.0 2.2
503(12) 0.00739 481.8 2.2
530(12) 0.00645 481.6 2.2
521(13) 0.00625 481.4 2.3
480(12) 0.00740 481.2 2.3
493(12) 0.00755 481.0 2.4
490(12) 0.00751 480.8 2.4
484(12) 0.00714 480.6 2.5
456(12) 0.00735 480.3 2.6
495(12) 0.00709 480.1 2.7
497(12) 0.00740 479.9 2.7
464(11) 0.00806 479.7 2.8
477(12) 0.00717 479.5 2.9
498(12) 0.00657 479.3 3.1
483(12) 0.00726 479.1 3.2
485(11) 0.00766 478.9 3.4
491(12) 0.00744 478.7 3.5
476(12) 0.00732 478.4 3.7
474(12) 0.00695 478.2 4.0
517(12) 0.00664 478.0 4.2
500(12) 0.00747 477.8 4.6
492(12) 0.00735 477.6 4.9
533(13) 0.00632 477.4 5.3
491(12) 0.00700 477.2 5.8
495(12) 0.00700 477.0 6.4
480(11) 0.00769 476.8 7.0
479(12) 0.00744 476.6 7.7
484(12) 0.00706 476.3 8.5
500(12) 0.00662 476.1 9.4
485(12) 0.00735 475.9 10.3
483(11) 0.00768 475.7 11.3
477(11) 0.00756 475.5 12.4
504(12) 0.00689 475.3 13.4
519(12) 0.00662 475.1 14.3
506(12) 0.00690 474.9 15.1
507(12) 0.00735 474.7 15.6
490(12) 0.00735 474.5 15.9
490(12) 0.00708 474.2 15.8
506(12) 0.00674 474.0 15.3
508(12) 0.00711 473.8 14.7
488(11) 0.00760 473.6 13.8
509(12) 0.00675 473.4 12.8
514(13) 0.00624 473.2 11.8
451(11) 0.00760 473.0 10.8
497(12) 0.00705 472.8 9.8
479(11) 0.00779 472.6 8.9
490(12) 0.00697 472.4 8.2
478(12) 0.00687 472.1 7.4
514(12) 0.00658 471.9 6.8
491(12) 0.00743 471.7 6.3
511(12) 0.00735 471.5 5.8
478(12) 0.00755 471.3 5.4
494(12) 0.00653 471.1 5.0
475(12) 0.00740 470.9 4.7
500(12) 0.00736 470.7 4.5
491(12) 0.00747 470.5 4.2
474(12) 0.00735 470.2 4.1
478(12) 0.00664 470.0 3.9
474(12) 0.00731 469.8 3.8
472(11) 0.00787 469.6 3.7
489(12) 0.00755 469.4 3.6
462(11) 0.00774 469.2 3.5
454(12) 0.00742 469.0 3.4
493(12) 0.00704 468.8 3.4
498(12) 0.00741 468.6 3.3
469(11) 0.00770 468.4 3.3
479(12) 0.00711 468.1 3.3
476(12) 0.00676 467.9 3.3
450(11) 0.00800 467.7 3.3
459(11) 0.00812 467.5 3.3
458(11) 0.00800 467.3 3.3
481(12) 0.00717 467.1 3.3
484(12) 0.00688 466.9 3.3
472(12) 0.00723 466.7 3.3
444(11) 0.00840 466.5 3.4
465(11) 0.00764 466.3 3.4
484(12) 0.00710 466.0 3.4
482(12) 0.00688 465.8 3.5
468(12) 0.00725 465.6 3.5
445(11) 0.00832 465.4 3.6
490(12) 0.00695 465.2 3.7
480(12) 0.00698 465.0 3.7
470(12) 0.00731 464.8 3.8
456(11) 0.00770 464.6 3.9
469(11) 0.00796 464.4 4.0
477(12) 0.00711 464.2 4.0
469(12) 0.00725 463.9 4.1
494(12) 0.00689 463.7 4.2
493(12) 0.00727 463.5 4.3
464(11) 0.00797 463.3 4.4
460(12) 0.00737 463.1 4.5
477(12) 0.00698 462.9 4.6
467(12) 0.00738 462.7 4.8
475(11) 0.00768 462.5 4.9
449(11) 0.00829 462.3 5.0
474(12) 0.00717 462.1 5.1
493(12) 0.00661 461.8 5.2
430(11) 0.00826 461.6 5.3
452(11) 0.00823 461.4 5.4
480(11) 0.00777 461.2 5.5
481(12) 0.00741 461.0 5.6
476(12) 0.00688 460.8 5.7
447(11) 0.00787 460.6 5.7
488(12) 0.00752 460.4 5.8
470(11) 0.00791 460.2 5.8
493(12) 0.00686 459.9 5.8
461(12) 0.00683 459.7 5.9
453(11) 0.00760 459.5 5.9
460(11) 0.00810 459.3 5.8
449(11) 0.00832 459.1 5.8
451(12) 0.00746 458.9 5.8
467(12) 0.00685 458.7 5.7
481(12) 0.00718 458.5 5.6
473(11) 0.00799 458.3 5.6
438(11) 0.00826 458.1 5.5
477(12) 0.00734 457.8 5.4
458(12) 0.00736 457.6 5.3
483(12) 0.00710 457.4 5.1
479(11) 0.00777 457.2 5.0
470(11) 0.00771 457.0 4.9
469(12) 0.00752 456.8 4.8
487(12) 0.00681 456.6 4.7
456(12) 0.00753 456.4 4.6
443(11) 0.00830 456.2 4.4
472(12) 0.00752 456.0 4.3
446(11) 0.00779 455.7 4.2
471(12) 0.00702 455.5 4.1
470(12) 0.00737 455.3 4.0
466(11) 0.00805 455.1 3.9
457(11) 0.00777 454.9 3.8
451(11) 0.00757 454.7 3.7
455(12) 0.00733 454.5 3.6
465(11) 0.00756 454.3 3.5
446(11) 0.00835 454.1 3.4
472(12) 0.00751 453.9 3.4
480(12) 0.00718 453.6 3.3
472(12) 0.00725 453.4 3.2
421(11) 0.00842 453.2 3.1
421(11) 0.00885 453.0 3.1
484(12) 0.00714 452.8 3.0
454(12) 0.00720 452.6 3.0
471(12) 0.00745 452.4 2.9
474(11) 0.00757 452.2 2.9
470(11) 0.00787 452.0 2.8
465(12) 0.00728 451.8 2.8
470(12) 0.00704 451.5 2.7
457(11) 0.00767 451.3 2.7
475(11) 0.00765 451.1 2.6
454(11) 0.00827 450.9 2.6
467(11) 0.00760 450.7 2.6
478(12) 0.00686 450.5 2.5
465(12) 0.00730 450.3 2.5
458(11) 0.00805 450.1 2.5
448(11) 0.00825 449.9 2.4
448(11) 0.00785 449.6 2.4
467(12) 0.00681 449.4 2.4
477(12) 0.00718 449.2 2.4
425(11) 0.00873 449.0 2.4
462(11) 0.00792 448.8 2.3
458(11) 0.00778 448.6 2.3
448(12) 0.00731 448.4 2.3
448(11) 0.00779 448.2 2.3
459(11) 0.00816 448.0 2.3
474(11) 0.00770 447.8 2.3
458(11) 0.00757 447.5 2.2
454(12) 0.00697 447.3 2.2
454(12) 0.00750 447.1 2.2
439(11) 0.00854 446.9 2.2
460(11) 0.00773 446.7 2.2
454(11) 0.00767 446.5 2.2
456(12) 0.00703 446.3 2.2
436(11) 0.00772 446.1 2.2
457(11) 0.00815 445.9 2.2
430(11) 0.00838 445.7 2.2
443(11) 0.00767 445.4 2.2
446(12) 0.00756 445.2 2.2
479(12) 0.00711 445.0 2.2
413(11) 0.00894 444.8 2.2
432(11) 0.00814 444.6 2.2
469(12) 0.00730 444.4 2.2
465(12) 0.00741 444.2 2.1
446(11) 0.00802 444.0 2.1
466(11) 0.00795 443.8 2.1
432(11) 0.00810 443.6 2.1
445(11) 0.00771 443.3 2.1
447(11) 0.00789 443.1 2.1
461(11) 0.00784 442.9 2.1
457(11) 0.00819 442.7 2.1
496(12) 0.00713 442.5 2.2
453(12) 0.00752 442.3 2.2
470(12) 0.00745 442.1 2.2
487(12) 0.00736 441.9 2.2
457(11) 0.00813 441.7 2.2
465(12) 0.00738 441.5 2.2
488(12) 0.00677 441.2 2.2
481(12) 0.00724 441.0 2.2
465(11) 0.00772 440.8 2.2
447(11) 0.00836 440.6 2.2
475(12) 0.00728 440.4 2.2
453(12) 0.00755 440.2 2.2
445(11) 0.00778 440.0 2.2
431(11) 0.00854 439.8 2.2
446(11) 0.00829 439.6 2.2
449(11) 0.00788 439.3 2.2
462(12) 0.00693 439.1 2.2
444(11) 0.00793 438.9 2.2
448(11) 0.00826 438.7 2.2
444(11) 0.00826 438.5 2.2
459(12) 0.00740 438.3 2.3
451(12) 0.00713 438.1 2.3
458(11) 0.00759 437.9 2.3
452(11) 0.00825 437.7 2.3
438(11) 0.00829 437.5 2.3
458(11) 0.00762 437.2 2.3
459(12) 0.00707 437.0 2.3
467(12) 0.00742 436.8 2.3
467(11) 0.00796 436.6 2.3
477(11) 0.00768 436.4 2.3
428(11) 0.00846 436.2 2.4
459(12) 0.00729 436.0 2.4
421(11) 0.00840 435.8 2.4
449(11) 0.00827 435.7 2.4
438(11) 0.00823 435.5 2.4
458(11) 0.00762 435.4 2.4
470(12) 0.00711 435.3 2.4
420(11) 0.00812 435.2 2.4
441(11) 0.00841 435.0 2.5
461(11) 0.00770 434.9 2.5
425(11) 0.00835 434.8 2.5
445(12) 0.00754 434.6 2.5
433(11) 0.00827 434.5 2.5
489(11) 0.00760 434.4 2.5
446(11) 0.00800 434.3 2.5
441(11) 0.00763 434.1 2.6
432(11) 0.00815 434.0 2.6
434(11) 0.00830 433.9 2.6
437(11) 0.00848 433.8 2.6
458(12) 0.00751 433.6 2.6
457(12) 0.00744 433.5 2.6
440(11) 0.00775 433.4 2.7
435(11) 0.00826 433.2 2.7
446(11) 0.00831 433.1 2.7
459(11) 0.00758 433.0 2.7
455(12) 0.00734 432.9 2.7
419(11) 0.00844 432.7 2.8
425(11) 0.00867 432.6 2.8
433(11) 0.00862 432.5 2.8
431(11) 0.00818 432.4 2.8
453(12) 0.00722 432.2 2.8
459(11) 0.00757 432.1 2.9
428(11) 0.00857 432.0 2.9
452(11) 0.00822 431.8 2.9
458(12) 0.00746 431.7 2.9
465(12) 0.00695 431.6 3.0
445(11) 0.00790 431.5 3.0
427(11) 0.00863 431.3 3.0
432(11) 0.00863 431.2 3.0
465(11) 0.00759 431.1 3.1
451(12) 0.00724 431.0 3.1
443(11) 0.00793 430.8 3.1
458(11) 0.00797 430.7 3.2
430(11) 0.00852 430.6 3.2
423(11) 0.00822 430.4 3.2
446(12) 0.00698 430.3 3.2
431(11) 0.00804 430.2 3.3
461(11) 0.00803 430.1 3.3
432(11) 0.00853 429.9 3.3
468(12) 0.00717 429.8 3.4
434(11) 0.00769 429.7 3.4
432(11) 0.00793 429.6 3.4
450(11) 0.00829 429.4 3.5
414(11) 0.00879 429.3 3.5
431(11) 0.00818 429.2 3.6
436(11) 0.00760 429.0 3.6
435(11) 0.00782 428.9 3.6
431(11) 0.00864 428.8 3.7
424(11) 0.00849 428.7 3.7
438(11) 0.00779 428.5 3.8
445(11) 0.00776 428.4 3.8
462(12) 0.00750 428.3 3.9
437(11) 0.00852 428.1 3.9
449(11) 0.00788 428.0 4.0
451(11) 0.00762 427.9 4.0
429(11) 0.00782 427.8 4.1
430(11) 0.00804 427.6 4.1
420(11) 0.00886 427.5 4.2
432(11) 0.00809 427.4 4.2
411(11) 0.00844 427.3 4.3
426(11) 0.00814 427.1 4.3
444(11) 0.00820 427.0 4.4
426(11) 0.00877 426.9 4.5
451(11) 0.00761 426.7 4.5
450(12) 0.00748 426.6 4.6
455(11) 0.00766 426.5 4.7
458(11) 0.00794 426.4 4.7
433(11) 0.00850 426.2 4.8
431(11) 0.00804 426.1 4.9
465(12) 0.00692 426.0 5.0
438(11) 0.00809 425.9 5.0
425(11) 0.00875 425.7 5.1
429(11) 0.00852 425.6 5.2
439(11) 0.00782 425.5 5.3
435(11) 0.00765 425.3 5.4
461(12) 0.00749 425.2 5.5
417(11) 0.00896 425.1 5.6
446(11) 0.00834 425.0 5.7
414(11) 0.00851 424.8 5.8
439(12) 0.00719 424.7 5.9
414(11) 0.00876 424.6 6.0
412(11) 0.00903 424.5 6.1
440(11) 0.00841 424.3 6.2
428(11) 0.00802 424.2 6.4
424(12) 0.00749 424.1 6.5
433(11) 0.00809 423.9 6.6
433(11) 0.00852 423.8 6.8
435(11) 0.00856 423.7 6.9
443(11) 0.00786 423.6 7.1
434(11) 0.00765 423.4 7.2
415(11) 0.00834 423.3 7.4
440(11) 0.00840 423.2 7.6
435(11) 0.00840 423.1 7.8
448(11) 0.00774 422.9 8.0
440(11) 0.00757 422.8 8.2
424(11) 0.00809 422.7 8.4
438(11) 0.00850 422.5 8.6
439(11) 0.00807 422.4 8.8
428(11) 0.00795 422.3 9.1
409(11) 0.00857 422.2 9.3
404(11) 0.00882 422.0 9.6
428(11) 0.00865 421.9 9.9
433(11) 0.00822 421.8 10.2
404(11) 0.00871 421.7 10.5
446(11) 0.00768 421.5 10.9
462(11) 0.00781 421.4 11.3
449(11) 0.00830 421.3 11.6
434(11) 0.00811 421.1 12.1
433(11) 0.00785 421.0 12.5
457(12) 0.00722 420.9 13.0
458(11) 0.00768 420.8 13.5
451(11) 0.00814 420.6 14.0
421(11) 0.00814 420.5 14.6
412(11) 0.00821 420.4 15.2
441(11) 0.00762 420.3 15.9
435(11) 0.00835 420.1 16.7
425(11) 0.00879 420.0 17.5
433(11) 0.00779 419.9 18.4
435(11) 0.00783 419.7 19.3
429(11) 0.00831 419.6 20.4
448(11) 0.00812 419.5 21.5
436(11) 0.00843 419.4 22.8
441(11) 0.00789 419.2 24.3
439(12) 0.00752 419.1 25.9
449(11) 0.00788 419.0 27.7
461(11) 0.00804 418.9 29.8
448(11) 0.00835 418.7 32.2
479(12) 0.00712 418.6 35.0
454(12) 0.00705 418.5 38.3
453(11) 0.00765 418.3 42.3
479(11) 0.00777 418.2 47.2
437(11) 0.00848 418.1 53.1
450(11) 0.00777 418.0 60.3
506(13) 0.00626 417.8 69.1
499(12) 0.00706 417.7 79.8
511(12) 0.00724 417.6 92.6
526(12) 0.00696 417.5 107.6
551(13) 0.00637 417.3 124.8
579(13) 0.00567 417.2 143.8
605(13) 0.00587 417.1 163.7
647(13) 0.00574 416.9 183.0
648(13) 0.00568 416.8 199.6
621(13) 0.00574 416.7 210.9
667(14) 0.00494 416.6 215.5
628(13) 0.00552 416.4 213.6
635(13) 0.00584 416.3 207.1
616(13) 0.00585 416.2 198.0
623(13) 0.00559 416.1 188.0
642(14) 0.00524 415.9 178.2
616(13) 0.00565 415.8 168.8
579(12) 0.00644 415.7 159.8
597(13) 0.00607 415.5 151.2
565(13) 0.00612 415.4 142.7
555(13) 0.00597 415.3 134.5
584(13) 0.00592 415.2 126.6
556(12) 0.00671 415.0 119.0
527(12) 0.00671 414.9 111.9
537(13) 0.00633 414.8 105.4
513(12) 0.00671 414.7 99.6
509(12) 0.00692 414.5 94.6
546(12) 0.00682 414.4 90.3
538(12) 0.00656 414.3 86.8
533(13) 0.00635 414.1 84.1
510(12) 0.00679 414.0 82.2
522(12) 0.00685 413.9 81.0
514(12) 0.00725 413.8 80.4
517(12) 0.00646 413.6 80.3
495(12) 0.00659 413.5 80.5
508(12) 0.00691 413.4 80.8
501(12) 0.00736 413.3 81.0
515(12) 0.00717 413.1 80.8
503(12) 0.00678 413.0 80.1
490(12) 0.00668 412.9 78.9
485(12) 0.00718 412.7 77.1
518(12) 0.00703 412.6 74.9
484(11) 0.00770 412.5 72.5
462(11) 0.00761 412.4 70.1
475(12) 0.00687 412.2 67.7
485(12) 0.00730 412.1 65.5
468(11) 0.00791 412.0 63.5
434(11) 0.00857 411.9 61.7
460(12) 0.00749 411.7 60.0
472(12) 0.00680 411.6 58.4
477(12) 0.00712 411.5 56.9
469(11) 0.00792 411.3 55.4
454(11) 0.00811 411.2 54.0
456(12) 0.00738 411.1 52.6
451(12) 0.00734 411.0 51.4
489(12) 0.00712 410.8 50.2
486(11) 0.00769 410.7 49.3
457(11) 0.00802 410.6 48.5
451(11) 0.00766 410.5 48.0
436(11) 0.00769 410.3 47.7
419(11) 0.00797 410.2 47.6
457(11) 0.00802 410.1 47.7
487(11) 0.00756 409.9 48.1
467(11) 0.00762 409.8 48.8
472(12) 0.00728 409.7 49.7
474(12) 0.00710 409.6 50.9
442(11) 0.00840 409.4 52.3
447(11) 0.00776 409.3 54.0
483(12) 0.00709 409.2 56.0
443(11) 0.00775 409.1 58.4
460(12) 0.00754 408.9 61.1
457(11) 0.00812 408.8 64.2
448(11) 0.00811 408.7 67.8
481(12) 0.00700 408.5 72.0
482(12) 0.00709 408.4 76.8
507(12) 0.00701 408.3 82.5
504(12) 0.00734 408.2 89.3
472(12) 0.00747 408.0 97.4
492(12) 0.00702 407.9 107.1
514(12) 0.00667 407.8 119.1
522(12) 0.00671 407.7 133.6
560(12) 0.00665 407.5 151.3
586(13) 0.00570 407.4 172.9
568(13) 0.00585 407.3 198.7
598(13) 0.00580 407.1 229.3
660(13) 0.00550 407.0 265.0
687(14) 0.00532 406.9 305.5
747(15) 0.00449 406.8 350.2
793(16) 0.00406 406.6 397.2
838(15) 0.00418 406.5 443.4
900(16) 0.00405 406.4 484.0
896(16) 0.00416 406.3 514.0
905(16) 0.00383 406.1 529.6
895(17) 0.00360 406.0 530.5
916(16) 0.00384 405.9 519.4
935(16) 0.00392 405.7 500.9
885(16) 0.00416 405.6 478.6
837(15) 0.00417 405.5 454.9
815(16) 0.00397 405.4 430.5
814(15) 0.00423 405.2 405.1
781(15) 0.00473 405.1 378.4
722(14) 0.00514 405.0 350.4
689(14) 0.00502 404.9 321.5
666(14) 0.00489 404.7 292.5
672(14) 0.00516 404.6 264.3
647(13) 0.00570 404.5 237.6
608(13) 0.00602 404.3 212.9
607(13) 0.00558 404.2 190.4
554(13) 0.00601 404.1 170.2
568(13) 0.00613 404.0 152.3
554(12) 0.00670 403.8 136.4
543(12) 0.00668 403.7 122.4
513(12) 0.00674 403.6 110.2
491(12) 0.00687 403.5 99.6
510(12) 0.00662 403.3 90.3
505(12) 0.00744 403.2 82.2
500(12) 0.00702 403.1 75.2
468(12) 0.00745 402.9 69.1
483(12) 0.00672 402.8 63.8
438(11) 0.00803 402.7 59.2
452(11) 0.00831 402.6 55.2
455(11) 0.00761 402.4 51.6
476(12) 0.00713 402.3 48.5
482(12) 0.00699 402.2 45.7
446(11) 0.00780 402.1 43.2
447(11) 0.00837 401.9 41.0
458(12) 0.00742 401.8 39.0
432(11) 0.00788 401.7 37.2
426(11) 0.00822 401.5 35.6
444(11) 0.00808 401.4 34.2
452(11) 0.00823 401.3 32.8
445(11) 0.00758 401.2 31.6
422(11) 0.00818 401.0 30.5
441(11) 0.00800 400.9 29.5
478(12) 0.00752 400.8 28.6
434(11) 0.00859 400.7 27.8
421(11) 0.00843 400.5 27.1
456(12) 0.00725 400.4 26.4
438(11) 0.00794 400.3 25.8
447(11) 0.00817 400.1 25.2
425(11) 0.00867 400.0 24.7
400(11) 0.00854 399.9 24.3
392(11) 0.00834 399.8 23.9
416(11) 0.00813 399.6 23.6
420(11) 0.00880 399.5 23.3
421(11) 0.00868 399.4 23.1
405(11) 0.00898 399.2 22.9
463(12) 0.00680 399.1 22.7
412(11) 0.00857 399.0 22.6
402(10) 0.00911 398.9 22.5
437(11) 0.00844 398.7 22.5
434(11) 0.00774 398.6 22.5
447(12) 0.00724 398.5 22.6
435(11) 0.00790 398.4 22.7
429(11) 0.00860 398.2 22.8
396(10) 0.00939 398.1 23.0
399(11) 0.00863 398.0 23.3
399(11) 0.00806 397.8 23.6
412(11) 0.00831 397.7 23.9
391(10) 0.00956 397.6 24.4
421(11) 0.00849 397.5 24.8
413(11) 0.00853 397.3 25.4
437(12) 0.00737 397.2 26.0
420(11) 0.00823 397.1 26.7
432(11) 0.00861 397.0 27.5
419(11) 0.00874 396.8 28.3
426(11) 0.00818 396.7 29.3
419(11) 0.00813 396.6 30.4
450(12) 0.00755 396.4 31.6
450(11) 0.00823 396.3 32.9
436(11) 0.00832 396.2 34.4
473(12) 0.00706 396.1 36.1
439(11) 0.00795 395.9 37.9
441(11) 0.00814 395.8 39.9
444(11) 0.00836 395.7 42.2
464(11) 0.00765 395.6 44.6
477(12) 0.00718 395.4 47.3
480(12) 0.00684 395.3 50.3
434(11) 0.00821 395.2 53.5
460(11) 0.00803 395.0 57.1
464(12) 0.00737 394.9 60.9
483(12) 0.00679 394.8 65.2
489(12) 0.00713 394.7 69.7
489(12) 0.00735 394.5 74.6
484(11) 0.00770 394.4 79.9
505(12) 0.00689 394.3 85.5
519(13) 0.00627 394.2 91.4
486(12) 0.00711 394.0 97.6
502(12) 0.00721 393.9 103.9
502(12) 0.00741 393.8 110.4
525(12) 0.00662 393.6 116.8
527(13) 0.00636 393.5 123.2
541(12) 0.00648 393.4 129.3
551(12) 0.00674 393.3 135.1
566(12) 0.00648 393.1 140.5
574(13) 0.00598 393.0 145.5
556(13) 0.00580 392.9 150.0
566(13) 0.00615 392.8 154.0
571(12) 0.00647 392.6 157.5
594(13) 0.00623 392.5 160.2
549(13) 0.00630 392.4 162.1
531(13) 0.00616 392.2 163.0
559(13) 0.00622 392.1 162.5
554(12) 0.00672 392.0 160.5
524(12) 0.00704 391.9 156.9
547(12) 0.00646 391.7 151.6
558(13) 0.00592 391.6 145.0
526(12) 0.00659 391.5 137.2
480(11) 0.00783 391.4 128.7
502(12) 0.00740 391.2 119.9
500(12) 0.00699 391.1 111.0
504(12) 0.00669 391.0 102.3
501(12) 0.00703 390.8 94.0
492(12) 0.00755 390.7 86.3
509(12) 0.00714 390.6 79.1
433(11) 0.00824 390.5 72.5
469(12) 0.00709 390.3 66.5
444(11) 0.00780 390.2 61.0
434(11) 0.00864 390.1 56.1
436(11) 0.00823 390.0 51.7
424(11) 0.00796 389.8 47.8
416(11) 0.00849 389.7 44.3
448(11) 0.00784 389.6 41.2
428(11) 0.00873 389.4 38.4
409(11) 0.00857 389.3 35.9
438(11) 0.00760 389.2 33.6
415(11) 0.00850 389.1 31.6
427(11) 0.00857 388.9 29.9
423(11) 0.00875 388.8 28.3
426(11) 0.00811 388.7 26.8
407(11) 0.00853 388.6 25.5
396(11) 0.00890 388.4 24.3
422(11) 0.00862 388.3 23.2
392(10) 0.00950 388.2 22.2
401(11) 0.00873 388.0 21.3
387(11) 0.00830 387.9 20.5
365(10) 0.00940 387.8 19.7
378(10) 0.00980 387.7 19.0
417(11) 0.00893 387.5 18.4
379(10) 0.00915 387.4 17.8
415(11) 0.00769 387.3 17.2
404(11) 0.00856 387.2 16.7
393(10) 0.00947 387.0 16.2
406(11) 0.00907 386.9 15.7
395(11) 0.00900 386.8 15.3
409(11) 0.00786 386.6 14.9
438(11) 0.00791 386.5 14.5
411(10) 0.00907 386.4 14.2
412(11) 0.00897 386.3 13.9
392(11) 0.00883 386.1 13.6
385(11) 0.00844 386.0 13.3
387(10) 0.00927 385.9 13.0
415(11) 0.00886 385.8 12.7
406(11) 0.00907 385.6 12.5
405(11) 0.00863 385.5 12.3
412(11) 0.00805 385.4 12.1
410(11) 0.00860 385.2 11.9
427(11) 0.00865 385.1 11.7
363(10) 0.00995 385.0 11.5
387(10) 0.00909 384.9 11.4
397(11) 0.00854 384.7 11.2
355(10) 0.01012 384.6 11.1
401(10) 0.00929 384.5 11.0
381(10) 0.00920 384.4 10.8
428(11) 0.00773 384.3 10.7
406(11) 0.00796 384.2 10.6
394(11) 0.00863 384.1 10.5
393(10) 0.00948 383.9 10.4
389(10) 0.00935 383.8 10.4
358(10) 0.00983 383.7 10.3
388(11) 0.00887 383.6 10.2
395(11) 0.00906 383.5 10.2
410(11) 0.00901 383.4 10.1
424(11) 0.00847 383.3 10.1
412(11) 0.00834 383.2 10.0
395(11) 0.00874 383.1 10.0
394(10) 0.00915 383.0 10.0
399(10) 0.00929 382.9 10.0
404(11) 0.00876 382.8 9.9
406(11) 0.00836 382.7 9.9
377(10) 0.00965 382.6 9.9
394(10) 0.00931 382.4 9.9
382(10) 0.00969 382.3 10.0
404(11) 0.00824 382.2 10.0
387(11) 0.00843 382.1 10.0
378(10) 0.00939 382.0 10.0
364(10) 0.01017 381.9 10.1
405(11) 0.00905 381.8 10.1
396(11) 0.00871 381.7 10.2
395(11) 0.00818 381.6 10.3
389(11) 0.00903 381.5 10.3
380(10) 0.00968 381.4 10.4
378(10) 0.00986 381.3 10.5
395(11) 0.00891 381.2 10.6
387(11) 0.00849 381.1 10.7
404(11) 0.00855 381.0 10.9
382(10) 0.00973 380.8 11.0
412(11) 0.00906 380.7 11.2
370(10) 0.00927 380.6 11.4
397(11) 0.00778 380.5 11.6
380(10) 0.00933 380.4 11.9
378(10) 0.00976 380.3 12.2
380(10) 0.00981 380.2 12.6
373(10) 0.00955 380.1 13.1
400(11) 0.00847 380.0 13.7
384(10) 0.00935 379.9 14.5
390(10) 0.00952 379.8 15.5
396(10) 0.00943 379.7 17.0
427(11) 0.00820 379.6 18.9
382(10) 0.00927 379.5 21.4
434(11) 0.00810 379.4 24.4
377(10) 0.00987 379.2 27.9
396(10) 0.00919 379.1 31.8
433(11) 0.00796 379.0 35.7
434(11) 0.00784 378.9 38.9
433(11) 0.00804 378.8 40.8
439(11) 0.00846 378.7 40.7
440(11) 0.00818 378.6 38.8
424(11) 0.00820 378.5 35.7
407(11) 0.00843 378.4 32.1
408(11) 0.00855 378.3 28.7
391(10) 0.00943 378.2 25.7
408(11) 0.00869 378.1 23.3
404(11) 0.00851 378.0 21.4
392(11) 0.00873 377.9 20.0
424(11) 0.00837 377.7 19.1
412(10) 0.00910 377.6 18.5
427(11) 0.00781 377.5 18.2
410(11) 0.00814 377.4 18.1
413(11) 0.00820 377.3 18.1
411(11) 0.00858 377.2 18.2
395(10) 0.00944 377.1 18.4
375(10) 0.00909 377.0 18.6
386(11) 0.00842 376.9 18.9
395(11) 0.00873 376.8 19.2
410(11) 0.00876 376.7 19.6
394(10) 0.00952 376.6 19.9
427(11) 0.00821 376.5 20.3
400(11) 0.00828 376.4 20.8
398(10) 0.00909 376.3 21.2
410(11) 0.00883 376.1 21.7
410(10) 0.00910 376.0 22.2
435(11) 0.00763 375.9 22.8
410(11) 0.00774 375.8 23.4
395(11) 0.00876 375.7 24.0
422(11) 0.00881 375.6 24.6
402(10) 0.00926 375.5 25.2
422(11) 0.00825 375.4 25.9
420(12) 0.00754 375.3 26.6
415(11) 0.00826 375.2 27.4
404(10) 0.00925 375.1 28.1
418(11) 0.00883 375.0 28.9
421(11) 0.00841 374.9 29.8
427(11) 0.00771 374.8 30.6
434(11) 0.00801 374.7 31.5
414(11) 0.00905 374.5 32.5
401(10) 0.00915 374.4 33.5
406(11) 0.00859 374.3 34.5
441(12) 0.00735 374.2 35.6
427(11) 0.00823 374.1 36.7
407(10) 0.00910 374.0 37.9
412(11) 0.00900 373.9 39.1
418(11) 0.00810 373.8 40.4
428(11) 0.00762 373.7 41.8
419(11) 0.00833 373.6 43.3
417(11) 0.00891 373.5 44.9
418(11) 0.00858 373.4 46.6
411(11) 0.00839 373.3 48.3
421(11) 0.00799 373.2 50.3
405(11) 0.00869 373.0 52.3
392(10) 0.00943 372.9 54.5
441(11) 0.00808 372.8 56.8
461(12) 0.00750 372.7 59.4
417(11) 0.00846 372.6 62.1
433(11) 0.00822 372.5 64.9
450(11) 0.00830 372.4 68.0
446(11) 0.00772 372.3 71.3
494(12) 0.00670 372.2 74.7
444(11) 0.00773 372.1 78.2
491(12) 0.00721 372.0 81.9
494(12) 0.00749 371.9 85.6
487(12) 0.00722 371.8 89.2
453(11) 0.00765 371.7 92.8
471(12) 0.00725 371.6 96.1
453(11) 0.00793 371.4 99.0
474(11) 0.00791 371.3 101.5
495(12) 0.00690 371.2 103.5
476(12) 0.00724 371.1 104.7
499(12) 0.00701 371.0 105.3
440(11) 0.00836 370.9 105.2
445(11) 0.00835 370.8 104.4
448(11) 0.00770 370.7 103.0
461(12) 0.00705 370.6 101.0
447(11) 0.00795 370.5 98.6
462(11) 0.00799 370.4 95.9
432(11) 0.00869 370.3 92.9
441(11) 0.00802 370.2 89.7
443(12) 0.00717 370.1 86.5
432(11) 0.00790 370.0 83.2
455(11) 0.00815 369.8 80.0
458(11) 0.00809 369.7 76.9
437(11) 0.00781 369.6 73.9
451(12) 0.00719 369.5 71.1
453(11) 0.00774 369.4 68.5
432(11) 0.00871 369.3 66.0
426(11) 0.00856 369.2 63.8
445(11) 0.00762 369.1 61.8
407(11) 0.00811 369.0 60.1
432(11) 0.00797 368.9 58.5
421(11) 0.00890 368.8 57.1
455(11) 0.00788 368.7 56.0
436(12) 0.00751 368.6 55.1
404(11) 0.00805 368.5 54.3
424(11) 0.00815 368.3 53.8
443(11) 0.00842 368.2 53.4
390(10) 0.00931 368.1 53.3
409(11) 0.00795 368.0 53.3
406(11) 0.00807 367.9 53.6
401(11) 0.00880 367.8 54.0
420(11) 0.00885 367.7 54.6
404(11) 0.00904 367.6 55.5
439(11) 0.00778 367.5 56.6
428(11) 0.00799 367.4 57.8
450(11) 0.00791 367.3 59.4
423(11) 0.00879 367.2 61.2
431(11) 0.00833 367.1 63.3
455(12) 0.00738 367.0 65.7
444(11) 0.00757 366.9 68.4
395(11) 0.00901 366.7 71.5
451(11) 0.00823 366.6 75.0
442(11) 0.00773 366.5 79.0
442(12) 0.00748 366.4 83.5
466(12) 0.00735 366.3 88.5
444(11) 0.00814 366.2 94.2
452(11) 0.00827 366.1 100.5
482(12) 0.00709 366.0 107.5
445(11) 0.00780 365.9 115.4
476(12) 0.00734 365.8 124.0
517(12) 0.00699 365.7 133.7
506(12) 0.00737 365.6 144.2
517(12) 0.00690 365.5 155.8
506(12) 0.00681 365.4 168.5
559(13) 0.00629 365.3 182.3
570(12) 0.00647 365.1 197.1
574(13) 0.00640 365.0 212.9
615(13) 0.00563 364.9 229.5
662(14) 0.00485 364.8 246.9
672(14) 0.00517 364.7 264.7
693(14) 0.00530 364.6 282.4
712(14) 0.00519 364.5 299.5
678(14) 0.00521 364.4 315.5
713(15) 0.00437 364.3 329.6
716(14) 0.00483 364.2 341.1
764(14) 0.00477 364.1 349.3
708(14) 0.00527 364.0 353.8
661(14) 0.00543 363.9 354.4
669(14) 0.00492 363.8 351.0
658(14) 0.00543 363.6 344.1
670(13) 0.00556 363.5 334.1
593(13) 0.00613 363.4 321.8
599(13) 0.00587 363.3 307.9
609(14) 0.00549 363.2 292.9
590(13) 0.00578 363.1 277.5
567(12) 0.00653 363.0 262.0
576(13) 0.00623 362.9 246.9
588(13) 0.00588 362.8 232.1
522(12) 0.00665 362.7 218.0
574(13) 0.00591 362.6 204.6
540(12) 0.00684 362.5 191.9
522(12) 0.00682 362.4 180.0
544(13) 0.00626 362.3 168.8
538(12) 0.00643 362.2 158.4
501(12) 0.00715 362.0 148.7
518(12) 0.00717 361.9 139.8
529(12) 0.00665 361.8 131.6
492(12) 0.00720 361.7 124.0
502(12) 0.00666 361.6 117.0
444(11) 0.00816 361.5 110.6
451(11) 0.00830 361.4 104.7
493(12) 0.00695 361.3 99.2
426(11) 0.00800 361.2 94.0
465(12) 0.00723 361.1 89.2
414(11) 0.00856 361.0 84.5
405(10) 0.00925 360.9 80.1
474(12) 0.00733 360.8 75.9
464(12) 0.00704 360.7 71.8
459(12) 0.00753 360.6 67.9
445(11) 0.00808 360.4 64.2
460(11) 0.00813 360.3 60.7
457(12) 0.00733 360.2 57.4
453(12) 0.00725 360.1 54.3
422(11) 0.00846 360.0 51.4
407(11) 0.00902 359.9 48.6
418(11) 0.00890 359.8 46.1
413(11) 0.00838 359.7 43.7
408(11) 0.00798 359.6 41.5
421(11) 0.00833 359.5 39.5
399(10) 0.00935 359.4 37.6
400(10) 0.00932 359.3 35.8
387(11) 0.00905 359.2 34.2
395(11) 0.00809 359.1 32.7
401(11) 0.00886 358.9 31.3
406(10) 0.00919 358.8 30.0
387(10) 0.00959 358.7 28.7
410(11) 0.00798 358.6 27.6
406(11) 0.00789 358.5 26.5
399(11) 0.00871 358.4 25.6
378(10) 0.00970 358.3 24.6
370(10) 0.01005 358.2 23.8
377(10) 0.00925 358.1 23.0
380(11) 0.00843 358.0 22.2
389(11) 0.00876 357.9 21.5
379(10) 0.00976 357.8 20.8
368(10) 0.01001 357.7 20.2
410(11) 0.00843 357.6 19.6
389(11) 0.00851 357.5 19.0
391(11) 0.00886 357.3 18.5
377(10) 0.00990 357.2 18.0
375(10) 0.00951 357.1 17.5
403(11) 0.00837 357.0 17.1
357(10) 0.00994 356.9 16.7
383(11) 0.00903 356.8 16.3
398(10) 0.00932 356.7 15.9
401(11) 0.00872 356.6 15.5
371(10) 0.00914 356.5 15.2
355(10) 0.00975 356.4 14.9
372(10) 0.00935 356.3 14.6
393(10) 0.00954 356.2 14.3
373(10) 0.00940 356.1 14.0
398(11) 0.00835 356.0 13.7
360(10) 0.00974 355.9 13.5
367(10) 0.00973 355.7 13.3
374(10) 0.00999 355.6 13.1
376(11) 0.00894 355.5 12.9
369(10) 0.00914 355.4 12.7
374(10) 0.00948 355.3 12.5
380(10) 0.00981 355.2 12.4
361(10) 0.01030 355.1 12.3
354(10) 0.00977 355.0 12.1
373(11) 0.00892 354.9 12.0
386(11) 0.00871 354.8 12.0
371(10) 0.01003 354.7 11.9
376(10) 0.00976 354.6 11.8
363(10) 0.00941 354.5 11.8
357(10) 0.00914 354.4 11.8
358(10) 0.00988 354.2 11.8
383(10) 0.00950 354.1 11.8
379(10) 0.00968 354.0 11.8
359(10) 0.00952 353.9 11.9
365(11) 0.00892 353.8 11.9
376(10) 0.00927 353.7 12.0
352(10) 0.01052 353.6 12.2
367(10) 0.01011 353.5 12.3
366(10) 0.00944 353.4 12.4
393(11) 0.00799 353.3 12.6
367(10) 0.00951 353.2 12.8
361(10) 0.01051 353.1 13.0
359(10) 0.01021 353.0 13.2
366(10) 0.00960 352.9 13.4
367(10) 0.00925 352.8 13.6
348(10) 0.01027 352.6 13.8
370(10) 0.01015 352.5 14.0
369(10) 0.01004 352.4 14.2
386(11) 0.00892 352.3 14.4
372(10) 0.00932 352.2 14.5
374(10) 0.00924 352.1 14.5
401(10) 0.00917 352.0 14.5
345(10) 0.01045 351.9 14.5
358(10) 0.00960 351.8 14.4
354(10) 0.00941 351.7 14.2
350(10) 0.00987 351.6 14.0
365(10) 0.01026 351.5 13.8
353(10) 0.01004 351.4 13.5
353(10) 0.00966 351.3 13.2
366(10) 0.00924 351.2 12.8
382(10) 0.00924 351.0 12.4
354(10) 0.01052 350.9 12.1
330(10) 0.01072 350.8 11.7
355(10) 0.00946 350.7 11.3
353(10) 0.00971 350.6 11.0
374(10) 0.00939 350.5 10.6
351(10) 0.01060 350.4 10.3
381(11) 0.00889 350.3 10.0
353(10) 0.00951 350.2 9.7
352(10) 0.00953 350.1 9.4
348(10) 0.01049 350.0 9.1
359(10) 0.01035 349.9 8.9
376(10) 0.00919 349.8 8.6
370(11) 0.00886 349.7 8.4
354(10) 0.00970 349.5 8.2
357(10) 0.01015 349.4 8.0
347(10) 0.01070 349.3 7.8
351(10) 0.00982 349.2 7.7
352(10) 0.00920 349.1 7.5
364(10) 0.00929 349.0 7.4
368(10) 0.00984 348.9 7.3
363(10) 0.01024 348.8 7.1
373(10) 0.00911 348.7 7.0
360(11) 0.00903 348.6 6.9
348(10) 0.00998 348.5 6.8
355(10) 0.01033 348.4 6.8
372(10) 0.00991 348.3 6.7
362(10) 0.00962 348.2 6.6
339(10) 0.00972 348.1 6.5
354(10) 0.00974 347.9 6.5
372(10) 0.00994 347.8 6.4
365(10) 0.00981 347.7 6.4
362(10) 0.00957 347.6 6.3
340(10) 0.00950 347.5 6.3
351(10) 0.00974 347.4 6.3
362(10) 0.01032 347.3 6.2
379(10) 0.00952 347.2 6.2
368(10) 0.00957 347.1 6.2
363(10) 0.00937 347.0 6.2
350(10) 0.00982 346.9 6.2
346(10) 0.01064 346.8 6.2
356(10) 0.01000 346.7 6.2
351(10) 0.00953 346.6 6.2
335(10) 0.01032 346.5 6.2
347(10) 0.00992 346.3 6.2
349(10) 0.01055 346.2 6.2
363(10) 0.00978 346.1 6.2
368(10) 0.00935 346.0 6.2
364(10) 0.00914 345.9 6.3
338(10) 0.01024 345.8 6.3
359(10) 0.01040 345.7 6.3
342(10) 0.01048 345.6 6.4
361(10) 0.00976 345.5 6.4
392(11) 0.00865 345.4 6.5
374(10) 0.00960 345.3 6.5
347(10) 0.01053 345.2 6.6
363(10) 0.00924 345.1 6.6
382(11) 0.00870 345.0 6.7
356(10) 0.00957 344.9 6.8
353(10) 0.01033 344.7 6.9
368(10) 0.01017 344.6 7.0
355(10) 0.00984 344.5 7.1
381(11) 0.00868 344.4 7.2
342(10) 0.01029 344.3 7.3
355(10) 0.01014 344.2 7.4
347(10) 0.01071 344.1 7.5
352(10) 0.00986 344.0 7.7
362(11) 0.00896 343.9 7.8
378(10) 0.00910 343.8 8.0
362(10) 0.01012 343.7 8.2
364(10) 0.01017 343.6 8.3
391(11) 0.00899 343.5 8.5
372(11) 0.00880 343.4 8.7
361(10) 0.00995 343.2 9.0
399(10) 0.00913 343.1 9.2
366(10) 0.01015 343.0 9.5
378(10) 0.00927 342.9 9.7
367(11) 0.00882 342.8 10.0
372(10) 0.00918 342.7 10.3
367(10) 0.01010 342.6 10.6
380(10) 0.00969 342.5 11.0
346(10) 0.01034 342.4 11.3
351(10) 0.00964 342.3 11.7
340(10) 0.01038 342.2 12.1
353(10) 0.01063 342.1 12.5
386(10) 0.00938 342.0 13.0
356(10) 0.01014 341.9 13.4
377(11) 0.00877 341.8 13.9
353(10) 0.00953 341.6 14.4
369(10) 0.00996 341.5 15.0
343(10) 0.01070 341.4 15.5
364(10) 0.00931 341.3 16.1
379(11) 0.00857 341.2 16.6
372(10) 0.00913 341.1 17.2
376(10) 0.00991 341.0 17.8
359(10) 0.00981 340.9 18.5
372(10) 0.00938 340.8 19.1
380(10) 0.00914 340.7 19.7
358(10) 0.01001 340.6 20.3
328(9) 0.01139 340.5 20.9
329(10) 0.01084 340.4 21.5
357(10) 0.00919 340.3 22.0
358(10) 0.00947 340.2 22.5
400(11) 0.00893 340.0 23.0
365(10) 0.01019 339.9 23.5
358(10) 0.00993 339.8 23.9
378(11) 0.00893 339.7 24.2
360(10) 0.00966 339.6 24.5
353(10) 0.01008 339.5 24.7
355(10) 0.01050 339.4 24.9
386(11) 0.00876 339.3 25.0
349(10) 0.00989 339.2 25.0
365(10) 0.00985 339.1 24.9
389(10) 0.00953 339.0 24.8
390(10) 0.00948 338.9 24.6
374(10) 0.00930 338.8 24.4
380(11) 0.00866 338.7 24.0
375(10) 0.00922 338.5 23.7
398(10) 0.00916 338.4 23.2
405(10) 0.00912 338.3 22.7
380(11) 0.00905 338.2 22.2
371(11) 0.00877 338.1 21.6
358(10) 0.00986 338.0 21.0
368(10) 0.01017 337.9 20.3
358(10) 0.01021 337.8 19.7
380(10) 0.00928 337.7 19.0
344(10) 0.00990 337.6 18.4
352(10) 0.01001 337.5 17.8
374(10) 0.00995 337.4 17.1
361(10) 0.01025 337.3 16.5
379(11) 0.00905 337.2 15.9
373(11) 0.00890 337.1 15.4
339(10) 0.01029 336.9 14.8
356(10) 0.01042 336.8 14.3
377(10) 0.00978 336.7 13.9
354(10) 0.01005 336.6 13.4
388(11) 0.00831 336.5 13.0
345(10) 0.01025 336.4 12.6
360(10) 0.01028 336.3 12.2
345(10) 0.01047 336.2 11.9
355(10) 0.00992 336.1 11.6
340(10) 0.00996 336.0 11.3
359(10) 0.00978 335.9 11.0
339(10) 0.01094 335.8 10.8
338(10) 0.01049 335.7 10.6
352(10) 0.00954 335.6 10.4
353(10) 0.00938 335.5 10.2
337(10) 0.01030 335.3 10.0
355(10) 0.01055 335.2 9.9
349(10) 0.01020 335.1 9.8
365(10) 0.00941 335.0 9.6
351(10) 0.00968 334.9 9.6
345(10) 0.00995 334.8 9.5
333(9) 0.01118 334.7 9.4
340(10) 0.01052 334.6 9.4
326(10) 0.01052 334.5 9.3
350(10) 0.00996 334.4 9.3
351(10) 0.01045 334.3 9.3
344(10) 0.01076 334.2 9.3
334(10) 0.01035 334.1 9.3
356(10) 0.00929 334.0 9.3
359(10) 0.00948 333.8 9.4
386(10) 0.00939 333.7 9.4
340(10) 0.01077 333.6 9.5
328(10) 0.01099 333.5 9.5
354(10) 0.00952 333.4 9.6
364(10) 0.00947 333.3 9.7
371(10) 0.00972 333.2 9.7
345(10) 0.01080 333.1 9.8
364(10) 0.00972 333.0 9.9
320(9) 0.01110 332.9 10.0
378(10) 0.00918 332.8 10.1
355(10) 0.01058 332.7 10.2
357(10) 0.01011 332.6 10.3
357(10) 0.00998 332.5 10.3
342(10) 0.00937 332.4 10.4
316(10) 0.01102 332.2 10.5
335(10) 0.01096 332.1 10.6
343(10) 0.01090 332.0 10.7
359(10) 0.00983 331.9 10.7
349(10) 0.00953 331.8 10.8
347(10) 0.01027 331.7 10.8
358(10) 0.01028 331.6 10.8
355(10) 0.01038 331.5 10.9
336(10) 0.01023 331.4 10.9
326(10) 0.01013 331.3 10.9
382(11) 0.00873 331.2 10.8
375(10) 0.00994 331.1 10.8
356(10) 0.01042 331.0 10.7
366(10) 0.00928 330.9 10.7
354(10) 0.00960 330.8 10.6
352(10) 0.00973 330.6 10.5
318(9) 0.01161 330.5 10.4
365(10) 0.00970 330.4 10.3
344(10) 0.01010 330.3 10.2
349(10) 0.00981 330.2 10.0
325(10) 0.01103 330.1 9.9
326(9) 0.01139 330.0 9.7
346(10) 0.01033 329.9 9.6
347(10) 0.00995 329.8 9.4
328(10) 0.01029 329.7 9.3
315(10) 0.01072 329.6 9.1
339(10) 0.01107 329.5 8.9
348(10) 0.01019 329.4 8.7
345(10) 0.01011 329.3 8.5
347(10) 0.00961 329.1 8.4
342(10) 0.01051 329.0 8.2
365(10) 0.01013 328.9 8.0
336(10) 0.01045 328.8 7.8
327(10) 0.01012 328.7 7.7
338(10) 0.01036 328.6 7.5
359(10) 0.01005 328.5 7.3
326(9) 0.01126 328.4 7.2
338(10) 0.01008 328.3 7.0
351(10) 0.00927 328.2 6.9
339(10) 0.01016 328.1 6.7
344(10) 0.01068 328.0 6.6
331(9) 0.01112 327.9 6.4
338(10) 0.01046 327.8 6.3
353(11) 0.00896 327.7 6.2
350(10) 0.00975 327.5 6.0
340(10) 0.01070 327.4 5.9
326(9) 0.01128 327.3 5.8
353(10) 0.00972 327.2 5.7
337(10) 0.00979 327.1 5.6
351(10) 0.00983 327.0 5.4
321(9) 0.01166 326.9 5.3
351(10) 0.01063 326.8 5.2
347(10) 0.00990 326.7 5.1
341(10) 0.00945 326.6 5.0
351(10) 0.00953 326.5 5.0
343(10) 0.01056 326.4 4.9
338(10) 0.01091 326.3 4.8
340(10) 0.01026 326.2 4.7
313(10) 0.01063 326.1 4.6
305(9) 0.01153 325.9 4.6
316(9) 0.01181 325.8 4.5
327(9) 0.01138 325.7 4.4
314(10) 0.01098 325.6 4.4
330(10) 0.00977 325.5 4.3
318(10) 0.01050 325.4 4.2
325(9) 0.01148 325.3 4.2
353(10) 0.00995 325.2 4.1
348(10) 0.00986 325.1 4.1
339(10) 0.00950 325.0 4.0
342(10) 0.00976 324.9 4.0
336(10) 0.01105 324.8 3.9
320(10) 0.01086 324.7 3.9
322(10) 0.01080 324.6 3.9
322(10) 0.01064 324.4 3.8
347(10) 0.01014 324.3 3.8
333(10) 0.01106 324.2 3.8
327(10) 0.01106 324.1 3.7
325(10) 0.01055 324.0 3.7
333(10) 0.01027 323.9 3.7
345(10) 0.01023 323.8 3.6
348(10) 0.01075 323.7 3.6
342(10) 0.01027 323.6 3.6
331(10) 0.01010 323.5 3.6
324(10) 0.01047 323.4 3.5
350(10) 0.01040 323.3 3.5
347(10) 0.01072 323.2 3.5
329(10) 0.01040 323.1 3.5
323(10) 0.01037 323.0 3.5
333(10) 0.01070 322.8 3.5
327(9) 0.01119 322.7 3.4
345(10) 0.01079 322.6 3.4
342(10) 0.01028 322.5 3.4
338(10) 0.00974 322.4 3.4
330(10) 0.01025 322.3 3.4
342(10) 0.01079 322.2 3.4
314(9) 0.01174 322.1 3.4
335(10) 0.01030 322.0 3.4
324(10) 0.01017 321.9 3.4
328(10) 0.01060 321.8 3.4
339(10) 0.01104 321.7 3.4
318(9) 0.01175 321.6 3.4
365(10) 0.00951 321.5 3.4
335(10) 0.00960 321.4 3.4
323(10) 0.01054 321.2 3.4
312(9) 0.01192 321.1 3.4
372(10) 0.00987 321.0 3.4
331(10) 0.01025 320.9 3.4
341(10) 0.00937 320.8 3.4
340(10) 0.01010 320.7 3.4
330(9) 0.01116 320.6 3.4
318(9) 0.01169 320.5 3.5
320(10) 0.01090 320.4 3.5
321(10) 0.01037 320.3 3.5
339(10) 0.00996 320.2 3.5
305(9) 0.01222 320.1 3.5
333(10) 0.01081 320.0 3.6
317(10) 0.01066 319.9 3.6
324(10) 0.00996 319.7 3.6
321(10) 0.01102 319.6 3.6
340(10) 0.01093 319.5 3.7
346(10) 0.01046 319.4 3.7
324(10) 0.01083 319.3 3.7
331(10) 0.01042 319.2 3.8
341(10) 0.00995 319.1 3.8
308(9) 0.01215 319.0 3.9
317(9) 0.01132 318.9 3.9
314(9) 0.01109 318.8 4.0
316(10) 0.01086 318.7 4.0
341(10) 0.01051 318.6 4.1
332(9) 0.01125 318.6 4.1
280(9) 0.01306 318.5 4.2
354(10) 0.00956 318.5 4.3
328(10) 0.01043 318.4 4.4
328(10) 0.01079 318.3 4.5
320(9) 0.01161 318.3 4.5
352(10) 0.00966 318.2 4.6
363(11) 0.00893 318.1 4.8
315(9) 0.01115 318.1 4.9
343(10) 0.01048 318.0 5.0
330(9) 0.01122 317.9 5.1
317(10) 0.01064 317.9 5.3
328(10) 0.00974 317.8 5.5
321(10) 0.01095 317.7 5.6
306(9) 0.01213 317.7 5.8
312(9) 0.01190 317.6 6.0
342(10) 0.01009 317.5 6.3
313(10) 0.01066 317.5 6.6
310(9) 0.01129 317.4 6.9
314(9) 0.01188 317.3 7.2
328(9) 0.01141 317.3 7.6
324(10) 0.01031 317.2 8.0
315(10) 0.01001 317.1 8.5
336(10) 0.01058 317.1 9.0
325(9) 0.01131 317.0 9.7
342(10) 0.01091 316.9 10.3
315(9) 0.01112 316.9 11.1
316(10) 0.01021 316.8 12.0
356(10) 0.00956 316.7 12.9
343(10) 0.01062 316.7 14.0
318(9) 0.01154 316.6 15.1
345(10) 0.00981 316.5 16.4
335(10) 0.01007 316.5 17.7
319(9) 0.01109 316.4 19.2
304(9) 0.01232 316.3 20.7
303(9) 0.01210 316.3 22.2
344(10) 0.00969 316.2 23.8
368(11) 0.00867 316.1 25.3
344(10) 0.00993 316.1 26.6
360(10) 0.01027 316.0 27.7
332(9) 0.01118 315.9 28.6
350(10) 0.00973 315.9 29.1
326(10) 0.01034 315.8 29.2
320(10) 0.01080 315.7 29.0
334(9) 0.01117 315.7 28.5
336(10) 0.01074 315.6 27.8
326(10) 0.01046 315.6 27.0
315(9) 0.01123 315.5 26.0
335(10) 0.01060 315.4 25.1
310(9) 0.01207 315.4 24.1
341(10) 0.01031 315.3 23.2
328(10) 0.01055 315.2 22.4
335(10) 0.01038 315.2 21.6
338(10) 0.01091 315.1 20.8
321(9) 0.01157 315.0 20.0
325(10) 0.01068 315.0 19.3
340(10) 0.00982 314.9 18.5
341(10) 0.01003 314.8 17.8
311(9) 0.01205 314.8 17.0
323(9) 0.01142 314.7 16.3
332(10) 0.01021 314.6 15.6
329(10) 0.00991 314.6 14.9
314(9) 0.01109 314.5 14.3
340(10) 0.01021 314.4 13.7
336(10) 0.01091 314.4 13.2
336(10) 0.01031 314.3 12.8
325(10) 0.01009 314.2 12.4
323(10) 0.01089 314.2 12.0
322(9) 0.01149 314.1 11.7
330(9) 0.01141 314.0 11.5
335(10) 0.01068 314.0 11.3
304(9) 0.01116 313.9 11.1
345(10) 0.00999 313.8 11.0
333(9) 0.01114 313.8 11.0
317(9) 0.01144 313.7 10.9
312(9) 0.01165 313.6 11.0
330(10) 0.00966 313.6 11.1
318(9) 0.01117 313.5 11.2
352(10) 0.01064 313.4 11.3
311(9) 0.01181 313.4 11.5
304(9) 0.01164 313.3 11.8
326(10) 0.01017 313.2 12.1
313(10) 0.01073 313.2 12.5
313(9) 0.01193 313.1 13.0
342(10) 0.01085 313.0 13.5
332(10) 0.01050 313.0 14.1
340(10) 0.00970 312.9 14.7
316(9) 0.01121 312.8 15.4
307(9) 0.01203 312.8 16.2
312(9) 0.01164 312.7 16.9
322(10) 0.01069 312.7 17.7
330(10) 0.01058 312.6 18.5
344(10) 0.01038 312.5 19.1
331(9) 0.01121 312.5 19.7
329(10) 0.01082 312.4 20.1
326(10) 0.01036 312.3 20.4
315(9) 0.01115 312.3 20.6
345(10) 0.01019 312.2 20.7
297(9) 0.01258 312.1 20.7
314(9) 0.01156 312.1 20.6
307(9) 0.01128 312.0 20.5
329(10) 0.01014 311.9 20.4
311(9) 0.01138 311.9 20.2
325(9) 0.01133 311.8 19.9
312(10) 0.01107 311.7 19.6
322(10) 0.01045 311.7 19.2
369(10) 0.00914 311.6 18.7
338(10) 0.01074 311.5 18.2
315(9) 0.01178 311.5 17.7
309(9) 0.01134 311.4 17.1
335(10) 0.00982 311.3 16.5
339(10) 0.01029 311.3 15.9
340(10) 0.01039 311.2 15.4
332(9) 0.01132 311.1 14.8
327(10) 0.01025 311.1 14.3
358(11) 0.00896 311.0 13.8
337(10) 0.01034 310.9 13.3
309(9) 0.01200 310.9 12.9
330(10) 0.01103 310.8 12.5
309(10) 0.01101 310.7 12.2
308(10) 0.01078 310.7 11.8
336(10) 0.01015 310.6 11.6
332(10) 0.01089 310.5 11.3
323(9) 0.01133 310.5 11.1
336(10) 0.00999 310.4 11.0
312(10) 0.01040 310.3 10.8
333(10) 0.01052 310.3 10.7
286(9) 0.01300 310.2 10.6
310(9) 0.01172 310.1 10.6
292(9) 0.01172 310.1 10.5
309(10) 0.01086 310.0 10.5
345(10) 0.01049 309.9 10.6
312(9) 0.01194 309.9 10.6
306(9) 0.01200 309.8 10.7
314(9) 0.01133 309.8 10.7
317(10) 0.01047 309.7 10.8
316(9) 0.01108 309.6 11.0
325(9) 0.01148 309.6 11.1
303(9) 0.01202 309.5 11.3
335(10) 0.01034 309.4 11.4
321(10) 0.01073 309.4 11.6
323(10) 0.01035 309.3 11.8
347(10) 0.01073 309.2 12.0
344(10) 0.01043 309.2 12.3
349(10) 0.01033 309.1 12.5
329(10) 0.01035 309.0 12.8
321(10) 0.01087 309.0 13.0
332(9) 0.01122 308.9 13.3
342(10) 0.01056 308.8 13.6
318(10) 0.01103 308.8 13.9
316(10) 0.01075 308.7 14.2
323(10) 0.01093 308.6 14.5
323(9) 0.01156 308.6 14.8
324(10) 0.01077 308.5 15.2
306(9) 0.01141 308.4 15.5
320(10) 0.01059 308.4 15.8
342(10) 0.01029 308.3 16.1
337(10) 0.01090 308.2 16.4
339(10) 0.00986 308.2 16.8
311(10) 0.01091 308.1 17.1
343(10) 0.00973 308.0 17.3
321(9) 0.01138 308.0 17.6
339(10) 0.01095 307.9 17.9
341(10) 0.00983 307.8 18.1
323(10) 0.01050 307.8 18.3
315(9) 0.01131 307.7 18.5
335(10) 0.01043 307.6 18.7
321(9) 0.01155 307.6 18.9
336(10) 0.00997 307.5 19.0
319(10) 0.00994 307.4 19.1
329(10) 0.01030 307.4 19.2
314(9) 0.01176 307.3 19.2
333(10) 0.01103 307.2 19.2
323(10) 0.01058 307.2 19.2
327(10) 0.00965 307.1 19.2
350(10) 0.00960 307.0 19.2
342(10) 0.01079 307.0 19.1
343(10) 0.01076 306.9 19.1
335(10) 0.01040 306.9 19.0
325(10) 0.00996 306.8 18.9
319(10) 0.01095 306.7 18.9
318(9) 0.01187 306.7 18.8
332(10) 0.01085 306.6 18.7
309(9) 0.01109 306.5 18.6
286(9) 0.01129 306.5 18.6
315(10) 0.01079 306.4 18.5
312(9) 0.01198 306.3 18.5
328(10) 0.01100 306.3 18.5
298(9) 0.01186 306.2 18.5
337(10) 0.00969 306.1 18.5
343(10) 0.00990 306.1 18.6
298(9) 0.01251 306.0 18.7
322(9) 0.01122 305.9 18.8
333(10) 0.01040 305.9 19.0
337(10) 0.00996 305.8 19.1
333(10) 0.01075 305.7 19.4
328(9) 0.01134 305.7 19.6
309(9) 0.01161 305.6 19.9
318(10) 0.01075 305.5 20.2
329(10) 0.01032 305.5 20.6
334(10) 0.01031 305.4 21.0
326(9) 0.01136 305.3 21.5
302(9) 0.01204 305.3 22.0
334(10) 0.01006 305.2 22.5
350(10) 0.00967 305.1 23.1
323(9) 0.01124 305.1 23.7
330(9) 0.01124 305.0 24.4
334(10) 0.01009 304.9 25.1
341(10) 0.00976 304.9 25.9
371(10) 0.00908 304.8 26.7
348(10) 0.01018 304.7 27.5
344(10) 0.01081 304.7 28.3
360(10) 0.00962 304.6 29.2
371(10) 0.00917 304.5 30.0
356(10) 0.00975 304.5 30.9
335(9) 0.01118 304.4 31.7
333(9) 0.01116 304.3 32.5
366(10) 0.00958 304.3 33.3
356(10) 0.00938 304.2 34.0
355(10) 0.00992 304.1 34.6
331(9) 0.01124 304.1 35.1
349(10) 0.01058 304.0 35.6
324(10) 0.01069 304.0 35.9
361(11) 0.00869 303.9 36.1
355(10) 0.00965 303.8 36.1
342(10) 0.01078 303.8 36.0
322(9) 0.01157 303.7 35.8
352(10) 0.00986 303.6 35.4
352(10) 0.00937 303.6 34.9
328(10) 0.01086 303.5 34.3
324(9) 0.01147 303.4 33.6
338(10) 0.01075 303.4 32.8
333(10) 0.01063 303.3 31.9
341(10) 0.00981 303.2 31.0
334(10) 0.01050 303.2 30.0
327(9) 0.01144 303.1 29.0
333(10) 0.01098 303.0 27.9
327(10) 0.01032 303.0 26.9
342(10) 0.00946 302.9 25.9
311(9) 0.01135 302.8 24.9
343(10) 0.01083 302.8 23.9
319(9) 0.01128 302.7 22.9
333(10) 0.01046 302.6 22.0
352(10) 0.00969 302.6 21.1
322(10) 0.01107 302.5 20.2
306(9) 0.01213 302.4 19.3
352(10) 0.00983 302.4 18.6
340(10) 0.01002 302.3 17.8
340(10) 0.01023 302.2 17.1
319(9) 0.01120 302.2 16.4
323(9) 0.01159 302.1 15.7
334(10) 0.01054 302.0 15.1
319(10) 0.01087 302.0 14.5
330(10) 0.01066 301.9 14.0
339(10) 0.01052 301.8 13.5
298(9) 0.01246 301.8 13.0
319(9) 0.01123 301.7 12.6
332(10) 0.01007 301.6 12.1
320(10) 0.01062 301.6 11.7
314(9) 0.01142 301.5 11.4
311(9) 0.01186 301.4 11.0
317(10) 0.01067 301.4 10.7
291(9) 0.01163 301.3 10.4
317(10) 0.01074 301.2 10.1
301(9) 0.01203 301.2 9.9
331(9) 0.01131 301.1 9.6
312(10) 0.01105 301.1 9.4
316(10) 0.01003 301.0 9.2
307(10) 0.01096 300.9 9.0
312(9) 0.01160 300.9 8.8
310(9) 0.01197 300.8 8.7
330(10) 0.01041 300.7 8.5
322(10) 0.01021 300.7 8.4
316(9) 0.01109 300.6 8.3
315(9) 0.01178 300.5 8.2
320(9) 0.01149 300.5 8.1
318(9) 0.01117 300.4 8.0
311(10) 0.01009 300.3 7.9
320(10) 0.01108 300.3 7.8
330(9) 0.01130 300.2 7.7
309(9) 0.01187 300.1 7.6
301(9) 0.01177 300.1 7.5
320(10) 0.01028 300.0 7.5
291(9) 0.01233 299.9 7.4
309(9) 0.01204 299.9 7.3
325(9) 0.01135 299.8 7.2
314(9) 0.01112 299.7 7.2
312(10) 0.01059 299.7 7.1
308(9) 0.01119 299.6 7.0
328(9) 0.01117 299.5 6.9
295(9) 0.01231 299.5 6.8
321(10) 0.01080 299.4 6.7
319(10) 0.01062 299.3 6.6
303(9) 0.01156 299.3 6.5
316(9) 0.01179 299.2 6.4
312(9) 0.01156 299.1 6.3
310(9) 0.01111 299.1 6.2
313(10) 0.01089 299.0 6.1
317(10) 0.01100 298.9 6.0
314(9) 0.01173 298.9 5.9
296(9) 0.01153 298.8 5.8
332(10) 0.00979 298.7 5.7
314(10) 0.01058 298.7 5.6
282(9) 0.01257 298.6 5.5
319(9) 0.01168 298.5 5.4
310(10) 0.01105 298.5 5.3
299(9) 0.01153 298.4 5.2
303(9) 0.01171 298.3 5.1
287(9) 0.01286 298.3 5.0
316(9) 0.01178 298.2 4.9
311(10) 0.01105 298.2 4.8
306(10) 0.01093 298.1 4.7
298(9) 0.01157 298.0 4.7
324(9) 0.01125 298.0 4.6
314(9) 0.01172 297.9 4.5
301(9) 0.01152 297.8 4.4
296(9) 0.01111 297.8 4.4
293(9) 0.01177 297.7 4.3
292(9) 0.01274 297.6 4.3
278(9) 0.01319 297.6 4.2
291(9) 0.01164 297.5 4.1
320(10) 0.00994 297.4 4.1
305(9) 0.01144 297.4 4.1
306(9) 0.01222 297.3 4.0
277(9) 0.01323 297.2 4.0
290(9) 0.01240 297.2 3.9
324(10) 0.00958 297.1 3.9
320(10) 0.01041 297.0 3.9
287(9) 0.01289 297.0 3.8
290(9) 0.01271 296.9 3.8
291(9) 0.01219 296.8 3.8
318(10) 0.01022 296.8 3.8
321(10) 0.01077 296.7 3.8
296(9) 0.01258 296.6 3.7
313(9) 0.01173 296.6 3.7
324(10) 0.01084 296.5 3.7
307(10) 0.01078 296.4 3.7
292(9) 0.01238 296.4 3.7
307(9) 0.01214 296.3 3.7
320(9) 0.01136 296.2 3.7
320(10) 0.01094 296.2 3.8
294(9) 0.01135 296.1 3.8
294(9) 0.01155 296.0 3.8
275(9) 0.01349 296.0 3.8
288(9) 0.01228 295.9 3.8
325(10) 0.01035 295.8 3.9
314(10) 0.01099 295.8 3.9
294(9) 0.01227 295.7 3.9
307(9) 0.01219 295.6 4.0
299(9) 0.01206 295.6 4.0
281(9) 0.01257 295.5 4.0
323(10) 0.01030 295.4 4.1
290(9) 0.01175 295.4 4.1
296(9) 0.01272 295.3 4.2
305(9) 0.01119 295.3 4.2
305(10) 0.01090 295.2 4.3
295(9) 0.01187 295.1 4.3
313(9) 0.01140 295.1 4.4
322(9) 0.01157 295.0 4.4
315(10) 0.01108 294.9 4.4
327(10) 0.01003 294.9 4.4
312(9) 0.01120 294.8 4.4
307(9) 0.01131 294.7 4.4
295(9) 0.01262 294.7 4.3
295(9) 0.01178 294.6 4.3
301(10) 0.01099 294.5 4.2
286(9) 0.01224 294.5 4.1
290(9) 0.01288 294.4 4.1
299(9) 0.01200 294.3 4.0
286(9) 0.01206 294.3 3.9
285(9) 0.01147 294.2 3.8
295(9) 0.01195 294.1 3.8
303(9) 0.01198 294.1 3.7
314(9) 0.01172 294.0 3.6
307(9) 0.01178 293.9 3.5
287(9) 0.01164 293.9 3.5
305(10) 0.01091 293.8 3.4
302(9) 0.01243 293.7 3.4
322(9) 0.01135 293.7 3.3
286(9) 0.01271 293.6 3.3
289(9) 0.01132 293.5 3.2
305(9) 0.01147 293.5 3.2
297(9) 0.01253 293.4 3.1
308(9) 0.01142 293.3 3.1
295(9) 0.01180 293.3 3.1
308(10) 0.01037 293.2 3.0
285(9) 0.01205 293.1 3.0
305(9) 0.01213 293.1 3.0
290(9) 0.01254 293.0 3.0
286(9) 0.01227 292.9 2.9
298(9) 0.01118 292.9 2.9
303(9) 0.01151 292.8 2.9
307(9) 0.01211 292.7 2.9
294(9) 0.01260 292.7 2.9
339(10) 0.00986 292.6 2.9
307(10) 0.01104 292.5 2.9
286(9) 0.01215 292.5 2.9
302(9) 0.01228 292.4 2.9
306(9) 0.01176 292.4 2.8
278(9) 0.01243 292.3 2.8
307(10) 0.01044 292.2 2.8
291(9) 0.01215 292.2 2.8
298(9) 0.01249 292.1 2.8
299(9) 0.01135 292.0 2.8
301(9) 0.01113 292.0 2.8
315(10) 0.01062 291.9 2.8
316(9) 0.01141 291.8 2.8
297(9) 0.01249 291.8 2.8
310(10) 0.01099 291.7 2.8
295(10) 0.01104 291.6 2.8
283(9) 0.01206 291.6 2.8
307(9) 0.01172 291.5 2.8
288(9) 0.01298 291.4 2.8
313(10) 0.01091 291.4 2.8
291(9) 0.01130 291.3 2.8
295(9) 0.01182 291.2 2.9
300(9) 0.01228 291.2 2.9
291(9) 0.01287 291.1 2.9
290(9) 0.01217 291.0 2.9
298(10) 0.01102 291.0 2.9
297(9) 0.01145 290.9 2.9
293(9) 0.01274 290.8 2.9
300(9) 0.01230 290.8 2.9
293(9) 0.01189 290.7 2.9
303(9) 0.01118 290.6 2.9
327(10) 0.01062 290.6 2.9
300(9) 0.01219 290.5 2.9
283(9) 0.01315 290.4 3.0
301(9) 0.01192 290.4 3.0
279(9) 0.01194 290.3 3.0
292(9) 0.01161 290.2 3.0
277(9) 0.01342 290.2 3.0
293(9) 0.01255 290.1 3.0
286(9) 0.01226 290.0 3.0
280(9) 0.01181 290.0 3.1
307(9) 0.01123 289.9 3.1
306(9) 0.01211 289.8 3.1
293(9) 0.01267 289.8 3.1
292(9) 0.01234 289.7 3.1
329(10) 0.00980 289.6 3.2
308(9) 0.01120 289.6 3.2
289(9) 0.01283 289.5 3.2
308(9) 0.01176 289.5 3.2
308(9) 0.01142 289.4 3.2
302(9) 0.01112 289.3 3.3
288(9) 0.01203 289.3 3.3
311(9) 0.01186 289.2 3.3
304(9) 0.01165 289.1 3.4
312(10) 0.01095 289.1 3.4
301(9) 0.01143 289.0 3.4
303(9) 0.01166 288.9 3.4
316(9) 0.01173 288.9 3.5
293(9) 0.01223 288.8 3.5
309(9) 0.01108 288.7 3.6
313(10) 0.01079 288.7 3.6
278(9) 0.01289 288.6 3.6
323(9) 0.01137 288.5 3.7
294(9) 0.01206 288.5 3.7
318(10) 0.01053 288.4 3.8
322(10) 0.01059 288.3 3.8
325(9) 0.01116 288.3 3.9
318(9) 0.01155 288.2 3.9
285(9) 0.01239 288.1 4.0
291(9) 0.01145 288.1 4.1
308(10) 0.01085 288.0 4.1
315(9) 0.01144 287.9 4.2
293(9) 0.01279 287.9 4.3
302(9) 0.01145 287.8 4.3
280(9) 0.01177 287.7 4.4
312(10) 0.01080 287.7 4.5
294(9) 0.01252 287.6 4.6
327(9) 0.01135 287.5 4.7
316(10) 0.01107 287.5 4.8
298(10) 0.01098 287.5 4.9
317(10) 0.01070 287.5 5.0
298(9) 0.01222 287.5 5.1
294(9) 0.01265 287.5 5.3
313(9) 0.01133 287.5 5.4
281(9) 0.01181 287.6 5.5
254(8) 0.01410 287.6 5.7
279(9) 0.01343 287.6 5.8
292(9) 0.01225 287.6 6.0
285(9) 0.01226 287.7 6.2
301(10) 0.01083 287.7 6.3
270(9) 0.01293 287.7 6.5
266(8) 0.01411 287.7 6.7
296(9) 0.01215 287.8 6.8
308(10) 0.01080 287.8 7.0
300(10) 0.01083 287.8 7.2
295(9) 0.01161 287.8 7.4
306(9) 0.01220 287.9 7.5
297(9) 0.01216 287.9 7.7
307(10) 0.01107 287.9 7.8
301(10) 0.01108 287.9 7.9
298(9) 0.01195 288.0 8.0
295(9) 0.01258 288.0 8.1
283(9) 0.01283 288.0 8.2
304(9) 0.01145 288.0 8.3
301(9) 0.01145 288.0 8.3
292(9) 0.01176 288.1 8.3
284(9) 0.01308 288.1 8.3
288(9) 0.01248 288.1 8.3
303(9) 0.01116 288.1 8.3
287(9) 0.01186 288.2 8.2
292(9) 0.01238 288.2 8.1
300(9) 0.01231 288.2 8.1
308(9) 0.01140 288.2 8.0
289(9) 0.01158 288.3 7.9
294(9) 0.01193 288.3 7.8
298(9) 0.01234 288.3 7.7
326(9) 0.01147 288.3 7.6
292(9) 0.01196 288.4 7.5
307(9) 0.01137 288.4 7.4
307(9) 0.01111 288.4 7.3
299(9) 0.01211 288.4 7.3
286(9) 0.01286 288.5 7.2
294(9) 0.01168 288.5 7.1
294(9) 0.01142 288.5 7.0
298(9) 0.01162 288.5 7.0
318(9) 0.01150 288.6 6.9
302(9) 0.01220 288.6 6.9
299(9) 0.01185 288.6 6.8
306(10) 0.01092 288.6 6.8
293(9) 0.01208 288.6 6.7
307(9) 0.01188 288.7 6.7
291(9) 0.01268 288.7 6.7
255(9) 0.01302 288.7 6.7
281(9) 0.01118 288.7 6.7
308(9) 0.01139 288.8 6.7
307(9) 0.01225 288.8 6.7
297(9) 0.01220 288.8 6.7
295(9) 0.01190 288.8 6.7
294(9) 0.01113 288.9 6.7
307(9) 0.01126 288.9 6.8
295(9) 0.01231 288.9 6.8
321(9) 0.01154 288.9 6.8
309(9) 0.01140 289.0 6.9
312(10) 0.01049 289.0 6.9
328(10) 0.01053 289.0 7.0
331(9) 0.01133 289.0 7.0
304(9) 0.01179 289.1 7.1
305(9) 0.01149 289.1 7.2
291(9) 0.01172 289.1 7.2
300(9) 0.01145 289.1 7.3
309(9) 0.01187 289.1 7.4
298(9) 0.01176 289.2 7.5
281(9) 0.01272 289.2 7.5
310(9) 0.01112 289.2 7.6
321(10) 0.01106 289.2 7.7
300(9) 0.01237 289.3 7.8
285(9) 0.01224 289.3 7.9
317(10) 0.01092 289.3 8.0
316(10) 0.01078 289.3 8.2
303(9) 0.01189 289.4 8.3
304(9) 0.01220 289.4 8.4
272(9) 0.01296 289.4 8.5
282(9) 0.01201 289.4 8.7
285(9) 0.01207 289.5 8.8
292(9) 0.01214 289.5 8.9
329(9) 0.01118 289.5 9.1
290(9) 0.01190 289.5 9.3
291(9) 0.01193 289.6 9.4
305(9) 0.01174 289.6 9.6
325(9) 0.01118 289.6 9.8
295(9) 0.01250 289.6 9.9
315(9) 0.01117 289.7 10.1
298(9) 0.01131 289.7 10.3
313(9) 0.01143 289.7 10.5
328(9) 0.01109 289.7 10.7
299(9) 0.01241 289.7 10.9
300(9) 0.01162 289.8 11.2
306(10) 0.01026 289.8 11.4
301(9) 0.01148 289.8 11.6
293(9) 0.01264 289.8 11.9
302(9) 0.01231 289.9 12.1
301(9) 0.01157 289.9 12.4
304(10) 0.01030 289.9 12.7
317(9) 0.01111 289.9 13.0
316(9) 0.01172 290.0 13.3
294(9) 0.01245 290.0 13.6
293(9) 0.01136 290.0 13.9
307(10) 0.01076 290.0 14.2
337(10) 0.01001 290.1 14.6
310(9) 0.01189 290.1 14.9
288(9) 0.01302 290.1 15.3
322(10) 0.01073 290.1 15.7
306(10) 0.01052 290.2 16.1
309(10) 0.01057 290.2 16.5
297(9) 0.01252 290.2 16.9
297(9) 0.01190 290.2 17.4
288(9) 0.01187 290.2 17.9
281(9) 0.01200 290.3 18.4
325(10) 0.01045 290.3 18.9
302(9) 0.01204 290.3 19.4
281(9) 0.01281 290.3 19.9
290(9) 0.01185 290.4 20.5
295(9) 0.01142 290.4 21.1
319(9) 0.01125 290.4 21.7
332(9) 0.01119 290.4 22.4
334(10) 0.01011 290.5 23.1
313(10) 0.01084 290.5 23.8
294(9) 0.01146 290.5 24.5
298(9) 0.01187 290.5 25.3
328(9) 0.01131 290.6 26.1
296(9) 0.01188 290.6 27.0
317(10) 0.01040 290.6 27.9
306(9) 0.01115 290.6 28.9
326(10) 0.01107 290.7 29.9
332(9) 0.01113 290.7 30.9
324(10) 0.01078 290.7 32.0
319(10) 0.01020 290.7 33.2
331(10) 0.01052 290.8 34.5
333(10) 0.01085 290.8 35.8
318(9) 0.01171 290.8 37.2
325(10) 0.01072 290.8 38.7
337(10) 0.00987 290.8 40.3
319(9) 0.01131 290.9 42.1
359(10) 0.01014 290.9 43.9
335(10) 0.01107 290.9 46.0
328(10) 0.01047 290.9 48.2
324(10) 0.01016 291.0 50.6
339(10) 0.01021 291.0 53.2
378(10) 0.00968 291.0 56.1
364(10) 0.01011 291.0 59.4
394(11) 0.00886 291.1 63.1
372(11) 0.00853 291.1 67.2
382(10) 0.00918 291.1 72.0
382(10) 0.00968 291.1 77.4
388(10) 0.00963 291.2 83.7
393(11) 0.00882 291.2 91.0
398(11) 0.00806 291.2 99.5
414(11) 0.00830 291.2 109.3
399(10) 0.00934 291.3 120.7
430(11) 0.00838 291.3 133.8
445(11) 0.00799 291.3 148.9
463(12) 0.00706 291.3 166.1
457(11) 0.00762 291.3 185.3
482(11) 0.00773 291.4 206.8
553(12) 0.00668 291.4 230.4
555(13) 0.00623 291.4 255.7
604(14) 0.00546 291.4 282.2
643(14) 0.00547 291.5 308.9
690(14) 0.00539 291.5 334.8
649(13) 0.00570 291.5 358.2
676(14) 0.00511 291.5 377.7
700(14) 0.00483 291.6 392.3
690(14) 0.00516 291.6 401.7
703(14) 0.00530 291.6 406.4
680(14) 0.00516 291.6 407.3
672(14) 0.00504 291.7 405.7
669(14) 0.00497 291.7 402.2
677(14) 0.00523 291.7 397.5
659(13) 0.00564 291.7 391.8
675(14) 0.00524 291.8 385.3
693(14) 0.00483 291.8 378.0
639(14) 0.00534 291.8 369.9
676(14) 0.00526 291.8 361.3
664(13) 0.00558 291.9 352.3
659(14) 0.00529 291.9 343.2
676(14) 0.00496 291.9 334.1
643(14) 0.00543 291.9 325.4
631(13) 0.00568 291.9 316.9
597(13) 0.00627 292.0 308.7
607(13) 0.00576 292.0 300.4
605(13) 0.00560 292.0 291.8
573(13) 0.00613 292.0 282.4
600(13) 0.00605 292.1 271.9
568(12) 0.00659 292.1 260.0
541(13) 0.00633 292.1 246.8
530(13) 0.00600 292.1 232.2
519(12) 0.00671 292.2 216.9
470(11) 0.00777 292.2 201.3
470(11) 0.00795 292.2 185.7
449(11) 0.00776 292.2 170.6
479(12) 0.00655 292.3 156.2
449(11) 0.00759 292.3 142.8
399(10) 0.00920 292.3 130.4
431(11) 0.00852 292.3 119.0
412(11) 0.00843 292.4 108.7
385(11) 0.00833 292.4 99.4
389(11) 0.00903 292.4 91.1
394(10) 0.00931 292.4 83.7
383(10) 0.00972 292.4 77.0
365(10) 0.00937 292.5 71.1
401(11) 0.00804 292.5 65.9
366(10) 0.00975 292.5 61.2
354(10) 0.01050 292.5 57.1
362(10) 0.01022 292.6 53.4
334(10) 0.01046 292.6 50.1
324(10) 0.01042 292.6 47.1
333(10) 0.01027 292.6 44.4
353(10) 0.01070 292.7 42.1
364(10) 0.00987 292.7 39.9
343(10) 0.01008 292.7 37.9
345(10) 0.00964 292.7 36.1
313(10) 0.01103 292.8 34.5
331(9) 0.01130 292.8 32.9
325(9) 0.01123 292.8 31.5
336(10) 0.00976 292.8 30.3
332(10) 0.01022 292.9 29.1
346(10) 0.01026 292.9 27.9
306(9) 0.01214 292.9 26.9
310(9) 0.01162 292.9 25.9
322(10) 0.01057 293.0 25.0
311(10) 0.01071 293.0 24.2
323(10) 0.01078 293.0 23.4
324(9) 0.01148 293.0 22.7
315(9) 0.01115 293.0 22.0
301(9) 0.01143 293.1 21.3
317(10) 0.01079 293.1 20.7
332(10) 0.01078 293.1 20.1
310(9) 0.01193 293.1 19.6
342(10) 0.01000 293.2 19.1
300(9) 0.01152 293.2 18.6
301(9) 0.01174 293.2 18.2
313(9) 0.01169 293.2 17.7
301(9) 0.01214 293.3 17.3
326(10) 0.01070 293.3 17.0
305(10) 0.01103 293.3 16.6
312(9) 0.01126 293.3 16.3
307(9) 0.01194 293.4 16.0
321(9) 0.01155 293.4 15.8
320(10) 0.01077 293.4 15.5
291(9) 0.01142 293.4 15.3
294(9) 0.01224 293.5 15.1
312(9) 0.01172 293.5 14.9
327(9) 0.01146 293.5 14.7
288(9) 0.01214 293.5 14.6
297(9) 0.01115 293.5 14.4
330(10) 0.01042 293.6 14.3
291(9) 0.01275 293.6 14.3
292(9) 0.01257 293.6 14.2
314(9) 0.01129 293.6 14.2
321(10) 0.01007 293.7 14.2
323(10) 0.01083 293.7 14.2
327(9) 0.01156 293.7 14.3
326(9) 0.01122 293.7 14.4
324(10) 0.01072 293.8 14.5
323(10) 0.01021 293.8 14.7
293(9) 0.01175 293.8 15.0
331(9) 0.01120 293.8 15.3
341(10) 0.01049 293.9 15.6
338(10) 0.01007 293.9 16.1
313(10) 0.01070 293.9 16.7
308(9) 0.01115 293.9 17.5
321(9) 0.01170 294.0 18.4
306(9) 0.01179 294.0 19.6
340(10) 0.00979 294.0 21.2
329(10) 0.01029 294.0 23.1
327(10) 0.01094 294.0 25.6
294(9) 0.01250 294.1 28.6
337(10) 0.01075 294.1 32.4
356(10) 0.00933 294.1 37.0
324(10) 0.01091 294.1 42.4
369(10) 0.00983 294.2 48.7
352(10) 0.01065 294.2 55.9
386(10) 0.00914 294.2 63.8
379(11) 0.00895 294.2 72.2
363(10) 0.00951 294.3 80.6
381(10) 0.00952 294.3 88.4
402(10) 0.00922 294.3 94.8
414(11) 0.00830 294.3 98.8
429(11) 0.00795 294.4 99.6
394(11) 0.00899 294.4 97.3
368(10) 0.00984 294.4 92.0
405(10) 0.00921 294.4 84.8
357(10) 0.00959 294.5 76.5
346(10) 0.00958 294.5 67.8
350(10) 0.00993 294.5 59.5
343(10) 0.01059 294.5 51.7
360(10) 0.01025 294.6 44.7
346(10) 0.00955 294.6 38.7
335(10) 0.01001 294.6 33.5
336(10) 0.01051 294.6 29.1
316(9) 0.01165 294.6 25.5
313(9) 0.01188 294.7 22.6
307(9) 0.01169 294.7 20.2
294(9) 0.01156 294.7 18.3
338(10) 0.00999 294.7 16.7
325(9) 0.01155 294.8 15.5
319(9) 0.01157 294.8 14.4
318(10) 0.01096 294.8 13.6
350(11) 0.00903 294.8 12.9
317(10) 0.01101 294.9 12.3
299(9) 0.01247 294.9 11.7
319(9) 0.01156 294.9 11.3
284(9) 0.01273 294.9 10.9
310(10) 0.01064 295.0 10.5
294(9) 0.01193 295.0 10.2
301(9) 0.01242 295.0 9.9
306(9) 0.01158 295.0 9.6
318(10) 0.01089 295.1 9.4
316(10) 0.01082 295.1 9.2
293(9) 0.01239 295.1 9.0
330(9) 0.01137 295.1 8.8
325(10) 0.01104 295.1 8.6
303(9) 0.01178 295.2 8.5
324(10) 0.01027 295.2 8.3
314(10) 0.01061 295.2 8.2
290(9) 0.01288 295.2 8.1
304(9) 0.01184 295.3 8.0
314(10) 0.01088 295.3 7.9
286(9) 0.01211 295.3 7.8
309(9) 0.01149 295.3 7.7
307(9) 0.01213 295.4 7.6
308(9) 0.01165 295.4 7.6
315(10) 0.01083 295.4 7.5
312(9) 0.01130 295.4 7.5
319(10) 0.01094 295.5 7.4
314(9) 0.01173 295.5 7.4
292(9) 0.01204 295.5 7.3
308(10) 0.01048 295.5 7.3
308(10) 0.01094 295.6 7.3
308(9) 0.01160 295.6 7.2
307(9) 0.01212 295.6 7.2
301(9) 0.01147 295.6 7.2
279(9) 0.01227 295.7 7.2
313(10) 0.01088 295.7 7.1
292(9) 0.01294 295.7 7.1
290(9) 0.01285 295.7 7.1
305(10) 0.01102 295.7 7.1
300(10) 0.01098 295.8 7.1
305(9) 0.01177 295.8 7.1
283(9) 0.01273 295.8 7.1
313(9) 0.01182 295.8 7.1
278(9) 0.01292 295.9 7.2
299(10) 0.01077 295.9 7.2
291(9) 0.01170 295.9 7.2
304(9) 0.01214 295.9 7.2
298(9) 0.01234 296.0 7.2
309(9) 0.01132 296.0 7.3
307(10) 0.01052 296.0 7.3
306(10) 0.01103 296.0 7.3
298(9) 0.01250 296.1 7.3
308(9) 0.01192 296.1 7.4
296(9) 0.01148 296.1 7.4
336(10) 0.00930 296.1 7.5
314(10) 0.01099 296.2 7.5
291(9) 0.01246 296.2 7.6
297(9) 0.01245 296.2 7.6
285(9) 0.01246 296.2 7.7
297(10) 0.01105 296.2 7.7
304(9) 0.01146 296.3 7.8
301(9) 0.01223 296.3 7.8
317(9) 0.01139 296.3 7.9
287(9) 0.01262 296.3 8.0
294(9) 0.01132 296.4 8.0
323(10) 0.01089 296.4 8.1
319(9) 0.01163 296.4 8.2
297(9) 0.01209 296.4 8.3
312(10) 0.01092 296.5 8.3
316(10) 0.01062 296.5 8.4
313(10) 0.01091 296.5 8.5
318(9) 0.01169 296.5 8.6
295(9) 0.01213 296.6 8.7
312(10) 0.01055 296.8 8.8
313(10) 0.01051 296.9 8.9
315(9) 0.01136 297.0 9.0
323(9) 0.01143 297.2 9.1
302(9) 0.01156 297.3 9.2
303(9) 0.01133 297.4 9.3
344(10) 0.00961 297.5 9.4
328(9) 0.01113 297.7 9.5
305(9) 0.01219 297.8 9.6
320(10) 0.01088 297.9 9.7
328(10) 0.01020 298.0 9.8
298(9) 0.01191 298.2 9.9
318(9) 0.01161 298.3 10.0
329(9) 0.01128 298.4 10.1
326(10) 0.01047 298.6 10.3
317(10) 0.01055 298.7 10.4
296(9) 0.01234 298.8 10.5
313(9) 0.01148 298.9 10.6
297(9) 0.01255 299.1 10.7
318(10) 0.01101 299.2 10.8
300(10) 0.01057 299.3 10.9
290(9) 0.01206 299.4 11.0
312(9) 0.01165 299.6 11.1
296(9) 0.01240 299.7 11.2
293(9) 0.01182 299.8 11.3
297(9) 0.01110 300.0 11.4
313(9) 0.01125 300.1 11.5
309(9) 0.01205 300.2 11.6
309(9) 0.01206 300.3 11.7
301(9) 0.01196 300.5 11.8
308(10) 0.01083 300.6 11.9
315(10) 0.01078 300.7 11.9
334(9) 0.01117 300.8 12.0
311(9) 0.01173 301.0 12.1
311(9) 0.01110 301.1 12.2
314(10) 0.01077 301.2 12.3
331(10) 0.01051 301.4 12.4
302(9) 0.01242 301.5 12.4
314(9) 0.01139 301.6 12.5
340(10) 0.00946 301.7 12.6
304(9) 0.01111 301.9 12.7
311(9) 0.01140 302.0 12.8
309(9) 0.01210 302.1 12.9
317(10) 0.01108 302.2 13.0
321(10) 0.01094 302.4 13.1
305(9) 0.01120 302.5 13.2
328(10) 0.01054 302.6 13.3
342(10) 0.01090 302.8 13.4
288(9) 0.01257 302.9 13.6
314(10) 0.01066 303.0 13.7
319(10) 0.01056 303.1 13.9
300(9) 0.01212 303.3 14.0
313(9) 0.01190 303.4 14.2
327(10) 0.01075 303.5 14.4
295(9) 0.01177 303.6 14.5
300(9) 0.01176 303.8 14.8
321(9) 0.01116 303.9 15.0
313(9) 0.01183 304.0 15.2
314(10) 0.01090 304.2 15.4
313(10) 0.01107 304.3 15.7
339(10) 0.01020 304.4 16.0
315(9) 0.01134 304.5 16.3
317(9) 0.01184 304.7 16.6
328(10) 0.01057 304.8 17.0
334(10) 0.01005 304.9 17.3
318(10) 0.01104 305.0 17.7
314(9) 0.01157 305.2 18.1
286(9) 0.01299 305.3 18.6
304(9) 0.01158 305.4 19.1
337(10) 0.00995 305.6 19.6
323(10) 0.01073 305.7 20.1
321(9) 0.01140 305.8 20.7
330(9) 0.01128 305.9 21.3
318(10) 0.01086 306.1 22.0
329(10) 0.00998 306.2 22.7
332(10) 0.01065 306.3 23.5
312(9) 0.01176 306.4 24.3
328(9) 0.01124 306.6 25.2
341(10) 0.00995 306.7 26.2
318(10) 0.01028 306.8 27.3
343(10) 0.01026 307.0 28.4
335(9) 0.01120 307.1 29.7
319(9) 0.01142 307.2 31.1
328(10) 0.01070 307.3 32.7
340(10) 0.00972 307.5 34.5
371(10) 0.00934 307.6 36.6
372(10) 0.00977 307.7 39.2
401(10) 0.00915 307.8 42.7
363(10) 0.00947 308.0 47.7
390(11) 0.00846 308.1 55.1
367(10) 0.00963 308.2 66.4
415(11) 0.00888 308.4 83.1
429(11) 0.00836 308.5 107.3
406(11) 0.00861 308.6 140.5
465(12) 0.00747 308.7 183.4
532(12) 0.00666 308.9 234.8
557(12) 0.00667 309.0 291.5
625(13) 0.00570 309.1 347.7
706(14) 0.00490 309.2 395.1
788(15) 0.00427 309.4 424.5
802(15) 0.00441 309.5 428.7
770(14) 0.00484 309.6 407.1
700(14) 0.00501 309.8 365.6
631(14) 0.00547 309.9 313.3
585(13) 0.00594 310.0 258.8
567(13) 0.00626 310.1 208.6
516(12) 0.00720 310.3 166.4
483(12) 0.00712 310.4 133.6
475(12) 0.00716 310.5 110.1
449(11) 0.00767 310.6 94.4
444(11) 0.00821 310.8 84.5
422(11) 0.00879 310.9 78.7
418(11) 0.00825 311.0 75.5
429(11) 0.00772 311.1 73.8
414(11) 0.00854 311.3 73.1
404(11) 0.00905 311.4 72.9
399(10) 0.00925 311.5 73.0
379(10) 0.00924 311.7 73.3
411(11) 0.00782 311.8 73.7
415(11) 0.00817 311.9 74.1
376(10) 0.00990 312.0 74.6
418(11) 0.00888 312.2 75.2
410(11) 0.00856 312.3 75.7
395(11) 0.00802 312.4 76.1
373(10) 0.00953 312.5 76.6
398(10) 0.00938 312.7 77.0
347(10) 0.01063 312.8 77.3
394(11) 0.00876 312.9 77.6
385(11) 0.00837 313.1 77.9
404(11) 0.00870 313.2 78.0
386(10) 0.00962 313.3 78.2
421(11) 0.00873 313.4 78.2
398(11) 0.00885 313.6 78.3
387(11) 0.00893 313.7 78.3
399(11) 0.00864 313.8 78.3
371(10) 0.00997 313.9 78.2
386(10) 0.00945 314.1 78.2
389(11) 0.00905 314.2 78.0
393(11) 0.00832 314.3 77.9
377(11) 0.00871 314.5 77.7
384(10) 0.00965 314.6 77.4
389(10) 0.00934 314.7 77.1
399(11) 0.00880 314.8 76.8
400(11) 0.00831 315.0 76.3
393(11) 0.00893 315.1 75.8
395(10) 0.00945 315.2 75.2
394(11) 0.00905 315.3 74.5
369(10) 0.00927 315.5 73.7
352(10) 0.00960 315.6 72.8
385(11) 0.00874 315.7 71.8
392(10) 0.00953 315.9 70.7
373(10) 0.00952 316.0 69.5
386(11) 0.00896 316.1 68.2
377(10) 0.00929 316.2 66.9
381(10) 0.00932 316.4 65.4
368(10) 0.01010 316.5 63.9
362(10) 0.00934 316.6 62.3
361(10) 0.00946 316.7 60.6
366(10) 0.00958 316.9 58.8
370(10) 0.00962 317.0 57.1
344(10) 0.01086 317.1 55.3
342(10) 0.00993 317.3 53.6
381(11) 0.00852 317.4 51.9
354(10) 0.00985 317.5 50.3
356(10) 0.01000 317.6 48.8
361(10) 0.01033 317.8 47.4
341(10) 0.01010 317.9 46.0
349(10) 0.00974 318.0 44.8
370(10) 0.00969 318.1 43.6
343(10) 0.01086 318.3 42.5
327(9) 0.01141 318.4 41.5
336(10) 0.01008 318.5 40.5
344(10) 0.00912 318.7 39.7
342(10) 0.00993 318.8 38.9
330(9) 0.01127 318.9 38.1
340(10) 0.01081 319.0 37.5
317(10) 0.01104 319.2 36.9
317(10) 0.01034 319.3 36.4
341(10) 0.01041 319.4 36.0
355(10) 0.01049 319.5 35.6
335(10) 0.01086 319.7 35.3
322(10) 0.01096 319.8 35.0
326(10) 0.01042 319.7 34.9
305(9) 0.01150 319.6 34.7
325(9) 0.01140 319.6 34.6
347(10) 0.01065 319.5 34.6
335(10) 0.01008 319.4 34.6
307(10) 0.01067 319.4 34.7
313(9) 0.01141 319.3 34.8
315(9) 0.01169 319.2 35.0
324(9) 0.01110 319.2 35.2
342(10) 0.01016 319.1 35.5
345(10) 0.00961 319.0 35.8
337(10) 0.01053 319.0 36.2
331(9) 0.01122 318.9 36.6
350(10) 0.01027 318.8 37.1
341(10) 0.01000 318.8 37.6
356(10) 0.00925 318.7 38.2
319(9) 0.01136 318.6 38.9
357(10) 0.01036 318.6 39.6
342(10) 0.01076 318.5 40.4
363(10) 0.00933 318.4 41.2
349(10) 0.01025 318.4 42.1
371(10) 0.00980 318.3 43.1
361(10) 0.01025 318.2 44.1
346(10) 0.01024 318.2 45.3
357(10) 0.00952 318.1 46.5
381(11) 0.00900 318.0 47.8
386(10) 0.00918 318.0 49.2
368(10) 0.01000 317.9 50.8
358(10) 0.00969 317.8 52.5
342(10) 0.00983 317.8 54.3
359(10) 0.00949 317.7 56.2
379(10) 0.00950 317.6 58.3
391(10) 0.00941 317.6 60.6
375(10) 0.00920 317.5 63.0
387(11) 0.00821 317.4 65.6
376(10) 0.00911 317.4 68.4
385(10) 0.00975 317.3 71.5
439(11) 0.00835 317.2 74.7
401(11) 0.00884 317.2 78.2
409(11) 0.00786 317.1 81.9
386(11) 0.00900 317.0 85.8
420(11) 0.00872 317.0 90.0
410(11) 0.00905 316.9 94.4
432(11) 0.00800 316.8 99.0
447(12) 0.00699 316.8 103.9
394(11) 0.00893 316.7 108.9
426(11) 0.00871 316.6 114.1
459(11) 0.00795 316.6 119.3
429(11) 0.00836 316.5 124.6
428(11) 0.00764 316.4 129.7
467(12) 0.00735 316.4 134.7
476(11) 0.00785 316.3 139.4
481(11) 0.00757 316.2 143.7
468(12) 0.00739 316.2 147.5
448(12) 0.00740 316.1 150.7
481(12) 0.00704 316.0 153.3
477(11) 0.00782 316.0 155.3
501(12) 0.00726 315.9 156.7
506(12) 0.00663 315.8 157.6
481(12) 0.00683 315.8 158.3
474(12) 0.00716 315.7 158.8
463(11) 0.00802 315.6 159.3
464(11) 0.00774 315.6 160.1
469(12) 0.00716 315.5 161.4
447(11) 0.00766 315.4 163.4
463(12) 0.00745 315.4 166.3
436(11) 0.00852 315.3 170.3
444(11) 0.00811 315.2 175.5
473(12) 0.00719 315.2 182.0
465(12) 0.00749 315.1 189.9
499(12) 0.00701 315.0 199.4
512(12) 0.00728 315.0 210.2
521(12) 0.00687 314.9 222.4
533(12) 0.00642 314.8 235.5
558(13) 0.00627 314.8 249.3
578(13) 0.00611 314.7 263.0
571(12) 0.00651 314.6 275.9
595(13) 0.00576 314.6 287.3
559(13) 0.00598 314.5 296.5
564(13) 0.00605 314.4 303.3
576(13) 0.00627 314.4 308.1
631(13) 0.00589 314.3 311.2
627(13) 0.00570 314.2 313.3
620(14) 0.00541 314.2 315.1
651(14) 0.00523 314.1 316.9
659(13) 0.00553 314.0 319.1
673(13) 0.00551 314.0 321.9
646(14) 0.00546 313.9 325.3
695(15) 0.00469 313.8 329.5
656(14) 0.00535 313.8 334.3
659(13) 0.00562 313.7 339.6
700(14) 0.00528 313.6 344.9
706(14) 0.00490 313.6 350.0
756(16) 0.00415 313.5 354.5
739(15) 0.00460 313.4 357.9
706(14) 0.00529 313.4 360.0
677(14) 0.00542 313.3 360.3
666(14) 0.00520 313.2 358.7
630(14) 0.00520 313.2 355.0
641(14) 0.00543 313.1 349.2
610(13) 0.00609 313.0 341.4
629(13) 0.00577 313.0 331.8
580(13) 0.00619 312.9 320.7
597(14) 0.00548 312.8 308.4
557(13) 0.00612 312.8 295.2
536(12) 0.00693 312.7 281.5
554(12) 0.00655 312.6 267.5
519(12) 0.00678 312.6 253.4
517(13) 0.00638 312.5 239.5
502(12) 0.00662 312.4 226.0
478(11) 0.00787 312.4 212.9
486(12) 0.00735 312.3 200.4
491(12) 0.00703 312.2 188.5
473(12) 0.00737 312.2 177.2
459(11) 0.00777 312.1 166.6
453(11) 0.00825 312.0 156.7
472(12) 0.00751 312.0 147.3
426(11) 0.00800 311.9 138.6
437(11) 0.00810 311.8 130.5
482(12) 0.00723 311.8 123.0
418(11) 0.00891 311.7 116.0
428(11) 0.00815 311.6 109.5
418(11) 0.00830 311.6 103.5
409(11) 0.00843 311.5 97.9
426(11) 0.00824 311.4 92.7
418(11) 0.00893 311.4 88.0
386(11) 0.00906 311.3 83.5
400(11) 0.00852 311.2 79.4
410(11) 0.00837 311.2 75.7
390(10) 0.00943 311.1 72.2
360(10) 0.01035 311.0 68.9
396(11) 0.00898 311.0 66.0
388(11) 0.00850 310.9 63.2
371(10) 0.00933 310.9 60.7
360(10) 0.01006 310.8 58.4
369(10) 0.00997 310.7 56.2
362(10) 0.00964 310.7 54.2
376(11) 0.00866 310.6 52.3
369(10) 0.00937 310.5 50.6
362(10) 0.01002 310.5 49.0
358(10) 0.01025 310.4 47.6
362(10) 0.00941 310.3 46.2
372(11) 0.00843 310.3 44.9
362(10) 0.00972 310.2 43.7
363(10) 0.01018 310.1 42.6
374(10) 0.01001 310.1 41.5
385(10) 0.00918 310.0 40.5
374(11) 0.00891 309.9 39.6
355(10) 0.01018 309.9 38.7
373(10) 0.00996 309.8 37.8
349(10) 0.01049 309.7 37.0
347(10) 0.00979 309.7 36.2
357(10) 0.00917 309.6 35.5
349(10) 0.01008 309.5 34.8
360(10) 0.01034 309.5 34.1
361(10) 0.00968 309.4 33.4
369(10) 0.00922 309.3 32.8
330(10) 0.01045 309.3 32.1
326(10) 0.01084 309.2 31.5
334(10) 0.01105 309.1 30.9
329(10) 0.01086 309.1 30.3
313(10) 0.01095 309.0 29.7
337(10) 0.01007 308.9 29.1
340(10) 0.01020 308.9 28.6
345(10) 0.01075 308.8 28.0
342(10) 0.01019 308.7 27.5
329(10) 0.01025 308.7 26.9
324(10) 0.01003 308.6 26.4
313(9) 0.01117 308.5 25.9
347(10) 0.01080 308.5 25.4
325(9) 0.01113 308.4 24.9
327(10) 0.01033 308.3 24.5
341(10) 0.01011 308.3 24.0
340(10) 0.01044 308.2 23.6
318(9) 0.01154 308.1 23.2
361(10) 0.00971 308.1 22.8
353(10) 0.00990 308.0 22.4
340(10) 0.01032 307.9 22.1
326(9) 0.01114 307.9 21.7
324(9) 0.01141 307.8 21.4
317(10) 0.01046 307.7 21.1
311(10) 0.01058 307.7 20.8
320(10) 0.01068 307.6 20.6
324(10) 0.01106 307.5 20.3
343(10) 0.01086 307.5 20.1
316(9) 0.01109 307.4 19.9
322(10) 0.01011 307.3 19.7
343(10) 0.00996 307.3 19.6
324(9) 0.01155 307.2 19.5
303(9) 0.01243 307.1 19.4
338(10) 0.01013 307.1 19.3
310(10) 0.01037 307.0 19.2
299(9) 0.01200 306.9 19.2
330(10) 0.01107 306.9 19.2
318(9) 0.01170 306.8 19.3
332(10) 0.01031 306.7 19.4
306(10) 0.01095 306.7 19.5
301(9) 0.01190 306.6 19.7
300(9) 0.01215 306.5 19.9
319(9) 0.01148 306.5 20.2
326(10) 0.01056 306.4 20.5
319(10) 0.01010 306.3 20.8
328(10) 0.01016 306.3 21.3
336(10) 0.01101 306.2 21.7
326(9) 0.01117 306.1 22.3
317(9) 0.01112 306.1 22.9
301(10) 0.01102 306.0 23.5
316(10) 0.01076 305.9 24.3
338(10) 0.01102 305.9 25.1
329(10) 0.01076 305.8 25.9
334(10) 0.01038 305.7 26.8
356(10) 0.00934 305.7 27.7
344(10) 0.01037 305.6 28.7
336(10) 0.01090 305.5 29.7
327(9) 0.01115 305.5 30.7
317(9) 0.01120 305.4 31.7
345(10) 0.01020 305.3 32.6
359(10) 0.00996 305.3 33.5
336(10) 0.01107 305.2 34.3
335(10) 0.01031 305.1 35.0
335(10) 0.01047 305.1 35.7
341(10) 0.01024 305.0 36.3
343(10) 0.01055 304.9 36.8
342(10) 0.01087 304.9 37.2
355(10) 0.00988 304.8 37.5
324(10) 0.01074 304.7 37.7
333(10) 0.01026 304.7 37.7
342(10) 0.01041 304.6 37.7
347(10) 0.01071 304.5 37.5
344(10) 0.01010 304.5 37.2
344(10) 0.00993 304.4 36.7
332(10) 0.01068 304.3 36.1
317(9) 0.01113 304.3 35.4
340(10) 0.01099 304.2 34.5
325(10) 0.01053 304.1 33.6
323(10) 0.01059 304.1 32.6
346(10) 0.01003 304.0 31.5
350(10) 0.01027 303.9 30.4
343(10) 0.01056 303.9 29.2
307(9) 0.01132 303.8 28.1
330(10) 0.00963 303.7 27.0
328(10) 0.01065 303.7 25.9
320(9) 0.01165 303.6 24.8
339(10) 0.01097 303.5 23.8
310(9) 0.01132 303.5 22.8
326(10) 0.00955 303.4 21.9
317(10) 0.01087 303.3 21.0
329(9) 0.01130 303.3 20.1
316(9) 0.01175 303.2 19.3
331(10) 0.01059 303.1 18.6
344(10) 0.00947 303.1 17.9
311(10) 0.01107 303.0 17.2
313(9) 0.01180 302.9 16.6
329(10) 0.01093 302.9 16.0
312(9) 0.01144 302.8 15.5
311(9) 0.01110 302.7 15.0
308(10) 0.01101 302.7 14.5
322(9) 0.01143 302.6 14.1
335(10) 0.01083 302.5 13.7
313(10) 0.01105 302.5 13.4
317(10) 0.01061 302.4 13.0
331(10) 0.01032 302.3 12.7
325(9) 0.01149 302.3 12.5
308(9) 0.01173 302.2 12.2
314(9) 0.01123 302.1 12.0
328(10) 0.01042 302.1 11.8
323(10) 0.01102 302.0 11.6
323(9) 0.01152 301.9 11.4
304(9) 0.01197 301.9 11.3
297(9) 0.01161 301.8 11.1
306(10) 0.01080 301.7 11.0
322(10) 0.01072 301.7 11.0
315(9) 0.01184 301.6 10.9
310(9) 0.01115 301.5 10.8
290(9) 0.01165 301.5 10.8
296(9) 0.01200 301.4 10.8
310(9) 0.01164 301.3 10.8
338(9) 0.01109 301.3 10.8
342(10) 0.01013 301.2 10.8
309(9) 0.01119 301.1 10.8
322(10) 0.01030 301.1 10.9
314(9) 0.01154 301.0 11.0
307(9) 0.01229 300.9 11.1
321(10) 0.01070 300.9 11.2
307(10) 0.01086 300.8 11.3
278(9) 0.01239 300.7 11.4
301(9) 0.01152 300.7 11.6
299(9) 0.01244 300.6 11.7
318(10) 0.01105 300.5 11.9
299(10) 0.01085 300.5 12.1
293(9) 0.01204 300.4 12.3
298(9) 0.01242 300.3 12.6
297(9) 0.01241 300.3 12.8
305(9) 0.01122 300.2 13.1
302(10) 0.01081 300.1 13.3
317(10) 0.01073 300.1 13.6
332(10) 0.01101 300.0 13.8
313(9) 0.01184 299.9 14.1
310(10) 0.01093 299.9 14.3
346(10) 0.00940 299.8 14.5
312(9) 0.01137 299.7 14.8
292(9) 0.01264 299.7 15.0
310(9) 0.01201 299.6 15.1
300(9) 0.01190 299.5 15.3
329(10) 0.01012 299.5 15.4
294(9) 0.01225 299.4 15.5
325(9) 0.01148 299.3 15.6
309(9) 0.01197 299.3 15.6
292(9) 0.01226 299.2 15.6
316(10) 0.01053 299.1 15.6
286(9) 0.01266 299.1 15.6
309(9) 0.01198 299.0 15.6
296(9) 0.01247 298.9 15.6
310(9) 0.01122 298.9 15.5
306(10) 0.01104 298.8 15.4
315(10) 0.01079 298.7 15.4
316(9) 0.01175 298.7 15.3
312(9) 0.01162 298.6 15.2
301(9) 0.01118 298.5 15.0
303(9) 0.01134 298.5 14.9
318(10) 0.01087 298.4 14.7
292(9) 0.01281 298.3 14.5
317(10) 0.01076 298.3 14.2
320(10) 0.01043 298.2 14.0
317(10) 0.01084 298.1 13.7
345(10) 0.01042 298.1 13.3
319(9) 0.01166 298.0 13.0
298(9) 0.01157 297.9 12.6
306(10) 0.01088 297.9 12.2
295(9) 0.01172 297.8 11.8
303(9) 0.01180 297.7 11.5
325(9) 0.01147 297.7 11.1
317(9) 0.01127 297.6 10.7
334(10) 0.00994 297.5 10.4
319(10) 0.01085 297.5 10.1
306(9) 0.01174 297.5 9.7
307(9) 0.01210 297.4 9.4
317(10) 0.01097 297.4 9.1
281(9) 0.01252 297.3 8.9
328(10) 0.01041 297.3 8.6
319(9) 0.01133 297.3 8.4
296(9) 0.01260 297.2 8.2
300(9) 0.01146 297.2 8.0
318(10) 0.01001 297.1 7.8
309(9) 0.01129 297.1 7.6
291(9) 0.01267 297.1 7.4
301(9) 0.01237 297.0 7.3
296(9) 0.01124 297.0 7.1
322(10) 0.00991 296.9 7.0
312(9) 0.01129 296.9 6.9
316(9) 0.01174 296.9 6.8
287(9) 0.01295 296.8 6.7
285(9) 0.01185 296.8 6.6
283(9) 0.01158 296.7 6.5
293(9) 0.01138 296.7 6.4
298(9) 0.01242 296.7 6.4
308(9) 0.01182 296.6 6.3
298(9) 0.01201 296.6 6.2
288(9) 0.01172 296.5 6.2
277(9) 0.01260 296.5 6.1
284(9) 0.01328 296.5 6.1
286(9) 0.01257 296.4 6.0
316(10) 0.01085 296.4 6.0
304(9) 0.01154 296.3 5.9
300(9) 0.01126 296.3 5.9
303(9) 0.01229 296.3 5.9
315(9) 0.01136 296.2 5.9
286(9) 0.01177 296.2 5.8
308(10) 0.01094 296.1 5.8
299(9) 0.01170 296.1 5.8
330(9) 0.01122 296.1 5.8
331(10) 0.01083 296.0 5.8
322(10) 0.01049 296.0 5.7
331(10) 0.01042 295.9 5.7
291(9) 0.01258 295.9 5.7
303(9) 0.01230 295.9 5.7
311(10) 0.01036 295.8 5.7
293(9) 0.01165 295.8 5.7
309(10) 0.01084 295.7 5.7
317(9) 0.01157 295.7 5.7
317(9) 0.01175 295.7 5.7
312(9) 0.01116 295.6 5.7
302(9) 0.01110 295.6 5.7
302(9) 0.01144 295.5 5.7
296(9) 0.01210 295.5 5.7
287(9) 0.01294 295.5 5.7
293(9) 0.01191 295.4 5.8
314(10) 0.01041 295.4 5.8
288(9) 0.01235 295.3 5.8
275(9) 0.01329 295.3 5.8
299(9) 0.01247 295.3 5.8
342(10) 0.01010 295.2 5.9
313(10) 0.01039 295.2 5.9
288(9) 0.01219 295.1 5.9
334(10) 0.01097 295.1 5.9
314(9) 0.01172 295.1 6.0
294(9) 0.01162 295.0 6.0
314(10) 0.01004 295.0 6.0
310(10) 0.01099 294.9 6.1
321(9) 0.01168 294.9 6.1
320(9) 0.01148 294.9 6.1
309(9) 0.01120 294.8 6.2
319(10) 0.01026 294.8 6.2
311(9) 0.01161 294.7 6.3
287(9) 0.01294 294.7 6.3
320(9) 0.01133 294.7 6.3
304(9) 0.01168 294.6 6.4
288(9) 0.01133 294.6 6.5
300(9) 0.01121 294.5 6.5
317(9) 0.01180 294.5 6.6
297(9) 0.01237 294.5 6.6
332(10) 0.01054 294.4 6.7
333(10) 0.00969 294.4 6.8
300(9) 0.01148 294.3 6.8
290(9) 0.01279 294.3 6.9
323(10) 0.01077 294.3 7.0
307(9) 0.01121 294.2 7.1
300(9) 0.01193 294.2 7.1
325(10) 0.01072 294.1 7.2
320(9) 0.01171 294.1 7.3
312(10) 0.01091 294.1 7.4
279(9) 0.01233 294.0 7.5
281(9) 0.01245 294.0 7.6
295(9) 0.01231 293.9 7.7
314(9) 0.01190 293.9 7.8
303(9) 0.01185 293.9 7.9
301(9) 0.01126 293.8 8.1
299(9) 0.01119 293.8 8.2
309(9) 0.01189 293.7 8.3
313(9) 0.01195 293.7 8.5
296(9) 0.01195 293.7 8.6
300(9) 0.01110 293.6 8.8
309(10) 0.01093 293.6 8.9
309(9) 0.01174 293.5 9.1
311(9) 0.01196 293.5 9.3
319(10) 0.01077 293.5 9.4
328(10) 0.01024 293.4 9.6
324(10) 0.01074 293.4 9.8
308(9) 0.01182 293.3 10.1
299(9) 0.01264 293.3 10.3
326(10) 0.01058 293.3 10.5
316(10) 0.01029 293.2 10.8
321(10) 0.01068 293.2 11.0
310(9) 0.01197 293.1 11.3
313(9) 0.01196 293.1 11.6
305(9) 0.01172 293.1 11.9
290(9) 0.01123 293.0 12.3
303(9) 0.01133 293.0 12.6
320(9) 0.01146 292.9 13.0
324(9) 0.01136 292.9 13.4
334(10) 0.01023 292.9 13.9
311(10) 0.01041 292.8 14.3
293(9) 0.01220 292.8 14.8
327(9) 0.01149 292.7 15.4
333(10) 0.01097 292.7 16.0
325(10) 0.01049 292.7 16.6
295(9) 0.01155 292.6 17.3
319(10) 0.01071 292.6 18.0
309(9) 0.01207 292.5 18.8
304(9) 0.01177 292.5 19.7
317(10) 0.01104 292.5 20.6
337(10) 0.00991 292.4 21.7
311(9) 0.01146 292.4 22.8
329(9) 0.01117 292.3 24.0
319(9) 0.01122 292.3 25.3
326(10) 0.01081 292.3 26.7
321(10) 0.01075 292.2 28.2
318(10) 0.01064 292.2 29.9
316(9) 0.01179 292.1 31.7
302(9) 0.01212 292.1 33.6
320(10) 0.01062 292.1 35.6
342(10) 0.00965 292.0 37.8
346(10) 0.00991 292.0 40.0
348(10) 0.01065 291.9 42.4
368(10) 0.00932 291.9 44.9
356(10) 0.00944 291.9 47.5
355(10) 0.00976 291.8 50.1
371(10) 0.00945 291.8 52.8
346(10) 0.01080 291.7 55.4
360(10) 0.00967 291.7 57.8
372(11) 0.00891 291.7 60.1
332(10) 0.01071 291.6 62.2
359(10) 0.01008 291.6 63.9
357(10) 0.01046 291.5 65.2
350(10) 0.01024 291.5 66.1
369(11) 0.00898 291.5 66.5
383(10) 0.00917 291.4 66.5
356(10) 0.01028 291.4 66.0
344(10) 0.01088 291.3 65.2
353(10) 0.00970 291.3 64.0
341(10) 0.00956 291.3 62.6
359(10) 0.00950 291.2 61.0
343(10) 0.01078 291.2 59.3
370(10) 0.00999 291.1 57.6
351(10) 0.01014 291.1 55.8
376(11) 0.00826 291.1 54.0
352(10) 0.00967 291.0 52.3
348(10) 0.01044 291.0 50.6
357(10) 0.01049 290.9 49.0
377(11) 0.00899 290.9 47.5
362(11) 0.00897 290.9 46.1
355(10) 0.00978 290.8 44.8
363(10) 0.01026 290.8 43.5
375(10) 0.00953 290.7 42.3
330(10) 0.01054 290.7 41.3
330(10) 0.01006 290.7 40.3
346(10) 0.00976 290.6 39.4
336(9) 0.01111 290.6 38.6
346(10) 0.01040 290.5 37.8
340(10) 0.01001 290.5 37.2
334(10) 0.00960 290.5 36.6
323(10) 0.01063 290.4 36.1
338(10) 0.01102 290.4 35.6
354(10) 0.01002 290.3 35.3
337(10) 0.01040 290.3 34.9
331(10) 0.01024 290.3 34.7
295(9) 0.01175 290.2 34.4
320(9) 0.01156 290.2 34.3
340(10) 0.01059 290.1 34.1
325(10) 0.01069 290.1 34.0
362(11) 0.00902 290.1 34.0
349(10) 0.01010 290.0 33.9
346(10) 0.01075 290.0 33.9
337(10) 0.01006 289.9 34.0
321(10) 0.01036 289.9 34.0
300(9) 0.01136 289.9 34.1
358(10) 0.00985 289.8 34.2
342(10) 0.01086 289.8 34.4
338(10) 0.01032 289.7 34.5
346(10) 0.00962 289.7 34.7
336(10) 0.01065 289.7 34.9
339(10) 0.01067 289.6 35.2
332(9) 0.01122 289.6 35.5
318(10) 0.01091 289.5 35.9
332(10) 0.01008 289.5 36.4
310(9) 0.01147 289.5 37.0
321(9) 0.01120 289.4 37.7
312(9) 0.01195 289.4 38.6
328(10) 0.01035 289.3 39.7
333(10) 0.00980 289.3 41.1
355(10) 0.00967 289.3 42.7
328(9) 0.01110 289.2 44.7
333(9) 0.01122 289.2 47.1
340(10) 0.01029 289.1 49.8
364(11) 0.00878 289.1 52.9
346(10) 0.01008 289.1 56.5
349(10) 0.01081 289.0 60.4
345(10) 0.01052 289.0 64.6
341(10) 0.01033 288.9 69.0
354(10) 0.00924 288.9 73.3
373(10) 0.00920 288.9 77.4
382(10) 0.00984 288.8 80.9
388(10) 0.00939 288.8 83.5
361(10) 0.00969 288.7 84.8
373(11) 0.00876 288.7 84.6
371(10) 0.00957 288.7 83.2
370(10) 0.01009 288.6 80.6
378(10) 0.00965 288.6 77.2
392(11) 0.00891 288.5 73.4
365(11) 0.00906 288.5 69.5
364(10) 0.00935 288.5 65.6
372(10) 0.00992 288.4 62.0
315(9) 0.01172 288.4 58.7
369(10) 0.00908 288.3 55.7
369(10) 0.00923 288.3 53.0
345(10) 0.01023 288.3 50.7
360(10) 0.01032 288.2 48.8
357(10) 0.00998 288.2 47.1
364(10) 0.00939 288.1 45.7
348(10) 0.00996 288.1 44.5
347(10) 0.00994 288.1 43.4
349(10) 0.01069 288.0 42.5
350(10) 0.01033 288.0 41.8
366(10) 0.00944 287.9 41.0
332(10) 0.01036 287.9 40.4
340(10) 0.01022 287.9 39.8
334(9) 0.01114 287.8 39.3
366(10) 0.00932 287.8 38.7
357(10) 0.00957 287.7 38.2
349(10) 0.01012 287.7 37.7
341(10) 0.01050 287.7 37.2
343(10) 0.01070 287.6 36.7
355(10) 0.00987 287.6 36.2
341(10) 0.00999 287.5 35.8
319(9) 0.01115 287.5 35.3
317(9) 0.01134 287.5 34.8
309(9) 0.01214 287.4 34.4
308(9) 0.01136 287.4 33.9
360(11) 0.00890 287.3 33.5
369(10) 0.00957 287.3 33.0
329(9) 0.01122 287.3 32.6
336(9) 0.01119 287.2 32.2
323(9) 0.01113 287.2 31.7
343(10) 0.00938 287.1 31.3
326(10) 0.01092 287.1 30.9
340(10) 0.01075 287.1 30.5
308(9) 0.01216 287.0 30.1
339(10) 0.01026 287.0 29.7
329(10) 0.00968 286.9 29.4
311(10) 0.01105 286.9 29.0
335(9) 0.01110 286.9 28.7
353(10) 0.01031 286.8 28.3
358(10) 0.00948 286.8 28.0
311(10) 0.01081 286.7 27.7
315(10) 0.01065 286.7 27.5
307(9) 0.01201 286.7 27.2
316(9) 0.01179 286.6 27.0
327(10) 0.01029 286.6 26.8
319(10) 0.01051 286.5 26.7
309(9) 0.01141 286.5 26.5
316(9) 0.01178 286.5 26.4
324(9) 0.01124 286.4 26.3
338(10) 0.00997 286.4 26.3
328(10) 0.01047 286.3 26.3
328(10) 0.01031 286.3 26.2
335(9) 0.01110 286.3 26.2
330(10) 0.01092 286.2 26.3
344(10) 0.01030 286.2 26.3
314(9) 0.01109 286.1 26.4
321(10) 0.01089 286.1 26.4
320(9) 0.01154 286.1 26.5
320(9) 0.01126 286.0 26.6
322(10) 0.01095 286.0 26.7
335(10) 0.01003 285.9 26.7
335(10) 0.01041 285.9 26.8
330(9) 0.01111 285.9 26.8
316(10) 0.01097 285.8 26.8
325(10) 0.01032 285.8 26.8
325(10) 0.01066 285.7 26.7
320(9) 0.01112 285.7 26.7
304(9) 0.01239 285.7 26.6
309(10) 0.01082 285.6 26.5
313(10) 0.01056 285.6 26.3
330(10) 0.01045 285.5 26.2
314(9) 0.01141 285.5 26.0
286(9) 0.01301 285.5 25.7
300(9) 0.01188 285.4 25.5
326(10) 0.01000 285.4 25.2
305(9) 0.01181 285.3 25.0
346(10) 0.01058 285.3 24.7
312(9) 0.01187 285.3 24.4
316(10) 0.01087 285.2 24.1
335(10) 0.00940 285.2 23.8
326(10) 0.01066 285.1 23.5
307(9) 0.01218 285.1 23.2
319(9) 0.01158 285.1 22.9
311(10) 0.01072 285.0 22.7
306(10) 0.01039 285.0 22.4
318(10) 0.01101 284.9 22.2
319(9) 0.01142 284.9 21.9
310(9) 0.01214 284.9 21.7
321(10) 0.01050 284.8 21.6
323(10) 0.01022 284.8 21.4
323(10) 0.01067 284.7 21.3
343(10) 0.01092 284.7 21.2
332(9) 0.01118 284.7 21.2
307(9) 0.01152 284.6 21.1
333(10) 0.00989 284.6 21.2
335(10) 0.01045 284.5 21.2
332(9) 0.01117 284.5 21.4
304(9) 0.01220 284.5 21.5
299(9) 0.01167 284.4 21.8
318(10) 0.01067 284.4 22.0
297(9) 0.01206 284.3 22.4
306(9) 0.01209 284.3 22.8
319(9) 0.01124 284.3 23.3
301(9) 0.01174 284.2 23.9
298(9) 0.01154 284.2 24.6
297(9) 0.01179 284.1 25.3
324(9) 0.01152 284.1 26.2
337(10) 0.01037 284.1 27.2
309(9) 0.01116 284.0 28.2
279(9) 0.01268 284.0 29.5
308(9) 0.01156 283.9 30.8
330(9) 0.01122 283.9 32.3
308(9) 0.01121 283.9 33.9
345(10) 0.00942 283.8 35.6
338(10) 0.00980 283.8 37.5
307(9) 0.01183 283.7 39.6
314(9) 0.01194 283.7 41.7
318(9) 0.01110 283.7 44.0
339(10) 0.00993 283.6 46.4
358(10) 0.00980 283.6 48.8
322(10) 0.01090 283.5 51.2
324(9) 0.01150 283.5 53.6
330(10) 0.01031 283.5 56.0
326(10) 0.00989 283.4 58.2
338(10) 0.01002 283.4 60.3
329(10) 0.01097 283.3 62.2
356(10) 0.01039 283.3 63.9
363(10) 0.00960 283.3 65.5
335(10) 0.00978 283.2 67.0
315(9) 0.01135 283.2 68.6
356(10) 0.01056 283.1 70.2
356(10) 0.01037 283.1 72.0
367(10) 0.00909 283.1 74.2
375(11) 0.00855 283.0 76.9
351(10) 0.00986 283.0 80.0
369(10) 0.01016 282.9 83.8
344(10) 0.01069 282.9 88.3
390(11) 0.00864 282.9 93.5
381(11) 0.00860 282.8 99.4
411(11) 0.00838 282.8 106.1
423(11) 0.00890 282.7 113.5
424(11) 0.00867 282.7 121.5
453(11) 0.00764 282.7 130.1
475(12) 0.00701 282.6 138.9
478(12) 0.00744 282.6 147.7
484(11) 0.00762 282.5 156.2
468(11) 0.00778 282.5 163.9
464(12) 0.00756 282.5 170.2
490(12) 0.00667 282.4 174.7
463(12) 0.00754 282.4 177.1
470(11) 0.00787 282.3 177.1
467(11) 0.00773 282.3 174.8
457(11) 0.00760 282.3 170.4
454(12) 0.00734 282.2 164.3
461(11) 0.00761 282.2 156.9
464(11) 0.00807 282.1 148.8
427(11) 0.00855 282.1 140.2
461(12) 0.00741 282.1 131.5
411(11) 0.00808 282.0 122.8
403(11) 0.00867 282.0 114.3
395(10) 0.00938 281.9 106.2
398(11) 0.00903 281.9 98.5
381(10) 0.00926 281.9 91.2
409(11) 0.00831 281.8 84.4
383(10) 0.00927 281.8 78.1
374(10) 0.01000 281.7 72.2
379(11) 0.00898 281.7 66.9
395(11) 0.00834 281.7 62.0
401(11) 0.00859 281.6 57.5
378(10) 0.00969 281.6 53.4
355(10) 0.01044 281.5 49.8
349(10) 0.01007 281.5 46.4
361(11) 0.00905 281.5 43.4
346(10) 0.00983 281.4 40.7
330(10) 0.01098 281.4 38.2
348(10) 0.01077 281.3 35.9
364(10) 0.00949 281.3 33.9
334(10) 0.01010 281.3 32.0
339(10) 0.01029 281.2 30.3
319(9) 0.01165 281.2 28.8
314(9) 0.01182 281.1 27.4
331(10) 0.01044 281.1 26.1
337(10) 0.00950 281.1 24.9
324(10) 0.01102 281.0 23.8
347(10) 0.01054 281.0 22.8
314(9) 0.01171 280.9 21.9
314(10) 0.01094 280.9 21.0
320(10) 0.00995 280.9 20.3
308(9) 0.01110 280.8 19.6
289(9) 0.01306 280.8 18.9
311(9) 0.01168 280.7 18.3
317(9) 0.01110 280.7 17.8
315(10) 0.01035 280.7 17.3
299(9) 0.01193 280.6 16.8
299(9) 0.01272 280.6 16.4
289(9) 0.01236 280.5 16.1
277(9) 0.01254 280.5 15.7
316(10) 0.01021 280.5 15.4
283(9) 0.01214 280.4 15.2
308(9) 0.01216 280.4 14.9
318(9) 0.01141 280.3 14.7
294(9) 0.01196 280.3 14.5
300(9) 0.01122 280.3 14.4
295(9) 0.01182 280.2 14.2
282(9) 0.01326 280.2 14.1
298(9) 0.01207 280.1 14.0
313(10) 0.01086 280.1 13.9
313(10) 0.01064 280.1 13.9
313(10) 0.01103 280.0 13.8
300(9) 0.01232 280.0 13.8
279(9) 0.01261 279.9 13.8
290(9) 0.01138 279.9 13.8
294(9) 0.01168 279.9 13.8
326(10) 0.01081 279.8 13.9
308(9) 0.01215 279.8 13.9
295(9) 0.01170 279.7 14.0
303(10) 0.01100 279.7 14.1
308(9) 0.01114 279.7 14.2
295(9) 0.01261 279.6 14.3
310(9) 0.01194 279.6 14.4
305(9) 0.01144 279.5 14.5
305(10) 0.01103 279.5 14.6
311(10) 0.01101 279.5 14.8
305(9) 0.01171 279.4 14.9
306(9) 0.01216 279.4 15.1
316(10) 0.01096 279.3 15.2
304(10) 0.01078 279.3 15.4
321(10) 0.01053 279.3 15.5
273(9) 0.01360 279.2 15.7
292(9) 0.01271 279.2 15.9
292(9) 0.01210 279.1 16.0
294(9) 0.01134 279.1 16.2
300(9) 0.01174 279.1 16.4
295(9) 0.01245 279.0 16.5
284(9) 0.01302 279.0 16.7
299(9) 0.01177 278.9 16.9
299(10) 0.01104 278.9 17.0
319(10) 0.01063 278.9 17.2
298(9) 0.01247 278.8 17.3
283(9) 0.01306 278.8 17.5
304(9) 0.01113 278.7 17.6
310(10) 0.01025 278.7 17.7
311(10) 0.01094 278.7 17.8
295(9) 0.01259 278.6 17.8
301(9) 0.01229 278.6 17.9
312(10) 0.01093 278.5 17.9
303(10) 0.01041 278.5 17.8
292(9) 0.01173 278.5 17.8
288(9) 0.01286 278.4 17.7
292(9) 0.01274 278.4 17.5
303(9) 0.01196 278.3 17.3
312(10) 0.01090 278.3 17.1
300(9) 0.01150 278.3 16.9
303(9) 0.01220 278.2 16.6
292(9) 0.01246 278.2 16.3
292(9) 0.01207 278.1 16.0
287(9) 0.01225 278.1 15.7
290(9) 0.01192 278.1 15.4
320(9) 0.01161 278.0 15.0
269(9) 0.01339 278.0 14.7
305(10) 0.01098 277.9 14.3
271(9) 0.01306 277.9 14.0
307(9) 0.01152 277.9 13.7
313(9) 0.01187 277.8 13.4
298(9) 0.01142 277.8 13.1
303(9) 0.01142 277.7 12.8
282(9) 0.01263 277.7 12.5
275(9) 0.01313 277.7 12.2
297(9) 0.01252 277.6 12.0
278(9) 0.01217 277.6 11.8
279(9) 0.01136 277.5 11.5
290(9) 0.01197 277.5 11.3
269(9) 0.01338 277.5 11.1
290(9) 0.01296 277.4 10.9
293(9) 0.01186 277.4 10.8
290(9) 0.01178 277.3 10.6
301(9) 0.01126 277.3 10.5
286(9) 0.01274 277.3 10.3
293(9) 0.01292 277.2 10.2
285(9) 0.01250 277.2 10.1
270(9) 0.01255 277.1 10.0
278(9) 0.01262 277.1 9.9
290(9) 0.01263 277.1 9.8
290(9) 0.01292 277.0 9.7
267(9) 0.01314 277.0 9.6
256(9) 0.01325 276.9 9.5
275(9) 0.01240 276.9 9.4
264(9) 0.01382 276.9 9.4
293(9) 0.01255 276.8 9.3
300(9) 0.01155 276.8 9.2
294(10) 0.01090 276.7 9.2
290(9) 0.01203 276.7 9.1
289(9) 0.01283 276.7 9.1
269(9) 0.01358 276.6 9.0
258(9) 0.01313 276.6 9.0
287(9) 0.01155 276.5 8.9
299(9) 0.01195 276.5 8.8
303(9) 0.01212 276.5 8.8
287(9) 0.01276 276.4 8.7
314(10) 0.01106 276.4 8.7
254(9) 0.01371 276.3 8.6
288(9) 0.01167 276.3 8.6
295(9) 0.01260 276.3 8.5
283(9) 0.01305 276.2 8.5
274(9) 0.01248 276.2 8.4
295(10) 0.01083 276.1 8.3
308(10) 0.01098 276.1 8.3
288(9) 0.01288 276.1 8.2
293(9) 0.01214 276.0 8.1
281(9) 0.01209 276.0 8.1
297(9) 0.01143 275.9 8.0
274(9) 0.01223 275.9 7.9
289(9) 0.01292 275.9 7.9
285(9) 0.01200 275.8 7.8
287(9) 0.01125 275.8 7.7
269(9) 0.01280 275.7 7.6
281(9) 0.01262 275.7 7.5
284(9) 0.01293 275.7 7.5
305(9) 0.01112 275.6 7.4
308(10) 0.01075 275.6 7.3
280(9) 0.01288 275.5 7.2
283(9) 0.01304 275.5 7.1
283(9) 0.01295 275.5 7.1
278(9) 0.01273 275.4 7.0
258(9) 0.01255 275.4 6.9
272(9) 0.01255 275.3 6.8
298(9) 0.01212 275.3 6.7
301(9) 0.01221 275.3 6.7
273(9) 0.01342 275.2 6.6
292(9) 0.01112 275.2 6.5
307(9) 0.01118 275.1 6.4
311(9) 0.01150 275.1 6.4
260(8) 0.01420 275.1 6.3
284(9) 0.01260 275.0 6.2
268(9) 0.01249 275.0 6.1
280(9) 0.01207 274.9 6.1
261(8) 0.01400 274.9 6.0
284(9) 0.01323 274.9 5.9
290(9) 0.01168 274.8 5.9
261(9) 0.01273 274.8 5.8
282(9) 0.01214 274.7 5.7
301(9) 0.01224 274.7 5.7
274(9) 0.01352 274.7 5.6
292(9) 0.01203 274.6 5.6
306(10) 0.01093 274.6 5.5
288(9) 0.01239 274.5 5.4
254(8) 0.01463 274.5 5.4
281(9) 0.01314 274.5 5.3
280(9) 0.01248 274.4 5.3
304(10) 0.01092 274.4 5.2
287(9) 0.01199 274.3 5.2
279(9) 0.01346 274.3 5.1
291(9) 0.01182 274.3 5.1
270(9) 0.01267 274.3 5.0
272(9) 0.01211 274.4 5.0
260(9) 0.01333 274.4 5.0
276(9) 0.01349 274.4 4.9
293(9) 0.01242 274.4 4.9
288(9) 0.01212 274.4 4.8
271(9) 0.01294 274.5 4.8
293(9) 0.01216 274.5 4.8
274(9) 0.01379 274.5 4.7
291(9) 0.01191 274.5 4.7
279(9) 0.01241 274.5 4.7
278(9) 0.01189 274.5 4.6
301(9) 0.01176 274.6 4.6
301(9) 0.01223 274.6 4.6
297(9) 0.01188 274.6 4.5
279(9) 0.01197 274.6 4.5
274(9) 0.01252 274.6 4.5
278(9) 0.01295 274.7 4.5
279(9) 0.01331 274.7 4.4
280(9) 0.01257 274.7 4.4
279(9) 0.01200 274.7 4.4
278(9) 0.01291 274.7 4.4
293(9) 0.01267 274.8 4.4
289(9) 0.01293 274.8 4.3
274(9) 0.01240 274.8 4.3
284(9) 0.01163 274.8 4.3
301(9) 0.01124 274.8 4.3
274(9) 0.01350 274.9 4.3
286(9) 0.01297 274.9 4.3
265(8) 0.01406 274.9 4.2
287(9) 0.01128 274.9 4.2
284(9) 0.01201 274.9 4.2
279(9) 0.01320 274.9 4.2
275(9) 0.01342 275.0 4.2
262(9) 0.01330 275.0 4.2
288(10) 0.01085 275.0 4.2
278(9) 0.01260 275.0 4.2
280(9) 0.01322 275.0 4.2
306(9) 0.01202 275.1 4.2
292(9) 0.01138 275.1 4.2
263(9) 0.01225 275.1 4.2
299(9) 0.01158 275.1 4.2
297(9) 0.01263 275.1 4.2
301(9) 0.01220 275.2 4.2
309(10) 0.01098 275.2 4.2
277(9) 0.01232 275.2 4.2
254(8) 0.01396 275.2 4.2
281(9) 0.01318 275.2 4.2
262(8) 0.01403 275.2 4.2
282(9) 0.01250 275.3 4.2
285(9) 0.01179 275.3 4.2
283(9) 0.01186 275.3 4.2
283(9) 0.01324 275.3 4.2
297(9) 0.01183 275.3 4.2
290(9) 0.01190 275.4 4.2
283(9) 0.01194 275.4 4.2
280(9) 0.01228 275.4 4.2
274(9) 0.01362 275.4 4.3
256(9) 0.01369 275.4 4.3
285(9) 0.01171 275.5 4.3
280(9) 0.01174 275.5 4.3
247(8) 0.01399 275.5 4.3
267(8) 0.01398 275.5 4.3
257(8) 0.01406 275.5 4.4
274(9) 0.01296 275.5 4.4
295(9) 0.01144 275.6 4.4
272(9) 0.01318 275.6 4.4
265(8) 0.01396 275.6 4.4
314(9) 0.01135 275.6 4.5
264(9) 0.01314 275.6 4.5
278(9) 0.01197 275.7 4.5
270(9) 0.01367 275.7 4.5
281(9) 0.01303 275.7 4.6
281(9) 0.01203 275.7 4.6
277(9) 0.01150 275.7 4.6
262(9) 0.01323 275.8 4.7
298(9) 0.01206 275.8 4.7
270(9) 0.01372 275.8 4.8
263(9) 0.01356 275.8 4.8
265(9) 0.01230 275.8 4.8
291(9) 0.01166 275.9 4.9
290(9) 0.01286 275.9 4.9
272(9) 0.01378 275.9 5.0
286(9) 0.01219 275.9 5.0
302(10) 0.01025 275.9 5.1
280(9) 0.01245 275.9 5.1
289(9) 0.01289 276.0 5.2
293(9) 0.01251 276.0 5.3
277(9) 0.01246 276.0 5.3
299(10) 0.01098 276.0 5.4
292(9) 0.01161 276.0 5.5
311(9) 0.01205 276.1 5.6
306(9) 0.01180 276.1 5.7
287(9) 0.01224 276.1 5.8
284(9) 0.01200 276.1 5.8
285(9) 0.01275 276.1 6.0
302(9) 0.01234 276.2 6.1
251(8) 0.01448 276.2 6.2
300(9) 0.01168 276.2 6.3
291(9) 0.01160 276.2 6.5
269(9) 0.01276 276.2 6.6
284(9) 0.01303 276.2 6.8
270(9) 0.01344 276.3 7.0
291(9) 0.01171 276.3 7.2
279(9) 0.01248 276.3 7.4
289(9) 0.01239 276.3 7.7
283(9) 0.01317 276.3 7.9
292(9) 0.01214 276.4 8.2
314(10) 0.01070 276.4 8.6
308(9) 0.01127 276.4 9.0
307(9) 0.01137 276.4 9.4
286(9) 0.01299 276.4 9.9
299(9) 0.01162 276.5 10.4
300(10) 0.01104 276.5 10.9
292(9) 0.01154 276.5 11.6
291(9) 0.01223 276.5 12.2
298(9) 0.01237 276.5 13.0
290(9) 0.01208 276.5 13.8
270(9) 0.01303 276.6 14.7
285(9) 0.01186 276.6 15.6
298(9) 0.01240 276.6 16.6
278(9) 0.01330 276.6 17.7
295(9) 0.01141 276.6 18.8
276(9) 0.01236 276.7 19.9
283(9) 0.01194 276.7 21.0
278(9) 0.01318 276.7 22.1
287(9) 0.01321 276.7 23.1
272(9) 0.01286 276.7 24.0
308(10) 0.01014 276.8 24.8
313(9) 0.01116 276.8 25.5
318(9) 0.01130 276.8 26.0
296(9) 0.01268 276.8 26.4
290(9) 0.01202 276.8 26.6
278(9) 0.01166 276.9 26.8
285(9) 0.01197 276.9 26.8
299(9) 0.01231 276.9 26.7
324(9) 0.01142 276.9 26.4
311(10) 0.01102 276.9 26.0
302(10) 0.01083 276.9 25.5
312(10) 0.01095 277.0 24.8
290(9) 0.01284 277.0 24.0
306(9) 0.01201 277.0 23.1
304(9) 0.01149 277.0 22.1
297(10) 0.01101 277.0 21.2
283(9) 0.01273 277.1 20.2
300(9) 0.01248 277.1 19.3
307(9) 0.01182 277.1 18.5
270(9) 0.01286 277.1 17.7
298(9) 0.01116 277.1 17.1
323(10) 0.01076 277.2 16.5
311(9) 0.01187 277.2 16.0
293(9) 0.01193 277.2 15.7
271(9) 0.01272 277.2 15.4
265(9) 0.01287 277.2 15.2
277(9) 0.01297 277.2 15.2
295(9) 0.01254 277.3 15.2
285(9) 0.01256 277.3 15.3
306(10) 0.01093 277.3 15.5
294(9) 0.01158 277.3 15.8
295(9) 0.01198 277.3 16.2
305(9) 0.01220 277.4 16.7
290(9) 0.01215 277.4 17.4
292(9) 0.01181 277.4 18.1
281(9) 0.01247 277.4 18.9
299(9) 0.01162 277.4 19.8
300(9) 0.01248 277.5 20.9
320(10) 0.01050 277.5 22.0
296(9) 0.01135 277.5 23.3
286(9) 0.01219 277.5 24.7
308(9) 0.01160 277.5 26.2
328(9) 0.01123 277.5 27.7
320(10) 0.01066 277.6 29.4
290(9) 0.01171 277.6 31.0
306(10) 0.01094 277.6 32.6
300(9) 0.01201 277.6 34.2
291(9) 0.01294 277.6 35.6
297(9) 0.01178 277.7 36.8
323(10) 0.00993 277.7 37.7
299(9) 0.01140 277.7 38.4
306(9) 0.01209 277.7 38.7
307(9) 0.01216 277.7 38.8
295(9) 0.01183 277.8 38.5
298(10) 0.01088 277.8 38.1
295(9) 0.01181 277.8 37.5
316(9) 0.01164 277.8 36.7
321(9) 0.01156 277.8 35.9
327(10) 0.01075 277.9 35.0
301(9) 0.01117 277.9 34.1
318(10) 0.01088 277.9 33.3
317(9) 0.01179 277.9 32.5
313(9) 0.01166 277.9 31.7
314(9) 0.01109 277.9 31.0
328(10) 0.00943 278.0 30.4
304(10) 0.01107 278.0 29.8
298(9) 0.01244 278.0 29.4
299(9) 0.01193 278.0 29.1
318(10) 0.01094 278.0 28.9
293(9) 0.01167 278.1 28.8
292(9) 0.01209 278.1 28.8
292(9) 0.01277 278.1 28.9
294(9) 0.01237 278.1 29.2
275(9) 0.01285 278.1 29.6
282(9) 0.01192 278.2 30.0
299(9) 0.01134 278.2 30.6
307(9) 0.01206 278.2 31.3
318(9) 0.01130 278.2 32.1
328(10) 0.01066 278.2 33.0
314(10) 0.01100 278.2 34.1
308(9) 0.01131 278.3 35.2
291(9) 0.01283 278.3 36.5
295(9) 0.01192 278.3 37.9
338(10) 0.00969 278.3 39.5
324(10) 0.01049 278.3 41.1
335(10) 0.01083 278.4 42.9
332(9) 0.01119 278.4 44.8
325(10) 0.01070 278.4 46.9
336(10) 0.01012 278.4 49.1
334(10) 0.01018 278.4 51.4
302(9) 0.01205 278.5 53.8
326(9) 0.01149 278.5 56.4
363(10) 0.00959 278.5 59.1
348(10) 0.00923 278.5 61.9
341(10) 0.00995 278.5 64.8
359(10) 0.01014 278.5 67.8
360(10) 0.01031 278.6 70.8
373(10) 0.00918 278.6 73.8
364(11) 0.00903 278.6 76.9
358(10) 0.00973 278.6 79.8
368(10) 0.01002 278.6 82.7
393(10) 0.00923 278.7 85.4
382(11) 0.00862 278.7 87.8
387(11) 0.00811 278.7 90.0
384(10) 0.00921 278.7 91.9
361(10) 0.01006 278.7 93.4
380(10) 0.00981 278.8 94.4
379(10) 0.00919 278.8 95.1
393(11) 0.00830 278.8 95.3
358(10) 0.00964 278.8 95.0
332(10) 0.01099 278.8 94.3
358(10) 0.01025 278.9 93.2
348(10) 0.01009 278.9 91.8
370(11) 0.00856 278.9 90.1
366(10) 0.00950 278.9 88.1
384(10) 0.00962 278.9 86.0
378(10) 0.00971 278.9 83.7
357(10) 0.00971 279.0 81.3
339(10) 0.00989 279.0 78.8
367(10) 0.00930 279.0 76.4
362(10) 0.01035 279.0 73.9
350(10) 0.01028 279.0 71.5
339(10) 0.01010 279.1 69.2
337(10) 0.01020 279.1 66.9
349(10) 0.01030 279.1 64.8
370(10) 0.01002 279.1 62.7
359(10) 0.00979 279.1 60.8
320(10) 0.01089 279.2 59.0
317(10) 0.01081 279.2 57.3
316(10) 0.01073 279.2 55.7
325(9) 0.01147 279.2 54.2
315(9) 0.01134 279.2 52.8
319(9) 0.01122 279.2 51.6
320(9) 0.01140 279.3 50.4
326(10) 0.01099 279.3 49.3
322(9) 0.01149 279.3 48.3
317(10) 0.01070 279.3 47.4
346(10) 0.00931 279.3 46.6
323(10) 0.01067 279.4 45.8
329(10) 0.01083 279.4 45.1
306(9) 0.01215 279.4 44.4
320(10) 0.01071 279.4 43.8
321(10) 0.01054 279.4 43.2
321(10) 0.01041 279.5 42.6
324(9) 0.01124 279.5 42.1
312(9) 0.01192 279.5 41.5
321(10) 0.01084 279.5 41.0
306(10) 0.01045 279.5 40.5
335(10) 0.01021 279.5 40.0
320(9) 0.01168 279.6 39.5
331(9) 0.01133 279.6 39.0
305(9) 0.01164 279.6 38.4
321(10) 0.01014 279.6 37.9
321(10) 0.01085 279.6 37.4
322(9) 0.01143 279.7 36.8
307(9) 0.01183 279.7 36.2
322(10) 0.01064 279.7 35.7
349(10) 0.00916 279.7 35.1
329(10) 0.01058 279.7 34.5
321(9) 0.01160 279.8 33.9
334(10) 0.01107 279.8 33.3
319(9) 0.01113 279.8 32.7
303(9) 0.01127 279.8 32.0
317(9) 0.01123 279.8 31.4
315(9) 0.01189 279.9 30.8
296(9) 0.01225 279.9 30.2
296(9) 0.01161 279.9 29.6
307(10) 0.01022 279.9 29.0
286(9) 0.01190 279.9 28.4
291(9) 0.01278 279.9 27.8
284(9) 0.01243 280.0 27.3
292(9) 0.01181 280.0 26.7
278(9) 0.01217 280.0 26.2
307(9) 0.01115 280.0 25.7
290(9) 0.01272 280.0 25.2
280(9) 0.01267 280.1 24.7
294(9) 0.01179 280.1 24.2
312(10) 0.01077 280.1 23.7
298(9) 0.01196 280.1 23.3
281(9) 0.01310 280.1 22.9
300(9) 0.01157 280.2 22.5
316(10) 0.01034 280.2 22.1
287(9) 0.01167 280.2 21.7
294(9) 0.01197 280.2 21.4
309(9) 0.01202 280.2 21.0
299(9) 0.01147 280.2 20.7
285(9) 0.01180 280.3 20.4
307(10) 0.01081 280.3 20.2
278(9) 0.01305 280.3 19.9
308(9) 0.01210 280.3 19.7
306(9) 0.01123 280.3 19.5
310(10) 0.01055 280.4 19.3
282(9) 0.01194 280.4 19.1
285(9) 0.01240 280.4 18.9
283(9) 0.01304 280.4 18.8
273(9) 0.01300 280.4 18.6
305(9) 0.01112 280.5 18.5
301(9) 0.01170 280.5 18.4
288(9) 0.01250 280.5 18.3
289(9) 0.01284 280.5 18.3
273(9) 0.01316 280.5 18.2
284(9) 0.01136 280.5 18.2
285(9) 0.01188 280.6 18.2
314(9) 0.01164 280.6 18.2
277(9) 0.01342 280.6 18.2
287(9) 0.01228 280.6 18.3
288(9) 0.01139 280.6 18.4
290(9) 0.01182 280.7 18.4
283(9) 0.01300 280.7 18.5
289(9) 0.01266 280.7 18.6
301(9) 0.01139 280.7 18.8
288(9) 0.01128 280.7 18.9
282(9) 0.01255 280.8 19.1
281(9) 0.01313 280.8 19.3
303(9) 0.01239 280.8 19.5
284(9) 0.01211 280.8 19.7
277(9) 0.01206 280.8 19.9
294(9) 0.01180 280.9 20.1
289(9) 0.01284 280.9 20.4
244(8) 0.01528 280.9 20.6
280(9) 0.01221 280.9 20.9
293(9) 0.01156 280.9 21.2
291(9) 0.01191 280.9 21.5
297(9) 0.01246 280.8 21.7
279(9) 0.01304 280.8 22.0
297(9) 0.01160 280.8 22.3
294(9) 0.01175 280.7 22.6
278(9) 0.01298 280.7 22.9
297(9) 0.01256 280.7 23.2
275(9) 0.01309 280.6 23.4
276(9) 0.01212 280.6 23.7
281(9) 0.01173 280.6 24.0
308(10) 0.01101 280.5 24.2
286(9) 0.01301 280.5 24.5
296(9) 0.01214 280.5 24.7
294(9) 0.01200 280.4 25.0
311(10) 0.01099 280.4 25.2
320(10) 0.01091 280.4 25.4
325(9) 0.01143 280.3 25.6
283(9) 0.01250 280.3 25.8
304(10) 0.01051 280.3 26.0
326(10) 0.01044 280.2 26.2
296(9) 0.01196 280.2 26.4
290(9) 0.01282 280.2 26.5
297(9) 0.01168 280.2 26.7
316(10) 0.01025 280.1 26.8
306(9) 0.01130 280.1 26.9
316(9) 0.01140 280.1 27.1
301(9) 0.01232 280.0 27.2
320(10) 0.01101 280.0 27.2
319(10) 0.01006 280.0 27.3
316(10) 0.01103 279.9 27.4
309(9) 0.01200 279.9 27.4
294(9) 0.01252 279.9 27.4
309(9) 0.01138 279.8 27.4
326(10) 0.01000 279.8 27.4
286(9) 0.01265 279.8 27.3
308(9) 0.01201 279.7 27.3
309(9) 0.01202 279.7 27.2
311(10) 0.01083 279.7 27.1
295(10) 0.01066 279.6 27.0
302(10) 0.01076 279.6 26.9
298(9) 0.01251 279.6 26.8
291(9) 0.01277 279.5 26.6
285(9) 0.01274 279.5 26.5
311(10) 0.01050 279.5 26.3
293(9) 0.01185 279.4 26.2
286(9) 0.01285 279.4 26.0
299(9) 0.01204 279.4 25.8
291(9) 0.01165 279.4 25.7
288(9) 0.01164 279.3 25.5
297(9) 0.01159 279.3 25.3
273(9) 0.01372 279.3 25.2
275(9) 0.01336 279.2 25.0
301(9) 0.01172 279.2 24.9
306(10) 0.01103 279.2 24.7
317(10) 0.01064 279.1 24.6
304(9) 0.01233 279.1 24.5
291(9) 0.01235 279.1 24.4
309(10) 0.01088 279.0 24.3
307(10) 0.01090 279.0 24.2
303(9) 0.01187 279.0 24.2
289(9) 0.01283 278.9 24.2
307(9) 0.01157 278.9 24.2
310(10) 0.01079 278.9 24.2
306(9) 0.01129 278.8 24.3
327(10) 0.01107 278.8 24.4
298(9) 0.01229 278.8 24.5
292(9) 0.01213 278.7 24.7
314(10) 0.01066 278.7 24.9
292(9) 0.01233 278.7 25.2
291(9) 0.01242 278.7 25.5
313(9) 0.01170 278.6 25.8
316(10) 0.01092 278.6 26.3
320(10) 0.01081 278.6 26.7
306(9) 0.01180 278.5 27.3
309(9) 0.01162 278.5 27.8
314(9) 0.01200 278.5 28.5
310(9) 0.01144 278.4 29.1
321(10) 0.01034 278.4 29.9
321(10) 0.01060 278.4 30.6
313(9) 0.01180 278.3 31.4
301(9) 0.01245 278.3 32.2
317(10) 0.01105 278.3 33.0
309(10) 0.01074 278.2 33.8
321(10) 0.01074 278.2 34.5
311(9) 0.01183 278.2 35.1
347(10) 0.01080 278.1 35.7
310(10) 0.01108 278.1 36.1
311(10) 0.01002 278.1 36.5
322(10) 0.01089 278.0 36.8
318(9) 0.01153 278.0 37.1
301(9) 0.01248 278.0 37.3
314(10) 0.01092 277.9 37.4
312(10) 0.01050 277.9 37.6
327(10) 0.01062 277.9 37.8
307(9) 0.01220 277.9 37.9
324(9) 0.01143 277.8 38.1
316(9) 0.01112 277.8 38.3
325(10) 0.01013 277.8 38.5
314(10) 0.01068 277.7 38.6
314(9) 0.01191 277.7 38.8
325(10) 0.01101 277.7 38.8
325(10) 0.01060 277.6 38.9
325(10) 0.01051 277.6 38.8
333(10) 0.01054 277.6 38.7
297(9) 0.01257 277.5 38.5
335(10) 0.01079 277.5 38.2
318(9) 0.01109 277.5 37.9
326(10) 0.01004 277.4 37.4
304(9) 0.01114 277.4 37.0
321(9) 0.01159 277.4 36.4
339(10) 0.01054 277.3 35.9
344(10) 0.00992 277.3 35.4
314(9) 0.01118 277.3 34.8
322(9) 0.01116 277.2 34.3
325(9) 0.01142 277.2 33.9
297(9) 0.01187 277.2 33.4
316(10) 0.01045 277.2 33.0
303(9) 0.01167 277.1 32.6
308(9) 0.01197 277.1 32.3
310(9) 0.01198 277.1 31.9
283(9) 0.01263 277.0 31.6
324(10) 0.00984 277.0 31.3
292(9) 0.01218 277.0 31.1
311(9) 0.01146 276.9 30.8
309(9) 0.01212 276.9 30.6
287(9) 0.01257 276.9 30.4
315(10) 0.01030 276.8 30.2
309(9) 0.01146 276.8 30.0
295(9) 0.01277 276.8 29.9
293(9) 0.01240 276.7 29.8
297(9) 0.01115 276.7 29.7
312(10) 0.01056 276.7 29.6
302(9) 0.01164 276.6 29.6
289(9) 0.01302 276.6 29.6
311(9) 0.01195 276.6 29.6
301(9) 0.01166 276.5 29.7
290(10) 0.01062 276.5 29.8
298(9) 0.01164 276.5 29.9
292(9) 0.01283 276.5 30.1
313(9) 0.01167 276.4 30.2
302(9) 0.01166 276.4 30.4
297(10) 0.01085 276.4 30.6
305(9) 0.01143 276.3 30.8
310(9) 0.01203 276.3 31.0
312(9) 0.01173 276.3 31.2
309(9) 0.01137 276.2 31.3
315(10) 0.01039 276.2 31.5
295(9) 0.01214 276.2 31.6
314(9) 0.01181 276.1 31.7
310(9) 0.01162 276.1 31.8
301(9) 0.01205 276.1 31.8
313(10) 0.01080 276.0 31.8
297(9) 0.01180 276.0 31.8
305(9) 0.01225 276.0 31.7
295(9) 0.01205 275.9 31.5
277(9) 0.01263 275.9 31.4
308(10) 0.01077 275.9 31.2
293(9) 0.01123 275.8 31.0
294(9) 0.01272 275.8 30.7
284(9) 0.01282 275.8 30.5
298(9) 0.01138 275.7 30.2
296(9) 0.01113 275.7 29.9
278(9) 0.01221 275.7 29.7
304(9) 0.01227 275.7 29.4
299(9) 0.01167 275.6 29.1
304(9) 0.01150 275.6 28.9
302(9) 0.01167 275.6 28.7
309(9) 0.01133 275.5 28.5
320(9) 0.01166 275.5 28.4
319(10) 0.01060 275.5 28.3
295(9) 0.01172 275.4 28.2
308(10) 0.01086 275.4 28.1
287(9) 0.01264 275.4 28.1
302(9) 0.01237 275.3 28.2
319(10) 0.01063 275.3 28.2
292(9) 0.01125 275.3 28.4
305(9) 0.01137 275.2 28.6
307(9) 0.01179 275.2 28.9
331(9) 0.01121 275.2 29.2
308(10) 0.01075 275.1 29.7
281(9) 0.01164 275.1 30.2
297(9) 0.01182 275.1 31.0
306(9) 0.01222 275.0 31.8
292(9) 0.01278 275.0 32.9
292(9) 0.01200 275.0 34.1
328(10) 0.00970 275.0 35.6
317(9) 0.01145 274.9 37.3
325(9) 0.01140 274.9 39.2
322(9) 0.01155 274.9 41.4
323(10) 0.01092 274.8 43.8
361(11) 0.00885 274.8 46.4
341(10) 0.01007 274.8 49.0
332(9) 0.01120 274.7 51.7
325(10) 0.01107 274.7 54.2
334(10) 0.01052 274.7 56.5
344(10) 0.00985 274.6 58.2
380(10) 0.00913 274.6 59.4
367(10) 0.01015 274.6 59.8
336(10) 0.01096 274.5 59.5
360(10) 0.00949 274.5 58.6
374(11) 0.00844 274.5 57.2
351(10) 0.00973 274.4 55.5
312(9) 0.01193 274.4 53.7
342(10) 0.01045 274.4 51.8
335(10) 0.01021 274.3 50.0
335(10) 0.00996 274.3 48.4
326(10) 0.01042 274.3 47.0
329(9) 0.01122 274.3 45.7
292(9) 0.01248 274.2 44.8
311(10) 0.01099 274.2 44.0
332(10) 0.01008 274.2 43.4
299(9) 0.01170 274.1 43.0
309(9) 0.01198 274.1 42.8
306(9) 0.01186 274.1 42.7
302(9) 0.01148 274.0 42.7
321(10) 0.01043 274.0 42.8
307(9) 0.01149 274.0 42.9
306(9) 0.01211 273.9 43.1
295(9) 0.01205 273.9 43.3
335(10) 0.01022 273.9 43.5
332(10) 0.01029 273.8 43.7
281(9) 0.01303 273.8 43.9
324(9) 0.01145 273.8 44.1
334(10) 0.01011 273.7 44.3
335(10) 0.01006 273.7 44.6
331(10) 0.01048 273.7 44.9
306(9) 0.01175 273.6 45.3
351(10) 0.01047 273.6 45.7
334(10) 0.01054 273.6 46.3
333(10) 0.00977 273.5 46.9
306(9) 0.01154 273.5 47.6
316(9) 0.01147 273.5 48.4
325(9) 0.01149 273.5 49.3
320(10) 0.01049 273.4 50.2
320(10) 0.00989 273.4 51.2
306(9) 0.01151 273.4 52.3
345(10) 0.01074 273.3 53.3
322(9) 0.01165 273.3 54.3
342(10) 0.01013 273.3 55.3
335(10) 0.00969 273.2 56.2
326(10) 0.01057 273.2 57.0
309(9) 0.01180 273.2 57.8
342(10) 0.01075 273.1 58.4
326(10) 0.01022 273.1 59.0
360(11) 0.00869 273.1 59.4
314(10) 0.01101 273.0 59.8
355(10) 0.01048 273.0 60.1
352(10) 0.01014 273.0 60.4
327(10) 0.01079 272.9 60.5
338(10) 0.00985 272.9 60.5
358(10) 0.00972 272.9 60.4
336(10) 0.01096 272.8 60.2
344(10) 0.01046 272.8 59.8
338(10) 0.00990 272.8 59.3
323(10) 0.00996 272.8 58.5
307(9) 0.01113 272.7 57.6
327(9) 0.01118 272.7 56.4
328(10) 0.01078 272.7 55.1
325(10) 0.01069 272.6 53.6
311(10) 0.01097 272.6 51.9
319(10) 0.01065 272.6 50.1
314(9) 0.01161 272.5 48.3
305(9) 0.01135 272.5 46.4
312(10) 0.01078 272.5 44.4
305(9) 0.01118 272.4 42.5
307(9) 0.01162 272.4 40.6
317(9) 0.01160 272.4 38.8
310(10) 0.01089 272.3 37.0
271(9) 0.01213 272.3 35.3
307(10) 0.01066 272.3 33.6
284(9) 0.01260 272.2 32.1
304(9) 0.01208 272.2 30.6
301(9) 0.01120 272.2 29.2
304(10) 0.01102 272.1 27.9
294(9) 0.01181 272.1 26.7
316(9) 0.01114 272.1 25.5
300(9) 0.01250 272.1 24.4
288(9) 0.01217 272.0 23.5
305(10) 0.01061 272.0 22.5
286(9) 0.01222 272.0 21.7
300(9) 0.01223 271.9 20.9
280(9) 0.01340 271.9 20.2
278(9) 0.01272 271.9 19.6
269(9) 0.01181 271.8 19.0
281(9) 0.01229 271.8 18.4
259(8) 0.01430 271.8 18.0
290(9) 0.01272 271.7 17.5
286(9) 0.01249 271.7 17.2
281(9) 0.01141 271.7 16.8
292(9) 0.01193 271.6 16.6
291(9) 0.01267 271.6 16.3
287(9) 0.01270 271.6 16.1
292(9) 0.01200 271.5 16.0
285(9) 0.01157 271.5 15.9
286(9) 0.01215 271.5 15.8
307(9) 0.01217 271.4 15.8
281(9) 0.01291 271.4 15.8
271(9) 0.01310 271.4 15.9
294(9) 0.01145 271.3 15.9
265(9) 0.01283 271.3 16.0
307(9) 0.01217 271.3 16.1
288(9) 0.01244 271.3 16.3
299(10) 0.01108 271.2 16.4
275(9) 0.01236 271.2 16.5
281(9) 0.01242 271.2 16.6
268(8) 0.01402 271.1 16.7
260(8) 0.01406 271.1 16.7
268(9) 0.01335 271.1 16.7
309(10) 0.01089 271.0 16.7
287(9) 0.01227 271.0 16.6
288(9) 0.01280 271.0 16.4
279(9) 0.01251 270.9 16.2
258(9) 0.01306 270.9 15.9
276(9) 0.01212 270.9 15.6
277(9) 0.01284 270.8 15.3
280(9) 0.01330 270.8 14.9
267(9) 0.01344 270.8 14.6
275(9) 0.01243 270.7 14.2
284(9) 0.01235 270.7 13.8
271(9) 0.01352 270.7 13.5
271(9) 0.01359 270.6 13.2
286(9) 0.01227 270.6 12.8
282(9) 0.01233 270.6 12.5
283(9) 0.01207 270.6 12.2
269(9) 0.01366 270.5 12.0
286(9) 0.01299 270.5 11.7
291(9) 0.01185 270.5 11.5
263(9) 0.01308 270.4 11.3
279(9) 0.01264 270.4 11.1
268(9) 0.01362 270.4 10.9
302(9) 0.01228 270.3 10.7
286(9) 0.01271 270.3 10.6
295(10) 0.01102 270.3 10.5
264(9) 0.01322 270.2 10.4
261(9) 0.01380 270.2 10.3
273(9) 0.01369 270.2 10.2
299(9) 0.01147 270.1 10.1
262(9) 0.01246 270.1 10.1
277(9) 0.01261 270.1 10.0
276(9) 0.01342 270.0 10.0
280(9) 0.01295 270.0 10.0
296(9) 0.01172 270.0 10.0
284(9) 0.01125 269.9 10.0
269(9) 0.01308 269.9 10.0
244(8) 0.01504 269.9 10.1
284(9) 0.01320 269.9 10.1
279(9) 0.01235 269.8 10.2
267(9) 0.01243 269.8 10.2
262(9) 0.01324 269.8 10.3
278(9) 0.01323 269.8 10.4
281(9) 0.01277 269.8 10.5
273(9) 0.01262 269.8 10.6
286(9) 0.01173 269.8 10.7
307(9) 0.01133 269.8 10.9
270(9) 0.01376 269.8 11.1
292(9) 0.01246 269.8 11.2
290(9) 0.01180 269.8 11.4
276(9) 0.01166 269.8 11.6
278(9) 0.01186 269.8 11.9
290(9) 0.01287 269.8 12.1
293(9) 0.01223 269.8 12.4
296(9) 0.01154 269.8 12.7
264(9) 0.01280 269.8 13.0
276(9) 0.01317 269.8 13.3
273(9) 0.01360 269.8 13.7
298(9) 0.01142 269.8 14.1
278(9) 0.01226 269.8 14.5
282(9) 0.01216 269.8 15.0
283(9) 0.01305 269.8 15.5
304(9) 0.01232 269.8 16.0
284(9) 0.01247 269.8 16.6
279(9) 0.01222 269.8 17.2
296(9) 0.01126 269.8 17.9
278(9) 0.01316 269.8 18.6
275(9) 0.01356 269.8 19.3
296(9) 0.01169 269.8 20.2
306(10) 0.01058 269.8 21.0
293(9) 0.01171 269.8 22.0
279(9) 0.01316 269.8 23.0
313(9) 0.01193 269.8 24.1
294(9) 0.01205 269.8 25.2
294(10) 0.01103 269.8 26.4
291(9) 0.01166 269.8 27.7
293(9) 0.01266 269.8 29.0
302(9) 0.01232 269.8 30.5
285(9) 0.01260 269.8 32.0
297(10) 0.01046 269.8 33.5
292(9) 0.01190 269.8 35.2
299(9) 0.01226 269.8 36.9
281(9) 0.01279 269.8 38.6
292(9) 0.01208 269.8 40.5
328(10) 0.00972 269.8 42.3
303(9) 0.01138 269.8 44.2
312(9) 0.01200 269.8 46.1
334(10) 0.01106 269.8 48.0
315(10) 0.01108 269.8 49.8
344(10) 0.00939 269.8 51.6
347(10) 0.00983 269.8 53.3
339(10) 0.01088 269.8 54.9
311(9) 0.01162 269.8 56.3
322(10) 0.01088 269.8 57.6
317(10) 0.01060 269.8 58.6
333(10) 0.01062 269.8 59.4
324(9) 0.01150 269.8 59.9
341(10) 0.01061 269.8 60.1
333(10) 0.01041 269.8 60.0
321(10) 0.01047 269.8 59.7
335(10) 0.01004 269.8 59.1
323(9) 0.01154 269.8 58.2
306(9) 0.01165 269.8 57.1
317(10) 0.01073 269.8 55.7
317(10) 0.01101 269.8 54.2
324(10) 0.01104 269.8 52.6
304(9) 0.01226 269.8 50.9
341(10) 0.00997 269.8 49.1
304(9) 0.01160 269.8 47.2
302(9) 0.01130 269.8 45.4
283(9) 0.01314 269.8 43.5
290(9) 0.01281 269.8 41.7
315(10) 0.01095 269.8 39.8
284(9) 0.01159 269.8 38.1
276(9) 0.01156 269.8 36.4
282(9) 0.01282 269.8 34.7
304(9) 0.01221 269.8 33.2
310(9) 0.01130 269.8 31.7
282(9) 0.01199 269.8 30.3
275(9) 0.01312 269.8 28.9
295(9) 0.01217 269.8 27.6
279(9) 0.01323 269.8 26.4
290(9) 0.01131 269.8 25.3
296(10) 0.01104 269.8 24.2
299(9) 0.01178 269.8 23.2
291(9) 0.01287 269.8 22.3
290(9) 0.01286 269.8 21.4
292(9) 0.01235 269.8 20.6
299(9) 0.01116 269.8 19.9
308(9) 0.01145 269.8 19.2
307(9) 0.01191 269.8 18.5
307(9) 0.01218 269.8 18.0
284(9) 0.01194 269.8 17.4
283(9) 0.01151 269.8 16.9
293(9) 0.01235 269.8 16.4
296(9) 0.01254 269.8 16.0
298(9) 0.01243 269.8 15.6
288(9) 0.01268 269.8 15.3
297(10) 0.01089 269.8 15.0
269(9) 0.01295 269.8 14.7
283(9) 0.01321 269.8 14.4
297(9) 0.01265 269.8 14.2
272(9) 0.01251 269.8 14.0
267(9) 0.01203 269.8 13.8
278(9) 0.01226 269.8 13.7
300(9) 0.01256 269.8 13.6
305(9) 0.01206 269.8 13.5
279(9) 0.01295 269.8 13.4
299(10) 0.01097 269.8 13.3
284(9) 0.01236 269.8 13.3
282(9) 0.01316 269.8 13.3
284(9) 0.01222 269.8 13.3
290(9) 0.01193 269.8 13.3
287(9) 0.01186 269.8 13.3
298(9) 0.01156 269.8 13.4
292(9) 0.01277 269.8 13.5
295(9) 0.01179 269.8 13.6
268(9) 0.01295 269.8 13.7
278(9) 0.01228 269.8 13.8
297(9) 0.01229 269.8 14.0
279(9) 0.01318 269.8 14.2
269(9) 0.01358 269.8 14.4
292(9) 0.01169 269.8 14.6
265(9) 0.01331 269.8 14.9
262(9) 0.01354 269.8 15.2
300(9) 0.01254 269.8 15.5
271(9) 0.01253 269.8 15.8
273(9) 0.01195 269.8 16.2
276(9) 0.01269 269.8 16.6
288(9) 0.01241 269.8 17.0
256(8) 0.01460 269.8 17.4
258(9) 0.01315 269.8 17.9
302(10) 0.01007 269.8 18.4
265(9) 0.01276 269.8 18.9
268(9) 0.01369 269.8 19.5
291(9) 0.01288 269.8 20.1
291(9) 0.01192 269.8 20.7
292(9) 0.01118 269.8 21.4
298(9) 0.01160 269.8 22.1
283(9) 0.01309 269.8 22.8
299(9) 0.01239 269.8 23.5
291(9) 0.01197 269.8 24.2
312(10) 0.01006 269.8 25.0
302(9) 0.01121 269.8 25.8
286(9) 0.01274 269.8 26.6
297(9) 0.01243 269.8 27.4
325(10) 0.01087 269.8 28.2
302(10) 0.01072 269.8 28.9
305(9) 0.01130 269.8 29.7
304(9) 0.01215 269.8 30.4
298(9) 0.01252 269.8 31.1
288(9) 0.01217 269.8 31.8
303(9) 0.01120 269.8 32.4
313(10) 0.01074 269.8 32.9
294(9) 0.01250 269.8 33.4
282(9) 0.01305 269.8 33.8
272(9) 0.01281 269.8 34.1
317(10) 0.01046 269.8 34.4
292(9) 0.01188 269.8 34.6
307(9) 0.01216 269.8 34.8
298(9) 0.01176 269.8 34.9
309(9) 0.01125 269.8 34.9
317(10) 0.01053 269.8 34.9
302(9) 0.01184 269.8 34.9
301(9) 0.01237 269.8 34.8
294(9) 0.01231 269.8 34.8
304(9) 0.01119 269.8 34.7
314(10) 0.01050 269.8 34.6
289(9) 0.01237 269.8 34.5
318(9) 0.01185 269.8 34.4
312(10) 0.01088 269.8 34.2
304(9) 0.01135 269.8 34.1
307(9) 0.01158 269.8 34.0
334(10) 0.01098 269.8 33.8
282(9) 0.01334 269.8 33.7
309(9) 0.01128 269.8 33.5
301(9) 0.01140 269.8 33.3
291(9) 0.01222 269.8 33.0
298(9) 0.01232 269.8 32.8
330(9) 0.01121 269.8 32.5
333(10) 0.01000 269.8 32.1
274(9) 0.01267 269.8 31.8
289(9) 0.01201 269.8 31.4
283(9) 0.01269 269.8 31.0
294(9) 0.01270 269.8 30.6
335(10) 0.01036 269.8 30.3
318(10) 0.01044 269.8 29.9
297(9) 0.01228 269.8 29.5
292(9) 0.01282 269.8 29.2
300(9) 0.01228 269.8 28.9
298(9) 0.01174 269.8 28.6
276(9) 0.01191 269.8 28.3
273(9) 0.01281 269.8 28.1
302(9) 0.01244 269.8 28.0
309(9) 0.01194 269.8 27.8
284(9) 0.01211 269.8 27.8
292(10) 0.01076 269.8 27.7
292(9) 0.01157 269.8 27.7
287(9) 0.01294 269.8 27.8
305(9) 0.01196 269.8 27.9
289(9) 0.01235 269.8 28.0
329(10) 0.00985 269.8 28.2
338(10) 0.01036 269.8 28.4
309(9) 0.01193 269.8 28.7
321(9) 0.01143 269.8 28.9
321(10) 0.01079 269.8 29.2
305(10) 0.01104 269.8 29.5
308(10) 0.01093 269.8 29.8
300(9) 0.01251 269.8 30.2
321(9) 0.01130 269.8 30.5
309(10) 0.01066 269.8 30.8
303(10) 0.01102 269.8 31.1
321(10) 0.01069 269.8 31.4
313(9) 0.01197 269.8 31.6
325(10) 0.01087 269.8 31.8
326(10) 0.01036 269.8 32.0
317(10) 0.01097 269.8 32.1
314(9) 0.01158 269.8 32.2
312(9) 0.01180 269.8 32.2
292(9) 0.01213 269.8 32.2
286(9) 0.01212 269.8 32.1
289(9) 0.01201 269.8 31.9
307(9) 0.01126 269.8 31.7
299(9) 0.01249 269.8 31.4
299(9) 0.01173 269.8 31.1
307(10) 0.01093 269.8 30.7
306(9) 0.01164 269.8 30.3
294(9) 0.01225 269.8 29.8
274(9) 0.01355 269.8 29.3
301(9) 0.01139 269.8 28.8
297(9) 0.01112 269.8 28.3
290(9) 0.01254 269.8 27.7
291(9) 0.01278 269.8 27.2
289(9) 0.01281 269.8 26.6
307(10) 0.01090 269.8 26.0
300(10) 0.01087 269.8 25.5
319(9) 0.01116 269.8 24.9
296(9) 0.01239 269.8 24.4
294(9) 0.01262 269.8 23.9
265(9) 0.01333 269.8 23.3
284(9) 0.01182 269.8 22.8
295(9) 0.01181 269.8 22.4
316(9) 0.01184 269.8 21.9
282(9) 0.01350 269.8 21.5
272(9) 0.01249 269.8 21.0
285(9) 0.01146 269.8 20.6
283(9) 0.01173 269.8 20.2
267(8) 0.01384 269.8 19.9
275(9) 0.01317 269.8 19.5
293(9) 0.01160 269.8 19.2
285(9) 0.01157 269.8 18.9
281(9) 0.01231 269.8 18.6
265(8) 0.01415 269.8 18.3
281(9) 0.01322 269.8 18.0
287(9) 0.01206 269.8 17.8
277(9) 0.01201 269.8 17.5
297(9) 0.01167 269.8 17.3
285(9) 0.01301 269.8 17.1
299(9) 0.01214 269.8 17.0
258(8) 0.01414 269.8 16.8
279(9) 0.01235 269.8 16.7
318(10) 0.01096 269.8 16.6
279(9) 0.01328 269.8 16.5
257(8) 0.01409 269.8 16.4
252(8) 0.01401 269.8 16.4
291(9) 0.01202 269.8 16.3
300(9) 0.01179 269.8 16.3
263(8) 0.01412 269.8 16.3
297(9) 0.01169 269.8 16.4
275(9) 0.01272 269.8 16.5
279(9) 0.01253 269.8 16.5
298(9) 0.01175 269.8 16.7
292(9) 0.01260 269.8 16.8
297(9) 0.01213 269.8 17.0
284(9) 0.01189 269.8 17.1
263(9) 0.01309 269.8 17.4
274(9) 0.01323 269.8 17.6
280(9) 0.01321 269.8 17.8
305(10) 0.01104 269.8 18.1
301(9) 0.01120 269.8 18.4
284(9) 0.01243 269.8 18.8
293(9) 0.01253 269.8 19.1
302(9) 0.01216 269.8 19.5
296(9) 0.01142 269.8 19.9
284(9) 0.01146 269.8 20.3
282(9) 0.01207 269.8 20.8
294(9) 0.01237 269.8 21.2
299(9) 0.01225 269.8 21.7
284(9) 0.01266 269.8 22.2
296(10) 0.01077 269.8 22.7
286(9) 0.01230 269.8 23.2
278(9) 0.01327 269.8 23.7
305(9) 0.01196 269.8 24.3
287(9) 0.01243 269.8 24.8
287(9) 0.01115 269.8 25.3
301(9) 0.01161 269.8 25.9
289(9) 0.01293 269.8 26.4
295(9) 0.01230 269.8 26.9
276(9) 0.01246 269.8 27.3
274(9) 0.01228 269.8 27.8
326(10) 0.01051 269.8 28.2
306(9) 0.01209 269.8 28.6
286(9) 0.01268 269.8 28.9
285(9) 0.01223 269.8 29.2
296(9) 0.01115 269.8 29.4
313(10) 0.01083 269.8 29.6
287(9) 0.01298 269.8 29.7
297(9) 0.01216 269.8 29.7
276(9) 0.01280 269.8 29.8
290(9) 0.01139 269.8 29.7
303(9) 0.01132 269.8 29.6
288(9) 0.01297 269.8 29.4
326(10) 0.01091 269.8 29.2
313(10) 0.01082 269.8 28.9
297(9) 0.01168 269.8 28.6
309(9) 0.01174 269.8 28.3
312(9) 0.01197 269.8 27.9
329(10) 0.01052 269.8 27.5
278(9) 0.01235 269.8 27.0
279(9) 0.01229 269.8 26.5
310(9) 0.01148 269.8 26.0
316(9) 0.01169 269.8 25.5
297(9) 0.01149 269.8 25.0
301(9) 0.01123 269.8 24.5
283(9) 0.01231 269.8 23.9
283(9) 0.01278 269.8 23.4
292(9) 0.01273 269.8 22.8
305(9) 0.01112 269.8 22.3
287(9) 0.01225 269.8 21.8
267(9) 0.01313 269.8 21.2
284(9) 0.01297 269.8 20.7
276(9) 0.01347 269.8 20.2
289(9) 0.01226 269.8 19.7
311(10) 0.01047 269.8 19.2
274(9) 0.01293 269.8 18.7
290(9) 0.01257 269.8 18.3
292(9) 0.01261 269.8 17.8
290(9) 0.01245 269.8 17.4
286(9) 0.01193 269.8 17.0
288(9) 0.01195 269.8 16.6
273(9) 0.01353 269.8 16.2
306(9) 0.01202 269.8 15.9
281(9) 0.01256 269.8 15.5
301(10) 0.01059 269.8 15.2
287(9) 0.01189 269.8 14.9
255(8) 0.01434 269.8 14.6
300(9) 0.01218 269.8 14.3
284(9) 0.01265 269.8 14.0
256(9) 0.01306 269.8 13.8
262(9) 0.01337 269.8 13.5
258(8) 0.01449 269.8 13.3
284(9) 0.01272 269.8 13.1
260(9) 0.01359 269.8 12.9
267(9) 0.01283 269.8 12.7
288(9) 0.01235 269.8 12.5
277(9) 0.01345 269.8 12.4
283(9) 0.01312 269.8 12.2
304(9) 0.01109 269.8 12.1
280(9) 0.01183 269.8 11.9
271(9) 0.01286 269.8 11.8
285(9) 0.01302 269.8 11.7
282(9) 0.01269 269.8 11.6
273(9) 0.01222 269.8 11.5
297(10) 0.01075 269.8 11.4
267(9) 0.01331 269.8 11.3
285(9) 0.01305 269.8 11.2
249(8) 0.01458 269.8 11.2
281(9) 0.01197 269.8 11.1
281(9) 0.01217 269.8 11.0
297(9) 0.01216 269.8 11.0
298(9) 0.01243 269.8 10.9
291(9) 0.01193 269.8 10.9
267(9) 0.01272 269.8 10.8
261(9) 0.01306 269.8 10.8
277(9) 0.01273 269.8 10.7
286(9) 0.01302 269.8 10.7
256(9) 0.01322 269.8 10.7
269(9) 0.01234 269.8 10.6
292(9) 0.01134 269.8 10.6
277(9) 0.01296 269.8 10.6
277(9) 0.01342 269.8 10.5
277(9) 0.01231 269.8 10.5
268(9) 0.01231 269.8 10.5
274(9) 0.01273 269.8 10.5
277(9) 0.01316 269.8 10.5
283(9) 0.01271 269.8 10.5
273(9) 0.01269 269.8 10.4
285(9) 0.01141 269.8 10.4
264(9) 0.01347 269.8 10.4
272(9) 0.01366 269.8 10.5
273(9) 0.01363 269.8 10.5
285(9) 0.01206 269.8 10.5
263(9) 0.01213 269.8 10.5
266(9) 0.01319 269.8 10.5
266(8) 0.01402 269.8 10.6
309(9) 0.01168 269.8 10.6
272(9) 0.01265 269.9 10.7
289(10) 0.01063 269.9 10.7
274(9) 0.01259 269.9 10.8
270(8) 0.01390 269.9 10.8
283(9) 0.01299 269.9 10.9
269(9) 0.01295 269.9 11.0
277(9) 0.01198 269.9 11.1
291(9) 0.01183 269.9 11.1
280(9) 0.01331 269.9 11.2
270(9) 0.01337 269.9 11.3
299(9) 0.01138 269.9 11.4
263(9) 0.01270 269.9 11.5
265(9) 0.01245 270.0 11.7
282(9) 0.01331 270.0 11.8
263(9) 0.01371 270.0 11.9
281(9) 0.01171 270.0 12.0
280(9) 0.01163 270.0 12.1
287(9) 0.01195 270.0 12.2
282(9) 0.01312 270.0 12.3
264(9) 0.01343 270.0 12.4
269(9) 0.01279 270.0 12.5
248(8) 0.01399 270.0 12.6
292(9) 0.01200 270.0 12.6
264(8) 0.01403 270.0 12.7
268(9) 0.01288 270.1 12.8
278(9) 0.01208 270.1 12.8
289(9) 0.01178 270.1 12.9
262(9) 0.01348 270.1 13.0
265(8) 0.01412 270.1 13.0
294(9) 0.01146 270.1 13.1
278(9) 0.01211 270.1 13.1
247(8) 0.01428 270.1 13.1
262(9) 0.01354 270.1 13.2
273(9) 0.01356 270.1 13.2
283(9) 0.01240 270.1 13.3
285(9) 0.01179 270.1 13.4
283(9) 0.01257 270.2 13.4
285(9) 0.01266 270.2 13.5
304(9) 0.01233 270.2 13.6
272(9) 0.01234 270.2 13.7
273(9) 0.01269 270.2 13.8
306(9) 0.01113 270.2 13.9
272(9) 0.01371 270.2 14.0
290(9) 0.01286 270.2 14.1
286(9) 0.01226 270.2 14.3
277(9) 0.01199 270.2 14.5
305(9) 0.01176 270.2 14.6
287(9) 0.01269 270.2 14.8
274(9) 0.01343 270.3 15.1
271(9) 0.01305 270.3 15.3
278(9) 0.01174 270.3 15.5
289(9) 0.01178 270.3 15.8
254(8) 0.01496 270.3 16.1
284(9) 0.01263 270.3 16.5
294(9) 0.01154 270.3 16.8
275(9) 0.01192 270.3 17.2
294(9) 0.01166 270.3 17.7
306(9) 0.01208 270.3 18.2
304(9) 0.01213 270.3 18.8
305(9) 0.01144 270.3 19.5
283(9) 0.01264 270.4 20.2
285(9) 0.01216 270.4 21.1
291(9) 0.01288 270.4 22.1
266(8) 0.01388 270.4 23.2
307(10) 0.01094 270.4 24.6
301(9) 0.01199 270.4 26.1
307(9) 0.01151 270.4 27.7
308(9) 0.01220 270.4 29.6
305(9) 0.01179 270.4 31.7
307(9) 0.01123 270.4 34.0
321(10) 0.01080 270.4 36.4
305(9) 0.01187 270.4 39.0
294(9) 0.01266 270.5 41.6
297(9) 0.01225 270.5 44.3
301(9) 0.01118 270.5 46.9
307(9) 0.01111 270.5 49.3
319(9) 0.01110 270.5 51.5
311(9) 0.01196 270.5 53.1
332(10) 0.01054 270.5 54.2
301(9) 0.01150 270.5 54.6
324(10) 0.01023 270.5 54.4
297(9) 0.01173 270.5 53.5
305(9) 0.01221 270.5 52.1
304(9) 0.01149 270.6 50.3
322(10) 0.01062 270.6 48.3
316(9) 0.01114 270.6 46.1
304(9) 0.01214 270.6 43.8
320(9) 0.01155 270.6 41.6
315(10) 0.01091 270.6 39.5
335(10) 0.00962 270.6 37.5
314(9) 0.01132 270.6 35.6
326(9) 0.01134 270.6 33.9
297(9) 0.01263 270.6 32.4
302(9) 0.01141 270.6 31.0
302(10) 0.01060 270.6 29.8
299(9) 0.01156 270.7 28.8
311(9) 0.01167 270.7 27.8
290(9) 0.01301 270.7 27.0
332(10) 0.01035 270.7 26.3
322(10) 0.00937 270.7 25.6
290(9) 0.01180 270.7 25.0
274(9) 0.01350 270.7 24.5
308(9) 0.01185 270.7 24.0
289(9) 0.01224 270.7 23.5
285(9) 0.01169 270.7 23.0
294(9) 0.01208 270.7 22.6
313(9) 0.01194 270.7 22.1
315(9) 0.01127 270.8 21.7
296(9) 0.01237 270.8 21.3
317(10) 0.01062 270.8 20.9
305(9) 0.01113 270.8 20.5
291(9) 0.01281 270.8 20.1
291(9) 0.01218 270.8 19.7
285(9) 0.01171 270.8 19.3
291(9) 0.01165 270.8 18.9
304(9) 0.01118 270.8 18.5
303(9) 0.01238 270.8 18.2
297(9) 0.01224 270.8 17.8
301(9) 0.01177 270.8 17.5
282(9) 0.01259 270.9 17.1
297(9) 0.01182 270.9 16.8
305(9) 0.01219 270.9 16.5
262(9) 0.01368 270.9 16.1
288(9) 0.01161 270.9 15.8
268(9) 0.01323 270.9 15.5
266(9) 0.01338 270.9 15.3
277(9) 0.01344 270.9 15.0
279(9) 0.01242 270.9 14.7
273(9) 0.01249 270.9 14.4
275(9) 0.01252 270.9 14.2
298(9) 0.01208 270.9 13.9
273(9) 0.01349 271.0 13.7
283(9) 0.01229 271.0 13.5
291(9) 0.01133 271.0 13.3
280(9) 0.01226 271.0 13.1
272(9) 0.01323 271.0 12.9
276(9) 0.01341 271.0 12.7
263(9) 0.01336 271.0 12.5
297(10) 0.01086 271.0 12.3
289(9) 0.01213 271.0 12.2
273(9) 0.01346 271.0 12.0
286(9) 0.01296 271.0 11.9
270(9) 0.01300 271.0 11.7
270(9) 0.01226 271.1 11.6
287(9) 0.01205 271.1 11.5
277(9) 0.01301 271.1 11.3
274(9) 0.01359 271.1 11.2
296(9) 0.01110 271.1 11.1
268(9) 0.01190 271.1 11.0
278(9) 0.01209 271.1 10.9
267(9) 0.01349 271.1 10.8
287(9) 0.01280 271.1 10.8
269(9) 0.01299 271.1 10.7
272(9) 0.01190 271.1 10.6
288(9) 0.01204 271.1 10.5
280(9) 0.01340 271.2 10.5
274(9) 0.01315 271.2 10.4
297(9) 0.01144 271.2 10.4
287(9) 0.01149 271.2 10.3
289(9) 0.01137 271.2 10.3
279(9) 0.01322 271.2 10.2
274(9) 0.01287 271.2 10.2
283(9) 0.01243 271.2 10.2
294(9) 0.01111 271.2 10.2
295(9) 0.01160 271.2 10.1
286(9) 0.01297 271.2 10.1
277(9) 0.01281 271.2 10.1
269(9) 0.01263 271.3 10.1
293(10) 0.01094 271.3 10.1
298(9) 0.01199 271.3 10.1
289(9) 0.01275 271.3 10.1
283(9) 0.01251 271.3 10.2
267(9) 0.01313 271.3 10.2
285(9) 0.01204 271.3 10.2
270(9) 0.01321 271.3 10.3
297(9) 0.01245 271.3 10.4
299(9) 0.01143 271.3 10.4
251(8) 0.01402 271.3 10.5
275(9) 0.01221 271.3 10.7
293(9) 0.01260 271.4 10.8
286(9) 0.01304 271.4 11.0
258(9) 0.01293 271.4 11.2
252(8) 0.01391 271.4 11.5
269(9) 0.01319 271.4 11.9
281(9) 0.01327 271.4 12.3
285(9) 0.01297 271.4 12.8
285(9) 0.01169 271.4 13.5
295(9) 0.01109 271.4 14.3
286(9) 0.01229 271.4 15.3
319(9) 0.01167 271.4 16.6
300(9) 0.01226 271.4 18.2
307(9) 0.01169 271.5 20.2
305(10) 0.01081 271.5 22.5
318(10) 0.01089 271.5 25.2
296(9) 0.01249 271.5 28.3
298(9) 0.01232 271.5 31.8
336(10) 0.01018 271.5 35.5
322(10) 0.00985 271.5 39.3
326(10) 0.01023 271.5 43.1
331(9) 0.01127 271.5 46.6
331(9) 0.01135 271.5 49.7
323(9) 0.01117 271.5 52.2
326(10) 0.00994 271.5 53.7
320(10) 0.01095 271.6 54.3
310(9) 0.01198 271.6 53.9
317(9) 0.01154 271.6 52.6
327(10) 0.01060 271.6 50.5
317(10) 0.01039 271.6 47.9
291(9) 0.01239 271.6 44.9
308(9) 0.01199 271.6 41.8
315(9) 0.01169 271.6 38.5
322(10) 0.01090 271.6 35.3
292(9) 0.01157 271.6 32.3
268(9) 0.01299 271.6 29.6
296(9) 0.01267 271.6 27.0
278(9) 0.01285 271.7 24.8
272(9) 0.01208 271.7 22.8
297(10) 0.01088 271.7 21.1
316(10) 0.01107 271.7 19.5
292(9) 0.01279 271.7 18.2
272(9) 0.01267 271.7 17.0
294(9) 0.01117 271.7 15.9
307(10) 0.01103 271.7 15.0
309(9) 0.01119 271.7 14.1
265(8) 0.01405 271.7 13.4
271(9) 0.01272 271.7 12.7
282(9) 0.01188 271.7 12.1
293(9) 0.01161 271.8 11.5
271(9) 0.01332 271.8 11.0
279(9) 0.01317 271.8 10.6
296(9) 0.01148 271.8 10.2
289(9) 0.01153 271.8 9.9
273(9) 0.01253 271.8 9.5
308(9) 0.01187 271.8 9.3
295(9) 0.01256 271.8 9.0
248(9) 0.01352 271.8 8.8
296(10) 0.01076 271.8 8.6
278(9) 0.01259 271.8 8.4
257(9) 0.01379 271.9 8.2
257(8) 0.01454 271.9 8.1
273(9) 0.01285 271.9 7.9
286(9) 0.01147 271.9 7.8
281(9) 0.01247 271.9 7.7
272(9) 0.01353 271.9 7.6
271(9) 0.01379 271.9 7.5
288(9) 0.01212 271.9 7.4
290(10) 0.01083 271.9 7.3
302(10) 0.01102 271.9 7.2
283(9) 0.01304 271.9 7.1
281(9) 0.01326 271.9 7.0
282(9) 0.01160 272.0 7.0
287(10) 0.01092 272.0 6.9
285(9) 0.01227 272.0 6.8
291(9) 0.01267 272.0 6.8
262(8) 0.01427 272.0 6.8
270(9) 0.01301 272.0 6.7
292(10) 0.01080 272.0 6.7
289(9) 0.01204 272.0 6.6
290(9) 0.01291 272.0 6.6
288(9) 0.01281 272.0 6.6
266(9) 0.01303 272.0 6.6
263(9) 0.01273 272.0 6.6
304(9) 0.01129 272.1 6.6
303(9) 0.01220 272.1 6.6
301(9) 0.01222 272.1 6.7
278(9) 0.01275 272.1 6.7
301(10) 0.01102 272.1 6.8
289(9) 0.01188 272.1 7.0
290(9) 0.01279 272.1 7.3
299(9) 0.01176 272.1 8.0
292(9) 0.01187 272.1 11.2
316(10) 0.01074 272.1 27.1
291(9) 0.01200 272.1 17.9
293(9) 0.01269 272.1 9.1
285(9) 0.01222 272.2 7.8
275(9) 0.01253 272.2 7.4
269(9) 0.01334 272.2 7.3
283(9) 0.01271 272.2 7.2
281(9) 0.01308 272.2 7.2
293(9) 0.01171 272.2 7.1
278(9) 0.01194 272.2 7.1
302(9) 0.01135 272.2 7.1
280(9) 0.01318 272.2 7.1
277(9) 0.01329 272.2 7.0
281(9) 0.01207 272.2 7.0
259(9) 0.01268 272.2 6.9
263(9) 0.01322 272.3 6.8
282(9) 0.01319 272.3 6.8
280(9) 0.01320 272.3 6.7
309(9) 0.01121 272.3 6.7
269(9) 0.01265 272.3 6.6
242(8) 0.01463 272.3 6.5
247(8) 0.01486 272.3 6.5
267(8) 0.01397 272.3 6.4
270(9) 0.01263 272.3 6.4
295(10) 0.01071 272.3 6.3
272(9) 0.01332 272.3 6.3
298(9) 0.01231 272.3 6.2
282(9) 0.01333 272.4 6.2
278(9) 0.01284 272.4 6.2
260(9) 0.01270 272.4 6.2
270(9) 0.01286 272.4 6.2
292(9) 0.01274 272.4 6.1
281(9) 0.01336 272.4 6.1
287(9) 0.01213 272.4 6.1
287(9) 0.01129 272.4 6.2
276(9) 0.01225 272.4 6.2
263(8) 0.01411 272.4 6.2
251(8) 0.01457 272.4 6.2
283(9) 0.01165 272.4 6.2
265(9) 0.01236 272.5 6.3
260(9) 0.01325 272.5 6.3
275(9) 0.01349 272.5 6.3
254(8) 0.01466 272.5 6.4
276(9) 0.01251 272.5 6.4
270(9) 0.01265 272.5 6.5
279(9) 0.01203 272.5 6.5
290(9) 0.01279 272.5 6.6
280(9) 0.01277 272.5 6.6
283(9) 0.01216 272.5 6.7
273(9) 0.01266 272.5 6.8
269(9) 0.01363 272.5 6.9
277(9) 0.01328 272.5 6.9
286(9) 0.01248 272.6 7.0
297(9) 0.01148 272.6 7.1
271(9) 0.01302 272.6 7.2
289(9) 0.01206 272.6 7.3
272(9) 0.01362 272.6 7.4
279(9) 0.01274 272.6 7.5
265(9) 0.01348 272.6 7.6
306(9) 0.01119 272.6 7.7
278(9) 0.01302 272.6 7.8
256(8) 0.01437 272.6 7.9
271(9) 0.01261 272.6 8.1
282(9) 0.01205 272.6 8.2
277(9) 0.01259 272.6 8.3
283(9) 0.01285 272.6 8.5
284(9) 0.01317 272.6 8.7
276(9) 0.01260 272.6 8.8
289(10) 0.01105 272.6 9.0
291(9) 0.01198 272.6 9.2
264(8) 0.01401 272.6 9.4
268(9) 0.01362 272.7 9.6
292(9) 0.01208 272.7 9.9
281(9) 0.01191 272.7 10.1
286(9) 0.01197 272.7 10.4
278(9) 0.01323 272.7 10.7
289(9) 0.01293 272.7 11.0
301(9) 0.01144 272.7 11.3
297(10) 0.01095 272.7 11.6
285(9) 0.01227 272.7 12.0
282(9) 0.01311 272.7 12.4
310(9) 0.01189 272.7 12.8
292(9) 0.01225 272.7 13.2
286(9) 0.01168 272.7 13.7
268(9) 0.01348 272.7 14.2
283(9) 0.01312 272.7 14.7
281(9) 0.01319 272.7 15.2
283(9) 0.01249 272.7 15.7
285(9) 0.01149 272.7 16.3
304(9) 0.01120 272.7 16.8
297(9) 0.01265 272.8 17.4
303(9) 0.01163 272.8 18.0
271(9) 0.01322 272.8 18.5
270(9) 0.01260 272.8 19.0
300(9) 0.01138 272.8 19.5
267(9) 0.01374 272.8 20.0
292(9) 0.01252 272.8 20.4
319(10) 0.01001 272.8 20.8
280(9) 0.01236 272.8 21.2
309(9) 0.01198 272.8 21.5
305(9) 0.01152 272.8 21.8
299(9) 0.01146 272.8 22.1
305(9) 0.01127 272.8 22.3
329(10) 0.01056 272.8 22.5
315(9) 0.01184 272.8 22.8
291(9) 0.01214 272.8 23.0
293(9) 0.01166 272.8 23.2
314(10) 0.01100 272.8 23.4
314(10) 0.01105 272.9 23.5
302(9) 0.01237 272.9 23.6
316(10) 0.01098 272.9 23.7
335(10) 0.00995 272.9 23.8
297(9) 0.01171 272.9 23.8
291(9) 0.01233 272.9 23.8
270(8) 0.01403 272.9 23.8
289(9) 0.01184 272.9 23.7
301(10) 0.01107 272.9 23.6
290(9) 0.01204 272.9 23.5
299(9) 0.01244 272.9 23.4
276(9) 0.01331 272.9 23.2
280(9) 0.01222 272.9 23.0
300(10) 0.01104 272.9 22.8
308(9) 0.01155 272.9 22.5
284(9) 0.01294 272.9 22.3
315(9) 0.01178 272.9 22.0
300(9) 0.01161 272.9 21.7
288(9) 0.01167 272.9 21.4
288(9) 0.01206 273.0 21.0
286(9) 0.01294 273.0 20.7
287(9) 0.01255 273.0 20.3
262(9) 0.01359 273.0 19.9
297(10) 0.01079 273.0 19.5
279(9) 0.01249 273.0 19.1
265(9) 0.01366 273.0 18.8
282(9) 0.01310 273.0 18.4
286(9) 0.01175 273.0 18.0
288(9) 0.01172 273.0 17.6
302(9) 0.01142 273.0 17.2
289(9) 0.01292 273.0 16.8
254(8) 0.01440 273.0 16.5
296(9) 0.01156 273.0 16.1
294(9) 0.01125 273.0 15.8
328(10) 0.01013 273.0 15.5
279(9) 0.01329 273.0 15.1
294(9) 0.01198 273.0 14.8
295(9) 0.01161 273.0 14.5
270(9) 0.01237 273.1 14.3
278(9) 0.01232 273.1 14.0
281(9) 0.01340 273.1 13.7
289(9) 0.01221 273.1 13.5
310(10) 0.01096 273.1 13.2
276(9) 0.01229 273.1 13.0
298(9) 0.01183 273.1 12.8
297(9) 0.01260 273.1 12.6
261(9) 0.01359 273.1 12.4
286(9) 0.01161 273.1 12.2
287(9) 0.01178 273.1 12.1
272(9) 0.01308 273.1 11.9
294(9) 0.01284 273.1 11.8
294(9) 0.01183 273.1 11.6
312(10) 0.01084 273.1 11.5
276(9) 0.01311 273.1 11.4
266(9) 0.01363 273.1 11.3
288(9) 0.01288 273.1 11.2
271(9) 0.01244 273.1 11.1
279(9) 0.01184 273.2 11.0
285(9) 0.01212 273.2 10.9
282(9) 0.01293 273.2 10.8
291(9) 0.01265 273.2 10.8
281(9) 0.01229 273.2 10.7
273(9) 0.01187 273.2 10.7
264(9) 0.01280 273.2 10.6
279(9) 0.01319 273.2 10.6
294(9) 0.01269 273.2 10.6
294(9) 0.01213 273.2 10.5
299(10) 0.01056 273.2 10.5
268(9) 0.01328 273.2 10.5
298(9) 0.01220 273.2 10.5
276(9) 0.01331 273.2 10.5
263(9) 0.01351 273.2 10.5
261(9) 0.01262 273.2 10.5
274(9) 0.01311 273.2 10.5
289(9) 0.01279 273.2 10.5
275(9) 0.01364 273.2 10.5
280(9) 0.01226 273.3 10.5
300(10) 0.01108 273.3 10.5
288(9) 0.01245 273.3 10.6
285(9) 0.01275 273.3 10.6
277(9) 0.01352 273.3 10.6
279(9) 0.01262 273.3 10.6
278(9) 0.01172 273.3 10.7
271(9) 0.01293 273.3 10.7
288(9) 0.01292 273.3 10.7
269(9) 0.01351 273.3 10.8
286(9) 0.01216 273.4 10.8
282(9) 0.01189 273.4 10.9
295(9) 0.01137 273.5 10.9
299(9) 0.01242 273.5 10.9
272(9) 0.01301 273.5 11.0
276(9) 0.01240 273.6 11.0
286(9) 0.01192 273.6 11.1
294(9) 0.01183 273.6 11.1
298(9) 0.01261 273.7 11.2
275(9) 0.01257 273.7 11.2
277(9) 0.01263 273.8 11.3
300(9) 0.01165 273.8 11.3
291(9) 0.01252 273.8 11.4
290(9) 0.01270 273.9 11.5
273(9) 0.01311 273.9 11.5
258(9) 0.01336 273.9 11.6
289(9) 0.01155 274.0 11.7
281(9) 0.01292 274.0 11.8
285(9) 0.01292 274.1 11.9
311(10) 0.01073 274.1 12.0
286(9) 0.01183 274.1 12.1
287(9) 0.01167 274.2 12.3
269(9) 0.01325 274.2 12.4
279(9) 0.01330 274.2 12.6
287(9) 0.01221 274.3 12.8
302(10) 0.01082 274.3 13.0
286(9) 0.01212 274.4 13.3
298(9) 0.01224 274.4 13.6
281(9) 0.01321 274.4 13.9
278(9) 0.01267 274.5 14.2
273(9) 0.01242 274.5 14.6
312(10) 0.01094 274.5 15.1
315(9) 0.01167 274.6 15.6
264(8) 0.01426 274.6 16.1
297(9) 0.01160 274.6 16.7
307(10) 0.01028 274.7 17.4
307(9) 0.01113 274.7 18.1
286(9) 0.01300 274.8 18.9
281(9) 0.01323 274.8 19.8
294(9) 0.01188 274.8 20.7
297(9) 0.01117 274.9 21.7
311(9) 0.01112 274.9 22.8
289(9) 0.01284 274.9 23.9
295(9) 0.01250 275.0 25.0
304(10) 0.01084 275.0 26.1
283(9) 0.01187 275.1 27.2
295(9) 0.01211 275.1 28.2
292(9) 0.01295 275.1 29.2
284(9) 0.01241 275.2 30.0
291(9) 0.01132 275.2 30.7
290(9) 0.01148 275.2 31.2
300(9) 0.01141 275.3 31.6
302(9) 0.01241 275.3 31.8
297(9) 0.01226 275.4 31.8
326(10) 0.01046 275.4 31.7
321(10) 0.01060 275.4 31.5
313(9) 0.01138 275.5 31.2
297(9) 0.01271 275.5 30.8
290(9) 0.01198 275.5 30.4
301(9) 0.01138 275.6 30.0
287(9) 0.01222 275.6 29.5
303(9) 0.01155 275.7 29.1
318(9) 0.01177 275.7 28.7
296(9) 0.01183 275.7 28.2
302(9) 0.01139 275.8 27.9
300(9) 0.01187 275.8 27.5
272(9) 0.01339 275.8 27.2
264(8) 0.01405 275.9 27.0
317(10) 0.01094 275.9 26.8
308(10) 0.01096 276.0 26.7
312(10) 0.01078 276.0 26.7
320(10) 0.01096 276.0 26.7
295(9) 0.01266 276.1 26.7
291(9) 0.01153 276.1 26.9
325(10) 0.01004 276.1 27.0
318(9) 0.01137 276.2 27.2
304(9) 0.01219 276.2 27.5
297(9) 0.01261 276.2 27.8
304(9) 0.01158 276.3 28.1
324(10) 0.00990 276.3 28.5
318(10) 0.01082 276.4 28.9
293(9) 0.01252 276.4 29.4
321(9) 0.01170 276.4 29.9
342(10) 0.00985 276.5 30.5
297(9) 0.01148 276.5 31.1
305(9) 0.01144 276.5 31.8
312(9) 0.01195 276.6 32.6
299(9) 0.01246 276.6 33.5
305(9) 0.01111 276.7 34.6
320(10) 0.01013 276.7 35.8
332(10) 0.00984 276.7 37.3
282(9) 0.01332 276.8 38.9
322(9) 0.01147 276.8 40.8
335(10) 0.01022 276.8 42.9
306(10) 0.01101 276.9 45.3
332(10) 0.00986 276.9 48.0
333(9) 0.01111 277.0 50.9
317(9) 0.01130 277.0 53.9
334(10) 0.01058 277.0 57.1
361(10) 0.00910 277.1 60.3
327(10) 0.01029 277.1 63.5
330(9) 0.01131 277.1 66.4
352(10) 0.01025 277.2 69.0
337(10) 0.01024 277.2 71.2
330(10) 0.01013 277.3 72.9
313(10) 0.01076 277.3 73.9
323(9) 0.01151 277.3 74.4
334(10) 0.01062 277.4 74.4
344(10) 0.00993 277.4 74.1
336(10) 0.01037 277.4 73.5
339(10) 0.01051 277.5 72.7
319(9) 0.01164 277.5 71.7
353(10) 0.00994 277.6 70.7
334(10) 0.01019 277.6 69.7
318(10) 0.01016 277.6 68.6
325(9) 0.01112 277.7 67.6
348(10) 0.01075 277.7 66.5
346(10) 0.00955 277.7 65.4
323(10) 0.01021 277.8 64.3
356(10) 0.00922 277.8 63.1
337(10) 0.01061 277.8 61.9
319(9) 0.01164 277.9 60.7
337(10) 0.00985 277.9 59.4
300(9) 0.01140 278.0 58.1
348(10) 0.00994 278.0 56.9
325(9) 0.01120 278.0 55.8
304(9) 0.01234 278.1 54.7
321(9) 0.01133 278.1 53.8
356(10) 0.00917 278.1 52.9
324(10) 0.01091 278.2 52.1
296(9) 0.01244 278.2 51.5
343(10) 0.01080 278.3 51.0
329(10) 0.01085 278.3 50.5
296(9) 0.01148 278.3 50.2
330(10) 0.01033 278.4 49.9
320(9) 0.01158 278.4 49.7
300(9) 0.01232 278.4 49.6
330(10) 0.01057 278.5 49.5
317(10) 0.01059 278.5 49.4
339(10) 0.00989 278.6 49.3
343(10) 0.01068 278.6 49.3
320(9) 0.01154 278.6 49.2
293(9) 0.01214 278.7 49.1
353(11) 0.00865 278.7 48.9
317(10) 0.01080 278.7 48.6
304(9) 0.01225 278.8 48.3
301(9) 0.01227 278.8 47.9
321(9) 0.01136 278.9 47.5
308(9) 0.01112 278.9 47.0
328(10) 0.01045 278.9 46.4
324(9) 0.01157 279.0 45.8
307(9) 0.01166 279.0 45.2
297(9) 0.01202 279.0 44.6
333(10) 0.01009 279.1 43.9
329(10) 0.01071 279.1 43.3
322(9) 0.01155 279.2 42.7
326(10) 0.01082 279.2 42.0
324(10) 0.01052 279.2 41.4
272(9) 0.01307 279.3 40.9
297(9) 0.01149 279.3 40.3
315(9) 0.01180 279.3 39.7
304(9) 0.01166 279.4 39.2
314(10) 0.01078 279.4 38.6
312(10) 0.01082 279.5 38.1
315(9) 0.01169 279.5 37.6
323(9) 0.01150 279.5 37.1
306(9) 0.01137 279.6 36.6
309(10) 0.01097 279.6 36.1
301(9) 0.01180 279.6 35.7
285(9) 0.01276 279.7 35.3
306(9) 0.01204 279.7 34.9
305(9) 0.01144 279.7 34.5
303(10) 0.01077 279.8 34.1
311(9) 0.01121 279.8 33.8
306(9) 0.01194 279.9 33.5
306(9) 0.01208 279.9 33.2
318(10) 0.01103 279.9 32.9
310(10) 0.01058 280.0 32.7
308(9) 0.01125 280.0 32.4
318(9) 0.01154 280.0 32.2
290(9) 0.01295 280.1 32.0
291(9) 0.01179 280.1 31.8
316(10) 0.01008 280.2 31.6
296(9) 0.01224 280.2 31.3
314(9) 0.01155 280.2 31.1
306(9) 0.01187 280.3 30.9
297(9) 0.01205 280.3 30.6
308(10) 0.01028 280.3 30.4
303(9) 0.01159 280.4 30.1
301(9) 0.01214 280.4 29.8
315(9) 0.01191 280.5 29.5
310(9) 0.01130 280.5 29.2
298(9) 0.01109 280.5 28.9
302(9) 0.01172 280.6 28.6
309(9) 0.01196 280.6 28.4
302(9) 0.01235 280.6 28.1
292(9) 0.01201 280.7 27.8
309(10) 0.01050 280.7 27.6
296(9) 0.01174 280.8 27.4
288(9) 0.01280 280.8 27.2
280(9) 0.01293 280.8 27.0
300(9) 0.01134 280.9 26.9
329(10) 0.00992 280.9 26.8
307(9) 0.01165 280.9 26.8
309(9) 0.01202 281.0 26.8
304(9) 0.01192 281.0 26.9
280(9) 0.01281 281.1 27.0
303(9) 0.01154 281.1 27.3
296(9) 0.01198 281.1 27.5
303(9) 0.01224 281.2 27.9
300(9) 0.01205 281.2 28.3
301(9) 0.01127 281.2 28.8
312(10) 0.01084 281.3 29.4
326(10) 0.01073 281.3 30.0
312(9) 0.01191 281.3 30.6
302(9) 0.01148 281.4 31.3
341(10) 0.00945 281.4 32.0
309(9) 0.01142 281.5 32.6
319(9) 0.01135 281.5 33.3
317(9) 0.01181 281.5 33.9
312(9) 0.01115 281.6 34.4
304(10) 0.01072 281.6 34.8
331(10) 0.01011 281.6 35.1
316(9) 0.01148 281.7 35.2
316(9) 0.01174 281.7 35.2
305(9) 0.01141 281.8 35.1
305(10) 0.01107 281.8 34.9
302(9) 0.01202 281.8 34.5
281(9) 0.01308 281.9 34.2
309(9) 0.01204 281.9 33.7
321(10) 0.01089 281.9 33.3
316(10) 0.00991 282.0 32.8
314(9) 0.01111 282.0 32.4
318(9) 0.01153 282.1 31.9
304(9) 0.01219 282.1 31.5
322(10) 0.01062 282.1 31.0
312(10) 0.01047 282.2 30.6
304(9) 0.01154 282.2 30.2
352(10) 0.01051 282.2 29.8
312(9) 0.01180 282.3 29.3
305(9) 0.01113 282.3 28.9
321(10) 0.01017 282.4 28.5
329(10) 0.01082 282.4 28.1
297(9) 0.01252 282.4 27.7
301(9) 0.01207 282.5 27.3
309(9) 0.01108 282.5 27.0
296(9) 0.01130 282.5 26.7
328(10) 0.01058 282.6 26.4
312(9) 0.01199 282.6 26.2
280(9) 0.01300 282.7 26.0
301(9) 0.01128 282.7 25.9
299(9) 0.01122 282.7 25.9
315(10) 0.01079 282.8 25.9
302(9) 0.01224 282.8 25.9
288(9) 0.01251 282.8 26.0
299(9) 0.01162 282.9 26.2
320(10) 0.01066 282.9 26.4
295(9) 0.01216 282.9 26.7
309(9) 0.01200 283.0 27.1
306(9) 0.01119 283.0 27.5
322(10) 0.01052 283.1 27.9
315(9) 0.01120 283.1 28.4
305(9) 0.01184 283.1 28.9
300(9) 0.01244 283.2 29.5
322(10) 0.01068 283.2 30.0
328(10) 0.01052 283.2 30.6
306(10) 0.01097 283.3 31.2
296(9) 0.01182 283.3 31.8
317(9) 0.01173 283.4 32.4
321(10) 0.01035 283.4 33.0
291(9) 0.01161 283.4 33.5
348(10) 0.00998 283.5 34.0
333(10) 0.01098 283.5 34.4
286(9) 0.01298 283.5 34.7
307(9) 0.01123 283.6 35.0
323(10) 0.01022 283.6 35.3
340(10) 0.00987 283.7 35.4
288(9) 0.01278 283.7 35.5
297(9) 0.01253 283.7 35.6
332(10) 0.01044 283.8 35.6
320(10) 0.01032 283.8 35.5
310(10) 0.01098 283.8 35.4
297(9) 0.01243 283.9 35.3
302(9) 0.01213 283.9 35.1
313(9) 0.01128 284.0 34.9
288(9) 0.01126 284.0 34.7
292(9) 0.01204 284.0 34.5
326(9) 0.01148 284.1 34.2
302(9) 0.01209 284.1 33.8
304(9) 0.01171 284.1 33.4
332(10) 0.00964 284.2 33.0
283(9) 0.01269 284.2 32.5
294(9) 0.01268 284.3 31.9
305(9) 0.01214 284.3 31.2
338(10) 0.01034 284.3 30.5
308(10) 0.01065 284.4 29.7
308(10) 0.01083 284.4 28.9
313(9) 0.01180 284.4 28.1
330(9) 0.01123 284.5 27.2
320(10) 0.01100 284.5 26.3
313(10) 0.01058 284.5 25.4
321(10) 0.01089 284.6 24.6
324(9) 0.01144 284.6 23.7
295(9) 0.01264 284.7 22.9
302(9) 0.01152 284.7 22.2
299(10) 0.01107 284.7 21.4
290(9) 0.01209 284.8 20.7
302(9) 0.01229 284.8 20.1
289(9) 0.01248 284.8 19.6
314(10) 0.01102 284.9 19.0
330(10) 0.01015 284.9 18.6
295(9) 0.01163 285.0 18.2
321(9) 0.01155 285.0 17.8
309(9) 0.01165 285.0 17.5
288(9) 0.01197 285.1 17.3
292(9) 0.01148 285.1 17.1
284(9) 0.01258 285.1 17.0
304(9) 0.01234 285.2 16.9
323(10) 0.01057 285.2 16.9
303(9) 0.01119 285.3 16.9
301(9) 0.01130 285.3 16.9
286(9) 0.01262 285.3 17.0
318(9) 0.01175 285.4 17.0
299(9) 0.01154 285.4 17.2
322(10) 0.00995 285.4 17.3
329(10) 0.01044 285.5 17.4
316(9) 0.01136 285.5 17.5
307(9) 0.01212 285.6 17.5
334(10) 0.01014 285.6 17.6
312(10) 0.01055 285.6 17.6
316(9) 0.01114 285.7 17.6
294(9) 0.01283 285.7 17.5
321(9) 0.01144 285.7 17.4
291(9) 0.01208 285.8 17.2
305(10) 0.01030 285.8 17.0
287(9) 0.01204 285.9 16.7
292(9) 0.01244 285.9 16.4
319(9) 0.01160 285.9 16.1
292(9) 0.01192 286.0 15.8
292(9) 0.01125 286.0 15.5
274(9) 0.01229 286.0 15.2
273(9) 0.01361 286.1 14.8
308(9) 0.01214 286.1 14.5
287(9) 0.01264 286.2 14.2
294(9) 0.01130 286.2 13.9
297(9) 0.01190 286.2 13.7
291(9) 0.01285 286.3 13.5
300(9) 0.01220 286.3 13.2
311(9) 0.01144 286.3 13.1
335(10) 0.00995 286.4 12.9
308(9) 0.01162 286.4 12.8
314(9) 0.01200 286.4 12.7
296(9) 0.01194 286.5 12.7
306(10) 0.01103 286.5 12.6
295(9) 0.01153 286.6 12.7
278(9) 0.01263 286.6 12.7
304(9) 0.01213 286.6 12.8
280(9) 0.01302 286.7 12.9
313(9) 0.01112 286.7 13.1
305(10) 0.01105 286.7 13.3
290(9) 0.01175 286.8 13.5
296(9) 0.01255 286.8 13.8
283(9) 0.01247 286.9 14.0
285(9) 0.01243 286.9 14.4
281(9) 0.01230 286.9 14.7
296(9) 0.01159 287.0 15.1
291(9) 0.01299 287.0 15.6
316(10) 0.01052 287.0 16.0
273(9) 0.01306 287.1 16.5
281(9) 0.01249 287.1 16.9
319(10) 0.01082 287.2 17.4
296(9) 0.01258 287.2 17.9
285(9) 0.01192 287.2 18.4
305(10) 0.01092 287.3 18.8
293(9) 0.01218 287.3 19.3
302(9) 0.01148 287.3 19.7
316(9) 0.01175 287.4 20.2
314(9) 0.01127 287.4 20.7
297(9) 0.01119 287.4 21.1
291(9) 0.01219 287.5 21.6
315(9) 0.01163 287.5 22.1
289(9) 0.01277 287.5 22.6
331(10) 0.01078 287.6 23.1
308(9) 0.01111 287.6 23.6
295(9) 0.01183 287.6 24.2
281(9) 0.01307 287.7 24.8
310(9) 0.01194 287.7 25.4
308(9) 0.01121 287.7 26.0
289(9) 0.01139 287.8 26.7
298(9) 0.01164 287.8 27.3
317(9) 0.01177 287.8 28.0
325(9) 0.01133 287.9 28.6
290(9) 0.01220 287.9 29.3
293(9) 0.01139 287.9 30.0
312(9) 0.01148 288.0 30.6
320(9) 0.01150 288.0 31.3
304(9) 0.01203 288.0 32.0
323(10) 0.01080 288.1 32.6
321(10) 0.01024 288.1 33.3
311(9) 0.01110 288.1 33.9
317(9) 0.01167 288.2 34.6
328(9) 0.01134 288.2 35.2
340(10) 0.01028 288.2 35.8
326(10) 0.01014 288.3 36.4
319(10) 0.01094 288.3 37.0
318(9) 0.01172 288.3 37.5
315(9) 0.01154 288.4 38.0
291(9) 0.01197 288.4 38.3
294(9) 0.01176 288.4 38.7
341(10) 0.01039 288.5 38.9
317(9) 0.01176 288.5 39.0
300(9) 0.01191 288.5 39.1
297(9) 0.01139 288.6 39.1
292(9) 0.01181 288.6 39.0
309(9) 0.01177 288.6 38.8
321(9) 0.01162 288.7 38.5
316(9) 0.01136 288.7 38.2
314(10) 0.01098 288.7 37.8
324(10) 0.01057 288.8 37.3
317(9) 0.01136 288.8 36.8
334(9) 0.01112 288.9 36.3
327(10) 0.01068 288.9 35.7
334(10) 0.01015 288.9 35.0
317(9) 0.01113 289.0 34.4
325(10) 0.01093 289.0 33.7
309(9) 0.01209 289.0 32.9
341(10) 0.01028 289.1 32.2
328(10) 0.01008 289.1 31.4
308(9) 0.01177 289.1 30.6
316(9) 0.01168 289.2 29.8
330(9) 0.01143 289.2 28.9
322(10) 0.01047 289.2 28.1
279(9) 0.01120 289.3 27.3
288(9) 0.01201 289.3 26.5
305(9) 0.01188 289.3 25.7
318(9) 0.01176 289.4 24.9
313(10) 0.01078 289.4 24.2
296(9) 0.01110 289.4 23.4
306(9) 0.01159 289.5 22.7
303(9) 0.01222 289.5 22.0
301(9) 0.01211 289.5 21.4
270(9) 0.01292 289.6 20.8
290(9) 0.01153 289.6 20.2
298(9) 0.01162 289.6 19.6
305(9) 0.01220 289.7 19.1
304(9) 0.01225 289.7 18.6
311(10) 0.01096 289.7 18.1
303(10) 0.01088 289.8 17.6
289(9) 0.01207 289.8 17.2
294(9) 0.01272 289.8 16.8
292(9) 0.01229 289.9 16.5
307(9) 0.01110 289.9 16.1
289(9) 0.01149 289.9 15.8
305(10) 0.01098 290.0 15.5
281(9) 0.01325 290.0 15.3
290(9) 0.01239 290.0 15.0
313(10) 0.01064 290.1 14.8
295(10) 0.01098 290.1 14.6
296(9) 0.01186 290.1 14.5
309(9) 0.01202 290.2 14.3
299(9) 0.01203 290.2 14.2
290(9) 0.01176 290.2 14.0
289(9) 0.01197 290.3 13.9
309(9) 0.01154 290.3 13.8
309(9) 0.01202 290.3 13.7
296(9) 0.01160 290.4 13.6
298(9) 0.01183 290.4 13.6
306(9) 0.01130 290.4 13.5
316(10) 0.01092 290.5 13.4
295(9) 0.01258 290.5 13.3
307(9) 0.01121 290.5 13.2
276(9) 0.01222 290.6 13.2
305(10) 0.01069 290.6 13.1
295(9) 0.01227 290.6 13.0
293(9) 0.01261 290.7 12.9
279(9) 0.01297 290.7 12.8
320(10) 0.00996 290.7 12.7
285(9) 0.01229 290.8 12.6
298(9) 0.01213 290.8 12.4
287(9) 0.01292 290.8 12.3
273(9) 0.01262 290.9 12.1
309(10) 0.01021 290.9 12.0
283(9) 0.01223 290.9 11.8
300(9) 0.01211 291.0 11.6
306(9) 0.01219 291.0 11.5
307(9) 0.01120 291.0 11.3
296(10) 0.01072 291.1 11.1
298(9) 0.01174 291.1 10.9
319(9) 0.01176 291.1 10.7
311(9) 0.01198 291.2 10.5
265(9) 0.01337 291.2 10.3
296(10) 0.01053 291.2 10.2
313(10) 0.01070 291.3 10.0
306(9) 0.01189 291.3 9.8
292(9) 0.01275 291.3 9.6
308(10) 0.01106 291.4 9.4
291(10) 0.01082 291.4 9.3
310(10) 0.01105 291.4 9.1
315(9) 0.01161 291.5 8.9
310(9) 0.01170 291.5 8.8
293(9) 0.01173 291.5 8.6
303(10) 0.01087 291.5 8.5
295(9) 0.01163 291.5 8.4
310(9) 0.01198 291.5 8.2
287(9) 0.01268 291.5 8.1
291(9) 0.01184 291.5 8.0
305(9) 0.01132 291.5 7.9
304(9) 0.01119 291.5 7.8
307(9) 0.01202 291.5 7.7
297(9) 0.01161 291.5 7.6
300(9) 0.01135 291.5 7.5
295(9) 0.01156 291.6 7.4
295(9) 0.01208 291.6 7.3
306(9) 0.01208 291.6 7.3
304(9) 0.01169 291.6 7.2
302(9) 0.01154 291.6 7.2
331(10) 0.01015 291.6 7.1
303(9) 0.01195 291.6 7.1
310(9) 0.01210 291.6 7.0
303(9) 0.01146 291.6 7.0
295(9) 0.01156 291.6 7.0
293(9) 0.01201 291.6 7.0
315(9) 0.01137 291.6 7.0
287(9) 0.01295 291.6 7.0
284(9) 0.01201 291.6 7.0
315(10) 0.01041 291.6 7.0
290(9) 0.01193 291.6 7.1
321(9) 0.01121 291.6 7.1
284(9) 0.01307 291.6 7.2
320(10) 0.01078 291.7 7.3
293(9) 0.01123 291.7 7.4
303(9) 0.01159 291.7 7.5
286(9) 0.01295 291.7 7.7
282(9) 0.01309 291.7 7.9
293(9) 0.01213 291.7 8.1
288(9) 0.01124 291.7 8.3
320(10) 0.01062 291.7 8.6
309(9) 0.01188 291.7 9.0
305(9) 0.01214 291.7 9.4
289(9) 0.01203 291.7 9.8
302(10) 0.01036 291.7 10.3
286(9) 0.01135 291.7 10.9
283(9) 0.01303 291.7 11.6
332(10) 0.01088 291.7 12.3
311(9) 0.01127 291.7 13.0
332(10) 0.00980 291.7 13.9
334(10) 0.01041 291.8 14.8
295(9) 0.01256 291.8 15.7
335(10) 0.01078 291.8 16.7
299(9) 0.01181 291.8 17.7
298(9) 0.01130 291.8 18.7
303(9) 0.01124 291.8 19.7
300(9) 0.01245 291.8 20.7
301(9) 0.01224 291.8 21.5
323(10) 0.01040 291.8 22.2
314(10) 0.01100 291.8 22.8
328(10) 0.01065 291.8 23.2
317(9) 0.01159 291.8 23.3
333(10) 0.01083 291.8 23.2
323(10) 0.01078 291.8 22.9
319(10) 0.01036 291.8 22.4
316(9) 0.01111 291.8 21.7
302(9) 0.01223 291.8 21.0
293(9) 0.01196 291.9 20.1
317(10) 0.01094 291.9 19.1
313(10) 0.01077 291.9 18.2
310(9) 0.01133 291.9 17.2
308(9) 0.01207 291.9 16.3
316(9) 0.01118 291.9 15.3
311(10) 0.01063 291.9 14.5
299(9) 0.01179 291.9 13.7
298(9) 0.01231 291.9 12.9
324(9) 0.01153 291.9 12.2
315(10) 0.01037 291.9 11.6
281(9) 0.01207 291.9 11.1
311(9) 0.01131 291.9 10.6
287(9) 0.01272 291.9 10.1
298(9) 0.01250 291.9 9.7
298(9) 0.01173 291.9 9.4
294(9) 0.01146 291.9 9.1
319(10) 0.01092 291.9 8.8
303(9) 0.01207 292.0 8.6
284(9) 0.01290 292.0 8.4
274(9) 0.01269 292.0 8.3
286(9) 0.01159 292.0 8.2
293(9) 0.01183 292.0 8.0
318(9) 0.01149 292.0 8.0
284(9) 0.01330 292.0 7.9
306(10) 0.01103 292.0 7.8
294(10) 0.01076 292.0 7.8
290(9) 0.01185 292.0 7.7
301(9) 0.01237 292.0 7.7
279(9) 0.01345 292.0 7.7
326(10) 0.01060 292.0 7.7
300(10) 0.01097 292.0 7.7
285(9) 0.01271 292.0 7.7
280(9) 0.01335 292.0 7.7
298(9) 0.01265 292.0 7.7
302(9) 0.01184 292.1 7.7
314(10) 0.01042 292.1 7.8
306(9) 0.01114 292.1 7.8
301(9) 0.01227 292.1 7.8
294(9) 0.01250 292.1 7.9
302(9) 0.01173 292.1 7.9
277(9) 0.01267 292.1 8.0
310(9) 0.01117 292.1 8.1
309(9) 0.01206 292.1 8.1
305(9) 0.01186 292.1 8.2
317(10) 0.01078 292.1 8.3
308(9) 0.01116 292.1 8.4
293(9) 0.01244 292.1 8.5
340(10) 0.01088 292.1 8.6
292(9) 0.01235 292.1 8.7
312(10) 0.01076 292.1 8.8
313(10) 0.01087 292.1 8.9
291(9) 0.01243 292.2 9.0
269(8) 0.01384 292.2 9.1
273(9) 0.01314 292.2 9.3
301(9) 0.01144 292.2 9.4
298(9) 0.01167 292.2 9.6
293(9) 0.01245 292.2 9.7
290(9) 0.01295 292.2 9.9
312(10) 0.01096 292.2 10.1
311(10) 0.01078 292.2 10.3
304(9) 0.01157 292.2 10.5
332(9) 0.01109 292.2 10.7
301(9) 0.01243 292.2 10.9
274(9) 0.01309 292.2 11.2
296(9) 0.01144 292.2 11.4
293(9) 0.01156 292.2 11.7
293(9) 0.01204 292.2 12.1
309(9) 0.01212 292.2 12.4
318(10) 0.01100 292.2 12.8
315(10) 0.01060 292.3 13.2
338(10) 0.01041 292.3 13.6
326(9) 0.01131 292.3 14.1
310(9) 0.01197 292.3 14.6
298(9) 0.01140 292.3 15.2
305(10) 0.01037 292.3 15.8
306(9) 0.01141 292.3 16.5
311(9) 0.01186 292.3 17.2
320(9) 0.01161 292.3 18.0
327(10) 0.01106 292.3 18.9
337(10) 0.00996 292.3 19.8
320(10) 0.01092 292.3 20.8
306(9) 0.01207 292.3 21.8
324(9) 0.01128 292.3 22.9
318(10) 0.01079 292.3 24.1
336(10) 0.00969 292.3 25.2
331(10) 0.01056 292.3 26.5
336(9) 0.01113 292.4 27.7
344(10) 0.01073 292.4 28.9
353(10) 0.00958 292.4 30.1
332(10) 0.00978 292.4 31.3
332(10) 0.01048 292.4 32.3
333(9) 0.01133 292.4 33.3
341(10) 0.01042 292.4 34.1
342(10) 0.01008 292.4 34.8
326(10) 0.01023 292.4 35.4
311(9) 0.01122 292.4 35.8
336(10) 0.01100 292.4 36.2
335(10) 0.01081 292.4 36.4
320(10) 0.01092 292.4 36.5
335(10) 0.01004 292.4 36.7
327(10) 0.01094 292.4 36.8
341(10) 0.01097 292.4 36.9
317(10) 0.01100 292.4 37.1
300(9) 0.01112 292.5 37.3
334(10) 0.00989 292.5 37.6
340(10) 0.01030 292.5 37.9
320(9) 0.01161 292.5 38.3
336(10) 0.01050 292.5 38.8
359(10) 0.00967 292.5 39.4
367(10) 0.00955 292.5 40.1
334(10) 0.01095 292.5 40.9
334(9) 0.01112 292.5 41.9
344(10) 0.01000 292.5 42.9
326(10) 0.01054 292.5 44.0
346(10) 0.01023 292.5 45.3
349(10) 0.01046 292.5 46.7
341(10) 0.01097 292.5 48.2
359(10) 0.00958 292.5 49.8
344(10) 0.00954 292.5 51.5
386(11) 0.00879 292.5 53.2
385(10) 0.00957 292.5 55.0
393(10) 0.00943 292.6 56.9
373(10) 0.00936 292.6 58.7
377(11) 0.00836 292.6 60.4
370(10) 0.00935 292.6 62.0
375(10) 0.00986 292.6 63.4
391(10) 0.00954 292.6 64.5
380(10) 0.00915 292.6 65.3
351(11) 0.00902 292.6 65.8
344(10) 0.00991 292.6 65.9
364(10) 0.01014 292.6 65.8
356(10) 0.01045 292.6 65.4
397(11) 0.00850 292.6 64.7
391(11) 0.00848 292.6 63.9
344(10) 0.01017 292.6 62.9
373(10) 0.00993 292.6 61.8
367(10) 0.00987 292.6 60.7
370(11) 0.00891 292.6 59.5
341(10) 0.01001 292.7 58.2
368(10) 0.00955 292.7 57.0
363(10) 0.01024 292.7 55.7
343(10) 0.01072 292.7 54.4
348(10) 0.00981 292.7 53.0
348(10) 0.00967 292.7 51.7
352(10) 0.00979 292.7 50.4
339(10) 0.01093 292.7 49.0
347(10) 0.01023 292.7 47.7
342(10) 0.01010 292.7 46.3
353(10) 0.00965 292.7 45.0
349(10) 0.01011 292.7 43.7
358(10) 0.01046 292.7 42.5
336(10) 0.01057 292.7 41.2
352(10) 0.00970 292.7 40.0
344(10) 0.00985 292.7 38.9
352(10) 0.00997 292.7 37.7
353(10) 0.01057 292.8 36.6
317(9) 0.01124 292.8 35.6
338(10) 0.00986 292.8 34.6
326(10) 0.01057 292.8 33.7
311(9) 0.01180 292.8 32.7
329(9) 0.01140 292.8 31.9
309(9) 0.01145 292.8 31.1
314(10) 0.01063 292.8 30.3
323(10) 0.01084 292.8 29.6
341(10) 0.01086 292.8 28.9
329(9) 0.01133 292.8 28.3
328(10) 0.01044 292.8 27.7
335(10) 0.00958 292.8 27.1
331(10) 0.01020 292.8 26.6
326(9) 0.01130 292.8 26.2
328(9) 0.01154 292.8 25.8
320(10) 0.01087 292.8 25.4
310(10) 0.01076 292.8 25.1
312(9) 0.01126 292.9 24.8
299(9) 0.01216 292.9 24.5
316(9) 0.01169 292.9 24.3
308(9) 0.01114 292.9 24.1
320(10) 0.01011 292.9 24.0
314(9) 0.01163 292.9 23.9
344(10) 0.01086 292.9 23.8
316(9) 0.01160 292.9 23.8
338(10) 0.01018 292.9 23.8
307(10) 0.01043 292.9 23.9
284(9) 0.01240 292.9 24.0
309(9) 0.01207 292.9 24.1
303(9) 0.01205 292.9 24.3
314(9) 0.01114 292.9 24.5
309(10) 0.01036 292.9 24.7
317(10) 0.01103 292.9 25.0
335(10) 0.01106 292.9 25.3
333(10) 0.01078 293.0 25.7
315(9) 0.01150 293.0 26.1
322(10) 0.01074 293.0 26.5
321(10) 0.01084 293.0 27.0
305(9) 0.01225 293.0 27.6
321(10) 0.01091 293.0 28.1
311(10) 0.01086 293.0 28.8
297(9) 0.01181 293.0 29.4
316(10) 0.01101 293.0 30.1
334(9) 0.01126 293.0 30.9
335(10) 0.01050 293.0 31.7
312(9) 0.01152 293.0 32.5
341(10) 0.00981 293.0 33.3
346(10) 0.00993 293.0 34.2
310(9) 0.01210 293.0 35.1
309(9) 0.01141 293.0 36.1
315(10) 0.01069 293.0 37.0
329(10) 0.01038 293.1 38.0
329(10) 0.01087 293.1 39.0
327(9) 0.01138 293.1 40.0
324(10) 0.01027 293.1 40.9
340(10) 0.00969 293.1 41.8
326(10) 0.01078 293.1 42.7
328(9) 0.01111 293.1 43.6
339(10) 0.01094 293.1 44.4
345(10) 0.01037 293.1 45.1
350(10) 0.00974 293.1 45.7
338(10) 0.01036 293.1 46.3
326(10) 0.01100 293.1 46.8
324(9) 0.01140 293.1 47.2
333(10) 0.01036 293.1 47.4
325(10) 0.01055 293.1 47.6
327(9) 0.01117 293.1 47.7
359(10) 0.01028 293.1 47.7
349(10) 0.01041 293.2 47.5
352(10) 0.00961 293.2 47.4
343(10) 0.00924 293.2 47.1
319(10) 0.01104 293.2 46.7
328(9) 0.01137 293.2 46.4
357(10) 0.01007 293.2 45.9
333(10) 0.01036 293.2 45.4
321(10) 0.00976 293.2 45.0
330(10) 0.01077 293.2 44.4
332(9) 0.01143 293.2 43.9
325(10) 0.01102 293.2 43.4
324(10) 0.01060 293.2 42.9
348(10) 0.00948 293.2 42.4
336(10) 0.01022 293.2 42.0
321(9) 0.01160 293.2 41.5
337(10) 0.01087 293.2 41.1
330(10) 0.01067 293.2 40.7
331(10) 0.01024 293.2 40.4
338(10) 0.00999 293.3 40.1
317(9) 0.01176 293.3 39.8
361(10) 0.00950 293.3 39.6
323(10) 0.01065 293.3 39.4
332(10) 0.01042 293.3 39.2
318(9) 0.01120 293.3 39.0
339(10) 0.01098 293.3 38.9
353(10) 0.01007 293.3 38.8
324(10) 0.01083 293.3 38.7
321(9) 0.01120 293.3 38.7
356(10) 0.01006 293.3 38.6
336(9) 0.01110 293.3 38.6
337(10) 0.01046 293.3 38.6
340(10) 0.01021 293.3 38.6
351(10) 0.00961 293.3 38.6
338(10) 0.01067 293.3 38.6
346(10) 0.01072 293.3 38.6
318(10) 0.01086 293.4 38.6
332(10) 0.01049 293.4 38.7
345(10) 0.01017 293.4 38.7
364(10) 0.01001 293.4 38.7
325(9) 0.01148 293.4 38.8
318(10) 0.01044 293.4 38.8
320(10) 0.01051 293.4 38.9
356(10) 0.00962 293.4 39.0
334(10) 0.01091 293.4 39.1
323(9) 0.01150 293.4 39.2
335(10) 0.01004 293.4 39.3
318(10) 0.01024 293.4 39.5
325(10) 0.01063 293.4 39.6
310(9) 0.01204 293.4 39.8
315(9) 0.01184 293.4 40.0
334(10) 0.01037 293.4 40.3
324(10) 0.00989 293.4 40.5
331(10) 0.01023 293.5 40.8
356(10) 0.01044 293.5 41.1
334(9) 0.01112 293.5 41.4
334(10) 0.01074 293.5 41.7
346(10) 0.00961 293.5 42.0
334(10) 0.01068 293.5 42.3
345(10) 0.01091 293.5 42.6
336(9) 0.01113 293.5 42.9
338(10) 0.00993 293.5 43.1
322(10) 0.01004 293.5 43.2
358(10) 0.00939 293.5 43.3
360(10) 0.01041 293.5 43.3
341(10) 0.01072 293.5 43.3
359(10) 0.00982 293.5 43.2
339(10) 0.01030 293.5 43.0
333(10) 0.01049 293.5 42.8
334(10) 0.01093 293.5 42.5
343(10) 0.01050 293.5 42.2
339(10) 0.00982 293.6 41.8
341(10) 0.00974 293.6 41.5
365(10) 0.00948 293.6 41.1
324(9) 0.01136 293.6 40.7
349(10) 0.01025 293.6 40.3
339(10) 0.01048 293.6 39.9
304(9) 0.01191 293.6 39.5
337(10) 0.01015 293.6 39.1
334(9) 0.01131 293.6 38.7
313(10) 0.01073 293.6 38.3
335(10) 0.00994 293.6 37.9
327(10) 0.01055 293.6 37.5
340(10) 0.01048 293.6 37.1
342(10) 0.01074 293.6 36.6
338(10) 0.01036 293.6 36.1
326(10) 0.01061 293.6 35.6
336(10) 0.01041 293.6 35.0
347(10) 0.01048 293.7 34.4
357(10) 0.01041 293.7 33.8
326(10) 0.01043 293.7 33.1
344(10) 0.00944 293.7 32.5
324(10) 0.01075 293.7 31.8
327(9) 0.01126 293.7 31.0
350(10) 0.01058 293.7 30.3
333(10) 0.01060 293.7 29.6
332(10) 0.01016 293.7 28.9
313(9) 0.01170 293.7 28.1
335(9) 0.01108 293.7 27.4
323(9) 0.01154 293.7 26.7
335(10) 0.01042 293.7 26.1
314(10) 0.01027 293.7 25.4
331(10) 0.01070 293.7 24.8
343(10) 0.01090 293.7 24.2
325(9) 0.01156 293.7 23.6
317(9) 0.01121 293.8 23.0
329(10) 0.00960 293.8 22.5
328(10) 0.01032 293.8 22.0
302(9) 0.01224 293.8 21.5
296(9) 0.01259 293.8 21.1
320(10) 0.01107 293.8 20.7
317(10) 0.01010 293.8 20.3
299(9) 0.01187 293.8 19.9
320(9) 0.01166 293.8 19.5
318(9) 0.01128 293.8 19.2
328(10) 0.01046 293.8 18.9
305(9) 0.01130 293.8 18.6
319(9) 0.01122 293.8 18.3
332(9) 0.01119 293.8 18.1
335(10) 0.01046 293.8 17.8
298(9) 0.01155 293.8 17.6
292(9) 0.01208 293.8 17.4
329(10) 0.01028 293.8 17.2
314(9) 0.01187 293.9 17.0
299(9) 0.01192 293.9 16.9
305(10) 0.01085 293.9 16.7
299(9) 0.01161 293.9 16.6
321(10) 0.01088 293.9 16.4
301(9) 0.01246 293.9 16.3
292(9) 0.01251 293.9 16.2
300(9) 0.01169 293.9 16.1
298(9) 0.01176 293.9 16.0
336(10) 0.01061 293.9 15.9
289(9) 0.01280 293.9 15.8
305(10) 0.01099 293.9 15.7
302(9) 0.01132 293.9 15.6
307(9) 0.01134 293.9 15.6
318(9) 0.01123 293.9 15.5
299(9) 0.01239 293.9 15.4
321(10) 0.01072 293.9 15.4
328(10) 0.01023 294.0 15.4
319(10) 0.01063 294.0 15.3
303(9) 0.01195 294.0 15.3
315(9) 0.01186 294.0 15.3
307(9) 0.01133 294.0 15.3
318(10) 0.01050 294.0 15.3
324(10) 0.01072 294.0 15.3
315(9) 0.01142 294.0 15.4
306(9) 0.01221 294.0 15.4
317(10) 0.01108 294.0 15.5
309(10) 0.01094 294.0 15.5
315(9) 0.01146 294.0 15.6
321(9) 0.01148 294.0 15.7
309(9) 0.01201 294.0 15.8
319(9) 0.01109 294.0 15.9
323(10) 0.00980 294.0 16.0
301(9) 0.01161 294.0 16.1
328(9) 0.01132 294.1 16.2
327(9) 0.01137 294.1 16.4
344(10) 0.00990 294.1 16.5
343(10) 0.00974 294.1 16.6
340(10) 0.01040 294.1 16.7
323(9) 0.01129 294.1 16.8
308(9) 0.01212 294.1 16.9
295(9) 0.01144 294.1 16.9
318(10) 0.01019 294.1 16.9
324(10) 0.01050 294.1 16.9
286(9) 0.01302 294.1 16.9
317(10) 0.01095 294.1 16.8
319(10) 0.01094 294.1 16.7
320(10) 0.01052 294.1 16.5
304(9) 0.01180 294.1 16.4
302(9) 0.01240 294.1 16.1
322(9) 0.01131 294.1 15.9
330(10) 0.01015 294.1 15.7
311(10) 0.01066 294.2 15.4
315(9) 0.01133 294.2 15.1
324(9) 0.01150 294.2 14.8
311(9) 0.01151 294.2 14.5
329(10) 0.01041 294.2 14.1
321(10) 0.01086 294.2 13.8
328(10) 0.01063 294.2 13.5
311(9) 0.01195 294.2 13.2
303(9) 0.01201 294.2 12.8
338(10) 0.01005 294.2 12.5
330(10) 0.01060 294.2 12.2
315(9) 0.01175 294.2 11.9
308(9) 0.01202 294.2 11.6
326(10) 0.01074 294.2 11.3
322(10) 0.01057 294.2 11.0
320(10) 0.01084 294.2 10.8
317(9) 0.01159 294.2 10.5
312(9) 0.01176 294.3 10.3
276(9) 0.01256 294.3 10.0
310(10) 0.01043 294.3 9.8
289(9) 0.01239 294.3 9.6
302(9) 0.01203 294.3 9.4
316(9) 0.01177 294.3 9.2
303(9) 0.01143 294.3 9.0
308(10) 0.01064 294.3 8.8
310(9) 0.01111 294.3 8.7
298(9) 0.01244 294.3 8.5
297(9) 0.01253 294.3 8.4
294(9) 0.01158 294.3 8.2
289(9) 0.01114 294.3 8.1
345(10) 0.01009 294.3 8.0
302(9) 0.01225 294.3 7.9
311(9) 0.01197 294.3 7.8
287(9) 0.01235 294.3 7.7
308(10) 0.01100 294.4 7.6
307(9) 0.01147 294.4 7.5
315(9) 0.01167 294.4 7.4
322(9) 0.01116 294.4 7.3
321(10) 0.01086 294.4 7.2
297(9) 0.01166 294.4 7.2
329(10) 0.01069 294.4 7.1
324(9) 0.01154 294.4 7.1
321(9) 0.01140 294.4 7.0
312(10) 0.01107 294.4 7.0
313(10) 0.01073 294.4 6.9
296(9) 0.01172 294.4 6.9
321(9) 0.01155 294.4 6.8
293(9) 0.01249 294.4 6.8
304(9) 0.01143 294.4 6.8
326(10) 0.01066 294.4 6.7
298(9) 0.01198 294.4 6.7
274(9) 0.01348 294.4 6.7
289(9) 0.01183 294.5 6.7
316(10) 0.01045 294.5 6.7
294(9) 0.01201 294.5 6.7
301(9) 0.01140 294.5 6.6
311(9) 0.01192 294.5 6.6
300(9) 0.01202 294.5 6.6
290(9) 0.01207 294.5 6.6
315(10) 0.01047 294.5 6.6
310(9) 0.01167 294.5 6.6
304(9) 0.01212 294.5 6.6
320(10) 0.01069 294.5 6.6
313(10) 0.01038 294.5 6.7
298(9) 0.01142 294.5 6.7
298(9) 0.01234 294.5 6.7
290(9) 0.01293 294.5 6.7
298(9) 0.01159 294.6 6.7
300(10) 0.01075 294.6 6.7
303(9) 0.01111 294.6 6.8
310(9) 0.01190 294.6 6.8
307(9) 0.01214 294.6 6.8
293(9) 0.01180 294.6 6.9
308(9) 0.01123 294.6 6.9
335(10) 0.01014 294.6 6.9
302(9) 0.01236 294.6 7.0
319(9) 0.01173 294.6 7.0
307(9) 0.01164 294.6 7.0
318(10) 0.01044 294.7 7.1
296(9) 0.01208 294.7 7.1
326(9) 0.01155 294.7 7.2
323(9) 0.01135 294.7 7.2
301(9) 0.01160 294.7 7.2
311(10) 0.01005 294.7 7.3
300(9) 0.01161 294.7 7.3
299(9) 0.01261 294.7 7.3
308(9) 0.01194 294.7 7.4
290(9) 0.01259 294.7 7.4
335(10) 0.00956 294.8 7.4
314(9) 0.01118 294.8 7.4
330(9) 0.01141 294.8 7.4
335(10) 0.01097 294.8 7.5
274(9) 0.01279 294.8 7.5
298(10) 0.01072 294.8 7.5
303(9) 0.01138 294.8 7.5
306(9) 0.01214 294.8 7.5
307(9) 0.01191 294.8 7.5
299(9) 0.01210 294.8 7.6
301(9) 0.01127 294.8 7.6
310(10) 0.01104 294.9 7.6
288(9) 0.01290 294.9 7.6
324(10) 0.01090 294.9 7.6
321(10) 0.01069 294.9 7.6
307(10) 0.01105 294.9 7.6
285(9) 0.01253 294.9 7.7
335(9) 0.01110 294.9 7.7
331(10) 0.01069 294.9 7.7
313(10) 0.01085 294.9 7.7
287(9) 0.01213 294.9 7.7
315(9) 0.01132 294.9 7.7
308(9) 0.01208 295.0 7.7
288(9) 0.01204 295.0 7.7
281(9) 0.01204 295.0 7.8
270(9) 0.01285 295.0 7.8
314(9) 0.01153 295.0 7.8
314(9) 0.01172 295.0 7.8
295(9) 0.01184 295.0 7.8
278(9) 0.01250 295.0 7.8
311(10) 0.01094 295.0 7.8
282(9) 0.01303 295.0 7.8
297(9) 0.01259 295.1 7.8
294(9) 0.01155 295.1 7.8
290(9) 0.01159 295.1 7.8
300(9) 0.01162 295.1 7.8
327(10) 0.01108 295.1 7.7
324(9) 0.01159 295.1 7.7
315(10) 0.01084 295.1 7.7
297(10) 0.01071 295.1 7.7
307(9) 0.01115 295.1 7.7
325(9) 0.01124 295.1 7.6
292(9) 0.01294 295.1 7.6
305(9) 0.01131 295.2 7.6
300(10) 0.01051 295.2 7.6
298(9) 0.01196 295.2 7.5
310(9) 0.01209 295.2 7.5
329(9) 0.01123 295.2 7.5
319(10) 0.01079 295.2 7.4
299(10) 0.01088 295.2 7.4
299(9) 0.01130 295.2 7.4
317(9) 0.01174 295.2 7.3
308(9) 0.01195 295.2 7.3
327(10) 0.01067 295.2 7.2
316(10) 0.01041 295.3 7.2
313(10) 0.01093 295.3 7.2
329(9) 0.01117 295.3 7.1
309(9) 0.01192 295.3 7.1
309(9) 0.01114 295.3 7.0
299(9) 0.01128 295.3 7.0
311(10) 0.01073 295.3 7.0
304(9) 0.01217 295.3 6.9
300(9) 0.01172 295.3 6.9
309(10) 0.01071 295.3 6.9
317(10) 0.01044 295.3 6.8
315(9) 0.01131 295.4 6.8
310(9) 0.01196 295.4 6.8
305(9) 0.01134 295.4 6.7
325(10) 0.01030 295.4 6.7
293(9) 0.01219 295.4 6.7
317(9) 0.01119 295.4 6.6
316(9) 0.01173 295.4 6.6
273(9) 0.01261 295.4 6.6
314(10) 0.01035 295.4 6.6
297(9) 0.01130 295.4 6.6
296(9) 0.01204 295.5 6.6
310(9) 0.01212 295.5 6.5
303(9) 0.01135 295.5 6.5
300(9) 0.01141 295.5 6.5
324(10) 0.01077 295.5 6.5
321(9) 0.01142 295.5 6.5
294(9) 0.01276 295.5 6.5
302(9) 0.01126 295.5 6.6
293(9) 0.01139 295.5 6.6
298(9) 0.01135 295.5 6.6
315(9) 0.01163 295.5 6.6
281(9) 0.01324 295.6 6.6
308(9) 0.01135 295.6 6.6
324(10) 0.01009 295.6 6.7
301(9) 0.01155 295.6 6.7
302(9) 0.01213 295.6 6.8
280(9) 0.01337 295.6 6.8
276(9) 0.01284 295.6 6.8
304(10) 0.01060 295.6 6.9
303(9) 0.01132 295.6 7.0
283(9) 0.01314 295.6 7.0
300(9) 0.01233 295.6 7.1
305(9) 0.01125 295.7 7.2
288(10) 0.01106 295.7 7.2
313(10) 0.01100 295.7 7.3
323(9) 0.01155 295.7 7.4
312(9) 0.01183 295.7 7.5
317(9) 0.01111 295.7 7.6
290(9) 0.01139 295.7 7.7
315(10) 0.01071 295.7 7.8
288(9) 0.01275 295.7 7.9
304(9) 0.01209 295.7 8.1
309(9) 0.01133 295.8 8.2
293(9) 0.01174 295.8 8.3
288(9) 0.01185 295.8 8.5
294(9) 0.01263 295.8 8.6
295(9) 0.01187 295.8 8.8
317(10) 0.01053 295.8 9.0
285(9) 0.01237 295.8 9.1
316(9) 0.01119 295.8 9.3
289(9) 0.01283 295.8 9.5
298(9) 0.01180 295.8 9.7
302(9) 0.01122 295.8 9.9
299(9) 0.01121 295.9 10.1
318(9) 0.01124 295.9 10.3
327(9) 0.01126 295.9 10.5
309(9) 0.01139 295.9 10.7
295(9) 0.01121 295.9 10.9
333(10) 0.00985 295.9 11.1
291(9) 0.01245 295.9 11.3
294(9) 0.01242 295.9 11.5
319(9) 0.01110 295.9 11.7
317(10) 0.01027 295.9 12.0
287(9) 0.01164 295.9 12.2
304(9) 0.01181 296.0 12.4
302(9) 0.01246 296.0 12.6
327(10) 0.01048 296.0 12.8
301(9) 0.01136 296.0 12.9
296(9) 0.01182 296.0 13.1
307(9) 0.01184 296.0 13.2
315(9) 0.01173 296.0 13.4
293(9) 0.01222 296.0 13.5
333(10) 0.00963 296.0 13.6
329(10) 0.01056 296.0 13.7
303(9) 0.01226 296.1 13.8
305(9) 0.01219 296.1 13.8
321(10) 0.01052 296.1 13.9
307(10) 0.01049 296.1 13.9
305(9) 0.01158 296.1 13.9
302(9) 0.01228 296.1 13.9
329(10) 0.01096 296.1 13.9
331(10) 0.01040 296.1 13.8
302(10) 0.01106 296.1 13.8
326(10) 0.01069 296.1 13.7
312(9) 0.01188 296.1 13.7
306(9) 0.01209 296.2 13.6
304(9) 0.01132 296.2 13.6
285(9) 0.01204 296.2 13.5
321(10) 0.01088 296.2 13.5
281(9) 0.01334 296.2 13.4
304(9) 0.01210 296.2 13.4
318(10) 0.01039 296.2 13.3
290(9) 0.01199 296.2 13.2
306(9) 0.01135 296.2 13.2
329(9) 0.01117 296.2 13.1
313(9) 0.01186 296.2 13.1
326(10) 0.01055 296.3 13.0
327(10) 0.01039 296.3 13.0
326(10) 0.01052 296.3 13.0
317(9) 0.01178 296.3 12.9
302(9) 0.01188 296.3 12.9
309(9) 0.01120 296.3 12.9
295(9) 0.01186 296.3 12.8
295(9) 0.01206 296.3 12.8
298(9) 0.01248 296.3 12.8
302(9) 0.01219 296.3 12.8
300(9) 0.01185 296.3 12.8
309(9) 0.01139 296.4 12.8
318(9) 0.01132 296.4 12.8
295(9) 0.01258 296.4 12.8
314(10) 0.01094 296.4 12.8
310(10) 0.01083 296.4 12.9
303(9) 0.01123 296.4 12.9
307(9) 0.01163 296.4 13.0
323(9) 0.01143 296.4 13.1
323(10) 0.01042 296.4 13.1
310(10) 0.01051 296.4 13.2
302(9) 0.01149 296.5 13.4
293(9) 0.01276 296.5 13.5
332(9) 0.01116 296.5 13.6
331(10) 0.01054 296.5 13.8
322(10) 0.01011 296.5 13.9
324(10) 0.01056 296.5 14.1
347(10) 0.01047 296.5 14.3
318(9) 0.01156 296.5 14.5
294(9) 0.01172 296.5 14.7
302(10) 0.01080 296.5 14.9
324(10) 0.01061 296.5 15.2
312(9) 0.01177 296.6 15.4
323(9) 0.01137 296.6 15.7
340(10) 0.01000 296.6 16.0
312(10) 0.01005 296.6 16.3
335(10) 0.00987 296.6 16.6
324(9) 0.01139 296.6 16.9
326(9) 0.01122 296.6 17.3
319(10) 0.01047 296.6 17.6
318(10) 0.01001 296.6 18.0
318(10) 0.01097 296.6 18.3
308(9) 0.01232 296.6 18.7
306(9) 0.01186 296.7 19.0
320(10) 0.01062 296.7 19.4
314(10) 0.01012 296.7 19.7
311(10) 0.01089 296.7 20.1
340(10) 0.01095 296.7 20.4
333(10) 0.01088 296.7 20.7
326(10) 0.01063 296.7 21.0
312(10) 0.01065 296.7 21.2
293(9) 0.01225 296.7 21.4
304(9) 0.01236 296.7 21.6
336(10) 0.01044 296.8 21.7
321(10) 0.01084 296.8 21.9
327(10) 0.01066 296.8 21.9
327(10) 0.01074 296.8 21.9
314(9) 0.01183 296.8 21.9
300(9) 0.01167 296.8 21.9
326(10) 0.01005 296.8 21.8
303(9) 0.01149 296.8 21.7
310(9) 0.01147 296.8 21.6
329(9) 0.01118 296.8 21.4
286(9) 0.01245 296.8 21.3
296(9) 0.01147 296.9 21.1
300(9) 0.01140 296.9 20.9
310(9) 0.01164 296.9 20.7
339(10) 0.01102 296.9 20.5
312(10) 0.01099 296.9 20.3
325(10) 0.01025 296.9 20.2
317(9) 0.01133 296.9 20.0
324(10) 0.01106 296.9 19.8
342(10) 0.01072 296.9 19.6
310(9) 0.01120 296.9 19.4
329(10) 0.00994 296.9 19.2
304(9) 0.01146 297.0 19.0
309(9) 0.01209 297.0 18.8
311(9) 0.01210 297.0 18.6
306(9) 0.01137 297.0 18.3
300(9) 0.01118 297.0 18.1
316(10) 0.01105 297.0 17.8
306(9) 0.01186 297.0 17.6
308(9) 0.01219 297.0 17.3
328(10) 0.01079 297.0 17.0
296(9) 0.01125 297.0 16.8
325(10) 0.01079 297.1 16.5
323(9) 0.01153 297.1 16.2
316(9) 0.01148 297.1 15.9
345(10) 0.01004 297.1 15.6
328(10) 0.00991 297.1 15.3
317(10) 0.01099 297.1 15.0
310(9) 0.01212 297.1 14.7
323(9) 0.01137 297.1 14.4
317(9) 0.01135 297.1 14.1
307(10) 0.01104 297.1 13.8
330(10) 0.01018 297.1 13.5
316(9) 0.01166 297.2 13.2
298(9) 0.01218 297.2 12.9
314(10) 0.01082 297.2 12.7
289(9) 0.01122 297.2 12.4
283(9) 0.01242 297.2 12.1
331(9) 0.01113 297.2 11.9
323(9) 0.01113 297.2 11.6
297(9) 0.01179 297.2 11.4
289(9) 0.01197 297.2 11.2
324(10) 0.01057 297.2 10.9
286(9) 0.01306 297.2 10.7
329(10) 0.01048 297.3 10.5
322(10) 0.01019 297.3 10.3
308(9) 0.01112 297.3 10.1
307(9) 0.01158 297.3 9.9
301(9) 0.01232 297.3 9.7
309(9) 0.01145 297.3 9.5
332(10) 0.01025 297.3 9.3
334(10) 0.01016 297.3 9.2
281(9) 0.01275 297.3 9.0
276(9) 0.01355 297.3 8.9
312(9) 0.01116 297.3 8.7
298(9) 0.01122 297.4 8.6
318(10) 0.01069 297.4 8.5
305(9) 0.01181 297.4 8.4
308(9) 0.01211 297.4 8.2
292(9) 0.01219 297.4 8.1
306(10) 0.01079 297.4 8.0
324(10) 0.01075 297.4 7.9
324(9) 0.01143 297.4 7.9
279(9) 0.01320 297.4 7.8
318(10) 0.01062 297.4 7.7
301(10) 0.01068 297.5 7.6
297(9) 0.01160 297.5 7.6
304(9) 0.01221 297.5 7.5
319(9) 0.01145 297.5 7.5
294(9) 0.01203 297.5 7.4
303(10) 0.01028 297.5 7.4
293(9) 0.01220 297.5 7.4
305(9) 0.01215 297.5 7.3
305(9) 0.01200 297.5 7.3
297(9) 0.01159 297.5 7.3
290(9) 0.01168 297.5 7.3
300(9) 0.01158 297.5 7.3
308(9) 0.01197 297.5 7.3
316(9) 0.01162 297.5 7.3
303(9) 0.01192 297.5 7.3
306(9) 0.01132 297.5 7.3
316(10) 0.01072 297.5 7.3
274(9) 0.01360 297.5 7.4
320(9) 0.01125 297.5 7.4
315(10) 0.01099 297.5 7.5
284(9) 0.01196 297.5 7.5
309(10) 0.01077 297.5 7.6
294(9) 0.01268 297.5 7.6
296(9) 0.01230 297.5 7.7
289(9) 0.01165 297.5 7.8
303(10) 0.01078 297.5 7.9
321(10) 0.01072 297.5 8.0
299(9) 0.01246 297.5 8.1
319(9) 0.01117 297.5 8.3
312(9) 0.01116 297.5 8.4
290(9) 0.01215 297.4 8.6
320(10) 0.01032 297.4 8.7
312(9) 0.01200 297.4 8.9
332(10) 0.01055 297.4 9.1
331(10) 0.00982 297.4 9.3
308(10) 0.01105 297.4 9.5
326(9) 0.01117 297.4 9.8
347(10) 0.01060 297.4 10.0
317(10) 0.01107 297.4 10.3
310(10) 0.01066 297.4 10.6
312(10) 0.01085 297.4 10.9
296(9) 0.01230 297.4 11.2
316(9) 0.01179 297.4 11.5
306(9) 0.01141 297.4 11.8
327(10) 0.01008 297.4 12.1
289(9) 0.01215 297.4 12.5
305(9) 0.01187 297.4 12.8
320(9) 0.01162 297.4 13.1
333(10) 0.01027 297.3 13.5
325(10) 0.01028 297.3 13.8
301(9) 0.01237 297.3 14.1
315(9) 0.01173 297.3 14.4
330(9) 0.01114 297.3 14.6
298(9) 0.01189 297.3 14.9
296(9) 0.01126 297.3 15.1
314(10) 0.01074 297.3 15.3
308(9) 0.01214 297.3 15.5
314(9) 0.01162 297.3 15.7
300(9) 0.01166 297.3 15.9
302(10) 0.01066 297.3 16.1
290(9) 0.01224 297.3 16.3
305(9) 0.01213 297.3 16.5
331(9) 0.01117 297.3 16.7
326(10) 0.01066 297.3 16.9
322(10) 0.01032 297.3 17.1
336(10) 0.01039 297.3 17.3
317(9) 0.01161 297.3 17.6
338(10) 0.01080 297.2 17.9
329(10) 0.01055 297.2 18.1
337(10) 0.01006 297.2 18.4
321(10) 0.01063 297.2 18.7
318(9) 0.01182 297.2 19.1
325(10) 0.01108 297.2 19.4
315(9) 0.01128 297.2 19.7
319(9) 0.01120 297.2 20.1
338(10) 0.01018 297.2 20.4
293(9) 0.01264 297.2 20.8
352(10) 0.01021 297.2 21.1
324(10) 0.01046 297.2 21.5
302(10) 0.01102 297.2 21.8
288(9) 0.01218 297.2 22.2
324(9) 0.01141 297.2 22.5
332(10) 0.01060 297.2 22.9
329(10) 0.01039 297.2 23.2
329(10) 0.01038 297.2 23.5
323(10) 0.01068 297.2 23.8
310(9) 0.01200 297.1 24.1
327(10) 0.01043 297.1 24.3
295(9) 0.01148 297.1 24.5
328(10) 0.01005 297.1 24.7
326(10) 0.01078 297.1 24.9
316(9) 0.01181 297.1 25.0
342(10) 0.00980 297.1 25.1
324(10) 0.01031 297.1 25.2
337(10) 0.01006 297.1 25.2
307(9) 0.01171 297.1 25.3
316(9) 0.01166 297.1 25.2
306(9) 0.01131 297.1 25.2
323(10) 0.01051 297.1 25.1
337(10) 0.01072 297.1 25.1
318(9) 0.01135 297.1 25.0
302(9) 0.01249 297.1 24.9
311(9) 0.01126 297.1 24.7
310(10) 0.01030 297.1 24.6
313(9) 0.01113 297.0 24.5
309(9) 0.01199 297.0 24.3
300(9) 0.01246 297.0 24.2
299(9) 0.01179 297.0 24.1
317(10) 0.01059 297.0 24.0
310(9) 0.01155 297.0 23.8
325(9) 0.01145 297.0 23.7
324(9) 0.01131 297.0 23.7
333(10) 0.01040 297.0 23.6
316(10) 0.01039 297.0 23.5
305(10) 0.01104 297.0 23.5
322(9) 0.01166 297.0 23.5
332(10) 0.01101 297.0 23.5
307(9) 0.01125 297.0 23.5
318(10) 0.01039 297.0 23.6
291(9) 0.01209 297.0 23.6
333(9) 0.01126 297.0 23.7
313(9) 0.01152 297.0 23.8
327(10) 0.01011 297.0 23.9
329(10) 0.01037 296.9 24.1
341(10) 0.01016 296.9 24.2
350(10) 0.01056 296.9 24.3
340(10) 0.01078 296.9 24.4
328(10) 0.01029 296.9 24.5
321(10) 0.01071 296.9 24.6
318(9) 0.01110 296.9 24.7
337(10) 0.01095 296.9 24.7
314(9) 0.01127 296.9 24.7
340(10) 0.01003 296.9 24.6
299(9) 0.01178 296.9 24.5
324(9) 0.01111 296.9 24.4
291(9) 0.01283 296.9 24.2
342(10) 0.00999 296.9 24.0
319(10) 0.01071 296.9 23.8
326(10) 0.01102 296.9 23.5
305(9) 0.01204 296.9 23.2
308(9) 0.01215 296.9 23.0
344(10) 0.01005 296.9 22.7
307(9) 0.01138 296.8 22.4
327(10) 0.01064 296.8 22.1
307(9) 0.01191 296.8 21.8
305(9) 0.01220 296.8 21.5
325(10) 0.01031 296.8 21.2
308(9) 0.01117 296.8 20.9
323(10) 0.01107 296.8 20.6
312(9) 0.01191 296.8 20.3
311(9) 0.01195 296.8 20.0
355(10) 0.00958 296.8 19.6
291(9) 0.01175 296.8 19.3
304(9) 0.01138 296.8 19.0
317(9) 0.01176 296.8 18.7
329(10) 0.01107 296.8 18.4
322(10) 0.01068 296.8 18.0
311(10) 0.01056 296.8 17.7
331(10) 0.01057 296.8 17.4
336(10) 0.01105 296.8 17.2
316(9) 0.01167 296.7 16.9
336(10) 0.01018 296.7 16.6
322(10) 0.01040 296.7 16.4
323(10) 0.01100 296.7 16.2
315(9) 0.01180 296.7 16.0
340(10) 0.01087 296.7 15.8
313(9) 0.01118 296.7 15.6
312(10) 0.01044 296.7 15.5
305(9) 0.01141 296.7 15.3
313(9) 0.01203 296.7 15.2
318(9) 0.01132 296.7 15.2
303(9) 0.01204 296.7 15.1
315(10) 0.01057 296.7 15.0
291(9) 0.01131 296.7 15.0
306(9) 0.01212 296.7 15.0
304(9) 0.01193 296.7 15.0
304(9) 0.01131 296.7 15.0
311(10) 0.01078 296.7 15.1
318(9) 0.01138 296.7 15.2
320(9) 0.01161 296.6 15.2
342(10) 0.01042 296.6 15.3
321(10) 0.01067 296.6 15.4
307(9) 0.01118 296.6 15.5
305(9) 0.01172 296.6 15.6
334(10) 0.01107 296.6 15.7
303(9) 0.01125 296.6 15.8
307(10) 0.01087 296.6 15.9
314(9) 0.01113 296.6 16.0
320(9) 0.01147 296.6 16.1
325(9) 0.01151 296.6 16.2
319(10) 0.01092 296.6 16.3
294(9) 0.01172 296.6 16.3
315(10) 0.01054 296.6 16.4
305(9) 0.01219 296.6 16.4
306(9) 0.01215 296.6 16.5
330(10) 0.01041 296.6 16.5
309(9) 0.01131 296.6 16.5
341(10) 0.01035 296.5 16.5
302(9) 0.01192 296.5 16.5
308(9) 0.01194 296.5 16.5
319(10) 0.01081 296.5 16.6
306(10) 0.01052 296.5 16.6
300(9) 0.01201 296.5 16.6
309(9) 0.01199 296.5 16.7
307(9) 0.01210 296.5 16.7
288(9) 0.01180 296.5 16.8
307(10) 0.01030 296.5 16.9
296(9) 0.01212 296.5 16.9
335(9) 0.01115 296.5 17.0
306(9) 0.01227 296.5 17.1
309(9) 0.01126 296.5 17.3
314(10) 0.01022 296.5 17.4
300(9) 0.01133 296.5 17.6
325(9) 0.01134 296.5 17.7
338(9) 0.01113 296.5 17.9
338(10) 0.01041 296.5 18.1
328(10) 0.01023 296.4 18.3
318(10) 0.01097 296.4 18.6
314(9) 0.01174 296.4 18.9
300(9) 0.01216 296.4 19.2
338(10) 0.01002 296.4 19.5
290(9) 0.01151 296.4 19.8
280(9) 0.01234 296.4 20.2
301(9) 0.01240 296.4 20.6
340(10) 0.01058 296.4 21.1
316(9) 0.01110 296.4 21.5
306(10) 0.01105 296.4 21.9
343(10) 0.00996 296.4 22.4
317(9) 0.01177 296.4 22.8
321(10) 0.01102 296.4 23.2
300(9) 0.01127 296.4 23.5
306(9) 0.01127 296.4 23.8
326(10) 0.01094 296.4 24.0
309(9) 0.01202 296.4 24.0
321(10) 0.01106 296.4 24.0
319(10) 0.01096 296.3 23.9
292(9) 0.01251 296.3 23.8
316(9) 0.01129 296.3 23.5
306(9) 0.01224 296.3 23.2
317(10) 0.01086 296.3 22.8
313(10) 0.01040 296.3 22.4
335(10) 0.01025 296.3 21.9
334(10) 0.01088 296.3 21.5
318(9) 0.01173 296.3 21.0
315(10) 0.01083 296.3 20.6
306(9) 0.01110 296.3 20.1
328(10) 0.01074 296.3 19.7
348(10) 0.01033 296.3 19.3
292(9) 0.01274 296.3 18.9
287(9) 0.01183 296.3 18.6
319(10) 0.01017 296.3 18.3
335(10) 0.01018 296.3 18.1
306(9) 0.01216 296.3 17.9
318(9) 0.01173 296.2 17.8
297(9) 0.01203 296.2 17.7
303(10) 0.01061 296.2 17.7
308(10) 0.01107 296.2 17.7
311(9) 0.01190 296.2 17.7
334(9) 0.01112 296.2 17.9
295(9) 0.01221 296.2 18.0
308(10) 0.01056 296.2 18.2
316(9) 0.01130 296.2 18.5
327(9) 0.01143 296.2 18.8
311(9) 0.01174 296.2 19.1
301(9) 0.01187 296.2 19.5
307(10) 0.01059 296.2 19.9
294(9) 0.01177 296.2 20.4
310(9) 0.01212 296.2 21.0
316(9) 0.01136 296.2 21.5
302(9) 0.01173 296.2 22.2
334(10) 0.00993 296.2 22.9
320(10) 0.01092 296.2 23.7
310(9) 0.01206 296.1 24.5
318(9) 0.01123 296.1 25.4
300(9) 0.01159 296.1 26.3
302(9) 0.01116 296.1 27.4
330(10) 0.01079 296.1 28.5
322(9) 0.01148 296.1 29.7
295(9) 0.01212 296.1 31.0
325(10) 0.01005 296.1 32.4
319(10) 0.01058 296.1 33.9
322(10) 0.01065 296.1 35.4
334(9) 0.01129 296.1 37.1
337(10) 0.01040 296.1 38.9
349(10) 0.00991 296.1 40.8
371(10) 0.00918 296.1 42.8
379(10) 0.00941 296.1 44.9
344(10) 0.01082 296.1 47.1
343(10) 0.01048 296.1 49.4
349(10) 0.01017 296.1 51.8
376(10) 0.00927 296.1 54.3
391(10) 0.00939 296.0 56.8
368(10) 0.01006 296.0 59.4
356(10) 0.00993 296.0 61.9
348(10) 0.00968 296.0 64.5
370(10) 0.00945 296.0 67.0
387(10) 0.00937 296.0 69.5
363(10) 0.01040 296.0 71.8
367(10) 0.00975 296.0 74.0
382(11) 0.00871 296.0 76.0
381(10) 0.00934 296.0 77.8
411(11) 0.00884 296.0 79.4
435(11) 0.00846 296.0 80.7
377(10) 0.00920 296.0 81.8
385(11) 0.00860 296.0 82.6
399(11) 0.00842 296.0 83.2
415(11) 0.00891 296.0 83.6
383(10) 0.00962 296.0 83.8
382(11) 0.00888 296.0 83.8
378(11) 0.00853 295.9 83.7
385(11) 0.00872 295.9 83.5
370(10) 0.01003 295.9 83.2
375(10) 0.00998 295.9 82.7
377(11) 0.00886 295.9 82.1
383(11) 0.00863 295.9 81.4
380(10) 0.00922 295.9 80.6
380(10) 0.00970 295.9 79.7
373(10) 0.00966 295.9 78.6
382(11) 0.00900 295.9 77.3
355(10) 0.00980 295.9 75.8
364(10) 0.00952 295.9 74.2
375(10) 0.00996 295.9 72.5
379(10) 0.00954 295.9 70.5
344(10) 0.01025 295.9 68.5
397(11) 0.00818 295.9 66.3
360(10) 0.00976 295.9 64.0
373(10) 0.00999 295.9 61.7
371(10) 0.00976 295.9 59.3
345(10) 0.01008 295.8 57.0
356(10) 0.00976 295.8 54.6
351(10) 0.00989 295.8 52.2
326(9) 0.01139 295.8 50.0
344(10) 0.01025 295.8 47.7
337(10) 0.01030 295.8 45.6
350(10) 0.00984 295.8 43.5
339(10) 0.01050 295.8 41.5
345(10) 0.01086 295.8 39.7
343(10) 0.00984 295.8 37.9
316(10) 0.01058 295.8 36.2
314(10) 0.01088 295.8 34.7
311(9) 0.01155 295.8 33.2
320(9) 0.01149 295.8 31.9
319(10) 0.01101 295.8 30.6
335(10) 0.00997 295.8 29.4
311(9) 0.01166 295.8 28.4
324(9) 0.01126 295.8 27.4
318(9) 0.01169 295.8 26.5
348(10) 0.00979 295.7 25.7
321(10) 0.01001 295.7 25.0
329(10) 0.01054 295.7 24.3
336(10) 0.01068 295.7 23.7
314(9) 0.01186 295.7 23.2
336(10) 0.01002 295.7 22.7
309(10) 0.01061 295.7 22.2
316(9) 0.01134 295.7 21.9
308(9) 0.01208 295.7 21.5
342(10) 0.01095 295.7 21.2
311(9) 0.01150 295.7 20.9
306(10) 0.01089 295.7 20.6
299(9) 0.01215 295.7 20.3
318(9) 0.01169 295.7 20.0
299(9) 0.01226 295.7 19.7
303(9) 0.01183 295.7 19.3
297(10) 0.01099 295.7 19.0
305(9) 0.01158 295.7 18.7
309(9) 0.01185 295.6 18.3
299(9) 0.01222 295.6 18.0
295(9) 0.01141 295.6 17.6
329(10) 0.01036 295.6 17.2
317(9) 0.01141 295.6 16.8
322(9) 0.01129 295.6 16.4
338(10) 0.01097 295.6 16.0
318(10) 0.01097 295.6 15.6
304(10) 0.01106 295.6 15.3
313(10) 0.01074 295.6 14.9
307(9) 0.01217 295.6 14.5
316(10) 0.01108 295.6 14.2
315(10) 0.01066 295.6 13.8
291(9) 0.01207 295.6 13.5
306(9) 0.01187 295.6 13.2
300(9) 0.01232 295.6 12.9
301(9) 0.01177 295.6 12.6
278(9) 0.01309 295.6 12.3
328(10) 0.01005 295.6 12.1
301(9) 0.01216 295.5 11.8
300(9) 0.01239 295.5 11.6
299(9) 0.01146 295.5 11.4
305(10) 0.01097 295.5 11.2
302(9) 0.01120 295.5 11.1
288(9) 0.01243 295.5 10.9
305(9) 0.01208 295.5 10.7
297(9) 0.01113 295.5 10.6
288(9) 0.01142 295.5 10.5
277(9) 0.01267 295.5 10.4
296(9) 0.01229 295.5 10.3
316(9) 0.01198 295.5 10.2
315(10) 0.01091 295.5 10.1
296(9) 0.01126 295.5 10.0
295(9) 0.01218 295.5 10.0
338(10) 0.01099 295.5 9.9
297(9) 0.01267 295.5 9.9
305(9) 0.01142 295.5 9.9
305(10) 0.01082 295.5 9.9
291(9) 0.01241 295.4 9.8
296(9) 0.01239 295.4 9.8
305(9) 0.01206 295.4 9.8
314(9) 0.01113 295.4 9.8
307(10) 0.01061 295.4 9.9
329(10) 0.01045 295.4 9.9
311(9) 0.01183 295.4 9.9
311(9) 0.01205 295.4 9.9
303(9) 0.01174 295.4 10.0
322(10) 0.01006 295.4 10.0
304(9) 0.01139 295.4 10.1
315(9) 0.01183 295.4 10.1
317(9) 0.01145 295.4 10.2
301(9) 0.01128 295.4 10.2
302(9) 0.01149 295.4 10.3
336(10) 0.01033 295.4 10.3
301(9) 0.01227 295.4 10.4
300(9) 0.01217 295.4 10.5
315(10) 0.01079 295.3 10.5
293(9) 0.01122 295.3 10.6
290(9) 0.01176 295.3 10.7
313(9) 0.01202 295.3 10.7
321(9) 0.01121 295.3 10.8
328(10) 0.01054 295.3 10.9
316(10) 0.01076 295.3 10.9
300(9) 0.01126 295.3 11.0
308(9) 0.01203 295.3 11.1
296(9) 0.01227 295.3 11.1
320(10) 0.01065 295.3 11.2
301(9) 0.01159 295.3 11.2
310(9) 0.01138 295.3 11.3
316(9) 0.01179 295.3 11.4
307(9) 0.01141 295.3 11.5
318(10) 0.01052 295.3 11.5
321(10) 0.01085 295.3 11.6
313(9) 0.01150 295.3 11.7
310(9) 0.01198 295.3 11.7
300(9) 0.01145 295.2 11.8
295(9) 0.01143 295.2 11.9
312(9) 0.01109 295.2 12.0
325(10) 0.01089 295.2 12.1
328(9) 0.01130 295.2 12.1
288(9) 0.01183 295.2 12.2
308(10) 0.01061 295.2 12.3
311(9) 0.01130 295.2 12.4
300(9) 0.01202 295.2 12.5
303(9) 0.01245 295.2 12.6
311(10) 0.01080 295.2 12.7
318(10) 0.01004 295.2 12.8
301(9) 0.01167 295.2 12.9
294(9) 0.01257 295.2 13.0
320(9) 0.01146 295.2 13.1
284(9) 0.01248 295.2 13.3
309(10) 0.01043 295.2 13.4
321(10) 0.01105 295.2 13.5
270(8) 0.01392 295.1 13.7
317(9) 0.01183 295.1 13.8
304(9) 0.01132 295.1 14.0
305(10) 0.01033 295.1 14.2
298(9) 0.01134 295.1 14.3
329(9) 0.01140 295.1 14.5
319(9) 0.01175 295.1 14.8
320(9) 0.01119 295.1 15.0
331(10) 0.00983 295.1 15.2
294(9) 0.01208 295.1 15.5
296(9) 0.01258 295.1 15.7
319(9) 0.01159 295.1 16.0
341(10) 0.00985 295.1 16.3
321(10) 0.01028 295.1 16.6
325(10) 0.01065 295.1 17.0
318(9) 0.01163 295.1 17.3
324(9) 0.01144 295.1 17.7
332(10) 0.01011 295.1 18.1
295(9) 0.01160 295.1 18.5
301(9) 0.01161 295.0 19.0
328(9) 0.01132 295.0 19.5
336(10) 0.01061 295.0 20.0
310(9) 0.01121 295.0 20.5
316(10) 0.01081 295.0 21.1
319(9) 0.01110 295.0 21.7
322(9) 0.01152 295.0 22.3
308(9) 0.01125 295.0 23.0
330(10) 0.01016 295.0 23.7
337(10) 0.01000 295.0 24.4
308(9) 0.01168 295.0 25.2
334(10) 0.01103 295.0 26.0
305(9) 0.01138 295.0 26.8
341(10) 0.00950 295.0 27.7
294(9) 0.01224 295.0 28.6
338(10) 0.01068 295.0 29.6
323(9) 0.01151 295.0 30.6
314(10) 0.01100 295.0 31.6
344(10) 0.00978 295.0 32.7
332(10) 0.01040 294.9 33.8
345(10) 0.01056 294.9 34.9
360(10) 0.01024 294.9 36.1
345(10) 0.01020 294.9 37.3
338(10) 0.00968 294.9 38.5
341(10) 0.00989 294.9 39.8
367(10) 0.01004 294.9 41.0
370(10) 0.01007 294.9 42.3
329(10) 0.01081 294.9 43.6
350(10) 0.00928 294.9 44.9
352(10) 0.00961 294.9 46.1
357(10) 0.01046 294.9 47.4
363(10) 0.01000 294.9 48.6
344(10) 0.00984 294.9 49.8
361(11) 0.00859 294.9 50.9
333(10) 0.01058 294.9 52.0
329(9) 0.01116 294.9 53.1
331(9) 0.01123 294.9 54.1
355(10) 0.00953 294.8 55.0
353(11) 0.00879 294.8 55.8
341(10) 0.01007 294.8 56.6
334(9) 0.01126 294.8 57.3
362(10) 0.01019 294.8 58.0
369(10) 0.00920 294.8 58.5
371(11) 0.00905 294.8 59.0
360(10) 0.00976 294.8 59.5
355(10) 0.01032 294.8 59.8
356(10) 0.01019 294.8 60.1
352(10) 0.00986 294.8 60.4
336(10) 0.00997 294.8 60.6
333(10) 0.01005 294.8 60.7
375(10) 0.00992 294.8 60.7
341(10) 0.01041 294.8 60.7
355(10) 0.00968 294.8 60.7
386(11) 0.00871 294.8 60.5
360(10) 0.00970 294.8 60.4
378(10) 0.00972 294.8 60.1
365(10) 0.00956 294.7 59.8
365(10) 0.00927 294.7 59.5
360(10) 0.00957 294.7 59.1
355(10) 0.01007 294.7 58.6
353(10) 0.01049 294.7 58.1
362(10) 0.00959 294.7 57.5
384(11) 0.00867 294.7 56.9
380(10) 0.00911 294.7 56.2
341(10) 0.01079 294.7 55.6
347(10) 0.01068 294.7 54.8
374(10) 0.00908 294.7 54.1
360(10) 0.00953 294.7 53.3
332(10) 0.01063 294.7 52.5
330(10) 0.01096 294.7 51.8
350(10) 0.01052 294.7 50.9
346(10) 0.01011 294.7 50.1
342(10) 0.00957 294.7 49.3
347(10) 0.00993 294.7 48.5
338(10) 0.01087 294.7 47.7
366(10) 0.00998 294.6 46.9
341(10) 0.01027 294.6 46.1
347(10) 0.00922 294.6 45.3
355(10) 0.00978 294.6 44.5
336(10) 0.01091 294.6 43.8
365(10) 0.01014 294.6 43.0
349(10) 0.01015 294.6 42.3
337(10) 0.00921 294.6 41.5
340(10) 0.01021 294.6 40.8
338(10) 0.01087 294.6 40.1
360(10) 0.01010 294.6 39.4
341(10) 0.01025 294.6 38.7
331(10) 0.00985 294.6 37.9
346(10) 0.01009 294.6 37.2
341(10) 0.01088 294.6 36.5
322(9) 0.01162 294.6 35.8
319(9) 0.01127 294.6 35.1
336(10) 0.00965 294.6 34.4
358(10) 0.00922 294.5 33.7
332(9) 0.01133 294.5 33.0
351(10) 0.01021 294.5 32.3
320(10) 0.01086 294.5 31.6
312(10) 0.01021 294.5 30.9
325(10) 0.01039 294.5 30.3
327(9) 0.01144 294.5 29.6
321(9) 0.01111 294.5 28.9
335(10) 0.01032 294.5 28.3
331(10) 0.01033 294.5 27.6
315(9) 0.01150 294.5 27.0
312(9) 0.01191 294.5 26.4
296(9) 0.01216 294.5 25.8
332(10) 0.01028 294.5 25.2
305(9) 0.01126 294.5 24.7
340(10) 0.01064 294.5 24.1
316(9) 0.01173 294.5 23.6
300(9) 0.01178 294.5 23.0
309(10) 0.01080 294.5 22.5
325(10) 0.01066 294.4 22.1
316(9) 0.01158 294.4 21.6
329(9) 0.01141 294.4 21.1
307(10) 0.01095 294.4 20.7
292(9) 0.01130 294.4 20.3
297(9) 0.01162 294.4 19.9
321(9) 0.01118 294.4 19.5
298(9) 0.01252 294.4 19.1
326(10) 0.01068 294.4 18.7
318(10) 0.01032 294.4 18.4
290(9) 0.01215 294.4 18.0
314(9) 0.01155 294.4 17.7
308(9) 0.01211 294.4 17.4
296(9) 0.01225 294.4 17.1
316(10) 0.01070 294.4 16.8
313(9) 0.01121 294.4 16.5
304(9) 0.01163 294.4 16.2
296(9) 0.01281 294.4 16.0
295(9) 0.01136 294.4 15.7
321(10) 0.01005 294.3 15.5
332(10) 0.01066 294.3 15.2
292(9) 0.01257 294.3 15.0
272(9) 0.01381 294.3 14.8
282(9) 0.01266 294.3 14.6
296(10) 0.01093 294.3 14.4
302(9) 0.01126 294.3 14.2
286(9) 0.01305 294.3 14.0
296(9) 0.01224 294.3 13.9
306(9) 0.01143 294.3 13.7
284(9) 0.01195 294.3 13.5
287(9) 0.01248 294.3 13.4
294(9) 0.01274 294.3 13.2
296(9) 0.01221 294.3 13.1
287(9) 0.01234 294.3 12.9
310(10) 0.01045 294.3 12.8
309(9) 0.01110 294.3 12.7
288(9) 0.01296 294.3 12.5
299(9) 0.01214 294.2 12.4
312(9) 0.01114 294.2 12.3
292(9) 0.01214 294.2 12.2
289(9) 0.01228 294.2 12.1
309(9) 0.01212 294.2 11.9
333(10) 0.01061 294.2 11.8
302(9) 0.01164 294.2 11.7
274(9) 0.01196 294.2 11.6
300(9) 0.01154 294.2 11.5
323(9) 0.01166 294.2 11.4
298(9) 0.01173 294.2 11.4
298(9) 0.01146 294.2 11.3
295(9) 0.01238 294.2 11.2
314(9) 0.01154 294.2 11.1
315(9) 0.01172 294.2 11.1
317(9) 0.01119 294.2 11.0
306(10) 0.01068 294.2 10.9
283(9) 0.01241 294.2 10.9
307(9) 0.01171 294.2 10.8
293(9) 0.01285 294.1 10.8
306(9) 0.01136 294.1 10.7
304(10) 0.01060 294.1 10.7
281(9) 0.01257 294.1 10.6
305(9) 0.01183 294.1 10.6
296(9) 0.01247 294.1 10.6
300(10) 0.01091 294.1 10.6
303(10) 0.01032 294.1 10.5
285(9) 0.01278 294.1 10.5
304(9) 0.01188 294.1 10.5
300(9) 0.01254 294.1 10.5
302(9) 0.01138 294.1 10.5
301(10) 0.01072 294.1 10.5
298(9) 0.01155 294.1 10.5
295(9) 0.01234 294.1 10.5
299(9) 0.01259 294.1 10.5
301(9) 0.01108 294.1 10.6
302(10) 0.01034 294.1 10.6
283(9) 0.01218 294.1 10.6
300(9) 0.01247 294.0 10.7
296(9) 0.01242 294.0 10.7
315(9) 0.01142 294.0 10.7
314(10) 0.01078 294.0 10.8
320(10) 0.01081 294.0 10.8
290(9) 0.01284 294.0 10.9
297(9) 0.01230 294.0 10.9
279(9) 0.01283 294.0 11.0
298(9) 0.01137 294.0 11.1
297(9) 0.01171 294.0 11.1
314(9) 0.01185 294.0 11.2
312(9) 0.01167 294.0 11.3
292(9) 0.01219 294.0 11.3
309(10) 0.01089 294.0 11.4
303(9) 0.01141 294.0 11.5
280(9) 0.01334 294.0 11.6
276(9) 0.01287 294.0 11.7
326(10) 0.01048 294.0 11.8
306(9) 0.01150 293.9 11.9
301(9) 0.01199 293.9 12.0
330(9) 0.01136 293.9 12.0
322(9) 0.01110 293.9 12.1
298(9) 0.01127 293.9 12.2
299(9) 0.01156 293.9 12.3
311(9) 0.01177 293.9 12.4
307(9) 0.01216 293.9 12.5
321(10) 0.01091 293.9 12.6
325(10) 0.01004 293.9 12.7
286(9) 0.01244 293.8 12.8
309(9) 0.01172 293.8 12.9
314(9) 0.01176 293.8 12.9
301(9) 0.01204 293.8 13.0
306(10) 0.01082 293.8 13.1
317(10) 0.01040 293.7 13.1
295(9) 0.01213 293.7 13.2
308(9) 0.01203 293.7 13.2
300(9) 0.01154 293.7 13.3
268(9) 0.01281 293.6 13.3
303(9) 0.01173 293.6 13.4
336(10) 0.01065 293.6 13.4
302(9) 0.01246 293.6 13.4
278(9) 0.01274 293.5 13.4
295(10) 0.01078 293.5 13.5
316(10) 0.01048 293.5 13.5
320(9) 0.01159 293.5 13.5
291(9) 0.01265 293.5 13.5
319(10) 0.01100 293.4 13.5
305(10) 0.01086 293.4 13.5
317(10) 0.01103 293.4 13.5
326(9) 0.01142 293.4 13.5
297(9) 0.01225 293.3 13.4
305(9) 0.01134 293.3 13.4
295(9) 0.01156 293.3 13.4
299(9) 0.01153 293.3 13.4
326(9) 0.01141 293.3 13.4
303(9) 0.01183 293.2 13.4
284(9) 0.01233 293.2 13.4
289(9) 0.01135 293.2 13.4
306(10) 0.01106 293.2 13.4
301(9) 0.01236 293.1 13.4
286(9) 0.01225 293.1 13.4
285(9) 0.01150 293.1 13.4
314(10) 0.01023 293.1 13.4
299(9) 0.01149 293.0 13.4
294(9) 0.01256 293.0 13.4
312(9) 0.01165 293.0 13.4
311(9) 0.01138 293.0 13.4
314(10) 0.01077 293.0 13.4
292(9) 0.01227 292.9 13.5
301(9) 0.01223 292.9 13.5
306(9) 0.01179 292.9 13.5
294(9) 0.01213 292.9 13.6
294(9) 0.01193 292.8 13.6
320(9) 0.01131 292.8 13.6
338(10) 0.01105 292.8 13.7
310(9) 0.01161 292.8 13.7
318(10) 0.01075 292.7 13.8
322(10) 0.01066 292.7 13.8
302(9) 0.01233 292.7 13.9
337(10) 0.01087 292.7 13.9
314(10) 0.01101 292.7 14.0
335(10) 0.00994 292.6 14.0
313(9) 0.01135 292.6 14.1
324(10) 0.01084 292.6 14.1
303(9) 0.01229 292.6 14.2
301(9) 0.01111 292.5 14.3
277(9) 0.01186 292.5 14.3
273(9) 0.01288 292.5 14.4
284(9) 0.01312 292.5 14.4
300(9) 0.01228 292.5 14.5
316(10) 0.01054 292.4 14.5
291(9) 0.01156 292.4 14.6
331(10) 0.01031 292.4 14.6
297(9) 0.01239 292.4 14.6
286(9) 0.01295 292.3 14.7
310(9) 0.01116 292.3 14.7
309(10) 0.01050 292.3 14.7
302(9) 0.01165 292.3 14.7
300(9) 0.01227 292.2 14.7
297(9) 0.01242 292.2 14.7
318(10) 0.01081 292.2 14.7
317(10) 0.01018 292.2 14.7
314(9) 0.01133 292.2 14.6
322(9) 0.01140 292.1 14.6
305(9) 0.01227 292.1 14.5
308(9) 0.01170 292.1 14.5
302(9) 0.01121 292.1 14.4
300(9) 0.01177 292.0 14.3
308(9) 0.01221 292.0 14.2
306(9) 0.01145 292.0 14.1
293(9) 0.01215 292.0 14.0
313(10) 0.01086 291.9 13.9
303(9) 0.01139 291.9 13.8
290(9) 0.01278 291.9 13.7
299(9) 0.01220 291.9 13.6
299(9) 0.01142 291.9 13.5
327(10) 0.01002 291.8 13.5
315(9) 0.01123 291.8 13.4
289(9) 0.01282 291.8 13.3
291(9) 0.01234 291.8 13.2
286(9) 0.01184 291.7 13.1
300(9) 0.01122 291.7 13.0
301(9) 0.01187 291.7 12.9
304(9) 0.01233 291.7 12.9
322(10) 0.01090 291.6 12.8
293(9) 0.01208 291.6 12.7
314(10) 0.01103 291.6 12.6
301(9) 0.01223 291.6 12.6
319(9) 0.01146 291.6 12.5
297(9) 0.01178 291.5 12.5
287(9) 0.01177 291.5 12.4
284(9) 0.01185 291.5 12.4
324(10) 0.01069 291.5 12.3
315(9) 0.01184 291.4 12.3
297(9) 0.01181 291.4 12.3
301(10) 0.01099 291.4 12.3
292(9) 0.01206 291.4 12.2
311(9) 0.01158 291.4 12.2
285(9) 0.01317 291.3 12.2
283(9) 0.01210 291.3 12.2
284(9) 0.01154 291.3 12.2
289(9) 0.01162 291.3 12.3
292(9) 0.01286 291.2 12.3
298(9) 0.01251 291.2 12.3
283(9) 0.01245 291.2 12.4
316(10) 0.00992 291.2 12.4
282(9) 0.01259 291.1 12.5
302(9) 0.01218 291.1 12.6
290(9) 0.01251 291.1 12.7
288(9) 0.01159 291.1 12.9
285(10) 0.01093 291.1 13.1
293(9) 0.01178 291.0 13.3
309(9) 0.01185 291.0 13.5
301(9) 0.01239 291.0 13.8
310(9) 0.01142 291.0 14.1
325(10) 0.01031 290.9 14.5
318(10) 0.01108 290.9 15.0
291(9) 0.01271 290.9 15.5
299(9) 0.01218 290.9 16.1
306(9) 0.01146 290.8 16.8
311(10) 0.01075 290.8 17.5
313(10) 0.01048 290.8 18.3
274(9) 0.01324 290.8 19.2
319(9) 0.01164 290.8 20.2
330(10) 0.01033 290.7 21.2
309(10) 0.01053 290.7 22.4
324(10) 0.01036 290.7 23.5
345(10) 0.01069 290.7 24.8
300(9) 0.01189 290.6 26.1
305(9) 0.01125 290.6 27.4
321(10) 0.01040 290.6 28.7
325(10) 0.01059 290.6 30.0
347(10) 0.01070 290.6 31.3
304(9) 0.01151 290.5 32.5
312(10) 0.01080 290.5 33.6
310(10) 0.01095 290.5 34.6
314(9) 0.01137 290.5 35.4
316(9) 0.01191 290.4 35.9
319(10) 0.01062 290.4 36.3
321(10) 0.01028 290.4 36.3
310(9) 0.01131 290.4 36.2
314(9) 0.01117 290.3 35.8
316(9) 0.01197 290.3 35.2
316(10) 0.01071 290.3 34.4
311(10) 0.01107 290.3 33.4
318(9) 0.01118 290.3 32.4
319(9) 0.01163 290.2 31.3
292(9) 0.01262 290.2 30.1
290(9) 0.01252 290.2 29.0
309(10) 0.01070 290.2 27.8
284(9) 0.01260 290.1 26.7
307(9) 0.01221 290.1 25.6
293(9) 0.01246 290.1 24.6
318(10) 0.01101 290.1 23.6
359(11) 0.00881 290.0 22.7
322(10) 0.01078 290.0 21.9
294(9) 0.01262 290.0 21.2
335(10) 0.01102 290.0 20.6
328(10) 0.01057 290.0 20.0
298(10) 0.01095 289.9 19.5
299(9) 0.01127 289.9 19.1
304(9) 0.01210 289.9 18.8
325(9) 0.01121 289.9 18.5
297(9) 0.01185 289.8 18.3
316(10) 0.01002 289.8 18.2
300(9) 0.01168 289.8 18.1
301(9) 0.01227 289.8 18.1
310(9) 0.01195 289.8 18.1
291(9) 0.01240 289.7 18.1
285(9) 0.01215 289.7 18.2
318(10) 0.01103 289.7 18.3
299(9) 0.01247 289.7 18.5
302(9) 0.01187 289.6 18.6
282(9) 0.01279 289.6 18.8
319(10) 0.01037 289.6 19.0
298(9) 0.01139 289.6 19.3
295(9) 0.01263 289.5 19.5
321(9) 0.01140 289.5 19.8
295(9) 0.01163 289.5 20.1
318(10) 0.01027 289.5 20.3
307(9) 0.01169 289.5 20.6
296(9) 0.01247 289.4 21.0
324(10) 0.01103 289.4 21.3
322(10) 0.01070 289.4 21.6
298(9) 0.01137 289.4 22.0
333(10) 0.01057 289.3 22.3
309(9) 0.01205 289.3 22.7
299(9) 0.01127 289.3 23.1
309(9) 0.01114 289.3 23.5
314(9) 0.01133 289.2 23.9
291(9) 0.01236 289.2 24.3
333(9) 0.01120 289.2 24.7
309(10) 0.01095 289.2 25.2
319(10) 0.01003 289.2 25.6
304(9) 0.01117 289.1 26.1
311(9) 0.01187 289.1 26.5
305(9) 0.01225 289.1 27.0
319(10) 0.01017 289.1 27.5
312(10) 0.01012 289.0 28.0
333(10) 0.01035 289.0 28.5
333(9) 0.01118 289.0 29.0
302(9) 0.01245 289.0 29.5
291(9) 0.01203 289.0 30.1
326(10) 0.00979 288.9 30.6
305(9) 0.01118 288.9 31.1
301(9) 0.01230 288.9 31.6
330(9) 0.01125 288.9 32.1
335(10) 0.01062 288.8 32.6
364(11) 0.00873 288.8 33.2
311(9) 0.01184 288.8 33.7
322(9) 0.01165 288.8 34.1
326(9) 0.01130 288.7 34.6
333(10) 0.01077 288.7 35.1
333(10) 0.01035 288.7 35.5
350(10) 0.00990 288.7 36.0
329(9) 0.01145 288.7 36.4
317(9) 0.01149 288.6 36.8
322(9) 0.01109 288.6 37.1
371(11) 0.00893 288.6 37.4
317(9) 0.01149 288.6 37.8
329(9) 0.01143 288.5 38.0
317(10) 0.01102 288.5 38.3
333(10) 0.01017 288.5 38.5
325(10) 0.01056 288.5 38.6
306(9) 0.01162 288.4 38.7
307(9) 0.01208 288.4 38.8
324(9) 0.01116 288.4 38.9
337(10) 0.01002 288.4 38.9
304(9) 0.01142 288.4 38.8
317(10) 0.01102 288.3 38.8
332(9) 0.01122 288.3 38.7
339(10) 0.01056 288.3 38.5
318(10) 0.01076 288.3 38.4
332(10) 0.00981 288.2 38.1
322(9) 0.01115 288.2 37.9
319(9) 0.01169 288.2 37.7
310(9) 0.01115 288.2 37.4
319(10) 0.01015 288.2 37.1
318(10) 0.01093 288.1 36.7
355(10) 0.00980 288.1 36.4
297(9) 0.01265 288.1 36.0
319(10) 0.01057 288.1 35.6
351(10) 0.00918 288.0 35.2
320(9) 0.01123 288.0 34.8
343(10) 0.01068 288.0 34.4
313(9) 0.01194 288.0 33.9
309(9) 0.01118 287.9 33.4
327(10) 0.01004 287.9 33.0
312(9) 0.01155 287.9 32.5
313(9) 0.01192 287.9 32.0
346(10) 0.01080 287.9 31.4
326(10) 0.01064 287.8 30.9
317(10) 0.01051 287.8 30.4
349(10) 0.00980 287.8 29.9
327(9) 0.01132 287.8 29.3
302(9) 0.01223 287.7 28.8
338(10) 0.01012 287.7 28.3
321(10) 0.00997 287.7 27.8
314(9) 0.01127 287.7 27.3
300(9) 0.01229 287.6 26.7
330(9) 0.01117 287.6 26.3
323(10) 0.01088 287.6 25.8
311(10) 0.01029 287.6 25.3
320(10) 0.01098 287.6 24.9
317(9) 0.01179 287.5 24.4
303(9) 0.01212 287.5 24.0
307(9) 0.01129 287.5 23.6
346(10) 0.00953 287.5 23.2
325(10) 0.01070 287.4 22.9
302(9) 0.01234 287.4 22.5
308(9) 0.01195 287.4 22.2
305(9) 0.01182 287.4 21.9
321(10) 0.01058 287.3 21.6
296(9) 0.01212 287.3 21.4
309(9) 0.01207 287.3 21.1
294(9) 0.01215 287.3 20.9
319(10) 0.01074 287.3 20.7
331(10) 0.00994 287.2 20.6
289(9) 0.01242 287.2 20.4
318(9) 0.01165 287.2 20.3
292(9) 0.01252 287.2 20.2
300(9) 0.01152 287.1 20.1
295(9) 0.01146 287.1 20.1
299(9) 0.01209 287.1 20.1
308(9) 0.01196 287.1 20.1
302(9) 0.01144 287.1 20.3
313(9) 0.01108 287.0 20.6
318(10) 0.01090 287.0 21.2
297(9) 0.01181 287.0 22.3
307(9) 0.01208 287.0 24.2
322(10) 0.01067 286.9 26.8
301(9) 0.01109 286.9 30.2
293(9) 0.01191 286.9 33.9
344(10) 0.01039 286.9 37.2
311(9) 0.01183 286.8 39.2
329(10) 0.01042 286.8 39.2
315(10) 0.01056 286.8 37.2
316(10) 0.01082 286.8 34.1
337(10) 0.01083 286.8 30.6
298(9) 0.01250 286.7 27.5
319(10) 0.01053 286.7 25.1
311(10) 0.01082 286.7 23.5
308(9) 0.01136 286.7 22.6
287(9) 0.01270 286.6 22.0
304(9) 0.01233 286.6 21.7
299(9) 0.01187 286.6 21.5
277(9) 0.01209 286.6 21.3
277(9) 0.01292 286.5 21.2
300(9) 0.01208 286.5 21.0
313(9) 0.01184 286.5 20.7
294(9) 0.01194 286.5 20.5
304(10) 0.01043 286.5 20.2
279(9) 0.01270 286.4 20.0
296(9) 0.01286 286.4 19.7
288(9) 0.01254 286.4 19.5
300(9) 0.01170 286.4 19.2
326(10) 0.00990 286.3 19.0
272(9) 0.01300 286.3 18.8
327(9) 0.01129 286.3 18.5
300(9) 0.01187 286.3 18.3
324(10) 0.01082 286.3 18.2
323(10) 0.01034 286.2 18.0
303(9) 0.01154 286.2 17.9
306(9) 0.01215 286.2 17.7
303(9) 0.01214 286.2 17.7
314(10) 0.01089 286.1 17.6
306(9) 0.01114 286.1 17.5
288(9) 0.01213 286.1 17.5
295(9) 0.01255 286.1 17.5
312(9) 0.01156 286.0 17.5
283(9) 0.01204 286.0 17.6
320(10) 0.01008 286.0 17.6
302(9) 0.01192 286.0 17.7
303(9) 0.01230 286.0 17.8
309(9) 0.01133 285.9 18.0
299(9) 0.01125 285.9 18.2
318(10) 0.01071 285.9 18.3
290(9) 0.01275 285.9 18.6
325(9) 0.01136 285.8 18.8
324(10) 0.01059 285.8 19.1
286(9) 0.01232 285.8 19.4
300(9) 0.01177 285.8 19.8
296(9) 0.01218 285.7 20.1
319(9) 0.01169 285.7 20.6
319(10) 0.01058 285.7 21.0
319(10) 0.00986 285.7 21.5
302(10) 0.01106 285.7 22.1
279(9) 0.01309 285.6 22.6
306(9) 0.01208 285.6 23.2
336(10) 0.00996 285.6 23.9
330(10) 0.01014 285.6 24.5
345(10) 0.00975 285.5 25.2
310(9) 0.01198 285.5 25.9
316(9) 0.01182 285.5 26.6
287(9) 0.01207 285.5 27.3
294(9) 0.01108 285.5 28.0
292(9) 0.01195 285.4 28.6
318(9) 0.01145 285.4 29.2
319(9) 0.01155 285.4 29.8
340(10) 0.01013 285.4 30.3
319(10) 0.01007 285.3 30.6
316(9) 0.01124 285.3 30.9
343(10) 0.01081 285.3 31.1
342(10) 0.01086 285.3 31.2
298(9) 0.01199 285.2 31.1
354(10) 0.00912 285.2 31.0
326(10) 0.01094 285.2 30.7
324(9) 0.01154 285.2 30.4
329(9) 0.01128 285.2 30.0
318(9) 0.01118 285.1 29.5
317(10) 0.01055 285.1 28.9
319(10) 0.01086 285.1 28.4
326(9) 0.01126 285.1 27.7
318(9) 0.01136 285.0 27.1
338(10) 0.01020 285.0 26.5
320(10) 0.01080 285.0 25.9
331(10) 0.01020 285.0 25.2
322(9) 0.01149 284.9 24.6
313(9) 0.01153 284.9 24.0
309(9) 0.01118 284.9 23.4
312(9) 0.01109 284.9 22.9
327(10) 0.01094 284.9 22.3
320(9) 0.01154 284.8 21.8
331(10) 0.01058 284.8 21.3
294(9) 0.01192 284.8 20.8
307(10) 0.01079 284.8 20.4
297(9) 0.01208 284.7 19.9
331(9) 0.01133 284.7 19.5
322(10) 0.01088 284.7 19.1
295(9) 0.01172 284.7 18.7
302(9) 0.01171 284.7 18.3
314(9) 0.01151 284.6 17.9
322(9) 0.01151 284.6 17.5
319(10) 0.01090 284.6 17.2
304(9) 0.01109 284.6 16.8
311(9) 0.01120 284.5 16.5
322(9) 0.01126 284.5 16.1
302(9) 0.01213 284.5 15.8
294(9) 0.01188 284.5 15.5
305(10) 0.01038 284.4 15.2
302(9) 0.01133 284.4 14.9
307(9) 0.01184 284.4 14.6
314(9) 0.01175 284.4 14.3
285(9) 0.01233 284.4 14.0
288(10) 0.01104 284.3 13.7
285(9) 0.01217 284.3 13.4
302(9) 0.01225 284.3 13.2
344(10) 0.01068 284.3 12.9
315(9) 0.01111 284.2 12.6
309(10) 0.01010 284.2 12.4
301(9) 0.01114 284.2 12.1
294(9) 0.01268 284.2 11.9
299(9) 0.01204 284.1 11.6
291(9) 0.01185 284.1 11.4
284(9) 0.01192 284.1 11.1
297(9) 0.01157 284.1 10.9
302(9) 0.01237 284.1 10.6
302(9) 0.01213 284.0 10.4
290(9) 0.01230 284.0 10.2
291(9) 0.01150 284.0 10.0
298(9) 0.01182 284.0 9.8
322(9) 0.01154 283.9 9.5
319(9) 0.01141 283.9 9.3
316(10) 0.01087 283.9 9.1
332(10) 0.00974 283.9 8.9
303(9) 0.01127 283.9 8.7
304(9) 0.01224 283.8 8.6
308(9) 0.01144 283.8 8.4
305(9) 0.01121 283.8 8.2
298(9) 0.01143 283.8 8.0
287(9) 0.01216 283.7 7.9
301(9) 0.01244 283.7 7.7
294(9) 0.01230 283.7 7.6
286(9) 0.01201 283.7 7.4
289(9) 0.01136 283.6 7.3
317(10) 0.01091 283.6 7.1
294(9) 0.01259 283.6 7.0
295(9) 0.01208 283.6 6.9
295(9) 0.01225 283.6 6.8
307(9) 0.01108 283.5 6.6
312(9) 0.01160 283.5 6.5
318(9) 0.01168 283.5 6.4
300(9) 0.01177 283.5 6.3
319(10) 0.01005 283.4 6.2
301(9) 0.01129 283.4 6.1
303(9) 0.01200 283.4 6.0
305(9) 0.01176 283.4 6.0
294(9) 0.01177 283.3 5.9
314(10) 0.01057 283.3 5.8
300(9) 0.01174 283.3 5.7
305(9) 0.01217 283.3 5.6
269(9) 0.01373 283.3 5.6
319(10) 0.01104 283.2 5.5
307(10) 0.01052 283.2 5.4
284(9) 0.01219 283.2 5.4
290(9) 0.01267 283.2 5.3
269(8) 0.01401 283.1 5.3
278(9) 0.01291 283.1 5.2
287(10) 0.01092 283.1 5.2
278(9) 0.01255 283.1 5.1
287(9) 0.01306 283.0 5.1
289(9) 0.01280 283.0 5.0
338(10) 0.00998 283.0 5.0
301(9) 0.01117 283.0 5.0
299(9) 0.01130 283.0 4.9
281(9) 0.01314 282.9 4.9
288(9) 0.01234 282.9 4.9
287(9) 0.01154 282.9 4.8
299(10) 0.01090 282.9 4.8
300(9) 0.01169 282.8 4.8
292(9) 0.01270 282.8 4.8
298(9) 0.01216 282.8 4.7
263(9) 0.01364 282.8 4.7
278(9) 0.01179 282.8 4.7
290(9) 0.01231 282.7 4.7
295(9) 0.01231 282.7 4.7
298(9) 0.01174 282.7 4.6
277(9) 0.01169 282.7 4.6
296(9) 0.01111 282.6 4.6
276(9) 0.01295 282.6 4.6
268(8) 0.01385 282.6 4.6
302(9) 0.01178 282.6 4.6
290(9) 0.01151 282.5 4.6
291(9) 0.01215 282.5 4.6
308(9) 0.01155 282.5 4.6
317(9) 0.01181 282.5 4.6
295(9) 0.01184 282.5 4.6
286(9) 0.01156 282.4 4.6
273(9) 0.01234 282.4 4.6
295(9) 0.01165 282.4 4.6
302(9) 0.01244 282.4 4.6
317(10) 0.01085 282.4 4.6
303(9) 0.01142 282.4 4.6
298(9) 0.01163 282.4 4.6
301(9) 0.01195 282.5 4.6
279(9) 0.01336 282.5 4.7
298(9) 0.01124 282.5 4.7
281(9) 0.01196 282.5 4.7
299(9) 0.01176 282.5 4.7
291(9) 0.01231 282.5 4.7
316(9) 0.01179 282.5 4.8
283(9) 0.01243 282.5 4.8
279(9) 0.01158 282.6 4.8
305(10) 0.01099 282.6 4.8
303(9) 0.01221 282.6 4.9
309(9) 0.01192 282.6 4.9
284(9) 0.01216 282.6 5.0
289(10) 0.01091 282.6 5.0
279(9) 0.01266 282.6 5.0
303(9) 0.01230 282.6 5.1
309(9) 0.01169 282.7 5.1
291(9) 0.01188 282.7 5.2
272(9) 0.01237 282.7 5.2
298(9) 0.01137 282.7 5.3
301(9) 0.01237 282.7 5.3
299(9) 0.01215 282.7 5.4
273(9) 0.01310 282.7 5.4
336(10) 0.00939 282.7 5.5
297(9) 0.01178 282.8 5.5
294(9) 0.01242 282.8 5.6
305(9) 0.01192 282.8 5.7
301(9) 0.01142 282.8 5.7
298(10) 0.01091 282.8 5.8
290(9) 0.01181 282.8 5.9
267(9) 0.01379 282.8 5.9
291(9) 0.01292 282.8 6.0
294(9) 0.01167 282.9 6.1
276(9) 0.01172 282.9 6.2
299(10) 0.01099 282.9 6.2
295(9) 0.01260 282.9 6.3
314(9) 0.01131 282.9 6.4
292(9) 0.01217 282.9 6.5
305(9) 0.01122 282.9 6.5
288(9) 0.01237 282.9 6.6
275(9) 0.01335 283.0 6.7
280(9) 0.01272 283.0 6.8
297(9) 0.01152 283.0 6.8
283(9) 0.01210 283.0 6.9
285(9) 0.01250 283.0 6.9
284(9) 0.01306 283.0 7.0
291(9) 0.01218 283.0 7.1
299(9) 0.01168 283.0 7.1
319(10) 0.01105 283.1 7.2
311(9) 0.01136 283.1 7.2
316(9) 0.01169 283.1 7.3
303(10) 0.01103 283.1 7.3
288(9) 0.01182 283.1 7.3
311(10) 0.01078 283.1 7.4
289(9) 0.01245 283.1 7.4
285(9) 0.01318 283.1 7.4
297(9) 0.01160 283.2 7.5
287(9) 0.01164 283.2 7.5
312(10) 0.01095 283.2 7.6
274(9) 0.01352 283.2 7.6
302(9) 0.01233 283.2 7.6
269(9) 0.01305 283.2 7.7
305(10) 0.01028 283.2 7.7
292(9) 0.01173 283.3 7.7
306(9) 0.01223 283.3 7.8
282(9) 0.01324 283.3 7.8
299(9) 0.01180 283.3 7.8
292(10) 0.01066 283.3 7.9
288(9) 0.01213 283.3 7.9
301(9) 0.01241 283.3 8.0
274(9) 0.01306 283.3 8.0
301(9) 0.01178 283.4 8.1
316(10) 0.00992 283.4 8.1
295(9) 0.01132 283.4 8.2
304(9) 0.01216 283.4 8.3
321(9) 0.01133 283.4 8.3
303(9) 0.01166 283.4 8.4
326(10) 0.01047 283.4 8.5
314(9) 0.01119 283.4 8.6
294(9) 0.01238 283.5 8.7
299(9) 0.01212 283.5 8.8
282(9) 0.01288 283.5 8.9
300(9) 0.01117 283.5 9.0
289(9) 0.01162 283.5 9.1
301(9) 0.01222 283.5 9.2
299(9) 0.01211 283.5 9.3
292(9) 0.01205 283.5 9.5
301(9) 0.01160 283.6 9.6
309(9) 0.01122 283.6 9.7
270(8) 0.01387 283.6 9.9
292(9) 0.01232 283.6 10.1
313(10) 0.01084 283.6 10.2
296(9) 0.01151 283.6 10.4
258(8) 0.01387 283.6 10.6
273(9) 0.01365 283.6 10.8
347(10) 0.00981 283.7 11.0
293(9) 0.01154 283.7 11.2
297(9) 0.01140 283.7 11.4
308(9) 0.01182 283.7 11.6
306(9) 0.01231 283.7 11.8
298(9) 0.01172 283.7 12.0
285(9) 0.01155 283.7 12.3
284(9) 0.01195 283.7 12.5
313(9) 0.01153 283.8 12.8
298(9) 0.01250 283.8 13.0
305(9) 0.01122 283.8 13.3
281(9) 0.01146 283.8 13.6
282(9) 0.01205 283.8 13.9
302(9) 0.01136 283.8 14.1
277(9) 0.01352 283.8 14.4
297(9) 0.01140 283.8 14.7
276(9) 0.01152 283.9 15.0
277(9) 0.01235 283.9 15.3
298(9) 0.01261 283.9 15.6
297(9) 0.01229 283.9 15.9
302(9) 0.01156 283.9 16.2
304(10) 0.01050 283.9 16.5
307(9) 0.01109 283.9 16.8
287(9) 0.01300 283.9 17.1
311(9) 0.01155 284.0 17.4
305(9) 0.01122 284.0 17.6
321(10) 0.00966 284.0 17.9
330(10) 0.01020 284.0 18.2
310(9) 0.01205 284.0 18.4
300(9) 0.01211 284.0 18.7
307(10) 0.01069 284.0 18.9
310(10) 0.01052 284.0 19.1
296(9) 0.01203 284.1 19.3
326(9) 0.01136 284.1 19.5
318(9) 0.01146 284.1 19.7
305(9) 0.01194 284.1 19.8
296(9) 0.01168 284.1 20.0
290(9) 0.01212 284.1 20.2
290(9) 0.01263 284.1 20.3
301(9) 0.01205 284.1 20.4
300(9) 0.01159 284.2 20.6
310(10) 0.01106 284.2 20.7
288(9) 0.01224 284.2 20.8
299(9) 0.01254 284.2 20.9
300(9) 0.01187 284.2 21.0
305(10) 0.01078 284.2 21.1
297(9) 0.01153 284.2 21.2
311(9) 0.01146 284.2 21.3
342(10) 0.01090 284.3 21.4
317(10) 0.01077 284.3 21.5
290(9) 0.01164 284.3 21.6
290(9) 0.01201 284.3 21.6
316(10) 0.01105 284.3 21.7
299(9) 0.01246 284.3 21.8
298(9) 0.01163 284.3 21.9
306(10) 0.01085 284.3 22.0
308(9) 0.01154 284.4 22.0
335(10) 0.01100 284.4 22.1
331(10) 0.01099 284.4 22.1
311(9) 0.01117 284.4 22.2
296(9) 0.01137 284.4 22.2
281(9) 0.01284 284.4 22.3
306(9) 0.01186 284.4 22.3
308(9) 0.01215 284.5 22.4
300(9) 0.01167 284.5 22.5
305(10) 0.01096 284.5 22.5
293(9) 0.01155 284.5 22.6
311(9) 0.01184 284.5 22.7
300(9) 0.01213 284.5 22.8
304(9) 0.01117 284.5 23.0
304(10) 0.01070 284.5 23.1
298(9) 0.01163 284.6 23.3
294(9) 0.01265 284.6 23.5
334(10) 0.01102 284.6 23.7
309(9) 0.01120 284.6 23.9
309(10) 0.01041 284.6 24.2
299(9) 0.01186 284.6 24.4
313(9) 0.01183 284.6 24.6
324(9) 0.01139 284.6 24.8
314(9) 0.01123 284.7 25.0
325(10) 0.01039 284.7 25.1
325(10) 0.01097 284.7 25.2
312(9) 0.01185 284.7 25.3
301(9) 0.01242 284.7 25.2
315(10) 0.01065 284.7 25.1
316(10) 0.01051 284.7 24.9
318(10) 0.01102 284.7 24.7
298(9) 0.01250 284.8 24.4
304(9) 0.01214 284.8 24.1
310(9) 0.01127 284.8 23.7
330(10) 0.01026 284.8 23.3
307(9) 0.01132 284.8 22.9
307(9) 0.01212 284.8 22.4
312(9) 0.01140 284.8 22.0
280(9) 0.01257 284.8 21.5
288(9) 0.01215 284.9 21.0
319(9) 0.01133 284.9 20.6
313(9) 0.01178 284.9 20.1
303(9) 0.01171 284.9 19.7
296(9) 0.01118 284.9 19.2
312(10) 0.01097 284.9 18.8
314(10) 0.01103 284.9 18.3
295(9) 0.01258 284.9 17.9
294(9) 0.01200 285.0 17.5
290(9) 0.01171 285.0 17.0
287(9) 0.01223 285.0 16.6
321(9) 0.01144 285.0 16.2
302(9) 0.01215 285.0 15.8
307(9) 0.01119 285.0 15.4
312(9) 0.01111 285.0 15.0
329(10) 0.01043 285.0 14.6
297(9) 0.01217 285.1 14.3
302(9) 0.01247 285.1 13.9
301(9) 0.01119 285.1 13.6
286(9) 0.01140 285.1 13.2
296(9) 0.01155 285.1 12.9
306(9) 0.01209 285.1 12.6
286(9) 0.01317 285.1 12.3
302(9) 0.01206 285.1 12.0
300(9) 0.01109 285.2 11.7
307(9) 0.01147 285.2 11.5
318(9) 0.01185 285.2 11.2
296(9) 0.01256 285.2 11.0
280(9) 0.01244 285.2 10.7
313(10) 0.01016 285.2 10.5
281(9) 0.01250 285.2 10.3
269(9) 0.01362 285.2 10.1
309(9) 0.01214 285.3 10.0
303(9) 0.01165 285.3 9.8
307(10) 0.01102 285.3 9.6
315(10) 0.01040 285.3 9.5
285(9) 0.01302 285.3 9.3
283(9) 0.01287 285.3 9.2
305(9) 0.01139 285.3 9.1
289(9) 0.01188 285.3 9.0
311(10) 0.01105 285.4 8.9
290(9) 0.01276 285.4 8.8
319(9) 0.01138 285.4 8.7
301(9) 0.01187 285.4 8.6
312(10) 0.01107 285.4 8.6
312(9) 0.01116 285.4 8.5
278(9) 0.01336 285.4 8.5
273(9) 0.01337 285.4 8.4
293(9) 0.01209 285.5 8.4
304(9) 0.01115 285.5 8.4
298(9) 0.01126 285.5 8.3
295(9) 0.01255 285.5 8.3
300(9) 0.01182 285.5 8.3
300(9) 0.01140 285.5 8.3
315(10) 0.01095 285.5 8.3
303(9) 0.01189 285.5 8.3
285(9) 0.01311 285.6 8.3
289(9) 0.01199 285.6 8.3
308(10) 0.01050 285.6 8.4
293(9) 0.01198 285.6 8.4
306(9) 0.01157 285.6 8.4
319(9) 0.01163 285.6 8.5
292(9) 0.01248 285.6 8.5
298(9) 0.01170 285.7 8.6
278(9) 0.01286 285.7 8.7
290(9) 0.01259 285.7 8.8
290(9) 0.01266 285.7 8.9
269(9) 0.01323 285.7 9.0
299(9) 0.01136 285.7 9.1
299(9) 0.01166 285.7 9.2
279(9) 0.01307 285.7 9.4
274(9) 0.01368 285.8 9.5
292(9) 0.01219 285.8 9.7
284(9) 0.01143 285.8 9.9
270(9) 0.01291 285.8 10.1
330(9) 0.01114 285.8 10.4
296(9) 0.01253 285.8 10.6
290(9) 0.01232 285.8 10.9
291(10) 0.01078 285.8 11.2
275(9) 0.01296 285.9 11.5
312(9) 0.01203 285.9 11.8
306(9) 0.01201 285.9 12.2
304(9) 0.01141 285.9 12.6
340(10) 0.00926 285.9 13.0
317(10) 0.01071 285.9 13.4
297(9) 0.01258 285.9 13.8
316(9) 0.01153 285.9 14.2
318(10) 0.01066 286.0 14.7
311(10) 0.01053 286.0 15.1
302(9) 0.01174 286.0 15.5
293(9) 0.01256 286.0 16.0
322(9) 0.01110 286.0 16.4
306(9) 0.01153 286.0 16.7
301(9) 0.01131 286.0 17.1
307(9) 0.01130 286.0 17.4
320(9) 0.01162 286.1 17.6
299(9) 0.01215 286.1 17.9
305(9) 0.01132 286.1 18.0
316(10) 0.01047 286.1 18.1
306(10) 0.01098 286.1 18.2
324(9) 0.01158 286.1 18.2
330(10) 0.01068 286.1 18.2
298(9) 0.01132 286.1 18.1
307(10) 0.01101 286.2 18.1
306(9) 0.01197 286.2 18.0
332(9) 0.01126 286.2 17.9
312(9) 0.01118 286.2 17.8
289(9) 0.01192 286.2 17.7
308(10) 0.01105 286.2 17.6
297(9) 0.01242 286.2 17.5
313(9) 0.01188 286.2 17.4
312(10) 0.01105 286.3 17.3
315(10) 0.01058 286.3 17.2
304(9) 0.01155 286.3 17.2
307(9) 0.01185 286.3 17.1
304(9) 0.01228 286.3 17.1
298(9) 0.01136 286.3 17.1
296(9) 0.01121 286.3 17.1
308(9) 0.01140 286.3 17.1
293(9) 0.01265 286.4 17.1
311(9) 0.01202 286.4 17.1
300(9) 0.01165 286.4 17.2
306(10) 0.01090 286.4 17.2
333(10) 0.01014 286.4 17.3
303(9) 0.01227 286.4 17.4
342(10) 0.01081 286.4 17.4
304(9) 0.01177 286.4 17.5
318(10) 0.00990 286.5 17.6
284(9) 0.01256 286.5 17.7
322(9) 0.01149 286.5 17.8
311(9) 0.01207 286.5 17.8
321(10) 0.01105 286.5 17.9
303(10) 0.01087 286.5 18.0
317(10) 0.01079 286.5 18.1
296(9) 0.01268 286.5 18.2
325(9) 0.01148 286.6 18.2
282(9) 0.01290 286.6 18.3
300(10) 0.01092 286.6 18.4
335(10) 0.01014 286.6 18.4
294(9) 0.01267 286.6 18.5
308(9) 0.01167 286.6 18.5
299(9) 0.01153 286.6 18.6
300(9) 0.01119 286.6 18.6
300(9) 0.01114 286.7 18.6
299(9) 0.01241 286.7 18.6
291(9) 0.01188 286.7 18.6
293(9) 0.01228 286.7 18.6
330(10) 0.01031 286.7 18.6
320(10) 0.01076 286.7 18.6
304(9) 0.01226 286.7 18.5
326(10) 0.01067 286.7 18.5
309(9) 0.01153 286.8 18.4
315(10) 0.01093 286.8 18.4
330(10) 0.01082 286.8 18.3
320(9) 0.01157 286.8 18.2
311(9) 0.01166 286.8 18.2
330(10) 0.01028 286.8 18.1
331(10) 0.01020 286.8 18.0
297(9) 0.01202 286.8 17.9
285(9) 0.01306 286.9 17.7
295(9) 0.01147 286.9 17.6
306(10) 0.01056 286.9 17.5
303(10) 0.01086 286.9 17.4
282(9) 0.01262 286.9 17.2
298(9) 0.01249 286.9 17.1
300(9) 0.01170 286.9 16.9
298(9) 0.01135 287.0 16.8
320(10) 0.01082 287.0 16.6
318(9) 0.01140 287.0 16.4
313(9) 0.01204 287.0 16.2
307(9) 0.01112 287.0 16.1
295(10) 0.01097 287.0 15.9
280(9) 0.01288 287.0 15.7
305(9) 0.01204 287.0 15.5
301(9) 0.01233 287.1 15.3
326(10) 0.01065 287.1 15.1
319(10) 0.01034 287.1 14.9
286(9) 0.01254 287.1 14.8
317(9) 0.01172 287.1 14.6
302(9) 0.01236 287.1 14.4
306(9) 0.01144 287.1 14.2
312(10) 0.01037 287.1 14.0
303(9) 0.01178 287.2 13.8
293(9) 0.01276 287.2 13.6
286(9) 0.01296 287.2 13.4
285(9) 0.01202 287.2 13.3
290(9) 0.01120 287.2 13.1
295(9) 0.01183 287.2 12.9
312(9) 0.01191 287.2 12.7
297(9) 0.01263 287.2 12.5
298(9) 0.01187 287.3 12.4
319(10) 0.01068 287.3 12.2
304(9) 0.01147 287.3 12.0
290(9) 0.01289 287.3 11.9
285(9) 0.01244 287.3 11.7
290(9) 0.01172 287.3 11.5
282(9) 0.01181 287.3 11.4
292(9) 0.01158 287.3 11.2
293(9) 0.01270 287.4 11.0
291(9) 0.01219 287.4 10.9
290(9) 0.01209 287.4 10.7
302(9) 0.01131 287.4 10.6
286(9) 0.01247 287.4 10.4
320(9) 0.01165 287.4 10.3
327(10) 0.01095 287.4 10.1
307(9) 0.01119 287.4 10.0
286(9) 0.01225 287.5 9.9
313(9) 0.01170 287.5 9.7
326(9) 0.01143 287.5 9.6
312(9) 0.01110 287.5 9.5
295(10) 0.01103 287.5 9.3
288(9) 0.01232 287.5 9.2
302(9) 0.01207 287.5 9.1
277(9) 0.01356 287.5 8.9
288(9) 0.01182 287.6 8.8
297(10) 0.01108 287.6 8.7
285(9) 0.01220 287.6 8.6
294(9) 0.01216 287.6 8.5
308(9) 0.01206 287.6 8.4
300(9) 0.01152 287.6 8.3
288(9) 0.01151 287.6 8.2
319(10) 0.01061 287.6 8.1
296(9) 0.01226 287.7 8.0
290(9) 0.01274 287.7 7.9
305(10) 0.01093 287.7 7.8
294(10) 0.01075 287.7 7.7
275(9) 0.01240 287.7 7.6
286(9) 0.01271 287.7 7.5
288(9) 0.01298 287.7 7.4
300(9) 0.01189 287.7 7.4
290(9) 0.01139 287.8 7.3
306(9) 0.01113 287.8 7.2
283(9) 0.01296 287.8 7.1
330(10) 0.01101 287.8 7.1
316(10) 0.01107 287.8 7.0
277(9) 0.01199 287.8 7.0
289(9) 0.01201 287.8 6.9
300(9) 0.01243 287.8 6.8
285(9) 0.01263 287.9 6.8
298(9) 0.01154 287.9 6.7
294(9) 0.01142 287.9 6.7
319(10) 0.01087 287.9 6.7
305(9) 0.01218 287.9 6.6
287(9) 0.01288 287.9 6.6
275(9) 0.01294 287.9 6.5
264(9) 0.01312 287.9 6.5
290(9) 0.01168 288.0 6.5
289(9) 0.01285 288.0 6.4
314(9) 0.01119 288.0 6.4
295(9) 0.01184 288.0 6.4
309(10) 0.01074 288.0 6.4
270(9) 0.01284 288.0 6.4
272(8) 0.01384 288.0 6.3
294(9) 0.01182 288.0 6.3
297(9) 0.01165 288.1 6.3
312(10) 0.01107 288.1 6.3
310(9) 0.01133 288.1 6.3
278(9) 0.01330 288.1 6.3
298(9) 0.01155 288.1 6.3
291(9) 0.01210 288.1 6.3
258(8) 0.01409 288.1 6.3
296(9) 0.01164 288.2 6.3
289(9) 0.01275 288.2 6.3
284(9) 0.01195 288.2 6.3
318(10) 0.01043 288.2 6.3
291(9) 0.01225 288.2 6.3
300(9) 0.01190 288.2 6.3
276(9) 0.01348 288.2 6.3
305(9) 0.01137 288.2 6.3
289(9) 0.01153 288.3 6.3
290(9) 0.01219 288.3 6.3
308(9) 0.01177 288.3 6.3
308(9) 0.01190 288.3 6.4
307(9) 0.01126 288.3 6.4
291(9) 0.01140 288.3 6.4
295(9) 0.01180 288.3 6.4
300(9) 0.01251 288.3 6.4
308(9) 0.01211 288.4 6.5
301(9) 0.01172 288.4 6.5
281(9) 0.01203 288.4 6.5
320(10) 0.01098 288.4 6.5
298(9) 0.01243 288.4 6.6
294(9) 0.01249 288.4 6.6
305(10) 0.01102 288.4 6.6
295(10) 0.01100 288.4 6.7
294(9) 0.01223 288.5 6.7
304(9) 0.01220 288.5 6.7
294(9) 0.01252 288.5 6.8
317(9) 0.01122 288.5 6.8
312(10) 0.01070 288.5 6.8
302(9) 0.01176 288.5 6.9
305(9) 0.01227 288.5 6.9
300(9) 0.01199 288.5 7.0
295(9) 0.01232 288.6 7.0
306(10) 0.01079 288.6 7.0
273(9) 0.01259 288.6 7.1
260(8) 0.01419 288.6 7.1
291(9) 0.01239 288.6 7.2
304(9) 0.01156 288.6 7.2
293(9) 0.01145 288.6 7.3
293(9) 0.01207 288.6 7.3
294(9) 0.01264 288.7 7.3
303(9) 0.01142 288.7 7.4
303(10) 0.01092 288.7 7.4
285(9) 0.01190 288.7 7.5
306(9) 0.01158 288.7 7.5
300(9) 0.01232 288.7 7.6
316(9) 0.01134 288.7 7.6
308(9) 0.01141 288.7 7.7
298(9) 0.01147 288.8 7.7
301(9) 0.01167 288.8 7.8
299(9) 0.01252 288.8 7.8
299(9) 0.01122 288.8 7.9
300(9) 0.01118 288.8 8.0
293(9) 0.01172 288.8 8.0
301(9) 0.01197 288.8 8.1
296(9) 0.01245 288.8 8.1
296(9) 0.01155 288.9 8.2
289(9) 0.01131 288.9 8.3
303(9) 0.01154 288.9 8.3
277(9) 0.01314 288.9 8.4
296(9) 0.01250 288.9 8.4
302(9) 0.01135 288.9 8.5
291(9) 0.01189 288.9 8.6
302(9) 0.01168 288.9 8.6
309(9) 0.01203 289.0 8.7
276(9) 0.01329 289.0 8.8
294(9) 0.01185 289.0 8.8
318(10) 0.00974 289.0 8.9
288(9) 0.01237 289.0 9.0
279(9) 0.01327 289.0 9.1
283(9) 0.01309 289.0 9.1
285(9) 0.01280 289.0 9.2
299(10) 0.01062 289.1 9.3
276(9) 0.01222 289.1 9.4
313(9) 0.01188 289.1 9.5
304(9) 0.01214 289.1 9.5
307(9) 0.01115 289.1 9.6
310(10) 0.01038 289.1 9.7
315(10) 0.01095 289.1 9.8
305(9) 0.01237 289.1 9.9
293(9) 0.01219 289.2 10.0
304(9) 0.01166 289.2 10.1
314(10) 0.01061 289.2 10.1
299(9) 0.01180 289.2 10.2
322(9) 0.01165 289.2 10.3
324(10) 0.01069 289.2 10.4
298(10) 0.01094 289.2 10.5
287(9) 0.01138 289.2 10.5
301(9) 0.01147 289.3 10.6
295(9) 0.01263 289.3 10.7
294(9) 0.01208 289.3 10.8
300(9) 0.01137 289.3 10.8
305(9) 0.01123 289.3 10.9
304(9) 0.01138 289.3 11.0
312(9) 0.01198 289.3 11.0
298(9) 0.01136 289.4 11.1
287(9) 0.01170 289.4 11.2
310(10) 0.01107 289.4 11.2
311(9) 0.01152 289.4 11.3
311(9) 0.01191 289.4 11.3
314(10) 0.01105 289.4 11.4
286(9) 0.01175 289.4 11.5
298(9) 0.01178 289.4 11.5
281(9) 0.01268 289.5 11.6
278(9) 0.01341 289.5 11.7
328(10) 0.00983 289.5 11.7
288(9) 0.01171 289.5 11.8
287(9) 0.01198 289.5 11.9
279(9) 0.01326 289.5 11.9
290(9) 0.01294 289.5 12.0
294(9) 0.01173 289.5 12.1
304(10) 0.01074 289.6 12.1
283(9) 0.01214 289.6 12.2
286(9) 0.01296 289.6 12.3
291(9) 0.01284 289.6 12.4
302(9) 0.01142 289.6 12.4
287(9) 0.01127 289.6 12.5
297(9) 0.01123 289.6 12.6
284(9) 0.01259 289.6 12.8
306(9) 0.01200 289.7 12.9
292(9) 0.01227 289.7 13.0
309(10) 0.01056 289.7 13.2
307(9) 0.01133 289.7 13.3
313(9) 0.01188 289.7 13.5
311(9) 0.01220 289.7 13.6
318(10) 0.01096 289.7 13.8
311(10) 0.01070 289.7 14.0
318(9) 0.01110 289.8 14.3
315(9) 0.01181 289.8 14.5
296(9) 0.01228 289.8 14.7
307(10) 0.01105 289.8 15.0
299(9) 0.01127 289.8 15.2
298(9) 0.01179 289.8 15.5
313(9) 0.01169 289.8 15.8
296(9) 0.01237 289.8 16.0
289(9) 0.01196 289.9 16.3
298(9) 0.01117 289.9 16.6
302(9) 0.01160 289.9 16.8
297(9) 0.01249 289.9 17.1
328(10) 0.01093 289.9 17.4
315(9) 0.01108 289.9 17.6
296(9) 0.01151 289.9 17.8
310(9) 0.01154 289.9 18.0
283(9) 0.01309 290.0 18.1
318(10) 0.01095 290.0 18.3
313(9) 0.01110 290.0 18.4
322(10) 0.01092 290.0 18.4
325(10) 0.01087 290.0 18.5
306(9) 0.01203 290.0 18.5
311(9) 0.01121 290.0 18.5
323(10) 0.01067 290.0 18.5
313(9) 0.01112 290.1 18.4
309(9) 0.01160 290.1 18.4
311(9) 0.01200 290.1 18.3
295(9) 0.01159 290.1 18.3
318(10) 0.01028 290.1 18.2
294(9) 0.01114 290.1 18.2
277(9) 0.01310 290.1 18.1
294(9) 0.01263 290.1 18.1
307(9) 0.01129 290.2 18.1
320(10) 0.01052 290.2 18.0
322(10) 0.01030 290.2 18.0
311(9) 0.01146 290.2 18.0
288(9) 0.01288 290.2 18.0
295(9) 0.01165 290.2 18.0
306(10) 0.01062 290.2 18.1
296(9) 0.01214 290.2 18.1
306(9) 0.01196 290.3 18.1
305(9) 0.01207 290.3 18.2
286(9) 0.01207 290.3 18.2
308(10) 0.00984 290.3 18.3
320(10) 0.01045 290.3 18.4
309(9) 0.01189 290.3 18.4
307(9) 0.01161 290.3 18.5
301(9) 0.01160 290.3 18.5
314(10) 0.00998 290.4 18.6
318(10) 0.01105 290.4 18.6
274(9) 0.01355 290.4 18.6
290(9) 0.01274 290.4 18.7
291(9) 0.01153 290.4 18.7
304(9) 0.01111 290.4 18.6
312(9) 0.01143 290.4 18.6
312(9) 0.01186 290.4 18.6
294(9) 0.01213 290.5 18.5
325(10) 0.01056 290.5 18.4
293(9) 0.01189 290.5 18.3
284(9) 0.01260 290.5 18.2
313(9) 0.01181 290.5 18.1
303(9) 0.01203 290.5 18.0
297(9) 0.01115 290.5 17.8
305(10) 0.01104 290.5 17.7
302(9) 0.01157 290.6 17.5
298(9) 0.01249 290.6 17.4
292(9) 0.01222 290.6 17.2
293(9) 0.01177 290.6 17.0
301(9) 0.01174 290.6 16.9
302(9) 0.01214 290.6 16.7
298(9) 0.01249 290.6 16.5
281(9) 0.01223 290.7 16.4
292(9) 0.01143 290.7 16.2
297(9) 0.01178 290.7 16.1
303(9) 0.01187 290.7 15.9
296(9) 0.01240 290.7 15.8
298(9) 0.01172 290.7 15.6
283(9) 0.01179 290.7 15.5
302(9) 0.01123 290.7 15.3
284(9) 0.01304 290.8 15.2
309(9) 0.01204 290.8 15.1
302(9) 0.01197 290.8 15.0
291(9) 0.01167 290.8 14.9
320(10) 0.01065 290.8 14.8
297(9) 0.01264 290.8 14.7
292(9) 0.01255 290.8 14.6
320(10) 0.01099 290.8 14.5
323(10) 0.01044 290.9 14.4
284(9) 0.01259 290.9 14.3
312(9) 0.01170 290.9 14.3
288(9) 0.01288 290.9 14.2
326(10) 0.01053 290.9 14.1
284(9) 0.01183 290.9 14.1
274(9) 0.01307 290.9 14.0
311(9) 0.01208 290.9 14.0
309(9) 0.01204 291.0 14.0
296(9) 0.01189 291.0 13.9
291(9) 0.01157 291.0 13.9
294(9) 0.01231 291.0 13.9
283(9) 0.01320 291.0 13.8
282(9) 0.01287 291.0 13.8
288(9) 0.01261 291.0 13.8
277(9) 0.01227 291.0 13.8
292(9) 0.01200 291.1 13.8
293(9) 0.01283 291.1 13.8
296(9) 0.01249 291.1 13.8
316(10) 0.01086 291.1 13.8
306(9) 0.01120 291.1 13.8
305(9) 0.01152 291.1 13.8
281(9) 0.01324 293.8 13.8
279(9) 0.01310 297.0 13.8
303(10) 0.01103 300.2 13.9
303(10) 0.01107 303.4 13.9
302(9) 0.01128 306.7 13.9
279(9) 0.01353 309.9 13.9
298(9) 0.01173 313.1 14.0
289(9) 0.01226 316.3 14.0
300(9) 0.01176 319.5 14.0
287(9) 0.01239 322.7 14.1
300(9) 0.01236 325.9 14.1
286(9) 0.01232 329.2 14.2
293(9) 0.01171 332.4 14.2
266(9) . . .
320(9) . . .
313(9) . . .
312(9) . . .
311(10) . . .
271(9) . . .
296(9) . . .
293(9) . . .
284(9) . . .
292(9) . . .
298(9) . . .
277(9) . . .
316(9) . . .
274(9) . . .
291(10) . . .
308(9) . . .
272(9) . . .
293(9) . . .
299(9) . . .
282(9) . . .
293(9) . . .
286(9) . . .
281(9) . . .
278(9) . . .
308(10) . . .
284(9) . . .
291(9) . . .
309(9) . . .
290(9) . . .
307(10) . . .
301(9) . . .
316(9) . . .
304(9) . . .
327(10) . . .
318(10) . . .
293(9) . . .
298(9) . . .
305(9) . . .
306(9) . . .
280(9) . . .
320(10) . . .
332(9) . . .
318(9) . . .
321(10) . . .
297(9) . . .
299(9) . . .
322(9) . . .
309(9) . . .
305(10) . . .
290(9) . . .
304(9) . . .
298(9) . . .
298(9) . . .
299(9) . . .
315(10) . . .
331(10) . . .
290(9) . . .
299(10) . . .
305(10) . . .
302(9) . . .
306(9) . . .
325(9) . . .
306(9) . . .
292(9) . . .
276(9) . . .
283(9) . . .
277(9) . . .
323(10) . . .
318(10) . . .
288(9) . . .
308(9) . . .
307(9) . . .
308(9) . . .
296(10) . . .
270(9) . . .
284(9) . . .
286(9) . . .
290(9) . . .
265(9) . . .
291(9) . . .
301(9) . . .
268(9) . . .
292(9) . . .
290(9) . . .
300(9) . . .
304(9) . . .
283(9) . . .
287(9) . . .
302(10) . . .
285(9) . . .
289(9) . . .
318(10) . . .
287(9) . . .
294(9) . . .
276(9) . . .
295(9) . . .
293(9) . . .
308(10) . . .
270(9) . . .
262(8) . . .
295(9) . . .
302(9) . . .
262(9) . . .
296(9) . . .
276(9) . . .
299(9) . . .
271(9) . . .
277(9) . . .
299(9) . . .
303(9) . . .
273(9) . . .
286(9) . . .
300(9) . . .
300(9) . . .
306(9) . . .
277(9) . . .
294(9) . . .
306(10) . . .
281(9) . . .
283(9) . . .
291(9) . . .
291(9) . . .
290(10) . . .
273(9) . . .
303(9) . . .
275(9) . . .
299(9) . . .
307(10) . . .
291(9) . . .
275(9) . . .
296(9) . . .
296(9) . . .
270(9) . . .
293(9) . . .
274(9) . . .
292(9) . . .
287(9) . . .
269(9) . . .
281(9) . . .
295(9) . . .
292(9) . . .
322(10) . . .
291(9) . . .
306(9) . . .
279(9) . . .
279(9) . . .
292(9) . . .
311(10) . . .
291(9) . . .
288(9) . . .
286(9) . . .
291(9) . . .
300(9) . . .
276(9) . . .
275(9) . . .
283(9) . . .
286(9) . . .
267(9) . . .
261(9) . . .
274(9) . . .
281(9) . . .
268(9) . . .
282(9) . . .
278(9) . . .
284(9) . . .
282(9) . . .
285(10) . . .
278(9) . . .
261(8) . . .
296(9) . . .
283(9) . . .
271(9) . . .
286(9) . . .
313(9) . . .
274(9) . . .
291(9) . . .
253(9) . . .
287(9) . . .
312(9) . . .
287(9) . . .
280(9) . . .
287(9) . . .
272(9) . . .
292(9) . . .
307(9) . . .
280(9) . . .
272(9) . . .
282(9) . . .
288(9) . . .
273(9) . . .
305(9) . . .
284(9) . . .
314(10) . . .
273(9) . . .
291(9) . . .
316(10) . . .
286(9) . . .
280(9) . . .
295(9) . . .
304(9) . . .
287(9) . . .
283(9) . . .
292(9) . . .
292(9) . . .
296(9) . . .
277(9) . . .
279(9) . . .
278(9) . . .
288(9) . . .
249(8) . . .
273(9) . . .
282(9) . . .
303(9) . . .
255(8) . . .
276(9) . . .
288(9) . . .
267(9) . . .
272(9) . . .
275(9) . . .
291(9) . . .
299(10) . . .
294(9) . . .
270(9) . . .
273(9) . . .
291(9) . . .
297(10) . . .
269(9) . . .
282(9) . . .
254(8) . . .
277(9) . . .
288(9) . . .
260(9) . . .
275(9) . . .
269(9) . . .
282(9) . . .
261(9) . . .
263(9) . . .
313(9) . . .
274(9) . . .
273(9) . . .
288(9) . . .
314(10) . . .
263(8) . . .
283(9) . . .
304(9) . . .
274(9) . . .
276(9) . . .
264(8) . . .
274(9) . . .
270(9) . . .
293(9) . . .
287(9) . . .
279(9) . . .
265(9) . . .
304(9) . . .
287(9) . . .
295(9) . . .
293(9) . . .
276(9) . . .
290(10) . . .
267(9) . . .
286(9) . . .
289(9) . . .
293(9) . . .
294(10) . . .
279(9) . . .
247(8) . . .
281(9) . . .
258(9) . . .
271(9) . . .
284(9) . . .
293(9) . . .
286(9) . . .
273(9) . . .
295(9) . . .
290(9) . . .
292(9) . . .
267(9) . . .
323(10) . . .
293(10) . . .
296(9) . . .
291(9) . . .
315(9) . . .
284(9) . . .
297(10) . . .
257(9) . . .
312(9) . . .
315(9) . . .
304(10) . . .
300(10) . . .
304(9) . . .
299(9) . . .
292(9) . . .
303(9) . . .
285(9) . . .
318(10) . . .
295(9) . . .
279(9) . . .
300(9) . . .
283(9) . . .
295(9) . . .
286(9) . . .
249(8) . . .
277(9) . . .
259(9) . . .
278(9) . . .
264(8) . . .
272(9) . . .
322(10) . . .
288(9) . . .
270(9) . . .
272(9) . . .
299(9) . . .
304(10) . . .
298(9) . . .
297(9) . . .
277(9) . . .
281(9) . . .
277(9) . . .
283(9) . . .
293(9) . . .
297(9) . . .
280(9) . . .
310(10) . . .
287(9) . . .
285(9) . . .
293(9) . . .
272(9) . . .
267(9) . . .
277(9) . . .
291(9) . . .
303(9) . . .
279(9) . . .
263(9) . . .
297(9) . . .
262(8) . . .
305(9) . . .
277(9) . . .
265(9) . . .
293(9) . . .
271(9) . . .
298(9) . . .
278(9) . . .
284(9) . . .
303(9) . . .
269(9) . . .
300(9) . . .
266(9) . . .
294(9) . . .
313(9) . . .
301(9) . . .
293(9) . . .
306(10) . . .
290(9) . . .
298(9) . . .
278(9) . . .
285(9) . . .
285(9) . . .
280(9) . . .
279(9) . . .
260(8) . . .
299(10) . . .
288(10) . . .
289(9) . . .
295(9) . . .
294(9) . . .
317(10) . . .
280(9) . . .
260(9) . . .
275(9) . . .
283(9) . . .
290(9) . . .
280(10) . . .
279(9) . . .
292(9) . . .
281(9) . . .
273(9) . . .
287(9) . . .
269(9) . . .
276(9) . . .
267(9) . . .
281(9) . . .
273(9) . . .
303(9) . . .
289(9) . . .
293(9) . . .
309(10) . . .
290(9) . . .
286(9) . . .
280(9) . . .
303(9) . . .
321(10) . . .
292(9) . . .
259(9) . . .
291(9) . . .
297(9) . . .
283(9) . . .
257(9) . . .
305(9) . . .
296(9) . . .
306(9) . . .
312(10) . . .
303(9) . . .
295(9) . . .
304(9) . . .
310(9) . . .
299(9) . . .
279(9) . . .
307(9) . . .
310(9) . . .
304(9) . . .
280(9) . . .
276(9) . . .
304(9) . . .
282(9) . . .
288(9) . . .
293(10) . . .
289(9) . . .
284(9) . . .
267(8) . . .
267(9) . . .
281(9) . . .
287(9) . . .
281(9) . . .
272(9) . . .
278(9) . . .
302(10) . . .
291(9) . . .
278(9) . . .
300(9) . . .
264(9) . . .
284(9) . . .
276(9) . . .
294(9) . . .
312(9) . . .
273(9) . . .
264(9) . . .
273(9) . . .
256(8) . . .
283(9) . . .
272(9) . . .
253(9) . . .
267(9) . . .
266(8) . . .
272(9) . . .
283(9) . . .
274(9) . . .
272(9) . . .
261(8) . . .
258(9) . . .
261(9) . . .
247(9) . . .
292(9) . . .
300(9) . . .
290(9) . . .
270(9) . . .
282(9) . . .
265(9) . . .
261(8) . . .
267(9) . . .
274(9) . . .
274(9) . . .
254(8) . . .
279(9) . . .
259(9) . . .
270(9) . . .
274(9) . . .
268(8) . . .
279(9) . . .
264(9) . . .
262(9) . . .
281(9) . . .
310(9) . . .
243(8) . . .
254(8) . . .
262(9) . . .
271(9) . . .
233(8) . . .
266(9) . . .
266(9) . . .
271(9) . . .
268(9) . . .
260(8) . . .
249(8) . . .
245(8) . . .
259(9) . . .
255(9) . . .
255(8) . . .
264(9) . . .
261(9) . . .
272(9) . . .
275(9) . . .
271(9) . . .
267(9) . . .
273(9) . . .
267(9) . . .
251(8) . . .
260(8) . . .
276(9) . . .
283(9) . . .
284(9) . . .
261(8) . . .
276(9) . . .
278(9) . . .
257(9) . . .
253(9) . . .
251(8) . . .
288(9) . . .
276(9) . . .
253(9) . . .
250(8) . . .
273(9) . . .
270(8) . . .
240(8) . . .
258(9) . . .
275(9) . . .
253(8) . . .
232(8) . . .
276(9) . . .
279(9) . . .
265(9) . . .
286(9) . . .
270(9) . . .
288(9) . . .
264(9) . . .
273(9) . . .
258(8) . . .
268(9) . . .
258(9) . . .
262(9) . . .
261(9) . . .
255(8) . . .
254(8) . . .
244(9) . . .
262(9) . . .
248(8) . . .
248(8) . . .
259(8) . . .
266(9) . . .
284(9) . . .
259(9) . . .
248(8) . . .
284(9) . . .
256(9) . . .
256(9) . . .
259(9) . . .
262(8) . . .
264(9) . . .
282(9) . . .
275(9) . . .
245(8) . . .
249(8) . . .
280(9) . . .
266(9) . . .
287(9) . . .
256(8) . . .
266(9) . . .
250(8) . . .
272(9) . . .
269(9) . . .
260(8) . . .
263(8) . . .
264(9) . . .
259(9) . . .
249(9) . . .
250(8) . . .
247(8) . . .
248(8) . . .
246(9) . . .
241(8) . . .
279(9) . . .
270(9) . . .
258(9) . . .
247(9) . . .
270(9) . . .
253(8) . . .
284(9) . . .
266(9) . . .
245(8) . . .
267(9) . . .
242(8) . . .
249(8) . . .
266(9) . . .
252(9) . . .
243(9) . . .
240(8) . . .
269(9) . . .
278(9) . . .
253(8) . . .
273(9) . . .
265(8) . . .
254(8) . . .
263(9) . . .
242(8) . . .
251(8) . . .
257(8) . . .
266(9) . . .
251(8) . . .
250(8) . . .
257(8) . . .
250(8) . . .
264(9) . . .
253(9) . . .
281(9) . . .
262(9) . . .
234(8) . . .
249(9) . . .
237(8) . . .
258(9) . . .
243(8) . . .
230(8) . . .
265(9) . . .
260(9) . . .
254(8) . . .
261(8) . . .
266(8) . . .
261(9) . . .
269(9) . . .
272(9) . . .
250(8) . . .
265(8) . . .
263(9) . . .
262(9) . . .
265(9) . . .
276(9) . . .
248(8) . . .
257(9) . . .
287(10) . . .
252(9) . . .
258(8) . . .
264(9) . . .
270(9) . . .
267(9) . . .
267(9) . . .
261(8) . . .
246(8) . . .
247(8) . . .
255(9) . . .
237(8) . . .
262(8) . . .
269(9) . . .
264(9) . . .
270(9) . . .
281(9) . . .
283(9) . . .
258(8) . . .
280(9) . . .
250(9) . . .
270(9) . . .
232(8) . . .
266(9) . . .
267(9) . . .
286(9) . . .
264(8) . . .
250(8) . . .
278(9) . . .
254(9) . . .
254(9) . . .
264(9) . . .
244(8) . . .
246(9) . . .
255(9) . . .
261(9) . . .
242(8) . . .
284(9) . . .
258(9) . . .
261(9) . . .
256(9) . . .
266(8) . . .
253(8) . . .
251(8) . . .
266(9) . . .
265(9) . . .
252(8) . . .
266(9) . . .
247(8) . . .
253(9) . . .
259(9) . . .
257(8) . . .
246(8) . . .
246(8) . . .
254(9) . . .
252(9) . . .
245(8) . . .
265(9) . . .
262(9) . . .
262(9) . . .
248(8) . . .
252(8) . . .
245(8) . . .
242(8) . . .
246(9) . . .
270(9) . . .
269(8) . . .
247(8) . . .
241(8) . . .
252(9) . . .
269(9) . . .
271(9) . . .
268(9) . . .
233(8) . . .
257(8) . . .
280(9) . . .
240(8) . . .
262(9) . . .
234(8) . . .
245(8) . . .
248(8) . . .
265(8) . . .
254(9) . . .
234(8) . . .
261(9) . . .
247(8) . . .
249(8) . . .
263(9) . . .
253(9) . . .
247(8) . . .
258(8) . . .
271(9) . . .
253(9) . . .
252(9) . . .
235(8) . . .
252(8) . . .
245(8) . . .
243(8) . . .
236(9) . . .
231(8) . . .
253(8) . . .
244(8) . . .
237(8) . . .
241(9) . . .
249(9) . . .
259(8) . . .
245(8) . . .
276(9) . . .
241(8) . . .
262(9) . . .
252(8) . . .
230(8) . . .
240(8) . . .
244(9) . . .
229(8) . . .
261(8) . . .
244(8) . . .
249(8) . . .
256(9) . . .
227(8) . . .
269(8) . . .
287(9) . . .
256(8) . . .
262(9) . . .
248(8) . . .
266(9) . . .
279(9) . . .
269(9) . . .
267(9) . . .
237(8) . . .
258(8) . . .
258(9) . . .
266(9) . . .
259(9) . . .
256(9) . . .
238(8) . . .
256(9) . . .
235(8) . . .
255(9) . . .
258(8) . . .
256(8) . . .
250(8) . . .
254(9) . . .
244(9) . . .
234(8) . . .
258(8) . . .
253(9) . . .
257(9) . . .
250(8) . . .
264(8) . . .
260(8) . . .
246(8) . . .
269(9) . . .
257(9) . . .
251(8) . . .
255(8) . . .
236(8) . . .
242(9) . . .
255(9) . . .
257(8) . . .
230(8) . . .
263(9) . . .
242(8) . . .
253(9) . . .
242(8) . . .
229(8) . . .
235(8) . . .
248(9) . . .
244(8) . . .
268(9) . . .
241(8) . . .
264(9) . . .
255(9) . . .
251(9) . . .
248(8) . . .
233(8) . . .
259(9) . . .
256(8) . . .
233(8) . . .
236(8) . . .
242(8) . . .
244(9) . . .
238(8) . . .
242(8) . . .
248(8) . . .
234(8) . . .
247(9) . . .
236(8) . . .
222(8) . . .
235(8) . . .
262(9) . . .
225(8) . . .
238(8) . . .
226(8) . . .
242(8) . . .
229(8) . . .
231(8) . . .
223(8) . . .
228(8) . . .
253(8) . . .
228(8) . . .
239(9) . . .
222(8) . . .
225(8) . . .
234(8) . . .
242(8) . . .
236(9) . . .
209(8) . . .
231(8) . . .
237(8) . . .
239(8) . . .
224(8) . . .
227(8) . . .
233(8) . . .
238(8) . . .
225(8) . . .
223(8) . . .
242(8) . . .
225(8) . . .
215(8) . . .
223(8) . . .
245(9) . . .
200(8) . . .
230(8) . . .
221(8) . . .
225(8) . . .
233(8) . . .
211(8) . . .
246(8) . . .
226(8) . . .
228(8) . . .
240(8) . . .
237(8) . . .
230(8) . . .
223(8) . . .
231(8) . . .
241(8) . . .
240(8) . . .
216(8) . . .
235(8) . . .
234(8) . . .
223(8) . . .
230(8) . . .
222(8) . . .
218(8) . . .
219(8) . . .
222(8) . . .
196(7) . . .
222(8) . . .
224(8) . . .
211(8) . . .
229(8) . . .
233(8) . . .
221(8) . . .
203(8) . . .
247(9) . . .
222(8) . . .
222(8) . . .
230(8) . . .
240(8) . . .
243(9) . . .
230(8) . . .
252(8) . . .
219(8) . . .
217(8) . . .
218(8) . . .
232(8) . . .
226(8) . . .
214(8) . . .
231(8) . . .
219(8) . . .
225(8) . . .
211(8) . . .
225(8) . . .
225(8) . . .
237(8) . . .
227(8) . . .
236(8) . . .
233(8) . . .
218(8) . . .
251(9) . . .
220(8) . . .
226(8) . . .
211(8) . . .
215(8) . . .
193(8) . . .
225(8) . . .
236(8) . . .
225(8) . . .
224(8) . . .
231(8) . . .
223(8) . . .
213(8) . . .
226(8) . . .
221(8) . . .
243(8) . . .
237(8) . . .
224(8) . . .
227(8) . . .
247(9) . . .
223(8) . . .
203(7) . . .
210(8) . . .
226(8) . . .
228(8) . . .
225(8) . . .
234(8) . . .
216(8) . . .
231(8) . . .
222(8) . . .
223(8) . . .
238(8) . . .
221(8) . . .
209(8) . . .
217(8) . . .
218(8) . . .
242(8) . . .
240(8) . . .
216(8) . . .
205(8) . . .
239(8) . . .
227(8) . . .
200(8) . . .
238(8) . . .
230(8) . . .
232(8) . . .
220(8) . . .
242(8) . . .
218(8) . . .
217(8) . . .
232(8) . . .
226(8) . . .
225(8) . . .
222(8) . . .
234(8) . . .
219(8) . . .
248(8) . . .
239(8) . . .
238(9) . . .
236(8) . . .
206(8) . . .
211(8) . . .
227(8) . . .
221(8) . . .
234(8) . . .
234(8) . . .
204(7) . . .
218(8) . . .
230(9) . . .
218(8) . . .
202(7) . . .
214(8) . . .
254(9) . . .
213(8) . . .
237(8) . . .
220(8) . . .
235(8) . . .
234(8) . . .
217(8) . . .
214(8) . . .
223(8) . . .
230(8) . . .
229(8) . . .
229(8) . . .
210(8) . . .
223(8) . . .
225(8) . . .
212(8) . . .
229(8) . . .
237(8) . . .
231(8) . . .
234(8) . . .
211(8) . . .
229(8) . . .
219(8) . . .
237(8) . . .
208(8) . . .
223(8) . . .
237(8) . . .
219(8) . . .
224(8) . . .
222(8) . . .
214(8) . . .
214(8) . . .
221(8) . . .
225(8) . . .
231(8) . . .
239(8) . . .
222(8) . . .
207(7) . . .
210(8) . . .
228(8) . . .
218(8) . . .
212(8) . . .
226(8) . . .
228(8) . . .
232(8) . . .
226(9) . . .
216(8) . . .
211(8) . . .
228(8) . . .
213(8) . . .
208(8) . . .
221(8) . . .
223(8) . . .
226(8) . . .
248(8) . . .
230(8) . . .
222(8) . . .
229(8) . . .
226(8) . . .
212(8) . . .
230(8) . . .
226(8) . . .
214(8) . . .
236(8) . . .
212(8) . . .
226(8) . . .
240(9) . . .
197(7) . . .
225(8) . . .
230(8) . . .
235(8) . . .
251(9) . . .
207(7) . . .
198(7) . . .
237(9) . . .
225(8) . . .
220(8) . . .
233(8) . . .
225(8) . . .
202(8) . . .
243(9) . . .
224(8) . . .
223(8) . . .
234(8) . . .
211(8) . . .
218(8) . . .
221(8) . . .
225(8) . . .
216(8) . . .
228(8) . . .
227(8) . . .
241(8) . . .
231(8) . . .
243(8) . . .
229(8) . . .
216(8) . . .
219(8) . . .
230(8) . . .
221(8) . . .
232(9) . . .
215(8) . . .
212(8) . . .
224(8) . . .
221(8) . . .
229(8) . . .
218(8) . . .
236(8) . . .
227(8) . . .
201(7) . . .
218(8) . . .
204(8) . . .
240(8) . . .
237(8) . . .
230(8) . . .
221(8) . . .
225(8) . . .
230(8) . . .
219(8) . . .
218(8) . . .
207(8) . . .
209(8) . . .
208(7) . . .
226(8) . . .
220(8) . . .
226(8) . . .
218(8) . . .
211(8) . . .
213(8) . . .
242(8) . . .
223(8) . . .
207(8) . . .
207(7) . . .
216(8) . . .
205(8) . . .
227(8) . . .
228(8) . . .
220(8) . . .
207(8) . . .
213(8) . . .
202(8) . . .
209(7) . . .
206(7) . . .
186(7) . . .
209(8) . . .
219(8) . . .
243(8) . . .
221(8) . . .
189(7) . . .
206(8) . . .
173(7) . . .
189(7) . . .
201(7) . . .
202(8) . . .
207(8) . . .
211(8) . . .
211(8) . . .
208(8) . . .
209(8) . . .
203(8) . . .
184(7) . . .
215(8) . . .
219(8) . . .
202(8) . . .
224(8) . . .
226(8) . . .
207(8) . . .
213(8) . . .
207(8) . . .
192(7) . . .
215(8) . . .
179(7) . . .
199(8) . . .
199(8) . . .
198(7) . . .
205(7) . . .
207(7) . . .
206(8) . . .
232(9) . . .
210(8) . . .
229(8) . . .
216(8) . . .
210(8) . . .
220(8) . . .
205(8) . . .
209(8) . . .
196(7) . . .
205(8) . . .
222(8) . . .
232(8) . . .
196(7) . . .
203(7) . . .
225(8) . . .
198(8) . . .
183(7) . . .
203(7) . . .
205(8) . . .
209(8) . . .
213(8) . . .
231(8) . . .
214(8) . . .
204(7) . . .
216(8) . . .
189(7) . . .
219(8) . . .
232(8) . . .
218(8) . . .
207(8) . . .
187(7) . . .
216(8) . . .
214(8) . . .
183(7) . . .
203(8) . . .
192(7) . . .
221(8) . . .
212(8) . . .
203(8) . . .
201(8) . . .
195(8) . . .
191(7) . . .
195(7) . . .
224(8) . . .
200(8) . . .
204(8) . . .
206(8) . . .
206(7) . . .
198(7) . . .
202(8) . . .
204(8) . . .
220(8) . . .
196(7) . . .
206(8) . . .
215(8) . . .
210(8) . . .
201(7) . . .
212(8) . . .
205(8) . . .
205(8) . . .
225(8) . . .
209(8) . . .
196(7) . . .
213(8) . . .
202(8) . . .
211(8) . . .
205(7) . . .
215(8) . . .
194(7) . . .
203(8) . . .
205(8) . . .
197(7) . . .
188(7) . . .
213(8) . . .
221(9) . . .
207(8) . . .
200(7) . . .
193(7) . . .
219(8) . . .
203(8) . . .
200(8) . . .
196(7) . . .
225(8) . . .
226(8) . . .
224(8) . . .
200(8) . . .
193(7) . . .
208(7) . . .
208(8) . . .
205(8) . . .
221(8) . . .
209(8) . . .
204(8) . . .
212(8) . . .
211(8) . . .
188(7) . . .
207(7) . . .
203(8) . . .
194(7) . . .
187(7) . . .
176(7) . . .
211(8) . . .
213(8) . . .
194(7) . . .
199(8) . . .
195(8) . . .
222(8) . . .
198(8) . . .
189(8) . . .
193(8) . . .
196(7) . . .
196(7) . . .
196(7) . . .
211(8) . . .
217(8) . . .
201(7) . . .
189(7) . . .
206(8) . . .
210(8) . . .
195(8) . . .
194(7) . . .
190(7) . . .
224(8) . . .
216(8) . . .
223(8) . . .
218(8) . . .
197(7) . . .
202(8) . . .
217(8) . . .
212(8) . . .
199(7) . . .
207(8) . . .
215(8) . . .
222(8) . . .
200(8) . . .
192(7) . . .
194(7) . . .
203(8) . . .
224(8) . . .
219(8) . . .
224(8) . . .
207(8) . . .
192(8) . . .
204(8) . . .
199(8) . . .
207(7) . . .
206(8) . . .
185(7) . . .
213(8) . . .
207(8) . . .
198(7) . . .
197(8) . . .
224(8) . . .
197(8) . . .
200(8) . . .
203(7) . . .
219(8) . . .
221(8) . . .
222(8) . . .
202(7) . . .
194(7) . . .
209(8) . . .
212(8) . . .
213(8) . . .
219(8) . . .
212(8) . . .
220(8) . . .
197(8) . . .
205(8) . . .
194(7) . . .
224(8) . . .
198(7) . . .
203(8) . . .
182(7) . . .
177(7) . . .
206(8) . . .
231(8) . . .
219(8) . . .
198(8) . . .
202(7) . . .
202(7) . . .
215(8) . . .
208(8) . . .
211(8) . . .
228(8) . . .
216(8) . . .
207(8) . . .
213(8) . . .
204(8) . . .
200(7) . . .
181(7) . . .
187(7) . . .
198(8) . . .
218(8) . . .
208(7) . . .
197(8) . . .
198(8) . . .
172(7) . . .
203(8) . . .
202(7) . . .
238(8) . . .
214(8) . . .
214(8) . . .
213(8) . . .
201(7) . . .
205(8) . . .
208(8) . . .
200(8) . . .
197(7) . . .
194(7) . . .
224(8) . . .
215(8) . . .
188(7) . . .
198(7) . . .
215(8) . . .
203(8) . . .
194(8) . . .
176(7) . . .
195(7) . . .
203(7) . . .
210(8) . . .
195(8) . . .
211(8) . . .
194(7) . . .
207(7) . . .
222(8) . . .
206(8) . . .
205(8) . . .
194(7) . . .
202(7) . . .
188(7) . . .
209(8) . . .
202(8) . . .
199(7) . . .
200(7) . . .
178(7) . . .
192(8) . . .
202(8) . . .
189(7) . . .
188(7) . . .
197(7) . . .
204(8) . . .
177(7) . . .
205(7) . . .
195(7) . . .
184(7) . . .
179(7) . . .
188(7) . . .
193(7) . . .
206(8) . . .
212(8) . . .
195(8) . . .
193(7) . . .
214(8) . . .
213(8) . . .
202(8) . . .
187(7) . . .
193(7) . . .
223(8) . . .
199(8) . . .
186(7) . . .
189(7) . . .
192(7) . . .
220(8) . . .
188(7) . . .
190(8) . . .
204(8) . . .
201(7) . . .
203(7) . . .
181(7) . . .
222(8) . . .
200(7) . . .
198(7) . . .
201(7) . . .
197(7) . . .
198(8) . . .
203(8) . . .
197(7) . . .
182(7) . . .
208(8) . . .
196(7) . . .
214(8) . . .
234(8) . . .
206(8) . . .
227(8) . . .
208(8) . . .
184(7) . . .
193(7) . . .
204(8) . . .
194(7) . . .
193(7) . . .
198(7) . . .
182(7) . . .
205(8) . . .
188(7) . . .
200(8) . . .
177(7) . . .
191(7) . . .
191(7) . . .
198(8) . . .
179(7) . . .
189(7) . . .
200(7) . . .
187(7) . . .
184(7) . . .
198(8) . . .
185(7) . . .
181(7) . . .
192(7) . . .
200(8) . . .
192(7) . . .
198(7) . . .
201(7) . . .
201(8) . . .
192(8) . . .
192(7) . . .
199(7) . . .
188(7) . . .
200(8) . . .
187(8) . . .
200(8) . . .
179(7) . . .
182(7) . . .
194(7) . . .
212(8) . . .
207(8) . . .
204(7) . . .
175(7) . . .
199(8) . . .
181(7) . . .
164(7) . . .
187(7) . . .
198(7) . . .
186(7) . . .
194(8) . . .
194(8) . . .
176(7) . . .
185(7) . . .
189(7) . . .
188(8) . . .
188(7) . . .
182(7) . . .
178(7) . . .
198(8) . . .
171(7) . . .
182(7) . . .
189(7) . . .
197(8) . . .
185(7) . . .
174(7) . . .
184(7) . . .
198(7) . . .
206(8) . . .
207(8) . . .
180(7) . . .
188(7) . . .
187(7) . . .
204(8) . . .
190(7) . . .
177(7) . . .
193(7) . . .
194(7) . . .
179(7) . . .
188(8) . . .
203(8) . . .
191(7) . . .
184(7) . . .
206(8) . . .
184(7) . . .
183(7) . . .
169(7) . . .
204(7) . . .
193(7) . . .
222(8) . . .
206(8) . . .
188(7) . . .
178(7) . . .
195(8) . . .
214(8) . . .
193(7) . . .
190(7) . . .
196(7) . . .
196(8) . . .
173(7) . . .
192(7) . . .
198(7) . . .
183(7) . . .
189(7) . . .
175(7) . . .
180(7) . . .
189(7) . . .
178(7) . . .
189(7) . . .
185(7) . . .
210(8) . . .
187(7) . . .
194(7) . . .
177(7) . . .
168(7) . . .
209(8) . . .
199(7) . . .
176(7) . . .
192(7) . . .
177(7) . . .
191(7) . . .
205(7) . . .
179(7) . . .
183(7) . . .
191(7) . . .
177(7) . . .
186(7) . . .
190(7) . . .
173(7) . . .
188(7) . . .
187(7) . . .
196(7) . . .
166(7) . . .
181(8) . . .
192(8) . . .
199(7) . . .
207(8) . . .
206(8) . . .
177(7) . . .
198(8) . . .
194(7) . . .
186(7) . . .
186(7) . . .
182(7) . . .
189(7) . . .
206(7) . . .
198(7) . . .
199(8) . . .
196(8) . . .
183(7) . . .
167(7) . . .
180(7) . . .
189(7) . . .
181(7) . . .
161(7) . . .
194(7) . . .
189(7) . . .
185(7) . . .
178(7) . . .
161(7) . . .
176(7) . . .
175(7) . . .
186(7) . . .
200(8) . . .
175(7) . . .
186(7) . . .
174(7) . . .
187(7) . . .
171(7) . . .
166(7) . . .
172(7) . . .
173(7) . . .
176(7) . . .
177(7) . . .
202(7) . . .
172(7) . . .
183(7) . . .
201(8) . . .
215(8) . . .
195(7) . . .
197(7) . . .
196(7) . . .
183(7) . . .
170(7) . . .
180(7) . . .
195(7) . . .
187(7) . . .
186(8) . . .
192(7) . . .
179(7) . . .
201(7) . . .
189(7) . . .
183(7) . . .
179(7) . . .
186(7) . . .
181(7) . . .
183(7) . . .
185(7) . . .
208(8) . . .
193(7) . . .
194(7) . . .
178(7) . . .
183(7) . . .
190(7) . . .
218(8) . . .
186(7) . . .
193(8) . . .
190(8) . . .
198(8) . . .
184(7) . . .
172(7) . . .
194(8) . . .
182(7) . . .
175(7) . . .
200(7) . . .
193(7) . . .
203(8) . . .
208(8) . . .
188(7) . . .
196(7) . . .
168(7) . . .
180(7) . . .
197(8) . . .
194(7) . . .
194(7) . . .
199(8) . . .
191(8) . . .
205(8) . . .
189(7) . . .
193(7) . . .
173(7) . . .
187(8) . . .
182(7) . . .
172(7) . . .
183(7) . . .
203(8) . . .
198(8) . . .
203(8) . . .
197(7) . . .
212(8) . . .
189(7) . . .
184(8) . . .
199(8) . . .
190(7) . . .
195(7) . . .
200(8) . . .
214(8) . . .
181(7) . . .
193(7) . . .
207(8) . . .
199(8) . . .
187(7) . . .
181(7) . . .
186(7) . . .
199(8) . . .
183(7) . . .
202(8) . . .
194(7) . . .
200(7) . . .
192(7) . . .
180(7) . . .
192(8) . . .
181(7) . . .
175(7) . . .
185(7) . . .
178(7) . . .
194(8) . . .
183(7) . . .
169(7) . . .
186(7) . . .
182(7) . . .
189(7) . . .
170(7) . . .
191(7) . . .
184(7) . . .
190(8) . . .
172(7) . . .
190(7) . . .
203(7) . . .
185(7) . . .
184(7) . . .
198(8) . . .
185(7) . . .
169(7) . . .
193(7) . . .
183(7) . . .
186(7) . . .
191(7) . . .
207(8) . . .
189(7) . . .
183(8) . . .
172(7) . . .
187(7) . . .
182(7) . . .
177(7) . . .
173(7) . . .
178(7) . . .
180(7) . . .
205(8) . . .
185(7) . . .
202(8) . . .
186(7) . . .
183(7) . . .
198(7) . . .
187(7) . . .
181(7) . . .
178(7) . . .
194(7) . . .
172(7) . . .
188(7) . . .
184(8) . . .
186(7) . . .
186(7) . . .
171(7) . . .
177(7) . . .
169(7) . . .
166(7) . . .
181(7) . . .
182(7) . . .
201(8) . . .
178(7) . . .
177(7) . . .
194(7) . . .
193(7) . . .
195(7) . . .
184(7) . . .
184(7) . . .
192(7) . . .
186(7) . . .
198(8) . . .
188(8) . . .
160(7) . . .
189(7) . . .
183(7) . . .
195(8) . . .
206(8) . . .
189(7) . . .
172(7) . . .
188(7) . . .
201(8) . . .
185(7) . . .
179(7) . . .
193(7) . . .
197(7) . . .
188(8) . . .
186(7) . . .
191(7) . . .
194(7) . . .
210(8) . . .
179(7) . . .
180(7) . . .
176(7) . . .
186(7) . . .
187(7) . . .
192(8) . . .
171(7) . . .
185(7) . . .
185(7) . . .
195(8) . . .
183(7) . . .
184(7) . . .
179(7) . . .
174(7) . . .
183(7) . . .
191(8) . . .
197(8) . . .
206(7) . . .
187(7) . . .
187(7) . . .
189(7) . . .
180(7) . . .
191(7) . . .
187(7) . . .
195(8) . . .
188(7) . . .
160(6) . . .
197(7) . . .
184(7) . . .
191(8) . . .
189(7) . . .
184(7) . . .
180(7) . . .
209(8) . . .
174(7) . . .
189(7) . . .
202(7) . . .
211(7) . . .
178(7) . . .
193(8) . . .
183(7) . . .
193(7) . . .
200(7) . . .
200(8) . . .
187(8) . . .
178(7) . . .
175(7) . . .
178(7) . . .
178(7) . . .
183(8) . . .
179(7) . . .
179(7) . . .
188(7) . . .
172(7) . . .
174(7) . . .
174(7) . . .
180(7) . . .
185(7) . . .
166(7) . . .
167(7) . . .
186(7) . . .
192(7) . . .
174(7) . . .
177(7) . . .
187(7) . . .
179(7) . . .
173(7) . . .
181(7) . . .
182(7) . . .
174(7) . . .
178(7) . . .
191(7) . . .
179(7) . . .
178(7) . . .
186(7) . . .
163(7) . . .
199(7) . . .
199(8) . . .
189(8) . . .
182(7) . . .
180(7) . . .
193(7) . . .
167(7) . . .
174(7) . . .
175(7) . . .
167(7) . . .
162(7) . . .
194(8) . . .
188(8) . . .
182(7) . . .
178(7) . . .
188(7) . . .
170(7) . . .
194(8) . . .
189(8) . . .
170(7) . . .
176(7) . . .
188(7) . . .
162(7) . . .
169(7) . . .
171(7) . . .
178(7) . . .
174(7) . . .
164(7) . . .
164(7) . . .
180(7) . . .
178(7) . . .
182(8) . . .
173(7) . . .
188(8) . . .
165(7) . . .
148(6) . . .
201(8) . . .
199(8) . . .
171(7) . . .
176(7) . . .
184(7) . . .
193(8) . . .
180(7) . . .
184(7) . . .
186(7) . . .
159(7) . . .
168(7) . . .
180(7) . . .
177(7) . . .
185(7) . . .
166(7) . . .
162(7) . . .
182(7) . . .
197(7) . . .
174(7) . . .
202(8) . . .
184(7) . . .
198(8) . . .
181(7) . . .
178(7) . . .
184(7) . . .
190(8) . . .
153(7) . . .
180(7) . . .
182(7) . . .
171(7) . . .
187(8) . . .
165(7) . . .
168(7) . . .
194(7) . . .
191(8) . . .
181(7) . . .
187(7) . . .
177(7) . . .
179(7) . . .
217(8) . . .
184(7) . . .
213(8) . . .
180(7) . . .
205(7) . . .
199(8) . . .
199(8) . . .
186(7) . . .
185(7) . . .
193(7) . . .
190(7) . . .
180(7) . . .
169(7) . . .
195(7) . . .
194(7) . . .
187(7) . . .
175(7) . . .
174(7) . . .
169(7) . . .
184(7) . . .
187(7) . . .
184(7) . . .
181(7) . . .
177(7) . . .
184(7) . . .
169(7) . . .
186(8) . . .
174(7) . . .
175(7) . . .
187(7) . . .
170(7) . . .
176(7) . . .
206(8) . . .
170(7) . . .
177(7) . . .
180(7) . . .
179(7) . . .
183(7) . . .
187(7) . . .
176(7) . . .
167(7) . . .
169(7) . . .
171(7) . . .
168(7) . . .
171(7) . . .
187(7) . . .
182(7) . . .
181(7) . . .
179(7) . . .
179(7) . . .
165(7) . . .
159(7) . . .
168(7) . . .
179(7) . . .
183(7) . . .
170(7) . . .
183(7) . . .
172(7) . . .
175(7) . . .
187(7) . . .
187(7) . . .
166(7) . . .
164(7) . . .
169(7) . . .
163(7) . . .
183(7) . . .
176(7) . . .
169(7) . . .
176(7) . . .
173(7) . . .
164(7) . . .
167(7) . . .
182(7) . . .
180(7) . . .
185(7) . . .
186(7) . . .
174(7) . . .
169(7) . . .
186(7) . . .
176(7) . . .
196(8) . . .
194(7) . . .
158(6) . . .
162(7) . . .
153(7) . . .
167(7) . . .
166(7) . . .
170(7) . . .
164(7) . . .
181(7) . . .
173(7) . . .
159(7) . . .
198(7) . . .
196(8) . . .
171(8) . . .
159(7) . . .
185(7) . . .
203(7) . . .
176(7) . . .
172(7) . . .
166(7) . . .
166(7) . . .
182(7) . . .
170(7) . . .
173(7) . . .
172(7) . . .
174(7) . . .
168(7) . . .
186(7) . . .
176(7) . . .
163(7) . . .
173(7) . . .
187(7) . . .
173(7) . . .
172(7) . . .
175(7) . . .
193(7) . . .
161(7) . . .
174(7) . . .
172(7) . . .
172(7) . . .
182(7) . . .
192(7) . . .
182(7) . . .
183(7) . . .
163(7) . . .
157(6) . . .
174(7) . . .
166(7) . . .
180(7) . . .
201(8) . . .
196(7) . . .
185(7) . . .
171(7) . . .
183(7) . . .
170(7) . . .
160(7) . . .
189(8) . . .
182(7) . . .
198(7) . . .
185(7) . . .
176(7) . . .
183(7) . . .
184(8) . . .
169(7) . . .
190(7) . . .
172(7) . . .
170(7) . . .
154(7) . . .
162(7) . . .
161(7) . . .
191(7) . . .
166(7) . . .
161(7) . . .
171(7) . . .
197(7) . . .
173(7) . . .
169(7) . . .
172(7) . . .
159(7) . . .
173(7) . . .
178(7) . . .
183(7) . . .
169(7) . . .
169(7) . . .
178(7) . . .
147(6) . . .
179(7) . . .
177(7) . . .
186(7) . . .
149(6) . . .
191(7) . . .
172(7) . . .
178(7) . . .
167(7) . . .
184(7) . . .
175(7) . . .
149(7) . . .
144(6) . . .
153(6) . . .
156(6) . . .
184(7) . . .
189(8) . . .
176(7) . . .
157(7) . . .
164(7) . . .
188(7) . . .
175(7) . . .
175(7) . . .
173(7) . . .
184(7) . . .
179(7) . . .
183(8) . . .
186(7) . . .
165(7) . . .
172(7) . . .
160(7) . . .
175(7) . . .
193(7) . . .
183(7) . . .
169(7) . . .
176(7) . . .
167(7) . . .
172(7) . . .
167(7) . . .
190(7) . . .
179(7) . . .
163(7) . . .
192(7) . . .
195(7) . . .
178(7) . . .
163(7) . . .
189(7) . . .
179(7) . . .
189(7) . . .
169(7) . . .
177(7) . . .
166(7) . . .
189(7) . . .
198(7) . . .
182(7) . . .
186(7) . . .
186(7) . . .
190(7) . . .
186(7) . . .
180(7) . . .
189(8) . . .
187(7) . . .
179(7) . . .
170(7) . . .
169(7) . . .
175(7) . . .
183(7) . . .
200(8) . . .
188(7) . . .
181(7) . . .
187(7) . . .
166(7) . . .
173(7) . . .
180(7) . . .
165(7) . . .
181(7) . . .
179(7) . . .
167(7) . . .
183(7) . . .
179(7) . . .
176(7) . . .
187(7) . . .
178(7) . . .
179(7) . . .
191(7) . . .
180(8) . . .
166(7) . . .
179(7) . . .
170(7) . . .
171(7) . . .
181(8) . . .
198(8) . . .
179(7) . . .
182(7) . . .
180(7) . . .
178(7) . . .
167(7) . . .
164(7) . . .
169(7) . . .
192(8) . . .
173(7) . . .
174(7) . . .
172(7) . . .
162(7) . . .
171(7) . . .
153(7) . . .
177(7) . . .
178(7) . . .
192(7) . . .
189(7) . . .
191(8) . . .
166(7) . . .
176(7) . . .
191(8) . . .
182(7) . . .
189(7) . . .
165(7) . . .
188(7) . . .
166(7) . . .
173(7) . . .
176(7) . . .
199(7) . . .
174(7) . . .
189(8) . . .
171(7) . . .
165(7) . . .
160(7) . . .
175(7) . . .
155(7) . . .
175(8) . . .
170(7) . . .
178(7) . . .
172(7) . . .
192(7) . . .
175(7) . . .
191(7) . . .
193(7) . . .
174(7) . . .
173(7) . . .
160(7) . . .
178(7) . . .
177(7) . . .
177(7) . . .
159(7) . . .
170(7) . . .
162(7) . . .
182(7) . . .
185(7) . . .
176(7) . . .
172(7) . . .
181(7) . . .
162(7) . . .
162(7) . . .
181(8) . . .
159(7) . . .
160(7) . . .
173(7) . . .
175(7) . . .
186(7) . . .
183(7) . . .
192(7) . . .
193(7) . . .
178(7) . . .
184(7) . . .
180(7) . . .
196(7) . . .
196(7) . . .
197(8) . . .
169(7) . . .
189(8) . . .
163(7) . . .
199(7) . . .
177(7) . . .
195(8) . . .
163(7) . . .
190(7) . . .
197(7) . . .
188(7) . . .
172(7) . . .
181(7) . . .
175(7) . . .
189(7) . . .
184(7) . . .
177(7) . . .
166(7) . . .
165(7) . . .
171(7) . . .
182(7) . . .
182(7) . . .
187(7) . . .
166(7) . . .
162(7) . . .
172(7) . . .
188(8) . . .
177(7) . . .
182(7) . . .
175(7) . . .
180(7) . . .
182(7) . . .
178(7) . . .
169(7) . . .
190(7) . . .
201(8) . . .
175(7) . . .
190(7) . . .
178(7) . . .
184(7) . . .
201(8) . . .
194(8) . . .
189(7) . . .
179(7) . . .
173(7) . . .
184(7) . . .
167(7) . . .
181(7) . . .
185(7) . . .
169(7) . . .
184(8) . . .
170(7) . . .
172(7) . . .
166(7) . . .
189(7) . . .
188(8) . . .
176(7) . . .
183(7) . . .
171(7) . . .
174(7) . . .
186(8) . . .
183(7) . . .
185(7) . . .
175(7) . . .
199(8) . . .
198(8) . . .
165(7) . . .
196(7) . . .
198(7) . . .
171(7) . . .
186(8) . . .
183(7) . . .
186(7) . . .
183(7) . . .
170(7) . . .
171(7) . . .
170(7) . . .
175(7) . . .
182(7) . . .
189(7) . . .
205(8) . . .
192(7) . . .
186(7) . . .
185(7) . . .
179(7) . . .
175(7) . . .
186(7) . . .
180(7) . . .
178(7) . . .
193(8) . . .
199(8) . . .
176(7) . . .
173(7) . . .
197(8) . . .
170(7) . . .
174(7) . . .
192(7) . . .
183(7) . . .
179(7) . . .
181(7) . . .
181(7) . . .
199(7) . . .
197(7) . . .
184(7) . . .
162(7) . . .
184(7) . . .
176(7) . . .
168(7) . . .
180(7) . . .
186(8) . . .
178(7) . . .
183(7) . . .
183(7) . . .
175(7) . . .
170(7) . . .
188(7) . . .
178(7) . . .
169(7) . . .
175(7) . . .
178(7) . . .
193(7) . . .
189(7) . . .
188(7) . . .
167(7) . . .
196(8) . . .
181(7) . . .
179(7) . . .
208(8) . . .
191(7) . . .
188(7) . . .
178(7) . . .
179(7) . . .
183(7) . . .
188(7) . . .
188(8) . . .
176(7) . . .
182(7) . . .
194(7) . . .
193(8) . . .
175(7) . . .
186(7) . . .
182(7) . . .
177(7) . . .
182(7) . . .
172(7) . . .
159(7) . . .
162(7) . . .
179(7) . . .
190(8) . . .
173(7) . . .
190(7) . . .
192(7) . . .
188(7) . . .
198(8) . . .
174(7) . . .
174(7) . . .
177(7) . . .
174(7) . . .
188(8) . . .
196(8) . . .
176(7) . . .
188(7) . . .
158(7) . . .
185(8) . . .
185(7) . . .
219(8) . . .
196(7) . . .
183(7) . . .
187(8) . . .
179(8) . . .
175(7) . . .
171(7) . . .
185(7) . . .
193(8) . . .
158(7) . . .
159(7) . . .
182(7) . . .
195(8) . . .
185(7) . . .
169(7) . . .
163(7) . . .
181(7) . . .
154(7) . . .
190(8) . . .
195(8) . . .
171(7) . . .
175(7) . . .
183(7) . . .
176(7) . . .
169(7) . . .
167(7) . . .
161(7) . . .
149(7) . . .
172(7) . . .
167(7) . . .
191(7) . . .
172(7) . . .
175(7) . . .
180(7) . . .
182(7) . . .
180(7) . . .
162(7) . . .
166(7) . . .
167(7) . . .
170(7) . . .
170(7) . . .
174(7) . . .
175(7) . . .
182(7) . . .
191(7) . . .
178(7) . . .
168(7) . . .
179(7) . . .
196(7) . . .
172(7) . . .
190(7) . . .
182(7) . . .
173(7) . . .
174(7) . . .
186(7) . . .
173(7) . . .
178(7) . . .
177(7) . . .
174(7) . . .
167(7) . . .
182(7) . . .
173(7) . . .
192(8) . . .
175(7) . . .
182(7) . . .
171(7) . . .
189(8) . . .
175(7) . . .
184(7) . . .
191(7) . . .
183(7) . . .
179(7) . . .
154(7) . . .
161(7) . . .
192(7) . . .
181(7) . . .
182(7) . . .
173(7) . . .
185(7) . . .
194(7) . . .
178(7) . . .
170(7) . . .
167(7) . . .
161(7) . . .
169(7) . . .
204(8) . . .
161(7) . . .
176(7) . . .
159(7) . . .
175(7) . . .
151(6) . . .
177(7) . . .
171(7) . . .
181(7) . . .
183(7) . . .
154(6) . . .
179(7) . . .
171(7) . . .
176(7) . . .
176(7) . . .
174(7) . . .
180(8) . . .
180(7) . . .
178(7) . . .
190(7) . . .
185(7) . . .
164(7) . . .
160(7) . . .
188(7) . . .
171(7) . . .
175(7) . . .
152(7) . . .
168(7) . . .
179(7) . . .
167(7) . . .
164(7) . . .
167(7) . . .
168(7) . . .
168(7) . . .
155(7) . . .
165(7) . . .
152(7) . . .
152(7) . . .
176(7) . . .
184(7) . . .
164(7) . . .
172(7) . . .
163(7) . . .
177(7) . . .
169(7) . . .
186(8) . . .
164(7) . . .
174(7) . . .
178(7) . . .
167(7) . . .
167(7) . . .
174(7) . . .
167(7) . . .
180(7) . . .
197(8) . . .
182(7) . . .
176(7) . . .
161(7) . . .
163(7) . . .
175(7) . . .
157(7) . . .
168(7) . . .
174(7) . . .
191(7) . . .
186(7) . . .
194(8) . . .
189(7) . . .
164(7) . . .
163(7) . . .
163(7) . . .
158(7) . . .
185(7) . . .
179(7) . . .
188(7) . . .
169(7) . . .
177(7) . . .
180(7) . . .
196(7) . . .
161(7) . . .
171(7) . . .
163(7) . . .
162(7) . . .
179(7) . . .
185(7) . . .
154(7) . . .
176(8) . . .
177(7) . . .
186(7) . . .
174(7) . . .
185(8) . . .
170(7) . . .
161(7) . . .
177(7) . . .
179(7) . . .
182(7) . . .
178(7) . . .
178(7) . . .
187(7) . . .
188(7) . . .
177(7) . . .
171(7) . . .
170(7) . . .
171(7) . . .
178(7) . . .
183(8) . . .
160(7) . . .
170(7) . . .
166(7) . . .
174(7) . . .
170(7) . . .
194(8) . . .
177(7) . . .
175(7) . . .
188(7) . . .
191(8) . . .
179(7) . . .
169(7) . . .
191(7) . . .
176(7) . . .
176(8) . . .
173(7) . . .
170(7) . . .
181(7) . . .
180(7) . . .
179(7) . . .
180(7) . . .
168(7) . . .
187(7) . . .
167(7) . . .
161(7) . . .
179(7) . . .
189(7) . . .
178(7) . . .
175(7) . . .
183(8) . . .
165(7) . . .
179(7) . . .
173(7) . . .
183(7) . . .
183(7) . . .
178(7) . . .
168(7) . . .
174(7) . . .
185(7) . . .
176(7) . . .
172(7) . . .
183(7) . . .
175(7) . . .
193(8) . . .
169(7) . . .
173(7) . . .
171(7) . . .
174(7) . . .
171(7) . . .
166(7) . . .
179(7) . . .
156(7) . . .
165(7) . . .
183(8) . . .
156(7) . . .
169(7) . . .
174(7) . . .
177(7) . . .
178(7) . . .
192(7) . . .
189(7) . . .
184(7) . . .
185(7) . . .
165(7) . . .
177(7) . . .
162(7) . . .
170(7) . . .
168(7) . . .
169(7) . . .
180(7) . . .
184(7) . . .
166(7) . . .
155(7) . . .
163(7) . . .
177(7) . . .
186(7) . . .
176(7) . . .
172(7) . . .
186(7) . . .
159(7) . . .
165(7) . . .
208(8) . . .
159(7) . . .
175(7) . . .
171(7) . . .
179(7) . . .
171(7) . . .
165(7) . . .
178(7) . . .
176(7) . . .
172(7) . . .
166(7) . . .
165(7) . . .
166(7) . . .
176(7) . . .
194(7) . . .
183(7) . . .
164(7) . . .
157(7) . . .
159(7) . . .
183(7) . . .
168(7) . . .
181(8) . . .
177(7) . . .
180(7) . . .
180(7) . . .
180(7) . . .
190(8) . . .
165(7) . . .
183(7) . . .
173(7) . . .
167(7) . . .
184(8) . . .
178(7) . . .
178(7) . . .
182(7) . . .
181(7) . . .
181(7) . . .
198(8) . . .
184(7) . . .
179(7) . . .
171(7) . . .
184(7) . . .
213(8) . . .
203(7) . . .
184(7) . . .
173(7) . . .
204(8) . . .
163(7) . . .
165(7) . . .
175(7) . . .
165(7) . . .
193(8) . . .
191(7) . . .
195(7) . . .
196(7) . . .
194(8) . . .
152(7) . . .
177(7) . . .
187(7) . . .
172(7) . . .
183(8) . . .
166(7) . . .
168(7) . . .
170(7) . . .
174(7) . . .
191(8) . . .
180(7) . . .
171(7) . . .
143(6) . . .
167(7) . . .
194(8) . . .
191(7) . . .
193(7) . . .
186(7) . . .
182(7) . . .
194(8) . . .
180(7) . . .
165(7) . . .
168(7) . . .
172(7) . . .
182(8) . . .
189(7) . . .
177(7) . . .
183(7) . . .
192(7) . . .
168(7) . . .
171(7) . . .
183(7) . . .
161(7) . . .
169(7) . . .
172(7) . . .
181(7) . . .
172(7) . . .
156(7) . . .
171(7) . . .
162(7) . . .
185(8) . . .
172(7) . . .
188(7) . . .
168(7) . . .
180(7) . . .
165(7) . . .
173(7) . . .
168(7) . . .
164(7) . . .
164(7) . . .
199(8) . . .
175(7) . . .
174(7) . . .
178(7) . . .
175(7) . . .
168(7) . . .
171(7) . . .
172(7) . . .
170(7) . . .
163(7) . . .
162(7) . . .
183(7) . . .
181(7) . . .
161(7) . . .
166(7) . . .
177(7) . . .
187(7) . . .
176(7) . . .
168(7) . . .
176(7) . . .
183(7) . . .
173(7) . . .
167(7) . . .
180(8) . . .
168(7) . . .
164(7) . . .
164(7) . . .
173(7) . . .
183(8) . . .
166(7) . . .
171(7) . . .
170(7) . . .
188(7) . . .
169(7) . . .
166(7) . . .
163(7) . . .
181(7) . . .
168(7) . . .
181(7) . . .
180(7) . . .
184(7) . . .
175(7) . . .
164(7) . . .
188(8) . . .
178(7) . . .
183(7) . . .
198(7) . . .
203(8) . . .
186(7) . . .
164(7) . . .
178(7) . . .
187(7) . . .
183(7) . . .
170(7) . . .
183(7) . . .
168(7) . . .
168(7) . . .
167(7) . . .
178(7) . . .
176(7) . . .
177(7) . . .
182(7) . . .
182(7) . . .
173(7) . . .
176(7) . . .
187(7) . . .
177(7) . . .
179(7) . . .
176(7) . . .
165(7) . . .
171(7) . . .
169(7) . . .
169(7) . . .
190(7) . . .
190(7) . . .
176(7) . . .
176(7) . . .
185(8) . . .
168(7) . . .
179(7) . . .
177(7) . . .
183(7) . . .
177(7) . . .
177(7) . . .
162(7) . . .
178(7) . . .
193(7) . . .
174(7) . . .
194(8) . . .
169(7) . . .
175(7) . . .
179(7) . . .
160(7) . . .
165(7) . . .
179(7) . . .
173(7) . . .
182(7) . . .
171(7) . . .
170(7) . . .
192(7) . . .
156(7) . . .
160(7) . . .
177(7) . . .
157(7) . . .
147(6) . . .
160(7) . . .
159(7) . . .
169(7) . . .
153(7) . . .
177(7) . . .
166(7) . . .
176(7) . . .
185(7) . . .
174(7) . . .
178(7) . . .
179(7) . . .
166(7) . . .
184(7) . . .
182(7) . . .
174(7) . . .
181(7) . . .
184(8) . . .
161(7) . . .
175(7) . . .
165(7) . . .
178(7) . . .
170(7) . . .
158(7) . . .
157(7) . . .
179(7) . . .
182(7) . . .
180(8) . . .
162(7) . . .
178(7) . . .
174(7) . . .
168(7) . . .
171(7) . . .
184(7) . . .
180(7) . . .
163(7) . . .
158(7) . . .
145(7) . . .
161(7) . . .
166(7) . . .
164(7) . . .
186(7) . . .
176(7) . . .
187(7) . . .
185(7) . . .
176(7) . . .
185(7) . . .
169(7) . . .
172(7) . . .
152(6) . . .
168(7) . . .
154(7) . . .
168(7) . . .
163(7) . . .
163(7) . . .
176(7) . . .
163(7) . . .
164(7) . . .
166(7) . . .
166(7) . . .
172(7) . . .
166(7) . . .
146(6) . . .
174(7) . . .
180(7) . . .
167(7) . . .
177(7) . . .
173(7) . . .
168(7) . . .
163(7) . . .
168(7) . . .
165(7) . . .
158(7) . . .
185(7) . . .
170(7) . . .
170(7) . . .
174(7) . . .
177(7) . . .
164(7) . . .
175(7) . . .
179(7) . . .
175(7) . . .
171(7) . . .
175(7) . . .
199(7) . . .
174(7) . . .
168(7) . . .
171(7) . . .
165(7) . . .
169(7) . . .
187(7) . . .
168(7) . . .
171(7) . . .
169(7) . . .
176(7) . . .
177(7) . . .
164(7) . . .
164(7) . . .
167(7) . . .
146(7) . . .
160(7) . . .
161(7) . . .
180(7) . . .
150(6) . . .
175(7) . . .
174(7) . . .
173(7) . . .
177(7) . . .
179(7) . . .
183(7) . . .
164(7) . . .
169(7) . . .
167(7) . . .
162(7) . . .
187(7) . . .
157(7) . . .
175(7) . . .
162(7) . . .
177(7) . . .
187(7) . . .
172(7) . . .
163(7) . . .
170(7) . . .
162(7) . . .
174(7) . . .
188(8) . . .
191(7) . . .
195(7) . . .
185(7) . . .
177(7) . . .
185(8) . . .
173(7) . . .
171(7) . . .
162(7) . . .
171(7) . . .
177(7) . . .
182(7) . . .
179(7) . . .
164(7) . . .
180(7) . . .
160(7) . . .
158(7) . . .
178(7) . . .
178(7) . . .
172(7) . . .
165(7) . . .
173(7) . . .
181(7) . . .
159(7) . . .
165(7) . . .
159(7) . . .
176(7) . . .
161(7) . . .
166(7) . . .
156(7) . . .
156(7) . . .
165(7) . . .
196(7) . . .
172(7) . . .
156(7) . . .
176(7) . . .
187(7) . . .
175(7) . . .
168(7) . . .
167(7) . . .
153(7) . . .
157(6) . . .
149(6) . . .
185(7) . . .
180(8) . . .
171(7) . . .
173(7) . . .
181(7) . . .
168(7) . . .
191(8) . . .
166(7) . . .
184(7) . . .
176(7) . . .
170(7) . . .
185(7) . . .
173(7) . . .
169(7) . . .
165(7) . . .
168(7) . . .
170(7) . . .
156(7) . . .
167(7) . . .
174(7) . . .
176(7) . . .
168(7) . . .
172(7) . . .
186(7) . . .
176(7) . . .
167(7) . . .
179(7) . . .
176(7) . . .
172(7) . . .
173(7) . . .
173(7) . . .
172(7) . . .
170(7) . . .
183(7) . . .
186(7) . . .
161(7) . . .
159(7) . . .
172(7) . . .
167(7) . . .
161(7) . . .
177(7) . . .
186(7) . . .
156(7) . . .
164(7) . . .
154(7) . . .
159(7) . . .
154(7) . . .
173(7) . . .
174(7) . . .
171(7) . . .
182(8) . . .
169(7) . . .
162(7) . . .
163(7) . . .
165(7) . . .
171(7) . . .
163(7) . . .
180(7) . . .
164(7) . . .
174(7) . . .
160(7) . . .
186(7) . . .
159(7) . . .
171(7) . . .
166(7) . . .
170(7) . . .
154(6) . . .
166(7) . . .
148(6) . . .
148(6) . . .
159(7) . . .
178(7) . . .
161(7) . . .
164(7) . . .
182(8) . . .
182(7) . . .
171(7) . . .
160(7) . . .
190(7) . . .
185(7) . . .
172(7) . . .
178(7) . . .
159(7) . . .
159(7) . . .
174(7) . . .
166(7) . . .
159(7) . . .
170(7) . . .
169(7) . . .
179(7) . . .
161(7) . . .
146(6) . . .
161(7) . . .
162(7) . . .
154(7) . . .
167(7) . . .
153(6) . . .
149(6) . . .
142(6) . . .
183(8) . . .
186(7) . . .
163(7) . . .
167(7) . . .
166(7) . . .
159(7) . . .
162(7) . . .
174(7) . . .
155(7) . . .
166(7) . . .
176(8) . . .
148(6) . . .
183(7) . . .
186(7) . . .
165(7) . . .
152(7) . . .
191(8) . . .
183(7) . . .
160(7) . . .
155(7) . . .
145(7) . . .
180(7) . . .
160(7) . . .
172(7) . . .
172(7) . . .
161(7) . . .
157(7) . . .
177(7) . . .
176(7) . . .
167(7) . . .
159(7) . . .
169(7) . . .
182(7) . . .
173(7) . . .
181(7) . . .
168(7) . . .
163(7) . . .
158(7) . . .
164(7) . . .
171(7) . . .
174(7) . . .
148(6) . . .
162(7) . . .
177(7) . . .
186(7) . . .
160(7) . . .
178(7) . . .
174(7) . . .
155(7) . . .
169(7) . . .
173(7) . . .
157(6) . . .
179(7) . . .
148(7) . . .
170(7) . . .
174(7) . . .
177(7) . . .
167(7) . . .
185(7) . . .
167(7) . . .
189(7) . . .
159(7) . . .
164(7) . . .
166(7) . . .
176(7) . . .
152(6) . . .
173(7) . . .
173(7) . . .
162(7) . . .
177(7) . . .
166(7) . . .
169(7) . . .
175(7) . . .
152(7) . . .
173(7) . . .
183(7) . . .
171(7) . . .
168(7) . . .
181(7) . . .
179(7) . . .
159(7) . . .
170(7) . . .
157(7) . . .
164(7) . . .
151(6) . . .
181(7) . . .
179(7) . . .
172(7) . . .
170(7) . . .
173(7) . . .
182(7) . . .
184(7) . . .
172(7) . . .
164(7) . . .
163(7) . . .
175(7) . . .
167(7) . . .
186(7) . . .
177(7) . . .
163(7) . . .
171(7) . . .
173(7) . . .
169(7) . . .
173(7) . . .
168(7) . . .
175(7) . . .
166(7) . . .
152(7) . . .
175(7) . . .
169(7) . . .
144(6) . . .
163(7) . . .
179(7) . . .
166(7) . . .
152(7) . . .
155(6) . . .
156(6) . . .
155(7) . . .
157(7) . . .
160(7) . . .
159(7) . . .
177(7) . . .
178(7) . . .
164(7) . . .
187(7) . . .
174(7) . . .
188(7) . . .
180(7) . . .
171(7) . . .
160(7) . . .
158(7) . . .
156(7) . . .
170(7) . . .
171(7) . . .
181(7) . . .
153(6) . . .
179(7) . . .
162(7) . . .
162(7) . . .
160(7) . . .
161(7) . . .
174(7) . . .
166(7) . . .
178(7) . . .
188(7) . . .
168(7) . . .
172(7) . . .
192(8) . . .
185(7) . . .
170(7) . . .
161(7) . . .
161(7) . . .
169(7) . . .
170(7) . . .
160(7) . . .
177(7) . . .
174(7) . . .
184(8) . . .
147(6) . . .
153(6) . . .
172(7) . . .
170(7) . . .
173(7) . . .
179(7) . . .
165(7) . . .
181(7) . . .
165(7) . . .
167(7) . . .
153(7) . . .
164(7) . . .
162(7) . . .
157(7) . . .
168(7) . . .
160(7) . . .
168(7) . . .
179(7) . . .
181(8) . . .
157(7) . . .
158(7) . . .
171(7) . . .
157(7) . . .
180(7) . . .
175(7) . . .
168(7) . . .
174(7) . . .
159(7) . . .
144(6) . . .
164(7) . . .
170(7) . . .
174(7) . . .
158(7) . . .
169(7) . . .
173(7) . . .
180(7) . . .
173(7) . . .
160(7) . . .
174(7) . . .
175(7) . . .
184(7) . . .
168(7) . . .
165(7) . . .
172(8) . . .
160(7) . . .
166(7) . . .
170(7) . . .
160(7) . . .
162(7) . . .
190(7) . . .
179(7) . . .
170(7) . . .
194(7) . . .
171(7) . . .
180(7) . . .
179(7) . . .
168(7) . . .
164(7) . . .
160(7) . . .
179(7) . . .
168(7) . . .
172(7) . . .
171(7) . . .
173(7) . . .
181(7) . . .
176(7) . . .
167(7) . . .
169(7) . . .
150(7) . . .
181(7) . . .
178(7) . . .
178(7) . . .
163(7) . . .
164(7) . . .
166(7) . . .
172(7) . . .
152(7) . . .
176(7) . . .
167(7) . . .
169(7) . . .
189(7) . . .
175(7) . . .
165(7) . . .
150(7) . . .
163(7) . . .
168(7) . . .
161(7) . . .
167(7) . . .
145(6) . . .
160(7) . . .
171(7) . . .
188(7) . . .
165(7) . . .
166(7) . . .
165(7) . . .
181(7) . . .
166(7) . . .
161(7) . . .
171(7) . . .
139(6) . . .
162(7) . . .
162(7) . . .
170(7) . . .
174(7) . . .
175(7) . . .
145(6) . . .
158(7) . . .
165(7) . . .
188(7) . . .
175(7) . . .
162(7) . . .
172(7) . . .
178(8) . . .
156(7) . . .
169(7) . . .
148(6) . . .
164(7) . . .
164(7) . . .
149(7) . . .
146(6) . . .
154(7) . . .
165(7) . . .
165(7) . . .
160(7) . . .
166(7) . . .
131(6) . . .
153(7) . . .
147(6) . . .
174(7) . . .
151(6) . . .
173(7) . . .
164(7) . . .
170(7) . . .
148(6) . . .
142(6) . . .
180(7) . . .
171(7) . . .
174(7) . . .
170(7) . . .
175(7) . . .
162(7) . . .
165(7) . . .
157(7) . . .
175(7) . . .
165(7) . . .
164(7) . . .
167(7) . . .
178(7) . . .
169(7) . . .
166(7) . . .
169(7) . . .
146(7) . . .
147(7) . . .
166(7) . . .
149(6) . . .
162(7) . . .
165(7) . . .
171(7) . . .
171(7) . . .
184(7) . . .
171(7) . . .
170(7) . . .
160(7) . . .
169(7) . . .
155(7) . . .
162(7) . . .
178(7) . . .
169(7) . . .
169(7) . . .
181(7) . . .
154(6) . . .
181(7) . . .
158(7) . . .
162(7) . . .
178(7) . . .
166(7) . . .
157(7) . . .
164(7) . . .
173(7) . . .
152(7) . . .
170(7) . . .
174(7) . . .
155(7) . . .
145(6) . . .
176(7) . . .
191(8) . . .
163(7) . . .
177(7) . . .
153(6) . . .
158(7) . . .
166(7) . . .
167(7) . . .
161(7) . . .
154(6) . . .
161(7) . . .
175(7) . . .
182(7) . . .
174(7) . . .
172(7) . . .
173(7) . . .
160(7) . . .
172(7) . . .
164(7) . . .
170(7) . . .
162(7) . . .
143(7) . . .
149(7) . . .
165(7) . . .
160(7) . . .
132(6) . . .
163(7) . . .
161(7) . . .
166(7) . . .
177(7) . . .
169(7) . . .
146(6) . . .
165(7) . . .
180(7) . . .
176(7) . . .
167(7) . . .
176(7) . . .
173(7) . . .
171(7) . . .
169(7) . . .
152(7) . . .
141(6) . . .
157(7) . . .
160(7) . . .
159(7) . . .
154(7) . . .
136(6) . . .
177(7) . . .
186(7) . . .
154(6) . . .
152(7) . . .
167(7) . . .
172(7) . . .
178(7) . . .
168(7) . . .
172(7) . . .
161(7) . . .
150(6) . . .
157(7) . . .
160(7) . . .
169(7) . . .
159(7) . . .
182(7) . . .
147(6) . . .
154(7) . . .
153(7) . . .
196(8) . . .
175(7) . . .
161(7) . . .
161(7) . . .
159(7) . . .
153(7) . . .
182(7) . . .
156(6) . . .
164(7) . . .
169(7) . . .
164(7) . . .
164(7) . . .
167(7) . . .
154(7) . . .
169(7) . . .
158(7) . . .
156(6) . . .
158(7) . . .
169(7) . . .
154(7) . . .
156(7) . . .
156(6) . . .
175(7) . . .
194(8) . . .
176(7) . . .
166(7) . . .
158(7) . . .
161(7) . . .
157(7) . . .
142(6) . . .
147(6) . . .
153(6) . . .
159(7) . . .
156(7) . . .
156(7) . . .
168(7) . . .
175(7) . . .
161(7) . . .
159(7) . . .
155(7) . . .
161(7) . . .
152(6) . . .
144(6) . . .
184(8) . . .
169(7) . . .
153(6) . . .
175(7) . . .
159(7) . . .
155(7) . . .
163(7) . . .
177(7) . . .
143(6) . . .
159(7) . . .
138(7) . . .
163(7) . . .
155(6) . . .
152(6) . . .
163(7) . . .
155(7) . . .
151(7) . . .
166(7) . . .
169(7) . . .
164(7) . . .
177(7) . . .
146(6) . . .
153(6) . . .
158(7) . . .
166(7) . . .
158(7) . . .
165(7) . . .
172(7) . . .
173(7) . . .
176(7) . . .
166(7) . . .
149(7) . . .
147(6) . . .
160(7) . . .
162(7) . . .
164(7) . . .
174(7) . . .
162(7) . . .
175(7) . . .
158(7) . . .
160(7) . . .
158(7) . . .
162(7) . . .
178(7) . . .
147(6) . . .
165(7) . . .
152(6) . . .
145(6) . . .
161(7) . . .
165(7) . . .
160(7) . . .
173(7) . . .
165(7) . . .
156(7) . . .
171(7) . . .
157(7) . . .
155(6) . . .
164(7) . . .
169(7) . . .
172(7) . . .
172(7) . . .
167(7) . . .
148(6) . . .
162(7) . . .
154(7) . . .
161(7) . . .
158(7) . . .
146(6) . . .
156(7) . . .
163(7) . . .
153(7) . . .
160(7) . . .
154(7) . . .
176(7) . . .
151(7) . . .
147(7) . . .
143(6) . . .
158(7) . . .
169(7) . . .
161(7) . . .
159(7) . . .
176(7) . . .
178(7) . . .
154(7) . . .
147(7) . . .
147(6) . . .
147(6) . . .
171(7) . . .
146(6) . . .
160(7) . . .
165(7) . . .
140(6) . . .
151(7) . . .
151(7) . . .
173(7) . . .
146(6) . . .
148(6) . . .
169(7) . . .
158(7) . . .
152(7) . . .
151(6) . . .
174(7) . . .
160(7) . . .
147(7) . . .
159(7) . . .
147(6) . . .
155(6) . . .
152(7) . . .
168(7) . . .
174(7) . . .
170(7) . . .
168(7) . . .
160(7) . . .
160(7) . . .
167(7) . . .
170(7) . . .
167(7) . . .
159(7) . . .
160(7) . . .
152(7) . . .
166(7) . . .
167(7) . . .
150(6) . . .
149(7) . . .
157(7) . . .
157(7) . . .
152(6) . . .
160(7) . . .
153(7) . . .
150(6) . . .
175(7) . . .
156(7) . . .
161(7) . . .
150(7) . . .
156(7) . . .
183(7) . . .
162(7) . . .
157(7) . . .
159(7) . . .
154(7) . . .
169(7) . . .
178(7) . . .
165(7) . . .
159(7) . . .
173(7) . . .
159(7) . . .
156(7) . . .
172(7) . . .
157(7) . . .
155(7) . . .
163(7) . . .
148(6) . . .
144(6) . . .
162(7) . . .
156(7) . . .
139(6) . . .
159(7) . . .
154(7) . . .
164(7) . . .
160(7) . . .
162(7) . . .
163(7) . . .
151(7) . . .
170(7) . . .
164(7) . . .
154(6) . . .
153(7) . . .
164(7) . . .
151(6) . . .
163(7) . . .
162(7) . . .
149(6) . . .
170(7) . . .
168(7) . . .
167(7) . . .
143(6) . . .
160(7) . . .
168(7) . . .
163(7) . . .
160(7) . . .
148(6) . . .
161(7) . . .
165(7) . . .
156(7) . . .
157(6) . . .
174(7) . . .
157(7) . . .
148(7) . . .
163(7) . . .
155(6) . . .
158(7) . . .
150(7) . . .
155(7) . . .
154(7) . . .
159(7) . . .
150(7) . . .
169(7) . . .
149(7) . . .
149(6) . . .
165(7) . . .
162(7) . . .
153(7) . . .
165(7) . . .
144(6) . . .
140(6) . . .
164(7) . . .
160(7) . . .
168(7) . . .
148(6) . . .
151(6) . . .
159(7) . . .
161(7) . . .
166(7) . . .
166(7) . . .
157(7) . . .
174(7) . . .
160(7) . . .
167(7) . . .
187(7) . . .
146(6) . . .
160(7) . . .
172(7) . . .
170(7) . . .
167(7) . . .
161(7) . . .
148(7) . . .
155(7) . . .
142(7) . . .
153(6) . . .
154(7) . . .
147(7) . . .
159(7) . . .
157(7) . . .
166(7) . . .
180(7) . . .
130(6) . . .
147(7) . . .
155(6) . . .
148(6) . . .
149(7) . . .
163(7) . . .
157(7) . . .
150(6) . . .
167(7) . . .
170(7) . . .
151(7) . . .
155(7) . . .
159(7) . . .
159(7) . . .
167(7) . . .
167(7) . . .
183(7) . . .
152(6) . . .
157(7) . . .
154(7) . . .
162(7) . . .
161(7) . . .
156(7) . . .
146(6) . . .
143(6) . . .
156(7) . . .
157(7) . . .
146(6) . . .
165(7) . . .
170(7) . . .
174(7) . . .
150(7) . . .
162(7) . . .
154(7) . . .
171(7) . . .
167(7) . . .
171(7) . . .
151(6) . . .
141(6) . . .
152(7) . . .
163(7) . . .
146(6) . . .
159(7) . . .
155(7) . . .
186(7) . . .
174(7) . . .
170(7) . . .
172(7) . . .
164(7) . . .
174(7) . . .
159(7) . . .
167(7) . . .
152(6) . . .
146(7) . . .
154(7) . . .
168(7) . . .
169(7) . . .
174(7) . . .
174(7) . . .
162(7) . . .
162(7) . . .
164(7) . . .
156(7) . . .
152(7) . . .
170(7) . . .
154(7) . . .
149(6) . . .
173(7) . . .
157(7) . . .
161(7) . . .
174(7) . . .
164(7) . . .
163(7) . . .
162(7) . . .
148(7) . . .
148(6) . . .
170(7) . . .
160(7) . . .
165(7) . . .
180(7) . . .
156(7) . . .
156(7) . . .
168(7) . . .
163(7) . . .
157(7) . . .
170(7) . . .
185(7) . . .
161(7) . . .
165(7) . . .
176(7) . . .
163(7) . . .
155(6) . . .
157(7) . . .
160(7) . . .
166(7) . . .
164(7) . . .
178(7) . . .
145(6) . . .
157(7) . . .
172(7) . . .
161(7) . . .
177(7) . . .
168(7) . . .
166(7) . . .
150(7) . . .
145(6) . . .
152(6) . . .
159(7) . . .
156(7) . . .
156(7) . . .
156(6) . . .
154(6) . . .
160(7) . . .
162(7) . . .
171(7) . . .
174(7) . . .
155(7) . . .
149(6) . . .
172(7) . . .
153(7) . . .
148(6) . . .
152(6) . . .
141(6) . . .
157(7) . . .
155(7) . . .
154(6) . . .
143(6) . . .
146(6) . . .
132(6) . . .
140(6) . . .
144(6) . . .
165(7) . . .
151(7) . . .
163(7) . . .
160(7) . . .
142(6) . . .
179(7) . . .
171(7) . . .
157(7) . . .
153(7) . . .
148(6) . . .
170(7) . . .
149(7) . . .
163(7) . . .
170(7) . . .
167(7) . . .
157(7) . . .
167(7) . . .
170(7) . . .
146(6) . . .
152(6) . . .
151(7) . . .
146(7) . . .
175(7) . . .
171(7) . . .
155(6) . . .
157(7) . . .
147(7) . . .
155(7) . . .
151(6) . . .
147(6) . . .
150(7) . . .
149(7) . . .
160(7) . . .
166(7) . . .
146(6) . . .
165(7) . . .
167(7) . . .
147(6) . . .
166(7) . . .
161(7) . . .
159(7) . . .
155(7) . . .
152(6) . . .
168(7) . . .
156(7) . . .
154(7) . . .
145(7) . . .
135(6) . . .
157(7) . . .
154(6) . . .
165(7) . . .
160(7) . . .
157(7) . . .
156(6) . . .
175(7) . . .
167(7) . . .
169(7) . . .
156(7) . . .
170(7) . . .
161(7) . . .
152(7) . . .
154(7) . . .
170(7) . . .
151(6) . . .
151(6) . . .
161(7) . . .
156(7) . . .
199(8) . . .
162(7) . . .
143(6) . . .
168(7) . . .
158(7) . . .
166(7) . . .
151(6) . . .
154(7) . . .
158(7) . . .
170(7) . . .
152(6) . . .
136(6) . . .
158(7) . . .
162(7) . . .
157(7) . . .
162(7) . . .
159(7) . . .
157(7) . . .
158(7) . . .
173(7) . . .
164(7) . . .
149(6) . . .
156(7) . . .
151(7) . . .
164(7) . . .
158(7) . . .
161(7) . . .
170(7) . . .
166(7) . . .
136(6) . . .
137(6) . . .
151(6) . . .
140(6) . . .
142(7) . . .
145(7) . . .
135(6) . . .
149(6) . . .
144(7) . . .
154(7) . . .
151(7) . . .
161(7) . . .
179(7) . . .
160(7) . . .
158(7) . . .
172(7) . . .
184(7) . . .
159(7) . . .
153(6) . . .
160(7) . . .
146(6) . . .
173(7) . . .
156(7) . . .
162(7) . . .
167(7) . . .
147(6) . . .
166(7) . . .
168(7) . . .
156(7) . . .
156(7) . . .
157(7) . . .
172(7) . . .
162(7) . . .
168(7) . . .
161(7) . . .
165(7) . . .
157(7) . . .
161(7) . . .
156(7) . . .
154(7) . . .
150(6) . . .
154(6) . . .
164(7) . . .
180(7) . . .
166(7) . . .
145(6) . . .
138(6) . . .
164(7) . . .
146(7) . . .
164(7) . . .
190(7) . . .
162(7) . . .
147(6) . . .
158(7) . . .
151(7) . . .
159(7) . . .
158(7) . . .
167(7) . . .
156(7) . . .
154(7) . . .
135(6) . . .
158(7) . . .
166(7) . . .
147(7) . . .
154(7) . . .
155(6) . . .
157(7) . . .
155(7) . . .
159(7) . . .
148(6) . . .
149(6) . . .
139(6) . . .
164(7) . . .
149(6) . . .
159(7) . . .
144(6) . . .
134(6) . . .
156(7) . . .
168(7) . . .
161(7) . . .
164(7) . . .
147(6) . . .
158(7) . . .
158(7) . . .
158(7) . . .
151(6) . . .
161(7) . . .
157(7) . . .
143(6) . . .
151(7) . . .
165(7) . . .
165(7) . . .
139(7) . . .
160(7) . . .
155(6) . . .
154(6) . . .
167(7) . . .
149(7) . . .
160(7) . . .
161(7) . . .
139(6) . . .
154(7) . . .
144(7) . . .
148(7) . . .
151(6) . . .
163(7) . . .
147(6) . . .
159(7) . . .
155(7) . . .
135(6) . . .
145(6) . . .
149(7) . . .
155(7) . . .
144(7) . . .
138(6) . . .
156(6) . . .
148(6) . . .
159(7) . . .
157(7) . . .
161(7) . . .
151(7) . . .
146(7) . . .
155(7) . . .
155(7) . . .
160(7) . . .
159(7) . . .
163(7) . . .
164(7) . . .
150(6) . . .
151(6) . . .
161(7) . . .
162(7) . . .
152(7) . . .
150(6) . . .
159(7) . . .
160(7) . . .
161(7) . . .
155(7) . . .
161(7) . . .
157(7) . . .
161(7) . . .
163(7) . . .
134(6) . . .
146(6) . . .
156(7) . . .
142(6) . . .
141(7) . . .
158(7) . . .
148(6) . . .
168(7) . . .
156(7) . . .
159(7) . . .
150(6) . . .
150(6) . . .
146(6) . . .
156(7) . . .
159(7) . . .
161(7) . . .
155(6) . . .
156(7) . . .
170(7) . . .
144(7) . . .
141(6) . . .
149(6) . . .
166(7) . . .
149(7) . . .
148(7) . . .
171(7) . . .
150(6) . . .
152(6) . . .
157(7) . . .
161(7) . . .
163(7) . . .
166(7) . . .
141(6) . . .
157(7) . . .
152(7) . . .
152(6) . . .
146(6) . . .
144(6) . . .
150(7) . . .
169(7) . . .
153(6) . . .
155(6) . . .
157(7) . . .
144(7) . . .
153(7) . . .
152(6) . . .
144(6) . . .
141(6) . . .
161(7) . . .
156(7) . . .
161(7) . . .
142(6) . . .
152(7) . . .
157(7) . . .
159(7) . . .
158(6) . . .
148(6) . . .
161(7) . . .
158(7) . . .
143(6) . . .
141(6) . . .
151(7) . . .
148(7) . . .
149(7) . . .
146(6) . . .
160(7) . . .
123(6) . . .
139(6) . . .
155(7) . . .
149(7) . . .
155(6) . . .
151(6) . . .
148(7) . . .
153(7) . . .
140(6) . . .
159(7) . . .
156(7) . . .
157(7) . . .
135(6) . . .
149(7) . . .
163(7) . . .
156(7) . . .
159(7) . . .
137(6) . . .
144(6) . . .
154(6) . . .
148(6) . . .
156(7) . . .
134(6) . . .
160(7) . . .
153(6) . . .
149(7) . . .
140(6) . . .
168(7) . . .
142(6) . . .
156(6) . . .
151(7) . . .
165(7) . . .
163(7) . . .
154(6) . . .
154(6) . . .
156(7) . . .
149(7) . . .
157(7) . . .
162(7) . . .
149(6) . . .
141(6) . . .
154(7) . . .
153(7) . . .
154(6) . . .
139(6) . . .
151(7) . . .
140(6) . . .
161(7) . . .
156(7) . . .
148(6) . . .
157(7) . . .
136(6) . . .
153(7) . . .
153(6) . . .
150(6) . . .
146(7) . . .
137(7) . . .
140(6) . . .
145(6) . . .
131(6) . . .
142(6) . . .
158(7) . . .
133(6) . . .
152(6) . . .
146(6) . . .
145(7) . . .
128(6) . . .
136(6) . . .
155(6) . . .
151(7) . . .
144(7) . . .
152(7) . . .
147(6) . . .
139(6) . . .
146(7) . . .
158(7) . . .
161(7) . . .
133(6) . . .
157(7) . . .
148(7) . . .
155(7) . . .
144(7) . . .
156(6) . . .
165(7) . . .
142(6) . . .
141(7) . . .
146(7) . . .
149(6) . . .
156(6) . . .
152(6) . . .
148(7) . . .
134(6) . . .
155(6) . . .
151(6) . . .
162(7) . . .
151(7) . . .
138(6) . . .
159(7) . . .
165(7) . . .
143(6) . . .
146(7) . . .
137(6) . . .
165(7) . . .
150(6) . . .
133(6) . . .
161(7) . . .
145(6) . . .
156(7) . . .
154(7) . . .
160(7) . . .
143(6) . . .
146(6) . . .
168(7) . . .
140(6) . . .
143(6) . . .
155(7) . . .
157(7) . . .
156(6) . . .
151(7) . . .
152(7) . . .
148(7) . . .
169(7) . . .
145(6) . . .
147(6) . . .
156(7) . . .
151(7) . . .
148(6) . . .
142(6) . . .
138(6) . . .
158(7) . . .
155(7) . . .
144(6) . . .
155(6) . . .
151(6) . . .
135(6) . . .
142(6) . . .
142(6) . . .
151(7) . . .
158(7) . . .
154(7) . . .
158(7) . . .
146(6) . . .
155(6) . . .
152(6) . . .
150(7) . . .
137(6) . . .
139(6) . . .
153(7) . . .
167(7) . . .
158(7) . . .
165(7) . . .
166(7) . . .
160(7) . . .
147(6) . . .
136(6) . . .
165(7) . . .
159(7) . . .
142(6) . . .
147(6) . . .
171(7) . . .
173(7) . . .
159(7) . . .
146(6) . . .
154(7) . . .
157(7) . . .
156(7) . . .
152(6) . . .
169(7) . . .
170(7) . . .
148(7) . . .
151(7) . . .
171(7) . . .
157(7) . . .
142(7) . . .
147(6) . . .
178(7) . . .
146(6) . . .
153(7) . . .
154(7) . . .
148(7) . . .
158(7) . . .
150(6) . . .
159(7) . . .
168(7) . . .
159(7) . . .
162(7) . . .
163(7) . . .
141(6) . . .
147(7) . . .
143(6) . . .
176(7) . . .
144(6) . . .
162(7) . . .
154(7) . . .
154(7) . . .
152(6) . . .
135(6) . . .
140(6) . . .
141(7) . . .
158(7) . . .
156(6) . . .
157(7) . . .
158(7) . . .
166(7) . . .
159(7) . . .
137(6) . . .
157(7) . . .
159(7) . . .
160(7) . . .
141(6) . . .
153(6) . . .
157(7) . . .
157(7) . . .
161(7) . . .
166(7) . . .
155(6) . . .
148(6) . . .
162(7) . . .
144(6) . . .
144(7) . . .
135(6) . . .
151(7) . . .
156(7) . . .
155(7) . . .
164(7) . . .
163(7) . . .
141(6) . . .
158(7) . . .
154(7) . . .
151(7) . . .
147(6) . . .
148(7) . . .
147(7) . . .
162(7) . . .
159(7) . . .
133(6) . . .
156(7) . . .
142(7) . . .
168(7) . . .
175(7) . . .
139(6) . . .
163(7) . . .
153(7) . . .
158(7) . . .
154(6) . . .
148(6) . . .
155(7) . . .
155(7) . . .
136(6) . . .
161(7) . . .
151(6) . . .
140(6) . . .
161(7) . . .
149(7) . . .
151(7) . . .
135(6) . . .
133(6) . . .
131(6) . . .
155(7) . . .
166(7) . . .
138(6) . . .
156(7) . . .
158(7) . . .
146(6) . . .
132(6) . . .
147(6) . . .
141(6) . . .
160(7) . . .
152(7) . . .
156(7) . . .
158(7) . . .
133(6) . . .
160(7) . . .
162(7) . . .
153(6) . . .
148(7) . . .
148(7) . . .
153(7) . . .
160(7) . . .
165(7) . . .
165(7) . . .
168(7) . . .
145(7) . . .
141(6) . . .
144(6) . . .
132(6) . . .
130(6) . . .
154(7) . . .
157(7) . . .
160(7) . . .
162(7) . . .
149(7) . . .
145(6) . . .
148(6) . . .
143(6) . . .
162(7) . . .
132(6) . . .
144(6) . . .
150(6) . . .
157(7) . . .
151(7) . . .
146(7) . . .
147(7) . . .
143(6) . . .
158(7) . . .
167(7) . . .
159(7) . . .
154(7) . . .
166(7) . . .
153(6) . . .
151(7) . . .
144(6) . . .
156(7) . . .
161(7) . . .
171(7) . . .
155(7) . . .
154(7) . . .
165(7) . . .
146(6) . . .
147(7) . . .
145(7) . . .
144(6) . . .
150(6) . . .
166(7) . . .
165(7) . . .
156(7) . . .
156(7) . . .
124(6) . . .
161(7) . . .
161(7) . . .
148(7) . . .
149(7) . . .
159(7) . . .
142(6) . . .
159(7) . . .
164(7) . . .
155(7) . . .
151(6) . . .
150(6) . . .
163(7) . . .
142(7) . . .
155(7) . . .
158(7) . . .
155(6) . . .
155(7) . . .
160(7) . . .
158(7) . . .
143(6) . . .
170(7) . . .
162(7) . . .
143(7) . . .
160(7) . . .
172(7) . . .
153(7) . . .
145(7) . . .
142(6) . . .
145(6) . . .
157(6) . . .
158(7) . . .
139(6) . . .
162(7) . . .
129(6) . . .
146(6) . . .
148(6) . . .
144(7) . . .
154(7) . . .
163(7) . . .
161(7) . . .
175(7) . . .
167(7) . . .
166(7) . . .
152(7) . . .
142(6) . . .
148(6) . . .
168(7) . . .
148(6) . . .
142(6) . . .
148(6) . . .
156(7) . . .
167(7) . . .
151(7) . . .
169(7) . . .
148(6) . . .
135(6) . . .
148(7) . . .
147(7) . . .
162(7) . . .
146(6) . . .
139(6) . . .
160(7) . . .
157(7) . . .
162(7) . . .
158(7) . . .
178(7) . . .
164(7) . . .
149(6) . . .
150(6) . . .
148(6) . . .
138(6) . . .
154(7) . . .
149(7) . . .
152(6) . . .
139(6) . . .
147(7) . . .
169(7) . . .
149(7) . . .
140(6) . . .
150(6) . . .
144(6) . . .
126(6) . . .
151(7) . . .
146(6) . . .
158(7) . . .
144(7) . . .
150(7) . . .
154(7) . . .
138(6) . . .
164(7) . . .
131(6) . . .
154(7) . . .
142(6) . . .
132(6) . . .
147(6) . . .
133(6) . . .
142(6) . . .
153(7) . . .
156(6) . . .
149(7) . . .
141(7) . . .
147(6) . . .
157(7) . . .
152(6) . . .
133(6) . . .
160(7) . . .
147(6) . . .
144(6) . . .
136(6) . . .
129(6) . . .
151(7) . . .
138(6) . . .
138(6) . . .
144(6) . . .
157(7) . . .
163(7) . . .
164(7) . . .
153(6) . . .
143(6) . . .
158(7) . . .
130(6) . . .
143(6) . . .
144(6) . . .
133(6) . . .
142(6) . . .
149(7) . . .
166(7) . . .
155(6) . . .
153(6) . . .
159(7) . . .
161(7) . . .
144(7) . . .
141(6) . . .
154(7) . . .
174(7) . . .
133(6) . . .
132(6) . . .
146(6) . . .
139(6) . . .
133(6) . . .
155(7) . . .
148(6) . . .
154(6) . . .
150(7) . . .
134(6) . . .
150(7) . . .
138(6) . . .
146(6) . . .
145(6) . . .
153(7) . . .
160(7) . . .
140(6) . . .
142(6) . . .
137(6) . . .
148(7) . . .
139(6) . . .
145(6) . . .
141(6) . . .
140(6) . . .
137(7) . . .
137(7) . . .
141(6) . . .
160(7) . . .
162(7) . . .
130(6) . . .
135(6) . . .
135(6) . . .
138(6) . . .
137(6) . . .
147(7) . . .
144(7) . . .
142(6) . . .
149(6) . . .
143(6) . . .
148(7) . . .
128(6) . . .
141(6) . . .
141(6) . . .
142(7) . . .
149(7) . . .
135(6) . . .
137(6) . . .
157(7) . . .
133(6) . . .
154(7) . . .
130(6) . . .
139(6) . . .
117(6) . . .
140(6) . . .
145(6) . . .
142(6) . . .
143(6) . . .
158(7) . . .
149(7) . . .
161(7) . . .
138(6) . . .
128(6) . . .
138(6) . . .
135(6) . . .
134(6) . . .
140(6) . . .
150(6) . . .
152(7) . . .
131(6) . . .
135(6) . . .
136(6) . . .
139(6) . . .
143(7) . . .
140(7) . . .
141(6) . . .
140(6) . . .
152(6) . . .
156(7) . . .
152(7) . . .
127(6) . . .
143(6) . . .
142(6) . . .
152(7) . . .
141(7) . . .
142(6) . . .
130(6) . . .
146(6) . . .
127(6) . . .
141(7) . . .
136(6) . . .
132(6) . . .
132(6) . . .
143(7) . . .
137(6) . . .
135(6) . . .
154(6) . . .
142(6) . . .
158(7) . . .
157(7) . . .
134(6) . . .
142(6) . . .
140(6) . . .
131(6) . . .
148(7) . . .
151(7) . . .
136(6) . . .
149(7) . . .
141(7) . . .
140(7) . . .
140(6) . . .
145(6) . . .
147(6) . . .
119(6) . . .
133(6) . . .
141(6) . . .
141(6) . . .
146(6) . . .
148(7) . . .
148(7) . . .
143(6) . . .
143(6) . . .
148(7) . . .
144(7) . . .
132(6) . . .
150(6) . . .
132(6) . . .
143(7) . . .
145(7) . . .
141(6) . . .
121(6) . . .
132(6) . . .
143(6) . . .
128(6) . . .
154(7) . . .
140(6) . . .
143(6) . . .
157(7) . . .
134(6) . . .
139(6) . . .
146(6) . . .
119(6) . . .
126(6) . . .
151(7) . . .
142(6) . . .
146(6) . . .
138(6) . . .
141(6) . . .
138(6) . . .
134(6) . . .
147(6) . . .
147(6) . . .
120(6) . . .
134(6) . . .
153(7) . . .
144(6) . . .
140(6) . . .
145(7) . . .
154(7) . . .
138(6) . . .
127(6) . . .
147(7) . . .
141(6) . . .
140(6) . . .
149(6) . . .
142(6) . . .
134(6) . . .
152(7) . . .
137(6) . . .
130(6) . . .
123(6) . . .
123(6) . . .
140(6) . . .
146(7) . . .
151(7) . . .
132(6) . . .
145(7) . . .
143(7) . . .
144(6) . . .
117(6) . . .
126(6) . . .
135(6) . . .
137(7) . . .
146(7) . . .
138(6) . . .
136(6) . . .
133(6) . . .
152(7) . . .
123(6) . . .
139(6) . . .
131(6) . . .
134(6) . . .
148(7) . . .
140(6) . . .
133(6) . . .
155(6) . . .
139(6) . . .
150(7) . . .
148(6) . . .
142(6) . . .
139(6) . . .
139(6) . . .
147(7) . . .
138(6) . . .
148(6) . . .
148(6) . . .
142(6) . . .
127(6) . . .
135(6) . . .
140(6) . . .
136(6) . . .
141(6) . . .
133(6) . . .
133(6) . . .
140(6) . . .
137(6) . . .
139(7) . . .
134(6) . . .
151(6) . . .
130(6) . . .
146(6) . . .
153(7) . . .
147(7) . . .
119(6) . . .
133(6) . . .
142(6) . . .
148(7) . . .
128(6) . . .
157(7) . . .
143(6) . . .
135(6) . . .
128(6) . . .
140(6) . . .
138(6) . . .
153(6) . . .
146(6) . . .
155(7) . . .
148(6) . . .
140(6) . . .
157(7) . . .
148(7) . . .
150(7) . . .
158(7) . . .
151(6) . . .
150(6) . . .
139(6) . . .
136(6) . . .
133(6) . . .
150(6) . . .
133(6) . . .
157(7) . . .
126(6) . . .
128(6) . . .
134(6) . . .
155(7) . . .
149(6) . . .
133(6) . . .
151(7) . . .
134(6) . . .
132(6) . . .
146(6) . . .
136(6) . . .
132(6) . . .
109(5) . . .
137(6) . . .
147(7) . . .
148(7) . . .
124(6) . . .
130(6) . . .
157(7) . . .
130(6) . . .
153(7) . . .
139(6) . . .
152(6) . . .
116(6) . . .
123(6) . . .
147(6) . . .
135(6) . . .
136(6) . . .
140(7) . . .
151(7) . . .
134(6) . . .
117(6) . . .
135(6) . . .
122(6) . . .
116(6) . . .
130(6) . . .
137(6) . . .
150(6) . . .
137(6) . . .
129(6) . . .
138(6) . . .
157(7) . . .
160(7) . . .
147(7) . . .
136(6) . . .
139(6) . . .
136(6) . . .
142(6) . . .
133(6) . . .
138(7) . . .
121(6) . . .
139(6) . . .
131(6) . . .
142(6) . . .
160(7) . . .
160(7) . . .
125(6) . . .
134(6) . . .
122(6) . . .
140(6) . . .
136(6) . . .
129(6) . . .
142(6) . . .
125(6) . . .
127(6) . . .
131(6) . . .
140(6) . . .
130(6) . . .
154(7) . . .
152(7) . . .
143(6) . . .
127(6) . . .
155(7) . . .
138(6) . . .
146(6) . . .
147(6) . . .
131(6) . . .
137(6) . . .
128(6) . . .
130(6) . . .
136(6) . . .
114(6) . . .
125(6) . . .
144(7) . . .
150(7) . . .
158(7) . . .
154(7) . . .
146(6) . . .
150(7) . . .
136(6) . . .
151(6) . . .
141(6) . . .
132(6) . . .
142(7) . . .
141(6) . . .
138(6) . . .
130(6) . . .
124(6) . . .
143(6) . . .
151(7) . . .
143(6) . . .
143(6) . . .
130(6) . . .
148(7) . . .
134(6) . . .
132(6) . . .
145(7) . . .
137(6) . . .
138(6) . . .
132(6) . . .
145(6) . . .
129(6) . . .
136(6) . . .
146(7) . . .
129(6) . . .
134(6) . . .
137(6) . . .
122(6) . . .
145(7) . . .
146(6) . . .
136(6) . . .
132(6) . . .
139(7) . . .
120(6) . . .
139(6) . . .
131(6) . . .
123(6) . . .
119(6) . . .
139(6) . . .
122(6) . . .
137(6) . . .
134(6) . . .
137(7) . . .
133(6) . . .
151(6) . . .
137(6) . . .
125(6) . . .
131(6) . . .
134(6) . . .
142(6) . . .
132(6) . . .
129(6) . . .
142(7) . . .
119(6) . . .
138(6) . . .
141(6) . . .
130(6) . . .
138(6) . . .
133(6) . . .
123(6) . . .
134(6) . . .
141(6) . . .
142(7) . . .
130(6) . . .
130(6) . . .
137(6) . . .
134(6) . . .
128(6) . . .
133(6) . . .
143(6) . . .
140(6) . . .
136(6) . . .
138(6) . . .
143(6) . . .
156(7) . . .
127(6) . . .
136(6) . . .
143(6) . . .
138(6) . . .
129(6) . . .
127(6) . . .
137(6) . . .
138(6) . . .
126(6) . . .
135(6) . . .
138(6) . . .
147(7) . . .
145(6) . . .
139(6) . . .
144(6) . . .
137(6) . . .
152(7) . . .
143(6) . . .
153(7) . . .
130(6) . . .
128(6) . . .
135(6) . . .
136(6) . . .
122(6) . . .
139(6) . . .
138(6) . . .
133(7) . . .
137(6) . . .
131(6) . . .
154(7) . . .
127(6) . . .
143(7) . . .
135(6) . . .
122(6) . . .
129(6) . . .
146(7) . . .
145(7) . . .
140(6) . . .
127(6) . . .
140(6) . . .
138(6) . . .
136(6) . . .
142(7) . . .
143(6) . . .
144(6) . . .
127(6) . . .
124(6) . . .
136(6) . . .
139(6) . . .
143(6) . . .
137(6) . . .
123(6) . . .
135(6) . . .
134(6) . . .
129(6) . . .
124(6) . . .
134(6) . . .
134(6) . . .
138(6) . . .
126(6) . . .
135(6) . . .
132(6) . . .
125(6) . . .
142(6) . . .
143(6) . . .
124(6) . . .
156(7) . . .
141(6) . . .
135(6) . . .
136(6) . . .
138(7) . . .
138(6) . . .
135(6) . . .
133(6) . . .
138(6) . . .
133(7) . . .
123(6) . . .
133(6) . . .
137(6) . . .
134(7) . . .
134(6) . . .
128(6) . . .
126(6) . . .
123(6) . . .
145(7) . . .
128(6) . . .
128(6) . . .
145(6) . . .
132(6) . . .
135(6) . . .
120(6) . . .
142(7) . . .
145(6) . . .
143(6) . . .
143(6) . . .
134(6) . . .
145(6) . . .
145(6) . . .
146(6) . . .
133(6) . . .
137(6) . . .
133(6) . . .
136(6) . . .
147(7) . . .
132(6) . . .
143(6) . . .
143(6) . . .
159(7) . . .
124(6) . . .
143(7) . . .
131(6) . . .
126(6) . . .
137(6) . . .
126(6) . . .
141(7) . . .
153(7) . . .
128(6) . . .
144(6) . . .
157(7) . . .
138(6) . . .
141(6) . . .
143(6) . . .
138(6) . . .
131(6) . . .
145(7) . . .
133(6) . . .
124(6) . . .
141(6) . . .
130(6) . . .
136(7) . . .
129(6) . . .
134(6) . . .
146(6) . . .
123(6) . . .
134(6) . . .
131(6) . . .
125(6) . . .
126(6) . . .
125(6) . . .
127(6) . . .
150(7) . . .
139(6) . . .
130(6) . . .
152(7) . . .
151(7) . . .
141(6) . . .
162(7) . . .
134(6) . . .
123(6) . . .
131(6) . . .
142(6) . . .
138(6) . . .
140(6) . . .
158(7) . . .
140(6) . . .
134(6) . . .
140(6) . . .
128(6) . . .
144(7) . . .
117(6) . . .
126(6) . . .
145(6) . . .
130(6) . . .
127(6) . . .
121(6) . . .
133(6) . . .
132(6) . . .
136(6) . . .
130(7) . . .
132(6) . . .
140(6) . . .
144(6) . . .
136(6) . . .
144(7) . . .
128(6) . . .
141(6) . . .
118(6) . . .
127(6) . . .
159(7) . . .
132(6) . . .
123(6) . . .
156(7) . . .
137(6) . . .
147(7) . . .
163(7) . . .
152(6) . . .
119(6) . . .
126(6) . . .
133(6) . . .
137(6) . . .
115(6) . . .
131(6) . . .
139(7) . . .
127(6) . . .
142(6) . . .
136(6) . . .
133(6) . . .
128(6) . . .
118(6) . . .
136(6) . . .
135(6) . . .
132(6) . . .
135(6) . . .
133(6) . . .
137(6) . . .
140(6) . . .
136(6) . . .
127(6) . . .
135(6) . . .
138(6) . . .
144(6) . . .
129(6) . . .
125(6) . . .
118(6) . . .
130(6) . . .
141(6) . . .
149(7) . . .
142(7) . . .
136(6) . . .
130(6) . . .
142(6) . . .
130(6) . . .
165(7) . . .
130(6) . . .
130(6) . . .
137(6) . . .
129(6) . . .
128(6) . . .
120(6) . . .
145(6) . . .
135(6) . . .
141(6) . . .
116(6) . . .
129(6) . . .
124(6) . . .
131(6) . . .
133(6) . . .
135(6) . . .
146(7) . . .
121(6) . . .
136(6) . . .
127(6) . . .
136(6) . . .
132(6) . . .
150(6) . . .
121(6) . . .
143(7) . . .
141(6) . . .
133(6) . . .
136(6) . . .
118(6) . . .
134(6) . . .
129(6) . . .
142(6) . . .
128(6) . . .
141(6) . . .
137(6) . . .
142(6) . . .
128(6) . . .
145(6) . . .
125(6) . . .
130(6) . . .
134(6) . . .
145(6) . . .
117(6) . . .
140(6) . . .
149(7) . . .
133(6) . . .
132(6) . . .
129(6) . . .
118(6) . . .
115(6) . . .
124(6) . . .
134(6) . . .
145(6) . . .
148(7) . . .
122(6) . . .
135(6) . . .
128(6) . . .
118(6) . . .
127(6) . . .
132(6) . . .
148(7) . . .
117(6) . . .
129(6) . . .
133(6) . . .
145(7) . . .
130(6) . . .
133(6) . . .
128(6) . . .
140(6) . . .
136(6) . . .
154(7) . . .
133(6) . . .
127(6) . . .
135(6) . . .
135(6) . . .
118(6) . . .
133(6) . . .
146(6) . . .
134(6) . . .
146(7) . . .
130(6) . . .
131(6) . . .
135(6) . . .
143(7) . . .
130(6) . . .
121(6) . . .
134(6) . . .
138(6) . . .
147(7) . . .
137(6) . . .
139(6) . . .
120(6) . . .
131(6) . . .
132(6) . . .
139(6) . . .
140(6) . . .
135(6) . . .
127(6) . . .
130(6) . . .
126(6) . . .
135(6) . . .
142(6) . . .
128(6) . . .
144(7) . . .
139(6) . . .
140(6) . . .
145(6) . . .
118(6) . . .
138(7) . . .
134(6) . . .
131(6) . . .
124(6) . . .
122(6) . . .
130(6) . . .
125(6) . . .
121(6) . . .
142(6) . . .
131(6) . . .
134(6) . . .
133(6) . . .
146(6) . . .
118(6) . . .
126(6) . . .
122(6) . . .
134(7) . . .
127(6) . . .
128(6) . . .
142(6) . . .
128(6) . . .
133(6) . . .
136(6) . . .
137(6) . . .
137(6) . . .
147(7) . . .
139(6) . . .
133(6) . . .
145(6) . . .
142(7) . . .
124(6) . . .
121(6) . . .
122(6) . . .
157(7) . . .
127(6) . . .
131(6) . . .
140(6) . . .
145(6) . . .
142(6) . . .
157(7) . . .
144(6) . . .
125(6) . . .
136(6) . . .
143(6) . . .
125(6) . . .
128(6) . . .
142(6) . . .
127(6) . . .
152(7) . . .
144(6) . . .
136(6) . . .
130(6) . . .
139(6) . . .
152(7) . . .
133(6) . . .
123(6) . . .
138(6) . . .
152(7) . . .
137(6) . . .
132(6) . . .
145(7) . . .
137(6) . . .
147(6) . . .
139(6) . . .
125(6) . . .
128(6) . . .
149(6) . . .
157(7) . . .
127(6) . . .
136(6) . . .
135(6) . . .
145(6) . . .
142(7) . . .
149(7) . . .
140(6) . . .
132(6) . . .
126(6) . . .
130(6) . . .
131(6) . . .
118(6) . . .
133(6) . . .
144(6) . . .
132(6) . . .
142(7) . . .
143(6) . . .
147(6) . . .
125(6) . . .
136(6) . . .
128(6) . . .
121(6) . . .
136(6) . . .
133(6) . . .
137(6) . . .
152(7) . . .
126(6) . . .
119(6) . . .
134(6) . . .
149(7) . . .
120(6) . . .
122(6) . . .
139(6) . . .
116(6) . . .
132(6) . . .
138(6) . . .
142(6) . . .
130(6) . . .
124(6) . . .
139(6) . . .
158(7) . . .
121(6) . . .
126(6) . . .
126(6) . . .
142(6) . . .
142(7) . . .
135(6) . . .
116(6) . . .
143(6) . . .
140(6) . . .
122(6) . . .
127(6) . . .
132(6) . . .
117(6) . . .
143(7) . . .
130(6) . . .
126(6) . . .
141(6) . . .
148(7) . . .
157(7) . . .
155(7) . . .
134(6) . . .
121(6) . . .
130(6) . . .
132(6) . . .
115(6) . . .
126(6) . . .
129(6) . . .
127(6) . . .
128(6) . . .
146(7) . . .
134(6) . . .
128(6) . . .
129(6) . . .
119(6) . . .
151(7) . . .
125(6) . . .
119(6) . . .
156(7) . . .
129(6) . . .
124(6) . . .
145(6) . . .
133(6) . . .
129(6) . . .
130(6) . . .
145(6) . . .
141(6) . . .
145(6) . . .
131(6) . . .
142(7) . . .
131(6) . . .
138(6) . . .
135(6) . . .
119(6) . . .
146(7) . . .
125(6) . . .
135(6) . . .
132(6) . . .
135(6) . . .
113(6) . . .
130(6) . . .
137(6) . . .
125(6) . . .
122(6) . . .
120(6) . . .
131(6) . . .
128(6) . . .
115(6) . . .
135(7) . . .
130(6) . . .
143(6) . . .
132(6) . . .
134(6) . . .
135(6) . . .
126(6) . . .
130(6) . . .
139(6) . . .
148(6) . . .
142(6) . . .
144(7) . . .
132(6) . . .
135(6) . . .
113(6) . . .
118(6) . . .
141(6) . . .
132(6) . . .
131(6) . . .
133(6) . . .
143(7) . . .
134(6) . . .
133(6) . . .
129(6) . . .
127(6) . . .
131(6) . . .
138(6) . . .
130(6) . . .
139(6) . . .
123(6) . . .
143(7) . . .
127(6) . . .
121(6) . . .
139(6) . . .
115(6) . . .
128(6) . . .
130(6) . . .
121(6) . . .
128(6) . . .
141(6) . . .
147(7) . . .
139(6) . . .
131(6) . . .
126(6) . . .
147(7) . . .
121(6) . . .
119(6) . . .
134(6) . . .
133(6) . . .
134(6) . . .
118(6) . . .
134(6) . . .
112(5) . . .
119(6) . . .
125(6) . . .
137(6) . . .
132(6) . . .
130(6) . . .
139(6) . . .
136(6) . . .
140(6) . . .
126(6) . . .
152(6) . . .
134(6) . . .
118(6) . . .
121(6) . . .
131(6) . . .
122(6) . . .
122(6) . . .
123(6) . . .
122(6) . . .
144(6) . . .
140(6) . . .
134(6) . . .
140(6) . . .
134(6) . . .
133(6) . . .
124(6) . . .
141(7) . . .
111(6) . . .
122(6) . . .
123(6) . . .
126(6) . . .
139(6) . . .
118(6) . . .
136(6) . . .
139(6) . . .
139(6) . . .
146(6) . . .
144(7) . . .
110(6) . . .
105(5) . . .
119(6) . . .
138(6) . . .
150(7) . . .
127(6) . . .
127(6) . . .
131(6) . . .
126(6) . . .
143(6) . . .
125(6) . . .
125(6) . . .
138(6) . . .
129(6) . . .
132(6) . . .
135(6) . . .
122(6) . . .
132(6) . . .
124(6) . . .
128(6) . . .
130(6) . . .
138(6) . . .
109(6) . . .
114(6) . . .
122(6) . . .
120(6) . . .
142(6) . . .
138(6) . . .
138(7) . . .
126(6) . . .
140(6) . . .
118(6) . . .
125(6) . . .
127(7) . . .
118(6) . . .
126(6) . . .
124(6) . . .
123(6) . . .
135(6) . . .
131(6) . . .
133(6) . . .
116(6) . . .
121(6) . . .
124(6) . . .
138(7) . . .
115(6) . . .
129(6) . . .
138(6) . . .
127(6) . . .
123(6) . . .
114(6) . . .
121(6) . . .
150(7) . . .
141(6) . . .
139(6) . . .
148(6) . . .
136(7) . . .
126(6) . . .
118(6) . . .
133(6) . . .
131(6) . . .
139(6) . . .
126(6) . . .
137(6) . . .
126(6) . . .
125(6) . . .
112(6) . . .
126(6) . . .
141(6) . . .
129(6) . . .
129(6) . . .
126(6) . . .
133(6) . . .
134(6) . . .
123(6) . . .
108(5) . . .
125(6) . . .
140(7) . . .
119(6) . . .
109(5) . . .
139(6) . . .
143(6) . . .
139(7) . . .
120(6) . . .
117(6) . . .
115(6) . . .
139(6) . . .
125(6) . . .
131(6) . . .
124(6) . . .
139(6) . . .
139(6) . . .
131(6) . . .
137(6) . . .
122(6) . . .
128(6) . . .
124(6) . . .
118(6) . . .
131(6) . . .
130(6) . . .
125(6) . . .
138(6) . . .
140(6) . . .
133(6) . . .
131(6) . . .
132(6) . . .
146(7) . . .
135(6) . . .
129(6) . . .
121(6) . . .
122(6) . . .
118(6) . . .
115(6) . . .
113(6) . . .
130(6) . . .
128(6) . . .
128(6) . . .
131(6) . . .
131(6) . . .
119(6) . . .
120(6) . . .
113(6) . . .
119(6) . . .
133(6) . . .
133(6) . . .
115(6) . . .
132(7) . . .
133(6) . . .
145(6) . . .
125(6) . . .
139(7) . . .
144(7) . . .
134(6) . . .
125(6) . . .
115(6) . . .
128(6) . . .
132(7) . . .
123(6) . . .
120(6) . . .
124(6) . . .
127(6) . . .
120(6) . . .
127(6) . . .
130(6) . . .
141(6) . . .
119(6) . . .
125(6) . . .
125(6) . . .
121(6) . . .
133(6) . . .
124(6) . . .
135(6) . . .
138(6) . . .
135(6) . . .
130(6) . . .
121(6) . . .
134(6) . . .
123(6) . . .
128(6) . . .
139(6) . . .
128(6) . . .
121(6) . . .
124(6) . . .
126(6) . . .
129(6) . . .
136(7) . . .
117(6) . . .
117(6) . . .
125(6) . . .
111(6) . . .
116(6) . . .
126(6) . . .
127(6) . . .
124(6) . . .
123(6) . . .
130(6) . . .
134(6) . . .
132(6) . . .
137(6) . . .
131(6) . . .
121(6) . . .
134(6) . . .
116(6) . . .
127(6) . . .
124(6) . . .
125(6) . . .
135(6) . . .
124(6) . . .
126(6) . . .
132(6) . . .
124(6) . . .
127(6) . . .
128(6) . . .
127(6) . . .
145(6) . . .
126(6) . . .
141(6) . . .
137(6) . . .
135(6) . . .
131(6) . . .
135(6) . . .
132(6) . . .
132(6) . . .
135(6) . . .
128(6) . . .
131(6) . . .
133(6) . . .
126(6) . . .
130(6) . . .
116(6) . . .
136(6) . . .
148(6) . . .
123(6) . . .
145(6) . . .
137(6) . . .
130(6) . . .
115(6) . . .
127(6) . . .
134(6) . . .
116(6) . . .
124(6) . . .
133(6) . . .
132(6) . . .
127(6) . . .
129(6) . . .
141(7) . . .
133(6) . . .
122(6) . . .
127(6) . . .
135(6) . . .
131(6) . . .
115(6) . . .
121(6) . . .
135(6) . . .
133(6) . . .
140(7) . . .
123(6) . . .
137(6) . . .
142(6) . . .
116(6) . . .
117(6) . . .
120(6) . . .
126(6) . . .
133(6) . . .
124(6) . . .
128(6) . . .
125(6) . . .
117(6) . . .
147(7) . . .
132(6) . . .
123(6) . . .
136(6) . . .
131(6) . . .
121(6) . . .
120(6) . . .
132(6) . . .
128(6) . . .
120(6) . . .
139(7) . . .
115(6) . . .
130(6) . . .
128(6) . . .
119(6) . . .
117(6) . . .
126(6) . . .
136(6) . . .
132(6) . . .
144(6) . . .
128(6) . . .
114(6) . . .
127(6) . . .
129(6) . . .
133(6) . . .
133(6) . . .
122(6) . . .
115(6) . . .
122(6) . . .
127(6) . . .
146(7) . . .
122(6) . . .
127(6) . . .
123(6) . . .
142(6) . . .
124(6) . . .
125(6) . . .
148(6) . . .
136(6) . . .
109(5) . . .
149(7) . . .
129(6) . . .
126(6) . . .
120(6) . . .
126(6) . . .
134(6) . . .
135(6) . . .
129(6) . . .
141(6) . . .
119(6) . . .
135(6) . . .
117(6) . . .
131(6) . . .
125(6) . . .
127(6) . . .
123(6) . . .
133(6) . . .
127(6) . . .
136(6) . . .
154(7) . . .
124(6) . . .
125(6) . . .
143(6) . . .
147(7) . . .
132(6) . . .
121(6) . . .
124(6) . . .
139(6) . . .
131(6) . . .
135(6) . . .
141(7) . . .
139(6) . . .
138(6) . . .
139(6) . . .
138(7) . . .
130(6) . . .
130(6) . . .
125(6) . . .
151(7) . . .
154(7) . . .
137(6) . . .
134(6) . . .
133(6) . . .
143(6) . . .
152(7) . . .
132(6) . . .
132(6) . . .
149(7) . . .
117(6) . . .
124(6) . . .
135(6) . . .
137(6) . . .
140(6) . . .
136(6) . . .
129(6) . . .
138(6) . . .
129(6) . . .
136(6) . . .
138(7) . . .
133(6) . . .
146(7) . . .
139(6) . . .
138(6) . . .
124(6) . . .
131(6) . . .
141(6) . . .
145(6) . . .
154(7) . . .
148(7) . . .
139(6) . . .
145(6) . . .
135(6) . . .
125(6) . . .
142(7) . . .
135(6) . . .
124(6) . . .
142(6) . . .
138(6) . . .
125(6) . . .
132(6) . . .
138(6) . . .
148(6) . . .
132(6) . . .
131(6) . . .
127(6) . . .
135(6) . . .
132(6) . . .
131(6) . . .
136(7) . . .
123(6) . . .
147(6) . . .
126(6) . . .
128(6) . . .
118(6) . . .
127(6) . . .
131(6) . . .
129(6) . . .
137(6) . . .
140(7) . . .
136(6) . . .
137(6) . . .
135(6) . . .
140(6) . . .
125(6) . . .
119(6) . . .
112(5) . . .
136(6) . . .
131(6) . . .
123(6) . . .
132(6) . . .
135(6) . . .
123(6) . . .
132(6) . . .
142(7) . . .
137(6) . . .
136(6) . . .
135(6) . . .
131(6) . . .
133(6) . . .
117(6) . . .
118(6) . . .
122(6) . . .
119(6) . . .
134(6) . . .
124(6) . . .
138(6) . . .
129(6) . . .
141(7) . . .
124(6) . . .
120(6) . . .
133(6) . . .
133(6) . . .
121(6) . . .
127(6) . . .
128(6) . . .
130(6) . . .
139(6) . . .
134(6) . . .
127(6) . . .
132(6) . . .
127(6) . . .
128(6) . . .
129(6) . . .
147(6) . . .
133(6) . . .
117(6) . . .
134(6) . . .
123(6) . . .
149(7) . . .
138(6) . . .
133(6) . . .
135(6) . . .
136(7) . . .
137(6) . . .
128(6) . . .
130(6) . . .
122(6) . . .
138(6) . . .
110(5) . . .
128(6) . . .
126(6) . . .
130(6) . . .
145(7) . . .
118(6) . . .
136(6) . . .
134(6) . . .
134(6) . . .
140(6) . . .
137(6) . . .
146(6) . . .
145(6) . . .
135(6) . . .
132(6) . . .
131(6) . . .
124(6) . . .
125(6) . . .
127(6) . . .
133(6) . . .
131(6) . . .
145(6) . . .
140(6) . . .
137(6) . . .
129(6) . . .
150(7) . . .
134(6) . . .
141(6) . . .
142(7) . . .
148(7) . . .
141(6) . . .
113(5) . . .
135(6) . . .
135(7) . . .
132(6) . . .
123(6) . . .
134(6) . . .
146(6) . . .
132(6) . . .
131(6) . . .
141(6) . . .
127(6) . . .
127(6) . . .
146(7) . . .
146(6) . . .
143(6) . . .
139(6) . . .
146(7) . . .
130(6) . . .
112(6) . . .
125(6) . . .
140(6) . . .
141(6) . . .
138(6) . . .
129(6) . . .
126(6) . . .
125(6) . . .
111(6) . . .
111(6) . . .
119(6) . . .
133(6) . . .
133(6) . . .
147(7) . . .
128(6) . . .
140(6) . . .
145(6) . . .
134(6) . . .
131(6) . . .
143(7) . . .
130(6) . . .
139(6) . . .
121(6) . . .
121(6) . . .
136(6) . . .
133(6) . . .
138(6) . . .
137(6) . . .
134(7) . . .
108(6) . . .
123(6) . . .
145(6) . . .
135(6) . . .
141(7) . . .
121(6) . . .
129(6) . . .
142(6) . . .
147(6) . . .
135(6) . . .
119(6) . . .
129(6) . . .
122(6) . . .
122(6) . . .
131(6) . . .
129(6) . . .
128(6) . . .
137(6) . . .
133(6) . . .
141(7) . . .
133(6) . . .
126(6) . . .
119(6) . . .
139(6) . . .
126(6) . . .
108(6) . . .
136(6) . . .
123(6) . . .
119(6) . . .
141(7) . . .
130(6) . . .
127(6) . . .
135(6) . . .
121(6) . . .
121(6) . . .
142(6) . . .
150(6) . . .
136(6) . . .
141(6) . . .
144(6) . . .
139(6) . . .
136(6) . . .
121(6) . . .
122(6) . . .
133(6) . . .
125(6) . . .
126(6) . . .
142(7) . . .
120(6) . . .
111(6) . . .
113(5) . . .
128(6) . . .
122(6) . . .
144(7) . . .
144(6) . . .
136(6) . . .
116(6) . . .
126(6) . . .
136(7) . . .
118(6) . . .
130(6) . . .
129(6) . . .
145(7) . . .
133(6) . . .
131(6) . . .
133(6) . . .
124(6) . . .
131(6) . . .
139(7) . . .
116(6) . . .
131(6) . . .
136(6) . . .
128(6) . . .
138(7) . . .
132(6) . . .
143(6) . . .
140(6) . . .
151(7) . . .
136(6) . . .
114(6) . . .
121(6) . . .
129(6) . . .
147(7) . . .
127(6) . . .
126(6) . . .
139(6) . . .
145(7) . . .
126(6) . . .
124(6) . . .
124(6) . . .
130(6) . . .
130(6) . . .
135(6) . . .
140(6) . . .
123(6) . . .
114(6) . . .
123(6) . . .
130(6) . . .
140(6) . . .
137(6) . . .
119(6) . . .
133(6) . . .
129(6) . . .
136(6) . . .
127(6) . . .
124(6) . . .
132(6) . . .
133(6) . . .
153(7) . . .
139(6) . . .
126(6) . . .
122(6) . . .
123(6) . . .
124(6) . . .
137(6) . . .
129(6) . . .
121(6) . . .
136(6) . . .
134(6) . . .
129(6) . . .
143(6) . . .
117(6) . . .
130(6) . . .
125(6) . . .
103(5) . . .
130(6) . . .
133(6) . . .
145(7) . . .
126(6) . . .
121(6) . . .
131(6) . . .
134(6) . . .
130(6) . . .
126(6) . . .
126(6) . . .
121(6) . . .
117(6) . . .
111(6) . . .
123(6) . . .
128(6) . . .
141(6) . . .
152(7) . . .
143(6) . . .
126(6) . . .
133(6) . . .
136(6) . . .
135(6) . . .
132(6) . . .
128(6) . . .
129(6) . . .
141(6) . . .
136(6) . . .
118(6) . . .
114(6) . . .
113(6) . . .
121(6) . . .
121(6) . . .
125(6) . . .
118(6) . . .
117(6) . . .
146(6) . . .
144(7) . . .
142(7) . . .
126(6) . . .
122(6) . . .
108(5) . . .
128(6) . . .
142(6) . . .
133(6) . . .
110(6) . . .
127(6) . . .
135(6) . . .
120(6) . . .
130(6) . . .
126(6) . . .
146(7) . . .
130(6) . . .
118(6) . . .
132(6) . . .
114(6) . . .
127(6) . . .
148(7) . . .
135(6) . . .
134(6) . . .
142(6) . . .
137(6) . . .
122(6) . . .
124(6) . . .
123(6) . . .
131(6) . . .
120(6) . . .
138(7) . . .
124(6) . . .
133(6) . . .
120(6) . . .
139(7) . . .
126(6) . . .
133(6) . . .
116(6) . . .
126(6) . . .
128(6) . . .
129(6) . . .
110(5) . . .
139(6) . . .
132(6) . . .
123(6) . . .
139(6) . . .
130(6) . . .
124(6) . . .
127(6) . . .
121(6) . . .
144(7) . . .
137(6) . . .
136(6) . . .
130(6) . . .
135(6) . . .
135(6) . . .
129(6) . . .
125(6) . . .
135(6) . . .
123(6) . . .
125(6) . . .
133(6) . . .
117(6) . . .
146(6) . . .
124(6) . . .
126(6) . . .
140(6) . . .
138(6) . . .
126(6) . . .
118(6) . . .
123(6) . . .
140(6) . . .
140(6) . . .
138(6) . . .
134(6) . . .
137(6) . . .
122(6) . . .
130(6) . . .
131(6) . . .
130(6) . . .
127(6) . . .
130(6) . . .
124(6) . . .
138(7) . . .
124(6) . . .
147(6) . . .
124(6) . . .
132(6) . . .
120(6) . . .
142(6) . . .
130(6) . . .
127(6) . . .
129(6) . . .
123(6) . . .
132(6) . . .
135(6) . . .
138(6) . . .
131(6) . . .
134(7) . . .
133(6) . . .
132(6) . . .
126(6) . . .
121(6) . . .
125(6) . . .
139(6) . . .
126(6) . . .
132(6) . . .
141(6) . . .
142(7) . . .
128(6) . . .
145(6) . . .
138(6) . . .
107(6) . . .
129(6) . . .
126(6) . . .
141(6) . . .
137(6) . . .
114(6) . . .
124(6) . . .
138(6) . . .
117(6) . . .
134(6) . . .
110(6) . . .
126(6) . . .
136(6) . . .
149(6) . . .
138(6) . . .
143(7) . . .
119(6) . . .
128(6) . . .
125(6) . . .
126(6) . . .
132(6) . . .
140(6) . . .
141(6) . . .
113(5) . . .
113(6) . . .
141(6) . . .
134(6) . . .
117(6) . . .
122(6) . . .
139(6) . . .
132(6) . . .
131(6) . . .
126(6) . . .
112(5) . . .
139(6) . . .
125(6) . . .
129(6) . . .
124(6) . . .
119(6) . . .
133(6) . . .
125(6) . . .
117(6) . . .
127(6) . . .
138(6) . . .
132(6) . . .
130(6) . . .
118(6) . . .
138(6) . . .
134(6) . . .
128(6) . . .
115(6) . . .
131(6) . . .
157(7) . . .
137(6) . . .
129(6) . . .
128(6) . . .
124(6) . . .
128(6) . . .
124(6) . . .
127(6) . . .
125(6) . . .
135(6) . . .
127(6) . . .
139(7) . . .
128(6) . . .
135(6) . . .
118(6) . . .
125(6) . . .
148(7) . . .
145(7) . . .
137(6) . . .
135(6) . . .
115(6) . . .
120(6) . . .
130(6) . . .
130(6) . . .
119(6) . . .
129(6) . . .
141(6) . . .
139(7) . . .
126(6) . . .
126(6) . . .
143(6) . . .
122(6) . . .
120(6) . . .
128(6) . . .
127(6) . . .
124(6) . . .
132(6) . . .
123(6) . . .
131(6) . . .
120(6) . . .
121(6) . . .
113(6) . . .
114(6) . . .
134(6) . . .
135(6) . . .
115(6) . . .
125(6) . . .
112(5) . . .
100(5) . . .
115(6) . . .
114(6) . . .
122(6) . . .
117(6) . . .
106(5) . . .
121(6) . . .
121(6) . . .
138(6) . . .
127(6) . . .
117(6) . . .
130(6) . . .
126(6) . . .
119(6) . . .
119(6) . . .
113(6) . . .
117(6) . . .
110(6) . . .
134(6) . . .
124(6) . . .
115(6) . . .
112(6) . . .
132(6) . . .
112(5) . . .
134(6) . . .
126(6) . . .
117(6) . . .
111(5) . . .
117(6) . . .
117(6) . . .
113(6) . . .
113(6) . . .
118(6) . . .
126(6) . . .
122(6) . . .
138(7) . . .
130(6) . . .
113(6) . . .
121(6) . . .
117(6) . . .
102(6) . . .
103(5) . . .
113(6) . . .
99(5) . . .
126(6) . . .
122(6) . . .
125(6) . . .
116(6) . . .
115(6) . . .
123(6) . . .
125(6) . . .
118(6) . . .
110(5) . . .
123(6) . . .
121(6) . . .
139(7) . . .
120(6) . . .
132(6) . . .
105(5) . . .
123(6) . . .
131(6) . . .
121(6) . . .
124(6) . . .
119(6) . . .
130(6) . . .
126(6) . . .
138(6) . . .
132(6) . . .
122(6) . . .
120(6) . . .
118(6) . . .
124(6) . . .
126(6) . . .
131(6) . . .
133(6) . . .
122(6) . . .
140(6) . . .
119(6) . . .
115(6) . . .
123(6) . . .
119(6) . . .
112(6) . . .
122(6) . . .
116(6) . . .
134(6) . . .
112(6) . . .
100(5) . . .
116(6) . . .
120(6) . . .
130(6) . . .
145(7) . . .
128(6) . . .
122(6) . . .
129(6) . . .
127(6) . . .
116(6) . . .
108(5) . . .
121(6) . . .
116(6) . . .
113(6) . . .
114(6) . . .
125(6) . . .
132(6) . . .
123(6) . . .
120(6) . . .
113(6) . . .
114(6) . . .
116(6) . . .
115(6) . . .
133(7) . . .
98(5) . . .
114(6) . . .
124(6) . . .
129(6) . . .
127(6) . . .
112(6) . . .
102(5) . . .
111(6) . . .
131(6) . . .
134(6) . . .
113(6) . . .
112(6) . . .
129(6) . . .
127(6) . . .
127(6) . . .
123(6) . . .
136(6) . . .
132(6) . . .
122(6) . . .
106(6) . . .
121(6) . . .
111(5) . . .
109(6) . . .
119(6) . . .
117(6) . . .
134(6) . . .
115(6) . . .
117(6) . . .
140(7) . . .
121(6) . . .
120(6) . . .
117(6) . . .
130(6) . . .
121(6) . . .
114(6) . . .
114(6) . . .
118(6) . . .
105(5) . . .
123(6) . . .
119(6) . . .
126(6) . . .
133(6) . . .
127(6) . . .
122(6) . . .
127(6) . . .
119(6) . . .
105(5) . . .
108(6) . . .
110(6) . . .
121(6) . . .
125(6) . . .
129(6) . . .
131(6) . . .
125(6) . . .
125(6) . . .
133(6) . . .
133(6) . . .
111(6) . . .
123(6) . . .
124(6) . . .
110(6) . . .
92(5) . . .
115(6) . . .
132(6) . . .
123(6) . . .
125(6) . . .
122(6) . . .
129(6) . . .
126(6) . . .
118(6) . . .
107(5) . . .
130(6) . . .
124(6) . . .
112(6) . . .
133(6) . . .
126(6) . . .
136(6) . . .
133(6) . . .
109(6) . . .
122(6) . . .
129(6) . . .
113(6) . . .
114(6) . . .
125(6) . . .
131(6) . . .
121(6) . . .
127(6) . . .
124(6) . . .
121(6) . . .
120(6) . . .
130(6) . . .
123(6) . . .
137(7) . . .
131(6) . . .
128(6) . . .
118(6) . . .
137(7) . . .
119(6) . . .
122(6) . . .
115(6) . . .
127(6) . . .
126(6) . . .
135(6) . . .
117(6) . . .
112(6) . . .
143(6) . . .
131(6) . . .
120(6) . . .
121(6) . . .
119(6) . . .
125(6) . . .
125(6) . . .
126(6) . . .
122(6) . . .
117(6) . . .
105(5) . . .
115(6) . . .
123(6) . . .
119(6) . . .
119(6) . . .
126(6) . . .
122(6) . . .
110(6) . . .
123(6) . . .
117(6) . . .
115(6) . . .
109(6) . . .
109(6) . . .
126(6) . . .
126(6) . . .
118(6) . . .
134(7) . . .
109(6) . . .
109(5) . . .
136(6) . . .
117(6) . . .
116(6) . . .
131(6) . . .
133(6) . . .
120(6) . . .
128(6) . . .
125(6) . . .
121(6) . . .
127(6) . . .
129(6) . . .
125(6) . . .
123(6) . . .
120(6) . . .
130(6) . . .
142(6) . . .
125(6) . . .
125(6) . . .
125(6) . . .
127(6) . . .
112(5) . . .
110(6) . . .
111(6) . . .
130(6) . . .
115(6) . . .
105(5) . . .
127(6) . . .
115(6) . . .
136(6) . . .
120(6) . . .
123(6) . . .
122(6) . . .
112(6) . . .
115(5) . . .
123(6) . . .
120(6) . . .
119(6) . . .
127(6) . . .
130(6) . . .
114(6) . . .
117(6) . . .
130(6) . . .
122(6) . . .
127(6) . . .
125(6) . . .
132(6) . . .
131(6) . . .
109(5) . . .
119(6) . . .
129(6) . . .
120(6) . . .
115(6) . . .
117(6) . . .
110(5) . . .
124(6) . . .
112(6) . . .
122(6) . . .
126(6) . . .
120(6) . . .
123(6) . . .
126(6) . . .
108(6) . . .
124(6) . . .
121(6) . . .
126(6) . . .
125(6) . . .
125(6) . . .
126(6) . . .
122(6) . . .
134(6) . . .
118(6) . . .
128(6) . . .
120(6) . . .
131(6) . . .
122(6) . . .
136(6) . . .
124(6) . . .
105(5) . . .
118(6) . . .
124(6) . . .
117(6) . . .
105(5) . . .
126(6) . . .
116(6) . . .
126(6) . . .
103(5) . . .
126(6) . . .
128(6) . . .
111(6) . . .
124(6) . . .
132(6) . . .
139(6) . . .
124(6) . . .
131(6) . . .
134(6) . . .
135(7) . . .
128(6) . . .
129(6) . . .
135(6) . . .
129(6) . . .
105(5) . . .
129(6) . . .
112(5) . . .
116(6) . . .
110(6) . . .
118(6) . . .
136(6) . . .
124(6) . . .
137(6) . . .
135(6) . . .
128(6) . . .
124(6) . . .
113(6) . . .
100(5) . . .
114(6) . . .
121(6) . . .
121(6) . . .
117(6) . . .
124(6) . . .
133(6) . . .
127(6) . . .
121(6) . . .
121(6) . . .
128(6) . . .
126(6) . . .
122(6) . . .
119(6) . . .
121(6) . . .
129(6) . . .
123(6) . . .
121(6) . . .
125(6) . . .
133(6) . . .
120(6) . . .
135(6) . . .
113(6) . . .
109(5) . . .
104(5) . . .
120(6) . . .
124(6) . . .
122(6) . . .
117(6) . . .
112(5) . . .
110(5) . . .
134(7) . . .
136(6) . . .
130(6) . . .
114(6) . . .
116(6) . . .
132(7) . . .
120(6) . . .
130(6) . . .
118(6) . . .
117(6) . . .
120(6) . . .
114(6) . . .
121(6) . . .
125(6) . . .
129(6) . . .
109(6) . . .
114(6) . . .
126(6) . . .
111(6) . . .
129(6) . . .
120(6) . . .
132(6) . . .
127(6) . . .
122(6) . . .
118(6) . . .
123(6) . . .
126(6) . . .
106(5) . . .
110(6) . . .
116(6) . . .
141(6) . . .
125(6) . . .
115(6) . . .
115(6) . . .
129(6) . . .
126(6) . . .
126(6) . . .
118(6) . . .
122(6) . . .
132(7) . . .
117(6) . . .
125(6) . . .
151(6) . . .
129(6) . . .
133(6) . . .
132(6) . . .
125(6) . . .
125(6) . . .
114(6) . . .
132(7) . . .
128(6) . . .
132(6) . . .
112(5) . . .
126(6) . . .
129(6) . . .
122(6) . . .
128(6) . . .
123(6) . . .
133(6) . . .
130(6) . . .
134(6) . . .
110(5) . . .
132(6) . . .
115(6) . . .
129(6) . . .
118(6) . . .
135(6) . . .
114(6) . . .
122(6) . . .
115(6) . . .
123(6) . . .
110(5) . . .
116(6) . . .
127(6) . . .
120(6) . . .
113(6) . . .
122(6) . . .
120(6) . . .
106(6) . . .
100(5) . . .
113(6) . . .
122(6) . . .
117(6) . . .
116(6) . . .
109(6) . . .
119(6) . . .
119(6) . . .
111(6) . . .
120(6) . . .
139(7) . . .
126(6) . . .
106(5) . . .
116(6) . . .
127(6) . . .
114(6) . . .
121(6) . . .
132(6) . . .
123(6) . . .
126(6) . . .
123(6) . . .
130(6) . . .
128(6) . . .
124(6) . . .
116(6) . . .
118(6) . . .
131(6) . . .
138(6) . . .
115(6) . . .
122(6) . . .
122(6) . . .
135(6) . . .
119(6) . . .
119(6) . . .
113(6) . . .
112(6) . . .
122(6) . . .
121(6) . . .
108(5) . . .
136(6) . . .
133(6) . . .
119(6) . . .
117(6) . . .
129(6) . . .
140(7) . . .
125(6) . . .
109(5) . . .
107(5) . . .
123(6) . . .
116(6) . . .
128(6) . . .
110(5) . . .
131(6) . . .
126(6) . . .
117(6) . . .
119(6) . . .
121(6) . . .
108(6) . . .
128(6) . . .
133(6) . . .
121(6) . . .
119(6) . . .
131(6) . . .
132(6) . . .
122(6) . . .
128(6) . . .
116(6) . . .
115(6) . . .
117(6) . . .
128(6) . . .
112(6) . . .
115(6) . . .
131(6) . . .
119(6) . . .
124(6) . . .
123(6) . . .
129(6) . . .
133(6) . . .
125(6) . . .
115(6) . . .
99(5) . . .
115(6) . . .
106(5) . . .
132(6) . . .
129(6) . . .
114(6) . . .
128(6) . . .
110(6) . . .
111(6) . . .
120(6) . . .
117(6) . . .
115(6) . . .
120(6) . . .
132(6) . . .
128(6) . . .
120(6) . . .
119(6) . . .
117(6) . . .
101(5) . . .
121(6) . . .
128(6) . . .
128(6) . . .
127(6) . . .
124(6) . . .
131(6) . . .
131(6) . . .
122(6) . . .
133(6) . . .
117(6) . . .
127(6) . . .
114(6) . . .
123(6) . . .
128(6) . . .
122(6) . . .
121(6) . . .
121(6) . . .
120(6) . . .
122(6) . . .
124(6) . . .
120(6) . . .
124(6) . . .
99(5) . . .
122(6) . . .
133(6) . . .
115(6) . . .
130(6) . . .
126(6) . . .
109(6) . . .
135(6) . . .
124(6) . . .
134(6) . . .
126(6) . . .
122(6) . . .
120(6) . . .
118(6) . . .
127(6) . . .
122(6) . . .
129(6) . . .
138(7) . . .
113(6) . . .
109(5) . . .
133(6) . . .
124(6) . . .
125(6) . . .
128(6) . . .
131(6) . . .
116(6) . . .
115(6) . . .
104(5) . . .
117(6) . . .
125(6) . . .
127(6) . . .
124(6) . . .
114(6) . . .
121(6) . . .
126(6) . . .
116(6) . . .
116(6) . . .
125(6) . . .
112(5) . . .
131(6) . . .
129(6) . . .
131(6) . . .
136(6) . . .
132(6) . . .
130(6) . . .
116(6) . . .
133(6) . . .
113(5) . . .
118(6) . . .
135(6) . . .
126(6) . . .
128(6) . . .
107(5) . . .
118(6) . . .
130(6) . . .
136(6) . . .
136(6) . . .
125(6) . . .
120(6) . . .
125(6) . . .
129(6) . . .
119(6) . . .
134(6) . . .
134(6) . . .
132(6) . . .
131(6) . . .
132(6) . . .
126(6) . . .
119(6) . . .
136(6) . . .
119(6) . . .
124(6) . . .
117(6) . . .
128(6) . . .
119(6) . . .
114(6) . . .
137(6) . . .
131(6) . . .
133(6) . . .
127(6) . . .
143(7) . . .
125(6) . . .
127(6) . . .
137(6) . . .
133(6) . . .
130(6) . . .
113(6) . . .
111(5) . . .
113(6) . . .
117(6) . . .
122(6) . . .
104(5) . . .
116(6) . . .
114(6) . . .
117(6) . . .
130(6) . . .
106(5) . . .
113(6) . . .
125(6) . . .
127(6) . . .
143(7) . . .
112(5) . . .
117(6) . . .
124(6) . . .
119(6) . . .
121(6) . . .
119(6) . . .
122(6) . . .
115(6) . . .
136(7) . . .
117(6) . . .
124(6) . . .
135(6) . . .
140(6) . . .
127(6) . . .
125(6) . . .
115(5) . . .
130(6) . . .
136(6) . . .
116(6) . . .
118(6) . . .
128(6) . . .
124(6) . . .
144(7) . . .
147(7) . . .
152(7) . . .
132(6) . . .
140(6) . . .
121(6) . . .
111(6) . . .
138(6) . . .
126(6) . . .
141(6) . . .
119(6) . . .
128(6) . . .
115(6) . . .
132(6) . . .
122(6) . . .
120(6) . . .
133(6) . . .
136(6) . . .
120(6) . . .
110(5) . . .
132(6) . . .
141(6) . . .
143(6) . . .
123(6) . . .
124(6) . . .
135(6) . . .
113(6) . . .
129(6) . . .
121(6) . . .
135(6) . . .
128(6) . . .
130(6) . . .
108(5) . . .
125(6) . . .
137(6) . . .
136(6) . . .
130(6) . . .
130(6) . . .
142(6) . . .
138(6) . . .
126(6) . . .
126(6) . . .
142(6) . . .
132(6) . . .
155(7) . . .
134(6) . . .
112(6) . . .
121(6) . . .
135(6) . . .
132(6) . . .
120(6) . . .
121(6) . . .
120(6) . . .
118(6) . . .
115(6) . . .
130(6) . . .
133(6) . . .
124(6) . . .
130(6) . . .
127(6) . . .
125(6) . . .
129(6) . . .
142(6) . . .
141(6) . . .
140(6) . . .
129(6) . . .
139(6) . . .
140(6) . . .
121(6) . . .
129(6) . . .
131(6) . . .
134(6) . . .
113(5) . . .
134(6) . . .
131(6) . . .
120(6) . . .
122(6) . . .
121(6) . . .
104(5) . . .
121(6) . . .
115(6) . . .
136(6) . . .
120(6) . . .
111(6) . . .
124(6) . . .
120(6) . . .
124(6) . . .
130(6) . . .
114(6) . . .
112(6) . . .
131(6) . . .
131(6) . . .
139(6) . . .
134(6) . . .
127(6) . . .
127(6) . . .
133(6) . . .
137(6) . . .
120(6) . . .
127(6) . . .
127(6) . . .
138(6) . . .
135(6) . . .
132(6) . . .
122(6) . . .
137(6) . . .
135(6) . . .
126(6) . . .
131(6) . . .
127(6) . . .
136(6) . . .
130(6) . . .
135(6) . . .
132(7) . . .
119(6) . . .
133(6) . . .
124(6) . . .
125(6) . . .
139(7) . . .
122(6) . . .
127(6) . . .
118(6) . . .
129(6) . . .
120(6) . . .
132(6) . . .
141(6) . . .
124(6) . . .
114(6) . . .
119(6) . . .
128(6) . . .
134(6) . . .
120(6) . . .
132(6) . . .
138(6) . . .
122(6) . . .
127(6) . . .
142(6) . . .
130(6) . . .
135(7) . . .
133(6) . . .
128(6) . . .
137(6) . . .
130(6) . . .
133(6) . . .
136(6) . . .
141(6) . . .
123(6) . . .
137(6) . . .
136(6) . . .
117(6) . . .
131(6) . . .
138(6) . . .
158(7) . . .
129(6) . . .
138(6) . . .
122(6) . . .
132(6) . . .
123(6) . . .
127(6) . . .
121(6) . . .
120(6) . . .
113(6) . . .
128(6) . . .
124(6) . . .
116(6) . . .
130(6) . . .
125(6) . . .
111(6) . . .
131(6) . . .
124(6) . . .
144(6) . . .
133(6) . . .
130(6) . . .
122(6) . . .
126(6) . . .
130(6) . . .
119(6) . . .
115(6) . . .
137(6) . . .
127(6) . . .
120(6) . . .
125(6) . . .
123(6) . . .
129(6) . . .
121(6) . . .
141(6) . . .
141(6) . . .
126(6) . . .
131(6) . . .
132(6) . . .
135(6) . . .
132(6) . . .
129(6) . . .
124(6) . . .
131(6) . . .
126(6) . . .
124(6) . . .
130(6) . . .
130(6) . . .
121(6) . . .
128(6) . . .
109(6) . . .
126(6) . . .
126(6) . . .
129(6) . . .
125(6) . . .
145(7) . . .
129(6) . . .
121(6) . . .
122(6) . . .
119(6) . . .
129(6) . . .
127(6) . . .
132(6) . . .
118(6) . . .
139(7) . . .
119(6) . . .
115(6) . . .
136(6) . . .
111(5) . . .
121(6) . . .
145(7) . . .
129(6) . . .
115(6) . . .
123(6) . . .
119(6) . . .
108(6) . . .
126(6) . . .
134(6) . . .
131(6) . . .
118(6) . . .
116(6) . . .
139(6) . . .
141(6) . . .
133(6) . . .
128(6) . . .
126(6) . . .
125(6) . . .
123(6) . . .
131(6) . . .
126(6) . . .
123(6) . . .
138(7) . . .
112(5) . . .
120(6) . . .
130(6) . . .
126(6) . . .
118(6) . . .
126(6) . . .
128(6) . . .
123(6) . . .
126(6) . . .
138(6) . . .
113(6) . . .
118(6) . . .
116(6) . . .
114(6) . . .
137(6) . . .
116(6) . . .
127(6) . . .
115(6) . . .
130(6) . . .
107(6) . . .
120(6) . . .
126(6) . . .
139(7) . . .
118(6) . . .
118(6) . . .
129(6) . . .
150(7) . . .
136(6) . . .
125(6) . . .
124(6) . . .
130(6) . . .
133(6) . . .
124(6) . . .
129(6) . . .
130(6) . . .
137(6) . . .
114(6) . . .
122(6) . . .
123(6) . . .
123(6) . . .
127(6) . . .
132(6) . . .
115(6) . . .
123(6) . . .
117(6) . . .
123(6) . . .
126(6) . . .
118(6) . . .
115(6) . . .
118(6) . . .
128(6) . . .
112(5) . . .
116(6) . . .
123(6) . . .
117(6) . . .
116(6) . . .
129(6) . . .
114(6) . . .
122(6) . . .
110(5) . . .
112(5) . . .
124(6) . . .
120(6) . . .
120(6) . . .
105(5) . . .
120(6) . . .
113(6) . . .
132(6) . . .
119(6) . . .
122(6) . . .
121(6) . . .
131(7) . . .
116(6) . . .
143(6) . . .
118(6) . . .
131(6) . . .
124(6) . . .
113(6) . . .
128(6) . . .
137(6) . . .
130(6) . . .
125(6) . . .
126(6) . . .
116(6) . . .
121(6) . . .
126(6) . . .
120(6) . . .
125(6) . . .
112(6) . . .
129(6) . . .
117(6) . . .
122(6) . . .
119(6) . . .
129(6) . . .
119(6) . . .
129(6) . . .
124(6) . . .
130(6) . . .
115(6) . . .
130(6) . . .
133(6) . . .
123(6) . . .
121(6) . . .
126(6) . . .
123(6) . . .
118(6) . . .
107(5) . . .
122(6) . . .
134(6) . . .
136(6) . . .
122(6) . . .
136(6) . . .
117(6) . . .
128(6) . . .
135(6) . . .
123(6) . . .
134(6) . . .
124(6) . . .
109(5) . . .
122(6) . . .
140(6) . . .
126(6) . . .
133(6) . . .
122(6) . . .
127(6) . . .
112(6) . . .
132(6) . . .
124(6) . . .
123(6) . . .
124(6) . . .
127(6) . . .
134(6) . . .
142(6) . . .
140(6) . . .
142(7) . . .
146(7) . . .
137(6) . . .
131(6) . . .
117(6) . . .
122(6) . . .
131(6) . . .
130(6) . . .
136(6) . . .
148(6) . . .
125(6) . . .
126(6) . . .
109(6) . . .
121(6) . . .
123(6) . . .
110(5) . . .
141(7) . . .
134(6) . . .
139(6) . . .
126(6) . . .
119(6) . . .
117(6) . . .
138(6) . . .
120(6) . . .
121(6) . . .
113(6) . . .
117(6) . . .
148(7) . . .
128(6) . . .
123(6) . . .
119(6) . . .
127(6) . . .
128(6) . . .
116(6) . . .
132(6) . . .
131(6) . . .
129(6) . . .
138(6) . . .
132(6) . . .
136(6) . . .
116(6) . . .
119(6) . . .
123(6) . . .
110(5) . . .
125(6) . . .
134(6) . . .
144(7) . . .
128(6) . . .
123(6) . . .
130(6) . . .
136(7) . . .
124(6) . . .
130(6) . . .
129(6) . . .
132(6) . . .
128(6) . . .
128(6) . . .
122(6) . . .
140(6) . . .
131(6) . . .
135(7) . . .
124(6) . . .
123(6) . . .
146(6) . . .
118(6) . . .
117(6) . . .
132(6) . . .
122(6) . . .
117(6) . . .
138(6) . . .
118(6) . . .
140(6) . . .
121(6) . . .
129(6) . . .
143(6) . . .
135(6) . . .
105(5) . . .
120(6) . . .
121(6) . . .
120(6) . . .
128(6) . . .
127(6) . . .
121(6) . . .
117(6) . . .
127(6) . . .
131(6) . . .
128(6) . . .
134(6) . . .
123(6) . . .
118(6) . . .
112(6) . . .
122(6) . . .
138(6) . . .
138(6) . . .
133(6) . . .
115(6) . . .
131(6) . . .
130(6) . . .
135(6) . . .
136(6) . . .
136(6) . . .
128(6) . . .
136(6) . . .
129(6) . . .
118(6) . . .
140(6) . . .
128(6) . . .
122(6) . . .
121(6) . . .
127(6) . . .
126(6) . . .
129(6) . . .
135(6) . . .
131(6) . . .
126(6) . . .
125(6) . . .
120(6) . . .
124(6) . . .
139(6) . . .
128(6) . . .
132(6) . . .
142(6) . . .
131(6) . . .
122(6) . . .
121(6) . . .
135(6) . . .
127(6) . . .
122(6) . . .
120(6) . . .
113(6) . . .
126(6) . . .
131(6) . . .
130(6) . . .
138(7) . . .
130(6) . . .
126(6) . . .
111(6) . . .
117(6) . . .
115(6) . . .
120(6) . . .
135(6) . . .
121(6) . . .
117(6) . . .
116(6) . . .
105(5) . . .
126(6) . . .
126(6) . . .
126(6) . . .
140(6) . . .
132(6) . . .
112(6) . . .
138(6) . . .
134(6) . . .
118(6) . . .
124(6) . . .
120(6) . . .
116(6) . . .
123(6) . . .
117(6) . . .
120(6) . . .
115(6) . . .
119(6) . . .
131(6) . . .
120(6) . . .
121(6) . . .
111(6) . . .
103(5) . . .
121(6) . . .
107(6) . . .
126(6) . . .
118(6) . . .
130(6) . . .
129(6) . . .
112(6) . . .
117(6) . . .
115(6) . . .
132(6) . . .
116(6) . . .
128(6) . . .
126(6) . . .
129(6) . . .
126(6) . . .
125(6) . . .
111(6) . . .
104(5) . . .
125(6) . . .
135(6) . . .
123(6) . . .
131(6) . . .
126(6) . . .
124(6) . . .
136(6) . . .
127(6) . . .
141(7) . . .
121(6) . . .
135(6) . . .
126(6) . . .
127(6) . . .
130(6) . . .
129(6) . . .
128(6) . . .
129(6) . . .
114(6) . . .
111(6) . . .
127(6) . . .
127(6) . . .
131(6) . . .
117(6) . . .
124(6) . . .
125(6) . . .
129(6) . . .
124(6) . . .
117(6) . . .
127(6) . . .
125(6) . . .
124(6) . . .
114(6) . . .
120(6) . . .
101(6) . . .
127(6) . . .
117(6) . . .
127(6) . . .
130(6) . . .
134(6) . . .
116(6) . . .
123(6) . . .
135(6) . . .
124(6) . . .
122(6) . . .
131(6) . . .
126(6) . . .
108(6) . . .
112(6) . . .
123(6) . . .
117(6) . . .
130(6) . . .
116(6) . . .
122(6) . . .
117(6) . . .
118(6) . . .
123(6) . . .
118(6) . . .
124(6) . . .
131(6) . . .
117(6) . . .
128(6) . . .
119(6) . . .
106(6) . . .
115(6) . . .
119(6) . . .
117(6) . . .
123(6) . . .
116(6) . . .
118(6) . . .
114(5) . . .
115(6) . . .
120(6) . . .
124(6) . . .
130(6) . . .
132(6) . . .
121(6) . . .
126(6) . . .
116(6) . . .
122(6) . . .
128(6) . . .
139(6) . . .
130(6) . . .
127(6) . . .
104(5) . . .
110(5) . . .
126(6) . . .
126(6) . . .
131(6) . . .
131(6) . . .
116(6) . . .
125(6) . . .
103(5) . . .
140(6) . . .
119(6) . . .
121(6) . . .
129(6) . . .
125(6) . . .
127(6) . . .
121(6) . . .
111(6) . . .
121(6) . . .
118(6) . . .
130(6) . . .
127(6) . . .
123(6) . . .
117(6) . . .
124(6) . . .
118(6) . . .
121(6) . . .
106(6) . . .
120(6) . . .
133(6) . . .
122(6) . . .
115(6) . . .
121(6) . . .
119(6) . . .
127(6) . . .
134(6) . . .
121(6) . . .
127(6) . . .
112(6) . . .
131(6) . . .
121(6) . . .
123(6) . . .
120(6) . . .
126(6) . . .
118(6) . . .
110(5) . . .
116(6) . . .
121(6) . . .
125(6) . . .
117(6) . . .
113(6) . . .
120(6) . . .
124(6) . . .
103(5) . . .
147(7) . . .
112(6) . . .
127(6) . . .
135(6) . . .
122(6) . . .
125(6) . . .
115(6) . . .
107(6) . . .
118(6) . . .
116(6) . . .
128(6) . . .
121(6) . . .
119(6) . . .
140(6) . . .
114(6) . . .
112(6) . . .
119(6) . . .
125(6) . . .
118(6) . . .
122(6) . . .
118(6) . . .
129(6) . . .
111(6) . . .
127(6) . . .
125(6) . . .
126(6) . . .
120(6) . . .
116(6) . . .
113(6) . . .
133(6) . . .
133(6) . . .
116(6) . . .
119(6) . . .
120(6) . . .
143(7) . . .
114(6) . . .
121(6) . . .
124(6) . . .
118(6) . . .
127(6) . . .
109(5) . . .
115(6) . . .
123(6) . . .
117(6) . . .
121(6) . . .
141(6) . . .
126(6) . . .
132(6) . . .
119(6) . . .
113(6) . . .
136(6) . . .
117(6) . . .
126(6) . . .
126(6) . . .
122(6) . . .
115(6) . . .
143(6) . . .
127(6) . . .
127(6) . . .
124(6) . . .
120(6) . . .
129(6) . . .
115(6) . . .
123(6) . . .
122(6) . . .
130(6) . . .
128(6) . . .
116(6) . . .
121(6) . . .
121(6) . . .
128(6) . . .
127(6) . . .
129(6) . . .
130(6) . . .
132(6) . . .
123(6) . . .
136(6) . . .
146(7) . . .
152(7) . . .
125(6) . . .
110(5) . . .
137(6) . . .
128(6) . . .
118(6) . . .
122(6) . . .
132(6) . . .
131(6) . . .
126(6) . . .
125(6) . . .
118(6) . . .
137(6) . . .
120(6) . . .
127(6) . . .
122(6) . . .
116(6) . . .
117(6) . . .
122(6) . . .
139(6) . . .
107(6) . . .
110(5) . . .
135(6) . . .
127(6) . . .
122(6) . . .
130(6) . . .
125(6) . . .
135(6) . . .
116(6) . . .
120(6) . . .
123(6) . . .
130(6) . . .
136(6) . . .
125(6) . . .
128(6) . . .
121(6) . . .
112(5) . . .
114(6) . . .
134(6) . . .
124(6) . . .
111(6) . . .
116(6) . . .
125(6) . . .
118(6) . . .
114(6) . . .
130(6) . . .
119(6) . . .
125(6) . . .
135(6) . . .
122(6) . . .
134(6) . . .
121(6) . . .
105(5) . . .
122(6) . . .
120(6) . . .
134(6) . . .
137(6) . . .
118(6) . . .
134(7) . . .
122(6) . . .
119(6) . . .
114(6) . . .
109(5) . . .
138(7) . . .
128(6) . . .
121(6) . . .
132(6) . . .
127(6) . . .
116(6) . . .
127(6) . . .
129(6) . . .
115(6) . . .
127(6) . . .
116(6) . . .
127(6) . . .
128(6) . . .
118(6) . . .
129(6) . . .
125(6) . . .
111(6) . . .
125(6) . . .
115(6) . . .
115(6) . . .
129(6) . . .
114(6) . . .
116(6) . . .
109(5) . . .
128(6) . . .
123(6) . . .
116(6) . . .
132(6) . . .
122(6) . . .
115(6) . . .
108(6) . . .
116(6) . . .
119(6) . . .
115(6) . . .
129(6) . . .
104(5) . . .
101(5) . . .
125(6) . . .
128(6) . . .
122(6) . . .
113(6) . . .
130(6) . . .
131(6) . . .
119(6) . . .
132(6) . . .
121(6) . . .
138(6) . . .
113(6) . . .
113(6) . . .
131(6) . . .
117(6) . . .
125(6) . . .
115(6) . . .
119(6) . . .
118(6) . . .
123(6) . . .
135(6) . . .
122(6) . . .
117(6) . . .
117(6) . . .
118(6) . . .
112(6) . . .
129(6) . . .
123(6) . . .
110(6) . . .
131(6) . . .
115(6) . . .
111(5) . . .
114(6) . . .
114(6) . . .
117(6) . . .
108(5) . . .
128(6) . . .
114(6) . . .
121(6) . . .
126(6) . . .
117(6) . . .
144(6) . . .
131(6) . . .
117(6) . . .
121(6) . . .
131(6) . . .
121(6) . . .
119(6) . . .
124(6) . . .
119(6) . . .
121(6) . . .
107(5) . . .
142(7) . . .
132(6) . . .
116(6) . . .
111(6) . . .
130(6) . . .
122(6) . . .
130(6) . . .
121(6) . . .
126(6) . . .
116(6) . . .
116(6) . . .
140(6) . . .
154(6) . . .
118(6) . . .
109(6) . . .
113(6) . . .
112(6) . . .
126(6) . . .
128(6) . . .
121(6) . . .
125(6) . . .
125(6) . . .
127(6) . . .
132(6) . . .
126(6) . . .
131(6) . . .
131(6) . . .
111(5) . . .
123(6) . . .
135(6) . . .
127(6) . . .
122(6) . . .
116(6) . . .
123(6) . . .
101(5) . . .
108(6) . . .
111(6) . . .
117(6) . . .
110(6) . . .
119(6) . . .
130(6) . . .
122(6) . . .
122(6) . . .
115(6) . . .
120(6) . . .
132(6) . . .
136(6) . . .
130(6) . . .
108(5) . . .
115(6) . . .
139(6) . . .
123(6) . . .
123(6) . . .
115(6) . . .
135(7) . . .
124(6) . . .
114(6) . . .
115(6) . . .
118(6) . . .
126(6) . . .
135(6) . . .
135(6) . . .
120(6) . . .
133(6) . . .
127(6) . . .
116(6) . . .
124(6) . . .
114(5) . . .
119(6) . . .
129(6) . . .
115(6) . . .
123(6) . . .
119(6) . . .
121(6) . . .
120(6) . . .
113(6) . . .
120(6) . . .
118(6) . . .
110(6) . . .
110(6) . . .
132(6) . . .
117(6) . . .
118(6) . . .
133(6) . . .
142(7) . . .
119(6) . . .
118(6) . . .
135(6) . . .
121(6) . . .
116(6) . . .
107(5) . . .
117(6) . . .
116(6) . . .
111(6) . . .
124(6) . . .
128(6) . . .
118(6) . . .
119(6) . . .
127(6) . . .
138(6) . . .
126(6) . . .
108(5) . . .
119(6) . . .
113(6) . . .
124(6) . . .
118(6) . . .
114(6) . . .
131(6) . . .
135(7) . . .
117(6) . . .
115(6) . . .
126(6) . . .
113(6) . . .
123(6) . . .
118(6) . . .
116(6) . . .
120(6) . . .
112(6) . . .
110(6) . . .
126(6) . . .
115(6) . . .
106(5) . . .
119(6) . . .
108(6) . . .
102(5) . . .
121(6) . . .
112(6) . . .
121(6) . . .
133(6) . . .
113(6) . . .
127(6) . . .
126(6) . . .
105(6) . . .
103(6) . . .
107(6) . . .
114(6) . . .
124(6) . . .
113(6) . . .
134(6) . . .
125(6) . . .
120(6) . . .
121(6) . . .
115(6) . . .
116(6) . . .
116(6) . . .
108(5) . . .
110(6) . . .
110(6) . . .
119(6) . . .
127(6) . . .
129(6) . . .
123(6) . . .
110(6) . . .
116(6) . . .
119(6) . . .
119(6) . . .
117(6) . . .
132(6) . . .
128(6) . . .
121(6) . . .
125(6) . . .
129(6) . . .
119(6) . . .
121(6) . . .
124(6) . . .
130(6) . . .
111(6) . . .
119(6) . . .
120(6) . . .
125(6) . . .
116(6) . . .
117(6) . . .
115(6) . . .
122(6) . . .
108(5) . . .
133(6) . . .
120(6) . . .
116(6) . . .
130(6) . . .
120(6) . . .
120(6) . . .
124(6) . . .
117(6) . . .
126(6) . . .
122(6) . . .
128(6) . . .
113(6) . . .
123(6) . . .
115(6) . . .
138(6) . . .
121(6) . . .
115(6) . . .
127(6) . . .
122(6) . . .
134(6) . . .
129(6) . . .
113(6) . . .
112(6) . . .
126(6) . . .
122(6) . . .
121(6) . . .
124(6) . . .
127(6) . . .
111(5) . . .
119(6) . . .
124(6) . . .
135(6) . . .
111(6) . . .
117(6) . . .
113(6) . . .
121(6) . . .
141(7) . . .
125(6) . . .
122(6) . . .
118(6) . . .
115(6) . . .
127(6) . . .
117(6) . . .
126(6) . . .
123(6) . . .
115(6) . . .
131(6) . . .
116(6) . . .
120(6) . . .
110(5) . . .
127(6) . . .
119(6) . . .
116(6) . . .
102(5) . . .
122(6) . . .
124(6) . . .
134(6) . . .
113(6) . . .
104(5) . . .
107(6) . . .
122(6) . . .
110(6) . . .
126(6) . . .
116(6) . . .
115(6) . . .
118(6) . . .
121(6) . . .
112(6) . . .
126(6) . . .
131(6) . . .
128(6) . . .
112(6) . . .
116(6) . . .
124(6) . . .
130(6) . . .
110(6) . . .
107(6) . . .
110(5) . . .
130(6) . . .
122(6) . . .
119(6) . . .
127(6) . . .
133(6) . . .
117(6) . . .
123(6) . . .
123(6) . . .
123(6) . . .
127(6) . . .
112(5) . . .
118(6) . . .
126(6) . . .
110(6) . . .
110(5) . . .
115(6) . . .
120(6) . . .
114(6) . . .
117(6) . . .
128(6) . . .
121(6) . . .
123(6) . . .
117(6) . . .
114(6) . . .
117(6) . . .
129(6) . . .
103(6) . . .
121(6) . . .
132(6) . . .
122(6) . . .
124(6) . . .
125(6) . . .
134(6) . . .
130(6) . . .
124(6) . . .
125(6) . . .
121(6) . . .
113(6) . . .
109(5) . . .
123(6) . . .
120(6) . . .
130(6) . . .
107(6) . . .
123(6) . . .
112(5) . . .
111(6) . . .
117(6) . . .
115(6) . . .
115(6) . . .
121(6) . . .
125(6) . . .
130(6) . . .
136(7) . . .
125(6) . . .
123(6) . . .
114(6) . . .
113(6) . . .
107(6) . . .
114(6) . . .
122(6) . . .
131(6) . . .
130(6) . . .
130(6) . . .
125(6) . . .
130(6) . . .
116(6) . . .
118(6) . . .
121(6) . . .
116(6) . . .
122(6) . . .
112(6) . . .
118(6) . . .
119(6) . . .
120(6) . . .
126(6) . . .
104(6) . . .
122(6) . . .
119(6) . . .
133(6) . . .
130(6) . . .
124(6) . . .
121(6) . . .
123(6) . . .
114(6) . . .
127(6) . . .
114(6) . . .
112(6) . . .
110(5) . . .
133(6) . . .
121(6) . . .
133(6) . . .
118(6) . . .
111(5) . . .
124(6) . . .
130(6) . . .
125(6) . . .
114(6) . . .
125(6) . . .
123(6) . . .
126(6) . . .
121(6) . . .
127(6) . . .
115(6) . . .
126(6) . . .
110(5) . . .
114(6) . . .
143(7) . . .
121(6) . . .
111(5) . . .
120(6) . . .
117(6) . . .
107(6) . . .
119(6) . . .
128(6) . . .
120(6) . . .
126(6) . . .
123(6) . . .
126(6) . . .
122(6) . . .
128(6) . . .
143(7) . . .
128(6) . . .
128(6) . . .
120(6) . . .
116(6) . . .
126(6) . . .
131(6) . . .
141(6) . . .
117(6) . . .
117(6) . . .
113(6) . . .
111(6) . . .
114(6) . . .
111(6) . . .
117(6) . . .
118(6) . . .
115(6) . . .
122(6) . . .
130(6) . . .
119(6) . . .
127(6) . . .
124(6) . . .
137(6) . . .
127(6) . . .
131(6) . . .
114(6) . . .
112(6) . . .
115(6) . . .
135(6) . . .
132(6) . . .
126(6) . . .
122(6) . . .
113(6) . . .
109(6) . . .
108(6) . . .
118(6) . . .
126(6) . . .
123(6) . . .
116(6) . . .
124(6) . . .
140(7) . . .
121(6) . . .
111(5) . . .
109(5) . . .
119(6) . . .
122(6) . . .
126(6) . . .
123(6) . . .
129(6) . . .
109(6) . . .
118(6) . . .
127(6) . . .
114(6) . . .
111(6) . . .
119(6) . . .
118(6) . . .
130(6) . . .
118(6) . . .
123(6) . . .
124(6) . . .
126(6) . . .
131(6) . . .
108(6) . . .
116(6) . . .
106(5) . . .
121(6) . . .
123(6) . . .
130(6) . . .
134(6) . . .
112(6) . . .
124(6) . . .
109(5) . . .
133(6) . . .
125(6) . . .
113(6) . . .
119(6) . . .
107(5) . . .
111(6) . . .
121(6) . . .
121(6) . . .
101(5) . . .
118(6) . . .
119(6) . . .
115(6) . . .
113(6) . . .
128(6) . . .
128(6) . . .
128(6) . . .
108(6) . . .
109(5) . . .
123(6) . . .
124(6) . . .
121(6) . . .
111(6) . . .
115(6) . . .
118(6) . . .
118(6) . . .
110(6) . . .
128(6) . . .
125(6) . . .
113(5) . . .
123(6) . . .
119(6) . . .
117(6) . . .
119(6) . . .
112(5) . . .
120(6) . . .
121(6) . . .
119(6) . . .
113(6) . . .
122(6) . . .
111(6) . . .
108(6) . . .
104(6) . . .
113(6) . . .
121(6) . . .
109(6) . . .
130(6) . . .
129(6) . . .
117(6) . . .
118(6) . . .
121(6) . . .
109(6) . . .
122(6) . . .
108(5) . . .
122(6) . . .
129(6) . . .
113(6) . . .
116(6) . . .
122(6) . . .
125(6) . . .
119(6) . . .
122(6) . . .
126(6) . . .
133(6) . . .
117(6) . . .
123(6) . . .
120(6) . . .
121(6) . . .
104(5) . . .
99(5) . . .
119(6) . . .
118(6) . . .
116(6) . . .
111(5) . . .
119(6) . . .
98(5) . . .
110(6) . . .
116(6) . . .
115(6) . . .
125(6) . . .
120(6) . . .
118(6) . . .
116(6) . . .
129(6) . . .
104(5) . . .
115(6) . . .
123(6) . . .
128(6) . . .
122(6) . . .
116(6) . . .
117(6) . . .
118(6) . . .
125(6) . . .
119(6) . . .
113(6) . . .
121(6) . . .
133(6) . . .
122(6) . . .
119(6) . . .
128(6) . . .
121(6) . . .
116(6) . . .
129(6) . . .
110(5) . . .
129(6) . . .
119(6) . . .
109(6) . . .
109(5) . . .
122(6) . . .
124(6) . . .
114(6) . . .
106(5) . . .
125(6) . . .
138(6) . . .
125(6) . . .
123(6) . . .
118(6) . . .
115(6) . . .
123(6) . . .
119(6) . . .
112(6) . . .
114(6) . . .
113(6) . . .
113(6) . . .
117(6) . . .
117(6) . . .
95(5) . . .
107(5) . . .
118(6) . . .
115(6) . . .
123(6) . . .
112(6) . . .
125(6) . . .
121(6) . . .
127(6) . . .
131(6) . . .
126(6) . . .
102(5) . . .
128(6) . . .
118(6) . . .
118(6) . . .
135(6) . . .
117(6) . . .
119(6) . . .
110(6) . . .
118(6) . . .
110(6) . . .
118(6) . . .
121(6) . . .
121(6) . . .
119(6) . . .
105(5) . . .
115(6) . . .
113(6) . . .
116(6) . . .
114(6) . . .
114(6) . . .
113(6) . . .
126(6) . . .
114(6) . . .
112(6) . . .
121(6) . . .
122(6) . . .
127(6) . . .
119(6) . . .
124(6) . . .
113(5) . . .
125(6) . . .
126(6) . . .
105(6) . . .
118(6) . . .
121(6) . . .
123(6) . . .
130(6) . . .
121(6) . . .
116(6) . . .
117(6) . . .
115(6) . . .
118(6) . . .
120(6) . . .
119(6) . . .
121(6) . . .
125(6) . . .
109(6) . . .
127(6) . . .
109(6) . . .
124(6) . . .
112(6) . . .
109(6) . . .
119(6) . . .
120(6) . . .
118(6) . . .
106(6) . . .
107(6) . . .
119(6) . . .
120(6) . . .
108(5) . . .
116(6) . . .
127(6) . . .
125(6) . . .
114(6) . . .
109(5) . . .
131(6) . . .
124(6) . . .
112(6) . . .
103(5) . . .
122(6) . . .
101(5) . . .
118(6) . . .
115(6) . . .
124(6) . . .
131(6) . . .
127(6) . . .
113(6) . . .
112(6) . . .
113(6) . . .
113(6) . . .
101(5) . . .
130(6) . . .
120(6) . . .
114(6) . . .
133(6) . . .
113(5) . . .
118(6) . . .
113(6) . . .
119(6) . . .
124(6) . . .
113(5) . . .
120(6) . . .
120(6) . . .
108(5) . . .
120(6) . . .
109(6) . . .
120(6) . . .
122(6) . . .
109(5) . . .
128(6) . . .
106(5) . . .
111(6) . . .
118(6) . . .
107(5) . . .
110(5) . . .
116(6) . . .
109(6) . . .
123(6) . . .
121(6) . . .
115(6) . . .
127(6) . . .
126(6) . . .
126(6) . . .
110(5) . . .
112(6) . . .
104(5) . . .
117(6) . . .
107(5) . . .
120(6) . . .
119(6) . . .
119(6) . . .
128(6) . . .
126(6) . . .
119(6) . . .
129(6) . . .
121(6) . . .
111(6) . . .
122(6) . . .
112(6) . . .
112(6) . . .
122(6) . . .
128(6) . . .
110(5) . . .
123(6) . . .
133(6) . . .
113(6) . . .
117(6) . . .
106(5) . . .
116(6) . . .
113(6) . . .
97(6) . . .
107(6) . . .
104(5) . . .
124(6) . . .
107(6) . . .
90(5) . . .
132(6) . . .
135(6) . . .
117(6) . . .
115(6) . . .
111(6) . . .
104(6) . . .
116(6) . . .
126(6) . . .
113(6) . . .
109(6) . . .
117(6) . . .
120(6) . . .
107(6) . . .
119(6) . . .
123(6) . . .
131(6) . . .
127(6) . . .
120(6) . . .
116(6) . . .
129(6) . . .
135(6) . . .
105(5) . . .
105(5) . . .
134(6) . . .
122(6) . . .
111(6) . . .
116(6) . . .
107(6) . . .
113(6) . . .
111(6) . . .
114(6) . . .
109(5) . . .
112(6) . . .
107(6) . . .
103(5) . . .
123(6) . . .
138(6) . . .
114(6) . . .
117(6) . . .
111(6) . . .
118(6) . . .
118(6) . . .
109(6) . . .
113(6) . . .
102(5) . . .
115(6) . . .
113(6) . . .
110(6) . . .
121(6) . . .
108(5) . . .
116(6) . . .
123(6) . . .
107(5) . . .
123(6) . . .
119(6) . . .
112(5) . . .
121(6) . . .
120(6) . . .
116(6) . . .
116(6) . . .
93(5) . . .
119(6) . . .
115(6) . . .
115(6) . . .
119(6) . . .
111(5) . . .
108(6) . . .
106(6) . . .
108(6) . . .
109(6) . . .
109(5) . . .
119(6) . . .
128(6) . . .
130(6) . . .
117(6) . . .
125(6) . . .
107(6) . . .
111(6) . . .
103(5) . . .
129(6) . . .
102(5) . . .
105(5) . . .
100(5) . . .
111(6) . . .
116(6) . . .
113(6) . . .
110(6) . . .
111(6) . . .
107(5) . . .
133(6) . . .
116(6) . . .
119(6) . . .
119(6) . . .
124(6) . . .
102(5) . . .
108(6) . . .
108(6) . . .
119(6) . . .
111(6) . . .
111(6) . . .
124(6) . . .
119(6) . . .
110(6) . . .
115(6) . . .
117(6) . . .
115(6) . . .
107(5) . . .
123(6) . . .
115(6) . . .
123(6) . . .
113(6) . . .
118(6) . . .
107(6) . . .
103(5) . . .
111(5) . . .
117(6) . . .
125(6) . . .
128(6) . . .
113(6) . . .
122(6) . . .
120(6) . . .
102(5) . . .
120(6) . . .
108(5) . . .
106(5) . . .
111(6) . . .
113(6) . . .
121(6) . . .
100(5) . . .
129(6) . . .
121(6) . . .
126(6) . . .
127(6) . . .
104(5) . . .
107(5) . . .
119(6) . . .
108(6) . . .
106(6) . . .
116(6) . . .
130(6) . . .
113(6) . . .
121(6) . . .
127(6) . . .
122(6) . . .
111(6) . . .
111(6) . . .
107(6) . . .
114(6) . . .
123(6) . . .
107(5) . . .
106(6) . . .
114(6) . . .
108(6) . . .
101(5) . . .
106(5) . . .
99(5) . . .
103(6) . . .
111(6) . . .
109(5) . . .
117(6) . . .
122(6) . . .
111(6) . . .
113(6) . . .
106(5) . . .
110(6) . . .
105(5) . . .
122(6) . . .
114(6) . . .
112(6) . . .
100(5) . . .
104(5) . . .
105(6) . . .
113(6) . . .
121(6) . . .
109(6) . . .
111(6) . . .
127(6) . . .
111(6) . . .
120(6) . . .
109(5) . . .
104(6) . . .
122(6) . . .
120(6) . . .
107(5) . . .
114(6) . . .
123(6) . . .
123(6) . . .
114(6) . . .
113(5) . . .
106(6) . . .
98(6) . . .
113(6) . . .
115(6) . . .
105(5) . . .
113(6) . . .
112(6) . . .
126(6) . . .
119(6) . . .
107(5) . . .
107(6) . . .
115(6) . . .
104(5) . . .
123(6) . . .
100(5) . . .
117(6) . . .
109(6) . . .
115(6) . . .
114(6) . . .
104(5) . . .
121(6) . . .
103(5) . . .
107(5) . . .
110(5) . . .
107(6) . . .
118(6) . . .
120(6) . . .
105(5) . . .
128(6) . . .
121(6) . . .
108(6) . . .
122(6) . . .
126(6) . . .
112(5) . . .
107(5) . . .
121(6) . . .
120(6) . . .
104(5) . . .
107(5) . . .
101(5) . . .
112(6) . . .
102(5) . . .
111(6) . . .
114(6) . . .
100(5) . . .
109(6) . . .
115(6) . . .
112(5) . . .
120(6) . . .
123(6) . . .
111(6) . . .
92(5) . . .
108(5) . . .
113(6) . . .
95(5) . . .
116(6) . . .
109(6) . . .
130(6) . . .
112(6) . . .
120(6) . . .
111(6) . . .
102(6) . . .
117(6) . . .
112(6) . . .
117(6) . . .
108(6) . . .
109(6) . . .
107(5) . . .
117(6) . . .
115(6) . . .
135(7) . . .
114(6) . . .
113(6) . . .
104(5) . . .
124(6) . . .
113(6) . . .
112(6) . . .
117(6) . . .
134(6) . . .
119(6) . . .
116(6) . . .
108(5) . . .
108(5) . . .
114(6) . . .
111(6) . . .
113(6) . . .
106(6) . . .
106(5) . . .
110(6) . . .
111(6) . . .
104(5) . . .
113(6) . . .
122(6) . . .
129(6) . . .
111(6) . . .
128(6) . . .
141(6) . . .
107(5) . . .
109(5) . . .
106(6) . . .
102(5) . . .
116(6) . . .
121(6) . . .
104(5) . . .
115(6) . . .
108(6) . . .
109(5) . . .
108(5) . . .
124(6) . . .
124(6) . . .
111(6) . . .
113(5) . . .
110(6) . . .
115(6) . . .
118(6) . . .
112(6) . . .
117(6) . . .
117(6) . . .
119(6) . . .
125(6) . . .
118(6) . . .
116(6) . . .
109(6) . . .
118(6) . . .
121(6) . . .
109(5) . . .
124(6) . . .
117(6) . . .
121(6) . . .
112(6) . . .
116(6) . . .
124(6) . . .
116(6) . . .
109(6) . . .
121(6) . . .
118(6) . . .
106(5) . . .
101(5) . . .
127(6) . . .
113(6) . . .
115(6) . . .
118(6) . . .
112(6) . . .
96(5) . . .
117(6) . . .
106(5) . . .
121(6) . . .
112(6) . . .
111(6) . . .
123(6) . . .
125(6) . . .
113(6) . . .
115(6) . . .
124(6) . . .
92(5) . . .
101(5) . . .
109(5) . . .
121(6) . . .
110(6) . . .
98(5) . . .
107(5) . . .
108(5) . . .
116(6) . . .
99(5) . . .
117(6) . . .
122(6) . . .
111(5) . . .
108(6) . . .
103(5) . . .
116(6) . . .
112(6) . . .
122(6) . . .
121(6) . . .
110(6) . . .
111(6) . . .
114(6) . . .
126(6) . . .
120(6) . . .
116(6) . . .
100(5) . . .
110(5) . . .
114(6) . . .
110(6) . . .
117(6) . . .
107(5) . . .
121(6) . . .
119(6) . . .
103(6) . . .
108(6) . . .
111(6) . . .
128(6) . . .
91(5) . . .
118(6) . . .
114(6) . . .
98(5) . . .
105(5) . . .
101(6) . . .
105(6) . . .
109(6) . . .
125(6) . . .
110(6) . . .
112(6) . . .
119(6) . . .
125(6) . . .
112(6) . . .
119(6) . . .
109(6) . . .
104(6) . . .
105(5) . . .
104(5) . . .
121(6) . . .
114(6) . . .
108(6) . . .
119(6) . . .
108(5) . . .
122(6) . . .
119(6) . . .
107(6) . . .
107(6) . . .
123(6) . . .
112(6) . . .
111(6) . . .
115(6) . . .
120(6) . . .
103(5) . . .
112(6) . . .
121(6) . . .
109(6) . . .
103(5) . . .
119(6) . . .
111(6) . . .
127(6) . . .
122(6) . . .
113(6) . . .
112(5) . . .
101(5) . . .
103(5) . . .
105(6) . . .
114(6) . . .
110(6) . . .
115(6) . . .
110(6) . . .
99(5) . . .
98(5) . . .
119(6) . . .
115(6) . . .
124(6) . . .
102(5) . . .
111(6) . . .
102(5) . . .
111(6) . . .
114(6) . . .
105(5) . . .
104(5) . . .
120(6) . . .
114(6) . . .
92(5) . . .
108(6) . . .
110(5) . . .
107(5) . . .
115(6) . . .
123(6) . . .
126(6) . . .
119(6) . . .
120(6) . . .
131(6) . . .
105(6) . . .
117(6) . . .
119(6) . . .
124(6) . . .
107(5) . . .
113(6) . . .
118(6) . . .
118(6) . . .
115(6) . . .
122(6) . . .
105(6) . . .
105(5) . . .
107(5) . . .
124(6) . . .
105(6) . . .
91(5) . . .
105(5) . . .
125(6) . . .
132(6) . . .
107(5) . . .
116(6) . . .
114(6) . . .
115(6) . . .
111(6) . . .
123(6) . . .
101(5) . . .
85(5) . . .
98(5) . . .
93(5) . . .
115(6) . . .
112(6) . . .
106(5) . . .
101(5) . . .
122(6) . . .
127(6) . . .
111(6) . . .
108(5) . . .
107(5) . . .
116(6) . . .
122(6) . . .
113(6) . . .
118(6) . . .
103(5) . . .
123(6) . . .
107(6) . . .
110(6) . . .
119(6) . . .
104(5) . . .
112(6) . . .
118(6) . . .
115(6) . . .
104(5) . . .
110(6) . . .
113(6) . . .
106(6) . . .
100(5) . . .
107(5) . . .
108(6) . . .
120(6) . . .
125(6) . . .
107(6) . . .
119(6) . . .
118(6) . . .
111(6) . . .
121(6) . . .
113(6) . . .
111(6) . . .
112(6) . . .
97(5) . . .
106(6) . . .
104(5) . . .
111(5) . . .
124(6) . . .
107(6) . . .
107(6) . . .
102(5) . . .
113(6) . . .
118(6) . . .
112(6) . . .
101(5) . . .
105(5) . . .
110(6) . . .
87(5) . . .
104(6) . . .
113(6) . . .
118(6) . . .
109(5) . . .
89(5) . . .
113(6) . . .
116(6) . . .
118(6) . . .
104(5) . . .
113(6) . . .
110(6) . . .
121(6) . . .
111(5) . . .
111(5) . . .
117(6) . . .
131(7) . . .
111(6) . . .
108(5) . . .
109(5) . . .
114(6) . . .
111(6) . . .
123(6) . . .
123(6) . . .
113(6) . . .
126(6) . . .
122(6) . . .
115(6) . . .
86(5) . . .
111(6) . . .
101(5) . . .
107(6) . . .
105(5) . . .
106(5) . . .
110(6) . . .
103(6) . . .
118(6) . . .
110(5) . . .
114(6) . . .
117(6) . . .
110(6) . . .
121(6) . . .
117(6) . . .
107(5) . . .
95(5) . . .
112(6) . . .
106(5) . . .
113(6) . . .
118(6) . . .
115(6) . . .
119(6) . . .
103(5) . . .
107(5) . . .
107(5) . . .
106(5) . . .
112(6) . . .
103(5) . . .
112(6) . . .
107(5) . . .
99(5) . . .
128(7) . . .
104(6) . . .
119(6) . . .
122(6) . . .
105(5) . . .
106(6) . . .
103(6) . . .
109(5) . . .
112(6) . . .
121(6) . . .
110(6) . . .
103(5) . . .
117(6) . . .
105(5) . . .
97(5) . . .
106(6) . . .
116(6) . . .
111(5) . . .
127(6) . . .
114(6) . . .
115(6) . . .
99(5) . . .
109(5) . . .
112(6) . . .
104(6) . . .
95(5) . . .
118(6) . . .
93(5) . . .
96(5) . . .
127(6) . . .
107(5) . . .
104(5) . . .
107(5) . . .
112(6) . . .
99(5) . . .
115(6) . . .
122(6) . . .
117(6) . . .
113(6) . . .
110(6) . . .
97(5) . . .
106(5) . . .
112(5) . . .
113(6) . . .
104(6) . . .
105(6) . . .
88(5) . . .
104(5) . . .
101(5) . . .
102(6) . . .
99(5) . . .
112(6) . . .
107(5) . . .
116(6) . . .
103(6) . . .
108(6) . . .
107(5) . . .
110(5) . . .
104(6) . . .
96(5) . . .
112(6) . . .
114(6) . . .
109(5) . . .
109(6) . . .
92(5) . . .
106(6) . . .
119(6) . . .
96(5) . . .
96(5) . . .
107(6) . . .
110(6) . . .
118(6) . . .
113(6) . . .
120(6) . . .
98(5) . . .
106(6) . . .
126(6) . . .
107(6) . . .
105(6) . . .
112(6) . . .
114(6) . . .
91(5) . . .
106(5) . . .
105(6) . . .
93(5) . . .
122(6) . . .
116(6) . . .
117(6) . . .
130(7) . . .
107(5) . . .
103(5) . . .
112(5) . . .
98(5) . . .
121(6) . . .
115(6) . . .
130(6) . . .
105(5) . . .
102(6) . . .
106(6) . . .
106(6) . . .
116(6) . . .
102(5) . . .
101(5) . . .
104(6) . . .
116(6) . . .
104(5) . . .
97(5) . . .
97(5) . . .
107(6) . . .
110(6) . . .
109(5) . . .
112(6) . . .
109(6) . . .
103(6) . . .
111(6) . . .
103(5) . . .
98(5) . . .
121(6) . . .
110(6) . . .
99(5) . . .
109(5) . . .
112(6) . . .
110(6) . . .
111(6) . . .
107(6) . . .
96(5) . . .
116(6) . . .
117(6) . . .
116(6) . . .
115(6) . . .
114(6) . . .
85(5) . . .
109(6) . . .
97(5) . . .
114(6) . . .
101(5) . . .
112(6) . . .
107(6) . . .
117(6) . . .
124(6) . . .
134(6) . . .
120(6) . . .
107(6) . . .
107(6) . . .
94(5) . . .
99(5) . . .
103(5) . . .
113(6) . . .
105(5) . . .
117(6) . . .
111(5) . . .
105(5) . . .
115(6) . . .
122(6) . . .
115(6) . . .
107(5) . . .
97(5) . . .
106(6) . . .
109(6) . . .
104(5) . . .
120(6) . . .
113(6) . . .
124(6) . . .
103(5) . . .
114(6) . . .
107(5) . . .
108(6) . . .
110(6) . . .
110(6) . . .
111(5) . . .
116(6) . . .
106(6) . . .
118(6) . . .
108(5) . . .
112(5) . . .
115(6) . . .
105(6) . . .
110(6) . . .
117(6) . . .
116(6) . . .
105(5) . . .
97(5) . . .
110(6) . . .
105(5) . . .
108(5) . . .
108(5) . . .
99(5) . . .
104(5) . . .
115(6) . . .
98(5) . . .
127(6) . . .
122(6) . . .
107(6) . . .
98(5) . . .
107(5) . . .
103(5) . . .
115(6) . . .
112(6) . . .
106(5) . . .
104(5) . . .
107(6) . . .
101(6) . . .
111(6) . . .
103(5) . . .
91(5) . . .
123(6) . . .
114(6) . . .
105(5) . . .
113(6) . . .
101(5) . . .
101(5) . . .
103(6) . . .
104(5) . . .
100(5) . . .
110(6) . . .
93(5) . . .
107(6) . . .
107(6) . . .
102(5) . . .
91(5) . . .
104(6) . . .
99(5) . . .
99(5) . . .
114(6) . . .
109(6) . . .
115(6) . . .
109(6) . . .
103(5) . . .
99(5) . . .
100(5) . . .
111(6) . . .
115(6) . . .
97(5) . . .
94(5) . . .
107(6) . . .
102(6) . . .
109(6) . . .
119(6) . . .
104(5) . . .
112(6) . . .
112(6) . . .
106(6) . . .
95(5) . . .
109(5) . . .
123(6) . . .
120(6) . . .
119(6) . . .
97(5) . . .
98(5) . . .
105(5) . . .
118(6) . . .
106(6) . . .
103(5) . . .
119(6) . . .
100(5) . . .
124(6) . . .
113(6) . . .
103(5) . . .
100(5) . . .
103(5) . . .
119(6) . . .
118(6) . . .
109(5) . . .
124(6) . . .
107(6) . . .
103(5) . . .
121(6) . . .
104(5) . . .
100(5) . . .
107(6) . . .
122(6) . . .
97(5) . . .
102(5) . . .
101(5) . . .
105(6) . . .
108(6) . . .
93(5) . . .
92(5) . . .
113(6) . . .
102(5) . . .
104(6) . . .
99(5) . . .
118(6) . . .
110(6) . . .
105(6) . . .
112(6) . . .
104(5) . . .
112(5) . . .
112(6) . . .
117(6) . . .
99(5) . . .
109(5) . . .
104(5) . . .
101(5) . . .
112(6) . . .
95(5) . . .
101(5) . . .
99(5) . . .
110(6) . . .
113(6) . . .
108(6) . . .
106(5) . . .
113(6) . . .
113(6) . . .
115(6) . . .
101(5) . . .
94(5) . . .
109(6) . . .
107(6) . . .
112(6) . . .
122(6) . . .
120(6) . . .
94(5) . . .
114(6) . . .
120(6) . . .
100(5) . . .
112(5) . . .
117(6) . . .
107(6) . . .
94(5) . . .
106(6) . . .
101(5) . . .
109(5) . . .
107(6) . . .
121(6) . . .
112(6) . . .
108(5) . . .
101(5) . . .
105(6) . . .
101(5) . . .
102(5) . . .
120(6) . . .
99(6) . . .
114(6) . . .
114(6) . . .
120(6) . . .
106(5) . . .
120(6) . . .
106(6) . . .
99(5) . . .
97(5) . . .
111(5) . . .
129(6) . . .
100(5) . . .
98(5) . . .
105(5) . . .
104(5) . . .
95(5) . . .
115(6) . . .
113(6) . . .
111(5) . . .
118(6) . . .
116(6) . . .
89(5) . . .
97(5) . . .
95(5) . . .
102(5) . . .
108(5) . . .
106(6) . . .
112(6) . . .
111(6) . . .
116(6) . . .
100(5) . . .
115(6) . . .
106(6) . . .
100(5) . . .
116(6) . . .
107(5) . . .
123(6) . . .
107(5) . . .
118(6) . . .
105(6) . . .
115(6) . . .
104(6) . . .
107(5) . . .
99(5) . . .
97(5) . . .
108(6) . . .
115(6) . . .
110(6) . . .
110(5) . . .
122(6) . . .
117(6) . . .
107(6) . . .
128(6) . . .
111(6) . . .
118(6) . . .
99(6) . . .
104(6) . . .
109(5) . . .
121(6) . . .
114(6) . . .
107(6) . . .
111(6) . . .
130(6) . . .
113(6) . . .
110(6) . . .
100(6) . . .
94(5) . . .
101(5) . . .
119(6) . . .
122(6) . . .
108(6) . . .
101(5) . . .
109(5) . . .
105(5) . . .
103(5) . . .
125(6) . . .
108(6) . . .
102(5) . . .
104(5) . . .
110(6) . . .
100(5) . . .
104(6) . . .
122(6) . . .
101(5) . . .
101(5) . . .
90(5) . . .
91(5) . . .
101(5) . . .
113(6) . . .
120(6) . . .
98(5) . . .
107(5) . . .
102(5) . . .
107(5) . . .
91(5) . . .
112(6) . . .
112(6) . . .
112(6) . . .
94(5) . . .
99(5) . . .
111(6) . . .
90(5) . . .
95(5) . . .
103(5) . . .
106(6) . . .
108(6) . . .
104(5) . . .
104(5) . . .
117(6) . . .
116(6) . . .
113(6) . . .
102(5) . . .
115(6) . . .
108(6) . . .
115(6) . . .
93(5) . . .
105(5) . . .
106(5) . . .
106(6) . . .
105(6) . . .
108(6) . . .
112(5) . . .
107(5) . . .
108(6) . . .
96(5) . . .
124(6) . . .
108(5) . . .
108(5) . . .
104(6) . . .
95(5) . . .
102(5) . . .
102(5) . . .
105(5) . . .
107(6) . . .
111(6) . . .
106(5) . . .
124(6) . . .
125(6) . . .
92(5) . . .
108(6) . . .
122(6) . . .
116(6) . . .
108(6) . . .
101(5) . . .
100(6) . . .
102(5) . . .
104(5) . . .
110(6) . . .
105(6) . . .
94(5) . . .
89(5) . . .
112(6) . . .
108(6) . . .
101(5) . . .
103(5) . . .
95(5) . . .
102(5) . . .
107(6) . . .
105(6) . . .
101(5) . . .
103(5) . . .
104(5) . . .
115(6) . . .
107(6) . . .
102(5) . . .
122(6) . . .
98(5) . . .
92(5) . . .
109(6) . . .
105(5) . . .
95(5) . . .
124(6) . . .
106(6) . . .
112(6) . . .
99(5) . . .
106(5) . . .
113(6) . . .
104(5) . . .
107(6) . . .
84(5) . . .
92(5) . . .
105(5) . . .
109(6) . . .
106(6) . . .
107(6) . . .
95(5) . . .
105(5) . . .
94(5) . . .
107(5) . . .
114(6) . . .
104(5) . . .
106(6) . . .
102(6) . . .
101(5) . . .
99(5) . . .
105(5) . . .
105(5) . . .
106(6) . . .
117(6) . . .
103(5) . . .
108(5) . . .
117(6) . . .
99(5) . . .
119(6) . . .
106(5) . . .
88(5) . . .
109(6) . . .
88(5) . . .
97(5) . . .
99(5) . . .
109(5) . . .
101(5) . . .
109(6) . . .
111(6) . . .
112(5) . . .
105(5) . . .
112(6) . . .
109(6) . . .
104(5) . . .
95(5) . . .
95(5) . . .
109(6) . . .
106(6) . . .
97(5) . . .
120(6) . . .
95(5) . . .
96(5) . . .
102(5) . . .
105(6) . . .
103(5) . . .
106(5) . . .
107(6) . . .
106(6) . . .
95(5) . . .
100(5) . . .
105(5) . . .
104(6) . . .
87(5) . . .
102(5) . . .
95(5) . . .
104(5) . . .
104(6) . . .
112(6) . . .
106(5) . . .
113(6) . . .
98(5) . . .
107(6) . . .
107(6) . . .
98(5) . . .
90(5) . . .
92(5) . . .
117(6) . . .
115(6) . . .
102(5) . . .
104(5) . . .
114(6) . . .
102(5) . . .
94(5) . . .
86(5) . . .
113(6) . . .
113(6) . . .
113(6) . . .
91(5) . . .
117(6) . . .
106(5) . . .
86(5) . . .
92(5) . . .
108(6) . . .
95(5) . . .
101(5) . . .
101(6) . . .
108(6) . . .
98(5) . . .
111(5) . . .
94(5) . . .
85(5) . . .
107(6) . . .
108(6) . . .
114(6) . . .
111(6) . . .
97(5) . . .
98(5) . . .
99(5) . . .
110(5) . . .
99(5) . . .
104(6) . . .
101(5) . . .
98(5) . . .
107(5) . . .
106(6) . . .
93(5) . . .
96(5) . . .
103(5) . . .
96(5) . . .
99(5) . . .
98(5) . . .
91(5) . . .
107(6) . . .
104(5) . . .
101(5) . . .
105(5) . . .
111(6) . . .
112(6) . . .
109(5) . . .
102(5) . . .
98(5) . . .
92(5) . . .
100(5) . . .
103(5) . . .
115(6) . . .
106(6) . . .
103(5) . . .
104(5) . . .
114(6) . . .
101(5) . . .
102(6) . . .
91(5) . . .
111(6) . . .
96(5) . . .
98(5) . . .
118(6) . . .
96(5) . . .
103(5) . . .
95(5) . . .
104(5) . . .
112(6) . . .
92(5) . . .
91(5) . . .
100(5) . . .
99(5) . . .
111(6) . . .
107(6) . . .
97(5) . . .
101(5) . . .
113(6) . . .
111(6) . . .
117(6) . . .
83(5) . . .
106(6) . . .
102(5) . . .
108(6) . . .
104(5) . . .
86(5) . . .
101(5) . . .
100(5) . . .
91(5) . . .
104(5) . . .
93(5) . . .
92(5) . . .
95(5) . . .
97(5) . . .
109(6) . . .
118(6) . . .
106(5) . . .
98(5) . . .
117(6) . . .
101(5) . . .
109(5) . . .
103(5) . . .
96(5) . . .
91(5) . . .
101(5) . . .
109(5) . . .
100(5) . . .
92(5) . . .
87(5) . . .
95(5) . . .
111(5) . . .
89(5) . . .
104(5) . . .
99(5) . . .
97(5) . . .
106(5) . . .
89(5) . . .
108(6) . . .
102(5) . . .
100(5) . . .
105(5) . . .
116(6) . . .
101(5) . . .
109(6) . . .
104(5) . . .
101(5) . . .
105(6) . . .
99(5) . . .
100(5) . . .
93(5) . . .
84(5) . . .
98(5) . . .
92(5) . . .
101(5) . . .
101(5) . . .
94(5) . . .
101(5) . . .
108(6) . . .
82(5) . . .
111(5) . . .
109(6) . . .
104(6) . . .
119(6) . . .
113(5) . . .
98(5) . . .
110(6) . . .
107(6) . . .
91(5) . . .
91(5) . . .
107(5) . . .
119(6) . . .
108(6) . . .
103(5) . . .
109(6) . . .
108(5) . . .
99(5) . . .
95(5) . . .
102(6) . . .
113(6) . . .
103(5) . . .
93(5) . . .
92(5) . . .
115(6) . . .
112(6) . . .
98(5) . . .
96(5) . . .
117(6) . . .
97(5) . . .
102(5) . . .
90(5) . . .
111(6) . . .
116(6) . . .
112(6) . . .
115(6) . . .
102(5) . . .
106(6) . . .
99(5) . . .
108(6) . . .
88(5) . . .
97(5) . . .
109(6) . . .
106(6) . . .
99(5) . . .
92(5) . . .
100(6) . . .
95(5) . . .
98(5) . . .
105(6) . . .
103(5) . . .
98(5) . . .
109(6) . . .
100(5) . . .
93(5) . . .
106(5) . . .
108(6) . . .
92(5) . . .
105(6) . . .
97(5) . . .
94(5) . . .
98(5) . . .
92(5) . . .
96(5) . . .
97(5) . . .
95(5) . . .
92(5) . . .
87(5) . . .
100(5) . . .
104(5) . . .
108(5) . . .
98(5) . . .
111(6) . . .
96(5) . . .
107(5) . . .
103(5) . . .
95(5) . . .
100(6) . . .
104(6) . . .
105(5) . . .
107(5) . . .
110(6) . . .
99(6) . . .
87(5) . . .
95(5) . . .
112(6) . . .
114(6) . . .
96(5) . . .
100(5) . . .
103(5) . . .
112(6) . . .
100(6) . . .
101(6) . . .
100(5) . . .
102(5) . . .
87(5) . . .
104(6) . . .
92(5) . . .
99(5) . . .
117(6) . . .
119(6) . . .
101(5) . . .
94(5) . . .
95(5) . . .
101(5) . . .
103(5) . . .
105(6) . . .
94(5) . . .
103(5) . . .
79(5) . . .
95(5) . . .
92(5) . . .
105(6) . . .
98(5) . . .
99(5) . . .
104(5) . . .
101(6) . . .
94(5) . . .
119(6) . . .
78(5) . . .
102(6) . . .
88(5) . . .
109(6) . . .
100(5) . . .
86(5) . . .
102(6) . . .
93(5) . . .
91(5) . . .
95(5) . . .
102(5) . . .
101(5) . . .
94(5) . . .
91(5) . . .
83(5) . . .
103(5) . . .
99(5) . . .
102(6) . . .
102(5) . . .
99(5) . . .
87(5) . . .
103(5) . . .
97(5) . . .
85(5) . . .
90(5) . . .
90(5) . . .
96(5) . . .
94(5) . . .
88(5) . . .
110(5) . . .
116(6) . . .
119(6) . . .
106(6) . . .
93(5) . . .
120(6) . . .
101(5) . . .
99(6) . . .
95(5) . . .
100(5) . . .
93(5) . . .
92(5) . . .
90(5) . . .
92(5) . . .
97(5) . . .
105(5) . . .
98(5) . . .
97(5) . . .
105(6) . . .
106(5) . . .
97(5) . . .
82(5) . . .
92(5) . . .
109(5) . . .
100(5) . . .
91(5) . . .
91(5) . . .
92(5) . . .
88(5) . . .
90(5) . . .
102(5) . . .
105(5) . . .
101(6) . . .
112(6) . . .
96(5) . . .
96(5) . . .
99(5) . . .
100(5) . . .
103(5) . . .
88(5) . . .
87(5) . . .
90(5) . . .
90(5) . . .
109(6) . . .
94(5) . . .
96(5) . . .
110(6) . . .
98(5) . . .
112(6) . . .
104(5) . . .
107(5) . . .
109(6) . . .
110(6) . . .
97(5) . . .
95(5) . . .
89(5) . . .
86(5) . . .
103(6) . . .
103(5) . . .
98(5) . . .
105(6) . . .
117(6) . . .
98(5) . . .
97(5) . . .
92(5) . . .
92(5) . . .
96(5) . . .
102(5) . . .
105(5) . . .
105(5) . . .
87(5) . . .
97(6) . . .
95(5) . . .
97(5) . . .
104(5) . . .
114(6) . . .
90(5) . . .
103(5) . . .
104(5) . . .
104(5) . . .
109(6) . . .
101(6) . . .
90(5) . . .
101(5) . . .
110(5) . . .
104(5) . . .
108(6) . . .
103(5) . . .
100(5) . . .
83(5) . . .
102(6) . . .
91(5) . . .
90(5) . . .
96(5) . . .
101(5) . . .
110(6) . . .
88(5) . . .
95(5) . . .
99(5) . . .
93(5) . . .
94(5) . . .
110(6) . . .
100(5) . . .
88(5) . . .
108(6) . . .
94(5) . . .
90(5) . . .
86(5) . . .
102(5) . . .
83(5) . . .
95(6) . . .
93(5) . . .
98(5) . . .
104(5) . . .
113(6) . . .
104(6) . . .
96(5) . . .
97(5) . . .
102(5) . . .
105(6) . . .
105(6) . . .
102(5) . . .
104(5) . . .
102(5) . . .
101(5) . . .
105(6) . . .
98(5) . . .
95(5) . . .
119(6) . . .
112(6) . . .
89(5) . . .
100(5) . . .
105(5) . . .
113(6) . . .
92(5) . . .
95(5) . . .
98(5) . . .
111(6) . . .
91(5) . . .
90(5) . . .
101(5) . . .
92(5) . . .
89(5) . . .
104(5) . . .
105(6) . . .
95(5) . . .
95(5) . . .
99(5) . . .
94(5) . . .
92(5) . . .
101(5) . . .
101(5) . . .
115(6) . . .
119(6) . . .
101(5) . . .
89(5) . . .
102(5) . . .
89(5) . . .
98(5) . . .
102(5) . . .
93(5) . . .
116(6) . . .
109(5) . . .
107(6) . . .
98(5) . . .
84(5) . . .
102(5) . . .
91(5) . . .
100(5) . . .
99(5) . . .
99(5) . . .
91(5) . . .
98(5) . . .
105(6) . . .
96(5) . . .
101(5) . . .
100(5) . . .
100(5) . . .
101(5) . . .
94(5) . . .
101(5) . . .
109(5) . . .
108(6) . . .
101(5) . . .
101(5) . . .
95(5) . . .
96(5) . . .
92(5) . . .
95(5) . . .
97(5) . . .
96(5) . . .
97(5) . . .
102(5) . . .
101(6) . . .
92(5) . . .
96(5) . . .
98(5) . . .
99(5) . . .
87(5) . . .
98(5) . . .
105(5) . . .
102(5) . . .
102(5) . . .
96(5) . . .
96(5) . . .
95(5) . . .
85(5) . . .
97(6) . . .
100(5) . . .
98(5) . . .
117(6) . . .
88(5) . . .
100(5) . . .
104(6) . . .
86(5) . . .
107(5) . . .
84(5) . . .
99(5) . . .
90(5) . . .
104(5) . . .
93(5) . . .
91(5) . . .
86(5) . . .
105(6) . . .
102(6) . . .
107(5) . . .
98(5) . . .
96(5) . . .
101(5) . . .
105(5) . . .
85(5) . . .
89(5) . . .
88(5) . . .
87(5) . . .
102(5) . . .
97(5) . . .
100(5) . . .
103(5) . . .
98(5) . . .
94(5) . . .
92(5) . . .
87(5) . . .
92(5) . . .
110(6) . . .
102(6) . . .
99(5) . . .
95(5) . . .
92(5) . . .
101(6) . . .
101(5) . . .
95(5) . . .
102(5) . . .
101(5) . . .
104(6) . . .
101(5) . . .
110(5) . . .
91(5) . . .
101(6) . . .
100(5) . . .
107(5) . . .
86(5) . . .
82(5) . . .
100(6) . . .
107(5) . . .
101(5) . . .
102(5) . . .
94(5) . . .
100(6) . . .
105(6) . . .
83(5) . . .
95(5) . . .
91(5) . . .
97(6) . . .
93(5) . . .
98(5) . . .
102(5) . . .
102(5) . . .
99(6) . . .
100(5) . . .
105(5) . . .
95(5) . . .
106(6) . . .
100(6) . . .
93(5) . . .
99(5) . . .
91(5) . . .
94(5) . . .
102(5) . . .
87(5) . . .
95(5) . . .
82(5) . . .
105(5) . . .
100(5) . . .
102(5) . . .
102(5) . . .
110(6) . . .
110(6) . . .
99(6) . . .
98(5) . . .
109(5) . . .
101(5) . . .
104(5) . . .
104(6) . . .
93(5) . . .
90(5) . . .
110(6) . . .
89(5) . . .
92(5) . . .
99(5) . . .
94(5) . . .
96(5) . . .
83(5) . . .
93(5) . . .
90(5) . . .
98(5) . . .
88(5) . . .
99(6) . . .
95(5) . . .
92(5) . . .
106(5) . . .
84(5) . . .
83(5) . . .
99(5) . . .
90(5) . . .
85(5) . . .
104(6) . . .
99(6) . . .
89(5) . . .
91(5) . . .
110(5) . . .
87(5) . . .
96(6) . . .
107(6) . . .
92(5) . . .
103(5) . . .
101(5) . . .
102(5) . . .
110(6) . . .
96(5) . . .
89(5) . . .
92(5) . . .
97(5) . . .
91(5) . . .
90(5) . . .
92(5) . . .
95(5) . . .
96(5) . . .
96(5) . . .
97(5) . . .
99(5) . . .
101(5) . . .
97(5) . . .
105(5) . . .
97(5) . . .
112(6) . . .
91(5) . . .
94(5) . . .
89(5) . . .
91(5) . . .
93(5) . . .
105(6) . . .
100(5) . . .
96(5) . . .
105(5) . . .
105(6) . . .
85(5) . . .
103(6) . . .
97(5) . . .
112(6) . . .
97(5) . . .
108(6) . . .
95(5) . . .
93(5) . . .
89(5) . . .
102(6) . . .
108(6) . . .
106(6) . . .
87(5) . . .
92(5) . . .
91(5) . . .
95(6) . . .
90(5) . . .
100(5) . . .
107(6) . . .
97(5) . . .
88(5) . . .
87(5) . . .
95(5) . . .
97(5) . . .
96(5) . . .
94(5) . . .
96(5) . . .
95(5) . . .
94(5) . . .
95(5) . . .
114(6) . . .
103(5) . . .
103(5) . . .
100(5) . . .
91(5) . . .
109(6) . . .
115(6) . . .
103(5) . . .
91(5) . . .
100(5) . . .
103(6) . . .
87(5) . . .
97(5) . . .
82(5) . . .
87(5) . . .
77(5) . . .
100(5) . . .
98(5) . . .
93(5) . . .
102(6) . . .
90(5) . . .
96(5) . . .
98(5) . . .
100(5) . . .
94(5) . . .
101(5) . . .
93(5) . . .
93(5) . . .
104(5) . . .
96(5) . . .
100(5) . . .
101(5) . . .
89(5) . . .
101(5) . . .
112(6) . . .
93(5) . . .
97(5) . . .
100(5) . . .
103(5) . . .
91(5) . . .
98(5) . . .
97(5) . . .
100(5) . . .
105(6) . . .
103(6) . . .
95(5) . . .
105(5) . . .
87(5) . . .
94(5) . . .
100(5) . . .
97(5) . . .
89(5) . . .
91(5) . . .
99(5) . . .
84(5) . . .
102(6) . . .
97(5) . . .
89(5) . . .
94(5) . . .
100(5) . . .
108(6) . . .
95(5) . . .
102(5) . . .
83(5) . . .
101(5) . . .
94(5) . . .
89(5) . . .
100(5) . . .
105(6) . . .
105(6) . . .
105(5) . . .
81(5) . . .
96(5) . . .
95(5) . . .
96(5) . . .
94(5) . . .
97(5) . . .
90(5) . . .
103(6) . . .
102(5) . . .
106(5) . . .
106(5) . . .
112(6) . . .
86(5) . . .
97(5) . . .
99(5) . . .
87(5) . . .
94(5) . . .
105(6) . . .
105(6) . . .
96(5) . . .
88(5) . . .
101(5) . . .
100(6) . . .
102(5) . . .
110(5) . . .
100(5) . . .
102(5) . . .
99(6) . . .
80(5) . . .
95(5) . . .
81(5) . . .
87(5) . . .
95(5) . . .
101(5) . . .
89(5) . . .
87(5) . . .
93(5) . . .
99(6) . . .
81(5) . . .
93(5) . . .
96(5) . . .
108(6) . . .
95(5) . . .
93(5) . . .
98(5) . . .
95(5) . . .
90(5) . . .
104(5) . . .
95(5) . . .
105(5) . . .
96(5) . . .
104(6) . . .
99(6) . . .
90(5) . . .
92(5) . . .
96(5) . . .
107(6) . . .
110(6) . . .
96(5) . . .
95(5) . . .
87(5) . . .
89(5) . . .
95(5) . . .
100(5) . . .
89(5) . . .
99(5) . . .
77(5) . . .
98(5) . . .
100(5) . . .
92(5) . . .
102(5) . . .
101(6) . . .
101(5) . . .
93(5) . . .
99(5) . . .
92(5) . . .
86(5) . . .
93(5) . . .
89(5) . . .
105(5) . . .
90(5) . . .
99(6) . . .
89(5) . . .
92(5) . . .
98(5) . . .
92(5) . . .
99(5) . . .
103(5) . . .
96(5) . . .
83(5) . . .
92(5) . . .
105(6) . . .
106(5) . . .
100(5) . . .
111(6) . . .
102(6) . . .
100(5) . . .
113(6) . . .
113(6) . . .
92(5) . . .
90(5) . . .
91(5) . . .
104(5) . . .
111(5) . . .
100(5) . . .
101(6) . . .
107(6) . . .
87(5) . . .
91(5) . . .
86(5) . . .
109(6) . . .
93(5) . . .
97(5) . . .
95(5) . . .
97(5) . . .
92(5) . . .
101(5) . . .
83(5) . . .
83(5) . . .
94(5) . . .
96(5) . . .
82(5) . . .
100(5) . . .
100(5) . . .
97(5) . . .
97(5) . . .
101(5) . . .
112(5) . . .
91(5) . . .
110(6) . . .
95(5) . . .
101(5) . . .
92(5) . . .
96(5) . . .
95(5) . . .
96(5) . . .
81(5) . . .
90(5) . . .
89(5) . . .
94(5) . . .
106(6) . . .
107(6) . . .
93(5) . . .
106(6) . . .
88(5) . . .
105(6) . . .
102(5) . . .
99(5) . . .
97(5) . . .
93(5) . . .
99(5) . . .
94(5) . . .
93(5) . . .
92(5) . . .
76(5) . . .
91(5) . . .
93(5) . . .
102(5) . . .
104(6) . . .
93(5) . . .
97(6) . . .
77(5) . . .
86(5) . . .
77(5) . . .
96(5) . . .
106(5) . . .
98(5) . . .
110(5) . . .
88(5) . . .
83(5) . . .
93(5) . . .
104(5) . . .
104(5) . . .
101(5) . . .
78(5) . . .
104(6) . . .
94(5) . . .
102(5) . . .
81(5) . . .
103(6) . . .
101(5) . . .
98(5) . . .
85(5) . . .
85(5) . . .
97(5) . . .
87(5) . . .
99(5) . . .
99(5) . . .
99(5) . . .
95(5) . . .
106(5) . . .
88(5) . . .
96(5) . . .
82(5) . . .
103(6) . . .
94(5) . . .
100(5) . . .
84(5) . . .
99(5) . . .
106(6) . . .
80(5) . . .
92(5) . . .
92(5) . . .
99(6) . . .
105(5) . . .
92(5) . . .
97(5) . . .
87(5) . . .
86(5) . . .
89(5) . . .
88(5) . . .
93(5) . . .
81(5) . . .
77(5) . . .
85(5) . . .
84(5) . . .
83(5) . . .
79(5) . . .
105(6) . . .
95(5) . . .
83(5) . . .
97(5) . . .
92(5) . . .
85(5) . . .
94(5) . . .
95(5) . . .
91(5) . . .
90(5) . . .
103(6) . . .
90(5) . . .
102(5) . . .
100(5) . . .
91(5) . . .
88(5) . . .
73(5) . . .
86(5) . . .
91(5) . . .
82(5) . . .
101(6) . . .
94(5) . . .
90(5) . . .
90(5) . . .
99(5) . . .
92(5) . . .
84(5) . . .
96(5) . . .
91(5) . . .
101(6) . . .
89(5) . . .
91(5) . . .
79(5) . . .
105(6) . . .
95(5) . . .
88(5) . . .
91(5) . . .
89(5) . . .
86(5) . . .
89(5) . . .
88(5) . . .
102(5) . . .
91(5) . . .
97(5) . . .
85(5) . . .
94(5) . . .
77(5) . . .
98(5) . . .
103(5) . . .
99(6) . . .
87(5) . . .
95(5) . . .
89(5) . . .
91(5) . . .
93(5) . . .
86(5) . . .
110(5) . . .
93(5) . . .
94(5) . . .
100(5) . . .
96(5) . . .
82(5) . . .
89(5) . . .
105(5) . . .
93(5) . . .
90(5) . . .
101(5) . . .
95(5) . . .
99(5) . . .
99(5) . . .
90(5) . . .
93(5) . . .
89(5) . . .
91(5) . . .
75(5) . . .
92(5) . . .
97(5) . . .
88(5) . . .
85(5) . . .
103(6) . . .
106(6) . . .
93(5) . . .
84(5) . . .
105(6) . . .
95(5) . . .
88(5) . . .
100(5) . . .
88(5) . . .
81(5) . . .
104(6) . . .
85(5) . . .
82(5) . . .
90(5) . . .
89(5) . . .
85(5) . . .
86(5) . . .
101(5) . . .
94(5) . . .
86(5) . . .
84(5) . . .
105(5) . . .
97(5) . . .
103(5) . . .
102(6) . . .
97(5) . . .
92(5) . . .
89(5) . . .
104(6) . . .
100(6) . . .
94(5) . . .
105(5) . . .
101(5) . . .
81(5) . . .
80(5) . . .
90(5) . . .
95(5) . . .
92(5) . . .
85(5) . . .
86(5) . . .
102(5) . . .
98(5) . . .
95(5) . . .
105(6) . . .
99(5) . . .
95(5) . . .
94(5) . . .
91(5) . . .
83(5) . . .
88(5) . . .
86(5) . . .
89(5) . . .
77(5) . . .
83(5) . . .
104(5) . . .
85(5) . . .
99(5) . . .
105(6) . . .
75(5) . . .
93(5) . . .
101(5) . . .
85(5) . . .
97(5) . . .
98(5) . . .
90(5) . . .
102(5) . . .
91(5) . . .
89(5) . . .
87(5) . . .
97(5) . . .
101(5) . . .
80(5) . . .
87(5) . . .
100(5) . . .
96(5) . . .
83(5) . . .
95(5) . . .
83(5) . . .
102(6) . . .
87(5) . . .
93(5) . . .
104(5) . . .
94(5) . . .
99(6) . . .
79(5) . . .
92(5) . . .
101(5) . . .
91(5) . . .
97(5) . . .
96(5) . . .
93(5) . . .
90(5) . . .
102(5) . . .
102(5) . . .
97(5) . . .
84(5) . . .
93(5) . . .
96(5) . . .
103(5) . . .
97(5) . . .
97(5) . . .
93(5) . . .
90(5) . . .
87(5) . . .
99(5) . . .
97(5) . . .
94(5) . . .
93(5) . . .
80(5) . . .
83(5) . . .
84(5) . . .
96(5) . . .
98(6) . . .
93(6) . . .
89(5) . . .
86(5) . . .
75(5) . . .
97(6) . . .
92(5) . . .
99(5) . . .
96(5) . . .
97(5) . . .
93(5) . . .
88(5) . . .
92(5) . . .
88(5) . . .
89(5) . . .
90(5) . . .
94(5) . . .
90(5) . . .
77(5) . . .
94(5) . . .
100(6) . . .
89(5) . . .
89(5) . . .
89(5) . . .
98(5) . . .
90(5) . . .
83(5) . . .
90(5) . . .
97(5) . . .
97(5) . . .
85(5) . . .
86(5) . . .
88(5) . . .
90(5) . . .
82(5) . . .
83(5) . . .
93(5) . . .
81(5) . . .
98(5) . . .
90(5) . . .
96(5) . . .
100(5) . . .
88(5) . . .
82(5) . . .
90(5) . . .
96(5) . . .
91(5) . . .
86(5) . . .
88(5) . . .
94(6) . . .
82(5) . . .
92(5) . . .
84(5) . . .
74(4) . . .
100(6) . . .
95(5) . . .
91(5) . . .
72(4) . . .
103(5) . . .
91(5) . . .
86(5) . . .
81(5) . . .
96(5) . . .
99(6) . . .
87(5) . . .
85(5) . . .
93(5) . . .
96(5) . . .
101(5) . . .
97(6) . . .
78(5) . . .
91(5) . . .
86(5) . . .
82(5) . . .
89(5) . . .
83(5) . . .
100(5) . . .
103(5) . . .
90(5) . . .
112(6) . . .
90(5) . . .
85(5) . . .
91(5) . . .
78(5) . . .
92(5) . . .
74(5) . . .
107(5) . . .
89(5) . . .
84(5) . . .
90(5) . . .
98(5) . . .
92(5) . . .
88(5) . . .
84(5) . . .
89(5) . . .
96(5) . . .
82(5) . . .
93(5) . . .
81(5) . . .
79(5) . . .
97(5) . . .
83(5) . . .
100(5) . . .
93(5) . . .
100(5) . . .
97(5) . . .
95(5) . . .
80(5) . . .
86(5) . . .
89(5) . . .
89(5) . . .
87(5) . . .
86(5) . . .
91(5) . . .
89(5) . . .
104(5) . . .
89(5) . . .
101(5) . . .
92(5) . . .
93(5) . . .
88(5) . . .
94(5) . . .
101(6) . . .
85(5) . . .
94(5) . . .
95(5) . . .
79(5) . . .
85(5) . . .
75(5) . . .
86(5) . . .
83(5) . . .
86(5) . . .
92(5) . . .
94(5) . . .
83(5) . . .
94(5) . . .
96(5) . . .
81(5) . . .
84(5) . . .
90(5) . . .
102(5) . . .
83(5) . . .
100(5) . . .
91(5) . . .
84(5) . . .
84(5) . . .
93(5) . . .
83(5) . . .
84(5) . . .
101(5) . . .
96(5) . . .
97(5) . . .
97(5) . . .
98(5) . . .
100(5) . . .
94(5) . . .
89(5) . . .
87(5) . . .
94(5) . . .
92(5) . . .
85(5) . . .
102(6) . . .
102(6) . . .
92(5) . . .
91(5) . . .
96(5) . . .
104(6) . . .
95(5) . . .
97(5) . . .
75(5) . . .
83(5) . . .
98(5) . . .
86(5) . . .
87(5) . . .
91(5) . . .
93(5) . . .
100(5) . . .
87(5) . . .
96(5) . . .
87(5) . . .
82(5) . . .
82(5) . . .
93(5) . . .
86(5) . . .
84(5) . . .
87(5) . . .
81(5) . . .
84(5) . . .
86(5) . . .
80(5) . . .
85(5) . . .
87(5) . . .
93(5) . . .
88(5) . . .
105(5) . . .
85(5) . . .
82(5) . . .
89(5) . . .
89(5) . . .
79(5) . . .
87(5) . . .
81(5) . . .
85(5) . . .
94(5) . . .
92(5) . . .
80(5) . . .
81(5) . . .
91(5) . . .
94(5) . . .
88(5) . . .
86(5) . . .
86(5) . . .
87(5) . . .
109(5) . . .
80(5) . . .
90(5) . . .
81(5) . . .
88(5) . . .
80(5) . . .
95(5) . . .
98(5) . . .
107(6) . . .
107(6) . . .
87(5) . . .
95(5) . . .
97(5) . . .
100(5) . . .
94(5) . . .
88(5) . . .
84(5) . . .
90(5) . . .
88(5) . . .
79(5) . . .
90(5) . . .
87(5) . . .
104(6) . . .
91(5) . . .
74(4) . . .
101(5) . . .
83(5) . . .
93(5) . . .
92(5) . . .
84(5) . . .
89(5) . . .
93(5) . . .
97(5) . . .
90(5) . . .
81(5) . . .
70(4) . . .
84(5) . . .
94(5) . . .
94(5) . . .
99(5) . . .
92(5) . . .
92(5) . . .
87(5) . . .
93(5) . . .
96(5) . . .
86(5) . . .
94(5) . . .
84(5) . . .
85(5) . . .
100(5) . . .
88(5) . . .
75(5) . . .
82(5) . . .
91(5) . . .
85(5) . . .
106(5) . . .
95(5) . . .
104(6) . . .
77(5) . . .
81(5) . . .
99(5) . . .
93(5) . . .
92(5) . . .
82(5) . . .
85(5) . . .
86(5) . . .
75(5) . . .
87(5) . . .
92(5) . . .
88(5) . . .
90(5) . . .
92(5) . . .
102(6) . . .
89(5) . . .
91(5) . . .
78(5) . . .
86(5) . . .
95(5) . . .
102(5) . . .
106(5) . . .
94(5) . . .
86(5) . . .
87(5) . . .
81(5) . . .
88(5) . . .
95(5) . . .
99(6) . . .
88(5) . . .
88(5) . . .
91(5) . . .
105(6) . . .
85(5) . . .
81(5) . . .
93(5) . . .
79(5) . . .
77(5) . . .
91(5) . . .
90(5) . . .
97(5) . . .
78(5) . . .
71(4) . . .
80(5) . . .
81(5) . . .
90(5) . . .
92(5) . . .
84(5) . . .
80(5) . . .
96(5) . . .
90(5) . . .
85(5) . . .
91(5) . . .
93(5) . . .
96(5) . . .
94(5) . . .
88(5) . . .
89(5) . . .
85(5) . . .
89(5) . . .
75(5) . . .
84(5) . . .
83(5) . . .
79(5) . . .
80(5) . . .
87(5) . . .
86(5) . . .
101(6) . . .
83(5) . . .
84(5) . . .
96(5) . . .
92(5) . . .
94(5) . . .
82(5) . . .
87(5) . . .
85(5) . . .
83(5) . . .
92(5) . . .
94(5) . . .
94(5) . . .
86(5) . . .
98(5) . . .
93(5) . . .
90(5) . . .
82(5) . . .
83(5) . . .
80(5) . . .
85(5) . . .
96(5) . . .
87(5) . . .
85(5) . . .
93(5) . . .
90(5) . . .
82(5) . . .
76(4) . . .
74(5) . . .
99(6) . . .
88(5) . . .
88(5) . . .
85(5) . . .
106(5) . . .
98(5) . . .
92(5) . . .
78(5) . . .
99(5) . . .
81(5) . . .
82(5) . . .
76(5) . . .
80(5) . . .
73(4) . . .
90(5) . . .
90(5) . . .
83(5) . . .
87(5) . . .
86(5) . . .
79(5) . . .
108(6) . . .
95(5) . . .
80(5) . . .
88(5) . . .
86(5) . . .
86(5) . . .
80(5) . . .
81(5) . . .
89(5) . . .
95(5) . . .
86(5) . . .
94(5) . . .
83(5) . . .
79(5) . . .
102(5) . . .
85(5) . . .
96(6) . . .
88(5) . . .
89(5) . . .
90(5) . . .
84(5) . . .
93(5) . . .
83(5) . . .
97(5) . . .
102(6) . . .
81(5) . . .
78(5) . . .
87(5) . . .
81(5) . . .
85(5) . . .
91(5) . . .
97(5) . . .
92(5) . . .
82(5) . . .
80(5) . . .
92(5) . . .
93(5) . . .
89(5) . . .
78(5) . . .
80(5) . . .
84(5) . . .
80(5) . . .
78(5) . . .
81(5) . . .
82(5) . . .
79(5) . . .
94(5) . . .
74(4) . . .
80(5) . . .
91(5) . . .
88(5) . . .
81(5) . . .
79(5) . . .
85(5) . . .
76(5) . . .
89(5) . . .
93(5) . . .
84(5) . . .
74(5) . . .
101(6) . . .
83(5) . . .
84(5) . . .
84(5) . . .
85(5) . . .
87(5) . . .
77(5) . . .
90(5) . . .
78(5) . . .
84(5) . . .
85(5) . . .
91(5) . . .
83(5) . . .
89(5) . . .
76(5) . . .
85(5) . . .
93(5) . . .
89(5) . . .
76(5) . . .
95(5) . . .
100(6) . . .
95(5) . . .
92(5) . . .
94(5) . . .
94(5) . . .
83(5) . . .
77(5) . . .
91(5) . . .
82(5) . . .
85(5) . . .
92(5) . . .
101(5) . . .
83(5) . . .
94(5) . . .
90(5) . . .
98(6) . . .
93(5) . . .
93(5) . . .
77(5) . . .
84(5) . . .
84(5) . . .
79(5) . . .
75(5) . . .
87(5) . . .
84(5) . . .
82(5) . . .
89(5) . . .
69(4) . . .
72(5) . . .
77(5) . . .
91(5) . . .
84(5) . . .
89(5) . . .
97(5) . . .
98(5) . . .
84(5) . . .
80(5) . . .
92(5) . . .
87(5) . . .
95(5) . . .
78(5) . . .
95(5) . . .
89(5) . . .
75(5) . . .
91(5) . . .
87(5) . . .
80(5) . . .
94(5) . . .
92(5) . . .
97(6) . . .
80(5) . . .
76(5) . . .
85(5) . . .
93(5) . . .
94(5) . . .
91(5) . . .
66(4) . . .
86(5) . . .
87(5) . . .
77(5) . . .
78(5) . . .
73(4) . . .
84(5) . . .
82(5) . . .
89(5) . . .
75(5) . . .
84(5) . . .
88(5) . . .
83(5) . . .
81(5) . . .
87(5) . . .
86(5) . . .
84(5) . . .
88(5) . . .
84(5) . . .
88(5) . . .
84(5) . . .
96(5) . . .
82(5) . . .
82(5) . . .
80(5) . . .
100(5) . . .
88(5) . . .
88(5) . . .
87(5) . . .
81(5) . . .
83(5) . . .
82(5) . . .
83(5) . . .
92(5) . . .
82(5) . . .
87(5) . . .
80(5) . . .
76(5) . . .
88(5) . . .
79(5) . . .
88(5) . . .
86(5) . . .
98(6) . . .
85(5) . . .
76(5) . . .
68(4) . . .
95(5) . . .
84(5) . . .
91(5) . . .
69(4) . . .
83(5) . . .
84(5) . . .
87(5) . . .
85(5) . . .
82(5) . . .
79(5) . . .
88(5) . . .
85(5) . . .
97(5) . . .
90(5) . . .
80(5) . . .
74(5) . . .
86(5) . . .
84(5) . . .
92(5) . . .
87(5) . . .
88(5) . . .
73(5) . . .
84(5) . . .
91(5) . . .
75(5) . . .
82(5) . . .
78(5) . . .
85(5) . . .
88(5) . . .
77(5) . . .
76(5) . . .
92(5) . . .
84(5) . . .
113(6) . . .
92(5) . . .
78(5) . . .
78(5) . . .
76(5) . . .
83(5) . . .
86(5) . . .
79(5) . . .
71(4) . . .
84(5) . . .
70(4) . . .
91(5) . . .
83(5) . . .
80(5) . . .
84(5) . . .
77(5) . . .
92(5) . . .
75(5) . . .
72(5) . . .
78(5) . . .
82(5) . . .
77(5) . . .
77(5) . . .
85(5) . . .
82(5) . . .
78(5) . . .
88(5) . . .
91(5) . . .
85(5) . . .
85(5) . . .
85(5) . . .
79(5) . . .
86(5) . . .
83(5) . . .
84(5) . . .
76(5) . . .
84(5) . . .
80(5) . . .
85(5) . . .
75(5) . . .
85(5) . . .
79(5) . . .
93(5) . . .
87(5) . . .
69(4) . . .
83(5) . . .
86(5) . . .
79(5) . . .
58(4) . . .
81(5) . . .
79(5) . . .
79(5) . . .
92(5) . . .
88(5) . . .
80(5) . . .
91(5) . . .
78(5) . . .
94(5) . . .
72(4) . . .
79(5) . . .
85(5) . . .
85(5) . . .
83(5) . . .
81(5) . . .
93(5) . . .
90(5) . . .
81(5) . . .
85(5) . . .
82(5) . . .
85(5) . . .
80(5) . . .
89(5) . . .
83(5) . . .
81(5) . . .
87(5) . . .
97(5) . . .
83(5) . . .
89(5) . . .
86(5) . . .
98(5) . . .
81(5) . . .
71(4) . . .
74(5) . . .
88(5) . . .
84(5) . . .
91(5) . . .
75(5) . . .
80(5) . . .
90(5) . . .
80(5) . . .
98(5) . . .
80(5) . . .
93(5) . . .
84(5) . . .
89(5) . . .
94(5) . . .
88(5) . . .
84(5) . . .
71(4) . . .
77(5) . . .
85(5) . . .
87(5) . . .
98(5) . . .
89(5) . . .
83(5) . . .
85(5) . . .
97(5) . . .
85(5) . . .
89(5) . . .
76(5) . . .
90(5) . . .
83(5) . . .
81(5) . . .
69(4) . . .
74(5) . . .
77(5) . . .
80(5) . . .
80(5) . . .
91(5) . . .
104(6) . . .
78(5) . . .
86(5) . . .
83(5) . . .
92(5) . . .
78(5) . . .
86(5) . . .
83(5) . . .
87(5) . . .
81(5) . . .
95(5) . . .
99(5) . . .
90(5) . . .
74(5) . . .
84(5) . . .
96(5) . . .
84(5) . . .
75(5) . . .
86(5) . . .
81(5) . . .
79(5) . . .
89(5) . . .
70(4) . . .
78(5) . . .
87(5) . . .
93(5) . . .
80(5) . . .
81(5) . . .
83(5) . . .
77(5) . . .
91(5) . . .
87(5) . . .
98(5) . . .
78(5) . . .
76(5) . . .
92(5) . . .
85(5) . . .
80(5) . . .
78(5) . . .
78(5) . . .
77(5) . . .
81(5) . . .
80(5) . . .
99(5) . . .
86(5) . . .
81(5) . . .
84(5) . . .
86(5) . . .
88(5) . . .
94(5) . . .
90(5) . . .
76(4) . . .
82(5) . . .
82(5) . . .
83(5) . . .
87(5) . . .
84(5) . . .
74(4) . . .
82(5) . . .
87(5) . . .
80(5) . . .
76(5) . . .
76(5) . . .
85(5) . . .
84(5) . . .
92(5) . . .
90(5) . . .
76(5) . . .
62(4) . . .
80(5) . . .
80(5) . . .
80(5) . . .
87(5) . . .
81(5) . . .
80(5) . . .
85(5) . . .
81(5) . . .
78(5) . . .
80(5) . . .
85(5) . . .
87(5) . . .
86(5) . . .
73(5) . . .
73(5) . . .
87(5) . . .
79(5) . . .
82(5) . . .
83(5) . . .
90(5) . . .
88(5) . . .
87(5) . . .
95(5) . . .
95(5) . . .
80(5) . . .
83(5) . . .
94(5) . . .
68(4) . . .
90(5) . . .
90(5) . . .
87(5) . . .
88(5) . . .
87(5) . . .
88(5) . . .
76(5) . . .
93(5) . . .
85(5) . . .
76(5) . . .
68(4) . . .
79(5) . . .
91(5) . . .
78(5) . . .
88(5) . . .
85(5) . . .
75(5) . . .
78(5) . . .
78(5) . . .
74(4) . . .
86(5) . . .
93(5) . . .
81(5) . . .
88(5) . . .
86(5) . . .
90(5) . . .
88(5) . . .
86(5) . . .
92(5) . . .
79(5) . . .
95(5) . . .
80(5) . . .
82(5) . . .
83(5) . . .
88(5) . . .
81(5) . . .
78(5) . . .
89(5) . . .
90(5) . . .
89(5) . . .
78(5) . . .
80(5) . . .
93(5) . . .
92(5) . . .
99(5) . . .
91(5) . . .
80(5) . . .
90(5) . . .
87(5) . . .
80(5) . . .
90(5) . . .
74(4) . . .
85(5) . . .
77(5) . . .
86(5) . . .
76(5) . . .
77(5) . . .
93(5) . . .
93(5) . . .
89(5) . . .
88(5) . . .
83(5) . . .
89(5) . . .
98(5) . . .
83(5) . . .
79(5) . . .
93(5) . . .
82(5) . . .
85(5) . . .
78(5) . . .
77(5) . . .
80(5) . . .
80(5) . . .
85(5) . . .
80(5) . . .
85(5) . . .
89(5) . . .
77(5) . . .
87(5) . . .
80(5) . . .
85(5) . . .
74(4) . . .
84(5) . . .
97(5) . . .
89(5) . . .
84(5) . . .
74(4) . . .
98(5) . . .
97(5) . . .
73(5) . . .
76(5) . . .
99(5) . . .
83(5) . . .
92(5) . . .
84(5) . . .
93(5) . . .
83(5) . . .
70(4) . . .
85(5) . . .
81(5) . . .
91(5) . . .
83(5) . . .
78(5) . . .
76(5) . . .
79(5) . . .
81(5) . . .
77(5) . . .
90(5) . . .
77(5) . . .
64(4) . . .
82(5) . . .
91(5) . . .
80(5) . . .
84(5) . . .
79(5) . . .
82(5) . . .
83(5) . . .
75(4) . . .
84(5) . . .
84(5) . . .
77(5) . . .
88(5) . . .
78(5) . . .
84(5) . . .
77(5) . . .
76(5) . . .
78(5) . . .
76(5) . . .
80(5) . . .
86(5) . . .
85(5) . . .
85(5) . . .
76(5) . . .
88(5) . . .
84(5) . . .
80(5) . . .
90(5) . . .
81(5) . . .
81(5) . . .
68(5) . . .
75(5) . . .
75(5) . . .
87(5) . . .
83(5) . . .
94(6) . . .
85(5) . . .
67(4) . . .
80(5) . . .
89(5) . . .
84(5) . . .
80(5) . . .
79(5) . . .
86(5) . . .
95(5) . . .
91(5) . . .
82(5) . . .
89(5) . . .
97(5) . . .
76(5) . . .
72(5) . . .
77(5) . . .
74(4) . . .
76(5) . . .
78(5) . . .
79(5) . . .
80(5) . . .
79(5) . . .
68(4) . . .
65(4) . . .
91(5) . . .
80(5) . . .
78(5) . . .
91(5) . . .
91(5) . . .
84(5) . . .
92(5) . . .
77(5) . . .
78(5) . . .
80(5) . . .
85(5) . . .
69(5) . . .
71(4) . . .
84(5) . . .
84(5) . . .
79(5) . . .
84(5) . . .
75(5) . . .
82(5) . . .
85(5) . . .
87(5) . . .
91(5) . . .
88(5) . . .
84(5) . . .
80(5) . . .
75(5) . . .
85(5) . . .
71(4) . . .
81(5) . . .
82(5) . . .
86(5) . . .
89(5) . . .
84(5) . . .
90(5) . . .
74(5) . . .
83(5) . . .
74(4) . . .
87(5) . . .
81(5) . . .
81(5) . . .
66(4) . . .
76(5) . . .
80(5) . . .
65(4) . . .
74(5) . . .
94(5) . . .
94(5) . . .
82(5) . . .
100(5) . . .
85(5) . . .
85(5) . . .
79(5) . . .
74(5) . . .
81(5) . . .
86(5) . . .
76(5) . . .
83(5) . . .
86(5) . . .
71(5) . . .
86(5) . . .
78(5) . . .
64(4) . . .
71(4) . . .
69(5) . . .
81(5) . . .
77(5) . . .
74(4) . . .
80(5) . . .
82(5) . . .
78(5) . . .
78(5) . . .
89(5) . . .
70(4) . . .
73(5) . . .
74(4) . . .
81(5) . . .
76(4) . . .
95(5) . . .
96(5) . . .
90(5) . . .
86(5) . . .
82(5) . . .
82(5) . . .
80(5) . . .
80(5) . . .
70(4) . . .
72(4) . . .
79(5) . . .
84(5) . . .
77(5) . . .
84(5) . . .
73(5) . . .
73(5) . . .
83(5) . . .
76(5) . . .
86(5) . . .
94(5) . . .
74(5) . . .
77(5) . . .
71(4) . . .
81(5) . . .
79(5) . . .
86(5) . . .
79(5) . . .
69(4) . . .
85(5) . . .
83(5) . . .
84(5) . . .
84(5) . . .
81(5) . . .
67(4) . . .
80(5) . . .
78(5) . . .
83(5) . . .
75(5) . . .
85(5) . . .
77(5) . . .
80(5) . . .
80(5) . . .
89(5) . . .
85(5) . . .
82(5) . . .
73(5) . . .
91(5) . . .
70(4) . . .
85(5) . . .
95(5) . . .
85(5) . . .
81(5) . . .
76(5) . . .
80(5) . . .
72(5) . . .
84(5) . . .
80(5) . . .
87(5) . . .
81(5) . . .
71(5) . . .
73(5) . . .
81(5) . . .
77(5) . . .
72(5) . . .
73(5) . . .
88(6) . . .
78(5) . . .
74(4) . . .
74(5) . . .
75(5) . . .
87(5) . . .
86(5) . . .
74(4) . . .
75(5) . . .
83(5) . . .
80(5) . . .
83(5) . . .
80(5) . . .
85(5) . . .
76(5) . . .
73(5) . . .
80(5) . . .
73(4) . . .
77(5) . . .
71(5) . . .
73(5) . . .
73(4) . . .
77(5) . . .
69(5) . . .
75(5) . . .
86(5) . . .
71(5) . . .
70(4) . . .
78(5) . . .
62(4) . . .
85(5) . . .
76(5) . . .
80(5) . . .
77(5) . . .
77(5) . . .
92(5) . . .
87(5) . . .
74(5) . . .
76(5) . . .
72(4) . . .
76(5) . . .
74(5) . . .
84(5) . . .
77(5) . . .
81(5) . . .
71(4) . . .
80(5) . . .
73(4) . . .
78(5) . . .
86(5) . . .
71(4) . . .
76(5) . . .
79(5) . . .
89(5) . . .
83(5) . . .
72(5) . . .
84(5) . . .
87(5) . . .
88(5) . . .
90(5) . . .
74(5) . . .
83(5) . . .
69(5) . . .
87(5) . . .
78(5) . . .
83(5) . . .
75(5) . . .
75(5) . . .
82(5) . . .
85(5) . . .
72(5) . . .
79(5) . . .
80(5) . . .
81(5) . . .
83(5) . . .
94(5) . . .
76(5) . . .
79(5) . . .
82(5) . . .
80(5) . . .
91(5) . . .
74(4) . . .
71(4) . . .
70(5) . . .
65(4) . . .
73(4) . . .
79(5) . . .
72(4) . . .
79(5) . . .
80(5) . . .
76(4) . . .
91(5) . . .
80(5) . . .
72(5) . . .
73(5) . . .
91(5) . . .
79(5) . . .
99(6) . . .
69(4) . . .
74(5) . . .
85(5) . . .
66(4) . . .
78(5) . . .
83(5) . . .
86(5) . . .
82(5) . . .
75(5) . . .
72(5) . . .
79(5) . . .
77(5) . . .
78(5) . . .
72(4) . . .
75(5) . . .
73(5) . . .
85(5) . . .
72(4) . . .
73(5) . . .
67(4) . . .
68(4) . . .
80(5) . . .
82(5) . . .
78(5) . . .
74(5) . . .
75(5) . . .
81(5) . . .
83(5) . . .
83(5) . . .
77(5) . . .
72(5) . . .
80(5) . . .
88(5) . . .
76(5) . . .
74(5) . . .
86(5) . . .
73(5) . . .
81(5) . . .
78(5) . . .
81(5) . . .
96(5) . . .
85(5) . . .
75(5) . . .
84(5) . . .
73(5) . . .
83(5) . . .
84(5) . . .
69(4) . . .
85(5) . . .
81(5) . . .
79(5) . . .
67(4) . . .
79(5) . . .
81(5) . . .
88(5) . . .
84(5) . . .
79(5) . . .
79(5) . . .
73(5) . . .
74(5) . . .
81(5) . . .
79(5) . . .
81(5) . . .
77(5) . . .
83(5) . . .
77(5) . . .
72(4) . . .
87(5) . . .
71(4) . . .
71(5) . . .
74(5) . . .
90(5) . . .
77(5) . . .
83(5) . . .
78(5) . . .
68(4) . . .
88(5) . . .
78(5) . . .
66(5) . . .
83(5) . . .
63(4) . . .
79(5) . . .
79(5) . . .
80(5) . . .
79(5) . . .
92(5) . . .
73(4) . . .
79(5) . . .
71(5) . . .
86(5) . . .
76(5) . . .
72(4) . . .
74(5) . . .
90(5) . . .
77(5) . . .
79(5) . . .
79(5) . . .
73(4) . . .
90(5) . . .
85(5) . . .
70(4) . . .
67(4) . . .
72(5) . . .
72(5) . . .
78(5) . . .
75(4) . . .
75(5) . . .
83(5) . . .
76(5) . . .
76(5) . . .
78(5) . . .
88(5) . . .
73(5) . . .
79(5) . . .
78(5) . . .
77(5) . . .
71(4) . . .
80(5) . . .
80(5) . . .
80(5) . . .
66(4) . . .
73(5) . . .
86(5) . . .
80(5) . . .
86(5) . . .
83(5) . . .
88(5) . . .
91(5) . . .
73(4) . . .
73(4) . . .
83(5) . . .
81(5) . . .
71(5) . . .
77(5) . . .
75(5) . . .
71(4) . . .
87(5) . . .
77(5) . . .
78(5) . . .
87(5) . . .
73(4) . . .
75(5) . . .
75(5) . . .
83(5) . . .
71(4) . . .
81(5) . . .
72(5) . . .
78(5) . . .
91(5) . . .
83(5) . . .
85(5) . . .
79(5) . . .
76(5) . . .
71(4) . . .
80(5) . . .
79(5) . . .
70(5) . . .
66(5) . . .
75(5) . . .
84(5) . . .
78(5) . . .
82(5) . . .
81(5) . . .
90(5) . . .
75(4) . . .
90(5) . . .
80(5) . . .
81(5) . . .
77(5) . . .
79(5) . . .
70(4) . . .
73(5) . . .
81(5) . . .
71(5) . . .
91(5) . . .
82(5) . . .
72(5) . . .
72(5) . . .
75(4) . . .
84(5) . . .
85(5) . . .
82(5) . . .
87(5) . . .
75(5) . . .
78(5) . . .
70(4) . . .
77(5) . . .
71(4) . . .
69(4) . . .
74(4) . . .
83(5) . . .
84(5) . . .
76(5) . . .
79(5) . . .
77(5) . . .
79(5) . . .
70(4) . . .
80(5) . . .
84(5) . . .
68(4) . . .
86(5) . . .
93(5) . . .
74(5) . . .
72(4) . . .
92(5) . . .
76(5) . . .
74(5) . . .
82(5) . . .
73(4) . . .
80(5) . . .
80(5) . . .
76(5) . . .
73(5) . . .
84(5) . . .
70(4) . . .
80(5) . . .
67(4) . . .
70(4) . . .
76(5) . . .
84(5) . . .
77(5) . . .
80(5) . . .
72(4) . . .
73(4) . . .
72(5) . . .
86(5) . . .
54(4) . . .
75(5) . . .
73(4) . . .
73(5) . . .
89(5) . . .
73(5) . . .
62(4) . . .
56(4) . . .
70(4) . . .
79(5) . . .
74(5) . . .
82(5) . . .
80(5) . . .
76(5) . . .
85(5) . . .
72(4) . . .
76(4) . . .
79(5) . . .
82(5) . . .
82(5) . . .
74(5) . . .
62(4) . . .
63(4) . . .
74(5) . . .
91(6) . . .
77(5) . . .
88(5) . . .
77(5) . . .
71(5) . . .
63(4) . . .
80(5) . . .
81(5) . . .
72(4) . . .
74(5) . . .
84(5) . . .
72(5) . . .
81(5) . . .
80(5) . . .
74(5) . . .
77(5) . . .
69(4) . . .
68(4) . . .
80(5) . . .
85(5) . . .
68(4) . . .
66(4) . . .
83(5) . . .
77(5) . . .
75(5) . . .
72(4) . . .
78(5) . . .
78(5) . . .
76(5) . . .
70(5) . . .
79(5) . . .
80(5) . . .
76(5) . . .
80(5) . . .
78(5) . . .
84(5) . . .
83(5) . . .
82(5) . . .
79(5) . . .
78(5) . . .
73(5) . . .
69(4) . . .
73(4) . . .
78(5) . . .
78(5) . . .
86(5) . . .
83(5) . . .
70(4) . . .
65(4) . . .
87(5) . . .
83(5) . . .
81(5) . . .
74(5) . . .
85(5) . . .
68(5) . . .
79(5) . . .
79(5) . . .
85(5) . . .
68(4) . . .
72(5) . . .
70(5) . . .
75(4) . . .
79(5) . . .
68(4) . . .
69(5) . . .
77(5) . . .
82(5) . . .
81(5) . . .
79(5) . . .
92(5) . . .
80(5) . . .
82(5) . . .
68(4) . . .
87(5) . . .
87(5) . . .
92(5) . . .
93(5) . . .
85(5) . . .
82(5) . . .
78(5) . . .
72(4) . . .
79(5) . . .
72(5) . . .
78(5) . . .
77(5) . . .
88(5) . . .
76(5) . . .
82(5) . . .
76(5) . . .
72(5) . . .
58(4) . . .
71(4) . . .
72(5) . . .
82(5) . . .
65(4) . . .
80(5) . . .
73(4) . . .
83(5) . . .
76(5) . . .
71(5) . . .
72(4) . . .
73(5) . . .
83(5) . . .
82(5) . . .
82(5) . . .
71(4) . . .
82(5) . . .
69(4) . . .
83(5) . . .
64(4) . . .
70(4) . . .
78(5) . . .
72(5) . . .
68(4) . . .
84(5) . . .
79(5) . . .
79(5) . . .
81(5) . . .
69(4) . . .
85(5) . . .
86(5) . . .
85(5) . . .
75(5) . . .
97(5) . . .
83(5) . . .
66(4) . . .
81(5) . . .
80(5) . . .
84(5) . . .
76(5) . . .
87(5) . . .
82(5) . . .
76(5) . . .
75(5) . . .
77(5) . . .
82(5) . . .
70(4) . . .
91(5) . . .
77(5) . . .
72(4) . . .
82(5) . . .
73(5) . . .
79(5) . . .
83(5) . . .
83(5) . . .
91(5) . . .
74(5) . . .
78(5) . . .
82(5) . . .
79(5) . . .
85(5) . . .
75(5) . . .
83(5) . . .
69(5) . . .
70(4) . . .
82(5) . . .
64(4) . . .
73(5) . . .
72(5) . . .
84(5) . . .
76(5) . . .
67(4) . . .
87(5) . . .
78(5) . . .
85(5) . . .
69(4) . . .
86(5) . . .
87(5) . . .
89(5) . . .
79(5) . . .
82(5) . . .
76(5) . . .
91(5) . . .
77(5) . . .
84(5) . . .
70(4) . . .
77(5) . . .
82(5) . . .
73(5) . . .
72(4) . . .
78(5) . . .
89(5) . . .
79(5) . . .
74(5) . . .
77(5) . . .
73(4) . . .
94(6) . . .
87(5) . . .
87(5) . . .
64(4) . . .
70(4) . . .
80(5) . . .
77(5) . . .
77(5) . . .
67(4) . . .
80(5) . . .
69(5) . . .
66(4) . . .
75(5) . . .
67(4) . . .
71(5) . . .
76(5) . . .
75(5) . . .
67(4) . . .
67(4) . . .
82(5) . . .
69(4) . . .
92(5) . . .
77(5) . . .
71(4) . . .
74(5) . . .
71(5) . . .
72(4) . . .
69(4) . . .
68(4) . . .
79(5) . . .
68(4) . . .
74(5) . . .
80(5) . . .
75(5) . . .
75(5) . . .
71(4) . . .
75(4) . . .
66(4) . . .
72(5) . . .
78(5) . . .
65(4) . . .
69(4) . . .
89(5) . . .
98(6) . . .
82(5) . . .
76(5) . . .
76(5) . . .
77(5) . . .
82(5) . . .
82(5) . . .
66(4) . . .
82(5) . . .
71(4) . . .
87(5) . . .
76(5) . . .
79(5) . . .
77(5) . . .
80(5) . . .
82(5) . . .
81(5) . . .
73(5) . . .
77(5) . . .
78(5) . . .
64(4) . . .
71(5) . . .
69(4) . . .
77(5) . . .
82(5) . . .
80(5) . . .
69(5) . . .
71(5) . . .
80(5) . . .
79(5) . . .
77(5) . . .
76(5) . . .
69(5) . . .
69(4) . . .
75(4) . . .
77(5) . . .
77(5) . . .
70(4) . . .
91(5) . . .
79(5) . . .
87(5) . . .
85(5) . . .
74(5) . . .
76(5) . . .
74(5) . . .
66(4) . . .
73(5) . . .
88(5) . . .
67(4) . . .
81(5) . . .
67(4) . . .
73(5) . . .
75(5) . . .
85(5) . . .
83(5) . . .
82(5) . . .
75(4) . . .
82(5) . . .
77(5) . . .
77(5) . . .
80(5) . . .
74(4) . . .
77(5) . . .
88(5) . . .
71(4) . . .
76(5) . . .
81(5) . . .
84(5) . . .
78(5) . . .
76(5) . . .
84(5) . . .
75(4) . . .
69(4) . . .
67(4) . . .
69(4) . . .
73(5) . . .
80(5) . . .
69(4) . . .
78(5) . . .
73(5) . . .
72(5) . . .
77(5) . . .
80(5) . . .
85(5) . . .
84(5) . . .
74(5) . . .
76(5) . . .
69(4) . . .
72(5) . . .
81(5) . . .
77(5) . . .
64(4) . . .
61(4) . . .
61(4) . . .
83(5) . . .
76(5) . . .
76(5) . . .
75(5) . . .
73(5) . . .
79(5) . . .
71(4) . . .
74(4) . . .
79(5) . . .
69(4) . . .
70(5) . . .
75(5) . . .
84(5) . . .
90(5) . . .
70(5) . . .
76(5) . . .
67(4) . . .
86(5) . . .
81(5) . . .
83(5) . . .
84(5) . . .
78(5) . . .
66(4) . . .
67(4) . . .
80(5) . . .
76(5) . . .
82(5) . . .
85(5) . . .
75(5) . . .
86(5) . . .
78(5) . . .
84(5) . . .
77(5) . . .
72(5) . . .
72(5) . . .
70(5) . . .
83(5) . . .
79(5) . . .
78(5) . . .
73(5) . . .
82(5) . . .
80(5) . . .
67(4) . . .
72(4) . . .
79(5) . . .
68(4) . . .
74(5) . . .
79(5) . . .
67(4) . . .
76(5) . . .
71(4) . . .
69(4) . . .
67(4) . . .
78(5) . . .
76(5) . . .
90(5) . . .
75(5) . . .
70(4) . . .
79(5) . . .
68(4) . . .
87(5) . . .
86(5) . . .
77(5) . . .
89(5) . . .
80(5) . . .
70(4) . . .
75(5) . . .
67(4) . . .
82(5) . . .
76(5) . . .
71(4) . . .
80(5) . . .
68(4) . . .
74(4) . . .
82(5) . . .
71(4) . . .
71(4) . . .
87(5) . . .
79(5) . . .
84(5) . . .
77(5) . . .
86(5) . . .
58(4) . . .
66(4) . . .
68(4) . . .
79(5) . . .
77(5) . . .
70(5) . . .
80(5) . . .
64(4) . . .
85(5) . . .
72(4) . . .
65(4) . . .
73(5) . . .
61(4) . . .
85(5) . . .
72(4) . . .
75(5) . . .
73(5) . . .
73(5) . . .
70(4) . . .
77(5) . . .
68(4) . . .
90(5) . . .
76(5) . . .
68(4) . . .
72(4) . . .
87(5) . . .
78(5) . . .
78(5) . . .
80(5) . . .
80(5) . . .
74(5) . . .
80(5) . . .
66(4) . . .
77(5) . . .
85(5) . . .
68(4) . . .
73(5) . . .
82(5) . . .
80(5) . . .
82(5) . . .
70(4) . . .
70(5) . . .
74(5) . . .
76(5) . . .
72(5) . . .
70(4) . . .
78(5) . . .
83(5) . . .
79(5) . . .
82(5) . . .
67(5) . . .
57(4) . . .
80(5) . . .
69(4) . . .
64(4) . . .
77(5) . . .
71(4) . . .
83(5) . . .
82(5) . . .
71(5) . . .
78(5) . . .
65(4) . . .
88(5) . . .
78(5) . . .
71(4) . . .
72(5) . . .
75(5) . . .
72(4) . . .
71(4) . . .
69(4) . . .
71(5) . . .
64(4) . . .
76(4) . . .
85(5) . . .
75(5) . . .
83(5) . . .
71(4) . . .
86(5) . . .
74(4) . . .
74(5) . . .
81(5) . . .
71(4) . . .
80(5) . . .
72(4) . . .
80(5) . . .
87(5) . . .
71(5) . . .
78(5) . . .
71(4) . . .
71(5) . . .
73(5) . . .
72(5) . . .
69(4) . . .
81(5) . . .
85(5) . . .
81(5) . . .
75(5) . . .
70(4) . . .
66(4) . . .
71(5) . . .
82(5) . . .
79(5) . . .
83(5) . . .
76(5) . . .
78(5) . . .
70(5) . . .
79(5) . . .
80(5) . . .
65(4) . . .
71(4) . . .
79(5) . . .
78(5) . . .
76(5) . . .
67(4) . . .
66(4) . . .
74(5) . . .
85(5) . . .
76(5) . . .
77(5) . . .
80(5) . . .
76(5) . . .
85(5) . . .
80(5) . . .
70(4) . . .
67(4) . . .
75(5) . . .
67(4) . . .
81(5) . . .
68(4) . . .
63(4) . . .
75(5) . . .
77(5) . . .
65(4) . . .
71(5) . . .
77(5) . . .
73(5) . . .
71(4) . . .
82(5) . . .
63(4) . . .
81(5) . . .
64(4) . . .
74(4) . . .
68(4) . . .
72(4) . . .
69(5) . . .
57(4) . . .
63(4) . . .
73(4) . . .
72(5) . . .
75(5) . . .
73(4) . . .
66(4) . . .
75(4) . . .
74(5) . . .
71(5) . . .
81(5) . . .
66(4) . . .
70(4) . . .
80(5) . . .
74(5) . . .
90(5) . . .
70(4) . . .
69(5) . . .
75(5) . . .
70(5) . . .
76(5) . . .
70(4) . . .
66(4) . . .
56(4) . . .
68(5) . . .
71(4) . . .
68(4) . . .
67(4) . . .
85(5) . . .
76(5) . . .
75(5) . . .
77(5) . . .
82(5) . . .
79(5) . . .
64(4) . . .
57(4) . . .
62(4) . . .
73(5) . . .
69(5) . . .
76(5) . . .
75(4) . . .
64(4) . . .
72(5) . . .
67(4) . . .
66(4) . . .
69(4) . . .
74(4) . . .
72(5) . . .
79(5) . . .
82(5) . . .
79(5) . . .
87(5) . . .
78(5) . . .
72(5) . . .
59(4) . . .
78(5) . . .
74(4) . . .
76(5) . . .
84(5) . . .
68(5) . . .
62(4) . . .
67(4) . . .
71(5) . . .
74(5) . . .
82(5) . . .
77(5) . . .
67(4) . . .
68(5) . . .
75(5) . . .
80(5) . . .
74(5) . . .
62(4) . . .
73(4) . . .
77(5) . . .
72(4) . . .
77(4) . . .
68(5) . . .
71(5) . . .
82(5) . . .
86(5) . . .
80(5) . . .
61(4) . . .
71(5) . . .
74(5) . . .
78(5) . . .
59(4) . . .
76(5) . . .
75(5) . . .
84(5) . . .
73(4) . . .
69(4) . . .
71(5) . . .
69(5) . . .
67(4) . . .
74(4) . . .
69(4) . . .
76(5) . . .
74(5) . . .
77(5) . . .
72(4) . . .
69(4) . . .
75(5) . . .
60(4) . . .
69(5) . . .
68(4) . . .
71(4) . . .
73(5) . . .
61(4) . . .
69(5) . . .
67(4) . . .
77(5) . . .
77(5) . . .
72(5) . . .
68(4) . . .
69(4) . . .
71(4) . . .
82(5) . . .
84(5) . . .
80(5) . . .
74(5) . . .
68(4) . . .
67(4) . . .
80(5) . . .
73(4) . . .
69(4) . . .
69(4) . . .
72(5) . . .
71(5) . . .
75(4) . . .
76(5) . . .
71(5) . . .
69(5) . . .
71(4) . . .
70(4) . . .
71(5) . . .
70(4) . . .
75(5) . . .
74(5) . . .
77(5) . . .
67(4) . . .
72(4) . . .
76(5) . . .
82(5) . . .
74(4) . . .
69(4) . . .
71(5) . . .
72(5) . . .
72(4) . . .
71(4) . . .
78(5) . . .
78(5) . . .
72(5) . . .
78(5) . . .
69(4) . . .
80(5) . . .
69(4) . . .
73(5) . . .
75(5) . . .
64(4) . . .
69(4) . . .
75(5) . . .
66(4) . . .
63(4) . . .
71(4) . . .
71(4) . . .
69(4) . . .
80(5) . . .
68(4) . . .
66(4) . . .
72(4) . . .
61(4) . . .
64(4) . . .
79(5) . . .
73(4) . . .
72(5) . . .
65(4) . . .
64(4) . . .
61(4) . . .
75(4) . . .
73(5) . . .
72(5) . . .
70(4) . . .
82(5) . . .
83(5) . . .
70(5) . . .
74(5) . . .
70(5) . . .
78(5) . . .
69(4) . . .
83(5) . . .
77(5) . . .
79(5) . . .
72(4) . . .
82(5) . . .
74(5) . . .
75(5) . . .
80(5) . . .
73(4) . . .
82(5) . . .
70(5) . . .
75(5) . . .
64(4) . . .
66(4) . . .
77(5) . . .
81(5) . . .
77(5) . . .
77(5) . . .
79(5) . . .
62(4) . . .
75(5) . . .
71(4) . . .
91(5) . . .
77(5) . . .
68(4) . . .
61(4) . . .
71(5) . . .
77(5) . . .
80(5) . . .
83(5) . . .
70(4) . . .
74(5) . . .
80(5) . . .
85(5) . . .
71(5) . . .
79(5) . . .
74(5) . . .
76(5) . . .
68(4) . . .
66(4) . . .
70(5) . . .
78(5) . . .
78(5) . . .
66(4) . . .
77(5) . . .
77(5) . . .
81(5) . . .
68(4) . . .
72(4) . . .
68(4) . . .
68(4) . . .
67(4) . . .
71(4) . . .
74(5) . . .
60(4) . . .
80(5) . . .
76(5) . . .
70(4) . . .
71(4) . . .
69(4) . . .
75(5) . . .
77(5) . . .
68(4) . . .
70(4) . . .
79(5) . . .
74(5) . . .
83(5) . . .
69(4) . . .
72(4) . . .
72(4) . . .
71(5) . . .
71(5) . . .
70(4) . . .
67(4) . . .
75(5) . . .
78(5) . . .
62(4) . . .
64(4) . . .
65(4) . . .
77(5) . . .
79(5) . . .
75(5) . . .
65(4) . . .
67(4) . . .
66(4) . . .
67(4) . . .
81(5) . . .
81(5) . . .
78(5) . . .
71(4) . . .
78(5) . . .
77(5) . . .
75(5) . . .
67(4) . . .
63(4) . . .
64(4) . . .
80(5) . . .
71(4) . . .
67(4) . . .
76(5) . . .
76(5) . . .
69(4) . . .
71(4) . . .
74(5) . . .
63(4) . . .
71(5) . . .
66(4) . . .
67(4) . . .
72(5) . . .
75(5) . . .
72(5) . . .
81(5) . . .
72(4) . . .
61(4) . . .
71(5) . . .
70(5) . . .
74(4) . . .
82(5) . . .
73(5) . . .
62(4) . . .
78(5) . . .
66(4) . . .
77(5) . . .
66(4) . . .
79(5) . . .
64(4) . . .
66(4) . . .
69(4) . . .
71(5) . . .
66(5) . . .
62(4) . . .
57(4) . . .
74(4) . . .
91(5) . . .
67(4) . . .
68(4) . . .
78(5) . . .
79(5) . . .
79(5) . . .
69(4) . . .
70(4) . . .
67(4) . . .
84(5) . . .
71(5) . . .
75(5) . . .
84(5) . . .
82(5) . . .
69(5) . . .
75(5) . . .
84(5) . . .
73(4) . . .
72(5) . . .
75(5) . . .
78(5) . . .
78(5) . . .
74(5) . . .
79(5) . . .
86(5) . . .
81(5) . . .
59(4) . . .
62(4) . . .
75(5) . . .
65(4) . . .
71(5) . . .
72(5) . . .
69(4) . . .
68(4) . . .
73(5) . . .
71(5) . . .
78(5) . . .
69(4) . . .
78(5) . . .
61(4) . . .
74(5) . . .
70(5) . . .
67(4) . . .
73(4) . . .
71(4) . . .
73(5) . . .
73(5) . . .
83(5) . . .
76(5) . . .
66(5) . . .
63(4) . . .
78(5) . . .
74(5) . . .
75(5) . . .
75(5) . . .
77(5) . . .
68(4) . . .
67(4) . . .
73(5) . . .
72(5) . . .
75(5) . . .
68(4) . . .
77(5) . . .
73(5) . . .
61(4) . . .
70(4) . . .
81(5) . . .
78(5) . . .
80(5) . . .
64(4) . . .
81(5) . . .
77(5) . . .
70(4) . . .
77(5) . . .
63(4) . . .
71(5) . . .
71(4) . . .
78(5) . . .
68(5) . . .
73(5) . . .
82(5) . . .
61(4) . . .
66(4) . . .
77(5) . . .
79(5) . . .
77(5) . . .
69(4) . . .
82(5) . . .
65(4) . . .
77(5) . . .
64(4) . . .
82(5) . . .
74(4) . . .
72(5) . . .
60(4) . . .
74(5) . . .
66(4) . . .
56(4) . . .
69(5) . . .
73(5) . . .
69(4) . . .
73(4) . . .
62(4) . . .
68(5) . . .
79(5) . . .
71(5) . . .
68(4) . . .
76(5) . . .
64(4) . . .
59(4) . . .
66(4) . . .
77(5) . . .
64(4) . . .
71(5) . . .
66(4) . . .
61(4) . . .
72(4) . . .
80(5) . . .
70(5) . . .
70(4) . . .
68(4) . . .
73(4) . . .
65(4) . . .
70(5) . . .
67(4) . . .
66(4) . . .
64(4) . . .
65(4) . . .
63(5) . . .
63(4) . . .
80(5) . . .
58(4) . . .
58(4) . . .
71(5) . . .
73(5) . . .
71(4) . . .
69(4) . . .
58(4) . . .
72(5) . . .
62(4) . . .
72(4) . . .
57(4) . . .
74(5) . . .
65(4) . . .
67(4) . . .
80(5) . . .
68(4) . . .
72(5) . . .
60(4) . . .
65(4) . . .
65(4) . . .
79(5) . . .
72(5) . . .
75(5) . . .
64(4) . . .
75(4) . . .
70(5) . . .
69(4) . . .
73(5) . . .
78(5) . . .
68(4) . . .
71(5) . . .
68(5) . . .
77(5) . . .
53(4) . . .
62(4) . . .
65(4) . . .
77(5) . . .
74(5) . . .
65(4) . . .
76(4) . . .
72(4) . . .
75(5) . . .
66(5) . . .
75(5) . . .
67(4) . . .
56(4) . . .
69(5) . . .
59(4) . . .
62(4) . . .
72(4) . . .
74(5) . . .
80(5) . . .
74(5) . . .
74(4) . . .
71(4) . . .
72(5) . . .
66(4) . . .
74(5) . . .
66(4) . . .
74(5) . . .
61(4) . . .
57(4) . . .
69(4) . . .
71(4) . . .
71(4) . . .
62(4) . . .
62(4) . . .
64(4) . . .
60(4) . . .
73(5) . . .
57(4) . . .
64(4) . . .
68(4) . . .
67(4) . . .
77(5) . . .
75(5) . . .
67(4) . . .
66(4) . . .
64(4) . . .
73(5) . . .
76(5) . . .
75(5) . . .
71(4) . . .
69(4) . . .
70(5) . . .
69(5) . . .
63(4) . . .
63(4) . . .
65(4) . . .
63(4) . . .
60(4) . . .
73(5) . . .
70(4) . . .
60(4) . . .
63(4) . . .
66(5) . . .
58(4) . . .
60(4) . . .
67(4) . . .
69(4) . . .
75(5) . . .
74(5) . . .
66(4) . . .
73(4) . . .
60(5) . . .
60(4) . . .
72(5) . . .
76(4) . . .
65(4) . . .
74(5) . . .
66(4) . . .
68(5) . . .
61(4) . . .
69(4) . . .
70(4) . . .
62(4) . . .
65(4) . . .
73(4) . . .
79(5) . . .
69(4) . . .
73(5) . . .
77(5) . . .
79(5) . . .
71(5) . . .
68(4) . . .
72(5) . . .
75(5) . . .
70(4) . . .
70(5) . . .
74(5) . . .
61(4) . . .
70(4) . . .
65(4) . . .
79(5) . . .
60(4) . . .
62(4) . . .
62(4) . . .
61(4) . . .
68(4) . . .
69(5) . . .
69(4) . . .
65(4) . . .
67(4) . . .
68(4) . . .
73(5) . . .
66(4) . . .
70(4) . . .
65(4) . . .
69(5) . . .
59(4) . . .
67(5) . . .
65(4) . . .
76(5) . . .
64(4) . . .
65(5) . . .
66(4) . . .
57(4) . . .
72(4) . . .
70(4) . . .
87(5) . . .
65(4) . . .
67(4) . . .
70(4) . . .
83(5) . . .
67(4) . . .
62(4) . . .
71(4) . . .
71(5) . . .
68(5) . . .
76(5) . . .
65(4) . . .
63(4) . . .
64(4) . . .
73(5) . . .
64(4) . . .
63(4) . . .
63(4) . . .
64(4) . . .
68(4) . . .
61(4) . . .
74(5) . . .
78(5) . . .
73(5) . . .
55(4) . . .
73(5) . . .
66(4) . . .
72(4) . . .
58(4) . . .
57(4) . . .
72(5) . . .
75(5) . . .
65(4) . . .
75(5) . . .
72(5) . . .
65(4) . . .
69(4) . . .
67(4) . . .
75(5) . . .
68(5) . . .
73(5) . . .
65(4) . . .
53(4) . . .
66(4) . . .
69(4) . . .
78(5) . . .
69(4) . . .
72(4) . . .
67(4) . . .
60(4) . . .
73(5) . . .
66(4) . . .
66(4) . . .
65(4) . . .
67(5) . . .
63(4) . . .
64(4) . . .
62(4) . . .
69(5) . . .
65(4) . . .
72(5) . . .
66(4) . . .
71(4) . . .
65(5) . . .
64(4) . . .
70(4) . . .
58(4) . . .
72(5) . . .
79(5) . . .
61(4) . . .
59(4) . . .
62(4) . . .
64(5) . . .
63(4) . . .
76(5) . . .
62(4) . . .
66(4) . . .
63(4) . . .
69(5) . . .
68(4) . . .
70(4) . . .
61(4) . . .
74(5) . . .
77(5) . . .
61(4) . . .
74(4) . . .
68(4) . . .
70(4) . . .
63(4) . . .
59(4) . . .
69(4) . . .
62(4) . . .
75(5) . . .
69(4) . . .
77(5) . . .
78(5) . . .
68(4) . . .
72(5) . . .
68(4) . . .
66(4) . . .
66(4) . . .
70(4) . . .
65(4) . . .
68(5) . . .
60(4) . . .
79(5) . . .
68(4) . . .
74(5) . . .
65(4) . . .
67(4) . . .
78(5) . . .
72(4) . . .
63(4) . . .
66(4) . . .
66(4) . . .
61(4) . . .
72(4) . . .
80(5) . . .
64(4) . . .
69(4) . . .
68(4) . . .
62(4) . . .
69(4) . . .
72(5) . . .
71(4) . . .
60(4) . . .
71(5) . . .
60(4) . . .
64(4) . . .
63(4) . . .
67(4) . . .
74(5) . . .
72(5) . . .
60(4) . . .
68(4) . . .
69(4) . . .
65(4) . . .
68(5) . . .
57(4) . . .
69(4) . . .
69(4) . . .
63(4) . . .
67(4) . . .
78(5) . . .
80(5) . . .
71(4) . . .
87(5) . . .
79(5) . . .
76(5) . . .
70(4) . . .
67(4) . . .
68(4) . . .
62(4) . . .
74(5) . . .
68(4) . . .
74(5) . . .
73(5) . . .
77(5) . . .
63(4) . . .
61(4) . . .
71(5) . . .
68(4) . . .
68(4) . . .
69(4) . . .
66(4) . . .
67(4) . . .
61(4) . . .
62(4) . . .
71(4) . . .
72(4) . . .
70(5) . . .
61(4) . . .
66(5) . . .
65(4) . . .
67(4) . . .
60(4) . . .
66(5) . . .
62(4) . . .
64(4) . . .
74(4) . . .
75(5) . . .
54(4) . . .
62(4) . . .
76(5) . . .
63(4) . . .
79(5) . . .
66(5) . . .
61(4) . . .
64(4) . . .
61(4) . . .
71(4) . . .
70(4) . . .
66(4) . . .
61(4) . . .
55(4) . . .
65(5) . . .
62(4) . . .
64(4) . . .
64(4) . . .
71(4) . . .
66(4) . . .
66(4) . . .
62(4) . . .
80(5) . . .
70(4) . . .
73(4) . . .
75(5) . . .
69(5) . . .
56(4) . . .
67(4) . . .
81(5) . . .
64(4) . . .
75(5) . . .
64(4) . . .
65(5) . . .
63(4) . . .
74(5) . . .
77(5) . . .
62(4) . . .
65(4) . . .
64(4) . . .
68(4) . . .
67(4) . . .
67(4) . . .
74(5) . . .
74(5) . . .
67(4) . . .
66(4) . . .
66(4) . . .
68(4) . . .
71(5) . . .
71(4) . . .
77(5) . . .
66(4) . . .
74(5) . . .
69(5) . . .
76(5) . . .
64(4) . . .
75(5) . . .
64(4) . . .
71(5) . . .
70(4) . . .
69(4) . . .
68(4) . . .
60(4) . . .
63(4) . . .
77(5) . . .
71(4) . . .
56(4) . . .
63(4) . . .
63(4) . . .
71(5) . . .
60(4) . . .
66(4) . . .
58(4) . . .
70(5) . . .
74(5) . . .
71(4) . . .
70(4) . . .
72(5) . . .
73(5) . . .
61(4) . . .
73(4) . . .
67(4) . . .
54(4) . . .
56(4) . . .
61(4) . . .
64(4) . . .
71(5) . . .
80(5) . . .
71(4) . . .
72(5) . . .
68(4) . . .
53(4) . . .
67(5) . . .
68(4) . . .
64(4) . . .
63(4) . . .
78(5) . . .
60(4) . . .
63(4) . . .
57(4) . . .
70(4) . . .
62(4) . . .
55(4) . . .
65(4) . . .
71(4) . . .
64(4) . . .
76(5) . . .
70(5) . . .
64(4) . . .
70(4) . . .
67(4) . . .
68(4) . . .
69(4) . . .
63(4) . . .
54(4) . . .
56(4) . . .
58(4) . . .
71(5) . . .
59(4) . . .
72(4) . . .
64(4) . . .
64(4) . . .
68(5) . . .
74(5) . . .
69(4) . . .
56(4) . . .
67(4) . . .
66(4) . . .
58(4) . . .
64(4) . . .
64(4) . . .
63(4) . . .
64(4) . . .
66(4) . . .
70(4) . . .
57(4) . . .
69(4) . . .
68(4) . . .
61(4) . . .
62(4) . . .
63(4) . . .
66(4) . . .
61(4) . . .
61(4) . . .
66(4) . . .
72(5) . . .
67(5) . . .
64(4) . . .
53(4) . . .
77(5) . . .
67(4) . . .
64(4) . . .
65(4) . . .
56(4) . . .
71(4) . . .
71(4) . . .
69(5) . . .
67(4) . . .
68(4) . . .
62(4) . . .
52(4) . . .
65(4) . . .
82(5) . . .
75(5) . . .
65(4) . . .
61(4) . . .
73(5) . . .
64(4) . . .
56(4) . . .
57(4) . . .
67(5) . . .
70(5) . . .
63(4) . . .
59(4) . . .
67(4) . . .
67(4) . . .
63(4) . . .
57(4) . . .
59(4) . . .
63(4) . . .
61(4) . . .
60(4) . . .
73(5) . . .
67(4) . . .
54(4) . . .
72(5) . . .
70(4) . . .
63(4) . . .
56(4) . . .
66(4) . . .
55(4) . . .
58(4) . . .
65(4) . . .
72(5) . . .
65(4) . . .
65(4) . . .
56(4) . . .
73(5) . . .
58(4) . . .
58(4) . . .
72(5) . . .
71(5) . . .
56(4) . . .
75(5) . . .
74(5) . . .
65(4) . . .
64(4) . . .
48(4) . . .
65(4) . . .
67(4) . . .
67(5) . . .
56(4) . . .
61(4) . . .
53(4) . . .
64(4) . . .
70(5) . . .
70(4) . . .
69(4) . . .
68(4) . . .
69(4) . . .
65(4) . . .
69(4) . . .
61(4) . . .
69(4) . . .
63(4) . . .
66(4) . . .
60(4) . . .
59(4) . . .
71(4) . . .
65(4) . . .
54(4) . . .
72(5) . . .
72(4) . . .
74(5) . . .
70(5) . . .
66(4) . . .
62(4) . . .
65(4) . . .
65(4) . . .
65(4) . . .
67(4) . . .
61(4) . . .
64(4) . . .
69(4) . . .
64(4) . . .
75(5) . . .
59(4) . . .
72(4) . . .
57(4) . . .
48(4) . . .
65(4) . . .
58(4) . . .
64(4) . . .
68(5) . . .
57(4) . . .
60(5) . . .
68(4) . . .
65(4) . . .
72(5) . . .
68(5) . . .
70(5) . . .
67(4) . . .
71(4) . . .
60(4) . . .
70(5) . . .
61(4) . . .
67(4) . . .
57(4) . . .
68(4) . . .
62(4) . . .
67(4) . . .
65(4) . . .
71(4) . . .
62(4) . . .
69(5) . . .
64(4) . . .
78(5) . . .
73(4) . . .
81(5) . . .
68(4) . . .
66(4) . . .
55(4) . . .
63(4) . . .
65(4) . . .
62(4) . . .
71(4) . . .
57(4) . . .
59(4) . . .
72(5) . . .
61(4) . . .
72(5) . . .
58(4) . . .
62(4) . . .
68(4) . . .
75(5) . . .
63(4) . . .
60(4) . . .
63(4) . . .
62(4) . . .
70(4) . . .
78(5) . . .
62(4) . . .
63(5) . . .
57(4) . . .
71(5) . . .
76(5) . . .
67(4) . . .
69(5) . . .
62(5) . . .
70(5) . . .
64(4) . . .
72(4) . . .
68(4) . . .
72(5) . . .
70(5) . . .
59(4) . . .
68(4) . . .
64(5) . . .
62(4) . . .
61(4) . . .
73(4) . . .
51(4) . . .
56(4) . . .
64(4) . . .
71(5) . . .
56(4) . . .
72(5) . . .
61(4) . . .
67(5) . . .
64(4) . . .
65(4) . . .
62(4) . . .
66(4) . . .
52(4) . . .
68(4) . . .
59(4) . . .
74(5) . . .
67(5) . . .
66(4) . . .
62(4) . . .
68(4) . . .
69(4) . . .
74(5) . . .
77(5) . . .
63(4) . . .
69(4) . . .
59(4) . . .
63(4) . . .
74(5) . . .
71(4) . . .
63(4) . . .
66(4) . . .
68(5) . . .
63(4) . . .
73(4) . . .
68(4) . . .
60(4) . . .
63(4) . . .
71(4) . . .
62(4) . . .
67(4) . . .
58(4) . . .
62(4) . . .
71(4) . . .
66(4) . . .
64(4) . . .
65(4) . . .
63(4) . . .
67(5) . . .
65(4) . . .
63(4) . . .
69(5) . . .
68(5) . . .
69(4) . . .
56(4) . . .
61(4) . . .
67(4) . . .
53(4) . . .
66(4) . . .
72(4) . . .
66(4) . . .
55(4) . . .
64(4) . . .
71(5) . . .
74(4) . . .
60(4) . . .
70(5) . . .
62(4) . . .
59(4) . . .
76(5) . . .
67(4) . . .
65(4) . . .
75(5) . . .
65(4) . . .
56(4) . . .
57(4) . . .
69(5) . . .
65(4) . . .
67(4) . . .
71(4) . . .
64(4) . . .
66(4) . . .
72(5) . . .
77(5) . . .
67(4) . . .
62(4) . . .
61(4) . . .
58(4) . . .
65(4) . . .
65(4) . . .
60(4) . . .
56(4) . . .
67(5) . . .
63(4) . . .
69(4) . . .
51(4) . . .
68(5) . . .
61(4) . . .
57(4) . . .
62(4) . . .
66(4) . . .
67(5) . . .
78(5) . . .
72(4) . . .
59(4) . . .
60(4) . . .
72(5) . . .
75(5) . . .
56(4) . . .
63(4) . . .
60(4) . . .
62(4) . . .
65(4) . . .
78(5) . . .
63(4) . . .
57(4) . . .
71(5) . . .
55(4) . . .
59(4) . . .
66(5) . . .
63(4) . . .
52(4) . . .
68(4) . . .
67(4) . . .
71(5) . . .
69(5) . . .
65(4) . . .
70(5) . . .
62(4) . . .
70(5) . . .
64(5) . . .
63(4) . . .
60(4) . . .
66(4) . . .
75(5) . . .
60(4) . . .
55(4) . . .
73(5) . . .
79(5) . . .
64(4) . . .
64(5) . . .
62(4) . . .
77(5) . . .
70(4) . . .
71(4) . . .
65(5) . . .
63(5) . . .
63(4) . . .
71(4) . . .
71(4) . . .
63(4) . . .
63(4) . . .
59(4) . . .
72(4) . . .
70(4) . . .
64(4) . . .
58(4) . . .
60(4) . . .
61(4) . . .
65(4) . . .
55(4) . . .
63(4) . . .
60(4) . . .
70(4) . . .
62(4) . . .
60(4) . . .
72(4) . . .
62(4) . . .
67(4) . . .
61(4) . . .
57(4) . . .
49(4) . . .
68(4) . . .
67(4) . . .
62(4) . . .
55(4) . . .
66(4) . . .
72(4) . . .
69(4) . . .
66(5) . . .
62(4) . . .
64(4) . . .
64(4) . . .
65(4) . . .
58(4) . . .
68(4) . . .
65(4) . . .
71(4) . . .
66(4) . . .
77(5) . . .
72(4) . . .
67(4) . . .
59(4) . . .
65(4) . . .
69(5) . . .
63(4) . . .
60(4) . . .
64(4) . . .
66(4) . . .
58(4) . . .
70(5) . . .
73(4) . . .
73(5) . . .
61(4) . . .
69(5) . . .
68(4) . . .
60(4) . . .
69(5) . . .
62(4) . . .
70(5) . . .
56(4) . . .
63(4) . . .
78(5) . . .
58(4) . . .
61(4) . . .
65(4) . . .
69(4) . . .
67(4) . . .
67(4) . . .
60(4) . . .
60(4) . . .
60(4) . . .
66(5) . . .
60(4) . . .
57(4) . . .
68(4) . . .
66(4) . . .
59(4) . . .
70(5) . . .
70(5) . . .
61(4) . . .
71(4) . . .
75(5) . . .
63(4) . . .
67(4) . . .
69(4) . . .
65(4) . . .
66(4) . . .
64(5) . . .
65(4) . . .
72(4) . . .
55(4) . . .
67(4) . . .
72(5) . . .
69(4) . . .
69(4) . . .
66(4) . . .
67(4) . . .
68(5) . . .
73(5) . . .
64(4) . . .
68(4) . . .
66(4) . . .
60(4) . . .
65(4) . . .
64(4) . . .
60(4) . . .
54(4) . . .
64(4) . . .
64(4) . . .
64(4) . . .
78(5) . . .
78(5) . . .
65(4) . . .
62(4) . . .
72(4) . . .
58(4) . . .
56(4) . . .
55(4) . . .
76(5) . . .
67(4) . . .
61(4) . . .
67(5) . . .
63(4) . . .
68(4) . . .
68(4) . . .
61(4) . . .
61(4) . . .
68(4) . . .
65(4) . . .
70(4) . . .
63(4) . . .
64(5) . . .
52(4) . . .
65(4) . . .
64(4) . . .
69(4) . . .
59(4) . . .
55(4) . . .
61(4) . . .
60(4) . . .
61(4) . . .
68(5) . . .
71(4) . . .
72(4) . . .
66(4) . . .
73(5) . . .
79(5) . . .
57(4) . . .
68(4) . . .
67(4) . . .
67(5) . . .
54(4) . . .
63(4) . . .
59(4) . . .
67(4) . . .
56(4) . . .
58(4) . . .
63(4) . . .
64(4) . . .
67(4) . . .
72(5) . . .
62(4) . . .
58(4) . . .
68(4) . . .
61(4) . . .
59(4) . . .
67(4) . . .
58(4) . . .
62(4) . . .
65(4) . . .
75(5) . . .
64(4) . . .
72(4) . . .
62(4) . . .
60(4) . . .
58(4) . . .
68(5) . . .
71(4) . . .
69(4) . . .
62(4) . . .
66(4) . . .
66(4) . . .
67(4) . . .
62(4) . . .
66(4) . . .
69(5) . . .
65(4) . . .
75(5) . . .
70(4) . . .
60(4) . . .
67(5) . . .
75(5) . . .
57(4) . . .
61(4) . . .
69(4) . . .
62(5) . . .
58(4) . . .
61(4) . . .
60(4) . . .
58(4) . . .
63(4) . . .
75(5) . . .
67(4) . . .
58(4) . . .
61(4) . . .
61(4) . . .
75(5) . . .
53(4) . . .
62(4) . . .
55(4) . . .
61(4) . . .
62(4) . . .
68(4) . . .
55(4) . . .
58(4) . . .
63(5) . . .
54(4) . . .
63(4) . . .
63(4) . . .
62(4) . . .
64(4) . . .
55(4) . . .
63(4) . . .
63(4) . . .
76(5) . . .
60(4) . . .
56(4) . . .
52(4) . . .
52(4) . . .
65(5) . . .
72(5) . . .
47(4) . . .
59(4) . . .
69(5) . . .
66(5) . . .
70(5) . . .
69(4) . . .
67(4) . . .
56(4) . . .
68(5) . . .
70(5) . . .
54(4) . . .
66(4) . . .
56(4) . . .
59(4) . . .
77(5) . . .
82(5) . . .
68(4) . . .
64(4) . . .
60(4) . . .
59(4) . . .
60(4) . . .
60(4) . . .
62(4) . . .
66(4) . . .
64(4) . . .
63(4) . . .
62(4) . . .
64(4) . . .
61(4) . . .
65(4) . . .
63(4) . . .
67(4) . . .
53(4) . . .
63(4) . . .
58(4) . . .
64(4) . . .
62(4) . . .
61(4) . . .
57(4) . . .
51(4) . . .
77(5) . . .
64(4) . . .
48(4) . . .
57(4) . . .
57(4) . . .
64(4) . . .
60(4) . . .
56(4) . . .
60(4) . . .
75(5) . . .
75(4) . . .
66(4) . . .
66(4) . . .
78(5) . . .
64(4) . . .
75(4) . . .
68(4) . . .
67(5) . . .
62(4) . . .
53(4) . . .
66(4) . . .
62(4) . . .
55(4) . . .
65(4) . . .
64(4) . . .
57(4) . . .
62(4) . . .
57(4) . . .
52(4) . . .
63(4) . . .
55(4) . . .
52(4) . . .
57(4) . . .
62(4) . . .
61(4) . . .
55(4) . . .
57(4) . . .
66(5) . . .
53(4) . . .
74(4) . . .
65(4) . . .
61(4) . . .
55(4) . . .
53(4) . . .
55(4) . . .
71(4) . . .
71(5) . . .
55(4) . . .
63(4) . . .
55(4) . . .
60(4) . . .
59(4) . . .
63(4) . . .
65(4) . . .
52(4) . . .
61(4) . . .
59(4) . . .
61(4) . . .
67(4) . . .
66(4) . . .
71(5) . . .
59(4) . . .
62(4) . . .
57(4) . . .
56(4) . . .
64(4) . . .
61(4) . . .
59(4) . . .
60(4) . . .
64(4) . . .
56(4) . . .
60(5) . . .
65(4) . . .
62(4) . . .
68(4) . . .
67(4) . . .
63(4) . . .
63(4) . . .
60(4) . . .
60(4) . . .
63(4) . . .
60(4) . . .
74(5) . . .
65(4) . . .
67(4) . . .
67(4) . . .
79(5) . . .
76(5) . . .
56(4) . . .
59(4) . . .
70(5) . . .
61(4) . . .
50(4) . . .
68(4) . . .
53(4) . . .
57(4) . . .
65(4) . . .
59(4) . . .
60(4) . . .
66(4) . . .
66(4) . . .
62(4) . . .
55(4) . . .
68(4) . . .
65(4) . . .
51(4) . . .
61(4) . . .
56(4) . . .
70(4) . . .
58(4) . . .
71(5) . . .
63(4) . . .
62(4) . . .
57(4) . . .
69(5) . . .
58(4) . . .
61(4) . . .
58(4) . . .
51(4) . . .
46(4) . . .
72(5) . . .
69(5) . . .
53(4) . . .
63(4) . . .
64(4) . . .
56(4) . . .
64(4) . . .
62(4) . . .
65(4) . . .
58(4) . . .
60(4) . . .
60(4) . . .
67(4) . . .
75(5) . . .
60(4) . . .
65(4) . . .
70(5) . . .
56(4) . . .
64(4) . . .
68(4) . . .
69(5) . . .
65(4) . . .
74(4) . . .
67(4) . . .
72(5) . . .
56(4) . . .
59(4) . . .
60(4) . . .
56(4) . . .
67(4) . . .
67(4) . . .
63(4) . . .
57(4) . . .
53(4) . . .
58(4) . . .
64(4) . . .
64(4) . . .
58(4) . . .
74(5) . . .
80(5) . . .
70(5) . . .
59(4) . . .
48(4) . . .
51(4) . . .
66(5) . . .
61(4) . . .
64(4) . . .
76(4) . . .
76(5) . . .
57(4) . . .
59(4) . . .
64(4) . . .
62(4) . . .
54(4) . . .
57(4) . . .
62(4) . . .
57(4) . . .
58(4) . . .
53(4) . . .
64(5) . . .
52(4) . . .
60(4) . . .
63(4) . . .
60(4) . . .
74(5) . . .
62(4) . . .
67(4) . . .
58(4) . . .
66(5) . . .
68(5) . . .
71(5) . . .
60(4) . . .
72(4) . . .
56(4) . . .
65(5) . . .
56(4) . . .
64(4) . . .
63(4) . . .
55(4) . . .
56(4) . . .
62(4) . . .
68(4) . . .
56(4) . . .
64(5) . . .
59(4) . . .
52(4) . . .
60(4) . . .
72(4) . . .
57(4) . . .
61(4) . . .
66(4) . . .
61(4) . . .
60(4) . . .
74(5) . . .
60(4) . . .
58(4) . . .
69(4) . . .
57(4) . . .
55(4) . . .
69(4) . . .
71(4) . . .
58(4) . . .
59(4) . . .
54(4) . . .
56(4) . . .
69(4) . . .
71(4) . . .
71(4) . . .
65(4) . . .
58(4) . . .
61(4) . . .
72(5) . . .
66(4) . . .
65(5) . . .
62(4) . . .
64(4) . . .
61(4) . . .
57(4) . . .
62(4) . . .
65(4) . . .
53(4) . . .
60(4) . . .
58(4) . . .
71(5) . . .
62(4) . . .
64(4) . . .
67(4) . . .
52(4) . . .
64(4) . . .
58(4) . . .
61(4) . . .
61(4) . . .
66(4) . . .
76(5) . . .
66(4) . . .
49(4) . . .
56(4) . . .
61(5) . . .
58(4) . . .
54(4) . . .
46(4) . . .
62(4) . . .
62(4) . . .
53(4) . . .
53(4) . . .
56(4) . . .
56(4) . . .
55(4) . . .
49(4) . . .
71(4) . . .
62(4) . . .
61(4) . . .
56(4) . . .
58(4) . . .
65(4) . . .
62(4) . . .
62(4) . . .
63(5) . . .
56(4) . . .
63(4) . . .
71(4) . . .
67(4) . . .
67(5) . . .
63(4) . . .
75(4) . . .
64(4) . . .
67(5) . . .
70(4) . . .
81(5) . . .
61(4) . . .
50(4) . . .
55(4) . . .
71(5) . . .
54(4) . . .
58(4) . . .
63(4) . . .
70(5) . . .
51(4) . . .
59(4) . . .
65(4) . . .
69(4) . . .
73(5) . . .
71(5) . . .
64(4) . . .
63(4) . . .
71(5) . . .
72(5) . . .
64(4) . . .
59(4) . . .
60(4) . . .
57(4) . . .
52(4) . . .
72(5) . . .
62(4) . . .
65(4) . . .
61(4) . . .
65(5) . . .
56(4) . . .
65(4) . . .
76(5) . . .
63(4) . . .
65(5) . . .
66(5) . . .
56(4) . . .
57(4) . . .
48(4) . . .
64(5) . . .
64(4) . . .
63(4) . . .
61(4) . . .
70(4) . . .
59(4) . . .
58(4) . . .
57(4) . . .
55(4) . . .
45(4) . . .
63(4) . . .
57(4) . . .
63(4) . . .
50(4) . . .
63(4) . . .
65(4) . . .
61(4) . . .
61(4) . . .
60(4) . . .
61(4) . . .
59(4) . . .
62(4) . . .
62(4) . . .
65(4) . . .
62(4) . . .
58(4) . . .
70(4) . . .
68(4) . . .
61(4) . . .
60(4) . . .
67(4) . . .
56(4) . . .
62(4) . . .
60(4) . . .
50(4) . . .
60(4) . . .
64(4) . . .
62(4) . . .
62(4) . . .
60(4) . . .
58(4) . . .
59(4) . . .
64(4) . . .
63(4) . . .
68(5) . . .
59(4) . . .
58(4) . . .
52(4) . . .
52(4) . . .
64(4) . . .
70(5) . . .
57(4) . . .
59(4) . . .
61(4) . . .
58(4) . . .
65(4) . . .
69(4) . . .
65(4) . . .
60(4) . . .
64(4) . . .
60(4) . . .
49(4) . . .
69(4) . . .
56(4) . . .
70(5) . . .
68(4) . . .
55(4) . . .
63(4) . . .
70(5) . . .
61(4) . . .
56(4) . . .
68(4) . . .
52(4) . . .
54(4) . . .
56(4) . . .
69(5) . . .
63(4) . . .
61(4) . . .
58(4) . . .
59(4) . . .
63(4) . . .
57(4) . . .
64(4) . . .
66(5) . . .
65(4) . . .
64(4) . . .
59(4) . . .
62(4) . . .
66(5) . . .
61(4) . . .
53(4) . . .
64(4) . . .
45.3(35) . . .
61(4) . . .
55(4) . . .
64(4) . . .
60(4) . . .
64(4) . . .
67(4) . . .
56(4) . . .
53(4) . . .
64(4) . . .
72(5) . . .
50(4) . . .
59(4) . . .
56(4) . . .
71(5) . . .
52(4) . . .
61(4) . . .
76(5) . . .
75(4) . . .
65(4) . . .
51(4) . . .
64(4) . . .
64(4) . . .
68(4) . . .
57(4) . . .
60(4) . . .
47(4) . . .
50(4) . . .
55(4) . . .
73(5) . . .
63(4) . . .
66(4) . . .
60(4) . . .
68(4) . . .
61(4) . . .
67(5) . . .
61(4) . . .
56(4) . . .
60(4) . . .
57(4) . . .
48(4) . . .
59(4) . . .
58(4) . . .
59(4) . . .
62(4) . . .
67(4) . . .
64(4) . . .
64(4) . . .
54(4) . . .
49(4) . . .
59(4) . . .
60(4) . . .
54(4) . . .
62(4) . . .
48(4) . . .
60(4) . . .
68(5) . . .
74(4) . . .
61(4) . . .
60(4) . . .
71(5) . . .
62(4) . . .
56(4) . . .
58(4) . . .
65(4) . . .
54(4) . . .
51(4) . . .
57(4) . . .
67(4) . . .
61(4) . . .
57(4) . . .
56(4) . . .
65(4) . . .
56(4) . . .
53(4) . . .
60(4) . . .
58(4) . . .
63(4) . . .
66(4) . . .
65(5) . . .
66(5) . . .
67(4) . . .
58(4) . . .
62(4) . . .
60(4) . . .
54(4) . . .
67(4) . . .
63(4) . . .
55(4) . . .
63(4) . . .
71(5) . . .
60(4) . . .
63(4) . . .
61(4) . . .
47(4) . . .
56(4) . . .
63(4) . . .
65(4) . . .
73(5) . . .
56(4) . . .
64(4) . . .
57(4) . . .
64(4) . . .
60(4) . . .
69(5) . . .
58(4) . . .
64(4) . . .
61(4) . . .
56(4) . . .
56(4) . . .
61(4) . . .
67(4) . . .
55(4) . . .
56(4) . . .
54(4) . . .
49(4) . . .
59(4) . . .
64(4) . . .
59(4) . . .
54(4) . . .
68(5) . . .
65(4) . . .
58(4) . . .
65(4) . . .
65(4) . . .
64(4) . . .
51(4) . . .
62(4) . . .
67(4) . . .
68(5) . . .
64(4) . . .
57(4) . . .
60(4) . . .
69(5) . . .
68(4) . . .
56(4) . . .
55(4) . . .
62(4) . . .
73(5) . . .
57(4) . . .
68(5) . . .
76(5) . . .
63(4) . . .
60(4) . . .
73(5) . . .
61(4) . . .
60(4) . . .
68(4) . . .
48(4) . . .
54(4) . . .
68(4) . . .
67(4) . . .
64(4) . . .
52(4) . . .
58(4) . . .
60(4) . . .
60(4) . . .
52(4) . . .
56(4) . . .
64(4) . . .
48(4) . . .
58(4) . . .
48(4) . . .
49(4) . . .
54(4) . . .
59(4) . . .
57(4) . . .
61(4) . . .
53(4) . . .
59(4) . . .
61(4) . . .
60(4) . . .
53(4) . . .
61(4) . . .
62(4) . . .
65(4) . . .
57(4) . . .
60(4) . . .
72(5) . . .
65(4) . . .
69(4) . . .
66(5) . . .
72(5) . . .
62(4) . . .
63(4) . . .
59(4) . . .
63(4) . . .
58(4) . . .
56(4) . . .
61(4) . . .
74(5) . . .
71(4) . . .
77(5) . . .
55(4) . . .
71(5) . . .
60(4) . . .
59(4) . . .
50(4) . . .
64(4) . . .
60(4) . . .
65(4) . . .
63(4) . . .
68(5) . . .
62(4) . . .
67(4) . . .
55(4) . . .
64(5) . . .
60(4) . . .
65(4) . . .
62(4) . . .
63(4) . . .
54(4) . . .
64(5) . . .
53(4) . . .
56(4) . . .
72(4) . . .
58(4) . . .
63(4) . . .
65(5) . . .
66(4) . . .
59(4) . . .
68(4) . . .
72(5) . . .
72(5) . . .
60(4) . . .
61(4) . . .
67(5) . . .
63(4) . . .
71(4) . . .
60(4) . . .
58(4) . . .
61(4) . . .
58(4) . . .
62(4) . . .
53(4) . . .
54(4) . . .
56(4) . . .
60(4) . . .
54(4) . . .
55(4) . . .
68(4) . . .
64(4) . . .
60(4) . . .
55(4) . . .
57(4) . . .
54(4) . . .
61(4) . . .
55(4) . . .
68(4) . . .
68(4) . . .
51(4) . . .
58(4) . . .
61(4) . . .
71(4) . . .
57(4) . . .
58(4) . . .
59(4) . . .
56(4) . . .
57(4) . . .
63(4) . . .
51(4) . . .
56(4) . . .
56(4) . . .
53(4) . . .
62(4) . . .
60(4) . . .
49(4) . . .
63(4) . . .
58(4) . . .
57(4) . . .
54(4) . . .
67(5) . . .
56(4) . . .
64(4) . . .
63(4) . . .
69(5) . . .
66(5) . . .
53(4) . . .
70(4) . . .
67(4) . . .
47(4) . . .
54(4) . . .
68(5) . . .
62(4) . . .
57(4) . . .
57(4) . . .
57(4) . . .
65(4) . . .
62(4) . . .
60(4) . . .
52(4) . . .
62(4) . . .
67(4) . . .
52(4) . . .
50(4) . . .
56(4) . . .
62(4) . . .
61(4) . . .
47(4) . . .
55(4) . . .
62(5) . . .
67(5) . . .
55(4) . . .
61(4) . . .
66(4) . . .
63(4) . . .
64(4) . . .
58(4) . . .
62(4) . . .
57(4) . . .
53(4) . . .
59(4) . . .
54(4) . . .
57(4) . . .
66(4) . . .
69(5) . . .
58(4) . . .
60(4) . . .
52(4) . . .
59(4) . . .
67(4) . . .
58(4) . . .
64(4) . . .
68(4) . . .
63(4) . . .
55(4) . . .
57(4) . . .
55(4) . . .
66(4) . . .
68(5) . . .
65(4) . . .
66(4) . . .
55(4) . . .
66(4) . . .
59(4) . . .
70(5) . . .
60(4) . . .
56(4) . . .
55(4) . . .
51(4) . . .
59(4) . . .
61(4) . . .
52(4) . . .
59(4) . . .
56(4) . . .
48(4) . . .
61(4) . . .
62(4) . . .
59(4) . . .
65(4) . . .
63(4) . . .
56(4) . . .
61(4) . . .
57(4) . . .
67(5) . . .
54(4) . . .
50(4) . . .
62(4) . . .
53(4) . . .
58(4) . . .
60(4) . . .
56(4) . . .
55(4) . . .
71(5) . . .
60(4) . . .
64(4) . . .
61(4) . . .
68(4) . . .
61(4) . . .
64(4) . . .
63(5) . . .
62(4) . . .
61(4) . . .
55(4) . . .
49(4) . . .
62(4) . . .
58(4) . . .
63(4) . . .
54(4) . . .
56(4) . . .
62(4) . . .
58(4) . . .
61(4) . . .
56(4) . . .
55(4) . . .
59(4) . . .
57(4) . . .
60(4) . . .
56(4) . . .
53(4) . . .
64(4) . . .
43.9(34) . . .
52(4) . . .
65(4) . . .
56(4) . . .
51(4) . . .
56(4) . . .
65(4) . . .
60(4) . . .
59(4) . . .
64(4) . . .
71(4) . . .
50(4) . . .
53(4) . . .
67(5) . . .
62(4) . . .
72(4) . . .
61(4) . . .
59(4) . . .
52(4) . . .
59(4) . . .
63(4) . . .
63(4) . . .
67(5) . . .
61(4) . . .
62(4) . . .
65(4) . . .
77(5) . . .
60(4) . . .
61(4) . . .
55(4) . . .
59(4) . . .
69(5) . . .
56(4) . . .
59(4) . . .
62(4) . . .
59(4) . . .
51(4) . . .
62(4) . . .
53(4) . . .
59(4) . . .
60(4) . . .
62(4) . . .
54(4) . . .
52(4) . . .
61(4) . . .
57(4) . . .
56(4) . . .
61(4) . . .
64(4) . . .
59(4) . . .
54(4) . . .
56(4) . . .
55(4) . . .
44(4) . . .
54(4) . . .
62(4) . . .
73(5) . . .
55(4) . . .
55(4) . . .
60(4) . . .
67(5) . . .
62(5) . . .
60(4) . . .
72(5) . . .
60(4) . . .
70(5) . . .
66(4) . . .
69(5) . . .
56(4) . . .
63(4) . . .
57(4) . . .
48(4) . . .
54(4) . . .
61(4) . . .
62(4) . . .
57(4) . . .
58(4) . . .
55(4) . . .
62(4) . . .
62(4) . . .
55(4) . . .
57(4) . . .
63(4) . . .
63(4) . . .
62(4) . . .
57(4) . . .
63(5) . . .
63(4) . . .
49(4) . . .
48(4) . . .
61(4) . . .
63(5) . . .
59(4) . . .
59(4) . . .
62(4) . . .
64(5) . . .
64(4) . . .
64(4) . . .
61(4) . . .
72(5) . . .
67(4) . . .
57(4) . . .
63(4) . . .
52(4) . . .
57(4) . . .
60(4) . . .
59(4) . . .
55(4) . . .
76(4) . . .
54(4) . . .
59(4) . . .
64(4) . . .
58(4) . . .
63(4) . . .
54(4) . . .
67(5) . . .
73(5) . . .
60(4) . . .
54(4) . . .
58(4) . . .
60(4) . . .
64(4) . . .
65(4) . . .
66(4) . . .
64(4) . . .
58(4) . . .
50(4) . . .
53(4) . . .
64(4) . . .
67(4) . . .
63(4) . . .
55(4) . . .
57(4) . . .
59(4) . . .
60(4) . . .
54(4) . . .
55(4) . . .
63(4) . . .
67(4) . . .
68(5) . . .
65(4) . . .
68(4) . . .
63(4) . . .
60(4) . . .
60(4) . . .
64(4) . . .
59(4) . . .
55(4) . . .
67(4) . . .
71(5) . . .
63(4) . . .
68(4) . . .
59(4) . . .
64(4) . . .
52(4) . . .
69(5) . . .
63(4) . . .
47(4) . . .
58(4) . . .
58(4) . . .
48(4) . . .
65(4) . . .
51(4) . . .
49(4) . . .
56(4) . . .
60(4) . . .
65(4) . . .
61(4) . . .
66(4) . . .
56(4) . . .
64(4) . . .
55(4) . . .
46(4) . . .
54(4) . . .
60(4) . . .
54(4) . . .
55(4) . . .
58(4) . . .
58(4) . . .
57(4) . . .
50(4) . . .
65(4) . . .
54(4) . . .
54(4) . . .
59(4) . . .
50(4) . . .
54(4) . . .
67(4) . . .
63(4) . . .
51(4) . . .
60(4) . . .
60(4) . . .
67(4) . . .
65(4) . . .
68(4) . . .
74(5) . . .
70(4) . . .
54(4) . . .
62(4) . . .
54(4) . . .
60(4) . . .
59(4) . . .
61(4) . . .
65(5) . . .
66(4) . . .
54(4) . . .
57(4) . . .
59(4) . . .
56(4) . . .
57(4) . . .
61(4) . . .
62(4) . . .
55(4) . . .
52(4) . . .
65(4) . . .
60(4) . . .
68(4) . . .
56(4) . . .
58(4) . . .
64(4) . . .
65(4) . . .
58(4) . . .
67(4) . . .
61(4) . . .
61(4) . . .
67(4) . . .
56(4) . . .
62(4) . . .
65(4) . . .
64(5) . . .
58(4) . . .
66(4) . . .
64(4) . . .
66(5) . . .
57(4) . . .
55(4) . . .
48(4) . . .
57(4) . . .
57(4) . . .
62(4) . . .
55(4) . . .
63(4) . . .
59(4) . . .
54(4) . . .
60(4) . . .
59(4) . . .
53(4) . . .
53(4) . . .
70(5) . . .
56(4) . . .
64(4) . . .
60(4) . . .
48(4) . . .
53(4) . . .
58(4) . . .
63(4) . . .
55(4) . . .
62(4) . . .
59(4) . . .
61(4) . . .
59(4) . . .
62(4) . . .
58(4) . . .
55(4) . . .
69(4) . . .
57(4) . . .
60(4) . . .
59(4) . . .
54(4) . . .
64(4) . . .
58(4) . . .
58(4) . . .
47(4) . . .
58(4) . . .
64(4) . . .
65(4) . . .
58(4) . . .
59(4) . . .
66(4) . . .
59(4) . . .
56(4) . . .
58(4) . . .
60(4) . . .
52(4) . . .
67(4) . . .
61(4) . . .
61(4) . . .
61(4) . . .
67(5) . . .
55(4) . . .
46(4) . . .
50(4) . . .
49(4) . . .
61(4) . . .
51(4) . . .
65(4) . . .
56(4) . . .
55(4) . . .
61(4) . . .
66(4) . . .
73(4) . . .
67(4) . . .
44(4) . . .
60(4) . . .
57(4) . . .
76(5) . . .
49(4) . . .
64(4) . . .
65(4) . . .
62(4) . . .
58(4) . . .
55(4) . . .
61(5) . . .
50(4) . . .
54(4) . . .
54(4) . . .
64(5) . . .
70(5) . . .
53(4) . . .
58(4) . . .
53(4) . . .
55(4) . . .
56(4) . . .
68(4) . . .
48(4) . . .
45(4) . . .
53(4) . . .
47(4) . . .
58(4) . . .
55(4) . . .
54(4) . . .
53(4) . . .
64(4) . . .
60(4) . . .
58(4) . . .
52(4) . . .
57(4) . . .
67(4) . . .
66(4) . . .
59(4) . . .
57(4) . . .
46(4) . . .
66(4) . . .
67(4) . . .
56(4) . . .
47(4) . . .
58(4) . . .
64(4) . . .
57(4) . . .
60(4) . . .
49(4) . . .
64(4) . . .
59(4) . . .
59(4) . . .
59(4) . . .
57(4) . . .
54(4) . . .
54(4) . . .
70(4) . . .
59(4) . . .
59(4) . . .
64(4) . . .
63(4) . . .
70(4) . . .
45(4) . . .
54(4) . . .
55(4) . . .
55(4) . . .
64(4) . . .
51(4) . . .
49(4) . . .
62(4) . . .
54(4) . . .
60(4) . . .
53(4) . . .
60(4) . . .
66(4) . . .
54(4) . . .
65(4) . . .
51(4) . . .
51(4) . . .
57(4) . . .
61(4) . . .
62(4) . . .
56(4) . . .
58(4) . . .
53(4) . . .
59(4) . . .
58(4) . . .
55(4) . . .
62(4) . . .
61(4) . . .
48(4) . . .
60(4) . . .
51(4) . . .
59(4) . . .
64(4) . . .
66(4) . . .
60(4) . . .
49(4) . . .
72(5) . . .
70(5) . . .
61(4) . . .
55(4) . . .
58(4) . . .
56(4) . . .
59(4) . . .
64(4) . . .
64(4) . . .
63(4) . . .
69(5) . . .
56(4) . . .
57(4) . . .
67(4) . . .
56(4) . . .
64(4) . . .
53(4) . . .
53(4) . . .
56(4) . . .
59(5) . . .
58(4) . . .
55(4) . . .
56(4) . . .
56(4) . . .
52(4) . . .
63(4) . . .
62(4) . . .
65(4) . . .
59(4) . . .
51(4) . . .
51(4) . . .
58(4) . . .
48(4) . . .
55(4) . . .
48(4) . . .
68(4) . . .
61(4) . . .
61(4) . . .
57(4) . . .
63(4) . . .
73(5) . . .
57(4) . . .
60(4) . . .
64(4) . . .
59(4) . . .
68(5) . . .
54(4) . . .
65(4) . . .
54(4) . . .
56(4) . . .
56(4) . . .
53(4) . . .
52(4) . . .
55(4) . . .
60(4) . . .
59(4) . . .
57(4) . . .
55(4) . . .
61(4) . . .
58(4) . . .
51(4) . . .
69(4) . . .
61(4) . . .
59(4) . . .
49(4) . . .
53(4) . . .
55(4) . . .
52(4) . . .
53(4) . . .
58(4) . . .
59(4) . . .
62(4) . . .
60(4) . . .
65(4) . . .
47.7(35) . . .
68(4) . . .
69(4) . . .
52(4) . . .
65(4) . . .
61(4) . . .
55(4) . . .
64(4) . . .
61(4) . . .
61(4) . . .
66(4) . . .
62(4) . . .
54(4) . . .
58(4) . . .
61(4) . . .
67(4) . . .
60(4) . . .
69(5) . . .
60(4) . . .
59(4) . . .
54(4) . . .
56(4) . . .
53(4) . . .
73(5) . . .
71(5) . . .
63(4) . . .
60(4) . . .
58(4) . . .
68(5) . . .
58(4) . . .
62(4) . . .
62(4) . . .
50(4) . . .
55(4) . . .
62(4) . . .
54(4) . . .
55(4) . . .
59(4) . . .
47(4) . . .
60(4) . . .
62(4) . . .
62(4) . . .
64(4) . . .
61(4) . . .
67(4) . . .
78(5) . . .
62(4) . . .
63(4) . . .
56(4) . . .
72(5) . . .
55(4) . . .
47(4) . . .
61(4) . . .
62(4) . . .
69(4) . . .
51(4) . . .
66(4) . . .
69(5) . . .
63(4) . . .
63(4) . . .
64(4) . . .
66(4) . . .
60(4) . . .
62(4) . . .
60(4) . . .
71(4) . . .
61(4) . . .
41.4(34) . . .
50(4) . . .
63(4) . . .
57(4) . . .
62(4) . . .
64(4) . . .
48(4) . . .
60(4) . . .
58(4) . . .
58(4) . . .
58(4) . . .
60(4) . . .
60(4) . . .
63(4) . . .
54(4) . . .
54(4) . . .
61(4) . . .
64(4) . . .
51(4) . . .
53(4) . . .
57(4) . . .
65(4) . . .
47(4) . . .
55(4) . . .
58(4) . . .
66(5) . . .
69(5) . . .
38.3(32) . . .
54(4) . . .
66(4) . . .
75(5) . . .
66(4) . . .
50(4) . . .
66(4) . . .
60(4) . . .
54(4) . . .
67(5) . . .
66(4) . . .
53(4) . . .
49(4) . . .
57(4) . . .
56(4) . . .
55(4) . . .
59(4) . . .
51(4) . . .
59(4) . . .
59(4) . . .
55(4) . . .
49(4) . . .
49(4) . . .
63(4) . . .
52(4) . . .
45.1(35) . . .
56(4) . . .
51(4) . . .
56(4) . . .
57(4) . . .
59(4) . . .
60(4) . . .
68(4) . . .
63(4) . . .
51(4) . . .
51(4) . . .
50(4) . . .
65(4) . . .
51(4) . . .
56(4) . . .
60(4) . . .
48(4) . . .
69(5) . . .
62(4) . . .
56(4) . . .
65(4) . . .
68(4) . . .
57(4) . . .
56(4) . . .
52(4) . . .
60(4) . . .
61(4) . . .
63(4) . . .
61(4) . . .
61(4) . . .
61(4) . . .
52(4) . . .
60(5) . . .
64(4) . . .
63(4) . . .
45(4) . . .
61(4) . . .
62(4) . . .
69(4) . . .
68(4) . . .
56(4) . . .
62(4) . . .
55(4) . . .
56(4) . . .
63(4) . . .
60(4) . . .
55(4) . . .
54(4) . . .
46(4) . . .
61(4) . . .
48(4) . . .
67(5) . . .
61(4) . . .
60(4) . . .
53(4) . . .
56(4) . . .
50(4) . . .
67(5) . . .
57(4) . . .
53(4) . . .
58(5) . . .
53(4) . . .
58(4) . . .
47(4) . . .
64(4) . . .
58(4) . . .
67(4) . . .
66(4) . . .
61(4) . . .
74(5) . . .
60(4) . . .
57(4) . . .
53(4) . . .
46(4) . . .
48(4) . . .
63(4) . . .
60(4) . . .
61(4) . . .
63(4) . . .
61(4) . . .
66(4) . . .
69(5) . . .
61(4) . . .
63(4) . . .
63(4) . . .
59(4) . . .
59(4) . . .
55(4) . . .
46(4) . . .
53(4) . . .
54(4) . . .
68(5) . . .
67(5) . . .
51(4) . . .
56(4) . . .
60(4) . . .
75(5) . . .
76(5) . . .
54(4) . . .
53(4) . . .
54(4) . . .
51(4) . . .
52(4) . . .
51(4) . . .
52(4) . . .
50(4) . . .
57(4) . . .
62(4) . . .
60(4) . . .
59(4) . . .
61(4) . . .
60(4) . . .
64(4) . . .
58(4) . . .
65(4) . . .
61(4) . . .
63(4) . . .
58(4) . . .
57(4) . . .
60(4) . . .
60(4) . . .
59(4) . . .
64(4) . . .
53(4) . . .
63(4) . . .
65(5) . . .
61(4) . . .
54(4) . . .
61(4) . . .
54(4) . . .
57(4) . . .
62(4) . . .
48(4) . . .
56(4) . . .
49(4) . . .
55(4) . . .
65(4) . . .
62(4) . . .
55(4) . . .
53(4) . . .
56(4) . . .
54(4) . . .
61(4) . . .
51(4) . . .
54(4) . . .
64(4) . . .
60(4) . . .
50(4) . . .
62(4) . . .
63(4) . . .
62(4) . . .
52(4) . . .
49(4) . . .
55(4) . . .
60(4) . . .
69(5) . . .
63(4) . . .
58(4) . . .
49(4) . . .
55(4) . . .
63(4) . . .
58(4) . . .
62(4) . . .
53(4) . . .
57(4) . . .
63(4) . . .
64(4) . . .
61(4) . . .
55(4) . . .
50(4) . . .
59(4) . . .
56(4) . . .
55(4) . . .
55(4) . . .
57(4) . . .
54(4) . . .
58(4) . . .
54(4) . . .
56(4) . . .
54(4) . . .
68(5) . . .
51(4) . . .
62(4) . . .
61(4) . . .
55(4) . . .
58(4) . . .
59(4) . . .
59(4) . . .
65(4) . . .
70(4) . . .
56(4) . . .
55(4) . . .
52(4) . . .
64(4) . . .
64(4) . . .
56(4) . . .
58(4) . . .
52(4) . . .
58(4) . . .
51(4) . . .
53(4) . . .
48(4) . . .
61(4) . . .
55(4) . . .
46.2(34) . . .
57(4) . . .
58(4) . . .
53(4) . . .
57(4) . . .
52(4) . . .
57(4) . . .
62(4) . . .
63(4) . . .
68(5) . . .
54(4) . . .
54(4) . . .
58(4) . . .
61(4) . . .
57(4) . . .
59(4) . . .
52(4) . . .
63(4) . . .
58(4) . . .
55(4) . . .
54(4) . . .
66(4) . . .
60(4) . . .
58(4) . . .
55(4) . . .
57(4) . . .
60(4) . . .
52(4) . . .
54(4) . . .
60(4) . . .
59(4) . . .
46(4) . . .
54(4) . . .
62(4) . . .
57(4) . . .
62(4) . . .
50(4) . . .
46(4) . . .
63(4) . . .
54(4) . . .
61(4) . . .
60(4) . . .
62(4) . . .
51(4) . . .
56(4) . . .
63(4) . . .
55(4) . . .
59(4) . . .
62(4) . . .
60(4) . . .
50(4) . . .
53(4) . . .
54(4) . . .
57(4) . . .
67(5) . . .
56(4) . . .
56(4) . . .
63(4) . . .
65(5) . . .
56(4) . . .
65(4) . . .
55(4) . . .
62(4) . . .
49(4) . . .
54(4) . . .
65(4) . . .
56(4) . . .
57(4) . . .
67(5) . . .
61(4) . . .
53(4) . . .
47(4) . . .
47(4) . . .
43(4) . . .
48(4) . . .
59(4) . . .
60(4) . . .
55(4) . . .
51(4) . . .
56(4) . . .
54(4) . . .
61(4) . . .
47(4) . . .
49(4) . . .
62(4) . . .
62(4) . . .
60(4) . . .
68(4) . . .
65(5) . . .
53(4) . . .
58(4) . . .
63(4) . . .
52(4) . . .
52(4) . . .
45.9(35) . . .
54(4) . . .
71(5) . . .
56(4) . . .
59(4) . . .
53(4) . . .
55(4) . . .
61(4) . . .
63(4) . . .
67(4) . . .
58(4) . . .
46(4) . . .
52(4) . . .
61(4) . . .
49(4) . . .
54(4) . . .
68(5) . . .
50(4) . . .
59(4) . . .
65(4) . . .
53(4) . . .
51(4) . . .
60(4) . . .
61(4) . . .
61(4) . . .
48(4) . . .
50(4) . . .
59(4) . . .
60(4) . . .
55(4) . . .
49(4) . . .
47(4) . . .
52(4) . . .
56(4) . . .
51(4) . . .
58(4) . . .
52(4) . . .
59(4) . . .
56(4) . . .
51(4) . . .
58(4) . . .
56(4) . . .
55(4) . . .
63(4) . . .
51(4) . . .
47(4) . . .
52(4) . . .
51(4) . . .
73(5) . . .
55(4) . . .
54(4) . . .
56(4) . . .
61(4) . . .
56(4) . . .
54(4) . . .
53(4) . . .
57(4) . . .
55(4) . . .
50(4) . . .
65(4) . . .
61(4) . . .
61(4) . . .
53(4) . . .
61(4) . . .
59(4) . . .
60(4) . . .
59(4) . . .
54(4) . . .
59(4) . . .
70(4) . . .
61(4) . . .
58(4) . . .
63(4) . . .
64(4) . . .
56(4) . . .
63(5) . . .
51(4) . . .
57(4) . . .
61(4) . . .
55(4) . . .
55(4) . . .
59(4) . . .
61(4) . . .
56(4) . . .
57(4) . . .
51(4) . . .
63(4) . . .
61(4) . . .
53(4) . . .
65(4) . . .
59(4) . . .
54(4) . . .
60(4) . . .
54(4) . . .
53(4) . . .
55(4) . . .
58(4) . . .
52(4) . . .
50(4) . . .
51(4) . . .
54(4) . . .
61(4) . . .
60(4) . . .
61(4) . . .
58(4) . . .
50(4) . . .
54(4) . . .
47(4) . . .
59(4) . . .
49(4) . . .
67(5) . . .
58(4) . . .
57(4) . . .
66(4) . . .
55(4) . . .
49(4) . . .
50(4) . . .
57(4) . . .
62(4) . . .
56(4) . . .
52(4) . . .
55(4) . . .
59(4) . . .
61(4) . . .
52(4) . . .
55(4) . . .
42.7(34) . . .
54(4) . . .
64(4) . . .
51(4) . . .
66(4) . . .
59(4) . . .
69(4) . . .
56(4) . . .
54(4) . . .
56(4) . . .
61(4) . . .
61(4) . . .
53(4) . . .
55(4) . . .
54(4) . . .
63(4) . . .
65(4) . . .
72(5) . . .
69(5) . . .
57(4) . . .
54(4) . . .
57(4) . . .
55(4) . . .
53(4) . . .
59(4) . . .
57(4) . . .
51(4) . . .
68(4) . . .
59(4) . . .
55(4) . . .
48(4) . . .
66(4) . . .
58(4) . . .
55(4) . . .
52(4) . . .
60(4) . . .
56(4) . . .
65(4) . . .
59(4) . . .
50(4) . . .
57(4) . . .
56(4) . . .
51(4) . . .
51(4) . . .
60(4) . . .
59(4) . . .
56(4) . . .
56(4) . . .
59(4) . . .
59(4) . . .
58(4) . . .
54(4) . . .
60(4) . . .
55(4) . . .
69(4) . . .
64(4) . . .
52(4) . . .
58(4) . . .
60(4) . . .
56(4) . . .
56(4) . . .
59(4) . . .
57(4) . . .
51(4) . . .
49(4) . . .
66(4) . . .
59(4) . . .
66(4) . . .
54(4) . . .
59(4) . . .
61(4) . . .
55(4) . . .
60(4) . . .
50(4) . . .
61(4) . . .
53(4) . . .
55(4) . . .
52(4) . . .
57(4) . . .
49(4) . . .
47(4) . . .
65(5) . . .
54(4) . . .
54(4) . . .
59(4) . . .
61(4) . . .
55(4) . . .
57(4) . . .
48(4) . . .
54(4) . . .
55(4) . . .
56(4) . . .
60(4) . . .
61(4) . . .
49(4) . . .
62(4) . . .
56(4) . . .
60(4) . . .
57(4) . . .
63(4) . . .
52(4) . . .
57(4) . . .
46(4) . . .
57(4) . . .
56(4) . . .
50(4) . . .
59(4) . . .
52(4) . . .
66(4) . . .
59(4) . . .
59(4) . . .
55(4) . . .
48(4) . . .
45.6(35) . . .
55(4) . . .
58(4) . . .
53(4) . . .
57(4) . . .
51(4) . . .
58(4) . . .
63(4) . . .
64(4) . . .
55(4) . . .
64(4) . . .
64(4) . . .
56(4) . . .
54(4) . . .
57(4) . . .
59(4) . . .
57(4) . . .
55(4) . . .
58(4) . . .
59(4) . . .
63(4) . . .
60(4) . . .
54(4) . . .
53(4) . . .
58(4) . . .
56(4) . . .
53(4) . . .
52(4) . . .
65(4) . . .
62(4) . . .
58(4) . . .
55(4) . . .
61(4) . . .
63(4) . . .
62(4) . . .
61(4) . . .
57(4) . . .
50(4) . . .
60(4) . . .
54(4) . . .
50(4) . . .
51(4) . . .
63(4) . . .
61(4) . . .
55(4) . . .
55(4) . . .
62(4) . . .
53(4) . . .
56(4) . . .
51(4) . . .
54(4) . . .
57(4) . . .
64(4) . . .
58(4) . . .
60(4) . . .
49(4) . . .
61(4) . . .
50(4) . . .
52(4) . . .
53(4) . . .
57(4) . . .
61(4) . . .
56(4) . . .
59(4) . . .
49(4) . . .
55(4) . . .
47(4) . . .
59(4) . . .
54(4) . . .
67(4) . . .
61(4) . . .
63(4) . . .
56(4) . . .
47(4) . . .
54(4) . . .
52(4) . . .
50(4) . . .
49(4) . . .
57(4) . . .
59(4) . . .
62(4) . . .
59(4) . . .
49(4) . . .
54(4) . . .
59(4) . . .
57(4) . . .
55(4) . . .
52(4) . . .
53(4) . . .
52(4) . . .
58(4) . . .
54(4) . . .
65(4) . . .
61(4) . . .
55(4) . . .
55(4) . . .
55(4) . . .
58(4) . . .
67(4) . . .
56(4) . . .
68(4) . . .
61(4) . . .
64(4) . . .
66(4) . . .
59(4) . . .
73(5) . . .
54(4) . . .
62(4) . . .
52(4) . . .
67(4) . . .
58(4) . . .
58(4) . . .
59(4) . . .
51(4) . . .
48(4) . . .
55(4) . . .
56(4) . . .
56(4) . . .
61(4) . . .
61(4) . . .
59(4) . . .
63(4) . . .
59(4) . . .
53(4) . . .
60(4) . . .
60(4) . . .
54(4) . . .
54(4) . . .
57(4) . . .
52(4) . . .
59(4) . . .
50(4) . . .
51(4) . . .
64(4) . . .
68(5) . . .
52(4) . . .
51(4) . . .
55(4) . . .
65(4) . . .
54(4) . . .
53(4) . . .
57(4) . . .
57(4) . . .
64(4) . . .
50(4) . . .
62(4) . . .
63(4) . . .
51(4) . . .
55(4) . . .
50(4) . . .
49(4) . . .
57(4) . . .
58(4) . . .
51(4) . . .
52(4) . . .
61(5) . . .
52(4) . . .
49(4) . . .
65(4) . . .
50(4) . . .
58(4) . . .
60(4) . . .
57(4) . . .
51(4) . . .
51(4) . . .
63(4) . . .
59(4) . . .
63(4) . . .
55(4) . . .
46(4) . . .
45(4) . . .
53(4) . . .
57(4) . . .
51(4) . . .
58(4) . . .
56(4) . . .
52(4) . . .
65(4) . . .
50(4) . . .
59(4) . . .
55(4) . . .
57(4) . . .
55(4) . . .
55(4) . . .
57(4) . . .
55(4) . . .
55(4) . . .
55(4) . . .
63(4) . . .
46(4) . . .
51(4) . . .
59(4) . . .
59(4) . . .
75(5) . . .
56(4) . . .
61(4) . . .
60(4) . . .
63(4) . . .
53(4) . . .
48(4) . . .
50(4) . . .
61(4) . . .
53(4) . . .
56(4) . . .
52(4) . . .
62(4) . . .
57(4) . . .
61(4) . . .
57(4) . . .
60(4) . . .
65(4) . . .
66(4) . . .
59(4) . . .
51(4) . . .
51(4) . . .
49(4) . . .
55(4) . . .
58(4) . . .
57(4) . . .
59(4) . . .
55(4) . . .
56(4) . . .
57(4) . . .
47(4) . . .
55(4) . . .
56(4) . . .
49(4) . . .
58(4) . . .
56(4) . . .
59(4) . . .
67(4) . . .
67(4) . . .
74(5) . . .
62(4) . . .
62(4) . . .
54(4) . . .
55(4) . . .
55(4) . . .
62(4) . . .
60(4) . . .
57(4) . . .
55(4) . . .
69(5) . . .
53(4) . . .
50(4) . . .
59(4) . . .
54(4) . . .
63(4) . . .
44(4) . . .
51(4) . . .
52(4) . . .
57(4) . . .
51(4) . . .
62(4) . . .
63(4) . . .
59(4) . . .
58(4) . . .
50(4) . . .
50(4) . . .
51(4) . . .
58(4) . . .
56(4) . . .
49(4) . . .
51(4) . . .
51(4) . . .
62(4) . . .
59(4) . . .
51(4) . . .
53(4) . . .
52(4) . . .
59(4) . . .
56(4) . . .
60(4) . . .
54(4) . . .
53(4) . . .
56(4) . . .
55(4) . . .
55(4) . . .
57(4) . . .
59(4) . . .
55(4) . . .
53(4) . . .
49(4) . . .
49(4) . . .
45(4) . . .
55(4) . . .
47(4) . . .
52(4) . . .
63(4) . . .
56(4) . . .
54(4) . . .
51(4) . . .
60(4) . . .
61(4) . . .
58(4) . . .
52(4) . . .
59(4) . . .
62(4) . . .
55(4) . . .
52(4) . . .
57(4) . . .
60(4) . . .
55(4) . . .
51(4) . . .
54(4) . . .
62(4) . . .
54(4) . . .
57(4) . . .
60(4) . . .
54(4) . . .
49(4) . . .
57(4) . . .
59(4) . . .
49(4) . . .
56(4) . . .
61(4) . . .
64(4) . . .
54(4) . . .
58(4) . . .
55(4) . . .
51(4) . . .
56(4) . . .
53(4) . . .
48(4) . . .
51(4) . . .
53(4) . . .
60(4) . . .
57(4) . . .
70(4) . . .
59(4) . . .
60(4) . . .
51(4) . . .
52(4) . . .
64(4) . . .
51(4) . . .
47(4) . . .
59(4) . . .
62(4) . . .
58(4) . . .
60(4) . . .
58(4) . . .
66(5) . . .
58(4) . . .
58(4) . . .
54(4) . . .
60(4) . . .
57(4) . . .
62(4) . . .
62(4) . . .
56(4) . . .
54(4) . . .
57(4) . . .
51(4) . . .
50(4) . . .
51(4) . . .
45(4) . . .
47(4) . . .
58(4) . . .
55(4) . . .
46(4) . . .
57(4) . . .
49(4) . . .
51(4) . . .
57(4) . . .
55(4) . . .
54(4) . . .
56(4) . . .
60(4) . . .
64(4) . . .
51(4) . . .
58(4) . . .
50(4) . . .
54(4) . . .
49(4) . . .
55(4) . . .
48(4) . . .
62(4) . . .
48(4) . . .
58(4) . . .
47(4) . . .
60(4) . . .
46(4) . . .
49(4) . . .
58(4) . . .
50(4) . . .
52(4) . . .
61(4) . . .
66(4) . . .
58(4) . . .
48(4) . . .
67(5) . . .
60(4) . . .
46(4) . . .
53(4) . . .
61(4) . . .
41.0(34) . . .
53(4) . . .
45(4) . . .
62(4) . . .
56(4) . . .
48(4) . . .
54(4) . . .
71(4) . . .
51(4) . . .
55(4) . . .
50(4) . . .
46(4) . . .
48(4) . . .
52(4) . . .
50(4) . . .
50(4) . . .
51(4) . . .
55(4) . . .
59(4) . . .
53(4) . . .
54(4) . . .
54(4) . . .
55(4) . . .
55(4) . . .
55(4) . . .
52(4) . . .
58(4) . . .
62(4) . . .
50(4) . . .
60(4) . . .
62(4) . . .
53(4) . . .
59(4) . . .
45(4) . . .
51(4) . . .
53(4) . . .
55(4) . . .
54(4) . . .
48(4) . . .
53(4) . . .
51(4) . . .
47(4) . . .
56(4) . . .
55(4) . . .
54(4) . . .
57(4) . . .
43.8(34) . . .
44.0(35) . . .
57(4) . . .
57(4) . . .
63(4) . . .
57(4) . . .
63(4) . . .
58(4) . . .
54(4) . . .
46(4) . . .
52(4) . . .
56(4) . . .
58(4) . . .
61(5) . . .
56(4) . . .
61(4) . . .
54(4) . . .
57(4) . . .
61(4) . . .
50(4) . . .
47(4) . . .
50(4) . . .
60(4) . . .
57(4) . . .
59(4) . . .
65(4) . . .
56(4) . . .
56(4) . . .
70(5) . . .
55(4) . . .
51(4) . . .
47(4) . . .
54(4) . . .
57(4) . . .
50(4) . . .
54(4) . . .
58(4) . . .
57(4) . . .
56(4) . . .
57(4) . . .
53(4) . . .
67(5) . . .
54(4) . . .
65(4) . . .
51(4) . . .
53(4) . . .
59(4) . . .
60(4) . . .
62(4) . . .
52(4) . . .
52(4) . . .
58(4) . . .
60(5) . . .
52(4) . . .
59(4) . . .
59(4) . . .
61(4) . . .
45(4) . . .
46(4) . . .
61(4) . . .
47(4) . . .
48(4) . . .
58(4) . . .
53(4) . . .
53(4) . . .
62(4) . . .
48(4) . . .
45(4) . . .
50(4) . . .
52(4) . . .
53(4) . . .
52(4) . . .
56(4) . . .
61(4) . . .
48(4) . . .
59(4) . . .
72(5) . . .
52(4) . . .
67(4) . . .
55(4) . . .
66(4) . . .
61(4) . . .
56(4) . . .
65(4) . . .
57(4) . . .
49(4) . . .
53(4) . . .
50(4) . . .
57(4) . . .
47(4) . . .
59(4) . . .
47(4) . . .
63(4) . . .
52(4) . . .
54(4) . . .
56(4) . . .
67(5) . . .
50(4) . . .
50(4) . . .
57(4) . . .
55(4) . . .
61(4) . . .
50(4) . . .
51(4) . . .
53(4) . . .
55(4) . . .
53(4) . . .
56(4) . . .
49(4) . . .
48(4) . . .
58(4) . . .
57(4) . . .
54(4) . . .
49(4) . . .
58(4) . . .
51(4) . . .
53(4) . . .
52(4) . . .
49(4) . . .
52(4) . . .
52(4) . . .
58(4) . . .
56(4) . . .
58(4) . . .
46(4) . . .
53(4) . . .
58(4) . . .
58(4) . . .
47(4) . . .
54(4) . . .
52(4) . . .
50(4) . . .
56(4) . . .
55(4) . . .
63(4) . . .
48(4) . . .
55(4) . . .
52(4) . . .
53(4) . . .
57(4) . . .
53(4) . . .
60(4) . . .
47(4) . . .
44.2(34) . . .
47(4) . . .
55(4) . . .
50(4) . . .
65(4) . . .
49(4) . . .
50(4) . . .
52(4) . . .
56(4) . . .
57(4) . . .
47(4) . . .
63(4) . . .
63(5) . . .
54(4) . . .
47(4) . . .
52(4) . . .
57(4) . . .
63(4) . . .
55(4) . . .
54(4) . . .
49(4) . . .
57(4) . . .
61(4) . . .
56(4) . . .
57(4) . . .
59(4) . . .
65(4) . . .
46(4) . . .
51(4) . . .
48(4) . . .
62(4) . . .
60(4) . . .
65(4) . . .
56(4) . . .
55(4) . . .
59(4) . . .
55(4) . . .
62(4) . . .
55(4) . . .
50(4) . . .
48(4) . . .
50(4) . . .
52(4) . . .
51(4) . . .
51(4) . . .
45(4) . . .
54(4) . . .
46.0(35) . . .
56(4) . . .
52(4) . . .
66(4) . . .
46(4) . . .
55(4) . . .
67(4) . . .
51(4) . . .
60(4) . . .
61(4) . . .
51(4) . . .
51(4) . . .
49(4) . . .
65(4) . . .
59(4) . . .
60(4) . . .
62(4) . . .
56(4) . . .
48(4) . . .
57(4) . . .
59(4) . . .
58(4) . . .
53(4) . . .
59(4) . . .
60(4) . . .
69(4) . . .
50(4) . . .
58(4) . . .
51(4) . . .
56(4) . . .
57(4) . . .
58(4) . . .
54(4) . . .
53(4) . . .
61(4) . . .
55(4) . . .
46(4) . . .
46(4) . . .
46(4) . . .
49(4) . . .
54(4) . . .
52(4) . . .
50(4) . . .
45(4) . . .
56(4) . . .
42.5(34) . . .
56(4) . . .
62(4) . . .
54(4) . . .
44(4) . . .
51(4) . . .
57(4) . . .
48(4) . . .
45(4) . . .
51(4) . . .
50(4) . . .
49(4) . . .
48(4) . . .
44(4) . . .
46(4) . . .
55(4) . . .
50(4) . . .
55(4) . . .
62(4) . . .
58(4) . . .
58(4) . . .
57(4) . . .
57(4) . . .
56(4) . . .
55(4) . . .
57(4) . . .
53(4) . . .
53(4) . . .
54(4) . . .
51(4) . . .
51(4) . . .
49(4) . . .
39.4(33) . . .
47(4) . . .
63(4) . . .
64(4) . . .
55(4) . . .
63(4) . . .
55(4) . . .
57(4) . . .
44.5(35) . . .
49(4) . . .
50(4) . . .
48(4) . . .
55(4) . . .
58(4) . . .
44.7(35) . . .
54(4) . . .
45(4) . . .
63(4) . . .
62(4) . . .
56(4) . . .
45(4) . . .
45(4) . . .
51(4) . . .
41.8(34) . . .
49(4) . . .
51(4) . . .
51(4) . . .
53(4) . . .
49(4) . . .
42.2(34) . . .
53(4) . . .
45(4) . . .
58(4) . . .
59(4) . . .
61(4) . . .
55(4) . . .
48(4) . . .
55(4) . . .
64(4) . . .
54(4) . . .
53(4) . . .
50(4) . . .
54(4) . . .
64(4) . . .
65(4) . . .
61(4) . . .
61(4) . . .
57(4) . . .
57(4) . . .
46(4) . . .
48(4) . . .
58(4) . . .
44.7(35) . . .
56(4) . . .
46(4) . . .
52(4) . . .
54(4) . . .
51(4) . . .
56(4) . . .
55(4) . . .
56(4) . . .
57(4) . . .
57(4) . . .
52(4) . . .
54(4) . . .
64(5) . . .
50(4) . . .
64(4) . . .
56(4) . . .
51(4) . . .
68(5) . . .
57(4) . . .
68(4) . . .
53(4) . . .
52(4) . . .
49(4) . . .
56(4) . . .
44.1(35) . . .
47(4) . . .
53(4) . . .
66(5) . . .
48(4) . . .
51(4) . . .
49(4) . . .
53(4) . . .
46(4) . . .
64(4) . . .
57(4) . . .
56(4) . . .
63(5) . . .
56(4) . . .
56(4) . . .
53(4) . . .
50(4) . . .
51(4) . . .
54(4) . . .
56(4) . . .
55(4) . . .
60(4) . . .
53(4) . . .
50(4) . . .
59(4) . . .
43.6(34) . . .
51(4) . . .
43(4) . . .
48(4) . . .
52(4) . . .
46(4) . . .
57(4) . . .
51(4) . . .
53(4) . . .
63(4) . . .
60(4) . . .
56(4) . . .
46(4) . . .
53(4) . . .
46(4) . . .
45(4) . . .
49(4) . . .
54(4) . . .
59(4) . . .
53(4) . . .
44(4) . . .
50(4) . . .
53(4) . . .
52(4) . . .
47(4) . . .
55(4) . . .
54(4) . . .
60(4) . . .
53(4) . . .
58(4) . . .
47(4) . . .
65(5) . . .
52(4) . . .
49(4) . . .
55(4) . . .
59(4) . . .
50(4) . . .
61(4) . . .
52(4) . . .
53(4) . . .
47(4) . . .
65(5) . . .
60(4) . . .
44.7(35) . . .
56(4) . . .
52(4) . . .
59(4) . . .
47(4) . . .
51(4) . . .
56(4) . . .
50(4) . . .
48(4) . . .
51(4) . . .
56(4) . . .
58(4) . . .
53(4) . . .
56(4) . . .
51(4) . . .
50(4) . . .
50(4) . . .
57(4) . . .
52(4) . . .
57(4) . . .
57(4) . . .
58(4) . . .
51(4) . . .
55(4) . . .
51(4) . . .
64(4) . . .
58(4) . . .
54(4) . . .
51(4) . . .
50(4) . . .
63(4) . . .
51(4) . . .
59(4) . . .
54(4) . . .
47(4) . . .
53(4) . . .
53(4) . . .
54(4) . . .
50(4) . . .
52(4) . . .
53(4) . . .
56(4) . . .
58(4) . . .
46(4) . . .
49(4) . . .
55(4) . . .
43.6(34) . . .
55(4) . . .
56(4) . . .
49(4) . . .
54(4) . . .
56(4) . . .
58(4) . . .
49(4) . . .
50(4) . . .
47(4) . . .
65(4) . . .
54(4) . . .
44(4) . . .
54(4) . . .
47(4) . . .
50(4) . . .
57(4) . . .
54(4) . . .
51(4) . . .
51(4) . . .
48(4) . . .
57(4) . . .
49(4) . . .
53(4) . . .
62(4) . . .
57(4) . . .
61(4) . . .
44(4) . . .
54(4) . . .
52(4) . . .
56(4) . . .
48(4) . . .
56(4) . . .
55(4) . . .
58(4) . . .
44(4) . . .
55(4) . . .
56(4) . . .
58(4) . . .
52(4) . . .
45(4) . . .
50(4) . . .
55(4) . . .
57(4) . . .
62(4) . . .
58(4) . . .
55(4) . . .
60(4) . . .
57(4) . . .
58(4) . . .
48(4) . . .
46(4) . . .
54(4) . . .
52(4) . . .
52(4) . . .
60(4) . . .
60(4) . . .
52(4) . . .
53(4) . . .
48(4) . . .
56(4) . . .
52(4) . . .
59(4) . . .
50(4) . . .
64(5) . . .
46(4) . . .
50(4) . . .
50(4) . . .
56(4) . . .
52(4) . . .
53(4) . . .
50(4) . . .
54(4) . . .
53(4) . . .
53(4) . . .
53(4) . . .
53(4) . . .
47(4) . . .
57(4) . . .
52(4) . . .
62(4) . . .
67(4) . . .
66(4) . . .
52(4) . . .
56(4) . . .
50(4) . . .
51(4) . . .
47(4) . . .
56(4) . . .
50(4) . . .
52(4) . . .
46(4) . . .
52(4) . . .
51(4) . . .
47(4) . . .
60(4) . . .
52(4) . . .
57(4) . . .
49(4) . . .
53(4) . . .
43.4(35) . . .
60(4) . . .
48(4) . . .
64(4) . . .
54(4) . . .
51(4) . . .
58(4) . . .
53(4) . . .
48(4) . . .
55(4) . . .
49(4) . . .
42.6(35) . . .
48(4) . . .
60(4) . . .
53(4) . . .
48(4) . . .
54(4) . . .
60(4) . . .
53(4) . . .
50(4) . . .
57(4) . . .
43.1(34) . . .
52(4) . . .
50(4) . . .
46(4) . . .
46(4) . . .
52(4) . . .
43(4) . . .
62(5) . . .
55(4) . . .
55(4) . . .
54(4) . . .
46(4) . . .
67(5) . . .
52(4) . . .
57(4) . . .
46.5(35) . . .
64(5) . . .
59(4) . . .
50(4) . . .
56(4) . . .
42.5(34) . . .
57(4) . . .
54(4) . . .
60(4) . . .
51(4) . . .
48(4) . . .
55(4) . . .
64(5) . . .
54(4) . . .
55(4) . . .
49(4) . . .
56(4) . . .
60(4) . . .
55(4) . . .
57(4) . . .
56(4) . . .
54(4) . . .
49(4) . . .
50(4) . . .
44(4) . . .
46(4) . . .
49(4) . . .
45(4) . . .
54(4) . . .
44.0(35) . . .
53(4) . . .
51(4) . . .
46(4) . . .
43(4) . . .
39.1(33) . . .
52(4) . . .
57(4) . . .
50(4) . . .
49(4) . . .
59(4) . . .
47(4) . . .
44(4) . . .
59(4) . . .
50(4) . . .
45(4) . . .
51(4) . . .
54(4) . . .
41.8(33) . . .
57(4) . . .
42.4(34) . . .
47(4) . . .
45(4) . . .
51(4) . . .
60(4) . . .
55(4) . . .
51(4) . . .
54(4) . . .
46(4) . . .
59(4) . . .
60(4) . . .
53(4) . . .
60(4) . . .
44(4) . . .
50(4) . . .
66(4) . . .
52(4) . . .
54(4) . . .
53(4) . . .
51(4) . . .
54(4) . . .
53(4) . . .
46(4) . . .
62(4) . . .
53(4) . . .
46(4) . . .
47(4) . . .
50(4) . . .
46(4) . . .
46(4) . . .
56(4) . . .
46(4) . . .
45(4) . . .
56(4) . . .
50(4) . . .
49(4) . . .
48(4) . . .
54(4) . . .
46(4) . . .
49(4) . . .
56(4) . . .
54(4) . . .
58(4) . . .
54(4) . . .
52(4) . . .
48(4) . . .
46(4) . . .
50(4) . . .
53(4) . . .
50(4) . . .
50(4) . . .
55(4) . . .
56(4) . . .
53(4) . . .
50(4) . . .
51(4) . . .
48(4) . . .
47(4) . . .
49(4) . . .
50(4) . . .
51(4) . . .
65(5) . . .
51(4) . . .
56(4) . . .
60(4) . . .
48(4) . . .
46(4) . . .
54(4) . . .
53(4) . . .
43.8(35) . . .
56(4) . . .
44(4) . . .
58(4) . . .
52(4) . . .
51(4) . . .
51(4) . . .
47(4) . . .
44.2(35) . . .
49(4) . . .
51(4) . . .
53(4) . . .
44(4) . . .
48(4) . . .
55(4) . . .
63(4) . . .
51(4) . . .
46(4) . . .
49(4) . . .
44.6(35) . . .
53(4) . . .
55(4) . . .
53(4) . . .
57(4) . . .
43.8(35) . . .
47(4) . . .
50(4) . . .
54(4) . . .
57(4) . . .
48(4) . . .
56(4) . . .
43(4) . . .
52(4) . . .
58(4) . . .
61(4) . . .
53(4) . . .
52(4) . . .
50(4) . . .
56(4) . . .
43.5(34) . . .
51(4) . . .
52(4) . . .
46(4) . . .
50(4) . . .
53(4) . . .
56(4) . . .
44(4) . . .
51(4) . . .
60(4) . . .
57(4) . . .
53(4) . . .
51(4) . . .
51(4) . . .
47(4) . . .
63(4) . . .
49(4) . . .
49(4) . . .
48(4) . . .
57(4) . . .
46.2(35) . . .
53(4) . . .
55(4) . . .
51(4) . . .
58(4) . . .
49(4) . . .
53(4) . . .
49(4) . . .
47(4) . . .
50(4) . . .
58(4) . . .
49(4) . . .
49(4) . . .
41.6(34) . . .
51(4) . . .
53(4) . . .
45(4) . . .
56(4) . . .
44.4(35) . . .
61(4) . . .
56(4) . . .
45(4) . . .
53(4) . . .
51(4) . . .
41.6(34) . . .
62(4) . . .
47(4) . . .
45(4) . . .
52(4) . . .
57(4) . . .
49(4) . . .
54(4) . . .
51(4) . . .
53(4) . . .
49(4) . . .
46(4) . . .
46(4) . . .
50(4) . . .
50(4) . . .
50(4) . . .
40.1(33) . . .
60(4) . . .
57(4) . . .
50(4) . . .
43.1(35) . . .
46(4) . . .
52(4) . . .
53(4) . . .
41.6(34) . . .
48(4) . . .
62(4) . . .
52(4) . . .
52(4) . . .
43.2(35) . . .
52(4) . . .
52(4) . . .
51(4) . . .
51(4) . . .
52(4) . . .
53(4) . . .
58(4) . . .
58(4) . . .
54(4) . . .
45(4) . . .
55(4) . . .
59(4) . . .
46(4) . . .
37.0(32) . . .
42.5(34) . . .
55(4) . . .
46(4) . . .
53(4) . . .
50(4) . . .
62(4) . . .
48(4) . . .
48(4) . . .
57(4) . . .
69(4) . . .
62(4) . . .
54(4) . . .
48(4) . . .
60(4) . . .
61(4) . . .
47(4) . . .
52(4) . . .
52(4) . . .
45.3(35) . . .
47(4) . . .
50(4) . . .
59(4) . . .
49(4) . . .
49(4) . . .
62(4) . . .
38.9(32) . . .
48(4) . . .
50(4) . . .
35.6(32) . . .
52(4) . . .
60(4) . . .
51(4) . . .
52(4) . . .
59(4) . . .
53(4) . . .
52(4) . . .
43.7(34) . . .
51(4) . . .
46(4) . . .
49(4) . . .
57(4) . . .
56(4) . . .
50(4) . . .
52(4) . . .
44.5(35) . . .
50(4) . . .
52(4) . . .
47(4) . . .
49(4) . . .
54(4) . . .
51(4) . . .
45(4) . . .
49(4) . . .
44(4) . . .
47(4) . . .
52(4) . . .
60(4) . . .
54(4) . . .
39.7(34) . . .
49(4) . . .
47(4) . . .
45(4) . . .
52(4) . . .
49(4) . . .
46(4) . . .
39.2(35) . . .
43(4) . . .
50(4) . . .
59(4) . . .
53(4) . . .
53(4) . . .
51(4) . . .
45(4) . . .
49(4) . . .
57(4) . . .
52(4) . . .
50(4) . . .
57(4) . . .
49(4) . . .
49(4) . . .
48(4) . . .
48(4) . . .
55(4) . . .
54(4) . . .
54(4) . . .
52(4) . . .
53(4) . . .
52(4) . . .
53(4) . . .
53(4) . . .
46(4) . . .
52(4) . . .
46(4) . . .
58(4) . . .
50(4) . . .
47(4) . . .
40.6(32) . . .
52(4) . . .
45.4(35) . . .
48(4) . . .
46(4) . . .
48(4) . . .
51(4) . . .
50(4) . . .
47(4) . . .
53(4) . . .
53(4) . . .
48(4) . . .
44.7(35) . . .
49(4) . . .
50(4) . . .
54(4) . . .
57(4) . . .
48(4) . . .
48(4) . . .
51(4) . . .
49(4) . . .
54(4) . . .
50(4) . . .
53(4) . . .
51(4) . . .
62(4) . . .
52(4) . . .
52(4) . . .
48(4) . . .
47(4) . . .
57(4) . . .
44.2(34) . . .
48(4) . . .
59(4) . . .
53(4) . . .
43(4) . . .
43.2(34) . . .
49(4) . . .
46(4) . . .
48(4) . . .
60(4) . . .
49(4) . . .
49(4) . . .
46(4) . . .
36.7(33) . . .
48(4) . . .
59(4) . . .
47(4) . . .
50(4) . . .
45(4) . . .
50(4) . . .
55(4) . . .
57(4) . . .
56(4) . . .
48(4) . . .
50(4) . . .
57(4) . . .
45(4) . . .
56(4) . . .
48(4) . . .
49(4) . . .
49(4) . . .
44.3(34) . . .
50(4) . . .
48(4) . . .
47(4) . . .
42.0(34) . . .
51(4) . . .
46(4) . . .
50(4) . . .
51(4) . . .
63(4) . . .
54(4) . . .
52(4) . . .
39.4(33) . . .
49(4) . . .
51(4) . . .
45(4) . . .
56(4) . . .
53(4) . . .
41.8(33) . . .
48(4) . . .
51(4) . . .
49(4) . . .
52(4) . . .
45.2(35) . . .
51(4) . . .
44.0(34) . . .
59(4) . . .
48(4) . . .
45(4) . . .
52(4) . . .
49(4) . . .
62(4) . . .
53(4) . . .
41.7(35) . . .
52(4) . . .
48(4) . . .
51(4) . . .
55(4) . . .
52(4) . . .
44(4) . . .
53(4) . . .
44(4) . . .
45(4) . . .
58(4) . . .
41.6(35) . . .
40(4) . . .
56(4) . . .
60(4) . . .
55(4) . . .
49(4) . . .
58(5) . . .
44(4) . . .
57(4) . . .
47(4) . . .
44(4) . . .
59(4) . . .
61(4) . . .
51(4) . . .
61(4) . . .
50(4) . . .
55(4) . . .
52(4) . . .
47(4) . . .
44.5(34) . . .
54(4) . . .
58(4) . . .
59(4) . . .
59(4) . . .
48(4) . . .
51(4) . . .
46(4) . . .
49(4) . . .
52(4) . . .
47(4) . . .
58(4) . . .
61(4) . . .
49(4) . . .
51(4) . . .
45.3(35) . . .
57(4) . . .
43(4) . . .
47(4) . . .
52(4) . . .
51(4) . . .
51(4) . . .
58(4) . . .
53(4) . . .
63(4) . . .
60(4) . . .
56(4) . . .
43.9(35) . . .
51(4) . . .
50(4) . . .
54(4) . . .
56(4) . . .
52(4) . . .
45(4) . . .
47(4) . . .
49(4) . . .
54(4) . . .
64(4) . . .
43.0(34) . . .
57(4) . . .
52(4) . . .
49(4) . . .
46(4) . . .
47(4) . . .
42.6(34) . . .
63(4) . . .
54(4) . . .
63(4) . . .
54(4) . . .
49(4) . . .
45(4) . . .
41.7(34) . . .
50(4) . . .
54(4) . . .
42.2(35) . . .
49(4) . . .
56(4) . . .
58(4) . . .
54(4) . . .
54(4) . . .
48(4) . . .
43.2(35) . . .
50(4) . . .
48(4) . . .
48(4) . . .
44(4) . . .
47(4) . . .
52(4) . . .
48(4) . . .
54(4) . . .
54(4) . . .
52(4) . . .
56(4) . . .
55(4) . . .
42.3(34) . . .
47(4) . . .
51(4) . . .
55(4) . . .
43.7(34) . . .
46(4) . . .
46(4) . . .
54(4) . . .
51(4) . . .
54(4) . . .
43(4) . . .
49(4) . . .
42.7(35) . . .
44(4) . . .
60(4) . . .
58(4) . . .
53(4) . . .
43(4) . . .
50(4) . . .
54(4) . . .
45(4) . . .
44(4) . . .
47(4) . . .
55(4) . . .
65(4) . . .
51(4) . . .
46(4) . . .
48(4) . . .
43.5(34) . . .
50(4) . . .
49(4) . . .
52(4) . . .
42.4(35) . . .
48(4) . . .
48(4) . . .
51(4) . . .
39.9(35) . . .
51(4) . . .
44(4) . . .
39.7(33) . . .
42(4) . . .
49(4) . . .
55(4) . . .
48(4) . . .
40.7(33) . . .
56(4) . . .
44(4) . . .
51(4) . . .
54(4) . . .
51(4) . . .
46(4) . . .
51(4) . . .
48(4) . . .
47(4) . . .
48(4) . . .
51(4) . . .
55(4) . . .
49(4) . . .
52(4) . . .
43(4) . . .
49(4) . . .
47(4) . . .
53(4) . . .
53(4) . . .
53(4) . . .
40.7(34) . . .
48(4) . . .
42.6(34) . . .
46(4) . . .
48(4) . . .
53(4) . . .
51(4) . . .
49(4) . . .
48(4) . . .
41.3(34) . . .
53(4) . . .
48(4) . . .
39.8(33) . . .
56(4) . . .
57(4) . . .
47(4) . . .
48(4) . . .
44.3(34) . . .
54(4) . . .
51(4) . . .
52(4) . . .
54(4) . . .
45(4) . . .
39.5(32) . . .
55(4) . . .
49(4) . . .
45(4) . . .
32.6(30) . . .
41.7(34) . . .
57(4) . . .
50(4) . . .
54(4) . . .
48(4) . . .
49(4) . . .
63(4) . . .
55(4) . . .
49(4) . . .
42.5(34) . . .
50(4) . . .
49(4) . . .
64(5) . . .
43(4) . . .
51(4) . . .
46(4) . . .
39.7(33) . . .
45(4) . . .
49(4) . . .
41.5(34) . . .
55(4) . . .
51(4) . . .
47(4) . . .
52(4) . . .
50(4) . . .
54(4) . . .
50(4) . . .
52(4) . . .
55(4) . . .
44.3(35) . . .
45(4) . . .
51(4) . . .
45(4) . . .
50(4) . . .
56(4) . . .
51(4) . . .
56(4) . . .
44.0(34) . . .
47(4) . . .
42.1(34) . . .
65(4) . . .
49(4) . . .
44(4) . . .
56(4) . . .
55(4) . . .
47(4) . . .
51(4) . . .
45(4) . . .
47(4) . . .
54(4) . . .
43(4) . . .
47(4) . . .
51(4) . . .
53(4) . . .
57(4) . . .
44(4) . . .
56(4) . . .
48(4) . . .
50(4) . . .
53(4) . . .
53(4) . . .
61(4) . . .
46(4) . . .
49(4) . . .
57(4) . . .
58(4) . . .
47(4) . . .
53(4) . . .
58(4) . . .
47(4) . . .
50(4) . . .
53(4) . . .
53(4) . . .
44.6(35) . . .
52(4) . . .
34.8(31) . . .
56(4) . . .
47(4) . . .
57(4) . . .
47(4) . . .
47(4) . . .
44.0(34) . . .
55(4) . . .
53(4) . . .
48(4) . . .
53(4) . . .
49(4) . . .
37.5(31) . . .
55(4) . . .
60(4) . . .
49(4) . . .
52(4) . . .
56(4) . . .
58(4) . . .
49(4) . . .
39.2(35) . . .
46(4) . . .
47(4) . . .
45(4) . . .
47(4) . . .
50(4) . . .
56(4) . . .
42.9(34) . . .
46(4) . . .
41.1(34) . . .
59(4) . . .
49(4) . . .
49(4) . . .
45(4) . . .
55(4) . . .
68(5) . . .
56(4) . . .
52(4) . . .
66(4) . . .
52(4) . . .
44(4) . . .
49(4) . . .
56(4) . . .
48(4) . . .
42(4) . . .
41.6(34) . . .
50(4) . . .
48(4) . . .
50(4) . . .
53(4) . . .
46(4) . . .
48(4) . . .
48(4) . . .
58(4) . . .
52(4) . . .
57(4) . . .
61(4) . . .
51(4) . . .
51(4) . . .
49(4) . . .
46(4) . . .
47(4) . . .
48(4) . . .
41.7(33) . . .
51(4) . . .
49(4) . . .
48(4) . . .
55(4) . . .
55(4) . . .
55(4) . . .
47(4) . . .
41.6(34) . . .
45(4) . . .
57(4) . . .
53(4) . . .
52(4) . . .
47(4) . . .
51(4) . . .
41.1(33) . . .
54(4) . . .
50(4) . . .
54(4) . . .
45(4) . . .
55(4) . . .
57(4) . . .
51(4) . . .
43.3(34) . . .
47(4) . . .
50(4) . . .
65(4) . . .
46(4) . . .
40.1(34) . . .
48(4) . . .
49(4) . . .
49(4) . . .
48(4) . . .
54(4) . . .
49(4) . . .
52(4) . . .
52(4) . . .
39.7(33) . . .
50(4) . . .
49(4) . . .
47(4) . . .
51(4) . . .
51(4) . . .
52(4) . . .
45(4) . . .
49(4) . . .
43(4) . . .
48(4) . . .
50(4) . . .
44(4) . . .
46(4) . . .
40.6(33) . . .
51(4) . . .
50(4) . . .
51(4) . . .
50(4) . . .
54(4) . . .
51(4) . . .
54(4) . . .
51(4) . . .
48(4) . . .
48(4) . . .
45(4) . . .
47(4) . . .
43(4) . . .
43(4) . . .
43.2(35) . . .
47(4) . . .
51(4) . . .
49(4) . . .
57(4) . . .
43.6(34) . . .
42.4(34) . . .
46(4) . . .
45(4) . . .
49(4) . . .
48(4) . . .
51(4) . . .
40(4) . . .
52(4) . . .
48(4) . . .
50(4) . . .
65(4) . . .
50(4) . . .
53(4) . . .
56(4) . . .
45.6(35) . . .
54(4) . . .
52(4) . . .
60(4) . . .
53(4) . . .
43.3(35) . . .
41.8(34) . . .
50(4) . . .
49(4) . . .
45.2(35) . . .
54(4) . . .
46(4) . . .
42.2(34) . . .
47(4) . . .
49(4) . . .
47(4) . . .
59(4) . . .
47(4) . . .
48(4) . . .
44.3(35) . . .
48(4) . . .
43.2(35) . . .
43(4) . . .
51(4) . . .
57(4) . . .
50(4) . . .
43.6(35) . . .
43.6(35) . . .
60(4) . . .
53(4) . . .
39.4(33) . . .
38.8(33) . . .
51(4) . . .
47(4) . . .
41.9(34) . . .
47(4) . . .
46(4) . . .
49(4) . . .
50(4) . . .
46(4) . . .
47(4) . . .
49(4) . . .
52(4) . . .
55(4) . . .
50(4) . . .
48(4) . . .
48(4) . . .
44(4) . . .
52(4) . . .
42.7(34) . . .
36.6(32) . . .
56(4) . . .
46(4) . . .
57(4) . . .
55(4) . . .
48(4) . . .
57(4) . . .
47(4) . . .
51(4) . . .
43.4(34) . . .
47(4) . . .
45(4) . . .
53(4) . . .
46(4) . . .
41.4(33) . . .
47(4) . . .
48(4) . . .
62(4) . . .
45.1(35) . . .
49(4) . . .
44(4) . . .
42.6(35) . . .
44(4) . . .
46(4) . . .
47(4) . . .
39.8(33) . . .
47(4) . . .
50(4) . . .
49(4) . . .
52(4) . . .
54(4) . . .
46(4) . . .
49(4) . . .
56(4) . . .
50(4) . . .
44.5(35) . . .
44(4) . . .
50(4) . . .
48(4) . . .
50(4) . . .
50(4) . . .
50(4) . . .
53(4) . . .
57(4) . . .
46(4) . . .
49(4) . . .
40.6(35) . . .
46(4) . . .
50(4) . . .
51(4) . . .
51(4) . . .
54(4) . . .
54(4) . . .
50(4) . . .
55(4) . . .
39.7(34) . . .
51(4) . . .
58(4) . . .
48(4) . . .
39.1(33) . . .
41.8(33) . . .
46(4) . . .
49(4) . . .
59(4) . . .
51(4) . . .
55(4) . . .
43(4) . . .
49(4) . . .
54(4) . . .
57(4) . . .
43.0(34) . . .
58(4) . . .
48(4) . . .
46(4) . . .
45(4) . . .
55(4) . . .
48(4) . . .
55(4) . . .
38.3(32) . . .
39.9(33) . . .
41(4) . . .
51(4) . . .
56(4) . . .
46(4) . . .
55(4) . . .
46(4) . . .
48(4) . . .
46(4) . . .
52(4) . . .
58(4) . . .
49(4) . . .
57(4) . . .
56(4) . . .
47(4) . . .
56(4) . . .
43(4) . . .
46(4) . . .
47(4) . . .
47(4) . . .
45(4) . . .
52(4) . . .
59(4) . . .
52(4) . . .
54(4) . . .
49(4) . . .
52(4) . . .
46(4) . . .
43(4) . . .
54(4) . . .
68(4) . . .
51(4) . . .
34.5(32) . . .
43.3(34) . . .
40.6(33) . . .
51(4) . . .
50(4) . . .
44(4) . . .
61(4) . . .
47(4) . . .
42.4(35) . . .
48(4) . . .
52(4) . . .
39.6(32) . . .
53(4) . . .
55(4) . . .
49(4) . . .
47(4) . . .
43.4(34) . . .
44(4) . . .
39.3(33) . . .
46(4) . . .
50(4) . . .
53(4) . . .
49(4) . . .
50(4) . . .
55(4) . . .
52(4) . . .
39.2(33) . . .
46(4) . . .
50(4) . . .
52(4) . . .
50(4) . . .
48(4) . . .
54(4) . . .
50(4) . . .
45(4) . . .
44.6(35) . . .
49(4) . . .
49(4) . . .
57(4) . . .
48(4) . . .
52(4) . . .
45(4) . . .
48(4) . . .
42(4) . . .
44(4) . . .
51(4) . . .
45(4) . . .
48(4) . . .
56(4) . . .
52(4) . . .
50(4) . . .
46.0(35) . . .
49(4) . . .
51(4) . . .
48(4) . . .
44.4(34) . . .
39.9(33) . . .
48(4) . . .
48(4) . . .
54(4) . . .
49(4) . . .
40.8(34) . . .
48(4) . . .
53(4) . . .
48(4) . . .
43.5(34) . . .
48(4) . . .
51(4) . . .
45(4) . . .
40.1(34) . . .
49(4) . . .
42.1(33) . . .
49(4) . . .
49(4) . . .
45(4) . . .
53(4) . . .
47(4) . . .
49(4) . . .
46(4) . . .
56(4) . . .
53(4) . . .
55(4) . . .
44(4) . . .
44.7(35) . . .
44.4(34) . . .
48(4) . . .
47(4) . . .
58(4) . . .
49(4) . . .
54(4) . . .
54(4) . . .
51(4) . . .
57(4) . . .
49(4) . . .
53(4) . . .
46(4) . . .
57(4) . . .
46(4) . . .
49(4) . . .
44.9(34) . . .
50(4) . . .
49(4) . . .
48(4) . . .
55(4) . . .
53(4) . . .
55(4) . . .
46(4) . . .
47(4) . . .
47(4) . . .
41.2(33) . . .
53(4) . . .
59(4) . . .
47(4) . . .
54(4) . . .
46(4) . . .
56(4) . . .
49(4) . . .
53(4) . . .
59(4) . . .
54(4) . . .
56(4) . . .
52(4) . . .
49(4) . . .
39.4(34) . . .
42.7(34) . . .
49(4) . . .
46(4) . . .
46(4) . . .
46(4) . . .
44.9(35) . . .
47(4) . . .
45(4) . . .
46(4) . . .
51(4) . . .
56(4) . . .
49(4) . . .
51(4) . . .
43.5(34) . . .
59(4) . . .
48(4) . . .
49(4) . . .
40.0(33) . . .
56(4) . . .
55(4) . . .
55(4) . . .
50(4) . . .
61(4) . . .
48(4) . . .
53(4) . . .
43.9(34) . . .
50(4) . . .
43.2(35) . . .
50(4) . . .
40.7(33) . . .
48(4) . . .
47(4) . . .
39.6(35) . . .
45(4) . . .
47(4) . . .
44.2(35) . . .
52(4) . . .
52(4) . . .
57(4) . . .
41.5(33) . . .
43.7(34) . . .
41.3(33) . . .
50(4) . . .
49(4) . . .
60(4) . . .
50(4) . . .
51(4) . . .
46(4) . . .
53(4) . . .
43.3(35) . . .
39.8(34) . . .
45(4) . . .
44.7(35) . . .
49(4) . . .
47(4) . . .
46(4) . . .
48(4) . . .
41.4(34) . . .
45(4) . . .
47(4) . . .
39.9(34) . . .
46(4) . . .
47(4) . . .
52(4) . . .
47(4) . . .
34.3(31) . . .
48(4) . . .
48(4) . . .
53(4) . . .
39.6(33) . . .
43(4) . . .
46(4) . . .
50(4) . . .
40.9(34) . . .
40.0(33) . . .
50(4) . . .
65(5) . . .
51(4) . . .
50(4) . . .
54(4) . . .
33.8(32) . . .
49(4) . . .
41.4(35) . . .
51(4) . . .
53(4) . . .
56(4) . . .
44(4) . . .
36.5(31) . . .
54(4) . . .
50(4) . . .
47(4) . . .
40.9(35) . . .
41.9(34) . . .
46(4) . . .
47(4) . . .
42.5(35) . . .
42(4) . . .
60(4) . . .
49(4) . . .
41.3(33) . . .
44(4) . . .
47(4) . . .
39.7(33) . . .
42.6(34) . . .
51(4) . . .
46(4) . . .
46(4) . . .
45(4) . . .
46(4) . . .
58(4) . . .
42.7(35) . . .
51(4) . . .
48(4) . . .
49(4) . . .
46(4) . . .
47(4) . . .
50(4) . . .
46(4) . . .
49(4) . . .
36.4(31) . . .
44(4) . . .
43(4) . . .
48(4) . . .
50(4) . . .
48(4) . . .
45(4) . . .
48(4) . . .
52(4) . . .
48(4) . . .
43(4) . . .
47(4) . . .
55(4) . . .
42.7(34) . . .
48(4) . . .
48(4) . . .
60(5) . . .
50(4) . . .
36.2(31) . . .
44.4(35) . . .
49(4) . . .
54(4) . . .
50(4) . . .
44.7(35) . . .
44.6(34) . . .
52(4) . . .
44.1(35) . . .
56(4) . . .
44.9(35) . . .
47(4) . . .
50(4) . . .
39.7(33) . . .
45(4) . . .
41.2(34) . . .
50(4) . . .
46(4) . . .
46(4) . . .
37.2(32) . . .
44.0(35) . . .
38.3(32) . . .
44.7(34) . . .
49(4) . . .
46(4) . . .
36.5(32) . . .
46(4) . . .
53(4) . . .
54(4) . . .
53(4) . . .
44.3(35) . . .
57(4) . . .
57(4) . . .
51(4) . . .
41.9(34) . . .
50(4) . . .
47(4) . . .
44(4) . . .
50(4) . . .
45(4) . . .
41.8(35) . . .
52(4) . . .
46(4) . . .
49(4) . . .
51(4) . . .
45.1(35) . . .
48(4) . . .
48(4) . . .
60(4) . . .
46(4) . . .
50(4) . . .
48(4) . . .
46(4) . . .
47(4) . . .
46.2(35) . . .
52(4) . . .
50(4) . . .
49(4) . . .
50(4) . . .
45(4) . . .
50(4) . . .
41.3(35) . . .
37.9(34) . . .
52(4) . . .
50(4) . . .
59(4) . . .
49(4) . . .
49(4) . . .
44(4) . . .
50(4) . . .
48(4) . . .
58(4) . . .
51(4) . . .
44(4) . . .
47(4) . . .
52(4) . . .
45(4) . . .
46(4) . . .
56(4) . . .
49(4) . . .
57(4) . . .
58(4) . . .
47(4) . . .
42.5(34) . . .
44.6(35) . . .
42.6(35) . . .
48(4) . . .
51(4) . . .
50(4) . . .
49(4) . . .
52(4) . . .
41.5(34) . . .
42.9(34) . . .
43.8(34) . . .
45(4) . . .
50(4) . . .
52(4) . . .
40.8(34) . . .
47(4) . . .
50(4) . . .
56(4) . . .
53(4) . . .
48(4) . . .
46(4) . . .
42.3(34) . . .
50(4) . . .
46(4) . . .
53(4) . . .
47(4) . . .
48(4) . . .
49(4) . . .
45(4) . . .
55(4) . . .
67(4) . . .
54(4) . . .
56(4) . . .
48(4) . . .
47(4) . . .
44.1(35) . . .
47(4) . . .
45(4) . . .
41.3(35) . . .
51(4) . . .
47(4) . . .
45(4) . . .
44(4) . . .
44(4) . . .
51(4) . . .
40.9(33) . . .
52(4) . . .
56(4) . . .
49(4) . . .
56(4) . . .
55(4) . . .
52(4) . . .
50(4) . . .
39.7(33) . . .
51(4) . . .
52(4) . . .
41.4(34) . . .
53(4) . . .
56(4) . . .
47(4) . . .
51(4) . . .
52(4) . . .
51(4) . . .
51(4) . . .
50(4) . . .
37.8(32) . . .
54(4) . . .
48(4) . . .
49(4) . . .
42.3(35) . . .
51(4) . . .
42.2(34) . . .
60(4) . . .
49(4) . . .
47(4) . . .
54(4) . . .
52(4) . . .
46(4) . . .
47(4) . . .
58(4) . . .
52(4) . . .
58(4) . . .
48(4) . . .
47(4) . . .
49(4) . . .
54(4) . . .
51(4) . . .
43(4) . . .
46(4) . . .
52(4) . . .
44(4) . . .
43(4) . . .
50(4) . . .
53(4) . . .
53(4) . . .
55(4) . . .
41.7(34) . . .
44(4) . . .
45.1(35) . . .
52(4) . . .
47(4) . . .
51(4) . . .
48(4) . . .
46(4) . . .
52(4) . . .
48(4) . . .
61(4) . . .
49(4) . . .
60(4) . . .
56(4) . . .
48(4) . . .
45(4) . . .
45(4) . . .
53(4) . . .
42.7(34) . . .
48(4) . . .
56(4) . . .
51(4) . . .
43.8(35) . . .
49(4) . . .
46(4) . . .
49(4) . . .
47(4) . . .
43.0(34) . . .
53(4) . . .
37.6(33) . . .
52(4) . . .
57(4) . . .
54(4) . . .
48(4) . . .
48(4) . . .
45(4) . . .
32.6(29) . . .
50(4) . . .
45(4) . . .
45(4) . . .
56(4) . . .
49(4) . . .
41.2(33) . . .
48(4) . . .
46(4) . . .
55(4) . . .
50(4) . . .
51(4) . . .
52(4) . . .
49(4) . . .
46(4) . . .
55(4) . . .
41.0(34) . . .
51(4) . . .
55(4) . . .
51(4) . . .
47(4) . . .
42.0(34) . . .
46(4) . . .
45(4) . . .
50(4) . . .
46(4) . . .
40.5(34) . . .
49(4) . . .
53(4) . . .
41.7(35) . . .
41.3(33) . . .
48(4) . . .
48(4) . . .
57(4) . . .
47(4) . . .
48(4) . . .
40.5(34) . . .
44(4) . . .
41(4) . . .
46(4) . . .
48(4) . . .
47(4) . . .
47(4) . . .
51(4) . . .
54(4) . . .
51(4) . . .
54(4) . . .
52(4) . . .
48(4) . . .
56(4) . . .
41.4(34) . . .
43(4) . . .
41(4) . . .
40(4) . . .
47(4) . . .
46(4) . . .
52(4) . . .
44(4) . . .
45(4) . . .
45(4) . . .
57(4) . . .
52(4) . . .
48(4) . . .
45(4) . . .
49(4) . . .
43.4(35) . . .
42(4) . . .
40.6(34) . . .
46(4) . . .
55(4) . . .
46(4) . . .
57(4) . . .
38.9(34) . . .
46(4) . . .
48(4) . . .
48(4) . . .
48(4) . . .
46(4) . . .
46(4) . . .
50(4) . . .
44.2(34) . . .
53(4) . . .
46(4) . . .
44(4) . . .
46(4) . . .
57(4) . . .
54(4) . . .
49(4) . . .
43.8(34) . . .
45.5(35) . . .
47(4) . . .
48(4) . . .
41(4) . . .
55(4) . . .
51(4) . . .
58(4) . . .
47(4) . . .
37.7(32) . . .
59(4) . . .
49(4) . . .
49(4) . . .
44(4) . . .
45(4) . . .
46(4) . . .
55(4) . . .
52(4) . . .
48(4) . . .
42.2(34) . . .
48(4) . . .
44.2(34) . . .
44(4) . . .
48(4) . . .
47(4) . . .
38.9(33) . . .
40.7(33) . . .
32.7(30) . . .
52(4) . . .
49(4) . . .
60(4) . . .
46(4) . . .
45(4) . . .
50(4) . . .
35.6(32) . . .
45(4) . . .
55(4) . . .
69(5) . . .
52(4) . . .
46(4) . . .
46.1(35) . . .
43.4(34) . . .
55(4) . . .
46(4) . . .
42.6(34) . . .
46(4) . . .
58(4) . . .
51(4) . . .
45(4) . . .
48(4) . . .
55(4) . . .
49(4) . . .
50(4) . . .
47(4) . . .
53(4) . . .
56(4) . . .
41.2(33) . . .
57(4) . . .
47(4) . . .
53(4) . . .
39.0(32) . . .
50(4) . . .
49(4) . . .
46(4) . . .
41.2(34) . . .
50(4) . . .
50(4) . . .
51(4) . . .
37.6(32) . . .
42.8(34) . . .
48(4) . . .
38.8(33) . . .
48(4) . . .
55(4) . . .
42(4) . . .
49(4) . . .
51(4) . . .
44(4) . . .
42(4) . . .
44(4) . . .
46.4(35) . . .
51(4) . . .
43.3(34) . . .
49(4) . . .
41.5(34) . . .
42.9(35) . . .
55(4) . . .
53(4) . . .
35.1(32) . . .
49(4) . . .
44.8(35) . . .
60(4) . . .
47(4) . . .
48(4) . . .
56(4) . . .
44.8(35) . . .
56(4) . . .
53(4) . . .
48(4) . . .
48(4) . . .
47(4) . . .
47(4) . . .
45(4) . . .
54(4) . . .
50(4) . . .
49(4) . . .
43(4) . . .
38.7(33) . . .
48(4) . . .
43.8(34) . . .
38.9(33) . . .
50(4) . . .
47(4) . . .
56(4) . . .
61(4) . . .
52(4) . . .
41.9(34) . . .
56(4) . . .
51(4) . . .
45.3(35) . . .
42.9(34) . . .
48(4) . . .
57(4) . . .
44.1(35) . . .
45(4) . . .
47(4) . . .
44(4) . . .
48(4) . . .
52(4) . . .
54(4) . . .
54(4) . . .
44(4) . . .
44(4) . . .
39.8(32) . . .
49(4) . . .
42.9(35) . . .
39.5(34) . . .
49(4) . . .
52(4) . . .
38.4(32) . . .
57(4) . . .
56(4) . . .
54(4) . . .
52(4) . . .
46(4) . . .
53(4) . . .
38.0(34) . . .
41(4) . . .
45(4) . . .
42.5(35) . . .
46(4) . . .
46(4) . . .
47(4) . . .
48(4) . . .
41.9(34) . . .
51(4) . . .
46(4) . . .
45(4) . . .
40.8(33) . . .
41.0(34) . . .
40.6(33) . . .
49(4) . . .
43(4) . . .
44.3(35) . . .
50(4) . . .
41.4(35) . . .
45(4) . . .
45(4) . . .
53(4) . . .
45(4) . . .
51(4) . . .
45(4) . . .
54(4) . . .
56(4) . . .
57(4) . . .
47(4) . . .
44.2(35) . . .
56(4) . . .
45.5(35) . . .
43(4) . . .
47(4) . . .
40.3(34) . . .
45.5(35) . . .
42.8(34) . . .
41.2(33) . . .
44(4) . . .
49(4) . . .
37.8(32) . . .
44.8(35) . . .
44.1(35) . . .
43(4) . . .
46(4) . . .
52(4) . . .
45.0(34) . . .
40.5(35) . . .
49(4) . . .
44(4) . . .
46(4) . . .
36.4(32) . . .
41.8(34) . . .
40(4) . . .
50(4) . . .
48(4) . . .
55(4) . . .
44(4) . . .
45(4) . . .
54(4) . . .
40.4(33) . . .
39.1(33) . . .
53(4) . . .
52(4) . . .
52(4) . . .
45(4) . . .
41.3(33) . . .
44(4) . . .
54(4) . . .
46(4) . . .
50(4) . . .
55(4) . . .
50(4) . . .
43.3(35) . . .
45(4) . . .
56(4) . . .
46(4) . . .
57(4) . . .
48(4) . . .
42(4) . . .
47(4) . . .
47(4) . . .
45(4) . . .
49(4) . . .
57(4) . . .
45(4) . . .
42(4) . . .
48(4) . . .
46(4) . . .
43.6(35) . . .
43.7(34) . . .
51(4) . . .
47(4) . . .
53(4) . . .
43.5(34) . . .
51(4) . . .
51(4) . . .
43(4) . . .
42.7(34) . . .
54(4) . . .
45.2(35) . . .
44.3(35) . . .
54(4) . . .
50(4) . . .
48(4) . . .
46(4) . . .
46(4) . . .
47(4) . . .
52(4) . . .
48(4) . . .
54(4) . . .
48(4) . . .
42(4) . . .
53(4) . . .
54(4) . . .
46(4) . . .
47(4) . . .
44.1(35) . . .
43.1(35) . . .
42.8(34) . . .
47(4) . . .
50(4) . . .
44.2(34) . . .
47(4) . . .
46(4) . . .
45(4) . . .
44(4) . . .
41(4) . . .
47(4) . . .
49(4) . . .
45.0(35) . . .
38.9(32) . . .
50(4) . . .
41.0(34) . . .
37.7(32) . . .
53(4) . . .
40(4) . . .
41(4) . . .
48(4) . . .
50(4) . . .
42(4) . . .
40(4) . . .
46(4) . . .
43.1(34) . . .
48(4) . . .
49(4) . . .
53(4) . . .
48(4) . . .
57(4) . . .
55(4) . . .
56(4) . . .
47(4) . . .
40.5(33) . . .
44.3(35) . . .
40.6(33) . . .
45(4) . . .
45(4) . . .
57(4) . . .
55(4) . . .
54(4) . . .
51(4) . . .
48(4) . . .
62(4) . . .
47(4) . . .
46(4) . . .
43(4) . . .
46(4) . . .
50(4) . . .
49(4) . . .
46(4) . . .
50(4) . . .
47(4) . . .
47(4) . . .
54(4) . . .
60(4) . . .
50(4) . . .
46(4) . . .
56(4) . . .
57(4) . . .
47(4) . . .
46(4) . . .
52(4) . . .
50(4) . . .
38.7(32) . . .
47(4) . . .
45(4) . . .
55(4) . . .
48(4) . . .
38.6(32) . . .
46(4) . . .
35.5(33) . . .
39.3(34) . . .
44(4) . . .
50(4) . . .
46(4) . . .
41(4) . . .
47(4) . . .
41.7(33) . . .
48(4) . . .
50(4) . . .
44(4) . . .
41.7(34) . . .
39.6(33) . . .
41.3(34) . . .
39.2(34) . . .
55(4) . . .
43(4) . . .
45(4) . . .
48(4) . . .
52(4) . . .
46(4) . . .
59(4) . . .
46(4) . . .
49(4) . . .
46(4) . . .
54(4) . . .
52(4) . . .
48(4) . . .
45(4) . . .
48(4) . . .
47(4) . . .
55(4) . . .
48(4) . . .
52(4) . . .
48(4) . . .
46(4) . . .
48(4) . . .
43.6(34) . . .
39.8(33) . . .
42(4) . . .
40(4) . . .
49(4) . . .
51(4) . . .
47(4) . . .
49(4) . . .
57(4) . . .
46(4) . . .
45.6(35) . . .
50(4) . . .
53(4) . . .
53(4) . . .
39.8(33) . . .
40.6(34) . . .
43(4) . . .
41(4) . . .
46(4) . . .
48(4) . . .
50(4) . . .
57(4) . . .
51(4) . . .
44(4) . . .
44.8(35) . . .
41.9(34) . . .
37.6(35) . . .
52(4) . . .
45(4) . . .
47(4) . . .
40.0(33) . . .
47(4) . . .
46(4) . . .
49(4) . . .
48(4) . . .
48(4) . . .
46(4) . . .
52(4) . . .
43.1(35) . . .
37.7(32) . . .
40.6(34) . . .
44(4) . . .
52(4) . . .
49(4) . . .
49(4) . . .
39.1(32) . . .
45(4) . . .
44.3(35) . . .
54(4) . . .
46(4) . . .
48(4) . . .
40.2(35) . . .
51(4) . . .
41.2(34) . . .
47(4) . . .
45(4) . . .
52(4) . . .
50(4) . . .
43.0(34) . . .
53(4) . . .
44.1(35) . . .
48(4) . . .
36.1(31) . . .
51(4) . . .
48(4) . . .
49(4) . . .
45(4) . . .
44(4) . . .
46(4) . . .
49(4) . . .
50(4) . . .
59(4) . . .
45(4) . . .
46(4) . . .
42.3(34) . . .
42.7(35) . . .
49(4) . . .
40(4) . . .
44(4) . . .
49(4) . . .
38.2(32) . . .
60(4) . . .
47(4) . . .
44.0(35) . . .
53(4) . . .
46(4) . . .
51(4) . . .
51(4) . . .
44.2(35) . . .
46(4) . . .
39(4) . . .
49(4) . . .
48(4) . . .
46.0(35) . . .
46(4) . . .
44(4) . . .
44(4) . . .
47(4) . . .
47(4) . . .
47(4) . . .
44(4) . . .
42.2(34) . . .
38.4(33) . . .
42.7(34) . . .
50(4) . . .
54(4) . . .
43.9(34) . . .
52(4) . . .
44.2(35) . . .
40.8(35) . . .
45(4) . . .
60(4) . . .
49(4) . . .
52(4) . . .
47(4) . . .
51(4) . . .
44.6(35) . . .
49(4) . . .
45(4) . . .
48(4) . . .
46(4) . . .
50(4) . . .
54(4) . . .
54(4) . . .
54(4) . . .
45(4) . . .
41.3(33) . . .
43.4(34) . . .
43.5(35) . . .
46(4) . . .
52(4) . . .
48(4) . . .
50(4) . . .
41.4(33) . . .
38.7(33) . . .
51(4) . . .
47(4) . . .
50(4) . . .
49(4) . . .
54(4) . . .
43(4) . . .
49(4) . . .
44.5(35) . . .
49(4) . . .
47(4) . . .
47(4) . . .
45.2(35) . . .
54(4) . . .
44.0(35) . . .
40.0(34) . . .
38.5(33) . . .
49(4) . . .
38.7(33) . . .
41.3(34) . . .
46(4) . . .
50(4) . . .
52(4) . . .
47(4) . . .
35.8(33) . . .
42.4(35) . . .
44.5(35) . . .
53(4) . . .
43.0(34) . . .
45(4) . . .
44(4) . . .
47(4) . . .
46(4) . . .
41.0(33) . . .
51(4) . . .
40.2(32) . . .
56(4) . . .
51(4) . . .
49(4) . . .
44(4) . . .
44(4) . . .
37.5(33) . . .
52(4) . . .
65(4) . . .
50(4) . . .
56(4) . . .
48(4) . . .
46(4) . . .
47(4) . . .
40.4(33) . . .
50(4) . . .
51(4) . . .
42.9(34) . . .
45.1(35) . . .
49(4) . . .
57(4) . . .
45(4) . . .
48(4) . . .
48(4) . . .
54(4) . . .
39.2(34) . . .
41.7(33) . . .
47(4) . . .
49(4) . . .
40.5(35) . . .
43(4) . . .
45(4) . . .
44.7(35) . . .
60(4) . . .
54(4) . . .
39.5(35) . . .
49(4) . . .
54(4) . . .
49(4) . . .
46(4) . . .
37.4(34) . . .
48(4) . . .
40.8(33) . . .
53(4) . . .
52(4) . . .
51(4) . . .
56(4) . . .
50(4) . . .
54(4) . . .
53(4) . . .
55(4) . . .
48(4) . . .
51(4) . . .
44.6(34) . . .
45(4) . . .
49(4) . . .
43.7(34) . . .
48(4) . . .
50(4) . . .
41(4) . . .
40.9(34) . . .
34.8(31) . . .
51(4) . . .
48(4) . . .
40.5(33) . . .
56(4) . . .
52(4) . . .
42.5(35) . . .
50(4) . . .
60(4) . . .
59(4) . . .
52(4) . . .
57(4) . . .
53(4) . . .
47(4) . . .
44(4) . . .
48(4) . . .
47(4) . . .
40.8(34) . . .
47(4) . . .
41(4) . . .
32.9(31) . . .
36.1(33) . . .
45(4) . . .
50(4) . . .
56(4) . . .
45(4) . . .
45(4) . . .
47(4) . . .
49(4) . . .
54(4) . . .
41.4(35) . . .
49(4) . . .
41.4(34) . . .
45(4) . . .
46(4) . . .
47(4) . . .
47(4) . . .
43(4) . . .
46(4) . . .
46.3(35) . . .
47(4) . . .
45.4(35) . . .
51(4) . . .
47(4) . . .
42.2(34) . . .
42.3(34) . . .
45(4) . . .
36.7(33) . . .
46(4) . . .
51(4) . . .
48(4) . . .
40.7(33) . . .
42(4) . . .
48(4) . . .
43.8(35) . . .
43(4) . . .
45(4) . . .
49(4) . . .
51(4) . . .
50(4) . . .
47(4) . . .
50(4) . . .
50(4) . . .
50(4) . . .
55(4) . . .
43(4) . . .
47(4) . . .
50(4) . . .
49(4) . . .
55(4) . . .
40.8(35) . . .
51(4) . . .
36.3(31) . . .
43(4) . . .
43.7(34) . . .
49(4) . . .
52(4) . . .
56(4) . . .
51(4) . . .
47(4) . . .
37.7(32) . . .
41.1(35) . . .
42.1(34) . . .
41.8(34) . . .
39.6(33) . . .
48(4) . . .
56(4) . . .
48(4) . . .
54(4) . . .
52(4) . . .
55(4) . . .
51(4) . . .
41.1(33) . . .
41.6(34) . . .
55(4) . . .
56(4) . . .
49(4) . . .
45(4) . . .
47(4) . . .
52(4) . . .
39.3(33) . . .
49(4) . . .
45(4) . . .
55(4) . . .
48(4) . . .
49(4) . . .
49(4) . . .
47(4) . . .
43.8(35) . . .
48(4) . . .
45(4) . . .
43(4) . . .
47(4) . . .
50(4) . . .
37.3(33) . . .
49(4) . . .
43(4) . . .
43(4) . . .
43.1(34) . . .
46(4) . . .
50(4) . . .
51(4) . . .
48(4) . . .
57(4) . . .
48(4) . . .
45(4) . . .
49(4) . . .
53(4) . . .
50(4) . . .
46(4) . . .
40.9(34) . . .
46(4) . . .
43.9(34) . . .
36.1(32) . . .
48(4) . . .
49(4) . . .
40.0(34) . . .
48(4) . . .
48(4) . . .
45(4) . . .
44(4) . . .
42(4) . . .
49(4) . . .
50(4) . . .
40.2(34) . . .
57(4) . . .
47(4) . . .
49(4) . . .
56(4) . . .
41.6(34) . . .
52(4) . . .
50(4) . . .
50(4) . . .
40.9(33) . . .
42.1(35) . . .
58(4) . . .
39.1(32) . . .
38.5(32) . . .
52(4) . . .
47(4) . . .
51(4) . . .
50(4) . . .
54(4) . . .
41.1(35) . . .
47(4) . . .
52(4) . . .
46(4) . . .
41.8(33) . . .
36.4(33) . . .
56(4) . . .
47(4) . . .
46(4) . . .
53(4) . . .
48(4) . . .
48(4) . . .
52(4) . . .
51(4) . . .
41.1(34) . . .
38.5(32) . . .
41.7(35) . . .
43.6(35) . . .
47(4) . . .
50(4) . . .
48(4) . . .
51(4) . . .
46(4) . . .
42.8(35) . . .
50(4) . . .
50(4) . . .
44(4) . . .
42.6(34) . . .
54(4) . . .
49(4) . . .
48(4) . . .
44(4) . . .
50(4) . . .
38.6(33) . . .
51(4) . . .
44(4) . . .
50(4) . . .
40.3(34) . . .
48(4) . . .
44.3(34) . . .
46(4) . . .
44(4) . . .
39.0(33) . . .
44.8(34) . . .
50(4) . . .
45(4) . . .
44(4) . . .
46(4) . . .
49(4) . . .
53(4) . . .
48(4) . . .
46(4) . . .
46(4) . . .
54(4) . . .
50(4) . . .
46(4) . . .
43(4) . . .
51(4) . . .
41.5(34) . . .
46(4) . . .
43(4) . . .
50(4) . . .
43.9(34) . . .
52(4) . . .
47(4) . . .
56(4) . . .
52(4) . . .
47(4) . . .
46.4(35) . . .
54(4) . . .
49(4) . . .
38.1(32) . . .
42.6(35) . . .
40.5(33) . . .
49(4) . . .
47(4) . . .
50(4) . . .
49(4) . . .
47(4) . . .
42.5(33) . . .
45(4) . . .
52(4) . . .
50(4) . . .
51(4) . . .
42.9(34) . . .
40.1(34) . . .
47(4) . . .
52(4) . . .
48(4) . . .
49(4) . . .
52(4) . . .
43(4) . . .
43.3(33) . . .
43.7(35) . . .
45(4) . . .
53(4) . . .
50(4) . . .
46(4) . . .
44.6(35) . . .
44(4) . . .
39.8(34) . . .
47(4) . . .
48(4) . . .
52(4) . . .
48(4) . . .
46(4) . . .
55(4) . . .
47(4) . . .
39.7(35) . . .
45(4) . . .
49(4) . . .
35.4(31) . . .
57(4) . . .
45(4) . . .
48(4) . . .
51(4) . . .
45(4) . . .
45.3(35) . . .
48(4) . . .
47(4) . . .
38.1(33) . . .
43.7(34) . . .
50(4) . . .
49(4) . . .
42(4) . . .
47(4) . . .
36.8(31) . . .
47(4) . . .
52(4) . . .
47(4) . . .
43(4) . . .
38.0(33) . . .
47(4) . . .
44.4(35) . . .
40(4) . . .
44(4) . . .
44.9(34) . . .
53(4) . . .
52(4) . . .
53(4) . . .
40(4) . . .
43.0(35) . . .
45(4) . . .
48(4) . . .
43(4) . . .
47(4) . . .
46(4) . . .
42.2(34) . . .
46(4) . . .
48(4) . . .
47(4) . . .
49(4) . . .
50(4) . . .
51(4) . . .
50(4) . . .
50(4) . . .
49(4) . . .
46(4) . . .
38.2(34) . . .
42(4) . . .
42.1(34) . . .
50(4) . . .
48(4) . . .
47(4) . . .
46(4) . . .
50(4) . . .
52(4) . . .
49(4) . . .
54(4) . . .
49(4) . . .
46(4) . . .
39.5(33) . . .
47(4) . . .
32.1(30) . . .
41.8(34) . . .
40.7(34) . . .
43.3(34) . . .
55(4) . . .
45(4) . . .
46(4) . . .
49(4) . . .
51(4) . . .
41.1(34) . . .
35.5(33) . . .
43(4) . . .
50(4) . . .
44.5(35) . . .
37.4(33) . . .
38.5(34) . . .
38.3(33) . . .
60(4) . . .
44.0(34) . . .
40.4(33) . . .
52(4) . . .
43.2(34) . . .
49(4) . . .
37.8(32) . . .
41.5(34) . . .
47(4) . . .
48(4) . . .
48(4) . . .
47(4) . . .
53(4) . . .
42.5(34) . . .
50(4) . . .
47(4) . . .
44(4) . . .
48(4) . . .
49(4) . . .
49(4) . . .
45.2(35) . . .
51(4) . . .
45(4) . . .
55(4) . . .
49(4) . . .
50(4) . . .
46(4) . . .
41(4) . . .
47(4) . . .
46(4) . . .
48(4) . . .
50(4) . . .
50(4) . . .
44(4) . . .
38.8(34) . . .
44(4) . . .
43(4) . . .
46(4) . . .
40.7(33) . . .
40.3(33) . . .
42.9(34) . . .
49(4) . . .
49(4) . . .
46(4) . . .
44(4) . . .
44(4) . . .
42(4) . . .
48(4) . . .
55(4) . . .
50(4) . . .
48(4) . . .
44.0(35) . . .
39.3(34) . . .
41.5(35) . . .
42.4(34) . . .
41.8(34) . . .
38.7(33) . . .
40(4) . . .
36.8(34) . . .
60(4) . . .
49(4) . . .
43(4) . . .
47(4) . . .
44(4) . . .
48(4) . . .
48(4) . . .
50(4) . . .
57(4) . . .
51(4) . . .
54(4) . . .
43.5(35) . . .
52(4) . . .
47(4) . . .
51(4) . . .
49(4) . . .
47(4) . . .
41.7(34) . . .
54(4) . . .
46(4) . . .
53(4) . . .
41(4) . . .
38.9(33) . . .
41.6(34) . . .
38.3(34) . . .
43.4(34) . . .
41.8(35) . . .
42(4) . . .
48(4) . . .
35.8(32) . . .
40.7(33) . . .
45(4) . . .
39.9(34) . . .
51(4) . . .
54(4) . . .
40.9(33) . . .
49(4) . . .
51(4) . . .
50(4) . . .
51(4) . . .
49(4) . . .
48(4) . . .
40.4(35) . . .
44(4) . . .
50(4) . . .
47(4) . . .
53(4) . . .
54(4) . . .
58(4) . . .
46(4) . . .
44(4) . . .
41.6(34) . . .
41(4) . . .
44(4) . . .
44.8(35) . . .
46(4) . . .
39.6(33) . . .
51(4) . . .
39.7(34) . . .
45(4) . . .
43(4) . . .
43(4) . . .
54(4) . . .
45(4) . . .
42.9(34) . . .
50(4) . . .
43(4) . . .
43(4) . . .
47(4) . . .
44.7(35) . . .
46(4) . . .
44(4) . . .
40.9(35) . . .
49(4) . . .
54(4) . . .
54(4) . . .
53(4) . . .
47(4) . . .
40.6(33) . . .
43.3(34) . . .
43(4) . . .
54(4) . . .
45(4) . . .
46(4) . . .
37.3(31) . . .
46(4) . . .
41.6(33) . . .
45(4) . . .
59(4) . . .
45(4) . . .
43(4) . . .
50(4) . . .
55(4) . . .
51(4) . . .
40.9(33) . . .
42.1(34) . . .
50(4) . . .
40.6(33) . . .
43.6(34) . . .
40(4) . . .
40.6(34) . . .
62(4) . . .
44(4) . . .
47(4) . . .
53(4) . . .
51(4) . . .
37.3(33) . . .
40.5(35) . . .
49(4) . . .
42.5(34) . . .
52(4) . . .
44(4) . . .
40.2(33) . . .
53(4) . . .
44.0(35) . . .
43(4) . . .
52(4) . . .
42.0(34) . . .
41.2(33) . . .
39.9(34) . . .
42(4) . . .
42(4) . . .
47(4) . . .
42.1(34) . . .
38.0(33) . . .
47(4) . . .
49(4) . . .
44(4) . . .
51(4) . . .
50(4) . . .
54(4) . . .
46(4) . . .
41.6(33) . . .
48(4) . . .
47(4) . . .
41.2(34) . . .
44(4) . . .
49(4) . . .
54(4) . . .
49(4) . . .
44(4) . . .
42(4) . . .
51(4) . . .
47(4) . . .
50(4) . . .
54(4) . . .
48(4) . . .
49(4) . . .
50(4) . . .
51(4) . . .
46(4) . . .
38.1(34) . . .
43.8(34) . . .
46(4) . . .
50(4) . . .
39.7(34) . . .
47(4) . . .
46(4) . . .
37.4(33) . . .
51(4) . . .
43.0(35) . . .
48(4) . . .
38.3(33) . . .
51(4) . . .
40.7(33) . . .
42(4) . . .
47(4) . . .
50(4) . . .
42(4) . . .
43.0(35) . . .
44.1(35) . . .
45(4) . . .
55(4) . . .
49(4) . . .
47(4) . . .
42.4(34) . . .
44.5(35) . . .
47(4) . . .
46(4) . . .
49(4) . . .
41.8(34) . . .
48(4) . . .
44.6(35) . . .
47(4) . . .
48(4) . . .
36.5(32) . . .
52(4) . . .
53(4) . . .
53(4) . . .
46(4) . . .
52(4) . . .
40.7(34) . . .
48(4) . . .
43.9(34) . . .
49(4) . . .
33.9(30) . . .
45(4) . . .
42.1(35) . . .
37.6(32) . . .
48(4) . . .
55(4) . . .
50(4) . . .
45(4) . . .
63(4) . . .
52(4) . . .
38.6(32) . . .
51(4) . . .
54(4) . . .
46(4) . . .
45(4) . . .
49(4) . . .
48(4) . . .
48(4) . . .
41.6(35) . . .
44(4) . . .
47(4) . . .
50(4) . . .
48(4) . . .
46(4) . . .
38.4(35) . . .
40.7(35) . . .
47(4) . . .
40(4) . . .
48(4) . . .
47(4) . . .
48(4) . . .
43.2(35) . . .
46(4) . . .
39(4) . . .
37.4(33) . . .
44.9(35) . . .
43.7(35) . . .
45(4) . . .
44(4) . . .
48(4) . . .
49(4) . . .
39.3(33) . . .
46(4) . . .
51(4) . . .
48(4) . . .
50(4) . . .
54(4) . . .
46(4) . . .
39.6(34) . . .
48(4) . . .
55(4) . . .
44(4) . . .
45(4) . . .
49(4) . . .
45(4) . . .
49(4) . . .
42.0(33) . . .
45(4) . . .
54(4) . . .
43.2(35) . . .
44.7(35) . . .
45(4) . . .
42(4) . . .
43(4) . . .
50(4) . . .
46(4) . . .
50(4) . . .
49(4) . . .
43(4) . . .
44(4) . . .
47(4) . . .
46(4) . . .
37.6(33) . . .
48(4) . . .
46(4) . . .
53(4) . . .
42.2(35) . . .
53(4) . . .
51(4) . . .
38.8(32) . . .
45.5(35) . . .
40.8(34) . . .
51(4) . . .
48(4) . . .
40.5(33) . . .
49(4) . . .
51(4) . . .
51(4) . . .
49(4) . . .
53(4) . . .
44(4) . . .
44(4) . . .
47(4) . . .
41.7(35) . . .
50(4) . . .
51(4) . . .
41.2(33) . . .
50(4) . . .
46(4) . . .
56(4) . . .
48(4) . . .
44.3(34) . . .
40.6(34) . . .
48(4) . . .
49(4) . . .
51(4) . . .
49(4) . . .
52(4) . . .
47(4) . . .
49(4) . . .
50(4) . . .
37.9(33) . . .
49(4) . . .
41.5(34) . . .
52(4) . . .
46(4) . . .
58(4) . . .
50(4) . . .
40.8(35) . . .
55(4) . . .
47(4) . . .
51(4) . . .
51(4) . . .
54(4) . . .
48(4) . . .
44(4) . . .
44(4) . . .
51(4) . . .
46(4) . . .
40.2(33) . . .
47(4) . . .
50(4) . . .
44.6(34) . . .
45.3(35) . . .
65(4) . . .
51(4) . . .
51(4) . . .
54(4) . . .
48(4) . . .
45.0(35) . . .
43.1(34) . . .
44(4) . . .
50(4) . . .
51(4) . . .
46(4) . . .
40.7(34) . . .
54(4) . . .
45(4) . . .
43.0(34) . . .
49(4) . . .
58(4) . . .
43.2(35) . . .
43.3(35) . . .
52(4) . . .
39.2(32) . . .
54(4) . . .
55(4) . . .
44(4) . . .
47(4) . . .
44.1(35) . . .
54(4) . . .
43.2(34) . . .
49(4) . . .
42.7(34) . . .
50(4) . . .
54(4) . . .
62(4) . . .
48(4) . . .
39.6(33) . . .
48(4) . . .
46(4) . . .
42.8(35) . . .
52(4) . . .
56(4) . . .
49(4) . . .
48(4) . . .
37.3(31) . . .
39.8(33) . . .
44.2(34) . . .
45(4) . . .
55(4) . . .
53(4) . . .
49(4) . . .
53(4) . . .
54(4) . . .
61(5) . . .
43(4) . . .
45(4) . . .
60(4) . . .
43(4) . . .
43(4) . . .
50(4) . . .
49(4) . . .
43.4(35) . . .
46(4) . . .
38.6(33) . . .
43.5(35) . . .
42.9(34) . . .
41.2(33) . . .
47(4) . . .
46(4) . . .
44(4) . . .
51(4) . . .
52(4) . . .
54(4) . . .
54(4) . . .
48(4) . . .
46(4) . . .
47(4) . . .
45(4) . . .
42.5(34) . . .
42.4(35) . . .
49(4) . . .
48(4) . . .
46(4) . . .
44(4) . . .
45(4) . . .
37.6(32) . . .
46(4) . . .
50(4) . . .
45(4) . . .
51(4) . . .
58(4) . . .
43(4) . . .
49(4) . . .
47(4) . . .
44.8(35) . . .
41.1(33) . . .
37.9(34) . . .
49(4) . . .
45(4) . . .
46(4) . . .
50(4) . . .
42.3(33) . . .
47(4) . . .
38.5(34) . . .
45(4) . . .
50(4) . . .
44(4) . . .
44(4) . . .
43.7(35) . . .
49(4) . . .
40.6(33) . . .
44(4) . . .
55(4) . . .
41.9(35) . . .
42.3(34) . . .
54(4) . . .
50(4) . . .
45(4) . . .
47(4) . . .
37.7(33) . . .
49(4) . . .
49(4) . . .
42.3(34) . . .
49(4) . . .
42.1(33) . . .
58(4) . . .
42.7(35) . . .
55(4) . . .
52(4) . . .
42.6(34) . . .
42.8(34) . . .
46(4) . . .
43(4) . . .
38.7(34) . . .
40.7(33) . . .
49(4) . . .
58(4) . . .
53(4) . . .
49(4) . . .
50(4) . . .
49(4) . . .
47(4) . . .
56(4) . . .
52(4) . . .
48(4) . . .
38.4(33) . . .
54(4) . . .
47(4) . . .
36.5(31) . . .
41.5(34) . . .
37.2(32) . . .
47(4) . . .
49(4) . . .
48(4) . . .
42.9(34) . . .
50(4) . . .
48(4) . . .
37.5(33) . . .
47(4) . . .
47(4) . . .
47(4) . . .
51(4) . . .
52(4) . . .
45.3(35) . . .
55(4) . . .
47(4) . . .
63(4) . . .
49(4) . . .
44.3(35) . . .
44(4) . . .
46(4) . . .
49(4) . . .
43(4) . . .
42.7(34) . . .
46.5(35) . . .
48(4) . . .
38.1(33) . . .
41.5(35) . . .
41.9(34) . . .
41.6(34) . . .
51(4) . . .
43(4) . . .
43(4) . . .
40.4(33) . . .
49(4) . . .
47(4) . . .
48(4) . . .
50(4) . . .
46(4) . . .
48(4) . . .
46(4) . . .
46(4) . . .
55(4) . . .
46(4) . . .
50(4) . . .
44(4) . . .
47(4) . . .
43.3(34) . . .
50(4) . . .
40.9(34) . . .
42.7(35) . . .
53(4) . . .
51(4) . . .
48(4) . . .
37.7(32) . . .
37.8(35) . . .
45(4) . . .
46(4) . . .
46.1(35) . . .
48(4) . . .
46(4) . . .
47(4) . . .
45.5(34) . . .
54(4) . . .
49(4) . . .
47(4) . . .
43(4) . . .
44.3(35) . . .
36.8(31) . . .
44(4) . . .
49(4) . . .
46(4) . . .
46(4) . . .
59(4) . . .
44(4) . . .
49(4) . . .
44(4) . . .
38.3(32) . . .
50(4) . . .
52(4) . . .
41.3(35) . . .
42.3(35) . . .
38.5(33) . . .
49(4) . . .
43(4) . . .
46(4) . . .
46(4) . . .
48(4) . . .
45(4) . . .
52(4) . . .
43.3(34) . . .
37.6(32) . . .
38.8(32) . . .
43(4) . . .
46(4) . . .
49(4) . . .
44(4) . . .
41.7(34) . . .
43(4) . . .
48(4) . . .
39.8(34) . . .
56(4) . . .
45.1(35) . . .
48(4) . . .
45(4) . . .
52(4) . . .
53(4) . . .
40.4(34) . . .
42.6(35) . . .
46(4) . . .
44(4) . . .
40.3(33) . . .
53(4) . . .
51(4) . . .
51(4) . . .
49(4) . . .
43.2(35) . . .
37.6(32) . . .
41.6(35) . . .
51(4) . . .
53(4) . . .
48(4) . . .
46(4) . . .
48(4) . . .
48(4) . . .
49(4) . . .
36.7(32) . . .
49(4) . . .
42.5(35) . . .
41.3(35) . . .
45(4) . . .
46(4) . . .
46(4) . . .
45(4) . . .
44(4) . . .
47(4) . . .
55(4) . . .
45(4) . . .
41.8(33) . . .
48(4) . . .
54(4) . . .
50(4) . . .
38(4) . . .
44(4) . . .
41.5(33) . . .
44.7(35) . . .
38.9(32) . . .
37.9(33) . . .
45(4) . . .
44(4) . . .
47(4) . . .
39.9(33) . . .
42.3(34) . . .
49(4) . . .
44(4) . . .
43.6(35) . . .
53(4) . . .
49(4) . . .
47(4) . . .
46(4) . . .
43.3(34) . . .
43.6(34) . . .
57(4) . . .
43(4) . . .
40.6(35) . . .
34.1(30) . . .
36.6(32) . . .
48(4) . . .
52(4) . . .
50(4) . . .
46(4) . . .
50(4) . . .
49(4) . . .
43(4) . . .
47(4) . . .
45(4) . . .
46(4) . . .
54(4) . . .
52(4) . . .
48(4) . . .
54(4) . . .
45(4) . . .
40.0(33) . . .
44(4) . . .
50(4) . . .
40.8(33) . . .
37.8(32) . . .
45(4) . . .
43.2(35) . . .
54(4) . . .
47(4) . . .
44.1(35) . . .
48(4) . . .
41.3(35) . . .
48(4) . . .
42.1(35) . . .
41(4) . . .
43(4) . . .
45(4) . . .
43.3(35) . . .
46(4) . . .
49(4) . . .
44(4) . . .
54(4) . . .
44.3(34) . . .
52(4) . . .
39.0(34) . . .
39(4) . . .
55(4) . . .
46.0(35) . . .
48(4) . . .
43(4) . . .
42(4) . . .
52(4) . . .
46(4) . . .
41.9(34) . . .
42.3(35) . . .
40(4) . . .
40.1(34) . . .
46(4) . . .
44.9(34) . . .
53(4) . . .
47(4) . . .
58(4) . . .
38.5(32) . . .
41.8(34) . . .
52(4) . . .
45(4) . . .
57(4) . . .
36.7(31) . . .
40.7(34) . . .
50(4) . . .
49(4) . . .
38.8(33) . . .
41.0(33) . . .
35.6(34) . . .
37.9(34) . . .
49(4) . . .
48(4) . . .
41.9(33) . . .
55(4) . . .
49(4) . . .
54(4) . . .
45(4) . . .
47(4) . . .
51(4) . . .
55(4) . . .
51(4) . . .
52(4) . . .
53(4) . . .
49(4) . . .
49(4) . . .
57(4) . . .
45.7(34) . . .
44(4) . . .
52(4) . . .
42(4) . . .
47(4) . . .
43.5(34) . . .
50(4) . . .
52(4) . . .
53(4) . . .
35.6(31) . . .
43.6(34) . . .
49(4) . . .
54(4) . . .
50(4) . . .
42.0(34) . . .
50(4) . . .
46(4) . . .
37.6(32) . . .
51(4) . . .
50(4) . . .
39.9(32) . . .
44.4(35) . . .
42.2(34) . . .
54(4) . . .
50(4) . . .
44.4(35) . . .
40.2(34) . . .
39.2(33) . . .
41.0(33) . . .
42.1(35) . . .
48(4) . . .
46(4) . . .
51(4) . . .
57(4) . . .
47(4) . . .
48(4) . . .
44(4) . . .
41(4) . . .
39.3(34) . . .
41.0(34) . . .
43.3(34) . . .
42.7(35) . . .
46(4) . . .
53(4) . . .
40.4(33) . . .
46(4) . . .
44(4) . . .
52(4) . . .
51(4) . . .
49(4) . . .
43.1(34) . . .
44(4) . . .
41(4) . . .
46(4) . . .
43.1(35) . . .
46(4) . . .
49(4) . . .
52(4) . . .
50(4) . . .
56(4) . . .
48(4) . . .
49(4) . . .
49(4) . . .
46(4) . . .
44.2(34) . . .
39.2(34) . . .
47(4) . . .
53(4) . . .
46(4) . . .
50(4) . . .
48(4) . . .
53(4) . . .
50(4) . . .
52(4) . . .
44.6(35) . . .
54(4) . . .
48(4) . . .
46(4) . . .
46(4) . . .
46(4) . . .
53(4) . . .
42(4) . . .
48(4) . . .
46(4) . . .
38.3(32) . . .
49(4) . . .
39.3(33) . . .
45(4) . . .
53(4) . . .
39.3(33) . . .
45(4) . . .
35.6(32) . . .
40.8(34) . . .
49(4) . . .
33.6(30) . . .
44(4) . . .
47(4) . . .
49(4) . . .
48(4) . . .
41.0(34) . . .
50(4) . . .
59(4) . . .
47(4) . . .
48(4) . . .
44.6(35) . . .
41.8(34) . . .
58(4) . . .
61(4) . . .
54(4) . . .
53(4) . . .
52(4) . . .
41(4) . . .
44(4) . . .
38.4(32) . . .
39.9(34) . . .
46(4) . . .
46(4) . . .
41.8(35) . . .
48(4) . . .
49(4) . . .
46(4) . . .
56(4) . . .
46(4) . . .
47(4) . . .
49(4) . . .
39.9(33) . . .
45(4) . . .
44.2(35) . . .
42.4(34) . . .
49(4) . . .
46(4) . . .
39.6(33) . . .
38.0(32) . . .
43.6(34) . . .
44.4(35) . . .
44(4) . . .
53(4) . . .
45(4) . . .
49(4) . . .
47(4) . . .
37.9(34) . . .
40(4) . . .
47(4) . . .
50(4) . . .
47(4) . . .
45(4) . . .
45(4) . . .
48(4) . . .
57(4) . . .
54(4) . . .
44(4) . . .
56(4) . . .
54(4) . . .
47(4) . . .
54(4) . . .
49(4) . . .
47(4) . . .
44.4(35) . . .
48(4) . . .
46(4) . . .
48(4) . . .
38.7(34) . . .
40.1(32) . . .
43.2(35) . . .
44.6(35) . . .
46(4) . . .
43(4) . . .
47(4) . . .
39.3(33) . . .
50(4) . . .
51(4) . . .
50(4) . . .
48(4) . . .
47(4) . . .
45(4) . . .
57(4) . . .
49(4) . . .
48(4) . . .
41.0(34) . . .
43(4) . . .
42.0(35) . . .
50(4) . . .
50(4) . . .
56(4) . . .
54(4) . . .
45.3(35) . . .
55(4) . . .
43.0(34) . . .
39.4(33) . . .
48(4) . . .
44(4) . . .
46(4) . . .
57(4) . . .
57(4) . . .
46(4) . . .
53(4) . . .
44(4) . . .
47(4) . . .
37.9(34) . . .
42.6(35) . . .
43(4) . . .
47(4) . . .
58(4) . . .
50(4) . . .
38.9(35) . . .
43(4) . . .
44(4) . . .
45.0(35) . . .
43.2(34) . . .
43(4) . . .
42(4) . . .
48(4) . . .
53(4) . . .
55(4) . . .
43(4) . . .
46(4) . . .
44.7(35) . . .
38.9(33) . . .
46(4) . . .
52(4) . . .
45(4) . . .
50(4) . . .
39.8(33) . . .
46(4) . . .
45.3(35) . . .
49(4) . . .
46(4) . . .
44.2(34) . . .
51(4) . . .
42.1(34) . . .
48(4) . . .
47(4) . . .
45(4) . . .
48(4) . . .
41.8(34) . . .
48(4) . . .
44.5(34) . . .
44(4) . . .
41.4(34) . . .
39.6(33) . . .
45(4) . . .
48(4) . . .
49(4) . . .
46(4) . . .
38.0(32) . . .
40.6(34) . . .
44.3(35) . . .
44(4) . . .
51(4) . . .
41.8(34) . . .
39.7(33) . . .
53(4) . . .
37.8(32) . . .
47(4) . . .
42.2(35) . . .
36.8(31) . . .
41.2(34) . . .
42.5(34) . . .
60(4) . . .
56(4) . . .
49(4) . . .
40.9(33) . . .
36.7(32) . . .
45(4) . . .
44(4) . . .
42.4(34) . . .
42.0(34) . . .
38.8(34) . . .
48(4) . . .
41.5(34) . . .
50(4) . . .
49(4) . . .
49(4) . . .
54(4) . . .
45(4) . . .
51(4) . . .
43.3(34) . . .
45(4) . . .
47(4) . . .
42(4) . . .
44.1(35) . . .
38.3(33) . . .
46(4) . . .
50(4) . . .
46(4) . . .
35.1(31) . . .
40.2(34) . . .
50(4) . . .
40.0(32) . . .
49(4) . . .
41.0(34) . . .
44(4) . . .
47(4) . . .
48(4) . . .
48(4) . . .
50(4) . . .
45(4) . . .
49(4) . . .
42.3(34) . . .
45(4) . . .
53(4) . . .
51(4) . . .
44(4) . . .
44(4) . . .
50(4) . . .
46(4) . . .
49(4) . . .
60(4) . . .
43.6(34) . . .
61(4) . . .
49(4) . . .
45(4) . . .
51(4) . . .
49(4) . . .
43.9(34) . . .
50(4) . . .
43(4) . . .
38.0(34) . . .
46(4) . . .
52(4) . . .
52(4) . . .
49(4) . . .
44(4) . . .
44(4) . . .
54(4) . . .
48(4) . . .
44(4) . . .
56(4) . . .
47(4) . . .
48(4) . . .
43.5(34) . . .
44(4) . . .
46(4) . . .
48(4) . . .
40.0(33) . . .
44(4) . . .
43(4) . . .
47(4) . . .
38.6(32) . . .
51(4) . . .
37.4(32) . . .
43(4) . . .
48(4) . . .
35.6(31) . . .
48(4) . . .
57(4) . . .
43(4) . . .
44.5(35) . . .
51(4) . . .
39.9(33) . . .
54(4) . . .
46(4) . . .
46(4) . . .
40.5(33) . . .
47(4) . . .
41.6(34) . . .
53(4) . . .
51(4) . . .
48(4) . . .
48(4) . . .
43.8(35) . . .
47(4) . . .
47(4) . . .
40.2(33) . . .
46(4) . . .
53(4) . . .
42(4) . . .
59(4) . . .
44.0(35) . . .
41.7(33) . . .
46(4) . . .
42(4) . . .
48(4) . . .
51(4) . . .
48(4) . . .
41.4(34) . . .
42(4) . . .
44(4) . . .
45(4) . . .
54(4) . . .
51(4) . . .
55(4) . . .
48(4) . . .
53(4) . . .
52(4) . . .
47(4) . . .
38.9(33) . . .
48(4) . . .
47(4) . . .
44(4) . . .
42.6(34) . . .
46(4) . . .
53(4) . . .
46.4(35) . . .
50(4) . . .
52(4) . . .
49(4) . . .
45.2(35) . . .
41.7(34) . . .
37.4(34) . . .
51(4) . . .
52(4) . . .
51(4) . . .
49(4) . . .
48(4) . . .
45(4) . . .
46(4) . . .
46.5(35) . . .
43.2(35) . . .
45(4) . . .
48(4) . . .
40.4(35) . . .
43.8(34) . . .
46.0(35) . . .
47(4) . . .
44(4) . . .
47(4) . . .
45.9(35) . . .
44.1(34) . . .
50(4) . . .
45(4) . . .
42.0(35) . . .
43.9(35) . . .
42.5(34) . . .
43.0(34) . . .
47(4) . . .
48(4) . . .
38.5(32) . . .
56(4) . . .
46(4) . . .
39(4) . . .
45(4) . . .
58(4) . . .
44(4) . . .
40.1(35) . . .
43(4) . . .
35.6(34) . . .
49(4) . . .
45(4) . . .
51(4) . . .
46.3(35) . . .
47(4) . . .
51(4) . . .
54(4) . . .
48(4) . . .
42.6(34) . . .
54(4) . . .
54(4) . . .
46(4) . . .
49(4) . . .
40.7(34) . . .
44(4) . . .
42.3(33) . . .
39.8(34) . . .
50(4) . . .
49(4) . . .
49(4) . . .
50(4) . . .
46(4) . . .
53(4) . . .
50(4) . . .
52(4) . . .
49(4) . . .
47(4) . . .
46(4) . . .
58(4) . . .
35.9(31) . . .
37.5(32) . . .
48(4) . . .
48(4) . . .
47(4) . . .
48(4) . . .
45.3(34) . . .
42.1(34) . . .
49(4) . . .
45(4) . . .
52(4) . . .
51(4) . . .
46(4) . . .
40(4) . . .
35.8(31) . . .
43.8(35) . . .
41.6(34) . . .
51(4) . . .
56(4) . . .
52(4) . . .
48(4) . . .
35.9(31) . . .
46(4) . . .
45(4) . . .
48(4) . . .
42.1(34) . . .
43(4) . . .
52(4) . . .
59(4) . . .
37.8(32) . . .
40.7(34) . . .
48(4) . . .
53(4) . . .
53(4) . . .
49(4) . . .
43.9(35) . . .
54(4) . . .
43(4) . . .
35.7(35) . . .
52(4) . . .
42.5(34) . . .
43.6(35) . . .
47(4) . . .
39.4(34) . . .
34.2(31) . . .
37.3(32) . . .
36.1(30) . . .
37.9(33) . . .
50(4) . . .
47(4) . . .
56(4) . . .
47(4) . . .
46(4) . . .
53(4) . . .
43.9(35) . . .
53(4) . . .
38.2(33) . . .
49(4) . . .
41.0(35) . . .
49(4) . . .
51(4) . . .
46(4) . . .
50(4) . . .
50(4) . . .
51(4) . . .
44(4) . . .
49(4) . . .
43(4) . . .
44(4) . . .
50(4) . . .
53(4) . . .
44(4) . . .
47(4) . . .
36.9(32) . . .
53(4) . . .
50(4) . . .
44(4) . . .
44(4) . . .
42.1(34) . . .
46(4) . . .
39.8(34) . . .
41(4) . . .
54(4) . . .
55(4) . . .
53(4) . . .
55(4) . . .
47(4) . . .
48(4) . . .
45.3(34) . . .
43.2(34) . . .
37.8(34) . . .
36.1(34) . . .
42.5(35) . . .
47(4) . . .
41.6(34) . . .
56(4) . . .
49(4) . . .
53(4) . . .
52(4) . . .
48(4) . . .
43.1(35) . . .
41(4) . . .
38.0(33) . . .
45(4) . . .
46(4) . . .
51(4) . . .
46(4) . . .
45(4) . . .
44.5(34) . . .
38.8(32) . . .
50(4) . . .
42(4) . . .
37.9(34) . . .
55(4) . . .
52(4) . . .
49(4) . . .
44(4) . . .
39.3(33) . . .
48(4) . . .
46(4) . . .
45(4) . . .
41.8(34) . . .
40.8(33) . . .
45.0(35) . . .
48(4) . . .
45(4) . . .
51(4) . . .
51(4) . . .
45(4) . . .
38.0(33) . . .
39.8(34) . . .
50(4) . . .
47(4) . . .
43.2(35) . . .
50(4) . . .
47(4) . . .
53(4) . . .
51(4) . . .
41.4(33) . . .
54(4) . . .
50(4) . . .
41.9(34) . . .
48(4) . . .
43.6(35) . . .
53(4) . . .
38.9(34) . . .
48(4) . . .
55(4) . . .
47(4) . . .
40.3(34) . . .
46(4) . . .
55(4) . . .
53(4) . . .
46.4(35) . . .
46(4) . . .
50(4) . . .
49(4) . . .
50(4) . . .
46(4) . . .
39.4(35) . . .
47(4) . . .
52(4) . . .
50(4) . . .
51(4) . . .
38.8(34) . . .
46(4) . . .
45(4) . . .
50(4) . . .
51(4) . . .
39.7(32) . . .
45(4) . . .
45(4) . . .
44.8(35) . . .
44(4) . . .
45(4) . . .
39.7(34) . . .
50(4) . . .
43.8(34) . . .
46(4) . . .
36.5(32) . . .
37.2(32) . . .
39.1(32) . . .
52(4) . . .
49(4) . . .
44(4) . . .
39.8(33) . . .
54(4) . . .
48(4) . . .
46(4) . . .
41.4(34) . . .
46(4) . . .
50(4) . . .
51(4) . . .
53(4) . . .
46(4) . . .
50(4) . . .
48(4) . . .
40.2(33) . . .
50(4) . . .
39.5(35) . . .
41.3(35) . . .
43.9(34) . . .
40.8(33) . . .
38.5(32) . . .
50(4) . . .
42.0(34) . . .
39.2(33) . . .
38.1(32) . . .
44(4) . . .
40(4) . . .
47(4) . . .
52(4) . . .
43.3(35) . . .
39.0(34) . . .
38.7(35) . . .
41(4) . . .
56(4) . . .
42.8(35) . . .
56(4) . . .
43(4) . . .
46(4) . . .
37.4(32) . . .
42.5(35) . . .
55(4) . . .
40.3(34) . . .
42.5(34) . . .
48(4) . . .
46(4) . . .
51(4) . . .
39.0(33) . . .
41.4(33) . . .
50(4) . . .
48(4) . . .
39.6(33) . . .
47(4) . . .
52(4) . . .
44.3(34) . . .
46(4) . . .
47(4) . . .
44(4) . . .
40(4) . . .
48(4) . . .
43(4) . . .
46(4) . . .
47(4) . . .
49(4) . . .
60(4) . . .
46(4) . . .
40.8(35) . . .
44.2(34) . . .
41.9(34) . . .
46(4) . . .
42.5(34) . . .
40.7(34) . . .
50(4) . . .
53(4) . . .
54(4) . . .
47(4) . . .
45(4) . . .
41.0(34) . . .
46(4) . . .
44(4) . . .
45(4) . . .
40.8(34) . . .
52(4) . . .
51(4) . . .
47(4) . . .
38.6(34) . . .
45(4) . . .
51(4) . . .
38.5(33) . . .
49(4) . . .
40.4(34) . . .
45(4) . . .
41.9(34) . . .
53(4) . . .
49(4) . . .
46(4) . . .
50(4) . . .
48(4) . . .
38.9(32) . . .
42(4) . . .
41.6(33) . . .
43.0(35) . . .
36.7(32) . . .
45.7(35) . . .
50(4) . . .
43(4) . . .
42(4) . . .
44.9(35) . . .
42.2(34) . . .
50(4) . . .
48(4) . . .
54(4) . . .
58(4) . . .
51(4) . . .
43.6(35) . . .
50(4) . . .
50(4) . . .
40.5(32) . . .
38.0(34) . . .
42(4) . . .
48(4) . . .
45(4) . . .
50(4) . . .
49(4) . . .
38.6(33) . . .
46(4) . . .
45(4) . . .
42.9(34) . . .
44(4) . . .
45(4) . . .
46(4) . . .
48(4) . . .
53(4) . . .
40.3(33) . . .
48(4) . . .
43(4) . . .
40.7(35) . . .
47(4) . . .
50(4) . . .
52(4) . . .
46(4) . . .
40.3(33) . . .
39.6(33) . . .
47(4) . . .
42(4) . . .
48(4) . . .
54(4) . . .
38.2(33) . . .
53(4) . . .
48(4) . . .
49(4) . . .
41.6(34) . . .
52(4) . . .
56(4) . . .
41.8(35) . . .
42(4) . . .
46(4) . . .
45.3(35) . . .
48(4) . . .
47(4) . . .
56(4) . . .
52(4) . . .
51(4) . . .
36.8(32) . . .
42(4) . . .
39.1(33) . . .
47(4) . . .
40.0(33) . . .
44(4) . . .
48(4) . . .
46(4) . . .
43.8(34) . . .
46.5(35) . . .
39.3(33) . . .
47(4) . . .
47(4) . . .
40.9(33) . . .
43.5(34) . . .
47(4) . . .
45(4) . . .
44(4) . . .
51(4) . . .
47(4) . . .
48(4) . . .
53(4) . . .
37.3(33) . . .
59(4) . . .
47(4) . . .
36.6(30) . . .
52(4) . . .
38.9(33) . . .
46(4) . . .
49(4) . . .
39.2(32) . . .
49(4) . . .
43(4) . . .
45(4) . . .
44(4) . . .
44(4) . . .
37.7(32) . . .
45(4) . . .
42.1(34) . . .
41.3(34) . . .
38.9(35) . . .
39.4(34) . . .
47(4) . . .
47(4) . . .
43(4) . . .
51(4) . . .
46(4) . . .
48(4) . . .
52(4) . . .
53(4) . . .
59(4) . . .
56(4) . . .
42.2(34) . . .
43.8(34) . . .
50(4) . . .
44(4) . . .
39(4) . . .
44.3(35) . . .
42(4) . . .
42.2(34) . . .
42.8(35) . . .
46(4) . . .
45.5(35) . . .
50(4) . . .
41.3(34) . . .
49(4) . . .
46(4) . . .
45.6(35) . . .
50(4) . . .
38.9(32) . . .
49(4) . . .
57(4) . . .
42.1(34) . . .
41.6(34) . . .
44(4) . . .
48(4) . . .
41(4) . . .
43.8(35) . . .
39.4(34) . . .
53(4) . . .
46(4) . . .
46(4) . . .
50(4) . . .
41.4(35) . . .
41.9(34) . . .
41.5(34) . . .
43.8(34) . . .
46(4) . . .
52(4) . . .
44(4) . . .
47(4) . . .
49(4) . . .
43.5(35) . . .
44(4) . . .
50(4) . . .
48(4) . . .
48(4) . . .
43.1(35) . . .
41.0(33) . . .
44(4) . . .
44(4) . . .
41.9(33) . . .
49(4) . . .
45(4) . . .
45(4) . . .
58(4) . . .
47(4) . . .
47(4) . . .
38.8(32) . . .
52(4) . . .
45(4) . . .
48(4) . . .
48(4) . . .
47(4) . . .
50(4) . . .
46(4) . . .
44.4(35) . . .
51(4) . . .
41.9(35) . . .
47(4) . . .
53(4) . . .
40.5(33) . . .
42(4) . . .
43(4) . . .
53(4) . . .
44.1(35) . . .
43.9(35) . . .
51(4) . . .
39.5(34) . . .
41.0(35) . . .
38.4(33) . . .
42.1(34) . . .
44.8(35) . . .
48(4) . . .
56(4) . . .
50(4) . . .
43.3(34) . . .
42.7(35) . . .
59(5) . . .
43(4) . . .
46(4) . . .
35.8(31) . . .
49(4) . . .
55(4) . . .
47(4) . . .
48(4) . . .
52(4) . . .
47(4) . . .
46(4) . . .
52(4) . . .
47(4) . . .
37.6(34) . . .
40.2(35) . . .
50(4) . . .
48(4) . . .
53(4) . . .
42.6(34) . . .
55(4) . . .
49(4) . . .
42.8(35) . . .
43.2(34) . . .
47(4) . . .
45(4) . . .
54(4) . . .
43(4) . . .
45.2(35) . . .
38.3(33) . . .
39.9(33) . . .
51(4) . . .
54(4) . . .
48(4) . . .
37.8(34) . . .
40.0(34) . . .
42.1(32) . . .
56(4) . . .
35.6(31) . . .
53(4) . . .
53(4) . . .
47(4) . . .
44.6(35) . . .
49(4) . . .
52(4) . . .
55(4) . . .
43.7(34) . . .
51(4) . . .
55(4) . . .
40(4) . . .
41(4) . . .
36.0(33) . . .
47(4) . . .
52(4) . . .
55(4) . . .
45(4) . . .
49(4) . . .
45(4) . . .
49(4) . . .
37.8(34) . . .
39.3(33) . . .
41.7(34) . . .
49(4) . . .
47(4) . . .
51(4) . . .
51(4) . . .
62(4) . . .
48(4) . . .
52(4) . . .
51(4) . . .
38.9(35) . . .
46(4) . . .
51(4) . . .
47(4) . . .
48(4) . . .
51(4) . . .
44(4) . . .
51(4) . . .
45(4) . . .
55(4) . . .
47(4) . . .
43.0(34) . . .
38.3(32) . . .
49(4) . . .
42(4) . . .
47(4) . . .
45(4) . . .
39.1(33) . . .
57(4) . . .
51(4) . . .
45(4) . . .
44(4) . . .
44.2(34) . . .
42(4) . . .
59(4) . . .
56(4) . . .
57(4) . . .
50(4) . . .
49(4) . . .
50(4) . . .
44.1(35) . . .
51(4) . . .
38.9(32) . . .
50(4) . . .
44(4) . . .
42.0(34) . . .
40.4(34) . . .
41.7(34) . . .
43(4) . . .
50(4) . . .
40.2(35) . . .
38.2(33) . . .
36.8(31) . . .
40.3(34) . . .
42.5(35) . . .
47(4) . . .
57(4) . . .
41.6(33) . . .
45(4) . . .
48(4) . . .
40.3(33) . . .
46(4) . . .
46(4) . . .
46(4) . . .
52(4) . . .
45(4) . . .
45.6(35) . . .
44(4) . . .
50(4) . . .
52(4) . . .
44(4) . . .
51(4) . . .
44.9(35) . . .
49(4) . . .
50(4) . . .
48(4) . . .
48(4) . . .
37.3(32) . . .
49(4) . . .
49(4) . . .
47(4) . . .
49(4) . . .
44.4(35) . . .
54(4) . . .
43(4) . . .
42.3(34) . . .
50(4) . . .
52(4) . . .
48(4) . . .
38.9(35) . . .
43(4) . . .
36.6(32) . . .
37.9(34) . . .
46(4) . . .
36.6(32) . . .
44.5(35) . . .
45(4) . . .
39.0(32) . . .
52(4) . . .
39.0(34) . . .
53(4) . . .
46.0(35) . . .
34.7(31) . . .
36.9(34) . . .
42.6(35) . . .
48(4) . . .
49(4) . . .
50(4) . . .
39.6(35) . . .
39.3(33) . . .
41.8(33) . . .
44.5(35) . . .
55(4) . . .
53(4) . . .
49(4) . . .
43.4(34) . . .
53(4) . . .
46(4) . . .
51(4) . . .
50(4) . . .
49(4) . . .
44.4(35) . . .
46(4) . . .
48(4) . . .
48(4) . . .
47(4) . . .
37.0(32) . . .
50(4) . . .
48(4) . . .
52(4) . . .
56(4) . . .
48(4) . . .
41(4) . . .
48(4) . . .
42.0(34) . . .
46(4) . . .
41.1(34) . . .
46(4) . . .
45(4) . . .
43(4) . . .
50(4) . . .
42(4) . . .
40.4(35) . . .
48(4) . . .
48(4) . . .
46.2(35) . . .
57(4) . . .
54(4) . . .
45(4) . . .
41.7(34) . . .
41.1(33) . . .
51(4) . . .
40.9(34) . . .
49(4) . . .
41.7(35) . . .
50(4) . . .
42.6(35) . . .
51(4) . . .
39.5(33) . . .
47(4) . . .
36.2(32) . . .
50(4) . . .
48(4) . . .
59(4) . . .
43.1(34) . . .
45.3(35) . . .
56(4) . . .
39.8(35) . . .
41.0(34) . . .
46(4) . . .
47(4) . . .
45(4) . . .
49(4) . . .
50(4) . . .
43.7(34) . . .
42.7(35) . . .
48(4) . . .
43.0(34) . . .
60(4) . . .
43.9(35) . . .
44(4) . . .
45(4) . . .
50(4) . . .
49(4) . . .
43.7(35) . . .
45(4) . . .
48(4) . . .
48(4) . . .
47(4) . . .
51(4) . . .
37.4(33) . . .
43(4) . . .
51(4) . . .
49(4) . . .
41.7(33) . . .
41(4) . . .
47(4) . . .
51(4) . . .
51(4) . . .
40.8(33) . . .
46(4) . . .
40.2(34) . . .
42.0(34) . . .
44.7(34) . . .
44.1(34) . . .
45(4) . . .
53(4) . . .
42.1(34) . . .
53(4) . . .
49(4) . . .
44(4) . . .
54(4) . . .
52(4) . . .
44.8(34) . . .
46(4) . . .
42.9(35) . . .
43.3(34) . . .
50(4) . . .
48(4) . . .
46(4) . . .
42.5(34) . . .
48(4) . . .
45(4) . . .
45(4) . . .
44(4) . . .
47(4) . . .
46(4) . . .
50(4) . . .
42.4(34) . . .
47(4) . . .
50(4) . . .
48(4) . . .
45(4) . . .
49(4) . . .
42.5(35) . . .
36.9(32) . . .
51(4) . . .
50(4) . . .
47(4) . . .
50(4) . . .
53(4) . . .
48(4) . . .
43.8(35) . . .
52(4) . . .
40.3(35) . . .
44(4) . . .
39.7(33) . . .
52(4) . . .
51(4) . . .
52(4) . . .
49(4) . . .
42(4) . . .
42.2(34) . . .
52(4) . . .
43.3(35) . . .
38.8(33) . . .
42(4) . . .
46(4) . . .
44.1(34) . . .
49(4) . . .
50(4) . . .
45(4) . . .
41.3(33) . . .
46(4) . . .
48(4) . . .
42.8(35) . . .
50(4) . . .
35.2(31) . . .
29.4(28) . . .
46(4) . . .
47(4) . . .
45(4) . . .
43.3(35) . . .
56(4) . . .
50(4) . . .
58(4) . . .
48(4) . . .
41.8(34) . . .
43.4(34) . . .
48(4) . . .
42(4) . . .
42(4) . . .
52(4) . . .
38.0(33) . . .
44(4) . . .
42.0(34) . . .
35.4(33) . . .
48(4) . . .
50(4) . . .
44(4) . . .
40.8(34) . . .
51(4) . . .
44.8(35) . . .
52(4) . . .
42.0(34) . . .
48(4) . . .
48(4) . . .
52(4) . . .
49(4) . . .
43(4) . . .
42.4(35) . . .
44.0(34) . . .
41.4(33) . . .
55(4) . . .
50(4) . . .
35.0(32) . . .
50(4) . . .
40.6(33) . . .
39.0(34) . . .
39.6(35) . . .
42.4(34) . . .
40.4(33) . . .
46(4) . . .
48(4) . . .
55(4) . . .
56(4) . . .
47(4) . . .
47(4) . . .
50(4) . . .
52(4) . . .
40.5(34) . . .
47(4) . . .
42(4) . . .
41.0(34) . . .
47(4) . . .
44.6(35) . . .
33.3(30) . . .
45(4) . . .
42(4) . . .
53(4) . . .
49(4) . . .
55(4) . . .
52(4) . . .
43.7(35) . . .
48(4) . . .
45(4) . . .
40.4(34) . . .
43.7(35) . . .
48(4) . . .
39.7(33) . . .
40.2(34) . . .
39.2(32) . . .
34.7(31) . . .
45(4) . . .
39.2(34) . . .
45(4) . . .
47(4) . . .
34.6(31) . . .
42(4) . . .
45(4) . . .
41.0(34) . . .
41.8(34) . . .
45(4) . . .
52(4) . . .
46(4) . . .
42.2(34) . . .
53(4) . . .
44(4) . . .
39.3(35) . . .
47(4) . . .
45(4) . . .
38.9(32) . . .
44(4) . . .
49(4) . . .
49(4) . . .
48(4) . . .
43.9(34) . . .
47(4) . . .
38.8(34) . . .
53(4) . . .
53(4) . . .
40.2(33) . . .
42(4) . . .
52(4) . . .
44(4) . . .
40.0(33) . . .
50(4) . . .
43.3(34) . . .
50(4) . . .
42.0(34) . . .
58(4) . . .
39.1(34) . . .
40.2(34) . . .
52(4) . . .
43(4) . . .
48(4) . . .
42.3(34) . . .
40(4) . . .
41(4) . . .
51(4) . . .
54(4) . . .
47(4) . . .
36.8(32) . . .
45(4) . . .
54(4) . . .
52(4) . . .
35.5(32) . . .
57(4) . . .
53(4) . . .
46(4) . . .
48(4) . . .
49(4) . . .
37.3(31) . . .
50(4) . . .
47(4) . . .
48(4) . . .
42.4(35) . . .
46(4) . . .
51(4) . . .
45(4) . . .
45.1(35) . . .
48(4) . . .
47(4) . . .
41.8(35) . . .
45.0(35) . . .
47(4) . . .
44(4) . . .
49(4) . . .
47(4) . . .
46(4) . . .
40.8(33) . . .
40.2(34) . . .
49(4) . . .
46(4) . . .
42.9(34) . . .
48(4) . . .
44(4) . . .
41(4) . . .
47(4) . . .
43.0(34) . . .
49(4) . . .
46(4) . . .
55(4) . . .
47(4) . . .
45.3(35) . . .
51(4) . . .
46(4) . . .
48(4) . . .
47(4) . . .
38.7(33) . . .
53(4) . . .
51(4) . . .
38.3(33) . . .
38.7(34) . . .
39.9(33) . . .
43(4) . . .
54(4) . . .
54(4) . . .
48(4) . . .
47(4) . . .
45(4) . . .
43(4) . . .
43(4) . . .
43.9(35) . . .
46(4) . . .
49(4) . . .
45(4) . . .
39(4) . . .
38.2(31) . . .
44.8(35) . . .
43.5(35) . . .
56(4) . . .
46(4) . . .
46(4) . . .
39.9(32) . . .
49(4) . . .
39.4(33) . . .
44.3(35) . . .
40.7(33) . . .
43.8(34) . . .
63(4) . . .
45(4) . . .
42.3(34) . . .
43.9(34) . . .
49(4) . . .
40.6(34) . . .
48(4) . . .
48(4) . . .
37.8(33) . . .
54(4) . . .
47(4) . . .
48(4) . . .
51(4) . . .
40.7(33) . . .
56(4) . . .
43.1(34) . . .
45(4) . . .
41.0(34) . . .
51(4) . . .
44.2(35) . . .
49(4) . . .
48(4) . . .
52(4) . . .
42.7(35) . . .
46(4) . . .
42(4) . . .
37.0(31) . . .
44.6(35) . . .
46(4) . . .
53(4) . . .
48(4) . . .
38.8(33) . . .
42.6(34) . . .
41.9(34) . . .
44(4) . . .
50(4) . . .
46(4) . . .
46(4) . . .
36.7(31) . . .
45(4) . . .
49(4) . . .
42.3(34) . . .
50(4) . . .
45.2(34) . . .
48(4) . . .
47(4) . . .
43(4) . . .
47(4) . . .
47(4) . . .
49(4) . . .
38.1(32) . . .
42.7(34) . . .
40.6(33) . . .
45(4) . . .
44.0(33) . . .
54(4) . . .
38.2(33) . . .
42.5(34) . . .
48(4) . . .
50(4) . . .
50(4) . . .
33.1(32) . . .
44.8(35) . . .
47(4) . . .
46(4) . . .
40.0(33) . . .
44(4) . . .
36.3(32) . . .
48(4) . . .
49(4) . . .
37.6(34) . . .
48(4) . . .
53(4) . . .
56(4) . . .
49(4) . . .
39.9(34) . . .
49(4) . . .
47.0(35) . . .
38.8(33) . . .
41(4) . . .
48(4) . . .
48(4) . . .
52(4) . . .
47(4) . . .
52(4) . . .
47(4) . . .
53(4) . . .
39.5(33) . . .
48(4) . . .
33.0(30) . . .
49(4) . . .
42.2(34) . . .
49(4) . . .
42(4) . . .
44(4) . . .
53(4) . . .
53(4) . . .
47(4) . . .
48(4) . . .
48(4) . . .
45(4) . . .
48(4) . . .
54(4) . . .
56(4) . . .
52(4) . . .
49(4) . . .
46(4) . . .
50(4) . . .
52(4) . . .
53(4) . . .
52(4) . . .
45.3(35) . . .
49(4) . . .
46(4) . . .
46(4) . . .
52(4) . . .
37.5(33) . . .
46(4) . . .
49(4) . . .
49(4) . . .
48(4) . . .
53(4) . . .
36.3(32) . . .
38.2(33) . . .
43.1(35) . . .
48(4) . . .
52(4) . . .
37.3(33) . . .
53(4) . . .
41.0(33) . . .
52(4) . . .
47(4) . . .
49(4) . . .
44(4) . . .
46(4) . . .
47(4) . . .
47(4) . . .
46(4) . . .
43(4) . . .
39(4) . . .
45(4) . . .
42.4(34) . . .
40.7(33) . . .
40(4) . . .
41.4(35) . . .
39.5(33) . . .
47(4) . . .
47(4) . . .
41.3(34) . . .
40.6(35) . . .
34.6(30) . . .
36.4(31) . . .
43.3(35) . . .
47(4) . . .
39.0(33) . . .
48(4) . . .
49(4) . . .
44(4) . . .
48(4) . . .
55(4) . . .
54(4) . . .
49(4) . . .
45(4) . . .
51(4) . . .
53(4) . . .
39.6(33) . . .
54(4) . . .
49(4) . . .
40.3(34) . . .
53(4) . . .
50(4) . . .
44(4) . . .
45(4) . . .
45(4) . . .
48(4) . . .
45.6(35) . . .
45(4) . . .
51(4) . . .
55(4) . . .
46(4) . . .
44.9(35) . . .
43(4) . . .
52(4) . . .
52(4) . . .
39.5(34) . . .
50(4) . . .
50(4) . . .
50(4) . . .
42.4(34) . . .
35.4(31) . . .
46(4) . . .
48(4) . . .
42(4) . . .
41.2(34) . . .
42.3(34) . . .
41.9(35) . . .
37.2(33) . . .
36.2(34) . . .
52(4) . . .
43.8(34) . . .
37.1(32) . . .
40.9(34) . . .
43(4) . . .
46(4) . . .
41.1(34) . . .
31.7(30) . . .
40.4(33) . . .
51(4) . . .
42.4(34) . . .
48(4) . . .
49(4) . . .
42(4) . . .
51(4) . . .
40.6(35) . . .
40.4(33) . . .
46(4) . . .
39.0(34) . . .
51(4) . . .
55(4) . . .
46(4) . . .
42.5(35) . . .
45(4) . . .
43(4) . . .
45.9(35) . . .
47(4) . . .
44(4) . . .
40.7(35) . . .
45(4) . . .
43.1(34) . . .
40.5(33) . . .
33.2(30) . . .
41.5(35) . . .
39.3(33) . . .
37.9(31) . . .
47(4) . . .
50(4) . . .
50(4) . . .
42.7(35) . . .
44.0(34) . . .
49(4) . . .
44.5(34) . . .
42.4(35) . . .
49(4) . . .
53(4) . . .
47(4) . . .
45(4) . . .
45(4) . . .
38.5(34) . . .
39.3(33) . . .
38.3(32) . . .
50(4) . . .
48(4) . . .
50(4) . . .
42.2(34) . . .
50(4) . . .
41.0(34) . . .
47(4) . . .
51(4) . . .
49(4) . . .
58(4) . . .
48(4) . . .
47(4) . . .
44.2(34) . . .
43.9(34) . . .
54(4) . . .
52(4) . . .
47(4) . . .
48(4) . . .
45.1(35) . . .
43(4) . . .
40.4(35) . . .
42(4) . . .
51(4) . . .
46.0(34) . . .
45(4) . . .
48(4) . . .
51(4) . . .
43.1(34) . . .
40.8(33) . . .
46(4) . . .
54(4) . . .
41(4) . . .
55(4) . . .
45(4) . . .
45(4) . . .
41.9(34) . . .
42.2(34) . . .
50(4) . . .
44.8(35) . . .
40.5(35) . . .
39.8(35) . . .
45.1(35) . . .
50(4) . . .
45.7(35) . . .
41(4) . . .
49(4) . . .
46(4) . . .
49(4) . . .
57(4) . . .
48(4) . . .
40.8(34) . . .
52(4) . . .
38.0(32) . . .
34.2(32) . . .
47(4) . . .
44(4) . . .
45(4) . . .
42.8(35) . . .
51(4) . . .
43.3(33) . . .
43.2(35) . . .
54(4) . . .
47(4) . . .
43.2(34) . . .
41.3(34) . . .
42.0(34) . . .
41.6(34) . . .
41.3(33) . . .
45.5(35) . . .
45(4) . . .
51(4) . . .
51(4) . . .
33.8(31) . . .
46(4) . . .
42(4) . . .
41.0(35) . . .
44(4) . . .
48(4) . . .
41.1(35) . . .
55(4) . . .
53(4) . . .
51(4) . . .
48(4) . . .
49(4) . . .
41(4) . . .
41.6(34) . . .
54(4) . . .
44.5(35) . . .
47(4) . . .
42(4) . . .
48(4) . . .
52(4) . . .
50(4) . . .
52(4) . . .
42(4) . . .
36.9(34) . . .
41.3(34) . . .
47(4) . . .
40.1(32) . . .
46(4) . . .
58(4) . . .
41.5(34) . . .
38.9(32) . . .
43(4) . . .
49(4) . . .
47(4) . . .
47(4) . . .
48(4) . . .
42.3(35) . . .
43(4) . . .
40.3(35) . . .
49(4) . . .
50(4) . . .
48(4) . . .
44(4) . . .
46(4) . . .
48(4) . . .
39.0(33) . . .
46(4) . . .
42(4) . . .
38.3(33) . . .
41.8(34) . . .
49(4) . . .
43(4) . . .
41.6(35) . . .
53(4) . . .
56(4) . . .
42(4) . . .
42(4) . . .
49(4) . . .
54(4) . . .
51(4) . . .
41.0(34) . . .
59(4) . . .
42.5(35) . . .
43.8(35) . . .
42.7(35) . . .
50(4) . . .
36.8(33) . . .
45(4) . . .
42.6(34) . . .
32.8(29) . . .
40.4(34) . . .
51(4) . . .
46(4) . . .
42.5(34) . . .
41.7(33) . . .
46(4) . . .
42(4) . . .
39.7(33) . . .
39.9(34) . . .
42.9(34) . . .
45(4) . . .
39.0(34) . . .
45(4) . . .
42.1(34) . . .
49(4) . . .
41.1(33) . . .
47(4) . . .
47(4) . . .
47(4) . . .
46(4) . . .
45(4) . . .
54(4) . . .
51(4) . . .
50(4) . . .
37.0(31) . . .
57(4) . . .
54(4) . . .
53(4) . . .
37.3(32) . . .
53(4) . . .
47(4) . . .
50(4) . . .
42.9(34) . . .
43.7(34) . . .
38.8(35) . . .
40(4) . . .
42(4) . . .
49(4) . . .
41.2(34) . . .
43(4) . . .
43(4) . . .
40.9(34) . . .
43.0(34) . . .
50(4) . . .
39.2(33) . . .
43(4) . . .
42.4(35) . . .
49(4) . . .
44.6(34) . . .
49(4) . . .
44(4) . . .
44(4) . . .
35.3(31) . . .
50(4) . . .
45(4) . . .
42(4) . . .
43(4) . . .
46(4) . . .
45(4) . . .
49(4) . . .
40.7(33) . . .
47(4) . . .
47(4) . . .
45(4) . . .
31.2(29) . . .
47(4) . . .
40.8(33) . . .
47(4) . . .
49(4) . . .
45(4) . . .
44(4) . . .
37.4(33) . . .
39.8(33) . . .
46(4) . . .
33.6(31) . . .
48(4) . . .
41.2(34) . . .
47(4) . . .
46(4) . . .
48(4) . . .
45(4) . . .
51(4) . . .
48(4) . . .
57(4) . . .
45(4) . . .
41.6(35) . . .
42.0(35) . . .
46.0(35) . . .
39.4(33) . . .
48(4) . . .
39.0(34) . . .
42(4) . . .
42.2(34) . . .
44(4) . . .
50(4) . . .
45(4) . . .
43.7(35) . . .
42.5(34) . . .
49(4) . . .
49(4) . . .
44(4) . . .
46(4) . . .
48(4) . . .
42.6(34) . . .
53(4) . . .
48(4) . . .
42.0(35) . . .
42.3(34) . . .
49(4) . . .
53(4) . . .
48(4) . . .
40.9(33) . . .
42.1(34) . . .
40.1(33) . . .
52(4) . . .
48(4) . . .
45.8(35) . . .
39.6(33) . . .
41.1(34) . . .
36.8(32) . . .
43.6(35) . . .
49(4) . . .
48(4) . . .
42.8(34) . . .
53(4) . . .
46(4) . . .
51(4) . . .
43(4) . . .
51(4) . . .
37.2(32) . . .
43.7(35) . . .
45(4) . . .
57(4) . . .
49(4) . . .
43(4) . . .
44(4) . . .
46(4) . . .
51(4) . . .
50(4) . . .
46(4) . . .
47(4) . . .
37.2(32) . . .
43(4) . . .
50(4) . . .
52(4) . . .
43.3(34) . . .
44(4) . . .
48(4) . . .
35.5(31) . . .
46(4) . . .
44.2(34) . . .
39.9(33) . . .
48(4) . . .
42(4) . . .
48(4) . . .
48(4) . . .
46.7(35) . . .
49(4) . . .
55(4) . . .
39.2(33) . . .
45(4) . . .
44.3(34) . . .
44(4) . . .
44(4) . . .
53(4) . . .
43.9(34) . . .
49(4) . . .
40.4(35) . . .
46(4) . . .
39.6(32) . . .
45.2(35) . . .
46(4) . . .
41(4) . . .
36.3(33) . . .
45(4) . . .
46(4) . . .
53(4) . . .
42.4(34) . . .
48(4) . . .
59(4) . . .
41.6(34) . . .
40.7(33) . . .
43(4) . . .
43(4) . . .
46(4) . . .
44.2(34) . . .
54(4) . . .
49(4) . . .
40.3(35) . . .
41.5(34) . . .
51(4) . . .
50(4) . . .
38.7(35) . . .
38.9(33) . . .
51(4) . . .
44.6(35) . . .
46(4) . . .
43.0(34) . . .
50(4) . . .
54(4) . . .
51(4) . . .
41.3(34) . . .
44(4) . . .
47(4) . . .
45.8(35) . . .
45.0(35) . . .
46(4) . . .
48(4) . . .
50(4) . . .
50(4) . . .
46(4) . . .
42.3(34) . . .
46(4) . . .
35.7(31) . . .
50(4) . . .
47(4) . . .
45(4) . . .
49(4) . . .
44(4) . . .
50(4) . . .
45(4) . . .
56(4) . . .
49(4) . . .
48(4) . . .
41.0(33) . . .
40.5(34) . . .
47(4) . . .
41.0(33) . . .
42.3(35) . . .
46(4) . . .
50(4) . . .
50(4) . . .
49(4) . . .
47(4) . . .
39.8(33) . . .
49(4) . . .
41(4) . . .
46(4) . . .
50(4) . . .
48(4) . . .
50(4) . . .
50(4) . . .
48(4) . . .
41.8(33) . . .
36.1(31) . . .
38.2(34) . . .
44(4) . . .
52(4) . . .
44.8(35) . . .
45.2(35) . . .
45(4) . . .
33.2(32) . . .
40(4) . . .
51(4) . . .
47(4) . . .
42.4(34) . . .
45(4) . . .
45(4) . . .
50(4) . . .
43.2(34) . . .
46(4) . . .
51(4) . . .
37.1(33) . . .
39.6(33) . . .
50(4) . . .
42.1(35) . . .
40.3(33) . . .
41.9(34) . . .
41.7(34) . . .
47(4) . . .
50(4) . . .
42(4) . . .
44(4) . . .
49(4) . . .
37.7(32) . . .
42(4) . . .
35.9(32) . . .
45(4) . . .
53(4) . . .
46(4) . . .
45(4) . . .
43(4) . . .
40.8(33) . . .
40.5(33) . . .
46(4) . . .
36.1(31) . . .
51(4) . . .
48(4) . . .
44.9(35) . . .
44.8(35) . . .
44(4) . . .
44(4) . . .
48(4) . . .
40.2(33) . . .
42.2(35) . . .
47(4) . . .
35.3(31) . . .
48(4) . . .
45(4) . . .
49(4) . . .
41.2(34) . . .
42.8(34) . . .
42.6(34) . . .
42.7(34) . . .
52(4) . . .
46(4) . . .
44(4) . . .
43.6(35) . . .
37.6(32) . . .
47(4) . . .
46(4) . . .
44(4) . . .
43.7(35) . . .
44.6(35) . . .
42.3(34) . . .
44(4) . . .
49(4) . . .
43.0(34) . . .
40.2(33) . . .
45(4) . . .
40.0(35) . . .
45(4) . . .
43.8(34) . . .
52(4) . . .
56(4) . . .
56(4) . . .
40.2(34) . . .
51(4) . . .
42.5(35) . . .
49(4) . . .
50(4) . . .
44.0(34) . . .
42.5(34) . . .
46(4) . . .
42(4) . . .
41.6(35) . . .
46(4) . . .
41.9(34) . . .
51(4) . . .
46(4) . . .
48(4) . . .
46(4) . . .
47(4) . . .
48(4) . . .
44(4) . . .
40.6(34) . . .
41.2(33) . . .
43.5(34) . . .
49(4) . . .
41(4) . . .
50(4) . . .
56(4) . . .
47(4) . . .
47(4) . . .
50(4) . . .
48(4) . . .
48(4) . . .
46(4) . . .
44(4) . . .
39(4) . . .
39.5(34) . . .
46(4) . . .
40.2(33) . . .
50(4) . . .
46(4) . . .
40.6(33) . . .
49(4) . . .
48(4) . . .
51(4) . . .
38.1(33) . . .
43(4) . . .
43.2(34) . . .
44.5(35) . . .
50(4) . . .
48(4) . . .
52(4) . . .
54(4) . . .
38.9(32) . . .
31.9(31) . . .
46(4) . . .
52(4) . . .
41.3(33) . . .
39.5(35) . . .
45(4) . . .
49(4) . . .
50(4) . . .
30.9(29) . . .
38.5(34) . . .
41(4) . . .
54(4) . . .
51(4) . . .
43.5(34) . . .
49(4) . . .
42(4) . . .
54(4) . . .
43(4) . . .
42.4(34) . . .
47(4) . . .
47(4) . . .
53(4) . . .
43.0(35) . . .
49(4) . . .
49(4) . . .
47(4) . . .
53(4) . . .
38.6(33) . . .
44(4) . . .
50(4) . . .
46(4) . . .
42.7(34) . . .
52(4) . . .
40.8(33) . . .
37.4(31) . . .
47(4) . . .
43(4) . . .
42.0(34) . . .
42.7(34) . . .
42(4) . . .
34.0(31) . . .
44(4) . . .
38.8(33) . . .
45(4) . . .
50(4) . . .
35.7(32) . . .
40.8(35) . . .
47(4) . . .
49(4) . . .
37.8(33) . . .
44.2(35) . . .
44.6(34) . . .
37.0(33) . . .
52(4) . . .
44(4) . . .
43(4) . . .
38.4(33) . . .
44.1(34) . . .
47(4) . . .
52(4) . . .
45(4) . . .
34.3(31) . . .
45(4) . . .
40(4) . . .
40.3(35) . . .
49(4) . . .
52(4) . . .
53(4) . . .
40.5(34) . . .
42(4) . . .
48(4) . . .
42.4(34) . . .
39.3(32) . . .
49(4) . . .
39.7(34) . . .
41.4(34) . . .
42.1(34) . . .
49(4) . . .
62(4) . . .
36.6(33) . . .
36.8(32) . . .
47(4) . . .
51(4) . . .
49(4) . . .
47(4) . . .
49(4) . . .
30.4(29) . . .
49(4) . . .
42(4) . . .
45(4) . . .
45(4) . . .
52(4) . . .
43.5(34) . . .
49(4) . . .
41(4) . . .
43(4) . . .
39.7(33) . . .
49(4) . . .
46(4) . . .
38.5(34) . . .
38.7(33) . . .
41.5(33) . . .
46(4) . . .
42(4) . . .
39.2(33) . . .
43.1(35) . . .
40.5(33) . . .
51(4) . . .
43(4) . . .
41.9(33) . . .
51(4) . . .
44.9(35) . . .
39.9(33) . . .
43(4) . . .
37.5(32) . . .
46(4) . . .
47(4) . . .
37.0(34) . . .
54(4) . . .
43.5(34) . . .
48(4) . . .
36.0(33) . . .
45(4) . . .
46(4) . . .
48(4) . . .
50(4) . . .
46(4) . . .
43.9(35) . . .
52(4) . . .
54(4) . . .
42.3(34) . . .
44(4) . . .
47(4) . . .
36.8(33) . . .
38.4(35) . . .
42.0(33) . . .
43(4) . . .
42.2(34) . . .
44(4) . . .
47(4) . . .
45(4) . . .
47(4) . . .
45(4) . . .
46(4) . . .
47(4) . . .
50(4) . . .
47(4) . . .
45(4) . . .
51(4) . . .
51(4) . . .
38.4(33) . . .
49(4) . . .
42(4) . . .
47(4) . . .
55(4) . . .
43.5(35) . . .
33.6(31) . . .
33.2(31) . . .
43.2(34) . . .
43.2(34) . . .
36.1(31) . . .
51(4) . . .
51(4) . . .
39.9(33) . . .
42.1(34) . . .
36.2(32) . . .
45(4) . . .
46(4) . . .
48(4) . . .
42.7(35) . . .
47(4) . . .
54(4) . . .
50(4) . . .
39(4) . . .
43.8(34) . . .
45.0(35) . . .
59(4) . . .
52(4) . . .
38.5(33) . . .
43(4) . . .
46(4) . . .
52(4) . . .
37.9(33) . . .
41.2(33) . . .
47(4) . . .
39.5(33) . . .
52(4) . . .
49(4) . . .
46(4) . . .
50(4) . . .
45(4) . . .
51(4) . . .
48(4) . . .
49(4) . . .
53(4) . . .
39.9(34) . . .
51(4) . . .
38.7(32) . . .
48(4) . . .
43.4(34) . . .
55(4) . . .
46(4) . . .
43(4) . . .
44(4) . . .
56(4) . . .
44.3(35) . . .
44(4) . . .
46(4) . . .
46(4) . . .
50(4) . . .
44(4) . . .
40.5(35) . . .
51(4) . . .
40.0(33) . . .
48(4) . . .
47(4) . . .
42.8(34) . . .
46(4) . . .
42(4) . . .
45(4) . . .
53(4) . . .
46(4) . . .
48(4) . . .
45(4) . . .
35.2(31) . . .
45(4) . . .
40.3(34) . . .
48(4) . . .
45.5(35) . . .
45(4) . . .
46(4) . . .
48(4) . . .
43.5(34) . . .
37.0(31) . . .
46(4) . . .
48(4) . . .
39.2(33) . . .
47(4) . . .
46(4) . . .
33.2(30) . . .
38.0(33) . . .
38.8(34) . . .
42(4) . . .
50(4) . . .
42.4(35) . . .
54(4) . . .
52(4) . . .
48(4) . . .
49(4) . . .
45.3(35) . . .
46(4) . . .
43(4) . . .
40.7(33) . . .
41.9(34) . . .
47(4) . . .
39.6(35) . . .
48(4) . . .
45.3(34) . . .
50(4) . . .
64(4) . . .
45(4) . . .
40.8(34) . . .
42.2(35) . . .
47(4) . . .
45(4) . . .
40.6(35) . . .
46(4) . . .
44(4) . . .
41.8(34) . . .
47(4) . . .
47(4) . . .
51(4) . . .
52(4) . . .
41.5(34) . . .
40.2(35) . . .
43(4) . . .
49(4) . . .
41.2(34) . . .
39.9(33) . . .
43(4) . . .
51(4) . . .
50(4) . . .
41.4(33) . . .
40.7(33) . . .
42.4(34) . . .
41.2(35) . . .
42(4) . . .
40.5(34) . . .
54(4) . . .
42.3(33) . . .
43(4) . . .
51(4) . . .
56(4) . . .
44.1(35) . . .
36.5(32) . . .
44(4) . . .
37.0(35) . . .
35.8(31) . . .
45(4) . . .
49(4) . . .
52(4) . . .
42(4) . . .
53(4) . . .
49(4) . . .
50(4) . . .
49(4) . . .
46(4) . . .
42.5(34) . . .
45(4) . . .
44(4) . . .
46(4) . . .
44(4) . . .
40.2(33) . . .
38.5(33) . . .
37.3(32) . . .
51(4) . . .
47(4) . . .
52(4) . . .
51(4) . . .
42(4) . . .
43(4) . . .
37.3(31) . . .
38.6(33) . . .
45(4) . . .
42(4) . . .
45(4) . . .
44.2(35) . . .
48(4) . . .
49(4) . . .
44(4) . . .
42.8(34) . . .
45(4) . . .
38.8(33) . . .
49(4) . . .
44(4) . . .
46(4) . . .
49(4) . . .
54(4) . . .
41.5(34) . . .
46(4) . . .
47(4) . . .
46(4) . . .
42.7(34) . . .
38.0(33) . . .
50(4) . . .
38.0(33) . . .
41.7(34) . . .
45.2(34) . . .
42.9(35) . . .
46(4) . . .
41.5(34) . . .
38.4(32) . . .
48(4) . . .
39.5(33) . . .
43.2(34) . . .
53(4) . . .
49(4) . . .
42.5(35) . . .
45(4) . . .
44(4) . . .
43.5(35) . . .
49(4) . . .
48(4) . . .
45(4) . . .
45(4) . . .
50(4) . . .
57(4) . . .
36.5(32) . . .
50(4) . . .
46(4) . . .
44(4) . . .
43.7(34) . . .
40(4) . . .
40.8(35) . . .
42.4(34) . . .
46(4) . . .
50(4) . . .
44(4) . . .
48(4) . . .
51(4) . . .
50(4) . . .
43.9(35) . . .
44(4) . . .
49(4) . . .
43(4) . . .
46.2(35) . . .
48(4) . . .
47(4) . . .
46(4) . . .
56(4) . . .
54(4) . . .
45(4) . . .
37.5(33) . . .
50(4) . . .
48(4) . . .
51(4) . . .
57(4) . . .
38.7(34) . . .
41.2(35) . . .
41.2(33) . . .
44.6(35) . . .
38.2(34) . . .
41.0(35) . . .
44(4) . . .
39.7(34) . . .
53(4) . . .
46(4) . . .
39.5(34) . . .
47(4) . . .
38.9(34) . . .
41.8(34) . . .
47(4) . . .
48(4) . . .
53(4) . . .
45(4) . . .
43.4(34) . . .
49(4) . . .
44(4) . . .
43.1(35) . . .
43.7(35) . . .
50(4) . . .
45(4) . . .
44(4) . . .
41.5(34) . . .
51(4) . . .
41.9(33) . . .
43(4) . . .
42(4) . . .
44(4) . . .
42.0(35) . . .
50(4) . . .
46(4) . . .
39.9(33) . . .
47(4) . . .
45.0(34) . . .
39.8(33) . . .
48(4) . . .
45(4) . . .
46(4) . . .
43.6(34) . . .
50(4) . . .
43.2(34) . . .
41.7(35) . . .
42.0(34) . . .
42.8(34) . . .
49(4) . . .
43(4) . . .
52(4) . . .
46(4) . . .
49(4) . . .
39.5(34) . . .
43.3(35) . . .
42.2(35) . . .
47(4) . . .
44.7(35) . . .
44(4) . . .
38.0(33) . . .
39.8(34) . . .
47(4) . . .
57(4) . . .
50(4) . . .
38(4) . . .
47(4) . . .
42.9(34) . . .
51(4) . . .
49(4) . . .
51(4) . . .
48(4) . . .
36.4(31) . . .
47(4) . . .
39.6(34) . . .
40(4) . . .
48(4) . . .
47(4) . . .
44.5(35) . . .
46(4) . . .
37.0(34) . . .
45(4) . . .
52(4) . . .
40.8(33) . . .
39.5(33) . . .
45(4) . . .
36.2(31) . . .
43.0(35) . . .
51(4) . . .
50(4) . . .
51(4) . . .
38.6(34) . . .
42.0(33) . . .
40.3(34) . . .
40.6(34) . . .
45(4) . . .
43(4) . . .
37.3(32) . . .
37.0(32) . . .
44(4) . . .
45(4) . . .
37.6(33) . . .
43.9(34) . . .
42.6(34) . . .
47(4) . . .
40.5(34) . . .
48(4) . . .
44.5(35) . . .
41.6(35) . . .
52(4) . . .
45(4) . . .
50(4) . . .
51(4) . . .
42.3(34) . . .
41.2(35) . . .
43(4) . . .
46(4) . . .
40.6(33) . . .
41(4) . . .
43(4) . . .
49(4) . . .
39.5(33) . . .
43.0(35) . . .
39.8(34) . . .
49(4) . . .
47(4) . . .
39.1(32) . . .
52(4) . . .
51(4) . . .
46(4) . . .
38.4(34) . . .
44.2(35) . . .
56(4) . . .
48(4) . . .
39.0(34) . . .
48(4) . . .
49(4) . . .
38.3(33) . . .
45(4) . . .
43(4) . . .
40(4) . . .
49(4) . . .
44.2(34) . . .
37.3(32) . . .
52(4) . . .
54(4) . . .
49(4) . . .
38.8(33) . . .
47(4) . . .
37.8(34) . . .
37.4(33) . . .
38.1(33) . . .
43.5(35) . . .
40.4(33) . . .
37.0(32) . . .
39.5(33) . . .
48(4) . . .
42.7(35) . . .
45(4) . . .
48(4) . . .
49(4) . . .
52(4) . . .
50(4) . . .
48(4) . . .
48(4) . . .
38.0(33) . . .
39.8(33) . . .
47(4) . . .
46(4) . . .
38.9(34) . . .
43.9(35) . . .
51(4) . . .
40.0(35) . . .
43(4) . . .
43(4) . . .
46(4) . . .
46(4) . . .
42.1(34) . . .
55(4) . . .
44.6(34) . . .
54(4) . . .
44.6(34) . . .
43(4) . . .
40.5(34) . . .
49(4) . . .
45.2(35) . . .
40.3(33) . . .
46(4) . . .
48(4) . . .
56(4) . . .
40.9(33) . . .
38.5(32) . . .
54(4) . . .
48(4) . . .
60(4) . . .
47(4) . . .
41.6(34) . . .
42(4) . . .
37.3(33) . . .
46(4) . . .
42.7(34) . . .
42(4) . . .
37.5(34) . . .
46(4) . . .
35.7(32) . . .
41.0(34) . . .
41.2(33) . . .
44(4) . . .
34.9(33) . . .
33.8(32) . . .
43.5(34) . . .
50(4) . . .
36.0(33) . . .
43(4) . . .
40.8(34) . . .
38.0(32) . . .
38.8(33) . . .
40.2(35) . . .
45(4) . . .
50(4) . . .
55(4) . . .
38.4(33) . . .
51(4) . . .
44.5(34) . . .
52(4) . . .
53(4) . . .
40.7(34) . . .
45(4) . . .
46(4) . . .
41.9(34) . . .
55(4) . . .
44(4) . . .
45(4) . . .
48(4) . . .
52(4) . . .
47(4) . . .
40.0(33) . . .
48(4) . . .
44(4) . . .
42.2(34) . . .
38.8(33) . . .
38.4(33) . . .
46(4) . . .
59(4) . . .
48(4) . . .
37.5(32) . . .
45(4) . . .
43.9(35) . . .
36.1(33) . . .
53(4) . . .
41(4) . . .
43(4) . . .
47(4) . . .
52(4) . . .
49(4) . . .
42.8(34) . . .
47(4) . . .
57(4) . . .
50(4) . . .
44.2(35) . . .
40(4) . . .
43(4) . . .
49(4) . . .
54(4) . . .
42.4(34) . . .
48(4) . . .
45(4) . . .
41(4) . . .
42.3(34) . . .
56(4) . . .
42(4) . . .
45(4) . . .
50(4) . . .
41.3(34) . . .
42.6(34) . . .
38.1(33) . . .
45(4) . . .
38.6(33) . . .
40.5(33) . . .
38.8(33) . . .
48(4) . . .
39.7(34) . . .
39.3(34) . . .
46(4) . . .
42.5(34) . . .
40.6(34) . . .
47(4) . . .
45(4) . . .
47(4) . . .
44(4) . . .
41.3(35) . . .
39.4(33) . . .
47(4) . . .
46(4) . . .
44.4(34) . . .
42.6(35) . . .
41(4) . . .
40(4) . . .
37.8(32) . . .
45(4) . . .
36.7(32) . . .
36.6(33) . . .
47(4) . . .
44.0(35) . . .
44.4(35) . . .
42(4) . . .
43(4) . . .
40.2(34) . . .
40.6(33) . . .
44(4) . . .
37.1(33) . . .
39.2(34) . . .
43.2(35) . . .
52(4) . . .
54(4) . . .
45(4) . . .
42.9(34) . . .
41.9(34) . . .
41.8(34) . . .
37.0(31) . . .
49(4) . . .
45(4) . . .
35.8(32) . . .
42.5(34) . . .
48(4) . . .
44(4) . . .
50(4) . . .
41.5(34) . . .
50(4) . . .
42(4) . . .
42(4) . . .
42(4) . . .
49(4) . . .
51(4) . . .
42.5(35) . . .
45(4) . . .
47(4) . . .
37.4(31) . . .
45(4) . . .
44.2(35) . . .
42(4) . . .
40.0(34) . . .
38.2(32) . . .
48(4) . . .
48(4) . . .
46(4) . . .
41.7(34) . . .
45.7(35) . . .
44(4) . . .
42.4(35) . . .
42.8(35) . . .
42(4) . . .
42.8(34) . . .
39.1(33) . . .
36.9(32) . . .
43(4) . . .
33.8(30) . . .
40.7(33) . . .
43(4) . . .
41.4(34) . . .
46(4) . . .
39.3(33) . . .
45(4) . . .
38.7(33) . . .
43.4(34) . . .
53(4) . . .
58(4) . . .
41.0(34) . . .
36.3(32) . . .
45(4) . . .
48(4) . . .
41.1(33) . . .
39.0(32) . . .
42.2(35) . . .
38.6(34) . . .
48(4) . . .
36.7(33) . . .
42.0(33) . . .
41.4(34) . . .
39.3(33) . . .
42(4) . . .
39.6(32) . . .
44.3(35) . . .
44(4) . . .
42(4) . . .
47(4) . . .
42.5(33) . . .
41.2(34) . . .
36.0(33) . . .
34.0(33) . . .
34.9(31) . . .
32.9(29) . . .
46(4) . . .
43(4) . . .
39(4) . . .
40.1(34) . . .
56(4) . . .
43.6(35) . . .
41(4) . . .
34.0(32) . . .
48(4) . . .
51(4) . . .
40.6(34) . . .
33.7(31) . . .
48(4) . . .
50(4) . . .
42.5(34) . . .
51(4) . . .
47(4) . . .
37.6(31) . . .
43.3(34) . . .
40.1(34) . . .
37.9(34) . . .
49(4) . . .
44.8(35) . . .
43.8(35) . . .
40.2(34) . . .
41.5(34) . . .
38.6(31) . . .
38.0(32) . . .
45.5(35) . . .
42.4(34) . . .
43(4) . . .
36.5(31) . . .
48(4) . . .
42.8(34) . . .
43.7(34) . . .
36.8(33) . . .
42(4) . . .
49(4) . . .
55(4) . . .
44(4) . . .
53(4) . . .
42(4) . . .
31.0(30) . . .
39.0(32) . . .
35.7(32) . . .
43(4) . . .
37.1(33) . . .
43.6(35) . . .
49(4) . . .
49(4) . . .
48(4) . . .
51(4) . . .
47(4) . . .
46(4) . . .
40.2(32) . . .
49(4) . . .
40.4(35) . . .
38(4) . . .
33.5(30) . . .
38.0(33) . . .
39.8(34) . . .
42(4) . . .
51(4) . . .
35.9(32) . . .
41.1(33) . . .
44(4) . . .
44(4) . . .
34.3(32) . . .
40.3(34) . . .
45(4) . . .
43(4) . . .
42.0(35) . . .
39.3(32) . . .
42.5(34) . . .
44(4) . . .
42(4) . . .
43.0(34) . . .
40.6(33) . . .
47(4) . . .
45(4) . . .
44(4) . . .
50(4) . . .
38.2(32) . . .
46(4) . . .
48(4) . . .
41(4) . . .
40.4(34) . . .
37.8(33) . . .
43.6(34) . . .
39.8(33) . . .
47(4) . . .
46(4) . . .
45.0(35) . . .
51(4) . . .
44.6(35) . . .
45(4) . . .
47(4) . . .
41(4) . . .
41.3(34) . . .
42.5(35) . . .
48(4) . . .
44(4) . . .
44(4) . . .
35.2(30) . . .
37.8(31) . . .
44(4) . . .
42.4(35) . . .
47(4) . . .
46(4) . . .
42.4(34) . . .
51(4) . . .
45(4) . . .
42.4(34) . . .
37.5(33) . . .
40(4) . . .
48(4) . . .
55(4) . . .
43.1(34) . . .
50(4) . . .
39.3(33) . . .
49(4) . . .
46(4) . . .
40.0(34) . . .
46(4) . . .
55(4) . . .
41.2(33) . . .
39.7(32) . . .
42.5(35) . . .
42.3(34) . . .
34.9(32) . . .
46(4) . . .
38.2(32) . . .
45(4) . . .
39.1(33) . . .
49(4) . . .
43(4) . . .
39.7(32) . . .
47(4) . . .
46(4) . . .
44(4) . . .
42.0(34) . . .
43.6(35) . . .
39.0(32) . . .
38.3(32) . . .
39.6(34) . . .
42.4(35) . . .
36.9(32) . . .
49(4) . . .
47(4) . . .
49(4) . . .
44(4) . . .
40.9(33) . . .
48(4) . . .
47(4) . . .
44(4) . . .
45(4) . . .
45(4) . . .
47(4) . . .
45(4) . . .
41.4(34) . . .
38.7(32) . . .
50(4) . . .
31.4(29) . . .
55(4) . . .
46(4) . . .
35.5(33) . . .
41.4(34) . . .
37.2(32) . . .
35.0(32) . . .
39.0(33) . . .
47(4) . . .
54(4) . . .
50(4) . . .
38.7(34) . . .
47(4) . . .
39.7(33) . . .
46(4) . . .
39.3(32) . . .
52(4) . . .
40.2(34) . . .
45(4) . . .
40.7(34) . . .
42.1(35) . . .
47(4) . . .
50(4) . . .
39.6(33) . . .
34.6(30) . . .
39(4) . . .
41(4) . . .
48(4) . . .
47(4) . . .
42.4(33) . . .
43.4(35) . . .
37.8(34) . . .
42(4) . . .
45.2(34) . . .
42.8(34) . . .
41(4) . . .
40(4) . . .
44(4) . . .
39.9(33) . . .
44(4) . . .
43(4) . . .
42.6(35) . . .
37.5(32) . . .
42.7(34) . . .
46(4) . . .
46(4) . . .
39.0(33) . . .
51(4) . . .
42.9(34) . . .
45.2(35) . . .
45(4) . . .
33.0(29) . . .
45(4) . . .
51(4) . . .
43(4) . . .
34.4(31) . . .
44(4) . . .
38.0(32) . . .
45(4) . . .
47(4) . . .
48(4) . . .
50(4) . . .
33.6(30) . . .
47(4) . . .
42(4) . . .
36.4(33) . . .
34.0(33) . . .
45(4) . . .
45(4) . . .
39.8(33) . . .
41(4) . . .
37.8(33) . . .
43.0(34) . . .
53(4) . . .
39.3(34) . . .
54(4) . . .
43.7(34) . . .
43.2(34) . . .
46(4) . . .
39.3(33) . . .
41(4) . . .
39.9(35) . . .
53(4) . . .
40.9(33) . . .
45(4) . . .
49(4) . . .
43(4) . . .
42.7(34) . . .
47(4) . . .
40.2(34) . . .
39.4(33) . . .
45(4) . . .
43(4) . . .
43.9(34) . . .
50(4) . . .
38.7(33) . . .
49(4) . . .
42.9(34) . . .
48(4) . . .
44(4) . . .
46(4) . . .
52(4) . . .
43.7(34) . . .
51(4) . . .
43.1(34) . . .
46(4) . . .
49(4) . . .
45.1(35) . . .
39(4) . . .
42.4(35) . . .
46(4) . . .
37.0(34) . . .
48(4) . . .
51(4) . . .
39.5(35) . . .
35.0(32) . . .
34.8(31) . . .
40.1(33) . . .
44(4) . . .
48(4) . . .
43.4(34) . . .
38.5(33) . . .
41.5(34) . . .
50(4) . . .
45(4) . . .
45(4) . . .
37.6(32) . . .
40.3(33) . . .
42(4) . . .
43(4) . . .
35.4(31) . . .
43.9(34) . . .
45(4) . . .
50(4) . . .
50(4) . . .
41.5(33) . . .
40.9(33) . . .
42.1(34) . . .
45(4) . . .
39(4) . . .
36.8(34) . . .
49(4) . . .
47(4) . . .
40.0(34) . . .
38.6(34) . . .
38.7(33) . . .
42.3(34) . . .
46(4) . . .
49(4) . . .
51(4) . . .
44.7(35) . . .
49(4) . . .
47(4) . . .
37.2(33) . . .
30.3(29) . . .
47(4) . . .
41.4(33) . . .
40.3(34) . . .
39.8(34) . . .
45(4) . . .
38.5(33) . . .
48(4) . . .
38.4(33) . . .
40(4) . . .
32.0(30) . . .
43(4) . . .
45.6(35) . . .
40.7(34) . . .
43(4) . . .
45(4) . . .
35.9(31) . . .
46(4) . . .
45(4) . . .
54(4) . . .
40.1(33) . . .
49(4) . . .
34.1(31) . . .
46(4) . . .
47(4) . . .
39.8(33) . . .
37.9(31) . . .
39.6(33) . . .
47(4) . . .
47(4) . . .
38(4) . . .
45(4) . . .
50(4) . . .
38.7(33) . . .
41(4) . . .
36.0(31) . . .
40.3(33) . . .
49(4) . . .
36.8(32) . . .
37.5(33) . . .
44(4) . . .
38.5(32) . . .
44.6(35) . . .
45(4) . . .
38(4) . . .
38.2(34) . . .
37.6(32) . . .
44(4) . . .
45(4) . . .
43(4) . . .
41.4(35) . . .
36.0(31) . . .
46(4) . . .
47(4) . . .
45(4) . . .
41.0(34) . . .
46(4) . . .
44(4) . . .
37.4(32) . . .
43.8(35) . . .
45(4) . . .
39.3(32) . . .
39.5(33) . . .
45(4) . . .
44.1(34) . . .
53(4) . . .
43.8(34) . . .
43(4) . . .
44(4) . . .
45(4) . . .
48(4) . . .
38.3(32) . . .
37.9(32) . . .
38(4) . . .
40.0(34) . . .
50(4) . . .
50(4) . . .
45(4) . . .
36.0(32) . . .
41.5(35) . . .
39.3(33) . . .
39.9(33) . . .
47(4) . . .
43(4) . . .
45(4) . . .
41.7(33) . . .
45(4) . . .
41.3(34) . . .
44(4) . . .
42(4) . . .
50(4) . . .
42.3(34) . . .
48(4) . . .
52(4) . . .
48(4) . . .
50(4) . . .
54(4) . . .
41.6(34) . . .
48(4) . . .
35.0(32) . . .
31.1(29) . . .
33.7(30) . . .
41(4) . . .
53(4) . . .
40.4(33) . . .
40.8(34) . . .
50(4) . . .
48(4) . . .
47(4) . . .
49(4) . . .
45(4) . . .
49(4) . . .
43(4) . . .
35.9(32) . . .
46(4) . . .
48(4) . . .
41.4(35) . . .
41.3(35) . . .
47(4) . . .
49(4) . . .
39.1(32) . . .
46(4) . . .
36.5(33) . . .
47(4) . . .
45(4) . . .
38.8(32) . . .
37.2(32) . . .
43(4) . . .
45(4) . . .
41.2(35) . . .
42.7(34) . . .
44(4) . . .
36.5(33) . . .
39.7(35) . . .
40.5(33) . . .
41.5(34) . . .
41.0(34) . . .
50(4) . . .
42.7(35) . . .
37.8(32) . . .
43(4) . . .
41(4) . . .
36.7(34) . . .
39.2(34) . . .
38.3(32) . . .
48(4) . . .
46(4) . . .
42.2(34) . . .
45(4) . . .
46(4) . . .
57(4) . . .
43.5(34) . . .
47(4) . . .
44(4) . . .
49(4) . . .
35.1(31) . . .
50(4) . . .
44(4) . . .
43(4) . . .
44.8(34) . . .
40(4) . . .
38.1(34) . . .
43(4) . . .
43.6(34) . . .
47(4) . . .
38.9(33) . . .
44.3(35) . . .
47(4) . . .
42.6(34) . . .
49(4) . . .
44(4) . . .
43(4) . . .
46(4) . . .
49(4) . . .
53(4) . . .
49(4) . . .
54(4) . . .
48(4) . . .
47(4) . . .
36.7(32) . . .
45(4) . . .
47(4) . . .
45(4) . . .
50(4) . . .
47(4) . . .
53(4) . . .
46(4) . . .
41.3(34) . . .
48(4) . . .
35.4(31) . . .
40.0(33) . . .
40(4) . . .
47(4) . . .
53(4) . . .
42.5(34) . . .
45(4) . . .
46(4) . . .
42.6(35) . . .
41.3(33) . . .
37.8(32) . . .
42(4) . . .
47(4) . . .
42.1(34) . . .
44.5(35) . . .
37.7(33) . . .
34.4(30) . . .
46(4) . . .
37.0(32) . . .
50(4) . . .
43.5(35) . . .
38.8(34) . . .
37.9(32) . . .
44(4) . . .
40.6(33) . . .
48(4) . . .
48(4) . . .
45(4) . . .
48(4) . . .
48(4) . . .
46(4) . . .
45(4) . . .
45(4) . . .
48(4) . . .
44.7(35) . . .
48(4) . . .
32.9(31) . . .
40.7(34) . . .
43.7(34) . . .
46(4) . . .
38.4(33) . . .
40.4(35) . . .
43.0(35) . . .
33.4(30) . . .
43(4) . . .
40.9(34) . . .
36.1(33) . . .
31.1(30) . . .
45(4) . . .
44(4) . . .
40(4) . . .
36.8(34) . . .
42(4) . . .
40.7(33) . . .
39.7(33) . . .
43(4) . . .
48(4) . . .
46(4) . . .
47(4) . . .
39.3(32) . . .
47(4) . . .
46(4) . . .
52(4) . . .
45(4) . . .
37.3(32) . . .
34.3(31) . . .
43(4) . . .
30.0(29) . . .
35.2(31) . . .
38.7(35) . . .
35.8(32) . . .
29.3(29) . . .
38.9(34) . . .
42.1(33) . . .
44(4) . . .
47(4) . . .
42.9(35) . . .
43.0(34) . . .
40.3(33) . . .
41.7(34) . . .
43(4) . . .
39(4) . . .
54(4) . . .
38.2(32) . . .
42.0(33) . . .
43.4(34) . . .
42.1(34) . . .
46(4) . . .
42.2(34) . . .
39.8(34) . . .
37.5(35) . . .
34.9(31) . . .
45(4) . . .
49(4) . . .
42.5(34) . . .
47(4) . . .
45(4) . . .
46(4) . . .
49(4) . . .
29.9(29) . . .
42(4) . . .
37.7(32) . . .
42.0(34) . . .
47(4) . . .
48(4) . . .
53(4) . . .
41.4(34) . . .
48(4) . . .
37.7(32) . . .
44(4) . . .
52(4) . . .
49(4) . . .
43.5(34) . . .
48(4) . . .
36.1(32) . . .
43(4) . . .
40(4) . . .
41.5(34) . . .
39.1(32) . . .
44(4) . . .
38.9(33) . . .
46(4) . . .
38.2(32) . . .
40.3(35) . . .
46(4) . . .
50(4) . . .
38.9(33) . . .
48(4) . . .
41.0(33) . . .
41.0(35) . . .
34.3(32) . . .
36.7(32) . . .
45.2(35) . . .
42(4) . . .
46(4) . . .
44(4) . . .
45(4) . . .
47(4) . . .
40.9(34) . . .
44(4) . . .
37.9(33) . . .
48(4) . . .
43.7(34) . . .
40.0(34) . . .
38.0(34) . . .
36.0(33) . . .
36.9(33) . . .
34.5(30) . . .
46(4) . . .
39(4) . . .
42(4) . . .
41.2(33) . . .
33.8(30) . . .
38.1(33) . . .
39.8(35) . . .
32.3(32) . . .
34.2(31) . . .
42.2(34) . . .
47(4) . . .
46(4) . . .
41(4) . . .
42.4(34) . . .
39.7(34) . . .
40.8(34) . . .
42(4) . . .
50(4) . . .
43.3(34) . . .
37.3(32) . . .
47(4) . . .
36.5(31) . . .
39.8(33) . . .
39.9(33) . . .
34.6(30) . . .
37.5(33) . . .
40.2(33) . . .
54(4) . . .
39.0(33) . . .
47(4) . . .
37.2(33) . . .
44(4) . . .
44(4) . . .
37.8(32) . . .
39(4) . . .
46(4) . . .
37.7(34) . . .
37.2(32) . . .
41.5(34) . . .
38.2(34) . . .
32.1(30) . . .
45(4) . . .
37.6(32) . . .
42.5(34) . . .
51(4) . . .
43(4) . . .
37.1(32) . . .
39.9(33) . . .
48(4) . . .
40.0(33) . . .
47(4) . . .
46(4) . . .
40.4(34) . . .
49(4) . . .
36.2(31) . . .
45(4) . . .
40.5(33) . . .
40.2(33) . . .
38.1(32) . . .
39.3(34) . . .
36.3(34) . . .
34.1(32) . . .
37.5(31) . . .
40.9(33) . . .
38.1(32) . . .
41.9(34) . . .
47(4) . . .
45(4) . . .
40(4) . . .
42(4) . . .
44(4) . . .
31.8(29) . . .
42.7(34) . . .
45(4) . . .
45.1(35) . . .
44(4) . . .
39.3(34) . . .
39.2(33) . . .
46(4) . . .
46(4) . . .
56(4) . . .
48(4) . . .
40.3(33) . . .
37.1(32) . . .
41(4) . . .
48(4) . . .
47(4) . . .
42.7(34) . . .
40.5(34) . . .
46(4) . . .
46(4) . . .
46(4) . . .
42.9(34) . . .
38.3(32) . . .
38.9(35) . . .
38.4(33) . . .
33.8(30) . . .
41.8(34) . . .
44(4) . . .
47(4) . . .
51(4) . . .
49(4) . . .
41(4) . . .
44(4) . . .
41(4) . . .
48(4) . . .
35.7(31) . . .
37.5(32) . . .
47(4) . . .
55(4) . . .
45(4) . . .
41.8(34) . . .
37.6(33) . . .
33.7(30) . . .
40.3(35) . . .
49(4) . . .
42.4(34) . . .
33.7(32) . . .
47(4) . . .
45(4) . . .
42.7(34) . . .
41.1(33) . . .
37.4(33) . . .
48(4) . . .
39.2(33) . . .
40.1(34) . . .
39.1(33) . . .
41.8(34) . . .
42(4) . . .
36.8(32) . . .
41.4(33) . . .
39.7(33) . . .
42(4) . . .
43(4) . . .
31.0(29) . . .
42.2(35) . . .
45.1(35) . . .
43.2(35) . . .
41(4) . . .
38.1(34) . . .
38.6(32) . . .
57(4) . . .
43(4) . . .
45(4) . . .
48(4) . . .
57(4) . . .
45(4) . . .
44.5(35) . . .
47(4) . . .
37.5(32) . . .
42.6(34) . . .
43.0(34) . . .
54(4) . . .
47(4) . . .
50(4) . . .
43.0(34) . . .
49(4) . . .
48(4) . . .
45(4) . . .
38.4(34) . . .
40.9(34) . . .
38.2(34) . . .
33.8(31) . . .
38.2(32) . . .
50(4) . . .
48(4) . . .
40.2(35) . . .
46(4) . . .
42(4) . . .
42(4) . . .
41.4(33) . . .
37.1(32) . . .
33.6(30) . . .
39.9(34) . . .
43.0(35) . . .
44.9(35) . . .
35.1(31) . . .
48(4) . . .
52(4) . . .
48(4) . . .
42.7(34) . . .
48(4) . . .
42(4) . . .
44(4) . . .
46(4) . . .
49(4) . . .
46(4) . . .
40(4) . . .
37.9(32) . . .
48(4) . . .
48(4) . . .
37.5(33) . . .
42.3(35) . . .
43.7(35) . . .
39.2(34) . . .
41.0(33) . . .
53(4) . . .
34.7(32) . . .
34.7(33) . . .
42.3(34) . . .
47(4) . . .
38.0(32) . . .
45(4) . . .
34.3(30) . . .
47(4) . . .
38.3(32) . . .
47(4) . . .
45(4) . . .
43.0(34) . . .
49(4) . . .
36.6(32) . . .
46(4) . . .
46(4) . . .
42(4) . . .
40.1(33) . . .
42(4) . . .
42.2(35) . . .
42.0(35) . . .
44(4) . . .
37.4(32) . . .
32.5(30) . . .
48(4) . . .
43(4) . . .
37.8(32) . . .
38.6(33) . . .
35.0(32) . . .
45(4) . . .
39.1(34) . . .
41.9(33) . . .
47(4) . . .
46(4) . . .
38.6(33) . . .
36.8(32) . . .
46(4) . . .
48(4) . . .
39.2(33) . . .
55(4) . . .
49(4) . . .
44(4) . . .
38.1(32) . . .
33.9(31) . . .
42(4) . . .
41.1(34) . . .
40.2(34) . . .
45(4) . . .
42(4) . . .
46(4) . . .
47(4) . . .
39.8(33) . . .
39.3(33) . . .
44.2(34) . . .
45(4) . . .
39.5(33) . . .
46(4) . . .
34.4(30) . . .
42.6(35) . . .
36.4(31) . . .
32.8(30) . . .
45(4) . . .
47(4) . . .
49(4) . . .
37.7(34) . . .
32.3(31) . . .
35.3(31) . . .
42.8(35) . . .
39.0(33) . . .
39.7(34) . . .
43.0(35) . . .
44.1(35) . . .
36.1(31) . . .
33.0(30) . . .
46(4) . . .
52(4) . . .
40.9(33) . . .
47(4) . . .
43(4) . . .
45(4) . . .
43.3(34) . . .
43.6(34) . . .
47(4) . . .
33.7(30) . . .
46(4) . . .
42.0(34) . . .
40.0(33) . . .
38.0(34) . . .
47(4) . . .
38.4(32) . . .
39.0(32) . . .
39.0(32) . . .
48(4) . . .
31.6(29) . . .
40(4) . . .
33.5(30) . . .
36.0(31) . . .
45(4) . . .
50(4) . . .
41.0(33) . . .
44.1(35) . . .
31.1(30) . . .
43(4) . . .
42(4) . . .
35.6(32) . . .
37.3(31) . . .
39.7(32) . . .
37.6(31) . . .
49(4) . . .
34.7(31) . . .
43.6(35) . . .
41.8(34) . . .
44(4) . . .
51(4) . . .
46(4) . . .
41.7(34) . . .
46(4) . . .
47(4) . . .
50(4) . . .
47(4) . . .
37.4(33) . . .
42(4) . . .
42.0(35) . . .
40.3(33) . . .
52(4) . . .
35.1(30) . . .
42(4) . . .
38.3(33) . . .
41(4) . . .
32.8(32) . . .
37.0(32) . . .
38.8(33) . . .
42(4) . . .
46(4) . . .
37.9(32) . . .
50(4) . . .
43.9(35) . . .
48(4) . . .
39.5(34) . . .
50(4) . . .
38.3(32) . . .
46(4) . . .
42(4) . . .
37.3(32) . . .
41.5(33) . . .
49(4) . . .
51(4) . . .
55(4) . . .
45(4) . . .
49(4) . . .
38.8(33) . . .
49(4) . . .
39.3(33) . . .
40.0(33) . . .
44.3(35) . . .
40.8(34) . . .
43.0(35) . . .
42(4) . . .
44(4) . . .
42.5(34) . . .
44.2(34) . . .
47(4) . . .
35.4(31) . . .
43(4) . . .
43.6(34) . . .
41.1(34) . . .
46(4) . . .
45(4) . . .
43(4) . . .
46(4) . . .
31.8(29) . . .
46(4) . . .
44(4) . . .
36.5(33) . . .
43.8(34) . . .
36.9(32) . . .
37.2(34) . . .
43(4) . . .
42.0(34) . . .
39.9(33) . . .
38.9(34) . . .
40(4) . . .
37.2(34) . . .
33.2(32) . . .
41.0(33) . . .
45(4) . . .
37.1(35) . . .
40.2(35) . . .
39.2(33) . . .
36.5(31) . . .
38.2(33) . . .
46(4) . . .
53(4) . . .
47(4) . . .
42.0(33) . . .
44(4) . . .
39.1(34) . . .
48(4) . . .
45.6(35) . . .
33.2(31) . . .
38.3(33) . . .
32.9(33) . . .
36.9(32) . . .
38.3(32) . . .
41.3(34) . . .
44.7(34) . . .
43(4) . . .
39.6(34) . . .
34.7(31) . . .
38.1(33) . . .
39.5(33) . . .
34.3(32) . . .
37.4(34) . . .
37.4(32) . . .
37.8(32) . . .
41.8(34) . . .
43.7(35) . . .
43(4) . . .
34.5(31) . . .
40.2(33) . . .
37.1(31) . . .
48(4) . . .
50(4) . . .
43.0(34) . . .
38.8(32) . . .
39.4(33) . . .
34.8(31) . . .
40.3(34) . . .
37.3(32) . . .
38.1(33) . . .
40.4(35) . . .
32.3(30) . . .
47(4) . . .
50(4) . . .
39(4) . . .
46(4) . . .
38.7(34) . . .
36.8(31) . . .
45(4) . . .
37.5(34) . . .
34.5(32) . . .
44(4) . . .
33.3(30) . . .
32.6(29) . . .
50(4) . . .
38.2(35) . . .
39.3(34) . . .
44.3(35) . . .
38.5(32) . . .
43.0(34) . . .
42(4) . . .
38.2(32) . . .
33.2(30) . . .
37.5(32) . . .
44(4) . . .
40(4) . . .
28.5(28) . . .
45.0(34) . . .
32.6(30) . . .
35.2(32) . . .
48(4) . . .
39.9(34) . . .
43.8(34) . . .
39.5(34) . . .
38.3(33) . . .
46(4) . . .
39.7(33) . . .
37.1(31) . . .
36.3(31) . . .
38.5(31) . . .
48(4) . . .
37.7(32) . . .
40.0(33) . . .
36.9(32) . . .
40.7(35) . . .
44(4) . . .
35.1(31) . . .
45.2(35) . . .
44(4) . . .
37.0(35) . . .
43(4) . . .
46(4) . . .
42.5(34) . . .
41.2(34) . . .
42.1(35) . . .
40.9(34) . . .
39.3(33) . . .
44.7(35) . . .
47(4) . . .
45(4) . . .
38.4(33) . . .
38.8(32) . . .
41.6(33) . . .
42.9(34) . . .
43(4) . . .
42.5(35) . . .
47(4) . . .
42.8(33) . . .
40.7(33) . . .
42(4) . . .
43(4) . . .
32.7(30) . . .
44(4) . . .
30.4(29) . . .
36.2(33) . . .
37.5(34) . . .
44.5(35) . . .
36.7(31) . . .
49(4) . . .
52(4) . . .
37.9(35) . . .
42.7(34) . . .
38.2(32) . . .
40(4) . . .
38.5(34) . . .
44.2(35) . . .
31.4(29) . . .
30.3(29) . . .
41.9(35) . . .
45(4) . . .
44(4) . . .
38.4(33) . . .
43.0(35) . . .
44(4) . . .
42(4) . . .
30.1(29) . . .
36.6(32) . . .
46(4) . . .
38.4(33) . . .
34.9(31) . . .
44(4) . . .
46(4) . . .
39.4(33) . . .
40.3(33) . . .
37.6(32) . . .
39.0(34) . . .
44.6(35) . . .
45(4) . . .
38.1(33) . . .
38.3(32) . . .
30.2(29) . . .
34.9(31) . . .
46(4) . . .
46(4) . . .
34.7(32) . . .
46(4) . . .
41.3(33) . . .
42.4(34) . . .
38.2(34) . . .
33.1(30) . . .
45.1(35) . . .
40.8(34) . . .
38.2(33) . . .
40(4) . . .
36.7(32) . . .
49(4) . . .
37.2(33) . . .
36.3(32) . . .
41(4) . . .
37.9(33) . . .
48(4) . . .
48(4) . . .
51(4) . . .
43(4) . . .
40.3(34) . . .
37.3(32) . . .
34.1(31) . . .
29.2(29) . . .
40(4) . . .
35.2(31) . . .
43.4(35) . . .
45.2(35) . . .
46(4) . . .
47(4) . . .
40.4(34) . . .
39.7(32) . . .
33.3(31) . . .
42(4) . . .
44(4) . . .
36.9(33) . . .
41.4(34) . . .
33.9(31) . . .
46(4) . . .
46(4) . . .
34.9(31) . . .
39.7(33) . . .
45(4) . . .
40(4) . . .
39.9(34) . . .
30.1(28) . . .
32.5(30) . . .
34.7(33) . . .
37.0(34) . . .
45(4) . . .
33.6(30) . . .
55(4) . . .
40.2(35) . . .
31.4(32) . . .
39.9(35) . . .
35.8(31) . . .
39.4(34) . . .
34.2(31) . . .
47(4) . . .
52(4) . . .
38.5(32) . . .
47(4) . . .
44.0(35) . . .
42(4) . . .
35.4(31) . . .
43.1(34) . . .
31.7(29) . . .
36.8(32) . . .
38.2(33) . . .
34.7(32) . . .
45.4(35) . . .
47(4) . . .
32.5(29) . . .
37.5(34) . . .
38.7(34) . . .
40.9(33) . . .
47(4) . . .
48(4) . . .
42.6(35) . . .
33.9(30) . . .
42.6(34) . . .
49(4) . . .
42.5(35) . . .
40.3(35) . . .
44(4) . . .
40.0(33) . . .
39.8(33) . . .
40(4) . . .
51(4) . . .
49(4) . . .
42.3(35) . . .
49(4) . . .
42(4) . . .
39(4) . . .
35.4(33) . . .
50(4) . . .
39.7(34) . . .
44(4) . . .
36.8(34) . . .
32.5(30) . . .
41.3(33) . . .
47(4) . . .
51(4) . . .
51(4) . . .
40.2(35) . . .
41.3(33) . . .
48(4) . . .
44(4) . . .
33.5(31) . . .
38.0(32) . . .
36.8(31) . . .
41(4) . . .
38.9(35) . . .
35.5(33) . . .
41.9(35) . . .
39.2(33) . . .
29.4(29) . . .
36.3(33) . . .
37.5(32) . . .
29.5(28) . . .
34.5(31) . . .
44(4) . . .
47(4) . . .
41.3(34) . . .
36.3(32) . . .
36.6(32) . . .
33.1(31) . . .
44(4) . . .
46(4) . . .
36.4(31) . . .
34.2(32) . . .
31.4(30) . . .
38.5(33) . . .
39.3(33) . . .
38.0(32) . . .
39(4) . . .
38(4) . . .
33.5(32) . . .
35.2(33) . . .
34.0(30) . . .
42(4) . . .
34.4(33) . . .
35.3(32) . . .
47(4) . . .
43.2(34) . . .
37.6(32) . . .
41(4) . . .
38.0(33) . . .
40.4(34) . . .
37.9(33) . . .
41(4) . . .
42(4) . . .
48(4) . . .
39.9(32) . . .
32.3(30) . . .
43.4(35) . . .
40.0(35) . . .
46(4) . . .
41.5(33) . . .
42(4) . . .
40.3(34) . . .
40(4) . . .
38.8(34) . . .
36.0(32) . . .
32.7(31) . . .
27.1(28) . . .
41(4) . . .
40.6(34) . . .
34.8(31) . . .
38.2(33) . . .
36.7(33) . . .
40(4) . . .
35(4) . . .
48(4) . . .
47(4) . . .
41.0(35) . . .
41.0(34) . . .
45.0(35) . . .
42.3(34) . . .
37.9(32) . . .
36.7(35) . . .
26.8(27) . . .
29.5(29) . . .
36.3(31) . . .
39.7(34) . . .
42(4) . . .
43(4) . . .
38.5(34) . . .
40.1(33) . . .
34.3(31) . . .
37.6(34) . . .
45(4) . . .
42.4(35) . . .
39.3(32) . . .
40.9(34) . . .
43(4) . . .
35.7(32) . . .
38.6(33) . . .
35.3(31) . . .
42(4) . . .
35.0(32) . . .
46(4) . . .
36.8(32) . . .
37.1(31) . . .
45(4) . . .
42(4) . . .
48(4) . . .
39.5(33) . . .
29.3(28) . . .
43(4) . . .
34.2(31) . . .
42(4) . . .
39.7(33) . . .
42.8(35) . . .
38.4(33) . . .
47(4) . . .
34.4(31) . . .
44.2(34) . . .
39.3(32) . . .
39.2(33) . . .
41(4) . . .
41.2(34) . . .
45.1(35) . . .
50(4) . . .
49(4) . . .
50(4) . . .
53(4) . . .
38.8(33) . . .
41.5(34) . . .
49(4) . . .
44(4) . . .
41.5(34) . . .
39.8(33) . . .
35.1(31) . . .
30.8(28) . . .
41.8(35) . . .
43(4) . . .
39.8(33) . . .
44(4) . . .
41.2(33) . . .
42.8(35) . . .
35.7(32) . . .
38.3(32) . . .
35.0(32) . . .
44(4) . . .
35.9(32) . . .
46.2(35) . . .
42.9(35) . . .
46(4) . . .
40.5(34) . . .
38.7(33) . . .
42.5(34) . . .
36.2(32) . . .
34.7(32) . . .
50(4) . . .
37.5(33) . . .
36.5(32) . . .
39.1(32) . . .
41.0(34) . . .
41(4) . . .
32.5(30) . . .
31.2(29) . . .
34.6(31) . . .
39.1(33) . . .
35.2(33) . . .
43(4) . . .
49(4) . . .
33.2(29) . . .
37.8(33) . . .
45(4) . . .
33.7(30) . . .
36.2(31) . . .
42.5(35) . . .
48(4) . . .
44(4) . . .
34.2(30) . . .
39.3(33) . . .
30.9(29) . . .
44(4) . . .
34.7(32) . . .
40.1(35) . . .
41.1(33) . . .
39.3(34) . . .
40.5(35) . . .
38.3(34) . . .
46(4) . . .
42.9(35) . . .
35.7(31) . . .
40.5(34) . . .
38.9(33) . . .
41.2(33) . . .
35.6(31) . . .
34.6(32) . . .
40.6(35) . . .
34.4(31) . . .
43(4) . . .
35.3(31) . . .
40.5(34) . . .
42.0(35) . . .
41(4) . . .
36.6(32) . . .
47(4) . . .
37.6(33) . . .
42(4) . . .
47(4) . . .
33.4(30) . . .
42.3(34) . . .
45.0(35) . . .
31.8(30) . . .
42(4) . . .
35.4(30) . . .
40.6(34) . . .
39.5(33) . . .
42.2(35) . . .
31.9(29) . . .
42.6(34) . . .
47(4) . . .
43(4) . . .
37.8(33) . . .
35.1(31) . . .
49(4) . . .
37.8(33) . . .
35.3(32) . . .
39(4) . . .
44(4) . . .
34.7(31) . . .
40.1(33) . . .
36.3(32) . . .
37.8(34) . . .
36.3(33) . . .
35.3(31) . . .
38.9(32) . . .
40.7(34) . . .
38(4) . . .
31.7(33) . . .
40.1(33) . . .
43(4) . . .
37.5(34) . . .
38.1(33) . . .
33.3(30) . . .
36.3(31) . . .
41(4) . . .
28.5(28) . . .
38.2(34) . . .
35.5(32) . . .
39.4(33) . . .
34.6(31) . . .
45(4) . . .
41.6(35) . . .
37.5(34) . . .
43.0(34) . . .
50(4) . . .
38.7(34) . . .
36.9(34) . . .
39.0(33) . . .
38.2(34) . . .
48(4) . . .
44(4) . . .
48(4) . . .
43.2(34) . . .
36.1(31) . . .
39.8(33) . . .
37.0(33) . . .
43(4) . . .
32.6(29) . . .
39.6(34) . . .
38.0(33) . . .
39(4) . . .
37.8(34) . . .
40.7(33) . . .
39.0(33) . . .
44(4) . . .
32.7(31) . . .
47(4) . . .
36.0(31) . . .
35.6(32) . . .
32.5(31) . . .
44(4) . . .
35.7(31) . . .
31.1(29) . . .
36.5(32) . . .
47(4) . . .
42(4) . . .
46(4) . . .
34.4(31) . . .
35.6(31) . . .
44(4) . . .
38.8(33) . . .
34.0(31) . . .
36.0(31) . . .
35.1(31) . . .
41(4) . . .
41(4) . . .
37.5(33) . . .
45.3(35) . . .
39.8(34) . . .
34.8(31) . . .
39.7(34) . . .
45(4) . . .
34.1(31) . . .
37.2(34) . . .
38.1(34) . . .
33.9(31) . . .
42.3(34) . . .
37.5(33) . . .
35.6(32) . . .
39.6(35) . . .
36.5(33) . . .
37.3(33) . . .
31.8(30) . . .
42.0(35) . . .
37.6(33) . . .
44(4) . . .
40.3(33) . . .
35.5(32) . . .
45(4) . . .
34.7(31) . . .
50(4) . . .
37.3(32) . . .
39.2(33) . . .
38.8(34) . . .
37.7(35) . . .
38.7(35) . . .
41.5(33) . . .
38.0(34) . . .
33.6(31) . . .
35.7(33) . . .
34.3(31) . . .
40.1(34) . . .
39.5(32) . . .
40.4(34) . . .
32.2(31) . . .
47(4) . . .
35.4(31) . . .
38.4(33) . . .
35.8(33) . . .
41(4) . . .
46(4) . . .
53(4) . . .
42.6(34) . . .
42(4) . . .
35.1(31) . . .
45(4) . . .
40.7(33) . . .
38.6(34) . . .
39.0(34) . . .
32.8(29) . . .
34.0(32) . . .
37.6(31) . . .
41(4) . . .
51(4) . . .
41.7(35) . . .
36.4(31) . . .
39.4(33) . . .
41.2(34) . . .
40.8(33) . . .
45(4) . . .
40.2(33) . . .
38.4(34) . . .
46(4) . . .
46(4) . . .
33.0(33) . . .
31.9(29) . . .
43.3(34) . . .
34.8(32) . . .
33.1(33) . . .
38.0(34) . . .
33.9(31) . . .
34.8(31) . . .
37.5(34) . . .
36.9(34) . . .
35.6(32) . . .
36.2(31) . . .
43.8(35) . . .
33.6(30) . . .
39.3(34) . . .
35.2(33) . . .
32.2(29) . . .
42.0(33) . . .
43(4) . . .
50(4) . . .
43(4) . . .
44.2(35) . . .
35.8(32) . . .
42(4) . . .
38.6(33) . . .
35.5(32) . . .
36.9(31) . . .
39.9(34) . . .
36.8(33) . . .
48(4) . . .
43.2(34) . . .
39.4(33) . . .
40.4(34) . . .
34.3(31) . . .
41(4) . . .
38.1(32) . . .
40.6(33) . . .
43(4) . . .
44(4) . . .
42.5(35) . . .
46(4) . . .
43.7(34) . . .
39.8(33) . . .
43(4) . . .
40.6(33) . . .
40.0(33) . . .
40.7(33) . . .
39.4(34) . . .
34.6(32) . . .
37.5(33) . . .
36.4(32) . . .
36.2(32) . . .
34.8(31) . . .
36.2(32) . . .
31.0(28) . . .
34.1(31) . . .
32.8(30) . . .
38.7(34) . . .
32.8(31) . . .
42.8(34) . . .
39.2(33) . . .
41.0(34) . . .
39.5(35) . . .
36.0(34) . . .
37.6(34) . . .
35.3(31) . . .
40.8(34) . . .
39.0(35) . . .
34.0(33) . . .
35.7(33) . . .
38.1(33) . . .
41.1(34) . . .
45(4) . . .
39.2(34) . . .
35.7(32) . . .
43.4(34) . . .
39.6(32) . . .
37.4(32) . . .
44(4) . . .
41.4(35) . . .
43.1(34) . . .
46(4) . . .
50(4) . . .
42.6(35) . . .
47(4) . . .
35.2(31) . . .
42(4) . . .
38.9(34) . . .
43.6(35) . . .
39.9(33) . . .
29.6(28) . . .
42.1(35) . . .
39.0(34) . . .
38.3(32) . . .
42.3(35) . . .
36.4(31) . . .
36.2(32) . . .
33.5(32) . . .
48(4) . . .
40.1(33) . . .
44.7(35) . . .
47(4) . . .
37.9(33) . . .
37.7(33) . . .
36.7(32) . . .
32.8(30) . . .
40.9(34) . . .
40.1(34) . . .
37.3(34) . . .
36.6(32) . . .
38.4(34) . . .
33.2(30) . . .
43(4) . . .
38.3(33) . . .
40.5(33) . . .
46(4) . . .
37.0(32) . . .
45(4) . . .
33.5(31) . . .
35.8(31) . . .
42.0(33) . . .
36.8(34) . . .
35.4(33) . . .
36.8(33) . . .
29.4(28) . . .
40.5(35) . . .
36.3(32) . . .
44(4) . . .
46(4) . . .
36.1(31) . . .
40(4) . . .
37.7(33) . . .
43.5(35) . . .
47(4) . . .
46(4) . . .
43(4) . . .
32.3(29) . . .
47(4) . . .
45.3(35) . . .
36.6(31) . . .
35.6(31) . . .
35.6(32) . . .
54(4) . . .
48(4) . . .
40.3(33) . . .
34.3(32) . . .
42(4) . . .
41.9(34) . . .
37.1(32) . . .
39.9(33) . . .
34.1(30) . . .
40.0(35) . . .
44(4) . . .
41.9(34) . . .
40.8(33) . . .
37.5(34) . . .
34.3(33) . . .
40(4) . . .
39.2(32) . . .
38.4(33) . . .
37.5(32) . . .
40(4) . . .
34.3(33) . . .
37.3(32) . . .
43.5(35) . . .
30.9(29) . . .
46(4) . . .
46(4) . . .
42.9(34) . . .
36.1(33) . . .
42.5(35) . . .
40.5(34) . . .
40.2(35) . . .
41.8(34) . . .
30.6(29) . . .
35.2(32) . . .
40.7(34) . . .
39.9(33) . . .
42.5(34) . . .
38.6(34) . . .
41.9(35) . . .
43.9(35) . . .
48(4) . . .
39.8(33) . . .
38.4(35) . . .
35.9(33) . . .
28.4(27) . . .
34.5(31) . . .
41.0(33) . . .
44(4) . . .
42(4) . . .
33.8(31) . . .
40.5(33) . . .
32.6(30) . . .
36.8(33) . . .
46(4) . . .
34.4(31) . . .
35.1(31) . . .
44.4(34) . . .
36.2(32) . . .
40(4) . . .
35.5(32) . . .
48(4) . . .
38.9(33) . . .
36.8(33) . . .
32.8(32) . . .
35.5(33) . . .
42.4(34) . . .
41.3(34) . . .
45(4) . . .
43(4) . . .
32.6(30) . . .
38.4(32) . . .
35.9(32) . . .
45(4) . . .
34.5(32) . . .
36.6(35) . . .
42.0(34) . . .
40.6(34) . . .
34.7(31) . . .
44(4) . . .
27.0(27) . . .
42.5(34) . . .
34.1(30) . . .
40.3(33) . . .
52(4) . . .
37.6(32) . . .
41.1(33) . . .
36.7(32) . . .
40.8(34) . . .
45(4) . . .
40.2(34) . . .
40.7(33) . . .
46(4) . . .
43(4) . . .
42(4) . . .
34.3(33) . . .
38.0(32) . . .
36.1(31) . . .
44(4) . . .
30.0(29) . . .
29.9(28) . . .
40.1(33) . . .
40.5(35) . . .
37.0(33) . . .
31.2(30) . . .
28.6(29) . . .
33.8(30) . . .
30.8(30) . . .
39.8(35) . . .
43(4) . . .
38.2(33) . . .
39.0(33) . . .
35.0(31) . . .
54(4) . . .
33.8(30) . . .
28.6(27) . . .
35.5(31) . . .
46(4) . . .
43(4) . . .
43(4) . . .
41.4(33) . . .
45(4) . . .
36.9(33) . . .
39.9(35) . . .
40.7(34) . . .
37.5(32) . . .
38.5(32) . . .
39.9(33) . . .
35.1(31) . . .
39.3(33) . . .
33.6(31) . . .
42.0(34) . . .
38.4(34) . . .
33.2(30) . . .
42.8(34) . . .
44.3(35) . . .
37.5(32) . . .
36.0(32) . . .
39.3(34) . . .
32.7(30) . . .
26.2(27) . . .
38.7(33) . . .
28.9(28) . . .
40.8(35) . . .
39.7(33) . . .
46(4) . . .
29.8(29) . . .
37(4) . . .
37.5(34) . . .
34.5(32) . . .
42.7(34) . . .
45(4) . . .
37.8(34) . . .
38.4(34) . . .
31.6(30) . . .
35.5(31) . . .
36.8(34) . . .
39(4) . . .
36.0(34) . . .
39.5(33) . . .
41.8(33) . . .
36.0(32) . . .
43(4) . . .
45(4) . . .
40.5(34) . . .
42.4(34) . . .
39.8(33) . . .
36.5(32) . . .
49(4) . . .
34.3(30) . . .
39.8(34) . . .
41.5(34) . . .
39.9(34) . . .
41(4) . . .
47(4) . . .
43.4(35) . . .
43(4) . . .
39.3(33) . . .
47(4) . . .
43.7(34) . . .
43.0(34) . . .
36.5(33) . . .
54(4) . . .
43(4) . . .
31.6(30) . . .
40(4) . . .
42.2(35) . . .
38.7(35) . . .
42.1(35) . . .
39.9(32) . . .
40.7(35) . . .
48(4) . . .
42(4) . . .
40.8(33) . . .
32.4(30) . . .
39.9(34) . . .
46(4) . . .
47(4) . . .
47(4) . . .
39.6(33) . . .
41.0(33) . . .
43.9(35) . . .
42.2(35) . . .
46(4) . . .
30.4(29) . . .
37.0(32) . . .
46(4) . . .
43(4) . . .
37.0(33) . . .
39.3(32) . . .
48(4) . . .
36.5(35) . . .
32.9(31) . . .
41.3(34) . . .
36.5(31) . . .
36.4(34) . . .
35.6(34) . . .
39.7(34) . . .
36.0(31) . . .
48(4) . . .
42.3(35) . . .
45(4) . . .
42(4) . . .
42.9(34) . . .
32.2(29) . . .
43(4) . . .
38.9(33) . . .
45(4) . . .
43.3(34) . . .
39.0(33) . . .
32.2(30) . . .
31.4(30) . . .
35.5(34) . . .
40.6(33) . . .
42(4) . . .
36.6(32) . . .
38.7(32) . . .
49(4) . . .
39.5(33) . . .
47(4) . . .
36.1(32) . . .
40.8(35) . . .
41.3(33) . . .
30.8(29) . . .
38.4(33) . . .
38.2(33) . . .
39(4) . . .
36.7(32) . . .
36.2(31) . . .
37.2(33) . . .
32.3(31) . . .
28.7(29) . . .
39.7(33) . . .
41.7(34) . . .
43(4) . . .
36.1(33) . . .
32.9(30) . . .
39.0(34) . . .
31.7(29) . . .
28.6(30) . . .
36.6(34) . . .
50(4) . . .
48(4) . . .
41.2(34) . . .
36.3(33) . . .
35.3(33) . . .
37.0(32) . . .
45(4) . . .
37.7(35) . . .
36.2(33) . . .
37.2(33) . . .
49(4) . . .
38.8(33) . . .
38.3(34) . . .
39.5(34) . . .
34.7(30) . . .
38.4(33) . . .
33.3(31) . . .
38.2(32) . . .
39.4(34) . . .
46(4) . . .
44(4) . . .
33.2(30) . . .
32.0(30) . . .
39(4) . . .
33.5(32) . . .
36.5(31) . . .
40.5(34) . . .
39.0(35) . . .
33.0(31) . . .
32.3(30) . . .
33.2(31) . . .
48(4) . . .
35.5(31) . . .
38.6(35) . . .
38.7(35) . . .
44.5(35) . . .
43.3(35) . . .
40(4) . . .
42(4) . . .
41.5(35) . . .
38.8(33) . . .
29.8(28) . . .
42.1(35) . . .
38.6(34) . . .
35.8(31) . . .
33.0(30) . . .
41.2(34) . . .
32.2(30) . . .
42(4) . . .
46(4) . . .
42.8(33) . . .
40.3(34) . . .
40.0(35) . . .
37.6(33) . . .
44(4) . . .
34.6(31) . . .
34.0(30) . . .
38.8(33) . . .
34.1(33) . . .
38.2(34) . . .
47(4) . . .
48(4) . . .
36.5(31) . . .
35.6(32) . . .
27.1(30) . . .
32.9(31) . . .
41(4) . . .
37.7(33) . . .
42(4) . . .
33.4(32) . . .
28.7(28) . . .
43(4) . . .
46(4) . . .
40(4) . . .
33.8(31) . . .
43.8(35) . . .
44.7(35) . . .
33.2(31) . . .
34.3(31) . . .
42.2(34) . . .
50(4) . . .
42(4) . . .
40.3(35) . . .
46(4) . . .
38.9(33) . . .
32.2(30) . . .
39.5(34) . . .
38.8(34) . . .
40.4(34) . . .
35.4(31) . . .
42.1(34) . . .
41.1(35) . . .
44(4) . . .
38.5(33) . . .
36.3(32) . . .
37.2(32) . . .
35.9(32) . . .
33.8(30) . . .
38.0(33) . . .
33.5(31) . . .
46(4) . . .
46(4) . . .
42(4) . . .
36.5(32) . . .
33.6(30) . . .
41.3(33) . . .
45(4) . . .
30.0(28) . . .
45(4) . . .
37.1(32) . . .
40.5(33) . . .
41.3(34) . . .
37.4(32) . . .
39.3(34) . . .
31.8(30) . . .
39.9(34) . . .
39(4) . . .
42(4) . . .
44(4) . . .
38.9(32) . . .
40.9(35) . . .
35.8(33) . . .
34.0(31) . . .
35.1(33) . . .
46(4) . . .
43.6(34) . . .
40.8(35) . . .
38.2(33) . . .
36.9(33) . . .
33.3(30) . . .
35.2(33) . . .
31.9(31) . . .
31.9(32) . . .
34.1(31) . . .
40.6(34) . . .
44(4) . . .
37.9(34) . . .
37.9(33) . . .
40.1(33) . . .
43.9(34) . . .
42.6(35) . . .
38(4) . . .
34.5(31) . . .
36.5(32) . . .
31.8(29) . . .
44(4) . . .
33.0(34) . . .
45(4) . . .
37.3(32) . . .
36.8(31) . . .
33.9(31) . . .
43(4) . . .
41.3(35) . . .
40.2(33) . . .
38.3(32) . . .
42(4) . . .
40(4) . . .
40.9(34) . . .
44.5(35) . . .
41.1(34) . . .
44(4) . . .
33.6(31) . . .
37.7(33) . . .
39.8(33) . . .
32.7(31) . . .
38.5(33) . . .
44(4) . . .
40.0(34) . . .
36.8(32) . . .
34.0(30) . . .
34.8(32) . . .
44(4) . . .
38.0(33) . . .
30.5(29) . . .
37.3(32) . . .
40.6(34) . . .
46(4) . . .
38.9(33) . . .
29.2(28) . . .
38(4) . . .
31.0(30) . . .
40(4) . . .
33.2(30) . . .
42.1(34) . . .
36.8(33) . . .
36.4(33) . . .
37.3(33) . . .
39.1(33) . . .
32.2(29) . . .
39(4) . . .
39.3(34) . . .
36.2(32) . . .
31.5(29) . . .
33.9(30) . . .
38.3(34) . . .
36.8(33) . . .
46(4) . . .
40.8(33) . . .
36.5(31) . . .
41.3(35) . . .
35.8(33) . . .
37.1(32) . . .
33.8(31) . . .
34.2(31) . . .
47(4) . . .
43.1(35) . . .
40.7(33) . . .
36.0(31) . . .
39.0(34) . . .
40.8(34) . . .
35.4(31) . . .
37.3(33) . . .
34.8(31) . . .
43.6(34) . . .
37.7(32) . . .
37.2(32) . . .
41.8(34) . . .
46(4) . . .
49(4) . . .
42(4) . . .
32.4(31) . . .
37.4(33) . . .
43.2(34) . . .
42.3(34) . . .
33.8(31) . . .
39.5(34) . . .
43(4) . . .
38.4(32) . . .
40.1(34) . . .
36.4(32) . . .
35.1(33) . . .
40.3(33) . . .
34.5(31) . . .
37.2(32) . . .
48(4) . . .
44(4) . . .
42.2(34) . . .
36.5(32) . . .
39.0(34) . . .
39(4) . . .
47(4) . . .
42.6(34) . . .
35.0(31) . . .
35.5(31) . . .
36.5(32) . . .
46(4) . . .
34.6(31) . . .
38.4(32) . . .
37.5(33) . . .
42(4) . . .
48(4) . . .
38.8(32) . . .
34.1(31) . . .
41(4) . . .
35(4) . . .
36.4(34) . . .
35.8(31) . . .
37.7(33) . . .
29.2(28) . . .
36(4) . . .
33.8(33) . . .
43.7(35) . . .
37.3(32) . . .
38.7(33) . . .
40(4) . . .
33.1(33) . . .
38.8(32) . . .
29.9(28) . . .
38.3(34) . . .
33.9(32) . . .
42(4) . . .
34.1(30) . . .
39.5(33) . . .
42.2(33) . . .
39.5(34) . . .
33.5(31) . . .
41.6(34) . . .
41(4) . . .
33.8(30) . . .
41.7(35) . . .
35.7(33) . . .
34.2(30) . . .
36.8(32) . . .
30.0(29) . . .
34.1(31) . . .
43.0(34) . . .
38.7(32) . . .
34.1(32) . . .
32.8(32) . . .
39.9(34) . . .
36.1(32) . . .
36.2(31) . . .
33.0(30) . . .
32.6(32) . . .
36.0(32) . . .
35.4(31) . . .
33.0(30) . . .
38.1(33) . . .
35.6(33) . . .
35.6(32) . . .
34.1(31) . . .
37.6(32) . . .
38.0(34) . . .
37.7(35) . . .
47(4) . . .
31.3(30) . . .
30.9(29) . . .
37.5(34) . . .
32.8(33) . . .
32.4(31) . . .
35.9(31) . . .
34.3(31) . . .
38.8(33) . . .
33.7(31) . . .
35.5(30) . . .
35.3(31) . . .
33.0(31) . . .
40(4) . . .
38.6(33) . . .
41.5(34) . . .
34.1(31) . . .
41.5(34) . . .
42(4) . . .
44(4) . . .
41.7(34) . . .
43.4(34) . . .
36(4) . . .
39(4) . . .
42(4) . . .
33.1(30) . . .
35.9(31) . . .
32.0(30) . . .
36.5(34) . . .
30.5(30) . . .
38.0(32) . . .
41.9(33) . . .
39.2(34) . . .
38(4) . . .
30.2(30) . . .
33.5(32) . . .
38.8(33) . . .
36.7(33) . . .
32.4(30) . . .
38.9(32) . . .
38.2(32) . . .
36.7(32) . . .
37.0(33) . . .
31.1(29) . . .
31.2(30) . . .
38.9(33) . . .
45.2(35) . . .
44.5(35) . . .
37.6(34) . . .
31.3(30) . . .
38.1(32) . . .
30.9(29) . . .
30.5(32) . . .
41(4) . . .
50(4) . . .
43.0(34) . . .
35.2(31) . . .
32.8(31) . . .
34.8(33) . . .
32.6(31) . . .
41.9(34) . . .
37.1(32) . . .
44(4) . . .
44(4) . . .
32.7(30) . . .
43.0(34) . . .
33.6(30) . . .
38.7(34) . . .
40(4) . . .
35.5(31) . . .
36.2(31) . . .
34.4(33) . . .
42(4) . . .
49(4) . . .
34.8(31) . . .
34.0(30) . . .
32.8(31) . . .
38.3(34) . . .
32.9(32) . . .
40.7(34) . . .
47(4) . . .
43(4) . . .
38(4) . . .
33.0(32) . . .
28.2(27) . . .
31.2(29) . . .
37.5(33) . . .
29.9(30) . . .
38.0(33) . . .
43.0(34) . . .
41.5(33) . . .
33.1(31) . . .
41(4) . . .
38.3(34) . . .
35.4(31) . . .
39.0(34) . . .
33.0(30) . . .
44(4) . . .
33.3(33) . . .
29.3(28) . . .
39.4(32) . . .
35.8(33) . . .
43(4) . . .
27.4(27) . . .
36.5(31) . . .
37.4(32) . . .
32.3(30) . . .
32.2(31) . . .
46(4) . . .
32.1(29) . . .
36.8(32) . . .
34.9(34) . . .
38.0(35) . . .
38.9(32) . . .
33.4(30) . . .
37.6(32) . . .
35.5(32) . . .
36.8(34) . . .
34.4(30) . . .
38.3(32) . . .
33.2(30) . . .
33.0(31) . . .
45(4) . . .
37.6(33) . . .
34.9(30) . . .
38.7(33) . . .
40(4) . . .
28.8(31) . . .
36.3(32) . . .
36.7(32) . . .
35.9(32) . . .
33.0(32) . . .
38.3(32) . . .
33.5(29) . . .
42.0(34) . . .
36.1(32) . . .
35.2(31) . . .
43(4) . . .
32.0(29) . . .
29.3(28) . . .
39.2(34) . . .
34.4(33) . . .
39(4) . . .
40.3(33) . . .
34.9(31) . . .
42(4) . . .
45(4) . . .
25.9(26) . . .
34.8(31) . . .
32.2(30) . . .
45(4) . . .
40(4) . . .
28.3(29) . . .
35.7(31) . . .
28.9(28) . . .
38(4) . . .
34.6(34) . . .
36.1(34) . . .
34.0(30) . . .
34.8(31) . . .
36.3(33) . . .
35.1(33) . . .
35.6(32) . . .
32.2(30) . . .
33.5(30) . . .
42.8(35) . . .
42.5(34) . . .
43.9(35) . . .
35.3(31) . . .
27.5(28) . . .
37.8(34) . . .
35.5(32) . . .
37.6(33) . . .
32.1(30) . . .
37.6(32) . . .
33.8(30) . . .
34.7(30) . . .
35.7(32) . . .
39.5(33) . . .
32.2(32) . . .
40.9(35) . . .
33.0(29) . . .
45(4) . . .
39.4(33) . . .
30.0(30) . . .
28.7(30) . . .
32.1(31) . . .
35.7(32) . . .
27.5(27) . . .
40.8(34) . . .
48(4) . . .
38.7(33) . . .
30.5(29) . . .
26.4(27) . . .
39.1(33) . . .
44.6(35) . . .
39.1(33) . . .
35.7(31) . . .
25.5(26) . . .
31.1(31) . . .
34.8(33) . . .
28.5(29) . . .
37.2(32) . . .
36.3(31) . . .
34.4(32) . . .
38(4) . . .
50(4) . . .
34.1(30) . . .
35.3(32) . . .
37.3(33) . . .
34.7(32) . . .
33.6(32) . . .
35.2(31) . . .
36.1(31) . . .
34.5(33) . . .
43(4) . . .
39.1(34) . . .
35.8(31) . . .
41.9(34) . . .
36.1(33) . . .
35.8(32) . . .
31.1(31) . . .
34.3(31) . . .
39.3(32) . . .
36.2(32) . . .
42(4) . . .
44(4) . . .
33.7(30) . . .
35.1(32) . . .
38.8(34) . . .
36.0(31) . . .
35.1(30) . . .
32.0(30) . . .
40.1(34) . . .
30.3(29) . . .
33.0(31) . . .
36.7(32) . . .
47.1(35) . . .
41.7(35) . . .
38.2(34) . . .
36.1(33) . . .
33.3(30) . . .
41.8(34) . . .
30.8(28) . . .
34.2(33) . . .
31.1(32) . . .
35.0(31) . . .
29.5(28) . . .
43(4) . . .
39(4) . . .
36.8(33) . . .
30.5(28) . . .
37.5(34) . . .
40.3(34) . . .
35.6(32) . . .
32.4(30) . . .
36.8(32) . . .
39.4(32) . . .
35.0(33) . . .
36.1(33) . . .
33.8(31) . . .
35.5(31) . . .
35.3(32) . . .
38.9(34) . . .
36.7(35) . . .
40(4) . . .
34.9(31) . . .
38.8(35) . . .
39.2(34) . . .
35.7(33) . . .
34.1(32) . . .
31.9(30) . . .
31.3(29) . . .
37.0(31) . . .
41(4) . . .
33.7(31) . . .
34.9(31) . . .
38.0(35) . . .
38(4) . . .
27.9(28) . . .
33.7(31) . . .
30.2(29) . . .
47(4) . . .
34.8(33) . . .
37.6(33) . . .
29.1(28) . . .
30.2(29) . . .
30.9(29) . . .
34.2(34) . . .
32.8(32) . . .
39.4(33) . . .
52(4) . . .
30.4(30) . . .
43(4) . . .
32.6(30) . . .
32.3(30) . . .
27.4(27) . . .
37.2(32) . . .
41(4) . . .
39.4(34) . . .
38.1(32) . . .
41.3(33) . . .
43(4) . . .
32.1(33) . . .
32.0(31) . . .
40.9(33) . . .
32.3(30) . . .
30.6(30) . . .
42(4) . . .
27.6(28) . . .
38.9(33) . . .
32.4(30) . . .
35.7(33) . . .
36.2(34) . . .
31.0(29) . . .
45.8(35) . . .
35.2(31) . . .
47(4) . . .
44(4) . . .
47(4) . . .
31.7(30) . . .
39.7(33) . . .
32.6(31) . . .
35.9(33) . . .
35.6(31) . . .
29.8(29) . . .
31.8(29) . . .
39.2(34) . . .
28.9(29) . . .
37.6(34) . . .
27.1(27) . . .
33.4(30) . . .
38(4) . . .
39.7(35) . . .
26.4(27) . . .
30.4(29) . . .
29.8(29) . . .
41(4) . . .
32.8(30) . . .
38.4(32) . . .
38.2(33) . . .
33.6(30) . . .
42(4) . . .
47(4) . . .
37.2(31) . . .
38.8(33) . . .
39.3(33) . . .
39(4) . . .
35.3(31) . . .
44.1(35) . . .
39.0(33) . . .
37.5(33) . . .
43(4) . . .
38.4(33) . . .
38.5(32) . . .
33.4(30) . . .
36.1(32) . . .
44(4) . . .
34.0(32) . . .
39.3(32) . . .
39.4(33) . . .
30.5(29) . . .
41(4) . . .
32.9(30) . . .
33.7(31) . . .
39.7(33) . . .
39.5(34) . . .
37.8(34) . . .
38(4) . . .
34.2(30) . . .
40.6(33) . . .
36.9(33) . . .
35.3(32) . . .
38.7(33) . . .
43.9(34) . . .
38.5(33) . . .
32.2(30) . . .
37.5(34) . . .
24.9(26) . . .
32.2(30) . . .
32.6(30) . . .
37.0(34) . . .
42(4) . . .
36.8(33) . . .
36.0(31) . . .
37.8(33) . . .
34.9(34) . . .
33.6(33) . . .
34.7(31) . . .
38.9(33) . . .
42(4) . . .
37.3(35) . . .
38.0(32) . . .
34.7(31) . . .
26.1(27) . . .
32.7(31) . . .
35.2(31) . . .
44(4) . . .
34.7(31) . . .
41.0(33) . . .
39.5(35) . . .
36.6(34) . . .
41.3(33) . . .
40.1(34) . . .
36.8(31) . . .
42(4) . . .
37.9(32) . . .
43(4) . . .
33.0(30) . . .
36.1(32) . . .
40.0(34) . . .
29.4(30) . . .
36.7(35) . . .
31.8(30) . . .
39.6(34) . . .
31.9(32) . . .
34.4(32) . . .
41.4(34) . . .
38.3(32) . . .
27.5(28) . . .
33.1(32) . . .
33.4(32) . . .
35.9(32) . . .
32.0(30) . . .
33.2(33) . . .
28.9(29) . . .
35.2(31) . . .
29.4(28) . . .
32.7(30) . . .
39.3(34) . . .
37.6(33) . . .
43(4) . . .
36.7(32) . . .
35.3(31) . . .
37.9(33) . . .
37.1(33) . . .
34.5(31) . . .
31.9(29) . . .
22.6(25) . . .
28.3(32) . . .
37.2(35) . . .
26.5(27) . . .
33.5(32) . . .
36.5(31) . . .
38.1(33) . . .
30.3(28) . . .
34.4(31) . . .
34.9(30) . . .
33.1(33) . . .
34(4) . . .
36.5(35) . . .
41.5(34) . . .
39.9(33) . . .
41.0(33) . . .
38.8(33) . . .
37.6(33) . . .
39.2(34) . . .
29.2(28) . . .
33.7(30) . . .
34.1(33) . . .
35.4(32) . . .
37.8(33) . . .
32.2(30) . . .
49(4) . . .
39.9(34) . . .
35.2(33) . . .
41(4) . . .
44.0(34) . . .
32.9(30) . . .
36.4(32) . . .
33.0(31) . . .
32.2(30) . . .
33.2(30) . . .
35.3(31) . . .
30.3(29) . . .
35.9(33) . . .
38.2(33) . . .
35.3(31) . . .
35.8(31) . . .
34.4(32) . . .
30.6(30) . . .
26.4(27) . . .
34.2(30) . . .
43(4) . . .
32.6(33) . . .
32.3(31) . . .
48(4) . . .
34.3(31) . . .
39.7(34) . . .
41(4) . . .
40.5(34) . . .
36.4(32) . . .
32.0(29) . . .
39.6(34) . . .
36.0(32) . . .
38.7(34) . . .
39.3(34) . . .
35.2(31) . . .
40.2(33) . . .
38.4(32) . . .
40.0(34) . . .
31.9(30) . . .
34.4(30) . . .
28.9(28) . . .
31.0(30) . . .
31.1(31) . . .
44.7(34) . . .
43(4) . . .
33.9(30) . . .
38.9(34) . . .
33.7(32) . . .
40.6(33) . . .
37.9(32) . . .
38.6(32) . . .
33.8(30) . . .
35.2(32) . . .
40.2(32) . . .
39.9(33) . . .
29.2(29) . . .
40(4) . . .
37.5(32) . . .
37.2(32) . . .
39.3(34) . . .
42(4) . . .
37.9(34) . . .
41.3(34) . . .
28.4(28) . . .
40.0(34) . . .
35.0(33) . . .
37.9(34) . . .
39.1(33) . . .
30.5(29) . . .
33.9(32) . . .
32.6(30) . . .
35.6(34) . . .
32.7(31) . . .
36.9(33) . . .
35.0(33) . . .
35.9(33) . . .
45(4) . . .
38.1(32) . . .
36.5(31) . . .
43.1(34) . . .
41(4) . . .
41.7(35) . . .
29.5(29) . . .
27.8(28) . . .
24.7(25) . . .
34.2(33) . . .
32.9(30) . . .
43.4(34) . . .
43.6(35) . . .
33.9(32) . . .
31.8(33) . . .
39(4) . . .
40.7(35) . . .
36.0(31) . . .
46(4) . . .
35.3(31) . . .
38.6(32) . . .
37.3(33) . . .
33.9(30) . . .
40(4) . . .
43(4) . . .
40.7(34) . . .
43.3(35) . . .
43(4) . . .
34.4(33) . . .
29.4(30) . . .
51(4) . . .
39.5(32) . . .
43(4) . . .
31.1(30) . . .
33.0(32) . . .
32.6(30) . . .
42.5(35) . . .
39.7(33) . . .
37.6(33) . . .
38.5(34) . . .
39.3(34) . . .
37.7(32) . . .
30.5(29) . . .
38.0(32) . . .
40.0(34) . . .
37.1(32) . . .
28.3(28) . . .
35.7(33) . . .
29.7(29) . . .
47(4) . . .
36.5(33) . . .
36.7(32) . . .
25.3(28) . . .
25.5(28) . . .
34.5(32) . . .
35.4(31) . . .
37.2(32) . . .
35.7(33) . . .
33.2(33) . . .
34.6(32) . . .
32.5(29) . . .
28.3(28) . . .
39.7(33) . . .
41(4) . . .
36.4(33) . . .
36.3(32) . . .
33.0(30) . . .
33.3(31) . . .
39(4) . . .
40.3(34) . . .
36.5(31) . . .
38.5(32) . . .
36.6(32) . . .
37.7(34) . . .
36.1(31) . . .
35.7(31) . . .
37.4(32) . . .
38.5(33) . . .
36.7(31) . . .
36.1(33) . . .
38.2(32) . . .
40.3(35) . . .
32.6(30) . . .
35.1(31) . . .
32.8(30) . . .
30.5(29) . . .
36.2(32) . . .
41.4(35) . . .
35.4(32) . . .
38.9(34) . . .
41.0(33) . . .
41(4) . . .
32.1(31) . . .
36.9(33) . . .
35.0(31) . . .
42.8(34) . . .
37.3(32) . . .
35.1(33) . . .
42(4) . . .
33.5(30) . . .
39.5(33) . . .
33.7(30) . . .
42(4) . . .
37.1(34) . . .
29.6(29) . . .
33.0(31) . . .
40(4) . . .
34.8(32) . . .
38.0(34) . . .
32.6(31) . . .
26.6(28) . . .
32.0(31) . . .
41(4) . . .
35.7(30) . . .
43.1(34) . . .
31.9(30) . . .
34.7(32) . . .
33.8(33) . . .
29.8(29) . . .
37.8(32) . . .
35.5(33) . . .
31.6(32) . . .
37.3(34) . . .
42(4) . . .
29.4(28) . . .
30.3(29) . . .
37.0(32) . . .
24.5(27) . . .
35.6(34) . . .
32.3(29) . . .
37.0(33) . . .
26.2(27) . . .
42(4) . . .
36.7(32) . . .
34.9(31) . . .
34.4(31) . . .
37.3(34) . . .
37.6(32) . . .
28.7(28) . . .
29.4(29) . . .
36.1(33) . . .
34.4(34) . . .
36.3(34) . . .
22.6(25) . . .
30.8(29) . . .
27.5(31) . . .
32.7(32) . . .
34.5(32) . . .
34.3(32) . . .
31.2(30) . . .
37.1(32) . . .
35.5(32) . . .
32.4(30) . . .
34.3(33) . . .
35.7(32) . . .
40.7(34) . . .
37.6(34) . . .
29.8(28) . . .
35.6(31) . . .
31.6(29) . . .
31.9(29) . . .
29.3(30) . . .
38(4) . . .
33.5(30) . . .
35.8(31) . . .
37.3(34) . . .
35(4) . . .
34.0(34) . . .
34.7(31) . . .
37.8(31) . . .
30.8(30) . . .
40(4) . . .
31.8(31) . . .
38.8(32) . . .
34.0(30) . . .
39.0(34) . . .
38(4) . . .
35.0(31) . . .
36.0(32) . . .
38.8(33) . . .
37.5(32) . . .
35.8(33) . . .
36.6(33) . . .
29.1(28) . . .
45(4) . . .
32.8(30) . . .
29.9(28) . . .
32.1(32) . . .
37.8(32) . . .
30.1(31) . . .
37.5(33) . . .
27.2(27) . . .
37.2(33) . . .
40.1(33) . . .
33.1(32) . . .
37.6(34) . . .
31.0(29) . . .
28.4(28) . . .
29.6(28) . . .
48(4) . . .
35.2(31) . . .
29.4(30) . . .
28.9(28) . . .
37.1(32) . . .
39(4) . . .
28.1(29) . . .
31.2(29) . . .
31.2(29) . . .
44.1(35) . . .
40.2(34) . . .
37.7(35) . . .
38.4(33) . . .
33.3(29) . . .
30.4(29) . . .
35.3(32) . . .
42(4) . . .
41(4) . . .
30.2(29) . . .
43.6(34) . . .
35.3(31) . . .
33.5(30) . . .
38.6(34) . . .
35.9(32) . . .
37.8(31) . . .
38.9(33) . . .
30.4(28) . . .
39.8(34) . . .
30.6(29) . . .
31.2(30) . . .
33.4(31) . . .
37.0(35) . . .
35.3(33) . . .
37.8(32) . . .
39.6(33) . . .
33.0(31) . . .
36.8(34) . . .
42(4) . . .
33.9(30) . . .
37.3(33) . . .
40(4) . . .
35.0(31) . . .
38.9(34) . . .
36.6(32) . . .
30.8(30) . . .
38.8(35) . . .
33.2(30) . . .
45(4) . . .
29.0(28) . . .
36.3(32) . . .
38.6(35) . . .
35.8(34) . . .
30.5(29) . . .
33.8(30) . . .
35.1(35) . . .
38(4) . . .
31.9(32) . . .
36.5(31) . . .
36.0(31) . . .
35.6(31) . . .
38.9(35) . . .
34.3(32) . . .
34.2(30) . . .
42(4) . . .
37.5(32) . . .
30.6(30) . . .
30.6(31) . . .
40.7(33) . . .
32.4(31) . . .
37.5(34) . . .
42(4) . . .
29.2(28) . . .
36.7(32) . . .
34.6(31) . . .
31.2(29) . . .
36(4) . . .
29.2(31) . . .
25.1(26) . . .
32.3(30) . . .
29.7(30) . . .
30.6(32) . . .
38.1(35) . . .
40.3(33) . . .
44.1(35) . . .
32.7(30) . . .
28.5(28) . . .
35.1(32) . . .
29.9(28) . . .
27.9(28) . . .
36.9(35) . . .
37.2(33) . . .
37.3(32) . . .
36.2(31) . . .
40.8(34) . . .
34.7(31) . . .
35.1(32) . . .
29.7(29) . . .
30.1(29) . . .
37.3(33) . . .
35.3(32) . . .
31.5(32) . . .
29.1(28) . . .
39.2(33) . . .
37.0(32) . . .
35.9(34) . . .
34.0(32) . . .
42.9(34) . . .
41.0(34) . . .
44.2(35) . . .
35.9(33) . . .
38.4(35) . . .
32.6(29) . . .
40.1(33) . . .
29.1(28) . . .
38(4) . . .
33.3(32) . . .
30.0(30) . . .
31.3(29) . . .
28.0(30) . . .
33.9(34) . . .
31.1(30) . . .
35.4(31) . . .
39.4(34) . . .
42(4) . . .
37.3(32) . . .
39.2(33) . . .
33.7(30) . . .
38.8(33) . . .
38.3(34) . . .
44(4) . . .
35.8(33) . . .
28.9(28) . . .
30.0(29) . . .
36.3(31) . . .
41.1(35) . . .
33.5(30) . . .
34.5(30) . . .
34.7(31) . . .
43(4) . . .
33.5(33) . . .
43(4) . . .
31.3(29) . . .
40(4) . . .
32.8(31) . . .
37.8(33) . . .
37.5(32) . . .
36.9(31) . . .
36.0(33) . . .
47(4) . . .
37.4(35) . . .
32.3(29) . . .
44.0(35) . . .
41.0(34) . . .
37.5(33) . . .
40.1(35) . . .
44(4) . . .
27.7(27) . . .
42(4) . . .
42(4) . . .
34.8(30) . . .
37.7(33) . . .
39.0(33) . . .
36.8(33) . . .
34.1(33) . . .
39.1(33) . . .
43.9(35) . . .
39.3(33) . . .
31.6(29) . . .
31.1(30) . . .
33.6(30) . . .
36.0(31) . . .
32.6(29) . . .
38(4) . . .
29.4(29) . . .
40.6(34) . . .
32.5(30) . . .
26.0(27) . . .
38.5(35) . . .
43(4) . . .
35.5(32) . . .
36.6(31) . . .
39.5(33) . . .
37.2(33) . . .
35.4(32) . . .
43(4) . . .
36.4(32) . . .
34.7(32) . . .
36.4(33) . . .
37.5(34) . . .
36.0(31) . . .
36.7(32) . . .
33.8(32) . . .
34.5(33) . . .
30.0(30) . . .
32.4(30) . . .
39.3(32) . . .
31.2(31) . . .
31.8(33) . . .
36.2(33) . . .
35.3(30) . . .
38.3(33) . . .
27.9(29) . . .
32.4(31) . . .
38.4(33) . . .
39.3(33) . . .
32.0(29) . . .
28.4(29) . . .
31.4(32) . . .
32.4(30) . . .
38.4(32) . . .
32.3(30) . . .
36.3(34) . . .
36.9(34) . . .
38.9(34) . . .
34.1(30) . . .
30.4(29) . . .
39.1(35) . . .
35.2(33) . . .
40(4) . . .
35.5(31) . . .
27.9(28) . . .
39(4) . . .
31.6(30) . . .
43(4) . . .
35.2(31) . . .
34.2(32) . . .
28.6(28) . . .
32.5(32) . . .
32.8(32) . . .
29.3(29) . . .
35.2(31) . . .
27.9(30) . . .
32.4(30) . . .
49(4) . . .
39.6(33) . . .
36.7(32) . . .
42(4) . . .
40(4) . . .
31.2(30) . . .
38.2(32) . . .
36(4) . . .
37.6(32) . . .
37.1(32) . . .
32.9(31) . . .
33.5(31) . . .
35.1(31) . . .
39.6(35) . . .
38.5(32) . . .
36.7(32) . . .
40.0(33) . . .
44(4) . . .
38.1(34) . . .
35.7(33) . . .
36.5(31) . . .
43.1(34) . . .
39(4) . . .
37.1(33) . . .
26.4(27) . . .
33.8(31) . . .
39.6(33) . . .
38.0(33) . . .
36.6(32) . . .
34.6(30) . . .
36.4(31) . . .
34.7(31) . . .
36.4(34) . . .
29.5(31) . . .
34.6(32) . . .
33.1(30) . . .
40.9(33) . . .
30.8(28) . . .
33.9(31) . . .
34.4(31) . . .
41.7(34) . . .
36.7(32) . . .
37.6(35) . . .
30.3(30) . . .
38.8(34) . . .
34.8(31) . . .
27.6(28) . . .
32.6(30) . . .
44(4) . . .
34.0(31) . . .
40.8(33) . . .
36.9(34) . . .
31.0(28) . . .
34.2(32) . . .
33.9(31) . . .
35.3(31) . . .
36.9(32) . . .
34.0(31) . . .
35.8(31) . . .
42.0(34) . . .
30.3(29) . . .
33.7(31) . . .
33.5(32) . . .
31.7(30) . . .
29.4(29) . . .
30.9(28) . . .
41(4) . . .
30.8(30) . . .
30.7(29) . . .
31.1(29) . . .
36.0(32) . . .
30.1(32) . . .
34.6(32) . . .
31.8(30) . . .
38.9(33) . . .
43.0(35) . . .
28.8(33) . . .
33.2(32) . . .
33.0(33) . . .
30.4(28) . . .
33.8(30) . . .
39.3(34) . . .
40(4) . . .
37.2(33) . . .
35.1(31) . . .
28.5(27) . . .
36.0(32) . . .
29.3(29) . . .
31.9(30) . . .
35.6(32) . . .
47(4) . . .
29.5(28) . . .
31.5(32) . . .
30.6(30) . . .
28.5(28) . . .
36.8(32) . . .
32.8(30) . . .
33.5(32) . . .
31.6(30) . . .
30.1(29) . . .
33.7(30) . . .
37.7(33) . . .
32.3(29) . . .
29.6(29) . . .
35.9(31) . . .
35.4(31) . . .
39.3(35) . . .
43(4) . . .
31.1(30) . . .
36.9(32) . . .
37.4(32) . . .
34.1(30) . . .
24.7(26) . . .
31.7(30) . . .
34.9(31) . . .
38.3(32) . . .
39(4) . . .
33.5(33) . . .
27.8(28) . . .
32.1(30) . . .
33.9(30) . . .
31.1(30) . . .
38.4(34) . . .
40.1(34) . . .
34.6(30) . . .
26.8(28) . . .
30.0(31) . . .
34.0(31) . . .
32.5(30) . . .
34.2(30) . . .
39.3(33) . . .
45(4) . . .
36.5(34) . . .
38.4(33) . . .
38.4(32) . . .
29.9(29) . . .
33.9(34) . . .
39.8(35) . . .
36.6(32) . . .
31.9(29) . . .
36.9(33) . . .
26.8(28) . . .
35.0(32) . . .
29.5(29) . . .
31.8(30) . . .
33.9(32) . . .
29.4(29) . . .
40.6(35) . . .
28.6(28) . . .
25.0(27) . . .
37.7(34) . . .
40.4(34) . . .
31.5(30) . . .
30.2(29) . . .
39.4(34) . . .
32.7(31) . . .
33.6(31) . . .
29.8(29) . . .
29.0(28) . . .
32.4(31) . . .
35.2(32) . . .
34.4(31) . . .
31.4(30) . . .
42.1(34) . . .
36.2(33) . . .
28.4(30) . . .
29.2(29) . . .
30.1(29) . . .
38.5(32) . . .
42(4) . . .
32.4(31) . . .
31.7(30) . . .
36.0(32) . . .
32.7(30) . . .
43(4) . . .
44(4) . . .
27.6(27) . . .
32.3(29) . . .
43.0(34) . . .
27.1(27) . . .
34.5(35) . . .
27.6(28) . . .
32.9(30) . . .
39.5(32) . . .
32.5(31) . . .
30.2(29) . . .
35.5(33) . . .
40.7(33) . . .
36.8(32) . . .
33.9(32) . . .
31.2(31) . . .
32.1(30) . . .
35.9(32) . . .
44.4(35) . . .
30.2(29) . . .
28.0(30) . . .
30.0(31) . . .
31.7(29) . . .
27.8(27) . . .
31.2(29) . . .
26.6(29) . . .
30.7(33) . . .
32.7(30) . . .
36.2(32) . . .
39.6(34) . . .
33.1(30) . . .
43(4) . . .
41.7(33) . . .
35.5(32) . . .
36.8(34) . . .
35.2(31) . . .
36.7(32) . . .
38.0(32) . . .
38.9(33) . . .
36.8(33) . . .
31.5(30) . . .
41.4(35) . . .
32.6(29) . . .
31.5(30) . . .
31.8(31) . . .
35.7(34) . . .
35.8(31) . . .
35.6(31) . . .
37.2(32) . . .
35.6(33) . . .
33.3(32) . . .
31.6(29) . . .
35.3(31) . . .
31.8(31) . . .
29.0(31) . . .
35.1(32) . . .
36.5(33) . . .
44.3(35) . . .
32.2(30) . . .
35.8(34) . . .
45(4) . . .
42.3(34) . . .
30.6(30) . . .
41(4) . . .
36.4(32) . . .
30.3(29) . . .
28.1(29) . . .
37.9(32) . . .
33.8(31) . . .
34.6(33) . . .
40(4) . . .
38.4(33) . . .
28.2(29) . . .
33.0(31) . . .
31.9(29) . . .
34.3(31) . . .
39.7(33) . . .
35.3(31) . . .
36.2(33) . . .
29.1(30) . . .
28.7(30) . . .
35.9(31) . . .
22.1(25) . . .
30.0(29) . . .
38.2(34) . . .
35.8(33) . . .
30.0(29) . . .
37.3(33) . . .
36.4(33) . . .
32.3(30) . . .
31.2(30) . . .
39.9(33) . . .
32.3(30) . . .
32.5(31) . . .
41(4) . . .
27.1(28) . . .
42.0(33) . . .
34.2(31) . . .
32.5(31) . . .
34.0(31) . . .
33.9(30) . . .
35.4(31) . . .
32.8(30) . . .
40(4) . . .
31.9(29) . . .
40.9(33) . . .
30.1(29) . . .
37.5(33) . . .
31.8(31) . . .
33.1(32) . . .
26.7(27) . . .
32.0(29) . . .
30.1(28) . . .
27.5(29) . . .
24.6(27) . . .
30.4(28) . . .
44.9(34) . . .
31.1(29) . . .
33.7(32) . . .
30.8(29) . . .
22.4(24) . . .
40(4) . . .
27.4(28) . . .
31.3(31) . . .
41(4) . . .
35.4(32) . . .
34.6(30) . . .
40.7(35) . . .
39.4(35) . . .
36.4(33) . . .
39.4(33) . . .
33.2(30) . . .
34.0(31) . . .
40.6(34) . . .
38.9(34) . . .
36.6(31) . . .
32.8(30) . . .
49(4) . . .
36.8(31) . . .
30.9(29) . . .
34.1(30) . . .
36.0(34) . . .
28.3(30) . . .
38.3(34) . . .
32.9(30) . . .
36.2(32) . . .
29.7(28) . . .
30.0(31) . . .
23.1(27) . . .
27.2(27) . . .
35.3(31) . . .
48(4) . . .
35.8(34) . . .
24.0(25) . . .
28.8(28) . . .
27.5(28) . . .
38(4) . . .
38(4) . . .
39(4) . . .
26.2(27) . . .
31.1(30) . . .
31.9(32) . . .
31.5(30) . . .
31.2(30) . . .
35.1(31) . . .
31.2(29) . . .
44(4) . . .
38.6(35) . . .
31.5(31) . . .
28.4(28) . . .
33.8(30) . . .
38.2(33) . . .
38.5(33) . . .
44(4) . . .
29.6(28) . . .
25.7(26) . . .
36.6(33) . . .
36.3(34) . . .
26.6(29) . . .
34.9(31) . . .
34.2(31) . . .
36.0(32) . . .
26.2(28) . . .
30.5(31) . . .
31.4(29) . . .
39.6(33) . . .
35.5(32) . . .
36.4(32) . . .
31.4(30) . . .
38.4(32) . . .
30.6(29) . . .
32.3(30) . . .
35.3(32) . . .
31.0(29) . . .
34.9(31) . . .
38.5(34) . . .
44(4) . . .
29.5(28) . . .
43.5(34) . . .
34.3(31) . . .
33.6(30) . . .
36.3(33) . . .
27.9(29) . . .
21.4(24) . . .
31.1(29) . . .
33.0(31) . . .
44(4) . . .
31.8(29) . . .
40.2(34) . . .
34.5(32) . . .
32.6(30) . . .
30.6(33) . . .
28.4(31) . . .
34.1(31) . . .
28.7(28) . . .
32.8(30) . . .
29.9(31) . . .
31.4(29) . . .
38.3(32) . . .
35.6(31) . . .
33.9(31) . . .
38(4) . . .
35.8(32) . . .
36.2(31) . . .
35.4(31) . . .
32.8(31) . . .
27.8(29) . . .
36.0(32) . . .
32.1(30) . . .
33.7(30) . . .
26.1(27) . . .
25.4(26) . . .
32.9(30) . . .
33.6(30) . . .
28.0(27) . . .
30.0(29) . . .
32.5(31) . . .
30.8(28) . . .
33.3(30) . . .
27.9(29) . . .
29.9(29) . . .
34.9(31) . . .
32.4(31) . . .
26.3(27) . . .
32.0(29) . . .
42(4) . . .
31.5(31) . . .
35.9(32) . . .
59(4) . . .
35.5(32) . . .
33.7(32) . . .
26.7(28) . . .
25.5(26) . . .
27.6(27) . . .
32.9(30) . . .
38(4) . . .
40(4) . . .
50(4) . . .
36.9(32) . . .
37.0(33) . . .
33.8(31) . . .
31.9(31) . . .
35.4(31) . . .
39.9(33) . . .
41.0(35) . . .
38.5(35) . . .
34.7(31) . . .
34.0(31) . . .
31.7(29) . . .
30.2(29) . . .
33.6(32) . . .
29.1(28) . . .
31.1(29) . . .
39.7(32) . . .
37.3(33) . . .
32.9(30) . . .
26.6(27) . . .
36.3(32) . . .
35.3(32) . . .
33.1(32) . . .
28.3(29) . . .
36.1(33) . . .
28.6(28) . . .
27.8(27) . . .
31.2(29) . . .
34.7(32) . . .
33.8(30) . . .
33.7(31) . . .
38.1(33) . . .
34.9(32) . . .
34.0(30) . . .
38.2(33) . . .
33.5(30) . . .
35.3(33) . . .
29.8(31) . . .
29.9(30) . . .
41.2(34) . . .
31.2(30) . . .
34.0(31) . . .
29.7(30) . . .
35.3(31) . . .
32.0(29) . . .
33.8(30) . . .
31.4(30) . . .
35.1(33) . . .
32.4(31) . . .
28.6(28) . . .
43(4) . . .
37.5(33) . . .
29.0(29) . . .
33.9(30) . . .
30.1(30) . . .
32.6(29) . . .
31.8(30) . . .
31.6(31) . . .
26.2(28) . . .
37.8(32) . . .
32.1(30) . . .
39.6(33) . . .
44(4) . . .
46(4) . . .
29.1(28) . . .
39.2(33) . . .
39.3(34) . . .
27.5(27) . . .
26.3(29) . . .
28.9(28) . . .
41.4(34) . . .
36.6(32) . . .
42(4) . . .
31.3(29) . . .
29.2(28) . . .
31.1(29) . . .
34.5(33) . . .
34.2(32) . . .
35.0(32) . . .
37.2(31) . . .
29.9(30) . . .
34.8(32) . . .
32.5(31) . . .
29.4(28) . . .
40.1(33) . . .
31.9(31) . . .
31.3(32) . . .
35.8(32) . . .
31.1(29) . . .
38.5(33) . . .
36.1(33) . . .
35.3(34) . . .
35.7(33) . . .
33.1(30) . . .
29.4(28) . . .
36.3(32) . . .
33.5(31) . . .
24.1(25) . . .
33.2(30) . . .
36.7(32) . . .
45(4) . . .
39(4) . . .
41(4) . . .
30.5(30) . . .
36.1(32) . . .
36.2(32) . . .
45(4) . . .
35.0(32) . . .
40.3(33) . . .
37.9(33) . . .
39.2(33) . . .
34.7(33) . . .
33.4(31) . . .
30.9(29) . . .
37.7(33) . . .
29.4(30) . . .
36.8(33) . . .
30.0(29) . . .
29.0(28) . . .
35.5(32) . . .
33.4(30) . . .
33.6(32) . . .
38.6(33) . . .
38.8(33) . . .
35.7(31) . . .
34.1(32) . . .
44(4) . . .
33.4(30) . . .
40.9(34) . . .
31.3(30) . . .
38.8(32) . . .
44(4) . . .
29.4(29) . . .
34.9(31) . . .
31.1(31) . . .
36.0(33) . . .
38.7(34) . . .
32.2(29) . . .
32.7(31) . . .
40.1(34) . . .
38.8(34) . . .
34.3(31) . . .
37.1(33) . . .
35.6(31) . . .
32.7(30) . . .
28.4(27) . . .
41(4) . . .
37.4(32) . . .
36.2(31) . . .
31.4(33) . . .
33.7(33) . . .
31.1(29) . . .
30.7(29) . . .
32.3(29) . . .
36.1(34) . . .
32.8(33) . . .
32.0(30) . . .
31.0(29) . . .
32.6(29) . . .
42.5(34) . . .
34.5(31) . . .
38.1(32) . . .
37.1(32) . . .
32.3(29) . . .
40.8(34) . . .
44(4) . . .
43(4) . . .
38.8(32) . . .
38.6(33) . . .
37.3(34) . . .
30.4(32) . . .
31.7(31) . . .
41.7(34) . . .
33.3(31) . . .
44.7(35) . . .
38.4(33) . . .
25.6(27) . . .
31.0(29) . . .
33.7(31) . . .
34.5(32) . . .
30.4(29) . . .
36.7(32) . . .
40.0(33) . . .
35.0(32) . . .
28.3(28) . . .
29.3(30) . . .
32.0(32) . . .
34.1(31) . . .
33.4(30) . . .
34.4(31) . . .
38.7(34) . . .
33.9(30) . . .
30.1(28) . . .
32.1(30) . . .
36.8(32) . . .
27.9(27) . . .
37.8(33) . . .
37.7(33) . . .
29.7(28) . . .
37.3(34) . . .
31.7(32) . . .
37.8(32) . . .
37.5(32) . . .
39.7(35) . . .
34.6(32) . . .
42.0(34) . . .
43.0(34) . . .
36.1(31) . . .
30.7(29) . . .
32.9(33) . . .
32.5(31) . . .
42.5(34) . . .
34.1(30) . . .
38.3(31) . . .
42(4) . . .
38(4) . . .
34.0(30) . . .
31.6(30) . . .
29.9(28) . . .
31.2(30) . . .
31.0(29) . . .
46(4) . . .
31.4(29) . . .
30.9(29) . . .
34.0(31) . . .
35.2(32) . . .
26.9(27) . . .
37.8(32) . . .
33.3(31) . . .
38.3(33) . . .
43(4) . . .
34.5(31) . . .
37.7(34) . . .
29.2(30) . . .
33.3(30) . . .
37.1(32) . . .
39.3(32) . . .
34.9(32) . . .
32.8(30) . . .
29.8(29) . . .
31.6(29) . . .
33.7(31) . . .
36.9(33) . . .
31.5(30) . . .
35.6(32) . . .
36.2(31) . . .
39.0(33) . . .
33.5(31) . . .
36.7(34) . . .
32.9(30) . . .
31.8(29) . . .
32.1(30) . . .
37(4) . . .
31.8(31) . . .
25.3(28) . . .
27.2(27) . . .
28.6(28) . . .
36.4(32) . . .
32.5(30) . . .
35.4(32) . . .
33.8(30) . . .
36.0(31) . . .
31.3(30) . . .
30.4(30) . . .
26.6(28) . . .
32.0(29) . . .
30.8(30) . . .
31.0(31) . . .
36.1(34) . . .
32.4(32) . . .
34.0(30) . . .
38.0(32) . . .
33.0(31) . . .
36.2(34) . . .
36.0(31) . . .
36.6(32) . . .
33.0(29) . . .
33.2(30) . . .
40.1(34) . . .
37.2(32) . . .
33.6(31) . . .
38.1(32) . . .
24.8(25) . . .
33.4(32) . . .
34.6(31) . . .
33.8(30) . . .
31.3(29) . . .
37.6(34) . . .
32.4(31) . . .
34.4(30) . . .
33.8(31) . . .
34.5(32) . . .
36.7(33) . . .
37.5(33) . . .
38.1(32) . . .
35.4(31) . . .
40(4) . . .
34.3(34) . . .
38.2(33) . . .
29.7(28) . . .
40.0(33) . . .
26.7(27) . . .
35.7(33) . . .
38.7(34) . . .
32.9(31) . . .
40.8(33) . . .
39.4(33) . . .
34.1(33) . . .
40.1(34) . . .
35.1(31) . . .
38.3(33) . . .
30.4(32) . . .
47(4) . . .
31.8(30) . . .
30.2(29) . . .
34.4(31) . . .
43(4) . . .
37.0(33) . . .
29.8(28) . . .
27.9(27) . . .
35.7(32) . . .
32.6(31) . . .
34.5(34) . . .
41(4) . . .
36.8(32) . . .
28.1(28) . . .
41.6(34) . . .
34.3(30) . . .
39.0(35) . . .
28.8(28) . . .
29.5(28) . . .
43(4) . . .
31.5(28) . . .
37.8(32) . . .
31.2(30) . . .
29.1(29) . . .
30.8(28) . . .
39.8(34) . . .
47(4) . . .
35.7(31) . . .
31.7(30) . . .
35.9(33) . . .
37.3(33) . . .
40.9(33) . . .
47(4) . . .
30.5(29) . . .
33.7(32) . . .
27.8(27) . . .
34.2(31) . . .
51(4) . . .
38.1(33) . . .
37.2(33) . . .
37.5(32) . . .
30.7(29) . . .
30.9(29) . . .
35.3(31) . . .
36.4(34) . . .
40.3(34) . . .
40.1(33) . . .
33.9(31) . . .
37(4) . . .
28.6(29) . . .
30.8(29) . . .
35.0(31) . . .
35.0(32) . . .
36.8(32) . . .
35.8(33) . . .
33.0(31) . . .
30.5(29) . . .
33.0(31) . . .
32.6(31) . . .
23.3(26) . . .
33.4(32) . . .
36.4(31) . . .
27.3(29) . . .
25.5(26) . . .
34.3(32) . . .
33.4(31) . . .
30.6(29) . . .
30.3(31) . . .
33.1(31) . . .
33.9(31) . . .
35.3(31) . . .
32.4(30) . . .
40.6(34) . . .
35.6(32) . . .
33.6(32) . . .
33.8(31) . . .
39.0(33) . . .
31.4(29) . . .
36.5(34) . . .
40(4) . . .
29.5(29) . . .
24.2(26) . . .
35.2(33) . . .
32.1(30) . . .
37.9(34) . . .
34.7(31) . . .
42.4(34) . . .
28.4(28) . . .
38(4) . . .
38.9(35) . . .
22.8(26) . . .
29.3(28) . . .
35.4(32) . . .
38(4) . . .
33.2(31) . . .
27.3(27) . . .
34.8(30) . . .
32.3(30) . . .
36.5(34) . . .
31.6(30) . . .
38.0(34) . . .
39.5(34) . . .
36.7(34) . . .
31.7(31) . . .
31.5(31) . . .
40.4(33) . . .
33.1(30) . . .
33.5(32) . . .
30.9(31) . . .
31.9(30) . . .
34.6(31) . . .
35.7(31) . . .
35.6(33) . . .
32.8(31) . . .
35.1(31) . . .
30.9(29) . . .
42(4) . . .
33.9(32) . . .
33.1(32) . . .
34(4) . . .
31.2(29) . . .
34.9(32) . . .
31.6(30) . . .
33.3(32) . . .
38.3(33) . . .
34.0(30) . . .
37.5(33) . . .
34.5(32) . . .
36.0(32) . . .
35.1(33) . . .
32.5(30) . . .
38(4) . . .
34.5(33) . . .
34.7(32) . . .
41.7(34) . . .
30.6(29) . . .
36.6(34) . . .
24.7(26) . . .
28.2(28) . . .
42.0(33) . . .
32.5(30) . . .
36.0(32) . . .
31.0(31) . . .
27.9(28) . . .
35.6(31) . . .
29.3(28) . . .
34.0(32) . . .
34.8(34) . . .
35.2(32) . . .
35.4(31) . . .
39.1(33) . . .
39.1(34) . . .
37.3(33) . . .
38.2(33) . . .
34.4(30) . . .
30.5(29) . . .
30.1(29) . . .
41.0(35) . . .
33.0(30) . . .
30.3(29) . . .
27.0(27) . . .
29.4(30) . . .
32.3(30) . . .
34.1(31) . . .
35.4(31) . . .
36.6(34) . . .
32.1(31) . . .
36.4(34) . . .
27.5(30) . . .
34.9(30) . . .
22.8(25) . . .
26.3(29) . . .
26.4(27) . . .
31.3(29) . . .
28.0(28) . . .
41(4) . . .
35.6(31) . . .
24.7(26) . . .
32.0(30) . . .
28.0(29) . . .
36.4(34) . . .
32.6(32) . . .
35.2(32) . . .
38.9(32) . . .
31.5(29) . . .
35.8(32) . . .
34.4(31) . . .
36.9(34) . . .
35.8(31) . . .
33.0(31) . . .
28.2(28) . . .
31.8(34) . . .
33.8(35) . . .
31.2(29) . . .
37.8(33) . . .
31.2(29) . . .
37(4) . . .
29.5(29) . . .
37.6(32) . . .
41.3(33) . . .
29.7(30) . . .
28.9(29) . . .
38.3(32) . . .
40.5(33) . . .
35.7(32) . . .
27.6(27) . . .
36.0(34) . . .
26.1(29) . . .
33.7(30) . . .
32.4(29) . . .
31.1(32) . . .
30.4(29) . . .
35.4(31) . . .
36.5(32) . . .
40.4(34) . . .
34.6(31) . . .
35.7(33) . . .
37.1(33) . . .
28.5(28) . . .
37.7(34) . . .
33.3(30) . . .
33.3(32) . . .
32.2(30) . . .
40.7(33) . . .
36.9(35) . . .
28.6(29) . . .
31.6(31) . . .
34.1(31) . . .
31.5(29) . . .
34.9(31) . . .
29.3(29) . . .
27.6(28) . . .
27.6(28) . . .
31.5(30) . . .
34.9(32) . . .
31.2(30) . . .
29.7(29) . . .
40.2(33) . . .
33.2(30) . . .
33.6(31) . . .
29.0(28) . . .
31.6(29) . . .
38.5(34) . . .
31.8(29) . . .
33.8(31) . . .
30.9(33) . . .
34.7(31) . . .
33.8(30) . . .
33.4(30) . . .
30.0(28) . . .
30.8(30) . . .
33.1(31) . . .
32.0(29) . . .
32.6(30) . . .
33.8(33) . . .
35.9(33) . . .
34.6(30) . . .
40.1(33) . . .
34.5(32) . . .
37.4(34) . . .
40(4) . . .
25.7(27) . . .
32.4(30) . . .
38.1(33) . . .
35.9(33) . . .
31.8(33) . . .
26.0(27) . . .
35.4(31) . . .
30.7(29) . . .
35.3(32) . . .
31.9(31) . . .
28.5(28) . . .
34.1(30) . . .
34.1(30) . . .
36.4(33) . . .
35.1(32) . . .
40.8(34) . . .
35.8(32) . . .
36.6(33) . . .
45(4) . . .
32.5(30) . . .
31.9(31) . . .
29.3(28) . . .
28.2(28) . . .
33.1(33) . . .
31.2(32) . . .
32.2(31) . . .
31.1(29) . . .
31.1(31) . . .
32.8(30) . . .
31.4(29) . . .
40.0(33) . . .
31.0(29) . . .
38.4(34) . . .
41(4) . . .
31.1(29) . . .
32.2(31) . . .
30.7(29) . . .
38.1(33) . . .
42(4) . . .
36.8(33) . . .
29.6(29) . . .
34.9(31) . . .
30.1(30) . . .
29.6(30) . . .
29.0(31) . . .
36.5(31) . . .
28.5(28) . . .
33.6(33) . . .
33.2(31) . . .
33.0(31) . . .
32.7(30) . . .
28.3(29) . . .
32.6(32) . . .
30.2(33) . . .
33.7(31) . . .
30.5(29) . . .
34.5(31) . . .
28.0(28) . . .
31.7(30) . . .
26.9(27) . . .
28.7(29) . . .
32.8(33) . . .
31.1(29) . . .
28.8(28) . . .
35.0(31) . . .
39.6(33) . . .
34.9(31) . . .
27.8(29) . . .
32.3(32) . . .
32.1(31) . . .
27.7(28) . . .
31.4(31) . . .
21.9(23) . . .
35.6(32) . . .
29.3(28) . . .
34.6(31) . . .
36.7(32) . . .
44(4) . . .
36.3(33) . . .
28.5(28) . . .
39.2(33) . . .
29.1(29) . . .
29.5(30) . . .
34.3(31) . . .
40.5(33) . . .
33.0(30) . . .
27.8(28) . . .
30.7(31) . . .
32.3(30) . . .
36.3(31) . . .
33.2(30) . . .
34.1(31) . . .
39(4) . . .
23.9(25) . . .
36.1(32) . . .
29.6(29) . . .
34.5(33) . . .
27.3(28) . . .
31.3(34) . . .
36.6(34) . . .
37.2(32) . . .
37.0(34) . . .
42(4) . . .
35.1(32) . . .
33.3(30) . . .
28.5(30) . . .
35.2(33) . . .
27.9(29) . . .
32.0(30) . . .
20.2(23) . . .
34.1(33) . . .
40(4) . . .
31.0(29) . . .
36.7(33) . . .
36.8(32) . . .
33.5(31) . . .
42(4) . . .
39.4(34) . . .
37.5(32) . . .
33.3(31) . . .
34.7(32) . . .
34.4(32) . . .
34.2(32) . . .
32.8(30) . . .
36.2(31) . . .
31.0(30) . . .
39(4) . . .
33.5(31) . . .
34.7(31) . . .
32.6(30) . . .
39.4(34) . . .
35.8(35) . . .
31.8(31) . . .
41.4(33) . . .
29.1(28) . . .
27.4(28) . . .
30.8(32) . . .
30.6(30) . . .
31.0(30) . . .
27.3(28) . . .
26.7(29) . . .
33.7(33) . . .
28.5(27) . . .
29.6(28) . . .
33.6(31) . . .
36.2(34) . . .
35.0(34) . . .
37.3(32) . . .
30.1(29) . . .
29.4(28) . . .
43(4) . . .
34.5(31) . . .
34.4(32) . . .
36.8(32) . . .
33.5(30) . . .
32.7(30) . . .
36.7(33) . . .
27.5(28) . . .
29.6(28) . . .
33.8(32) . . .
34.6(31) . . .
37.2(31) . . .
36.3(32) . . .
30.4(29) . . .
30.2(28) . . .
31.8(29) . . .
24.6(25) . . .
31.2(30) . . .
35.5(31) . . .
31.3(30) . . .
30.3(29) . . .
30.8(30) . . .
35.0(31) . . .
30.6(29) . . .
37.4(32) . . .
38.9(33) . . .
32.3(30) . . .
27.9(28) . . .
30.7(29) . . .
36.0(32) . . .
31.8(32) . . .
30.3(29) . . .
31.1(30) . . .
33.1(30) . . .
34.1(31) . . .
29.0(29) . . .
25.9(26) . . .
24.0(25) . . .
33.5(30) . . .
29.9(30) . . .
21.7(27) . . .
22.4(26) . . .
32.8(30) . . .
28.8(29) . . .
25.5(26) . . .
23.8(24) . . .
38.7(34) . . .
40.2(33) . . .
32.1(29) . . .
28.4(29) . . .
31.7(31) . . .
33.5(32) . . .
39.3(33) . . .
31.8(30) . . .
31.6(31) . . .
30.6(31) . . .
31.7(29) . . .
30.6(29) . . .
39.0(33) . . .
30.9(28) . . .
38.5(33) . . .
32.6(30) . . .
34.5(31) . . .
34.3(31) . . .
35.7(32) . . .
34.6(33) . . .
28.7(28) . . .
30.0(28) . . .
34.2(32) . . .
33.4(33) . . .
36.3(32) . . .
27.4(27) . . .
26.5(27) . . .
29.1(30) . . .
29.5(32) . . .
26.2(28) . . .
27.5(28) . . .
33.7(31) . . .
30.0(29) . . .
31.4(32) . . .
30.8(30) . . .
33.0(31) . . .
46(4) . . .
42.2(35) . . .
42(4) . . .
35.1(33) . . .
36.5(32) . . .
33.0(30) . . .
29.6(29) . . .
33.1(33) . . .
33.1(31) . . .
31.5(29) . . .
29.6(29) . . .
31.3(31) . . .
35.2(35) . . .
28.5(28) . . .
38.4(32) . . .
35.4(31) . . .
31.8(31) . . .
35.2(33) . . .
35.8(31) . . .
33.8(30) . . .
26.5(27) . . .
25.0(28) . . .
35.2(31) . . .
40.7(35) . . .
42.5(34) . . .
29.3(28) . . .
43(4) . . .
40.9(35) . . .
32.3(31) . . .
32.6(29) . . .
31.7(30) . . .
31.7(31) . . .
31.1(30) . . .
35.0(31) . . .
29.7(28) . . .
29.4(29) . . .
30.2(30) . . .
28.6(29) . . .
39.6(34) . . .
38.0(32) . . .
28.9(29) . . .
36.4(32) . . .
39.6(34) . . .
37.8(34) . . .
41.2(33) . . .
36.9(34) . . .
29.9(32) . . .
30.5(30) . . .
34.3(31) . . .
37.3(32) . . .
31.1(31) . . .
26.8(28) . . .
32.9(32) . . .
30.9(29) . . .
30.6(29) . . .
33.7(31) . . .
34.6(34) . . .
34.1(31) . . .
32.9(30) . . .
35.0(31) . . .
29.6(27) . . .
24.0(26) . . .
20.3(25) . . .
37.2(32) . . .
36.0(31) . . .
31.8(30) . . .
37.6(34) . . .
40.3(34) . . .
27.8(28) . . .
34.2(31) . . .
33.6(31) . . .
35.1(31) . . .
33.0(31) . . .
29.6(28) . . .
30.7(29) . . .
28.8(27) . . .
34.7(33) . . .
32.3(31) . . .
31.1(30) . . .
24.5(26) . . .
33.6(32) . . .
37.8(33) . . .
37.2(34) . . .
40.9(33) . . .
37.5(32) . . .
33.4(32) . . .
37.4(35) . . .
29.1(28) . . .
30.8(30) . . .
33.3(32) . . .
32.2(32) . . .
34.4(32) . . .
30.3(28) . . .
28.7(28) . . .
27.7(28) . . .
27.1(28) . . .
35.1(32) . . .
34.5(35) . . .
33.5(31) . . .
38.7(33) . . .
34.9(32) . . .
32.6(30) . . .
32.5(30) . . .
26.3(27) . . .
35.0(31) . . .
32.4(32) . . .
30.9(29) . . .
41.5(33) . . .
40.5(33) . . .
24.8(26) . . .
34.8(34) . . .
31.6(30) . . .
29.4(29) . . .
33.6(30) . . .
32.1(30) . . .
38.1(35) . . .
39.9(33) . . .
33.2(30) . . .
41.8(34) . . .
25.4(27) . . .
23.5(26) . . .
26.3(27) . . .
30.7(29) . . .
38.5(33) . . .
34.6(31) . . .
42(4) . . .
25.6(27) . . .
27.1(27) . . .
38.6(33) . . .
39.7(35) . . .
24.3(26) . . .
38.6(34) . . .
30.8(29) . . .
32.6(30) . . .
29.4(28) . . .
33.2(30) . . .
32.9(30) . . .
33.2(30) . . .
37.6(33) . . .
34.6(33) . . .
23.8(27) . . .
35.3(33) . . .
40.5(33) . . .
33.4(32) . . .
29.8(30) . . .
32.7(31) . . .
38.7(33) . . .
34.8(32) . . .
36.7(32) . . .
33.1(31) . . .
35.5(33) . . .
30.9(28) . . .
27.8(28) . . .
39.7(34) . . .
30.6(32) . . .
33.3(32) . . .
33.3(30) . . .
34.5(30) . . .
42(4) . . .
32.9(31) . . .
37.8(33) . . .
33.9(30) . . .
38.7(33) . . .
28.5(27) . . .
39(4) . . .
24.3(28) . . .
33.0(30) . . .
30.6(29) . . .
35.5(34) . . .
34.8(32) . . .
26.0(27) . . .
39.8(34) . . .
35.0(31) . . .
35.3(33) . . .
35.9(33) . . .
36.1(32) . . .
35.7(31) . . .
30.9(30) . . .
37.4(35) . . .
36.0(31) . . .
37.8(32) . . .
30.9(29) . . .
35.0(32) . . .
30.9(30) . . .
31.3(31) . . .
36.8(34) . . .
34.4(30) . . .
31.3(30) . . .
28.0(27) . . .
28.3(28) . . .
31.8(31) . . .
33.4(30) . . .
32.3(30) . . .
30.8(32) . . .
27.3(29) . . .
31.9(29) . . .
29.9(29) . . .
36.9(32) . . .
32.4(31) . . .
36.5(33) . . .
26.9(28) . . .
24.8(26) . . .
31.9(30) . . .
34.3(34) . . .
29.3(29) . . .
41.0(33) . . .
39.1(32) . . .
28.1(28) . . .
33.8(33) . . .
33.9(31) . . .
28.5(29) . . .
27.9(27) . . .
31.5(30) . . .
39(4) . . .
40.9(34) . . .
34.2(31) . . .
31.9(29) . . .
34.5(32) . . .
38(4) . . .
29.4(29) . . .
30.8(29) . . .
29.4(30) . . .
28.5(29) . . .
29.7(30) . . .
34.2(31) . . .
37.1(31) . . .
31.4(31) . . .
34.0(31) . . .
31.1(30) . . .
37(4) . . .
31.0(29) . . .
33.7(31) . . .
30.8(28) . . .
30.2(29) . . .
31.9(31) . . .
37.2(31) . . .
39.2(35) . . .
32.5(31) . . .
35.9(34) . . .
46(4) . . .
44.8(35) . . .
26.4(27) . . .
40.2(34) . . .
39.5(33) . . .
31.9(30) . . .
32.0(29) . . .
34.7(32) . . .
31.0(31) . . .
41(4) . . .
30.1(30) . . .
36.3(32) . . .
28.3(30) . . .
28.6(32) . . .
31.0(30) . . .
31.9(30) . . .
28.3(28) . . .
34.7(33) . . .
39(4) . . .
35.3(31) . . .
38.4(32) . . .
38.0(34) . . .
34.0(32) . . .
30.3(32) . . .
31.4(32) . . .
30.1(28) . . .
30.8(29) . . .
28.6(30) . . .
33.8(33) . . .
32.5(31) . . .
29.6(29) . . .
28.8(28) . . .
39.1(34) . . .
37.9(35) . . .
33.7(32) . . .
32.4(30) . . .
37.4(34) . . .
31.1(32) . . .
33.7(33) . . .
33.0(32) . . .
41.4(34) . . .
37.5(32) . . .
33.5(32) . . .
24.4(26) . . .
32.8(31) . . .
29.5(28) . . .
35.4(35) . . .
35.0(32) . . .
35.0(31) . . .
34.5(32) . . .
25.3(26) . . .
26.6(28) . . .
34.8(33) . . .
40.0(34) . . .
38.6(33) . . .
31.4(30) . . .
33.0(32) . . .
28.5(28) . . .
30.4(33) . . .
29.2(29) . . .
32.8(30) . . .
29.2(29) . . .
25.1(26) . . .
31.4(29) . . .
27.5(27) . . .
29.6(28) . . .
31.5(30) . . .
32.1(31) . . .
38.1(34) . . .
37.4(32) . . .
33.9(30) . . .
37.3(33) . . .
33.2(32) . . .
30.3(30) . . .
30.3(30) . . .
36.0(32) . . .
30.3(30) . . .
34.4(34) . . .
28.5(29) . . .
38.9(33) . . .
38.6(32) . . .
34.4(33) . . .
24.1(26) . . .
27.5(27) . . .
40.6(33) . . .
39.1(33) . . .
35.1(34) . . .
26.0(26) . . .
33.8(30) . . .
31.5(29) . . .
38.3(33) . . .
26.5(27) . . .
31.0(31) . . .
32.3(30) . . .
32.1(29) . . .
25.5(27) . . .
32.3(32) . . .
37(4) . . .
31.4(30) . . .
30.4(29) . . .
29.2(30) . . .
31.3(32) . . .
29.9(29) . . .
28.8(28) . . .
40.4(33) . . .
34.8(31) . . .
34.5(34) . . .
28.1(28) . . .
30.8(29) . . .
33.7(30) . . .
27.1(27) . . .
32.9(33) . . .
25.2(28) . . .
34.9(31) . . .
25.1(27) . . .
31.1(31) . . .
33.1(33) . . .
31.8(31) . . .
28.9(28) . . .
27.8(28) . . .
30.3(29) . . .
36.1(33) . . .
33.3(31) . . .
32.1(29) . . .
41.7(35) . . .
24.1(27) . . .
33.8(33) . . .
32.4(30) . . .
33.7(30) . . .
35.5(31) . . .
24.5(26) . . .
33.1(33) . . .
21.6(25) . . .
22.5(24) . . .
33.5(32) . . .
34.4(31) . . .
35.3(32) . . .
28.6(29) . . .
25.2(26) . . .
31.3(30) . . .
26.4(28) . . .
32.7(30) . . .
39.1(33) . . .
42.3(34) . . .
36.7(34) . . .
32.6(31) . . .
27.2(28) . . .
35.5(34) . . .
33.0(30) . . .
30.9(30) . . .
20.1(24) . . .
41(4) . . .
35.2(31) . . .
27.5(28) . . .
33.1(30) . . .
31.4(33) . . .
33.2(31) . . .
33.2(30) . . .
29.7(28) . . .
30.7(30) . . .
31.5(30) . . .
28.6(27) . . .
36.0(32) . . .
29.8(29) . . .
25.9(28) . . .
36(4) . . .
34.8(32) . . .
36.0(32) . . .
26.0(27) . . .
22.5(27) . . .
17.9(22) . . .
30.0(30) . . .
28.1(28) . . .
30.1(28) . . .
36.4(32) . . .
36.4(33) . . .
35.0(34) . . .
30.7(29) . . .
34.1(30) . . .
30.0(29) . . .
28.4(29) . . .
29.4(29) . . .
31.8(30) . . .
21.7(24) . . .
32.5(31) . . .
33.6(32) . . .
30.8(29) . . .
30.8(29) . . .
29.3(29) . . .
35.9(33) . . .
33.7(32) . . .
25.7(27) . . .
30.4(29) . . .
32.3(31) . . .
34.3(31) . . .
31.2(31) . . .
27.0(27) . . .
27.3(27) . . .
29.9(29) . . .
35.0(33) . . .
33.2(30) . . .
30.9(29) . . .
32.8(30) . . .
32.7(30) . . .
37.7(33) . . .
31.9(29) . . .
30.5(29) . . .
29.5(28) . . .
35.8(31) . . .
34.4(32) . . .
32.8(33) . . .
38.2(33) . . .
37.5(32) . . .
36.7(31) . . .
26.0(27) . . .
32.1(31) . . .
36.1(31) . . .
46(4) . . .
30.4(30) . . .
36.9(35) . . .
39.2(35) . . .
29.4(29) . . .
32.4(30) . . .
38.5(33) . . .
30.5(30) . . .
32.2(30) . . .
34.6(30) . . .
33.1(30) . . .
30.8(29) . . .
40(4) . . .
39.3(34) . . .
31.3(29) . . .
34.1(30) . . .
37.0(35) . . .
31.8(32) . . .
31.0(30) . . .
32.1(29) . . .
41.2(34) . . .
24.9(26) . . .
30.5(31) . . .
36.3(32) . . .
36.6(31) . . .
43.7(35) . . .
27.0(27) . . .
34.0(34) . . .
32.7(30) . . .
32.6(30) . . .
28.6(28) . . .
27.2(29) . . .
30.4(30) . . .
31.0(29) . . .
32.8(30) . . .
34.1(31) . . .
27.3(27) . . .
29.9(28) . . .
30.6(28) . . .
29.3(28) . . .
35.9(33) . . .
27.5(28) . . .
31.2(30) . . .
36.4(32) . . .
32.8(31) . . .
42.4(35) . . .
26.3(26) . . .
34.4(31) . . .
34.0(30) . . .
29.0(29) . . .
35.3(32) . . .
31.2(31) . . .
37.3(34) . . .
27.4(27) . . .
34.2(31) . . .
34.7(31) . . .
39(4) . . .
34.4(32) . . .
32.4(30) . . .
36.5(32) . . .
35.1(32) . . .
39.0(34) . . .
40.7(33) . . .
46.5(35) . . .
34.2(30) . . .
38.2(32) . . .
31.1(28) . . .
31.4(32) . . .
33.3(31) . . .
32.0(29) . . .
32.0(29) . . .
30.3(30) . . .
36.5(32) . . .
39.3(32) . . .
28.5(28) . . .
34.5(33) . . .
28.0(28) . . .
36.3(32) . . .
32.8(30) . . .
38.1(33) . . .
38.5(33) . . .
37.9(34) . . .
33.9(32) . . .
35.3(31) . . .
27.1(30) . . .
28.6(31) . . .
35.0(32) . . .
47(4) . . .
41.7(34) . . .
30.3(29) . . .
30.1(31) . . .
33.1(32) . . .
31.1(29) . . .
37.9(32) . . .
40(4) . . .
40(4) . . .
32.2(30) . . .
34.3(31) . . .
27.3(28) . . .
29.5(31) . . .
32.1(31) . . .
30.1(28) . . .
27.5(28) . . .
27.4(28) . . .
34.3(32) . . .
32.0(34) . . .
25.5(27) . . .
39.4(32) . . .
32.5(31) . . .
28.6(28) . . .
33.3(30) . . .
38.9(33) . . .
32.5(30) . . .
35.8(31) . . .
28.5(28) . . .
29.7(30) . . .
26.9(30) . . .
30.1(28) . . .
34.6(31) . . .
28.5(29) . . .
27.1(30) . . .
29.5(31) . . .
29.1(28) . . .
33.7(31) . . .
32.3(30) . . .
31.5(31) . . .
37.1(33) . . .
39.5(33) . . .
37.2(32) . . .
43(4) . . .
40(4) . . .
32.8(30) . . .
33.2(31) . . .
24.7(27) . . .
29.9(33) . . .
28.6(29) . . .
32.6(30) . . .
34.9(31) . . .
31.4(29) . . .
31.6(31) . . .
35.2(34) . . .
34.4(31) . . .
33.8(30) . . .
37.7(34) . . .
28.9(28) . . .
31.4(29) . . .
30.0(28) . . .
30.9(29) . . .
38.6(35) . . .
35.3(32) . . .
28.7(28) . . .
27.2(28) . . .
31.4(29) . . .
43(4) . . .
27.9(29) . . .
36.2(33) . . .
42.5(34) . . .
33.9(30) . . .
30.2(29) . . .
33.2(33) . . .
35.1(32) . . .
33.0(30) . . .
27.1(27) . . .
41(4) . . .
37.3(33) . . .
35.1(31) . . .
31.2(29) . . .
28.2(28) . . .
27.1(26) . . .
32.8(31) . . .
33.3(31) . . .
31.4(29) . . .
31.1(30) . . .
28.5(28) . . .
32.1(31) . . .
35.5(32) . . .
31.0(29) . . .
36.6(35) . . .
26.5(29) . . .
29.0(31) . . .
26.1(28) . . .
28.2(28) . . .
39.3(33) . . .
32.5(31) . . .
32.4(32) . . .
29.5(28) . . .
31.5(29) . . .
34.0(31) . . .
37.8(34) . . .
29.6(29) . . .
36.7(32) . . .
38.5(32) . . .
40.4(35) . . .
35.0(33) . . .
40.0(34) . . .
32.8(30) . . .
35.1(31) . . .
30.5(29) . . .
29.0(28) . . .
37.6(34) . . .
26.4(27) . . .
29.4(28) . . .
36.1(34) . . .
33.1(32) . . .
36.0(31) . . .
34.6(31) . . .
35.6(31) . . .
33.9(31) . . .
33.7(32) . . .
33.5(31) . . .
37.5(31) . . .
26.4(27) . . .
41.2(35) . . .
32.7(30) . . .
29.0(30) . . .
34.1(30) . . .
30.9(29) . . .
32.0(30) . . .
27.4(27) . . .
37.4(33) . . .
29.0(28) . . .
35.0(31) . . .
32.3(30) . . .
37.9(33) . . .
31.5(30) . . .
28.3(28) . . .
48(4) . . .
37.2(33) . . .
35.8(33) . . .
29.1(28) . . .
31.8(30) . . .
32.5(30) . . .
37.4(34) . . .
32.5(30) . . .
33.5(30) . . .
34.9(32) . . .
32.6(31) . . .
28.4(29) . . .
27.1(28) . . .
33.5(30) . . .
35.6(31) . . .
28.4(28) . . .
38(4) . . .
33.5(32) . . .
31.6(30) . . .
27.6(28) . . .
27.1(28) . . .
31.2(31) . . .
31.0(29) . . .
32.4(30) . . .
29.1(28) . . .
34.2(33) . . .
40(4) . . .
33.1(30) . . .
30.1(29) . . .
41.5(33) . . .
34.2(31) . . .
25.2(28) . . .
30.9(30) . . .
29.6(28) . . .
31.7(30) . . .
31.3(32) . . .
31.6(32) . . .
31.0(29) . . .
28.7(28) . . .
32.1(29) . . .
32.9(29) . . .
33.1(31) . . .
38.1(33) . . .
29.7(29) . . .
29.6(29) . . .
35.4(32) . . .
30.6(28) . . .
40.4(34) . . .
38.3(33) . . .
41.7(34) . . .
31.2(30) . . .
33.2(33) . . .
31.8(30) . . .
38.8(33) . . .
22.0(25) . . .
26.4(28) . . .
42.7(35) . . .
29.0(29) . . .
35.5(31) . . .
44.8(35) . . .
28.9(28) . . .
29.2(28) . . .
28.8(28) . . .
26.3(27) . . .
31.8(32) . . .
31.9(32) . . .
33.3(32) . . .
38.4(32) . . .
35.3(32) . . .
34.4(34) . . .
25.0(27) . . .
30.3(30) . . .
28.2(27) . . .
34.6(31) . . .
26.3(30) . . .
32.5(32) . . .
33.6(30) . . .
41.8(34) . . .
30.7(30) . . .
24.5(26) . . .
30.6(31) . . .
33.9(33) . . .
34.5(32) . . .
40.0(33) . . .
39.8(33) . . .
35.0(31) . . .
36.9(34) . . .
36.4(31) . . .
40.0(33) . . .
25.5(25) . . .
33.2(31) . . .
35.0(32) . . .
34.7(31) . . .
37.3(32) . . .
38.4(33) . . .
36.9(33) . . .
31.1(29) . . .
33.4(30) . . .
36.9(32) . . .
28.1(27) . . .
24.2(25) . . .
30.8(29) . . .
29.1(28) . . .
28.1(29) . . .
29.7(32) . . .
32.3(31) . . .
41.9(34) . . .
25.8(27) . . .
32.6(30) . . .
27.9(28) . . .
31.8(32) . . .
36.6(31) . . .
30.1(29) . . .
33.8(31) . . .
32.5(30) . . .
37.0(32) . . .
35.3(31) . . .
35.1(31) . . .
31.3(28) . . .
29.0(30) . . .
35.5(33) . . .
36.9(32) . . .
33.2(30) . . .
35.9(33) . . .
33.4(33) . . .
37.6(34) . . .
33.2(31) . . .
33.8(31) . . .
34.0(31) . . .
27.1(29) . . .
27.5(30) . . .
34.3(31) . . .
32.8(30) . . .
40(4) . . .
25.5(28) . . .
34.6(32) . . .
32.4(29) . . .
29.5(29) . . .
29.5(30) . . .
24.8(28) . . .
26.0(27) . . .
26.4(26) . . .
34.0(32) . . .
34.7(33) . . .
35.0(32) . . .
32.4(30) . . .
26.1(27) . . .
29.2(28) . . .
45(4) . . .
31.0(32) . . .
24.1(27) . . .
34.4(31) . . .
38.2(32) . . .
37.5(33) . . .
38.3(32) . . .
35.4(31) . . .
29.5(28) . . .
32.5(31) . . .
17.9(21) . . .
27.0(29) . . .
26.8(27) . . .
30.9(29) . . .
33.6(30) . . .
36.0(34) . . .
30.4(29) . . .
28.0(28) . . .
28.3(27) . . .
34.1(33) . . .
28.9(31) . . .
27.9(29) . . .
32.1(29) . . .
36.0(32) . . .
32.9(32) . . .
32.9(33) . . .
37.9(33) . . .
20.4(23) . . .
37.3(32) . . .
40.2(33) . . .
35.9(33) . . .
30.3(30) . . .
29.6(29) . . .
33.5(31) . . .
35.1(33) . . .
46(4) . . .
33.0(30) . . .
34.3(31) . . .
33.7(30) . . .
26.5(28) . . .
29.6(30) . . .
34.5(31) . . .
35.8(32) . . .
30.8(30) . . .
36.5(31) . . .
33.6(30) . . .
26.9(29) . . .
31.5(29) . . .
31.5(29) . . .
25.0(26) . . .
32.3(32) . . .
35.7(33) . . .
26.6(28) . . .
33.6(32) . . .
32.6(33) . . .
32.4(30) . . .
30.1(29) . . .
26.8(27) . . .
37.0(33) . . .
31.2(32) . . .
33.2(33) . . .
30.8(30) . . .
31.9(30) . . .
22.5(24) . . .
34.3(32) . . .
32.7(33) . . .
29.7(31) . . .
29.9(28) . . .
30.2(30) . . .
30.0(31) . . .
28.6(29) . . .
30.9(28) . . .
29.9(28) . . .
31.7(30) . . .
30.4(31) . . .
33.7(32) . . .
30.6(29) . . .
35.2(31) . . .
41(4) . . .
26.0(27) . . .
32.1(31) . . .
44(4) . . .
32.9(30) . . .
32.8(30) . . .
30.6(30) . . .
33.2(31) . . .
26.2(27) . . .
35.3(31) . . .
31.7(32) . . .
28.9(31) . . .
34.2(32) . . .
33.5(31) . . .
35.5(31) . . .
32.7(32) . . .
41(4) . . .
30.8(30) . . .
30.0(29) . . .
35.8(32) . . .
20.8(24) . . .
32.1(32) . . .
28.8(30) . . .
27.5(27) . . .
30.7(31) . . .
32.5(32) . . .
20.7(24) . . .
36.6(33) . . .
24.3(25) . . .
34.1(33) . . .
36.0(34) . . .
27.5(29) . . .
29.5(28) . . .
37.6(32) . . .
36.8(32) . . .
35.5(33) . . .
27.3(30) . . .
27.8(28) . . .
28.7(28) . . .
27.8(30) . . .
23.0(24) . . .
29.1(29) . . .
30.6(29) . . .
33.4(31) . . .
27.7(28) . . .
26.4(28) . . .
26.9(28) . . .
30.4(30) . . .
32.5(30) . . .
34.4(32) . . .
36(4) . . .
35(4) . . .
28.4(27) . . .
26.3(27) . . .
25.6(28) . . .
29.8(31) . . .
27.4(30) . . .
38.1(32) . . .
48(4) . . .
33.1(32) . . .
28.0(29) . . .
28.7(30) . . .
33.2(31) . . .
36.4(31) . . .
29.3(29) . . .
33.3(32) . . .
25.9(26) . . .
28.7(28) . . .
37.9(32) . . .
37(4) . . .
40(4) . . .
32.8(30) . . .
37.1(32) . . .
30.8(29) . . .
30.5(30) . . .
31.1(29) . . .
29.9(28) . . .
32.3(30) . . .
30.1(30) . . .
32.8(30) . . .
36.4(32) . . .
39.1(33) . . .
26.5(27) . . .
31.5(30) . . .
30.5(30) . . .
34.0(31) . . .
31.3(30) . . .
31.9(30) . . .
34.2(34) . . .
31.2(31) . . .
24.9(28) . . .
33.1(31) . . .
28.4(28) . . .
35.0(31) . . .
33.9(31) . . .
35.3(32) . . .
39.1(32) . . .
33.0(31) . . .
33.7(33) . . .
32.0(33) . . .
28.6(28) . . .
28.1(28) . . .
26.9(27) . . .
26.9(29) . . .
28.0(30) . . .
36.8(32) . . .
40.8(33) . . .
32.9(30) . . .
33.2(31) . . .
31.2(32) . . .
28.1(31) . . .
32.3(29) . . .
24.6(27) . . .
34.7(33) . . .
30.0(29) . . .
28.0(28) . . .
32.8(30) . . .
30.1(30) . . .
33.3(31) . . .
26.6(26) . . .
34.4(34) . . .
28.8(28) . . .
29.6(29) . . .
31.0(30) . . .
42(4) . . .
24.7(26) . . .
33.4(30) . . .
39.2(33) . . .
38(4) . . .
25.3(27) . . .
28.3(28) . . .
35.3(31) . . .
38.8(34) . . .
34.4(33) . . .
41(4) . . .
35.5(31) . . .
40.0(33) . . .
39.5(33) . . .
34.2(31) . . .
26.3(27) . . .
31.9(30) . . .
34.9(31) . . .
33.2(30) . . .
27.7(29) . . .
35.7(35) . . .
26.4(27) . . .
25.0(26) . . .
28.2(30) . . .
26.2(28) . . .
30.9(30) . . .
35.0(32) . . .
25.0(26) . . .
29.0(29) . . .
33.3(32) . . .
30.9(28) . . .
26.7(27) . . .
29.1(28) . . .
32.6(32) . . .
33.5(34) . . .
33.9(31) . . .
31.3(29) . . .
31.3(29) . . .
35.1(32) . . .
30.4(30) . . .
36.4(33) . . .
28.6(28) . . .
32.8(29) . . .
31.7(31) . . .
26.5(30) . . .
22.7(24) . . .
32.1(30) . . .
30.0(30) . . .
33.0(30) . . .
30.8(30) . . .
33.8(32) . . .
33.9(31) . . .
36.5(33) . . .
37.1(32) . . .
28.4(27) . . .
31.0(32) . . .
31.9(30) . . .
29.4(29) . . .
32.9(32) . . .
30.5(30) . . .
34.0(31) . . .
32.3(30) . . .
22.4(27) . . .
23.9(29) . . .
33.6(33) . . .
27.3(30) . . .
27.4(27) . . .
23.6(25) . . .
32.8(32) . . .
38.0(34) . . .
28.9(28) . . .
32.1(29) . . .
26.6(27) . . .
29.2(30) . . .
31.0(29) . . .
33.1(30) . . .
31.8(30) . . .
37(4) . . .
35.0(33) . . .
32.9(30) . . .
32.3(30) . . .
28.5(28) . . .
36.3(35) . . .
32.2(33) . . .
36.2(33) . . .
35.4(31) . . .
37.1(32) . . .
39.0(33) . . .
32.4(31) . . .
31.5(30) . . .
34.2(30) . . .
28.9(28) . . .
28.9(28) . . .
38.0(33) . . .
34.5(31) . . .
28.8(28) . . .
36.0(31) . . .
40.8(35) . . .
33.3(33) . . .
29.8(30) . . .
35.7(32) . . .
26.0(27) . . .
27.6(29) . . .
34.6(32) . . .
31.9(31) . . .
33.6(31) . . .
34.8(32) . . .
35.5(32) . . .
34.5(32) . . .
38.1(32) . . .
31.1(29) . . .
24.7(26) . . .
37.0(34) . . .
32.9(32) . . .
38.5(32) . . .
32.5(30) . . .
28.5(30) . . .
28.5(28) . . .
32.7(30) . . .
32.2(29) . . .
34.4(31) . . .
29.1(28) . . .
27.8(29) . . .
33.5(31) . . .
37.2(32) . . .
39.0(33) . . .
30.6(28) . . .
31.4(31) . . .
29.3(31) . . .
26.8(27) . . .
32.1(30) . . .
22.4(25) . . .
47(4) . . .
40.1(33) . . .
37.8(32) . . .
26.2(26) . . .
22.1(24) . . .
35.1(34) . . .
31.5(30) . . .
29.2(28) . . .
33.6(30) . . .
35.5(33) . . .
29.6(30) . . .
27.8(27) . . .
38.2(32) . . .
27.7(28) . . .
39(4) . . .
35.4(33) . . .
29.9(29) . . .
38.2(32) . . .
30.3(29) . . .
30.3(29) . . .
30.0(29) . . .
29.5(28) . . .
22.4(25) . . .
27.3(29) . . .
29.7(29) . . .
35.9(33) . . .
26.4(27) . . .
30.0(28) . . .
36.5(34) . . .
26.5(28) . . .
30.0(31) . . .
31.3(29) . . .
31.3(29) . . .
35.0(32) . . .
32.4(33) . . .
31.7(30) . . .
27.8(27) . . .
34.3(31) . . .
41(4) . . .
29.9(31) . . .
31.6(31) . . .
44.1(35) . . .
39.6(32) . . .
41.6(35) . . .
31.9(31) . . .
33.7(32) . . .
32.6(30) . . .
27.0(27) . . .
34.0(32) . . .
28.4(31) . . .
30.9(32) . . .
35.5(31) . . .
34.4(31) . . .
29.9(30) . . .
44(4) . . .
28.0(28) . . .
34.1(30) . . .
38.3(32) . . .
24.8(27) . . .
28.8(32) . . .
32.1(30) . . .
31.7(30) . . .
34.9(31) . . .
28.1(29) . . .
35.2(33) . . .
33.6(32) . . .
30.5(29) . . .
38.7(34) . . .
31.0(30) . . .
24.3(28) . . .
32.7(33) . . .
34.9(31) . . .
34.1(31) . . .
24.7(26) . . .
27.8(28) . . .
26.7(28) . . .
35.6(31) . . .
33.3(30) . . .
34.3(32) . . .
33.0(33) . . .
28.6(29) . . .
34.4(31) . . .
36.9(33) . . .
30.4(31) . . .
28.4(30) . . .
29.9(29) . . .
34.1(30) . . .
28.3(28) . . .
27.0(29) . . .
28.3(29) . . .
34.7(32) . . .
34.2(30) . . .
33.1(31) . . .
28.2(29) . . .
29.8(29) . . .
37.2(32) . . .
29.1(28) . . .
29.3(29) . . .
31.5(32) . . .
25.6(27) . . .
30.0(29) . . .
32.8(31) . . .
25.2(26) . . .
32.1(31) . . .
34.0(30) . . .
39.7(33) . . .
23.9(26) . . .
36.5(34) . . .
33.0(31) . . .
32.3(32) . . .
27.5(27) . . .
31.3(30) . . .
31.6(30) . . .
25.4(26) . . .
29.4(28) . . .
33.7(30) . . .
31.8(29) . . .
37.6(34) . . .
36(4) . . .
20.8(24) . . .
31.5(29) . . .
38.9(34) . . .
36.1(33) . . .
25.3(28) . . .
29.6(30) . . .
38.5(32) . . .
27.9(28) . . .
32.6(31) . . .
34.5(33) . . .
36.8(32) . . .
30.8(29) . . .
41.3(35) . . .
30.8(31) . . .
29.1(29) . . .
29.3(29) . . .
28.6(28) . . .
28.1(28) . . .
30.4(30) . . .
33.4(31) . . .
30.6(30) . . .
28.4(28) . . .
31.0(30) . . .
34.2(33) . . .
29.5(29) . . .
37.0(33) . . .
39.4(32) . . .
25.2(27) . . .
27.1(29) . . .
32.5(30) . . .
29.8(28) . . .
29.5(29) . . .
29.7(30) . . .
30.8(31) . . .
32.6(30) . . .
31.4(29) . . .
30.3(29) . . .
30.0(29) . . .
31.7(31) . . .
30.5(30) . . .
34.6(31) . . .
21.8(24) . . .
29.6(30) . . .
31.4(32) . . .
33.7(31) . . .
25.3(26) . . .
34.6(32) . . .
30.7(30) . . .
36.7(34) . . .
32.6(33) . . .
28.7(29) . . .
30.5(28) . . .
31.0(29) . . .
32.4(30) . . .
29.0(28) . . .
26.9(27) . . .
32.5(33) . . .
31.4(31) . . .
30.3(30) . . .
33.1(30) . . .
32.3(29) . . .
31.0(29) . . .
24.4(26) . . .
29.1(29) . . .
32.9(30) . . .
38.9(32) . . .
33.9(31) . . .
30.3(28) . . .
34.3(31) . . .
27.0(28) . . .
25.6(26) . . .
32.2(30) . . .
34.6(33) . . .
24.3(26) . . .
36.6(32) . . .
32.0(30) . . .
27.7(29) . . .
42(4) . . .
32.9(31) . . .
27.1(28) . . .
28.2(27) . . .
34.8(32) . . .
36(4) . . .
23.9(26) . . .
33.7(31) . . .
34.4(30) . . .
32.0(31) . . .
25.5(28) . . .
32.6(31) . . .
28.1(28) . . .
26.9(28) . . .
29.5(28) . . .
42(4) . . .
29.3(28) . . .
31.7(29) . . .
36.6(31) . . .
40.9(34) . . .
34.9(32) . . .
31.4(31) . . .
37.3(32) . . .
30.9(30) . . .
33.5(32) . . .
28.6(30) . . .
28.6(29) . . .
28.0(28) . . .
37.1(32) . . .
36.3(33) . . .
24.7(28) . . .
25.4(27) . . .
28.4(28) . . .
32.5(31) . . .
34.0(32) . . .
31.8(30) . . .
28.3(28) . . .
34.8(31) . . .
25.9(28) . . .
26.2(28) . . .
37.0(34) . . .
27.8(27) . . .
29.3(28) . . .
34.0(32) . . .
30.2(31) . . .
25.9(27) . . .
32.0(31) . . .
28.6(28) . . .
35.0(34) . . .
30.5(33) . . .
29.7(29) . . .
29.3(29) . . .
34.7(31) . . .
28.5(29) . . .
25.9(26) . . .
33.7(32) . . .
36.1(31) . . .
31.9(29) . . .
32.5(31) . . .
32.0(30) . . .
29.2(28) . . .
30.9(29) . . .
32.6(30) . . .
27.1(26) . . .
39.3(34) . . .
32.2(33) . . .
27.9(28) . . .
32.2(31) . . .
34.7(34) . . .
28.7(30) . . .
31.8(31) . . .
30.6(29) . . .
35.6(31) . . .
32.8(33) . . .
35.8(34) . . .
39.7(35) . . .
33.5(30) . . .
30.2(30) . . .
29.7(30) . . .
27.4(28) . . .
26.0(28) . . .
33.0(30) . . .
30.2(30) . . .
28.0(28) . . .
37.4(34) . . .
30.0(30) . . .
26.7(28) . . .
31.9(30) . . .
34.8(32) . . .
28.6(28) . . .
33.8(31) . . .
30.7(28) . . .
27.9(28) . . .
29.4(31) . . .
29.1(28) . . .
45(4) . . .
29.3(28) . . .
31.5(30) . . .
29.5(29) . . .
42(4) . . .
29.6(29) . . .
32.5(31) . . .
29.8(29) . . .
25.4(28) . . .
42(4) . . .
36.2(31) . . .
32.1(30) . . .
33.4(30) . . .
33.2(31) . . .
35.9(32) . . .
34.0(32) . . .
33.2(29) . . .
32.5(29) . . .
33.0(31) . . .
34.3(32) . . .
47(4) . . .
33.5(30) . . .
35.8(31) . . .
37.3(34) . . .
24.6(29) . . .
29.1(29) . . .
33.5(31) . . .
23.4(28) . . .
31.2(31) . . .
28.7(28) . . .
28.5(29) . . .
32.0(30) . . .
29.8(30) . . .
35.6(33) . . .
31.4(29) . . .
34.5(31) . . .
35.1(31) . . .
45(4) . . .
24.2(27) . . .
31.4(30) . . .
30.2(28) . . .
30.1(29) . . .
34.3(33) . . .
31.6(31) . . .
28.1(28) . . .
33.0(30) . . .
33.1(31) . . .
31.5(30) . . .
29.7(29) . . .
32.0(32) . . .
36.3(32) . . .
35.5(32) . . .
38(4) . . .
35.6(35) . . .
28.4(27) . . .
32.0(29) . . .
29.8(30) . . .
34.3(33) . . .
34.5(32) . . .
32.8(30) . . .
39.5(33) . . .
31.0(30) . . .
29.3(29) . . .
27.5(28) . . .
31.7(29) . . .
35.0(31) . . .
40(4) . . .
25.9(26) . . .
32.7(31) . . .
25.3(26) . . .
41(4) . . .
26.2(29) . . .
22.3(25) . . .
25.2(26) . . .
29.7(29) . . .
32.3(30) . . .
27.3(28) . . .
30.3(30) . . .
32.5(31) . . .
28.2(28) . . .
36.7(31) . . .
35.2(32) . . .
29.2(29) . . .
29.9(29) . . .
32.4(30) . . .
44(4) . . .
46(4) . . .
38(4) . . .
31.2(30) . . .
39.5(32) . . .
32.0(33) . . .
29.3(31) . . .
28.5(30) . . .
35.0(33) . . .
26.4(27) . . .
26.0(30) . . .
30.0(31) . . .
33.6(30) . . .
39.2(32) . . .
37.1(32) . . .
32.2(31) . . .
37.4(33) . . .
34.8(31) . . .
32.7(29) . . .
33.0(30) . . .
34.0(31) . . .
25.3(27) . . .
30.9(30) . . .
34.5(32) . . .
30.6(28) . . .
25.9(27) . . .
28.0(30) . . .
33.0(33) . . .
31.3(29) . . .
30.2(30) . . .
30.1(30) . . .
24.0(25) . . .
35.2(34) . . .
22.5(26) . . .
31.8(30) . . .
32.4(31) . . .
29.6(31) . . .
30.2(32) . . .
31.5(29) . . .
27.4(28) . . .
36.0(32) . . .
33.5(31) . . .
38.4(32) . . .
43.5(34) . . .
33.9(32) . . .
36.8(33) . . .
35.1(31) . . .
36.9(32) . . .
36.3(32) . . .
43(4) . . .
27.2(28) . . .
24.2(27) . . .
26.1(27) . . .
31.5(29) . . .
29.6(30) . . .
28.1(28) . . .
32.9(33) . . .
30.0(28) . . .
35.9(31) . . .
33.5(30) . . .
33.7(32) . . .
25.5(28) . . .
27.6(28) . . .
35.8(31) . . .
33.9(32) . . .
27.8(28) . . .
30.0(30) . . .
30.2(29) . . .
31.5(29) . . .
39.1(34) . . .
32.7(31) . . .
29.2(31) . . .
35.0(31) . . .
28.8(28) . . .
36.2(34) . . .
32.8(32) . . .
39.3(35) . . .
34.8(30) . . .
40.4(33) . . .
45(4) . . .
36.8(34) . . .
30.9(29) . . .
30.6(29) . . .
34.1(31) . . .
36.3(33) . . .
31.8(31) . . .
30.8(31) . . .
36.9(31) . . .
30.9(30) . . .
30.7(30) . . .
28.1(29) . . .
33.2(32) . . .
33.8(30) . . .
39.8(33) . . .
26.7(27) . . .
32.9(32) . . .
33.0(30) . . .
44.2(35) . . .
31.2(29) . . .
31.5(31) . . .
28.4(28) . . .
39.0(33) . . .
40.2(33) . . .
32.0(30) . . .
32.8(32) . . .
27.7(28) . . .
31.5(31) . . .
34.5(31) . . .
28.6(28) . . .
32.4(30) . . .
31.9(32) . . .
28.9(29) . . .
34.7(30) . . .
29.9(29) . . .
33.9(33) . . .
31.8(32) . . .
25.9(28) . . .
31.1(29) . . .
30.3(28) . . .
35.3(33) . . .
35.0(32) . . .
29.7(28) . . .
34.2(30) . . .
33.7(32) . . .
35(4) . . .
33.3(31) . . .
33.8(31) . . .
32.2(30) . . .
32.1(31) . . .
36.0(34) . . .
25.0(26) . . .
30.1(29) . . .
31.4(30) . . .
34.1(33) . . .
18.6(22) . . .
33.8(35) . . .
30.9(29) . . .
31.2(29) . . .
31.6(31) . . .
32.8(31) . . .
26.5(28) . . .
25.6(27) . . .
31.2(31) . . .
29.8(30) . . .
33.2(31) . . .
35.4(32) . . .
28.0(28) . . .
28.8(28) . . .
34.6(33) . . .
32.7(30) . . .
32.8(31) . . .
29.1(28) . . .
33.7(32) . . .
31.1(31) . . .
26.2(28) . . .
34.2(30) . . .
27.9(27) . . .
34.7(32) . . .
25.6(28) . . .
33.0(34) . . .
28.2(29) . . .
28.7(28) . . .
31.6(30) . . .
29.1(29) . . .
33.8(32) . . .
28.3(27) . . .
33.1(31) . . .
33.7(32) . . .
31.4(31) . . .
34.7(32) . . .
30.9(29) . . .
29.3(28) . . .
34.4(31) . . .
43(4) . . .
36.2(33) . . .
23.7(25) . . .
30.3(29) . . .
32.5(29) . . .
29.4(29) . . .
33.0(30) . . .
38.7(32) . . .
35.7(30) . . .
26.8(26) . . .
28.9(29) . . .
36.3(33) . . .
27.5(27) . . .
28.7(29) . . .
35.7(35) . . .
21.5(26) . . .
38.4(35) . . .
32.5(30) . . .
21.9(26) . . .
27.0(31) . . .
36.1(34) . . .
28.4(29) . . .
24.5(26) . . .
34.9(31) . . .
34.4(32) . . .
23.0(25) . . .
35.3(32) . . .
34.4(31) . . .
26.9(30) . . .
24.3(27) . . .
25.5(27) . . .
27.5(27) . . .
24.4(26) . . .
25.8(27) . . .
24.6(28) . . .
34.5(32) . . .
27.8(27) . . .
29.9(29) . . .
29.7(30) . . .
34.0(32) . . .
28.6(29) . . .
29.2(28) . . .
28.2(28) . . .
33.3(34) . . .
30.9(31) . . .
32.3(29) . . .
36.7(31) . . .
25.5(27) . . .
27.5(28) . . .
37(4) . . .
34.6(31) . . .
34.1(31) . . .
34.5(32) . . .
30.0(30) . . .
33.3(30) . . .
38.6(32) . . .
37.0(32) . . .
31.0(29) . . .
28.0(28) . . .
24.3(27) . . .
27.4(28) . . .
36.4(32) . . .
24.7(27) . . .
30.5(31) . . .
29.4(30) . . .
28.4(28) . . .
28.0(28) . . .
26.8(28) . . .
31.5(33) . . .
28.5(30) . . .
29.4(32) . . .
35.7(32) . . .
28.6(27) . . .
30.7(29) . . .
33.0(32) . . .
34.3(31) . . .
30.5(30) . . .
30.1(29) . . .
32.5(29) . . .
27.0(26) . . .
25.9(26) . . .
28.2(27) . . .
28.8(29) . . .
35.7(33) . . .
33.2(31) . . .
29.0(28) . . .
25.0(26) . . .
34.3(32) . . .
36.6(33) . . .
23.0(25) . . .
28.4(29) . . .
33.5(30) . . .
39.8(34) . . .
36.8(34) . . .
31.3(29) . . .
31.1(29) . . .
32.1(30) . . .
33.4(31) . . .
33.5(35) . . .
37.4(35) . . .
33.6(30) . . .
35.7(31) . . .
37.1(32) . . .
28.6(29) . . .
33.7(32) . . .
39.3(33) . . .
34.4(30) . . .
34.3(31) . . .
34.6(32) . . .
26.7(28) . . .
33.9(30) . . .
31.3(29) . . .
33.6(32) . . .
34.1(33) . . .
32.4(31) . . .
32.3(30) . . .
38.4(32) . . .
31.9(31) . . .
22.9(27) . . .
30.4(29) . . .
30.7(29) . . .
31.3(29) . . .
25.8(28) . . .
29.6(30) . . .
37.7(33) . . .
37.7(32) . . .
29.3(30) . . .
30.9(31) . . .
29.7(29) . . .
33.2(30) . . .
31.3(29) . . .
25.2(26) . . .
22.9(25) . . .
29.1(30) . . .
27.5(28) . . .
30.7(29) . . .
31.8(30) . . .
38.1(35) . . .
32.5(29) . . .
38.4(33) . . .
41.1(33) . . .
30.9(29) . . .
34.0(34) . . .
31.9(32) . . .
24.3(26) . . .
31.7(30) . . .
33.7(32) . . .
31.9(31) . . .
26.5(28) . . .
26.7(27) . . .
33.4(30) . . .
26.4(28) . . .
23.2(28) . . .
28.2(29) . . .
33.5(31) . . .
37.0(31) . . .
37.8(34) . . .
38(4) . . .
35.8(33) . . .
26.4(27) . . .
27.4(28) . . .
37.2(32) . . .
26.0(26) . . .
31.3(31) . . .
30.8(29) . . .
30.9(30) . . .
33.9(33) . . .
28.9(30) . . .
33.3(33) . . .
33.0(30) . . .
35.6(33) . . .
29.5(32) . . .
31.0(31) . . .
29.8(29) . . .
35.0(31) . . .
40.0(33) . . .
27.6(28) . . .
27.8(30) . . .
25.6(28) . . .
34.0(30) . . .
29.8(30) . . .
27.5(29) . . .
33.9(33) . . .
25.8(28) . . .
23.6(25) . . .
34.6(32) . . .
31.8(30) . . .
31.0(31) . . .
33.6(32) . . .
36.0(31) . . .
35.8(32) . . .
31.2(30) . . .
38.7(34) . . .
33.7(31) . . .
35.3(31) . . .
26.3(28) . . .
25.8(27) . . .
31.2(30) . . .
28.0(27) . . .
34.7(30) . . .
30.8(29) . . .
28.3(28) . . .
35.2(32) . . .
35.5(31) . . .
36.1(31) . . .
27.4(27) . . .
36(4) . . .
25.5(28) . . .
22.9(25) . . .
21.1(23) . . .
31.4(30) . . .
35.8(33) . . .
27.1(27) . . .
30.9(28) . . .
26.4(27) . . .
29.4(29) . . .
26.7(27) . . .
21.3(24) . . .
35.7(32) . . .
26.2(27) . . .
31.3(30) . . .
34.5(34) . . .
34.1(32) . . .
28.2(28) . . .
28.5(29) . . .
27.9(30) . . .
32.7(33) . . .
41(4) . . .
37.4(32) . . .
29.5(31) . . .
32.9(33) . . .
30.9(31) . . .
24.2(26) . . .
28.7(29) . . .
33.2(31) . . .
33.7(33) . . .
29.5(28) . . .
31.2(30) . . .
22.5(25) . . .
30.4(30) . . .
25.5(27) . . .
36.6(33) . . .
24.6(26) . . .
28.3(28) . . .
19.2(25) . . .
28.4(32) . . .
31.4(30) . . .
36.5(33) . . .
31.9(29) . . .
32.0(31) . . .
31.9(32) . . .
26.0(27) . . .
32.2(30) . . .
23.9(26) . . .
20.6(24) . . .
27.0(29) . . .
32.9(31) . . .
34.7(31) . . .
27.6(27) . . .
32.3(31) . . .
41(4) . . .
44(4) . . .
30.6(28) . . .
35.3(31) . . .
25.8(27) . . .
24.3(28) . . .
26.5(29) . . .
26.0(26) . . .
31.6(29) . . .
30.7(29) . . .
31.7(30) . . .
27.3(29) . . .
35.3(31) . . .
37.5(33) . . .
29.0(30) . . .
26.6(26) . . .
41.9(35) . . .
28.5(28) . . .
35.2(31) . . .
33.0(34) . . .
28.6(32) . . .
28.3(29) . . .
28.7(28) . . .
30.9(31) . . .
26.4(28) . . .
39(4) . . .
30.9(28) . . .
30.8(29) . . .
35.2(34) . . .
35.3(32) . . .
35.0(32) . . .
27.0(28) . . .
28.3(28) . . .
28.0(29) . . .
34.5(34) . . .
31.2(31) . . .
30.9(30) . . .
32.7(31) . . .
32.8(32) . . .
23.5(28) . . .
31.5(31) . . .
44.2(34) . . .
33.9(31) . . .
32.7(30) . . .
32.4(33) . . .
37.2(33) . . .
31.0(29) . . .
23.7(26) . . .
27.7(30) . . .
38(4) . . .
30.3(29) . . .
38.6(33) . . .
32.4(29) . . .
29.1(29) . . .
33.9(33) . . .
30.8(30) . . .
30.6(29) . . .
32.8(31) . . .
31.4(30) . . .
36.9(32) . . .
30.3(29) . . .
35.2(31) . . .
32.2(30) . . .
26.6(27) . . .
26.6(27) . . .
24.5(25) . . .
30.0(29) . . .
25.4(26) . . .
38.5(33) . . .
41.1(34) . . .
35.5(33) . . .
23.7(26) . . .
25.5(27) . . .
26.7(30) . . .
20.4(24) . . .
23.9(26) . . .
27.0(27) . . .
32.4(30) . . .
27.7(27) . . .
23.3(27) . . .
29.3(30) . . .
32.4(31) . . .
34.3(33) . . .
25.4(28) . . .
29.4(29) . . .
27.9(30) . . .
31.2(29) . . .
32.7(31) . . .
28.5(30) . . .
34.4(33) . . .
31.8(29) . . .
34.5(30) . . .
27.2(27) . . .
25.0(29) . . .
32.7(32) . . .
35.2(32) . . .
33.0(30) . . .
30.4(30) . . .
23.6(26) . . .
36.4(32) . . .
35.9(31) . . .
36.0(33) . . .
28.9(29) . . .
31.6(32) . . .
24.1(25) . . .
28.9(28) . . .
38.0(33) . . .
29.5(29) . . .
31.4(32) . . .
30.5(29) . . .
30.2(29) . . .
29.7(29) . . .
25.2(26) . . .
33.7(31) . . .
27.6(28) . . .
35.1(32) . . .
31.8(29) . . .
29.4(32) . . .
32.4(32) . . .
30.3(30) . . .
30.3(29) . . .
24.8(27) . . .
26.3(27) . . .
30.7(29) . . .
34.5(32) . . .
34.9(31) . . .
25.2(29) . . .
25.6(28) . . .
26.7(27) . . .
34.5(31) . . .
31.0(30) . . .
29.2(29) . . .
35.2(34) . . .
34.2(32) . . .
38(4) . . .
32.0(29) . . .
27.7(28) . . .
25.8(29) . . .
34.2(32) . . .
34.4(33) . . .
31.4(29) . . .
30.0(29) . . .
32.9(32) . . .
32.0(29) . . .
34.3(30) . . .
33.4(30) . . .
32.8(30) . . .
35.1(34) . . .
35.0(34) . . .
31.3(30) . . .
32.4(29) . . .
29.0(29) . . .
25.1(27) . . .
30.8(29) . . .
37.1(33) . . .
24.0(26) . . .
24.7(31) . . .
29.8(31) . . .
27.1(27) . . .
26.3(27) . . .
36.2(32) . . .
27.9(28) . . .
25.4(27) . . .
25.9(26) . . .
29.8(28) . . .
27.9(28) . . .
36.4(34) . . .
28.6(28) . . .
31.7(30) . . .
30.9(30) . . .
34.2(32) . . .
36.6(32) . . .
36.7(33) . . .
28.9(28) . . .
32.7(30) . . .
33.3(30) . . .
34.2(33) . . .
23.6(26) . . .
24.1(27) . . .
30.3(28) . . .
28.4(28) . . .
32.4(33) . . .
27.1(29) . . .
36.9(33) . . .
32.4(30) . . .
27.9(30) . . .
28.2(30) . . .
30.5(30) . . .
30.6(30) . . .
31.4(29) . . .
29.1(28) . . .
38(4) . . .
32.6(31) . . .
23.8(25) . . .
33.7(31) . . .
31.1(29) . . .
35.1(33) . . .
33.7(32) . . .
33.8(30) . . .
33.4(30) . . .
29.4(28) . . .
29.8(32) . . .
32.7(31) . . .
32.3(29) . . .
31.3(30) . . .
36.4(34) . . .
28.5(30) . . .
35.8(33) . . .
34.7(30) . . .
28.6(30) . . .
31.8(30) . . .
38.5(35) . . .
36.7(35) . . .
31.4(29) . . .
30.1(29) . . .
35.5(33) . . .
36.2(32) . . .
31.4(29) . . .
26.3(27) . . .
18.9(24) . . .
33.9(33) . . .
32.1(29) . . .
29.8(28) . . .
33.1(30) . . .
22.4(24) . . .
37.3(34) . . .
36.6(33) . . .
29.3(30) . . .
27.2(27) . . .
28.0(27) . . .
33.3(32) . . .
35.3(32) . . .
37.0(31) . . .
29.4(29) . . .
35.7(34) . . .
21.5(24) . . .
24.8(26) . . .
37.0(32) . . .
32.1(30) . . .
35.2(31) . . .
32.4(29) . . .
31.3(28) . . .
32.8(29) . . .
22.6(25) . . .
35.0(34) . . .
35.0(35) . . .
34.5(32) . . .
32.4(30) . . .
34.9(32) . . .
34.3(32) . . .
27.3(28) . . .
35.0(33) . . .
25.7(26) . . .
24.0(26) . . .
25.8(29) . . .
32.3(34) . . .
32.8(34) . . .
31.0(29) . . .
36.5(33) . . .
35.3(33) . . .
34.6(34) . . .
31.5(32) . . .
33.7(30) . . .
32.5(30) . . .
32.8(30) . . .
31.8(29) . . .
36.5(32) . . .
27.6(27) . . .
37.0(33) . . .
34.0(32) . . .
31.3(29) . . .
33.5(31) . . .
26.8(27) . . .
25.7(29) . . .
23.5(27) . . .
25.1(27) . . .
37.9(33) . . .
27.0(27) . . .
29.7(30) . . .
30.1(29) . . .
32.5(30) . . .
34.7(30) . . .
33.5(31) . . .
40.2(34) . . .
29.6(30) . . .
36.6(32) . . .
28.3(29) . . .
35.4(31) . . .
36.9(33) . . .
30.5(30) . . .
26.0(28) . . .
29.6(29) . . .
36.7(32) . . .
33.0(32) . . .
27.2(28) . . .
35.0(32) . . .
29.6(28) . . .
25.6(27) . . .
28.4(29) . . .
22.3(27) . . .
32.0(31) . . .
27.2(27) . . .
27.8(28) . . .
30.0(29) . . .
34.8(33) . . .
36.9(32) . . .
29.7(29) . . .
37.3(32) . . .
25.0(27) . . .
38(4) . . .
31.9(33) . . .
31.7(29) . . .
31.9(31) . . .
27.2(29) . . .
26.8(28) . . .
31.0(30) . . .
31.3(29) . . .
25.8(28) . . .
37(4) . . .
35.8(33) . . .
29.6(30) . . .
32.6(29) . . .
24.6(27) . . .
27.2(29) . . .
34.7(32) . . .
26.2(26) . . .
34.6(31) . . .
34.0(32) . . .
29.0(31) . . .
27.1(28) . . .
34.6(31) . . .
35.4(31) . . .
27.5(30) . . .
35.4(34) . . .
30.2(29) . . .
32.1(30) . . .
32.2(30) . . .
31.0(31) . . .
28.5(28) . . .
32.4(31) . . .
30.1(29) . . .
26.8(26) . . .
36.0(33) . . .
32.0(30) . . .
33.8(31) . . .
28.4(29) . . .
25.6(26) . . .
25.5(28) . . .
41(4) . . .
31.5(30) . . .
32.4(30) . . .
19.5(23) . . .
32.6(31) . . .
26.2(27) . . .
37.1(33) . . .
30.9(29) . . .
37.0(33) . . .
37.5(34) . . .
29.9(30) . . .
38.0(35) . . .
33.6(31) . . .
30.6(29) . . .
27.5(28) . . .
33.0(31) . . .
29.1(28) . . .
29.0(28) . . .
27.4(29) . . .
31.7(32) . . .
36.9(35) . . .
28.3(28) . . .
29.6(29) . . .
28.9(29) . . .
26.0(27) . . .
29.2(30) . . .
29.4(29) . . .
27.9(28) . . .
29.7(28) . . .
31.1(30) . . .
25.6(27) . . .
29.0(29) . . .
30.7(29) . . .
24.5(27) . . .
25.8(28) . . .
27.9(29) . . .
26.9(27) . . .
32.3(29) . . .
30.1(29) . . .
29.1(29) . . .
27.6(27) . . .
25.1(26) . . .
22.8(26) . . .
26.2(27) . . .
30.2(30) . . .
32.2(32) . . .
32.3(30) . . .
29.3(28) . . .
35.3(33) . . .
35.4(34) . . .
33.1(32) . . .
28.7(28) . . .
26.6(26) . . .
35.8(34) . . .
33.8(33) . . .
31.5(31) . . .
31.9(29) . . .
31.9(30) . . .
28.6(30) . . .
24.1(28) . . .
23.8(25) . . .
27.2(27) . . .
28.8(28) . . .
32.9(31) . . .
30.8(28) . . .
28.8(28) . . .
24.1(25) . . .
25.9(28) . . .
31.3(30) . . .
31.7(30) . . .
33.8(32) . . .
23.9(26) . . .
29.5(29) . . .
35.3(31) . . .
36.0(31) . . .
35.9(31) . . .
27.4(28) . . .
34.9(31) . . .
30.5(28) . . .
34.7(34) . . .
28.1(29) . . .
26.1(27) . . .
37.2(33) . . .
34.8(32) . . .
37.5(33) . . .
23.4(26) . . .
29.8(29) . . .
35.6(31) . . .
28.8(28) . . .
29.9(29) . . .
18.7(22) . . .
28.3(29) . . .
34.2(35) . . .
30.3(30) . . .
28.1(27) . . .
39.0(32) . . .
32.0(29) . . .
30.3(29) . . .
36.3(32) . . .
32.9(31) . . .
24.4(27) . . .
37.4(32) . . .
29.0(29) . . .
30.7(32) . . .
24.5(27) . . .
27.7(28) . . .
27.0(28) . . .
30.0(30) . . .
30.6(30) . . .
23.5(27) . . .
21.7(25) . . .
29.8(29) . . .
30.9(31) . . .
30.1(30) . . .
24.0(26) . . .
27.1(27) . . .
32.9(30) . . .
29.3(30) . . .
22.0(26) . . .
32.8(33) . . .
30.4(29) . . .
26.5(28) . . .
26.6(28) . . .
23.5(27) . . .
32.1(30) . . .
39.5(33) . . .
25.5(27) . . .
30.0(31) . . .
32.3(32) . . .
28.7(30) . . .
23.8(26) . . .
27.7(28) . . .
34.0(33) . . .
31.1(30) . . .
34.5(31) . . .
30.4(28) . . .
29.2(28) . . .
26.0(27) . . .
29.7(30) . . .
28.8(29) . . .
29.9(29) . . .
35.4(32) . . .
32.5(33) . . .
28.6(31) . . .
32.5(30) . . .
31.7(29) . . .
35.8(33) . . .
29.7(30) . . .
34.7(31) . . .
33.6(30) . . .
24.3(26) . . .
29.8(30) . . .
27.1(30) . . .
30.9(32) . . .
37.3(34) . . .
28.6(27) . . .
27.7(27) . . .
29.2(30) . . .
38.8(35) . . .
35.3(32) . . .
29.5(28) . . .
31.2(29) . . .
28.9(29) . . .
38.1(34) . . .
22.5(24) . . .
34.4(31) . . .
37.3(34) . . .
32.0(33) . . .
27.4(29) . . .
28.0(28) . . .
34.8(31) . . .
38.4(34) . . .
38.0(34) . . .
28.9(29) . . .
30.1(28) . . .
31.9(30) . . .
26.0(27) . . .
29.1(30) . . .
33.4(31) . . .
36.3(31) . . .
32.3(31) . . .
31.1(30) . . .
29.5(28) . . .
35.2(31) . . .
32.0(29) . . .
27.8(28) . . .
26.7(29) . . .
31.6(32) . . .
30.9(29) . . .
27.7(28) . . .
32.1(30) . . .
31.8(31) . . .
31.7(30) . . .
34.1(31) . . .
40.9(34) . . .
29.8(28) . . .
34.0(35) . . .
29.9(29) . . .
36.2(31) . . .
33.6(32) . . .
20.3(23) . . .
22.9(26) . . .
25.2(26) . . .
29.0(28) . . .
33.1(30) . . .
28.3(28) . . .
25.5(28) . . .
24.1(25) . . .
34.2(30) . . .
24.8(26) . . .
21.9(25) . . .
32.3(33) . . .
25.7(27) . . .
32.0(29) . . .
31.8(30) . . .
28.2(29) . . .
24.6(28) . . .
24.2(26) . . .
23.3(25) . . .
31.6(31) . . .
32.0(29) . . .
30.1(28) . . .
35.7(33) . . .
33.4(30) . . .
29.9(29) . . .
32.9(31) . . .
33.7(32) . . .
29.3(28) . . .
24.4(26) . . .
26.3(27) . . .
28.6(29) . . .
26.8(27) . . .
31.1(30) . . .
41.3(34) . . .
28.9(29) . . .
30.9(32) . . .
35.9(32) . . .
38.8(33) . . .
35.5(31) . . .
25.8(27) . . .
32.3(33) . . .
29.5(29) . . .
26.0(26) . . .
26.9(27) . . .
32.2(30) . . .
31.3(31) . . .
29.8(30) . . .
30.4(28) . . .
30.7(29) . . .
32.2(34) . . .
29.6(31) . . .
34.6(31) . . .
31.6(29) . . .
38.2(32) . . .
35.9(31) . . .
36.5(34) . . .
22.3(24) . . .
33.2(30) . . .
32.0(30) . . .
32.4(32) . . .
36(4) . . .
26.8(28) . . .
31.0(28) . . .
33.5(30) . . .
29.6(29) . . .
29.9(30) . . .
24.2(27) . . .
25.6(28) . . .
32.2(29) . . .
31.8(31) . . .
26.7(28) . . .
30.3(29) . . .
28.4(28) . . .
24.4(26) . . .
25.4(27) . . .
24.2(26) . . .
32.2(31) . . .
34.2(30) . . .
36.0(31) . . .
30.3(29) . . .
34.3(33) . . .
28.2(28) . . .
29.3(28) . . .
27.2(27) . . .
31.6(29) . . .
31.3(30) . . .
32.4(30) . . .
24.9(26) . . .
37.3(33) . . .
28.2(28) . . .
32.9(32) . . .
25.4(26) . . .
25.7(27) . . .
28.8(28) . . .
38.2(35) . . .
28.1(28) . . .
34.9(32) . . .
33.7(30) . . .
24.5(26) . . .
36.4(34) . . .
33.6(32) . . .
28.8(30) . . .
30.4(29) . . .
33.3(32) . . .
28.3(31) . . .
28.3(27) . . .
34.7(31) . . .
24.4(26) . . .
28.0(28) . . .
31.1(32) . . .
30.2(30) . . .
28.9(28) . . .
29.1(29) . . .
27.0(28) . . .
36.9(35) . . .
31.2(31) . . .
22.8(24) . . .
30.0(29) . . .
35.8(33) . . .
24.0(27) . . .
33.3(31) . . .
35.3(31) . . .
40.2(34) . . .
27.6(28) . . .
25.4(28) . . .
35.2(34) . . .
30.5(28) . . .
25.7(29) . . .
26.1(27) . . .
33.0(31) . . .
33.1(31) . . .
41.0(33) . . .
36.8(35) . . .
24.6(25) . . .
27.2(28) . . .
30.3(29) . . .
28.1(28) . . .
29.0(30) . . .
24.1(29) . . .
30.6(31) . . .
25.0(26) . . .
33.9(30) . . .
26.5(26) . . .
32.5(30) . . .
36.8(32) . . .
25.5(26) . . .
32.6(29) . . .
39.4(34) . . .
29.2(30) . . .
27.7(28) . . .
28.6(27) . . .
28.8(28) . . .
27.8(28) . . .
26.4(28) . . .
32.4(30) . . .
32.0(29) . . .
27.1(27) . . .
31.7(30) . . .
24.9(25) . . .
39.9(34) . . .
25.9(26) . . .
29.2(29) . . .
29.8(31) . . .
26.4(27) . . .
35.3(31) . . .
36.9(32) . . .
34.7(31) . . .
37.4(34) . . .
35.4(33) . . .
35.3(31) . . .
35.4(32) . . .
33.0(30) . . .
27.7(28) . . .
32.3(30) . . .
37.0(33) . . .
35.0(30) . . .
34.4(33) . . .
26.0(27) . . .
28.0(28) . . .
31.6(30) . . .
29.0(28) . . .
33.9(32) . . .
30.5(30) . . .
31.2(30) . . .
27.8(29) . . .
36.6(32) . . .
31.0(30) . . .
33.0(32) . . .
30.2(30) . . .
33.8(32) . . .
35.8(32) . . .
30.3(31) . . .
34.1(32) . . .
35.2(32) . . .
32.7(31) . . .
33.7(31) . . .
29.6(30) . . .
28.9(30) . . .
34.0(31) . . .
31.8(29) . . .
36.1(31) . . .
30.9(30) . . .
31.5(30) . . .
31.5(29) . . .
36.6(33) . . .
26.3(27) . . .
24.9(27) . . .
35.1(33) . . .
30.4(29) . . .
34.0(31) . . .
28.0(28) . . .
28.8(29) . . .
22.7(26) . . .
27.1(29) . . .
29.4(28) . . .
29.8(30) . . .
24.8(28) . . .
34(4) . . .
26.7(29) . . .
28.0(27) . . .
29.5(28) . . .
31.1(31) . . .
29.2(31) . . .
25.1(28) . . .
24.3(25) . . .
24.3(26) . . .
29.6(30) . . .
29.0(28) . . .
30.1(29) . . .
32.2(29) . . .
31.3(30) . . .
32.0(31) . . .
33.0(32) . . .
24.6(28) . . .
33.5(30) . . .
29.5(29) . . .
28.0(28) . . .
36.1(32) . . .
32.3(30) . . .
24.4(26) . . .
28.8(28) . . .
30.1(29) . . .
26.8(27) . . .
31.0(29) . . .
34.7(30) . . .
31.4(30) . . .
31.8(33) . . .
26.5(27) . . .
33.3(30) . . .
21.6(24) . . .
29.0(28) . . .
35.3(32) . . .
35.4(32) . . .
28.6(30) . . .
32.5(31) . . .
32.0(30) . . .
29.6(30) . . .
36.8(34) . . .
31.3(29) . . .
28.2(27) . . .
29.7(30) . . .
36.1(32) . . .
34.0(31) . . .
23.7(25) . . .
33.5(31) . . .
35.9(32) . . .
28.8(30) . . .
28.0(28) . . .
35.7(31) . . .
36.7(33) . . .
28.3(29) . . .
32.7(31) . . .
29.9(31) . . .
19.5(24) . . .
32.4(30) . . .
25.8(29) . . .
24.2(29) . . .
36.9(33) . . .
26.8(27) . . .
30.1(33) . . .
27.2(28) . . .
30.0(31) . . .
31.4(30) . . .
22.6(25) . . .
31.5(30) . . .
36.3(34) . . .
40(4) . . .
29.7(28) . . .
32.8(30) . . .
29.9(29) . . .
32.0(31) . . .
36.8(34) . . .
40.8(34) . . .
30.7(29) . . .
30.1(29) . . .
32.8(32) . . .
30.5(30) . . .
25.7(27) . . .
25.9(26) . . .
26.3(30) . . .
29.2(31) . . .
32.1(31) . . .
28.7(27) . . .
27.2(27) . . .
29.3(30) . . .
33.4(35) . . .
33.9(32) . . .
26.7(27) . . .
34.4(30) . . .
32.5(30) . . .
28.3(29) . . .
28.8(30) . . .
31.7(29) . . .
31.3(29) . . .
27.5(28) . . .
29.2(30) . . .
38.1(33) . . .
32.3(31) . . .
22.4(25) . . .
25.9(30) . . .
33.4(32) . . .
38.2(33) . . .
34.5(31) . . .
23.9(27) . . .
25.0(27) . . .
33.4(31) . . .
31.8(32) . . .
30.9(29) . . .
27.6(27) . . .
27.5(27) . . .
34.8(33) . . .
27.2(28) . . .
35.2(32) . . .
26.9(28) . . .
31.4(29) . . .
25.8(26) . . .
39(4) . . .
29.8(28) . . .
23.7(26) . . .
33.1(33) . . .
28.8(27) . . .
33.1(30) . . .
30.8(29) . . .
31.2(31) . . .
32.9(32) . . .
23.2(25) . . .
27.4(28) . . .
31.5(30) . . .
27.9(30) . . .
29.6(32) . . .
34.4(32) . . .
28.6(28) . . .
24.5(26) . . .
30.3(29) . . .
31.3(30) . . .
35.7(33) . . .
29.4(29) . . .
38.8(34) . . .
30.9(32) . . .
40(4) . . .
38.2(33) . . .
34.7(30) . . .
31.6(30) . . .
25.4(26) . . .
27.9(29) . . .
25.2(26) . . .
26.1(27) . . .
31.8(30) . . .
29.6(31) . . .
27.4(31) . . .
27.2(29) . . .
30.8(28) . . .
30.7(29) . . .
32.1(31) . . .
24.9(27) . . .
27.8(28) . . .
25.1(26) . . .
32.2(31) . . .
28.9(29) . . .
34.8(33) . . .
28.9(29) . . .
20.5(24) . . .
26.9(27) . . .
29.9(30) . . .
26.1(29) . . .
26.0(27) . . .
29.9(29) . . .
35.9(32) . . .
31.9(33) . . .
22.7(25) . . .
36.1(32) . . .
34.5(31) . . .
20.8(25) . . .
38(4) . . .
36.0(33) . . .
29.8(28) . . .
30.4(29) . . .
26.8(28) . . .
26.2(30) . . .
29.5(30) . . .
28.2(28) . . .
28.5(28) . . .
35.4(32) . . .
27.5(30) . . .
24.9(26) . . .
27.7(28) . . .
24.2(25) . . .
25.1(26) . . .
26.7(27) . . .
28.7(28) . . .
32.0(29) . . .
41.0(34) . . .
31.3(31) . . .
24.5(27) . . .
37.1(34) . . .
34.5(30) . . .
31.5(30) . . .
26.1(28) . . .
28.1(29) . . .
32.8(32) . . .
28.1(29) . . .
27.5(27) . . .
29.1(29) . . .
32.1(31) . . .
39.6(34) . . .
33.6(31) . . .
35.7(32) . . .
28.5(28) . . .
27.0(29) . . .
32.9(32) . . .
29.0(28) . . .
39.7(35) . . .
32.6(32) . . .
32.3(30) . . .
33.7(30) . . .
30.9(29) . . .
28.7(28) . . .
32.6(32) . . .
28.4(28) . . .
27.5(28) . . .
28.6(28) . . .
24.5(29) . . .
32(4) . . .
21.2(28) . . .
21.3(25) . . .
23.6(25) . . .
30.0(29) . . .
26.9(31) . . .
32.2(31) . . .
34.2(31) . . .
32.1(29) . . .
32.0(31) . . .
29.6(32) . . .
33.1(31) . . .
33.8(32) . . .
27.3(27) . . .
34.5(32) . . .
33.6(34) . . .
23.4(25) . . .
28.2(28) . . .
24.3(26) . . .
31.8(31) . . .
25.6(30) . . .
37.0(33) . . .
34.6(31) . . .
23.5(26) . . .
27.8(29) . . .
23.5(27) . . .
25.8(28) . . .
31.5(29) . . .
35.3(31) . . .
34.1(32) . . .
28.0(29) . . .
32.1(31) . . .
33.5(30) . . .
28.6(29) . . .
35.7(33) . . .
28.9(29) . . .
32.2(32) . . .
24.7(26) . . .
30.8(30) . . .
38(4) . . .
29.1(28) . . .
36.2(32) . . .
27.7(27) . . .
28.7(30) . . .
33.3(33) . . .
23.4(26) . . .
28.5(28) . . .
25.5(27) . . .
31.0(30) . . .
33.7(31) . . .
34.5(32) . . .
25.0(26) . . .
35.1(31) . . .
32.2(31) . . .
29.5(30) . . .
28.9(30) . . .
35.0(31) . . .
32.6(29) . . .
36.0(32) . . .
23.9(26) . . .
29.9(30) . . .
20.7(24) . . .
31.1(29) . . .
37.8(34) . . .
33.0(32) . . .
35.8(32) . . .
42.0(34) . . .
32.9(30) . . .
29.3(29) . . .
26.7(27) . . .
27.0(28) . . .
24.7(26) . . .
28.3(28) . . .
29.7(28) . . .
26.9(29) . . .
33.3(31) . . .
36.8(32) . . .
36.4(34) . . .
27.1(29) . . .
28.1(30) . . .
28.9(29) . . .
40.1(33) . . .
26.8(27) . . .
33.2(30) . . .
32.1(33) . . .
27.4(29) . . .
31.3(30) . . .
29.7(28) . . .
32.1(32) . . .
32.5(32) . . .
31.6(29) . . .
30.9(29) . . .
28.7(29) . . .
32.7(30) . . .
33.3(31) . . .
34.5(32) . . .
32.0(30) . . .
32.3(31) . . .
33.2(34) . . .
25.2(25) . . .
32.9(30) . . .
30.7(29) . . .
26.0(29) . . .
31.6(31) . . .
34.9(34) . . .
25.0(26) . . .
26.1(27) . . .
32.3(31) . . .
29.4(31) . . .
32.6(33) . . .
25.5(27) . . .
34.1(30) . . .
36.4(34) . . .
28.6(31) . . .
34.1(32) . . .
27.3(28) . . .
29.4(29) . . .
32.2(31) . . .
44(4) . . .
28.5(28) . . .
27.3(27) . . .
29.0(30) . . .
25.9(27) . . .
31.2(31) . . .
27.9(28) . . .
35.0(31) . . .
32.3(30) . . .
26.0(28) . . .
29.2(29) . . .
24.0(26) . . .
29.2(28) . . .
34.7(32) . . .
34.5(31) . . .
35.6(32) . . .
26.4(28) . . .
32.2(30) . . .
45(4) . . .
31.0(30) . . .
30.7(32) . . .
32.2(29) . . .
42.1(33) . . .
35.7(33) . . .
25.7(27) . . .
27.2(27) . . .
28.2(27) . . .
30.5(29) . . .
27.4(28) . . .
24.4(25) . . .
29.7(28) . . .
42.0(34) . . .
30.9(28) . . .
29.6(30) . . .
26.9(29) . . .
28.5(29) . . .
23.9(26) . . .
24.8(25) . . .
28.9(30) . . .
32.6(32) . . .
35.8(32) . . .
33.9(30) . . .
31.4(30) . . .
25.1(26) . . .
39(4) . . .
33.6(31) . . .
29.5(28) . . .
33.6(30) . . .
32.7(30) . . .
33.4(32) . . .
30.7(31) . . .
35.1(31) . . .
31.3(29) . . .
31.4(30) . . .
30.1(31) . . .
36.9(32) . . .
30.7(29) . . .
30.8(28) . . .
25.3(26) . . .
27.8(28) . . .
29.8(29) . . .
36.4(31) . . .
26.9(27) . . .
37.5(34) . . .
20.4(23) . . .
28.4(28) . . .
27.0(27) . . .
25.5(28) . . .
26.3(28) . . .
29.8(28) . . .
45(4) . . .
38.1(33) . . .
27.4(30) . . .
34.3(32) . . .
27.4(28) . . .
35.3(31) . . .
32.3(30) . . .
27.1(27) . . .
30.4(30) . . .
27.1(30) . . .
26.0(28) . . .
28.3(28) . . .
22.0(25) . . .
29.6(31) . . .
29.9(30) . . .
36.1(32) . . .
26.8(28) . . .
28.7(30) . . .
29.3(31) . . .
34.5(32) . . .
36.9(32) . . .
32.2(29) . . .
33.2(32) . . .
31.9(33) . . .
29.1(28) . . .
33.0(31) . . .
26.2(26) . . .
24.8(25) . . .
29.0(32) . . .
28.7(30) . . .
32.4(29) . . .
35.9(31) . . .
26.4(26) . . .
30.4(30) . . .
31.6(31) . . .
25.1(26) . . .
28.5(29) . . .
27.2(27) . . .
28.5(30) . . .
35(4) . . .
36.7(31) . . .
32.3(31) . . .
35.8(32) . . .
32.7(32) . . .
29.6(29) . . .
33.8(31) . . .
25.9(27) . . .
31.6(31) . . .
38.8(35) . . .
26.0(27) . . .
32.6(30) . . .
29.0(28) . . .
30.6(32) . . .
38.0(34) . . .
33.3(32) . . .
25.6(27) . . .
30.4(29) . . .
29.4(29) . . .
32.9(33) . . .
32.2(32) . . .
27.1(27) . . .
27.5(29) . . .
26.5(28) . . .
20.4(25) . . .
34.0(30) . . .
29.4(28) . . .
32.9(31) . . .
25.3(27) . . .
38.5(35) . . .
29.2(28) . . .
29.5(28) . . .
30.4(30) . . .
37(4) . . .
29.3(30) . . .
31.5(31) . . .
28.5(27) . . .
30.9(30) . . .
28.3(30) . . .
31.0(29) . . .
40.7(33) . . .
37.6(32) . . .
29.9(29) . . .
32.6(32) . . .
28.1(29) . . .
26.9(26) . . .
33.7(31) . . .
28.0(27) . . .
32.9(32) . . .
25.7(27) . . .
27.5(28) . . .
32.8(32) . . .
37.9(33) . . .
31.3(28) . . .
30.4(30) . . .
20.0(23) . . .
36(4) . . .
34.5(33) . . .
26.3(26) . . .
26.3(29) . . .
31.2(29) . . .
28.9(28) . . .
23.0(25) . . .
31.4(30) . . .
30.8(29) . . .
32.8(30) . . .
25.5(30) . . .
21.5(25) . . .
28.2(29) . . .
28.6(28) . . .
31.0(29) . . .
30.1(30) . . .
30.5(30) . . .
25.0(29) . . .
26.4(27) . . .
32.4(29) . . .
34.0(32) . . .
25.4(27) . . .
33.8(34) . . .
31.7(30) . . .
26.8(26) . . .
30.6(30) . . .
35.3(34) . . .
31.7(30) . . .
34.7(30) . . .
39.6(33) . . .
30.4(30) . . .
23.4(29) . . .
26.1(29) . . .
29.7(29) . . .
27.1(27) . . .
28.5(28) . . .
41(4) . . .
36.4(34) . . .
43(4) . . .
24.2(25) . . .
27.0(30) . . .
38(4) . . .
32.3(31) . . .
35.8(32) . . .
34.8(33) . . .
32.4(30) . . .
32.5(32) . . .
33.1(31) . . .
30.4(29) . . .
34.1(30) . . .
34.4(32) . . .
25.3(27) . . .
21.6(25) . . .
29.1(28) . . .
28.6(29) . . .
23.5(27) . . .
24.9(28) . . .
25.4(27) . . .
34.1(30) . . .
32.0(32) . . .
22.0(25) . . .
22.1(24) . . .
24.1(26) . . .
28.3(28) . . .
30.6(30) . . .
28.5(29) . . .
32.7(32) . . .
33.0(30) . . .
33.2(30) . . .
31.8(29) . . .
45(4) . . .
32.6(30) . . .
33.6(30) . . .
26.7(27) . . .
24.8(27) . . .
37.1(33) . . .
33.5(32) . . .
27.5(29) . . .
39.3(33) . . .
27.1(27) . . .
26.0(27) . . .
35.2(33) . . .
25.3(27) . . .
30.2(28) . . .
34.9(33) . . .
27.1(29) . . .
28.1(28) . . .
32.6(30) . . .
30.9(29) . . .
30.6(29) . . .
27.5(29) . . .
30.6(29) . . .
29.8(28) . . .
29.4(30) . . .
28.9(30) . . .
25.1(26) . . .
34.5(32) . . .
22.6(26) . . .
24.0(26) . . .
25.9(29) . . .
30.6(29) . . .
36.4(34) . . .
32.3(31) . . .
27.4(30) . . .
32.7(31) . . .
29.8(29) . . .
33.8(30) . . .
34.5(31) . . .
29.1(28) . . .
28.7(29) . . .
34.6(35) . . .
30.1(30) . . .
32.2(30) . . .
29.4(29) . . .
31.5(32) . . .
28.8(31) . . .
28.9(28) . . .
26.0(27) . . .
25.5(28) . . .
31.4(31) . . .
31.9(29) . . .
32.8(30) . . .
32.4(30) . . .
27.0(28) . . .
33.4(32) . . .
24.0(26) . . .
29.7(28) . . .
25.9(27) . . .
29.7(31) . . .
23.7(27) . . .
24.1(26) . . .
34.0(31) . . .
30.9(29) . . .
19.2(25) . . .
22.7(26) . . .
43.1(35) . . .
37.6(32) . . .
31.8(30) . . .
28.6(29) . . .
30.3(30) . . .
34.4(32) . . .
33.9(30) . . .
26.5(27) . . .
20.9(23) . . .
27.9(29) . . .
24.3(26) . . .
25.6(26) . . .
28.0(28) . . .
28.2(29) . . .
24.0(27) . . .
21.7(24) . . .
20.9(24) . . .
38.9(32) . . .
32.4(30) . . .
26.8(28) . . .
17.4(23) . . .
28.0(27) . . .
34.5(31) . . .
33.6(32) . . .
32.4(31) . . .
30.3(28) . . .
30.7(29) . . .
36.3(32) . . .
26.6(29) . . .
25.1(28) . . .
27.5(28) . . .
23.2(25) . . .
31.4(31) . . .
37.9(34) . . .
24.4(26) . . .
26.8(27) . . .
25.5(26) . . .
37.3(34) . . .
27.9(29) . . .
24.4(27) . . .
28.7(28) . . .
31.8(29) . . .
19.6(23) . . .
26.8(29) . . .
26.9(27) . . .
33.4(31) . . .
20.9(24) . . .
24.0(29) . . .
25.0(29) . . .
27.4(28) . . .
37.4(31) . . .
28.0(27) . . .
28.8(27) . . .
30.5(31) . . .
30.7(32) . . .
29.6(28) . . .
29.8(29) . . .
29.2(29) . . .
28.6(31) . . .
30.3(31) . . .
34.1(30) . . .
28.5(28) . . .
32.4(31) . . .
31.4(31) . . .
29.6(31) . . .
34.1(30) . . .
32.0(29) . . .
27.2(27) . . .
33.7(35) . . .
23.7(27) . . .
22.0(25) . . .
33.0(32) . . .
29.9(31) . . .
30.0(32) . . .
27.4(28) . . .
29.3(29) . . .
31.0(29) . . .
28.1(29) . . .
26.1(27) . . .
32.3(30) . . .
30.1(29) . . .
38(4) . . .
23.6(26) . . .
24.3(26) . . .
25.2(26) . . .
28.4(28) . . .
42(4) . . .
26.4(28) . . .
27.0(29) . . .
29.9(29) . . .
24.9(25) . . .
32.5(30) . . .
26.5(26) . . .
28.1(28) . . .
31.6(30) . . .
32.7(30) . . .
27.7(27) . . .
28.3(31) . . .
37.8(34) . . .
35.7(32) . . .
36.1(31) . . .
31.8(32) . . .
29.9(31) . . .
30.3(29) . . .
26.4(27) . . .
31.1(29) . . .
39(4) . . .
24.0(27) . . .
32.5(33) . . .
24.2(26) . . .
33.3(30) . . .
31.2(29) . . .
33.9(33) . . .
27.3(28) . . .
33.5(30) . . .
22.8(25) . . .
29.0(28) . . .
31.2(30) . . .
28.7(28) . . .
35.3(31) . . .
32.0(29) . . .
35.9(35) . . .
33.3(33) . . .
35.2(33) . . .
27.9(27) . . .
35.3(33) . . .
37.2(34) . . .
20.7(24) . . .
26.6(27) . . .
30.0(29) . . .
35.7(32) . . .
33.9(32) . . .
28.4(28) . . .
29.8(28) . . .
28.8(28) . . .
28.9(28) . . .
32.4(31) . . .
29.0(29) . . .
24.8(27) . . .
26.8(27) . . .
34.6(32) . . .
31.1(30) . . .
37.3(33) . . .
33.5(31) . . .
31.6(30) . . .
28.1(30) . . .
24.6(26) . . .
23.7(26) . . .
28.7(28) . . .
33.1(30) . . .
31.4(30) . . .
24.9(28) . . .
33.4(32) . . .
27.7(27) . . .
27.4(27) . . .
35.5(34) . . .
35.3(32) . . .
36.5(32) . . .
31.0(28) . . .
32.3(31) . . .
22.2(25) . . .
27.8(29) . . .
31.3(29) . . .
31.9(29) . . .
38.7(34) . . .
32.0(32) . . .
26.7(27) . . .
34.0(32) . . .
22.3(24) . . .
27.9(29) . . .
30.0(31) . . .
31.9(32) . . .
37.7(33) . . .
25.8(27) . . .
36.6(33) . . .
35.3(34) . . .
33.2(30) . . .
34.3(31) . . .
35.1(31) . . .
29.3(30) . . .
28.1(28) . . .
29.3(29) . . .
29.9(29) . . .
25.0(26) . . .
24.9(27) . . .
21.7(25) . . .
25.7(29) . . .
29.9(31) . . .
26.0(26) . . .
32.3(29) . . .
27.7(28) . . .
25.8(26) . . .
23.9(26) . . .
32.4(29) . . .
31.8(30) . . .
34.4(33) . . .
25.0(26) . . .
21.2(24) . . .
27.6(28) . . .
22.8(26) . . .
33.4(34) . . .
22.1(25) . . .
36.7(32) . . .
29.0(29) . . .
33.1(31) . . .
35.2(32) . . .
28.5(27) . . .
28.2(29) . . .
27.2(27) . . .
28.2(29) . . .
32.2(32) . . .
28.1(30) . . .
27.8(28) . . .
25.2(26) . . .
32.7(30) . . .
30.1(29) . . .
29.2(29) . . .
30.5(29) . . .
35.5(32) . . .
25.0(28) . . .
26.7(29) . . .
36.9(33) . . .
29.5(28) . . .
27.3(27) . . .
27.8(29) . . .
29.3(30) . . .
29.8(30) . . .
24.9(26) . . .
25.3(31) . . .
25.9(28) . . .
36.2(34) . . .
24.9(26) . . .
31.3(30) . . .
45(4) . . .
27.1(28) . . .
23.9(25) . . .
29.5(28) . . .
35.6(31) . . .
27.4(28) . . .
20.5(24) . . .
33.3(31) . . .
33.9(32) . . .
31.0(29) . . .
36.6(35) . . .
28.5(29) . . .
29.5(29) . . .
27.0(27) . . .
28.5(30) . . .
26.1(27) . . .
33.2(32) . . .
33.7(33) . . .
24.3(26) . . .
31.6(30) . . .
28.1(28) . . .
32.4(31) . . .
29.7(30) . . .
33.6(30) . . .
36.8(31) . . .
31.5(29) . . .
31.4(31) . . .
29.9(30) . . .
22.4(25) . . .
31.5(29) . . .
31.7(29) . . .
32.7(31) . . .
26.5(28) . . .
25.3(27) . . .
30.1(28) . . .
34.9(33) . . .
28.8(28) . . .
28.4(28) . . .
27.1(27) . . .
28.0(28) . . .
32.9(31) . . .
30.3(30) . . .
30.7(31) . . .
32.0(29) . . .
37.2(33) . . .
30.4(31) . . .
27.9(28) . . .
25.1(26) . . .
30.8(29) . . .
26.3(27) . . .
34.8(34) . . .
25.4(28) . . .
25.1(26) . . .
26.4(27) . . .
29.2(28) . . .
31.9(32) . . .
24.8(28) . . .
30.4(29) . . .
28.8(28) . . .
28.9(30) . . .
30.9(31) . . .
34.9(34) . . .
35.0(31) . . .
29.1(28) . . .
26.2(26) . . .
36.4(32) . . .
38.5(33) . . .
43.1(34) . . .
30.8(29) . . .
24.9(26) . . .
29.5(30) . . .
32.7(31) . . .
30.7(30) . . .
36.5(31) . . .
23.8(26) . . .
28.3(30) . . .
35.8(33) . . .
31.2(29) . . .
29.5(30) . . .
26.5(27) . . .
27.4(28) . . .
36.3(33) . . .
25.3(26) . . .
24.3(27) . . .
36.0(33) . . .
35.1(31) . . .
35.2(32) . . .
31.5(29) . . .
23.7(25) . . .
23.8(26) . . .
26.1(28) . . .
24.4(26) . . .
28.5(28) . . .
34.0(32) . . .
27.2(30) . . .
30.8(30) . . .
31.8(30) . . .
27.1(28) . . .
36.7(33) . . .
34.1(32) . . .
25.6(26) . . .
32.7(30) . . .
22.9(25) . . .
36.7(32) . . .
28.3(28) . . .
29.2(29) . . .
28.9(29) . . .
31.2(29) . . .
34.8(31) . . .
25.7(26) . . .
30.3(30) . . .
31.2(29) . . .
36.1(31) . . .
27.7(27) . . .
29.9(29) . . .
25.4(27) . . .
27.2(28) . . .
28.9(28) . . .
36.4(34) . . .
29.6(29) . . .
26.0(26) . . .
29.2(29) . . .
28.7(28) . . .
27.5(28) . . .
25.7(26) . . .
35.6(32) . . .
30.5(29) . . .
31.1(30) . . .
29.3(28) . . .
27.8(27) . . .
29.7(28) . . .
34.4(31) . . .
31.5(30) . . .
25.7(26) . . .
32.4(32) . . .
37.6(33) . . .
33.6(30) . . .
25.0(27) . . .
36.8(34) . . .
28.8(28) . . .
24.7(26) . . .
24.6(26) . . .
20.4(26) . . .
24.4(28) . . .
32.9(32) . . .
28.5(29) . . .
26.7(28) . . .
28.1(28) . . .
34.8(34) . . .
28.5(29) . . .
24.0(26) . . .
32.9(30) . . .
33.3(31) . . .
35.7(34) . . .
24.8(27) . . .
31.5(29) . . .
33.8(30) . . .
27.6(28) . . .
21.8(24) . . .
25.9(29) . . .
33.3(32) . . .
29.1(28) . . .
30.3(29) . . .
24.8(28) . . .
27.8(29) . . .
29.3(29) . . .
35.6(31) . . .
38.5(35) . . .
34(4) . . .
23.5(26) . . .
20.9(24) . . .
34.5(30) . . .
26.5(27) . . .
26.6(29) . . .
29.2(30) . . .
23.3(25) . . .
26.8(27) . . .
28.2(29) . . .
29.0(30) . . .
33.7(32) . . .
27.2(27) . . .
28.5(28) . . .
28.2(29) . . .
22.5(28) . . .
27.0(28) . . .
29.4(29) . . .
28.0(27) . . .
34.3(32) . . .
28.9(29) . . .
36.9(32) . . .
29.3(28) . . .
27.9(29) . . .
31.3(32) . . .
31.1(31) . . .
28.3(28) . . .
28.3(28) . . .
30.1(29) . . .
38.1(33) . . .
36.6(32) . . .
24.9(28) . . .
31.4(29) . . .
30.8(30) . . .
41(4) . . .
33.8(31) . . .
26.4(26) . . .
23.1(25) . . .
29.3(29) . . .
37.7(34) . . .
25.8(27) . . .
32.7(30) . . .
24.3(26) . . .
26.1(26) . . .
28.1(28) . . .
28.3(30) . . .
22.4(24) . . .
31.1(29) . . .
21.2(24) . . .
25.7(30) . . .
34.0(33) . . .
30.7(29) . . .
30.0(29) . . .
33.2(30) . . .
27.1(29) . . .
31.3(29) . . .
30.7(29) . . .
33.3(31) . . .
31.8(31) . . .
26.2(28) . . .
37(4) . . .
39.9(33) . . .
24.6(26) . . .
28.9(30) . . .
33.9(35) . . .
28.9(29) . . .
24.3(25) . . .
21.4(25) . . .
25.7(27) . . .
26.8(30) . . .
22.8(26) . . .
35.9(32) . . .
29.7(30) . . .
34.4(32) . . .
35.8(34) . . .
31.5(29) . . .
26.4(27) . . .
34.2(30) . . .
35.1(31) . . .
33.9(31) . . .
25.5(27) . . .
24.8(27) . . .
23.9(27) . . .
26.9(29) . . .
32.2(31) . . .
22.5(25) . . .
22.4(25) . . .
32.0(32) . . .
23.3(27) . . .
33.7(32) . . .
32.9(30) . . .
37.9(34) . . .
29.6(29) . . .
36.5(35) . . .
25.7(27) . . .
21.2(24) . . .
36.0(31) . . .
27.6(27) . . .
32.3(32) . . .
25.0(26) . . .
27.2(28) . . .
33.8(30) . . .
31.2(31) . . .
28.3(31) . . .
26.4(29) . . .
23.3(25) . . .
28.8(30) . . .
25.6(28) . . .
30.1(32) . . .
29.4(33) . . .
29.0(29) . . .
29.9(29) . . .
31.5(30) . . .
37.2(33) . . .
25.9(27) . . .
31.8(29) . . .
31.3(30) . . .
20.4(24) . . .
26.3(30) . . .
32.5(32) . . .
22.8(25) . . .
34.5(32) . . .
35.4(32) . . .
30.0(29) . . .
40(4) . . .
23.1(25) . . .
25.6(26) . . .
32.7(30) . . .
26.8(27) . . .
29.3(30) . . .
27.5(27) . . .
27.9(28) . . .
32.9(33) . . .
28.5(29) . . .
37.5(32) . . .
28.5(28) . . .
29.3(31) . . .
37(4) . . .
31.1(31) . . .
29.9(29) . . .
34.3(30) . . .
31.1(29) . . .
37(4) . . .
22.9(24) . . .
36.6(33) . . .
27.8(28) . . .
22.9(25) . . .
28.2(32) . . .
25.8(29) . . .
30.6(29) . . .
26.0(26) . . .
27.4(28) . . .
22.7(27) . . .
27.6(28) . . .
37.9(32) . . .
34.3(31) . . .
30.8(29) . . .
32.7(30) . . .
41.8(35) . . .
32.0(29) . . .
28.6(29) . . .
34.0(31) . . .
31.1(30) . . .
25.1(26) . . .
34.9(31) . . .
22.9(25) . . .
28.2(30) . . .
21.5(28) . . .
29.1(31) . . .
27.1(27) . . .
36.0(33) . . .
33.5(33) . . .
21.7(24) . . .
26.9(27) . . .
34.3(30) . . .
30.0(30) . . .
28.8(31) . . .
27.7(30) . . .
30.0(31) . . .
26.2(26) . . .
29.8(30) . . .
31.1(30) . . .
28.8(29) . . .
31.5(30) . . .
21.4(24) . . .
28.6(30) . . .
24.3(26) . . .
24.9(27) . . .
29.4(28) . . .
30.3(29) . . .
30.4(31) . . .
26.3(29) . . .
26.7(27) . . .
32.7(30) . . .
30.3(30) . . .
35.1(31) . . .
32.7(31) . . .
26.5(29) . . .
30.5(29) . . .
27.8(29) . . .
21.0(24) . . .
28.9(33) . . .
20.4(24) . . .
31.2(29) . . .
31.3(29) . . .
29.7(30) . . .
36(4) . . .
28.2(30) . . .
32.7(29) . . .
36.6(32) . . .
26.7(29) . . .
31.7(32) . . .
30.7(29) . . .
38.0(32) . . .
26.5(28) . . .
26.1(27) . . .
28.3(29) . . .
29.2(29) . . .
34.7(31) . . .
26.5(27) . . .
31.5(32) . . .
29.4(28) . . .
34.9(31) . . .
32.0(29) . . .
26.5(27) . . .
28.3(29) . . .
26.2(27) . . .
25.6(27) . . .
25.6(26) . . .
30.4(32) . . .
24.8(26) . . .
26.7(26) . . .
27.2(29) . . .
22.9(25) . . .
31.7(30) . . .
28.9(30) . . .
35.0(33) . . .
25.1(26) . . .
29.3(28) . . .
37.2(32) . . .
31.1(30) . . .
37.2(35) . . .
28.9(29) . . .
27.8(28) . . .
23.6(27) . . .
33.0(33) . . .
20.6(25) . . .
28.2(28) . . .
29.6(28) . . .
33.6(32) . . .
41(4) . . .
32.4(30) . . .
27.0(27) . . .
36.6(32) . . .
34.8(33) . . .
24.1(26) . . .
31.5(32) . . .
28.3(28) . . .
29.7(28) . . .
28.9(28) . . .
31.3(31) . . .
32.7(31) . . .
36.2(31) . . .
35.0(30) . . .
28.8(29) . . .
28.4(29) . . .
33.0(32) . . .
29.4(28) . . .
39.0(34) . . .
24.2(26) . . .
20.0(24) . . .
25.0(28) . . .
31.9(29) . . .
28.2(28) . . .
26.1(28) . . .
30.3(30) . . .
28.8(30) . . .
27.7(27) . . .
28.0(29) . . .
27.2(28) . . .
24.4(25) . . .
39.4(34) . . .
33.3(30) . . .
30.9(31) . . .
33.5(34) . . .
28.3(29) . . .
33.3(31) . . .
32.2(30) . . .
25.2(27) . . .
26.9(30) . . .
23.4(26) . . .
37.8(33) . . .
28.9(28) . . .
30.9(29) . . .
30.1(29) . . .
28.8(28) . . .
30.4(29) . . .
38.3(32) . . .
28.1(29) . . .
27.7(29) . . .
31.9(31) . . .
25.9(26) . . .
30.9(29) . . .
31.4(31) . . .
28.8(31) . . .
21.9(24) . . .
22.9(25) . . .
22.6(25) . . .
21.8(25) . . .
31.0(33) . . .
34.1(35) . . .
30.5(29) . . .
31.2(29) . . .
30.5(29) . . .
26.9(27) . . .
28.1(29) . . .
32.2(31) . . .
32.6(30) . . .
29.6(30) . . .
28.0(28) . . .
26.1(27) . . .
29.7(28) . . .
31.4(31) . . .
28.3(29) . . .
34.5(32) . . .
30.3(28) . . .
41.0(34) . . .
26.6(27) . . .
33.7(32) . . .
27.5(27) . . .
32.3(31) . . .
29.8(29) . . .
29.5(30) . . .
27.5(29) . . .
35.2(33) . . .
30.3(30) . . .
19.6(23) . . .
29.0(32) . . .
24.9(28) . . .
27.0(29) . . .
25.0(26) . . .
27.1(27) . . .
28.1(28) . . .
28.8(29) . . .
27.9(30) . . .
29.5(28) . . .
28.4(28) . . .
26.8(31) . . .
28.6(31) . . .
25.4(26) . . .
29.5(28) . . .
27.7(28) . . .
22.6(25) . . .
28.3(30) . . .
31.4(31) . . .
27.7(28) . . .
33.5(31) . . .
38(4) . . .
29.0(29) . . .
25.3(27) . . .
31.0(29) . . .
30.3(29) . . .
26.7(27) . . .
34.5(33) . . .
24.9(26) . . .
35.2(32) . . .
37.2(32) . . .
32.5(31) . . .
35.2(35) . . .
24.5(27) . . .
27.6(28) . . .
25.7(26) . . .
32.5(32) . . .
25.3(28) . . .
36.8(34) . . .
35.6(31) . . .
29.6(29) . . .
26.8(27) . . .
21.4(23) . . .
33.2(30) . . .
22.8(25) . . .
25.4(27) . . .
27.3(26) . . .
29.8(29) . . .
26.6(27) . . .
30.6(29) . . .
30.8(30) . . .
25.6(28) . . .
27.0(28) . . .
30.4(31) . . .
25.2(26) . . .
30.1(29) . . .
36.2(33) . . .
34.5(31) . . .
30.2(28) . . .
32.0(30) . . .
33.5(33) . . .
28.1(29) . . .
31.4(29) . . .
27.9(28) . . .
26.5(27) . . .
29.4(31) . . .
27.2(28) . . .
28.0(28) . . .
26.2(27) . . .
25.5(27) . . .
27.7(28) . . .
28.8(31) . . .
26.2(28) . . .
32.0(30) . . .
31.4(29) . . .
30.8(31) . . .
38.4(34) . . .
27.7(27) . . .
29.7(29) . . .
37.5(33) . . .
34.3(33) . . .
32.6(34) . . .
32.3(32) . . .
32.7(30) . . .
24.8(27) . . .
29.5(30) . . .
34.0(31) . . .
29.1(28) . . .
29.2(28) . . .
31.3(30) . . .
32.3(30) . . .
22.9(26) . . .
27.3(28) . . .
44(4) . . .
35.4(33) . . .
28.3(29) . . .
27.6(28) . . .
27.0(28) . . .
26.4(27) . . .
29.4(29) . . .
25.7(27) . . .
24.4(26) . . .
32.6(31) . . .
25.5(26) . . .
26.6(27) . . .
26.9(28) . . .
30.7(30) . . .
36.0(32) . . .
29.2(28) . . .
34.6(33) . . .
29.3(30) . . .
31.9(33) . . .
29.0(28) . . .
28.9(28) . . .
26.5(27) . . .
24.0(26) . . .
27.1(28) . . .
32.1(29) . . .
41.0(35) . . .
28.3(28) . . .
37(4) . . .
30.0(32) . . .
30.3(29) . . .
25.8(28) . . .
27.7(28) . . .
31.8(32) . . .
28.9(28) . . .
35.3(31) . . .
32.4(31) . . .
32.5(30) . . .
36.1(32) . . .
28.6(28) . . .
29.3(28) . . .
25.3(26) . . .
27.6(28) . . .
21.4(24) . . .
29.9(29) . . .
34.1(31) . . .
23.0(25) . . .
29.5(30) . . .
26.1(26) . . .
35.4(31) . . .
31.4(30) . . .
24.5(26) . . .
21.4(26) . . .
27.0(27) . . .
33.7(30) . . .
33.9(30) . . .
27.9(30) . . .
28.2(30) . . .
32.5(32) . . .
22.2(26) . . .
28.0(28) . . .
33.6(31) . . .
31.1(31) . . .
24.1(25) . . .
32.2(31) . . .
29.6(28) . . .
33.6(32) . . .
28.7(28) . . .
28.0(28) . . .
17.8(22) . . .
29.4(29) . . .
19.5(24) . . .
29.3(30) . . .
29.4(28) . . .
37.0(31) . . .
30.1(29) . . .
35.5(31) . . .
26.0(27) . . .
26.4(27) . . .
30.0(29) . . .
24.1(25) . . .
23.0(25) . . .
30.3(30) . . .
34.6(31) . . .
37.7(32) . . .
31.0(30) . . .
31.0(31) . . .
33.5(33) . . .
30.3(31) . . .
25.9(27) . . .
27.1(27) . . .
27.2(27) . . .
27.6(28) . . .
30.5(30) . . .
29.2(28) . . .
23.3(27) . . .
21.6(25) . . .
26.8(28) . . .
26.5(27) . . .
28.8(28) . . .
23.6(25) . . .
33.6(31) . . .
35.3(31) . . .
33.7(30) . . .
29.2(29) . . .
37(4) . . .
28.6(28) . . .
34.7(34) . . .
25.5(27) . . .
35.2(30) . . .
31.8(30) . . .
31.5(32) . . .
36.5(34) . . .
26.1(26) . . .
25.5(26) . . .
26.2(27) . . .
34.0(34) . . .
25.0(28) . . .
22.4(26) . . .
30.6(29) . . .
32.7(31) . . .
26.2(27) . . .
27.0(28) . . .
35.3(31) . . .
23.8(25) . . .
26.3(27) . . .
32.0(32) . . .
35.8(33) . . .
27.4(27) . . .
25.3(26) . . .
30.1(31) . . .
26.4(29) . . .
30.8(31) . . .
22.0(24) . . .
22.7(24) . . .
29.9(30) . . .
33.9(34) . . .
24.1(26) . . .
28.0(28) . . .
27.5(29) . . .
31.9(31) . . .
28.7(29) . . .
32.5(30) . . .
33.3(30) . . .
31.1(30) . . .
32.7(31) . . .
30.6(31) . . .
31.8(30) . . .
25.4(26) . . .
30.6(31) . . .
33.0(32) . . .
36.9(34) . . .
34.0(32) . . .
25.6(26) . . .
30.3(29) . . .
21.6(26) . . .
24.3(27) . . .
29.7(28) . . .
40.2(33) . . .
33.3(31) . . .
35.1(34) . . .
32.3(31) . . .
29.9(28) . . .
24.8(26) . . .
34.1(31) . . .
30.4(31) . . .
23.1(26) . . .
20.0(23) . . .
28.0(27) . . .
34.0(31) . . .
31.3(30) . . .
27.8(28) . . .
25.0(26) . . .
25.7(26) . . .
20.4(23) . . .
24.5(28) . . .
27.1(26) . . .
29.6(28) . . .
38.0(33) . . .
29.7(30) . . .
32.3(33) . . .
28.5(29) . . .
30.3(29) . . .
27.6(27) . . .
31.0(30) . . .
23.0(25) . . .
37.2(33) . . .
29.1(28) . . .
30.5(29) . . .
27.7(27) . . .
38.2(35) . . .
26.7(27) . . .
33.6(31) . . .
26.2(27) . . .
37.0(33) . . .
30.3(30) . . .
25.9(29) . . .
27.9(27) . . .
26.7(29) . . .
22.6(26) . . .
23.5(25) . . .
26.2(28) . . .
36.0(31) . . .
30.9(29) . . .
30.9(29) . . .
28.6(28) . . .
31.4(29) . . .
34.4(30) . . .
35.5(33) . . .
31.9(33) . . .
30.8(30) . . .
24.3(25) . . .
31.4(29) . . .
29.1(30) . . .
27.7(31) . . .
28.0(28) . . .
30.2(29) . . .
23.9(25) . . .
26.1(27) . . .
37.0(34) . . .
29.1(28) . . .
32.8(30) . . .
31.6(29) . . .
29.8(30) . . .
33.1(33) . . .
32.1(30) . . .
27.7(27) . . .
28.1(28) . . .
34.9(34) . . .
37.4(33) . . .
29.6(30) . . .
27.4(28) . . .
35.1(31) . . .
34.5(34) . . .
23.1(28) . . .
26.3(29) . . .
32.6(29) . . .
34.6(31) . . .
27.7(28) . . .
20.5(24) . . .
21.0(27) . . .
26.0(27) . . .
32.9(30) . . .
34.0(33) . . .
21.5(25) . . .
28.3(29) . . .
37.6(32) . . .
27.8(28) . . .
25.0(27) . . .
26.3(28) . . .
27.5(29) . . .
33.8(30) . . .
31.7(30) . . .
30.5(30) . . .
34.7(32) . . .
30.8(29) . . .
29.8(28) . . .
32.3(30) . . .
26.9(28) . . .
22.9(26) . . .
29.9(30) . . .
25.8(26) . . .
28.4(31) . . .
23.8(26) . . .
34.0(35) . . .
25.0(26) . . .
27.5(28) . . .
34.3(31) . . .
34.0(33) . . .
31.2(30) . . .
24.4(26) . . .
29.3(28) . . .
39.0(34) . . .
31.5(32) . . .
30.1(30) . . .
29.3(28) . . .
28.5(28) . . .
35.3(35) . . .
28.1(30) . . .
28.4(27) . . .
34.4(31) . . .
23.9(26) . . .
31.0(30) . . .
24.2(25) . . .
23.3(25) . . .
26.2(27) . . .
33.3(30) . . .
25.9(28) . . .
22.3(26) . . .
33.9(33) . . .
27.5(27) . . .
33.5(30) . . .
32.3(31) . . .
28.9(32) . . .
31.3(33) . . .
36.7(32) . . .
23.8(25) . . .
29.0(29) . . .
23.8(25) . . .
27.3(27) . . .
25.4(26) . . .
31.0(30) . . .
30.7(31) . . .
28.0(28) . . .
37.0(33) . . .
25.9(27) . . .
24.1(26) . . .
25.6(27) . . .
24.5(25) . . .
23.0(26) . . .
32.9(30) . . .
34.6(32) . . .
29.1(29) . . .
30.1(31) . . .
25.9(26) . . .
29.5(28) . . .
30.0(30) . . .
26.2(30) . . .
26.3(28) . . .
26.6(26) . . .
27.6(29) . . .
28.2(29) . . .
31.5(33) . . .
28.1(29) . . .
30.3(28) . . .
29.2(28) . . .
31.4(29) . . .
28.3(29) . . .
26.1(27) . . .
26.4(27) . . .
31.9(29) . . .
38.4(33) . . .
31.1(31) . . .
30.5(30) . . .
40.5(34) . . .
20.0(23) . . .
26.8(27) . . .
30.1(29) . . .
34.7(31) . . .
26.4(27) . . .
25.4(29) . . .
30.4(29) . . .
30.5(30) . . .
22.3(25) . . .
24.4(26) . . .
24.8(27) . . .
26.2(27) . . .
32.7(32) . . .
32.3(31) . . .
31.5(30) . . .
33.8(32) . . .
28.0(31) . . .
26.7(29) . . .
22.8(26) . . .
31.6(29) . . .
26.0(27) . . .
15.4(20) . . .
29.6(29) . . .
28.6(27) . . .
25.0(27) . . .
23.0(25) . . .
29.3(29) . . .
27.1(28) . . .
32.2(31) . . .
31.3(29) . . .
32.2(31) . . .
33.7(31) . . .
27.4(27) . . .
32.5(30) . . .
24.9(26) . . .
23.8(26) . . .
30.6(30) . . .
40.7(35) . . .
27.0(28) . . .
19.0(23) . . .
34.4(32) . . .
28.0(28) . . .
29.4(30) . . .
32.9(30) . . .
28.8(29) . . .
26.4(30) . . .
29.9(32) . . .
27.4(31) . . .
31.2(31) . . .
34.8(31) . . .
27.6(28) . . .
26.4(29) . . .
28.7(30) . . .
26.2(27) . . .
25.1(27) . . .
23.6(27) . . .
21.1(26) . . .
29.8(29) . . .
32.3(29) . . .
24.9(26) . . .
27.9(30) . . .
26.9(28) . . .
33.0(30) . . .
29.1(28) . . .
41.5(35) . . .
28.0(29) . . .
27.6(27) . . .
30.1(29) . . .
24.8(26) . . .
34.7(31) . . .
32.9(32) . . .
32.9(31) . . .
27.3(29) . . .
29.2(28) . . .
31.9(31) . . .
32.1(32) . . .
31.6(32) . . .
34.1(32) . . .
34.2(31) . . .
31.0(30) . . .
28.3(30) . . .
20.6(26) . . .
27.3(29) . . .
32.6(31) . . .
30.3(31) . . .
27.4(29) . . .
26.9(29) . . .
28.3(27) . . .
30.2(29) . . .
21.2(27) . . .
34.1(34) . . .
37(4) . . .
30.8(30) . . .
20.4(23) . . .
30.5(29) . . .
28.5(29) . . .
27.1(29) . . .
34.0(30) . . .
25.4(27) . . .
29.9(30) . . .
32.2(33) . . .
31.2(29) . . .
28.5(29) . . .
33.9(30) . . .
23.4(25) . . .
26.5(29) . . .
31.9(30) . . .
37.4(31) . . .
24.5(27) . . .
22.5(26) . . .
26.8(28) . . .
36.0(32) . . .
29.3(28) . . .
23.6(25) . . .
25.0(27) . . .
27.6(29) . . .
26.0(28) . . .
30.2(29) . . .
25.8(28) . . .
25.5(28) . . .
28.1(28) . . .
32.3(30) . . .
24.2(26) . . .
39.0(34) . . .
30.1(30) . . .
27.0(28) . . .
34.1(31) . . .
43.3(34) . . .
26.9(27) . . .
24.2(28) . . .
24.2(27) . . .
31.3(29) . . .
32.0(29) . . .
31.0(29) . . .
32.2(32) . . .
28.7(28) . . .
26.3(27) . . .
37.4(32) . . .
33.7(33) . . .
23.7(28) . . .
23.9(27) . . .
35.5(31) . . .
30.1(29) . . .
24.7(25) . . .
33.5(32) . . .
34.7(35) . . .
26.7(28) . . .
28.3(27) . . .
29.4(30) . . .
32.1(30) . . .
31.4(31) . . .
29.5(28) . . .
33.3(31) . . .
37.8(34) . . .
33.0(31) . . .
30.9(29) . . .
29.1(28) . . .
31.8(30) . . .
26.9(28) . . .
28.0(30) . . .
24.9(27) . . .
27.6(27) . . .
31.4(30) . . .
17.7(22) . . .
32.1(31) . . .
38.1(33) . . .
39.2(32) . . .
27.9(28) . . .
25.5(27) . . .
29.7(29) . . .
30.9(30) . . .
23.0(25) . . .
27.1(29) . . .
28.6(30) . . .
25.3(28) . . .
29.3(28) . . .
31.0(29) . . .
36.5(34) . . .
28.5(30) . . .
23.6(25) . . .
25.5(26) . . .
31.3(29) . . .
31.3(30) . . .
33.3(33) . . .
37.3(33) . . .
27.6(27) . . .
32.0(29) . . .
34.7(33) . . .
24.1(28) . . .
34.0(34) . . .
28.9(28) . . .
27.0(27) . . .
32.0(31) . . .
27.6(28) . . .
31.3(29) . . .
30.6(28) . . .
30.3(30) . . .
23.6(27) . . .
23.4(25) . . .
28.2(28) . . .
32.2(30) . . .
27.8(27) . . .
20.9(26) . . .
24.7(28) . . .
25.5(29) . . .
25.9(27) . . .
27.3(27) . . .
32.6(31) . . .
29.1(30) . . .
24.7(28) . . .
28.1(28) . . .
35.9(32) . . .
28.5(29) . . .
29.5(31) . . .
26.5(30) . . .
21.7(25) . . .
27.4(29) . . .
26.7(29) . . .
28.1(28) . . .
27.3(28) . . .
21.6(23) . . .
26.4(29) . . .
32.7(32) . . .
35.4(33) . . .
27.9(29) . . .
29.8(29) . . .
33.5(31) . . .
31.5(30) . . .
30.4(30) . . .
34.3(31) . . .
26.2(27) . . .
36.2(33) . . .
33.8(32) . . .
31.4(30) . . .
27.0(27) . . .
33.4(30) . . .
35.9(34) . . .
34.6(31) . . .
39.7(34) . . .
27.7(28) . . .
30.7(29) . . .
35.1(32) . . .
32.9(33) . . .
32.9(33) . . .
31.0(29) . . .
38.8(34) . . .
36.9(33) . . .
36(4) . . .
33.7(32) . . .
33.7(30) . . .
26.7(27) . . .
27.9(31) . . .
25.3(27) . . .
27.9(30) . . .
27.6(28) . . .
35.5(31) . . .
34.9(32) . . .
30.0(30) . . .
32.0(30) . . .
33.3(30) . . .
30.1(31) . . .
28.9(29) . . .
33.1(32) . . .
28.4(28) . . .
29.5(28) . . .
24.3(26) . . .
32.5(32) . . .
30.5(30) . . .
28.4(28) . . .
24.4(26) . . .
26.7(28) . . .
24.5(28) . . .
25.1(28) . . .
27.3(29) . . .
23.7(25) . . .
32.0(33) . . .
23.0(26) . . .
24.9(26) . . .
32.5(30) . . .
27.9(28) . . .
23.5(26) . . .
24.0(27) . . .
31.1(31) . . .
29.4(29) . . .
36.1(31) . . .
29.4(29) . . .
34.1(32) . . .
28.8(28) . . .
28.5(30) . . .
30.8(30) . . .
33.9(34) . . .
31.0(30) . . .
27.5(27) . . .
30.9(29) . . .
28.3(28) . . .
26.9(29) . . .
29.6(29) . . .
34.2(33) . . .
27.5(27) . . .
23.7(27) . . .
32.9(33) . . .
29.6(30) . . .
25.5(27) . . .
33.9(31) . . .
27.2(29) . . .
27.4(29) . . .
30.3(30) . . .
27.5(28) . . .
23.0(24) . . .
27.5(27) . . .
37.2(35) . . .
28.8(31) . . .
27.7(28) . . .
26.4(27) . . .
30.8(30) . . .
33.5(32) . . .
30.3(30) . . .
32.2(30) . . .
27.0(27) . . .
31.6(30) . . .
27.0(28) . . .
23.4(26) . . .
33.6(31) . . .
29.9(29) . . .
25.9(26) . . .
29.4(29) . . .
27.6(29) . . .
28.9(29) . . .
29.3(29) . . .
30.4(30) . . .
29.9(28) . . .
25.8(26) . . .
32.8(30) . . .
27.5(28) . . .
35.3(34) . . .
31.0(32) . . .
20.9(24) . . .
32.5(30) . . .
30.7(29) . . .
32.6(31) . . .
29.2(31) . . .
30.8(30) . . .
35.3(32) . . .
28.4(28) . . .
25.4(26) . . .
31.3(32) . . .
29.2(29) . . .
29.5(29) . . .
28.6(29) . . .
25.4(27) . . .
36.1(35) . . .
24.9(27) . . .
26.7(27) . . .
28.9(28) . . .
32.4(33) . . .
27.3(29) . . .
27.2(28) . . .
23.7(26) . . .
24.5(26) . . .
33.5(31) . . .
31.3(30) . . .
30.6(29) . . .
28.7(29) . . .
33.7(31) . . .
26.5(27) . . .
24.4(29) . . .
26.1(29) . . .
25.2(27) . . .
25.2(27) . . .
30.1(28) . . .
33.7(31) . . .
35.0(31) . . .
29.4(29) . . .
27.3(27) . . .
31.2(31) . . .
31.1(31) . . .
27.9(27) . . .
26.1(27) . . .
30.3(30) . . .
29.6(31) . . .
28.5(29) . . .
34.3(32) . . .
20.9(24) . . .
29.2(31) . . .
30.1(31) . . .
30.7(28) . . .
36.0(31) . . .
35.0(30) . . .
32.0(31) . . .
29.2(31) . . .
34.7(33) . . .
32.9(30) . . .
23.6(26) . . .
33.0(33) . . .
32.6(35) . . .
23.7(25) . . .
22.0(25) . . .
29.2(29) . . .
29.5(30) . . .
32.1(33) . . .
26.0(28) . . .
24.6(26) . . .
27.4(28) . . .
31.1(30) . . .
32.2(31) . . .
36.6(33) . . .
25.6(26) . . .
34.7(30) . . .
36.2(33) . . .
33.7(30) . . .
34.2(30) . . .
23.3(25) . . .
32.2(30) . . .
28.0(30) . . .
28.8(29) . . .
26.8(28) . . .
24.1(26) . . .
34.6(32) . . .
32.9(31) . . .
32.0(31) . . .
22.7(25) . . .
21.2(23) . . .
25.7(27) . . .
28.8(29) . . .
29.4(31) . . .
27.6(28) . . .
31.0(29) . . .
37(4) . . .
33.3(34) . . .
28.8(29) . . .
29.5(28) . . .
29.6(28) . . .
26.7(28) . . .
25.7(28) . . .
23.8(26) . . .
27.9(28) . . .
28.3(28) . . .
42.4(34) . . .
24.6(28) . . .
26.4(27) . . .
34.6(31) . . .
28.3(28) . . .
26.9(27) . . .
22.0(24) . . .
36.0(35) . . .
27.3(29) . . .
27.5(27) . . .
35.3(33) . . .
32.1(33) . . .
24.8(28) . . .
34.5(32) . . .
30.0(28) . . .
25.0(27) . . .
29.0(30) . . .
30.6(30) . . .
23.3(25) . . .
22.9(25) . . .
34.1(32) . . .
29.7(31) . . .
25.8(28) . . .
27.8(27) . . .
32.5(30) . . .
32.6(31) . . .
33.7(33) . . .
30.2(30) . . .
30.3(29) . . .
31.1(30) . . .
23.3(27) . . .
26.0(28) . . .
33.7(30) . . .
33.7(30) . . .
31.2(30) . . .
29.0(29) . . .
30.8(30) . . .
30.6(29) . . .
27.5(27) . . .
36.6(32) . . .
22.4(25) . . .
23.3(25) . . .
35.5(31) . . .
32.1(30) . . .
26.6(29) . . .
34(4) . . .
26.7(29) . . .
23.0(25) . . .
22.9(26) . . .
33.2(34) . . .
26.5(29) . . .
27.1(28) . . .
19.7(24) . . .
37.1(31) . . .
26.7(27) . . .
26.4(26) . . .
28.5(28) . . .
30.6(30) . . .
29.7(28) . . .
33.1(31) . . .
22.8(24) . . .
30.9(30) . . .
29.3(28) . . .
38.0(32) . . .
26.4(27) . . .
31.8(34) . . .
24.6(26) . . .
23.8(26) . . .
19.2(24) . . .
25.7(28) . . .
27.7(30) . . .
31.4(30) . . .
36.4(31) . . .
28.5(28) . . .
33.7(32) . . .
34.6(31) . . .
42(4) . . .
33.6(30) . . .
44(4) . . .
24.3(26) . . .
29.8(31) . . .
27.7(27) . . .
28.2(27) . . .
30.5(31) . . .
29.1(30) . . .
27.4(28) . . .
29.0(28) . . .
25.5(27) . . .
24.2(27) . . .
29.1(30) . . .
29.0(28) . . .
33.1(31) . . .
27.4(27) . . .
33.0(32) . . .
30.9(32) . . .
23.4(26) . . .
31.7(31) . . .
29.2(28) . . .
33.9(31) . . .
29.0(28) . . .
33.0(32) . . .
36.0(31) . . .
29.6(29) . . .
35.7(32) . . .
31.7(30) . . .
29.5(28) . . .
32.3(29) . . .
33.1(31) . . .
31.5(30) . . .
30.7(32) . . .
30.6(30) . . .
28.2(28) . . .
30.0(28) . . .
36.7(32) . . .
27.8(30) . . .
26.1(29) . . .
30.6(29) . . .
30.8(30) . . .
36.1(33) . . .
27.0(28) . . .
19.4(24) . . .
24.1(25) . . .
31.8(30) . . .
27.6(29) . . .
31.8(32) . . .
24.7(27) . . .
27.7(27) . . .
22.1(25) . . .
32.5(35) . . .
31.2(31) . . .
22.6(26) . . .
31.4(29) . . .
29.0(29) . . .
27.6(29) . . .
34.2(32) . . .
34.0(31) . . .
24.1(26) . . .
26.2(27) . . .
33.2(34) . . .
31.4(30) . . .
27.9(27) . . .
28.9(28) . . .
28.9(28) . . .
24.0(25) . . .
32.0(32) . . .
26.9(27) . . .
35.6(32) . . .
31.1(33) . . .
23.7(28) . . .
32.3(31) . . .
33.1(31) . . .
29.1(28) . . .
33.5(32) . . .
26.8(28) . . .
23.7(26) . . .
23.0(25) . . .
28.2(27) . . .
31.5(31) . . .
29.0(32) . . .
35.8(33) . . .
31.5(29) . . .
26.4(26) . . .
32.7(30) . . .
28.2(28) . . .
28.1(28) . . .
29.1(28) . . .
30.5(29) . . .
28.0(28) . . .
31.8(30) . . .
27.9(28) . . .
21.9(24) . . .
26.1(27) . . .
29.4(29) . . .
29.8(31) . . .
32.3(31) . . .
37.8(32) . . .
28.9(29) . . .
32.3(31) . . .
32.4(32) . . .
29.2(31) . . .
24.4(27) . . .
25.6(27) . . .
26.6(26) . . .
35.0(31) . . .
31.5(30) . . .
38.3(32) . . .
36.0(32) . . .
30.1(29) . . .
30.5(30) . . .
29.2(28) . . .
27.5(28) . . .
35.7(32) . . .
32.5(30) . . .
34.2(31) . . .
28.5(28) . . .
33.4(31) . . .
33.7(33) . . .
22.5(26) . . .
32.4(30) . . .
34.3(33) . . .
27.5(27) . . .
37.7(34) . . .
31.9(30) . . .
34.0(30) . . .
23.7(25) . . .
32.3(29) . . .
28.6(28) . . .
30.9(30) . . .
29.8(29) . . .
24.6(26) . . .
25.6(27) . . .
28.1(33) . . .
31.1(30) . . .
35.6(31) . . .
35.1(31) . . .
33.1(30) . . .
37.7(33) . . .
29.4(31) . . .
27.6(28) . . .
34.4(31) . . .
37.3(32) . . .
26.8(28) . . .
22.9(27) . . .
30.5(32) . . .
35.9(32) . . .
30.7(30) . . .
28.9(30) . . .
35.4(33) . . .
33.3(34) . . .
30.2(28) . . .
25.1(26) . . .
22.8(25) . . .
23.5(26) . . .
30.9(30) . . .
26.7(27) . . .
24.5(26) . . .
25.5(28) . . .
28.1(29) . . .
27.1(28) . . .
23.9(26) . . .
23.9(26) . . .
37(4) . . .
24.5(27) . . .
29.7(28) . . .
29.6(29) . . .
27.1(27) . . .
35.5(35) . . .
28.0(28) . . .
25.6(27) . . .
22.7(25) . . .
34.7(33) . . .
33.8(33) . . .
30.4(29) . . .
30.8(29) . . .
32.3(29) . . .
24.4(26) . . .
27.5(29) . . .
30.1(29) . . .
27.1(27) . . .
29.7(29) . . .
38.4(33) . . .
45(4) . . .
27.3(28) . . .
29.5(29) . . .
26.4(27) . . .
23.3(25) . . .
21.6(24) . . .
25.2(27) . . .
26.5(27) . . .
27.2(27) . . .
32.7(30) . . .
29.7(31) . . .
28.2(29) . . .
37.6(32) . . .
30.2(30) . . .
33.6(31) . . .
30.8(32) . . .
19.6(25) . . .
36.7(33) . . .
36.5(33) . . .
25.6(27) . . .
25.0(26) . . .
28.0(28) . . .
26.5(27) . . .
33.9(34) . . .
31.4(31) . . .
25.1(26) . . .
30.7(30) . . .
30.4(28) . . .
22.2(26) . . .
27.6(29) . . .
24.9(26) . . .
26.5(27) . . .
27.6(27) . . .
26.3(27) . . .
34.8(34) . . .
35.3(34) . . .
31.7(30) . . .
22.4(25) . . .
19.9(22) . . .
33.4(33) . . .
32.9(33) . . .
28.7(29) . . .
32.7(30) . . .
32.1(30) . . .
30.8(31) . . .
29.0(28) . . .
30.0(29) . . .
37.1(32) . . .
27.1(31) . . .
32(4) . . .
34.4(34) . . .
28.9(28) . . .
32.5(31) . . .
39.2(35) . . .
27.9(29) . . .
24.1(28) . . .
25.0(26) . . .
27.4(27) . . .
33.0(31) . . .
27.5(28) . . .
31.1(30) . . .
31.0(29) . . .
33.2(31) . . .
33.5(33) . . .
25.5(29) . . .
25.6(27) . . .
30.1(29) . . .
26.9(27) . . .
36.4(34) . . .
30.2(34) . . .
29.9(29) . . .
30.4(29) . . .
24.6(26) . . .
35.0(32) . . .
24.8(26) . . .
31.0(29) . . .
28.0(28) . . .
25.7(28) . . .
21.3(25) . . .
29.7(29) . . .
40.8(35) . . .
33.3(31) . . .
26.1(27) . . .
29.3(32) . . .
21.9(25) . . .
24.2(26) . . .
27.5(28) . . .
27.4(28) . . .
29.3(32) . . .
30.1(33) . . .
26.1(27) . . .
29.2(29) . . .
28.1(28) . . .
29.4(32) . . .
25.2(26) . . .
33.6(31) . . .
22.1(25) . . .
33.0(31) . . .
30.5(31) . . .
34.9(33) . . .
25.6(26) . . .
28.1(29) . . .
25.8(27) . . .
31.2(31) . . .
26.5(29) . . .
33.2(31) . . .
29.4(30) . . .
28.5(27) . . .
26.3(27) . . .
32.1(31) . . .
31.5(29) . . .
33.9(30) . . .
34.2(31) . . .
26.3(27) . . .
28.0(29) . . .
23.8(25) . . .
34.1(31) . . .
33.8(32) . . .
29.8(29) . . .
24.5(26) . . .
23.2(25) . . .
30.8(29) . . .
29.8(29) . . .
26.5(27) . . .
25.9(26) . . .
26.9(27) . . .
37(4) . . .
22.2(24) . . .
33.5(32) . . .
25.4(27) . . .
24.2(28) . . .
35.8(33) . . .
29.5(31) . . .
26.4(26) . . .
29.7(28) . . .
28.3(28) . . .
25.5(28) . . .
28.1(28) . . .
38.0(32) . . .
35.2(31) . . .
29.6(28) . . .
25.0(28) . . .
28.1(30) . . .
29.2(28) . . .
24.9(26) . . .
27.0(27) . . .
32.5(30) . . .
34.2(34) . . .
29.4(28) . . .
26.7(27) . . .
24.6(26) . . .
25.2(26) . . .
29.5(33) . . .
26.7(28) . . .
30.9(29) . . .
33.9(31) . . .
26.5(29) . . .
27.2(30) . . .
27.0(28) . . .
24.5(26) . . .
22.1(25) . . .
31.7(31) . . .
32.9(32) . . .
32.9(31) . . .
30.3(29) . . .
31.4(30) . . .
32.7(30) . . .
24.0(27) . . .
24.4(26) . . .
27.0(27) . . .
30.9(29) . . .
31.1(30) . . .
24.5(25) . . .
32.7(31) . . .
35.1(31) . . .
35.0(33) . . .
29.0(30) . . .
27.6(27) . . .
24.6(25) . . .
31.0(29) . . .
27.5(28) . . .
28.2(30) . . .
23.7(25) . . .
24.5(26) . . .
21.8(25) . . .
28.4(29) . . .
31.3(31) . . .
32.5(30) . . .
25.8(26) . . .
22.6(25) . . .
24.9(27) . . .
30.6(29) . . .
27.3(27) . . .
26.7(27) . . .
26.6(28) . . .
24.4(26) . . .
34.1(33) . . .
36.4(33) . . .
33.5(30) . . .
20.0(23) . . .
29.7(29) . . .
42(4) . . .
30.4(31) . . .
33.2(30) . . .
36.2(31) . . .
28.1(28) . . .
26.9(29) . . .
26.4(30) . . .
22.4(25) . . .
28.5(29) . . .
22.3(26) . . .
27.2(30) . . .
24.1(27) . . .
22.2(25) . . .
31.9(31) . . .
34.0(32) . . .
31.8(32) . . .
27.5(29) . . .
26.7(27) . . .
30.0(30) . . .
30.0(30) . . .
25.9(29) . . .
29.4(29) . . .
34.3(30) . . .
36.1(31) . . .
25.5(27) . . .
29.7(30) . . .
37.1(33) . . .
24.2(26) . . .
18.8(23) . . .
25.5(28) . . .
26.5(28) . . .
33.2(30) . . .
25.0(26) . . .
29.7(30) . . .
23.6(27) . . .
33.3(35) . . .
33.9(31) . . .
31.8(29) . . .
28.9(30) . . .
35.9(33) . . .
32.9(31) . . .
33.5(30) . . .
29.3(28) . . .
23.9(26) . . .
25.0(26) . . .
32.8(32) . . .
30.1(29) . . .
31.4(29) . . .
38.0(35) . . .
20.8(25) . . .
27.5(27) . . .
36.1(32) . . .
32.7(30) . . .
25.9(27) . . .
22.9(27) . . .
24.2(26) . . .
28.4(28) . . .
29.5(28) . . .
33.1(30) . . .
25.3(26) . . .
35.3(32) . . .
25.9(27) . . .
32.0(29) . . .
27.0(28) . . .
31.1(32) . . .
31.6(33) . . .
29.8(29) . . .
26.9(27) . . .
24.5(26) . . .
26.3(27) . . .
23.6(26) . . .
31.1(29) . . .
33.3(31) . . .
26.2(27) . . .
24.5(25) . . .
28.0(29) . . .
22.4(25) . . .
27.9(29) . . .
29.6(30) . . .
32.1(31) . . .
31.6(30) . . .
29.2(28) . . .
27.0(27) . . .
33.8(32) . . .
30.5(30) . . .
31.0(30) . . .
21.5(24) . . .
25.9(26) . . .
29.9(29) . . .
29.4(29) . . .
38.6(32) . . .
36.9(32) . . .
29.4(29) . . .
28.9(31) . . .
34.9(32) . . .
25.9(27) . . .
36.3(31) . . .
30.3(29) . . .
36(4) . . .
28.7(29) . . .
32.3(30) . . .
30.0(30) . . .
30.5(29) . . .
34.0(33) . . .
28.5(28) . . .
22.9(25) . . .
33.1(30) . . .
28.7(29) . . .
24.8(26) . . .
26.2(26) . . .
33.4(30) . . .
39.0(34) . . .
24.3(27) . . .
31.6(30) . . .
31.7(31) . . .
28.5(28) . . .
37.5(32) . . .
24.5(24) . . .
35.7(32) . . .
33.9(32) . . .
25.2(27) . . .
36.4(33) . . .
35.5(32) . . .
35.5(31) . . .
34.2(30) . . .
26.8(27) . . .
32.4(30) . . .
37.2(35) . . .
31.2(29) . . .
29.3(28) . . .
25.8(27) . . .
32.9(31) . . .
31.3(30) . . .
34.1(32) . . .
22.4(26) . . .
26.8(27) . . .
31.5(30) . . .
30.4(30) . . .
31.7(29) . . .
32.1(29) . . .
30.0(29) . . .
28.1(28) . . .
28.6(29) . . .
32.9(31) . . .
23.1(25) . . .
26.5(27) . . .
32.3(31) . . .
31.7(33) . . .
24.9(26) . . .
22.3(24) . . .
27.5(28) . . .
27.6(27) . . .
35(4) . . .
26.0(27) . . .
34.6(30) . . .
33.5(30) . . .
29.8(30) . . .
22.6(27) . . .
27.2(30) . . .
26.7(27) . . .
31.0(31) . . .
28.8(30) . . .
31.8(33) . . .
31.2(31) . . .
26.6(27) . . .
27.1(29) . . .
25.2(28) . . .
26.3(27) . . .
31.2(29) . . .
24.4(26) . . .
26.5(27) . . .
20.7(25) . . .
21.0(26) . . .
24.1(27) . . .
29.0(28) . . .
22.9(27) . . .
34(4) . . .
25.9(30) . . .
26.8(29) . . .
22.4(25) . . .
30.6(31) . . .
32.3(30) . . .
29.2(28) . . .
30.1(29) . . .
25.6(28) . . .
22.0(26) . . .
27.2(29) . . .
39.3(34) . . .
35.3(31) . . .
27.3(27) . . .
23.8(26) . . .
31.9(33) . . .
30.6(31) . . .
31.7(32) . . .
31.0(29) . . .
27.1(29) . . .
31.9(32) . . .
27.4(27) . . .
33.8(31) . . .
35.3(32) . . .
26.6(28) . . .
27.8(30) . . .
31.1(30) . . .
29.3(28) . . .
28.5(29) . . .
31.0(29) . . .
31.0(31) . . .
32.2(30) . . .
36.1(31) . . .
38.7(33) . . .
27.6(28) . . .
34.6(31) . . .
31.2(30) . . .
35.6(31) . . .
34.7(31) . . .
25.9(29) . . .
28.0(32) . . .
34.4(33) . . .
35.2(31) . . .
25.7(26) . . .
29.3(30) . . .
23.6(26) . . .
30.8(30) . . .
22.7(25) . . .
33.0(30) . . .
25.9(26) . . .
34.3(32) . . .
29.7(28) . . .
22.4(25) . . .
28.1(29) . . .
29.2(28) . . .
25.0(26) . . .
26.5(28) . . .
25.7(27) . . .
36.2(32) . . .
33.6(30) . . .
27.0(27) . . .
26.2(27) . . .
26.6(27) . . .
28.1(28) . . .
37.8(34) . . .
28.3(30) . . .
29.1(29) . . .
27.0(27) . . .
26.1(30) . . .
33.2(34) . . .
28.9(31) . . .
32.3(30) . . .
36.0(31) . . .
20.4(23) . . .
33.4(32) . . .
32.2(31) . . .
35.9(32) . . .
26.3(26) . . .
29.4(31) . . .
22.2(26) . . .
24.5(26) . . .
30.4(29) . . .
23.9(27) . . .
22.5(25) . . .
28.5(30) . . .
26.7(28) . . .
31.3(30) . . .
27.9(29) . . .
21.3(23) . . .
23.1(26) . . .
24.4(29) . . .
31.7(30) . . .
32.9(31) . . .
26.1(26) . . .
27.7(28) . . .
38.2(34) . . .
33.2(30) . . .
29.5(29) . . .
21.6(24) . . .
25.3(30) . . .
22.4(25) . . .
31.8(29) . . .
28.2(28) . . .
30.8(30) . . .
31.6(33) . . .
25.9(26) . . .
25.6(27) . . .
26.1(29) . . .
25.0(26) . . .
29.2(29) . . .
31.0(30) . . .
30.4(29) . . .
32.0(30) . . .
29.0(30) . . .
25.4(26) . . .
25.5(26) . . .
32.8(30) . . .
27.9(30) . . .
25.1(27) . . .
32.4(29) . . .
33.5(30) . . .
31.6(29) . . .
32.0(30) . . .
27.4(28) . . .
25.8(28) . . .
29.4(28) . . .
29.3(28) . . .
29.5(28) . . .
29.7(31) . . .
28.7(30) . . .
34.6(31) . . .
22.9(25) . . .
29.9(30) . . .
20.6(25) . . .
31.3(33) . . .
34.3(31) . . .
25.5(27) . . .
29.6(30) . . .
31.7(31) . . .
27.5(30) . . .
22.1(25) . . .
28.1(27) . . .
28.5(29) . . .
36.0(35) . . .
25.8(27) . . .
30.2(29) . . .
27.2(28) . . .
34.5(31) . . .
28.2(28) . . .
32.2(33) . . .
25.2(26) . . .
27.6(28) . . .
28.1(27) . . .
29.5(28) . . .
34.2(31) . . .
28.1(28) . . .
20.4(24) . . .
26.1(30) . . .
32.1(32) . . .
24.7(27) . . .
28.0(28) . . .
32.6(30) . . .
31.9(32) . . .
18.5(23) . . .
27.7(29) . . .
27.1(27) . . .
24.4(26) . . .
29.4(30) . . .
31.4(29) . . .
33.3(30) . . .
30.3(30) . . .
26.1(28) . . .
22.9(27) . . .
31.4(31) . . .
30.8(29) . . .
30.2(30) . . .
30.6(32) . . .
33.0(34) . . .
23.9(26) . . .
29.8(29) . . .
23.9(26) . . .
34.8(32) . . .
25.8(26) . . .
33.8(31) . . .
28.1(28) . . .
29.0(28) . . .
35.1(32) . . .
29.0(29) . . .
27.4(28) . . .
29.5(28) . . .
23.3(25) . . .
30.9(30) . . .
29.5(29) . . .
37.3(33) . . .
32.1(30) . . .
21.0(24) . . .
22.5(26) . . .
29.7(31) . . .
24.5(28) . . .
22.0(24) . . .
32.3(31) . . .
24.5(29) . . .
22.0(26) . . .
22.2(24) . . .
34.1(31) . . .
25.9(28) . . .
32.0(31) . . .
25.6(26) . . .
34.2(31) . . .
34.9(30) . . .
32.0(29) . . .
38.6(33) . . .
33.2(30) . . .
24.9(28) . . .
21.8(24) . . .
27.8(29) . . .
25.8(28) . . .
21.9(25) . . .
31.0(30) . . .
30.2(29) . . .
36.8(33) . . .
34.4(34) . . .
26.7(29) . . .
24.6(26) . . .
27.8(28) . . .
28.1(28) . . .
31.0(32) . . .
30.0(29) . . .
26.3(27) . . .
29.2(28) . . .
29.1(28) . . .
33.0(34) . . .
42(4) . . .
19.0(23) . . .
27.0(27) . . .
27.4(28) . . .
21.8(26) . . .
25.8(27) . . .
26.5(27) . . .
27.4(27) . . .
28.3(29) . . .
30.0(31) . . .
27.3(27) . . .
26.8(27) . . .
32.0(31) . . .
35.3(32) . . .
25.3(27) . . .
31.5(30) . . .
23.8(25) . . .
27.1(28) . . .
26.5(27) . . .
26.7(27) . . .
29.5(28) . . .
35.2(32) . . .
28.5(30) . . .
31.9(33) . . .
27.4(30) . . .
26.3(28) . . .
20.0(23) . . .
27.9(32) . . .
41(4) . . .
37.1(32) . . .
26.5(27) . . .
24.7(25) . . .
30.9(30) . . .
27.7(29) . . .
31.3(30) . . .
33.6(30) . . .
26.7(27) . . .
25.3(28) . . .
22.9(28) . . .
30.4(30) . . .
24.4(25) . . .
27.7(28) . . .
25.4(26) . . .
30.4(31) . . .
32.1(30) . . .
31.2(29) . . .
31.7(29) . . .
32.6(30) . . .
28.6(28) . . .
27.5(27) . . .
34.1(30) . . .
28.4(29) . . .
28.9(30) . . .
27.4(28) . . .
32.2(30) . . .
28.5(28) . . .
32.6(32) . . .
29.6(29) . . .
21.4(24) . . .
25.3(26) . . .
29.9(29) . . .
29.8(29) . . .
34.7(31) . . .
29.9(29) . . .
34.5(31) . . .
24.5(26) . . .
26.4(29) . . .
31.2(33) . . .
30.3(29) . . .
30.7(29) . . .
26.5(27) . . .
34.9(31) . . .
21.2(23) . . .
19.2(23) . . .
29.1(30) . . .
29.5(28) . . .
22.3(24) . . .
29.2(31) . . .
27.8(28) . . .
32.0(29) . . .
43.0(35) . . .
32.4(31) . . .
24.5(25) . . .
31.6(31) . . .
39.6(33) . . .
32.7(30) . . .
34.4(31) . . .
30.9(30) . . .
33.8(31) . . .
26.1(28) . . .
31.7(29) . . .
34.8(32) . . .
28.3(29) . . .
25.1(26) . . .
34.0(30) . . .
28.8(28) . . .
29.1(29) . . .
28.3(30) . . .
36.7(35) . . .
32.7(30) . . .
43.0(34) . . .
24.9(26) . . .
25.4(26) . . .
30.0(29) . . .
26.9(27) . . .
38.3(33) . . .
31.6(29) . . .
23.9(25) . . .
32.7(32) . . .
29.5(29) . . .
27.3(27) . . .
34.0(31) . . .
31.4(31) . . .
20.7(24) . . .
24.7(26) . . .
29.0(28) . . .
33.7(31) . . .
29.4(29) . . .
28.0(28) . . .
33.9(30) . . .
27.9(28) . . .
29.7(31) . . .
37.6(34) . . .
29.1(29) . . .
34.6(30) . . .
31.0(30) . . .
26.4(30) . . .
26.5(30) . . .
25.1(26) . . .
24.3(26) . . .
29.2(30) . . .
37.2(34) . . .
30.8(29) . . .
22.7(25) . . .
27.3(27) . . .
28.2(28) . . .
35.5(34) . . .
33.5(30) . . .
35.2(31) . . .
27.4(27) . . .
32.2(32) . . .
32.9(32) . . .
28.0(28) . . .
25.0(26) . . .
25.1(26) . . .
32.5(30) . . .
27.6(28) . . .
30.3(32) . . .
31.8(30) . . .
31.5(30) . . .
28.8(29) . . .
26.5(28) . . .
30.2(29) . . .
24.1(25) . . .
30.8(30) . . .
26.5(27) . . .
33.5(32) . . .
24.1(27) . . .
34.3(31) . . .
25.5(26) . . .
25.5(27) . . .
23.4(27) . . .
27.7(28) . . .
23.9(26) . . .
27.6(28) . . .
28.7(30) . . .
28.4(28) . . .
27.9(28) . . .
25.9(27) . . .
38.5(33) . . .
34.9(33) . . .
35.3(31) . . .
31.8(29) . . .
28.2(28) . . .
20.2(23) . . .
29.0(31) . . .
28.4(30) . . .
22.5(24) . . .
27.6(28) . . .
28.6(28) . . .
33.8(32) . . .
31.3(31) . . .
31.4(29) . . .
25.3(26) . . .
29.1(30) . . .
28.9(29) . . .
27.9(29) . . .
26.9(27) . . .
28.9(28) . . .
21.1(26) . . .
29.5(32) . . .
26.7(27) . . .
26.6(28) . . .
22.6(25) . . .
25.5(26) . . .
24.1(26) . . .
36.7(34) . . .
25.2(27) . . .
27.1(27) . . .
27.3(27) . . .
24.3(26) . . .
33.2(33) . . .
33.8(30) . . .
31.1(28) . . .
26.2(29) . . .
26.1(29) . . .
29.9(29) . . .
25.8(27) . . .
28.0(28) . . .
26.7(28) . . .
26.9(30) . . .
38(4) . . .
28.4(28) . . .
39(4) . . .
24.5(28) . . .
31.7(31) . . .
31.8(29) . . .
35.0(31) . . .
26.1(28) . . .
31.3(31) . . .
27.0(28) . . .
35.9(32) . . .
34.9(30) . . .
36.0(33) . . .
36.2(32) . . .
29.6(29) . . .
20.9(24) . . .
32.4(30) . . .
29.3(29) . . .
29.6(31) . . .
20.0(23) . . .
28.1(28) . . .
24.6(26) . . .
21.0(24) . . .
28.5(31) . . .
24.2(27) . . .
32.6(31) . . .
26.6(27) . . .
23.7(25) . . .
26.4(28) . . .
36.3(32) . . .
30.9(29) . . .
29.5(28) . . .
35.2(31) . . .
32.9(32) . . .
33.1(34) . . .
28.6(27) . . .
24.9(26) . . .
32.2(33) . . .
26.6(29) . . .
29.5(29) . . .
32.1(30) . . .
30.5(29) . . .
32.2(31) . . .
28.6(28) . . .
26.4(28) . . .
28.2(28) . . .
28.6(28) . . .
30.7(29) . . .
40(4) . . .
31.0(29) . . .
34.6(31) . . .
19.8(23) . . .
31.0(30) . . .
31.3(31) . . .
25.8(28) . . .
33.3(30) . . .
35.8(32) . . .
26.0(28) . . .
30.1(31) . . .
35.6(32) . . .
23.3(26) . . .
34.7(33) . . .
34.1(33) . . .
28.9(28) . . .
32.1(30) . . .
29.9(28) . . .
27.9(28) . . .
28.5(29) . . .
27.3(28) . . .
26.0(26) . . .
26.9(28) . . .
24.0(26) . . .
25.4(28) . . .
27.0(28) . . .
35.1(31) . . .
35.5(31) . . .
30.3(29) . . .
29.5(30) . . .
29.6(29) . . .
30.4(29) . . .
35.1(31) . . .
36.9(32) . . .
29.0(29) . . .
31.6(35) . . .
27.7(28) . . .
24.6(25) . . .
26.1(27) . . .
35.0(34) . . .
27.2(27) . . .
29.6(29) . . .
31.7(30) . . .
26.7(27) . . .
25.2(26) . . .
30.5(30) . . .
34.0(30) . . .
22.9(25) . . .
36.5(34) . . .
33.8(31) . . .
29.0(29) . . .
30.7(29) . . .
26.7(27) . . .
33.2(31) . . .
28.9(28) . . .
32.5(33) . . .
40.7(33) . . .
26.5(27) . . .
23.1(25) . . .
23.2(25) . . .
24.0(26) . . .
28.4(27) . . .
28.9(30) . . .
30.2(31) . . .
31.0(32) . . .
34.9(32) . . .
30.5(29) . . .
32.4(31) . . .
29.6(29) . . .
30.5(31) . . .
37.5(33) . . .
29.0(28) . . .
25.4(26) . . .
32.0(31) . . .
28.2(28) . . .
44(4) . . .
29.4(29) . . .
33.2(31) . . .
32.8(34) . . .
31.5(29) . . .
30.9(29) . . .
33.6(30) . . .
25.9(27) . . .
26.3(28) . . .
31.9(31) . . .
26.0(26) . . .
26.5(28) . . .
25.3(27) . . .
31.1(32) . . .
28.8(31) . . .
30.7(29) . . .
30.9(29) . . .
38.0(34) . . .
33.1(33) . . .
26.2(27) . . .
27.3(28) . . .
26.0(27) . . .
30.7(29) . . .
34.9(33) . . .
32.4(30) . . .
28.1(27) . . .
36.4(32) . . .
30.5(29) . . .
19.2(23) . . .
28.3(30) . . .
29.4(28) . . .
28.8(29) . . .
32.3(31) . . .
34.5(32) . . .
35.8(33) . . .
28.9(28) . . .
26.1(27) . . .
25.5(27) . . .
31.4(32) . . .
32.5(31) . . .
39.3(33) . . .
27.8(29) . . .
30.6(31) . . .
20.5(24) . . .
29.3(29) . . .
22.2(25) . . .
25.4(29) . . .
25.6(28) . . .
30.1(33) . . .
41.1(35) . . .
29.3(28) . . .
31.2(30) . . .
27.0(29) . . .
29.4(32) . . .
36.5(31) . . .
26.5(27) . . .
30.3(31) . . .
24.6(29) . . .
27.2(29) . . .
21.8(26) . . .
26.6(27) . . .
34.8(31) . . .
32.5(29) . . .
33.3(32) . . .
29.6(28) . . .
29.7(28) . . .
29.2(29) . . .
24.2(27) . . .
24.8(26) . . .
31.2(29) . . .
24.4(27) . . .
28.7(29) . . .
30.6(30) . . .
22.2(26) . . .
33.1(30) . . .
25.7(27) . . .
31.7(31) . . .
29.5(29) . . .
26.3(27) . . .
32.5(30) . . .
29.9(29) . . .
25.9(27) . . .
34.5(34) . . .
28.0(28) . . .
31.6(30) . . .
28.7(27) . . .
25.2(27) . . .
29.2(32) . . .
37.2(33) . . .
24.2(26) . . .
29.0(29) . . .
29.1(30) . . .
29.6(29) . . .
26.7(27) . . .
28.6(28) . . .
33.8(31) . . .
31.3(31) . . .
32.5(32) . . .
37.4(34) . . .
30.3(29) . . .
25.6(28) . . .
34.2(33) . . .
31.7(31) . . .
31.6(31) . . .
26.5(28) . . .
28.1(29) . . .
39(4) . . .
22.6(26) . . .
23.3(25) . . .
32.5(30) . . .
34.6(32) . . .
36.9(32) . . .
33.1(29) . . .
27.7(28) . . .
25.6(27) . . .
30.1(30) . . .
34.3(31) . . .
27.2(27) . . .
33.3(30) . . .
36.8(32) . . .
27.8(28) . . .
33.8(33) . . .
25.7(27) . . .
27.6(27) . . .
31.4(31) . . .
32.1(29) . . .
31.6(30) . . .
31.3(31) . . .
39.4(32) . . .
22.0(25) . . .
33.5(31) . . .
39.0(34) . . .
39(4) . . .
28.6(28) . . .
34.7(33) . . .
24.4(27) . . .
25.9(26) . . .
33.6(30) . . .
33.6(30) . . .
28.2(27) . . .
31.6(32) . . .
26.1(27) . . .
26.9(27) . . .
31.4(29) . . .
26.3(28) . . .
32.3(33) . . .
24.3(26) . . .
28.8(31) . . .
26.8(27) . . .
30.8(30) . . .
23.0(25) . . .
30.0(30) . . .
18.1(23) . . .
26.3(27) . . .
38.3(35) . . .
29.2(31) . . .
28.9(29) . . .
21.6(24) . . .
28.3(28) . . .
30.9(29) . . .
30.5(32) . . .
27.0(28) . . .
29.2(28) . . .
37.1(32) . . .
25.8(28) . . .
27.1(30) . . .
26.8(27) . . .
26.5(27) . . .
27.6(27) . . .
23.6(26) . . .
24.4(29) . . .
21.0(24) . . .
31.0(29) . . .
27.3(28) . . .
30.5(31) . . .
28.0(29) . . .
28.1(28) . . .
30.5(29) . . .
28.6(27) . . .
29.5(27) . . .
28.9(29) . . .
36.9(34) . . .
26.8(27) . . .
36.9(32) . . .
31.6(31) . . .
29.2(30) . . .
26.6(30) . . .
35.0(30) . . .
30.4(29) . . .
28.2(29) . . .
27.0(27) . . .
34.0(31) . . .
28.5(28) . . .
24.5(26) . . .
38(4) . . .
34.3(33) . . .
26.1(27) . . .
31.0(29) . . .
30.0(31) . . .
28.0(30) . . .
26.7(28) . . .
31.8(29) . . .
29.4(28) . . .
29.2(29) . . .
29.0(30) . . .
25.1(27) . . .
32.2(29) . . .
37.0(32) . . .
30.5(29) . . .
27.9(30) . . .
30.4(29) . . .
27.2(28) . . .
30.6(29) . . .
22.9(26) . . .
28.8(29) . . .
30.0(29) . . .
32.0(29) . . .
25.3(26) . . .
23.9(26) . . .
30.5(32) . . .
24.5(26) . . .
25.4(26) . . .
30.5(30) . . .
31.6(31) . . .
36.2(33) . . .
26.9(30) . . .
33.5(30) . . .
27.6(28) . . .
34.3(32) . . .
35.0(34) . . .
31.2(29) . . .
30.2(29) . . .
25.0(26) . . .
26.3(27) . . .
29.7(30) . . .
35.7(32) . . .
36.9(32) . . .
28.1(29) . . .
31.8(31) . . .
29.3(29) . . .
24.5(27) . . .
25.6(27) . . .
31.3(30) . . .
31.9(32) . . .
25.7(30) . . .
26.4(27) . . .
21.9(24) . . .
29.9(32) . . .
27.2(27) . . .
34.6(34) . . .
16.2(21) . . .
25.5(26) . . .
28.3(28) . . .
29.8(30) . . .
35.0(32) . . .
30.8(30) . . .
28.8(27) . . .
36.4(32) . . .
29.1(30) . . .
33.4(34) . . .
32.5(30) . . .
20.6(24) . . .
26.7(29) . . .
31.3(31) . . .
24.0(27) . . .
27.9(27) . . .
25.6(26) . . .
20.3(25) . . .
27.9(30) . . .
23.6(27) . . .
26.9(27) . . .
28.4(28) . . .
33.0(32) . . .
34.4(32) . . .
27.8(28) . . .
27.8(28) . . .
34.6(32) . . .
35.4(35) . . .
23.9(27) . . .
32.9(32) . . .
32.3(29) . . .
38.7(33) . . .
32.7(29) . . .
43.1(35) . . .
33.3(31) . . .
32.8(30) . . .
29.9(29) . . .
29.0(29) . . .
27.9(28) . . .
34.8(31) . . .
30.1(28) . . .
30.4(29) . . .
34.6(31) . . .
35.4(30) . . .
25.1(26) . . .
27.8(28) . . .
32.3(31) . . .
28.6(29) . . .
34.8(33) . . .
27.9(28) . . .
26.1(26) . . .
33.0(30) . . .
36.5(35) . . .
22.6(26) . . .
31.0(29) . . .
34.4(32) . . .
30.7(29) . . .
23.0(27) . . .
26.1(29) . . .
26.5(26) . . .
26.8(27) . . .
31.9(35) . . .
32.3(34) . . .
26.1(27) . . .
26.3(26) . . .
28.7(28) . . .
24.6(26) . . .
25.8(30) . . .
34.1(32) . . .
29.1(28) . . .
26.7(27) . . .
29.1(29) . . .
30.8(30) . . .
34.2(32) . . .
24.3(26) . . .
31.2(30) . . .
32.0(30) . . .
28.0(28) . . .
30.5(29) . . .
37.5(32) . . .
33.3(30) . . .
26.5(29) . . .
23.1(26) . . .
30.4(31) . . .
29.0(30) . . .
26.4(28) . . .
28.4(29) . . .
30.1(30) . . .
28.1(29) . . .
26.6(27) . . .
29.8(30) . . .
26.2(26) . . .
34.2(32) . . .
29.4(29) . . .
31.2(29) . . .
24.3(25) . . .
31.1(30) . . .
29.1(28) . . .
23.7(26) . . .
32.2(30) . . .
23.9(28) . . .
32.7(31) . . .
35.5(31) . . .
33.0(31) . . .
28.2(27) . . .
34.3(33) . . .
34.5(34) . . .
26.1(27) . . .
28.0(27) . . .
29.9(29) . . .
33.0(32) . . .
29.4(32) . . .
29.3(29) . . .
24.3(26) . . .
24.8(26) . . .
26.4(29) . . .
27.8(29) . . .
28.3(28) . . .
34.2(31) . . .
29.6(28) . . .
26.4(27) . . .
21.9(25) . . .
26.5(28) . . .
28.8(28) . . .
23.2(25) . . .
30.2(30) . . .
28.6(31) . . .
28.2(29) . . .
29.4(28) . . .
24.0(25) . . .
27.5(28) . . .
37(4) . . .
26.8(28) . . .
32.9(30) . . .
29.3(30) . . .
30.6(31) . . .
31.4(33) . . .
26.0(28) . . .
33.7(31) . . .
23.8(26) . . .
29.1(29) . . .
37.0(32) . . .
31.9(30) . . .
27.2(27) . . .
28.9(28) . . .
24.7(26) . . .
28.5(29) . . .
26.6(26) . . .
25.1(26) . . .
24.0(25) . . .
30.6(29) . . .
41(4) . . .
32.8(30) . . .
30.8(29) . . .
28.2(29) . . .
29.1(31) . . .
28.3(30) . . .
29.6(28) . . .
25.6(27) . . .
29.0(30) . . .
27.5(28) . . .
33.1(31) . . .
31.9(30) . . .
34.9(33) . . .
30.3(30) . . .
30.5(31) . . .
31.7(30) . . .
33.4(30) . . .
31.7(30) . . .
28.8(28) . . .
30.4(32) . . .
31.9(31) . . .
33.6(30) . . .
24.0(26) . . .
24.5(27) . . .
29.2(32) . . .
26.0(27) . . .
29.6(28) . . .
31.4(30) . . .
29.3(30) . . .
26.7(28) . . .
29.5(31) . . .
31.1(28) . . .
35.4(32) . . .
33.9(31) . . .
21.8(25) . . .
22.3(27) . . .
34.6(30) . . .
26.3(28) . . .
33.0(32) . . .
24.5(26) . . .
27.0(27) . . .
43.0(34) . . .
41.9(35) . . .
27.2(29) . . .
33.4(33) . . .
30.6(30) . . .
25.2(26) . . .
26.9(31) . . .
20.2(24) . . .
23.4(25) . . .
33.3(30) . . .
20.1(24) . . .
26.1(29) . . .
29.3(30) . . .
29.3(29) . . .
24.6(27) . . .
30.3(29) . . .
21.3(25) . . .
23.2(27) . . .
30.5(30) . . .
27.8(28) . . .
30.2(29) . . .
25.9(27) . . .
26.4(28) . . .
30.0(28) . . .
34.1(30) . . .
26.9(27) . . .
27.5(30) . . .
24.0(27) . . .
20.0(23) . . .
30.7(28) . . .
23.5(26) . . .
29.0(29) . . .
25.9(28) . . .
27.7(28) . . .
27.3(27) . . .
26.9(27) . . .
23.3(24) . . .
21.8(24) . . .
27.1(29) . . .
33.6(30) . . .
46(4) . . .
28.4(29) . . .
22.3(26) . . .
23.9(27) . . .
25.6(27) . . .
24.8(27) . . .
27.9(30) . . .
27.7(30) . . .
35.2(32) . . .
28.8(28) . . .
21.6(25) . . .
25.2(27) . . .
22.8(24) . . .
34.3(31) . . .
32.8(30) . . .
28.0(28) . . .
27.0(28) . . .
30.6(31) . . .
19.9(24) . . .
27.4(28) . . .
23.0(25) . . .
32.6(32) . . .
33.5(32) . . .
26.1(27) . . .
31.0(30) . . .
29.4(29) . . .
24.2(26) . . .
24.6(27) . . .
34.3(32) . . .
27.8(28) . . .
27.4(29) . . .
32.5(32) . . .
29.3(30) . . .
29.0(28) . . .
30.4(29) . . .
31.6(32) . . .
31.1(30) . . .
33.5(31) . . .
29.5(28) . . .
22.2(24) . . .
23.4(25) . . .
27.2(30) . . .
28.5(32) . . .
35.4(31) . . .
31.1(29) . . .
27.2(29) . . .
26.1(27) . . .
23.9(28) . . .
39.0(33) . . .
27.6(28) . . .
25.8(28) . . .
32.6(31) . . .
29.7(28) . . .
29.0(29) . . .
31.5(30) . . .
31.6(29) . . .
28.9(30) . . .
20.5(26) . . .
20.0(24) . . .
32.3(30) . . .
29.0(30) . . .
23.8(27) . . .
24.2(25) . . .
29.6(28) . . .
29.8(31) . . .
22.5(26) . . .
23.8(26) . . .
21.3(24) . . .
27.7(27) . . .
29.5(30) . . .
33.8(34) . . .
23.5(26) . . .
35.9(32) . . .
30.1(28) . . .
33.2(32) . . .
31.7(33) . . .
30.8(32) . . .
21.2(24) . . .
23.7(25) . . .
33.7(33) . . .
28.2(31) . . .
23.7(26) . . .
27.6(27) . . .
32.7(31) . . .
28.1(30) . . .
29.3(31) . . .
27.9(28) . . .
28.2(28) . . .
24.6(26) . . .
25.0(26) . . .
27.9(29) . . .
24.4(27) . . .
29.7(28) . . .
36.5(32) . . .
32.2(31) . . .
24.0(25) . . .
28.3(28) . . .
32.1(29) . . .
28.1(28) . . .
25.3(28) . . .
26.3(28) . . .
29.5(30) . . .
29.7(28) . . .
25.1(30) . . .
32.8(32) . . .
27.6(28) . . .
30.0(31) . . .
20.8(24) . . .
26.9(27) . . .
31.5(30) . . .
35.5(33) . . .
25.7(26) . . .
33.2(30) . . .
24.8(28) . . .
32.9(32) . . .
34.0(33) . . .
23.3(25) . . .
27.5(28) . . .
29.0(29) . . .
28.3(28) . . .
34.5(32) . . .
30.3(29) . . .
31.9(29) . . .
26.6(27) . . .
24.2(27) . . .
30.0(30) . . .
26.0(26) . . .
34.7(31) . . .
39.0(34) . . .
22.9(24) . . .
25.7(28) . . .
30.8(29) . . .
29.8(28) . . .
25.3(26) . . .
34.4(33) . . .
25.8(27) . . .
27.1(27) . . .
34.2(32) . . .
24.9(26) . . .
32.7(33) . . .
29.3(30) . . .
18.4(23) . . .
28.1(28) . . .
32.5(30) . . .
31.9(32) . . .
27.5(31) . . .
24.5(27) . . .
28.4(28) . . .
29.9(30) . . .
27.0(29) . . .
30.0(30) . . .
28.2(28) . . .
29.9(28) . . .
30.3(28) . . .
33.4(32) . . .
25.7(28) . . .
26.6(27) . . .
30.3(29) . . .
30.3(30) . . .
31.8(31) . . .
32.0(31) . . .
25.5(26) . . .
35.5(33) . . .
30.0(29) . . .
41(4) . . .
26.3(26) . . .
28.5(28) . . .
28.0(28) . . .
37(4) . . .
31.1(29) . . .
23.1(25) . . .
29.8(29) . . .
30.9(32) . . .
24.6(28) . . .
25.9(28) . . .
28.7(28) . . .
39.8(33) . . .
33.0(29) . . .
34.3(30) . . .
29.3(30) . . .
32.5(31) . . .
28.6(28) . . .
23.9(26) . . .
27.5(32) . . .
34.2(32) . . .
27.5(27) . . .
42.8(34) . . .
28.7(28) . . .
26.6(28) . . .
27.7(29) . . .
34.5(31) . . .
37.2(32) . . .
29.6(30) . . .
27.1(30) . . .
28.1(29) . . .
30.1(29) . . .
35.7(32) . . .
32.2(31) . . .
26.4(29) . . .
19.7(25) . . .
28.5(28) . . .
36.1(32) . . .
32.4(30) . . .
32.4(32) . . .
26.7(29) . . .
22.5(25) . . .
25.1(28) . . .
29.0(31) . . .
28.9(29) . . .
35.9(33) . . .
23.0(25) . . .
29.9(29) . . .
26.6(27) . . .
31.7(30) . . .
38.2(33) . . .
33.3(30) . . .
23.5(25) . . .
34.9(33) . . .
28.0(28) . . .
30.3(29) . . .
28.0(28) . . .
35.6(33) . . .
31.9(32) . . .
29.7(29) . . .
24.1(25) . . .
28.4(29) . . .
30.9(29) . . .
32.6(33) . . .
18.2(24) . . .
30.9(29) . . .
27.0(28) . . .
25.6(27) . . .
25.7(30) . . .
24.8(27) . . .
38.0(32) . . .
29.1(28) . . .
31.5(30) . . .
33.1(33) . . .
30.0(29) . . .
31.4(30) . . .
24.4(26) . . .
21.1(25) . . .
33.4(33) . . .
33.3(32) . . .
20.2(24) . . .
36.5(33) . . .
30.4(30) . . .
28.5(28) . . .
22.1(25) . . .
26.1(27) . . .
27.7(29) . . .
30.4(31) . . .
24.0(26) . . .
31.2(30) . . .
25.1(26) . . .
25.1(26) . . .
31.2(29) . . .
26.6(27) . . .
27.1(27) . . .
24.2(26) . . .
40.0(34) . . .
35.8(32) . . .
29.1(29) . . .
26.2(27) . . .
38.1(33) . . .
34.1(31) . . .
26.4(28) . . .
26.3(29) . . .
26.0(28) . . .
27.0(27) . . .
31.2(31) . . .
36.5(32) . . .
28.3(27) . . .
30.5(32) . . .
27.9(28) . . .
23.4(26) . . .
33.6(31) . . .
35.7(33) . . .
30.8(30) . . .
31.7(30) . . .
33.0(31) . . .
27.2(30) . . .
24.7(28) . . .
22.8(24) . . .
28.8(29) . . .
28.3(31) . . .
26.4(32) . . .
27.8(28) . . .
28.4(28) . . .
31.4(30) . . .
30.1(31) . . .
22.2(27) . . .
28.2(30) . . .
28.7(28) . . .
31.1(29) . . .
33.0(31) . . .
33.8(34) . . .
26.1(28) . . .
25.9(27) . . .
24.9(26) . . .
22.9(25) . . .
30.9(31) . . .
36.0(32) . . .
30.8(29) . . .
29.5(30) . . .
40(4) . . .
28.9(28) . . .
28.7(28) . . .
22.4(25) . . .
28.5(28) . . .
21.6(26) . . .
22.9(26) . . .
31.2(32) . . .
28.8(28) . . .
35.0(31) . . .
30.7(32) . . .
26.7(28) . . .
31.2(30) . . .
33.1(30) . . .
27.8(29) . . .
24.9(26) . . .
33.1(30) . . .
32.0(30) . . .
17.4(23) . . .
23.9(26) . . .
24.5(27) . . .
28.4(29) . . .
32.1(29) . . .
27.5(28) . . .
29.2(28) . . .
29.4(30) . . .
38.0(34) . . .
26.1(27) . . .
20.3(23) . . .
30.9(30) . . .
24.4(26) . . .
25.8(26) . . .
30.0(29) . . .
26.9(26) . . .
29.6(29) . . .
23.4(25) . . .
28.2(29) . . .
24.9(27) . . .
26.5(27) . . .
32.7(31) . . .
35.4(33) . . .
33.0(32) . . .
23.4(25) . . .
31.5(29) . . .
30.5(30) . . .
25.8(28) . . .
18.8(23) . . .
26.4(27) . . .
30.2(30) . . .
32.4(32) . . .
29.8(30) . . .
35.8(32) . . .
30.6(29) . . .
29.4(28) . . .
34.0(33) . . .
30.7(30) . . .
28.6(29) . . .
28.8(29) . . .
31.7(29) . . .
29.7(29) . . .
31.6(29) . . .
29.7(29) . . .
25.0(26) . . .
29.2(30) . . .
28.2(30) . . .
34.2(32) . . .
27.5(28) . . .
25.1(26) . . .
25.5(28) . . .
28.6(31) . . .
29.7(29) . . .
29.8(29) . . .
20.4(23) . . .
24.9(27) . . .
35.6(35) . . .
28.5(28) . . .
37.9(33) . . .
29.1(28) . . .
34.9(34) . . .
30.3(32) . . .
36.6(33) . . .
27.1(27) . . .
25.1(26) . . .
28.9(30) . . .
26.4(28) . . .
34.6(33) . . .
25.4(26) . . .
30.8(29) . . .
36.2(32) . . .
36.0(33) . . .
31.5(29) . . .
28.4(28) . . .
30.5(30) . . .
24.6(26) . . .
22.6(26) . . .
31.7(31) . . .
26.0(27) . . .
25.0(28) . . .
28.7(29) . . .
28.6(28) . . .
28.4(28) . . .
32.5(30) . . .
31.4(29) . . .
32.0(30) . . .
24.9(27) . . .
25.1(28) . . .
28.9(27) . . .
26.3(27) . . .
22.8(26) . . .
28.6(31) . . .
33.1(31) . . .
31.4(29) . . .
33.8(34) . . .
26.7(28) . . .
33.1(32) . . .
29.0(28) . . .
25.5(27) . . .
30.1(31) . . .
25.8(28) . . .
29.0(28) . . .
29.4(28) . . .
30.8(29) . . .
25.0(26) . . .
29.7(32) . . .
24.4(27) . . .
31.1(29) . . .
27.5(28) . . .
25.1(26) . . .
30.0(31) . . .
33.5(33) . . .
35.2(31) . . .
25.2(26) . . .
27.0(29) . . .
22.5(26) . . .
29.0(28) . . .
28.6(28) . . .
24.8(26) . . .
38(4) . . .
24.1(27) . . .
28.8(30) . . .
30.6(29) . . .
34.4(31) . . .
32.0(30) . . .
31.6(32) . . .
29.5(30) . . .
24.9(27) . . .
23.7(26) . . .
28.5(28) . . .
27.3(28) . . .
19.5(23) . . .
24.0(25) . . .
28.6(29) . . .
31.2(31) . . .
26.6(28) . . .
31.7(30) . . .
24.5(26) . . .
26.6(27) . . .
38.6(34) . . .
25.2(27) . . .
28.7(30) . . .
26.7(27) . . .
23.3(29) . . .
27.5(29) . . .
30.0(29) . . .
26.1(26) . . .
23.4(25) . . .
20.8(25) . . .
30.3(31) . . .
32.5(30) . . .
31.3(30) . . .
29.4(28) . . .
27.2(27) . . .
34.1(33) . . .
36.0(33) . . .
27.1(28) . . .
27.6(28) . . .
27.4(27) . . .
31.4(31) . . .
37.8(33) . . .
25.3(26) . . .
21.4(25) . . .
35.3(32) . . .
30.5(33) . . .
33.4(32) . . .
32.5(30) . . .
38.3(32) . . .
31.8(31) . . .
26.2(29) . . .
29.0(31) . . .
39.6(32) . . .
22.9(26) . . .
28.4(29) . . .
23.4(27) . . .
22.7(27) . . .
23.1(25) . . .
33.0(30) . . .
36.7(33) . . .
32.2(31) . . .
25.4(27) . . .
24.4(26) . . .
25.0(27) . . .
33.4(32) . . .
26.7(29) . . .
26.7(28) . . .
29.9(29) . . .
26.7(27) . . .
28.5(31) . . .
25.9(29) . . .
26.1(27) . . .
29.4(29) . . .
30.9(32) . . .
24.3(27) . . .
25.0(27) . . .
22.9(26) . . .
33.7(30) . . .
29.9(30) . . .
24.9(28) . . .
34.2(33) . . .
20.8(24) . . .
24.7(26) . . .
33.5(32) . . .
29.0(29) . . .
36.3(31) . . .
24.7(26) . . .
27.4(27) . . .
29.9(29) . . .
39(4) . . .
28.4(30) . . .
28.2(28) . . .
20.8(23) . . .
31.6(30) . . .
32.3(30) . . .
29.0(28) . . .
25.3(27) . . .
28.3(27) . . .
25.7(27) . . .
27.1(30) . . .
22.5(25) . . .
27.1(27) . . .
24.3(25) . . .
32.0(31) . . .
29.5(31) . . .
27.0(28) . . .
31.0(29) . . .
26.9(28) . . .
28.3(28) . . .
30.7(31) . . .
25.1(26) . . .
37.1(32) . . .
21.4(24) . . .
29.6(29) . . .
33.4(30) . . .
27.9(27) . . .
28.8(28) . . .
31.0(30) . . .
19.0(24) . . .
33.4(31) . . .
42.1(34) . . .
18.9(24) . . .
31.5(31) . . .
23.4(26) . . .
25.6(28) . . .
33.1(31) . . .
29.4(28) . . .
32.0(32) . . .
27.7(28) . . .
39.2(34) . . .
29.8(28) . . .
34.5(31) . . .
30.3(29) . . .
28.4(29) . . .
32.0(30) . . .
29.3(28) . . .
25.3(26) . . .
24.3(27) . . .
33.3(32) . . .
26.0(27) . . .
30.1(29) . . .
26.7(27) . . .
20.6(24) . . .
24.5(29) . . .
29.0(29) . . .
31.4(29) . . .
29.8(29) . . .
29.9(30) . . .
25.0(31) . . .
27.7(29) . . .
22.8(26) . . .
34.4(32) . . .
33.5(32) . . .
26.5(28) . . .
20.5(24) . . .
34.6(31) . . .
27.0(28) . . .
22.6(27) . . .
25.1(28) . . .
26.8(28) . . .
28.5(28) . . .
25.8(26) . . .
29.4(30) . . .
31.7(31) . . .
35.0(32) . . .
29.6(29) . . .
25.5(26) . . .
22.9(25) . . .
27.3(28) . . .
33.2(30) . . .
24.4(26) . . .
35.8(31) . . .
30.5(28) . . .
25.3(26) . . .
27.5(27) . . .
30.5(30) . . .
30.5(29) . . .
31.0(32) . . .
26.0(27) . . .
25.0(26) . . .
33.7(31) . . .
26.5(28) . . .
22.8(26) . . .
24.9(27) . . .
31.3(30) . . .
25.6(27) . . .
27.1(27) . . .
31.3(31) . . .
33.1(32) . . .
29.4(28) . . .
29.8(29) . . .
37.1(33) . . .
28.7(30) . . .
25.8(27) . . .
38.3(33) . . .
28.7(28) . . .
27.2(28) . . .
29.5(31) . . .
30.1(31) . . .
32.6(30) . . .
27.6(27) . . .
33.1(31) . . .
26.4(26) . . .
27.0(27) . . .
32.0(30) . . .
32.5(30) . . .
35.7(33) . . .
30.2(30) . . .
24.4(26) . . .
30.2(29) . . .
26.5(27) . . .
24.8(25) . . .
32.1(32) . . .
28.8(29) . . .
26.7(27) . . .
28.5(29) . . .
29.5(28) . . .
33.6(32) . . .
31.5(30) . . .
33.2(31) . . .
27.6(29) . . .
28.7(31) . . .
22.4(25) . . .
29.8(29) . . .
37.1(31) . . .
28.0(28) . . .
25.5(29) . . .
26.4(30) . . .
25.1(26) . . .
28.2(27) . . .
29.5(30) . . .
26.0(29) . . .
35.4(33) . . .
30.2(28) . . .
25.1(25) . . .
26.6(30) . . .
18.5(24) . . .
14.9(20) . . .
22.8(25) . . .
28.6(29) . . .
31.6(30) . . .
28.9(31) . . .
26.5(28) . . .
32.7(29) . . .
27.8(28) . . .
28.1(28) . . .
26.0(27) . . .
29.1(30) . . .
27.1(27) . . .
27.1(27) . . .
31.5(32) . . .
33.1(34) . . .
25.8(28) . . .
27.2(28) . . .
25.6(26) . . .
22.6(25) . . .
28.6(30) . . .
23.8(26) . . .
25.4(26) . . .
30.5(29) . . .
27.1(27) . . .
22.4(24) . . .
32.5(32) . . .
35.8(32) . . .
30.1(29) . . .
34.4(32) . . .
27.3(29) . . .
27.8(31) . . .
23.9(25) . . .
26.4(28) . . .
30.1(31) . . .
26.1(27) . . .
23.9(28) . . .
28.1(28) . . .
35.0(34) . . .
22.7(24) . . .
31.7(31) . . .
28.2(29) . . .
35.3(31) . . .
27.0(27) . . .
29.6(30) . . .
22.9(25) . . .
25.0(26) . . .
27.0(27) . . .
22.8(26) . . .
29.2(31) . . .
28.4(29) . . .
22.7(26) . . .
22.6(25) . . .
21.7(24) . . .
21.3(25) . . .
23.5(27) . . .
25.7(26) . . .
27.4(27) . . .
24.9(27) . . .
24.0(30) . . .
27.9(29) . . .
25.8(27) . . .
25.8(26) . . .
32.5(31) . . .
35(4) . . .
23.7(25) . . .
28.3(28) . . .
33.3(30) . . .
33.7(31) . . .
30.8(30) . . .
29.2(29) . . .
32.5(30) . . .
26.7(27) . . .
25.1(28) . . .
21.3(24) . . .
31.6(31) . . .
25.2(26) . . .
24.6(27) . . .
31.5(31) . . .
31.4(30) . . .
31.4(29) . . .
30.2(29) . . .
36.3(34) . . .
28.5(29) . . .
26.4(27) . . .
34.3(31) . . .
27.7(27) . . .
30.4(30) . . .
31.6(29) . . .
31.6(31) . . .
25.6(29) . . .
24.3(26) . . .
33.6(31) . . .
32.8(32) . . .
27.3(28) . . .
23.5(26) . . .
26.9(27) . . .
26.7(29) . . .
30.9(31) . . .
25.9(26) . . .
31.5(30) . . .
29.7(29) . . .
32.5(31) . . .
31.6(30) . . .
31.9(30) . . .
26.8(27) . . .
31.2(29) . . .
29.8(28) . . .
33.6(33) . . .
26.9(27) . . .
37.4(32) . . .
33.2(30) . . .
30.0(30) . . .
26.3(29) . . .
27.0(30) . . .
37.6(33) . . .
32.6(30) . . .
23.8(27) . . .
31(4) . . .
29.6(30) . . .
19.5(24) . . .
24.3(26) . . .
32.7(31) . . .
29.3(30) . . .
34.7(35) . . .
28.8(28) . . .
32.3(30) . . .
29.5(27) . . .
32.5(32) . . .
29.7(30) . . .
26.9(27) . . .
26.0(27) . . .
24.1(29) . . .
27.8(31) . . .
22.3(25) . . .
28.8(27) . . .
30.3(31) . . .
29.8(30) . . .
25.8(28) . . .
33.7(32) . . .
33.0(30) . . .
29.3(30) . . .
31.2(32) . . .
26.8(28) . . .
29.6(28) . . .
41.8(33) . . .
25.3(26) . . .
35.3(34) . . .
28.0(28) . . .
31.8(30) . . .
33.8(30) . . .
32.5(31) . . .
23.6(28) . . .
26.5(30) . . .
24.7(26) . . .
23.2(25) . . .
28.0(29) . . .
25.0(28) . . .
32.7(31) . . .
32.8(30) . . .
22.8(25) . . .
30.0(30) . . .
34.0(32) . . .
37.0(33) . . .
19.6(24) . . .
32.2(30) . . .
30.9(30) . . .
29.8(29) . . .
34.0(31) . . .
25.4(27) . . .
27.4(27) . . .
29.5(31) . . .
28.6(32) . . .
20.6(27) . . .
25.0(26) . . .
27.0(28) . . .
29.2(30) . . .
26.5(29) . . .
23.5(26) . . .
28.3(27) . . .
37.4(33) . . .
28.3(29) . . .
30.9(31) . . .
33.3(30) . . .
32.7(29) . . .
30.1(31) . . .
28.0(30) . . .
26.8(27) . . .
26.3(27) . . .
26.6(27) . . .
25.9(28) . . .
32.8(30) . . .
32.2(32) . . .
24.7(27) . . .
18.5(23) . . .
25.3(27) . . .
26.6(29) . . .
23.0(25) . . .
21.5(24) . . .
31.2(29) . . .
36.9(33) . . .
32.9(33) . . .
33.8(33) . . .
24.5(25) . . .
34.2(31) . . .
29.6(30) . . .
32.9(33) . . .
32.5(31) . . .
22.3(24) . . .
21.7(25) . . .
30.6(30) . . .
37.8(34) . . .
27.0(27) . . .
25.1(26) . . .
30.0(29) . . .
24.4(26) . . .
31.0(31) . . .
35(4) . . .
26.7(28) . . .
24.8(26) . . .
27.5(29) . . .
30.1(31) . . .
23.4(25) . . .
31.2(29) . . .
27.7(27) . . .
33.4(31) . . .
39.0(34) . . .
29.8(28) . . .
28.9(28) . . .
29.7(30) . . .
36.3(34) . . .
36.3(33) . . .
33.4(31) . . .
29.5(29) . . .
24.8(26) . . .
26.6(28) . . .
30.0(30) . . .
30.7(29) . . .
34.6(31) . . .
25.1(27) . . .
32.9(31) . . .
32.2(30) . . .
23.4(26) . . .
28.9(28) . . .
24.3(27) . . .
27.4(30) . . .
30.5(30) . . .
26.5(28) . . .
26.8(27) . . .
34.0(33) . . .
26.7(28) . . .
31.0(31) . . .
29.5(29) . . .
23.2(26) . . .
27.2(27) . . .
28.7(29) . . .
35.4(32) . . .
31.5(29) . . .
30.8(28) . . .
34.3(32) . . .
36(4) . . .
31.8(29) . . .
32.1(31) . . .
23.9(25) . . .
24.6(26) . . .
28.2(30) . . .
26.0(27) . . .
30.6(30) . . .
31.4(30) . . .
33.8(32) . . .
22.3(25) . . .
29.6(29) . . .
32.2(29) . . .
38(4) . . .
29.2(29) . . .
30.8(31) . . .
31.7(32) . . .
32.4(29) . . .
33.0(30) . . .
30.8(29) . . .
27.9(30) . . .
31.1(31) . . .
30.8(29) . . .
40.4(34) . . .
24.6(27) . . .
24.1(26) . . .
38.0(34) . . .
24.9(26) . . .
23.5(25) . . .
22.8(25) . . .
27.4(27) . . .
22.5(25) . . .
25.6(26) . . .
31.2(30) . . .
28.0(32) . . .
23.9(28) . . .
28.1(29) . . .
35.0(31) . . .
24.3(26) . . .
29.2(31) . . .
30.9(30) . . .
24.6(26) . . .
26.9(27) . . .
27.2(28) . . .
28.3(30) . . .
28.0(28) . . .
30.5(29) . . .
28.1(28) . . .
31.6(32) . . .
31.4(31) . . .
37.2(34) . . .
20.1(23) . . .
23.6(25) . . .
27.7(30) . . .
31.5(31) . . .
33.5(32) . . .
24.8(26) . . .
30.9(29) . . .
23.4(26) . . .
19.2(23) . . .
23.0(25) . . .
24.9(26) . . .
21.9(24) . . .
26.6(28) . . .
32.4(31) . . .
34.0(32) . . .
31.7(29) . . .
29.5(28) . . .
35.7(31) . . .
29.9(29) . . .
28.2(29) . . .
35.0(31) . . .
23.2(25) . . .
25.3(28) . . .
22.8(26) . . .
34.6(33) . . .
36.0(32) . . .
32.5(30) . . .
30.0(29) . . .
28.1(27) . . .
32.8(30) . . .
26.4(27) . . .
22.9(28) . . .
28.0(29) . . .
26.5(29) . . .
31.2(30) . . .
31.1(29) . . .
24.2(25) . . .
31.3(30) . . .
36.4(33) . . .
24.1(25) . . .
26.5(28) . . .
20.6(24) . . .
35.1(35) . . .
29.6(33) . . .
27.5(29) . . .
26.7(26) . . .
31.1(31) . . .
22.9(25) . . .
30.5(30) . . .
28.1(29) . . .
25.1(26) . . .
33.1(33) . . .
27.3(31) . . .
30.5(30) . . .
25.4(26) . . .
30.5(28) . . .
27.0(28) . . .
26.3(28) . . .
29.5(29) . . .
30.1(28) . . .
32.6(30) . . .
29.6(31) . . .
23.7(26) . . .
29.5(28) . . .
25.3(26) . . .
32.8(31) . . .
21.0(23) . . .
40(4) . . .
31.1(29) . . .
26.5(26) . . .
29.1(28) . . .
28.1(29) . . .
28.7(29) . . .
29.8(28) . . .
28.8(28) . . .
31.4(30) . . .
30.4(30) . . .
27.5(29) . . .
25.9(27) . . .
30.8(29) . . .
30.1(31) . . .
24.3(27) . . .
29.3(31) . . .
27.8(28) . . .
26.6(27) . . .
28.9(30) . . .
21.3(24) . . .
28.1(28) . . .
25.8(27) . . .
22.1(25) . . .
28.1(29) . . .
20.0(25) . . .
22.7(26) . . .
21.5(24) . . .
30.0(29) . . .
38.8(34) . . .
29.6(30) . . .
28.3(29) . . .
29.3(28) . . .
31.0(30) . . .
29.8(34) . . .
24.6(26) . . .
34.1(32) . . .
28.2(28) . . .
42.0(35) . . .
28.5(29) . . .
28.5(30) . . .
32.4(31) . . .
28.2(27) . . .
32.8(31) . . .
21.7(26) . . .
18.5(23) . . .
36.7(35) . . .
27.8(27) . . .
30.2(29) . . .
25.0(27) . . .
26.6(28) . . .
23.2(25) . . .
31.5(30) . . .
35.2(31) . . .
22.0(26) . . .
27.7(30) . . .
26.5(30) . . .
28.7(28) . . .
31.0(31) . . .
28.0(30) . . .
25.7(28) . . .
30.0(30) . . .
36.7(31) . . .
22.9(25) . . .
34.5(32) . . .
22.4(25) . . .
25.4(28) . . .
26.8(27) . . .
40(4) . . .
24.7(27) . . .
26.2(27) . . .
31.1(29) . . .
25.9(26) . . .
30.1(29) . . .
33.2(31) . . .
29.6(29) . . .
32.4(29) . . .
25.8(27) . . .
27.1(29) . . .
24.0(27) . . .
21.3(25) . . .
22.1(26) . . .
30.0(28) . . .
25.4(27) . . .
loop_
_refln_index_h
_refln_index_k
_refln_index_l
_refln_observed_status
_refln_F_squared_meas
_refln_F_squared_calc
_refln_phase_calc
_refln_d_spacing
_gsas_i100_meas
0 0 10 o 5859.618 6732.764 180.00 1.32021 0.18
0 2 10 o 12.839 13.575 180.00 1.30342 0.00
-1 1 10 o 48.488 43.712 180.00 1.29034 0.00
1 1 10 o 556.657 500.548 0.00 1.29025 0.03
0 1 9 o 1500.949 1346.462 0.00 1.46106 0.11
1 3 10 o 444.169 352.655 180.00 1.25934 0.03
1 0 9 o 1413.932 1032.001 180.00 1.43161 0.10
0 0 8 o 288.132 353.166 180.00 1.65026 0.01
2 0 10 o 2057.417 1989.993 0.00 1.22490 0.11
2 2 10 o 265.915 436.079 180.00 1.21129 0.01
-1 3 10 o 157.091 124.204 0.00 1.25961 0.01
-1 2 9 o 1.925 1.737 180.00 1.41040 0.00
1 2 9 o 479.769 433.328 180.00 1.41015 0.03
-1 1 8 o 816.122 854.335 0.00 1.59301 0.07
1 1 8 o 1255.351 1315.198 0.00 1.59283 0.11
-2 2 10 o 1052.765 1699.653 180.00 1.21161 0.06
0 4 10 o 35.403 29.518 180.00 1.25664 0.00
0 3 9 o 135.241 121.779 0.00 1.41676 0.01
0 2 8 o 911.862 868.013 180.00 1.61781 0.08
2 1 9 o 570.734 622.409 180.00 1.33476 0.04
0 1 7 o 1363.217 1127.105 0.00 1.87366 0.17
1 0 7 o 979.364 1018.030 0.00 1.81273 0.11
-2 1 9 o 2004.209 2173.056 180.00 1.33497 0.13
0 0 6 o 3391.082 2884.067 0.00 2.20035 0.29
2 3 9 o 147.837 151.138 0.00 1.30053 0.01
1 4 9 o 49.377 47.184 0.00 1.35134 0.00
1 3 8 o 32.230 35.338 0.00 1.53575 0.00
1 2 7 o 2712.082 2804.273 180.00 1.76973 0.30
2 0 8 o 596.499 564.899 180.00 1.47449 0.05
-1 3 8 o 133.810 146.736 0.00 1.53624 0.01
-1 2 7 o 450.274 464.675 180.00 1.77023 0.05
1 1 6 o 1997.395 2100.850 180.00 2.06945 0.30
2 2 8 o 203.709 162.028 0.00 1.45093 0.02
0 1 5 o 1954.740 1673.366 180.00 2.60683 0.46
0 2 6 o 664.370 613.494 180.00 2.12514 0.10
0 3 7 o 1184.611 1383.511 0.00 1.78285 0.13
-2 3 9 o 2737.057 2829.570 0.00 1.30112 0.17
-1 4 9 o 1.033 0.990 180.00 1.35178 0.00
-1 1 6 o 394.005 415.706 180.00 2.06985 0.06
-2 2 8 o 3515.298 2828.275 0.00 1.45149 0.26
0 0 4 o 208.438 151.798 180.00 3.30052 0.04
3 0 9 o 1790.269 2027.898 0.00 1.21857 0.10
2 1 7 o 22.407 22.950 0.00 1.62714 0.00
1 0 5 o 1389.758 830.232 180.00 2.44980 0.29
0 4 8 o 85.519 95.467 180.00 1.53086 0.01
0 5 9 o 2.736 2.698 0.00 1.33904 0.00
-2 1 7 o 624.649 642.052 0.00 1.62753 0.06
-1 12 1 o 0.082 0.101 180.00 1.33159 0.00
1 3 6 o 3245.148 2608.970 0.00 1.94866 0.43
0 12 0 o 4452.791 4506.827 0.00 1.36642 0.15
3 1 8 o 1004.969 1171.570 180.00 1.31334 0.06
-2 12 0 o 545.733 395.840 180.00 1.26262 0.02
0 13 1 o 3995.358 3429.171 0.00 1.25559 0.23
2 0 6 o 9.353 9.406 180.00 1.82786 0.00
1 2 5 o 1711.173 1453.572 0.00 2.34666 0.33
1 4 7 o 23.701 30.853 180.00 1.65745 0.00
0 1 3 o 27.654 17.756 180.00 4.25028 0.02
2 5 9 o 2683.083 2343.944 180.00 1.23947 0.15
2 4 8 o 1494.872 1438.208 180.00 1.38698 0.10
0 0 2 o 0.000 311.851 180.00 6.60104 0.00
2 3 7 o 1662.417 1808.321 180.00 1.56626 0.14
1 1 4 o 428.327 201.364 0.00 2.90187 0.13
0 2 4 o 1915.271 1027.596 0.00 3.06173 0.62
-3 1 8 o 871.102 1013.990 180.00 1.31364 0.05
-1 13 2 o 4.154 4.800 180.00 1.21795 0.00
-1 2 5 o 52.372 44.598 0.00 2.34783 0.01
-2 10 0 o 5.059 4.903 0.00 1.46837 0.00
-2 11 1 o 181.631 171.879 0.00 1.35141 0.01
-1 10 1 o 462.839 508.288 180.00 1.58032 0.04
-1 1 4 o 114.125 54.868 0.00 2.90297 0.03
0 10 0 o 10779.740 11252.940 180.00 1.63970 0.51
2 2 6 o 1162.354 1383.434 180.00 1.78354 0.13
0 8 0 o 266.320 259.093 0.00 2.04963 0.02
1 5 8 o 67.679 45.104 180.00 1.43800 0.00
-1 3 6 o 187.089 150.417 0.00 1.94966 0.02
3 3 8 o 474.685 308.834 180.00 1.28060 0.03
0 11 1 o 7101.500 6360.341 180.00 1.48123 0.55
1 6 9 o 153.445 90.487 180.00 1.26787 0.01
0 6 0 o 2296.999 2086.591 0.00 2.73283 0.30
-1 4 7 o 463.502 601.688 180.00 1.65827 0.04
0 9 1 o 4087.677 4516.036 0.00 1.80479 0.47
1 0 3 o 824.782 234.107 180.00 3.65571 0.38
-2 3 7 o 3340.528 3602.955 180.00 1.56730 0.29
0 3 5 o 197.004 193.029 0.00 2.37752 0.04
0 12 2 o 4301.838 4270.049 180.00 1.33805 0.27
2 1 5 o 921.524 896.653 180.00 2.04122 0.13
-2 4 8 o 3910.416 3768.355 180.00 1.38795 0.27
0 4 0 o 2959.939 1268.054 0.00 4.09925 0.86
-2 12 2 o 1129.533 976.722 0.00 1.24014 0.06
-1 8 1 o 620.017 469.417 180.00 1.93671 0.08
3 0 7 o 580.214 418.602 180.00 1.42880 0.04
-1 11 2 o 283.377 260.510 180.00 1.42035 0.02
-2 8 0 o 15.249 16.539 0.00 1.74057 0.00
0 2 0 o 1174.145 1467.129 180.00 8.19850 1.36
3 2 7 o 18.137 16.742 180.00 1.40721 0.00
-2 9 1 o 13.780 15.263 180.00 1.58321 0.00
-2 2 6 o 960.661 1168.775 180.00 1.78457 0.11
-1 6 1 o 1811.436 1179.343 0.00 2.48028 0.39
0 4 6 o 3160.646 2420.993 180.00 1.93871 0.42
-1 5 8 o 211.934 140.102 180.00 1.43867 0.02
-2 5 9 o 5049.845 4351.973 180.00 1.24032 0.28
1 12 1 o 0.004 0.006 0.00 1.33031 0.00
0 7 1 o 327.803 201.064 0.00 2.30641 0.06
0 10 2 o 1467.428 1534.470 0.00 1.59134 0.13
-1 6 9 o 136.577 78.444 180.00 1.26842 0.01
-2 1 5 o 29.044 27.995 180.00 2.04199 0.00
0 5 7 o 2.437 2.543 0.00 1.63492 0.00
-1 9 2 o 47.771 50.129 0.00 1.69759 0.00
0 5 1 o 136.391 51.823 180.00 3.18268 0.05
-2 10 2 o 600.699 416.930 180.00 1.43334 0.04
-3 3 8 o 7.632 5.147 0.00 1.28145 0.00
-1 12 3 o 189.614 122.041 180.00 1.28050 0.01
-1 4 1 o 1248.115 1108.089 180.00 3.36608 0.49
1 10 1 o 227.055 247.596 180.00 1.57854 0.02
3 5 8 o 392.829 399.085 0.00 1.22209 0.02
1 2 3 o 470.381 417.577 0.00 3.33715 0.18
-3 10 1 o 32.143 37.423 0.00 1.30740 0.00
-2 6 0 o 3543.935 3328.612 180.00 2.10297 0.27
1 1 2 o 3937.948 3465.401 0.00 4.47644 2.73
1 13 2 o 249.171 297.533 180.00 1.21689 0.01
-3 11 2 o 185.192 298.253 0.00 1.21248 0.01
0 13 3 o 430.890 693.579 180.00 1.21249 0.02
-2 7 1 o 889.493 681.950 180.00 1.88943 0.11
3 1 6 o 505.766 562.174 180.00 1.54467 0.04
2 4 6 o 2053.146 2261.597 0.00 1.66858 0.20
1 3 4 o 133.139 126.612 180.00 2.59414 0.03
0 8 2 o 2472.136 1962.914 180.00 1.95744 0.33
0 3 1 o 1136.793 1323.724 180.00 5.05000 1.00
2 0 4 o 3279.632 2551.420 180.00 2.32773 0.62
1 11 2 o 166.371 155.982 180.00 1.41893 0.01
1 8 1 o 924.767 686.756 180.00 1.93409 0.12
0 6 8 o 25.956 23.110 180.00 1.41267 0.00
2 5 7 o 2388.066 2220.322 0.00 1.46281 0.18
2 3 5 o 1633.564 1233.536 0.00 1.92472 0.21
-3 2 7 o 88.240 81.277 0.00 1.40796 0.01
-1 7 2 o 3034.775 3186.007 0.00 2.09393 0.47
-1 1 2 o 4838.970 4380.188 0.00 4.48048 3.36
2 12 0 o 818.164 661.316 180.00 1.26045 0.02
3 4 7 o 316.927 293.579 0.00 1.34853 0.02
-2 8 2 o 66.236 69.209 180.00 1.68304 0.01
-2 11 3 o 1771.533 1757.862 180.00 1.29810 0.11
2 6 8 o 3895.667 3820.226 0.00 1.29707 0.23
2 2 4 o 415.086 269.339 0.00 2.23822 0.07
0 2 2 o 32336.359 33275.406 0.00 5.14160 29.57
0 7 9 o 636.297 530.955 0.00 1.24324 0.04
1 4 5 o 1095.957 1024.479 180.00 2.10205 0.17
1 0 1 o 12112.125 13062.741 0.00 5.87957 14.48
-1 2 3 o 1382.833 1235.190 0.00 3.34050 0.54
0 11 3 o 1084.103 958.888 0.00 1.41184 0.08
1 6 1 o 707.029 463.327 0.00 2.47616 0.15
2 11 1 o 455.528 420.485 0.00 1.34897 0.03
-1 10 3 o 0.366 0.385 0.00 1.49685 0.00
3 3 6 o 0.505 0.498 0.00 1.49215 0.00
-3 1 6 o 64.440 71.629 180.00 1.54517 0.01
1 2 1 o 1346.080 1409.429 0.00 4.77301 1.06
2 1 3 o 1466.945 1400.015 0.00 2.59757 0.34
-1 3 4 o 589.565 564.779 0.00 2.59650 0.14
2 10 0 o 249.001 238.408 0.00 1.46553 0.01
1 9 2 o 2.274 2.349 180.00 1.69561 0.00
1 5 6 o 337.942 363.134 0.00 1.75968 0.04
-1 2 1 o 2160.619 2178.718 0.00 4.78284 1.71
1 4 1 o 1102.907 1041.633 180.00 3.35923 0.43
0 6 2 o 448.612 398.229 0.00 2.52500 0.10
-2 5 1 o 18.476 10.225 0.00 2.28796 0.00
0 3 3 o 15052.294 13439.378 0.00 3.42773 6.13
-3 8 1 o 1.959 1.770 0.00 1.48839 0.00
-1 5 2 o 3704.266 3300.782 180.00 2.68319 0.93
-2 4 0 o 3544.727 3338.183 180.00 2.56571 0.41
3 2 5 o 149.181 206.721 0.00 1.65004 0.01
2 9 1 o 52.212 57.762 180.00 1.58000 0.00
-3 9 2 o 60.377 63.830 180.00 1.37139 0.00
1 12 3 o 40.315 24.192 0.00 1.27936 0.00
3 0 5 o 4240.968 4185.760 180.00 1.68515 0.42
2 12 2 o 1829.587 1634.034 0.00 1.23808 0.10
1 6 7 o 307.462 369.804 0.00 1.51015 0.02
4 1 7 o 166.737 155.846 180.00 1.23459 0.01
2 8 0 o 21.404 24.899 0.00 1.73678 0.00
-1 4 5 o 113.559 105.071 0.00 2.10373 0.02
-2 4 6 o 2590.649 2817.068 0.00 1.67025 0.25
2 6 0 o 3819.587 3684.342 180.00 2.09796 0.29
-2 9 3 o 158.906 161.298 0.00 1.49931 0.01
1 7 2 o 1648.484 1862.577 0.00 2.09104 0.25
-2 6 2 o 653.367 750.538 180.00 2.00375 0.09
-2 3 5 o 851.652 635.556 0.00 1.92665 0.11
-2 2 4 o 145.208 96.308 180.00 2.24024 0.03
-1 5 6 o 1977.233 2158.271 0.00 1.76091 0.22
-2 1 3 o 1621.510 1543.613 0.00 2.59915 0.38
2 7 1 o 1223.865 1019.617 180.00 1.88519 0.15
0 9 3 o 108.042 111.843 180.00 1.68333 0.01
-2 5 7 o 3788.052 3588.388 0.00 1.46423 0.29
2 4 0 o 1424.895 1239.702 180.00 2.55964 0.16
1 7 8 o 305.491 359.342 0.00 1.32112 0.02
1 3 2 o 3888.821 3645.117 0.00 3.54109 1.69
-1 8 3 o 353.316 516.384 0.00 1.78884 0.04
-4 1 7 o 556.238 519.837 180.00 1.23493 0.03
2 2 0 o 24.046 9.552 0.00 3.04548 0.00
0 4 4 o 13070.412 12681.308 0.00 2.57080 3.01
2 5 1 o 163.545 87.709 0.00 2.28258 0.03
-3 10 3 o 445.101 381.663 180.00 1.25895 0.03
2 3 3 o 546.218 581.887 180.00 2.36929 0.11
2 10 2 o 313.543 222.189 180.00 1.43069 0.02
-2 6 8 o 4732.798 4705.141 0.00 1.29825 0.29
2 2 2 o 3339.826 2811.911 180.00 2.76535 0.89
2 4 4 o 2193.058 2293.439 180.00 2.02266 0.31
2 3 1 o 441.174 415.711 0.00 2.74989 0.12
0 4 2 o 44.440 33.608 0.00 3.48240 0.02
2 0 2 o 670.320 305.416 0.00 2.93979 0.20
-1 6 7 o 830.584 1068.356 0.00 1.51108 0.07
-1 3 2 o 5450.848 5235.003 0.00 3.54711 2.38
1 5 2 o 3097.702 2910.805 180.00 2.67884 0.77
3 5 6 o 260.172 246.625 180.00 1.40177 0.02
1 10 3 o 2.420 2.603 180.00 1.49535 0.00
-3 3 6 o 21.552 22.146 0.00 1.49349 0.00
-3 4 7 o 173.681 158.477 0.00 1.34986 0.01
-3 6 1 o 3222.839 3357.859 180.00 1.69630 0.33
3 6 7 o 629.069 397.943 180.00 1.26537 0.04
3 1 4 o 2876.037 2936.842 0.00 1.81261 0.33
0 12 4 o 35.340 26.125 180.00 1.26250 0.00
-3 5 8 o 219.293 214.571 0.00 1.22333 0.01
2 1 1 o 1363.824 1019.112 180.00 3.12643 0.46
4 2 6 o 83.264 83.341 0.00 1.29879 0.01
2 5 5 o 3660.884 3864.621 180.00 1.74175 0.39
2 8 2 o 214.507 247.027 180.00 1.67962 0.02
2 4 2 o 259.296 280.609 180.00 2.38651 0.05
-4 9 1 o 1617.105 1995.379 0.00 1.21588 0.09
3 3 4 o 100.714 133.229 180.00 1.72932 0.01
-2 3 1 o 1101.047 972.937 0.00 2.75553 0.29
-1 11 4 o 2.544 3.536 180.00 1.33092 0.00
0 5 5 o 23711.215 24010.900 0.00 2.05664 3.51
3 4 5 o 0.023 0.027 0.00 1.55757 0.00
-3 7 2 o 2774.676 3310.875 180.00 1.55613 0.24
1 4 3 o 5794.650 5615.742 0.00 2.72654 1.50
-3 2 5 o 263.187 396.033 0.00 1.65125 0.03
4 0 6 o 1000.150 1127.374 180.00 1.31581 0.06
-2 7 3 o 2033.628 1964.620 180.00 1.75138 0.22
2 6 2 o 400.214 407.851 180.00 1.99941 0.06
0 7 3 o 6114.477 6264.688 0.00 2.06775 0.91
3 10 1 o 111.910 125.828 0.00 1.30439 0.01
-2 10 4 o 1429.699 1337.172 0.00 1.34159 0.09
2 6 6 o 2956.237 3927.110 180.00 1.51839 0.24
2 11 3 o 1502.474 1453.192 180.00 1.29594 0.09
-2 2 0 o 78.556 43.611 0.00 3.05058 0.01
4 4 6 o 0.088 0.075 180.00 1.25214 0.00
-2 4 2 o 803.977 878.039 180.00 2.39142 0.16
3 11 2 o 272.221 739.721 0.00 1.20984 0.01
-4 8 0 o 3863.178 2791.510 0.00 1.28286 0.11
-1 7 8 o 711.853 845.628 0.00 1.32185 0.04
-3 1 4 o 6131.646 6195.188 0.00 1.81342 0.71
3 8 1 o 1.580 1.377 180.00 1.48484 0.00
-1 6 3 o 5698.121 5288.508 180.00 2.19026 0.95
1 8 3 o 27.908 36.521 0.00 1.78678 0.00
3 2 3 o 3941.583 3056.981 180.00 1.90522 0.50
2 0 0 o 2562.599 2338.056 180.00 3.28337 0.48
2 7 7 o 6567.873 6212.561 180.00 1.34017 0.42
0 6 6 o 6925.301 7454.715 0.00 1.71387 0.72
-3 8 3 o 1923.781 1830.278 180.00 1.41804 0.14
3 9 2 o 224.859 237.912 180.00 1.36827 0.01
1 5 4 o 7405.333 6942.641 0.00 2.19160 1.24
3 6 1 o 1711.201 1695.830 180.00 1.69235 0.17
2 5 3 o 153.735 150.476 0.00 2.05053 0.02
-4 3 7 o 108.065 760.104 0.00 1.20815 0.01
3 4 1 o 347.019 294.651 180.00 1.90867 0.04
4 3 5 o 45.248 40.727 180.00 1.35026 0.00
4 1 5 o 934.541 918.292 0.00 1.38892 0.06
-1 4 3 o 6443.883 6455.068 0.00 2.73020 1.67
0 7 7 o 5591.939 5665.714 0.00 1.46903 0.43
3 4 3 o 443.924 460.833 180.00 1.76667 0.05
0 10 4 o 37.777 38.017 180.00 1.46847 0.00
3 3 2 o 434.461 336.800 0.00 1.94060 0.06
3 7 2 o 1270.363 1536.063 180.00 1.55257 0.11
-1 9 4 o 734.845 875.713 0.00 1.55071 0.06
3 5 2 o 559.958 533.812 0.00 1.75326 0.06
-2 2 2 o 2439.907 2159.588 180.00 2.76917 0.65
3 5 4 o 594.253 592.648 180.00 1.59279 0.05
2 9 3 o 45.235 50.103 180.00 1.49658 0.00
-2 3 3 o 150.562 191.936 0.00 2.37289 0.03
3 2 1 o 20.628 28.318 0.00 2.08698 0.00
3 0 3 o 3854.917 3186.595 0.00 1.95986 0.52
-2 1 1 o 829.328 710.260 180.00 3.12918 0.28
3 1 2 o 2729.477 2781.107 180.00 2.06059 0.41
1 6 3 o 5432.991 5062.963 180.00 2.18742 0.91
-2 5 3 o 22.610 23.453 0.00 2.05442 0.00
2 7 3 o 1383.919 1382.213 180.00 1.74800 0.15
-4 7 1 o 3993.328 3795.117 180.00 1.33898 0.26
-2 4 4 o 321.727 343.881 180.00 2.02565 0.05
-4 2 6 o 593.146 600.572 0.00 1.29958 0.04
-4 8 2 o 3133.481 2732.134 180.00 1.25930 0.18
1 11 4 o 121.808 183.891 180.00 1.32976 0.01
1 6 5 o 545.781 595.440 0.00 1.82333 0.06
0 8 8 o 1335.998 1104.466 0.00 1.28540 0.08
4 5 5 o 2001.669 1396.084 0.00 1.28209 0.12
4 9 1 o 1038.855 1636.748 0.00 1.21297 0.05
-3 5 2 o 101.904 105.723 0.00 1.75691 0.01
3 6 5 o 15.756 10.962 180.00 1.43318 0.00
4 8 0 o 2256.987 1372.856 0.00 1.27982 0.07
-3 4 1 o 2543.109 2348.780 180.00 1.91244 0.33
0 5 3 o 451.903 385.075 180.00 2.62957 0.11
3 6 3 o 487.838 519.675 0.00 1.59100 0.04
3 8 3 o 433.265 400.568 180.00 1.41497 0.03
-2 8 4 o 3037.052 3444.682 180.00 1.53960 0.25
4 7 1 o 1837.992 1844.551 180.00 1.33596 0.12
2 6 4 o 959.878 919.663 0.00 1.77054 0.11
4 2 4 o 1119.310 762.043 180.00 1.44628 0.08
4 6 0 o 3345.506 3145.792 180.00 1.40578 0.12
3 7 6 o 65.345 65.263 0.00 1.29266 0.00
3 10 3 o 1038.680 944.644 180.00 1.25626 0.06
-3 9 4 o 786.509 809.615 180.00 1.29039 0.05
-1 5 4 o 7632.639 7238.219 0.00 2.19398 1.28
-2 5 5 o 1732.913 1743.063 180.00 1.74414 0.19
-4 1 5 o 1384.933 1351.609 0.00 1.38941 0.10
-3 6 3 o 176.237 167.163 0.00 1.59428 0.02
-2 11 5 o 13.430 185.747 180.00 1.20802 0.00
4 4 4 o 1963.807 1835.824 0.00 1.38268 0.13
4 5 1 o 3325.430 2889.198 0.00 1.45762 0.25
4 6 2 o 1338.411 1395.128 0.00 1.37495 0.09
-4 6 0 o 5767.973 5358.801 180.00 1.40879 0.20
4 4 2 o 1640.981 1417.899 180.00 1.48377 0.13
4 4 0 o 1985.034 2691.565 0.00 1.52274 0.08
4 3 3 o 4512.165 3941.624 0.00 1.47975 0.35
-2 6 6 o 1884.300 2504.178 180.00 1.52028 0.15
4 8 2 o 1815.811 1657.238 180.00 1.25643 0.10
3 7 4 o 6.904 4.315 0.00 1.43784 0.00
-3 4 5 o 88.586 103.402 180.00 1.55962 0.01
-1 7 4 o 925.306 969.430 180.00 1.83518 0.11
1 7 6 o 162.347 194.365 0.00 1.55737 0.01
-3 3 4 o 408.577 580.537 180.00 1.73142 0.04
4 0 4 o 957.980 989.740 0.00 1.46989 0.07
4 5 3 o 429.225 389.340 180.00 1.39136 0.03
1 9 4 o 1.213 1.417 0.00 1.54920 0.00
-3 2 3 o 8977.500 7525.594 180.00 1.90709 1.14
3 0 1 o 3090.573 2688.874 180.00 2.15944 0.50
2 10 4 o 350.771 330.540 0.00 1.33942 0.02
-3 6 7 o 687.709 402.274 180.00 1.26701 0.04
0 8 4 o 1124.691 1191.444 0.00 1.74120 0.12
-3 5 6 o 343.485 318.291 180.00 1.40364 0.02
4 3 1 o 1077.722 1252.400 180.00 1.56023 0.09
4 6 4 o 255.529 250.768 180.00 1.29335 0.02
-2 6 4 o 790.117 753.190 0.00 1.77355 0.09
2 7 5 o 1161.452 1260.971 0.00 1.54473 0.10
4 7 3 o 1439.237 1131.214 0.00 1.28439 0.08
2 8 4 o 1690.406 1889.341 180.00 1.53697 0.14
4 1 3 o 758.456 778.870 180.00 1.53110 0.06
-2 7 7 o 3907.905 3624.824 180.00 1.34169 0.25
-3 1 2 o 2983.114 3120.241 180.00 2.06178 0.44
-1 6 5 o 1191.355 1328.338 0.00 1.82497 0.14
4 2 2 o 3255.702 3716.942 0.00 1.56321 0.28
0 11 5 o 827.898 822.490 0.00 1.29807 0.05
-1 10 5 o 912.452 893.337 0.00 1.36321 0.06
1 8 7 o 75.886 84.647 0.00 1.35741 0.00
3 9 4 o 11.540 10.927 180.00 1.28779 0.00
1 7 4 o 521.558 543.600 180.00 1.83323 0.06
4 2 0 o 355.326 320.895 180.00 1.60898 0.02
-3 3 2 o 2386.574 2120.201 0.00 1.94357 0.32
-4 6 2 o 1097.865 1069.836 0.00 1.37777 0.07
-3 7 4 o 2.041 1.241 180.00 1.44066 0.00
3 8 5 o 146.379 151.055 180.00 1.30049 0.01
-2 9 5 o 5899.853 5672.674 180.00 1.36506 0.39
2 8 6 o 3290.382 3212.071 0.00 1.36327 0.22
-4 5 1 o 2517.894 2308.539 0.00 1.46042 0.19
-3 4 3 o 213.552 198.418 180.00 1.76966 0.02
-4 7 3 o 558.646 509.206 0.00 1.28707 0.03
-4 4 6 o 127.046 113.952 180.00 1.25356 0.01
-1 7 6 o 1266.547 1499.835 0.00 1.55856 0.11
4 1 1 o 1827.242 1816.884 0.00 1.62077 0.17
-3 2 1 o 16.269 19.754 0.00 2.08945 0.00
-4 3 5 o 136.322 117.598 180.00 1.35159 0.01
-3 5 4 o 454.942 429.425 180.00 1.59553 0.04
5 4 1 o 51.109 41.243 180.00 1.24428 0.00
0 6 4 o 7159.134 6714.958 180.00 2.10493 1.11
-1 8 7 o 1007.755 1108.383 0.00 1.35831 0.07
-4 4 0 o 594.096 868.031 0.00 1.52529 0.02
-4 2 4 o 866.892 598.285 180.00 1.44737 0.06
-2 7 5 o 1515.972 1675.653 0.00 1.54707 0.13
5 3 2 o 1934.636 1730.102 0.00 1.25309 0.11
-3 6 5 o 107.440 62.668 180.00 1.43557 0.01
-4 1 3 o 288.463 274.153 180.00 1.53174 0.02
5 1 4 o 13.459 15.439 0.00 1.21672 0.00
2 9 7 o 18.539 21.549 0.00 1.21628 0.00
-3 8 5 o 131.446 147.294 180.00 1.30288 0.01
2 9 5 o 4508.667 4405.178 180.00 1.36301 0.30
4 0 2 o 164.700 151.961 180.00 1.59316 0.01
1 10 5 o 38.132 37.894 0.00 1.36207 0.00
-1 8 5 o 1110.346 1278.436 180.00 1.57270 0.10
5 2 3 o 515.837 415.015 0.00 1.24350 0.03
1 8 5 o 217.771 246.764 180.00 1.57130 0.02
0 7 5 o 1210.238 1014.715 180.00 1.75227 0.13
0 9 5 o 870.570 846.367 0.00 1.49956 0.07
4 0 0 o 3827.147 4148.802 0.00 1.64169 0.18
-4 4 2 o 1692.688 1418.165 180.00 1.48613 0.13
-4 5 3 o 604.485 515.055 180.00 1.39379 0.04
-3 7 6 o 0.026 0.024 0.00 1.29471 0.00
5 2 1 o 1250.216 1401.863 0.00 1.29012 0.07
-2 8 6 o 3331.844 3119.728 0.00 1.36510 0.22
-2 10 6 o 248.834 247.943 180.00 1.22138 0.01
0 8 6 o 883.268 842.723 180.00 1.49976 0.07
-4 6 4 o 267.296 252.221 180.00 1.29570 0.02
-1 11 6 o 433.433 666.994 0.00 1.21332 0.02
-4 5 5 o 538.683 416.135 0.00 1.28400 0.03
5 1 2 o 712.797 547.495 0.00 1.28391 0.04
-4 3 1 o 430.629 500.599 180.00 1.56229 0.04
-4 4 4 o 761.337 729.910 0.00 1.38459 0.05
2 10 6 o 153.097 184.919 180.00 1.21974 0.01
-5 1 4 o 11.227 12.594 0.00 1.21712 0.00
-4 3 3 o 2457.522 2030.431 0.00 1.48151 0.19
5 0 3 o 9.253 8.659 0.00 1.25850 0.00
-4 2 2 o 1210.796 1400.080 0.00 1.56459 0.10
0 9 7 o 32.380 50.887 0.00 1.31035 0.00
-4 1 1 o 1329.211 1266.375 0.00 1.62154 0.12
1 9 6 o 227.795 248.886 180.00 1.37178 0.02
-2 9 7 o 38.764 43.753 180.00 1.21775 0.00
-1 9 6 o 951.099 1064.353 180.00 1.37283 0.06
1 11 6 o 3.665 6.492 180.00 1.21243 0.00
5 0 1 o 2868.104 3504.611 0.00 1.30690 0.18
0 10 6 o 60.732 67.821 180.00 1.31478 0.00
1 10 7 o 55.955 64.606 180.00 1.21562 0.00
-4 2 0 o 383.765 242.747 180.00 1.61048 0.02
-5 4 1 o 1.615 1.452 0.00 1.24602 0.00
-5 1 2 o 1202.541 960.622 0.00 1.28438 0.07
-5 2 3 o 1085.040 825.260 0.00 1.24436 0.06
-1 10 7 o 483.992 516.913 180.00 1.21643 0.03
-5 3 2 o 560.767 520.039 0.00 1.25442 0.03
-5 2 1 o 552.607 619.108 0.00 1.29109 0.03
