#------------------------------------------------------------------------------
#$Date: 2019-10-29 23:20:11 +0200 (Tue, 29 Oct 2019) $
#$Revision: 220415 $
#$URL: file:///home/coder/svn-repositories/cod/cif/4/00/29/4002991.cif $
#------------------------------------------------------------------------------
#
# This file is available in the Crystallography Open Database (COD),
# http://www.crystallography.net/
#
# All data on this site have been placed in the public domain by the
# contributors.
#
data_4002991
loop_
_publ_author_name
'Zhou, Laidong'
'Assoud, Abdeljalil'
'Shyamsunder, Abhinandan'
'Huq, Ashfia'
'Zhang, Qiang'
'Hartmann, Pascal'
'Kulisch, Joern'
'Nazar, Linda F.'
_publ_section_title
;
 An Entropically Stabilized Fast-Ion Conductor: Li3.25[Si0.25P0.75]S4
;
_journal_issue                   19
_journal_name_full               'Chemistry of Materials'
_journal_page_first              7801
_journal_paper_doi               10.1021/acs.chemmater.9b00657
_journal_volume                  31
_journal_year                    2019
_chemical_formula_moiety         'Li3.28 P0.75 S4 Si0.25'
_chemical_formula_sum            'Li3.28 P0.75 S4 Si0.25'
_chemical_formula_weight         181.24
_space_group_crystal_system      orthorhombic
_space_group_IT_number           62
_space_group_name_Hall           '-P 2ac 2n'
_space_group_name_H-M_alt        'P n m a'
_symmetry_space_group_name_Hall  '-P 2ac 2n'
_symmetry_space_group_name_H-M   'P n m a'
_audit_creation_method           SHELXL-2016
_cell_angle_alpha                90
_cell_angle_beta                 90
_cell_angle_gamma                90
_cell_formula_units_Z            4
_cell_length_a                   13.1580(12)
_cell_length_b                   8.0286(7)
_cell_length_c                   6.1287(5)
_cell_measurement_reflns_used    750
_cell_measurement_temperature    280(2)
_cell_measurement_theta_max      30
_cell_measurement_theta_min      1.5
_cell_volume                     647.44(10)
_computing_cell_refinement       'SMART, 'Bruker APEX II'
_computing_data_collection       'Bruker kappa APEX II'
_computing_data_reduction        'SAINT, 'Bruker APEX II'
_computing_molecular_graphics    Diamond
_computing_structure_refinement  'SHELXL-2016 (Sheldrick, 2016)'
_computing_structure_solution    'SHELXL-2016 (Sheldrick, 2016)'
_diffrn_ambient_temperature      280(2)
_diffrn_measured_fraction_theta_full 1.000
_diffrn_measured_fraction_theta_max 1.000
_diffrn_measurement_device_type  'BRUKER kappa APEX II'
_diffrn_measurement_method       'Omega and phi scan'
_diffrn_radiation_monochromator  graphite
_diffrn_radiation_source         'fine-focus sealed tube'
_diffrn_radiation_type           MoK\a
_diffrn_radiation_wavelength     0.71073
_diffrn_reflns_av_R_equivalents  0.0202
_diffrn_reflns_av_unetI/netI     0.0160
_diffrn_reflns_Laue_measured_fraction_full 1.000
_diffrn_reflns_Laue_measured_fraction_max 1.000
_diffrn_reflns_limit_h_max       16
_diffrn_reflns_limit_h_min       -18
_diffrn_reflns_limit_k_max       9
_diffrn_reflns_limit_k_min       -11
_diffrn_reflns_limit_l_max       8
_diffrn_reflns_limit_l_min       -8
_diffrn_reflns_number            5928
_diffrn_reflns_point_group_measured_fraction_full 1.000
_diffrn_reflns_point_group_measured_fraction_max 1.000
_diffrn_reflns_theta_full        25.242
_diffrn_reflns_theta_max         29.985
_diffrn_reflns_theta_min         3.096
_diffrn_standards_decay_%        0
_diffrn_standards_interval_time  3
_diffrn_standards_number         3
_exptl_absorpt_coefficient_mu    1.557
_exptl_absorpt_correction_T_max  0.7460
_exptl_absorpt_correction_T_min  0.6980
_exptl_absorpt_correction_type   multi-scan
_exptl_absorpt_process_details   SADABS
_exptl_crystal_colour            colourless
_exptl_crystal_density_diffrn    1.859
_exptl_crystal_description       Plate
_exptl_crystal_F_000             354
_exptl_crystal_size_max          0.110
_exptl_crystal_size_mid          0.090
_exptl_crystal_size_min          0.013
_refine_diff_density_max         0.305
_refine_diff_density_min         -0.219
_refine_diff_density_rms         0.061
_refine_ls_extinction_method     none
_refine_ls_goodness_of_fit_ref   1.036
_refine_ls_hydrogen_treatment    undef
_refine_ls_matrix_type           full
_refine_ls_number_parameters     65
_refine_ls_number_reflns         1013
_refine_ls_number_restraints     6
_refine_ls_restrained_S_all      1.033
_refine_ls_R_factor_all          0.0263
_refine_ls_R_factor_gt           0.0192
_refine_ls_shift/su_max          0.000
_refine_ls_shift/su_mean         0.000
_refine_ls_structure_factor_coef Fsqd
_refine_ls_weighting_details
'w=1/[\s^2^(Fo^2^)+(0.0265P)^2^+0.0708P] where P=(Fo^2^+2Fc^2^)/3'
_refine_ls_weighting_scheme      calc
_refine_ls_wR_factor_gt          0.0438
_refine_ls_wR_factor_ref         0.0461
_reflns_Friedel_coverage         0.000
_reflns_number_gt                868
_reflns_number_total             1013
_reflns_threshold_expression     'I > 2\s(I)'
_cod_data_source_file            Li3.25Si0.25P0.75S4-280K.cif
_cod_data_source_block           Li3.25Si0.25P0.75S4-280K
_cod_database_code               4002991
_shelx_space_group_comment
;
The symmetry employed for this shelxl refinement is uniquely defined
by the following loop, which should always be used as a source of
symmetry information in preference to the above space-group names.
They are only intended as comments.
;
_shelx_estimated_absorpt_t_min   0.847
_shelx_estimated_absorpt_t_max   0.980
_shelx_res_file
;
TITL LN12_0m.res in Pnma
CELL  0.71073  13.1580   8.0286   6.1287   90.000   90.000   90.000
ZERR    4.000   0.0012   0.0007   0.0005    0.000    0.000    0.000
LATT  1
SYMM 1/2-X, -Y, 1/2+Z
SYMM -X, 1/2+Y, -Z
SYMM 1/2+X, 1/2-Y, 1/2-Z
SFAC LI P S SI
UNIT 13.112 3 16 1
TEMP 6.850
SIZE 0.013 0.09 0.11
L.S. 30
OMIT -3 60
BOND
LIST 4
EXYZ P1 SI1
EADP P1 SI1
SIMU Li1A LI1B
EADP Li1A LI1B
ACTA
FMAP 2
PLAN 10
WGHT    0.026500    0.070800
FVAR       0.17244   0.91188
P1    2    0.087286    0.250000    0.156216    10.37500    0.01623    0.01585 =
         0.01357    0.00000    0.00137    0.00000
SI1   4    0.087286    0.250000    0.156216    10.12500    0.01623    0.01585 =
         0.01357    0.00000    0.00137    0.00000
S1    3    0.152814    0.035709    0.276309    11.00000    0.02099    0.02320 =
         0.02658    0.00543    0.00036    0.00414
S2    3   -0.061911    0.250000    0.268409    10.50000    0.01737    0.02007 =
         0.02216    0.00000    0.00197    0.00000
S3    3    0.100844    0.250000   -0.177655    10.50000    0.03281    0.02242 =
         0.01478    0.00000    0.00339    0.00000
LI1A  1    0.329948    0.030536    0.384573    21.00000    0.03007    0.03625 =
         0.05437    0.01663   -0.00370    0.00116
LI1B  1    0.334313    0.011893    0.218494   -21.00000    0.03007    0.03625 =
         0.05437    0.01663   -0.00370    0.00116
LI2   1    0.006064    0.044734    0.557243     0.45679    0.03973    0.05604 =
         0.04130    0.02237    0.00131   -0.01239
LI3A  1   -0.079133    0.250000   -0.177646     0.10100    0.07094    0.04609 =
         0.10453    0.00000   -0.01935    0.00000
LI3B  1   -0.070836    0.250000   -0.311688     0.08121    0.04568    0.04518 =
         0.04933    0.00000   -0.01036    0.00000

HKLF 4




REM  LN12_0ma_a.res in Pnma
REM wR2 = 0.046095, GooF = S = 1.03610, Restrained GooF = 1.03284 for all data
REM R1 = 0.019200 for 868 Fo > 4sig(Fo) and 0.026283 for all 1013 data
REM 65 parameters refined using 6 restraints

END

WGHT      0.0269      0.0614

REM Highest difference peak  0.305,  deepest hole -0.219,  1-sigma level  0.061
Q1    1   0.1363  0.1511  0.1994  11.00000  0.05    0.30
Q2    1   0.0431  0.2500 -0.2125  10.50000  0.05    0.30
Q3    1   0.2173  0.0378  0.2503  11.00000  0.05    0.30
Q4    1   0.0963 -0.0187  0.2893  11.00000  0.05    0.27
Q5    1  -0.1089  0.1603  0.2377  11.00000  0.05    0.25
Q6    1   0.0009  0.2500  0.2823  10.50000  0.05    0.24
Q7    1   0.0172  0.2500  0.1788  10.50000  0.05    0.24
Q8    1   0.0900  0.2500 -0.0317  10.50000  0.05    0.23
Q9    1   0.1677  0.1940 -0.1732  11.00000  0.05    0.23
Q10   1   0.1579  0.0218  0.1629  11.00000  0.05    0.22
;
_shelx_res_checksum              57481
_shelx_hkl_file
;
   0   0  -1    0.37    0.06
   0   0   1    0.37    0.06
   0   0   2  969.24   10.19
   0   0  -2 1000.00   10.38
   0   0  -2  999.38   10.18
   0   0   2  974.19   10.46
   0   0   3    0.10    0.10
   0   0   3   -0.07    0.14
   0   0  -3    0.06    0.11
   0   0  -3    0.10    0.10
   0   0   4   40.60    0.79
   0   0   4   39.56    0.64
   0   0  -4   39.91    0.63
   0   0  -4   40.25    0.72
   0   0   5    0.12    0.22
   0   0  -5   -0.02    0.14
   0   0  -5    0.34    0.18
   0   0   5    0.12    0.15
   0   0  -6    1.12    0.25
   0   0   6    0.52    0.29
   0   0   7    0.23    0.35
   0   0  -7    0.31    0.25
   0   0   8   -0.03    0.40
   0  -1   0    0.02    0.04
   0  -1   0    0.04    0.04
   0  -1  -1  158.84    1.66
   0  -1   1  159.19    1.62
   0  -1   2    0.04    0.13
   0  -1  -2    0.10    0.10
   0   1   2    0.15    0.12
   0   1  -2   -0.04    0.11
   0   1   2    0.18    0.11
   0  -1   2   -0.05    0.09
   0   1  -2    0.08    0.07
   0  -1  -3   32.93    0.55
   0   1   3   32.51    0.63
   0   1  -3   32.91    0.60
   0  -1  -3   33.20    0.54
   0  -1   3   33.68    0.63
   0   1   3   33.70    0.54
   0   1  -3   33.14    0.47
   0  -1   3   32.00    0.50
   0   1   4    0.07    0.13
   0   1  -4    0.11    0.11
   0  -1  -4    0.20    0.14
   0  -1   4   -0.03    0.12
   0   1   4    0.35    0.20
   0  -1  -4   -0.16    0.13
   0   1  -4   -0.02    0.14
   0  -1   4   -0.03    0.18
   0  -1   5    8.94    0.46
   0  -1  -5    8.31    0.35
   0   1   5    8.76    0.48
   0  -1  -5    8.64    0.38
   0  -1   5    8.96    0.34
   0   1   5    9.19    0.36
   0   1  -5    8.28    0.43
   0   1  -6   -0.02    0.21
   0  -1  -6    0.11    0.17
   0  -1  -6    0.22    0.21
   0  -1   6    0.27    0.29
   0   1   6    0.02    0.26
   0   1   6    0.34    0.23
   0   1  -7   12.83    0.64
   0  -1   7   13.38    0.73
   0   1   7   12.36    0.72
   0   1  -8    0.19    0.31
   0  -1   8    0.06    0.43
   0   1   8   -0.14    0.40
   0  -2   0   49.12    0.58
   0  -2   0   48.41    0.59
   0  -2   1   -0.05    0.11
   0   2  -1    0.04    0.10
   0   2   1    0.05    0.11
   0  -2  -1    0.28    0.10
   0  -2   1    0.25    0.08
   0   2  -2    7.64    0.28
   0   2   2    7.64    0.30
   0  -2   2    7.75    0.29
   0  -2   2    7.61    0.22
   0  -2  -2    7.68    0.26
   0   2   3   -0.04    0.15
   0  -2   3    0.09    0.11
   0  -2   3    0.37    0.17
   0   2  -3    0.01    0.14
   0  -2  -3   -0.01    0.10
   0  -2  -3   -0.14    0.12
   0   2   4   35.32    0.78
   0  -2  -4   36.69    0.68
   0  -2   4   37.36    0.78
   0  -2  -4   36.96    0.62
   0  -2   4   37.15    0.61
   0   2  -4   37.69    0.54
   0   2  -4   37.99    0.75
   0   2   5   -0.20    0.23
   0   2  -5    0.09    0.20
   0  -2   5   -0.23    0.24
   0  -2  -5    0.01    0.17
   0  -2   6   55.09    1.17
   0  -2  -6   53.39    0.97
   0   2  -6   52.33    1.08
   0   2   6   51.78    1.15
   0   2   7    0.55    0.36
   0   2  -7    0.07    0.26
   0  -2   7    0.18    0.34
   0   2  -8    3.03    0.45
   0   2   8    3.48    0.54
   0  -2   8    3.08    0.54
   0  -3   0    0.01    0.09
   0  -3   0    0.18    0.10
   0   3   1   11.81    0.34
   0   3  -1   12.23    0.31
   0  -3  -1   12.17    0.30
   0  -3   1   12.07    0.28
   0  -3   1   11.64    0.23
   0   3   2    0.10    0.14
   0  -3   2    0.04    0.13
   0   3  -2   -0.12    0.12
   0  -3  -2    0.10    0.12
   0  -3   2    0.00    0.10
   0   3  -3    6.87    0.34
   0  -3  -3    6.42    0.21
   0   3   3    7.06    0.35
   0  -3   3    6.60    0.26
   0  -3   3    7.40    0.35
   0  -3  -4   -0.01    0.16
   0   3   4    0.20    0.21
   0  -3   4   -0.04    0.13
   0   3  -4    0.11    0.18
   0  -3   4    0.10    0.22
   0  -3   5    0.87    0.28
   0   3  -5    0.31    0.23
   0  -3  -5    0.30    0.20
   0   3   5    0.62    0.27
   0  -3   6   -0.10    0.29
   0   3   6   -0.20    0.27
   0  -3  -6   -0.12    0.20
   0   3  -6   -0.08    0.25
   0   3  -7    4.23    0.46
   0  -3   7    3.98    0.53
   0   3   7    4.22    0.50
   0  -3  -7    3.97    0.38
   0   3   8    0.50    0.42
   0  -3   8   -0.14    0.42
   0   3  -8    0.03    0.33
   0  -4   0  806.84    8.07
   0  -4   0  811.60    8.33
   0  -4  -1    0.04    0.11
   0  -4   1   -0.02    0.14
   0  -4  -1   -0.06    0.11
   0  -4   1   -0.08    0.09
   0  -4   1    0.13    0.11
   0   4   1   -0.07    0.14
   0   4  -2  290.46    3.21
   0  -4   2  290.50    3.08
   0   4   2  284.56    3.26
   0  -4   2  293.47    3.24
   0  -4   2  292.04    2.95
   0  -4  -2  298.14    3.18
   0  -4   3    0.14    0.14
   0  -4   3    0.28    0.18
   0   4   3   -0.10    0.18
   0   4  -3    0.03    0.17
   0  -4  -3    0.02    0.15
   0  -4   4    9.43    0.36
   0   4   4    9.27    0.49
   0  -4  -4    8.95    0.41
   0   4  -4   11.21    0.49
   0   4  -5   -0.26    0.23
   0  -4  -5    0.35    0.21
   0   4   5    0.22    0.27
   0  -4   5   -0.30    0.24
   0  -4   6    2.62    0.42
   0   4   6    2.87    0.42
   0  -4  -6    3.09    0.35
   0   4  -6    3.29    0.41
   0  -4   7    0.15    0.38
   0  -4  -7   -0.18    0.25
   0   4   7   -0.80    0.31
   0   4  -7    0.01    0.32
   0  -4   8   -0.13    0.43
   0   4  -8   -0.50    0.34
   0   4   8    0.41    0.43
   0  -5   0    0.21    0.13
   0  -5   0   -0.04    0.12
   0  -5  -1  190.05    2.21
   0  -5  -1  191.35    2.21
   0  -5   1  196.00    2.19
   0  -5   1  194.07    2.11
   0  -5   1  197.00    2.32
   0  -5  -1  202.07    2.24
   0   5  -2   -0.24    0.15
   0  -5  -2   -0.06    0.15
   0  -5   2   -0.13    0.13
   0  -5  -2    0.00    0.14
   0  -5   2    0.05    0.18
   0   5   2   -0.18    0.17
   0   5   3   67.77    1.18
   0   5  -3   67.09    1.11
   0  -5   3   67.41    0.98
   0  -5   3   69.43    1.16
   0  -5  -3   66.60    1.07
   0  -5   4    0.19    0.24
   0   5   4   -0.04    0.24
   0   5  -4    0.02    0.22
   0  -5  -4    0.10    0.19
   0  -5  -5   18.17    0.62
   0  -5   5   18.90    0.73
   0   5  -5   19.67    0.70
   0   5   5   18.95    0.73
   0   5   6    0.55    0.35
   0   5  -6    0.62    0.30
   0  -5  -6    0.29    0.27
   0  -5   6    0.10    0.35
   0  -5   7   12.54    0.89
   0   5  -7   14.51    0.77
   0   5   7   14.00    0.83
   0  -6   0  123.11    1.50
   0  -6   0  119.45    1.53
   0  -6  -1   -0.40    0.16
   0  -6   1    0.01    0.12
   0  -6   1    0.24    0.21
   0  -6  -1    0.05    0.15
   0  -6   1    0.01    0.15
   0  -6   2   38.67    0.84
   0   6   2   39.73    0.87
   0  -6  -2   39.10    0.75
   0  -6   2   39.19    0.71
   0  -6  -2   39.48    0.77
   0  -6   3    0.37    0.25
   0  -6   3    0.19    0.17
   0  -6  -3    0.09    0.20
   0  -6  -3   -0.28    0.17
   0   6   3    0.25    0.23
   0   6   4    2.81    0.37
   0   6  -4    2.73    0.36
   0  -6  -4    2.71    0.32
   0  -6   4    2.81    0.36
   0   6  -5   -0.17    0.28
   0  -6   5   -0.01    0.32
   0   6   5   -0.16    0.29
   0  -6  -5   -0.08    0.25
   0   6   6   13.57    0.77
   0   6  -6   14.37    0.72
   0  -6   6   14.36    0.81
   0  -6  -6   13.94    0.88
   0   6   7   -0.26    0.38
   0  -6   7   -0.57    0.42
   0  -7   0   -0.08    0.18
   0  -7   0   -0.28    0.16
   0  -7   1   16.87    0.50
   0  -7  -1   16.29    0.50
   0  -7   1   18.19    0.61
   0  -7  -1   17.36    0.52
   0  -7  -2    0.02    0.19
   0  -7   2   -0.09    0.24
   0  -7  -2   -0.08    0.19
   0  -7   2    0.21    0.19
   0  -7   3   12.51    0.61
   0   7   3   11.94    0.62
   0  -7   3   11.98    0.47
   0  -7  -3   11.14    0.51
   0  -7  -3   11.89    0.50
   0  -7  -4   -0.18    0.21
   0   7   4    0.60    0.31
   0  -7   4    0.48    0.31
   0  -7  -4   -0.06    0.25
   0   7   5    2.62    0.43
   0  -7  -5    2.88    0.35
   0  -7   5    2.24    0.42
   0  -7  -5    2.96    0.39
   0  -7   6    0.27    0.43
   0   7   6   -0.19    0.35
   0  -8   0   73.36    1.19
   0  -8  -1    0.40    0.21
   0  -8   1    0.01    0.27
   0  -8   1    0.08    0.21
   0  -8  -1   -0.02    0.21
   0  -8  -2   26.25    0.73
   0  -8   2   26.79    0.83
   0  -8  -2   27.89    0.73
   0  -8   2   27.48    0.69
   0  -8  -3   -0.16    0.24
   0  -8   3    0.14    0.32
   0  -8  -3   -0.02    0.23
   0  -8   4    0.16    0.36
   0  -8  -4    0.56    0.30
   0  -8  -4    0.32    0.27
   0   8   4    0.41    0.35
   0  -8   5    0.14    0.41
   0   8   5    0.08    0.38
   0   8   6    4.66    0.59
   0  -8   6    6.07    0.67
   0  -9   0   -0.26    0.23
   0  -9   1   58.11    1.25
   0  -9  -1   56.29    1.10
   0  -9   1   58.11    1.09
   0  -9   2    0.05    0.26
   0  -9  -2   -0.23    0.25
   0  -9  -2    0.05    0.26
   0  -9   2   -0.35    0.31
   0  -9  -3   21.98    0.75
   0  -9  -3   20.75    0.84
   0  -9   3   21.98    0.92
   0  -9   4    0.26    0.40
   0  -9   5    7.93    0.72
   0   9   5    7.48    0.67
   0 -10   0   94.37    1.53
   0 -10   0   90.43    1.72
   0 -10   1    0.19    0.38
   0 -10   1    0.29    0.29
   0 -10   2   39.71    1.14
   0 -10   3   -0.14    0.39
   0 -10   4    0.97    0.48
   0 -11   0    0.34    0.40
   0 -11   1    0.37    0.41
   0 -11   2   -0.79    0.40
   1   0   0    0.01    0.01
   1   0  -1   21.42    0.30
  -1   0  -1   21.80    0.28
  -1   0   1   21.61    0.26
  -1   0   2   32.95    0.44
   1   0  -2   33.05    0.48
   1   0   2   34.70    0.55
   1   0   2   33.23    0.49
   1   0  -2   33.53    0.50
  -1   0  -2   32.97    0.45
   1   0  -3   33.74    0.57
   1   0  -3   34.12    0.53
  -1   0  -3   33.94    0.59
  -1   0  -3   33.86    0.51
   1   0   3   35.39    0.64
   1   0   3   34.46    0.54
  -1   0   3   34.11    0.50
   1   0  -4   23.32    0.53
   1   0   4   23.32    0.59
  -1   0   4   23.59    0.60
  -1   0  -4   25.08    0.56
   1   0  -4   24.05    0.48
  -1   0  -4   23.67    0.45
   1   0   4   23.78    0.49
  -1   0   4   24.08    0.46
  -1   0   5    4.60    0.39
   1   0  -5    4.33    0.31
  -1   0   5    3.78    0.26
   1   0   5    4.82    0.39
  -1   0  -5    4.04    0.31
   1   0  -5    4.00    0.28
  -1   0  -5    3.90    0.26
   1   0   5    4.20    0.28
   1   0   6   20.33    0.72
  -1   0  -6   19.96    0.63
   1   0  -6   19.60    0.62
  -1   0   6   19.80    0.72
   1   0   6   19.79    0.55
  -1   0   7   42.68    1.14
  -1   0  -7   41.43    0.98
   1   0  -7   42.41    0.99
   1   0   7   42.40    1.13
   1   0   8    7.93    0.68
  -1   0   8    8.95    0.72
   1  -1   0    0.09    0.05
   1  -1   0    0.12    0.04
  -1  -1   1   19.78    0.25
   1  -1  -1   20.46    0.32
   1   1   1   19.65    0.32
   1  -1   1   20.39    0.31
  -1  -1   2    2.21    0.13
  -1   1  -2    1.96    0.10
   1   1   2    2.45    0.16
   1  -1  -2    2.15    0.15
  -1   1  -2    2.30    0.18
  -1  -1   2    2.12    0.17
   1   1   2    1.74    0.17
   1   1  -2    1.99    0.16
  -1   1   2    2.09    0.19
  -1  -1  -2    2.04    0.15
   1  -1   2    2.19    0.15
  -1  -1  -2    1.94    0.14
   1  -1   2    2.00    0.17
   1   1  -2    2.22    0.15
  -1  -1   3   39.41    0.54
   1  -1  -3   38.75    0.59
   1   1   3   38.29    0.69
  -1  -1   3   39.78    0.69
  -1   1  -3   38.99    0.67
   1   1   3   39.95    0.62
   1  -1  -3   38.85    0.62
  -1   1  -3   39.31    0.52
   1  -1   3   38.78    0.69
   1   1  -3   39.82    0.56
  -1  -1  -3   39.50    0.62
  -1   1   3   39.46    0.70
  -1  -1  -3   40.67    0.61
   1  -1   3   39.20    0.59
   1   1  -3   39.40    0.66
   1  -1  -4   16.15    0.42
   1  -1  -4   15.85    0.41
   1   1   4   16.71    0.42
  -1   1  -4   16.16    0.34
   1   1   4   17.09    0.52
  -1  -1   4   16.57    0.52
  -1  -1   4   16.86    0.36
  -1   1  -4   17.58    0.49
   1   1  -4   16.38    0.47
  -1  -1  -4   15.77    0.43
   1   1  -4   15.94    0.37
   1  -1   4   16.77    0.52
  -1  -1  -4   16.11    0.41
  -1   1   4   16.06    0.39
  -1   1   4   17.01    0.52
   1  -1   4   16.27    0.40
   1   1   5    5.56    0.42
   1   1   5    5.19    0.32
  -1  -1   5    6.00    0.43
   1  -1  -5    5.86    0.34
  -1   1  -5    5.18    0.39
   1  -1  -5    5.22    0.33
  -1  -1  -5    5.80    0.32
   1   1  -5    5.50    0.28
   1  -1   5    5.61    0.32
   1  -1   5    4.47    0.36
   1   1  -5    5.69    0.38
  -1  -1  -5    5.87    0.35
  -1   1   5    5.49    0.42
   1  -1  -6   24.37    0.61
  -1   1  -6   24.30    0.71
  -1  -1   6   24.17    0.78
   1   1   6   23.34    0.61
   1   1   6   23.99    0.78
   1   1  -6   22.91    0.69
   1  -1   6   24.16    0.78
  -1  -1  -6   24.15    0.59
  -1   1   6   22.83    0.75
  -1  -1  -6   23.99    0.66
  -1   1  -7    2.63    0.37
  -1  -1   7    2.79    0.44
   1   1   7    2.37    0.43
  -1   1   7    2.97    0.46
   1   1  -7    1.71    0.33
   1  -1   7    3.67    0.48
   1   1   8   10.01    0.77
  -1  -1   8   11.21    0.80
  -1   1  -8    9.09    0.66
   1   1  -8    8.05    0.60
   1  -1   8    9.16    0.74
  -1   1   8    8.74    0.72
  -1  -2   0   -0.02    0.08
   1  -2   0    0.05    0.09
   1  -2   0   -0.04    0.08
   1   2   1   55.43    0.73
  -1   2  -1   56.42    0.72
  -1  -2   1   55.37    0.64
   1  -2  -1   55.26    0.69
  -1  -2   1   56.18    0.72
   1  -2  -1   56.97    0.71
   1  -2   1   55.19    0.58
   1  -2   1   54.83    0.73
  -1  -2  -1   56.36    0.71
   1  -2   1   55.40    0.69
  -1   2   1   54.64    0.75
  -1   2  -2   25.47    0.49
  -1  -2   2   25.06    0.48
   1   2   2   26.03    0.50
  -1  -2   2   25.14    0.38
   1  -2  -2   25.62    0.46
  -1  -2  -2   25.28    0.45
  -1   2   2   26.19    0.52
   1  -2   2   25.14    0.42
   1   2  -2   25.06    0.49
   1  -2   2   26.21    0.50
   1  -2  -3   93.97    1.10
  -1   2  -3   94.73    1.27
  -1  -2   3   93.40    1.08
   1   2   3   92.13    1.28
  -1  -2   3   93.35    1.27
   1  -2  -3   94.90    1.21
   1   2   3   93.86    1.20
  -1   2  -3   93.93    1.01
  -1  -2  -3   94.65    1.14
  -1  -2  -3   94.57    1.20
   1  -2   3   94.31    1.16
  -1   2   3   93.57    1.30
   1   2  -3   93.49    1.26
   1  -2   3   93.88    1.28
   1   2   4   11.92    0.39
  -1  -2   4   12.18    0.48
  -1   2  -4   12.70    0.45
   1  -2  -4   12.11    0.34
  -1  -2   4   12.22    0.32
   1  -2  -4   12.16    0.41
   1   2   4   12.42    0.48
   1  -2   4   12.30    0.37
  -1   2   4   11.67    0.45
  -1  -2  -4   12.19    0.39
   1  -2   4   12.41    0.48
   1   2  -4   12.82    0.45
  -1  -2  -4   11.64    0.37
   1  -2  -5   19.46    0.54
  -1   2  -5   19.38    0.60
   1   2   5   17.68    0.51
   1   2   5   19.77    0.65
  -1  -2   5   18.78    0.65
   1  -2   5   18.36    0.49
  -1   2   5   18.85    0.64
   1  -2   5   20.22    0.67
  -1  -2  -5   18.97    0.53
  -1  -2  -5   19.21    0.52
   1   2  -5   19.06    0.61
  -1  -2   6    5.14    0.46
   1  -2  -6    5.74    0.39
  -1   2  -6    6.31    0.47
   1   2   6    5.86    0.48
  -1   2   6    7.44    0.54
   1  -2   6    5.28    0.48
  -1  -2  -6    5.37    0.39
   1   2  -6    6.23    0.45
   1  -2  -7    2.74    0.41
  -1  -2   7    2.68    0.46
   1   2   7    3.50    0.48
  -1   2  -7    2.85    0.39
   1  -2   7    2.12    0.43
  -1   2   7    2.45    0.43
   1   2  -7    2.31    0.36
  -1   2  -8    6.67    0.58
   1   2   8    5.93    0.63
  -1  -2   8    6.35    0.65
  -1   2   8    7.16    0.69
   1  -2   8    7.74    0.69
   1   2  -8    5.81    0.53
  -1  -3   0   -0.11    0.09
  -1  -3   0   -0.08    0.09
   1  -3   0    0.07    0.09
   1  -3   0    0.05    0.10
   1  -3  -1   38.27    0.57
  -1  -3   1   39.92    0.53
  -1   3  -1   38.89    0.59
   1  -3  -1   38.16    0.58
  -1  -3   1   38.79    0.61
   1   3   1   39.52    0.63
   1  -3   1   37.91    0.47
  -1   3   1   39.13    0.65
   1  -3   1   38.43    0.56
  -1  -3  -1   38.62    0.59
   1  -3   1   38.42    0.62
   1   3   2    0.13    0.14
  -1  -3   2    0.10    0.09
  -1   3  -2    0.06    0.13
   1  -3  -2   -0.25    0.11
  -1  -3   2   -0.06    0.12
  -1   3   2   -0.42    0.12
   1   3  -2   -0.10    0.12
  -1  -3  -2   -0.13    0.11
   1  -3   2    0.04    0.14
   1  -3   2    0.04    0.11
   1   3   3   90.52    1.29
   1  -3  -3   90.61    1.22
  -1  -3   3   89.54    1.27
  -1  -3   3   89.89    1.09
  -1   3  -3   89.66    1.27
   1  -3   3   90.81    1.15
  -1  -3  -3   92.48    1.22
  -1  -3  -3   91.38    1.10
   1   3  -3   90.37    1.27
  -1   3   3   90.81    1.31
   1  -3   3   90.46    1.28
   1   3   4    0.13    0.21
  -1  -3   4    0.27    0.13
  -1   3  -4    0.07    0.19
  -1  -3   4    0.41    0.22
   1  -3  -4    0.11    0.17
   1  -3   4    0.40    0.23
   1   3  -4    0.29    0.19
  -1  -3  -4   -0.09    0.15
  -1   3   4    0.18    0.21
   1   3   5   30.02    0.80
  -1  -3   5   29.14    0.78
   1  -3  -5   29.69    0.69
  -1   3  -5   30.03    0.78
  -1  -3  -5   30.08    0.68
   1  -3   5   29.55    0.63
   1   3  -5   30.59    0.77
   1  -3   5   29.18    0.80
  -1   3   5   29.21    0.81
  -1  -3   6    4.72    0.47
   1   3   6    5.79    0.49
   1  -3  -6    5.82    0.42
  -1   3  -6    5.57    0.46
  -1   3   6    4.75    0.47
  -1  -3  -6    5.15    0.38
   1   3  -6    4.74    0.43
   1  -3   6    4.72    0.46
  -1  -3   7    1.35    0.41
   1   3   7    2.25    0.43
  -1   3  -7    2.23    0.40
   1  -3  -7    2.24    0.33
  -1   3   7    2.43    0.43
  -1  -3  -7    2.25    0.32
   1   3  -7    1.82    0.37
   1  -3   7    2.46    0.47
  -1  -3   8    1.52    0.49
  -1   3  -8    1.98    0.43
   1   3   8    1.17    0.46
   1  -3   8    1.50    0.51
  -1   3   8    2.77    0.52
   1   3  -8    1.54    0.39
  -1  -4   0   -0.06    0.10
   1  -4   0   -0.01    0.11
   1  -4   0   -0.21    0.10
  -1  -4   0    0.11    0.10
  -1  -4   1   13.88    0.30
   1  -4  -1   14.05    0.35
  -1  -4   1   14.19    0.33
   1  -4  -1   13.99    0.35
  -1  -4   1   14.00    0.39
  -1   4  -1   13.23    0.36
   1   4   1   14.04    0.40
  -1  -4  -1   14.03    0.36
  -1   4   1   13.72    0.42
   1  -4   1   13.42    0.27
  -1  -4  -1   13.49    0.29
   1  -4   1   14.26    0.41
   1  -4   1   14.22    0.34
   1  -4  -2    3.56    0.25
  -1   4  -2    3.19    0.25
  -1  -4   2    3.78    0.28
  -1  -4   2    3.34    0.21
   1   4   2    4.22    0.29
   1  -4  -2    3.44    0.23
   1  -4   2    3.46    0.12
   1  -4   2    3.71    0.27
  -1  -4  -2    3.83    0.26
  -1   4   2    3.94    0.29
   1  -4   2    3.19    0.21
   1  -4  -3   28.42    0.61
  -1  -4   3   29.14    0.52
  -1   4  -3   28.54    0.65
  -1  -4   3   29.42    0.66
   1   4   3   28.63    0.67
   1   4  -3   28.42    0.65
   1  -4   3   30.02    0.68
  -1  -4  -3   27.89    0.60
  -1   4   3   27.41    0.67
   1  -4   3   29.26    0.57
   1  -4  -4    5.11    0.37
  -1   4  -4    5.51    0.40
   1   4   4    5.46    0.40
  -1  -4   4    5.33    0.42
  -1  -4  -4    5.16    0.36
   1   4  -4    5.52    0.39
   1  -4   4    5.04    0.31
  -1   4   4    4.71    0.40
   1  -4   4    5.60    0.40
   1   4   5    0.59    0.29
   1  -4  -5    0.96    0.24
  -1   4  -5    0.35    0.25
  -1  -4   5    0.17    0.27
  -1   4   5    0.05    0.26
  -1  -4  -5    0.34    0.21
   1  -4   5    0.78    0.31
   1   4  -5    0.32    0.24
   1   4   6    5.84    0.51
  -1   4  -6    5.17    0.47
   1  -4  -6    5.35    0.41
  -1  -4   6    5.94    0.53
   1   4  -6    5.75    0.48
  -1  -4  -6    5.61    0.42
   1  -4   6    6.58    0.57
  -1   4   6    6.12    0.53
  -1  -4   7   18.38    0.89
   1   4   7   20.27    0.92
  -1   4  -7   22.02    0.86
   1  -4  -7   21.01    0.74
   1  -4   7   19.19    0.91
   1   4  -7   21.30    0.84
  -1  -4  -7   20.86    0.73
  -1   4   7   21.78    0.92
  -1  -4   8    1.59    0.52
   1   4   8    1.87    0.49
  -1   4  -8    1.49    0.43
   1  -4   8    1.91    0.53
  -1   4   8    1.78    0.49
   1  -5   0   -0.23    0.11
   1  -5   0    0.10    0.13
  -1  -5   0    0.07    0.13
  -1  -5   0    0.09    0.13
  -1  -5   1    1.09    0.16
  -1   5  -1    1.22    0.17
   1  -5  -1    1.29    0.18
   1  -5  -1    1.18    0.18
  -1  -5   1    0.99    0.20
  -1  -5   1    0.95    0.14
   1  -5   1    1.16    0.17
   1  -5   1    1.07    0.21
  -1  -5  -1    0.92    0.17
   1  -5   1    1.00    0.13
  -1  -5  -1    1.04    0.14
   1  -5  -2    1.21    0.20
  -1  -5   2    1.09    0.17
   1   5   2    1.05    0.21
  -1  -5   2    1.11    0.22
  -1   5  -2    1.03    0.20
   1  -5  -2    0.80    0.17
  -1  -5   2    1.28    0.13
  -1  -5  -2    1.21    0.20
   1  -5   2    1.22    0.23
   1  -5   2    1.25    0.18
  -1   5   2    1.16    0.22
  -1  -5   3    3.25    0.30
   1  -5  -3    3.38    0.27
  -1   5  -3    3.42    0.30
   1   5   3    3.84    0.34
   1  -5  -3    3.38    0.30
  -1  -5   3    3.70    0.24
   1  -5   3    3.63    0.27
   1  -5   3    3.55    0.33
  -1  -5  -3    3.99    0.31
  -1   5   3    4.12    0.37
   1   5   4   24.59    0.73
   1  -5  -4   24.78    0.66
  -1  -5   4   23.12    0.71
  -1   5  -4   23.57    0.71
   1   5  -4   24.85    0.71
   1  -5   4   23.57    0.58
  -1  -5  -4   24.16    0.64
  -1   5   4   23.80    0.74
   1  -5   4   24.38    0.72
  -1  -5   5    0.09    0.28
   1   5   5    0.05    0.28
  -1   5  -5    0.04    0.26
   1  -5  -5    0.22    0.24
   1   5  -5    0.21    0.26
  -1  -5  -5    0.33    0.23
  -1   5   5   -0.04    0.27
   1  -5   5    0.10    0.30
  -1  -5   6   28.78    0.99
   1  -5  -6   29.28    0.83
   1   5   6   29.17    0.96
  -1   5  -6   29.35    0.93
  -1  -5  -6   28.71    0.82
   1  -5   6   28.66    1.00
  -1   5   6   29.43    0.97
   1   5  -6   27.83    0.91
  -1  -5   7    9.32    0.74
  -1   5  -7    9.45    0.68
   1   5   7    9.30    0.71
  -1   5   7    9.62    0.76
   1  -5   7    8.38    0.69
   1  -6   0    0.23    0.15
  -1  -6   0    0.08    0.15
   1  -6   0    0.49    0.17
  -1  -6   0    0.24    0.15
   1  -6  -1   10.21    0.38
  -1  -6   1   10.06    0.45
   1  -6  -1    9.56    0.37
  -1  -6   1    9.20    0.33
  -1  -6   1    9.57    0.36
   1  -6   1    9.22    0.38
  -1  -6  -1    9.08    0.39
  -1  -6  -1   10.02    0.38
   1  -6   1    9.24    0.38
   1  -6   1   10.15    0.46
   1  -6  -2    0.56    0.20
   1   6   2    1.15    0.24
  -1  -6   2    1.09    0.25
   1  -6  -2    0.84    0.20
  -1  -6   2    1.06    0.19
  -1   6  -2    0.75    0.21
  -1   6   2    1.02    0.25
  -1  -6  -2    0.70    0.21
  -1  -6  -2    0.97    0.20
   1  -6   2    0.75    0.25
   1  -6   2    0.79    0.20
   1   6   3   25.06    0.72
   1  -6  -3   24.81    0.62
  -1  -6   3   24.57    0.71
   1  -6  -3   24.54    0.66
  -1   6  -3   25.68    0.67
  -1  -6   3   24.55    0.55
  -1  -6  -3   24.46    0.65
   1  -6   3   25.37    0.59
   1  -6   3   24.35    0.73
  -1   6   3   24.37    0.74
  -1   6  -4   -0.06    0.23
   1  -6  -4    0.19    0.22
  -1  -6   4    0.28    0.26
   1  -6  -4   -0.12    0.19
   1   6   4   -0.14    0.25
  -1   6   4    0.20    0.26
  -1  -6  -4    0.24    0.23
   1  -6   4   -0.01    0.28
   1  -6  -5    1.29    0.26
  -1   6  -5    1.44    0.32
   1  -6  -5    1.73    0.32
  -1  -6   5    2.19    0.40
   1   6   5    1.60    0.36
   1  -6   5    1.43    0.38
  -1   6   5    1.37    0.35
  -1  -6  -5    1.88    0.32
   1   6   6    0.01    0.33
  -1  -6   6   -0.03    0.37
  -1   6  -6   -0.24    0.31
   1  -6  -6   -0.33    0.44
   1  -6  -6    0.52    0.25
   1  -6   6    0.07    0.40
  -1   6   6    0.19    0.35
  -1  -6  -6    0.29    0.30
   1   6   7    5.88    0.62
  -1  -6   7    5.96    0.65
  -1   6  -7    6.06    0.59
  -1   6   7    5.90    0.63
   1  -6   7    6.08    0.67
  -1  -7   0    0.48    0.19
   1  -7   0   -0.13    0.16
   1  -7   0   -0.07    0.17
  -1  -7   0   -0.05    0.16
  -1  -7   1   15.22    0.46
   1  -7  -1   14.44    0.49
  -1  -7   1   14.85    0.56
   1  -7  -1   14.07    0.48
   1  -7   1   14.22    0.58
  -1  -7  -1   14.58    0.48
  -1  -7  -1   13.84    0.47
   1  -7   1   13.94    0.48
   1  -7  -2    0.31    0.21
  -1  -7   2    0.51    0.20
   1  -7  -2    0.14    0.21
  -1  -7   2    0.71    0.26
   1  -7   2    0.51    0.29
   1  -7   2    0.43    0.21
  -1  -7  -2    0.64    0.22
  -1  -7  -2    0.60    0.22
   1  -7  -3   43.95    0.92
   1   7   3   43.91    1.02
   1  -7  -3   42.21    0.88
  -1  -7   3   45.17    1.01
   1  -7   3   45.35    0.85
  -1  -7  -3   43.74    0.92
  -1  -7  -3   44.12    0.89
  -1   7   3   43.79    1.05
   1  -7   3   42.97    1.01
  -1   7  -4    0.22    0.27
   1  -7  -4   -0.09    0.23
  -1  -7   4    0.52    0.31
   1  -7  -4    0.41    0.26
   1   7   4   -0.08    0.28
  -1  -7  -4   -0.18    0.24
  -1  -7  -4    0.30    0.23
  -1   7   4    0.26    0.30
   1  -7   4    0.84    0.34
   1   7   5   19.44    0.85
  -1  -7   5   17.23    0.80
  -1   7  -5   18.25    0.77
   1  -7  -5   19.29    0.71
   1  -7  -5   18.81    0.66
   1  -7   5   16.94    0.82
  -1   7   5   17.85    0.83
  -1  -7  -5   18.15    0.69
   1   7   6    1.48    0.43
  -1   7  -6    2.00    0.41
  -1  -7   6    1.50    0.48
  -1   7   6    0.95    0.42
   1  -7   6    1.44    0.48
  -1  -8   0    0.17    0.21
  -1  -8   0   -0.08    0.28
   1  -8   0    0.29    0.22
  -1  -8   1    7.04    0.51
  -1  -8   1    6.66    0.42
   1  -8  -1    7.11    0.43
   1  -8  -1    7.39    0.44
   1  -8   1    7.12    0.44
  -1  -8  -1    6.85    0.43
  -1  -8  -1    7.66    0.43
   1  -8   1    6.74    0.53
  -1  -8   2    1.17    0.32
   1  -8  -2    1.51    0.28
  -1  -8   2    1.21    0.25
   1  -8  -2    0.84    0.27
  -1  -8  -2    0.85    0.28
  -1  -8  -2    1.36    0.28
   1  -8   2    0.72    0.26
   1  -8   2    1.34    0.33
   1  -8  -3   18.52    0.64
  -1  -8   3   17.64    0.74
   1  -8  -3   18.45    0.66
  -1  -8  -3   18.60    0.66
  -1  -8  -3   18.87    0.63
   1  -8   3   19.19    0.78
   1  -8   3   17.40    0.61
   1  -8  -4    0.68    0.30
   1  -8  -4    0.22    0.26
   1   8   4    0.86    0.35
  -1  -8   4    0.52    0.36
  -1   8   4    0.34    0.34
  -1  -8  -4   -0.03    0.26
  -1  -8  -4    0.42    0.29
   1  -8   4   -0.14    0.34
   1   8   5    1.90    0.43
  -1  -8   5    0.98    0.43
   1  -8   5    1.01    0.44
  -1   8   5    0.93    0.41
   1   8   6    0.24    0.39
  -1  -8   6   -0.04    0.45
  -1   8   6    0.22    0.41
   1  -8   6   -0.38    0.43
  -1  -9   0    0.21    0.24
  -1  -9   0    0.00    0.28
   1  -9   0    0.12    0.24
  -1  -9   1    0.59    0.32
   1  -9  -1    0.33    0.26
  -1  -9   1    0.78    0.25
  -1  -9  -1    0.78    0.26
   1  -9   1    0.62    0.34
  -1  -9  -1    0.53    0.25
   1  -9   1    0.49    0.26
  -1  -9   2    0.20    0.32
   1  -9  -2    0.50    0.26
   1  -9  -2    0.16    0.26
  -1  -9  -2    0.34    0.26
   1  -9   2    0.28    0.34
   1  -9   2   -0.05    0.25
  -1  -9  -2    0.36    0.27
   1  -9  -3    1.19    0.50
   1  -9  -3    1.75    0.36
  -1  -9   3    2.90    0.46
  -1  -9  -3    2.06    0.36
   1  -9   3    1.90    0.43
  -1  -9  -3    2.48    0.56
  -1  -9   4    5.20    0.57
   1  -9   4    5.77    0.61
   1   9   5   -0.67    0.33
  -1  -9   5    0.16    0.43
  -1   9   5    0.15    0.39
   1  -9   5    0.09    0.45
   1 -10   0    0.24    0.36
   1 -10   0    0.24    0.30
  -1 -10   0    0.35    0.28
  -1 -10   1    1.42    0.40
  -1 -10   1    1.36    0.32
   1 -10   1    1.32    0.34
   1 -10   1    2.07    0.45
  -1 -10   2    0.29    0.38
   1 -10   2    1.28    0.43
  -1 -10  -2    0.51    0.31
   1 -10   2    0.57    0.30
  -1 -10   3    3.30    0.52
   1 -10   3    3.82    0.57
  -1 -10   4    1.13    0.47
   1 -10   4    2.14    0.52
  -1 -11   0   -0.02    0.38
   1 -11   0   -0.07    0.38
  -1 -11   1    2.07    0.47
   1 -11   1    2.18    0.50
  -1 -11   2   -0.32    0.41
   1 -11   2   -0.21    0.43
   2   0   0   59.99    0.65
   2   0  -1   62.98    0.64
   2   0   1   63.42    0.74
   2   0  -1   61.15    0.73
  -2   0  -2    7.02    0.26
   2   0   2    6.97    0.26
  -2   0  -2    6.75    0.19
   2   0   2    6.88    0.24
   2   0  -2    6.48    0.23
  -2   0   2    6.63    0.27
   2   0  -2    6.77    0.23
   2   0  -3   23.68    0.44
  -2   0  -3   22.72    0.48
   2   0   3   23.36    0.45
   2   0   3   22.39    0.49
   2   0  -3   23.41    0.46
  -2   0   3   22.72    0.37
  -2   0   3   22.81    0.51
  -2   0  -3   23.47    0.40
  -2   0  -4    0.53    0.13
   2   0  -4    0.60    0.15
  -2   0  -4    0.53    0.18
   2   0  -4    0.40    0.14
   2   0   4    0.44    0.18
   2   0   4    0.58    0.16
  -2   0   4    0.46    0.12
  -2   0   4    0.76    0.21
   2   0  -5    2.58    0.24
  -2   0   5    2.72    0.33
  -2   0  -5    2.55    0.27
   2   0  -5    2.88    0.27
  -2   0  -5    2.48    0.21
   2   0   5    3.10    0.33
   2   0   5    2.64    0.25
  -2   0   6    3.68    0.40
  -2   0  -6    3.74    0.35
   2   0   6    2.94    0.29
   2   0  -6    3.03    0.32
   2   0  -6    2.73    0.31
   2   0   6    2.49    0.36
   2   0   7    2.94    0.45
  -2   0   7    3.33    0.47
  -2   0  -7    2.66    0.36
   2   0   8   -0.26    0.39
  -2   0   8   -0.22    0.39
   2   1   0  189.79    1.90
   2  -1   0  189.32    1.91
   2  -1   0  183.80    1.92
   2  -1  -1   27.33    0.37
   2   1   1   27.82    0.41
   2  -1  -1   27.85    0.42
  -2  -1  -1   27.55    0.40
   2   1   2   20.77    0.39
  -2  -1   2   20.70    0.41
  -2   1  -2   20.41    0.42
   2   1   2   20.12    0.41
  -2  -1   2   19.71    0.27
  -2   1  -2   20.14    0.27
   2  -1  -2   20.35    0.39
  -2  -1  -2   19.97    0.39
  -2   1   2   20.31    0.44
   2  -1   2   20.14    0.38
   2   1  -2   20.63    0.41
  -2  -1  -2   20.30    0.37
  -2  -1   3    7.05    0.19
  -2   1  -3    6.70    0.18
   2  -1  -3    6.79    0.24
  -2  -1   3    7.01    0.32
  -2   1  -3    6.73    0.31
   2   1   3    6.84    0.27
   2  -1  -3    6.76    0.28
   2   1   3    7.12    0.32
  -2  -1  -3    6.82    0.28
   2   1  -3    6.57    0.24
   2   1  -3    6.72    0.29
   2  -1   3    6.96    0.27
  -2  -1  -3    6.52    0.25
   2  -1   3    6.44    0.32
   2   1   4   32.98    0.62
  -2   1  -4   31.29    0.67
  -2  -1   4   31.86    0.50
   2  -1  -4   32.74    0.60
   2  -1  -4   32.42    0.62
  -2   1  -4   31.91    0.49
   2   1   4   31.23    0.70
  -2  -1   4   31.80    0.70
  -2  -1  -4   32.27    0.58
  -2  -1  -4   32.56    0.63
   2  -1   4   32.20    0.60
   2  -1   4   31.91    0.70
   2   1  -4   32.89    0.57
   2   1  -4   32.76    0.66
  -2   1   4   32.96    0.72
  -2   1  -5    0.53    0.22
   2  -1  -5    0.64    0.19
   2   1   5    0.91    0.27
   2   1   5    0.76    0.19
  -2  -1   5    0.90    0.27
   2  -1  -5    0.64    0.18
  -2   1   5    0.25    0.23
  -2  -1  -5    0.79    0.18
   2  -1   5    0.64    0.20
   2   1  -5    0.58    0.20
   2  -1   5    0.75    0.27
   2   1  -5    0.60    0.16
  -2  -1  -5    0.80    0.20
   2  -1  -6   52.95    0.96
  -2   1  -6   52.23    1.06
   2   1   6   53.00    1.14
  -2  -1   6   52.62    1.13
   2   1   6   51.70    0.95
  -2   1   6   51.57    1.14
   2  -1   6   51.21    0.94
   2   1  -6   52.19    1.03
   2  -1   6   52.18    1.13
  -2  -1  -6   53.32    1.02
  -2  -1   7    1.34    0.38
  -2   1  -7    2.22    0.36
   2   1   7    1.96    0.44
  -2   1   7    2.25    0.43
   2  -1   7    1.69    0.39
   2   1  -7    1.38    0.31
  -2   1  -8    7.46    0.58
   2   1   8    8.85    0.71
  -2  -1   8    7.38    0.68
  -2   1   8    9.99    0.76
   2  -1   8    8.09    0.70
  -2  -2   0  345.28    3.54
   2  -2   0  339.89    3.44
   2  -2   0  342.98    3.47
   2  -2  -1  373.43    3.82
   2  -2  -1  379.56    3.85
  -2  -2   1  381.50    3.83
  -2  -2   1  382.78    3.85
  -2   2  -1  378.47    3.87
   2  -2   1  379.03    3.89
   2  -2   1  367.43    3.73
  -2   2   1  375.24    3.91
  -2  -2  -1  380.44    3.86
   2  -2   1  381.05    3.85
   2  -2  -2  146.62    1.66
   2   2   2  143.55    1.67
  -2  -2   2  144.58    1.50
   2   2   2  146.35    1.66
  -2  -2   2  144.88    1.67
  -2   2  -2  146.60    1.69
  -2   2   2  141.58    1.71
   2  -2   2  145.22    1.70
   2  -2   2  144.08    1.62
  -2  -2  -2  143.59    1.64
  -2  -2  -2  144.94    1.61
   2   2   3  226.98    2.49
  -2  -2   3  216.19    2.29
  -2  -2   3  219.77    2.53
  -2   2  -3  221.13    2.23
  -2   2  -3  224.79    2.55
   2  -2  -3  220.74    2.34
   2  -2  -3  227.55    2.49
   2   2   3  222.67    2.55
   2   2  -3  221.55    2.54
   2  -2   3  220.37    2.55
  -2  -2  -3  228.09    2.46
  -2  -2  -3  223.30    2.43
   2  -2   3  220.60    2.44
  -2   2   3  221.96    2.58
   2   2   4    7.51    0.40
   2  -2  -4    7.69    0.28
   2  -2  -4    7.61    0.36
  -2   2  -4    7.85    0.39
   2   2   4    7.39    0.34
  -2  -2   4    7.84    0.41
  -2  -2  -4    6.90    0.33
   2  -2   4    7.00    0.33
  -2  -2  -4    7.43    0.33
  -2   2   4    6.66    0.40
   2  -2   4    7.26    0.39
   2   2  -4    7.21    0.37
   2   2   5   58.84    1.12
   2  -2  -5   60.66    1.00
   2   2   5   59.28    0.99
  -2   2  -5   59.15    1.09
  -2  -2   5   60.74    1.13
   2  -2   5   58.39    1.12
   2  -2   5   59.59    0.96
   2   2  -5   59.68    1.08
  -2  -2  -5   60.41    0.98
  -2  -2  -5   58.79    0.98
  -2   2   5   59.99    1.14
  -2   2  -6    0.25    0.25
   2   2   6    0.50    0.22
   2   2   6   -0.01    0.28
   2  -2  -6   -0.01    0.20
  -2  -2   6    0.42    0.31
   2  -2   6   -0.20    0.29
   2   2  -6    0.52    0.25
  -2   2   6   -0.21    0.25
  -2  -2  -6   -0.06    0.18
  -2   2  -7    1.23    0.34
   2   2   7    1.89    0.42
  -2  -2   7    0.79    0.39
   2  -2  -7    1.12    0.27
  -2   2   7    1.22    0.39
   2   2  -7    1.23    0.32
   2  -2   7    1.41    0.41
  -2  -2   8    0.48    0.44
   2   2   8    0.71    0.42
  -2   2  -8    0.20    0.33
   2  -2   8   -0.66    0.40
  -2   2   8    0.11    0.42
   2  -3   0    0.20    0.11
  -2  -3   0    0.18    0.10
   2  -3   0    0.05    0.10
  -2  -3   0    0.25    0.11
   2  -3  -1   84.40    1.03
  -2  -3   1   82.32    0.95
   2   3   1   84.01    1.05
  -2  -3   1   82.97    1.03
  -2   3  -1   82.71    1.03
   2  -3  -1   82.56    1.01
   2  -3   1   81.86    0.89
   2  -3   1   80.60    1.07
   2  -3   1   84.31    1.02
  -2   3   1   82.02    1.11
  -2  -3  -1   82.38    0.99
   2  -3  -2   31.20    0.56
  -2   3  -2   30.23    0.57
   2   3   2   30.98    0.58
   2  -3  -2   31.23    0.52
  -2  -3   2   30.35    0.56
  -2  -3   2   31.16    0.44
  -2   3   2   30.83    0.62
   2  -3   2   31.27    0.54
  -2  -3  -2   31.53    0.56
  -2  -3  -2   31.46    0.51
   2  -3   2   30.91    0.60
   2  -3  -3   13.40    0.40
   2   3   3   13.25    0.44
  -2  -3   3   13.73    0.44
  -2   3  -3   13.73    0.44
  -2  -3   3   13.70    0.29
  -2  -3  -3   13.54    0.34
  -2  -3  -3   13.15    0.39
   2   3  -3   14.04    0.44
   2  -3   3   13.43    0.45
   2  -3   3   12.90    0.38
  -2   3  -4  113.86    1.61
   2   3   4  115.43    1.63
   2  -3  -4  114.85    1.54
  -2  -3   4  116.03    1.62
  -2  -3  -4  113.83    1.43
  -2   3   4  114.02    1.66
  -2  -3  -4  113.54    1.51
   2  -3   4  111.67    1.47
   2   3  -4  114.48    1.60
   2  -3   4  114.00    1.63
   2   3   5    5.74    0.44
   2  -3  -5    4.90    0.35
  -2  -3   5    5.19    0.40
  -2   3  -5    5.41    0.42
   2   3  -5    5.67    0.42
  -2  -3  -5    4.97    0.34
  -2   3   5    5.72    0.46
   2  -3   5    5.64    0.45
   2  -3   5    5.47    0.36
   2   3   6   70.67    1.39
  -2  -3   6   70.66    1.39
   2  -3  -6   72.94    1.24
  -2   3  -6   71.91    1.36
   2  -3   6   70.58    1.40
  -2  -3  -6   72.41    1.22
  -2   3   6   71.29    1.41
   2   3  -6   71.23    1.33
   2  -3  -7    2.28    0.33
   2   3   7    2.43    0.44
  -2  -3   7    2.33    0.43
  -2   3  -7    3.31    0.43
   2  -3   7    3.34    0.52
   2   3  -7    2.76    0.40
  -2   3   7    3.53    0.48
  -2  -3  -7    2.37    0.44
  -2  -3   8    7.35    0.70
   2   3   8    7.85    0.68
  -2   3  -8    7.29    0.63
   2  -3   8    8.87    0.75
  -2   3   8    8.92    0.74
  -2  -4   0   38.31    0.60
  -2  -4   0   38.65    0.59
  -2   4   0   37.72    0.54
   2  -4   0   37.17    0.61
   2  -4   0   38.75    0.57
  -2  -4   0   37.81    0.59
   2  -4  -1    1.67    0.17
   2   4   1    1.87    0.19
   2  -4  -1    1.20    0.15
  -2  -4   1    1.96    0.15
  -2  -4   1    1.67    0.18
  -2  -4   1    1.31    0.14
  -2   4  -1    1.81    0.17
   2  -4   1    1.91    0.22
  -2  -4  -1    1.93    0.16
   2  -4   1    1.54    0.16
  -2  -4  -1    1.50    0.16
   2  -4   1    1.58    0.12
  -2   4   1    1.07    0.18
   2   4   2   10.86    0.38
  -2  -4   2   11.18    0.29
  -2  -4   2   11.45    0.39
   2  -4  -2   10.78    0.36
   2  -4  -2   10.89    0.34
  -2   4  -2   10.33    0.36
  -2  -4  -2   11.49    0.31
  -2   4   2   11.85    0.43
   2  -4   2   10.65    0.35
   2  -4   2   11.33    0.41
  -2  -4  -2   11.72    0.38
  -2   4  -3    0.27    0.19
   2  -4  -3    0.16    0.14
   2   4   3    0.00    0.18
   2  -4  -3    0.18    0.16
  -2  -4   3    0.09    0.12
  -2  -4   3    0.19    0.18
  -2  -4  -3    0.35    0.17
  -2  -4  -3    0.43    0.16
   2  -4   3    0.11    0.20
   2  -4   3    0.08    0.15
  -2   4   3    0.37    0.21
   2   4   4    0.07    0.21
  -2  -4   4    0.14    0.23
   2  -4  -4    0.04    0.19
  -2   4  -4   -0.03    0.21
   2  -4   4   -0.03    0.18
  -2   4   4   -0.21    0.22
   2   4  -4    0.32    0.21
   2  -4   4   -0.20    0.22
  -2  -4  -4   -0.19    0.17
   2  -4  -5    0.19    0.22
   2   4   5    0.10    0.25
  -2  -4   5    0.05    0.27
  -2   4  -5    0.29    0.24
  -2   4   5    0.25    0.27
   2   4  -5   -0.22    0.22
   2  -4   5    0.13    0.29
  -2  -4  -5    0.08    0.21
   2  -4   5    0.05    0.19
   2  -4  -6    2.36    0.34
   2   4   6    1.40    0.36
  -2  -4   6    1.04    0.35
  -2   4  -6    1.82    0.35
  -2   4   6    1.91    0.38
  -2  -4  -6    1.61    0.29
   2  -4   6    2.16    0.41
  -2   4  -7    1.36    0.39
   2   4   7    2.05    0.43
  -2  -4   7    1.38    0.46
   2  -4  -7    2.20    0.36
  -2   4   7    1.29    0.42
   2  -4   7    1.85    0.48
  -2  -4  -7    1.44    0.31
  -2   4  -8   -0.03    0.37
   2   4   8    0.43    0.41
  -2  -4   8    0.05    0.45
  -2   4   8    0.10    0.40
   2  -4   8   -0.38    0.46
  -2  -5   0  168.35    1.93
  -2  -5   0  169.67    1.94
  -2  -5   0  170.85    1.96
   2  -5   0  170.91    1.91
   2  -5   0  168.62    1.98
   2  -5  -1    0.20    0.14
   2  -5  -1    0.11    0.13
  -2   5  -1    0.30    0.14
  -2  -5   1    0.20    0.16
  -2  -5   1    0.01    0.12
  -2  -5   1   -0.04    0.12
   2  -5   1    0.03    0.18
   2  -5   1    0.24    0.11
  -2  -5  -1    0.20    0.15
  -2  -5  -1    0.00    0.12
   2  -5   1    0.18    0.14
  -2  -5   2   65.24    0.90
  -2  -5   2   65.50    0.87
  -2  -5   2   66.12    1.05
   2  -5  -2   66.70    1.01
  -2   5  -2   67.17    1.03
   2  -5  -2   65.54    0.98
   2   5   2   66.78    1.08
  -2  -5  -2   65.94    1.01
  -2   5   2   66.53    1.13
   2  -5   2   66.70    1.10
   2  -5   2   66.85    0.99
   2  -5  -3    0.63    0.20
  -2   5  -3    0.43    0.21
   2  -5  -3    0.39    0.17
   2   5   3    0.29    0.21
  -2  -5   3    0.29    0.21
  -2   5   3    0.35    0.23
   2  -5   3    0.19    0.23
  -2  -5  -3    0.32    0.18
   2  -5   3    0.61    0.20
  -2   5  -4    0.76    0.25
   2  -5  -4    0.56    0.20
   2  -5  -4    0.13    0.21
   2   5   4    0.45    0.24
  -2  -5   4    0.45    0.25
  -2   5   4    0.49    0.28
   2  -5   4    0.47    0.21
   2  -5   4    0.33    0.26
  -2  -5  -4    0.64    0.22
  -2  -5   5    0.14    0.29
   2   5   5    0.24    0.28
  -2   5  -5   -0.15    0.26
   2  -5  -5   -0.27    0.23
  -2  -5  -5    0.13    0.22
   2  -5   5    0.09    0.31
  -2   5   5    0.87    0.32
   2  -5  -6   19.30    0.69
  -2  -5   6   18.28    0.82
   2   5   6   17.62    0.78
  -2   5  -6   18.01    0.76
   2  -5   6   19.18    0.85
  -2   5   6   17.51    0.81
  -2  -5  -6   18.02    0.66
  -2  -5   7    0.54    0.43
   2   5   7    0.21    0.37
  -2   5  -7    0.26    0.35
  -2   5   7    0.37    0.41
   2  -5   7    0.08    0.42
  -2  -6   0   55.52    0.87
   2  -6   0   56.48    0.84
  -2  -6   0   56.74    0.86
   2  -6   0   55.81    0.90
  -2  -6   0   54.76    0.87
  -2   6  -1   22.59    0.51
  -2  -6   1   22.25    0.50
  -2  -6   1   22.55    0.49
  -2  -6   1   23.17    0.60
   2  -6  -1   23.76    0.55
  -2  -6  -1   22.27    0.54
   2  -6   1   23.29    0.56
   2  -6   1   22.60    0.64
  -2  -6  -1   22.66    0.55
  -2   6  -2   24.64    0.60
   2  -6  -2   24.53    0.59
   2  -6  -2   24.39    0.60
  -2  -6   2   24.72    0.65
   2   6   2   23.86    0.65
  -2  -6   2   23.97    0.52
   2  -6   2   24.82    0.58
   2  -6   2   24.43    0.69
  -2   6   2   24.10    0.71
  -2  -6  -2   25.20    0.62
   2  -6  -3   29.97    0.67
  -2   6  -3   29.95    0.75
  -2  -6   3   29.88    0.76
   2  -6  -3   29.97    0.72
   2   6   3   29.86    0.78
  -2  -6  -3   31.88    0.73
   2  -6   3   29.68    0.68
  -2   6   3   30.79    0.84
   2  -6   3   29.58    0.79
  -2   6  -4    1.12    0.28
   2   6   4    0.87    0.29
   2  -6  -4    0.91    0.26
  -2  -6   4    0.95    0.29
   2  -6  -4    0.78    0.23
   2  -6   4    1.28    0.25
   2  -6   4    0.81    0.31
  -2   6   4    0.75    0.31
  -2  -6  -4    0.90    0.25
   2  -6  -5   14.15    0.56
   2  -6  -5   13.90    0.61
   2   6   5   12.36    0.65
  -2  -6   5   14.58    0.70
  -2   6  -5   12.91    0.67
   2  -6   5   14.04    0.72
  -2   6   5   13.06    0.71
  -2  -6  -5   13.46    0.59
   2  -6  -6    0.05    0.24
  -2   6  -6    0.23    0.33
  -2  -6   6    0.25    0.37
   2   6   6    0.53    0.35
   2  -6   6   -0.34    0.38
  -2   6   6    0.15    0.36
  -2  -6   7    0.57    0.46
   2   6   7    1.05    0.41
  -2   6  -7    0.60    0.39
  -2   6   7    0.90    0.44
   2  -6   7    0.76    0.49
  -2  -7   0    4.09    0.30
   2  -7   0    4.12    0.32
  -2  -7   0    4.68    0.32
   2  -7   0    4.07    0.28
   2  -7  -1   34.44    0.71
  -2  -7   1   34.02    0.69
  -2  -7   1   35.32    0.81
   2  -7  -1   33.68    0.73
  -2  -7  -1   34.13    0.72
  -2  -7  -1   35.96    0.74
   2  -7   1   33.74    0.73
   2  -7   1   33.02    0.84
   2  -7  -2   29.35    0.71
  -2  -7   2   27.37    0.61
   2  -7  -2   26.77    0.67
  -2  -7   2   26.92    0.74
  -2  -7  -2   28.05    0.69
  -2  -7  -2   26.05    0.66
   2  -7   2   26.77    0.78
   2  -7   2   28.60    0.67
  -2   7  -3    9.34    0.51
   2  -7  -3    9.80    0.47
   2  -7  -3    9.30    0.49
   2   7   3    9.31    0.55
  -2  -7   3    9.24    0.54
  -2  -7  -3   10.13    0.46
  -2  -7  -3    9.67    0.49
  -2   7   3    8.73    0.57
   2  -7   3    9.43    0.49
   2  -7   3    8.79    0.59
  -2   7  -4   72.96    1.35
   2  -7  -4   74.10    1.26
  -2  -7   4   72.17    1.38
   2  -7  -4   72.34    1.31
   2   7   4   73.80    1.42
  -2  -7  -4   75.64    1.32
  -2   7   4   71.26    1.47
   2  -7   4   74.76    1.44
   2  -7  -5    2.95    0.36
  -2  -7   5    3.45    0.47
  -2   7  -5    3.08    0.42
   2  -7  -5    3.03    0.40
   2   7   5    3.07    0.45
  -2   7   5    3.23    0.47
   2  -7   5    3.42    0.48
  -2  -7  -5    3.04    0.38
  -2  -7   6   40.25    1.23
   2   7   6   40.32    1.20
  -2   7  -6   43.84    1.19
  -2   7   6   41.45    1.26
   2  -7   6   41.85    1.26
   2  -8   0   27.57    0.70
  -2  -8   0   28.04    0.68
  -2  -8   0   28.55    0.66
  -2  -8   1   12.78    0.49
   2  -8  -1   14.20    0.55
  -2  -8   1   11.77    0.59
   2  -8  -1   13.04    0.50
  -2  -8  -1   13.09    0.52
   2  -8   1   13.43    0.53
   2  -8   1   12.98    0.63
  -2  -8  -1   12.59    0.51
   2  -8  -2   13.90    0.56
  -2  -8   2   13.21    0.62
   2  -8  -2   13.79    0.55
   2  -8   2   13.05    0.66
   2  -8   2   13.05    0.54
  -2  -8  -2   13.96    0.54
  -2  -8  -2   15.30    0.59
  -2  -8   3   13.65    0.66
   2  -8  -3   12.32    0.55
   2  -8  -3   12.43    0.60
  -2  -8  -3   13.68    0.62
   2  -8   3   13.43    0.58
  -2  -8  -3   13.93    0.57
   2  -8   3   13.30    0.72
   2  -8  -4    0.77    0.30
   2  -8  -4    1.17    0.30
   2   8   4    0.58    0.34
  -2  -8   4    0.76    0.36
   2  -8   4    0.09    0.35
  -2  -8  -4    0.37    0.26
  -2  -8  -4    0.32    0.28
  -2   8   4    0.94    0.40
   2   8   5    2.85    0.47
  -2  -8   5    2.99    0.50
  -2   8   5    3.18    0.52
   2  -8   5    3.87    0.56
  -2  -8   6    0.35    0.45
   2   8   6    1.04    0.44
   2  -8   6    0.33    0.49
  -2   8   6    0.09    0.40
  -2  -9   0   47.56    0.97
   2  -9   0   47.69    1.00
  -2  -9   0   46.81    1.10
   2  -9  -1    0.49    0.27
  -2  -9   1    0.43    0.31
  -2  -9   1    0.41    0.23
  -2  -9  -1    0.65    0.26
  -2  -9  -1    0.03    0.24
   2  -9   1    0.64    0.28
   2  -9   1    0.17    0.34
  -2  -9   2   18.62    0.76
   2  -9  -2   20.23    0.68
   2  -9  -2   19.13    0.68
  -2  -9  -2   18.74    0.69
  -2  -9  -2   18.86    0.67
   2  -9   2   19.16    0.83
   2  -9   2   19.99    0.70
   2  -9  -3    0.16    0.31
  -2  -9   3    0.46    0.35
  -2  -9  -3   -0.15    0.27
   2  -9   3    0.45    0.39
   2  -9   3    0.04    0.32
  -2  -9   4    0.09    0.40
   2  -9   4    1.01    0.44
   2   9   5   -0.50    0.35
  -2  -9   5    0.49    0.44
   2  -9   5    0.10    0.47
  -2   9   5   -0.09    0.39
  -2 -10   0    6.26    0.55
   2 -10   0    5.98    0.58
  -2 -10   0    7.13    0.48
  -2 -10   1    0.87    0.36
   2 -10   1    0.33    0.39
  -2 -10  -1    0.46    0.53
   2 -10   1    0.42    0.40
  -2 -10   2    2.88    0.48
   2 -10   2    2.30    0.47
  -2 -10  -2    2.25    0.50
  -2 -10   3   -0.16    0.37
   2 -10   3   -0.65    0.39
  -2 -11   0    0.04    0.40
   2 -11   0    0.23    0.44
  -2 -11   1    4.09    0.56
   2 -11   1    4.64    0.59
  -2 -11  -1    5.39    0.58
   3   0   0    0.04    0.07
   3   0  -1    4.77    0.11
   3   0  -1    4.36    0.20
   3   0   1    5.11    0.20
  -3   0  -1    5.10    0.22
  -3   0  -2    1.57    0.16
   3   0   2    1.70    0.16
   3   0  -2    1.52    0.15
   3   0   2    1.34    0.14
  -3   0   2    1.34    0.15
  -3   0  -2    1.62    0.12
  -3   0   3    2.87    0.24
   3   0   3    2.21    0.20
  -3   0  -3    2.94    0.23
   3   0   3    3.14    0.22
   3   0  -3    2.81    0.20
  -3   0  -3    2.48    0.17
   3   0   4    0.18    0.19
  -3   0  -4    0.52    0.18
   3   0  -4    0.53    0.16
   3   0  -4    0.68    0.16
  -3   0   4    0.55    0.21
  -3   0  -4    0.52    0.13
   3   0   4    0.47    0.17
   3   0   5   16.77    0.51
   3   0  -5   15.47    0.49
  -3   0  -5   15.30    0.54
  -3   0   5   16.08    0.59
   3   0   5   16.29    0.59
   3   0  -5   16.89    0.48
   3   0  -6    5.08    0.36
  -3   0  -6    4.38    0.37
  -3   0   6    4.22    0.43
   3   0   6    4.42    0.35
   3   0   6    4.49    0.43
   3   0  -6    4.80    0.37
  -3   0   7   12.05    0.71
   3   0   7   11.99    0.71
  -3   0  -7   11.68    0.62
   3   0   8    0.43    0.42
  -3   0  -8    0.44    0.34
  -3   0   8    0.56    0.43
  -3  -1   0    0.37    0.11
   3  -1   0    0.16    0.09
   3   1   0    0.11    0.08
   3  -1   0    0.30    0.09
  -3   1  -1   73.62    0.90
   3  -1  -1   73.87    0.89
   3   1   1   73.16    0.88
   3  -1  -1   73.44    0.82
   3  -1   1   72.73    0.88
  -3  -1  -1   73.68    0.91
  -3   1  -2    3.06    0.21
   3   1   2    2.94    0.21
   3  -1  -2    3.34    0.22
   3  -1  -2    3.04    0.14
  -3  -1   2    3.01    0.22
  -3   1  -2    3.06    0.12
   3   1   2    3.06    0.21
  -3  -1  -2    3.32    0.22
   3  -1   2    2.53    0.18
  -3   1   2    2.97    0.23
   3  -1   2    3.38    0.22
  -3  -1  -2    3.29    0.18
  -3  -1   3  155.59    1.87
  -3   1  -3  158.80    1.89
  -3  -1   3  157.12    1.62
   3   1   3  155.99    1.87
   3  -1  -3  158.56    1.83
  -3   1  -3  155.04    1.66
   3   1   3  157.21    1.83
  -3  -1  -3  156.87    1.84
   3   1  -3  156.92    1.79
   3  -1   3  157.94    1.82
   3  -1   3  157.62    1.89
  -3   1   3  156.07    1.90
  -3  -1  -3  160.33    1.78
   3   1   4    2.79    0.27
   3  -1  -4    2.82    0.21
   3   1   4    3.05    0.25
  -3   1  -4    2.42    0.17
  -3   1  -4    2.91    0.27
   3  -1  -4    3.13    0.24
  -3  -1   4    2.73    0.27
  -3  -1  -4    3.27    0.22
   3  -1   4    3.13    0.25
  -3  -1  -4    2.82    0.25
  -3   1   4    3.01    0.30
   3   1  -4    2.86    0.22
   3   1  -4    2.55    0.24
   3  -1   4    3.24    0.30
   3   1   5   32.06    0.78
  -3   1  -5   31.00    0.75
  -3  -1   5   31.16    0.78
   3  -1  -5   30.57    0.64
   3   1   5   30.71    0.68
   3  -1  -5   31.16    0.68
  -3  -1  -5   31.54    0.72
   3  -1   5   32.07    0.80
  -3   1   5   29.73    0.76
   3   1  -5   31.43    0.63
   3   1  -5   31.14    0.72
   3  -1   5   30.90    0.66
  -3  -1  -5   31.87    0.62
  -3  -1   6    0.65    0.30
  -3   1  -6    0.64    0.26
   3   1   6    0.31    0.30
   3   1   6    0.76    0.24
   3  -1  -6    0.86    0.23
   3  -1   6    1.17    0.24
   3   1  -6    0.91    0.26
  -3   1   6    1.06    0.32
   3  -1   6    0.41    0.29
  -3  -1  -6    0.39    0.24
  -3  -1   7    1.15    0.38
   3   1   7    1.40    0.29
   3   1   7    0.83    0.38
  -3   1  -7    0.89    0.31
  -3  -1  -7    0.65    0.28
   3  -1   7    0.13    0.34
  -3   1   7    1.58    0.41
   3   1   8    0.36    0.41
  -3   1  -8    0.09    0.32
  -3  -1   8    0.20    0.43
  -3   1   8   -0.23    0.40
   3  -1   8   -0.16    0.41
  -3  -2   0    0.15    0.11
   3  -2   0   -0.08    0.09
   3  -2   0    0.04    0.09
   3  -2  -1    2.76    0.18
   3   2   1    2.75    0.19
  -3  -2   1    2.93    0.11
  -3   2  -1    2.74    0.21
   3  -2  -1    3.02    0.18
   3  -2   1    2.56    0.17
  -3  -2  -1    3.03    0.20
   3  -2   1    3.05    0.21
  -3  -2  -1    2.90    0.22
  -3   2   1    2.80    0.22
  -3  -2   2    8.90    0.16
   3   2   2    8.91    0.29
  -3  -2   2    9.16    0.30
   3   2   2    9.01    0.29
  -3   2  -2    8.65    0.31
   3  -2  -2    8.84    0.24
   3  -2  -2    9.11    0.30
  -3  -2  -2    8.78    0.28
  -3   2   2    9.26    0.33
  -3  -2  -2    9.06    0.29
   3  -2   2    8.95    0.31
   3  -2  -3   48.11    0.77
   3   2   3   47.17    0.80
  -3  -2   3   46.45    0.56
   3   2   3   48.38    0.77
  -3  -2   3   47.49    0.80
  -3   2  -3   47.84    0.82
   3  -2   3   48.56    0.75
  -3  -2  -3   47.63    0.74
  -3   2   3   48.12    0.84
  -3  -2  -3   48.47    0.74
   3  -2   3   48.09    0.82
   3   2   4    4.34    0.30
  -3   2  -4    4.56    0.34
   3   2   4    4.94    0.36
  -3  -2   4    4.60    0.33
   3  -2  -4    4.60    0.30
  -3   2   4    4.01    0.32
  -3  -2  -4    4.34    0.31
   3  -2   4    4.27    0.28
  -3  -2  -4    4.17    0.27
   3  -2   4    4.66    0.35
  -3   2  -5   48.03    0.98
   3   2   5   47.84    0.89
   3   2   5   48.42    1.00
  -3  -2   5   48.89    1.00
   3  -2  -5   48.83    0.91
   3  -2   5   48.58    1.02
  -3  -2  -5   48.94    0.86
   3  -2   5   49.72    0.87
  -3  -2  -5   46.91    0.87
  -3   2   5   48.33    1.02
   3   2   6    0.06    0.20
  -3   2  -6    0.35    0.26
   3   2   6   -0.12    0.27
  -3  -2   6   -0.10    0.28
   3  -2  -6   -0.13    0.21
   3  -2   6   -0.03    0.30
  -3  -2  -6    0.00    0.18
  -3  -2  -6    0.70    0.26
   3  -2   6    0.19    0.22
  -3   2   6   -0.06    0.27
  -3   2  -7   14.46    0.72
  -3  -2   7   14.67    0.77
   3   2   7   15.13    0.76
   3   2   7   13.99    0.58
   3  -2  -7   14.14    0.60
  -3   2   7   13.57    0.76
   3  -2   7   15.53    0.82
  -3   2  -8    1.19    0.38
   3   2   8    0.66    0.43
  -3  -2   8    1.19    0.46
  -3   2   8    1.07    0.45
   3  -2   8    0.64    0.47
   3  -3   0    0.11    0.10
  -3  -3   0    0.04    0.11
   3  -3   0    0.00    0.11
  -3  -3   1   50.84    0.63
   3   3   1   52.24    0.73
   3  -3  -1   51.32    0.71
  -3  -3   1   52.34    0.71
   3  -3  -1   52.28    0.73
  -3   3  -1   52.42    0.73
  -3   3   1   50.01    0.80
   3  -3   1   50.73    0.61
  -3  -3  -1   51.51    0.72
  -3  -3  -1   51.61    0.74
   3  -3   1   51.40    0.73
   3  -3   1   52.99    0.79
  -3  -3   2    2.07    0.13
  -3   3  -2    2.14    0.20
  -3  -3   2    1.90    0.19
   3  -3  -2    2.12    0.17
   3   3   2    2.33    0.20
   3  -3  -2    1.81    0.18
  -3  -3  -2    2.56    0.19
  -3  -3  -2    2.26    0.19
  -3   3   2    2.08    0.22
   3  -3   2    2.22    0.21
   3  -3   2    2.48    0.20
  -3  -3   3  137.91    1.51
   3   3   3  140.98    1.78
   3  -3  -3  140.69    1.65
   3   3   3  142.36    1.74
  -3  -3   3  141.46    1.77
   3  -3  -3  139.87    1.74
  -3   3  -3  139.09    1.79
  -3  -3  -3  142.10    1.72
  -3  -3  -3  143.23    1.67
   3  -3   3  142.22    1.81
   3  -3   3  139.03    1.70
  -3   3   3  140.51    1.84
   3  -3  -4    8.06    0.39
   3   3   4    7.86    0.43
  -3  -3   4    8.36    0.44
  -3   3  -4    7.68    0.42
   3  -3   4    7.25    0.36
  -3  -3  -4    7.65    0.35
   3  -3   4    8.61    0.45
  -3   3   4    7.65    0.46
  -3  -3  -4    7.41    0.36
  -3  -3   5   38.37    0.90
   3   3   5   37.61    0.89
   3  -3  -5   36.74    0.81
   3   3   5   38.61    0.81
  -3   3  -5   37.45    0.88
  -3  -3  -5   37.93    0.77
   3  -3   5   37.12    0.89
  -3   3   5   37.95    0.93
   3  -3   5   36.92    0.77
   3   3   6   13.14    0.66
  -3  -3   6   12.40    0.66
  -3   3  -6   12.99    0.64
   3  -3  -6   12.20    0.53
   3  -3   6   13.25    0.69
  -3   3   6   11.82    0.62
  -3  -3  -6   12.64    0.51
  -3   3  -7   -0.11    0.30
  -3  -3   7   -0.32    0.35
   3  -3  -7   -0.06    0.24
   3   3   7   -0.16    0.33
  -3   3   7    0.27    0.37
   3  -3   7   -0.22    0.38
  -3  -3   8    8.38    0.72
  -3   3  -8    6.66    0.59
   3   3   8    6.59    0.64
  -3   3   8    7.37    0.68
   3  -3   8    7.24    0.69
   3  -4   0    0.19    0.11
   3  -4   0    0.07    0.11
  -3   4   0   -0.08    0.09
  -3  -4   0    0.07    0.12
  -3  -4   0    0.05    0.11
   3  -4  -1    1.89    0.18
  -3  -4   1    2.06    0.19
  -3  -4   1    1.86    0.14
   3  -4  -1    1.83    0.18
  -3   4  -1    1.63    0.16
   3  -4   1    1.46    0.19
   3  -4   1    2.14    0.13
  -3   4   1    1.49    0.19
  -3  -4  -1    2.03    0.18
   3  -4   1    1.60    0.18
  -3  -4  -1    1.47    0.16
  -3  -4   2    2.40    0.15
  -3   4  -2    2.09    0.21
  -3  -4   2    2.77    0.23
   3   4   2    2.71    0.23
   3  -4  -2    2.08    0.21
   3  -4  -2    2.61    0.21
  -3  -4  -2    2.65    0.21
  -3   4   2    2.65    0.27
   3  -4   2    2.26    0.21
   3  -4   2    2.89    0.26
  -3  -4  -2    2.48    0.23
  -3   4  -3    0.12    0.18
   3   4   3    0.36    0.19
   3  -4  -3    0.57    0.16
   3  -4  -3    0.11    0.18
  -3  -4   3    0.48    0.20
  -3  -4  -3    0.05    0.16
   3  -4   3    0.35    0.18
   3  -4   3    0.33    0.21
  -3  -4  -3    0.36    0.14
  -3   4   3    0.24    0.22
   3   4   4   -0.25    0.20
  -3   4  -4   -0.03    0.19
   3  -4  -4   -0.08    0.18
   3  -4  -4    0.12    0.16
  -3  -4   4   -0.37    0.21
  -3   4   4   -0.07    0.22
   3  -4   4   -0.17    0.20
   3  -4   4   -0.08    0.19
  -3  -4  -4    0.05    0.18
   3  -4  -5    0.94    0.25
   3  -4  -5    1.52    0.22
   3   4   5    1.00    0.29
  -3  -4   5    1.10    0.31
  -3   4  -5    0.98    0.28
   3  -4   5    1.33    0.25
   3  -4   5    0.79    0.31
  -3  -4  -5    1.16    0.25
  -3   4   5    1.21    0.32
  -3   4  -6    2.08    0.36
   3   4   6    2.46    0.39
   3  -4  -6    1.70    0.32
  -3  -4   6    2.42    0.40
  -3  -4  -6    2.08    0.31
  -3   4   6    2.17    0.40
   3  -4   6    2.36    0.42
  -3   4  -7    1.97    0.41
  -3  -4   7    3.37    0.49
   3   4   7    2.58    0.47
  -3  -4  -7    2.28    0.35
   3  -4   7    2.11    0.49
  -3   4   7    2.99    0.49
   3  -5   0    0.03    0.12
  -3  -5   0    0.10    0.14
   3  -5   0    0.06    0.14
  -3  -5   0   -0.16    0.12
  -3  -5   0   -0.03    0.13
  -3   5   0   -0.18    0.09
   3  -5  -1   22.90    0.50
  -3  -5   1   22.61    0.48
  -3  -5   1   22.56    0.45
  -3  -5   1   23.02    0.53
  -3   5  -1   22.77    0.49
   3  -5   1   23.13    0.58
  -3  -5  -1   23.60    0.53
   3  -5   1   23.18    0.53
  -3  -5  -1   22.66    0.49
   3  -5   1   23.40    0.40
   3  -5  -2    6.60    0.35
  -3  -5   2    6.34    0.35
   3  -5  -2    6.55    0.33
  -3   5  -2    6.97    0.35
   3   5   2    7.02    0.36
  -3  -5   2    6.37    0.26
  -3   5   2    7.01    0.42
  -3  -5  -2    7.30    0.35
   3  -5   2    6.90    0.34
  -3  -5  -2    5.92    0.30
   3  -5   2    6.33    0.40
   3   5   3   68.98    1.15
   3  -5  -3   68.77    1.11
   3  -5  -3   68.47    1.05
  -3   5  -3   68.40    1.13
  -3  -5   3   69.25    1.13
  -3  -5  -3   67.46    1.09
   3  -5   3   68.67    1.19
  -3   5   3   69.44    1.24
   3  -5   3   68.13    1.07
   3   5   4   16.61    0.60
  -3   5  -4   16.33    0.59
  -3  -5   4   14.59    0.58
   3  -5  -4   15.41    0.49
   3  -5  -4   15.22    0.55
  -3   5   4   17.23    0.67
   3  -5   4   15.38    0.61
  -3  -5  -4   14.74    0.53
   3  -5   4   16.53    0.54
   3   5   5   12.69    0.61
   3  -5  -5   11.62    0.54
  -3  -5   5   12.37    0.63
  -3   5  -5   11.39    0.61
   3  -5  -5   11.96    0.49
  -3   5   5   12.23    0.66
   3  -5   5   12.48    0.65
  -3  -5  -5   12.58    0.53
   3  -5   5   11.39    0.53
   3  -5  -6   11.07    0.58
  -3   5  -6   12.04    0.70
   3   5   6   13.34    0.70
  -3  -5   6   10.89    0.69
   3  -5   6   11.25    0.74
  -3  -5  -6    9.86    0.57
  -3   5   6   12.08    0.72
  -3   5  -7    1.99    0.42
  -3  -5   7    1.65    0.47
   3   5   7    1.57    0.43
  -3   5   7    1.33    0.46
   3  -5   7    1.85    0.50
  -3  -6   0    0.08    0.16
   3  -6   0   -0.01    0.14
  -3  -6   0    0.04    0.16
  -3  -6   0    0.10    0.15
   3  -6   0   -0.06    0.17
  -3  -6   1    0.80    0.21
  -3   6  -1    0.70    0.17
  -3  -6   1    0.71    0.17
   3  -6  -1    0.71    0.19
   3  -6  -1    0.64    0.19
  -3  -6   1    0.78    0.17
   3  -6   1    0.66    0.19
   3  -6   1    0.65    0.21
  -3  -6  -1    0.38    0.17
  -3  -6  -1    0.73    0.20
  -3  -6  -1    0.79    0.18
  -3  -6   2    3.00    0.29
   3  -6  -2    2.48    0.27
   3  -6  -2    2.73    0.25
  -3  -6   2    3.77    0.24
  -3   6  -2    3.30    0.28
  -3   6   2    2.77    0.33
   3  -6   2    2.77    0.27
   3  -6   2    2.89    0.34
  -3  -6  -2    2.61    0.27
   3   6   3    4.07    0.36
   3  -6  -3    3.86    0.30
  -3  -6   3    4.26    0.36
  -3   6  -3    4.04    0.35
   3  -6  -3    3.90    0.34
  -3   6   3    4.06    0.42
   3  -6   3    3.60    0.38
  -3  -6  -3    3.78    0.32
   3  -6   3    4.40    0.34
  -3  -6   4    0.16    0.27
   3  -6  -4    0.87    0.27
   3   6   4    0.83    0.28
  -3   6  -4    0.54    0.27
   3  -6  -4    0.38    0.22
  -3  -6  -4    0.73    0.25
   3  -6   4    1.04    0.26
   3  -6   4    0.30    0.31
  -3   6   4    0.56    0.30
  -3   6  -5    2.78    0.40
   3  -6  -5    2.65    0.36
  -3  -6   5    2.53    0.41
   3   6   5    2.81    0.38
   3  -6  -5    3.04    0.33
   3  -6   5    2.78    0.43
  -3  -6  -5    3.28    0.37
  -3   6   5    2.68    0.44
  -3  -6   6    0.06    0.37
  -3   6  -6   -0.20    0.32
   3   6   6    0.00    0.32
   3  -6  -6    0.25    0.25
   3  -6   6    0.09    0.41
  -3   6   6   -0.01    0.37
  -3  -6   7    1.08    0.47
  -3   6  -7    0.40    0.38
   3   6   7    1.28    0.42
   3  -6   7    0.64    0.50
  -3   6   7    0.19    0.40
  -3  -7   0   -0.15    0.16
  -3  -7   0    0.14    0.18
  -3  -7   0    0.40    0.18
   3  -7   0    0.22    0.20
  -3  -7   1   17.44    0.48
  -3  -7   1   16.93    0.48
   3  -7  -1   17.25    0.52
  -3  -7   1   18.42    0.58
   3  -7  -1   16.93    0.53
  -3  -7  -1   17.95    0.54
   3  -7   1   17.71    0.55
   3  -7   1   16.74    0.63
  -3  -7  -1   18.13    0.55
   3  -7  -2    1.56    0.26
   3  -7  -2    1.21    0.24
  -3  -7   2    1.68    0.28
  -3   7  -2    1.82    0.25
   3  -7   2    1.28    0.26
  -3  -7  -2    1.13    0.24
  -3  -7  -2    1.72    0.27
   3  -7   2    1.28    0.32
   3  -7  -3   60.42    1.13
  -3  -7   3   59.62    1.16
   3  -7  -3   60.26    1.07
  -3   7  -3   61.46    1.14
   3   7   3   59.88    1.18
   3  -7   3   61.37    1.09
  -3   7   3   62.23    1.29
   3  -7   3   59.73    1.24
  -3  -7  -3   59.56    1.12
   3   7   4    8.70    0.55
   3  -7  -4    7.43    0.49
  -3   7  -4    7.87    0.55
  -3  -7   4    7.13    0.51
   3  -7  -4    8.68    0.50
   3  -7   4    7.63    0.52
   3  -7   4    6.79    0.54
  -3  -7  -4    8.06    0.51
  -3   7   4    7.20    0.58
   3  -7  -5   18.90    0.67
   3  -7  -5   19.75    0.76
  -3   7  -5   17.57    0.75
   3   7   5   19.11    0.81
  -3  -7   5   17.13    0.79
   3  -7   5   19.21    0.90
  -3  -7  -5   18.70    0.73
  -3   7   5   17.78    0.87
  -3  -7   6   10.52    0.75
   3   7   6   12.22    0.77
  -3   7  -6   10.27    0.74
   3  -7   6   13.15    0.87
  -3   7   6   12.47    0.83
  -3  -8   0   -0.06    0.22
  -3  -8   0   -0.10    0.19
  -3  -8   0    0.27    0.21
   3  -8   0   -0.10    0.22
  -3  -8   1    1.20    0.24
   3  -8  -1    1.32    0.27
   3  -8  -1    0.83    0.24
  -3  -8   1    0.96    0.28
  -3  -8   1    1.00    0.31
  -3  -8  -1    0.78    0.24
  -3  -8  -1    1.11    0.26
   3  -8   1    1.34    0.32
   3  -8   1    1.09    0.27
  -3  -8   2    1.81    0.33
   3  -8  -2    2.47    0.32
   3  -8  -2    2.34    0.32
  -3  -8  -2    1.92    0.30
   3  -8   2    2.55    0.33
  -3  -8  -2    2.25    0.31
   3  -8   2    2.18    0.37
   3  -8  -3    6.13    0.44
   3  -8  -3    6.33    0.47
  -3   8  -3    6.11    0.44
  -3  -8   3    7.56    0.56
   3  -8   3    5.84    0.45
  -3  -8  -3    5.92    0.42
  -3  -8  -3    5.74    0.44
   3  -8   3    5.55    0.54
  -3  -8   4    0.58    0.36
   3   8   4    0.31    0.30
  -3   8  -4    0.32    0.28
   3  -8  -4    0.96    0.34
   3  -8  -4    0.54    0.28
  -3   8   4    0.94    0.39
  -3  -8  -4    0.07    0.28
   3  -8   4    0.71    0.37
  -3  -8  -4    0.71    0.26
   3   8   5    3.79    0.49
  -3   8  -5    3.75    0.47
  -3  -8   5    4.05    0.53
   3  -8   5    3.95    0.56
  -3   8   5    4.05    0.54
  -3  -9   0    0.12    0.23
  -3  -9   0    0.28    0.28
   3  -9   0   -0.01    0.24
  -3  -9   1    6.88    0.51
   3  -9  -1    6.52    0.45
   3  -9   1    6.86    0.46
  -3  -9  -1    7.59    0.48
   3  -9   1    7.34    0.58
  -3  -9  -1    7.19    0.47
   3  -9  -2    0.83    0.28
  -3  -9   2    0.96    0.34
   3  -9  -2    0.52    0.29
  -3  -9  -2    0.81    0.29
   3  -9   2    1.34    0.39
   3  -9   2    1.22    0.33
  -3  -9  -2    0.67    0.28
   3  -9  -3   23.31    0.80
  -3  -9   3   21.64    0.86
   3  -9   3   21.91    0.77
  -3  -9  -3   22.25    0.84
   3  -9   3   22.45    0.93
  -3  -9   4    3.18    0.50
   3  -9   4    2.74    0.52
  -3  -9   5    4.38    0.59
   3   9   5    4.08    0.53
  -3   9   5    4.40    0.60
   3  -9   5    3.34    0.57
   3 -10   0   -0.79    0.34
  -3 -10   0    0.01    0.26
  -3 -10   0   -0.06    0.31
  -3 -10   1    0.25    0.33
   3 -10   1    0.43    0.41
  -3 -10   2    0.37    0.38
   3 -10   2    0.63    0.43
  -3 -10   3    0.09    0.38
   3 -10   3   -0.41    0.40
   3 -11   0    0.35    0.43
   3 -11   1    4.12    0.57
  -4   0   0  572.65    5.76
   4   0   0  575.23    5.74
   4   0  -1  246.13    2.48
  -4   0   1  247.53    2.58
   4   0   1  246.74    2.59
  -4   0  -1  248.73    2.63
  -4   0  -2  233.63    2.55
   4   0  -2  231.84    2.33
   4   0  -2  233.69    2.52
  -4   0   2  233.12    2.52
  -4   0  -2  234.88    2.43
   4   0   2  229.71    2.49
   4   0   2  234.06    2.52
   4   0   3  195.24    2.27
   4   0  -3  199.93    2.24
  -4   0  -3  199.69    2.29
  -4   0   3  196.98    2.28
  -4   0  -3  196.33    2.13
   4   0  -3  197.24    2.02
   4   0   3  197.82    2.25
  -4   0  -4    4.02    0.30
  -4   0   4    3.31    0.30
   4   0   4    4.59    0.35
   4   0   4    4.18    0.30
  -4   0  -4    4.06    0.23
   4   0  -4    4.20    0.30
   4   0   5   71.63    1.14
   4   0  -5   72.63    1.12
  -4   0   5   72.40    1.26
  -4   0  -5   72.98    1.21
   4   0   5   72.86    1.24
   4   0   6    4.98    0.45
   4   0  -6    5.06    0.36
  -4   0  -6    5.53    0.42
   4   0   6    5.67    0.39
  -4   0   6    4.95    0.44
   4   0   7    3.67    0.48
  -4   0  -7    4.13    0.42
  -4   0   7    4.50    0.50
   4   0   7    4.42    0.40
  -4   0   8    1.17    0.47
  -4   0  -8    1.10    0.36
   4   0   8    0.54    0.43
   4  -1   0    0.15    0.10
  -4  -1   0    0.06    0.12
  -4   1   0   -0.12    0.12
   4   1   0   -0.01    0.09
   4  -1  -1    0.15    0.12
   4   1   1    0.16    0.11
   4  -1  -1    0.21    0.08
  -4   1  -1   -0.20    0.11
  -4  -1   1    0.15    0.12
   4   1  -1    0.18    0.05
  -4  -1  -1    0.36    0.14
   4  -1   1    0.09    0.10
   4  -1   1    0.01    0.12
  -4   1   1    0.37    0.12
   4   1   2   19.93    0.40
  -4  -1   2   19.87    0.40
  -4   1  -2   18.78    0.43
   4  -1  -2   19.62    0.42
  -4   1  -2   19.16    0.31
   4   1   2   19.32    0.41
   4  -1  -2   19.18    0.31
   4  -1   2   19.52    0.41
  -4  -1  -2   19.97    0.38
  -4  -1  -2   19.32    0.43
  -4   1   2   19.21    0.43
   4  -1   2   19.81    0.42
   4  -1  -3    0.10    0.14
  -4   1  -3    0.16    0.15
   4   1   3   -0.04    0.14
  -4  -1   3    0.12    0.15
   4   1   3    0.17    0.14
  -4   1  -3    0.12    0.08
   4  -1  -3    0.14    0.09
  -4  -1  -3    0.12    0.11
  -4   1   3    0.05    0.15
   4  -1   3   -0.01    0.15
  -4  -1  -3    0.18    0.14
   4  -1   3   -0.18    0.15
  -4  -1   4   70.60    1.12
   4   1   4   70.10    1.07
  -4   1  -4   71.40    1.13
   4  -1  -4   71.46    1.07
   4   1   4   70.10    1.12
  -4  -1  -4   72.37    0.99
  -4   1   4   68.80    1.14
  -4  -1  -4   72.41    1.10
   4  -1   4   70.32    1.14
   4   1  -4   72.70    1.03
   4  -1   4   70.27    1.06
  -4  -1   5    0.46    0.25
   4   1   5    0.43    0.25
  -4   1  -5    0.49    0.22
   4   1   5    0.82    0.22
   4  -1  -5    0.55    0.20
  -4  -1  -5    0.15    0.20
  -4   1   5    0.37    0.26
   4  -1   5    1.02    0.28
   4   1  -5    0.45    0.18
   4  -1   5    0.99    0.23
  -4  -1  -5    0.54    0.17
   4   1   6   45.68    1.08
  -4   1  -6   45.67    1.01
   4   1   6   45.39    0.94
  -4  -1   6   47.94    1.10
   4  -1  -6   44.87    0.92
   4  -1   6   45.97    1.08
   4  -1   6   46.44    0.92
  -4  -1  -6   47.41    0.99
  -4   1   6   44.32    1.07
  -4   1  -7    2.13    0.37
   4   1   7    2.75    0.35
   4   1   7    2.98    0.45
  -4  -1   7    2.56    0.45
  -4   1   7    2.67    0.45
  -4  -1  -7    2.72    0.37
   4  -1   7    1.96    0.43
  -4  -1   8    4.94    0.59
  -4   1  -8    6.08    0.56
   4   1   8    5.17    0.60
  -4   1   8    5.67    0.61
   4  -1   8    4.31    0.58
  -4   2   0    0.33    0.15
  -4  -2   0    0.24    0.12
   4  -2   0    0.32    0.10
   4   2   0    0.15    0.09
   4  -2   0    0.33    0.11
   4   2   1    0.74    0.13
  -4  -2   1    0.79    0.14
   4  -2  -1    0.84    0.13
   4  -2  -1    0.60    0.11
  -4   2  -1    0.87    0.14
  -4   2   1    0.72    0.14
   4  -2   1    0.79    0.15
  -4  -2  -1    0.63    0.15
   4  -2   1    1.09    0.15
   4  -2  -2   18.45    0.43
  -4  -2   2   18.56    0.40
   4  -2  -2   18.40    0.35
   4   2   2   18.48    0.39
  -4   2  -2   18.71    0.44
   4  -2   2   18.46    0.42
  -4  -2  -2   18.38    0.43
   4  -2   2   18.13    0.44
  -4  -2  -2   19.00    0.40
  -4   2   2   18.05    0.45
   4  -2  -3    0.23    0.11
  -4  -2   3    0.32    0.16
   4   2   3    0.48    0.17
  -4   2  -3    0.27    0.17
   4   2   3    0.13    0.15
   4  -2  -3    0.08    0.15
  -4   2  -3    0.27    0.06
  -4  -2  -3    0.11    0.13
  -4  -2  -3    0.30    0.15
   4  -2   3    0.42    0.18
  -4   2   3    0.23    0.18
   4  -2   3    0.14    0.16
  -4  -2   4   51.15    0.92
   4   2   4   49.15    0.87
   4  -2  -4   51.20    0.73
   4  -2  -4   48.75    0.87
   4   2   4   48.71    0.90
  -4   2  -4   50.88    0.94
  -4   2   4   50.12    0.96
   4  -2   4   48.29    0.85
  -4  -2  -4   50.48    0.86
   4  -2   4   50.24    0.95
  -4  -2  -4   50.37    0.82
   4   2   5    2.93    0.29
  -4  -2   5    3.74    0.37
   4  -2  -5    3.33    0.31
  -4   2  -5    3.39    0.34
   4   2   5    3.28    0.35
   4  -2   5    3.69    0.32
   4  -2   5    3.96    0.38
  -4   2   5    3.16    0.35
  -4  -2  -5    4.00    0.29
  -4  -2  -5    3.88    0.32
   4   2   6   39.81    0.99
  -4   2  -6   40.21    0.98
   4  -2  -6   39.82    0.89
  -4  -2   6   40.19    1.00
   4   2   6   38.52    0.87
  -4   2   6   40.36    1.02
  -4  -2  -6   41.39    0.91
   4  -2   6   41.98    1.05
   4  -2   6   40.57    0.88
  -4  -2  -6   38.55    0.83
   4   2   7   -0.09    0.34
   4  -2  -7    0.03    0.25
   4   2   7    0.32    0.25
  -4  -2   7    0.61    0.38
  -4   2  -7    0.04    0.30
   4  -2   7    0.63    0.38
  -4   2   7    0.36    0.35
   4   2   8    5.70    0.62
  -4  -2   8    4.83    0.60
  -4   2  -8    4.12    0.52
   4  -2   8    4.63    0.59
  -4   2   8    5.53    0.61
  -4  -3   0   38.49    0.62
   4  -3   0   38.32    0.60
   4  -3   0   37.79    0.56
  -4   3   0   37.08    0.53
   4   3   1   62.61    0.82
  -4  -3   1   62.89    0.74
  -4  -3   1   62.44    0.82
  -4   3  -1   61.93    0.86
   4  -3  -1   61.68    0.83
   4  -3  -1   63.86    0.86
   4  -3   1   62.18    0.74
  -4  -3  -1   62.75    0.88
  -4   3   1   61.40    0.93
  -4  -3  -1   62.33    0.87
   4  -3   1   63.32    0.91
   4  -3   1   63.40    0.87
   4  -3  -2    5.87    0.29
   4   3   2    6.33    0.27
  -4  -3   2    6.16    0.28
   4   3   2    5.94    0.28
   4  -3  -2    6.28    0.25
  -4  -3   2    5.87    0.16
  -4   3  -2    5.69    0.30
  -4  -3  -2    6.35    0.30
   4  -3   2    6.08    0.32
  -4   3   2    6.28    0.31
   4  -3   2    5.74    0.29
   4  -3  -3   20.20    0.51
   4   3   3   19.91    0.50
  -4   3  -3   18.68    0.53
   4  -3  -3   19.52    0.43
   4   3   3   19.77    0.52
  -4  -3   3   21.28    0.53
  -4  -3  -3   20.04    0.48
  -4  -3  -3   19.90    0.48
   4  -3   3   20.05    0.55
   4  -3   3   19.51    0.50
  -4   3   3   19.16    0.57
   4  -3  -4   14.11    0.49
  -4   3  -4   13.89    0.52
   4   3   4   14.76    0.48
  -4  -3   4   14.45    0.53
   4   3   4   14.52    0.52
   4  -3  -4   14.90    0.40
  -4  -3  -4   13.96    0.45
  -4   3   4   14.46    0.56
   4  -3   4   14.74    0.55
   4  -3   4   14.41    0.50
  -4  -3  -4   14.44    0.46
   4   3   5    4.58    0.35
  -4   3  -5    4.69    0.38
   4   3   5    5.30    0.42
  -4  -3   5    4.25    0.40
   4  -3  -5    4.39    0.35
   4  -3   5    4.55    0.41
  -4  -3  -5    4.90    0.34
  -4  -3  -5    4.85    0.34
   4  -3   5    5.56    0.38
  -4   3   5    4.42    0.42
   4   3   6   27.14    0.74
   4  -3  -6   27.99    0.78
  -4   3  -6   26.98    0.84
  -4  -3   6   27.01    0.86
   4   3   6   26.90    0.85
  -4  -3  -6   27.29    0.70
   4  -3   6   28.66    0.76
   4  -3   6   26.81    0.90
  -4   3   6   26.70    0.89
  -4   3  -7    0.29    0.33
   4  -3  -7    0.31    0.27
   4   3   7    0.86    0.36
  -4  -3   7    0.16    0.36
  -4   3   7    0.82    0.40
   4  -3   7   -0.31    0.39
  -4   3  -8    3.42    0.50
  -4  -3   8    2.95    0.55
   4   3   8    4.01    0.55
  -4   3   8    3.46    0.57
   4  -3   8    4.67    0.63
  -4  -4   0  168.60    1.95
  -4  -4   0  170.40    1.94
   4  -4   0  166.99    1.94
   4  -4   0  169.50    1.87
  -4   4   0  165.23    1.83
  -4  -4   1   56.74    0.74
  -4  -4   1   57.78    0.82
  -4   4  -1   57.33    0.83
   4  -4  -1   58.26    0.84
   4  -4  -1   57.83    0.85
   4  -4   1   57.94    0.92
  -4  -4  -1   57.28    0.86
   4  -4   1   57.31    0.86
  -4  -4  -1   57.91    0.86
   4  -4   1   56.76    0.72
   4  -4  -2   67.94    0.96
   4   4   2   66.91    0.98
  -4  -4   2   66.52    0.97
  -4   4  -2   67.19    1.01
  -4  -4   2   66.75    0.82
   4  -4  -2   66.49    1.00
   4  -4   2   67.82    1.06
  -4   4   2   68.15    1.11
  -4  -4  -2   65.96    0.97
   4  -4   2   66.55    0.99
  -4  -4  -2   68.29    1.01
  -4   4  -3   77.17    1.19
   4  -4  -3   77.92    1.16
  -4  -4   3   77.61    1.16
   4  -4  -3   77.32    1.07
   4   4   3   77.45    1.16
   4  -4   3   75.50    1.22
  -4   4   3   76.25    1.26
  -4  -4  -3   77.65    1.09
  -4  -4  -3   75.84    1.14
   4  -4   3   76.76    1.13
  -4   4  -4   -0.01    0.20
   4  -4  -4    0.05    0.14
  -4  -4   4   -0.03    0.22
   4  -4  -4   -0.05    0.20
   4   4   4    0.13    0.21
   4  -4   4   -0.23    0.20
  -4   4   4   -0.29    0.24
  -4  -4  -4    0.07    0.18
   4  -4   4   -0.16    0.21
   4  -4  -5   40.00    0.76
   4  -4  -5   39.61    0.89
  -4  -4   5   40.21    0.95
  -4   4  -5   41.17    0.97
   4   4   5   40.35    0.94
   4  -4   5   38.65    0.98
   4  -4   5   40.95    0.86
  -4  -4  -5   39.18    0.85
  -4   4   5   38.53    1.00
   4  -4  -6    4.78    0.42
  -4   4  -6    4.27    0.45
  -4  -4   6    5.56    0.51
   4   4   6    4.48    0.47
   4  -4   6    4.99    0.53
  -4  -4  -6    5.43    0.41
  -4   4   6    5.37    0.51
  -4   4  -7    4.06    0.51
  -4  -4   7    3.85    0.51
   4   4   7    2.80    0.47
  -4   4   7    2.72    0.48
  -4  -4  -7    2.90    0.36
   4  -4   7    3.05    0.52
  -4  -5   0    9.07    0.36
   4  -5   0    9.14    0.35
  -4   5   0    8.51    0.34
  -4  -5   0    8.70    0.30
  -4  -5   0    8.37    0.33
   4  -5   0    9.19    0.31
   4  -5  -1   26.74    0.57
  -4  -5   1   27.16    0.55
  -4   5  -1   27.61    0.55
   4  -5  -1   28.65    0.58
  -4  -5   1   28.01    0.50
  -4  -5   1   28.52    0.58
   4  -5   1   27.79    0.60
  -4  -5  -1   27.67    0.58
   4  -5   1   27.82    0.66
  -4  -5  -1   28.20    0.60
   4  -5   1   28.15    0.53
   4  -5  -2   43.07    0.75
  -4   5  -2   41.90    0.77
   4   5   2   41.53    0.78
   4  -5  -2   42.05    0.78
  -4  -5   2   41.43    0.70
  -4  -5   2   41.66    0.77
  -4   5   2   43.58    0.90
   4  -5   2   42.68    0.87
   4  -5   2   42.70    0.77
  -4  -5  -2   41.97    0.74
  -4  -5  -2   42.07    0.78
  -4  -5   3    8.10    0.41
   4  -5  -3    7.46    0.41
   4  -5  -3    7.12    0.37
   4   5   3    7.50    0.42
  -4   5  -3    7.05    0.41
  -4   5   3    7.16    0.48
   4  -5   3    6.99    0.40
   4  -5   3    7.83    0.49
  -4  -5  -3    7.10    0.38
   4   5   4   82.28    1.35
  -4  -5   4   80.32    1.34
   4  -5  -4   81.31    1.21
   4  -5  -4   78.77    1.30
  -4   5  -4   82.65    1.37
  -4   5   4   79.91    1.45
   4  -5   4   80.32    1.40
   4  -5   4   81.15    1.27
  -4  -5  -4   78.98    1.27
  -4   5  -5    6.56    0.50
   4  -5  -5    5.43    0.43
  -4  -5   5    6.72    0.50
   4   5   5    5.64    0.45
   4  -5  -5    7.14    0.38
  -4   5   5    5.03    0.46
  -4  -5  -5    6.36    0.44
   4  -5   5    5.10    0.47
   4  -5   5    4.60    0.39
   4  -5  -6   39.15    0.97
   4   5   6   38.64    1.07
  -4  -5   6   36.90    1.07
  -4   5  -6   37.11    1.06
  -4  -5  -6   37.54    0.93
   4  -5   6   38.17    1.14
  -4   5   6   37.45    1.12
  -4  -5   7    5.00    0.59
  -4   5  -7    3.62    0.50
   4   5   7    3.68    0.51
   4  -5   7    3.38    0.57
  -4   5   7    4.36    0.57
  -4  -6   0   13.99    0.44
  -4  -6   0   14.47    0.47
  -4  -6   0   14.78    0.42
   4  -6   0   13.98    0.46
   4  -6   0   13.78    0.40
  -4  -6   1    6.80    0.36
  -4   6  -1    6.57    0.32
  -4  -6   1    6.65    0.39
   4  -6  -1    7.22    0.37
  -4  -6   1    7.03    0.32
  -4  -6   1    6.79    0.33
   4  -6  -1    7.27    0.36
  -4  -6  -1    6.46    0.37
   4  -6   1    6.36    0.37
   4  -6   1    7.56    0.46
  -4  -6  -1    7.06    0.37
   4  -6  -2    0.86    0.21
  -4  -6   2    1.16    0.24
  -4  -6   2    0.95    0.18
  -4   6  -2    1.26    0.22
   4  -6  -2    1.06    0.23
   4  -6   2    0.92    0.28
  -4  -6  -2    1.34    0.24
   4  -6   2    1.11    0.24
   4   6   3   11.14    0.50
  -4  -6   3   11.60    0.52
   4  -6  -3   11.70    0.46
  -4   6  -3   11.71    0.52
   4  -6  -3   11.90    0.52
   4  -6   3   11.60    0.58
   4  -6   3   11.95    0.50
  -4   6   3   11.88    0.61
  -4  -6  -3   11.97    0.49
   4  -6  -4    8.62    0.44
   4  -6  -4    8.28    0.52
   4   6   4    8.08    0.49
  -4  -6   4    8.99    0.55
  -4   6  -4    9.48    0.55
  -4  -6  -4    9.50    0.51
  -4   6   4    9.26    0.61
   4  -6   4   10.28    0.61
   4  -6   4    8.92    0.52
  -4  -6   5    6.34    0.51
   4  -6  -5    6.48    0.47
   4  -6  -5    7.10    0.46
  -4   6  -5    6.55    0.53
   4   6   5    7.05    0.52
  -4  -6  -5    7.21    0.49
   4  -6   5    7.57    0.49
  -4   6   5    8.38    0.63
   4  -6   5    7.50    0.60
   4   6   6   15.04    0.74
  -4   6  -6   15.63    0.77
  -4  -6   6   14.71    0.80
   4  -6   6   15.31    0.86
  -4   6   6   14.59    0.83
  -4  -6   7    0.06    0.44
   4   6   7    0.28    0.38
  -4   6  -7    0.34    0.38
  -4   6   7    0.33    0.41
   4  -6   7   -0.21    0.46
  -4  -7   0   24.34    0.62
  -4  -7   0   23.45    0.59
   4  -7   0   23.84    0.63
  -4  -7   0   24.69    0.57
  -4  -7   0   24.92    0.65
   4  -7  -1   38.79    0.80
  -4  -7   1   39.28    0.75
  -4  -7   1   39.84    0.83
  -4  -7   1   38.90    0.72
   4  -7  -1   38.08    0.77
  -4  -7   1   38.09    0.81
   4  -7   1   40.77    0.94
  -4  -7  -1   38.62    0.77
  -4  -7  -1   38.30    0.82
   4  -7   1   39.89    0.82
   4  -7  -2    7.54    0.43
  -4   7  -2    7.45    0.41
  -4  -7   2    8.49    0.46
   4  -7  -2    8.55    0.45
  -4  -7  -2    7.45    0.46
   4  -7   2    7.76    0.46
   4  -7   2    8.55    0.54
  -4  -7   3   18.14    0.65
  -4   7  -3   18.79    0.65
   4  -7  -3   19.47    0.60
   4  -7  -3   18.29    0.64
   4   7   3   20.52    0.66
  -4  -7  -3   20.90    0.67
   4  -7   3   19.68    0.76
   4  -7   3   19.04    0.64
  -4   7   3   19.25    0.74
   4  -7  -4    2.06    0.31
  -4   7  -4    2.13    0.36
   4   7   4    1.98    0.34
  -4  -7   4    2.12    0.36
   4  -7  -4    2.16    0.34
  -4   7   4    2.14    0.40
   4  -7   4    2.05    0.40
  -4  -7  -4    1.92    0.33
   4  -7   4    2.66    0.35
  -4   7  -5    5.18    0.50
   4   7   5    5.38    0.50
  -4  -7   5    5.40    0.53
   4  -7  -5    6.30    0.44
   4  -7   5    6.13    0.59
  -4   7   5    6.29    0.60
   4   7   6   10.43    0.73
  -4  -7   6    9.06    0.68
  -4   7  -6    8.59    0.66
   4  -7   6    8.94    0.74
  -4   7   6    8.20    0.71
  -4  -8   0   12.24    0.50
   4  -8   0   12.89    0.53
  -4  -8   0   12.98    0.55
  -4  -8   0   13.30    0.50
  -4  -8   1    1.38    0.29
   4  -8  -1    1.54    0.28
  -4  -8   1    1.92    0.29
  -4  -8  -1    1.82    0.28
  -4  -8  -1    2.23    0.29
   4  -8   1    1.61    0.35
   4  -8   1    1.72    0.31
   4  -8  -2    2.62    0.33
   4  -8  -2    1.79    0.31
  -4  -8   2    2.50    0.34
   4  -8   2    1.63    0.32
   4  -8   2    2.32    0.40
  -4  -8  -2    1.65    0.29
  -4  -8  -2    2.14    0.31
  -4  -8   3    6.65    0.50
   4  -8  -3    6.68    0.46
   4  -8  -3    6.82    0.50
   4  -8   3    6.57    0.47
  -4  -8  -3    6.81    0.49
   4  -8   3    5.92    0.52
  -4  -8  -3    6.61    0.46
   4   8   4    3.61    0.42
  -4  -8   4    3.31    0.43
   4  -8  -4    2.62    0.39
   4  -8  -4    2.90    0.36
  -4   8  -4    4.00    0.43
   4  -8   4    3.34    0.41
  -4  -8  -4    3.87    0.55
   4  -8   4    3.29    0.50
  -4   8   4    2.56    0.44
  -4  -8   5    6.56    0.61
  -4   8  -5    6.63    0.56
   4  -8   5    6.36    0.66
  -4   8   5    6.43    0.65
   4  -9   0    2.42    0.33
  -4  -9   0    2.25    0.30
  -4  -9   1    8.36    0.62
   4  -9  -1    9.46    0.55
   4  -9   1    8.72    0.55
   4  -9   1    8.43    0.65
  -4  -9  -1    8.69    0.52
  -4  -9  -1    9.36    0.52
  -4  -9   2   10.38    0.59
   4  -9  -2    9.78    0.56
  -4  -9   2   10.52    0.64
   4  -9   2   11.43    0.74
   4  -9   2   11.18    0.63
  -4  -9  -2   11.61    0.55
  -4  -9  -2   11.48    0.57
   4  -9  -3    3.91    0.43
  -4  -9   3    3.80    0.47
   4  -9   3    3.41    0.42
   4  -9   3    3.51    0.53
  -4  -9   4   25.06    0.96
   4  -9   4   29.01    1.08
   4 -10   0   23.29    0.94
   4 -10   1   10.99    0.77
   4 -10   2    8.90    0.71
   4 -10   3   15.01    0.90
   4 -11   0    2.34    0.51
   5   0   0    0.08    0.10
  -5   0   0   -0.01    0.13
   5   0   1   42.74    0.63
  -5   0   1   42.95    0.63
   5   0  -1   42.11    0.52
  -5   0  -1   42.67    0.67
   5   0   2   78.84    1.04
   5   0  -2   78.82    0.84
  -5   0   2   79.09    1.00
   5   0   2   78.89    0.99
  -5   0  -2   79.73    1.08
  -5   0   2   79.54    1.02
  -5   0  -3   83.13    1.02
  -5   0   3   81.70    1.15
   5   0   3   81.31    1.13
  -5   0  -3   81.44    1.17
   5   0  -3   81.84    0.88
   5   0   3   80.51    1.12
   5   0  -3   82.20    1.13
  -5   0  -4   61.42    1.04
   5   0   4   62.69    1.00
  -5   0   4   63.85    1.06
   5   0  -4   64.38    0.99
  -5   0  -4   62.89    0.86
   5   0   4   60.73    1.03
  -5   0   5   14.20    0.57
   5   0   5   13.85    0.51
   5   0   5   14.17    0.58
  -5   0  -5   13.86    0.54
   5   0  -5   14.89    0.50
   5   0   6   27.79    0.84
   5   0   6   28.89    0.75
   5   0  -6   29.46    0.73
  -5   0  -6   28.38    0.80
  -5   0   6   27.01    0.85
   5   0   7    4.40    0.51
  -5   0   7    5.09    0.51
   5   0   7    4.28    0.41
  -5   0  -7    5.24    0.47
  -5   0   8   13.52    0.85
   5   0   8   11.44    0.81
  -5   0  -8   11.17    0.73
  -5  -1   0    0.05    0.12
   5   1   0   -0.01    0.09
   5  -1   0    0.08    0.10
  -5   1   0    0.17    0.12
   5  -1  -1    7.98    0.21
  -5  -1   1    8.30    0.29
   5  -1  -1    8.57    0.29
   5   1   1    7.99    0.26
  -5   1  -1    8.18    0.29
   5  -1   1    8.21    0.28
  -5  -1  -1    8.72    0.32
   5  -1   1    8.08    0.24
  -5   1   1    8.21    0.26
  -5   1   1    8.69    0.26
   5   1  -1    8.06    0.17
  -5  -1   2    0.27    0.13
   5  -1  -2    0.08    0.14
  -5   1  -2    0.18    0.14
   5  -1  -2    0.23    0.08
   5   1   2    0.27    0.14
   5   1   2    0.20    0.12
  -5  -1  -2    0.05    0.11
   5  -1   2    0.12    0.14
  -5   1   2    0.13    0.13
  -5  -1  -2   -0.10    0.14
  -5   1   2    0.13    0.10
   5  -1   2   -0.03    0.12
   5  -1  -3   22.45    0.52
   5   1   3   23.60    0.51
   5  -1  -3   22.64    0.37
  -5  -1   3   23.39    0.52
   5   1   3   23.64    0.52
  -5   1  -3   22.84    0.55
  -5   1  -3   22.89    0.38
   5  -1   3   23.10    0.53
  -5   1   3   23.06    0.55
  -5  -1  -3   23.15    0.54
   5  -1   3   22.16    0.52
  -5  -1  -3   23.23    0.46
   5   1   4    2.37    0.27
   5  -1  -4    2.29    0.25
  -5   1  -4    2.87    0.28
   5   1   4    2.49    0.26
  -5  -1   4    2.82    0.29
  -5  -1  -4    3.30    0.29
   5  -1   4    2.68    0.26
  -5  -1  -4    2.76    0.22
  -5   1   4    1.97    0.27
   5  -1   4    2.71    0.29
   5   1   5    9.57    0.47
  -5  -1   5   10.55    0.52
  -5   1  -5   11.04    0.52
   5   1   5   11.22    0.52
   5  -1  -5   11.20    0.47
   5  -1   5   11.41    0.54
  -5   1   5   11.83    0.55
  -5  -1  -5   10.75    0.50
  -5  -1  -5   11.03    0.39
   5  -1   5   10.63    0.47
   5  -1  -6    9.43    0.49
   5   1   6    8.32    0.59
  -5  -1   6    8.09    0.57
  -5   1  -6    8.61    0.55
   5   1   6    9.05    0.50
   5  -1   6    8.68    0.58
  -5   1   6    8.62    0.58
  -5  -1  -6    8.66    0.53
   5  -1   6    8.50    0.49
   5  -1  -7    3.50    0.38
  -5   1  -7    2.39    0.38
   5   1   7    3.49    0.38
   5   1   7    3.31    0.47
  -5  -1   7    2.97    0.46
  -5  -1  -7    3.28    0.40
  -5   1   7    4.11    0.50
   5  -1   7    2.94    0.46
   5  -1   7    3.23    0.39
   5   1   8    3.07    0.51
  -5   1  -8    1.13    0.40
  -5  -1   8    1.83    0.51
  -5   1   8    1.78    0.50
   5  -1   8    1.83    0.52
  -5   2   0    0.13    0.11
  -5  -2   0    0.02    0.13
   5  -2   0   -0.01    0.11
   5  -2   0    0.23    0.11
   5   2   0    0.06    0.10
   5  -2  -1   30.83    0.49
  -5   2  -1   31.31    0.55
   5  -2  -1   32.14    0.55
  -5  -2   1   30.47    0.56
   5   2   1   31.90    0.53
  -5  -2  -1   30.48    0.57
  -5   2   1   31.15    0.56
   5  -2   1   31.05    0.54
   5  -2   1   31.12    0.53
  -5  -2   2    0.54    0.14
   5   2   2    0.99    0.14
   5   2   2    1.08    0.17
  -5   2  -2    0.60    0.17
   5  -2  -2    0.96    0.12
   5  -2  -2    0.70    0.15
  -5   2   2    0.89    0.13
   5  -2   2    0.77    0.17
  -5   2   2    0.60    0.16
  -5  -2  -2    0.65    0.14
  -5  -2  -2    0.59    0.17
   5  -2   2    0.86    0.16
   5   2   3   82.50    1.17
   5   2   3   83.16    1.15
  -5   2  -3   79.79    1.21
   5  -2  -3   83.75    1.18
   5  -2  -3   81.66    1.02
  -5  -2   3   83.77    1.16
   5  -2   3   82.13    1.16
   5  -2   3   82.77    1.20
  -5   2   3   82.25    0.99
  -5  -2  -3   84.08    1.13
  -5  -2  -3   81.13    1.17
  -5   2   3   81.83    1.23
   5   2   4    1.27    0.23
   5  -2  -4    1.49    0.16
   5  -2  -4    0.86    0.20
  -5   2  -4    0.84    0.23
   5   2   4    1.50    0.24
  -5  -2   4    1.03    0.23
  -5   2   4    1.09    0.25
   5  -2   4    0.98    0.23
  -5  -2  -4    1.18    0.22
  -5  -2  -4    1.22    0.19
   5  -2   4    0.97    0.24
   5   2   5    4.98    0.40
   5  -2  -5    4.04    0.34
  -5   2  -5    4.86    0.40
   5   2   5    5.08    0.36
  -5  -2   5    5.68    0.44
  -5  -2  -5    5.21    0.37
  -5   2   5    5.20    0.43
  -5  -2  -5    5.43    0.34
   5  -2   5    5.16    0.43
   5  -2   5    4.72    0.36
  -5  -2   6    5.75    0.48
   5   2   6    6.41    0.49
   5   2   6    6.46    0.45
  -5   2  -6    6.40    0.48
   5  -2  -6    6.90    0.46
  -5  -2  -6    5.76    0.43
   5  -2   6    5.71    0.50
  -5   2   6    7.38    0.57
   5  -2   6    7.19    0.47
   5   2   7    8.51    0.56
   5   2   7    9.19    0.66
  -5   2  -7    9.23    0.63
  -5  -2   7    8.80    0.65
   5  -2  -7    9.52    0.57
   5  -2   7    8.94    0.67
  -5   2   7    7.91    0.61
  -5  -2   8    5.68    0.63
  -5   2  -8    6.02    0.58
   5   2   8    4.88    0.59
  -5   2   8    5.52    0.63
   5  -2   8    5.49    0.65
   5  -3   0    0.05    0.11
  -5  -3   0    0.10    0.14
  -5   3   0    0.05    0.11
   5  -3   0    0.04    0.12
   5  -3  -1    0.10    0.13
  -5   3  -1    0.14    0.14
  -5  -3   1    0.16    0.14
   5  -3  -1   -0.23    0.10
   5   3   1    0.03    0.10
   5   3   1    0.01    0.12
  -5  -3   1    0.18    0.10
  -5  -3  -1   -0.12    0.11
  -5   3   1   -0.14    0.14
   5  -3   1   -0.01    0.14
  -5  -3  -1   -0.11    0.13
   5  -3   1   -0.20    0.13
   5  -3  -2   -0.05    0.14
  -5   3  -2    0.20    0.16
   5   3   2    0.34    0.13
   5   3   2   -0.05    0.15
   5  -3  -2    0.24    0.13
  -5  -3   2    0.07    0.14
  -5  -3   2    0.26    0.07
   5  -3   2    0.02    0.16
   5  -3   2    0.34    0.17
  -5  -3  -2    0.14    0.14
  -5   3   2    0.26    0.16
  -5  -3  -2    0.45    0.17
  -5  -3   3    0.16    0.18
   5   3   3    0.10    0.17
  -5   3  -3   -0.34    0.16
   5  -3  -3    0.00    0.12
   5   3   3   -0.12    0.15
   5  -3  -3   -0.03    0.17
  -5  -3  -3   -0.01    0.14
  -5  -3  -3    0.05    0.16
   5  -3   3    0.13    0.19
   5  -3   3   -0.08    0.18
  -5   3   3   -0.20    0.19
   5   3   4    7.06    0.42
  -5  -3   4    7.28    0.42
   5  -3  -4    7.29    0.40
   5  -3  -4    7.23    0.30
  -5   3  -4    6.88    0.45
   5   3   4    7.00    0.40
  -5   3   4    7.24    0.46
  -5  -3  -4    6.87    0.35
   5  -3   4    7.46    0.45
   5  -3   4    6.54    0.40
  -5  -3  -4    7.33    0.39
  -5   3  -5    0.87    0.27
   5  -3  -5    0.67    0.24
   5   3   5    0.88    0.25
  -5  -3   5    0.42    0.27
   5   3   5    0.98    0.28
  -5  -3  -5    0.69    0.24
   5  -3   5    0.62    0.26
  -5   3   5    0.78    0.29
   5  -3   5    0.87    0.31
  -5  -3  -5    0.29    0.21
  -5   3  -6    8.96    0.58
   5   3   6    9.01    0.60
   5  -3  -6    9.96    0.53
  -5  -3   6    9.69    0.60
   5   3   6    9.61    0.52
   5  -3   6    9.60    0.65
  -5   3   6    9.11    0.63
  -5  -3  -6    8.86    0.47
   5  -3   6    9.20    0.54
  -5  -3   7    2.05    0.45
   5   3   7    2.74    0.44
   5  -3  -7    1.78    0.36
  -5   3  -7    2.09    0.42
  -5   3   7    1.84    0.44
   5  -3   7    2.66    0.49
  -5   3  -8    3.05    0.49
   5   3   8    2.95    0.53
  -5  -3   8    2.56    0.51
   5  -3   8    2.52    0.53
  -5   3   8    2.31    0.52
   5  -4   0   -0.14    0.11
  -5   4   0   -0.08    0.11
  -5  -4   0   -0.06    0.15
   5  -4   0    0.03    0.14
  -5  -4   1   19.48    0.37
   5  -4  -1   19.79    0.45
  -5  -4   1   19.42    0.51
   5  -4  -1   20.46    0.47
  -5   4  -1   19.31    0.45
  -5  -4   1   19.54    0.42
  -5  -4  -1   19.41    0.48
   5  -4   1   19.33    0.48
   5  -4   1   19.07    0.36
  -5  -4  -1   19.95    0.50
   5  -4   1   20.12    0.52
  -5  -4   2   27.56    0.56
  -5   4  -2   27.63    0.61
   5   4   2   26.34    0.55
   5  -4  -2   26.60    0.60
   5  -4  -2   27.17    0.54
   5  -4   2   26.41    0.63
  -5  -4  -2   26.61    0.59
   5  -4   2   27.08    0.60
  -5   4   2   26.21    0.66
  -5  -4  -2   26.60    0.58
  -5  -4   3   49.21    0.87
   5  -4  -3   50.02    0.90
  -5   4  -3   49.33    0.92
   5  -4  -3   50.34    0.81
   5   4   3   50.14    0.87
   5  -4   3   51.57    0.90
  -5  -4  -3   50.56    0.88
   5  -4   3   50.85    0.96
  -5   4   3   49.20    0.99
  -5  -4  -3   51.53    0.87
   5  -4  -4   23.39    0.54
   5   4   4   23.30    0.65
  -5  -4   4   23.75    0.66
  -5   4  -4   23.48    0.68
   5  -4  -4   23.54    0.65
  -5  -4  -4   23.83    0.60
  -5  -4  -4   23.27    0.62
   5  -4   4   23.68    0.63
   5  -4   4   24.02    0.71
  -5   4   4   22.86    0.72
   5  -4  -5    7.73    0.48
  -5   4  -5    8.18    0.52
   5   4   5    8.12    0.49
  -5  -4   5    8.22    0.55
   5  -4   5    7.80    0.50
  -5   4   5    8.20    0.56
   5  -4   5    8.44    0.58
  -5  -4  -5    8.56    0.46
  -5  -4   6    9.86    0.66
   5   4   6    8.81    0.58
   5  -4  -6    8.28    0.57
  -5   4  -6    8.91    0.59
  -5   4   6    8.98    0.66
   5  -4   6    8.61    0.55
   5  -4   6    8.83    0.66
  -5  -4  -6    7.12    0.49
  -5   4  -7    5.44    0.55
  -5  -4   7    3.74    0.52
   5   4   7    5.76    0.57
   5  -4   7    5.35    0.60
  -5   4   7    5.03    0.57
  -5  -5   0   -0.01    0.17
  -5  -5   0   -0.03    0.14
   5  -5   0   -0.08    0.15
   5  -5   0    0.09    0.14
   5  -5  -1   11.46    0.39
  -5  -5   1   11.00    0.37
  -5  -5   1   11.05    0.31
  -5   5  -1   10.34    0.36
   5  -5  -1   10.73    0.38
  -5  -5   1   11.04    0.44
   5  -5   1   10.41    0.42
  -5  -5  -1   10.83    0.40
  -5  -5  -1   11.14    0.42
   5  -5   1   10.83    0.46
   5   5   2    0.25    0.16
  -5   5  -2    0.46    0.19
   5  -5  -2    0.15    0.19
   5  -5  -2    0.43    0.17
  -5  -5   2    0.15    0.17
  -5  -5  -2    0.33    0.18
   5  -5   2    0.42    0.21
  -5  -5  -2   -0.02    0.19
   5  -5   2    0.31    0.21
  -5   5   2   -0.01    0.22
   5  -5  -3   38.61    0.81
  -5  -5   3   39.09    0.80
   5   5   3   39.36    0.80
   5  -5  -3   38.88    0.74
  -5   5  -3   39.27    0.83
  -5  -5  -3   39.82    0.81
  -5  -5  -3   38.87    0.78
   5  -5   3   39.20    0.82
   5  -5   3   37.51    0.88
  -5   5   3   37.13    0.92
   5   5   4    0.76    0.24
   5  -5  -4    0.22    0.18
   5  -5  -4    0.63    0.25
  -5   5  -4    0.79    0.27
  -5  -5   4    0.24    0.24
   5  -5   4    0.50    0.28
  -5   5   4    0.61    0.30
  -5  -5  -4    0.61    0.23
   5  -5   4    0.59    0.26
   5   5   5   25.02    0.76
  -5   5  -5   25.83    0.81
   5  -5  -5   25.27    0.64
  -5  -5   5   25.21    0.80
   5  -5  -5   26.09    0.77
   5  -5   5   25.59    0.86
   5  -5   5   25.40    0.76
  -5  -5  -5   25.17    0.72
  -5   5   5   27.07    0.88
  -5   5  -6    4.95    0.49
   5  -5  -6    4.22    0.44
   5   5   6    3.78    0.44
  -5  -5   6    3.44    0.48
   5  -5   6    4.84    0.57
  -5   5   6    4.72    0.54
  -5  -5  -6    3.52    0.39
   5   5   7   10.84    0.73
  -5  -5   7   13.00    0.81
  -5   5  -7   13.04    0.78
   5  -5   7   10.97    0.80
  -5   5   7   12.51    0.84
  -5  -6   0   -0.07    0.19
  -5  -6   0   -0.03    0.17
   5  -6   0   -0.07    0.18
  -5  -6   0    0.31    0.17
  -5  -6   0    0.13    0.15
   5  -6   0    0.18    0.16
  -5  -6   1   13.48    0.46
  -5  -6   1   14.73    0.40
   5  -6  -1   14.44    0.47
  -5  -6   1   14.90    0.46
   5  -6  -1   14.19    0.47
  -5  -6   1   14.27    0.50
  -5  -6  -1   15.22    0.50
  -5  -6  -1   13.59    0.49
   5  -6   1   14.16    0.49
   5  -6   1   13.84    0.56
  -5  -6   2    3.74    0.31
  -5   6  -2    3.17    0.29
   5  -6  -2    2.99    0.28
   5  -6  -2    3.80    0.31
  -5  -6  -2    3.13    0.31
   5  -6   2    3.78    0.37
   5  -6   2    3.61    0.32
  -5  -6   3   40.28    0.85
   5   6   3   40.01    0.86
   5  -6  -3   38.90    0.87
  -5   6  -3   40.51    0.88
   5  -6  -3   38.94    0.79
  -5  -6  -3   39.46    0.85
   5  -6   3   40.04    0.86
  -5   6   3   42.06    1.01
   5  -6   3   38.83    0.94
  -5   6  -4    3.38    0.39
  -5  -6   4    3.42    0.38
   5  -6  -4    3.22    0.36
   5  -6  -4    3.74    0.33
   5   6   4    3.27    0.35
   5  -6   4    3.11    0.36
   5  -6   4    3.59    0.44
  -5   6   4    2.77    0.40
  -5  -6  -4    2.53    0.32
  -5  -6   5    4.15    0.45
  -5   6  -5    4.13    0.45
   5  -6  -5    3.72    0.35
   5  -6  -5    3.82    0.41
   5   6   5    4.17    0.42
  -5  -6  -5    4.98    0.42
   5  -6   5    3.52    0.47
  -5   6   5    3.15    0.45
   5  -6   5    3.71    0.40
  -5  -6   6   -0.12    0.37
  -5   6  -6    1.03    0.37
  -5   6   6    0.40    0.38
   5  -6   6    0.25    0.41
  -5  -7   0    0.19    0.18
  -5  -7   0    0.23    0.27
  -5  -7   0   -0.14    0.20
   5  -7   0   -0.06    0.22
  -5  -7   0   -0.13    0.18
  -5  -7   1    0.24    0.18
  -5  -7   1    0.01    0.22
   5  -7  -1    0.24    0.20
   5  -7  -1    0.17    0.20
  -5  -7   1    0.13    0.21
  -5  -7  -1   -0.23    0.19
  -5  -7  -1    0.01    0.18
   5  -7   1   -0.24    0.24
   5  -7   1    0.27    0.23
  -5  -7   2    0.49    0.23
   5  -7  -2   -0.15    0.22
   5  -7  -2   -0.13    0.20
   5  -7   2    0.10    0.24
   5  -7   2    0.65    0.30
  -5  -7  -2   -0.07    0.21
  -5  -7   3    0.42    0.27
   5  -7  -3    0.72    0.23
  -5   7  -3    0.33    0.24
   5  -7  -3    0.70    0.28
  -5   7   3    0.32    0.30
   5  -7   3    0.50    0.27
   5  -7   3    0.83    0.34
  -5  -7  -3    1.05    0.27
  -5  -7   4    2.74    0.38
   5  -7  -4    2.31    0.35
   5  -7  -4    2.77    0.32
  -5   7  -4    3.04    0.39
  -5   7   4    1.87    0.41
   5  -7   4    2.68    0.37
   5  -7   4    2.45    0.42
  -5  -7  -4    1.96    0.32
   5  -7  -5    2.36    0.34
  -5  -7   5    1.35    0.40
  -5   7  -5    1.58    0.39
   5  -7   5    1.76    0.37
  -5   7   5    2.62    0.47
   5  -7   5    1.55    0.44
  -5  -7   6    5.25    0.60
  -5   7  -6    5.42    0.58
  -5   7   6    4.78    0.61
   5  -7   6    4.89    0.63
  -5  -8   0   -0.16    0.18
   5  -8   0    0.03    0.24
  -5  -8   0    0.33    0.22
  -5  -8   1    6.26    0.47
   5  -8  -1    6.81    0.46
  -5  -8  -1    5.55    0.41
  -5  -8  -1    5.88    0.39
   5  -8   1    6.66    0.52
   5  -8   1    6.02    0.43
   5  -8  -2    0.94    0.27
   5  -8  -2    0.79    0.27
  -5  -8   2    1.12    0.29
   5  -8   2    0.89    0.33
   5  -8   2    1.57    0.32
  -5  -8  -2    0.51    0.27
  -5  -8  -2    0.98    0.27
   5  -8  -3   19.14    0.67
   5  -8  -3   18.36    0.70
   5  -8   3   18.74    0.73
   5  -8   3   18.13    0.80
  -5  -8  -3   18.17    0.67
  -5   8  -4    0.28    0.30
   5  -8  -4    0.47    0.53
   5  -8  -4    0.42    0.28
   5  -8   4   -0.05    0.32
  -5   8   4    0.43    0.36
   5  -8   4    0.48    0.38
  -5   8  -5    1.68    0.41
   5  -8   5    1.46    0.49
  -5   8   5    2.13    0.49
   5  -9   0   -0.03    0.26
   5  -9  -1    2.66    0.35
   5  -9   1    2.26    0.43
  -5  -9  -1    3.06    0.36
  -5  -9  -1    1.77    0.31
   5  -9   1    2.50    0.36
  -5  -9   2   -0.06    0.28
   5  -9  -2   -0.09    0.44
   5  -9   2    0.03    0.30
  -5  -9  -2   -0.38    0.24
  -5  -9  -2   -0.09    0.26
   5  -9   2   -0.03    0.36
  -5  -9   3   10.16    0.66
   5  -9  -3    9.45    0.62
   5  -9   3    9.59    0.72
   5  -9   4    0.60    0.47
   5 -10   0    0.62    0.42
   5 -10   1    3.96    0.53
   5 -10   2    4.81    0.61
   5 -10   3   10.93    0.85
   6   0   0    3.12    0.20
  -6   0   0    3.47    0.23
   6   0  -1   72.37    0.84
   6   0   1   73.76    0.96
  -6   0   1   72.89    0.97
  -6   0  -1   72.16    1.01
  -6   0  -2   -0.05    0.14
  -6   0   2    0.19    0.12
   6   0   2    0.20    0.15
   6   0   2   -0.04    0.11
   6   0  -2   -0.01    0.07
  -6   0   2    0.33    0.13
  -6   0  -3   43.15    0.80
  -6   0  -3   43.03    0.65
  -6   0   3   44.25    0.77
   6   0   3   43.50    0.74
   6   0   3   45.13    0.77
  -6   0  -4   33.37    0.58
   6   0   4   32.83    0.72
   6   0  -4   33.10    0.70
  -6   0  -4   33.53    0.75
  -6   0   4   34.66    0.75
   6   0   4   33.50    0.72
   6   0  -5   29.45    0.70
  -6   0  -5   30.20    0.79
   6   0   5   28.38    0.75
  -6   0   5   29.77    0.80
   6   0   5   30.86    0.74
   6   0  -6   38.97    0.88
  -6   0  -6   36.97    0.94
   6   0   6   37.50    0.90
  -6   0   6   40.21    1.00
   6   0   6   39.40    0.99
   6   0   7   10.08    0.67
   6   0   7   10.07    0.58
  -6   0  -7   10.14    0.65
  -6   0   7   10.23    0.70
  -6   0   8    1.61    0.48
   6   0   8    1.52    0.48
  -6   0  -8    2.15    0.42
  -6  -1   0  118.23    1.47
   6   1   0  122.21    1.36
   6  -1   0  122.01    1.39
  -6   1   0  119.64    1.44
   6  -1  -1    4.70    0.19
   6   1   1    5.35    0.24
  -6  -1   1    4.85    0.26
  -6   1  -1    4.99    0.29
   6  -1   1    5.17    0.26
   6   1  -1    5.06    0.16
   6  -1   1    4.97    0.21
  -6   1   1    5.48    0.24
  -6  -1  -1    4.39    0.29
  -6   1   1    4.56    0.22
  -6  -1   2   54.76    0.76
   6  -1  -2   55.30    0.85
   6   1   2   54.12    0.74
   6  -1  -2   54.13    0.68
  -6  -1   2   54.19    0.82
  -6   1  -2   53.73    0.86
   6   1   2   54.83    0.83
  -6   1   2   55.36    0.76
   6  -1   2   55.30    0.84
  -6  -1  -2   55.10    0.88
  -6   1   2   53.77    0.81
   6  -1   2   53.74    0.78
  -6  -1   3    0.00    0.16
   6  -1  -3   -0.27    0.16
  -6   1  -3    0.02    0.17
  -6   1  -3    0.15    0.09
   6   1   3    0.11    0.15
   6   1   3    0.15    0.17
   6  -1  -3    0.00    0.08
   6  -1   3   -0.12    0.17
   6  -1   3    0.02    0.16
  -6   1   3    0.17    0.17
  -6  -1  -3    0.12    0.17
  -6   1   3    0.01    0.13
  -6  -1  -3    0.05    0.12
  -6   1  -4    4.35    0.34
   6   1   4    4.36    0.32
  -6  -1   4    4.85    0.37
   6  -1  -4    4.65    0.33
   6   1   4    5.02    0.34
   6  -1   4    5.07    0.34
  -6  -1  -4    4.67    0.28
   6  -1   4    4.82    0.37
  -6  -1  -4    5.31    0.36
  -6   1   4    4.23    0.35
   6  -1  -5   -0.17    0.19
  -6  -1   5    0.33    0.26
  -6   1  -5    0.46    0.24
   6   1   5    0.39    0.23
   6   1   5    0.30    0.24
  -6  -1  -5   -0.09    0.25
  -6   1   5    0.00    0.23
   6  -1   5   -0.08    0.24
  -6  -1  -5    0.60    0.24
   6  -1   5    0.26    0.23
   6   1   6   -0.03    0.27
  -6   1  -6    0.45    0.28
  -6  -1   6    0.76    0.32
   6   1   6    0.19    0.25
   6  -1  -6    0.13    0.23
   6  -1   6    0.30    0.30
  -6   1   6    0.29    0.30
  -6  -1  -6    0.47    0.27
   6  -1   6    0.55    0.26
   6   1   7    2.32    0.36
  -6  -1   7    1.86    0.42
   6   1   7    2.68    0.45
   6  -1  -7    2.16    0.34
  -6   1  -7    2.15    0.39
   6  -1   7    2.14    0.44
   6  -1   7    2.34    0.37
  -6   1   7    2.71    0.45
  -6  -1  -7    2.29    0.38
  -6   1  -8   -0.04    0.35
  -6  -1   8    0.48    0.44
   6   1   8    0.40    0.41
   6  -1   8   -0.39    0.40
  -6   1   8    0.39    0.42
  -6  -2   0  709.64    7.28
  -6   2   0  708.75    7.19
   6   2   0  718.69    7.14
   6  -2   0  719.61    7.19
  -6   2  -1   11.86    0.37
   6   2   1   12.39    0.35
   6  -2  -1   13.07    0.36
  -6  -2   1   12.96    0.38
   6  -2  -1   12.80    0.31
   6  -2   1   12.11    0.34
  -6   2   1   12.33    0.36
  -6   2   1   12.67    0.33
   6  -2   1   12.66    0.36
  -6  -2  -1   12.49    0.40
   6  -2  -2  240.98    2.70
   6  -2  -2  239.78    2.55
   6   2   2  236.62    2.55
  -6  -2   2  240.82    2.58
  -6   2  -2  244.06    2.73
   6   2   2  242.83    2.68
  -6  -2   2  234.92    2.69
  -6  -2  -2  243.24    2.66
   6  -2   2  237.57    2.68
   6  -2   2  236.73    2.66
  -6   2   2  241.20    2.71
  -6   2   2  238.77    2.54
  -6  -2  -2  238.23    2.72
  -6  -2   3    0.41    0.17
   6  -2  -3    0.49    0.18
   6   2   3    0.53    0.19
   6  -2  -3    0.48    0.12
  -6   2  -3    0.88    0.22
   6   2   3    0.82    0.18
  -6  -2  -3    0.68    0.16
  -6   2   3    0.47    0.20
  -6  -2  -3    0.94    0.21
   6  -2   3    0.61    0.20
   6  -2   3    0.51    0.20
  -6  -2   4    9.34    0.45
   6  -2  -4    9.41    0.44
   6   2   4   10.09    0.45
   6   2   4    9.09    0.43
  -6   2  -4    8.98    0.49
   6  -2   4    9.05    0.44
  -6  -2  -4    9.81    0.45
  -6  -2  -4    9.12    0.37
   6  -2   4    8.99    0.48
  -6   2   4    8.82    0.47
   6   2   5    1.12    0.28
  -6   2  -5    0.78    0.28
   6   2   5    0.83    0.25
   6  -2  -5    0.89    0.25
  -6  -2   5    1.01    0.29
  -6  -2  -5    0.74    0.20
  -6   2   5    0.69    0.28
  -6  -2  -5    0.70    0.25
   6  -2   5    1.26    0.29
   6  -2   5    0.89    0.30
   6   2   6    1.03    0.29
   6  -2  -6    0.93    0.28
   6   2   6    1.11    0.32
  -6  -2   6    1.28    0.34
  -6   2  -6    1.33    0.33
   6  -2   6    1.26    0.37
  -6  -2  -6    0.93    0.29
  -6   2   6    0.72    0.32
   6  -2   6    1.10    0.31
  -6  -2   7    2.72    0.47
   6   2   7    3.06    0.46
   6   2   7    1.51    0.35
   6  -2  -7    2.08    0.34
  -6   2  -7    2.50    0.42
   6  -2   7    2.57    0.39
   6  -2   7    2.70    0.48
  -6   2   7    2.42    0.45
  -6   2  -8   -0.46    0.36
   6   2   8    0.28    0.39
  -6  -2   8    0.13    0.41
   6  -2   8   -0.30    0.42
  -6   2   8    0.54    0.44
  -6   3   0   23.79    0.45
  -6  -3   0   24.08    0.54
   6  -3   0   24.19    0.47
   6  -3   0   24.27    0.49
   6   3   1  106.42    1.32
   6  -3  -1  105.64    1.30
  -6  -3   1  104.12    1.39
  -6  -3   1  105.42    1.21
   6  -3  -1  105.93    1.35
  -6   3  -1  104.02    1.33
   6  -3   1  105.14    1.35
  -6   3   1  103.87    1.21
   6  -3   1  105.79    1.36
  -6  -3  -1  104.16    1.39
  -6   3   1  106.35    1.40
  -6   3  -2    8.80    0.39
   6   3   2    8.15    0.28
   6  -3  -2    8.60    0.30
   6  -3  -2    8.57    0.38
  -6  -3   2    7.85    0.31
   6   3   2    8.20    0.35
  -6  -3  -2    8.17    0.38
   6  -3   2    8.43    0.37
   6  -3   2    8.34    0.36
  -6   3   2    8.08    0.38
  -6  -3  -2    8.40    0.34
   6  -3  -3   26.60    0.63
   6   3   3   26.57    0.57
  -6   3  -3   25.63    0.65
   6  -3  -3   25.41    0.50
   6   3   3   25.60    0.61
  -6  -3   3   25.42    0.59
  -6  -3  -3   25.23    0.62
  -6   3   3   25.63    0.66
  -6  -3  -3   25.88    0.59
   6  -3   3   25.52    0.65
   6  -3   3   26.28    0.62
  -6   3  -4    0.26    0.23
  -6  -3   4    0.25    0.22
   6   3   4    0.10    0.21
   6  -3  -4    0.02    0.13
   6  -3  -4    0.20    0.20
   6   3   4   -0.21    0.18
   6  -3   4   -0.33    0.21
  -6  -3  -4   -0.04    0.16
  -6  -3  -4    0.30    0.20
  -6   3   4    0.09    0.23
   6  -3   4   -0.30    0.21
   6  -3  -5    3.91    0.36
  -6   3  -5    4.29    0.40
   6   3   5    3.72    0.35
   6   3   5    4.37    0.38
  -6  -3   5    3.87    0.38
   6  -3   5    4.39    0.43
   6  -3   5    3.79    0.36
  -6  -3  -5    3.51    0.31
  -6  -3  -5    4.69    0.38
  -6   3   5    4.64    0.43
   6   3   6    1.44    0.30
  -6  -3   6    1.53    0.35
  -6   3  -6    0.94    0.32
   6   3   6    1.84    0.34
   6  -3  -6    1.95    0.33
  -6  -3  -6    1.05    0.26
   6  -3   6    0.53    0.36
   6  -3   6    2.41    0.36
  -6   3   6    1.65    0.37
  -6  -3   7    5.23    0.55
  -6   3  -7    5.90    0.55
   6   3   7    5.09    0.53
   6  -3   7    5.75    0.59
  -6   3   7    5.60    0.57
  -6  -4   0   32.67    0.67
  -6   4   0   32.56    0.55
  -6  -4   0   33.22    0.67
   6  -4   0   33.30    0.63
   6  -4   0   32.77    0.58
   6  -4  -1   23.50    0.51
  -6   4  -1   22.29    0.51
   6  -4  -1   22.08    0.52
  -6  -4   1   21.75    0.55
  -6  -4   1   21.82    0.44
   6  -4   1   22.93    0.53
  -6  -4  -1   22.65    0.56
   6  -4   1   21.54    0.56
  -6  -4  -1   22.93    0.54
   6  -4  -2    6.89    0.32
   6   4   2    6.42    0.29
  -6   4  -2    6.50    0.37
  -6  -4   2    6.52    0.31
   6  -4  -2    6.58    0.36
  -6  -4  -2    7.15    0.35
  -6   4   2    7.18    0.41
  -6  -4  -2    7.13    0.39
   6  -4   2    6.25    0.37
   6  -4   2    6.72    0.38
   6  -4  -3   19.92    0.49
   6  -4  -3   19.42    0.57
   6   4   3   20.10    0.52
   6   4   3   20.55    0.57
  -6   4  -3   20.03    0.61
  -6  -4   3   20.38    0.56
  -6   4   3   19.34    0.63
   6  -4   3   19.53    0.58
  -6  -4  -3   19.91    0.56
   6  -4   3   19.69    0.61
  -6  -4  -3   19.20    0.54
  -6  -4   4   12.48    0.54
  -6   4  -4   13.76    0.58
   6  -4  -4   12.32    0.54
   6  -4  -4   12.39    0.41
   6   4   4   12.80    0.50
   6   4   4   13.92    0.52
  -6  -4  -4   12.54    0.49
   6  -4   4   11.96    0.52
   6  -4   4   12.89    0.57
  -6  -4  -4   13.24    0.50
  -6   4   4   11.70    0.57
  -6   4  -5   16.99    0.68
   6   4   5   15.77    0.60
   6  -4  -5   16.06    0.64
   6   4   5   16.07    0.61
  -6  -4   5   16.91    0.65
   6  -4   5   15.57    0.63
   6  -4   5   16.38    0.71
  -6   4   5   15.50    0.70
  -6  -4  -5   15.88    0.56
  -6  -4   6   20.44    0.78
  -6   4  -6   20.62    0.82
   6  -4  -6   19.57    0.73
   6   4   6   20.30    0.78
   6  -4   6   21.30    0.89
  -6  -4  -6   20.06    0.66
   6  -4   6   22.20    0.76
  -6   4   6   20.33    0.87
  -6   4  -7    7.77    0.63
  -6  -4   7    6.50    0.61
  -6   4   7    8.62    0.70
   6  -4   7    7.40    0.67
  -6  -5   0   98.72    1.41
  -6  -5   0   98.50    1.38
   6  -5   0  101.38    1.37
   6  -5   0  100.76    1.29
  -6  -5   1   11.67    0.33
   6  -5  -1   12.05    0.41
  -6   5  -1   11.14    0.39
   6  -5  -1   10.84    0.42
  -6  -5   1   11.90    0.46
   6  -5   1   11.70    0.48
  -6  -5  -1   12.17    0.45
   6  -5   1   11.82    0.45
  -6  -5  -1   11.98    0.44
   6  -5  -2   58.95    1.00
  -6   5  -2   57.76    0.98
  -6  -5   2   57.89    1.04
  -6  -5   2   57.66    0.95
   6  -5  -2   58.95    0.94
  -6   5   2   57.13    1.10
   6  -5   2   58.54    1.01
   6  -5   2   58.63    1.06
  -6  -5  -2   57.13    0.99
  -6  -5  -2   60.48    1.02
   6  -5  -3   13.20    0.45
  -6   5  -3   12.15    0.52
  -6  -5   3   13.17    0.49
   6  -5  -3   12.16    0.52
   6  -5   3   12.26    0.53
  -6  -5  -3   13.21    0.49
   6  -5   3   12.52    0.57
  -6   5   3   12.96    0.59
  -6  -5  -3   12.32    0.50
  -6   5  -4    9.38    0.53
   6  -5  -4    9.03    0.50
  -6  -5   4    9.77    0.52
   6  -5  -4   10.42    0.43
  -6   5   4    9.88    0.59
   6  -5   4    9.97    0.57
  -6  -5  -4    9.96    0.47
   6  -5   4    9.10    0.53
  -6  -5   5    4.67    0.44
  -6   5  -5    3.68    0.41
   6  -5  -5    4.85    0.43
   6  -5   5    4.32    0.47
  -6  -5  -5    4.39    0.39
   6  -5   5    4.48    0.42
  -6   5   5    4.68    0.50
  -6  -5   6   -0.27    0.34
  -6   5  -6    0.19    0.30
  -6   5   6   -0.55    0.33
  -6  -5  -6    0.29    0.28
   6  -5   6    0.12    0.38
   6  -5   6    0.08    0.32
  -6  -5   7    0.54    0.41
  -6   5  -7    0.58    0.38
   6  -5   7    0.58    0.47
  -6   5   7   -0.15    0.39
  -6  -6   0  123.83    1.70
  -6  -6   0  122.88    1.56
   6  -6   0  123.28    1.67
  -6  -6   0  125.49    1.67
   6  -6  -1   -0.09    0.18
  -6  -6   1   -0.36    0.16
   6  -6  -1   -0.12    0.18
  -6  -6   1    0.39    0.22
   6  -6   1    0.05    0.21
  -6  -6  -1   -0.05    0.21
  -6  -6  -1   -0.11    0.18
   6  -6   1   -0.03    0.23
  -6  -6   2   47.52    0.96
  -6   6  -2   47.29    0.89
   6  -6  -2   46.27    0.88
   6  -6  -2   45.64    0.89
   6  -6   2   46.86    0.93
  -6  -6  -2   46.48    0.92
  -6  -6  -2   47.34    0.92
   6  -6   2   47.63    1.02
   6  -6  -3    1.20    0.24
  -6   6  -3    1.00    0.26
   6  -6  -3    0.57    0.25
   6  -6   3    0.89    0.32
  -6  -6  -3    0.82    0.24
  -6   6   3    1.02    0.32
   6  -6   3    1.23    0.29
   6  -6  -4    0.02    0.26
   6  -6  -4   -0.06    0.20
  -6   6  -4    0.15    0.26
   6  -6   4   -0.41    0.30
   6  -6   4   -0.40    0.27
  -6   6   4    0.03    0.29
  -6  -6  -4   -0.14    0.22
  -6   6  -5    2.21    0.39
   6  -6  -5    2.21    0.37
   6  -6   5    2.54    0.46
  -6   6   5    2.27    0.43
  -6  -6  -5    1.89    0.33
   6  -6   5    2.30    0.38
  -6   6  -6    3.89    0.51
  -6   6   6    2.84    0.50
   6  -6   6    3.36    0.55
   6  -7   0    2.80    0.31
  -6  -7   0    2.99    0.33
  -6  -7   0    2.62    0.26
  -6  -7   0    3.18    0.31
  -6  -7   1   72.53    1.16
  -6  -7   1   71.92    1.24
   6  -7  -1   71.40    1.15
   6  -7  -1   72.22    1.20
  -6  -7  -1   72.10    1.21
   6  -7   1   70.13    1.31
  -6  -7  -1   71.27    1.22
   6  -7   1   72.08    1.23
   6  -7  -2    0.51    0.24
   6  -7  -2    0.36    0.22
  -6  -7   2    0.35    0.25
   6  -7   2    0.60    0.31
   6  -7   2    0.26    0.26
  -6  -7  -2    0.28    0.24
   6  -7  -3   21.50    0.71
  -6   7  -3   20.10    0.67
   6  -7  -3   21.67    0.65
   6  -7   3   20.81    0.70
   6  -7   3   21.12    0.80
  -6  -7  -3   21.15    0.71
   6  -7  -4    0.48    0.29
   6  -7  -4    0.54    0.26
  -6   7  -4    0.61    0.30
  -6  -7  -4    0.47    0.27
   6  -7   4    0.62    0.36
   6  -7   4    0.36    0.32
  -6   7   4    1.59    0.40
   6  -7  -5    5.11    0.48
  -6   7  -5    4.77    0.51
   6  -7   5    5.10    0.49
  -6   7   5    3.72    0.53
   6  -7   5    4.07    0.53
  -6   7  -6    1.04    0.39
   6  -7   6    1.41    0.51
  -6   7   6    1.52    0.49
  -6  -8   0   70.64    1.22
   6  -8   0   70.85    1.25
   6  -8  -1    0.03    0.24
  -6  -8   1    0.57    0.28
   6  -8   1    0.95    0.29
   6  -8   1    0.55    0.33
  -6  -8  -1    0.44    0.23
  -6  -8  -1    0.36    0.24
   6  -8  -2   24.99    0.73
   6  -8  -2   25.09    0.74
  -6  -8   2   25.00    0.80
   6  -8   2   26.59    0.78
   6  -8   2   25.41    0.89
  -6  -8  -2   25.26    0.76
  -6  -8  -2   25.16    0.72
  -6  -8   3    2.25    0.39
   6  -8  -3    1.80    0.34
   6  -8  -3    2.28    0.33
   6  -8   3    2.03    0.45
   6  -8   3    1.73    0.35
  -6  -8  -3    2.20    0.36
  -6   8  -4   -0.34    0.27
   6  -8   4   -0.26    0.38
   6  -8   4    0.39    0.38
  -6   8  -5    3.67    0.49
   6  -8   5    2.40    0.53
  -6   8   5    2.87    0.55
   6  -9   0   32.36    1.01
   6  -9   0   34.05    0.92
  -6  -9   0   33.68    0.85
   6  -9  -1    2.24    0.37
  -6  -9  -1    2.11    0.34
   6  -9   1    2.69    0.40
   6  -9   1    2.30    0.43
  -6  -9  -1    2.39    0.33
  -6  -9   2   19.93    0.77
  -6  -9  -2   20.10    0.87
  -6  -9  -2   20.40    0.70
   6  -9   2   20.97    0.89
  -6  -9   3    3.76    0.48
   6  -9   3    4.14    0.55
  -6  -9   4    3.47    0.50
   6  -9   4    4.20    0.60
   6 -10   0    8.66    0.70
   6 -10   1    2.56    0.51
   6 -10   2    1.51    0.49
  -7   0   0   -0.03    0.14
   7   0   0    0.04    0.11
  -7   0   1   19.12    0.46
   7   0  -1   18.48    0.34
  -7   0  -1   18.61    0.48
   7   0   1   18.63    0.42
   7   0  -2    1.56    0.11
   7   0   2    1.63    0.20
  -7   0   2    1.81    0.18
  -7   0  -2    1.71    0.23
   7   0   2    1.29    0.15
  -7   0   2    1.96    0.19
   7   0   3   40.62    0.77
   7   0   3   40.42    0.72
  -7   0  -3   41.39    0.66
  -7   0   3   40.69    0.72
  -7   0   3   42.76    0.75
  -7   0  -3   41.73    0.81
   7   0   4    0.52    0.22
  -7   0  -4    0.25    0.23
  -7   0   4    0.50    0.22
  -7   0  -4    0.43    0.14
   7   0   4    0.59    0.22
   7   0   5   14.78    0.59
  -7   0   5   15.74    0.61
   7   0   5   15.46    0.59
  -7   0  -5   14.79    0.60
  -7   0  -6    0.60    0.30
   7   0   6    1.26    0.29
  -7   0   6    1.22    0.35
   7   0   6    1.32    0.32
  -7   0  -7    0.26    0.32
  -7   0   7    0.04    0.34
   7   0   7    0.63    0.32
   7   0   7   -0.46    0.32
  -7   0   8    0.56    0.43
  -7   0  -8   -0.19    0.33
   7   0   8   -0.26    0.39
   7   1   0    0.14    0.11
  -7   1   0    0.18    0.14
  -7  -1   0   -0.01    0.14
   7  -1   0   -0.08    0.11
   7  -1  -1   19.52    0.37
  -7  -1   1   19.03    0.48
   7   1   1   18.75    0.42
  -7   1  -1   18.43    0.47
   7  -1   1   19.22    0.37
   7   1  -1   18.52    0.32
   7  -1   1   18.64    0.45
  -7   1   1   19.03    0.44
  -7  -1  -1   19.24    0.50
  -7   1   1   19.38    0.40
   7   1   2    4.46    0.21
  -7  -1   2    4.15    0.24
  -7   1  -2    4.31    0.30
   7  -1  -2    3.67    0.19
   7   1   2    3.60    0.25
  -7  -1   2    4.05    0.28
  -7   1   2    3.76    0.26
   7  -1   2    3.93    0.25
   7  -1   2    4.72    0.29
  -7   1   2    4.30    0.27
  -7  -1  -2    3.81    0.28
   7   1   3   46.43    0.83
   7  -1  -3   46.04    0.84
  -7  -1   3   45.41    0.78
  -7   1  -3   45.39    0.66
   7   1   3   45.64    0.75
  -7  -1   3   46.34    0.80
  -7   1  -3   45.35    0.87
  -7   1   3   46.96    0.74
   7  -1   3   46.69    0.84
   7  -1   3   46.16    0.80
  -7  -1  -3   46.13    0.75
  -7   1   3   46.06    0.83
  -7  -1  -3   46.74    0.87
   7   1   4    0.52    0.22
  -7  -1   4    0.41    0.23
   7  -1  -4    0.34    0.21
  -7   1  -4    0.76    0.25
   7   1   4    0.60    0.21
   7  -1   4    0.38    0.23
   7  -1   4    0.33    0.22
  -7  -1  -4    0.58    0.16
  -7   1   4    0.32    0.22
  -7   1   4    0.32    0.17
  -7  -1  -4    0.41    0.22
  -7  -1   5    6.71    0.49
  -7   1  -5    6.40    0.45
   7   1   5    6.13    0.42
   7  -1  -5    6.03    0.43
   7   1   5    7.38    0.46
  -7   1   5    6.50    0.50
   7  -1   5    6.28    0.49
  -7  -1  -5    6.93    0.47
   7  -1   5    6.66    0.45
   7   1   6    4.85    0.44
   7   1   6    5.18    0.44
   7  -1  -6    4.21    0.39
  -7  -1   6    4.65    0.47
  -7   1  -6    4.27    0.45
   7  -1   6    5.08    0.44
  -7   1   6    4.76    0.47
  -7  -1  -6    5.13    0.45
   7  -1   6    4.31    0.44
  -7   1  -7    3.11    0.45
   7  -1  -7    2.76    0.38
  -7  -1   7    3.15    0.49
   7   1   7    2.44    0.43
  -7   1   7    2.63    0.45
   7  -1   7    2.66    0.44
  -7  -1  -7    3.34    0.44
   7  -1   7    2.58    0.38
   7   2   0   -0.08    0.11
  -7   2   0    0.01    0.13
   7  -2   0   -0.05    0.13
  -7  -2   0   -0.01    0.15
   7  -2  -1    0.43    0.13
  -7   2  -1    0.45    0.17
  -7  -2   1    0.30    0.16
   7   2   1    0.75    0.16
   7  -2  -1    0.38    0.15
   7  -2   1    0.90    0.18
  -7   2   1    0.65    0.15
  -7  -2  -1    0.53    0.19
   7  -2   1    0.47    0.14
  -7   2   1    0.52    0.15
   7   2  -1    0.66    0.10
   7  -2  -2    9.72    0.40
  -7  -2   2   10.09    0.31
  -7  -2   2    9.76    0.39
   7   2   2   10.22    0.37
   7  -2  -2   10.64    0.30
  -7   2  -2    9.45    0.39
  -7   2   2   10.50    0.32
  -7  -2  -2   10.20    0.36
   7  -2   2   10.06    0.39
  -7  -2  -2    9.63    0.42
  -7   2   2    9.99    0.38
   7  -2   2   10.37    0.36
   7  -2  -3    0.05    0.11
   7   2   3   -0.20    0.17
  -7   2  -3   -0.18    0.20
   7  -2  -3    0.32    0.20
   7   2   3    0.37    0.16
  -7  -2   3    0.08    0.17
   7  -2   3    0.15    0.20
  -7   2   3    0.28    0.19
  -7  -2  -3    0.14    0.20
   7  -2   3   -0.10    0.19
  -7  -2  -3   -0.21    0.13
  -7  -2   4   15.58    0.53
  -7   2  -4   15.53    0.58
   7  -2  -4   15.63    0.55
   7   2   4   16.07    0.54
   7   2   4   16.50    0.51
   7  -2   4   15.41    0.57
  -7  -2  -4   15.98    0.48
  -7   2   4   16.33    0.57
  -7  -2  -4   15.20    0.55
   7  -2   4   15.44    0.56
   7   2   5   16.40    0.57
  -7  -2   5   16.18    0.63
   7   2   5   16.12    0.60
  -7   2  -5   16.44    0.65
   7  -2  -5   16.59    0.60
  -7  -2  -5   15.69    0.62
  -7  -2  -5   16.29    0.50
   7  -2   5   16.80    0.65
  -7   2   5   16.64    0.68
   7  -2   5   15.96    0.63
  -7   2  -6   13.60    0.68
  -7  -2   6   12.47    0.67
   7  -2  -6   12.71    0.61
   7   2   6   13.83    0.61
   7   2   6   13.29    0.63
   7  -2   6   12.83    0.68
  -7   2   6   13.80    0.72
   7  -2   6   13.57    0.62
  -7  -2  -6   13.08    0.64
  -7  -2   7   30.86    1.03
  -7   2  -7   30.71    0.99
  -7   2   7   31.50    1.04
   7  -2   7   29.87    1.04
  -7  -2  -7   30.51    0.95
   7  -2   7   30.18    1.02
   7   3   0   -0.03    0.12
   7  -3   0    0.00    0.15
  -7   3   0    0.02    0.14
  -7  -3   0    0.08    0.17
   7  -3  -1    5.69    0.32
   7  -3  -1    5.50    0.28
  -7  -3   1    5.29    0.33
   7   3   1    5.39    0.30
  -7   3  -1    5.04    0.31
   7  -3   1    4.84    0.31
   7  -3   1    4.96    0.31
  -7   3   1    4.91    0.25
  -7  -3  -1    5.05    0.37
  -7   3  -2    0.01    0.18
   7   3   2   -0.41    0.15
  -7  -3   2   -0.26    0.17
   7  -3  -2   -0.11    0.18
   7  -3  -2    0.30    0.14
  -7   3   2   -0.02    0.18
   7  -3   2   -0.21    0.17
   7  -3   2   -0.15    0.18
  -7  -3  -2    0.05    0.15
  -7  -3  -2    0.17    0.20
   7  -3  -3   18.51    0.56
  -7   3  -3   18.26    0.58
   7   3   3   18.53    0.54
   7  -3  -3   18.55    0.43
  -7  -3   3   18.41    0.51
   7  -3   3   18.25    0.57
  -7  -3  -3   18.95    0.52
   7  -3   3   18.48    0.57
  -7  -3  -3   18.61    0.57
  -7   3   3   18.13    0.58
  -7  -3   4    9.36    0.47
   7  -3  -4   10.07    0.48
   7   3   4   10.15    0.48
  -7   3  -4   10.17    0.51
  -7   3   4   11.04    0.54
  -7  -3  -4   10.34    0.43
   7  -3   4   10.19    0.50
   7  -3   4   10.18    0.51
  -7  -3  -4   10.42    0.47
   7  -3  -5    0.97    0.28
   7   3   5    0.55    0.26
  -7  -3   5    0.70    0.28
  -7   3  -5    0.94    0.30
  -7  -3  -5    0.64    0.22
   7  -3   5    0.79    0.29
   7  -3   5    0.92    0.32
  -7   3   5    1.27    0.33
  -7  -3  -5    0.79    0.26
   7   3   6   24.39    0.79
   7  -3  -6   23.74    0.78
  -7   3  -6   24.76    0.86
  -7  -3   6   23.10    0.82
   7  -3   6   23.48    0.79
  -7  -3  -6   24.22    0.80
  -7   3   6   24.01    0.86
   7  -3   6   24.65    0.88
  -7   3  -7    7.46    0.61
  -7  -3   7    8.90    0.70
  -7   3   7    8.53    0.66
   7  -3   7    8.87    0.69
   7  -4   0   -0.03    0.17
  -7  -4   0    0.31    0.19
   7  -4   0    0.02    0.14
  -7   4   0    0.03    0.13
  -7   4  -1    7.32    0.36
   7  -4  -1    7.39    0.33
  -7  -4   1    7.18    0.39
   7  -4  -1    6.82    0.34
   7  -4   1    7.37    0.37
   7  -4   1    7.09    0.37
  -7  -4  -1    7.16    0.35
  -7  -4  -1    7.18    0.42
   7  -4  -2    0.13    0.19
  -7   4  -2    0.12    0.18
  -7  -4   2   -0.03    0.19
   7  -4  -2   -0.05    0.15
   7   4   2   -0.34    0.16
  -7   4   2   -0.26    0.20
   7  -4   2   -0.02    0.20
   7  -4   2    0.11    0.20
  -7  -4  -2   -0.08    0.21
  -7  -4  -2   -0.03    0.17
  -7   4  -3   18.56    0.59
   7   4   3   18.75    0.56
   7  -4  -3   17.66    0.57
   7  -4  -3   17.33    0.47
   7  -4   3   17.52    0.59
  -7  -4  -3   17.75    0.54
  -7  -4  -3   17.81    0.58
   7  -4   3   19.22    0.59
  -7   4   3   17.78    0.64
   7  -4  -4    1.80    0.29
  -7   4  -4    2.02    0.32
   7   4   4    2.21    0.31
  -7  -4  -4    1.22    0.25
   7  -4   4    1.88    0.32
   7  -4   4    1.68    0.31
  -7   4   4    1.57    0.32
  -7  -4  -4    1.70    0.29
  -7   4  -5    3.08    0.38
   7   4   5    3.87    0.39
   7  -4  -5    3.26    0.37
  -7  -4   5    3.18    0.58
  -7   4   5    3.15    0.42
   7  -4   5    4.11    0.40
   7  -4   5    3.25    0.42
  -7  -4  -5    3.19    0.33
   7  -4  -6    3.06    0.40
  -7   4  -6    3.12    0.44
  -7  -4   6    3.51    0.68
  -7  -4  -6    2.67    0.35
   7  -4   6    3.44    0.43
  -7   4   6    3.58    0.48
   7  -4   6    2.37    0.46
  -7   4  -7   -0.26    0.35
   7  -4   7    0.71    0.44
  -7   4   7    0.87    0.41
   7  -5   0    0.25    0.16
  -7  -5   0   -0.27    0.19
   7  -5   0    0.13    0.19
   7  -5  -1   15.68    0.49
  -7   5  -1   16.11    0.47
  -7  -5   1   15.47    0.54
   7  -5  -1   16.30    0.50
   7  -5   1   15.91    0.53
  -7  -5  -1   16.51    0.54
   7  -5   1   15.57    0.54
  -7  -5  -1   15.58    0.51
  -7   5  -2    7.67    0.42
   7  -5  -2    8.72    0.40
   7  -5  -2    7.76    0.41
  -7  -5   2    7.33    0.45
   7  -5   2    7.35    0.46
  -7  -5  -2    8.52    0.48
   7  -5   2    7.33    0.46
  -7  -5  -2    6.60    0.39
   7  -5  -3   39.50    0.88
   7  -5  -3   41.21    0.78
  -7   5  -3   40.12    0.88
  -7  -5  -3   39.84    0.85
  -7  -5  -3   40.49    0.87
   7  -5   3   41.34    0.93
  -7   5   3   39.70    0.97
   7  -5   3   39.33    0.86
   7  -5  -4    9.00    0.52
   7  -5  -4    8.37    0.40
  -7   5  -4    9.10    0.55
  -7  -5  -4    8.53    0.46
   7  -5   4    7.94    0.51
   7  -5   4    9.24    0.57
  -7   5   4    8.39    0.58
  -7   5  -5    7.54    0.56
   7  -5  -5    8.16    0.55
  -7  -5  -5    8.07    0.48
   7  -5   5    8.36    0.63
  -7   5   5    9.17    0.65
   7  -5   5    8.72    0.57
  -7   5  -6    0.45    0.35
   7  -5   6    0.29    0.40
  -7   5   6    0.42    0.38
   7  -5   6    0.11    0.32
  -7   5  -7    0.24    0.38
  -7   5   7    0.18    0.41
   7  -5   7   -0.13    0.44
  -7  -6   0   -0.09    0.19
   7  -6   0   -0.21    0.20
  -7  -6   0   -0.34    0.20
  -7  -6   1    2.26    0.31
   7  -6  -1    2.46    0.28
   7  -6  -1    2.43    0.28
  -7  -6  -1    2.38    0.31
   7  -6   1    2.39    0.32
   7  -6   1    2.75    0.33
  -7  -6  -1    2.15    0.28
  -7   6  -2    0.99    0.23
   7  -6  -2    0.61    0.25
   7  -6  -2    0.55    0.22
  -7  -6   2    0.58    0.26
   7  -6   2    0.97    0.30
  -7  -6  -2    0.85    0.24
  -7  -6  -2    0.80    0.27
   7  -6   2    0.52    0.27
   7  -6  -3    4.12    0.33
   7  -6  -3    4.84    0.40
  -7   6  -3    3.89    0.37
  -7  -6   3    3.44    0.38
  -7   6   3    4.45    0.47
   7  -6   3    4.40    0.44
   7  -6   3    4.96    0.42
  -7  -6  -3    4.45    0.37
  -7   6  -4    2.76    0.38
   7  -6  -4    2.82    0.32
   7  -6  -4    3.07    0.38
   7  -6   4    2.80    0.39
   7  -6   4    2.37    0.41
  -7   6   4    3.02    0.45
  -7  -6  -4    2.55    0.34
  -7   6  -5    0.52    0.34
   7  -6  -5    0.90    0.44
  -7  -6  -5    0.16    0.26
  -7   6   5    1.31    0.42
   7  -6   5    0.79    0.41
   7  -6   5    0.02    0.33
  -7   6  -6    3.35    0.49
   7  -6   6    2.72    0.51
  -7   6   6    2.54    0.49
  -7  -7   0    0.07    0.24
  -7  -7   0    0.02    0.20
   7  -7   0    0.37    0.24
  -7  -7   1    1.68    0.27
   7  -7  -1    1.61    0.29
  -7  -7   1    1.72    0.31
  -7  -7  -1    1.72    0.29
  -7  -7  -1    1.68    0.31
   7  -7   1    1.22    0.33
   7  -7   1    1.68    0.32
   7  -7  -2    0.19    0.23
   7  -7  -2   -0.14    0.24
  -7  -7   2    0.34    0.28
   7  -7   2   -0.36    0.27
   7  -7   2   -0.19    0.25
  -7  -7  -2    0.05    0.24
   7  -7  -3    6.29    0.43
  -7   7  -3    6.42    0.45
   7  -7  -3    6.55    0.47
  -7  -7   3    7.39    0.56
   7  -7   3    5.28    0.50
   7  -7   3    6.35    0.48
  -7  -7  -3    7.03    0.51
  -7   7  -4    8.41    0.59
   7  -7  -4    9.15    0.52
   7  -7  -4    8.72    0.60
  -7  -7  -4    8.55    0.56
  -7   7   4    8.59    0.66
   7  -7   4    7.65    0.60
   7  -7   4    8.80    0.57
  -7   7  -5    0.10    0.33
  -7   7   5    0.48    0.41
   7  -7   5    0.59    0.42
  -7  -8   0    0.04    0.23
  -7  -8   0   -0.18    0.25
   7  -8   0   -0.47    0.26
  -7  -8   1    0.63    0.23
  -7  -8   1    0.63    0.29
   7  -8  -1    0.62    0.28
  -7  -8  -1    0.79    0.28
   7  -8   1    0.61    0.30
   7  -8   1    1.30    0.35
  -7  -8  -1    0.60    0.25
   7  -8  -2    0.52    0.31
   7  -8  -2    0.64    0.29
  -7  -8   2    0.15    0.32
   7  -8   2    0.35    0.36
   7  -8   2    0.74    0.33
  -7  -8  -2    0.46    0.29
   7  -8  -3    1.03    0.30
   7  -8  -3    1.07    0.34
  -7  -8   3    1.67    0.38
   7  -8   3    0.86    0.39
   7  -8   3    1.16    0.34
  -7  -8  -3    0.89    0.49
  -7  -8   4    3.05    0.47
   7  -8   4    3.57    0.52
  -7   8  -5    0.88    0.38
  -7   8   5    0.78    0.46
   7  -8   5    0.23    0.44
  -7  -9   0   -0.26    0.24
   7  -9   0   -0.11    0.35
   7  -9   1    4.26    0.51
  -7  -9  -1    4.57    0.44
  -7  -9   2    2.20    0.41
   7  -9   2    2.71    0.48
  -7  -9  -2    2.96    0.40
  -7  -9   3   11.93    0.75
   7  -9   3   12.50    0.83
  -7  -9   4    1.62    0.45
   7  -9   4    1.34    0.48
   7 -10   0    0.47    0.41
   7 -10   1    1.64    0.48
   7 -10   2   -0.31    0.39
  -8   0   0   17.00    0.49
   8   0   0   16.24    0.38
   8   0  -1   79.58    0.97
  -8   0  -1   78.09    1.16
   8   0   1   78.35    1.08
  -8   0   1   78.46    1.12
   8   0   2   11.09    0.39
  -8   0   2   11.76    0.40
  -8   0   2   11.67    0.34
   8   0   2   11.58    0.40
  -8   0  -2   11.20    0.44
  -8   0   3   91.60    1.26
   8   0   3   87.05    1.20
  -8   0   3   88.64    1.25
   8   0   3   88.50    1.30
  -8   0  -3   90.09    1.36
  -8   0  -3   90.19    1.18
   8   0   4    1.90    0.28
  -8   0  -4    2.50    0.32
   8   0   4    2.18    0.27
  -8   0   4    2.29    0.26
  -8   0   4    2.27    0.29
  -8   0   5   27.30    0.76
   8   0   5   27.69    0.73
  -8   0  -5   27.83    0.81
   8   0   5   27.10    0.76
  -8   0  -6    3.52    0.43
  -8   0   6    3.22    0.42
   8   0   6    2.68    0.37
   8   0   6    2.84    0.36
  -8   0  -7    0.27    0.34
  -8   0   7    0.27    0.36
   8   1   0   52.36    0.75
   8  -1   0   52.04    0.77
  -8  -1   0   50.74    0.87
  -8   1   0   52.61    0.85
  -8  -1   1   58.52    0.94
   8  -1  -1   58.86    0.79
  -8   1  -1   59.57    0.94
   8   1   1   57.36    0.87
  -8   1   1   57.89    0.90
   8  -1   1   58.20    0.78
   8   1  -1   58.61    0.74
  -8   1   1   57.98    0.81
   8  -1   1   58.22    0.88
   8  -1  -2    5.57    0.22
   8   1   2    5.22    0.32
  -8   1  -2    4.83    0.35
  -8  -1   2    5.22    0.34
  -8   1   2    5.65    0.30
   8  -1   2    5.13    0.28
  -8   1   2    5.48    0.32
  -8  -1  -2    5.48    0.37
   8  -1   2    5.69    0.34
  -8   1  -3   11.61    0.33
  -8  -1   3   11.23    0.43
   8   1   3   11.41    0.45
  -8  -1   3   11.24    0.39
  -8   1  -3   10.90    0.47
  -8  -1  -3   10.85    0.48
   8  -1   3   11.77    0.47
   8  -1   3   11.99    0.42
  -8   1   3   11.39    0.43
  -8   1   3   11.86    0.39
  -8  -1  -3   12.01    0.39
  -8   1  -4   20.00    0.66
  -8  -1   4   20.91    0.60
   8   1   4   20.26    0.61
  -8  -1   4   20.97    0.59
   8  -1  -4   21.35    0.62
   8  -1   4   20.22    0.62
   8  -1   4   20.29    0.58
  -8  -1  -4   19.81    0.50
  -8   1   4   19.00    0.60
  -8  -1  -4   19.48    0.63
  -8  -1   5    1.12    0.29
  -8   1  -5    0.11    0.27
   8  -1  -5    0.68    0.25
   8   1   5    0.98    0.29
  -8   1   5    0.76    0.28
   8  -1   5    0.61    0.28
  -8  -1  -5    0.59    0.28
   8  -1   5    0.21    0.25
  -8  -1   6   25.25    0.85
  -8   1  -6   25.15    0.88
   8  -1  -6   27.30    0.80
   8   1   6   26.27    0.82
   8  -1   6   26.71    0.82
   8  -1   6   26.45    0.82
  -8   1   6   26.94    0.89
  -8  -1  -6   27.56    0.86
  -8   1  -7    0.17    0.33
  -8  -1   7    0.01    0.36
  -8   1   7    0.57    0.36
   8  -1   7   -0.54    0.33
  -8  -1  -7    0.19    0.33
  -8  -2   0   43.42    0.81
  -8   2   0   42.62    0.74
   8  -2   0   43.41    0.71
   8   2   0   43.03    0.66
   8   2   1   63.99    0.93
   8  -2  -1   62.58    0.88
  -8   2  -1   62.05    0.98
  -8  -2   1   64.18    1.02
   8  -2   1   65.19    0.96
  -8   2   1   61.76    0.92
   8  -2   1   62.36    0.89
  -8  -2  -1   62.69    1.04
   8   2  -1   61.42    0.78
   8   2   2   28.06    0.62
  -8   2  -2   28.41    0.67
   8  -2  -2   28.15    0.64
  -8  -2   2   28.66    0.65
   8  -2  -2   29.58    0.51
   8  -2   2   28.99    0.59
  -8   2   2   28.64    0.56
  -8  -2  -2   29.40    0.69
   8  -2   2   28.84    0.65
  -8   2   2   29.54    0.63
  -8   2  -3   28.33    0.71
   8   2   3   28.18    0.67
   8  -2  -3   28.09    0.68
  -8  -2   3   27.65    0.68
  -8   2   3   28.84    0.68
  -8  -2  -3   27.66    0.60
  -8  -2  -3   27.96    0.70
   8  -2   3   27.02    0.67
   8  -2   3   27.79    0.65
   8  -2  -4   17.97    0.61
  -8   2  -4   17.65    0.63
   8   2   4   17.09    0.58
  -8  -2  -4   16.81    0.61
  -8  -2  -4   17.58    0.50
  -8   2   4   17.67    0.61
   8  -2   4   17.78    0.60
   8  -2   4   17.75    0.60
   8  -2  -5    4.93    0.39
   8   2   5    4.61    0.40
  -8  -2   5    5.82    0.57
  -8   2  -5    5.48    0.46
   8  -2   5    6.11    0.46
  -8  -2  -5    4.86    0.35
  -8   2   5    4.66    0.43
   8  -2   5    5.37    0.44
  -8  -2  -5    5.39    0.43
   8   2   6    5.58    0.46
  -8   2  -6    6.42    0.53
   8  -2  -6    5.84    0.46
  -8  -2   6    5.99    0.55
  -8  -2  -6    6.68    0.51
   8  -2   6    5.99    0.49
  -8   2   6    5.51    0.51
   8  -2   6    6.64    0.54
  -8   2  -7    3.58    0.51
   8  -2   7    4.12    0.53
  -8  -2  -7    4.08    0.46
  -8   2   7    3.04    0.50
   8   3   0  188.82    2.12
  -8   3   0  188.21    2.18
   8  -3   0  190.68    2.21
  -8  -3   0  189.82    2.32
   8   3   1   54.36    0.84
  -8   3  -1   52.09    0.87
   8  -3  -1   51.10    0.87
   8  -3  -1   52.14    0.82
  -8  -3   1   51.55    0.92
  -8  -3  -1   50.97    0.94
   8  -3   1   52.60    0.85
   8  -3   1   51.72    0.87
  -8   3   1   50.99    0.78
   8  -3  -2   73.59    1.16
  -8  -3   2   77.31    1.21
  -8   3  -2   75.95    1.19
   8  -3  -2   75.94    1.04
   8   3   2   76.74    1.15
   8  -3   2   78.14    1.16
  -8  -3  -2   75.60    1.22
   8  -3   2   76.39    1.16
  -8   3   2   77.69    1.21
  -8  -3  -2   77.59    1.16
   8   3   3   20.42    0.59
   8  -3  -3   19.82    0.47
  -8   3  -3   20.89    0.64
  -8  -3   3   21.88    0.63
   8  -3  -3   21.51    0.62
  -8  -3  -3   21.11    0.57
   8  -3   3   20.05    0.59
  -8  -3  -3   19.94    0.63
   8  -3   3   22.01    0.62
  -8   3   3   20.01    0.63
   8   3   4   -0.03    0.22
  -8   3  -4    0.11    0.25
   8  -3  -4   -0.04    0.23
  -8  -3  -4    0.22    0.23
   8  -3   4    0.08    0.25
   8  -3   4    0.12    0.26
  -8   3   4    0.07    0.23
  -8  -3  -4    0.16    0.19
  -8   3  -5    0.54    0.30
   8   3   5    0.90    0.28
   8  -3  -5    0.77    0.29
  -8  -3  -5    0.77    0.23
   8  -3   5    0.99    0.31
  -8   3   5    0.78    0.30
   8  -3   5    0.59    0.32
  -8  -3  -5    0.59    0.28
   8   3   6   10.55    0.63
  -8   3  -6   10.26    0.69
   8  -3  -6   10.12    0.60
  -8  -3  -6    9.55    0.63
  -8   3   6    9.90    0.66
   8  -3   6    9.91    0.67
   8  -3   6   10.71    0.62
  -8   3  -7    0.04    0.35
   8  -3   7    0.02    0.40
  -8   3   7   -0.28    0.37
  -8  -4   0   14.47    0.54
  -8   4   0   14.08    0.41
   8  -4   0   14.91    0.48
   8  -4  -1   16.81    0.47
   8  -4  -1   17.34    0.51
  -8  -4   1   16.80    0.57
  -8   4  -1   16.31    0.49
  -8  -4  -1   18.59    0.60
   8  -4   1   16.13    0.51
   8  -4   1   16.94    0.52
   8  -4  -2    8.95    0.37
   8  -4  -2    8.70    0.45
  -8  -4   2    8.96    0.49
   8   4   2    8.28    0.40
  -8   4  -2    8.71    0.45
   8  -4   2    9.11    0.45
  -8  -4  -2    9.21    0.42
   8  -4   2    8.24    0.43
  -8  -4  -2    7.93    0.49
  -8   4   2    8.96    0.47
   8  -4  -3   28.54    0.74
  -8   4  -3   30.65    0.78
   8   4   3   29.55    0.72
  -8  -4   3   29.00    0.76
   8  -4  -3   28.48    0.61
  -8   4   3   31.02    0.81
  -8  -4  -3   29.20    0.76
  -8  -4  -3   30.12    0.71
   8  -4   3   29.27    0.76
   8  -4   3   29.93    0.74
  -8   4  -4    1.82    0.34
   8  -4  -4    2.15    0.32
   8   4   4    1.97    0.30
   8  -4   4    2.95    0.37
  -8   4   4    1.76    0.34
  -8  -4  -4    2.10    0.32
  -8  -4  -4    1.83    0.28
   8  -4   4    2.86    0.38
   8  -4  -5   12.10    0.61
   8   4   5   11.83    0.61
  -8   4  -5   13.01    0.67
   8  -4   5   12.61    0.69
  -8  -4  -5   11.78    0.54
  -8  -4  -5   12.47    0.62
  -8   4   5   11.84    0.65
   8  -4   5   12.51    0.62
  -8   4  -6    1.45    0.38
   8  -4   6    2.84    0.43
   8  -4   6    2.10    0.45
  -8   4   6    2.12    0.42
  -8  -4  -6    1.79    0.32
  -8   4  -7    0.29    0.37
   8  -4   7    0.60    0.45
  -8   4   7   -0.01    0.40
   8  -5   0    0.88    0.23
   8  -5   0    0.51    0.19
  -8  -5   0    0.69    0.24
   8  -5  -1   29.10    0.67
  -8   5  -1   30.03    0.65
   8  -5  -1   28.47    0.66
  -8  -5   1   28.87    0.76
  -8  -5  -1   29.63    0.75
  -8  -5  -1   28.89    0.71
   8  -5   1   29.32    0.72
   8  -5   1   29.51    0.70
   8  -5  -2    7.14    0.40
  -8  -5   2    6.75    0.49
   8  -5  -2    6.10    0.40
  -8   5  -2    6.69    0.43
  -8  -5  -2    6.27    0.40
   8  -5   2    5.53    0.40
  -8  -5  -2    6.29    0.44
   8  -5   2    5.53    0.41
  -8   5  -3    3.03    0.34
   8  -5  -3    3.24    0.29
   8  -5  -3    3.77    0.37
  -8  -5   3    3.63    0.38
  -8   5   3    3.06    0.38
   8  -5   3    3.63    0.37
  -8  -5  -3    3.47    0.37
   8  -5   3    3.63    0.38
  -8  -5  -3    2.59    0.31
   8  -5  -4   40.31    0.97
  -8   5  -4   41.75    1.01
  -8   5   4   42.84    1.09
   8  -5   4   42.55    0.98
  -8  -5  -4   43.04    0.94
  -8  -5  -4   41.70    0.95
   8  -5   4   42.81    1.03
   8  -5  -5    0.34    0.30
  -8   5  -5    0.53    0.32
   8  -5   5   -0.35    0.29
  -8   5   5    0.06    0.33
   8  -5   5    0.31    0.34
  -8  -5  -5   -0.08    0.23
  -8   5  -6   27.23    0.98
   8  -5   6   26.86    1.00
  -8   5   6   27.66    1.06
  -8  -6   0   18.48    0.60
   8  -6   0   17.36    0.58
  -8  -6   0   18.34    0.66
   8  -6  -1    1.92    0.28
  -8  -6   1    2.50    0.34
   8  -6  -1    2.11    0.28
   8  -6   1    2.04    0.30
  -8  -6  -1    1.76    0.32
  -8  -6  -1    2.15    0.29
   8  -6   1    1.21    0.29
   8  -6  -2   13.97    0.54
  -8   6  -2   14.24    0.58
  -8  -6   2   13.87    0.61
   8  -6  -2   13.71    0.54
  -8  -6  -2   13.81    0.62
   8  -6   2   13.61    0.62
   8  -6   2   13.81    0.59
  -8  -6  -2   13.31    0.57
  -8  -6   3    0.55    0.31
   8  -6  -3   -0.13    0.20
   8  -6  -3    0.35    0.27
  -8   6  -3   -0.13    0.23
   8  -6   3   -0.16    0.28
  -8  -6  -3    0.05    0.23
  -8   6   3    0.21    0.30
   8  -6   3    0.40    0.29
   8  -6  -4    8.52    0.56
  -8   6  -4    7.21    0.52
  -8  -6   4    7.00    0.53
   8  -6   4    7.32    0.52
  -8   6   4    6.20    0.56
   8  -6   4    7.12    0.57
  -8  -6  -4    6.93    0.49
  -8   6  -5    0.22    0.32
   8  -6   5    0.24    0.39
   8  -6   5    0.07    0.39
  -8   6   5    0.10    0.38
  -8   6  -6    3.18    0.50
   8  -6   6    1.90    0.50
  -8   6   6    3.33    0.55
  -8  -7   0  112.84    1.70
  -8  -7   0  115.82    1.78
   8  -7   0  118.34    1.72
   8  -7  -1   28.47    0.75
  -8  -7   1   28.66    0.83
  -8  -7   1   27.98    0.74
   8  -7   1   29.43    0.81
  -8  -7  -1   29.43    0.79
   8  -7   1   29.05    0.85
  -8  -7  -1   27.11    0.81
   8  -7  -2   58.29    1.11
  -8  -7   2   55.26    1.19
   8  -7  -2   58.97    1.13
   8  -7   2   55.09    1.16
  -8  -7  -2   58.18    1.15
   8  -7   2   59.20    1.24
   8  -7  -3   12.37    0.63
  -8  -7   3   11.84    0.66
   8  -7  -3   11.58    0.56
   8  -7   3   12.43    0.71
   8  -7   3   10.66    0.62
  -8  -7  -3   12.42    0.60
  -8   7  -4    2.61    0.39
  -8  -7   4    2.26    0.43
   8  -7  -4    1.78    0.32
   8  -7  -4    1.36    0.39
  -8   7   4    2.19    0.46
   8  -7   4    1.72    0.43
   8  -7   4    2.48    0.45
  -8   7  -5    0.90    0.37
  -8   7   5    0.50    0.41
   8  -7   5    0.32    0.42
  -8  -8   0    7.60    0.50
   8  -8   0    7.33    0.51
  -8  -8   0    7.62    0.54
   8  -8  -1    2.02    0.34
  -8  -8   1    1.95    0.30
  -8  -8   1    1.95    0.38
  -8  -8  -1    2.05    0.33
   8  -8   1    1.55    0.35
   8  -8   1    1.92    0.39
  -8  -8   2    4.31    0.47
   8  -8  -2    3.68    0.40
  -8  -8  -2    3.56    0.41
   8  -8   2    4.14    0.48
   8  -8   2    3.50    0.43
   8  -8  -3   -0.43    0.29
   8  -8  -3   -0.15    0.30
  -8  -8   3    0.26    0.34
   8  -8   3   -0.31    0.36
  -8  -8   4    1.24    0.44
   8  -8   4    0.78    0.45
  -8  -9   0    0.17    0.27
   8  -9   0    0.64    0.39
  -8  -9   1    7.02    0.54
   8  -9   1    6.22    0.57
  -8  -9   2    1.94    0.42
   8  -9   2    1.71    0.44
  -8  -9   3    0.71    0.41
   8  -9   3    0.62    0.44
   8 -10   0    3.98    0.57
   8 -10   1    3.77    0.57
   9   0   0    0.12    0.14
  -9   0   0    0.25    0.20
  -9   0   1    6.22    0.36
   9   0  -1    6.20    0.25
   9   0   1    6.33    0.32
  -9   0  -1    5.91    0.40
   9   0   2   18.56    0.52
  -9   0   2   17.77    0.52
  -9   0  -2   19.13    0.58
   9   0   3   60.12    1.03
  -9   0  -3   59.62    1.09
  -9   0   3   60.35    1.00
  -9   0  -3   60.73    0.92
  -9   0   4   17.56    0.56
   9   0   4   19.21    0.62
  -9   0  -4   17.06    0.65
   9   0   5   49.40    1.06
  -9   0   5   50.31    1.17
  -9   0  -5   50.39    1.12
  -9   0   6    2.03    0.41
  -9   0  -6    1.89    0.39
   9   0   6    1.37    0.34
  -9   0  -7    9.32    0.70
   9   1   0    0.01    0.13
  -9  -1   0    0.01    0.19
  -9   1   0   -0.11    0.18
   9  -1   0    0.21    0.15
  -9  -1   1   15.74    0.50
  -9   1  -1   14.59    0.49
   9   1   1   14.93    0.44
   9  -1  -1   15.15    0.37
   9   1  -1   15.50    0.34
  -9  -1  -1   14.77    0.54
   9  -1   1   15.24    0.44
  -9   1   1   15.50    0.47
  -9  -1   2    0.46    0.21
  -9   1  -2    0.26    0.22
   9   1   2    0.08    0.18
   9  -1   2   -0.13    0.19
  -9  -1  -2    0.32    0.22
  -9   1   2    0.33    0.24
  -9   1   2   -0.13    0.17
  -9  -1   3   45.11    0.87
   9   1   3   43.71    0.87
  -9   1  -3   45.68    0.93
  -9  -1  -3   46.25    0.94
  -9   1   3   45.36    0.81
  -9  -1  -3   44.00    0.79
   9  -1   3   45.19    0.88
  -9   1   3   45.96    0.84
  -9   1  -4    0.25    0.25
   9   1   4   -0.04    0.22
  -9  -1   4    0.01    0.22
  -9  -1  -4   -0.08    0.24
  -9   1   4    0.09    0.22
   9  -1   4   -0.17    0.23
  -9  -1  -4   -0.08    0.15
   9   1   5    8.97    0.54
  -9   1  -5    8.74    0.57
  -9  -1   5    8.97    0.49
  -9  -1  -5    9.20    0.60
   9  -1   5    9.11    0.55
  -9   1   5    8.75    0.53
  -9   1  -6    2.13    0.40
   9   1   6    1.63    0.35
   9  -1   6    1.90    0.38
  -9   1   6    2.23    0.40
  -9  -1  -6    1.45    0.36
  -9   1  -7    0.78    0.39
  -9  -1  -7    1.11    0.37
  -9   1   7    0.05    0.36
  -9   2   0    0.05    0.18
  -9  -2   0    0.02    0.19
   9   2   0    0.12    0.13
   9  -2   0    0.11    0.16
  -9  -2   1    8.16    0.42
   9   2   1    8.63    0.36
   9  -2  -1    8.07    0.32
  -9   2  -1    7.88    0.41
  -9   2   1    8.15    0.38
   9  -2   1    7.83    0.37
  -9  -2  -1    8.16    0.44
   9  -2   1    8.42    0.32
  -9  -2   2    2.00    0.27
   9   2   2    1.61    0.24
  -9   2  -2    1.42    0.26
   9  -2  -2    1.16    0.16
   9  -2   2    1.43    0.21
   9  -2   2    1.52    0.25
  -9  -2  -2    1.48    0.26
  -9   2   2    1.49    0.22
  -9   2   2    1.57    0.21
  -9   2  -3   10.35    0.51
  -9  -2   3   10.02    0.47
   9   2   3    9.74    0.46
   9  -2  -3    8.90    0.45
  -9   2   3    9.72    0.45
  -9  -2  -3    9.67    0.41
   9  -2   3   10.00    0.43
   9  -2   3    9.98    0.47
  -9  -2  -3    9.68    0.50
  -9   2  -4    2.98    0.37
  -9  -2   4    2.59    0.33
   9   2   4    2.58    0.32
   9  -2  -4    1.93    0.30
  -9  -2  -4    2.39    0.26
   9  -2   4    1.71    0.32
  -9   2   4    2.41    0.32
  -9  -2  -4    2.59    0.34
   9  -2   4    2.37    0.30
   9   2   5    0.23    0.28
  -9   2  -5    0.61    0.31
  -9  -2   5    0.53    0.27
   9  -2  -5    0.74    0.29
  -9   2   5    0.34    0.29
  -9  -2  -5    0.46    0.28
   9  -2   5    0.46    0.29
   9  -2   5    0.03    0.27
  -9   2  -6   12.09    0.71
   9  -2  -6   11.81    0.63
   9   2   6   12.35    0.65
   9  -2   6   11.55    0.67
  -9  -2  -6   11.93    0.70
  -9   2   6   12.12    0.67
   9  -2   6   12.04    0.66
  -9   2  -7    1.38    0.42
  -9  -2  -7    0.99    0.38
  -9   2   7    1.54    0.43
   9  -3   0    0.03    0.17
  -9   3   0   -0.33    0.15
   9   3   0    0.01    0.13
  -9  -3   0    0.02    0.21
   9   3   1    7.20    0.34
  -9  -3   1    7.43    0.44
  -9   3  -1    7.52    0.40
   9  -3  -1    7.06    0.34
   9  -3   1    7.29    0.35
  -9   3   1    7.57    0.42
   9  -3   1    7.40    0.38
  -9  -3  -1    7.38    0.47
   9  -3  -2    3.27    0.24
  -9   3  -2    3.35    0.32
   9  -3  -2    3.16    0.30
   9   3   2    3.03    0.29
  -9  -3   2    3.42    0.32
  -9  -3  -2    3.60    0.35
   9  -3   2    3.17    0.28
  -9  -3  -2    3.27    0.28
   9  -3   2    3.77    0.32
  -9   3   2    2.88    0.30
  -9  -3   3   17.72    0.60
   9   3   3   18.60    0.59
   9  -3  -3   16.38    0.59
  -9   3  -3   17.61    0.62
  -9  -3  -3   17.99    0.54
  -9   3   3   17.63    0.60
  -9  -3  -3   16.87    0.61
   9  -3   3   17.31    0.57
   9  -3   3   17.16    0.59
   9  -3  -4    5.41    0.42
  -9   3  -4    4.95    0.44
   9   3   4    4.86    0.40
  -9  -3   4    5.62    0.43
  -9   3   4    5.60    0.45
  -9  -3  -4    5.01    0.43
   9  -3   4    4.98    0.41
   9  -3   4    5.37    0.43
  -9  -3  -4    4.97    0.36
   9   3   5    0.45    0.27
  -9   3  -5    0.60    0.33
  -9  -3   5    0.36    0.29
   9  -3  -5    0.59    0.29
  -9  -3  -5    0.21    0.22
   9  -3   5    0.35    0.31
  -9   3   5    0.83    0.31
  -9  -3  -5    0.04    0.27
   9  -3   5    0.33    0.31
  -9   3  -6    1.59    0.41
   9  -3   6    1.26    0.49
   9  -3   6    0.97    0.39
  -9   3   6    2.60    0.44
  -9  -3  -6    2.45    0.41
  -9   3  -7    6.30    0.59
  -9   3   7    5.16    0.58
   9  -3   7    6.01    0.62
  -9  -4   0    0.25    0.23
   9  -4   0    0.34    0.19
   9  -4  -1    4.51    0.31
   9   4   1    4.16    0.29
   9  -4  -1    4.67    0.32
  -9  -4   1    4.50    0.38
  -9   4  -1    3.88    0.31
  -9  -4  -1    4.63    0.38
   9  -4   1    3.82    0.32
   9  -4   1    4.81    0.34
  -9  -4   2    8.82    0.50
  -9   4  -2    9.04    0.47
   9  -4  -2    9.17    0.38
   9   4   2    9.93    0.45
   9  -4  -2    9.35    0.48
  -9  -4  -2    9.31    0.45
   9  -4   2    9.87    0.48
  -9  -4  -2    9.55    0.55
   9  -4   2    9.09    0.47
  -9   4  -3   29.03    0.79
  -9  -4   3   28.59    0.78
   9   4   3   29.75    0.74
   9  -4  -3   27.65    0.77
   9  -4  -3   27.39    0.88
  -9   4   3   27.89    0.80
  -9  -4  -3   27.32    0.71
   9  -4   3   27.89    0.74
   9  -4   3   29.54    0.78
  -9  -4  -3   28.16    0.80
   9   4   4    6.03    0.44
  -9  -4   4    6.31    0.47
   9  -4  -4    7.29    0.53
  -9   4  -4    6.09    0.46
   9  -4   4    7.34    0.49
  -9  -4  -4    7.02    0.51
   9  -4   4    6.64    0.49
  -9   4   4    5.24    0.45
  -9  -4  -4    6.88    0.44
  -9   4  -5   19.08    0.79
   9   4   5   18.92    0.71
   9  -4  -5   20.07    0.74
  -9  -4  -5   20.20    0.75
   9  -4   5   19.30    0.77
   9  -4   5   19.40    0.74
  -9  -4  -5   19.16    0.65
  -9   4   5   19.74    0.81
  -9   4  -6   -0.41    0.32
   9  -4   6    0.15    0.38
  -9   4   6    0.29    0.38
  -9  -4  -6   -0.09    0.32
   9  -5   0    0.18    0.21
  -9  -5   0   -0.04    0.24
   9  -5  -1   13.14    0.48
   9  -5  -1   12.55    0.50
  -9  -5   1   11.98    0.60
  -9  -5  -1   12.18    0.57
   9  -5   1   12.96    0.53
  -9  -5  -1   12.80    0.52
   9  -5   1   12.18    0.52
  -9  -5   2    0.39    0.27
   9  -5  -2    0.10    0.22
  -9   5  -2    0.35    0.23
   9  -5  -2    0.09    0.20
   9  -5   2    0.07    0.26
   9  -5   2    0.13    0.24
  -9  -5  -2    0.66    0.24
  -9  -5  -2    0.17    0.27
   9  -5  -3   43.53    0.84
  -9   5  -3   42.98    0.98
   9  -5  -3   43.62    0.97
  -9  -5   3   43.31    1.00
  -9  -5  -3   43.56    0.94
   9  -5   3   46.10    1.01
  -9  -5  -3   42.89    1.00
  -9   5   3   43.66    1.06
   9  -5   3   43.16    0.98
   9  -5  -4    2.58    0.38
  -9  -5   4    3.80    0.43
  -9   5  -4    3.04    0.40
   9  -5   4    3.30    0.41
  -9  -5  -4    2.58    0.33
   9  -5   4    3.09    0.42
  -9   5   4    3.50    0.45
  -9  -5  -4    3.62    0.39
  -9  -5   5   16.46    0.78
  -9   5  -5   15.28    0.73
  -9  -5  -5   15.49    0.63
  -9   5   5   15.12    0.79
   9  -5   5   14.81    0.75
   9  -5   5   15.53    0.71
  -9   5  -6    7.36    0.62
   9  -5   6    7.01    0.64
  -9   5   6    7.87    0.67
  -9  -6   0   -0.10    0.21
  -9  -6   0    0.33    0.28
   9  -6   0   -0.24    0.23
   9  -6  -1    4.28    0.36
  -9  -6   1    4.09    0.42
   9  -6  -1    3.21    0.32
   9  -6   1    2.99    0.36
  -9  -6  -1    2.65    0.33
  -9  -6  -1    3.59    0.41
   9  -6   1    4.07    0.38
   9  -6  -2    2.53    0.34
   9  -6  -2    3.39    0.33
  -9  -6   2    3.13    0.40
   9  -6   2    2.82    0.37
  -9  -6  -2    2.72    0.33
  -9  -6  -2    3.46    0.40
   9  -6   2    2.91    0.37
  -9   6  -3   13.00    0.60
   9  -6  -3   13.81    0.55
   9  -6  -3   12.72    0.61
  -9  -6   3   14.19    0.71
  -9  -6  -3   14.24    0.67
   9  -6   3   14.05    0.68
   9  -6   3   14.29    0.68
  -9  -6  -3   13.47    0.59
  -9   6  -4    0.34    0.29
  -9  -6   4    0.21    0.33
   9  -6  -4   -0.03    0.29
   9  -6   4    0.45    0.33
  -9   6   4   -0.09    0.32
   9  -6   4   -0.01    0.35
  -9  -6  -4    0.22    0.27
  -9  -6   5    7.37    0.60
  -9   6  -5    5.73    0.54
   9  -6   5    5.69    0.58
  -9   6   5    6.24    0.62
  -9   6  -6    2.37    0.46
  -9  -6   6    2.01    0.46
   9  -6   6    0.99    0.45
  -9   6   6    2.16    0.51
  -9  -7   0    0.42    0.24
  -9  -7   0    0.51    0.32
   9  -7   0   -0.10    0.25
   9  -7  -1    2.49    0.34
  -9  -7   1    2.01    0.30
  -9  -7   1    2.68    0.39
   9  -7   1    2.49    0.37
  -9  -7  -1    2.31    0.33
   9  -7   1    2.16    0.37
  -9  -7  -1    2.15    0.38
   9  -7  -2    1.53    0.33
  -9  -7   2    1.21    0.35
   9  -7  -2    1.28    0.30
   9  -7   2    1.62    0.35
  -9  -7  -2    1.54    0.32
   9  -7   2    1.20    0.35
  -9  -7  -2    2.23    0.43
   9  -7  -3    5.99    0.44
  -9  -7   3    5.08    0.51
   9  -7  -3    5.89    0.49
  -9  -7  -3    4.90    0.45
   9  -7   3    5.93    0.50
   9  -7   3    4.22    0.49
  -9  -7   4    3.33    0.49
  -9   7  -4    2.87    0.42
   9  -7   4    3.73    0.51
  -9  -7   5   -0.26    0.40
  -9   7  -5    0.42    0.36
  -9   7   5    0.80    0.43
   9  -7   5    0.08    0.42
   9  -8   0    0.01    0.31
  -9  -8   0   -0.25    0.33
  -9  -8   0   -0.17    0.24
   9  -8   0    0.04    0.31
  -9  -8   1    1.27    0.30
  -9  -8   1    1.31    0.39
   9  -8  -1    1.63    0.33
   9  -8   1    1.12    0.36
   9  -8   1    0.84    0.37
  -9  -8  -1    1.36    0.33
   9  -8  -2    1.21    0.35
  -9  -8   2    1.81    0.40
   9  -8   2    1.36    0.38
  -9  -8   3    4.35    0.51
   9  -8   3    2.74    0.48
  -9  -8   4    0.09    0.39
   9  -8   4    0.45    0.40
   9  -9   0   -0.15    0.36
  -9  -9   1    3.54    0.48
   9  -9   1    3.22    0.49
  -9  -9   2   -0.15    0.37
   9  -9   2   -0.51    0.36
  -9  -9   3   13.05    0.83
   9  -9   3   14.41    0.86
 -10   0   0   24.21    0.66
  10   0   0   24.48    0.52
 -10   0  -1   -0.01    0.21
 -10   0   1    0.46    0.21
  10   0   1    0.37    0.18
  10   0  -1    0.17    0.13
  10   0   2   56.31    0.96
 -10   0  -2   55.51    1.05
 -10   0   2   56.41    0.99
 -10   0  -3    2.50    0.33
 -10   0   3    2.94    0.29
  10   0   3    2.88    0.32
  10   0   4   80.66    1.34
 -10   0   4   79.89    1.27
 -10   0  -4   79.88    1.41
  10   0   5   11.28    0.62
 -10   0  -5    9.98    0.64
 -10   0  -6   48.09    1.20
 -10   0  -7    3.48    0.50
 -10   1   0    0.09    0.21
  10  -1   0    0.01    0.16
 -10  -1   0    0.00    0.21
  10   1   0    0.43    0.15
  10   1   1   34.72    0.68
  10  -1  -1   34.76    0.61
 -10  -1   1   34.19    0.78
 -10   1  -1   34.76    0.77
  10  -1   1   35.75    0.70
 -10  -1  -1   34.34    0.80
 -10   1   1   33.22    0.73
  10   1   2    1.89    0.26
 -10  -1   2    2.28    0.29
 -10   1  -2    2.49    0.30
  10  -1   2    1.75    0.26
 -10  -1  -2    2.43    0.33
 -10   1   2    2.12    0.26
 -10   1  -3   22.67    0.70
  10   1   3   23.51    0.66
 -10  -1   3   23.64    0.66
 -10  -1  -3   23.54    0.71
 -10   1   3   23.44    0.61
  10  -1   3   23.42    0.66
 -10  -1  -3   23.28    0.58
 -10   1  -4    9.71    0.56
 -10  -1   4   10.12    0.51
  10   1   4   10.89    0.54
 -10  -1  -4   10.41    0.43
  10  -1   4   11.26    0.56
 -10  -1  -4   11.47    0.59
 -10   1  -5    5.76    0.48
 -10  -1   5    6.90    0.49
  10   1   5    8.36    0.54
 -10  -1  -5    8.01    0.56
  10  -1   5    7.75    0.53
 -10   1  -6    7.53    0.60
 -10  -1  -6    6.44    0.54
 -10   1  -7   -0.03    0.37
 -10  -1  -7    0.14    0.34
  10  -2   0  116.19    1.51
  10   2   0  114.26    1.44
 -10   2   0  118.68    1.59
 -10   2  -1    0.15    0.22
  10   2   1    0.41    0.19
  10  -2  -1    0.54    0.18
 -10  -2   1    0.47    0.24
  10  -2   1    0.37    0.21
 -10  -2  -1    0.48    0.24
 -10   2   1    0.66    0.22
 -10  -2   2   48.82    0.97
  10   2   2   49.40    0.90
 -10   2  -2   49.90    0.98
  10  -2   2   50.73    0.93
 -10  -2  -2   48.89    1.00
  10   2   3   18.39    0.59
 -10   2  -3   18.20    0.66
 -10  -2   3   17.64    0.60
 -10  -2  -3   19.05    0.54
  10  -2   3   18.14    0.61
 -10  -2  -3   17.11    0.64
 -10  -2   4    0.14    0.25
 -10   2  -4    0.09    0.27
  10   2   4    0.26    0.26
  10  -2   4    0.06    0.27
 -10  -2  -4    0.08    0.26
 -10  -2  -4   -0.24    0.18
 -10   2  -5   20.19    0.81
 -10  -2   5   20.93    0.73
  10   2   5   19.07    0.71
 -10  -2  -5   20.39    0.77
 -10   2   5   19.59    0.81
  10  -2   5   21.42    0.75
 -10  -2   6    7.43    0.54
 -10   2  -6    7.61    0.60
 -10  -2  -6    7.37    0.58
 -10   2   6    8.40    0.87
 -10   2  -7    3.21    0.51
 -10  -2  -7    2.70    0.47
  10   3   0    0.77    0.17
  10  -3   0    0.48    0.20
 -10  -3   0    1.07    0.27
 -10   3   0    0.69    0.21
 -10   3  -1    1.36    0.26
 -10  -3   1    1.34    0.29
  10   3   1    1.38    0.22
  10  -3  -1    1.24    0.21
  10  -3   1    1.38    0.24
  10  -3   1    1.53    0.26
 -10  -3  -1    1.46    0.30
  10   3   2    8.19    0.42
 -10  -3   2    9.02    0.49
 -10   3  -2    7.69    0.45
  10  -3  -2    7.63    0.34
  10  -3   2    7.93    0.45
  10  -3   2    7.97    0.57
 -10   3   2    7.29    0.43
 -10  -3  -2    8.06    0.53
 -10   3  -3    0.21    0.25
  10  -3  -3    0.16    0.25
 -10  -3   3   -0.07    0.24
  10   3   3   -0.02    0.22
 -10  -3  -3    0.06    0.20
 -10   3   3    0.31    0.23
  10  -3   3    0.16    0.26
 -10  -3  -3    0.37    0.27
 -10  -3   4   17.38    0.68
  10  -3  -4   16.92    0.67
  10   3   4   16.66    0.64
 -10   3  -4   19.36    0.74
 -10  -3  -4   16.21    0.58
 -10  -3  -4   18.07    0.72
 -10   3   4   17.17    0.68
  10  -3   4   15.75    0.66
 -10   3  -5    0.31    0.31
  10  -3  -5   -0.08    0.27
  10   3   5    0.36    0.30
 -10  -3   5    0.21    0.30
 -10  -3  -5    0.28    0.23
 -10   3   5    0.05    0.29
 -10  -3  -5    0.14    0.29
  10  -3   5    0.06    0.30
 -10  -3   6    7.46    0.57
 -10   3  -6    5.92    0.57
 -10  -3  -6    7.00    0.57
 -10   3   6    6.78    0.58
 -10  -4   0    2.67    0.33
  10  -4   0    2.55    0.29
  10  -4  -1    0.00    0.19
 -10   4  -1   -0.17    0.20
  10   4   1    0.18    0.18
 -10  -4   1    0.15    0.25
  10  -4   1    0.01    0.21
 -10  -4  -1   -0.48    0.24
  10  -4   1    0.01    0.19
  10  -4  -2   15.24    0.49
  10   4   2   15.53    0.54
 -10  -4   2   15.33    0.62
  10  -4  -2   15.78    0.60
 -10   4  -2   14.76    0.58
 -10  -4  -2   15.22    0.55
  10  -4   2   15.04    0.58
  10  -4   2   14.99    0.55
 -10  -4  -2   15.26    0.65
 -10  -4   3    4.87    0.43
  10   4   3    4.45    0.39
 -10   4  -3    4.45    0.41
  10  -4  -3    4.44    0.41
 -10  -4  -3    4.90    0.39
  10  -4   3    4.66    0.38
  10  -4   3    4.21    0.40
 -10  -4  -3    4.75    0.45
 -10   4   3    5.92    0.46
 -10  -4   4   43.41    1.05
  10   4   4   40.29    0.96
 -10   4  -4   42.98    1.04
  10  -4  -4   40.68    1.00
  10  -4   4   42.12    0.98
  10  -4   4   40.56    0.99
 -10  -4  -4   40.91    1.02
 -10   4   4   40.20    1.05
 -10  -4  -4   41.97    0.93
 -10   4  -5    8.09    0.59
 -10  -4   5   10.19    0.67
  10   4   5    8.45    0.58
  10  -4  -5    9.76    0.67
 -10  -4  -5    8.68    0.50
  10  -4   5    8.89    0.61
 -10   4   5    9.21    0.68
  10  -4   5    9.43    0.60
 -10  -4  -5    9.56    0.65
 -10  -4   6   28.77    0.98
 -10   4  -6   31.85    1.04
 -10   4   6   31.25    1.08
  10  -5   0    0.34    0.25
 -10  -5   0    0.31    0.27
  10  -5  -1   78.99    1.26
  10  -5  -1   77.82    1.27
 -10  -5   1   80.10    1.40
 -10  -5  -1   77.92    1.33
  10  -5   1   78.70    1.31
 -10  -5  -1   79.83    1.40
  10  -5   1   78.92    1.30
  10  -5  -2    0.03    0.20
 -10  -5   2    0.04    0.27
 -10   5  -2    0.14    0.22
  10  -5  -2    0.16    0.26
  10  -5   2    0.17    0.26
 -10  -5  -2    0.14    0.30
  10  -5   2   -0.02    0.25
 -10  -5  -2    0.39    0.25
 -10  -5   3   44.65    1.08
  10  -5  -3   45.51    1.04
 -10   5  -3   48.44    1.06
  10  -5   3   46.94    1.03
 -10  -5  -3   43.87    1.07
  10  -5   3   45.96    1.04
 -10   5   3   46.67    1.11
 -10  -5  -3   46.92    1.01
  10  -5  -4    3.08    0.41
 -10   5  -4    3.71    0.43
 -10  -5   4    4.06    0.46
 -10  -5  -4    3.93    0.44
 -10   5   4    3.37    0.46
  10  -5   4    3.49    0.43
 -10  -5  -4    4.14    0.40
  10  -5   4    4.04    0.44
 -10  -5   5   14.97    0.80
 -10   5  -5   15.60    0.79
 -10   5   5   14.79    0.80
  10  -5   5   15.06    0.76
 -10   5  -6    4.37    0.53
 -10  -5   6    4.52    0.52
  10  -5   6    3.50    0.55
 -10   5   6    4.01    0.57
 -10  -6   0   15.67    0.61
  10  -6   0   14.77    0.59
 -10  -6   0   14.75    0.70
  10  -6  -1    0.32    0.26
 -10  -6   1    0.02    0.29
 -10  -6  -1    0.10    0.24
  10  -6   1   -0.07    0.25
 -10  -6  -1    0.01    0.29
  10  -6   1    0.14    0.28
  10  -6  -2    1.99    0.30
  10  -6  -2    2.10    0.33
 -10  -6   2    1.98    0.37
  10  -6   2    2.54    0.38
  10  -6   2    2.15    0.36
 -10  -6  -2    2.03    0.39
 -10  -6  -2    2.25    0.34
 -10  -6   3    4.35    0.48
  10  -6  -3    5.00    0.45
 -10   6  -3    4.69    0.43
  10  -6  -3    3.64    0.44
  10  -6   3    4.09    0.45
 -10  -6  -3    4.45    0.47
 -10  -6  -3    4.68    0.43
  10  -6   3    4.32    0.45
 -10  -6   4    5.92    0.56
 -10   6  -4    4.98    0.49
  10  -6   4    4.33    0.50
 -10   6   4    5.51    0.57
 -10  -6   5    8.90    0.67
 -10   6  -5    8.79    0.64
  10  -6   5    9.40    0.71
 -10   6   5    8.54    0.70
 -10  -7   0    0.10    0.34
  10  -7   0    0.05    0.28
  10  -7   0    0.13    0.29
 -10  -7   0   -0.01    0.26
 -10  -7   1    6.98    0.54
 -10  -7   1    7.21    0.51
  10  -7  -1    5.71    0.45
  10  -7   1    6.04    0.50
 -10  -7  -1    6.48    0.47
 -10  -7  -1    7.23    0.56
  10  -7   1    6.17    0.49
  10  -7  -2    3.72    0.45
 -10  -7   2    3.25    0.46
  10  -7  -2    3.25    0.37
 -10  -7  -2    3.73    0.42
 -10  -7  -2    3.88    0.47
  10  -7   2    3.56    0.43
  10  -7   2    3.33    0.43
  10  -7  -3    1.29    0.33
  10  -7  -3    2.10    0.38
 -10  -7   3    1.06    0.41
  10  -7   3    1.19    0.39
 -10  -7   4    9.61    0.69
 -10   7  -4    9.77    0.71
  10  -7   4    8.00    0.64
 -10  -8   0    7.28    0.52
  10  -8   0    6.05    0.54
 -10  -8   0    6.79    0.58
 -10  -8   1    0.97    0.38
 -10  -8   1    0.51    0.29
 -10  -8  -1    0.43    0.40
  10  -8   1    0.44    0.34
 -10  -8   2    1.03    0.40
  10  -8   2   -0.02    0.34
 -10  -8   3    5.56    0.58
  10  -8   3    4.48    0.54
  10  -9   0    0.12    0.36
 -10  -9   1   24.41    0.98
  10  -9   1   24.05    0.95
 -10  -9   2    0.10    0.41
  10  -9   2    0.18    0.39
  11   0   0   -0.11    0.16
 -11   0   0   -0.19    0.23
 -11   0  -1   17.86    0.62
  11   0   1   17.53    0.52
 -11   0   1   16.46    0.59
 -11   0   2    0.09    0.22
 -11   0  -2    0.07    0.23
  11   0   2    0.17    0.20
 -11   0  -3   60.77    1.20
  11   0   3   62.44    1.12
 -11   0   3   61.60    1.10
 -11   0   4   -0.14    0.23
  11   0   4   -0.60    0.23
 -11   0  -4   -0.25    0.27
  11   0   5   14.81    0.67
 -11   0  -5   15.01    0.75
 -11   0  -6    2.67    0.46
  11   1   0   -0.03    0.15
  11  -1   0    0.19    0.17
 -11   1   0   -0.19    0.22
 -11  -1   0   -0.09    0.24
 -11  -1   1    0.21    0.24
  11   1   1    0.05    0.18
 -11   1  -1    0.43    0.25
  11  -1  -1    0.21    0.17
 -11  -1  -1    0.01    0.25
  11  -1   1   -0.20    0.18
 -11   1   1   -0.03    0.22
 -11   1  -2    4.91    0.40
  11   1   2    5.81    0.38
 -11  -1   2    4.98    0.39
  11  -1   2    5.65    0.38
 -11  -1  -2    5.44    0.44
 -11   1   2    5.49    0.41
 -11  -1   3   -0.07    0.24
  11   1   3    0.91    0.27
 -11   1  -3    0.82    0.27
 -11  -1  -3    0.56    0.28
  11  -1   3    0.78    0.28
 -11  -1  -3    0.50    0.19
  11   1   4    1.34    0.31
 -11  -1   4    0.93    0.28
 -11   1  -4    1.15    0.33
  11  -1   4    1.04    0.30
 -11  -1  -4    0.75    0.32
  11   1   5    0.22    0.30
 -11  -1   5    0.06    0.26
 -11   1  -5    0.07    0.32
 -11  -1  -5    0.23    0.32
  11  -1   5    0.33    0.31
 -11   1  -6    0.60    0.37
 -11  -1  -6    0.36    0.37
 -11   2   0    0.15    0.22
  11  -2   0   -0.07    0.18
 -11  -2   0    0.16    0.24
 -11  -2   1    7.46    0.49
 -11   2  -1    7.52    0.47
  11   2   1    6.94    0.37
  11  -2  -1    7.36    0.35
 -11   2   1    7.40    0.43
  11  -2   1    7.24    0.40
 -11  -2  -1    8.61    0.51
  11   2   2   28.52    0.70
 -11   2  -2   30.63    0.78
 -11  -2   2   30.45    0.79
  11  -2   2   30.48    0.74
 -11  -2  -2   30.87    0.83
 -11   2  -3   20.36    0.70
  11   2   3   18.91    0.62
 -11  -2   3   18.66    0.67
 -11  -2  -3   19.01    0.70
  11  -2   3   19.34    0.65
 -11  -2  -3   19.71    0.58
 -11   2  -4   32.36    0.92
 -11  -2   4   32.23    0.84
  11   2   4   31.40    0.84
 -11  -2  -4   30.91    0.90
 -11  -2  -4   30.63    0.75
  11  -2   4   30.81    0.84
  11   2   5    2.47    0.39
 -11  -2   5    2.24    0.38
 -11   2  -5    2.30    0.40
  11  -2   5    2.67    0.40
 -11  -2  -5    2.87    0.42
 -11  -2   6   12.39    0.69
 -11   2  -6   12.58    0.76
 -11  -2  -6   11.97    0.73
 -11   3   0    0.16    0.20
  11  -3   0   -0.36    0.19
 -11  -3   0   -0.36    0.23
 -11   3  -1    0.84    0.25
  11  -3  -1    1.04    0.22
  11   3   1    1.04    0.22
 -11  -3   1    0.68    0.29
  11  -3   1    1.23    0.26
 -11  -3  -1    1.07    0.29
 -11  -3   2    0.66    0.28
  11   3   2    0.68    0.24
 -11   3  -2    0.80    0.27
  11  -3   2    0.61    0.26
 -11  -3  -2    0.61    0.28
 -11  -3   3    2.95    0.38
  11   3   3    3.99    0.37
 -11   3  -3    3.74    0.39
 -11  -3  -3    3.90    0.35
  11  -3   3    3.76    0.38
 -11  -3  -3    3.63    0.40
 -11   3  -4   -0.27    0.28
 -11  -3   4    0.05    0.28
  11   3   4   -0.22    0.26
  11  -3   4    0.23    0.30
 -11  -3  -4   -0.27    0.21
 -11  -3  -4    0.05    0.30
 -11   3  -5    5.11    0.52
 -11  -3   5    4.58    0.47
  11   3   5    4.56    0.48
 -11  -3  -5    4.53    0.51
  11  -3   5    4.06    0.52
 -11  -3  -5    4.65    0.48
 -11  -3   6    1.91    0.41
 -11   3  -6    2.68    0.49
 -11  -3  -6    2.50    0.45
 -11  -4   0    0.30    0.27
  11  -4   0   -0.28    0.20
  11   4   1   11.47    0.44
  11  -4  -1   11.43    0.46
 -11  -4   1   11.72    0.61
 -11   4  -1   10.89    0.51
 -11  -4  -1   10.72    0.62
  11  -4   1   12.08    0.52
  11   4   2    2.41    0.30
 -11  -4   2    2.02    0.36
 -11   4  -2    2.38    0.33
  11  -4  -2    2.05    0.30
 -11  -4  -2    2.40    0.38
 -11  -4  -2    2.49    0.32
  11  -4   2    2.06    0.33
  11  -4  -3   38.92    0.95
  11   4   3   39.31    0.92
 -11  -4   3   36.95    0.98
 -11   4  -3   39.01    0.96
  11  -4   3   38.88    0.95
 -11  -4  -3   37.70    0.89
 -11  -4  -3   37.52    1.01
  11  -4  -4    1.88    0.38
  11   4   4    2.33    0.38
 -11   4  -4    2.45    0.40
 -11  -4   4    1.85    0.38
 -11  -4  -4    1.52    0.38
  11  -4   4    1.87    0.37
 -11  -4  -4    2.29    0.33
 -11  -4   5    7.50    0.58
 -11   4  -5    9.69    0.67
 -11  -4  -5    9.11    0.63
 -11  -4  -5    9.19    0.55
 -11  -4   6    0.64    0.39
 -11   4  -6   -0.01    0.35
  11  -5   0    0.16    0.24
 -11  -5   0   -0.23    0.28
  11  -5   0    0.13    0.22
  11  -5  -1    1.15    0.27
 -11  -5   1    0.99    0.34
  11  -5   1    1.05    0.27
  11  -5   1    1.30    0.31
 -11  -5  -1    0.52    0.32
 -11  -5  -1    1.07    0.27
 -11  -5   2    6.48    0.51
 -11   5  -2    7.15    0.48
  11  -5  -2    7.08    0.45
  11  -5  -2    7.41    0.53
  11  -5   2    7.58    0.51
 -11  -5  -2    8.11    0.58
 -11  -5  -2    6.32    0.45
  11  -5   2    6.51    0.48
  11  -5  -3    4.72    0.45
 -11   5  -3    5.29    0.45
 -11  -5   3    4.97    0.48
 -11  -5  -3    6.27    0.47
  11  -5   3    5.88    0.48
 -11  -5  -3    6.34    0.53
  11  -5   3    5.00    0.64
 -11  -5   4    2.45    0.43
  11  -5  -4    2.23    0.41
 -11   5  -4    1.88    0.39
 -11  -5  -4    2.79    0.43
 -11   5   4    2.30    0.42
 -11  -5  -4    1.90    0.34
 -11   5  -5    4.43    0.51
 -11  -5   5    4.74    0.53
 -11   5   5    4.09    0.52
 -11  -6   0   -0.52    0.30
  11  -6   0   -0.19    0.25
  11  -6   0   -0.16    0.25
  11  -6  -1    5.14    0.42
 -11  -6   1    4.57    0.48
  11  -6   1    5.66    0.47
  11  -6   1    5.08    0.44
 -11  -6  -1    4.30    0.41
 -11  -6  -1    4.88    0.51
  11  -6  -2    5.25    0.42
 -11  -6   2    5.86    0.53
  11  -6  -2    5.48    0.46
  11  -6   2    5.82    0.48
  11  -6   2    5.68    0.48
 -11  -6  -2    6.47    0.56
 -11  -6  -2    5.32    0.46
  11  -6  -3   15.15    0.69
 -11  -6   3   16.24    0.81
 -11   6  -3   16.25    0.84
  11  -6   3   14.93    0.82
 -11  -6  -3   16.07    0.79
  11  -6   3   14.33    0.71
 -11  -6  -3   15.14    0.74
 -11   6  -4    5.69    0.53
 -11  -6   4    5.89    0.59
  11  -6   4    5.58    0.55
 -11   6  -5    2.85    0.46
 -11  -6   5    3.30    0.52
 -11   6   5    2.85    0.53
  11  -6   5    2.44    0.76
  11  -7   0   -0.30    0.29
 -11  -7   0   -0.17    0.35
 -11  -7   0    0.14    0.27
  11  -7   0    0.61    0.32
 -11  -7   1    0.55    0.29
  11  -7  -1    0.61    0.30
 -11  -7   1    0.75    0.39
 -11  -7  -1    0.75    0.39
  11  -7   1    0.78    0.33
  11  -7   1    0.76    0.34
 -11  -7  -1    0.61    0.31
  11  -7  -2    0.17    0.29
 -11  -7   2   -0.33    0.37
  11  -7   2    0.16    0.33
 -11  -7  -2    0.14    0.38
 -11  -7   3    3.49    0.52
  11  -7   3    2.24    0.44
 -11  -7   4    0.34    0.41
  11  -7   4   -0.06    0.37
 -11  -8   0    0.73    0.39
  11  -8   0   -0.16    0.32
 -11  -8   1    3.61    0.52
  11  -8   1    3.78    0.49
 -11  -8  -1    2.59    0.48
 -11  -8   2    4.69    0.55
  11  -8   2    5.79    0.57
 -11  -8   3    9.43    0.70
  11  -8   3   10.61    0.74
  11  -9   0   -0.23    0.36
 -11  -9   1   -0.24    0.41
  11  -9   1    0.17    0.39
  12   0   0   84.18    1.19
 -12   0   0   83.59    1.41
 -12   0  -1   16.82    0.64
 -12   0   1   18.06    0.63
  12   0   1   17.37    0.53
 -12   0  -2   21.16    0.72
  12   0   2   20.93    0.61
 -12   0   2   21.60    0.68
  12   0   3    4.54    0.38
 -12   0   3    3.02    0.36
 -12   0  -3    3.93    0.42
  12   0   4   -0.01    0.27
 -12   0  -4   -0.56    0.27
  12   0   5   -0.06    0.32
 -12   0  -5    0.25    0.34
 -12   0  -6    1.67    0.44
 -12   1   0   44.27    0.95
  12  -1   0   43.42    0.80
 -12  -1   1    8.12    0.54
  12   1   1    8.69    0.42
 -12   1  -1    8.68    0.53
  12  -1   1    8.51    0.44
 -12  -1  -1    8.55    0.53
 -12   1   1    8.23    0.51
 -12  -1   2   19.60    0.69
 -12   1  -2   19.99    0.72
  12   1   2   20.26    0.62
  12  -1   2   19.96    0.63
 -12   1   2   20.74    0.65
 -12  -1  -2   20.03    0.72
 -12  -1   3   -0.34    0.24
 -12   1  -3    0.05    0.28
  12   1   3    0.36    0.25
  12  -1   3    0.65    0.27
 -12  -1  -3    0.24    0.30
 -12  -1  -3    0.11    0.19
 -12   1  -4    0.70    0.34
  12   1   4    0.80    0.29
 -12  -1   4    0.29    0.29
  12  -1   4    0.95    0.31
 -12  -1  -4    0.43    0.33
 -12   1  -5    4.01    0.49
 -12  -1  -5    3.46    0.47
 -12   1  -6    1.15    0.41
 -12  -1  -6    1.43    0.42
  12  -2   0    0.26    0.20
 -12   2   0   -0.06    0.24
 -12  -2   0    0.48    0.28
  12   2   1   55.29    0.95
 -12   2  -1   55.10    1.08
 -12  -2   1   53.76    1.09
 -12  -2  -1   55.16    1.15
 -12   2   1   54.42    1.02
  12  -2   1   56.42    1.01
 -12   2  -2    1.27    0.30
  12   2   2    0.97    0.25
 -12  -2   2    1.06    0.31
  12  -2   2    0.64    0.26
 -12  -2  -2    0.57    0.30
  12   2   3   37.90    0.89
 -12   2  -3   36.67    0.95
 -12  -2   3   35.48    0.93
 -12  -2  -3   38.24    0.99
  12  -2   3   37.71    0.90
 -12  -2  -3   36.20    0.83
  12   2   4   11.43    0.61
 -12   2  -4   11.66    0.66
 -12  -2   4   11.92    0.63
  12  -2   4   11.10    0.60
 -12  -2  -4   10.78    0.51
 -12  -2  -4   10.69    0.69
 -12   2  -5   23.71    0.90
 -12  -2   5   23.54    0.83
 -12  -2  -5   24.30    0.90
 -12   2  -6   10.38    0.74
 -12  -2  -6    9.40    0.68
  12  -3   0  113.48    1.60
 -12   3   0  113.96    1.64
 -12  -3   0  115.93    1.80
  12  -3  -1    0.67    0.21
 -12  -3   1    0.29    0.29
  12   3   1    0.18    0.19
 -12   3  -1    0.42    0.26
  12  -3   1    0.48    0.25
 -12  -3  -1    0.12    0.29
  12   3   2   63.32    1.13
 -12  -3   2   65.17    1.27
 -12   3  -2   65.80    1.23
  12  -3   2   64.28    1.17
 -12  -3  -2   65.63    1.32
  12   3   3    5.34    0.42
 -12  -3   3    6.60    0.50
 -12   3  -3    5.74    0.47
 -12  -3  -3    5.29    0.40
  12  -3   3    6.64    0.48
 -12  -3  -3    6.48    0.53
 -12  -3   4    9.44    0.64
 -12   3  -4   11.41    0.70
  12   3   4   10.42    0.59
 -12  -3  -4   11.16    0.72
  12  -3   4   10.14    0.65
 -12  -3  -4    9.02    0.53
 -12  -3   5    7.22    0.57
 -12   3  -5    8.29    0.65
 -12  -3  -5    7.19    0.60
 -12   3  -6    0.46    0.41
 -12  -3   6   -0.25    0.34
 -12  -3  -6    0.34    0.39
  12  -4   0   33.89    0.80
 -12  -4   0   33.91    0.94
  12  -4  -1    2.76    0.31
 -12  -4   1    2.68    0.40
 -12   4  -1    3.08    0.34
  12  -4   1    3.54    0.36
 -12  -4  -1    2.69    0.40
 -12  -4   2    8.03    0.60
 -12   4  -2    8.61    0.54
  12   4   2    7.22    0.48
  12  -4   2    8.38    0.53
 -12  -4  -2    7.76    0.53
 -12  -4  -2    8.48    0.59
 -12   4  -3    0.52    0.31
  12   4   3    0.17    0.26
 -12  -4   3    0.22    0.33
 -12  -4  -3    0.32    0.35
 -12  -4  -3    0.52    0.27
  12  -4   3    0.67    0.33
 -12  -4   4    0.71    0.35
 -12   4  -4    0.53    0.36
  12   4   4    1.06    0.34
 -12  -4  -4    1.08    0.30
 -12  -4  -4    0.45    0.36
  12  -4   4    0.69    0.45
 -12  -4   5    0.32    0.37
 -12   4  -5    0.68    0.36
 -12  -4  -5    0.60    0.38
  12  -5   0    4.12    0.39
 -12  -5   0    3.35    0.45
  12  -5  -1   19.78    0.65
 -12  -5   1   18.09    0.78
  12  -5   1   20.59    0.71
 -12  -5  -1   20.19    0.84
 -12  -5   2    0.50    0.34
 -12  -5  -2   -0.04    0.35
  12  -5   2    0.50    0.29
 -12  -5  -2   -0.09    0.25
 -12   5  -3    1.02    0.34
 -12  -5   3    1.32    0.39
  12  -5   3    1.32    0.35
 -12  -5  -3    1.30    0.42
 -12  -5  -3    0.61    0.30
 -12   5  -4    0.83    0.37
 -12  -5   4    1.17    0.42
 -12  -5  -4    2.10    0.44
 -12  -5   5    0.74    0.41
 -12   5  -5    0.48    0.37
 -12  -5  -5    0.95    0.46
  12  -6   0    5.99    0.47
 -12  -6   0    6.97    0.56
  12  -6  -1    8.11    0.52
 -12  -6   1    7.59    0.60
  12  -6   1    7.50    0.53
 -12  -6  -1    7.94    0.61
 -12  -6  -1    7.86    0.56
  12  -6  -2    0.50    0.41
 -12  -6   2    1.46    0.42
 -12  -6  -2    0.76    0.40
  12  -6   2    0.37    0.34
 -12  -6  -2    1.59    0.40
 -12  -6   3    7.68    0.62
  12  -6  -3    7.20    0.72
 -12  -6  -3    7.94    0.64
 -12   6  -4    2.49    0.44
 -12  -6   4    3.70    0.51
  12  -7   0   70.16    1.39
 -12  -7   0   70.73    1.51
  12  -7  -1    0.31    0.35
 -12  -7   1    0.92    0.41
  12  -7   1    0.60    0.37
 -12  -7  -1    1.28    0.45
 -12  -7   2   45.07    1.26
  12  -7  -2   44.57    1.52
 -12  -7  -2   47.92    1.28
 -12  -7   3    4.05    0.58
 -12  -8   0    1.18    0.48
  12  -8   0    2.42    0.42
 -12  -8   1    2.93    0.55
 -12  -8  -1    1.17    0.49
  12  -8   1    2.34    0.44
 -12  -8   2   -0.31    0.44
  12  -8   2    0.08    0.37
 -13   0   0    0.17    0.28
 -13   0   1    0.38    0.29
 -13   0  -1    0.72    0.31
  13   0   1    0.26    0.21
  13   0   2    0.62    0.25
 -13   0   2    0.07    0.27
 -13   0  -2   -0.05    0.29
 -13   0  -3    2.60    0.41
 -13   0   3    2.12    0.34
  13   0   3    2.71    0.36
 -13   0  -4    2.46    0.42
  13   0   4    1.75    0.37
 -13   0  -5   12.66    0.77
 -13   0  -6    3.59    0.53
 -13   1   0    0.44    0.27
 -13  -1   0    0.05    0.29
  13  -1   0    0.09    0.21
 -13   1  -1    3.30    0.38
 -13  -1   1    3.25    0.40
  13   1   1    3.65    0.32
  13  -1   1    3.68    0.34
 -13   1   1    3.60    0.40
 -13  -1  -1    2.93    0.39
  13   1   2    4.63    0.38
 -13  -1   2    4.63    0.42
 -13   1  -2    4.47    0.45
 -13  -1  -2    4.77    0.46
 -13   1   2    4.89    0.41
  13  -1   2    3.92    0.37
  13   1   3    9.98    0.54
 -13   1  -3    8.91    0.62
 -13  -1   3    9.84    0.61
 -13  -1  -3   10.56    0.48
  13  -1   3    8.94    0.53
 -13  -1  -3    9.62    0.64
  13   1   4    1.04    0.32
 -13   1  -4    0.56    0.36
 -13  -1   4    0.55    0.32
  13  -1   4    1.31    0.34
 -13  -1  -4    0.95    0.37
 -13   1  -5    0.24    0.36
 -13  -1  -5    0.48    0.40
 -13   1  -6    1.98    0.48
 -13  -1  -6    2.12    0.48
 -13  -2   0   -0.28    0.28
 -13   2   0   -0.18    0.26
  13  -2   0    0.04    0.20
 -13  -2   1    2.90    0.39
 -13   2  -1    2.64    0.37
 -13  -2  -1    2.32    0.38
 -13   2   1    2.95    0.35
  13  -2   1    2.54    0.31
  13   2   2   -0.09    0.22
 -13   2  -2   -0.45    0.26
 -13  -2   2   -0.19    0.29
 -13  -2  -2   -0.05    0.31
  13  -2   2    0.09    0.27
 -13   2  -3    7.84    0.59
  13   2   3    7.69    0.53
 -13  -2   3    7.31    0.54
  13  -2   3    8.06    0.56
 -13  -2  -3    7.00    0.55
 -13  -2  -3    7.33    0.46
 -13  -2   4    3.31    0.42
 -13   2  -4    3.51    0.48
  13   2   4    2.94    0.40
 -13  -2  -4    2.90    0.46
  13  -2   4    3.06    0.41
 -13  -2   5    3.99    0.47
 -13   2  -5    4.70    0.55
 -13  -2  -5    3.14    0.49
 -13  -3   0    0.16    0.29
  13  -3   0    0.33    0.24
 -13  -3   1    4.04    0.43
 -13   3  -1    5.12    0.42
 -13  -3  -1    4.31    0.45
  13  -3   1    5.53    0.41
 -13   3  -2   12.22    0.63
 -13  -3   2   11.76    0.66
  13   3   2   11.37    0.51
 -13  -3  -2   11.34    0.70
  13  -3   2   11.94    0.60
 -13   3  -3    8.35    0.61
  13   3   3    9.18    0.55
 -13  -3   3    9.69    0.68
 -13  -3  -3    9.72    0.68
  13  -3   3    9.26    0.60
 -13  -3  -3    9.51    0.55
  13   3   4   11.82    0.66
 -13   3  -4   10.72    0.74
 -13  -3   4   11.17    0.72
 -13  -3  -4   12.16    0.60
 -13  -3  -4   10.89    0.76
 -13  -3   5   -0.35    0.35
 -13   3  -5    0.53    0.38
 -13  -3  -5    0.34    0.37
 -13  -4   0    0.13    0.32
  13  -4   0   -0.45    0.23
  13  -4  -1    0.02    0.28
 -13  -4   1    0.31    0.33
  13  -4   1   -0.08    0.25
 -13  -4  -1   -0.07    0.32
 -13   4  -2    0.65    0.29
 -13  -4   2   -0.16    0.33
  13   4   2    0.47    0.26
  13  -4   2   -0.06    0.27
 -13  -4  -2   -0.07    0.34
 -13  -4  -2    0.40    0.28
 -13   4  -3    0.25    0.31
  13   4   3    0.65    0.29
 -13  -4   3   -0.76    0.33
 -13  -4  -3    0.53    0.27
  13  -4   3    0.33    0.31
 -13  -4  -3    0.61    0.38
 -13   4  -4    1.41    0.42
 -13  -4   4    1.20    0.40
 -13  -4  -4    1.18    0.42
 -13  -4   5    3.92    0.51
 -13   4  -5    2.99    0.50
 -13  -4  -5    3.47    0.53
  13  -5   0   -0.25    0.25
 -13  -5   0   -0.21    0.34
  13  -5  -1    1.36    0.31
 -13  -5   1    1.74    0.40
 -13  -5  -1    1.90    0.44
  13  -5   1    1.78    0.36
 -13  -5   2   -0.30    0.35
 -13  -5  -2    0.40    0.30
 -13  -5  -2    0.44    0.39
  13  -5   2    0.53    0.33
 -13  -5   3    6.18    0.59
 -13   5  -3    6.02    0.52
 -13  -5  -3    5.79    0.58
 -13   5  -4    0.76    0.39
 -13  -5   4    1.62    0.45
 -13  -5  -4    0.51    0.40
 -13  -6   0   -0.56    0.38
  13  -6   0   -0.04    0.31
  13  -6  -1    0.32    0.30
 -13  -6   1    0.30    0.39
  13  -6   1    0.34    0.40
 -13  -6  -1    0.63    0.43
 -13  -6   2    0.76    0.43
 -13  -6  -2    0.09    0.42
 -13  -6   3    0.55    0.45
 -13  -6  -3    0.35    0.41
 -13   6  -4    1.87    0.44
 -13  -6   4    1.39    0.50
 -13  -6  -4    1.73    0.48
 -13  -7   0    0.35    0.42
 -13  -7   1    1.77    0.48
 -13  -7  -1    2.49    0.52
 -13  -7   2    7.21    0.67
 -13  -7  -2    6.81    0.66
 -13  -7   3    3.62    0.59
 -13  -8   0    0.05    0.44
 -14   0   0   17.00    0.74
 -14   0   1   61.12    1.26
  14   0   1   60.15    1.07
 -14   0  -1   62.20    1.28
 -14   0  -2   17.75    0.76
  14   0   2   18.08    0.63
 -14   0   2   18.26    0.73
 -14   0   3   21.48    0.78
  14   0   3   21.21    0.74
 -14   0  -3   21.54    0.87
 -14   0  -4   15.75    0.84
 -14   0  -5    2.76    0.48
 -14  -1   0   56.59    1.24
 -14   1   0   57.60    1.18
 -14   1  -1   23.28    0.80
 -14  -1   1   22.27    0.81
 -14   1   1   22.56    0.78
  14  -1   1   22.87    0.65
 -14  -1  -1   24.76    0.88
 -14  -1   2   24.61    0.85
 -14   1  -2   23.84    0.86
  14   1   2   24.08    0.71
 -14  -1  -2   23.55    0.85
 -14   1   2   21.39    0.96
  14  -1   2   23.59    0.70
  14   1   3    6.78    0.48
 -14   1  -3    6.47    0.54
 -14  -1   3    6.91    0.53
  14  -1   3    5.82    0.46
 -14  -1  -3    6.26    0.55
 -14   1  -4    0.46    0.37
 -14  -1   4    0.23    0.33
 -14  -1  -4    0.09    0.36
 -14   1  -5   -0.07    0.37
 -14  -1  -5    0.06    0.38
 -14  -2   0    5.06    0.50
 -14   2   0    5.20    0.45
 -14   2  -1   -0.37    0.29
 -14  -2   1   -0.19    0.31
 -14  -2  -1   -0.30    0.30
  14  -2   1    0.18    0.25
 -14   2  -2    3.60    0.44
  14   2   2    3.62    0.36
 -14  -2   2    3.49    0.44
 -14  -2  -2    3.43    0.47
  14  -2   2    4.22    0.40
 -14  -2   3    3.92    0.47
 -14   2  -3    4.75    0.49
  14   2   3    3.97    0.39
 -14  -2  -3    3.68    0.37
  14  -2   3    4.39    0.44
 -14  -2  -3    3.98    0.50
 -14   2  -4    1.02    0.40
 -14  -2   4    0.16    0.36
 -14  -2  -4    0.63    0.41
 -14   2  -5    3.75    0.55
 -14  -2   5    3.80    0.51
 -14  -2  -5    5.65    0.61
 -14  -3   0   12.40    0.75
  14  -3   0   11.39    0.53
 -14   3  -1    4.11    0.42
 -14  -3   1    4.34    0.50
  14  -3   1    4.34    0.40
 -14  -3  -1    4.35    0.51
 -14   3  -2    1.45    0.36
 -14  -3   2    1.15    0.38
 -14  -3  -2    1.23    0.40
  14  -3   2    1.88    0.35
 -14   3  -3   -0.06    0.33
  14   3   3    0.04    0.27
 -14  -3   3   -0.41    0.35
 -14  -3  -3    0.19    0.37
  14  -3   3    0.25    0.31
 -14  -3  -3    0.16    0.27
 -14  -3   4    2.01    0.44
 -14   3  -4    3.08    0.48
 -14  -3  -4    2.61    0.47
 -14  -3  -4    4.18    0.54
 -14  -3   5    0.61    0.41
 -14   3  -5    0.63    0.42
 -14  -3  -5    0.73    0.42
  14  -4   0    6.48    0.45
 -14  -4   0    6.98    0.57
  14  -4   1   25.51    0.77
 -14  -4  -1   24.87    0.93
 -14   4  -2    8.18    0.59
 -14  -4   2    9.71    0.71
 -14  -4  -2    9.38    0.69
  14  -4   2    8.12    0.55
 -14  -4  -2    7.65    0.55
 -14  -4   3    7.56    0.62
  14   4   3    7.02    0.52
 -14   4  -3    7.89    0.60
 -14  -4  -3    7.00    0.62
 -14  -4   4    8.33    0.66
 -14   4  -4    7.76    0.63
 -14  -4  -4    8.44    0.68
 -14  -5   0   69.26    1.50
  14  -5   0   67.74    1.27
 -14  -5   1   29.64    1.01
 -14  -5  -1   30.35    1.05
  14  -5   1   31.21    0.90
 -14  -5   2   37.89    1.18
 -14  -5  -2   32.86    1.10
 -14  -5   3   12.70    0.83
 -14   5  -3   11.60    0.72
 -14  -5  -3   13.49    0.84
 -14   5  -4    3.74    0.50
 -14  -5   4    2.89    0.52
 -14  -5  -4    2.96    0.51
 -14  -6   0    0.06    0.43
 -14  -6   1    5.06    0.59
 -14  -6  -1    5.16    0.61
 -14  -6   2    0.04    0.46
 -14  -6  -2   -0.30    0.42
 -14  -6   3   -0.70    0.41
 -14  -6  -3   -0.11    0.45
 -14  -7   0    1.76    0.53
 -14  -7   1    0.32    0.46
 -14  -7  -1   -0.30    0.44
 -15   0   0   -0.30    0.30
 -15   0   1    3.75    0.46
 -15   0  -1    4.30    0.48
 -15   0  -2    1.21    0.39
  15   0   2    0.63    0.29
 -15   0   2    1.09    0.37
 -15   0  -3    7.59    0.62
  15   0   3    7.45    0.51
 -15   0  -4    1.22    0.45
 -15   0  -5    1.70    0.49
 -15  -1   0    0.05    0.34
 -15   1   0   -0.09    0.31
 -15   1  -1    1.30    0.36
 -15  -1   1    1.45    0.39
 -15  -1  -1    1.08    0.38
 -15   1   1    0.70    0.33
 -15   1  -2    0.18    0.34
  15   1   2    0.04    0.25
 -15  -1   2   -0.05    0.35
  15  -1   2    0.19    0.27
 -15  -1  -2   -0.52    0.32
 -15   1  -3    1.73    0.43
 -15  -1   3    1.43    0.40
  15   1   3    1.12    0.33
 -15  -1  -3    0.69    0.41
  15  -1   3    0.56    0.31
 -15   1  -4    0.22    0.39
 -15  -1  -4    0.28    0.40
 -15   1  -5    0.36    0.42
 -15  -1  -5    1.07    0.45
 -15   2   0    0.24    0.29
 -15  -2   0   -0.29    0.33
 -15   2  -1    2.01    0.39
 -15  -2   1    1.96    0.44
 -15  -2  -1    1.63    0.42
  15  -2   1    1.66    0.32
 -15  -2   2   10.09    0.71
 -15   2  -2   10.97    0.68
  15  -2   2   10.56    0.60
 -15  -2  -2   10.41    0.73
 -15  -2   3   11.97    0.79
  15   2   3   13.42    0.65
 -15   2  -3   12.54    0.75
 -15  -2  -3   12.52    0.84
 -15  -2  -3   13.27    0.63
 -15   2  -4   10.67    0.81
 -15  -2   4    7.53    0.61
 -15  -2  -4    9.50    0.72
 -15  -3   0   -0.12    0.37
 -15  -3   1    2.81    0.47
 -15   3  -1    1.94    0.38
  15  -3   1    2.11    0.37
 -15  -3  -1    2.68    0.47
 -15  -3   2   -0.04    0.38
 -15   3  -2    0.64    0.35
  15  -3   2    0.19    0.30
 -15  -3  -2   -0.33    0.36
 -15   3  -3    6.00    0.57
 -15  -3   3    7.47    0.62
  15   3   3    7.00    0.53
 -15  -3  -3    6.07    0.61
 -15   3  -4   -0.23    0.38
 -15  -3   4    0.24    0.40
 -15  -3  -4   -0.10    0.42
 -15  -4   0    0.14    0.39
 -15  -4   1    2.36    0.50
 -15  -4  -1    2.83    0.51
  15  -4   1    2.58    0.38
 -15   4  -2    1.48    0.40
 -15  -4   2    1.39    0.44
 -15  -4  -2    1.07    0.45
 -15  -4   3    7.14    0.62
 -15   4  -3    7.44    0.61
 -15  -4  -3    7.50    0.67
 -15   4  -4   -0.43    0.37
 -15  -4   4   -0.18    0.39
 -15  -4  -4    0.58    0.43
 -15  -5   0   -0.13    0.41
  15  -5   0    0.08    0.32
 -15  -5   1    0.33    0.45
 -15  -5  -1   -0.20    0.40
 -15  -5   2    0.06    0.42
 -15  -5  -2    0.29    0.43
 -15  -5   3   -0.26    0.46
 -15  -5  -3    0.44    0.44
 -15  -6   0    0.00    0.43
 -15  -6   1    1.51    0.53
 -15  -6  -1    0.83    0.49
 -15  -6   2    1.38    0.53
 -15  -6  -2    1.71    0.53
 -16   0   0   26.22    0.96
 -16   0  -1   18.31    0.83
 -16   0   1   18.25    0.86
 -16   0  -2   10.97    0.73
 -16   0   2   10.05    0.72
 -16   0  -3    0.96    0.43
 -16   0  -4   -0.03    0.42
 -16  -1   0    0.33    0.36
 -16   1   0    0.92    0.38
 -16  -1   1    0.93    0.41
 -16   1  -1    0.76    0.37
 -16  -1  -1    0.99    0.42
 -16   1   1    1.70    0.39
 -16  -1   2   -0.28    0.38
 -16   1  -2    0.55    0.38
 -16  -1  -2   -0.10    0.38
  16  -1   2    0.18    0.28
 -16   1  -3    4.55    0.56
 -16  -1   3    3.44    0.51
 -16  -1  -3    5.61    0.63
 -16   1  -4    0.47    0.43
 -16  -1  -4    0.11    0.42
 -16  -2   0    9.22    0.68
 -16   2   0   12.66    0.69
 -16   2  -1    0.54    0.34
 -16  -2   1    0.32    0.39
 -16  -2  -1    0.70    0.38
 -16   2  -2   20.10    0.88
 -16  -2   2   18.79    0.89
 -16  -2  -2   18.96    0.95
  16  -2   2   18.25    0.71
 -16   2  -3    1.06    0.44
 -16  -2   3    0.77    0.41
 -16  -2  -3    0.73    0.43
 -16   2  -4   27.78    1.09
 -16  -2   4   28.03    1.06
 -16  -2  -4   26.81    1.08
 -16  -3   0    0.24    0.41
 -16  -3   1   19.70    0.95
 -16  -3  -1   21.48    0.95
 -16   3  -2    0.46    0.35
 -16  -3   2    0.79    0.46
 -16  -3  -2    0.62    0.44
 -16  -3   3   19.11    0.95
 -16   3  -3   17.39    0.90
 -16  -3  -3   20.60    1.01
 -16  -4   0    8.73    0.71
 -16  -4   1   11.13    0.85
 -16  -4  -1    9.66    0.72
 -16  -4   2    1.71    0.50
 -16  -4  -2    1.45    0.49
 -16  -4   3    1.10    0.49
 -16   4  -3    0.28    0.39
 -16  -4  -3   -0.15    0.43
 -16  -5   0    2.66    0.53
 -16  -5   1    2.32    0.53
 -16  -5  -1    2.92    0.56
 -16  -5   2    0.37    0.46
 -16  -5  -2    0.71    0.48
 -17   0   0   -0.27    0.39
 -17   0   1    1.11    0.42
 -17   0  -1    0.20    0.37
 -17   0   2    6.39    0.81
 -17   0  -2    5.09    0.58
 -17   0  -3    1.12    0.47
 -17  -1   0    0.26    0.41
 -17   1   0    0.36    0.37
 -17  -1   1   -0.23    0.38
 -17   1  -1    0.28    0.40
 -17  -1  -1    0.15    0.39
 -17   1  -2    4.31    0.54
 -17  -1   2    3.89    0.55
 -17  -1  -2    2.24    0.48
 -17  -1   3    0.05    0.43
 -17   1  -3    0.58    0.41
 -17  -1  -3    0.68    0.45
 -17  -2   0   -0.30    0.40
 -17  -2   1    5.00    0.60
 -17   2  -1    4.11    0.51
 -17  -2  -1    4.80    0.60
 -17  -2   2    0.40    0.44
 -17   2  -2    0.90    0.42
 -17  -2  -2   -0.33    0.41
 -17   2  -3   17.31    0.94
 -17  -2   3   16.15    0.95
 -17  -2  -3   17.65    1.01
 -17  -3   0   -0.06    0.43
 -17  -3   1    1.08    0.48
 -17  -3  -1    0.57    0.46
 -17   3  -2    8.02    0.65
 -17  -3   2    7.20    0.68
 -17  -3  -2    6.27    0.67
 -17  -4   0    0.13    0.45
 -17  -4   1    0.53    0.47
 -17  -4  -1    1.21    0.47
 -18   0   0    0.53    0.44
 -18   0   1   20.86    0.98
 -18   0  -1   22.62    1.02
 -18   0  -2    1.18    0.49
 -18   1   0   17.77    0.90
 -18  -1   0   16.07    0.92
 -18  -1   1    0.50    0.43
 -18   1  -1    0.36    0.43
 -18  -1  -1   -0.15    0.39
 -18  -2   0   -0.17    0.41
 -18  -2   1    4.55    0.63
 -18   2  -1    5.07    0.56
 -18  -2  -1    4.47    0.60
   0   0   0    0.00    0.00
;
_shelx_hkl_checksum              1476
loop_
_space_group_symop_operation_xyz
'x, y, z'
'-x+1/2, -y, z+1/2'
'-x, y+1/2, -z'
'x+1/2, -y+1/2, -z+1/2'
'-x, -y, -z'
'x-1/2, y, -z-1/2'
'x, -y-1/2, z'
'-x-1/2, y-1/2, z-1/2'
loop_
_atom_site_label
_atom_site_type_symbol
_atom_site_fract_x
_atom_site_fract_y
_atom_site_fract_z
_atom_site_U_iso_or_equiv
_atom_site_adp_type
_atom_site_occupancy
_atom_site_site_symmetry_order
_atom_site_calc_flag
_atom_site_refinement_flags_posn
_atom_site_refinement_flags_adp
_atom_site_refinement_flags_occupancy
P1 P 0.08729(3) 0.250000 0.15622(6) 0.01522(11) Uani 0.75 2 d S T P
Si1 Si 0.08729(3) 0.250000 0.15622(6) 0.01522(11) Uani 0.25 2 d S T P
S1 S 0.15281(2) 0.03571(4) 0.27631(5) 0.02359(10) Uani 1 1 d . . .
S2 S -0.06191(3) 0.250000 0.26841(7) 0.01986(11) Uani 1 2 d S T P
S3 S 0.10084(4) 0.250000 -0.17765(7) 0.02334(12) Uani 1 2 d S T P
Li1A Li 0.3299(2) 0.0305(4) 0.3846(5) 0.0402(8) Uani 0.912(6) 1 d . U P
Li1B Li 0.334(2) 0.012(4) 0.218(6) 0.0402(8) Uani 0.088(6) 1 d . U P
Li2 Li 0.0061(5) 0.0447(8) 0.5572(9) 0.046(2) Uani 0.457(10) 1 d . . .
Li3A Li -0.079(3) 0.250000 -0.178(18) 0.07(2) Uani 0.20(5) 2 d S T .
Li3B Li -0.071(3) 0.250000 -0.312(13) 0.047(15) Uani 0.16(5) 2 d S T .
loop_
_atom_site_aniso_label
_atom_site_aniso_U_11
_atom_site_aniso_U_22
_atom_site_aniso_U_33
_atom_site_aniso_U_23
_atom_site_aniso_U_13
_atom_site_aniso_U_12
P1 0.0162(2) 0.0159(2) 0.01357(19) 0.000 0.00137(15) 0.000
Si1 0.0162(2) 0.0159(2) 0.01357(19) 0.000 0.00137(15) 0.000
S1 0.02099(17) 0.02320(17) 0.02658(16) 0.00543(11) 0.00036(11) 0.00414(12)
S2 0.0174(2) 0.0201(2) 0.0222(2) 0.000 0.00197(15) 0.000
S3 0.0328(3) 0.0224(2) 0.01478(18) 0.000 0.00339(16) 0.000
Li1A 0.0301(15) 0.0363(15) 0.054(2) 0.0166(14) -0.0037(13) 0.0012(11)
Li1B 0.0301(15) 0.0363(15) 0.054(2) 0.0166(14) -0.0037(13) 0.0012(11)
Li2 0.040(4) 0.056(5) 0.041(4) 0.022(3) 0.001(3) -0.012(3)
Li3A 0.07(2) 0.046(16) 0.10(6) 0.000 -0.02(2) 0.000
Li3B 0.046(18) 0.045(16) 0.05(3) 0.000 -0.010(15) 0.000
loop_
_atom_type_symbol
_atom_type_description
_atom_type_scat_dispersion_real
_atom_type_scat_dispersion_imag
_atom_type_scat_source
Li Li -0.0003 0.0001 'International Tables Vol C Tables 4.2.6.8 and 6.1.1.4'
P P 0.1023 0.0942 'International Tables Vol C Tables 4.2.6.8 and 6.1.1.4'
S S 0.1246 0.1234 'International Tables Vol C Tables 4.2.6.8 and 6.1.1.4'
Si Si 0.0817 0.0704 'International Tables Vol C Tables 4.2.6.8 and 6.1.1.4'
loop_
_geom_angle_atom_site_label_1
_geom_angle_atom_site_label_2
_geom_angle_atom_site_label_3
_geom_angle
_geom_angle_site_symmetry_1
_geom_angle_site_symmetry_3
S3 P1 S1 108.634(16) . .
S3 P1 S1 108.634(16) . 7_565
S1 P1 S1 113.24(3) . 7_565
S3 P1 S2 114.29(3) . .
S1 P1 S2 106.073(17) . .
S1 P1 S2 106.074(17) 7_565 .
S3 P1 Li3A 51.9(18) . .
S1 P1 Li3A 123.34(6) . .
S1 P1 Li3A 123.34(6) 7_565 .
S2 P1 Li3A 62.4(18) . .
S3 P1 Li1A 54.31(7) . 2_554
S1 P1 Li1A 54.58(7) . 2_554
S1 P1 Li1A 132.23(6) 7_565 2_554
S2 P1 Li1A 121.68(6) . 2_554
Li3A P1 Li1A 83.5(12) . 2_554
S3 P1 Li1A 54.31(7) . 8_665
S1 P1 Li1A 132.23(6) . 8_665
S1 P1 Li1A 54.58(7) 7_565 8_665
S2 P1 Li1A 121.68(6) . 8_665
Li3A P1 Li1A 83.5(12) . 8_665
Li1A P1 Li1A 97.09(13) 2_554 8_665
P1 S1 Li2 90.68(15) . 5_556
P1 S1 Li1B 115.2(7) . .
Li2 S1 Li1B 153.5(8) 5_556 .
P1 S1 Li1A 120.97(7) . .
Li2 S1 Li1A 135.44(16) 5_556 .
Li1B S1 Li1A 24.6(9) . .
P1 S1 Li1A 82.59(7) . 2_554
Li2 S1 Li1A 115.64(15) 5_556 2_554
Li1B S1 Li1A 75.5(9) . 2_554
Li1A S1 Li1A 100.03(8) . 2_554
P1 S1 Li3B 127.3(8) . 5
Li2 S1 Li3B 49.9(12) 5_556 5
Li1B S1 Li3B 111.1(11) . 5
Li1A S1 Li3B 111.6(8) . 5
Li1A S1 Li3B 85.8(18) 2_554 5
P1 S1 Li3A 120.3(12) . 5
Li2 S1 Li3A 62.1(19) 5_556 5
Li1B S1 Li3A 105.5(14) . 5
Li1A S1 Li3A 114.4(7) . 5
Li1A S1 Li3A 67(2) 2_554 5
Li3B S1 Li3A 18.7(11) 5 5
P1 S1 Li2 84.38(14) . .
Li2 S1 Li2 23.1(3) 5_556 .
Li1B S1 Li2 146.6(9) . .
Li1A S1 Li2 122.40(15) . .
Li1A S1 Li2 136.16(14) 2_554 .
Li3B S1 Li2 69.6(14) 5 .
Li3A S1 Li2 84(2) 5 .
P1 S1 Li1B 119.7(6) . 2
Li2 S1 Li1B 66.3(7) 5_556 2
Li1B S1 Li1B 94.2(10) . 2
Li1A S1 Li1B 70.6(6) . 2
Li1A S1 Li1B 157.7(7) 2_554 2
Li3B S1 Li1B 79.4(19) 5 2
Li3A S1 Li1B 98(2) 5 2
Li2 S1 Li1B 52.6(6) . 2
P1 S2 Li1B 124.0(7) . 6_556
P1 S2 Li1B 124.0(7) . 4_455
Li1B S2 Li1B 108.8(15) 6_556 4_455
P1 S2 Li1A 114.92(7) . 6_556
Li1B S2 Li1A 24.7(9) 6_556 6_556
Li1B S2 Li1A 105.1(8) 4_455 6_556
P1 S2 Li1A 114.92(7) . 4_455
Li1B S2 Li1A 105.1(8) 6_556 4_455
Li1B S2 Li1A 24.7(9) 4_455 4_455
Li1A S2 Li1A 91.92(15) 6_556 4_455
P1 S2 Li3B 111.9(7) . 1_556
Li1B S2 Li3B 86.5(10) 6_556 1_556
Li1B S2 Li3B 86.5(10) 4_455 1_556
Li1A S2 Li3B 110.8(5) 6_556 1_556
Li1A S2 Li3B 110.8(5) 4_455 1_556
P1 S2 Li2 84.24(14) . .
Li1B S2 Li2 70.0(9) 6_556 .
Li1B S2 Li2 134.3(9) 4_455 .
Li1A S2 Li2 90.26(15) 6_556 .
Li1A S2 Li2 157.42(16) 4_455 .
Li3B S2 Li2 47.9(4) 1_556 .
P1 S2 Li2 84.24(14) . 7_565
Li1B S2 Li2 134.3(9) 6_556 7_565
Li1B S2 Li2 70.0(9) 4_455 7_565
Li1A S2 Li2 157.42(16) 6_556 7_565
Li1A S2 Li2 90.26(15) 4_455 7_565
Li3B S2 Li2 47.9(4) 1_556 7_565
Li2 S2 Li2 79.4(3) . 7_565
P1 S2 Li2 82.76(14) . 3_556
Li1B S2 Li2 149.1(8) 6_556 3_556
Li1B S2 Li2 55.4(8) 4_455 3_556
Li1A S2 Li2 160.04(15) 6_556 3_556
Li1A S2 Li2 71.29(15) 4_455 3_556
Li3B S2 Li2 67.5(3) 1_556 3_556
Li2 S2 Li2 101.20(5) . 3_556
Li2 S2 Li2 22.1(3) 7_565 3_556
P1 S2 Li2 82.76(14) . 5_556
Li1B S2 Li2 55.4(8) 6_556 5_556
Li1B S2 Li2 149.1(8) 4_455 5_556
Li1A S2 Li2 71.29(15) 6_556 5_556
Li1A S2 Li2 160.04(15) 4_455 5_556
Li3B S2 Li2 67.5(3) 1_556 5_556
Li2 S2 Li2 22.1(3) . 5_556
Li2 S2 Li2 101.20(5) 7_565 5_556
Li2 S2 Li2 122.6(2) 3_556 5_556
P1 S2 Li3A 75.4(9) . .
Li1B S2 Li3A 89.2(10) 6_556 .
Li1B S2 Li3A 89.2(10) 4_455 .
Li1A S2 Li3A 64.6(5) 6_556 .
Li1A S2 Li3A 64.6(5) 4_455 .
Li3B S2 Li3A 172.6(11) 1_556 .
Li2 S2 Li3A 135.5(4) . .
Li2 S2 Li3A 135.5(4) 7_565 .
Li2 S2 Li3A 114.7(3) 3_556 .
Li2 S2 Li3A 114.7(3) 5_556 .
P1 S3 Li1B 107.5(9) . 8_665
P1 S3 Li1B 107.5(9) . 2_554
Li1B S3 Li1B 126.3(17) 8_665 2_554
P1 S3 Li3A 85(3) . .
Li1B S3 Li3A 111.2(11) 8_665 .
Li1B S3 Li3A 111.2(11) 2_554 .
P1 S3 Li3B 105.0(19) . .
Li1B S3 Li3B 104.4(11) 8_665 .
Li1B S3 Li3B 104.4(11) 2_554 .
Li3A S3 Li3B 20.0(13) . .
P1 S3 Li1A 82.97(8) . 8_665
Li1B S3 Li1A 24.6(9) 8_665 8_665
Li1B S3 Li1A 136.5(8) 2_554 8_665
Li3A S3 Li1A 111.7(5) . 8_665
Li3B S3 Li1A 113.64(8) . 8_665
P1 S3 Li1A 82.97(8) . 2_554
Li1B S3 Li1A 136.5(8) 8_665 2_554
Li1B S3 Li1A 24.6(9) 2_554 2_554
Li3A S3 Li1A 111.7(5) . 2_554
Li3B S3 Li1A 113.64(8) . 2_554
Li1A S3 Li1A 132.66(14) 8_665 2_554
P1 S3 Li2 125.06(12) . 1_554
Li1B S3 Li2 124.3(9) 8_665 1_554
Li1B S3 Li2 56.3(8) 2_554 1_554
Li3A S3 Li2 61.7(19) . 1_554
Li3B S3 Li2 48.9(11) . 1_554
Li1A S3 Li2 147.74(15) 8_665 1_554
Li1A S3 Li2 72.38(16) 2_554 1_554
P1 S3 Li2 125.06(12) . 7_564
Li1B S3 Li2 56.3(8) 8_665 7_564
Li1B S3 Li2 124.3(9) 2_554 7_564
Li3A S3 Li2 61.7(19) . 7_564
Li3B S3 Li2 48.9(11) . 7_564
Li1A S3 Li2 72.38(16) 8_665 7_564
Li1A S3 Li2 147.74(15) 2_554 7_564
Li2 S3 Li2 77.6(3) 1_554 7_564
Li1B Li1A S1 77.6(17) . .
Li1B Li1A S2 72.2(18) . 6_656
S1 Li1A S2 116.18(11) . 6_656
Li1B Li1A S3 72.1(17) . 2
S1 Li1A S3 109.23(12) . 2
S2 Li1A S3 112.59(12) 6_656 2
Li1B Li1A S1 157.5(17) . 2
S1 Li1A S1 110.99(12) . 2
S2 Li1A S1 118.25(13) 6_656 2
S3 Li1A S1 85.38(8) 2 2
Li1B Li1A Li3A 135(2) . 6_656
S1 Li1A Li3A 125.4(6) . 6_656
S2 Li1A Li3A 62.8(16) 6_656 6_656
S3 Li1A Li3A 121.3(9) 2 6_656
S1 Li1A Li3A 58.0(17) 2 6_656
Li1B Li1A Li1B 134.3(14) . 2
S1 Li1A Li1B 59.7(7) . 2
S2 Li1A Li1B 139.6(6) 6_656 2
S3 Li1A Li1B 105.6(6) 2 2
S1 Li1A Li1B 51.5(7) 2 2
Li3A Li1A Li1B 86.6(15) 6_656 2
Li1B Li1A P1 114.7(17) . 2
S1 Li1A P1 120.86(10) . 2
S2 Li1A P1 122.70(10) 6_656 2
S3 Li1A P1 42.72(4) 2 2
S1 Li1A P1 42.84(4) 2 2
Li3A Li1A P1 87.8(14) 6_656 2
Li1B Li1A P1 78.3(7) 2 2
Li1B Li1A Li2 43.3(17) . 2_554
S1 Li1A Li2 120.71(17) . 2_554
S2 Li1A Li2 58.19(13) 6_656 2_554
S3 Li1A Li2 56.42(14) 2 2_554
S1 Li1A Li2 122.64(16) 2 2_554
Li3A Li1A Li2 104.4(11) 6_656 2_554
Li1B Li1A Li2 161.9(6) 2 2_554
P1 Li1A Li2 87.65(15) 2 2_554
Li1B Li1A Li3B 144(2) . 6_656
S1 Li1A Li3B 124.7(5) . 6_656
S2 Li1A Li3B 72.6(9) 6_656 6_656
S3 Li1A Li3B 116.7(5) 2 6_656
S1 Li1A Li3B 48.0(8) 2 6_656
Li3A Li1A Li3B 10.0(10) 6_656 6_656
Li1B Li1A Li3B 79.1(10) 2 6_656
P1 Li1A Li3B 79.8(6) 2 6_656
Li2 Li1A Li3B 109.9(7) 2_554 6_656
Li1B Li1A Li1A 98.4(18) . 7_565
S1 Li1A Li1A 89.02(7) . 7_565
S2 Li1A Li1A 44.04(7) 6_656 7_565
S3 Li1A Li1A 156.33(7) 2 7_565
S1 Li1A Li1A 102.44(7) 2 7_565
Li3A Li1A Li1A 50.8(13) 6_656 7_565
Li1B Li1A Li1A 96.5(6) 2 7_565
P1 Li1A Li1A 138.55(6) 2 7_565
Li2 Li1A Li1A 101.59(13) 2_554 7_565
Li3B Li1A Li1A 58.9(7) 6_656 7_565
Li1A Li1B S2 83(2) . 6_656
Li1A Li1B S3 83.3(18) . 2
S2 Li1B S3 120.4(13) 6_656 2
Li1A Li1B Li2 119(2) . 2_554
S2 Li1B Li2 69.8(9) 6_656 2_554
S3 Li1B Li2 67.7(9) 2 2_554
Li1A Li1B S1 77.8(18) . .
S2 Li1B S1 120.2(14) 6_656 .
S3 Li1B S1 112.8(12) 2 .
Li2 Li1B S1 162.2(18) 2_554 .
Li1A Li1B S1 180(3) . 2_554
S2 Li1B S1 96.4(11) 6_656 2_554
S3 Li1B S1 96.9(12) 2 2_554
Li2 Li1B S1 60.4(9) 2_554 2_554
S1 Li1B S1 102.5(12) . 2_554
Li1A Li1B Li2 128(2) . 6_656
S2 Li1B Li2 58.8(7) 6_656 6_656
S3 Li1B Li2 87.4(10) 2 6_656
Li2 Li1B Li2 20.1(4) 2_554 6_656
S1 Li1B Li2 150.0(14) . 6_656
S1 Li1B Li2 51.3(6) 2_554 6_656
Li1A Li1B Li1A 131(2) . 2_554
S2 Li1B Li1A 122.3(12) 6_656 2_554
S3 Li1B Li1A 110.1(13) 2 2_554
Li2 Li1B Li1A 109.5(14) 2_554 2_554
S1 Li1B Li1A 53.0(6) . 2_554
S1 Li1B Li1A 49.7(6) 2_554 2_554
Li2 Li1B Li1A 100.3(11) 6_656 2_554
Li1A Li1B Li3B 132(2) . 6_655
S2 Li1B Li3B 49.5(12) 6_656 6_655
S3 Li1B Li3B 124.8(13) 2 6_655
Li2 Li1B Li3B 58.2(8) 2_554 6_655
S1 Li1B Li3B 115.3(12) . 6_655
S1 Li1B Li3B 47.7(11) 2_554 6_655
Li2 Li1B Li3B 38.1(6) 6_656 6_655
Li1A Li1B Li3B 80.0(13) 2_554 6_655
Li2 Li2 Li3B 138.1(16) 5_556 1_556
Li2 Li2 Li1B 107.0(11) 5_556 2
Li3B Li2 Li1B 114.8(16) 1_556 2
Li2 Li2 S1 88.1(7) 5_556 5_556
Li3B Li2 S1 68.3(11) 1_556 5_556
Li1B Li2 S1 122.7(9) 2 5_556
Li2 Li2 Li3A 145.1(12) 5_556 1_556
Li3B Li2 Li3A 16.8(8) 1_556 1_556
Li1B Li2 Li3A 104.3(15) 2 1_556
S1 Li2 Li3A 61.8(9) 5_556 1_556
Li2 Li2 S2 85.6(7) 5_556 .
Li3B Li2 S2 66(2) 1_556 .
Li1B Li2 S2 135.9(9) 2 .
S1 Li2 S2 99.2(2) 5_556 .
Li3A Li2 S2 82.7(18) 1_556 .
Li2 Li2 S1 68.8(7) 5_556 .
Li3B Li2 S1 129.6(15) 1_556 .
Li1B Li2 S1 67.1(9) 2 .
S1 Li2 S1 156.9(3) 5_556 .
Li3A Li2 S1 139.8(11) 1_556 .
S2 Li2 S1 79.63(15) . .
Li2 Li2 S3 160.7(9) 5_556 1_556
Li3B Li2 S3 59.9(12) 1_556 1_556
Li1B Li2 S3 56.0(8) 2 1_556
S1 Li2 S3 108.5(2) 5_556 1_556
Li3A Li2 S3 54.2(8) 1_556 1_556
S2 Li2 S3 100.8(2) . 1_556
S1 Li2 S3 94.3(2) . 1_556
Li2 Li2 S2 72.3(7) 5_556 5_556
Li3B Li2 S2 132(2) 1_556 5_556
Li1B Li2 S2 54.8(8) 2 5_556
S1 Li2 S2 80.44(17) 5_556 5_556
Li3A Li2 S2 115.5(18) 1_556 5_556
S2 Li2 S2 157.9(3) . 5_556
S1 Li2 S2 92.0(2) . 5_556
S3 Li2 S2 100.13(19) 1_556 5_556
Li2 Li2 Li1B 53.0(9) 5_556 6_556
Li3B Li2 Li1B 85.2(15) 1_556 6_556
Li1B Li2 Li1B 159.9(4) 2 6_556
S1 Li2 Li1B 62.4(7) 5_556 6_556
Li3A Li2 Li1B 95.1(14) 1_556 6_556
S2 Li2 Li1B 51.2(7) . 6_556
S1 Li2 Li1B 101.3(7) . 6_556
S3 Li2 Li1B 143.6(7) 1_556 6_556
S2 Li2 Li1B 111.8(7) 5_556 6_556
Li2 Li2 Li3B 28.5(11) 5_556 5
Li3B Li2 Li3B 166.6(6) 1_556 5
Li1B Li2 Li3B 78.5(12) 2 5
S1 Li2 Li3B 104.6(8) 5_556 5
Li3A Li2 Li3B 165.6(8) 1_556 5
S2 Li2 Li3B 105.3(13) . 5
S1 Li2 Li3B 54.5(9) . 5
S3 Li2 Li3B 133.3(8) 1_556 5
S2 Li2 Li3B 54.3(13) 5_556 5
Li1B Li2 Li3B 81.4(11) 6_556 5
Li2 Li2 Li1A 115.5(8) 5_556 2
Li3B Li2 Li1A 104.4(17) 1_556 2
Li1B Li2 Li1A 17.4(9) 2 2
S1 Li2 Li1A 106.60(19) 5_556 2
Li3A Li2 Li1A 91.1(15) 1_556 2
S2 Li2 Li1A 146.6(2) . 2
S1 Li2 Li1A 84.4(2) . 2
S3 Li2 Li1A 51.20(12) 1_556 2
S2 Li2 Li1A 50.53(12) 5_556 2
Li1B Li2 Li1A 162.0(7) 6_556 2
Li3B Li2 Li1A 88.4(11) 5 2
Li3B Li3A S3 82(5) . .
Li3B Li3A S1 79(3) . 5
S3 Li3A S1 112.2(15) . 5
Li3B Li3A S1 79(3) . 3
S3 Li3A S1 112.2(15) . 3
S1 Li3A S1 127(2) 5 3
Li3B Li3A Li2 47(3) . 1_554
S3 Li3A Li2 64.2(16) . 1_554
S1 Li3A Li2 56.1(12) 5 1_554
S1 Li3A Li2 126(4) 3 1_554
Li3B Li3A Li2 47(3) . 7_564
S3 Li3A Li2 64.2(16) . 7_564
S1 Li3A Li2 126(4) 5 7_564
S1 Li3A Li2 56.1(12) 3 7_564
Li2 Li3A Li2 80(3) 1_554 7_564
Li3B Li3A S2 168(4) . .
S3 Li3A S2 85(2) . .
S1 Li3A S2 105(3) 5 .
S1 Li3A S2 105(3) 3 .
Li2 Li3A S2 126.4(16) 1_554 .
Li2 Li3A S2 126.4(16) 7_564 .
Li3B Li3A Li1A 134(2) . 4_455
S3 Li3A Li1A 115(2) . 4_455
S1 Li3A Li1A 124(3) 5 4_455
S1 Li3A Li1A 54.8(9) 3 4_455
Li2 Li3A Li1A 179(3) 1_554 4_455
Li2 Li3A Li1A 100.9(2) 7_564 4_455
S2 Li3A Li1A 52.6(19) . 4_455
Li3B Li3A Li1A 134(2) . 6_556
S3 Li3A Li1A 115(2) . 6_556
S1 Li3A Li1A 54.8(9) 5 6_556
S1 Li3A Li1A 124(3) 3 6_556
Li2 Li3A Li1A 100.9(2) 1_554 6_556
Li2 Li3A Li1A 179(3) 7_564 6_556
S2 Li3A Li1A 52.6(19) . 6_556
Li1A Li3A Li1A 78(3) 4_455 6_556
Li3B Li3A P1 125(5) . .
S3 Li3A P1 43.1(10) . .
S1 Li3A P1 115.9(16) 5 .
S1 Li3A P1 115.9(16) 3 .
Li2 Li3A P1 96.5(10) 1_554 .
Li2 Li3A P1 96.5(10) 7_564 .
S2 Li3A P1 42.2(13) . .
Li1A Li3A P1 83(2) 4_455 .
Li1A Li3A P1 83(2) 6_556 .
Li3B Li3A Li2 45.2(17) . 5
S3 Li3A Li2 73.8(19) . 5
S1 Li3A Li2 48.2(13) 5 5
S1 Li3A Li2 124(4) 3 5
Li2 Li3A Li2 9.7(4) 1_554 5
Li2 Li3A Li2 84(3) 7_564 5
S2 Li3A Li2 130.4(12) . 5
Li1A Li3A Li2 170.7(12) 4_455 5
Li1A Li3A Li2 96.9(3) 6_556 5
P1 Li3A Li2 104.9(9) . 5
Li3A Li3B Li2 116(3) . 7_564
Li3A Li3B Li2 116(3) . 1_554
Li2 Li3B Li2 104(3) 7_564 1_554
Li3A Li3B S3 78(4) . .
Li2 Li3B S3 71.2(9) 7_564 .
Li2 Li3B S3 71.2(9) 1_554 .
Li3A Li3B S1 82(2) . 5
Li2 Li3B S1 161(4) 7_564 5
Li2 Li3B S1 61.8(3) 1_554 5
S3 Li3B S1 111.7(12) . 5
Li3A Li3B S1 82(2) . 3
Li2 Li3B S1 61.8(3) 7_564 3
Li2 Li3B S1 161(4) 1_554 3
S3 Li3B S1 111.7(12) . 3
S1 Li3B S1 128.7(16) 5 3
Li3A Li3B S2 175(4) . 1_554
Li2 Li3B S2 66(2) 7_564 1_554
Li2 Li3B S2 66(2) 1_554 1_554
S3 Li3B S2 107(2) . 1_554
S1 Li3B S2 96.0(18) 5 1_554
S1 Li3B S2 96.0(18) 3 1_554
Li3A Li3B Li2 123.2(17) . 5
Li2 Li3B Li2 107(3) 7_564 5
Li2 Li3B Li2 13.4(6) 1_554 5
S3 Li3B Li2 84.4(10) . 5
S1 Li3B Li2 55.9(5) 5 5
S1 Li3B Li2 154(3) 3 5
S2 Li3B Li2 58.3(14) 1_554 5
Li3A Li3B Li2 123.2(17) . 3
Li2 Li3B Li2 13.4(6) 7_564 3
Li2 Li3B Li2 107(3) 1_554 3
S3 Li3B Li2 84.4(10) . 3
S1 Li3B Li2 154(3) 5 3
S1 Li3B Li2 55.9(5) 3 3
S2 Li3B Li2 58.3(14) 1_554 3
Li2 Li3B Li2 108(2) 5 3
Li3A Li3B Li1B 133(3) . 6
Li2 Li3B Li1B 110(3) 7_564 6
Li2 Li3B Li1B 56.7(14) 1_554 6
S3 Li3B Li1B 126.8(18) . 6
S1 Li3B Li1B 52.9(11) 5 6
S1 Li3B Li1B 114.6(18) 3 6
S2 Li3B Li1B 44.0(11) 1_554 6
Li2 Li3B Li1B 43.3(9) 5 6
Li2 Li3B Li1B 101(2) 3 6
Li3A Li3B Li1B 133(3) . 4_454
Li2 Li3B Li1B 56.7(14) 7_564 4_454
Li2 Li3B Li1B 110(3) 1_554 4_454
S3 Li3B Li1B 126.8(18) . 4_454
S1 Li3B Li1B 114.6(18) 5 4_454
S1 Li3B Li1B 52.9(11) 3 4_454
S2 Li3B Li1B 44.0(11) 1_554 4_454
Li2 Li3B Li1B 101(2) 5 4_454
Li2 Li3B Li1B 43.3(9) 3 4_454
Li1B Li3B Li1B 68.9(18) 6 4_454
Li3A Li3B Li1A 35.9(17) . 4_455
Li2 Li3B Li1A 94.2(12) 7_564 4_455
Li2 Li3B Li1A 152(3) 1_554 4_455
S3 Li3B Li1A 96(2) . 4_455
S1 Li3B Li1A 104(2) 5 4_455
S1 Li3B Li1A 46.2(10) 3 4_455
S2 Li3B Li1A 141.6(10) 1_554 4_455
Li2 Li3B Li1A 157.1(19) 5 4_455
Li2 Li3B Li1A 95.1(6) 3 4_455
Li1B Li3B Li1A 135.7(12) 6 4_455
Li1B Li3B Li1A 97.6(8) 4_454 4_455
loop_
_geom_bond_atom_site_label_1
_geom_bond_atom_site_label_2
_geom_bond_distance
_geom_bond_site_symmetry_2
P1 S3 2.0540(6) .
P1 S1 2.0604(4) .
P1 S1 2.0604(4) 7_565
P1 S2 2.0801(6) .
P1 Li3A 3.00(7) .
P1 Li1A 3.005(3) 2_554
P1 Li1A 3.005(3) 8_665
S1 Li2 2.414(6) 5_556
S1 Li1B 2.42(3) .
S1 Li1A 2.424(3) .
S1 Li1A 2.469(3) 2_554
S1 Li3B 2.544(17) 5
S1 Li3A 2.56(2) 5
S1 Li2 2.588(6) .
S1 Li1B 2.74(4) 2
S2 Li1B 2.35(3) 6_556
S2 Li1B 2.35(3) 4_455
S2 Li1A 2.451(3) 6_556
S2 Li1A 2.451(3) 4_455
S2 Li3B 2.58(8) 1_556
S2 Li2 2.579(6) .
S2 Li2 2.579(6) 7_565
S2 Li2 2.698(6) 3_556
S2 Li2 2.698(6) 5_556
S2 Li3A 2.74(11) .
S3 Li1B 2.36(3) 8_665
S3 Li1B 2.36(3) 2_554
S3 Li3A 2.37(4) .
S3 Li3B 2.40(4) .
S3 Li1A 2.459(3) 8_665
S3 Li1A 2.459(3) 2_554
S3 Li2 2.629(6) 1_554
S3 Li2 2.629(6) 7_564
Li1A Li1B 1.03(4) .
Li1A Li3A 2.79(8) 6_656
Li1A Li1B 3.00(3) 2
Li1A Li2 3.008(7) 2_554
Li1A Li3B 3.41(7) 6_656
Li1A Li1A 3.524(6) 7_565
Li1B Li2 2.37(3) 2_554
Li1B Li2 2.83(3) 6_656
Li1B Li3B 3.38(7) 6_655
Li2 Li2 1.017(12) 5_556
Li2 Li3B 2.09(4) 1_556
Li2 Li3A 2.57(8) 1_556
Li2 Li3B 2.93(5) 5
Li3A Li3B 0.83(5) .
